# Generated by pormake.
# Topology rtl, (3,6)-cn, num edge types: 1
# Building blocks:
#     Node 0, Type 0, BuildingBlock: PAMTOO_clean_linker_0, # of connection points: 3
#     Node 1, Type 0, BuildingBlock: PAMTOO_clean_linker_0, # of connection points: 3
#     Node 2, Type 0, BuildingBlock: PAMTOO_clean_linker_0, # of connection points: 3
#     Node 3, Type 0, BuildingBlock: PAMTOO_clean_linker_0, # of connection points: 3
#     Node 4, Type 1, BuildingBlock: KUMBUR_clean_sbu_1, # of connection points: 6
#     Node 5, Type 1, BuildingBlock: KUMBUR_clean_sbu_1, # of connection points: 6
#     Edge 6, Type (0, 1), BuildingBlock: MIFKUJ_clean_linker_0, # of connection points: 2
#     Edge 7, Type (0, 1), BuildingBlock: MIFKUJ_clean_linker_0, # of connection points: 2
#     Edge 8, Type (0, 1), BuildingBlock: MIFKUJ_clean_linker_0, # of connection points: 2
#     Edge 9, Type (0, 1), BuildingBlock: MIFKUJ_clean_linker_0, # of connection points: 2
#     Edge 10, Type (0, 1), BuildingBlock: MIFKUJ_clean_linker_0, # of connection points: 2
#     Edge 11, Type (0, 1), BuildingBlock: MIFKUJ_clean_linker_0, # of connection points: 2
#     Edge 12, Type (0, 1), BuildingBlock: MIFKUJ_clean_linker_0, # of connection points: 2
#     Edge 13, Type (0, 1), BuildingBlock: MIFKUJ_clean_linker_0, # of connection points: 2
#     Edge 14, Type (0, 1), BuildingBlock: MIFKUJ_clean_linker_0, # of connection points: 2
#     Edge 15, Type (0, 1), BuildingBlock: MIFKUJ_clean_linker_0, # of connection points: 2
#     Edge 16, Type (0, 1), BuildingBlock: MIFKUJ_clean_linker_0, # of connection points: 2
#     Edge 17, Type (0, 1), BuildingBlock: MIFKUJ_clean_linker_0, # of connection points: 2
# Relax obj value: 0.051
# Max RMSD: 0.205
# Mean RMSD: 0.156
data_MOF--net-rtl--node1-KUMBUR_clean_sbu_1--node2-PAMTOO_clean_linker_0--edge1-MIFKUJ_clean_linker_0
_symmetry_space_group_name_H-M    P1
_symmetry_Int_Tables_number       1
_symmetry_cell_setting            triclinic
loop_
_symmetry_equiv_pos_as_xyz
'x, y, z'
_cell_length_a     45.34281
_cell_length_b     45.451452
_cell_length_c     34.158112
_cell_angle_alpha  81.763174
_cell_angle_beta   99.09111
_cell_angle_gamma 90.842411
loop_
_atom_site_label
_atom_site_type_symbol
_atom_site_fract_x
_atom_site_fract_y
_atom_site_fract_z
_atom_type_partial_charge
H0 H 0.18622 0.88847 0.00918 0.0
H1 H 0.25546 0.83377 0.08519 0.0
H2 H 0.2396 0.83074 0.95882 0.0
H3 H 0.24379 0.7734 0.0174 0.0
C4 C 0.26474 0.7789 0.0367 0.0
O5 O 0.27116 0.80867 0.02716 0.0
H6 H 0.26121 0.77453 0.06849 0.0
C7 C 0.20417 0.87239 0.01301 0.0
C8 C 0.21119 0.86142 0.97911 0.0
C9 C 0.21975 0.86274 0.05167 0.0
C10 C 0.24286 0.84156 0.05597 0.0
C11 C 0.24979 0.82998 0.02251 0.0
C12 C 0.23414 0.84007 0.98427 0.0
H13 H 0.64509 0.67085 0.61762 0.0
H14 H 0.70706 0.72845 0.56153 0.0
H15 H 0.70556 0.72465 0.68757 0.0
H16 H 0.71531 0.7877 0.64112 0.0
C17 C 0.72548 0.77986 0.61685 0.0
O18 O 0.73068 0.74955 0.62645 0.0
H19 H 0.70951 0.78459 0.58837 0.0
C20 C 0.66304 0.68682 0.61992 0.0
C21 C 0.67405 0.69566 0.65733 0.0
C22 C 0.67476 0.69829 0.58522 0.0
C23 C 0.69737 0.7197 0.58781 0.0
C24 C 0.70817 0.72951 0.62449 0.0
C25 C 0.69648 0.71754 0.65919 0.0
H26 H 0.84442 0.12722 0.05617 0.0
H27 H 0.78211 0.191 0.98294 0.0
H28 H 0.79606 0.18688 0.11064 0.0
H29 H 0.73327 0.19304 0.06879 0.0
C30 C 0.73704 0.20929 0.04242 0.0
O31 O 0.76724 0.21397 0.04311 0.0
H32 H 0.72764 0.19962 0.015 0.0
C33 C 0.82818 0.14492 0.05342 0.0
C34 C 0.82194 0.15511 0.08824 0.0
C35 C 0.81409 0.15759 0.01513 0.0
C36 C 0.79336 0.18088 0.012 0.0
C37 C 0.78679 0.19118 0.04646 0.0
C38 C 0.801 0.1783 0.08438 0.0
H39 H 0.38582 0.34678 0.44679 0.0
H40 H 0.32862 0.28504 0.50669 0.0
H41 H 0.32835 0.28906 0.38034 0.0
H42 H 0.26859 0.2798 0.40704 0.0
C43 C 0.27584 0.26831 0.43803 0.0
O44 O 0.3061 0.26215 0.44298 0.0
H45 H 0.27141 0.28358 0.4592 0.0
C46 C 0.36881 0.32979 0.44607 0.0
C47 C 0.3579 0.32011 0.40931 0.0
C48 C 0.35851 0.31765 0.48164 0.0
C49 C 0.33744 0.29457 0.48006 0.0
C50 C 0.32673 0.28412 0.44376 0.0
C51 C 0.33705 0.29684 0.40841 0.0
Tb52 Tb 0.03552 0.98132 0.50616 0.0
C53 C 0.95904 0.09147 0.52148 0.0
N54 N 0.98821 0.08374 0.53357 0.0
C55 C 1.00291 0.13361 0.51209 0.0
C56 C 0.95067 0.12056 0.50326 0.0
C57 C 0.01007 0.10456 0.53053 0.0
C58 C 0.97308 0.14162 0.49813 0.0
C59 C 0.90696 0.07753 0.51714 0.0
C60 C 0.93753 0.07024 0.52857 0.0
C61 C 0.89847 0.10633 0.49824 0.0
C62 C 0.92028 0.12787 0.49187 0.0
Tb63 Tb 0.9971 0.03662 0.56604 0.0
N64 N 0.94656 0.04284 0.548 0.0
C65 C 0.88583 0.05596 0.52629 0.0
C66 C 0.92593 0.02255 0.55947 0.0
C67 C 0.89541 0.02853 0.54813 0.0
H68 H 0.033 0.09917 0.54297 0.0
H69 H 0.87936 0.01227 0.55745 0.0
H70 H 0.99063 0.92124 0.51101 0.0
H71 H 0.15454 0.98843 0.5479 0.0
H72 H 0.93266 1.00224 0.57894 0.0
H73 H 0.86212 0.06066 0.51804 0.0
H74 H 0.1043 0.00602 0.5137 0.0
H75 H 0.02035 0.14995 0.50934 0.0
H76 H 0.8751 0.11242 0.48948 0.0
H77 H 0.91337 0.15031 0.47912 0.0
H78 H 0.99158 0.87193 0.55111 0.0
H79 H 0.96756 0.16424 0.48429 0.0
H80 H 0.16043 0.93954 0.59099 0.0
N81 N 0.03376 0.9335 0.53862 0.0
C82 C 0.05995 0.92281 0.56097 0.0
C83 C 0.01079 0.88626 0.5549 0.0
C84 C 0.0621 0.89396 0.58289 0.0
C85 C 0.01001 0.9148 0.53306 0.0
C86 C 0.03675 0.87601 0.58061 0.0
N87 N 0.08225 0.96779 0.53828 0.0
C88 C 0.10678 0.98472 0.53262 0.0
C89 C 0.11328 0.92931 0.58004 0.0
C90 C 0.08523 0.94015 0.55974 0.0
C91 C 0.13844 0.94709 0.57597 0.0
C92 C 0.1352 0.97476 0.55174 0.0
H93 H 0.03744 0.85371 0.59698 0.0
H94 H 0.09167 0.8616 0.62241 0.0
H95 H 0.13655 0.89255 0.6198 0.0
O96 O 0.05643 0.99439 0.45577 0.0
O97 O 0.05598 0.99002 0.56626 0.0
O98 O 0.01511 0.99365 0.59584 0.0
O99 O 0.0396 0.95021 0.46715 0.0
O100 O 0.04735 0.0285 0.49697 0.0
O101 O 0.04355 0.04598 0.55662 0.0
O102 O 0.97508 0.04726 0.61238 0.0
O103 O 0.99221 0.04731 0.50031 0.0
O104 O 0.99354 1.00256 0.47518 0.0
O105 O 0.02273 0.05528 0.61332 0.0
O106 O 0.98187 0.99014 0.57007 0.0
O107 O 0.98788 0.97292 0.51101 0.0
C108 C 0.04328 0.98688 0.59848 0.0
C109 C 0.0439 0.96894 0.40025 0.0
C110 C 0.0574 0.96122 0.33601 0.0
C111 C 0.02825 0.96989 0.31744 0.0
C112 C 0.01495 0.97734 0.38137 0.0
C113 C 1.00724 0.9779 0.34003 0.0
C114 C 0.06499 0.96092 0.37762 0.0
C115 C 0.05565 0.0464 0.52377 0.0
C116 C 0.05305 0.96869 0.44338 0.0
C117 C 0.0897 0.88356 0.60499 0.0
C118 C 0.11528 0.90114 0.6034 0.0
C119 C 0.98465 0.03039 0.47214 0.0
C120 C 1.00116 0.0688 0.66953 0.0
C121 C 0.97767 0.08089 0.72487 0.0
C122 C 1.00555 0.08939 0.74387 0.0
C123 C 0.02883 0.07759 0.68902 0.0
C124 C 0.97543 0.07069 0.68755 0.0
C125 C 0.03093 0.08785 0.72593 0.0
C126 C 0.97369 0.97315 0.54198 0.0
C127 C 0.99962 0.0569 0.63125 0.0
H128 H 0.0215 0.97004 0.28556 0.0
H129 H 0.99845 0.98342 0.39855 0.0
H130 H 0.98487 0.98443 0.32545 0.0
H131 H 0.08744 0.95479 0.39245 0.0
H132 H 0.00762 0.09728 0.77264 0.0
H133 H 0.04894 0.07631 0.67591 0.0
H134 H 0.9539 0.06393 0.67303 0.0
H135 H 0.05235 0.09448 0.74079 0.0
Tb136 Tb 0.48833 0.48844 0.99583 0.0
C137 C 0.59706 0.56574 0.05118 0.0
N138 N 0.59022 0.53655 0.0592 0.0
C139 C 0.63897 0.5227 0.04899 0.0
C140 C 0.62476 0.57458 0.03979 0.0
C141 C 0.61119 0.51506 0.06015 0.0
C142 C 0.64565 0.55257 0.03819 0.0
C143 C 0.5825 0.61728 0.0471 0.0
C144 C 0.57617 0.58672 0.05475 0.0
C145 C 0.60976 0.62628 0.03468 0.0
C146 C 0.63083 0.60498 0.03103 0.0
Tb147 Tb 0.54452 0.52666 0.07757 0.0
N148 N 0.54994 0.57715 0.06645 0.0
C149 C 0.56135 0.63782 0.05248 0.0
C150 C 0.53009 0.5971 0.07416 0.0
C151 C 0.53522 0.62767 0.06657 0.0
H152 H 0.60678 0.49205 0.0698 0.0
H153 H 0.51913 0.64336 0.07201 0.0
H154 H 0.42836 0.53416 0.96992 0.0
H155 H 0.4944 0.37094 0.04784 0.0
H156 H 0.51051 0.58966 0.08692 0.0
H157 H 0.56531 0.6615 0.04679 0.0
H158 H 0.51243 0.41931 0.01733 0.0
H159 H 0.65533 0.50556 0.04915 0.0
H160 H 0.61491 0.64966 0.02833 0.0
H161 H 0.65192 0.61224 0.02195 0.0
H162 H 0.37746 0.53515 0.98585 0.0
H163 H 0.66723 0.55843 0.02966 0.0
H164 H 0.44514 0.36811 0.07081 0.0
N165 N 0.43985 0.49234 1.00615 0.0
C166 C 0.42885 0.46742 0.02579 0.0
C167 C 0.39186 0.51615 0.99793 0.0
C168 C 0.3994 0.46657 0.03429 0.0
C169 C 0.42112 0.51576 0.98977 0.0
C170 C 0.38118 0.49174 0.02115 0.0
N171 N 0.47436 0.44333 0.02486 0.0
C172 C 0.49107 0.41812 0.02768 0.0
C173 C 0.43518 0.41494 0.05202 0.0
C174 C 0.44639 0.44187 0.03453 0.0
C175 C 0.45297 0.38928 0.05752 0.0
C176 C 0.48083 0.39079 0.04467 0.0
H177 H 0.35841 0.492 0.02705 0.0
H178 H 0.3662 0.43926 0.06113 0.0
H179 H 0.39758 0.39406 0.0767 0.0
O180 O 0.50257 0.46874 0.9496 0.0
O181 O 0.498 0.46987 0.0597 0.0
O182 O 0.50145 0.51025 0.09234 0.0
O183 O 0.45666 0.48017 0.9469 0.0
O184 O 0.53563 0.47581 1.00533 0.0
O185 O 0.55386 0.48016 0.0716 0.0
O186 O 0.55765 0.54711 0.1297 0.0
O187 O 0.55356 0.53141 0.01502 0.0
O188 O 0.5085 0.5299 0.97205 0.0
O189 O 0.56488 0.49981 0.12998 0.0
O190 O 0.49809 0.54304 0.06328 0.0
O191 O 0.47943 0.53591 0.99784 0.0
C192 C 0.49241 0.48305 0.08944 0.0
C193 C 0.47344 0.4802 0.88569 0.0
C194 C 0.46182 0.47029 0.8164 0.0
C195 C 0.46331 0.50109 0.80355 0.0
C196 C 0.47507 0.51063 0.87221 0.0
C197 C 0.4699 0.52094 0.83134 0.0
C198 C 0.46705 0.46007 0.8579 0.0
C199 C 0.55364 0.46733 0.03917 0.0
C200 C 0.47603 0.46938 0.9286 0.0
C201 C 0.38865 0.44022 0.05389 0.0
C202 C 0.40648 0.41444 0.06265 0.0
C203 C 0.53622 0.53911 0.98023 0.0
C204 C 0.58177 0.51894 0.19295 0.0
C205 C 0.59475 0.53856 0.25673 0.0
C206 C 0.608 0.51094 0.27391 0.0
C207 C 0.59492 0.4916 0.21125 0.0
C208 C 0.58193 0.54259 0.21581 0.0
C209 C 0.60803 0.48774 0.25136 0.0
C210 C 0.48128 0.55118 0.02832 0.0
C211 C 0.5679 0.52213 0.15028 0.0
H212 H 0.45864 0.51004 0.77207 0.0
H213 H 0.4796 0.52643 0.89329 0.0
H214 H 0.47028 0.5445 0.82135 0.0
H215 H 0.46598 0.43654 0.86876 0.0
H216 H 0.61867 0.50731 0.30492 0.0
H217 H 0.5952 0.47311 0.19452 0.0
H218 H 0.57166 0.56374 0.20213 0.0
H219 H 0.61828 0.46663 0.26506 0.0
H220 H 0.22734 0.2491 0.39001 0.0
H221 H 0.19325 0.20875 0.40667 0.0
H222 H 0.24817 0.18497 0.52177 0.0
H223 H 0.28263 0.22554 0.50494 0.0
H224 H 0.22505 0.13487 0.48984 0.0
H225 H 0.18815 0.226 0.51691 0.0
H226 H 0.17355 0.27895 0.5035 0.0
H227 H 0.10636 0.26136 0.40628 0.0
H228 H 0.12089 0.20832 0.41875 0.0
H229 H 0.09615 0.06996 0.57906 0.0
H230 H 0.13667 0.10483 0.5661 0.0
H231 H 0.10934 0.10704 0.43903 0.0
H232 H 0.06954 0.07152 0.45166 0.0
H233 H 0.11988 0.16703 0.48246 0.0
H234 H 0.16114 0.07452 0.45577 0.0
H235 H 0.1751 0.0216 0.4749 0.0
H236 H 0.23394 0.04243 0.57849 0.0
H237 H 0.21975 0.09546 0.56042 0.0
C238 C 0.23253 0.2349 0.41853 0.0
C239 C 0.25778 0.24037 0.44606 0.0
C240 C 0.21292 0.21191 0.42815 0.0
C241 C 0.21785 0.19401 0.46572 0.0
C242 C 0.24384 0.19846 0.49262 0.0
C243 C 0.26352 0.22159 0.48299 0.0
C244 C 0.19467 0.17229 0.47756 0.0
C245 C 0.20216 0.142 0.48859 0.0
C246 C 0.16469 0.1814 0.47615 0.0
C247 C 0.15581 0.21325 0.46852 0.0
C248 C 0.17043 0.23346 0.49246 0.0
C249 C 0.16215 0.26348 0.48506 0.0
C250 C 0.13909 0.27353 0.45399 0.0
C251 C 0.12424 0.25355 0.4303 0.0
C252 C 0.13248 0.2235 0.43754 0.0
C253 C 0.09883 0.07787 0.54838 0.0
C254 C 0.07973 0.06796 0.51637 0.0
C255 C 0.12201 0.09768 0.54105 0.0
C256 C 0.12606 0.10832 0.50162 0.0
C257 C 0.10667 0.09892 0.46966 0.0
C258 C 0.08399 0.07861 0.47694 0.0
C259 C 0.15017 0.12976 0.49357 0.0
C260 C 0.14281 0.16001 0.48359 0.0
C261 C 0.18021 0.12062 0.49646 0.0
C262 C 0.18907 0.08888 0.50705 0.0
C263 C 0.17677 0.06778 0.48289 0.0
C264 C 0.18479 0.03778 0.49347 0.0
C265 C 0.20536 0.02866 0.52793 0.0
C266 C 0.21797 0.04953 0.55184 0.0
C267 C 0.20994 0.07956 0.54145 0.0
H268 H 0.21155 1.00542 0.53607 0.0
H269 H 0.13269 0.29678 0.44832 0.0
H270 H 0.26069 0.7202 0.03127 0.0
H271 H 0.30019 0.6849 0.02818 0.0
H272 H 0.36448 0.75571 0.02885 0.0
H273 H 0.32496 0.79124 0.0324 0.0
H274 H 0.36891 0.71421 0.97121 0.0
H275 H 0.36514 0.71338 0.11205 0.0
H276 H 0.33925 0.70996 0.17084 0.0
H277 H 0.30772 0.62297 0.15085 0.0
H278 H 0.33314 0.62603 0.09166 0.0
H279 H 0.48848 0.60904 0.99806 0.0
H280 H 0.45633 0.65122 1.00063 0.0
H281 H 0.39316 0.59066 0.05105 0.0
H282 H 0.428 0.5496 0.05476 0.0
H283 H 0.39156 0.63244 0.08452 0.0
H284 H 0.3887 0.633 0.94105 0.0
H285 H 0.41122 0.63524 0.87944 0.0
H286 H 0.45024 0.71959 0.89914 0.0
H287 H 0.42816 0.71771 0.961 0.0
C288 C 0.28318 0.72832 0.03024 0.0
C289 C 0.28953 0.75856 0.03137 0.0
C290 C 0.30574 0.70813 0.02861 0.0
C291 C 0.33528 0.71765 0.02834 0.0
C292 C 0.34178 0.74794 0.0288 0.0
C293 C 0.31916 0.76821 0.03079 0.0
C294 C 0.35932 0.69551 0.02923 0.0
C295 C 0.3742 0.69643 0.99609 0.0
C296 C 0.36574 0.67205 0.06132 0.0
C297 C 0.3509 0.67001 0.09732 0.0
C298 C 0.35256 0.69359 0.12008 0.0
C299 C 0.33799 0.6917 0.15349 0.0
C300 C 0.32182 0.66628 0.16454 0.0
C301 C 0.32026 0.64265 0.14227 0.0
C302 C 0.33478 0.64442 0.10884 0.0
C303 C 0.46768 0.60498 0.0097 0.0
C304 C 0.46028 0.57611 0.0254 0.0
C305 C 0.44895 0.62907 0.01059 0.0
C306 C 0.42141 0.62452 0.02473 0.0
C307 C 0.41404 0.59527 0.03985 0.0
C308 C 0.43366 0.57156 0.04125 0.0
C309 C 0.40061 0.64986 0.02537 0.0
C310 C 0.38642 0.64987 0.0592 0.0
C311 C 0.39429 0.67373 0.99334 0.0
C312 C 0.40699 0.67509 0.95575 0.0
C313 C 0.40213 0.65198 0.93223 0.0
C314 C 0.41483 0.65318 0.8973 0.0
C315 C 0.4322 0.6775 0.88544 0.0
C316 C 0.4368 0.70075 0.90837 0.0
C317 C 0.42417 0.69966 0.94332 0.0
H318 H 0.44206 0.67836 0.85844 0.0
H319 H 0.31053 0.66488 0.19039 0.0
H320 H 0.77772 0.76169 0.59313 0.0
H321 H 0.8211 0.7922 0.57943 0.0
H322 H 0.77932 0.86813 0.61122 0.0
H323 H 0.73614 0.83777 0.62502 0.0
H324 H 0.80115 0.88301 0.54297 0.0
H325 H 0.83743 0.83039 0.67462 0.0
H326 H 0.85001 0.78595 0.72488 0.0
H327 H 0.9109 0.75648 0.65394 0.0
H328 H 0.89839 0.80059 0.60301 0.0
H329 H 0.95683 0.94885 0.61273 0.0
H330 H 0.91584 0.91471 0.62336 0.0
H331 H 0.8949 0.91311 0.49604 0.0
H332 H 0.93566 0.94801 0.48516 0.0
H333 H 0.90504 0.85957 0.60989 0.0
H334 H 0.8253 0.90274 0.46921 0.0
H335 H 0.81056 0.94897 0.42314 0.0
H336 H 0.83388 1.00006 0.51967 0.0
H337 H 0.84976 0.95416 0.56614 0.0
C338 C 0.77806 0.78474 0.59792 0.0
C339 C 0.75383 0.79712 0.61135 0.0
C340 C 0.80284 0.80221 0.58994 0.0
C341 C 0.8037 0.8325 0.5946 0.0
C342 C 0.77934 0.84486 0.6075 0.0
C343 C 0.75475 0.82742 0.61571 0.0
C344 C 0.82947 0.85171 0.58533 0.0
C345 C 0.82387 0.87772 0.55752 0.0
C346 C 0.85921 0.8451 0.60424 0.0
C347 C 0.86671 0.81859 0.63481 0.0
C348 C 0.85331 0.8143 0.66959 0.0
C349 C 0.86046 0.7892 0.69823 0.0
C350 C 0.88116 0.76835 0.69255 0.0
C351 C 0.89482 0.77261 0.65827 0.0
C352 C 0.88772 0.79766 0.62952 0.0
C353 C 0.94342 0.94137 0.58691 0.0
C354 C 0.94936 0.95139 0.54802 0.0
C355 C 0.92004 0.92168 0.59307 0.0
C356 C 0.90191 0.91149 0.56054 0.0
C357 C 0.90815 0.92101 0.52165 0.0
C358 C 0.93161 0.94078 0.51545 0.0
C359 C 0.87665 0.89093 0.56771 0.0
C360 C 0.88235 0.86464 0.59504 0.0
C361 C 0.84693 0.89739 0.54871 0.0
C362 C 0.83888 0.92514 0.52092 0.0
C363 C 0.82753 0.92389 0.48048 0.0
C364 C 0.81915 0.95002 0.45433 0.0
C365 C 0.82161 0.97745 0.46847 0.0
C366 C 0.83255 0.97882 0.50875 0.0
C367 C 0.84141 0.9528 0.53494 0.0
H368 H 0.81488 0.99764 0.44827 0.0
H369 H 0.88667 0.74894 0.71475 0.0
H370 H 0.72483 0.23317 0.10745 0.0
H371 H 0.69585 0.27817 0.10801 0.0
H372 H 0.68495 0.29545 0.97894 0.0
H373 H 0.7147 0.25082 0.97858 0.0
H374 H 0.69332 0.34555 0.00731 0.0
H375 H 0.62842 0.26328 0.03009 0.0
H376 H 0.61224 0.21519 0.06289 0.0
H377 H 0.61771 0.25042 0.1739 0.0
H378 H 0.63429 0.29865 0.14188 0.0
H379 H 0.5684 0.44266 0.97632 0.0
H380 H 0.60104 0.40005 0.97865 0.0
H381 H 0.61789 0.39107 0.10765 0.0
H382 H 0.58497 0.43377 0.10562 0.0
H383 H 0.60657 0.33711 0.08036 0.0
H384 H 0.67026 0.42094 0.05362 0.0
H385 H 0.6826 0.46906 0.01674 0.0
H386 H 0.67565 0.43004 0.9084 0.0
H387 H 0.66294 0.38174 0.94455 0.0
C388 C 0.7163 0.2467 0.07928 0.0
C389 C 0.72121 0.23817 0.0429 0.0
C390 C 0.6996 0.2723 0.07956 0.0
C391 C 0.68736 0.28981 0.04345 0.0
C392 C 0.69374 0.28215 0.00718 0.0
C393 C 0.71061 0.25663 0.00694 0.0
C394 C 0.66764 0.3158 0.04351 0.0
C395 C 0.6742 0.34355 0.02297 0.0
C396 C 0.64278 0.31348 0.06429 0.0
C397 C 0.63291 0.28448 0.08369 0.0
C398 C 0.62642 0.2607 0.06158 0.0
C399 C 0.61713 0.23343 0.08001 0.0
C400 C 0.61404 0.22972 0.12048 0.0
C401 C 0.62016 0.25331 0.14257 0.0
C402 C 0.62948 0.28062 0.12429 0.0
C403 C 0.57902 0.4317 1.00526 0.0
C404 C 0.5741 0.44176 0.0408 0.0
C405 C 0.5978 0.40735 0.00651 0.0
C406 C 0.61218 0.39247 0.0433 0.0
C407 C 0.60711 0.40223 0.0789 0.0
C408 C 0.58841 0.42675 0.07767 0.0
C409 C 0.63242 0.36673 0.04439 0.0
C410 C 0.62586 0.33904 0.065 0.0
C411 C 0.65701 0.36899 0.02325 0.0
C412 C 0.6655 0.39778 1.00174 0.0
C413 C 0.67127 0.42265 0.0219 0.0
C414 C 0.67831 0.44996 1.00113 0.0
C415 C 0.67983 0.45262 0.96024 0.0
C416 C 0.67446 0.42794 0.94007 0.0
C417 C 0.66739 0.40058 0.9607 0.0
H418 H 0.68524 0.4738 0.9442 0.0
H419 H 0.60684 0.2086 0.13469 0.0
H420 H 0.199 0.91863 0.05615 0.0
H421 H 0.17734 0.93475 0.10995 0.0
H422 H 0.20112 0.85061 0.18367 0.0
H423 H 0.21978 0.83294 0.128 0.0
H424 H 0.1498 0.8622 0.19259 0.0
H425 H 0.23663 0.92258 0.19907 0.0
H426 H 0.27386 0.95779 0.17479 0.0
H427 H 0.20579 0.02499 0.1359 0.0
H428 H 0.16807 0.99007 0.15947 0.0
H429 H 0.0981 0.91525 0.35626 0.0
H430 H 0.13298 0.89931 0.31551 0.0
H431 H 0.10158 0.97031 0.22076 0.0
H432 H 0.06743 0.98703 0.26184 0.0
H433 H 0.16186 0.96357 0.23029 0.0
H434 H 0.07506 0.8986 0.22035 0.0
H435 H 0.04006 0.86263 0.24874 0.0
H436 H 0.11296 0.80287 0.3 0.0
H437 H 0.14842 0.83866 0.27232 0.0
C438 C 0.1994 0.90326 0.08354 0.0
C439 C 0.2108 0.87416 0.08712 0.0
C440 C 0.18754 0.91288 0.11488 0.0
C441 C 0.18793 0.8942 0.15148 0.0
C442 C 0.20049 0.86558 0.15585 0.0
C443 C 0.21158 0.85559 0.12401 0.0
C444 C 0.17319 0.90374 0.18381 0.0
C445 C 0.1531 0.88417 0.20137 0.0
C446 C 0.17689 0.93256 0.19522 0.0
C447 C 0.19949 0.95362 0.18084 0.0
C448 C 0.22957 0.9448 0.1851 0.0
C449 C 0.25076 0.96472 0.17149 0.0
C450 C 0.24219 0.99359 0.15376 0.0
C451 C 0.2124 1.00261 0.14964 0.0
C452 C 0.19111 0.98278 0.16317 0.0
C453 C 0.0989 0.92776 0.32699 0.0
C454 C 0.07967 0.95224 0.31213 0.0
C455 C 0.11872 0.91846 0.30361 0.0
C456 C 0.11955 0.93331 0.26481 0.0
C457 C 0.1012 0.95839 0.25051 0.0
C458 C 0.08144 0.96773 0.27387 0.0
C459 C 0.1385 0.92217 0.23824 0.0
C460 C 0.15919 0.94147 0.22179 0.0
C461 C 0.1358 0.89296 0.22838 0.0
C462 C 0.11439 0.8714 0.2446 0.0
C463 C 0.08362 0.87786 0.23788 0.0
C464 C 0.06371 0.8575 0.25382 0.0
C465 C 0.07428 0.83051 0.27624 0.0
C466 C 0.10479 0.82379 0.28268 0.0
C467 C 0.1248 0.84409 0.26686 0.0
H468 H 0.05883 0.81478 0.28856 0.0
H469 H 0.25864 0.00898 0.14327 0.0
H470 H 0.66131 0.72062 0.7222 0.0
H471 H 0.6385 0.69624 0.77896 0.0
H472 H 0.63723 0.61321 0.73152 0.0
H473 H 0.66044 0.63698 0.67574 0.0
H474 H 0.5833 0.62602 0.75015 0.0
H475 H 0.687 0.62609 0.81391 0.0
H476 H 0.7346 0.65018 0.83611 0.0
H477 H 0.69035 0.70171 0.90589 0.0
H478 H 0.64241 0.6782 0.88367 0.0
H479 H 0.5434 0.52219 0.90896 0.0
H480 H 0.56614 0.55061 0.85489 0.0
H481 H 0.57946 0.62442 0.9224 0.0
H482 H 0.55672 0.59587 0.97593 0.0
H483 H 0.62639 0.61967 0.89379 0.0
H484 H 0.52446 0.62461 0.83253 0.0
H485 H 0.47363 0.61069 0.80403 0.0
H486 H 0.50992 0.55794 0.72806 0.0
H487 H 0.56098 0.57155 0.7561 0.0
C488 C 0.6566 0.69708 0.72421 0.0
C489 C 0.66238 0.68096 0.69391 0.0
C490 C 0.64348 0.68316 0.75665 0.0
C491 C 0.63601 0.65283 0.75952 0.0
C492 C 0.64249 0.63665 0.72989 0.0
C493 C 0.65567 0.6504 0.69778 0.0
C494 C 0.62042 0.63783 0.79225 0.0
C495 C 0.5929 0.62426 0.78159 0.0
C496 C 0.63223 0.63666 0.83334 0.0
C497 C 0.66109 0.6506 0.84681 0.0
C498 C 0.68739 0.64272 0.83374 0.0
C499 C 0.71443 0.65624 0.84637 0.0
C500 C 0.71549 0.67752 0.8723 0.0
C501 C 0.68951 0.68526 0.88576 0.0
C502 C 0.6624 0.67183 0.87318 0.0
C503 C 0.55123 0.54451 0.91206 0.0
C504 C 0.54922 0.55656 0.94718 0.0
C505 C 0.56403 0.56089 0.88102 0.0
C506 C 0.57456 0.58993 0.88414 0.0
C507 C 0.57196 0.60204 0.91913 0.0
C508 C 0.55931 0.58558 0.95013 0.0
C509 C 0.58919 0.60729 0.85179 0.0
C510 C 0.61661 0.62133 0.86245 0.0
C511 C 0.57691 0.60954 0.81062 0.0
C512 C 0.54653 0.59895 0.79661 0.0
C513 C 0.52161 0.60973 0.81013 0.0
C514 C 0.49276 0.60214 0.79376 0.0
C515 C 0.48856 0.58376 0.76388 0.0
C516 C 0.51321 0.57241 0.7509 0.0
C517 C 0.5421 0.58007 0.76701 0.0
H518 H 0.4662 0.57799 0.75115 0.0
H519 H 0.73645 0.68796 0.88205 0.0
H520 H 0.88091 0.13871 0.10896 0.0
H521 H 0.90673 0.11576 0.17402 0.0
H522 H 0.82534 0.11882 0.22382 0.0
H523 H 0.79909 0.14141 0.15844 0.0
H524 H 0.87234 0.13874 0.27118 0.0
H525 H 0.85173 0.05337 0.20399 0.0
H526 H 0.85172 0.02339 0.14929 0.0
H527 H 0.9476 0.02413 0.16711 0.0
H528 H 0.94819 0.05452 0.22155 0.0
H529 H 0.92673 0.04905 0.45678 0.0
H530 H 0.8983 0.07078 0.39241 0.0
H531 H 0.97563 0.06187 0.33557 0.0
H532 H 1.00405 0.04051 0.40039 0.0
H533 H 0.92895 0.04382 0.29157 0.0
H534 H 0.95064 0.13072 0.35468 0.0
H535 H 0.95208 0.16696 0.40217 0.0
H536 H 0.85634 0.1664 0.38911 0.0
H537 H 0.85432 0.12984 0.34195 0.0
C538 C 0.86831 0.13413 0.13354 0.0
C539 C 0.83779 0.14173 0.1283 0.0
C540 C 0.88316 0.121 0.17079 0.0
C541 C 0.86789 0.11512 0.20369 0.0
C542 C 0.83755 0.12303 0.19879 0.0
C543 C 0.82262 0.13611 0.16145 0.0
C544 C 0.88391 0.10183 0.24355 0.0
C545 C 0.88424 0.11767 0.27591 0.0
C546 C 0.90029 0.07486 0.24927 0.0
C547 C 0.89998 0.05647 0.21663 0.0
C548 C 0.87281 0.04736 0.19604 0.0
C549 C 0.8727 0.03025 0.16511 0.0
C550 C 0.89964 0.02192 0.15466 0.0
C551 C 0.92675 0.03063 0.1752 0.0
C552 C 0.92698 0.04777 0.20612 0.0
C553 C 0.93779 0.05256 0.43075 0.0
C554 C 0.96767 0.04386 0.43354 0.0
C555 C 0.92151 0.06477 0.39386 0.0
C556 C 0.93489 0.06847 0.35904 0.0
C557 C 0.96478 0.05939 0.36191 0.0
C558 C 0.98102 0.04721 0.39885 0.0
C559 C 0.9175 0.08083 0.31947 0.0
C560 C 0.91687 0.06477 0.28708 0.0
C561 C 0.90101 0.10777 0.3136 0.0
C562 C 0.90235 0.1274 0.34496 0.0
C563 C 0.92992 0.13793 0.36244 0.0
C564 C 0.93083 0.1587 0.38907 0.0
C565 C 0.9043 0.16925 0.39821 0.0
C566 C 0.87685 0.15842 0.38169 0.0
C567 C 0.87582 0.13764 0.35507 0.0
H568 H 0.90503 0.18574 0.41825 0.0
H569 H 0.89951 0.00868 0.13071 0.0
H570 H 0.36774 0.28767 0.55903 0.0
H571 H 0.38618 0.30792 0.62099 0.0
H572 H 0.39459 0.39426 0.55316 0.0
H573 H 0.37416 0.37516 0.4916 0.0
H574 H 0.44896 0.36229 0.61965 0.0
H575 H 0.34347 0.39724 0.58939 0.0
H576 H 0.2897 0.38624 0.57547 0.0
H577 H 0.29713 0.32622 0.68582 0.0
H578 H 0.35109 0.33653 0.70001 0.0
H579 H 0.47789 0.47318 0.74182 0.0
H580 H 0.46156 0.44171 0.69086 0.0
H581 H 0.41309 0.3868 0.77252 0.0
H582 H 0.42748 0.41969 0.82282 0.0
H583 H 0.37998 0.39425 0.70504 0.0
H584 H 0.48014 0.36291 0.74404 0.0
H585 H 0.53477 0.36678 0.76173 0.0
H586 H 0.54017 0.40975 0.64268 0.0
H587 H 0.4855 0.40651 0.62439 0.0
C588 C 0.37299 0.31108 0.55717 0.0
C589 C 0.36957 0.3296 0.51988 0.0
C590 C 0.38385 0.3225 0.59264 0.0
C591 C 0.39195 0.35246 0.59142 0.0
C592 C 0.38875 0.37097 0.55454 0.0
C593 C 0.37725 0.35983 0.51928 0.0
C594 C 0.40326 0.36496 0.62855 0.0
C595 C 0.43401 0.36947 0.63834 0.0
C596 C 0.38377 0.37299 0.65369 0.0
C597 C 0.3513 0.36739 0.64552 0.0
C598 C 0.33367 0.3815 0.61049 0.0
C599 C 0.30316 0.37543 0.60258 0.0
C600 C 0.29002 0.35547 0.62969 0.0
C601 C 0.30734 0.34163 0.66482 0.0
C602 C 0.33788 0.34759 0.67281 0.0
C603 C 0.46355 0.45459 0.749 0.0
C604 C 0.45391 0.44925 0.78656 0.0
C605 C 0.45461 0.4362 0.71992 0.0
C606 C 0.43643 0.41144 0.72786 0.0
C607 C 0.42719 0.40566 0.76558 0.0
C608 C 0.43576 0.42436 0.79456 0.0
C609 C 0.42599 0.39271 0.69594 0.0
C610 C 0.39529 0.38687 0.68698 0.0
C611 C 0.44573 0.38264 0.67223 0.0
C612 C 0.47866 0.38465 0.68294 0.0
C613 C 0.49295 0.37338 0.7217 0.0
C614 C 0.52393 0.37543 0.73182 0.0
C615 C 0.54092 0.38855 0.70336 0.0
C616 C 0.52697 0.3996 0.66469 0.0
C617 C 0.49598 0.39761 0.65441 0.0
H618 H 0.56491 0.39013 0.71126 0.0
H619 H 0.2664 0.35079 0.62351 0.0
H620 H 0.65939 0.72961 0.50974 0.0
H621 H 0.64199 0.70947 0.44708 0.0
H622 H 0.64887 0.62055 0.51206 0.0
H623 H 0.66641 0.64041 0.57427 0.0
H624 H 0.67469 0.62467 0.44537 0.0
H625 H 0.5821 0.65383 0.48142 0.0
H626 H 0.54612 0.68842 0.498 0.0
H627 H 0.545 0.74187 0.38343 0.0
H628 H 0.58136 0.70781 0.36639 0.0
H629 H 0.58111 0.53346 0.33218 0.0
H630 H 0.59107 0.56912 0.37961 0.0
H631 H 0.61837 0.63387 0.28753 0.0
H632 H 0.60917 0.59775 0.23969 0.0
H633 H 0.57638 0.64826 0.36011 0.0
H634 H 0.673 0.6193 0.32735 0.0
H635 H 0.70655 0.5818 0.31185 0.0
H636 H 0.69756 0.52646 0.42223 0.0
H637 H 0.66362 0.56355 0.43805 0.0
C638 C 0.65725 0.70577 0.51052 0.0
C639 C 0.66419 0.68659 0.54694 0.0
C640 C 0.6471 0.69432 0.4748 0.0
C641 C 0.64398 0.66349 0.4749 0.0
C642 C 0.65106 0.6444 0.51123 0.0
C643 C 0.66092 0.65579 0.54682 0.0
C644 C 0.63425 0.6507 0.43725 0.0
C645 C 0.65324 0.63006 0.42673 0.0
C646 C 0.60642 0.65788 0.41246 0.0
C647 C 0.58478 0.6785 0.42284 0.0
C648 C 0.57445 0.67314 0.45993 0.0
C649 C 0.55392 0.69261 0.46938 0.0
C650 C 0.54336 0.71739 0.44185 0.0
C651 C 0.55326 0.72271 0.40477 0.0
C652 C 0.57383 0.70333 0.3952 0.0
C653 C 0.58885 0.55542 0.32175 0.0
C654 C 0.59492 0.56255 0.28235 0.0
C655 C 0.59429 0.57584 0.34884 0.0
C656 C 0.60559 0.60401 0.33712 0.0
C657 C 0.60954 0.61221 0.29705 0.0
C658 C 0.60424 0.59159 0.26977 0.0
C659 C 0.61697 0.62262 0.36848 0.0
C660 C 0.59818 0.64381 0.37819 0.0
C661 C 0.64498 0.61609 0.3927 0.0
C662 C 0.66561 0.59399 0.38364 0.0
C663 C 0.67801 0.59901 0.34811 0.0
C664 C 0.69713 0.57788 0.33932 0.0
C665 C 0.70412 0.55172 0.36599 0.0
C666 C 0.69209 0.54671 0.40158 0.0
C667 C 0.67294 0.56778 0.41049 0.0
H668 H 0.71892 0.53538 0.35912 0.0
H669 H 0.52743 0.73241 0.44919 0.0
H670 H 0.82509 0.10036 1.00424 0.0
H671 H 0.84575 0.08407 0.94906 0.0
H672 H 0.84142 0.17403 0.88784 0.0
H673 H 0.82172 0.19087 0.94365 0.0
H674 H 0.82429 0.12734 0.8369 0.0
H675 H 0.90399 0.15315 0.93931 0.0
H676 H 0.93001 0.14948 0.00895 0.0
H677 H 0.94257 0.05562 0.0125 0.0
H678 H 0.91619 0.05867 0.94305 0.0
H679 H 0.93508 0.12425 0.71011 0.0
H680 H 0.89908 0.13308 0.75381 0.0
H681 H 0.92614 0.05046 0.82957 0.0
H682 H 0.96281 0.04236 0.78657 0.0
H683 H 0.92918 0.0914 0.87325 0.0
H684 H 0.85411 0.06295 0.77309 0.0
H685 H 0.82509 0.06196 0.70591 0.0
H686 H 0.80067 0.15367 0.69921 0.0
H687 H 0.82994 0.15536 0.76615 0.0
C688 C 0.82846 0.11676 0.97908 0.0
C689 C 0.82225 0.14706 0.97884 0.0
C690 C 0.84003 0.10732 0.94741 0.0
C691 C 0.84536 0.1279 0.91464 0.0
C692 C 0.8374 0.15782 0.91291 0.0
C693 C 0.82607 0.16737 0.94483 0.0
C694 C 0.86177 0.1186 0.88418 0.0
C695 C 0.84733 0.11976 0.84452 0.0
C696 C 0.89144 0.10777 0.89469 0.0
C697 C 0.90787 0.1061 0.93613 0.0
C698 C 0.91213 0.1317 0.95503 0.0
C699 C 0.92696 0.12974 0.99446 0.0
C700 C 0.93787 0.10232 0.01518 0.0
C701 C 0.93407 0.07684 0.99644 0.0
C702 C 0.91921 0.07868 0.95704 0.0
C703 C 0.93259 0.10766 0.73548 0.0
C704 C 0.95144 0.08261 0.74509 0.0
C705 C 0.91201 0.11263 0.76043 0.0
C706 C 0.90979 0.09243 0.79512 0.0
C707 C 0.92747 0.06645 0.80317 0.0
C708 C 0.94824 0.06169 0.77851 0.0
C709 C 0.89182 0.09996 0.82533 0.0
C710 C 0.90606 0.09869 0.8652 0.0
C711 C 0.86179 0.11008 0.81504 0.0
C712 C 0.84452 0.10936 0.77449 0.0
C713 C 0.84283 0.08301 0.75713 0.0
C714 C 0.82627 0.0823 0.71912 0.0
C715 C 0.81112 0.10776 0.69825 0.0
C716 C 0.81247 0.13398 0.71538 0.0
C717 C 0.82903 0.13482 0.75337 0.0
H718 H 0.79827 0.10716 0.66885 0.0
H719 H 0.94931 0.10084 0.04571 0.0
H720 H 0.35969 0.3796 0.38455 0.0
H721 H 0.38151 0.40537 0.32829 0.0
H722 H 0.40218 0.32107 0.29455 0.0
H723 H 0.38034 0.29501 0.35138 0.0
H724 H 0.45035 0.36047 0.29644 0.0
H725 H 0.34657 0.36246 0.23884 0.0
H726 H 0.29283 0.37176 0.23646 0.0
H727 H 0.30996 0.46441 0.24152 0.0
H728 H 0.36388 0.4556 0.24448 0.0
H729 H 0.49498 0.42318 0.11314 0.0
H730 H 0.47023 0.3943 0.16425 0.0
H731 H 0.43649 0.47537 0.1936 0.0
H732 H 0.45978 0.50423 0.14039 0.0
H733 H 0.39438 0.43562 0.19262 0.0
H734 H 0.49717 0.43498 0.25273 0.0
H735 H 0.55135 0.42732 0.25658 0.0
H736 H 0.53722 0.33445 0.24969 0.0
H737 H 0.48289 0.34165 0.24515 0.0
C738 C 0.36866 0.36652 0.36495 0.0
C739 C 0.3683 0.33526 0.37237 0.0
C740 C 0.38106 0.38129 0.33273 0.0
C741 C 0.3934 0.3652 0.30704 0.0
C742 C 0.39276 0.33394 0.31397 0.0
C743 C 0.38006 0.31909 0.34617 0.0
C744 C 0.40752 0.38125 0.27366 0.0
C745 C 0.43801 0.37652 0.27331 0.0
C746 C 0.3917 0.40291 0.24422 0.0
C747 C 0.35928 0.40832 0.24219 0.0
C748 C 0.3389 0.38478 0.23973 0.0
C749 C 0.3084 0.38997 0.23823 0.0
C750 C 0.29799 0.41865 0.23892 0.0
C751 C 0.31806 0.44221 0.24102 0.0
C752 C 0.34858 0.43714 0.24256 0.0
C753 C 0.4819 0.43482 0.13004 0.0
C754 C 0.4789 0.46591 0.12229 0.0
C755 C 0.46811 0.4183 0.15974 0.0
C756 C 0.45173 0.43259 0.1833 0.0
C757 C 0.44898 0.46377 0.17588 0.0
C758 C 0.4625 0.48028 0.14572 0.0
C759 C 0.43732 0.41502 0.21541 0.0
C760 C 0.40677 0.41948 0.21559 0.0
C761 C 0.45322 0.39339 0.24499 0.0
C762 C 0.48593 0.38891 0.24825 0.0
C763 C 0.5056 0.41296 0.25179 0.0
C764 C 0.53634 0.4087 0.25411 0.0
C765 C 0.54771 0.38042 0.2533 0.0
C766 C 0.52837 0.35634 0.25027 0.0
C767 C 0.49761 0.36049 0.24786 0.0
H768 H 0.57151 0.37717 0.2551 0.0
H769 H 0.27437 0.42262 0.23775 0.0
H770 H 0.23276 0.87374 0.90769 0.0
H771 H 0.2053 0.89419 0.84218 0.0
H772 H 0.12457 0.89632 0.89378 0.0
H773 H 0.15128 0.87407 0.95848 0.0
H774 H 0.11216 0.87809 0.8244 0.0
H775 H 0.17 0.96029 0.873 0.0
H776 H 0.21668 0.98502 0.89766 0.0
H777 H 0.25103 0.97505 0.79008 0.0
H778 H 0.20467 0.95001 0.76497 0.0
H779 H 0.02315 0.97095 0.66997 0.0
H780 H 0.05249 0.95136 0.73444 0.0
H781 H 0.13276 0.95821 0.6806 0.0
H782 H 0.10395 0.98122 0.61771 0.0
H783 H 0.14671 0.97058 0.74992 0.0
H784 H 0.09061 0.88935 0.69989 0.0
H785 H 0.04453 0.86466 0.67306 0.0
H786 H 0.00847 0.871 0.78051 0.0
H787 H 0.05423 0.89598 0.80784 0.0
C788 C 0.20906 0.87808 0.90497 0.0
C789 C 0.19438 0.87251 0.93861 0.0
C790 C 0.19345 0.8902 0.86756 0.0
C791 C 0.16295 0.89745 0.86313 0.0
C792 C 0.14812 0.89117 0.8964 0.0
C793 C 0.16356 0.87871 0.93359 0.0
C794 C 0.14628 0.91158 0.82404 0.0
C795 C 0.11959 0.89847 0.80832 0.0
C796 C 0.15631 0.93772 0.80232 0.0
C797 C 0.184 0.95307 0.81729 0.0
C798 C 0.18758 0.96326 0.85472 0.0
C799 C 0.21397 0.97734 0.86875 0.0
C800 C 0.23683 0.98155 0.84549 0.0
C801 C 0.23332 0.97177 0.80808 0.0
C802 C 0.20698 0.95766 0.79392 0.0
C803 C 0.04709 0.96852 0.67197 0.0
C804 C 0.06109 0.97638 0.63813 0.0
C805 C 0.06385 0.95695 0.7088 0.0
C806 C 0.09478 0.95203 0.71222 0.0
C807 C 0.1089 0.96118 0.67883 0.0
C808 C 0.09229 0.97376 0.64248 0.0
C809 C 0.11241 0.93721 0.75035 0.0
C810 C 0.1393 0.95012 0.76585 0.0
C811 C 0.1028 0.91065 0.77162 0.0
C812 C 0.07576 0.89466 0.75581 0.0
C813 C 0.07284 0.88548 0.71777 0.0
C814 C 0.04677 0.87148 0.70246 0.0
C815 C 0.02356 0.86632 0.72502 0.0
C816 C 0.02646 0.875 0.76306 0.0
C817 C 0.05247 0.88903 0.77853 0.0
H818 H 1.00336 0.85556 0.71305 0.0
H819 H 0.25725 0.99243 0.85643 0.0
loop_
_geom_bond_atom_site_label_1
_geom_bond_atom_site_label_2
_geom_bond_distance
_geom_bond_site_symmetry_2
_ccdc_geom_bond_type
H0 C7 0.929 . S
H1 C10 0.930 . S
H2 C12 0.929 . S
H3 C4 0.969 . S
C4 H3 0.969 . S
C4 O5 1.550 . S
C4 H6 0.973 . S
O5 C4 1.550 . S
O5 C11 1.412 . S
H6 C4 0.973 . S
C7 H0 0.929 . S
C7 C8 1.400 1_554 S
C7 C9 1.364 . S
C8 C7 1.400 1_556 S
C8 C12 1.377 . S
C9 C7 1.364 . S
C9 C10 1.374 . S
C10 H1 0.930 . S
C10 C9 1.374 . S
C10 C11 1.383 . S
C11 O5 1.412 . S
C11 C10 1.383 . S
C11 C12 1.394 1_554 S
C12 H2 0.929 . S
C12 C8 1.377 . S
C12 C11 1.394 1_556 S
H13 C20 0.929 . S
H14 C23 0.930 . S
H15 C25 0.929 . S
H16 C17 0.969 . S
C17 H16 0.969 . S
C17 O18 1.550 . S
C17 H19 0.973 . S
O18 C17 1.550 . S
O18 C24 1.412 . S
H19 C17 0.973 . S
C20 H13 0.929 . S
C20 C21 1.400 . S
C20 C22 1.364 . S
C21 C20 1.400 . S
C21 C25 1.377 . S
C22 C20 1.364 . S
C22 C23 1.374 . S
C23 H14 0.930 . S
C23 C22 1.374 . S
C23 C24 1.383 . S
C24 O18 1.412 . S
C24 C23 1.383 . S
C24 C25 1.394 . S
C25 H15 0.929 . S
C25 C21 1.377 . S
C25 C24 1.394 . S
H26 C33 0.929 . S
H27 C36 0.930 1_556 S
H28 C38 0.929 . S
H29 C30 0.969 . S
C30 H29 0.969 . S
C30 O31 1.550 . S
C30 H32 0.973 1_554 S
O31 C30 1.550 . S
O31 C37 1.412 . S
H32 C30 0.973 1_556 S
C33 H26 0.929 . S
C33 C34 1.400 . S
C33 C35 1.364 . S
C34 C33 1.400 . S
C34 C38 1.377 . S
C35 C33 1.364 . S
C35 C36 1.374 . S
C36 H27 0.930 1_554 S
C36 C35 1.374 . S
C36 C37 1.383 . S
C37 O31 1.412 . S
C37 C36 1.383 . S
C37 C38 1.394 . S
C38 H28 0.929 . S
C38 C34 1.377 . S
C38 C37 1.394 . S
H39 C46 0.929 . S
H40 C49 0.930 . S
H41 C51 0.929 . S
H42 C43 0.969 . S
C43 H42 0.969 . S
C43 O44 1.550 . S
C43 H45 0.973 . S
O44 C43 1.550 . S
O44 C50 1.412 . S
H45 C43 0.973 . S
C46 H39 0.929 . S
C46 C47 1.400 . S
C46 C48 1.364 . S
C47 C46 1.400 . S
C47 C51 1.377 . S
C48 C46 1.364 . S
C48 C49 1.374 . S
C49 H40 0.930 . S
C49 C48 1.374 . S
C49 C50 1.383 . S
C50 O44 1.412 . S
C50 C49 1.383 . S
C50 C51 1.394 . S
C51 H41 0.929 . S
C51 C47 1.377 . S
C51 C50 1.394 . S
Tb52 N81 2.617 . S
Tb52 N87 2.572 . S
Tb52 O96 2.465 . S
Tb52 O97 2.387 . S
Tb52 O99 2.428 . S
Tb52 O100 2.308 1_565 S
Tb52 O104 2.349 1_465 S
Tb52 O107 2.393 1_455 S
Tb52 C116 2.802 . S
C53 N54 1.379 . S
C53 C56 1.416 . S
C53 C60 1.424 . S
N54 C53 1.379 . S
N54 C57 1.334 1_655 S
N54 Tb63 2.617 . S
C55 C57 1.390 . S
C55 C58 1.339 1_455 S
C55 H75 0.930 . S
C56 C53 1.416 . S
C56 C58 1.416 . S
C56 C62 1.448 . S
C57 N54 1.334 1_455 S
C57 C55 1.390 . S
C57 H68 0.930 . S
C58 C55 1.339 1_655 S
C58 C56 1.416 . S
C58 H79 0.930 . S
C59 C60 1.413 . S
C59 C61 1.427 . S
C59 C65 1.416 . S
C60 C53 1.424 . S
C60 C59 1.413 . S
C60 N64 1.361 . S
C61 C59 1.427 . S
C61 C62 1.328 . S
C61 H76 0.929 . S
C62 C56 1.448 . S
C62 C61 1.328 . S
C62 H77 0.930 . S
Tb63 N54 2.617 . S
Tb63 N64 2.572 . S
Tb63 O98 2.349 1_655 S
Tb63 O101 2.393 1_655 S
Tb63 O102 2.465 . S
Tb63 O103 2.387 . S
Tb63 O105 2.428 . S
Tb63 O106 2.308 1_545 S
Tb63 C127 2.802 . S
N64 C60 1.361 . S
N64 Tb63 2.572 . S
N64 C66 1.340 . S
C65 C59 1.416 . S
C65 C67 1.332 . S
C65 H73 0.931 . S
C66 N64 1.340 . S
C66 C67 1.407 . S
C66 H72 0.930 . S
C67 C65 1.332 . S
C67 C66 1.407 . S
C67 H69 0.929 . S
H68 C57 0.930 . S
H69 C67 0.929 . S
H70 C85 0.930 1_655 S
H71 C92 0.929 . S
H72 C66 0.930 . S
H73 C65 0.931 . S
H74 C88 0.930 . S
H75 C55 0.930 . S
H76 C61 0.929 . S
H77 C62 0.930 . S
H78 C83 0.930 1_655 S
H79 C58 0.930 . S
H80 C91 0.931 . S
N81 Tb52 2.617 . S
N81 C82 1.379 . S
N81 C85 1.334 . S
C82 N81 1.379 . S
C82 C84 1.416 . S
C82 C90 1.424 . S
C83 H78 0.930 1_455 S
C83 C85 1.390 . S
C83 C86 1.339 . S
C84 C82 1.416 . S
C84 C86 1.416 . S
C84 C117 1.448 . S
C85 H70 0.930 1_455 S
C85 N81 1.334 . S
C85 C83 1.390 . S
C86 C83 1.339 . S
C86 C84 1.416 . S
C86 H93 0.930 . S
N87 Tb52 2.572 . S
N87 C88 1.340 . S
N87 C90 1.361 . S
C88 H74 0.930 . S
C88 N87 1.340 . S
C88 C92 1.407 . S
C89 C90 1.413 . S
C89 C91 1.416 . S
C89 C118 1.427 . S
C90 C82 1.424 . S
C90 N87 1.361 . S
C90 C89 1.413 . S
C91 H80 0.931 . S
C91 C89 1.416 . S
C91 C92 1.332 . S
C92 H71 0.929 . S
C92 C88 1.407 . S
C92 C91 1.332 . S
H93 C86 0.930 . S
H94 C117 0.930 . S
H95 C118 0.929 . S
O96 Tb52 2.465 . S
O96 C116 1.264 . S
O97 Tb52 2.387 . S
O97 C108 1.264 . S
O98 Tb63 2.349 1_455 S
O98 C108 1.243 1_545 S
O99 Tb52 2.428 . S
O99 C116 1.256 . S
O100 Tb52 2.308 1_545 S
O100 C115 1.266 . S
O101 Tb63 2.393 1_455 S
O101 C115 1.248 . S
O102 Tb63 2.465 . S
O102 C127 1.264 . S
O103 Tb63 2.387 . S
O103 C119 1.264 . S
O104 Tb52 2.349 1_645 S
O104 C119 1.243 . S
O105 Tb63 2.428 . S
O105 C127 1.256 . S
O106 Tb63 2.308 1_565 S
O106 C126 1.266 . S
O107 Tb52 2.393 1_655 S
O107 C126 1.248 . S
C108 O97 1.264 . S
C108 O98 1.243 1_565 S
C109 C112 1.399 . S
C109 C114 1.383 . S
C109 C116 1.496 . S
C110 C111 1.399 . S
C110 C114 1.389 . S
C111 C110 1.399 . S
C111 C113 1.380 . S
C111 H128 0.929 . S
C112 C109 1.399 . S
C112 C113 1.392 . S
C112 H129 0.929 . S
C113 C111 1.380 . S
C113 C112 1.392 . S
C113 H130 0.929 . S
C114 C109 1.383 . S
C114 C110 1.389 . S
C114 H131 0.931 . S
C115 O100 1.266 . S
C115 O101 1.248 . S
C116 Tb52 2.802 . S
C116 O96 1.264 . S
C116 O99 1.256 . S
C116 C109 1.496 . S
C117 C84 1.448 . S
C117 H94 0.930 . S
C117 C118 1.328 . S
C118 C89 1.427 . S
C118 H95 0.929 . S
C118 C117 1.328 . S
C119 O103 1.264 . S
C119 O104 1.243 . S
C120 C123 1.399 . S
C120 C124 1.383 . S
C120 C127 1.496 . S
C121 C122 1.399 . S
C121 C124 1.389 . S
C122 C121 1.399 . S
C122 C125 1.380 . S
C122 H132 0.929 . S
C123 C120 1.399 . S
C123 C125 1.392 . S
C123 H133 0.929 . S
C124 C120 1.383 . S
C124 C121 1.389 . S
C124 H134 0.931 . S
C125 C122 1.380 . S
C125 C123 1.392 . S
C125 H135 0.929 . S
C126 O106 1.266 . S
C126 O107 1.248 . S
C127 Tb63 2.802 . S
C127 O102 1.264 . S
C127 O105 1.256 . S
C127 C120 1.496 . S
H128 C111 0.929 . S
H129 C112 0.929 . S
H130 C113 0.929 . S
H131 C114 0.931 . S
H132 C122 0.929 . S
H133 C123 0.929 . S
H134 C124 0.931 . S
H135 C125 0.929 . S
Tb136 N165 2.617 . S
Tb136 N171 2.572 1_556 S
Tb136 O180 2.465 . S
Tb136 O181 2.387 1_556 S
Tb136 O183 2.428 . S
Tb136 O184 2.308 1_556 S
Tb136 O188 2.349 . S
Tb136 O191 2.393 . S
Tb136 C200 2.802 . S
C137 N138 1.379 . S
C137 C140 1.416 . S
C137 C144 1.424 . S
N138 C137 1.379 . S
N138 C141 1.334 . S
N138 Tb147 2.617 . S
C139 C141 1.390 . S
C139 C142 1.339 . S
C139 H159 0.930 . S
C140 C137 1.416 . S
C140 C142 1.416 . S
C140 C146 1.448 . S
C141 N138 1.334 . S
C141 C139 1.390 . S
C141 H152 0.930 . S
C142 C139 1.339 . S
C142 C140 1.416 . S
C142 H163 0.930 . S
C143 C144 1.413 . S
C143 C145 1.427 . S
C143 C149 1.416 . S
C144 C137 1.424 . S
C144 C143 1.413 . S
C144 N148 1.361 . S
C145 C143 1.427 . S
C145 C146 1.328 . S
C145 H160 0.929 . S
C146 C140 1.448 . S
C146 C145 1.328 . S
C146 H161 0.930 . S
Tb147 N138 2.617 . S
Tb147 N148 2.572 . S
Tb147 O182 2.349 . S
Tb147 O185 2.393 . S
Tb147 O186 2.465 . S
Tb147 O187 2.387 1_554 S
Tb147 O189 2.428 . S
Tb147 O190 2.308 . S
Tb147 C211 2.802 . S
N148 C144 1.361 . S
N148 Tb147 2.572 . S
N148 C150 1.340 . S
C149 C143 1.416 . S
C149 C151 1.332 . S
C149 H157 0.931 . S
C150 N148 1.340 . S
C150 C151 1.407 . S
C150 H156 0.930 . S
C151 C149 1.332 . S
C151 C150 1.407 . S
C151 H153 0.929 . S
H152 C141 0.930 . S
H153 C151 0.929 . S
H154 C169 0.930 . S
H155 C176 0.929 . S
H156 C150 0.930 . S
H157 C149 0.931 . S
H158 C172 0.930 . S
H159 C139 0.930 . S
H160 C145 0.929 . S
H161 C146 0.930 . S
H162 C167 0.930 . S
H163 C142 0.930 . S
H164 C175 0.931 . S
N165 Tb136 2.617 . S
N165 C166 1.379 1_556 S
N165 C169 1.334 . S
C166 N165 1.379 1_554 S
C166 C168 1.416 . S
C166 C174 1.424 . S
C167 H162 0.930 . S
C167 C169 1.390 . S
C167 C170 1.339 1_556 S
C168 C166 1.416 . S
C168 C170 1.416 . S
C168 C201 1.448 . S
C169 H154 0.930 . S
C169 N165 1.334 . S
C169 C167 1.390 . S
C170 C167 1.339 1_554 S
C170 C168 1.416 . S
C170 H177 0.930 . S
N171 Tb136 2.572 1_554 S
N171 C172 1.340 . S
N171 C174 1.361 . S
C172 H158 0.930 . S
C172 N171 1.340 . S
C172 C176 1.407 . S
C173 C174 1.413 . S
C173 C175 1.416 . S
C173 C202 1.427 . S
C174 C166 1.424 . S
C174 N171 1.361 . S
C174 C173 1.413 . S
C175 H164 0.931 . S
C175 C173 1.416 . S
C175 C176 1.332 . S
C176 H155 0.929 . S
C176 C172 1.407 . S
C176 C175 1.332 . S
H177 C170 0.930 . S
H178 C201 0.930 . S
H179 C202 0.929 . S
O180 Tb136 2.465 . S
O180 C200 1.264 . S
O181 Tb136 2.387 1_554 S
O181 C192 1.264 . S
O182 Tb147 2.349 . S
O182 C192 1.243 . S
O183 Tb136 2.428 . S
O183 C200 1.256 . S
O184 Tb136 2.308 1_554 S
O184 C199 1.266 . S
O185 Tb147 2.393 . S
O185 C199 1.248 . S
O186 Tb147 2.465 . S
O186 C211 1.264 . S
O187 Tb147 2.387 1_556 S
O187 C203 1.264 . S
O188 Tb136 2.349 . S
O188 C203 1.243 . S
O189 Tb147 2.428 . S
O189 C211 1.256 . S
O190 Tb147 2.308 . S
O190 C210 1.266 . S
O191 Tb136 2.393 . S
O191 C210 1.248 1_556 S
C192 O181 1.264 . S
C192 O182 1.243 . S
C193 C196 1.399 . S
C193 C198 1.383 . S
C193 C200 1.496 . S
C194 C195 1.399 . S
C194 C198 1.389 . S
C195 C194 1.399 . S
C195 C197 1.380 . S
C195 H212 0.929 . S
C196 C193 1.399 . S
C196 C197 1.392 . S
C196 H213 0.929 . S
C197 C195 1.380 . S
C197 C196 1.392 . S
C197 H214 0.929 . S
C198 C193 1.383 . S
C198 C194 1.389 . S
C198 H215 0.931 . S
C199 O184 1.266 . S
C199 O185 1.248 . S
C200 Tb136 2.802 . S
C200 O180 1.264 . S
C200 O183 1.256 . S
C200 C193 1.496 . S
C201 C168 1.448 . S
C201 H178 0.930 . S
C201 C202 1.328 . S
C202 C173 1.427 . S
C202 H179 0.929 . S
C202 C201 1.328 . S
C203 O187 1.264 . S
C203 O188 1.243 . S
C204 C207 1.399 . S
C204 C208 1.383 . S
C204 C211 1.496 . S
C205 C206 1.399 . S
C205 C208 1.389 . S
C206 C205 1.399 . S
C206 C209 1.380 . S
C206 H216 0.929 . S
C207 C204 1.399 . S
C207 C209 1.392 . S
C207 H217 0.929 . S
C208 C204 1.383 . S
C208 C205 1.389 . S
C208 H218 0.931 . S
C209 C206 1.380 . S
C209 C207 1.392 . S
C209 H219 0.929 . S
C210 O190 1.266 . S
C210 O191 1.248 1_554 S
C211 Tb147 2.802 . S
C211 O186 1.264 . S
C211 O189 1.256 . S
C211 C204 1.496 . S
H212 C195 0.929 . S
H213 C196 0.929 . S
H214 C197 0.929 . S
H215 C198 0.931 . S
H216 C206 0.929 . S
H217 C207 0.929 . S
H218 C208 0.931 . S
H219 C209 0.929 . S
H220 C238 0.951 . S
H221 C240 0.951 . S
H222 C242 0.950 . S
H223 C243 0.950 . S
H224 C245 0.950 . S
H225 C248 0.950 . S
H226 C249 0.950 . S
H227 C251 0.950 . S
H228 C252 0.950 . S
H229 C253 0.951 . S
H230 C255 0.951 . S
H231 C257 0.950 . S
H232 C258 0.950 . S
H233 C260 0.950 . S
H234 C263 0.950 . S
H235 C264 0.950 . S
H236 C266 0.950 . S
H237 C267 0.950 . S
C238 H220 0.951 . S
C238 C239 1.366 . S
C238 C240 1.388 . S
C239 C238 1.366 . S
C239 C243 1.385 . S
C240 H221 0.951 . S
C240 C238 1.388 . S
C240 C241 1.366 . S
C241 C240 1.366 . S
C241 C242 1.414 . S
C241 C244 1.499 . S
C242 H222 0.950 . S
C242 C241 1.414 . S
C242 C243 1.374 . S
C243 H223 0.950 . S
C243 C239 1.385 . S
C243 C242 1.374 . S
C244 C241 1.499 . S
C244 C245 1.373 . S
C244 C246 1.389 . S
C245 H224 0.950 . S
C245 C244 1.373 . S
C245 C261 1.377 . S
C246 C244 1.389 . S
C246 C247 1.524 . S
C246 C260 1.377 . S
C247 C246 1.524 . S
C247 C248 1.397 . S
C247 C252 1.363 . S
C248 H225 0.950 . S
C248 C247 1.397 . S
C248 C249 1.334 . S
C249 H226 0.950 . S
C249 C248 1.334 . S
C249 C250 1.287 . S
C250 C249 1.287 . S
C250 C251 1.524 . S
C250 H269 0.913 . S
C251 H227 0.950 . S
C251 C250 1.524 . S
C251 C252 1.415 . S
C252 H228 0.950 . S
C252 C247 1.363 . S
C252 C251 1.415 . S
C253 H229 0.951 . S
C253 C254 1.366 . S
C253 C255 1.388 . S
C254 C253 1.366 . S
C254 C258 1.385 . S
C255 H230 0.951 . S
C255 C253 1.388 . S
C255 C256 1.366 . S
C256 C255 1.366 . S
C256 C257 1.414 . S
C256 C259 1.499 . S
C257 H231 0.950 . S
C257 C256 1.414 . S
C257 C258 1.374 . S
C258 H232 0.950 . S
C258 C254 1.385 . S
C258 C257 1.374 . S
C259 C256 1.499 . S
C259 C260 1.373 . S
C259 C261 1.389 . S
C260 H233 0.950 . S
C260 C246 1.377 . S
C260 C259 1.373 . S
C261 C245 1.377 . S
C261 C259 1.389 . S
C261 C262 1.524 . S
C262 C261 1.524 . S
C262 C263 1.397 . S
C262 C267 1.363 . S
C263 H234 0.950 . S
C263 C262 1.397 . S
C263 C264 1.334 . S
C264 H235 0.950 . S
C264 C263 1.334 . S
C264 C265 1.287 . S
C265 C264 1.287 . S
C265 C266 1.524 . S
C265 H268 0.999 1_545 S
C266 H236 0.950 . S
C266 C265 1.524 . S
C266 C267 1.415 . S
C267 H237 0.950 . S
C267 C262 1.363 . S
C267 C266 1.415 . S
H268 C265 0.999 1_565 S
H269 C250 0.913 . S
H270 C288 0.951 . S
H271 C290 0.951 . S
H272 C292 0.950 . S
H273 C293 0.950 . S
H274 C295 0.950 . S
H275 C298 0.950 . S
H276 C299 0.950 . S
H277 C301 0.950 . S
H278 C302 0.950 . S
H279 C303 0.951 . S
H280 C305 0.951 . S
H281 C307 0.950 . S
H282 C308 0.950 . S
H283 C310 0.950 . S
H284 C313 0.950 . S
H285 C314 0.950 . S
H286 C316 0.950 . S
H287 C317 0.950 1_554 S
C288 H270 0.951 . S
C288 C289 1.366 . S
C288 C290 1.388 . S
C289 C288 1.366 . S
C289 C293 1.385 . S
C290 H271 0.951 . S
C290 C288 1.388 . S
C290 C291 1.366 . S
C291 C290 1.366 . S
C291 C292 1.414 . S
C291 C294 1.499 . S
C292 H272 0.950 . S
C292 C291 1.414 . S
C292 C293 1.374 . S
C293 H273 0.950 . S
C293 C289 1.385 . S
C293 C292 1.374 . S
C294 C291 1.499 . S
C294 C295 1.373 . S
C294 C296 1.389 . S
C295 H274 0.950 . S
C295 C294 1.373 . S
C295 C311 1.377 . S
C296 C294 1.389 . S
C296 C297 1.524 . S
C296 C310 1.377 . S
C297 C296 1.524 . S
C297 C298 1.397 . S
C297 C302 1.363 . S
C298 H275 0.950 . S
C298 C297 1.397 . S
C298 C299 1.334 . S
C299 H276 0.950 . S
C299 C298 1.334 . S
C299 C300 1.287 . S
C300 C299 1.287 . S
C300 C301 1.524 . S
C300 H319 0.913 . S
C301 H277 0.950 . S
C301 C300 1.524 . S
C301 C302 1.415 . S
C302 H278 0.950 . S
C302 C297 1.363 . S
C302 C301 1.415 . S
C303 H279 0.951 . S
C303 C304 1.366 . S
C303 C305 1.388 . S
C304 C303 1.366 . S
C304 C308 1.385 . S
C305 H280 0.951 . S
C305 C303 1.388 . S
C305 C306 1.366 . S
C306 C305 1.366 . S
C306 C307 1.414 . S
C306 C309 1.499 . S
C307 H281 0.950 . S
C307 C306 1.414 . S
C307 C308 1.374 . S
C308 H282 0.950 . S
C308 C304 1.385 . S
C308 C307 1.374 . S
C309 C306 1.499 . S
C309 C310 1.373 . S
C309 C311 1.389 . S
C310 H283 0.950 . S
C310 C296 1.377 . S
C310 C309 1.373 . S
C311 C295 1.377 . S
C311 C309 1.389 . S
C311 C312 1.524 1_554 S
C312 C311 1.524 1_556 S
C312 C313 1.397 . S
C312 C317 1.363 . S
C313 H284 0.950 . S
C313 C312 1.397 . S
C313 C314 1.334 . S
C314 H285 0.950 . S
C314 C313 1.334 . S
C314 C315 1.287 . S
C315 C314 1.287 . S
C315 C316 1.524 . S
C315 H318 0.999 . S
C316 H286 0.950 . S
C316 C315 1.524 . S
C316 C317 1.415 . S
C317 H287 0.950 1_556 S
C317 C312 1.363 . S
C317 C316 1.415 . S
H318 C315 0.999 . S
H319 C300 0.913 . S
H320 C338 0.951 . S
H321 C340 0.951 . S
H322 C342 0.950 . S
H323 C343 0.950 . S
H324 C345 0.950 . S
H325 C348 0.950 . S
H326 C349 0.950 . S
H327 C351 0.950 . S
H328 C352 0.950 . S
H329 C353 0.951 . S
H330 C355 0.951 . S
H331 C357 0.950 . S
H332 C358 0.950 . S
H333 C360 0.950 . S
H334 C363 0.950 . S
H335 C364 0.950 . S
H336 C366 0.950 . S
H337 C367 0.950 . S
C338 H320 0.951 . S
C338 C339 1.366 . S
C338 C340 1.388 . S
C339 C338 1.366 . S
C339 C343 1.385 . S
C340 H321 0.951 . S
C340 C338 1.388 . S
C340 C341 1.366 . S
C341 C340 1.366 . S
C341 C342 1.414 . S
C341 C344 1.499 . S
C342 H322 0.950 . S
C342 C341 1.414 . S
C342 C343 1.374 . S
C343 H323 0.950 . S
C343 C339 1.385 . S
C343 C342 1.374 . S
C344 C341 1.499 . S
C344 C345 1.373 . S
C344 C346 1.389 . S
C345 H324 0.950 . S
C345 C344 1.373 . S
C345 C361 1.377 . S
C346 C344 1.389 . S
C346 C347 1.524 . S
C346 C360 1.377 . S
C347 C346 1.524 . S
C347 C348 1.397 . S
C347 C352 1.363 . S
C348 H325 0.950 . S
C348 C347 1.397 . S
C348 C349 1.334 . S
C349 H326 0.950 . S
C349 C348 1.334 . S
C349 C350 1.287 . S
C350 C349 1.287 . S
C350 C351 1.524 . S
C350 H369 0.913 . S
C351 H327 0.950 . S
C351 C350 1.524 . S
C351 C352 1.415 . S
C352 H328 0.950 . S
C352 C347 1.363 . S
C352 C351 1.415 . S
C353 H329 0.951 . S
C353 C354 1.366 . S
C353 C355 1.388 . S
C354 C353 1.366 . S
C354 C358 1.385 . S
C355 H330 0.951 . S
C355 C353 1.388 . S
C355 C356 1.366 . S
C356 C355 1.366 . S
C356 C357 1.414 . S
C356 C359 1.499 . S
C357 H331 0.950 . S
C357 C356 1.414 . S
C357 C358 1.374 . S
C358 H332 0.950 . S
C358 C354 1.385 . S
C358 C357 1.374 . S
C359 C356 1.499 . S
C359 C360 1.373 . S
C359 C361 1.389 . S
C360 H333 0.950 . S
C360 C346 1.377 . S
C360 C359 1.373 . S
C361 C345 1.377 . S
C361 C359 1.389 . S
C361 C362 1.524 . S
C362 C361 1.524 . S
C362 C363 1.397 . S
C362 C367 1.363 . S
C363 H334 0.950 . S
C363 C362 1.397 . S
C363 C364 1.334 . S
C364 H335 0.950 . S
C364 C363 1.334 . S
C364 C365 1.287 . S
C365 C364 1.287 . S
C365 C366 1.524 . S
C365 H368 0.999 . S
C366 H336 0.950 . S
C366 C365 1.524 . S
C366 C367 1.415 . S
C367 H337 0.950 . S
C367 C362 1.363 . S
C367 C366 1.415 . S
H368 C365 0.999 . S
H369 C350 0.913 . S
H370 C388 0.951 . S
H371 C390 0.951 . S
H372 C392 0.950 . S
H373 C393 0.950 . S
H374 C395 0.950 . S
H375 C398 0.950 . S
H376 C399 0.950 . S
H377 C401 0.950 . S
H378 C402 0.950 . S
H379 C403 0.951 . S
H380 C405 0.951 . S
H381 C407 0.950 . S
H382 C408 0.950 . S
H383 C410 0.950 . S
H384 C413 0.955 . S
H385 C414 0.961 . S
H386 C416 0.950 . S
H387 C417 0.950 . S
C388 H370 0.951 . S
C388 C389 1.366 . S
C388 C390 1.388 . S
C389 C388 1.366 . S
C389 C393 1.385 1_554 S
C390 H371 0.951 . S
C390 C388 1.388 . S
C390 C391 1.366 . S
C391 C390 1.366 . S
C391 C392 1.414 1_554 S
C391 C394 1.499 . S
C392 H372 0.950 . S
C392 C391 1.414 1_556 S
C392 C393 1.374 . S
C393 H373 0.950 . S
C393 C389 1.385 1_556 S
C393 C392 1.374 . S
C394 C391 1.499 . S
C394 C395 1.373 1_554 S
C394 C396 1.389 . S
C395 H374 0.950 . S
C395 C394 1.373 1_556 S
C395 C411 1.377 . S
C396 C394 1.389 . S
C396 C397 1.524 . S
C396 C410 1.377 . S
C397 C396 1.524 . S
C397 C398 1.397 . S
C397 C402 1.363 . S
C398 H375 0.950 . S
C398 C397 1.397 . S
C398 C399 1.334 . S
C399 H376 0.950 . S
C399 C398 1.334 . S
C399 C400 1.287 . S
C400 C399 1.287 . S
C400 C401 1.524 . S
C400 H419 0.913 . S
C401 H377 0.950 . S
C401 C400 1.524 . S
C401 C402 1.415 . S
C402 H378 0.950 . S
C402 C397 1.363 . S
C402 C401 1.415 . S
C403 H379 0.951 . S
C403 C404 1.366 1_556 S
C403 C405 1.388 . S
C404 C403 1.366 1_554 S
C404 C408 1.385 . S
C405 H380 0.951 . S
C405 C403 1.388 . S
C405 C406 1.366 1_556 S
C406 C405 1.366 1_554 S
C406 C407 1.414 . S
C406 C409 1.499 . S
C407 H381 0.950 . S
C407 C406 1.414 . S
C407 C408 1.374 . S
C408 H382 0.950 . S
C408 C404 1.385 . S
C408 C407 1.374 . S
C409 C406 1.499 . S
C409 C410 1.373 . S
C409 C411 1.389 1_554 S
C410 H383 0.950 . S
C410 C396 1.377 . S
C410 C409 1.373 . S
C411 C395 1.377 . S
C411 C409 1.389 1_556 S
C411 C412 1.524 . S
C412 C411 1.524 . S
C412 C413 1.394 1_556 S
C412 C417 1.363 . S
C413 H384 0.955 . S
C413 C412 1.394 1_554 S
C413 C414 1.332 1_554 S
C414 H385 0.961 . S
C414 C413 1.332 1_556 S
C414 C415 1.287 . S
C415 C414 1.287 . S
C415 C416 1.524 . S
C415 H418 0.999 . S
C416 H386 0.950 . S
C416 C415 1.524 . S
C416 C417 1.415 . S
C417 H387 0.950 . S
C417 C412 1.363 . S
C417 C416 1.415 . S
H418 C415 0.999 . S
H419 C400 0.913 . S
H420 C438 0.951 . S
H421 C440 0.951 . S
H422 C442 0.950 . S
H423 C443 0.950 . S
H424 C445 0.950 . S
H425 C448 0.950 . S
H426 C449 0.950 . S
H427 C451 0.950 . S
H428 C452 0.950 . S
H429 C453 0.951 . S
H430 C455 0.951 . S
H431 C457 0.950 . S
H432 C458 0.950 . S
H433 C460 0.950 . S
H434 C463 0.950 . S
H435 C464 0.950 . S
H436 C466 0.950 . S
H437 C467 0.950 . S
C438 H420 0.951 . S
C438 C439 1.366 . S
C438 C440 1.388 . S
C439 C438 1.366 . S
C439 C443 1.385 . S
C440 H421 0.951 . S
C440 C438 1.388 . S
C440 C441 1.366 . S
C441 C440 1.366 . S
C441 C442 1.414 . S
C441 C444 1.499 . S
C442 H422 0.950 . S
C442 C441 1.414 . S
C442 C443 1.374 . S
C443 H423 0.950 . S
C443 C439 1.385 . S
C443 C442 1.374 . S
C444 C441 1.499 . S
C444 C445 1.373 . S
C444 C446 1.389 . S
C445 H424 0.950 . S
C445 C444 1.373 . S
C445 C461 1.377 . S
C446 C444 1.389 . S
C446 C447 1.524 . S
C446 C460 1.377 . S
C447 C446 1.524 . S
C447 C448 1.397 . S
C447 C452 1.363 . S
C448 H425 0.950 . S
C448 C447 1.397 . S
C448 C449 1.334 . S
C449 H426 0.950 . S
C449 C448 1.334 . S
C449 C450 1.301 . S
C450 C449 1.301 . S
C450 C451 1.519 1_565 S
C450 H469 0.904 1_565 S
C451 H427 0.950 . S
C451 C450 1.519 1_545 S
C451 C452 1.415 1_545 S
C452 H428 0.950 . S
C452 C447 1.363 . S
C452 C451 1.415 1_565 S
C453 H429 0.951 . S
C453 C454 1.366 . S
C453 C455 1.388 . S
C454 C453 1.366 . S
C454 C458 1.385 . S
C455 H430 0.951 . S
C455 C453 1.388 . S
C455 C456 1.366 . S
C456 C455 1.366 . S
C456 C457 1.414 . S
C456 C459 1.499 . S
C457 H431 0.950 . S
C457 C456 1.414 . S
C457 C458 1.374 . S
C458 H432 0.950 . S
C458 C454 1.385 . S
C458 C457 1.374 . S
C459 C456 1.499 . S
C459 C460 1.373 . S
C459 C461 1.389 . S
C460 H433 0.950 . S
C460 C446 1.377 . S
C460 C459 1.373 . S
C461 C445 1.377 . S
C461 C459 1.389 . S
C461 C462 1.524 . S
C462 C461 1.524 . S
C462 C463 1.397 . S
C462 C467 1.363 . S
C463 H434 0.950 . S
C463 C462 1.397 . S
C463 C464 1.334 . S
C464 H435 0.950 . S
C464 C463 1.334 . S
C464 C465 1.287 . S
C465 C464 1.287 . S
C465 C466 1.524 . S
C465 H468 0.999 . S
C466 H436 0.950 . S
C466 C465 1.524 . S
C466 C467 1.415 . S
C467 H437 0.950 . S
C467 C462 1.363 . S
C467 C466 1.415 . S
H468 C465 0.999 . S
H469 C450 0.904 1_545 S
H470 C488 0.951 . S
H471 C490 0.951 . S
H472 C492 0.950 . S
H473 C493 0.950 . S
H474 C495 0.950 . S
H475 C498 0.950 . S
H476 C499 0.950 . S
H477 C501 0.950 . S
H478 C502 0.950 . S
H479 C503 0.951 . S
H480 C505 0.951 . S
H481 C507 0.950 . S
H482 C508 0.950 . S
H483 C510 0.950 . S
H484 C513 0.950 . S
H485 C514 0.950 . S
H486 C516 0.950 . S
H487 C517 0.950 . S
C488 H470 0.951 . S
C488 C489 1.366 . S
C488 C490 1.388 . S
C489 C488 1.366 . S
C489 C493 1.385 . S
C490 H471 0.951 . S
C490 C488 1.388 . S
C490 C491 1.366 . S
C491 C490 1.366 . S
C491 C492 1.414 . S
C491 C494 1.499 . S
C492 H472 0.950 . S
C492 C491 1.414 . S
C492 C493 1.374 . S
C493 H473 0.950 . S
C493 C489 1.385 . S
C493 C492 1.374 . S
C494 C491 1.499 . S
C494 C495 1.373 . S
C494 C496 1.389 . S
C495 H474 0.950 . S
C495 C494 1.373 . S
C495 C511 1.377 . S
C496 C494 1.389 . S
C496 C497 1.524 . S
C496 C510 1.377 . S
C497 C496 1.524 . S
C497 C498 1.397 . S
C497 C502 1.363 . S
C498 H475 0.950 . S
C498 C497 1.397 . S
C498 C499 1.334 . S
C499 H476 0.950 . S
C499 C498 1.334 . S
C499 C500 1.287 . S
C500 C499 1.287 . S
C500 C501 1.524 . S
C500 H519 0.913 . S
C501 H477 0.950 . S
C501 C500 1.524 . S
C501 C502 1.415 . S
C502 H478 0.950 . S
C502 C497 1.363 . S
C502 C501 1.415 . S
C503 H479 0.951 . S
C503 C504 1.366 . S
C503 C505 1.388 . S
C504 C503 1.366 . S
C504 C508 1.385 . S
C505 H480 0.951 . S
C505 C503 1.388 . S
C505 C506 1.366 . S
C506 C505 1.366 . S
C506 C507 1.414 . S
C506 C509 1.499 . S
C507 H481 0.950 . S
C507 C506 1.414 . S
C507 C508 1.374 . S
C508 H482 0.950 . S
C508 C504 1.385 . S
C508 C507 1.374 . S
C509 C506 1.499 . S
C509 C510 1.373 . S
C509 C511 1.389 . S
C510 H483 0.950 . S
C510 C496 1.377 . S
C510 C509 1.373 . S
C511 C495 1.377 . S
C511 C509 1.389 . S
C511 C512 1.524 . S
C512 C511 1.524 . S
C512 C513 1.397 . S
C512 C517 1.363 . S
C513 H484 0.950 . S
C513 C512 1.397 . S
C513 C514 1.334 . S
C514 H485 0.950 . S
C514 C513 1.334 . S
C514 C515 1.287 . S
C515 C514 1.287 . S
C515 C516 1.524 . S
C515 H518 0.999 . S
C516 H486 0.950 . S
C516 C515 1.524 . S
C516 C517 1.415 . S
C517 H487 0.950 . S
C517 C512 1.363 . S
C517 C516 1.415 . S
H518 C515 0.999 . S
H519 C500 0.913 . S
H520 C538 0.951 . S
H521 C540 0.951 . S
H522 C542 0.950 . S
H523 C543 0.950 . S
H524 C545 0.950 . S
H525 C548 0.950 . S
H526 C549 0.950 . S
H527 C551 0.950 . S
H528 C552 0.950 . S
H529 C553 0.951 . S
H530 C555 0.951 . S
H531 C557 0.950 . S
H532 C558 0.950 . S
H533 C560 0.950 . S
H534 C563 0.950 . S
H535 C564 0.950 . S
H536 C566 0.950 . S
H537 C567 0.950 . S
C538 H520 0.951 . S
C538 C539 1.366 . S
C538 C540 1.388 . S
C539 C538 1.366 . S
C539 C543 1.385 . S
C540 H521 0.951 . S
C540 C538 1.388 . S
C540 C541 1.366 . S
C541 C540 1.366 . S
C541 C542 1.414 . S
C541 C544 1.499 . S
C542 H522 0.950 . S
C542 C541 1.414 . S
C542 C543 1.374 . S
C543 H523 0.950 . S
C543 C539 1.385 . S
C543 C542 1.374 . S
C544 C541 1.499 . S
C544 C545 1.373 . S
C544 C546 1.389 . S
C545 H524 0.950 . S
C545 C544 1.373 . S
C545 C561 1.377 . S
C546 C544 1.389 . S
C546 C547 1.524 . S
C546 C560 1.377 . S
C547 C546 1.524 . S
C547 C548 1.397 . S
C547 C552 1.363 . S
C548 H525 0.950 . S
C548 C547 1.397 . S
C548 C549 1.334 . S
C549 H526 0.950 . S
C549 C548 1.334 . S
C549 C550 1.287 . S
C550 C549 1.287 . S
C550 C551 1.524 . S
C550 H569 0.913 1_545 S
C551 H527 0.950 . S
C551 C550 1.524 . S
C551 C552 1.415 . S
C552 H528 0.950 . S
C552 C547 1.363 . S
C552 C551 1.415 . S
C553 H529 0.951 . S
C553 C554 1.366 . S
C553 C555 1.388 . S
C554 C553 1.366 . S
C554 C558 1.385 . S
C555 H530 0.951 . S
C555 C553 1.388 . S
C555 C556 1.366 . S
C556 C555 1.366 . S
C556 C557 1.414 . S
C556 C559 1.499 . S
C557 H531 0.950 . S
C557 C556 1.414 . S
C557 C558 1.374 . S
C558 H532 0.950 . S
C558 C554 1.385 . S
C558 C557 1.374 . S
C559 C556 1.499 . S
C559 C560 1.373 . S
C559 C561 1.389 . S
C560 H533 0.950 . S
C560 C546 1.377 . S
C560 C559 1.373 . S
C561 C545 1.377 . S
C561 C559 1.389 . S
C561 C562 1.524 . S
C562 C561 1.524 . S
C562 C563 1.397 . S
C562 C567 1.363 . S
C563 H534 0.950 . S
C563 C562 1.397 . S
C563 C564 1.334 . S
C564 H535 0.950 . S
C564 C563 1.334 . S
C564 C565 1.287 . S
C565 C564 1.287 . S
C565 C566 1.524 . S
C565 H568 0.999 . S
C566 H536 0.950 . S
C566 C565 1.524 . S
C566 C567 1.415 . S
C567 H537 0.950 . S
C567 C562 1.363 . S
C567 C566 1.415 . S
H568 C565 0.999 . S
H569 C550 0.913 1_565 S
H570 C588 0.951 . S
H571 C590 0.951 . S
H572 C592 0.950 . S
H573 C593 0.950 . S
H574 C595 0.950 . S
H575 C598 0.950 . S
H576 C599 0.950 . S
H577 C601 0.950 . S
H578 C602 0.950 . S
H579 C603 0.951 . S
H580 C605 0.951 . S
H581 C607 0.950 . S
H582 C608 0.950 . S
H583 C610 0.950 . S
H584 C613 0.950 . S
H585 C614 0.950 . S
H586 C616 0.950 . S
H587 C617 0.950 . S
C588 H570 0.951 . S
C588 C589 1.366 . S
C588 C590 1.388 . S
C589 C588 1.366 . S
C589 C593 1.385 . S
C590 H571 0.951 . S
C590 C588 1.388 . S
C590 C591 1.366 . S
C591 C590 1.366 . S
C591 C592 1.414 . S
C591 C594 1.499 . S
C592 H572 0.950 . S
C592 C591 1.414 . S
C592 C593 1.374 . S
C593 H573 0.950 . S
C593 C589 1.385 . S
C593 C592 1.374 . S
C594 C591 1.499 . S
C594 C595 1.373 . S
C594 C596 1.389 . S
C595 H574 0.950 . S
C595 C594 1.373 . S
C595 C611 1.377 . S
C596 C594 1.389 . S
C596 C597 1.524 . S
C596 C610 1.377 . S
C597 C596 1.524 . S
C597 C598 1.397 . S
C597 C602 1.363 . S
C598 H575 0.950 . S
C598 C597 1.397 . S
C598 C599 1.334 . S
C599 H576 0.950 . S
C599 C598 1.334 . S
C599 C600 1.287 . S
C600 C599 1.287 . S
C600 C601 1.524 . S
C600 H619 0.913 . S
C601 H577 0.950 . S
C601 C600 1.524 . S
C601 C602 1.415 . S
C602 H578 0.950 . S
C602 C597 1.363 . S
C602 C601 1.415 . S
C603 H579 0.951 . S
C603 C604 1.366 . S
C603 C605 1.388 . S
C604 C603 1.366 . S
C604 C608 1.385 . S
C605 H580 0.951 . S
C605 C603 1.388 . S
C605 C606 1.366 . S
C606 C605 1.366 . S
C606 C607 1.414 . S
C606 C609 1.499 . S
C607 H581 0.950 . S
C607 C606 1.414 . S
C607 C608 1.374 . S
C608 H582 0.950 . S
C608 C604 1.385 . S
C608 C607 1.374 . S
C609 C606 1.499 . S
C609 C610 1.373 . S
C609 C611 1.389 . S
C610 H583 0.950 . S
C610 C596 1.377 . S
C610 C609 1.373 . S
C611 C595 1.377 . S
C611 C609 1.389 . S
C611 C612 1.524 . S
C612 C611 1.524 . S
C612 C613 1.397 . S
C612 C617 1.363 . S
C613 H584 0.950 . S
C613 C612 1.397 . S
C613 C614 1.334 . S
C614 H585 0.950 . S
C614 C613 1.334 . S
C614 C615 1.287 . S
C615 C614 1.287 . S
C615 C616 1.524 . S
C615 H618 0.999 . S
C616 H586 0.950 . S
C616 C615 1.524 . S
C616 C617 1.415 . S
C617 H587 0.950 . S
C617 C612 1.363 . S
C617 C616 1.415 . S
H618 C615 0.999 . S
H619 C600 0.913 . S
H620 C638 0.951 . S
H621 C640 0.951 . S
H622 C642 0.950 . S
H623 C643 0.950 . S
H624 C645 0.950 . S
H625 C648 0.950 . S
H626 C649 0.950 . S
H627 C651 0.950 . S
H628 C652 0.950 . S
H629 C653 0.951 . S
H630 C655 0.951 . S
H631 C657 0.950 . S
H632 C658 0.950 . S
H633 C660 0.950 . S
H634 C663 0.950 . S
H635 C664 0.950 . S
H636 C666 0.950 . S
H637 C667 0.950 . S
C638 H620 0.951 . S
C638 C639 1.366 . S
C638 C640 1.388 . S
C639 C638 1.366 . S
C639 C643 1.385 . S
C640 H621 0.951 . S
C640 C638 1.388 . S
C640 C641 1.366 . S
C641 C640 1.366 . S
C641 C642 1.414 . S
C641 C644 1.499 . S
C642 H622 0.950 . S
C642 C641 1.414 . S
C642 C643 1.374 . S
C643 H623 0.950 . S
C643 C639 1.385 . S
C643 C642 1.374 . S
C644 C641 1.499 . S
C644 C645 1.373 . S
C644 C646 1.389 . S
C645 H624 0.950 . S
C645 C644 1.373 . S
C645 C661 1.377 . S
C646 C644 1.389 . S
C646 C647 1.524 . S
C646 C660 1.377 . S
C647 C646 1.524 . S
C647 C648 1.397 . S
C647 C652 1.363 . S
C648 H625 0.950 . S
C648 C647 1.397 . S
C648 C649 1.334 . S
C649 H626 0.950 . S
C649 C648 1.334 . S
C649 C650 1.287 . S
C650 C649 1.287 . S
C650 C651 1.524 . S
C650 H669 0.913 . S
C651 H627 0.950 . S
C651 C650 1.524 . S
C651 C652 1.415 . S
C652 H628 0.950 . S
C652 C647 1.363 . S
C652 C651 1.415 . S
C653 H629 0.951 . S
C653 C654 1.366 . S
C653 C655 1.388 . S
C654 C653 1.366 . S
C654 C658 1.385 . S
C655 H630 0.951 . S
C655 C653 1.388 . S
C655 C656 1.366 . S
C656 C655 1.366 . S
C656 C657 1.414 . S
C656 C659 1.499 . S
C657 H631 0.950 . S
C657 C656 1.414 . S
C657 C658 1.374 . S
C658 H632 0.950 . S
C658 C654 1.385 . S
C658 C657 1.374 . S
C659 C656 1.499 . S
C659 C660 1.373 . S
C659 C661 1.389 . S
C660 H633 0.950 . S
C660 C646 1.377 . S
C660 C659 1.373 . S
C661 C645 1.377 . S
C661 C659 1.389 . S
C661 C662 1.524 . S
C662 C661 1.524 . S
C662 C663 1.397 . S
C662 C667 1.363 . S
C663 H634 0.950 . S
C663 C662 1.397 . S
C663 C664 1.334 . S
C664 H635 0.950 . S
C664 C663 1.334 . S
C664 C665 1.287 . S
C665 C664 1.287 . S
C665 C666 1.524 . S
C665 H668 0.999 . S
C666 H636 0.950 . S
C666 C665 1.524 . S
C666 C667 1.415 . S
C667 H637 0.950 . S
C667 C662 1.363 . S
C667 C666 1.415 . S
H668 C665 0.999 . S
H669 C650 0.913 . S
H670 C688 0.933 1_554 S
H671 C690 0.951 . S
H672 C692 0.950 . S
H673 C693 0.950 . S
H674 C695 0.950 . S
H675 C698 0.950 . S
H676 C699 0.950 . S
H677 C701 0.950 1_554 S
H678 C702 0.950 . S
H679 C703 0.951 . S
H680 C705 0.951 . S
H681 C707 0.950 . S
H682 C708 0.950 . S
H683 C710 0.950 . S
H684 C713 0.950 . S
H685 C714 0.950 . S
H686 C716 0.950 . S
H687 C717 0.950 . S
C688 H670 0.933 1_556 S
C688 C689 1.366 . S
C688 C690 1.388 . S
C689 C688 1.366 . S
C689 C693 1.385 . S
C690 H671 0.951 . S
C690 C688 1.388 . S
C690 C691 1.366 . S
C691 C690 1.366 . S
C691 C692 1.414 . S
C691 C694 1.499 . S
C692 H672 0.950 . S
C692 C691 1.414 . S
C692 C693 1.374 . S
C693 H673 0.950 . S
C693 C689 1.385 . S
C693 C692 1.374 . S
C694 C691 1.499 . S
C694 C695 1.373 . S
C694 C696 1.389 . S
C695 H674 0.950 . S
C695 C694 1.373 . S
C695 C711 1.377 . S
C696 C694 1.389 . S
C696 C697 1.524 . S
C696 C710 1.377 . S
C697 C696 1.524 . S
C697 C698 1.397 . S
C697 C702 1.363 . S
C698 H675 0.950 . S
C698 C697 1.397 . S
C698 C699 1.334 . S
C699 H676 0.950 . S
C699 C698 1.334 . S
C699 C700 1.287 . S
C700 C699 1.287 . S
C700 C701 1.524 . S
C700 H719 0.913 1_556 S
C701 H677 0.950 1_556 S
C701 C700 1.524 . S
C701 C702 1.415 . S
C702 H678 0.950 . S
C702 C697 1.363 . S
C702 C701 1.415 . S
C703 H679 0.951 . S
C703 C704 1.366 . S
C703 C705 1.388 . S
C704 C703 1.366 . S
C704 C708 1.385 . S
C705 H680 0.951 . S
C705 C703 1.388 . S
C705 C706 1.366 . S
C706 C705 1.366 . S
C706 C707 1.414 . S
C706 C709 1.499 . S
C707 H681 0.950 . S
C707 C706 1.414 . S
C707 C708 1.374 . S
C708 H682 0.950 . S
C708 C704 1.385 . S
C708 C707 1.374 . S
C709 C706 1.499 . S
C709 C710 1.373 . S
C709 C711 1.389 . S
C710 H683 0.950 . S
C710 C696 1.377 . S
C710 C709 1.373 . S
C711 C695 1.377 . S
C711 C709 1.389 . S
C711 C712 1.524 . S
C712 C711 1.524 . S
C712 C713 1.397 . S
C712 C717 1.363 . S
C713 H684 0.950 . S
C713 C712 1.397 . S
C713 C714 1.334 . S
C714 H685 0.950 . S
C714 C713 1.334 . S
C714 C715 1.287 . S
C715 C714 1.287 . S
C715 C716 1.524 . S
C715 H718 0.999 . S
C716 H686 0.950 . S
C716 C715 1.524 . S
C716 C717 1.415 . S
C717 H687 0.950 . S
C717 C712 1.363 . S
C717 C716 1.415 . S
H718 C715 0.999 . S
H719 C700 0.913 1_554 S
H720 C738 0.951 . S
H721 C740 0.951 . S
H722 C742 0.950 . S
H723 C743 0.950 . S
H724 C745 0.950 . S
H725 C748 0.950 . S
H726 C749 0.950 . S
H727 C751 0.950 . S
H728 C752 0.950 . S
H729 C753 0.951 . S
H730 C755 0.951 . S
H731 C757 0.950 . S
H732 C758 0.950 . S
H733 C760 0.950 . S
H734 C763 0.950 . S
H735 C764 0.950 . S
H736 C766 0.950 . S
H737 C767 0.950 . S
C738 H720 0.951 . S
C738 C739 1.366 . S
C738 C740 1.388 . S
C739 C738 1.366 . S
C739 C743 1.385 . S
C740 H721 0.951 . S
C740 C738 1.388 . S
C740 C741 1.366 . S
C741 C740 1.366 . S
C741 C742 1.414 . S
C741 C744 1.499 . S
C742 H722 0.950 . S
C742 C741 1.414 . S
C742 C743 1.374 . S
C743 H723 0.950 . S
C743 C739 1.385 . S
C743 C742 1.374 . S
C744 C741 1.499 . S
C744 C745 1.373 . S
C744 C746 1.389 . S
C745 H724 0.950 . S
C745 C744 1.373 . S
C745 C761 1.377 . S
C746 C744 1.389 . S
C746 C747 1.524 . S
C746 C760 1.377 . S
C747 C746 1.524 . S
C747 C748 1.397 . S
C747 C752 1.363 . S
C748 H725 0.950 . S
C748 C747 1.397 . S
C748 C749 1.334 . S
C749 H726 0.950 . S
C749 C748 1.334 . S
C749 C750 1.287 . S
C750 C749 1.287 . S
C750 C751 1.524 . S
C750 H769 0.913 . S
C751 H727 0.950 . S
C751 C750 1.524 . S
C751 C752 1.415 . S
C752 H728 0.950 . S
C752 C747 1.363 . S
C752 C751 1.415 . S
C753 H729 0.951 . S
C753 C754 1.366 . S
C753 C755 1.388 . S
C754 C753 1.366 . S
C754 C758 1.385 . S
C755 H730 0.951 . S
C755 C753 1.388 . S
C755 C756 1.366 . S
C756 C755 1.366 . S
C756 C757 1.414 . S
C756 C759 1.499 . S
C757 H731 0.950 . S
C757 C756 1.414 . S
C757 C758 1.374 . S
C758 H732 0.950 . S
C758 C754 1.385 . S
C758 C757 1.374 . S
C759 C756 1.499 . S
C759 C760 1.373 . S
C759 C761 1.389 . S
C760 H733 0.950 . S
C760 C746 1.377 . S
C760 C759 1.373 . S
C761 C745 1.377 . S
C761 C759 1.389 . S
C761 C762 1.524 . S
C762 C761 1.524 . S
C762 C763 1.397 . S
C762 C767 1.363 . S
C763 H734 0.950 . S
C763 C762 1.397 . S
C763 C764 1.334 . S
C764 H735 0.950 . S
C764 C763 1.334 . S
C764 C765 1.287 . S
C765 C764 1.287 . S
C765 C766 1.524 . S
C765 H768 0.999 . S
C766 H736 0.950 . S
C766 C765 1.524 . S
C766 C767 1.415 . S
C767 H737 0.950 . S
C767 C762 1.363 . S
C767 C766 1.415 . S
H768 C765 0.999 . S
H769 C750 0.913 . S
H770 C788 0.951 . S
H771 C790 0.951 . S
H772 C792 0.950 . S
H773 C793 0.950 . S
H774 C795 0.950 . S
H775 C798 0.950 . S
H776 C799 0.950 . S
H777 C801 0.950 . S
H778 C802 0.950 . S
H779 C803 0.951 . S
H780 C805 0.951 . S
H781 C807 0.950 . S
H782 C808 0.950 . S
H783 C810 0.950 . S
H784 C813 0.950 . S
H785 C814 0.950 . S
H786 C816 0.950 . S
H787 C817 0.950 . S
C788 H770 0.951 . S
C788 C789 1.366 . S
C788 C790 1.388 . S
C789 C788 1.366 . S
C789 C793 1.385 . S
C790 H771 0.951 . S
C790 C788 1.388 . S
C790 C791 1.366 . S
C791 C790 1.366 . S
C791 C792 1.414 . S
C791 C794 1.499 . S
C792 H772 0.950 . S
C792 C791 1.414 . S
C792 C793 1.374 . S
C793 H773 0.950 . S
C793 C789 1.385 . S
C793 C792 1.374 . S
C794 C791 1.499 . S
C794 C795 1.373 . S
C794 C796 1.389 . S
C795 H774 0.950 . S
C795 C794 1.373 . S
C795 C811 1.377 . S
C796 C794 1.389 . S
C796 C797 1.524 . S
C796 C810 1.377 . S
C797 C796 1.524 . S
C797 C798 1.397 . S
C797 C802 1.363 . S
C798 H775 0.950 . S
C798 C797 1.397 . S
C798 C799 1.334 . S
C799 H776 0.950 . S
C799 C798 1.334 . S
C799 C800 1.287 . S
C800 C799 1.287 . S
C800 C801 1.524 . S
C800 H819 0.913 . S
C801 H777 0.950 . S
C801 C800 1.524 . S
C801 C802 1.415 . S
C802 H778 0.950 . S
C802 C797 1.363 . S
C802 C801 1.415 . S
C803 H779 0.951 . S
C803 C804 1.366 . S
C803 C805 1.388 . S
C804 C803 1.366 . S
C804 C808 1.385 . S
C805 H780 0.951 . S
C805 C803 1.388 . S
C805 C806 1.366 . S
C806 C805 1.366 . S
C806 C807 1.414 . S
C806 C809 1.499 . S
C807 H781 0.950 . S
C807 C806 1.414 . S
C807 C808 1.374 . S
C808 H782 0.950 . S
C808 C804 1.385 . S
C808 C807 1.374 . S
C809 C806 1.499 . S
C809 C810 1.373 . S
C809 C811 1.389 . S
C810 H783 0.950 . S
C810 C796 1.377 . S
C810 C809 1.373 . S
C811 C795 1.377 . S
C811 C809 1.389 . S
C811 C812 1.524 . S
C812 C811 1.524 . S
C812 C813 1.397 . S
C812 C817 1.363 . S
C813 H784 0.950 . S
C813 C812 1.397 . S
C813 C814 1.334 . S
C814 H785 0.950 . S
C814 C813 1.334 . S
C814 C815 1.287 . S
C815 C814 1.287 . S
C815 C816 1.524 . S
C815 H818 0.999 1_455 S
C816 H786 0.950 . S
C816 C815 1.524 . S
C816 C817 1.415 . S
C817 H787 0.950 . S
C817 C812 1.363 . S
C817 C816 1.415 . S
H818 C815 0.999 1_655 S
H819 C800 0.913 . S
C254 C115 1.679 . S
C239 C43 1.601 . S
C289 C4 1.629 . S
C304 C210 1.663 . S
C339 C17 1.630 . S
C354 C126 1.680 . S
C389 C30 1.666 . S
C404 C199 1.663 . S
C454 C110 1.433 . S
C439 C9 1.597 . S
C504 C203 1.693 . S
C489 C21 1.691 . S
C539 C34 1.634 . S
C554 C119 1.637 . S
C589 C48 1.596 . S
C604 C194 1.424 . S
C654 C205 1.426 . S
C639 C22 1.597 . S
C704 C121 1.432 . S
C689 C35 1.598 1_556 S
C754 C192 1.693 . S
C739 C47 1.688 . S
C789 C8 1.629 . S
C804 C108 1.637 . S
