# Generated by pormake.
# Topology ctn, (3,4)-cn, num edge types: 1
# Building blocks:
#     Node 0, Type 0, BuildingBlock: ESEHIV_clean_linker_0, # of connection points: 3
#     Node 1, Type 0, BuildingBlock: ESEHIV_clean_linker_0, # of connection points: 3
#     Node 2, Type 0, BuildingBlock: ESEHIV_clean_linker_0, # of connection points: 3
#     Node 3, Type 0, BuildingBlock: ESEHIV_clean_linker_0, # of connection points: 3
#     Node 4, Type 0, BuildingBlock: ESEHIV_clean_linker_0, # of connection points: 3
#     Node 5, Type 0, BuildingBlock: ESEHIV_clean_linker_0, # of connection points: 3
#     Node 6, Type 0, BuildingBlock: ESEHIV_clean_linker_0, # of connection points: 3
#     Node 7, Type 0, BuildingBlock: ESEHIV_clean_linker_0, # of connection points: 3
#     Node 8, Type 0, BuildingBlock: ESEHIV_clean_linker_0, # of connection points: 3
#     Node 9, Type 0, BuildingBlock: ESEHIV_clean_linker_0, # of connection points: 3
#     Node 10, Type 0, BuildingBlock: ESEHIV_clean_linker_0, # of connection points: 3
#     Node 11, Type 0, BuildingBlock: ESEHIV_clean_linker_0, # of connection points: 3
#     Node 12, Type 0, BuildingBlock: ESEHIV_clean_linker_0, # of connection points: 3
#     Node 13, Type 0, BuildingBlock: ESEHIV_clean_linker_0, # of connection points: 3
#     Node 14, Type 0, BuildingBlock: ESEHIV_clean_linker_0, # of connection points: 3
#     Node 15, Type 0, BuildingBlock: ESEHIV_clean_linker_0, # of connection points: 3
#     Node 16, Type 1, BuildingBlock: KUFVIS_clean_sbu_0, # of connection points: 4
#     Node 17, Type 1, BuildingBlock: KUFVIS_clean_sbu_0, # of connection points: 4
#     Node 18, Type 1, BuildingBlock: KUFVIS_clean_sbu_0, # of connection points: 4
#     Node 19, Type 1, BuildingBlock: KUFVIS_clean_sbu_0, # of connection points: 4
#     Node 20, Type 1, BuildingBlock: KUFVIS_clean_sbu_0, # of connection points: 4
#     Node 21, Type 1, BuildingBlock: KUFVIS_clean_sbu_0, # of connection points: 4
#     Node 22, Type 1, BuildingBlock: KUFVIS_clean_sbu_0, # of connection points: 4
#     Node 23, Type 1, BuildingBlock: KUFVIS_clean_sbu_0, # of connection points: 4
#     Node 24, Type 1, BuildingBlock: KUFVIS_clean_sbu_0, # of connection points: 4
#     Node 25, Type 1, BuildingBlock: KUFVIS_clean_sbu_0, # of connection points: 4
#     Node 26, Type 1, BuildingBlock: KUFVIS_clean_sbu_0, # of connection points: 4
#     Node 27, Type 1, BuildingBlock: KUFVIS_clean_sbu_0, # of connection points: 4
#     Edge 28, Type (0, 1), BuildingBlock: CIFDUS_clean_linker_0, # of connection points: 2
#     Edge 29, Type (0, 1), BuildingBlock: CIFDUS_clean_linker_0, # of connection points: 2
#     Edge 30, Type (0, 1), BuildingBlock: CIFDUS_clean_linker_0, # of connection points: 2
#     Edge 31, Type (0, 1), BuildingBlock: CIFDUS_clean_linker_0, # of connection points: 2
#     Edge 32, Type (0, 1), BuildingBlock: CIFDUS_clean_linker_0, # of connection points: 2
#     Edge 33, Type (0, 1), BuildingBlock: CIFDUS_clean_linker_0, # of connection points: 2
#     Edge 34, Type (0, 1), BuildingBlock: CIFDUS_clean_linker_0, # of connection points: 2
#     Edge 35, Type (0, 1), BuildingBlock: CIFDUS_clean_linker_0, # of connection points: 2
#     Edge 36, Type (0, 1), BuildingBlock: CIFDUS_clean_linker_0, # of connection points: 2
#     Edge 37, Type (0, 1), BuildingBlock: CIFDUS_clean_linker_0, # of connection points: 2
#     Edge 38, Type (0, 1), BuildingBlock: CIFDUS_clean_linker_0, # of connection points: 2
#     Edge 39, Type (0, 1), BuildingBlock: CIFDUS_clean_linker_0, # of connection points: 2
#     Edge 40, Type (0, 1), BuildingBlock: CIFDUS_clean_linker_0, # of connection points: 2
#     Edge 41, Type (0, 1), BuildingBlock: CIFDUS_clean_linker_0, # of connection points: 2
#     Edge 42, Type (0, 1), BuildingBlock: CIFDUS_clean_linker_0, # of connection points: 2
#     Edge 43, Type (0, 1), BuildingBlock: CIFDUS_clean_linker_0, # of connection points: 2
#     Edge 44, Type (0, 1), BuildingBlock: CIFDUS_clean_linker_0, # of connection points: 2
#     Edge 45, Type (0, 1), BuildingBlock: CIFDUS_clean_linker_0, # of connection points: 2
#     Edge 46, Type (0, 1), BuildingBlock: CIFDUS_clean_linker_0, # of connection points: 2
#     Edge 47, Type (0, 1), BuildingBlock: CIFDUS_clean_linker_0, # of connection points: 2
#     Edge 48, Type (0, 1), BuildingBlock: CIFDUS_clean_linker_0, # of connection points: 2
#     Edge 49, Type (0, 1), BuildingBlock: CIFDUS_clean_linker_0, # of connection points: 2
#     Edge 50, Type (0, 1), BuildingBlock: CIFDUS_clean_linker_0, # of connection points: 2
#     Edge 51, Type (0, 1), BuildingBlock: CIFDUS_clean_linker_0, # of connection points: 2
#     Edge 52, Type (0, 1), BuildingBlock: CIFDUS_clean_linker_0, # of connection points: 2
#     Edge 53, Type (0, 1), BuildingBlock: CIFDUS_clean_linker_0, # of connection points: 2
#     Edge 54, Type (0, 1), BuildingBlock: CIFDUS_clean_linker_0, # of connection points: 2
#     Edge 55, Type (0, 1), BuildingBlock: CIFDUS_clean_linker_0, # of connection points: 2
#     Edge 56, Type (0, 1), BuildingBlock: CIFDUS_clean_linker_0, # of connection points: 2
#     Edge 57, Type (0, 1), BuildingBlock: CIFDUS_clean_linker_0, # of connection points: 2
#     Edge 58, Type (0, 1), BuildingBlock: CIFDUS_clean_linker_0, # of connection points: 2
#     Edge 59, Type (0, 1), BuildingBlock: CIFDUS_clean_linker_0, # of connection points: 2
#     Edge 60, Type (0, 1), BuildingBlock: CIFDUS_clean_linker_0, # of connection points: 2
#     Edge 61, Type (0, 1), BuildingBlock: CIFDUS_clean_linker_0, # of connection points: 2
#     Edge 62, Type (0, 1), BuildingBlock: CIFDUS_clean_linker_0, # of connection points: 2
#     Edge 63, Type (0, 1), BuildingBlock: CIFDUS_clean_linker_0, # of connection points: 2
#     Edge 64, Type (0, 1), BuildingBlock: CIFDUS_clean_linker_0, # of connection points: 2
#     Edge 65, Type (0, 1), BuildingBlock: CIFDUS_clean_linker_0, # of connection points: 2
#     Edge 66, Type (0, 1), BuildingBlock: CIFDUS_clean_linker_0, # of connection points: 2
#     Edge 67, Type (0, 1), BuildingBlock: CIFDUS_clean_linker_0, # of connection points: 2
#     Edge 68, Type (0, 1), BuildingBlock: CIFDUS_clean_linker_0, # of connection points: 2
#     Edge 69, Type (0, 1), BuildingBlock: CIFDUS_clean_linker_0, # of connection points: 2
#     Edge 70, Type (0, 1), BuildingBlock: CIFDUS_clean_linker_0, # of connection points: 2
#     Edge 71, Type (0, 1), BuildingBlock: CIFDUS_clean_linker_0, # of connection points: 2
#     Edge 72, Type (0, 1), BuildingBlock: CIFDUS_clean_linker_0, # of connection points: 2
#     Edge 73, Type (0, 1), BuildingBlock: CIFDUS_clean_linker_0, # of connection points: 2
#     Edge 74, Type (0, 1), BuildingBlock: CIFDUS_clean_linker_0, # of connection points: 2
#     Edge 75, Type (0, 1), BuildingBlock: CIFDUS_clean_linker_0, # of connection points: 2
# Relax obj value: 0.012
# Max RMSD: 0.062
# Mean RMSD: 0.030
data_MOF--net-ctn--node1-KUFVIS_clean_sbu_0--node2-ESEHIV_clean_linker_0--edge1-CIFDUS_clean_linker_0
_symmetry_space_group_name_H-M    P1
_symmetry_Int_Tables_number       1
_symmetry_cell_setting            triclinic
loop_
_symmetry_equiv_pos_as_xyz
'x, y, z'
_cell_length_a     43.66416
_cell_length_b     43.849329
_cell_length_c     43.781552
_cell_angle_alpha  91.169032
_cell_angle_beta   90.411028
_cell_angle_gamma 91.757992
loop_
_atom_site_label
_atom_site_type_symbol
_atom_site_fract_x
_atom_site_fract_y
_atom_site_fract_z
_atom_type_partial_charge
H0 H 0.01283 0.08067 0.07199 0.0
H1 H 0.06601 0.99952 0.0745 0.0
H2 H 0.07753 0.06237 1.00126 0.0
C3 C 0.02949 0.06573 0.06201 0.0
C4 C 0.04333 0.07404 0.0344 0.0
C5 C 0.03728 0.03882 0.07692 0.0
C6 C 0.06024 0.02076 0.06404 0.0
C7 C 0.07533 0.02938 0.03709 0.0
C8 C 0.06645 0.05588 0.02231 0.0
H9 H 0.33376 0.67234 0.2403 0.0
H10 H 0.36569 0.74943 0.18909 0.0
H11 H 0.29051 0.69303 0.15478 0.0
C12 C 0.33226 0.68628 0.22024 0.0
C13 C 0.30985 0.6791 0.19771 0.0
C14 C 0.35217 0.71185 0.21762 0.0
C15 C 0.35014 0.72991 0.19159 0.0
C16 C 0.32829 0.72296 0.16863 0.0
C17 C 0.30827 0.69753 0.17183 0.0
H18 H 0.97593 0.52748 0.08165 0.0
H19 H 0.01986 0.44221 0.0645 0.0
H20 H 0.94191 0.46561 0.01089 0.0
C21 C 0.97752 0.50634 0.06871 0.0
C22 C 0.95646 0.49973 0.0447 0.0
C23 C 1.00024 0.48558 0.07658 0.0
C24 C 1.00232 0.45829 0.05924 0.0
C25 C 0.98128 0.45107 0.03563 0.0
C26 C 0.95845 0.47174 0.02869 0.0
H27 H 0.67971 0.76881 0.21589 0.0
H28 H 0.7543 0.8288 0.18967 0.0
H29 H 0.70127 0.84979 0.26958 0.0
C30 C 0.69342 0.78962 0.21956 0.0
C31 C 0.68778 0.80853 0.24501 0.0
C32 C 0.71712 0.79706 0.19926 0.0
C33 C 0.73543 0.82352 0.20482 0.0
C34 C 0.72998 0.84273 0.23018 0.0
C35 C 0.70572 0.83526 0.24987 0.0
H36 H 1.01092 0.92879 0.46962 0.0
H37 H 0.05464 0.01569 0.45058 0.0
H38 H 0.07545 0.97051 0.53377 0.0
C39 C 0.02617 0.94767 0.47651 0.0
C40 C 0.04289 0.94621 0.50404 0.0
C41 C 0.02978 0.97296 0.45725 0.0
C42 C 0.05066 0.99674 0.46573 0.0
C43 C 0.06725 0.99575 0.49324 0.0
C44 C 0.06258 0.97098 0.51254 0.0
H45 H 0.18365 0.74059 0.82754 0.0
H46 H 0.26982 0.70045 0.84977 0.0
H47 H 0.21456 0.6629 0.77604 0.0
C48 C 0.20051 0.72332 0.82367 0.0
C49 C 0.19543 0.70113 0.80034 0.0
C50 C 0.22741 0.72347 0.84168 0.0
C51 C 0.24907 0.70091 0.83607 0.0
C52 C 0.24478 0.67942 0.81221 0.0
C53 C 0.21786 0.6795 0.79457 0.0
H54 H 0.94352 0.54442 0.52804 0.0
H55 H 0.01791 0.5747 0.47121 0.0
H56 H 0.96979 0.48977 0.45019 0.0
C57 C 0.95814 0.54081 0.50847 0.0
C58 C 0.9538 0.51431 0.4901 0.0
C59 C 0.98136 0.56259 0.50201 0.0
C60 C 1.00039 0.55769 0.47675 0.0
C61 C 0.99643 0.53138 0.45805 0.0
C62 C 0.97339 0.50961 0.4651 0.0
H63 H 0.77704 0.82677 0.85169 0.0
H64 H 0.84175 0.84743 0.78154 0.0
H65 H 0.85263 0.76812 0.83717 0.0
C66 C 0.79804 0.82156 0.83987 0.0
C67 C 0.81441 0.79583 0.84795 0.0
C68 C 0.80741 0.83959 0.81543 0.0
C69 C 0.83447 0.8328 0.7999 0.0
C70 C 0.85166 0.8073 0.80773 0.0
C71 C 0.84112 0.7889 0.83186 0.0
H72 H 0.26971 0.34038 0.35918 0.0
H73 H 0.32231 0.36215 0.27976 0.0
H74 H 0.35568 0.29737 0.34359 0.0
C75 C 0.29045 0.33784 0.34606 0.0
C76 C 0.3125 0.31702 0.35519 0.0
C77 C 0.2939 0.35429 0.31909 0.0
C78 C 0.31968 0.3496 0.3007 0.0
C79 C 0.3422 0.3291 0.30942 0.0
C80 C 0.33854 0.3133 0.3369 0.0
H81 H 0.46831 0.03387 0.57002 0.0
H82 H 0.51189 0.9473 0.56026 0.0
H83 H 0.42973 0.96401 0.50982 0.0
C84 C 0.46922 0.01128 0.55972 0.0
C85 C 0.44646 1.0017 0.53834 0.0
C86 C 0.49289 0.99184 0.56819 0.0
C87 C 0.49374 0.9625 0.55445 0.0
C88 C 0.47088 0.95236 0.53355 0.0
C89 C 0.44747 0.97206 0.52572 0.0
H90 H 0.16701 0.28928 0.6911 0.0
H91 H 0.25199 0.33177 0.66336 0.0
H92 H 0.20274 0.36924 0.73949 0.0
C93 C 0.18416 0.30759 0.69364 0.0
C94 C 0.18176 0.32932 0.71748 0.0
C95 C 0.20966 0.30819 0.67433 0.0
C96 C 0.23221 0.33144 0.6782 0.0
C97 C 0.22989 0.35374 0.70143 0.0
C98 C 0.20471 0.35232 0.72128 0.0
H99 H 0.84445 0.17032 0.75451 0.0
H100 H 0.87004 0.24538 0.6973 0.0
H101 H 0.7919 0.18794 0.67336 0.0
C102 C 0.84074 0.18343 0.73417 0.0
C103 C 0.81588 0.17564 0.71452 0.0
C104 C 0.8603 0.20868 0.7283 0.0
C105 C 0.8551 0.2259 0.70216 0.0
C106 C 0.8308 0.2182 0.68211 0.0
C107 C 0.8114 0.19301 0.68827 0.0
H108 H 0.51146 0.58342 0.56574 0.0
H109 H 0.56439 0.50357 0.57957 0.0
H110 H 0.58377 0.56217 0.50408 0.0
C111 C 0.52924 0.56824 0.55852 0.0
C112 C 0.54692 0.57588 0.53299 0.0
C113 C 0.53458 0.54166 0.57509 0.0
C114 C 0.55954 0.52364 0.56667 0.0
C115 C 0.57825 0.53137 0.54164 0.0
C116 C 0.57096 0.55703 0.52452 0.0
H117 H 0.51621 0.43194 0.97884 0.0
H118 H 0.57035 0.51116 0.95402 0.0
H119 H 0.59651 0.45949 0.03143 0.0
C120 C 0.53526 0.4478 0.98342 0.0
C121 C 0.55545 0.44254 1.00789 0.0
C122 C 0.54007 0.47274 0.964 0.0
C123 C 0.56618 0.49188 0.96868 0.0
C124 C 0.58675 0.48679 0.99268 0.0
C125 C 0.58082 0.46272 0.01258 0.0
H126 H 0.6569 0.23671 0.32906 0.0
H127 H 0.73987 0.19417 0.35767 0.0
H128 H 0.70037 0.1724 0.2695 0.0
C129 C 0.67489 0.22063 0.32513 0.0
C130 C 0.67537 0.20419 0.29727 0.0
C131 C 0.69845 0.21781 0.34694 0.0
C132 C 0.72181 0.19708 0.34097 0.0
C133 C 0.72285 0.18093 0.31303 0.0
C134 C 0.69969 0.1848 0.29116 0.0
H135 H 0.4554 0.04807 0.01693 0.0
H136 H 0.53101 0.08329 0.96481 0.0
H137 H 0.47646 1.00694 0.92957 0.0
C138 C 0.46937 0.04709 0.99658 0.0
C139 C 0.46312 0.0245 0.97391 0.0
C140 C 0.49399 0.06812 0.99352 0.0
C141 C 0.51226 0.06676 0.96734 0.0
C142 C 0.50603 0.04487 0.94403 0.0
C143 C 0.48172 0.0235 0.94771 0.0
Mn144 Mn 0.26553 0.87865 0.01284 0.0
Mn145 Mn 0.25623 0.90702 0.94226 0.0
C146 C 0.23941 0.8503 0.97522 0.0
C147 C 0.29126 0.85179 0.04994 0.0
C148 C 0.21963 0.92763 0.99694 0.0
O149 O 0.29883 0.91225 0.01155 0.0
O150 O 0.29101 0.92918 0.9637 0.0
C151 C 0.31443 0.88769 0.91459 0.0
N152 N 0.28323 0.88747 0.91434 0.0
C153 C 0.28104 0.85691 0.86803 0.0
C154 C 0.31315 0.85695 0.86772 0.0
C155 C 0.3299 0.87234 0.89115 0.0
C156 C 0.26689 0.87266 0.89194 0.0
H157 H 0.32741 0.89946 0.93252 0.0
C158 C 0.3054 0.92971 0.98936 0.0
O159 O 0.27236 0.87294 0.05707 0.0
O160 O 0.29622 0.84678 0.02105 0.0
N161 N 0.22382 0.8871 0.91901 0.0
C162 C 0.19303 0.8875 0.92377 0.0
C163 C 0.17302 0.87206 0.90305 0.0
C164 C 0.18485 0.85652 0.87758 0.0
C165 C 0.21661 0.85658 0.87305 0.0
C166 C 0.23542 0.87249 0.89439 0.0
H167 H 0.18381 0.89928 0.94337 0.0
O168 O 0.2341 0.84532 1.00387 0.0
O169 O 0.25924 0.8721 0.96953 0.0
O170 O 0.23248 0.91031 0.01576 0.0
O171 O 0.22662 0.92837 0.9687 0.0
C172 C 0.23035 0.84101 0.84851 0.0
C173 C 0.26254 0.84125 0.84595 0.0
H174 H 0.32517 0.84498 0.84979 0.0
H175 H 0.35469 0.87235 0.89116 0.0
H176 H 0.14855 0.87204 0.90675 0.0
H177 H 0.16936 0.84443 0.86179 0.0
H178 H 0.21639 0.82842 0.83171 0.0
H179 H 0.27285 0.8288 0.82725 0.0
Mn180 Mn 0.14691 0.5221 0.26853 0.0
Mn181 Mn 0.12629 0.59553 0.26389 0.0
C182 C 0.18021 0.55877 0.24867 0.0
C183 C 0.17103 0.4825 0.29307 0.0
C184 C 0.10295 0.54569 0.21985 0.0
O185 O 0.11126 0.52386 0.29886 0.0
O186 O 0.10045 0.57352 0.29394 0.0
C187 C 0.14472 0.61666 0.32623 0.0
N188 N 0.14666 0.61945 0.29537 0.0
C189 C 0.18149 0.66286 0.3009 0.0
C190 C 0.17972 0.66055 0.33274 0.0
C191 C 0.16131 0.63731 0.34544 0.0
C192 C 0.16434 0.6417 0.2829 0.0
H193 H 0.13066 0.5988 0.33611 0.0
C194 C 0.09591 0.54738 0.30605 0.0
O195 O 0.1507 0.47704 0.27172 0.0
O196 O 0.17584 0.51077 0.30154 0.0
N197 N 0.14997 0.61952 0.23601 0.0
C198 C 0.15063 0.6175 0.20492 0.0
C199 C 0.16868 0.63859 0.18868 0.0
C200 C 0.18571 0.66163 0.20452 0.0
C201 C 0.1845 0.6634 0.2365 0.0
C202 C 0.16594 0.64187 0.25146 0.0
H203 H 0.13773 0.59976 0.19262 0.0
O204 O 0.18287 0.53022 0.24123 0.0
O205 O 0.15792 0.56507 0.26696 0.0
O206 O 0.11711 0.52395 0.23207 0.0
O207 O 0.10476 0.57318 0.23005 0.0
C208 C 0.2015 0.68526 0.25415 0.0
C209 C 0.20003 0.68496 0.28633 0.0
H210 H 0.1926 0.67633 0.34764 0.0
H211 H 0.15994 0.63529 0.36999 0.0
H212 H 0.16961 0.63698 0.164 0.0
H213 H 0.19989 0.67763 0.19193 0.0
H214 H 0.21617 0.70209 0.24322 0.0
H215 H 0.21357 0.7016 0.29966 0.0
Mn216 Mn 0.76802 0.63512 0.03032 0.0
Mn217 Mn 0.70199 0.65415 0.99527 0.0
C218 C 0.72448 0.60363 0.03321 0.0
C219 C 0.81534 0.61187 0.03321 0.0
C220 C 0.72446 0.68341 0.0547 0.0
O221 O 0.78309 0.66696 0.99984 0.0
O222 O 0.73764 0.67669 0.97802 0.0
C223 C 0.71441 0.6284 0.93367 0.0
N224 N 0.69603 0.63025 0.95859 0.0
C225 C 0.65717 0.5979 0.93423 0.0
C226 C 0.67566 0.59571 0.90827 0.0
C227 C 0.70447 0.61089 0.90806 0.0
C228 C 0.66845 0.6154 0.95919 0.0
H229 H 0.73643 0.64029 0.93331 0.0
C230 C 0.76675 0.6807 0.98037 0.0
O231 O 0.80848 0.63453 0.05105 0.0
O232 O 0.79525 0.60347 0.01238 0.0
N233 N 0.66533 0.63399 1.00919 0.0
C234 C 0.65087 0.63741 0.03647 0.0
C235 C 0.62214 0.62292 0.04077 0.0
C236 C 0.60832 0.60555 0.01683 0.0
C237 C 0.62339 0.60279 0.98879 0.0
C238 C 0.65207 0.6176 0.9859 0.0
H239 H 0.66125 0.65096 0.05485 0.0
O240 O 0.74592 0.60261 0.0538 0.0
O241 O 0.72894 0.62296 0.01145 0.0
O242 O 0.74884 0.66838 0.05647 0.0
O243 O 0.70513 0.67984 0.03285 0.0
C244 C 0.61123 0.58567 0.96369 0.0
C245 C 0.62813 0.5832 0.93644 0.0
H246 H 0.66802 0.58232 0.88843 0.0
H247 H 0.71889 0.60925 0.88813 0.0
H248 H 0.61063 0.62521 0.06247 0.0
H249 H 0.58619 0.59435 0.02026 0.0
H250 H 0.58914 0.57389 0.96528 0.0
H251 H 0.61877 0.56956 0.91749 0.0
Mn252 Mn 0.8796 0.02056 0.26632 0.0
Mn253 Mn 0.90732 0.94981 0.25732 0.0
C254 C 0.85061 0.98227 0.24181 0.0
C255 C 0.85183 0.05749 0.29217 0.0
C256 C 0.92774 1.00332 0.21902 0.0
O257 O 0.91432 0.02039 0.29823 0.0
O258 O 0.92883 0.97174 0.29164 0.0
C259 C 0.88657 0.92314 0.31555 0.0
N260 N 0.88693 0.92237 0.28444 0.0
C261 C 0.85583 0.87607 0.28256 0.0
C262 C 0.85527 0.87629 0.31458 0.0
C263 C 0.87064 0.89998 0.33113 0.0
C264 C 0.87209 0.89975 0.26829 0.0
H265 H 0.89833 0.94129 0.32839 0.0
C266 C 0.9305 0.99772 0.30563 0.0
O267 O 0.87264 0.06482 0.27241 0.0
O268 O 0.84863 0.02878 0.29859 0.0
N269 N 0.88767 0.92607 0.22517 0.0
C270 C 0.88895 0.93014 0.19443 0.0
C271 C 0.8738 0.90897 0.17462 0.0
C272 C 0.85769 0.88376 0.18658 0.0
C273 C 0.8569 0.87991 0.21828 0.0
C274 C 0.87255 0.90167 0.2369 0.0
H275 H 0.90128 0.94947 0.18507 0.0
O276 O 0.84536 0.01067 0.2367 0.0
O277 O 0.87273 0.97717 0.2608 0.0
O278 O 0.90997 0.02249 0.23117 0.0
O279 O 0.92952 0.97581 0.22768 0.0
C280 C 0.8408 0.8556 0.23215 0.0
C281 C 0.84031 0.85365 0.26426 0.0
H282 H 0.84288 0.85856 0.32668 0.0
H283 H 0.87019 0.90039 0.35585 0.0
H284 H 0.87447 0.91213 0.15018 0.0
H285 H 0.84583 0.86761 0.17124 0.0
H286 H 0.82835 0.83852 0.21834 0.0
H287 H 0.82746 0.83512 0.27466 0.0
Mn288 Mn 0.25849 0.13716 0.51471 0.0
Mn289 Mn 0.19879 0.16222 0.47315 0.0
C290 C 0.2136 0.10793 0.50979 0.0
C291 C 0.30436 0.11194 0.52157 0.0
C292 C 0.21462 0.18655 0.53642 0.0
O293 O 0.27882 0.16999 0.48864 0.0
O294 O 0.23724 0.18459 0.46223 0.0
C295 C 0.21864 0.13934 0.41259 0.0
N296 N 0.19707 0.14049 0.43487 0.0
C297 C 0.16215 0.10805 0.40526 0.0
C298 C 0.18392 0.10667 0.38192 0.0
C299 C 0.21232 0.1223 0.38565 0.0
C300 C 0.16977 0.12535 0.43161 0.0
H301 H 0.2405 0.1513 0.41539 0.0
C302 C 0.26584 0.18645 0.46891 0.0
O303 O 0.29591 0.13349 0.54003 0.0
O304 O 0.28654 0.10545 0.49824 0.0
N305 N 0.15994 0.14266 0.48106 0.0
C306 C 0.14176 0.14573 0.50604 0.0
C307 C 0.11261 0.13128 0.50611 0.0
C308 C 0.10231 0.11412 0.4804 0.0
C309 C 0.12121 0.11173 0.45476 0.0
C310 C 0.14994 0.12682 0.45592 0.0
H311 H 0.1495 0.15899 0.52583 0.0
O312 O 0.23196 0.10423 0.53279 0.0
O313 O 0.2219 0.12859 0.49041 0.0
O314 O 0.23756 0.16977 0.54016 0.0
O315 O 0.19806 0.18556 0.51227 0.0
C316 C 0.11285 0.09458 0.42826 0.0
C317 C 0.13336 0.09265 0.40358 0.0
H318 H 0.17915 0.09352 0.36112 0.0
H319 H 0.22928 0.12123 0.36779 0.0
H320 H 0.09815 0.13325 0.52599 0.0
H321 H 0.07995 0.10272 0.48067 0.0
H322 H 0.09087 0.08247 0.42679 0.0
H323 H 0.12683 0.07909 0.38349 0.0
Mn324 Mn 0.39539 0.51222 0.76873 0.0
Mn325 Mn 0.42004 0.44005 0.76742 0.0
C326 C 0.36426 0.47291 0.74907 0.0
C327 C 0.36982 0.55219 0.79208 0.0
C328 C 0.4435 0.48896 0.72458 0.0
O329 O 0.43094 0.51386 0.79964 0.0
O330 O 0.44178 0.46363 0.80063 0.0
C331 C 0.39682 0.41851 0.82683 0.0
N332 N 0.39764 0.41564 0.79582 0.0
C333 C 0.36307 0.37183 0.79625 0.0
C334 C 0.362 0.37422 0.82821 0.0
C335 C 0.37892 0.39769 0.84355 0.0
C336 C 0.38153 0.39307 0.78083 0.0
H337 H 0.40967 0.43658 0.8387 0.0
C338 C 0.44531 0.49132 0.81031 0.0
O339 O 0.3899 0.55709 0.77088 0.0
O340 O 0.36593 0.52432 0.80103 0.0
N341 N 0.39982 0.41524 0.73641 0.0
C342 C 0.40152 0.41748 0.70546 0.0
C343 C 0.3849 0.39644 0.6867 0.0
C344 C 0.36676 0.3733 0.69992 0.0
C345 C 0.36543 0.3714 0.73181 0.0
C346 C 0.38269 0.39286 0.74936 0.0
H347 H 0.41527 0.43532 0.69516 0.0
O348 O 0.36002 0.50078 0.74103 0.0
O349 O 0.38679 0.469 0.76794 0.0
O350 O 0.42514 0.50944 0.73303 0.0
O351 O 0.4445 0.46281 0.73681 0.0
C352 C 0.34709 0.34949 0.74687 0.0
C353 C 0.34593 0.34968 0.77907 0.0
H354 H 0.34801 0.35837 0.84118 0.0
H355 H 0.37809 0.39978 0.8682 0.0
H356 H 0.38592 0.39816 0.66211 0.0
H357 H 0.35369 0.35734 0.68537 0.0
H358 H 0.33339 0.3327 0.7339 0.0
H359 H 0.33139 0.33302 0.79037 0.0
Mn360 Mn 0.75659 0.36683 0.5233 0.0
Mn361 Mn 0.75353 0.39614 0.45264 0.0
C362 C 0.73722 0.33742 0.48268 0.0
C363 C 0.78134 0.34165 0.5622 0.0
C364 C 0.71006 0.41327 0.50343 0.0
O365 O 0.78704 0.4033 0.52594 0.0
O366 O 0.78588 0.41864 0.47689 0.0
C367 C 0.81419 0.3786 0.42948 0.0
N368 N 0.78308 0.37759 0.4268 0.0
C369 C 0.78521 0.34699 0.38064 0.0
C370 C 0.81728 0.34786 0.38282 0.0
C371 C 0.83182 0.36368 0.40739 0.0
C372 C 0.76885 0.36242 0.40326 0.0
H373 H 0.82547 0.39064 0.44837 0.0
C374 C 0.79645 0.42026 0.50427 0.0
O375 O 0.75963 0.3604 0.5679 0.0
O376 O 0.78942 0.33804 0.53389 0.0
N377 N 0.72343 0.37565 0.4269 0.0
C378 C 0.69232 0.37519 0.42931 0.0
C379 C 0.67433 0.35934 0.40712 0.0
C380 C 0.68847 0.34425 0.38264 0.0
C381 C 0.72051 0.34512 0.38059 0.0
C382 C 0.73726 0.36143 0.40328 0.0
H383 H 0.68132 0.38669 0.4481 0.0
O384 O 0.7295 0.33092 0.51045 0.0
O385 O 0.75548 0.36107 0.47972 0.0
O386 O 0.7201 0.39477 0.52283 0.0
O387 O 0.72161 0.41665 0.47697 0.0
C388 C 0.7365 0.32989 0.35728 0.0
C389 C 0.76882 0.33082 0.35731 0.0
H390 H 0.83096 0.33621 0.36594 0.0
H391 H 0.85655 0.36432 0.40932 0.0
H392 H 0.64961 0.35865 0.40893 0.0
H393 H 0.67452 0.33178 0.36575 0.0
H394 H 0.72416 0.31697 0.33952 0.0
H395 H 0.78085 0.31861 0.33955 0.0
Mn396 Mn 0.65998 1.00484 0.75448 0.0
Mn397 Mn 0.63282 0.0757 0.74807 0.0
C398 C 0.68855 0.04243 0.73025 0.0
C399 C 0.68826 0.96874 0.77977 0.0
C400 C 0.61005 0.02178 0.70869 0.0
O401 O 0.62647 1.00549 0.78684 0.0
O402 O 0.61141 0.0539 0.78169 0.0
C403 C 0.65494 0.10196 0.80738 0.0
N404 N 0.65397 0.10287 0.77631 0.0
C405 C 0.68599 0.14855 0.77635 0.0
C406 C 0.68714 0.1482 0.80836 0.0
C407 C 0.6716 0.12476 0.82392 0.0
C408 C 0.66892 0.12528 0.7611 0.0
H409 H 0.64314 0.08394 0.81946 0.0
C410 C 0.61008 0.02797 0.79481 0.0
O411 O 0.66723 0.96068 0.75986 0.0
O412 O 0.69185 0.99765 0.78617 0.0
N413 N 0.65212 0.09934 0.71689 0.0
C414 C 0.65039 0.09527 0.68598 0.0
C415 C 0.6656 0.1162 0.66705 0.0
C416 C 0.68234 0.14113 0.68006 0.0
C417 C 0.68365 0.14494 0.71191 0.0
C418 C 0.66784 0.12348 0.72963 0.0
H419 H 0.63778 0.07604 0.67585 0.0
O420 O 0.69309 0.01385 0.72429 0.0
O421 O 0.66722 0.04814 0.74991 0.0
O422 O 0.62754 1.00231 0.7204 0.0
O423 O 0.61003 0.04977 0.71739 0.0
C424 C 0.70052 0.16887 0.72679 0.0
C425 C 0.70165 0.1707 0.75899 0.0
H426 H 0.70013 0.16564 0.82119 0.0
H427 H 0.67253 0.12424 0.84861 0.0
H428 H 0.66458 0.11303 0.64248 0.0
H429 H 0.69429 0.15705 0.66539 0.0
H430 H 0.7131 0.18572 0.71369 0.0
H431 H 0.71509 0.18892 0.77016 0.0
Mn432 Mn 0.03057 0.26332 0.87997 0.0
Mn433 Mn 0.95881 0.25237 0.90683 0.0
C434 C 0.99425 0.23524 0.8516 0.0
C435 C 0.0677 0.29025 0.85256 0.0
C436 C 0.0132 0.21803 0.9299 0.0
O437 O 0.02797 0.29673 0.91296 0.0
O438 O 0.97928 0.28805 0.92811 0.0
C439 C 0.93168 0.30885 0.88428 0.0
N440 N 0.93146 0.27783 0.88545 0.0
C441 C 0.88614 0.27343 0.85384 0.0
C442 C 0.88581 0.30533 0.85243 0.0
C443 C 0.90872 0.3231 0.86765 0.0
C444 C 0.9096 0.26051 0.87076 0.0
H445 H 0.94924 0.32261 0.89593 0.0
C446 C 1.00489 0.3032 0.92943 0.0
O447 O 0.07505 0.27209 0.87427 0.0
O448 O 0.03869 0.29383 0.84756 0.0
N449 N 0.93626 0.21889 0.8878 0.0
C450 C 0.94072 0.1884 0.89018 0.0
C451 C 0.92026 0.16745 0.8755 0.0
C452 C 0.89532 0.17804 0.85874 0.0
C453 C 0.89101 0.2095 0.85688 0.0
C454 C 0.91206 0.22929 0.87212 0.0
H455 H 0.95984 0.18012 0.90303 0.0
O456 O 0.02323 0.23125 0.8472 0.0
O457 O 0.98747 0.25518 0.87261 0.0
O458 O 0.03281 0.2308 0.91255 0.0
O459 O 0.98487 0.22448 0.92982 0.0
C460 C 0.86692 0.222 0.84014 0.0
C461 C 0.86447 0.25394 0.83865 0.0
H462 H 0.86821 0.31641 0.83952 0.0
H463 H 0.90869 0.34774 0.86655 0.0
H464 H 0.92375 0.1432 0.87703 0.0
H465 H 0.87973 0.16181 0.84724 0.0
H466 H 0.85039 0.20726 0.82797 0.0
H467 H 0.84611 0.26328 0.82533 0.0
Mn468 Mn 0.50947 0.75692 0.38554 0.0
Mn469 Mn 0.43591 0.75334 0.40863 0.0
C470 C 0.47233 0.73271 0.35512 0.0
C471 C 0.54975 0.78072 0.35994 0.0
C472 C 0.4849 0.71297 0.43374 0.0
O473 O 0.50884 0.78993 0.41895 0.0
O474 O 0.45885 0.78674 0.43138 0.0
C475 C 0.41635 0.81272 0.38542 0.0
N476 N 0.41276 0.78178 0.38615 0.0
C477 C 0.36988 0.78234 0.35134 0.0
C478 C 0.37302 0.81422 0.35035 0.0
C479 C 0.39639 0.82946 0.36743 0.0
C480 C 0.39038 0.76688 0.36977 0.0
H481 H 0.43435 0.82454 0.39841 0.0
C482 C 0.48585 0.79894 0.43422 0.0
O483 O 0.55465 0.76109 0.38109 0.0
O484 O 0.52154 0.78758 0.35462 0.0
N485 N 0.4111 0.72244 0.38803 0.0
C486 C 0.41221 0.69153 0.39016 0.0
C487 C 0.39091 0.67287 0.37372 0.0
C488 C 0.3686 0.68616 0.35541 0.0
C489 C 0.36772 0.71802 0.35381 0.0
C490 C 0.38939 0.73546 0.37089 0.0
H491 H 0.42938 0.68117 0.40407 0.0
O492 O 0.50091 0.72616 0.35207 0.0
O493 O 0.46631 0.75323 0.37591 0.0
O494 O 0.50668 0.72361 0.41749 0.0
O495 O 0.45761 0.72262 0.43247 0.0
C496 C 0.34653 0.73312 0.33551 0.0
C497 C 0.3476 0.76526 0.33429 0.0
H498 H 0.35778 0.82721 0.33637 0.0
H499 H 0.39905 0.85405 0.36667 0.0
H500 H 0.39178 0.64829 0.37503 0.0
H501 H 0.35241 0.67168 0.34252 0.0
H502 H 0.32961 0.72023 0.32193 0.0
H503 H 0.33149 0.77659 0.31978 0.0
Mn504 Mn 0.02036 0.75404 0.63414 0.0
Mn505 Mn 0.99442 0.68974 0.66818 0.0
C506 C 0.02442 0.70703 0.60966 0.0
C507 C 0.01523 0.79681 0.60381 0.0
C508 C 0.05375 0.72269 0.68649 0.0
O509 O 0.99146 0.77045 0.66644 0.0
O510 O 0.97558 0.72613 0.68751 0.0
C511 C 0.92952 0.69114 0.64825 0.0
N512 N 0.95644 0.67633 0.64965 0.0
C513 C 0.93417 0.63218 0.62339 0.0
C514 C 0.90616 0.64689 0.62183 0.0
C515 C 0.90386 0.67654 0.63422 0.0
C516 C 0.95896 0.64789 0.63761 0.0
H517 H 0.92764 0.71391 0.65777 0.0
C518 C 0.97557 0.75527 0.6856 0.0
O519 O 0.03625 0.7955 0.62473 0.0
O520 O 0.99631 0.77342 0.60085 0.0
N521 N 1.01039 0.65278 0.65167 0.0
C522 C 0.03945 0.64247 0.65357 0.0
C523 C 0.0459 0.61355 0.6413 0.0
C524 C 0.02237 0.59543 0.62749 0.0
C525 C 0.99257 0.60637 0.62614 0.0
C526 C 0.9875 0.63534 0.63884 0.0
H527 H 0.05762 0.65629 0.66416 0.0
O528 O 0.04271 0.72972 0.60274 0.0
O529 O 1.00449 0.71238 0.63091 0.0
O530 O 0.05159 0.74381 0.66714 0.0
O531 O 0.03381 0.70098 0.68873 0.0
C532 C 0.9678 0.58989 0.61227 0.0
C533 C 0.93862 0.60277 0.61092 0.0
H534 H 0.88634 0.63574 0.61095 0.0
H535 H 0.88236 0.68809 0.63297 0.0
H536 H 0.06897 0.60527 0.64241 0.0
H537 H 0.02749 0.57323 0.61785 0.0
H538 H 0.97106 0.56749 0.60213 0.0
H539 H 0.91988 0.59008 0.59975 0.0
Mn540 Mn 0.50384 0.25554 0.13832 0.0
Mn541 Mn 0.4646 0.19522 0.16695 0.0
C542 C 0.50106 0.20965 0.11109 0.0
C543 C 0.50622 0.30031 0.11052 0.0
C544 C 0.5267 0.21819 0.19123 0.0
O545 O 0.47698 0.27469 0.17129 0.0
O546 O 0.44756 0.23349 0.18389 0.0
C547 C 0.40336 0.20324 0.13936 0.0
N548 N 0.42826 0.18582 0.1436 0.0
C549 C 0.40554 0.14457 0.11327 0.0
C550 C 0.37957 0.16201 0.10873 0.0
C551 C 0.37851 0.19149 0.12179 0.0
C552 C 0.4295 0.15739 0.13119 0.0
H553 H 0.40249 0.22593 0.14928 0.0
C554 C 0.45455 0.26209 0.18542 0.0
O555 O 0.52638 0.29474 0.1314 0.0
O556 O 0.48403 0.28023 0.10623 0.0
N557 N 0.47881 0.15698 0.15167 0.0
C558 C 0.50644 0.1441 0.15625 0.0
C559 C 0.51178 0.11511 0.14352 0.0
C560 C 0.48865 0.0996 0.12636 0.0
C561 C 0.46035 0.11324 0.12209 0.0
C562 C 0.45628 0.14211 0.13548 0.0
H563 H 0.52435 0.15592 0.16934 0.0
O564 O 0.52284 0.22962 0.10578 0.0
O565 O 0.48159 0.21725 0.13201 0.0
O566 O 0.53163 0.2379 0.17077 0.0
O567 O 0.50181 0.20223 0.19279 0.0
C568 C 0.4363 0.09964 0.10447 0.0
C569 C 0.4089 0.11528 0.10008 0.0
H570 H 0.36045 0.15312 0.095 0.0
H571 H 0.35862 0.20515 0.11825 0.0
H572 H 0.53373 0.10479 0.14681 0.0
H573 H 0.49298 0.07739 0.1163 0.0
H574 H 0.43883 0.07738 0.09375 0.0
H575 H 0.39077 0.1048 0.08607 0.0
H576 H 0.1873 0.74916 0.88215 0.0
H577 H 0.28212 0.75279 0.8545 0.0
H578 H 0.29401 0.79076 0.89433 0.0
H579 H 0.27779 0.82371 0.93638 0.0
H580 H 0.18325 0.82278 0.96359 0.0
H581 H 0.17079 0.78318 0.92444 0.0
C582 C 0.21048 0.7585 0.88461 0.0
C583 C 0.23381 0.74769 0.86547 0.0
C584 C 0.21718 0.78094 0.90737 0.0
C585 C 0.2638 0.75994 0.8693 0.0
C586 C 0.27065 0.78186 0.89199 0.0
C587 C 0.25439 0.81504 0.93345 0.0
C588 C 0.23123 0.82666 0.95195 0.0
C589 C 0.24756 0.79257 0.91104 0.0
C590 C 0.20126 0.81446 0.94902 0.0
C591 C 0.1942 0.79191 0.92669 0.0
H592 H 1.00275 0.57158 0.41263 0.0
H593 H 0.03112 0.48308 0.44037 0.0
H594 H 0.06331 0.47883 0.39474 0.0
H595 H 0.08539 0.50196 0.348 0.0
H596 H 0.05449 0.59019 0.32076 0.0
H597 H 0.02132 0.59262 0.36477 0.0
C598 C 0.01603 0.55138 0.40865 0.0
C599 C 0.01498 0.52789 0.42995 0.0
C600 C 0.03405 0.549 0.38234 0.0
C601 C 0.03173 0.50153 0.42428 0.0
C602 C 0.05013 0.49913 0.39823 0.0
C603 C 0.07109 0.5215 0.35146 0.0
C604 C 0.07291 0.54596 0.33103 0.0
C605 C 0.05173 0.52292 0.37717 0.0
C606 C 0.05405 0.57108 0.33606 0.0
C607 C 0.03497 0.57261 0.36136 0.0
H608 H 0.84484 0.76778 0.89426 0.0
H609 H 0.75533 0.77569 0.85307 0.0
H610 H 0.73324 0.74156 0.8906 0.0
H611 H 0.73886 0.70954 0.93434 0.0
H612 H 0.82766 0.69957 0.97642 0.0
H613 H 0.85053 0.7343 0.93906 0.0
C614 C 0.82054 0.7619 0.89351 0.0
C615 C 0.80171 0.77466 0.8711 0.0
C616 C 0.80786 0.74192 0.91521 0.0
C617 C 0.77024 0.76683 0.87043 0.0
C618 C 0.75759 0.74711 0.89176 0.0
C619 C 0.76326 0.71489 0.93564 0.0
C620 C 0.78144 0.70193 0.95839 0.0
C621 C 0.77613 0.73464 0.91423 0.0
C622 C 0.81304 0.7092 0.95926 0.0
C623 C 0.82613 0.72906 0.93788 0.0
H624 H 1.00103 0.02101 0.43162 0.0
H625 H 0.02188 0.92646 0.41546 0.0
H626 H 0.99464 0.92668 0.36671 0.0
H627 H 0.96414 0.95283 0.32949 0.0
H628 H 0.94161 0.04712 0.34485 0.0
H629 H 0.97094 0.04802 0.39283 0.0
C630 C 0.99976 1.00054 0.4173 0.0
C631 C 0.01324 0.97364 0.4274 0.0
C632 C 0.98396 1.0008 0.38912 0.0
C633 C 0.01123 0.94727 0.40862 0.0
C634 C 0.99585 0.94744 0.3806 0.0
C635 C 0.9657 0.9738 0.34304 0.0
C636 C 0.95054 0.99991 0.33335 0.0
C637 C 0.982 0.97397 0.37074 0.0
C638 C 0.95301 0.02669 0.35156 0.0
C639 C 0.96969 0.02717 0.37911 0.0
H640 H 0.16952 0.28733 0.63012 0.0
H641 H 0.25977 0.27398 0.66724 0.0
H642 H 0.26868 0.23443 0.62856 0.0
H643 H 0.25165 0.20488 0.5836 0.0
H644 H 0.16224 0.21887 0.5445 0.0
H645 H 0.15213 0.2569 0.58458 0.0
C646 C 0.191 0.27554 0.62975 0.0
C647 C 0.21403 0.28355 0.65131 0.0
C648 C 0.19615 0.25308 0.60711 0.0
C649 C 0.24187 0.26835 0.65061 0.0
C650 C 0.24694 0.24572 0.62859 0.0
C651 C 0.22981 0.21603 0.58387 0.0
C652 C 0.20774 0.20894 0.56105 0.0
C653 C 0.22436 0.23809 0.60661 0.0
C654 C 0.17971 0.22393 0.56171 0.0
C655 C 0.17389 0.24566 0.58465 0.0
H656 H 0.5484 0.512 0.62836 0.0
H657 H 0.47284 0.55076 0.57968 0.0
H658 H 0.43898 0.53947 0.62191 0.0
H659 H 0.43022 0.51856 0.6728 0.0
H660 H 0.50344 0.47412 0.71899 0.0
H661 H 0.53847 0.48689 0.6773 0.0
C662 C 0.52447 0.51759 0.62658 0.0
C663 C 0.51369 0.53293 0.60076 0.0
C664 C 0.50452 0.50989 0.65059 0.0
C665 C 0.48242 0.54003 0.59948 0.0
C666 C 0.46277 0.53326 0.62357 0.0
C667 C 0.45388 0.51173 0.67369 0.0
C668 C 0.46439 0.49575 0.699 0.0
C669 C 0.47357 0.51838 0.6493 0.0
C670 C 0.49489 0.48648 0.6997 0.0
C671 C 0.51491 0.49384 0.67591 0.0
H672 H 0.82177 0.27883 0.68339 0.0
H673 H 0.82526 0.20091 0.6221 0.0
H674 H 0.81336 0.23312 0.57869 0.0
H675 H 0.79946 0.28314 0.55872 0.0
H676 H 0.79119 0.3597 0.62113 0.0
H677 H 0.80789 0.32861 0.66356 0.0
C678 C 0.82019 0.26906 0.66044 0.0
C679 C 0.82451 0.23771 0.65575 0.0
C680 C 0.81257 0.28752 0.63588 0.0
C681 C 0.82195 0.22505 0.6261 0.0
C682 C 0.81523 0.24345 0.60135 0.0
C683 C 0.80182 0.29304 0.58155 0.0
C684 C 0.79445 0.32365 0.58688 0.0
C685 C 0.81022 0.27467 0.60601 0.0
C686 C 0.79688 0.33617 0.61659 0.0
C687 C 0.80633 0.3184 0.64082 0.0
H688 H 0.51914 0.95762 0.61249 0.0
H689 H 0.5191 0.04913 0.57775 0.0
H690 H 0.55404 0.06652 0.61855 0.0
H691 H 0.58445 0.05604 0.66444 0.0
H692 H 0.58772 0.96386 0.69673 0.0
H693 H 0.55216 0.94648 0.65625 0.0
C694 C 0.52711 0.98128 0.6134 0.0
C695 C 0.51602 1.00198 0.59201 0.0
C696 C 0.54786 0.9911 0.63659 0.0
C697 C 0.52648 0.03267 0.59415 0.0
C698 C 0.54672 0.04267 0.61741 0.0
C699 C 0.57743 0.03214 0.66263 0.0
C700 C 0.58871 0.01134 0.68375 0.0
C701 C 0.55739 0.02215 0.6389 0.0
C702 C 0.5795 0.98039 0.68081 0.0
C703 C 0.5591 0.97042 0.65766 0.0
H704 H 0.90127 0.17261 0.75685 0.0
H705 H 0.8749 0.26624 0.74912 0.0
H706 H 0.91504 0.28256 0.78533 0.0
H707 H 0.95628 0.27026 0.82071 0.0
H708 H 0.98332 0.17724 0.82928 0.0
H709 H 0.9443 0.16049 0.79123 0.0
C710 C 0.90427 0.19655 0.76322 0.0
C711 C 0.88514 0.21817 0.75021 0.0
C712 C 0.9274 0.20583 0.78424 0.0
C713 C 0.88957 0.24918 0.75839 0.0
C714 C 0.91246 0.25854 0.77919 0.0
C715 C 0.95345 0.2463 0.81427 0.0
C716 C 0.97167 0.22477 0.82831 0.0
C717 C 0.93126 0.23707 0.79245 0.0
C718 C 0.96891 0.194 0.81908 0.0
C719 C 0.94666 0.1845 0.79741 0.0
H720 H 0.51784 0.9232 0.50554 0.0
H721 H 0.42308 0.91133 0.53108 0.0
H722 H 0.42005 0.86195 0.50436 0.0
H723 H 0.44301 0.82396 0.47103 0.0
H724 H 0.53751 0.83553 0.44396 0.0
H725 H 0.54202 0.88292 0.47428 0.0
C726 C 0.49672 0.90952 0.50559 0.0
C727 C 0.47063 0.921 0.52001 0.0
C728 C 0.49502 0.88119 0.48979 0.0
C729 C 0.44333 0.90316 0.51979 0.0
C730 C 0.4416 0.87491 0.50456 0.0
C731 C 0.46475 0.8366 0.47186 0.0
C732 C 0.48979 0.82613 0.45495 0.0
C733 C 0.4671 0.86399 0.48899 0.0
C734 C 0.51776 0.84296 0.45662 0.0
C735 C 0.52037 0.87016 0.47392 0.0
H736 H 0.18597 0.32757 0.77914 0.0
H737 H 0.12055 0.32444 0.70489 0.0
H738 H 0.07867 0.31574 0.74093 0.0
H739 H 0.0613 0.30497 0.79309 0.0
H740 H 0.12747 0.3036 0.86659 0.0
H741 H 0.16837 0.31861 0.83155 0.0
C742 C 0.16246 0.32546 0.77099 0.0
C743 C 0.15624 0.3267 0.73951 0.0
C744 C 0.1387 0.31961 0.79174 0.0
C745 C 0.1258 0.32345 0.72907 0.0
C746 C 0.10191 0.3185 0.74965 0.0
C747 C 0.08459 0.30855 0.8015 0.0
C748 C 0.0914 0.30336 0.83236 0.0
C749 C 0.10815 0.316 0.78097 0.0
C750 C 0.12173 0.3075 0.84291 0.0
C751 C 0.14511 0.31598 0.82287 0.0
H752 H 0.49094 0.59772 0.5178 0.0
H753 H 0.58798 0.61631 0.50762 0.0
H754 H 0.57737 0.66012 0.47626 0.0
H755 H 0.5407 0.69279 0.45111 0.0
H756 H 0.44363 0.67556 0.46292 0.0
H757 H 0.45422 0.63205 0.49479 0.0
C758 C 0.50981 0.61158 0.50912 0.0
C759 C 0.54024 0.60344 0.51495 0.0
C760 C 0.50357 0.63708 0.4914 0.0
C761 C 0.56433 0.62156 0.50307 0.0
C762 C 0.5583 0.64679 0.48527 0.0
C763 C 0.52181 0.6796 0.46067 0.0
C764 C 0.4914 0.68745 0.4544 0.0
C765 C 0.52802 0.65464 0.47912 0.0
C766 C 0.46728 0.67015 0.4673 0.0
C767 C 0.4733 0.64517 0.4855 0.0
H768 H 0.86372 0.81757 0.74695 0.0
H769 H 0.90272 0.77748 0.82734 0.0
H770 H 0.94448 0.75822 0.79683 0.0
H771 H 0.96873 0.75034 0.74667 0.0
H772 H 0.93352 0.79579 0.66812 0.0
H773 H 0.89211 0.81648 0.69899 0.0
C774 C 0.88162 0.80543 0.7583 0.0
C775 C 0.87923 0.7986 0.78961 0.0
C776 C 0.90648 0.79545 0.7409 0.0
C777 C 0.90291 0.78227 0.80319 0.0
C778 C 0.92717 0.77146 0.78581 0.0
C779 C 0.95223 0.76521 0.73655 0.0
C780 C 0.95394 0.77153 0.70527 0.0
C781 C 0.9289 0.77746 0.75455 0.0
C782 C 0.93266 0.79088 0.69226 0.0
C783 C 0.9089 0.80249 0.70984 0.0
H784 H 0.99348 0.90756 0.51623 0.0
H785 H 0.0906 0.92079 0.53384 0.0
H786 H 0.08986 0.87707 0.56678 0.0
H787 H 0.06231 0.8351 0.59088 0.0
H788 H 0.96655 0.81764 0.57075 0.0
H789 H 0.96624 0.86256 0.53808 0.0
C790 C 0.01455 0.90074 0.52701 0.0
C791 C 0.04188 0.91822 0.52301 0.0
C792 C 0.01427 0.87471 0.54546 0.0
C793 C 0.06892 0.90874 0.53724 0.0
C794 C 0.06866 0.88343 0.55592 0.0
C795 C 0.0413 0.84114 0.57944 0.0
C796 C 0.01441 0.82333 0.58348 0.0
C797 C 0.0415 0.86642 0.56037 0.0
C798 C 0.98753 0.8311 0.56803 0.0
C799 C 0.98737 0.85678 0.54941 0.0
H800 H 0.1714 0.74823 0.76965 0.0
H801 H 0.1564 0.65279 0.78815 0.0
H802 H 0.11082 0.65104 0.75522 0.0
H803 H 0.07583 0.6764 0.7203 0.0
H804 H 0.09231 0.77142 0.69999 0.0
H805 H 0.13654 0.77354 0.73439 0.0
C806 C 0.15793 0.72716 0.76665 0.0
C807 C 0.1671 0.70071 0.78136 0.0
C808 C 0.13209 0.72619 0.74722 0.0
C809 C 0.14978 0.67341 0.77694 0.0
C810 C 0.12373 0.67241 0.75816 0.0
C811 C 0.08902 0.69761 0.72346 0.0
C812 C 0.08065 0.72369 0.70751 0.0
C813 C 0.11477 0.69861 0.74301 0.0
C814 C 0.09824 0.75091 0.71178 0.0
C815 C 0.12354 0.7522 0.73155 0.0
H816 H 0.03398 0.58846 0.52629 0.0
H817 H 0.93649 0.6006 0.52007 0.0
H818 H 0.9415 0.647 0.55176 0.0
H819 H 0.97328 0.68332 0.58261 0.0
H820 H 0.07054 0.67139 0.58973 0.0
H821 H 0.06615 0.62592 0.55611 0.0
C822 C 0.0139 0.60139 0.53178 0.0
C823 C 0.98488 0.59101 0.52099 0.0
C824 C 0.01692 0.62796 0.55029 0.0
C825 C 0.95901 0.60791 0.52839 0.0
C826 C 0.96188 0.63454 0.54634 0.0
C827 C 0.99342 0.67051 0.57696 0.0
C828 C 0.02201 0.67981 0.58937 0.0
C829 C 0.99063 0.64454 0.55774 0.0
C830 C 0.04821 0.66406 0.58091 0.0
C831 C 0.04567 0.63814 0.56173 0.0
H832 H 0.7543 0.884 0.19037 0.0
H833 H 0.75271 0.86126 0.28588 0.0
H834 H 0.7883 0.90369 0.29779 0.0
H835 H 0.8222 0.94532 0.28093 0.0
H836 H 0.82546 0.96811 0.18583 0.0
H837 H 0.78704 0.92741 0.17369 0.0
C838 C 0.76184 0.88828 0.21375 0.0
C839 C 0.75075 0.86946 0.23718 0.0
C840 C 0.78278 0.9125 0.22044 0.0
C841 C 0.7604 0.87564 0.26746 0.0
C842 C 0.78092 0.8998 0.2743 0.0
C843 C 0.81452 0.94119 0.25754 0.0
C844 C 0.82717 0.95865 0.23406 0.0
C845 C 0.79258 0.91803 0.25095 0.0
C846 C 0.81635 0.95424 0.20404 0.0
C847 C 0.79446 0.93107 0.19718 0.0
H848 H 0.74396 0.13418 0.34654 0.0
H849 H 0.7604 0.18389 0.26401 0.0
H850 H 0.80389 0.15201 0.25207 0.0
H851 H 0.83585 0.10881 0.26393 0.0
H852 H 0.81705 0.05586 0.34393 0.0
H853 H 0.7762 0.09039 0.35838 0.0
C854 C 0.75722 0.13801 0.32603 0.0
C855 C 0.74903 0.16123 0.3061 0.0
C856 C 0.78182 0.11914 0.31901 0.0
C857 C 0.76615 0.16593 0.27949 0.0
C858 C 0.79107 0.14783 0.27275 0.0
C859 C 0.82316 0.10511 0.28481 0.0
C860 C 0.82968 0.08006 0.30306 0.0
C861 C 0.79899 0.12425 0.29223 0.0
C862 C 0.81257 0.07514 0.32965 0.0
C863 C 0.78914 0.09478 0.33781 0.0
H864 H 0.40548 0.03613 0.99398 0.0
H865 H 0.46152 0.96317 0.9612 0.0
H866 H 0.41806 0.92705 0.96502 0.0
H867 H 0.36354 0.91644 0.97605 0.0
H868 H 0.30711 0.9893 1.00754 0.0
H869 H 0.35141 0.02518 1.00662 0.0
C870 C 0.40831 0.01225 0.98805 0.0
C871 C 0.43676 1.00243 0.97722 0.0
C872 C 0.38316 0.9916 0.99026 0.0
C873 C 0.43982 0.97146 0.96919 0.0
C874 C 0.41502 0.95074 0.97155 0.0
C875 C 0.36119 0.94012 0.98306 0.0
C876 C 0.33245 0.95037 0.99216 0.0
C877 C 0.38654 0.96058 0.98182 0.0
C878 C 0.32926 0.98105 1.00082 0.0
C879 C 0.35449 1.0015 1.00011 0.0
H880 H 0.26893 0.39921 0.35357 0.0
H881 H 0.26473 0.35673 0.26391 0.0
H882 H 0.22397 0.39069 0.249 0.0
H883 H 0.19054 0.43349 0.26103 0.0
H884 H 0.19775 0.47875 0.34923 0.0
H885 H 0.23581 0.44236 0.36545 0.0
C886 C 0.25897 0.39738 0.33081 0.0
C887 C 0.2698 0.37555 0.30983 0.0
C888 C 0.23589 0.41729 0.32229 0.0
C889 C 0.25697 0.37357 0.28032 0.0
C890 C 0.23354 0.39283 0.27188 0.0
C891 C 0.20008 0.435 0.28398 0.0
C892 C 0.19107 0.45843 0.30412 0.0
C893 C 0.22287 0.41483 0.29264 0.0
C894 C 0.20417 0.46071 0.33348 0.0
C895 C 0.22603 0.44003 0.34267 0.0
H896 H 0.11461 0.01312 0.45757 0.0
H897 H 0.07524 0.02898 0.54624 0.0
H898 H 0.1181 0.06408 0.56011 0.0
H899 H 0.16692 0.09043 0.54671 0.0
H900 H 0.20596 0.07417 0.45802 0.0
H901 H 0.16372 0.03829 0.44469 0.0
C902 C 0.11531 0.02456 0.47978 0.0
C903 C 0.09174 0.01886 0.50075 0.0
C904 C 0.14025 0.04412 0.48775 0.0
C905 C 0.09313 0.03325 0.52972 0.0
C906 C 0.11767 0.05312 0.53769 0.0
C907 C 0.16605 0.07887 0.52456 0.0
C908 C 0.18875 0.08542 0.50295 0.0
C909 C 0.14143 0.05866 0.51693 0.0
C910 C 0.18809 0.06995 0.47459 0.0
C911 C 0.16403 0.04945 0.46701 0.0
H912 H 0.78754 0.13352 0.67598 0.0
H913 H 0.79327 0.1621 0.7709 0.0
H914 H 0.75532 0.12275 0.78399 0.0
H915 H 0.71904 0.08141 0.76844 0.0
H916 H 0.71181 0.0533 0.67382 0.0
H917 H 0.75156 0.0915 0.66049 0.0
C918 C 0.78038 0.13128 0.69951 0.0
C919 C 0.79346 0.15076 0.72239 0.0
C920 C 0.75806 0.10889 0.70687 0.0
C921 C 0.78416 0.14713 0.75285 0.0
C922 C 0.76225 0.12474 0.76037 0.0
C923 C 0.72601 0.08397 0.74487 0.0
C924 C 0.71194 0.06556 0.7219 0.0
C925 C 0.74883 0.10575 0.73756 0.0
C926 C 0.72196 0.0679 0.69166 0.0
C927 C 0.74465 0.08964 0.68412 0.0
H928 H 0.41637 0.04223 0.57486 0.0
H929 H 0.41922 0.00733 0.482 0.0
H930 H 0.37551 0.03776 0.46856 0.0
H931 H 0.33549 0.07377 0.48338 0.0
H932 H 0.33551 0.11107 0.57537 0.0
H933 H 0.37938 0.08086 0.58855 0.0
C934 C 0.40793 0.04162 0.5515 0.0
C935 C 0.4211 0.0221 0.52967 0.0
C936 C 0.38315 0.05973 0.54366 0.0
C937 C 0.40924 0.02149 0.49961 0.0
C938 C 0.3843 0.0391 0.49177 0.0
C939 C 0.34522 0.07534 0.50624 0.0
C940 C 0.3321 0.09455 0.52835 0.0
C941 C 0.37086 0.05811 0.51368 0.0
C942 C 0.34513 0.09653 0.55784 0.0
C943 C 0.37022 0.07917 0.56547 0.0
H944 H 0.58596 0.46946 0.54671 0.0
H945 H 0.63289 0.55207 0.51776 0.0
H946 H 0.67633 0.52279 0.50139 0.0
H947 H 0.70187 0.47371 0.49571 0.0
H948 H 0.65809 0.39232 0.53051 0.0
H949 H 0.61302 0.42117 0.54471 0.0
C950 C 0.60578 0.48129 0.53731 0.0
C951 C 0.6055 0.51309 0.53311 0.0
C952 C 0.63148 0.46445 0.52897 0.0
C953 C 0.63164 0.52759 0.52047 0.0
C954 C 0.65682 0.51088 0.51132 0.0
C955 C 0.68237 0.46238 0.50632 0.0
C956 C 0.68308 0.43099 0.51187 0.0
C957 C 0.65698 0.4793 0.51534 0.0
C958 C 0.65797 0.41654 0.52607 0.0
C959 C 0.63222 0.433 0.53415 0.0
H960 H 0.74933 0.24483 0.37287 0.0
H961 H 0.65117 0.23727 0.38318 0.0
H962 H 0.65424 0.27315 0.42672 0.0
H963 H 0.68511 0.30787 0.46133 0.0
H964 H 0.78314 0.3135 0.45076 0.0
H965 H 0.77997 0.27613 0.40873 0.0
C966 C 0.72859 0.25031 0.385 0.0
C967 C 0.70008 0.23812 0.37471 0.0
C968 C 0.73054 0.27055 0.41016 0.0
C969 C 0.67343 0.24648 0.39032 0.0
C970 C 0.67517 0.26686 0.41538 0.0
C971 C 0.70564 0.30071 0.44977 0.0
C972 C 0.73421 0.31397 0.45827 0.0
C973 C 0.7036 0.27925 0.42538 0.0
C974 C 0.76084 0.30415 0.44383 0.0
C975 C 0.75906 0.28271 0.41994 0.0
H976 H 0.53179 0.9974 0.91271 0.0
H977 H 0.51984 0.09464 0.91033 0.0
H978 H 0.54979 0.09759 0.86366 0.0
H979 H 0.58024 0.07319 0.82434 0.0
H980 H 0.59409 0.97618 0.82642 0.0
H981 H 0.56235 0.97251 0.87217 0.0
C982 C 0.53563 0.01916 0.90181 0.0
C983 C 0.52379 0.04581 0.91514 0.0
C984 C 0.55318 0.02076 0.87492 0.0
C985 C 0.52908 0.07388 0.90084 0.0
C986 C 0.54608 0.07557 0.87405 0.0
C987 C 0.57623 0.05111 0.83454 0.0
C988 C 0.58959 0.02499 0.82173 0.0
C989 C 0.5584 0.04924 0.86102 0.0
C990 C 0.58417 0.9967 0.83566 0.0
C991 C 0.56602 0.99458 0.86188 0.0
H992 H 0.32835 0.25762 0.36356 0.0
H993 H 0.28442 0.33285 0.40901 0.0
H994 H 0.26843 0.29939 0.45001 0.0
H995 H 0.26222 0.24751 0.47012 0.0
H996 H 0.30898 0.17336 0.4269 0.0
H997 H 0.32971 0.20804 0.38839 0.0
C998 C 0.31611 0.26715 0.38278 0.0
C999 C 0.30705 0.29777 0.38255 0.0
C1000 C 0.30759 0.24795 0.4068 0.0
C1001 C 0.29085 0.30921 0.4078 0.0
C1002 C 0.2819 0.29014 0.4315 0.0
C1003 C 0.27773 0.23929 0.45276 0.0
C1004 C 0.28434 0.20818 0.45123 0.0
C1005 C 0.2894 0.25931 0.43079 0.0
C1006 C 0.30409 0.19741 0.42862 0.0
C1007 C 0.3156 0.21715 0.40647 0.0
H1008 H 0.55259 0.49233 0.90617 0.0
H1009 H 0.47756 0.46641 0.96495 0.0
H1010 H 0.44134 0.47283 0.92314 0.0
H1011 H 0.43114 0.4827 0.86898 0.0
H1012 H 0.50555 0.50875 0.8101 0.0
H1013 H 0.54182 0.50652 0.8531 0.0
C1014 C 0.52829 0.4886 0.91007 0.0
C1015 C 0.51798 0.47848 0.93872 0.0
C1016 C 0.50744 0.49266 0.88595 0.0
C1017 C 0.48633 0.47347 0.94304 0.0
C1018 C 0.46551 0.4774 0.91919 0.0
C1019 C 0.45522 0.48856 0.86588 0.0
C1020 C 0.46582 0.49629 0.83678 0.0
C1021 C 0.47583 0.48656 0.89047 0.0
C1022 C 0.49701 0.50331 0.83258 0.0
C1023 C 0.51769 0.50171 0.85705 0.0
H1024 H 0.67663 0.77385 0.15685 0.0
H1025 H 0.77208 0.77436 0.18288 0.0
H1026 H 0.78282 0.73951 0.14025 0.0
H1027 H 0.76494 0.70828 0.09628 0.0
H1028 H 0.66971 0.70879 0.06905 0.0
H1029 H 0.65903 0.74389 0.11143 0.0
C1030 C 0.69973 0.76622 0.15314 0.0
C1031 C 0.72353 0.77652 0.17295 0.0
C1032 C 0.70577 0.74641 0.12844 0.0
C1033 C 0.75346 0.76686 0.16777 0.0
C1034 C 0.75957 0.74687 0.14351 0.0
C1035 C 0.74182 0.71602 0.09958 0.0
C1036 C 0.71813 0.70569 0.07961 0.0
C1037 C 0.73589 0.73641 0.12378 0.0
C1038 C 0.6884 0.71633 0.08405 0.0
C1039 C 0.68224 0.73636 0.10833 0.0
H1040 H 0.978 0.04946 0.09341 0.0
H1041 H 0.0599 1.00699 0.12568 0.0
H1042 H 0.03304 0.99093 0.17146 0.0
H1043 H 0.98621 0.98956 0.20315 0.0
H1044 H 0.90725 0.03798 0.17333 0.0
H1045 H 0.93349 0.052 0.12639 0.0
C1046 C 0.99047 0.03734 0.1106 0.0
C1047 C 0.02115 0.02952 0.10557 0.0
C1048 C 0.97539 0.02935 0.13763 0.0
C1049 C 0.03615 0.01288 0.12817 0.0
C1050 C 0.02089 1.0039 0.15469 0.0
C1051 C 0.97492 1.00328 0.18636 0.0
C1052 C 0.94489 0.01275 0.19163 0.0
C1053 C 0.99049 0.01202 0.15969 0.0
C1054 C 0.93048 0.03068 0.16988 0.0
C1055 C 0.9454 0.03856 0.14297 0.0
H1056 H 0.32602 0.78463 0.17008 0.0
H1057 H 0.32285 0.70692 0.10808 0.0
H1058 H 0.31465 0.74053 0.06496 0.0
H1059 H 0.30494 0.79184 0.04547 0.0
H1060 H 0.30465 0.86869 0.10849 0.0
H1061 H 0.31837 0.8358 0.15051 0.0
C1062 C 0.32401 0.77512 0.14706 0.0
C1063 C 0.32508 0.74338 0.14223 0.0
C1064 C 0.31877 0.79449 0.12256 0.0
C1065 C 0.32188 0.73129 0.11236 0.0
C1066 C 0.31731 0.7505 0.08771 0.0
C1067 C 0.30853 0.8014 0.06831 0.0
C1068 C 0.304 0.83262 0.07393 0.0
C1069 C 0.31529 0.78211 0.09259 0.0
C1070 C 0.30808 0.84471 0.10368 0.0
C1071 C 0.31579 0.82591 0.12771 0.0
H1072 H 0.02504 0.54051 0.09742 0.0
H1073 H 0.02142 0.44445 0.11765 0.0
H1074 H 0.05361 0.45425 0.16262 0.0
H1075 H 0.08163 0.49021 0.19744 0.0
H1076 H 0.08162 0.58663 0.17921 0.0
H1077 H 0.05143 0.5765 0.13293 0.0
C1078 C 0.03091 0.52166 0.11177 0.0
C1079 C 0.02073 0.49172 0.10375 0.0
C1080 C 0.04869 0.52752 0.13829 0.0
C1081 C 0.02931 0.46768 0.12259 0.0
C1082 C 0.04752 0.47328 0.14863 0.0
C1083 C 0.07508 0.50902 0.18334 0.0
C1084 C 0.08406 0.53914 0.19192 0.0
C1085 C 0.05723 0.50313 0.15682 0.0
C1086 C 0.07508 0.5632 0.17337 0.0
C1087 C 0.05781 0.55745 0.14676 0.0
H1088 H 0.38779 0.67437 0.25093 0.0
H1089 H 0.36552 0.76894 0.24105 0.0
H1090 H 0.40092 0.78357 0.28249 0.0
H1091 H 0.43786 0.76959 0.32194 0.0
H1092 H 0.45978 0.67536 0.3328 0.0
H1093 H 0.42464 0.66033 0.29073 0.0
C1094 C 0.39049 0.69815 0.258 0.0
C1095 C 0.37411 0.72051 0.24272 0.0
C1096 C 0.41065 0.70641 0.28212 0.0
C1097 C 0.37825 0.75129 0.25195 0.0
C1098 C 0.39835 0.75969 0.27578 0.0
C1099 C 0.4345 0.74574 0.3153 0.0
C1100 C 0.45032 0.72339 0.33092 0.0
C1101 C 0.41455 0.73745 0.29109 0.0
C1102 C 0.44711 0.69274 0.32139 0.0
C1103 C 0.42714 0.68423 0.29738 0.0
H1104 H 0.03005 0.42497 1.00766 0.0
H1105 H 0.93381 0.41063 0.02596 0.0
H1106 H 0.93312 0.36316 0.9959 0.0
H1107 H 0.95897 0.32701 0.96295 0.0
H1108 H 0.05499 0.34104 0.94277 0.0
H1109 H 0.05668 0.38722 0.97519 0.0
C1110 C 1.00907 0.41121 1.00525 0.0
C1111 C 0.98196 0.42135 0.01882 0.0
C1112 C 1.00875 0.384 0.98755 0.0
C1113 C 0.95485 0.40348 0.01541 0.0
C1114 C 0.95446 0.37631 0.9983 0.0
C1115 C 0.98043 0.33992 0.96569 0.0
C1116 C 1.00682 0.33041 0.9503 0.0
C1117 C 0.98115 0.36655 0.98399 0.0
C1118 C 0.03428 0.34774 0.95424 0.0
C1119 C 0.03527 0.3742 0.97278 0.0
H1120 H 0.63988 0.84128 0.26511 0.0
H1121 H 0.684 0.75551 0.27568 0.0
H1122 H 0.64666 0.74051 0.31443 0.0
H1123 H 0.60077 0.75127 0.34429 0.0
H1124 H 0.55372 0.83496 0.33066 0.0
H1125 H 0.59304 0.85163 0.29443 0.0
C1126 C 0.6412 0.81935 0.276 0.0
C1127 C 0.66446 0.79944 0.26766 0.0
C1128 C 0.61931 0.81068 0.29779 0.0
C1129 C 0.66602 0.771 0.28164 0.0
C1130 C 0.64483 0.76252 0.30386 0.0
C1131 C 0.59941 0.77334 0.33369 0.0
C1132 C 0.57472 0.79209 0.34034 0.0
C1133 C 0.62134 0.78214 0.31206 0.0
C1134 C 0.57271 0.82029 0.32596 0.0
C1135 C 0.59509 0.82974 0.3052 0.0
H1136 H 0.07855 0.11694 1.00543 0.0
H1137 H 0.98459 0.09207 0.0257 0.0
H1138 H 0.96706 0.13522 0.99667 0.0
H1139 H 0.97819 0.17868 0.96362 0.0
H1140 H 0.07219 0.20246 0.94198 0.0
H1141 H 0.08974 0.16094 0.97314 0.0
C1142 C 0.05422 0.12085 1.00338 0.0
C1143 C 0.03296 0.1012 0.01773 0.0
C1144 C 0.04423 0.14548 0.98627 0.0
C1145 C 1.00153 0.107 0.01524 0.0
C1146 C 0.99144 0.13157 0.99845 0.0
C1147 C 1.00254 0.17497 0.96585 0.0
C1148 C 0.02375 0.19373 0.9503 0.0
C1149 C 0.01257 0.15082 0.98364 0.0
C1150 C 0.05524 0.18838 0.9535 0.0
C1151 C 0.06536 0.1646 0.97135 0.0
H1152 H 0.34159 0.32139 0.24748 0.0
H1153 H 0.40217 0.32137 0.32578 0.0
H1154 H 0.44365 0.30337 0.29361 0.0
H1155 H 0.46127 0.28282 0.2439 0.0
H1156 H 0.40043 0.28256 0.16608 0.0
H1157 H 0.36075 0.30609 0.19707 0.0
C1158 C 0.36404 0.31817 0.25742 0.0
C1159 C 0.36856 0.32241 0.28911 0.0
C1160 C 0.38779 0.30768 0.2388 0.0
C1161 C 0.39782 0.31773 0.30157 0.0
C1162 C 0.42163 0.30753 0.28316 0.0
C1163 C 0.43956 0.2887 0.23373 0.0
C1164 C 0.43365 0.28135 0.20286 0.0
C1165 C 0.41668 0.30171 0.25188 0.0
C1166 C 0.40537 0.28837 0.18981 0.0
C1167 C 0.38268 0.30164 0.20755 0.0
H1168 H 0.50113 0.41528 0.02621 0.0
H1169 H 0.5994 0.40803 0.03441 0.0
H1170 H 0.5925 0.36538 0.06835 0.0
H1171 H 0.559 0.32922 0.09508 0.0
H1172 H 0.46115 0.33173 0.08243 0.0
H1173 H 0.4675 0.37666 0.0503 0.0
C1174 C 0.52112 0.4042 0.03499 0.0
C1175 C 0.55079 0.41556 0.02793 0.0
C1176 C 0.51708 0.37867 0.0537 0.0
C1177 C 0.57625 0.40078 0.04003 0.0
C1178 C 0.57238 0.37602 0.05927 0.0
C1179 C 0.53905 0.33973 0.08541 0.0
C1180 C 0.50964 0.32749 0.09133 0.0
C1181 C 0.54296 0.36483 0.0663 0.0
C1182 C 0.48402 0.34088 0.07821 0.0
C1183 C 0.48766 0.36654 0.05988 0.0
H1184 H 0.61405 0.19513 0.30394 0.0
H1185 H 0.68252 0.22193 0.23855 0.0
H1186 H 0.64258 0.2292 0.20003 0.0
H1187 H 0.58814 0.228 0.18505 0.0
H1188 H 0.51979 0.198 0.24943 0.0
H1189 H 0.5596 0.19177 0.28818 0.0
C1190 C 0.62008 0.2026 0.28124 0.0
C1191 C 0.65105 0.20816 0.27402 0.0
C1192 C 0.59704 0.20609 0.25906 0.0
C1193 C 0.65878 0.21747 0.24449 0.0
C1194 C 0.63598 0.22167 0.22254 0.0
C1195 C 0.58195 0.22016 0.20759 0.0
C1196 C 0.551 0.21368 0.2144 0.0
C1197 C 0.60503 0.21607 0.22957 0.0
C1198 C 0.54343 0.20309 0.24357 0.0
C1199 C 0.56618 0.19961 0.26577 0.0
H1200 H 0.45431 0.10953 0.01496 0.0
H1201 H 0.54745 0.08115 0.02425 0.0
H1202 H 0.55804 0.12227 0.06199 0.0
H1203 H 0.54078 0.16701 0.09185 0.0
H1204 H 0.4485 0.19687 0.08 0.0
H1205 H 0.4376 0.15494 0.04343 0.0
C1206 C 0.47684 0.11231 0.02545 0.0
C1207 C 0.50004 0.09235 0.01709 0.0
C1208 C 0.48291 0.13639 0.04648 0.0
C1209 C 0.52928 0.09634 0.03041 0.0
C1210 C 0.53533 0.11983 0.05192 0.0
C1211 C 0.5183 0.16409 0.08129 0.0
C1212 C 0.49505 0.18406 0.08936 0.0
C1213 C 0.51236 0.1401 0.06002 0.0
C1214 C 0.46632 0.18092 0.07489 0.0
C1215 C 0.46017 0.15712 0.05387 0.0
H1216 H 0.25702 0.37418 0.7544 0.0
H1217 H 0.25804 0.38699 0.65697 0.0
H1218 H 0.29999 0.42487 0.66287 0.0
H1219 H 0.33671 0.4544 0.69589 0.0
H1220 H 0.33501 0.44185 0.79317 0.0
H1221 H 0.29267 0.40434 0.78733 0.0
C1222 C 0.26612 0.38558 0.73451 0.0
C1223 C 0.25439 0.3778 0.70532 0.0
C1224 C 0.29016 0.40737 0.73806 0.0
C1225 C 0.26686 0.39237 0.67969 0.0
C1226 C 0.29076 0.41412 0.68304 0.0
C1227 C 0.32703 0.44325 0.71566 0.0
C1228 C 0.3394 0.44989 0.74476 0.0
C1229 C 0.30268 0.42173 0.71209 0.0
C1230 C 0.32634 0.43615 0.77044 0.0
C1231 C 0.30204 0.41493 0.76714 0.0
H1232 H 0.27027 0.63764 0.84892 0.0
H1233 H 0.27431 0.67401 0.75829 0.0
H1234 H 0.31582 0.63997 0.74517 0.0
H1235 H 0.34967 0.5987 0.75887 0.0
H1236 H 0.34247 0.5585 0.84764 0.0
H1237 H 0.30384 0.59537 0.8624 0.0
C1238 C 0.28037 0.63801 0.82636 0.0
C1239 C 0.26936 0.65813 0.80453 0.0
C1240 C 0.30374 0.61787 0.81879 0.0
C1241 C 0.28234 0.65845 0.7753 0.0
C1242 C 0.30613 0.63914 0.76787 0.0
C1243 C 0.33999 0.59837 0.78162 0.0
C1244 C 0.34915 0.5763 0.80234 0.0
C1245 C 0.31691 0.61868 0.78938 0.0
C1246 C 0.33589 0.57552 0.83145 0.0
C1247 C 0.31374 0.59647 0.83981 0.0
H1248 H 0.89501 0.52733 0.50499 0.0
H1249 H 0.95429 0.45189 0.48842 0.0
H1250 H 0.9111 0.41587 0.4949 0.0
H1251 H 0.85568 0.40595 0.5017 0.0
H1252 H 0.79613 0.48125 0.51604 0.0
H1253 H 0.84026 0.51726 0.51491 0.0
C1254 C 0.89862 0.50299 0.50334 0.0
C1255 C 0.9279 0.49236 0.4961 0.0
C1256 C 0.87362 0.48241 0.5069 0.0
C1257 C 0.93197 0.46072 0.49355 0.0
C1258 C 0.90731 0.4401 0.49742 0.0
C1259 C 0.85264 0.43021 0.50536 0.0
C1260 C 0.82303 0.4411 0.50958 0.0
C1261 C 0.87796 0.45069 0.50365 0.0
C1262 C 0.81893 0.47252 0.51339 0.0
C1263 C 0.84408 0.49303 0.51244 0.0
H1264 H 0.78349 0.88724 0.84729 0.0
H1265 H 0.78448 0.84378 0.75811 0.0
H1266 H 0.7461 0.87866 0.73981 0.0
H1267 H 0.71164 0.92096 0.74935 0.0
H1268 H 0.71359 0.96771 0.83688 0.0
H1269 H 0.75111 0.93198 0.85592 0.0
C1270 C 0.77541 0.88569 0.82381 0.0
C1271 C 0.78678 0.86311 0.804 0.0
C1272 C 0.75362 0.90611 0.81334 0.0
C1273 C 0.77629 0.86125 0.77361 0.0
C1274 C 0.75418 0.88099 0.76323 0.0
C1275 C 0.72009 0.92307 0.77269 0.0
C1276 C 0.70955 0.94644 0.79194 0.0
C1277 C 0.74249 0.90331 0.78295 0.0
C1278 C 0.72123 0.94961 0.82183 0.0
C1279 C 0.74272 0.92929 0.83263 0.0
H1280 H 0.60814 0.51622 0.04423 0.0
H1281 H 0.62906 0.49967 0.94933 0.0
H1282 H 0.67557 0.5319 0.95449 0.0
H1283 H 0.70795 0.56805 0.98486 0.0
H1284 H 0.68684 0.58593 0.07931 0.0
H1285 H 0.6429 0.54968 0.07575 0.0
C1286 C 0.62304 0.51961 0.02479 0.0
C1287 C 0.61509 0.50599 0.99635 0.0
C1288 C 0.6495 0.5385 0.02783 0.0
C1289 C 0.63453 0.51037 0.9713 0.0
C1290 C 0.6612 0.52858 0.9743 0.0
C1291 C 0.69364 0.56391 1.0046 0.0
C1292 C 0.6996 0.58028 0.03195 0.0
C1293 C 0.66848 0.54334 1.00222 0.0
C1294 C 0.68199 0.57396 0.05784 0.0
C1295 C 0.65694 0.55334 0.05577 0.0
H1296 H 0.28316 0.66156 0.25091 0.0
H1297 H 0.28461 0.63925 0.1544 0.0
H1298 H 0.2451 0.59944 0.16155 0.0
H1299 H 0.20895 0.57169 0.19531 0.0
H1300 H 0.20992 0.59303 0.29179 0.0
H1301 H 0.25085 0.63144 0.28481 0.0
C1302 C 0.27553 0.64758 0.23145 0.0
C1303 C 0.28702 0.65357 0.20214 0.0
C1304 C 0.25334 0.62433 0.23577 0.0
C1305 C 0.27593 0.63559 0.17718 0.0
C1306 C 0.25349 0.6126 0.18126 0.0
C1307 C 0.21832 0.58477 0.21468 0.0
C1308 C 0.20584 0.58061 0.2438 0.0
C1309 C 0.24182 0.60693 0.21043 0.0
C1310 C 0.21858 0.59682 0.269 0.0
C1311 C 0.24204 0.61862 0.26504 0.0
H1312 H 0.92566 0.53811 0.08331 0.0
H1313 H 0.93099 0.5104 0.98823 0.0
H1314 H 0.88769 0.54181 0.97623 0.0
H1315 H 0.84709 0.57649 0.9929 0.0
H1316 H 0.84612 0.60824 0.08679 0.0
H1317 H 0.88946 0.57674 0.09869 0.0
C1318 C 0.91804 0.53932 0.05978 0.0
C1319 C 0.93163 0.52123 0.03694 0.0
C1320 C 0.89376 0.55836 0.05269 0.0
C1321 C 0.92061 0.52312 1.00668 0.0
C1322 C 0.89593 0.54139 0.99963 0.0
C1323 C 0.85658 0.57663 0.01587 0.0
C1324 C 0.8433 0.59454 0.03894 0.0
C1325 C 0.88206 0.55887 0.02251 0.0
C1326 C 0.85598 0.59475 0.06856 0.0
C1327 C 0.88071 0.57662 0.07545 0.0
H1328 H 0.12123 1.00316 0.06852 0.0
H1329 H 0.08624 0.01401 0.9771 0.0
H1330 H 0.12846 0.98491 0.95642 0.0
H1331 H 0.17507 0.95559 0.96437 0.0
H1332 H 0.20855 0.94344 0.05625 0.0
H1333 H 0.16711 0.97354 0.07653 0.0
C1334 C 0.1226 0.99888 0.04409 0.0
C1335 C 0.10053 0.01083 0.02446 0.0
C1336 C 0.14677 0.98188 0.03236 0.0
C1337 C 0.10307 1.00546 0.99278 0.0
C1338 C 0.12716 0.98868 0.98091 0.0
C1339 C 0.17341 0.95968 0.9888 0.0
C1340 C 0.19498 0.94719 1.00868 0.0
C1341 C 0.14919 0.97678 1.00048 0.0
C1342 C 0.19227 0.95259 0.04034 0.0
C1343 C 0.16854 0.96984 0.05203 0.0
loop_
_geom_bond_atom_site_label_1
_geom_bond_atom_site_label_2
_geom_bond_distance
_geom_bond_site_symmetry_2
_ccdc_geom_bond_type
H0 C3 0.931 1_655 S
H1 C6 0.928 1_565 S
H2 C8 0.930 1_556 S
C3 H0 0.931 1_455 S
C3 C4 1.413 . S
C3 C5 1.360 . S
C4 C3 1.413 . S
C4 C8 1.429 . S
C5 C3 1.360 . S
C5 C6 1.372 . S
C6 H1 0.928 1_545 S
C6 C5 1.372 . S
C6 C7 1.404 . S
C7 C6 1.404 . S
C7 C8 1.391 . S
C8 H2 0.930 1_554 S
C8 C4 1.429 . S
C8 C7 1.391 . S
H9 C12 0.931 . S
H10 C15 0.928 . S
H11 C17 0.930 . S
C12 H9 0.931 . S
C12 C13 1.413 . S
C12 C14 1.360 . S
C13 C12 1.413 . S
C13 C17 1.429 . S
C14 C12 1.360 . S
C14 C15 1.372 . S
C15 H10 0.928 . S
C15 C14 1.372 . S
C15 C16 1.404 . S
C16 C15 1.404 . S
C16 C17 1.391 . S
C17 H11 0.930 . S
C17 C13 1.429 . S
C17 C16 1.391 . S
H18 C21 0.931 . S
H19 C24 0.928 1_455 S
H20 C26 0.930 1_556 S
C21 H18 0.931 . S
C21 C22 1.413 . S
C21 C23 1.360 . S
C22 C21 1.413 . S
C22 C26 1.429 . S
C23 C21 1.360 . S
C23 C24 1.372 . S
C24 H19 0.928 1_655 S
C24 C23 1.372 . S
C24 C25 1.404 . S
C25 C24 1.404 . S
C25 C26 1.391 . S
C26 H20 0.930 1_554 S
C26 C22 1.429 . S
C26 C25 1.391 . S
H27 C30 0.931 . S
H28 C33 0.928 . S
H29 C35 0.930 . S
C30 H27 0.931 . S
C30 C31 1.413 . S
C30 C32 1.360 . S
C31 C30 1.413 . S
C31 C35 1.429 . S
C32 C30 1.360 . S
C32 C33 1.372 . S
C33 H28 0.928 . S
C33 C32 1.372 . S
C33 C34 1.404 . S
C34 C33 1.404 . S
C34 C35 1.391 . S
C35 H29 0.930 . S
C35 C31 1.429 . S
C35 C34 1.391 . S
H36 C39 0.931 1_655 S
H37 C42 0.928 1_545 S
H38 C44 0.930 . S
C39 H36 0.931 1_455 S
C39 C40 1.413 . S
C39 C41 1.360 . S
C40 C39 1.413 . S
C40 C44 1.429 . S
C41 C39 1.360 . S
C41 C42 1.372 . S
C42 H37 0.928 1_565 S
C42 C41 1.372 . S
C42 C43 1.404 . S
C43 C42 1.404 . S
C43 C44 1.391 . S
C44 H38 0.930 . S
C44 C40 1.429 . S
C44 C43 1.391 . S
H45 C48 0.931 . S
H46 C51 0.928 . S
H47 C53 0.930 . S
C48 H45 0.931 . S
C48 C49 1.413 . S
C48 C50 1.360 . S
C49 C48 1.413 . S
C49 C53 1.429 . S
C50 C48 1.360 . S
C50 C51 1.372 . S
C51 H46 0.928 . S
C51 C50 1.372 . S
C51 C52 1.404 . S
C52 C51 1.404 . S
C52 C53 1.391 . S
C53 H47 0.930 . S
C53 C49 1.429 . S
C53 C52 1.391 . S
H54 C57 0.931 . S
H55 C60 0.928 1_455 S
H56 C62 0.930 . S
C57 H54 0.931 . S
C57 C58 1.413 . S
C57 C59 1.360 . S
C58 C57 1.413 . S
C58 C62 1.429 . S
C59 C57 1.360 . S
C59 C60 1.372 . S
C60 H55 0.928 1_655 S
C60 C59 1.372 . S
C60 C61 1.404 . S
C61 C60 1.404 . S
C61 C62 1.391 . S
C62 H56 0.930 . S
C62 C58 1.429 . S
C62 C61 1.391 . S
H63 C66 0.931 . S
H64 C69 0.928 . S
H65 C71 0.930 . S
C66 H63 0.931 . S
C66 C67 1.413 . S
C66 C68 1.360 . S
C67 C66 1.413 . S
C67 C71 1.429 . S
C68 C66 1.360 . S
C68 C69 1.372 . S
C69 H64 0.928 . S
C69 C68 1.372 . S
C69 C70 1.404 . S
C70 C69 1.404 . S
C70 C71 1.391 . S
C71 H65 0.930 . S
C71 C67 1.429 . S
C71 C70 1.391 . S
H72 C75 0.931 . S
H73 C78 0.928 . S
H74 C80 0.930 . S
C75 H72 0.931 . S
C75 C76 1.413 . S
C75 C77 1.360 . S
C76 C75 1.413 . S
C76 C80 1.429 . S
C77 C75 1.360 . S
C77 C78 1.372 . S
C78 H73 0.928 . S
C78 C77 1.372 . S
C78 C79 1.404 . S
C79 C78 1.404 . S
C79 C80 1.391 . S
C80 H74 0.930 . S
C80 C76 1.429 . S
C80 C79 1.391 . S
H81 C84 0.931 1_545 S
H82 C87 0.928 . S
H83 C89 0.930 . S
C84 H81 0.931 1_565 S
C84 C85 1.413 . S
C84 C86 1.360 . S
C85 C84 1.413 . S
C85 C89 1.429 . S
C86 C84 1.360 . S
C86 C87 1.372 . S
C87 H82 0.928 . S
C87 C86 1.372 . S
C87 C88 1.404 . S
C88 C87 1.404 . S
C88 C89 1.391 . S
C89 H83 0.930 . S
C89 C85 1.429 . S
C89 C88 1.391 . S
H90 C93 0.931 . S
H91 C96 0.928 . S
H92 C98 0.930 . S
C93 H90 0.931 . S
C93 C94 1.413 . S
C93 C95 1.360 . S
C94 C93 1.413 . S
C94 C98 1.429 . S
C95 C93 1.360 . S
C95 C96 1.372 . S
C96 H91 0.928 . S
C96 C95 1.372 . S
C96 C97 1.404 . S
C97 C96 1.404 . S
C97 C98 1.391 . S
C98 H92 0.930 . S
C98 C94 1.429 . S
C98 C97 1.391 . S
H99 C102 0.931 . S
H100 C105 0.928 . S
H101 C107 0.930 . S
C102 H99 0.931 . S
C102 C103 1.413 . S
C102 C104 1.360 . S
C103 C102 1.413 . S
C103 C107 1.429 . S
C104 C102 1.360 . S
C104 C105 1.372 . S
C105 H100 0.928 . S
C105 C104 1.372 . S
C105 C106 1.404 . S
C106 C105 1.404 . S
C106 C107 1.391 . S
C107 H101 0.930 . S
C107 C103 1.429 . S
C107 C106 1.391 . S
H108 C111 0.931 . S
H109 C114 0.928 . S
H110 C116 0.930 . S
C111 H108 0.931 . S
C111 C112 1.413 . S
C111 C113 1.360 . S
C112 C111 1.413 . S
C112 C116 1.429 . S
C113 C111 1.360 . S
C113 C114 1.372 . S
C114 H109 0.928 . S
C114 C113 1.372 . S
C114 C115 1.404 . S
C115 C114 1.404 . S
C115 C116 1.391 . S
C116 H110 0.930 . S
C116 C112 1.429 . S
C116 C115 1.391 . S
H117 C120 0.931 . S
H118 C123 0.928 . S
H119 C125 0.930 1_554 S
C120 H117 0.931 . S
C120 C121 1.413 . S
C120 C122 1.360 . S
C121 C120 1.413 . S
C121 C125 1.429 . S
C122 C120 1.360 . S
C122 C123 1.372 . S
C123 H118 0.928 . S
C123 C122 1.372 . S
C123 C124 1.404 . S
C124 C123 1.404 . S
C124 C125 1.391 . S
C125 H119 0.930 1_556 S
C125 C121 1.429 . S
C125 C124 1.391 . S
H126 C129 0.931 . S
H127 C132 0.928 . S
H128 C134 0.930 . S
C129 H126 0.931 . S
C129 C130 1.413 . S
C129 C131 1.360 . S
C130 C129 1.413 . S
C130 C134 1.429 . S
C131 C129 1.360 . S
C131 C132 1.372 . S
C132 H127 0.928 . S
C132 C131 1.372 . S
C132 C133 1.404 . S
C133 C132 1.404 . S
C133 C134 1.391 . S
C134 H128 0.930 . S
C134 C130 1.429 . S
C134 C133 1.391 . S
H135 C138 0.931 1_554 S
H136 C141 0.928 . S
H137 C143 0.930 1_565 S
C138 H135 0.931 1_556 S
C138 C139 1.413 . S
C138 C140 1.360 . S
C139 C138 1.413 . S
C139 C143 1.429 . S
C140 C138 1.360 . S
C140 C141 1.372 . S
C141 H136 0.928 . S
C141 C140 1.372 . S
C141 C142 1.404 . S
C142 C141 1.404 . S
C142 C143 1.391 . S
C143 H137 0.930 1_545 S
C143 C139 1.429 . S
C143 C142 1.391 . S
Mn144 O149 2.095 . S
Mn144 O159 2.162 . S
Mn144 O160 2.297 . S
Mn144 O168 2.385 1_554 S
Mn144 O169 2.209 1_554 S
Mn144 O170 2.094 . S
Mn145 O150 2.121 . S
Mn145 N152 2.257 . S
Mn145 N161 2.282 . S
Mn145 O169 2.215 . S
Mn145 O171 2.117 . S
C146 O168 1.234 . S
C146 O169 1.283 . S
C147 O159 1.281 . S
C147 O160 1.236 . S
C148 O170 1.240 . S
C148 O171 1.264 1_554 S
O149 Mn144 2.095 . S
O149 C158 1.250 1_554 S
O150 Mn145 2.121 . S
O150 C158 1.258 . S
C151 N152 1.326 . S
C151 C155 1.460 . S
C151 H157 0.929 . S
N152 Mn145 2.257 . S
N152 C151 1.326 . S
N152 C156 1.362 . S
C153 C154 1.258 . S
C153 C156 1.431 . S
C153 C173 1.449 . S
C154 C153 1.258 . S
C154 C155 1.477 . S
C154 H174 0.931 . S
C155 C151 1.460 . S
C155 C154 1.477 . S
C155 H175 0.930 . S
C156 N152 1.362 . S
C156 C153 1.431 . S
C156 C166 1.476 . S
H157 C151 0.929 . S
C158 O149 1.250 1_556 S
C158 O150 1.258 . S
O159 Mn144 2.162 . S
O159 C147 1.281 . S
O160 Mn144 2.297 . S
O160 C147 1.236 . S
N161 Mn145 2.282 . S
N161 C162 1.328 . S
N161 C166 1.318 . S
C162 N161 1.328 . S
C162 C163 1.457 . S
C162 H167 0.929 . S
C163 C162 1.457 . S
C163 C164 1.291 . S
C163 H176 0.931 . S
C164 C163 1.291 . S
C164 C165 1.373 . S
C164 H177 0.929 . S
C165 C164 1.373 . S
C165 C166 1.396 . S
C165 C172 1.403 . S
C166 C156 1.476 . S
C166 N161 1.318 . S
C166 C165 1.396 . S
H167 C162 0.929 . S
O168 Mn144 2.385 1_556 S
O168 C146 1.234 . S
O169 Mn144 2.209 1_556 S
O169 Mn145 2.215 . S
O169 C146 1.283 . S
O170 Mn144 2.094 . S
O170 C148 1.240 . S
O171 Mn145 2.117 . S
O171 C148 1.264 1_556 S
C172 C165 1.403 . S
C172 C173 1.399 . S
C172 H178 0.929 . S
C173 C153 1.449 . S
C173 C172 1.399 . S
C173 H179 0.930 . S
H174 C154 0.931 . S
H175 C155 0.930 . S
H176 C163 0.931 . S
H177 C164 0.929 . S
H178 C172 0.929 . S
H179 C173 0.930 . S
Mn180 O185 2.095 . S
Mn180 O195 2.162 . S
Mn180 O196 2.297 . S
Mn180 O204 2.385 . S
Mn180 O205 2.209 . S
Mn180 O206 2.094 . S
Mn181 O186 2.121 . S
Mn181 N188 2.257 . S
Mn181 N197 2.282 . S
Mn181 O205 2.215 . S
Mn181 O207 2.117 . S
C182 O204 1.234 . S
C182 O205 1.283 . S
C183 O195 1.281 . S
C183 O196 1.236 . S
C184 O206 1.240 . S
C184 O207 1.264 . S
O185 Mn180 2.095 . S
O185 C194 1.250 . S
O186 Mn181 2.121 . S
O186 C194 1.258 . S
C187 N188 1.326 . S
C187 C191 1.460 . S
C187 H193 0.929 . S
N188 Mn181 2.257 . S
N188 C187 1.326 . S
N188 C192 1.362 . S
C189 C190 1.258 . S
C189 C192 1.431 . S
C189 C209 1.449 . S
C190 C189 1.258 . S
C190 C191 1.477 . S
C190 H210 0.931 . S
C191 C187 1.460 . S
C191 C190 1.477 . S
C191 H211 0.930 . S
C192 N188 1.362 . S
C192 C189 1.431 . S
C192 C202 1.476 . S
H193 C187 0.929 . S
C194 O185 1.250 . S
C194 O186 1.258 . S
O195 Mn180 2.162 . S
O195 C183 1.281 . S
O196 Mn180 2.297 . S
O196 C183 1.236 . S
N197 Mn181 2.282 . S
N197 C198 1.328 . S
N197 C202 1.318 . S
C198 N197 1.328 . S
C198 C199 1.457 . S
C198 H203 0.929 . S
C199 C198 1.457 . S
C199 C200 1.291 . S
C199 H212 0.931 . S
C200 C199 1.291 . S
C200 C201 1.373 . S
C200 H213 0.929 . S
C201 C200 1.373 . S
C201 C202 1.396 . S
C201 C208 1.403 . S
C202 C192 1.476 . S
C202 N197 1.318 . S
C202 C201 1.396 . S
H203 C198 0.929 . S
O204 Mn180 2.385 . S
O204 C182 1.234 . S
O205 Mn180 2.209 . S
O205 Mn181 2.215 . S
O205 C182 1.283 . S
O206 Mn180 2.094 . S
O206 C184 1.240 . S
O207 Mn181 2.117 . S
O207 C184 1.264 . S
C208 C201 1.403 . S
C208 C209 1.399 . S
C208 H214 0.929 . S
C209 C189 1.449 . S
C209 C208 1.399 . S
C209 H215 0.930 . S
H210 C190 0.931 . S
H211 C191 0.930 . S
H212 C199 0.931 . S
H213 C200 0.929 . S
H214 C208 0.929 . S
H215 C209 0.930 . S
Mn216 O221 2.095 1_554 S
Mn216 O231 2.162 . S
Mn216 O232 2.297 1_554 S
Mn216 O240 2.385 . S
Mn216 O241 2.209 1_554 S
Mn216 O242 2.094 . S
Mn217 O222 2.121 . S
Mn217 N224 2.257 . S
Mn217 N233 2.282 . S
Mn217 O241 2.215 . S
Mn217 O243 2.117 1_556 S
C218 O240 1.254 . S
C218 O241 1.269 1_554 S
C219 O231 1.281 . S
C219 O232 1.236 1_554 S
C220 O242 1.240 . S
C220 O243 1.264 . S
O221 Mn216 2.095 1_556 S
O221 C230 1.250 . S
O222 Mn217 2.121 . S
O222 C230 1.258 . S
C223 N224 1.326 . S
C223 C227 1.460 . S
C223 H229 0.929 . S
N224 Mn217 2.257 . S
N224 C223 1.326 . S
N224 C228 1.362 . S
C225 C226 1.258 . S
C225 C228 1.431 . S
C225 C245 1.449 . S
C226 C225 1.258 . S
C226 C227 1.477 . S
C226 H246 0.931 . S
C227 C223 1.460 . S
C227 C226 1.477 . S
C227 H247 0.930 . S
C228 N224 1.362 . S
C228 C225 1.431 . S
C228 C238 1.476 . S
H229 C223 0.929 . S
C230 O221 1.250 . S
C230 O222 1.258 . S
O231 Mn216 2.162 . S
O231 C219 1.281 . S
O232 Mn216 2.297 1_556 S
O232 C219 1.236 1_556 S
N233 Mn217 2.282 . S
N233 C234 1.328 1_556 S
N233 C238 1.318 . S
C234 N233 1.328 1_554 S
C234 C235 1.457 . S
C234 H239 0.929 . S
C235 C234 1.457 . S
C235 C236 1.291 . S
C235 H248 0.931 . S
C236 C235 1.291 . S
C236 C237 1.373 1_554 S
C236 H249 0.929 . S
C237 C236 1.373 1_556 S
C237 C238 1.396 . S
C237 C244 1.403 . S
C238 C228 1.476 . S
C238 N233 1.318 . S
C238 C237 1.396 . S
H239 C234 0.929 . S
O240 Mn216 2.385 . S
O240 C218 1.254 . S
O241 Mn216 2.209 1_556 S
O241 Mn217 2.215 . S
O241 C218 1.269 1_556 S
O242 Mn216 2.094 . S
O242 C220 1.240 . S
O243 Mn217 2.117 1_554 S
O243 C220 1.264 . S
C244 C237 1.403 . S
C244 C245 1.399 . S
C244 H250 0.929 . S
C245 C225 1.449 . S
C245 C244 1.399 . S
C245 H251 0.930 . S
H246 C226 0.931 . S
H247 C227 0.930 . S
H248 C235 0.931 . S
H249 C236 0.929 . S
H250 C244 0.929 . S
H251 C245 0.930 . S
Mn252 O257 2.095 . S
Mn252 O267 2.162 . S
Mn252 O268 2.297 . S
Mn252 O276 2.385 1_545 S
Mn252 O277 2.209 1_545 S
Mn252 O278 2.094 . S
Mn253 O258 2.121 . S
Mn253 N260 2.257 . S
Mn253 N269 2.282 . S
Mn253 O277 2.215 . S
Mn253 O279 2.117 . S
C254 O276 1.234 . S
C254 O277 1.283 . S
C255 O267 1.281 . S
C255 O268 1.236 . S
C256 O278 1.240 . S
C256 O279 1.264 1_545 S
O257 Mn252 2.095 . S
O257 C266 1.250 1_545 S
O258 Mn253 2.121 . S
O258 C266 1.258 . S
C259 N260 1.326 . S
C259 C263 1.460 . S
C259 H265 0.929 . S
N260 Mn253 2.257 . S
N260 C259 1.326 . S
N260 C264 1.362 . S
C261 C262 1.258 . S
C261 C264 1.431 . S
C261 C281 1.449 . S
C262 C261 1.258 . S
C262 C263 1.477 . S
C262 H282 0.931 . S
C263 C259 1.460 . S
C263 C262 1.477 . S
C263 H283 0.930 . S
C264 N260 1.362 . S
C264 C261 1.431 . S
C264 C274 1.476 . S
H265 C259 0.929 . S
C266 O257 1.250 1_565 S
C266 O258 1.258 . S
O267 Mn252 2.162 . S
O267 C255 1.281 . S
O268 Mn252 2.297 . S
O268 C255 1.236 . S
N269 Mn253 2.282 . S
N269 C270 1.328 . S
N269 C274 1.318 . S
C270 N269 1.328 . S
C270 C271 1.457 . S
C270 H275 0.929 . S
C271 C270 1.457 . S
C271 C272 1.291 . S
C271 H284 0.931 . S
C272 C271 1.291 . S
C272 C273 1.373 . S
C272 H285 0.929 . S
C273 C272 1.373 . S
C273 C274 1.396 . S
C273 C280 1.403 . S
C274 C264 1.476 . S
C274 N269 1.318 . S
C274 C273 1.396 . S
H275 C270 0.929 . S
O276 Mn252 2.385 1_565 S
O276 C254 1.234 . S
O277 Mn252 2.209 1_565 S
O277 Mn253 2.215 . S
O277 C254 1.283 . S
O278 Mn252 2.094 . S
O278 C256 1.240 . S
O279 Mn253 2.117 . S
O279 C256 1.264 1_565 S
C280 C273 1.403 . S
C280 C281 1.399 . S
C280 H286 0.929 . S
C281 C261 1.449 . S
C281 C280 1.399 . S
C281 H287 0.930 . S
H282 C262 0.931 . S
H283 C263 0.930 . S
H284 C271 0.931 . S
H285 C272 0.929 . S
H286 C280 0.929 . S
H287 C281 0.930 . S
Mn288 O293 2.095 . S
Mn288 O303 2.162 . S
Mn288 O304 2.297 . S
Mn288 O312 2.385 . S
Mn288 O313 2.209 . S
Mn288 O314 2.094 . S
Mn289 O294 2.121 . S
Mn289 N296 2.257 . S
Mn289 N305 2.282 . S
Mn289 O313 2.215 . S
Mn289 O315 2.117 . S
C290 O312 1.234 . S
C290 O313 1.283 . S
C291 O303 1.281 . S
C291 O304 1.236 . S
C292 O314 1.240 . S
C292 O315 1.264 . S
O293 Mn288 2.095 . S
O293 C302 1.250 . S
O294 Mn289 2.121 . S
O294 C302 1.258 . S
C295 N296 1.326 . S
C295 C299 1.460 . S
C295 H301 0.929 . S
N296 Mn289 2.257 . S
N296 C295 1.326 . S
N296 C300 1.362 . S
C297 C298 1.258 . S
C297 C300 1.431 . S
C297 C317 1.449 . S
C298 C297 1.258 . S
C298 C299 1.477 . S
C298 H318 0.931 . S
C299 C295 1.460 . S
C299 C298 1.477 . S
C299 H319 0.930 . S
C300 N296 1.362 . S
C300 C297 1.431 . S
C300 C310 1.476 . S
H301 C295 0.929 . S
C302 O293 1.250 . S
C302 O294 1.258 . S
O303 Mn288 2.162 . S
O303 C291 1.281 . S
O304 Mn288 2.297 . S
O304 C291 1.236 . S
N305 Mn289 2.282 . S
N305 C306 1.328 . S
N305 C310 1.318 . S
C306 N305 1.328 . S
C306 C307 1.457 . S
C306 H311 0.929 . S
C307 C306 1.457 . S
C307 C308 1.291 . S
C307 H320 0.931 . S
C308 C307 1.291 . S
C308 C309 1.373 . S
C308 H321 0.929 . S
C309 C308 1.373 . S
C309 C310 1.396 . S
C309 C316 1.403 . S
C310 C300 1.476 . S
C310 N305 1.318 . S
C310 C309 1.396 . S
H311 C306 0.929 . S
O312 Mn288 2.385 . S
O312 C290 1.234 . S
O313 Mn288 2.209 . S
O313 Mn289 2.215 . S
O313 C290 1.283 . S
O314 Mn288 2.094 . S
O314 C292 1.240 . S
O315 Mn289 2.117 . S
O315 C292 1.264 . S
C316 C309 1.403 . S
C316 C317 1.399 . S
C316 H322 0.929 . S
C317 C297 1.449 . S
C317 C316 1.399 . S
C317 H323 0.930 . S
H318 C298 0.931 . S
H319 C299 0.930 . S
H320 C307 0.931 . S
H321 C308 0.929 . S
H322 C316 0.929 . S
H323 C317 0.930 . S
Mn324 O329 2.095 . S
Mn324 O339 2.162 . S
Mn324 O340 2.297 . S
Mn324 O348 2.385 . S
Mn324 O349 2.209 . S
Mn324 O350 2.094 . S
Mn325 O330 2.121 . S
Mn325 N332 2.257 . S
Mn325 N341 2.282 . S
Mn325 O349 2.215 . S
Mn325 O351 2.117 . S
C326 O348 1.234 . S
C326 O349 1.283 . S
C327 O339 1.281 . S
C327 O340 1.236 . S
C328 O350 1.240 . S
C328 O351 1.264 . S
O329 Mn324 2.095 . S
O329 C338 1.250 . S
O330 Mn325 2.121 . S
O330 C338 1.258 . S
C331 N332 1.326 . S
C331 C335 1.460 . S
C331 H337 0.929 . S
N332 Mn325 2.257 . S
N332 C331 1.326 . S
N332 C336 1.362 . S
C333 C334 1.258 . S
C333 C336 1.431 . S
C333 C353 1.449 . S
C334 C333 1.258 . S
C334 C335 1.477 . S
C334 H354 0.931 . S
C335 C331 1.460 . S
C335 C334 1.477 . S
C335 H355 0.930 . S
C336 N332 1.362 . S
C336 C333 1.431 . S
C336 C346 1.476 . S
H337 C331 0.929 . S
C338 O329 1.250 . S
C338 O330 1.258 . S
O339 Mn324 2.162 . S
O339 C327 1.281 . S
O340 Mn324 2.297 . S
O340 C327 1.236 . S
N341 Mn325 2.282 . S
N341 C342 1.328 . S
N341 C346 1.318 . S
C342 N341 1.328 . S
C342 C343 1.457 . S
C342 H347 0.929 . S
C343 C342 1.457 . S
C343 C344 1.291 . S
C343 H356 0.931 . S
C344 C343 1.291 . S
C344 C345 1.373 . S
C344 H357 0.929 . S
C345 C344 1.373 . S
C345 C346 1.396 . S
C345 C352 1.403 . S
C346 C336 1.476 . S
C346 N341 1.318 . S
C346 C345 1.396 . S
H347 C342 0.929 . S
O348 Mn324 2.385 . S
O348 C326 1.234 . S
O349 Mn324 2.209 . S
O349 Mn325 2.215 . S
O349 C326 1.283 . S
O350 Mn324 2.094 . S
O350 C328 1.240 . S
O351 Mn325 2.117 . S
O351 C328 1.264 . S
C352 C345 1.403 . S
C352 C353 1.399 . S
C352 H358 0.929 . S
C353 C333 1.449 . S
C353 C352 1.399 . S
C353 H359 0.930 . S
H354 C334 0.931 . S
H355 C335 0.930 . S
H356 C343 0.931 . S
H357 C344 0.929 . S
H358 C352 0.929 . S
H359 C353 0.930 . S
Mn360 O365 2.095 . S
Mn360 O375 2.162 . S
Mn360 O376 2.297 . S
Mn360 O384 2.385 . S
Mn360 O385 2.209 . S
Mn360 O386 2.094 . S
Mn361 O366 2.121 . S
Mn361 N368 2.257 . S
Mn361 N377 2.282 . S
Mn361 O385 2.215 . S
Mn361 O387 2.117 . S
C362 O384 1.234 . S
C362 O385 1.283 . S
C363 O375 1.281 . S
C363 O376 1.236 . S
C364 O386 1.240 . S
C364 O387 1.264 . S
O365 Mn360 2.095 . S
O365 C374 1.250 . S
O366 Mn361 2.121 . S
O366 C374 1.258 . S
C367 N368 1.326 . S
C367 C371 1.460 . S
C367 H373 0.929 . S
N368 Mn361 2.257 . S
N368 C367 1.326 . S
N368 C372 1.362 . S
C369 C370 1.258 . S
C369 C372 1.431 . S
C369 C389 1.449 . S
C370 C369 1.258 . S
C370 C371 1.477 . S
C370 H390 0.931 . S
C371 C367 1.460 . S
C371 C370 1.477 . S
C371 H391 0.930 . S
C372 N368 1.362 . S
C372 C369 1.431 . S
C372 C382 1.476 . S
H373 C367 0.929 . S
C374 O365 1.250 . S
C374 O366 1.258 . S
O375 Mn360 2.162 . S
O375 C363 1.281 . S
O376 Mn360 2.297 . S
O376 C363 1.236 . S
N377 Mn361 2.282 . S
N377 C378 1.328 . S
N377 C382 1.318 . S
C378 N377 1.328 . S
C378 C379 1.457 . S
C378 H383 0.929 . S
C379 C378 1.457 . S
C379 C380 1.291 . S
C379 H392 0.931 . S
C380 C379 1.291 . S
C380 C381 1.373 . S
C380 H393 0.929 . S
C381 C380 1.373 . S
C381 C382 1.396 . S
C381 C388 1.403 . S
C382 C372 1.476 . S
C382 N377 1.318 . S
C382 C381 1.396 . S
H383 C378 0.929 . S
O384 Mn360 2.385 . S
O384 C362 1.234 . S
O385 Mn360 2.209 . S
O385 Mn361 2.215 . S
O385 C362 1.283 . S
O386 Mn360 2.094 . S
O386 C364 1.240 . S
O387 Mn361 2.117 . S
O387 C364 1.264 . S
C388 C381 1.403 . S
C388 C389 1.399 . S
C388 H394 0.929 . S
C389 C369 1.449 . S
C389 C388 1.399 . S
C389 H395 0.930 . S
H390 C370 0.931 . S
H391 C371 0.930 . S
H392 C379 0.931 . S
H393 C380 0.929 . S
H394 C388 0.929 . S
H395 C389 0.930 . S
Mn396 O401 2.095 . S
Mn396 O411 2.162 . S
Mn396 O412 2.297 . S
Mn396 O420 2.385 1_565 S
Mn396 O421 2.209 1_565 S
Mn396 O422 2.094 . S
Mn397 O402 2.121 . S
Mn397 N404 2.257 . S
Mn397 N413 2.282 . S
Mn397 O421 2.215 . S
Mn397 O423 2.117 . S
C398 O420 1.234 . S
C398 O421 1.283 . S
C399 O411 1.281 . S
C399 O412 1.236 . S
C400 O422 1.223 1_545 S
C400 O423 1.286 . S
O401 Mn396 2.095 . S
O401 C410 1.250 1_565 S
O402 Mn397 2.121 . S
O402 C410 1.258 . S
C403 N404 1.326 . S
C403 C407 1.460 . S
C403 H409 0.929 . S
N404 Mn397 2.257 . S
N404 C403 1.326 . S
N404 C408 1.362 . S
C405 C406 1.258 . S
C405 C408 1.431 . S
C405 C425 1.449 . S
C406 C405 1.258 . S
C406 C407 1.477 . S
C406 H426 0.931 . S
C407 C403 1.460 . S
C407 C406 1.477 . S
C407 H427 0.930 . S
C408 N404 1.362 . S
C408 C405 1.431 . S
C408 C418 1.476 . S
H409 C403 0.929 . S
C410 O401 1.250 1_545 S
C410 O402 1.258 . S
O411 Mn396 2.162 . S
O411 C399 1.281 . S
O412 Mn396 2.297 . S
O412 C399 1.236 . S
N413 Mn397 2.282 . S
N413 C414 1.328 . S
N413 C418 1.318 . S
C414 N413 1.328 . S
C414 C415 1.457 . S
C414 H419 0.929 . S
C415 C414 1.457 . S
C415 C416 1.291 . S
C415 H428 0.931 . S
C416 C415 1.291 . S
C416 C417 1.373 . S
C416 H429 0.929 . S
C417 C416 1.373 . S
C417 C418 1.396 . S
C417 C424 1.403 . S
C418 C408 1.476 . S
C418 N413 1.318 . S
C418 C417 1.396 . S
H419 C414 0.929 . S
O420 Mn396 2.385 1_545 S
O420 C398 1.234 . S
O421 Mn396 2.209 1_545 S
O421 Mn397 2.215 . S
O421 C398 1.283 . S
O422 Mn396 2.094 . S
O422 C400 1.223 1_565 S
O423 Mn397 2.117 . S
O423 C400 1.286 . S
C424 C417 1.403 . S
C424 C425 1.399 . S
C424 H430 0.929 . S
C425 C405 1.449 . S
C425 C424 1.399 . S
C425 H431 0.930 . S
H426 C406 0.931 . S
H427 C407 0.930 . S
H428 C415 0.931 . S
H429 C416 0.929 . S
H430 C424 0.929 . S
H431 C425 0.930 . S
Mn432 O437 2.095 . S
Mn432 O447 2.162 . S
Mn432 O448 2.297 . S
Mn432 O456 2.385 1_455 S
Mn432 O457 2.209 1_455 S
Mn432 O458 2.094 . S
Mn433 O438 2.121 . S
Mn433 N440 2.257 . S
Mn433 N449 2.282 . S
Mn433 O457 2.215 . S
Mn433 O459 2.117 . S
C434 O456 1.234 . S
C434 O457 1.283 . S
C435 O447 1.281 . S
C435 O448 1.236 . S
C436 O458 1.240 . S
C436 O459 1.264 1_455 S
O437 Mn432 2.095 . S
O437 C446 1.250 1_455 S
O438 Mn433 2.121 . S
O438 C446 1.258 . S
C439 N440 1.326 . S
C439 C443 1.460 . S
C439 H445 0.929 . S
N440 Mn433 2.257 . S
N440 C439 1.326 . S
N440 C444 1.362 . S
C441 C442 1.258 . S
C441 C444 1.431 . S
C441 C461 1.449 . S
C442 C441 1.258 . S
C442 C443 1.477 . S
C442 H462 0.931 . S
C443 C439 1.460 . S
C443 C442 1.477 . S
C443 H463 0.930 . S
C444 N440 1.362 . S
C444 C441 1.431 . S
C444 C454 1.476 . S
H445 C439 0.929 . S
C446 O437 1.250 1_655 S
C446 O438 1.258 . S
O447 Mn432 2.162 . S
O447 C435 1.281 . S
O448 Mn432 2.297 . S
O448 C435 1.236 . S
N449 Mn433 2.282 . S
N449 C450 1.328 . S
N449 C454 1.318 . S
C450 N449 1.328 . S
C450 C451 1.457 . S
C450 H455 0.929 . S
C451 C450 1.457 . S
C451 C452 1.291 . S
C451 H464 0.931 . S
C452 C451 1.291 . S
C452 C453 1.373 . S
C452 H465 0.929 . S
C453 C452 1.373 . S
C453 C454 1.396 . S
C453 C460 1.403 . S
C454 C444 1.476 . S
C454 N449 1.318 . S
C454 C453 1.396 . S
H455 C450 0.929 . S
O456 Mn432 2.385 1_655 S
O456 C434 1.234 . S
O457 Mn432 2.209 1_655 S
O457 Mn433 2.215 . S
O457 C434 1.283 . S
O458 Mn432 2.094 . S
O458 C436 1.240 . S
O459 Mn433 2.117 . S
O459 C436 1.264 1_655 S
C460 C453 1.403 . S
C460 C461 1.399 . S
C460 H466 0.929 . S
C461 C441 1.449 . S
C461 C460 1.399 . S
C461 H467 0.930 . S
H462 C442 0.931 . S
H463 C443 0.930 . S
H464 C451 0.931 . S
H465 C452 0.929 . S
H466 C460 0.929 . S
H467 C461 0.930 . S
Mn468 O473 2.095 . S
Mn468 O483 2.162 . S
Mn468 O484 2.297 . S
Mn468 O492 2.385 . S
Mn468 O493 2.209 . S
Mn468 O494 2.094 . S
Mn469 O474 2.121 . S
Mn469 N476 2.257 . S
Mn469 N485 2.282 . S
Mn469 O493 2.215 . S
Mn469 O495 2.117 . S
C470 O492 1.234 . S
C470 O493 1.283 . S
C471 O483 1.281 . S
C471 O484 1.236 . S
C472 O494 1.240 . S
C472 O495 1.264 . S
O473 Mn468 2.095 . S
O473 C482 1.250 . S
O474 Mn469 2.121 . S
O474 C482 1.258 . S
C475 N476 1.326 . S
C475 C479 1.460 . S
C475 H481 0.929 . S
N476 Mn469 2.257 . S
N476 C475 1.326 . S
N476 C480 1.362 . S
C477 C478 1.258 . S
C477 C480 1.431 . S
C477 C497 1.449 . S
C478 C477 1.258 . S
C478 C479 1.477 . S
C478 H498 0.931 . S
C479 C475 1.460 . S
C479 C478 1.477 . S
C479 H499 0.930 . S
C480 N476 1.362 . S
C480 C477 1.431 . S
C480 C490 1.476 . S
H481 C475 0.929 . S
C482 O473 1.250 . S
C482 O474 1.258 . S
O483 Mn468 2.162 . S
O483 C471 1.281 . S
O484 Mn468 2.297 . S
O484 C471 1.236 . S
N485 Mn469 2.282 . S
N485 C486 1.328 . S
N485 C490 1.318 . S
C486 N485 1.328 . S
C486 C487 1.457 . S
C486 H491 0.929 . S
C487 C486 1.457 . S
C487 C488 1.291 . S
C487 H500 0.931 . S
C488 C487 1.291 . S
C488 C489 1.373 . S
C488 H501 0.929 . S
C489 C488 1.373 . S
C489 C490 1.396 . S
C489 C496 1.403 . S
C490 C480 1.476 . S
C490 N485 1.318 . S
C490 C489 1.396 . S
H491 C486 0.929 . S
O492 Mn468 2.385 . S
O492 C470 1.234 . S
O493 Mn468 2.209 . S
O493 Mn469 2.215 . S
O493 C470 1.283 . S
O494 Mn468 2.094 . S
O494 C472 1.240 . S
O495 Mn469 2.117 . S
O495 C472 1.264 . S
C496 C489 1.403 . S
C496 C497 1.399 . S
C496 H502 0.929 . S
C497 C477 1.449 . S
C497 C496 1.399 . S
C497 H503 0.930 . S
H498 C478 0.931 . S
H499 C479 0.930 . S
H500 C487 0.931 . S
H501 C488 0.929 . S
H502 C496 0.929 . S
H503 C497 0.930 . S
Mn504 O509 2.095 1_455 S
Mn504 O519 2.162 . S
Mn504 O520 2.297 1_455 S
Mn504 O528 2.385 . S
Mn504 O529 2.209 1_455 S
Mn504 O530 2.094 . S
Mn505 O510 2.121 . S
Mn505 N512 2.257 . S
Mn505 N521 2.282 1_655 S
Mn505 O529 2.215 . S
Mn505 O531 2.117 1_655 S
C506 O528 1.234 . S
C506 O529 1.283 1_455 S
C507 O519 1.281 . S
C507 O520 1.236 1_455 S
C508 O530 1.240 . S
C508 O531 1.264 . S
O509 Mn504 2.095 1_655 S
O509 C518 1.250 . S
O510 Mn505 2.121 . S
O510 C518 1.258 . S
C511 N512 1.326 . S
C511 C515 1.460 . S
C511 H517 0.929 . S
N512 Mn505 2.257 . S
N512 C511 1.326 . S
N512 C516 1.362 . S
C513 C514 1.258 . S
C513 C516 1.431 . S
C513 C533 1.449 . S
C514 C513 1.258 . S
C514 C515 1.477 . S
C514 H534 0.931 . S
C515 C511 1.460 . S
C515 C514 1.477 . S
C515 H535 0.930 . S
C516 N512 1.362 . S
C516 C513 1.431 . S
C516 C526 1.476 . S
H517 C511 0.929 . S
C518 O509 1.250 . S
C518 O510 1.258 . S
O519 Mn504 2.162 . S
O519 C507 1.281 . S
O520 Mn504 2.297 1_655 S
O520 C507 1.236 1_655 S
N521 Mn505 2.282 1_455 S
N521 C522 1.328 . S
N521 C526 1.318 1_455 S
C522 N521 1.328 . S
C522 C523 1.457 . S
C522 H527 0.929 . S
C523 C522 1.457 . S
C523 C524 1.291 . S
C523 H536 0.931 . S
C524 C523 1.291 . S
C524 C525 1.373 1_455 S
C524 H537 0.929 . S
C525 C524 1.373 1_655 S
C525 C526 1.396 . S
C525 C532 1.403 . S
C526 C516 1.476 . S
C526 N521 1.318 1_655 S
C526 C525 1.396 . S
H527 C522 0.929 . S
O528 Mn504 2.385 . S
O528 C506 1.234 . S
O529 Mn504 2.209 1_655 S
O529 Mn505 2.215 . S
O529 C506 1.283 1_655 S
O530 Mn504 2.094 . S
O530 C508 1.240 . S
O531 Mn505 2.117 1_455 S
O531 C508 1.264 . S
C532 C525 1.403 . S
C532 C533 1.399 . S
C532 H538 0.929 . S
C533 C513 1.449 . S
C533 C532 1.399 . S
C533 H539 0.930 . S
H534 C514 0.931 . S
H535 C515 0.930 . S
H536 C523 0.931 . S
H537 C524 0.929 . S
H538 C532 0.929 . S
H539 C533 0.930 . S
Mn540 O545 2.095 . S
Mn540 O555 2.162 . S
Mn540 O556 2.297 . S
Mn540 O564 2.385 . S
Mn540 O565 2.209 . S
Mn540 O566 2.094 . S
Mn541 O546 2.121 . S
Mn541 N548 2.257 . S
Mn541 N557 2.282 . S
Mn541 O565 2.215 . S
Mn541 O567 2.117 . S
C542 O564 1.234 . S
C542 O565 1.283 . S
C543 O555 1.281 . S
C543 O556 1.236 . S
C544 O566 1.240 . S
C544 O567 1.264 . S
O545 Mn540 2.095 . S
O545 C554 1.250 . S
O546 Mn541 2.121 . S
O546 C554 1.258 . S
C547 N548 1.326 . S
C547 C551 1.460 . S
C547 H553 0.929 . S
N548 Mn541 2.257 . S
N548 C547 1.326 . S
N548 C552 1.362 . S
C549 C550 1.258 . S
C549 C552 1.431 . S
C549 C569 1.449 . S
C550 C549 1.258 . S
C550 C551 1.477 . S
C550 H570 0.931 . S
C551 C547 1.460 . S
C551 C550 1.477 . S
C551 H571 0.930 . S
C552 N548 1.362 . S
C552 C549 1.431 . S
C552 C562 1.476 . S
H553 C547 0.929 . S
C554 O545 1.250 . S
C554 O546 1.258 . S
O555 Mn540 2.162 . S
O555 C543 1.281 . S
O556 Mn540 2.297 . S
O556 C543 1.236 . S
N557 Mn541 2.282 . S
N557 C558 1.328 . S
N557 C562 1.318 . S
C558 N557 1.328 . S
C558 C559 1.457 . S
C558 H563 0.929 . S
C559 C558 1.457 . S
C559 C560 1.291 . S
C559 H572 0.931 . S
C560 C559 1.291 . S
C560 C561 1.373 . S
C560 H573 0.929 . S
C561 C560 1.373 . S
C561 C562 1.396 . S
C561 C568 1.403 . S
C562 C552 1.476 . S
C562 N557 1.318 . S
C562 C561 1.396 . S
H563 C558 0.929 . S
O564 Mn540 2.385 . S
O564 C542 1.234 . S
O565 Mn540 2.209 . S
O565 Mn541 2.215 . S
O565 C542 1.283 . S
O566 Mn540 2.094 . S
O566 C544 1.240 . S
O567 Mn541 2.117 . S
O567 C544 1.264 . S
C568 C561 1.403 . S
C568 C569 1.399 . S
C568 H574 0.929 . S
C569 C549 1.449 . S
C569 C568 1.399 . S
C569 H575 0.930 . S
H570 C550 0.931 . S
H571 C551 0.930 . S
H572 C559 0.931 . S
H573 C560 0.929 . S
H574 C568 0.929 . S
H575 C569 0.930 . S
H576 C582 0.930 . S
H577 C585 0.930 . S
H578 C586 0.930 . S
H579 C587 0.930 . S
H580 C590 0.930 . S
H581 C591 0.930 . S
C582 H576 0.930 . S
C582 C583 1.355 . S
C582 C584 1.415 . S
C583 C582 1.355 . S
C583 C585 1.419 . S
C584 C582 1.415 . S
C584 C589 1.425 . S
C584 C591 1.409 . S
C585 H577 0.930 . S
C585 C583 1.419 . S
C585 C586 1.362 . S
C586 H578 0.930 . S
C586 C585 1.362 . S
C586 C589 1.409 . S
C587 H579 0.930 . S
C587 C588 1.355 . S
C587 C589 1.415 . S
C588 C587 1.355 . S
C588 C590 1.419 . S
C589 C584 1.425 . S
C589 C586 1.409 . S
C589 C587 1.415 . S
C590 H580 0.930 . S
C590 C588 1.419 . S
C590 C591 1.362 . S
C591 H581 0.930 . S
C591 C584 1.409 . S
C591 C590 1.362 . S
H592 C598 0.930 . S
H593 C601 0.930 . S
H594 C602 0.930 . S
H595 C603 0.930 . S
H596 C606 0.930 . S
H597 C607 0.930 . S
C598 H592 0.930 . S
C598 C599 1.355 . S
C598 C600 1.415 . S
C599 C598 1.355 . S
C599 C601 1.419 . S
C600 C598 1.415 . S
C600 C605 1.425 . S
C600 C607 1.409 . S
C601 H593 0.930 . S
C601 C599 1.419 . S
C601 C602 1.362 . S
C602 H594 0.930 . S
C602 C601 1.362 . S
C602 C605 1.409 . S
C603 H595 0.930 . S
C603 C604 1.355 . S
C603 C605 1.415 . S
C604 C603 1.355 . S
C604 C606 1.419 . S
C605 C600 1.425 . S
C605 C602 1.409 . S
C605 C603 1.415 . S
C606 H596 0.930 . S
C606 C604 1.419 . S
C606 C607 1.362 . S
C607 H597 0.930 . S
C607 C600 1.409 . S
C607 C606 1.362 . S
H608 C614 0.930 . S
H609 C617 0.930 . S
H610 C618 0.930 . S
H611 C619 0.930 . S
H612 C622 0.930 . S
H613 C623 0.930 . S
C614 H608 0.930 . S
C614 C615 1.355 . S
C614 C616 1.415 . S
C615 C614 1.355 . S
C615 C617 1.419 . S
C616 C614 1.415 . S
C616 C621 1.425 . S
C616 C623 1.409 . S
C617 H609 0.930 . S
C617 C615 1.419 . S
C617 C618 1.362 . S
C618 H610 0.930 . S
C618 C617 1.362 . S
C618 C621 1.409 . S
C619 H611 0.930 . S
C619 C620 1.355 . S
C619 C621 1.415 . S
C620 C619 1.355 . S
C620 C622 1.419 . S
C621 C616 1.425 . S
C621 C618 1.409 . S
C621 C619 1.415 . S
C622 H612 0.930 . S
C622 C620 1.419 . S
C622 C623 1.362 . S
C623 H613 0.930 . S
C623 C616 1.409 . S
C623 C622 1.362 . S
H624 C630 0.930 . S
H625 C633 0.924 1_545 S
H626 C634 0.930 . S
H627 C635 0.930 . S
H628 C638 0.930 . S
H629 C639 0.930 . S
C630 H624 0.930 . S
C630 C631 1.337 1_655 S
C630 C632 1.415 . S
C631 C630 1.337 1_455 S
C631 C633 1.441 . S
C632 C630 1.415 . S
C632 C637 1.425 . S
C632 C639 1.409 . S
C633 H625 0.924 1_565 S
C633 C631 1.441 . S
C633 C634 1.356 1_565 S
C634 H626 0.930 . S
C634 C633 1.356 1_545 S
C634 C637 1.409 1_445 S
C635 H627 0.930 . S
C635 C636 1.355 1_545 S
C635 C637 1.415 1_545 S
C636 C635 1.355 1_565 S
C636 C638 1.419 . S
C637 C632 1.425 . S
C637 C634 1.409 1_665 S
C637 C635 1.415 1_565 S
C638 H628 0.930 . S
C638 C636 1.419 . S
C638 C639 1.362 . S
C639 H629 0.930 . S
C639 C632 1.409 . S
C639 C638 1.362 . S
H640 C646 0.930 . S
H641 C649 0.930 . S
H642 C650 0.930 . S
H643 C651 0.930 . S
H644 C654 0.930 . S
H645 C655 0.930 . S
C646 H640 0.930 . S
C646 C647 1.355 . S
C646 C648 1.415 . S
C647 C646 1.355 . S
C647 C649 1.419 . S
C648 C646 1.415 . S
C648 C653 1.425 . S
C648 C655 1.409 . S
C649 H641 0.930 . S
C649 C647 1.419 . S
C649 C650 1.362 . S
C650 H642 0.930 . S
C650 C649 1.362 . S
C650 C653 1.409 . S
C651 H643 0.930 . S
C651 C652 1.355 . S
C651 C653 1.415 . S
C652 C651 1.355 . S
C652 C654 1.419 . S
C653 C648 1.425 . S
C653 C650 1.409 . S
C653 C651 1.415 . S
C654 H644 0.930 . S
C654 C652 1.419 . S
C654 C655 1.362 . S
C655 H645 0.930 . S
C655 C648 1.409 . S
C655 C654 1.362 . S
H656 C662 0.930 . S
H657 C665 0.930 . S
H658 C666 0.930 . S
H659 C667 0.930 . S
H660 C670 0.930 . S
H661 C671 0.930 . S
C662 H656 0.930 . S
C662 C663 1.355 . S
C662 C664 1.415 . S
C663 C662 1.355 . S
C663 C665 1.419 . S
C664 C662 1.415 . S
C664 C669 1.425 . S
C664 C671 1.409 . S
C665 H657 0.930 . S
C665 C663 1.419 . S
C665 C666 1.362 . S
C666 H658 0.930 . S
C666 C665 1.362 . S
C666 C669 1.409 . S
C667 H659 0.930 . S
C667 C668 1.355 . S
C667 C669 1.415 . S
C668 C667 1.355 . S
C668 C670 1.419 . S
C669 C664 1.425 . S
C669 C666 1.409 . S
C669 C667 1.415 . S
C670 H660 0.930 . S
C670 C668 1.419 . S
C670 C671 1.362 . S
C671 H661 0.930 . S
C671 C664 1.409 . S
C671 C670 1.362 . S
H672 C678 0.930 . S
H673 C681 0.930 . S
H674 C682 0.930 . S
H675 C683 0.930 . S
H676 C686 0.930 . S
H677 C687 0.930 . S
C678 H672 0.930 . S
C678 C679 1.355 . S
C678 C680 1.415 . S
C679 C678 1.355 . S
C679 C681 1.419 . S
C680 C678 1.415 . S
C680 C685 1.425 . S
C680 C687 1.409 . S
C681 H673 0.930 . S
C681 C679 1.419 . S
C681 C682 1.362 . S
C682 H674 0.930 . S
C682 C681 1.362 . S
C682 C685 1.409 . S
C683 H675 0.930 . S
C683 C684 1.355 . S
C683 C685 1.415 . S
C684 C683 1.355 . S
C684 C686 1.419 . S
C685 C680 1.425 . S
C685 C682 1.409 . S
C685 C683 1.415 . S
C686 H676 0.930 . S
C686 C684 1.419 . S
C686 C687 1.362 . S
C687 H677 0.930 . S
C687 C680 1.409 . S
C687 C686 1.362 . S
H688 C694 0.930 . S
H689 C697 0.930 . S
H690 C698 0.930 . S
H691 C699 0.930 . S
H692 C702 0.930 . S
H693 C703 0.930 . S
C694 H688 0.930 . S
C694 C695 1.355 . S
C694 C696 1.415 . S
C695 C694 1.355 . S
C695 C697 1.419 1_565 S
C696 C694 1.415 . S
C696 C701 1.390 1_565 S
C696 C703 1.409 . S
C697 H689 0.930 . S
C697 C695 1.419 1_545 S
C697 C698 1.362 . S
C698 H690 0.930 . S
C698 C697 1.362 . S
C698 C701 1.434 . S
C699 H691 0.930 . S
C699 C700 1.355 1_545 S
C699 C701 1.425 . S
C700 C699 1.355 1_565 S
C700 C702 1.419 . S
C701 C696 1.390 1_545 S
C701 C698 1.434 . S
C701 C699 1.425 . S
C702 H692 0.930 . S
C702 C700 1.419 . S
C702 C703 1.362 . S
C703 H693 0.930 . S
C703 C696 1.409 . S
C703 C702 1.362 . S
H704 C710 0.930 . S
H705 C713 0.930 . S
H706 C714 0.930 . S
H707 C715 0.930 . S
H708 C718 0.930 . S
H709 C719 0.930 . S
C710 H704 0.930 . S
C710 C711 1.355 . S
C710 C712 1.415 . S
C711 C710 1.355 . S
C711 C713 1.419 . S
C712 C710 1.415 . S
C712 C717 1.425 . S
C712 C719 1.409 . S
C713 H705 0.930 . S
C713 C711 1.419 . S
C713 C714 1.362 . S
C714 H706 0.930 . S
C714 C713 1.362 . S
C714 C717 1.409 . S
C715 H707 0.930 . S
C715 C716 1.355 . S
C715 C717 1.415 . S
C716 C715 1.355 . S
C716 C718 1.419 . S
C717 C712 1.425 . S
C717 C714 1.409 . S
C717 C715 1.415 . S
C718 H708 0.930 . S
C718 C716 1.419 . S
C718 C719 1.362 . S
C719 H709 0.930 . S
C719 C712 1.409 . S
C719 C718 1.362 . S
H720 C726 0.930 . S
H721 C729 0.930 . S
H722 C730 0.930 . S
H723 C731 0.930 . S
H724 C734 0.930 . S
H725 C735 0.930 . S
C726 H720 0.930 . S
C726 C727 1.355 . S
C726 C728 1.415 . S
C727 C726 1.355 . S
C727 C729 1.419 . S
C728 C726 1.415 . S
C728 C733 1.425 . S
C728 C735 1.409 . S
C729 H721 0.930 . S
C729 C727 1.419 . S
C729 C730 1.362 . S
C730 H722 0.930 . S
C730 C729 1.362 . S
C730 C733 1.409 . S
C731 H723 0.930 . S
C731 C732 1.355 . S
C731 C733 1.415 . S
C732 C731 1.355 . S
C732 C734 1.419 . S
C733 C728 1.425 . S
C733 C730 1.409 . S
C733 C731 1.415 . S
C734 H724 0.930 . S
C734 C732 1.419 . S
C734 C735 1.362 . S
C735 H725 0.930 . S
C735 C728 1.409 . S
C735 C734 1.362 . S
H736 C742 0.930 . S
H737 C745 0.930 . S
H738 C746 0.930 . S
H739 C747 0.930 . S
H740 C750 0.930 . S
H741 C751 0.930 . S
C742 H736 0.930 . S
C742 C743 1.355 . S
C742 C744 1.415 . S
C743 C742 1.355 . S
C743 C745 1.419 . S
C744 C742 1.415 . S
C744 C749 1.425 . S
C744 C751 1.409 . S
C745 H737 0.930 . S
C745 C743 1.419 . S
C745 C746 1.362 . S
C746 H738 0.930 . S
C746 C745 1.362 . S
C746 C749 1.409 . S
C747 H739 0.930 . S
C747 C748 1.355 . S
C747 C749 1.415 . S
C748 C747 1.355 . S
C748 C750 1.419 . S
C749 C744 1.425 . S
C749 C746 1.409 . S
C749 C747 1.415 . S
C750 H740 0.930 . S
C750 C748 1.419 . S
C750 C751 1.362 . S
C751 H741 0.930 . S
C751 C744 1.409 . S
C751 C750 1.362 . S
H752 C758 0.930 . S
H753 C761 0.930 . S
H754 C762 0.930 . S
H755 C763 0.930 . S
H756 C766 0.930 . S
H757 C767 0.930 . S
C758 H752 0.930 . S
C758 C759 1.355 . S
C758 C760 1.415 . S
C759 C758 1.355 . S
C759 C761 1.419 . S
C760 C758 1.415 . S
C760 C765 1.425 . S
C760 C767 1.409 . S
C761 H753 0.930 . S
C761 C759 1.419 . S
C761 C762 1.362 . S
C762 H754 0.930 . S
C762 C761 1.362 . S
C762 C765 1.409 . S
C763 H755 0.930 . S
C763 C764 1.355 . S
C763 C765 1.415 . S
C764 C763 1.355 . S
C764 C766 1.419 . S
C765 C760 1.425 . S
C765 C762 1.409 . S
C765 C763 1.415 . S
C766 H756 0.930 . S
C766 C764 1.419 . S
C766 C767 1.362 . S
C767 H757 0.930 . S
C767 C760 1.409 . S
C767 C766 1.362 . S
H768 C774 0.930 . S
H769 C777 0.930 . S
H770 C778 0.930 . S
H771 C779 0.930 . S
H772 C782 0.930 . S
H773 C783 0.930 . S
C774 H768 0.930 . S
C774 C775 1.355 . S
C774 C776 1.415 . S
C775 C774 1.355 . S
C775 C777 1.419 . S
C776 C774 1.415 . S
C776 C781 1.425 . S
C776 C783 1.409 . S
C777 H769 0.930 . S
C777 C775 1.419 . S
C777 C778 1.362 . S
C778 H770 0.930 . S
C778 C777 1.362 . S
C778 C781 1.409 . S
C779 H771 0.930 . S
C779 C780 1.355 . S
C779 C781 1.415 . S
C780 C779 1.355 . S
C780 C782 1.419 . S
C781 C776 1.425 . S
C781 C778 1.409 . S
C781 C779 1.415 . S
C782 H772 0.930 . S
C782 C780 1.419 . S
C782 C783 1.362 . S
C783 H773 0.930 . S
C783 C776 1.409 . S
C783 C782 1.362 . S
H784 C790 0.930 1_655 S
H785 C793 0.930 . S
H786 C794 0.930 . S
H787 C795 0.930 . S
H788 C798 0.930 . S
H789 C799 0.930 . S
C790 H784 0.930 1_455 S
C790 C791 1.355 . S
C790 C792 1.415 . S
C791 C790 1.355 . S
C791 C793 1.419 . S
C792 C790 1.415 . S
C792 C797 1.425 . S
C792 C799 1.409 1_455 S
C793 H785 0.930 . S
C793 C791 1.419 . S
C793 C794 1.362 . S
C794 H786 0.930 . S
C794 C793 1.362 . S
C794 C797 1.409 . S
C795 H787 0.930 . S
C795 C796 1.355 . S
C795 C797 1.415 . S
C796 C795 1.355 . S
C796 C798 1.419 1_455 S
C797 C792 1.425 . S
C797 C794 1.409 . S
C797 C795 1.415 . S
C798 H788 0.930 . S
C798 C796 1.419 1_655 S
C798 C799 1.362 . S
C799 H789 0.930 . S
C799 C792 1.409 1_655 S
C799 C798 1.362 . S
H800 C806 0.930 . S
H801 C809 0.930 . S
H802 C810 0.930 . S
H803 C811 0.930 . S
H804 C814 0.930 . S
H805 C815 0.930 . S
C806 H800 0.930 . S
C806 C807 1.355 . S
C806 C808 1.415 . S
C807 C806 1.355 . S
C807 C809 1.419 . S
C808 C806 1.415 . S
C808 C813 1.425 . S
C808 C815 1.409 . S
C809 H801 0.930 . S
C809 C807 1.419 . S
C809 C810 1.362 . S
C810 H802 0.930 . S
C810 C809 1.362 . S
C810 C813 1.409 . S
C811 H803 0.930 . S
C811 C812 1.355 . S
C811 C813 1.415 . S
C812 C811 1.355 . S
C812 C814 1.419 . S
C813 C808 1.425 . S
C813 C810 1.409 . S
C813 C811 1.415 . S
C814 H804 0.930 . S
C814 C812 1.419 . S
C814 C815 1.362 . S
C815 H805 0.930 . S
C815 C808 1.409 . S
C815 C814 1.362 . S
H816 C822 0.930 . S
H817 C825 0.930 . S
H818 C826 0.930 . S
H819 C827 0.930 . S
H820 C830 0.930 . S
H821 C831 0.930 . S
C822 H816 0.930 . S
C822 C823 1.355 . S
C822 C824 1.415 . S
C823 C822 1.355 . S
C823 C825 1.419 . S
C824 C822 1.415 . S
C824 C829 1.425 . S
C824 C831 1.409 1_655 S
C825 H817 0.930 . S
C825 C823 1.419 . S
C825 C826 1.362 . S
C826 H818 0.930 . S
C826 C825 1.362 . S
C826 C829 1.409 . S
C827 H819 0.930 . S
C827 C828 1.367 . S
C827 C829 1.415 . S
C828 C827 1.367 . S
C828 C830 1.408 1_655 S
C829 C824 1.425 . S
C829 C826 1.409 . S
C829 C827 1.415 . S
C830 H820 0.930 . S
C830 C828 1.408 1_455 S
C830 C831 1.362 . S
C831 H821 0.930 . S
C831 C824 1.409 1_455 S
C831 C830 1.362 . S
H832 C838 0.930 . S
H833 C841 0.930 . S
H834 C842 0.930 . S
H835 C843 0.930 . S
H836 C846 0.930 . S
H837 C847 0.930 . S
C838 H832 0.930 . S
C838 C839 1.355 . S
C838 C840 1.415 . S
C839 C838 1.355 . S
C839 C841 1.419 . S
C840 C838 1.415 . S
C840 C845 1.425 . S
C840 C847 1.409 . S
C841 H833 0.930 . S
C841 C839 1.419 . S
C841 C842 1.362 . S
C842 H834 0.930 . S
C842 C841 1.362 . S
C842 C845 1.409 . S
C843 H835 0.930 . S
C843 C844 1.355 . S
C843 C845 1.415 . S
C844 C843 1.355 . S
C844 C846 1.419 . S
C845 C840 1.425 . S
C845 C842 1.409 . S
C845 C843 1.415 . S
C846 H836 0.930 . S
C846 C844 1.419 . S
C846 C847 1.362 . S
C847 H837 0.930 . S
C847 C840 1.409 . S
C847 C846 1.362 . S
H848 C854 0.930 . S
H849 C857 0.930 . S
H850 C858 0.930 . S
H851 C859 0.930 . S
H852 C862 0.930 . S
H853 C863 0.930 . S
C854 H848 0.930 . S
C854 C855 1.355 . S
C854 C856 1.415 . S
C855 C854 1.355 . S
C855 C857 1.419 . S
C856 C854 1.415 . S
C856 C861 1.425 . S
C856 C863 1.409 . S
C857 H849 0.930 . S
C857 C855 1.419 . S
C857 C858 1.362 . S
C858 H850 0.930 . S
C858 C857 1.362 . S
C858 C861 1.409 . S
C859 H851 0.930 . S
C859 C860 1.355 . S
C859 C861 1.415 . S
C860 C859 1.355 . S
C860 C862 1.419 . S
C861 C856 1.425 . S
C861 C858 1.409 . S
C861 C859 1.415 . S
C862 H852 0.930 . S
C862 C860 1.419 . S
C862 C863 1.362 . S
C863 H853 0.930 . S
C863 C856 1.409 . S
C863 C862 1.362 . S
H864 C870 0.923 1_545 S
H865 C873 0.930 . S
H866 C874 0.930 . S
H867 C875 0.930 . S
H868 C878 0.930 . S
H869 C879 0.934 1_545 S
C870 H864 0.923 1_565 S
C870 C871 1.356 . S
C870 C872 1.419 . S
C871 C870 1.356 . S
C871 C873 1.419 . S
C872 C870 1.419 . S
C872 C877 1.425 . S
C872 C879 1.409 . S
C873 H865 0.930 . S
C873 C871 1.419 . S
C873 C874 1.362 1_556 S
C874 H866 0.930 . S
C874 C873 1.362 1_554 S
C874 C877 1.409 1_554 S
C875 H867 0.930 . S
C875 C876 1.355 1_554 S
C875 C877 1.415 1_554 S
C876 C875 1.355 1_556 S
C876 C878 1.419 . S
C877 C872 1.425 . S
C877 C874 1.409 1_556 S
C877 C875 1.415 1_556 S
C878 H868 0.930 . S
C878 C876 1.419 . S
C878 C879 1.362 . S
C879 H869 0.934 1_565 S
C879 C872 1.409 . S
C879 C878 1.362 . S
H880 C886 0.930 . S
H881 C889 0.930 . S
H882 C890 0.930 . S
H883 C891 0.930 . S
H884 C894 0.930 . S
H885 C895 0.930 . S
C886 H880 0.930 . S
C886 C887 1.355 . S
C886 C888 1.415 . S
C887 C886 1.355 . S
C887 C889 1.419 . S
C888 C886 1.415 . S
C888 C893 1.425 . S
C888 C895 1.409 . S
C889 H881 0.930 . S
C889 C887 1.419 . S
C889 C890 1.362 . S
C890 H882 0.930 . S
C890 C889 1.362 . S
C890 C893 1.409 . S
C891 H883 0.930 . S
C891 C892 1.355 . S
C891 C893 1.415 . S
C892 C891 1.355 . S
C892 C894 1.419 . S
C893 C888 1.425 . S
C893 C890 1.409 . S
C893 C891 1.415 . S
C894 H884 0.930 . S
C894 C892 1.419 . S
C894 C895 1.362 . S
C895 H885 0.930 . S
C895 C888 1.409 . S
C895 C894 1.362 . S
H896 C902 0.930 . S
H897 C905 0.930 . S
H898 C906 0.930 . S
H899 C907 0.930 . S
H900 C910 0.930 . S
H901 C911 0.930 . S
C902 H896 0.930 . S
C902 C903 1.355 . S
C902 C904 1.415 . S
C903 C902 1.355 . S
C903 C905 1.419 1_545 S
C904 C902 1.415 . S
C904 C909 1.425 . S
C904 C911 1.409 . S
C905 H897 0.930 . S
C905 C903 1.419 1_565 S
C905 C906 1.362 1_565 S
C906 H898 0.930 . S
C906 C905 1.362 1_545 S
C906 C909 1.409 . S
C907 H899 0.930 . S
C907 C908 1.355 . S
C907 C909 1.415 . S
C908 C907 1.355 . S
C908 C910 1.419 . S
C909 C904 1.425 . S
C909 C906 1.409 . S
C909 C907 1.415 . S
C910 H900 0.930 . S
C910 C908 1.419 . S
C910 C911 1.362 . S
C911 H901 0.930 . S
C911 C904 1.409 . S
C911 C910 1.362 . S
H912 C918 0.930 . S
H913 C921 0.930 . S
H914 C922 0.930 . S
H915 C923 0.930 . S
H916 C926 0.930 . S
H917 C927 0.930 . S
C918 H912 0.930 . S
C918 C919 1.355 . S
C918 C920 1.415 . S
C919 C918 1.355 . S
C919 C921 1.419 . S
C920 C918 1.415 . S
C920 C925 1.425 . S
C920 C927 1.409 . S
C921 H913 0.930 . S
C921 C919 1.419 . S
C921 C922 1.362 . S
C922 H914 0.930 . S
C922 C921 1.362 . S
C922 C925 1.409 . S
C923 H915 0.930 . S
C923 C924 1.355 . S
C923 C925 1.415 . S
C924 C923 1.355 . S
C924 C926 1.419 . S
C925 C920 1.425 . S
C925 C922 1.409 . S
C925 C923 1.415 . S
C926 H916 0.930 . S
C926 C924 1.419 . S
C926 C927 1.362 . S
C927 H917 0.930 . S
C927 C920 1.409 . S
C927 C926 1.362 . S
H928 C934 0.930 1_565 S
H929 C937 0.930 . S
H930 C938 0.930 . S
H931 C939 0.930 . S
H932 C942 0.930 . S
H933 C943 0.930 . S
C934 H928 0.930 1_545 S
C934 C935 1.355 . S
C934 C936 1.415 . S
C935 C934 1.355 . S
C935 C937 1.419 . S
C936 C934 1.415 . S
C936 C941 1.425 . S
C936 C943 1.409 . S
C937 H929 0.930 . S
C937 C935 1.419 . S
C937 C938 1.362 . S
C938 H930 0.930 . S
C938 C937 1.362 . S
C938 C941 1.409 . S
C939 H931 0.930 . S
C939 C940 1.355 . S
C939 C941 1.415 . S
C940 C939 1.355 . S
C940 C942 1.419 . S
C941 C936 1.425 . S
C941 C938 1.409 . S
C941 C939 1.415 . S
C942 H932 0.930 . S
C942 C940 1.419 . S
C942 C943 1.362 . S
C943 H933 0.930 . S
C943 C936 1.409 . S
C943 C942 1.362 . S
H944 C950 0.930 . S
H945 C953 0.930 . S
H946 C954 0.930 . S
H947 C955 0.930 . S
H948 C958 0.930 . S
H949 C959 0.930 . S
C950 H944 0.930 . S
C950 C951 1.355 . S
C950 C952 1.415 . S
C951 C950 1.355 . S
C951 C953 1.419 . S
C952 C950 1.415 . S
C952 C957 1.425 . S
C952 C959 1.409 . S
C953 H945 0.930 . S
C953 C951 1.419 . S
C953 C954 1.362 . S
C954 H946 0.930 . S
C954 C953 1.362 . S
C954 C957 1.409 . S
C955 H947 0.930 . S
C955 C956 1.355 . S
C955 C957 1.415 . S
C956 C955 1.355 . S
C956 C958 1.419 . S
C957 C952 1.425 . S
C957 C954 1.409 . S
C957 C955 1.415 . S
C958 H948 0.930 . S
C958 C956 1.419 . S
C958 C959 1.362 . S
C959 H949 0.930 . S
C959 C952 1.409 . S
C959 C958 1.362 . S
H960 C966 0.930 . S
H961 C969 0.930 . S
H962 C970 0.930 . S
H963 C971 0.930 . S
H964 C974 0.930 . S
H965 C975 0.930 . S
C966 H960 0.930 . S
C966 C967 1.355 . S
C966 C968 1.415 . S
C967 C966 1.355 . S
C967 C969 1.419 . S
C968 C966 1.415 . S
C968 C973 1.425 . S
C968 C975 1.409 . S
C969 H961 0.930 . S
C969 C967 1.419 . S
C969 C970 1.362 . S
C970 H962 0.930 . S
C970 C969 1.362 . S
C970 C973 1.409 . S
C971 H963 0.930 . S
C971 C972 1.355 . S
C971 C973 1.415 . S
C972 C971 1.355 . S
C972 C974 1.419 . S
C973 C968 1.425 . S
C973 C970 1.409 . S
C973 C971 1.415 . S
C974 H964 0.930 . S
C974 C972 1.419 . S
C974 C975 1.362 . S
C975 H965 0.930 . S
C975 C968 1.409 . S
C975 C974 1.362 . S
H976 C982 0.930 . S
H977 C985 0.944 . S
H978 C986 0.930 . S
H979 C987 0.930 . S
H980 C990 0.930 . S
H981 C991 0.930 . S
C982 H976 0.930 . S
C982 C983 1.355 . S
C982 C984 1.415 . S
C983 C982 1.355 . S
C983 C985 1.397 1_545 S
C984 C982 1.415 . S
C984 C989 1.425 . S
C984 C991 1.409 . S
C985 H977 0.944 . S
C985 C983 1.397 1_565 S
C985 C986 1.371 . S
C986 H978 0.930 . S
C986 C985 1.371 . S
C986 C989 1.409 1_565 S
C987 H979 0.930 . S
C987 C988 1.355 1_565 S
C987 C989 1.415 1_565 S
C988 C987 1.355 1_545 S
C988 C990 1.419 . S
C989 C984 1.425 . S
C989 C986 1.409 1_545 S
C989 C987 1.415 1_545 S
C990 H980 0.930 . S
C990 C988 1.419 . S
C990 C991 1.362 . S
C991 H981 0.930 . S
C991 C984 1.409 . S
C991 C990 1.362 . S
H992 C998 0.930 . S
H993 C1001 0.930 . S
H994 C1002 0.930 . S
H995 C1003 0.930 . S
H996 C1006 0.930 . S
H997 C1007 0.930 . S
C998 H992 0.930 . S
C998 C999 1.355 . S
C998 C1000 1.415 . S
C999 C998 1.355 . S
C999 C1001 1.419 . S
C1000 C998 1.415 . S
C1000 C1005 1.425 . S
C1000 C1007 1.409 . S
C1001 H993 0.930 . S
C1001 C999 1.419 . S
C1001 C1002 1.362 . S
C1002 H994 0.930 . S
C1002 C1001 1.362 . S
C1002 C1005 1.409 . S
C1003 H995 0.930 . S
C1003 C1004 1.355 . S
C1003 C1005 1.415 . S
C1004 C1003 1.355 . S
C1004 C1006 1.419 . S
C1005 C1000 1.425 . S
C1005 C1002 1.409 . S
C1005 C1003 1.415 . S
C1006 H996 0.930 . S
C1006 C1004 1.419 . S
C1006 C1007 1.362 . S
C1007 H997 0.930 . S
C1007 C1000 1.409 . S
C1007 C1006 1.362 . S
H1008 C1014 0.930 . S
H1009 C1017 0.930 . S
H1010 C1018 0.930 . S
H1011 C1019 0.930 . S
H1012 C1022 0.930 . S
H1013 C1023 0.930 . S
C1014 H1008 0.930 . S
C1014 C1015 1.355 . S
C1014 C1016 1.415 . S
C1015 C1014 1.355 . S
C1015 C1017 1.419 . S
C1016 C1014 1.415 . S
C1016 C1021 1.425 . S
C1016 C1023 1.409 . S
C1017 H1009 0.930 . S
C1017 C1015 1.419 . S
C1017 C1018 1.362 . S
C1018 H1010 0.930 . S
C1018 C1017 1.362 . S
C1018 C1021 1.409 . S
C1019 H1011 0.930 . S
C1019 C1020 1.355 . S
C1019 C1021 1.415 . S
C1020 C1019 1.355 . S
C1020 C1022 1.419 . S
C1021 C1016 1.425 . S
C1021 C1018 1.409 . S
C1021 C1019 1.415 . S
C1022 H1012 0.930 . S
C1022 C1020 1.419 . S
C1022 C1023 1.362 . S
C1023 H1013 0.930 . S
C1023 C1016 1.409 . S
C1023 C1022 1.362 . S
H1024 C1030 0.930 . S
H1025 C1033 0.930 . S
H1026 C1034 0.930 . S
H1027 C1035 0.930 . S
H1028 C1038 0.930 . S
H1029 C1039 0.930 . S
C1030 H1024 0.930 . S
C1030 C1031 1.355 . S
C1030 C1032 1.415 . S
C1031 C1030 1.355 . S
C1031 C1033 1.419 . S
C1032 C1030 1.415 . S
C1032 C1037 1.425 . S
C1032 C1039 1.409 . S
C1033 H1025 0.930 . S
C1033 C1031 1.419 . S
C1033 C1034 1.362 . S
C1034 H1026 0.930 . S
C1034 C1033 1.362 . S
C1034 C1037 1.409 . S
C1035 H1027 0.930 . S
C1035 C1036 1.355 . S
C1035 C1037 1.415 . S
C1036 C1035 1.355 . S
C1036 C1038 1.419 . S
C1037 C1032 1.425 . S
C1037 C1034 1.409 . S
C1037 C1035 1.415 . S
C1038 H1028 0.930 . S
C1038 C1036 1.419 . S
C1038 C1039 1.362 . S
C1039 H1029 0.930 . S
C1039 C1032 1.409 . S
C1039 C1038 1.362 . S
H1040 C1046 0.930 . S
H1041 C1049 0.930 . S
H1042 C1050 0.942 . S
H1043 C1051 0.930 . S
H1044 C1054 0.930 . S
H1045 C1055 0.930 . S
C1046 H1040 0.930 . S
C1046 C1047 1.355 . S
C1046 C1048 1.415 . S
C1047 C1046 1.355 . S
C1047 C1049 1.419 1_655 S
C1048 C1046 1.415 . S
C1048 C1053 1.425 . S
C1048 C1055 1.409 1_545 S
C1049 H1041 0.930 . S
C1049 C1047 1.419 1_455 S
C1049 C1050 1.373 . S
C1050 H1042 0.942 . S
C1050 C1049 1.373 . S
C1050 C1053 1.387 1_455 S
C1051 H1043 0.930 . S
C1051 C1052 1.355 . S
C1051 C1053 1.415 . S
C1052 C1051 1.355 . S
C1052 C1054 1.419 1_545 S
C1053 C1048 1.425 . S
C1053 C1050 1.387 1_655 S
C1053 C1051 1.415 . S
C1054 H1044 0.930 . S
C1054 C1052 1.419 1_565 S
C1054 C1055 1.362 . S
C1055 H1045 0.930 . S
C1055 C1048 1.409 1_565 S
C1055 C1054 1.362 . S
H1056 C1062 0.930 . S
H1057 C1065 0.930 . S
H1058 C1066 0.930 . S
H1059 C1067 0.930 . S
H1060 C1070 0.930 . S
H1061 C1071 0.930 . S
C1062 H1056 0.930 . S
C1062 C1063 1.355 . S
C1062 C1064 1.415 . S
C1063 C1062 1.355 . S
C1063 C1065 1.419 . S
C1064 C1062 1.415 . S
C1064 C1069 1.425 . S
C1064 C1071 1.409 . S
C1065 H1057 0.930 . S
C1065 C1063 1.419 . S
C1065 C1066 1.362 . S
C1066 H1058 0.930 . S
C1066 C1065 1.362 . S
C1066 C1069 1.409 . S
C1067 H1059 0.930 . S
C1067 C1068 1.355 . S
C1067 C1069 1.415 . S
C1068 C1067 1.355 . S
C1068 C1070 1.419 . S
C1069 C1064 1.425 . S
C1069 C1066 1.409 . S
C1069 C1067 1.415 . S
C1070 H1060 0.930 . S
C1070 C1068 1.419 . S
C1070 C1071 1.362 . S
C1071 H1061 0.930 . S
C1071 C1064 1.409 . S
C1071 C1070 1.362 . S
H1072 C1078 0.930 . S
H1073 C1081 0.930 . S
H1074 C1082 0.930 . S
H1075 C1083 0.930 . S
H1076 C1086 0.930 . S
H1077 C1087 0.930 . S
C1078 H1072 0.930 . S
C1078 C1079 1.355 . S
C1078 C1080 1.415 . S
C1079 C1078 1.355 . S
C1079 C1081 1.419 . S
C1080 C1078 1.415 . S
C1080 C1085 1.425 . S
C1080 C1087 1.409 . S
C1081 H1073 0.930 . S
C1081 C1079 1.419 . S
C1081 C1082 1.362 . S
C1082 H1074 0.930 . S
C1082 C1081 1.362 . S
C1082 C1085 1.409 . S
C1083 H1075 0.930 . S
C1083 C1084 1.355 . S
C1083 C1085 1.415 . S
C1084 C1083 1.355 . S
C1084 C1086 1.419 . S
C1085 C1080 1.425 . S
C1085 C1082 1.409 . S
C1085 C1083 1.415 . S
C1086 H1076 0.930 . S
C1086 C1084 1.419 . S
C1086 C1087 1.362 . S
C1087 H1077 0.930 . S
C1087 C1080 1.409 . S
C1087 C1086 1.362 . S
H1088 C1094 0.930 . S
H1089 C1097 0.930 . S
H1090 C1098 0.930 . S
H1091 C1099 0.930 . S
H1092 C1102 0.930 . S
H1093 C1103 0.930 . S
C1094 H1088 0.930 . S
C1094 C1095 1.355 . S
C1094 C1096 1.415 . S
C1095 C1094 1.355 . S
C1095 C1097 1.419 . S
C1096 C1094 1.415 . S
C1096 C1101 1.425 . S
C1096 C1103 1.409 . S
C1097 H1089 0.930 . S
C1097 C1095 1.419 . S
C1097 C1098 1.362 . S
C1098 H1090 0.930 . S
C1098 C1097 1.362 . S
C1098 C1101 1.409 . S
C1099 H1091 0.930 . S
C1099 C1100 1.355 . S
C1099 C1101 1.415 . S
C1100 C1099 1.355 . S
C1100 C1102 1.419 . S
C1101 C1096 1.425 . S
C1101 C1098 1.409 . S
C1101 C1099 1.415 . S
C1102 H1092 0.930 . S
C1102 C1100 1.419 . S
C1102 C1103 1.362 . S
C1103 H1093 0.930 . S
C1103 C1096 1.409 . S
C1103 C1102 1.362 . S
H1104 C1110 0.930 . S
H1105 C1113 0.930 . S
H1106 C1114 0.930 . S
H1107 C1115 0.930 . S
H1108 C1118 0.928 1_455 S
H1109 C1119 0.930 . S
C1110 H1104 0.930 . S
C1110 C1111 1.355 . S
C1110 C1112 1.415 . S
C1111 C1110 1.355 . S
C1111 C1113 1.419 1_556 S
C1112 C1110 1.415 . S
C1112 C1117 1.425 . S
C1112 C1119 1.409 . S
C1113 H1105 0.930 . S
C1113 C1111 1.419 1_554 S
C1113 C1114 1.362 . S
C1114 H1106 0.930 . S
C1114 C1113 1.362 . S
C1114 C1117 1.409 1_554 S
C1115 H1107 0.930 . S
C1115 C1116 1.355 . S
C1115 C1117 1.415 . S
C1116 C1115 1.355 . S
C1116 C1118 1.419 . S
C1117 C1112 1.425 . S
C1117 C1114 1.409 1_556 S
C1117 C1115 1.415 . S
C1118 H1108 0.928 1_655 S
C1118 C1116 1.419 . S
C1118 C1119 1.362 . S
C1119 H1109 0.930 . S
C1119 C1112 1.409 . S
C1119 C1118 1.362 . S
H1120 C1126 0.930 . S
H1121 C1129 0.930 . S
H1122 C1130 0.930 . S
H1123 C1131 0.930 . S
H1124 C1134 0.930 . S
H1125 C1135 0.930 . S
C1126 H1120 0.930 . S
C1126 C1127 1.355 . S
C1126 C1128 1.415 . S
C1127 C1126 1.355 . S
C1127 C1129 1.419 . S
C1128 C1126 1.415 . S
C1128 C1133 1.425 . S
C1128 C1135 1.409 . S
C1129 H1121 0.930 . S
C1129 C1127 1.419 . S
C1129 C1130 1.362 . S
C1130 H1122 0.930 . S
C1130 C1129 1.362 . S
C1130 C1133 1.409 . S
C1131 H1123 0.930 . S
C1131 C1132 1.355 . S
C1131 C1133 1.415 . S
C1132 C1131 1.355 . S
C1132 C1134 1.419 . S
C1133 C1128 1.425 . S
C1133 C1130 1.409 . S
C1133 C1131 1.415 . S
C1134 H1124 0.930 . S
C1134 C1132 1.419 . S
C1134 C1135 1.362 . S
C1135 H1125 0.930 . S
C1135 C1128 1.409 . S
C1135 C1134 1.362 . S
H1136 C1142 0.930 1_554 S
H1137 C1145 0.930 1_655 S
H1138 C1146 0.930 . S
H1139 C1147 0.930 1_655 S
H1140 C1150 0.930 . S
H1141 C1151 0.930 . S
C1142 H1136 0.930 1_556 S
C1142 C1143 1.355 . S
C1142 C1144 1.415 . S
C1143 C1142 1.355 . S
C1143 C1145 1.419 . S
C1144 C1142 1.415 . S
C1144 C1149 1.425 . S
C1144 C1151 1.409 . S
C1145 H1137 0.930 1_455 S
C1145 C1143 1.419 . S
C1145 C1146 1.362 1_455 S
C1146 H1138 0.930 . S
C1146 C1145 1.362 1_655 S
C1146 C1149 1.409 1_655 S
C1147 H1139 0.930 1_455 S
C1147 C1148 1.355 . S
C1147 C1149 1.415 . S
C1148 C1147 1.355 . S
C1148 C1150 1.419 . S
C1149 C1144 1.425 . S
C1149 C1146 1.409 1_455 S
C1149 C1147 1.415 . S
C1150 H1140 0.930 . S
C1150 C1148 1.419 . S
C1150 C1151 1.362 . S
C1151 H1141 0.930 . S
C1151 C1144 1.409 . S
C1151 C1150 1.362 . S
H1152 C1158 0.930 . S
H1153 C1161 0.930 . S
H1154 C1162 0.930 . S
H1155 C1163 0.930 . S
H1156 C1166 0.930 . S
H1157 C1167 0.930 . S
C1158 H1152 0.930 . S
C1158 C1159 1.355 . S
C1158 C1160 1.415 . S
C1159 C1158 1.355 . S
C1159 C1161 1.419 . S
C1160 C1158 1.415 . S
C1160 C1165 1.425 . S
C1160 C1167 1.409 . S
C1161 H1153 0.930 . S
C1161 C1159 1.419 . S
C1161 C1162 1.362 . S
C1162 H1154 0.930 . S
C1162 C1161 1.362 . S
C1162 C1165 1.409 . S
C1163 H1155 0.930 . S
C1163 C1164 1.355 . S
C1163 C1165 1.415 . S
C1164 C1163 1.355 . S
C1164 C1166 1.419 . S
C1165 C1160 1.425 . S
C1165 C1162 1.409 . S
C1165 C1163 1.415 . S
C1166 H1156 0.930 . S
C1166 C1164 1.419 . S
C1166 C1167 1.362 . S
C1167 H1157 0.930 . S
C1167 C1160 1.409 . S
C1167 C1166 1.362 . S
H1168 C1174 0.930 . S
H1169 C1177 0.942 . S
H1170 C1178 0.930 . S
H1171 C1179 0.930 . S
H1172 C1182 0.930 . S
H1173 C1183 0.930 . S
C1174 H1168 0.930 . S
C1174 C1175 1.355 . S
C1174 C1176 1.415 . S
C1175 C1174 1.355 . S
C1175 C1177 1.416 1_554 S
C1176 C1174 1.415 . S
C1176 C1181 1.425 . S
C1176 C1183 1.409 . S
C1177 H1169 0.942 . S
C1177 C1175 1.416 1_556 S
C1177 C1178 1.354 1_556 S
C1178 H1170 0.930 . S
C1178 C1177 1.354 1_554 S
C1178 C1181 1.409 . S
C1179 H1171 0.930 . S
C1179 C1180 1.355 . S
C1179 C1181 1.415 . S
C1180 C1179 1.355 . S
C1180 C1182 1.419 . S
C1181 C1176 1.425 . S
C1181 C1178 1.409 . S
C1181 C1179 1.415 . S
C1182 H1172 0.930 . S
C1182 C1180 1.419 . S
C1182 C1183 1.362 . S
C1183 H1173 0.930 . S
C1183 C1176 1.409 . S
C1183 C1182 1.362 . S
H1184 C1190 0.930 . S
H1185 C1193 0.930 . S
H1186 C1194 0.930 . S
H1187 C1195 0.930 . S
H1188 C1198 0.930 . S
H1189 C1199 0.930 . S
C1190 H1184 0.930 . S
C1190 C1191 1.355 . S
C1190 C1192 1.415 . S
C1191 C1190 1.355 . S
C1191 C1193 1.419 . S
C1192 C1190 1.415 . S
C1192 C1197 1.425 . S
C1192 C1199 1.409 . S
C1193 H1185 0.930 . S
C1193 C1191 1.419 . S
C1193 C1194 1.362 . S
C1194 H1186 0.930 . S
C1194 C1193 1.362 . S
C1194 C1197 1.409 . S
C1195 H1187 0.930 . S
C1195 C1196 1.355 . S
C1195 C1197 1.415 . S
C1196 C1195 1.355 . S
C1196 C1198 1.419 . S
C1197 C1192 1.425 . S
C1197 C1194 1.409 . S
C1197 C1195 1.415 . S
C1198 H1188 0.930 . S
C1198 C1196 1.419 . S
C1198 C1199 1.362 . S
C1199 H1189 0.930 . S
C1199 C1192 1.409 . S
C1199 C1198 1.362 . S
H1200 C1206 0.930 . S
H1201 C1209 0.930 . S
H1202 C1210 0.930 . S
H1203 C1211 0.930 . S
H1204 C1214 0.930 . S
H1205 C1215 0.930 . S
C1206 H1200 0.930 . S
C1206 C1207 1.355 . S
C1206 C1208 1.415 . S
C1207 C1206 1.355 . S
C1207 C1209 1.419 . S
C1208 C1206 1.415 . S
C1208 C1213 1.425 . S
C1208 C1215 1.409 . S
C1209 H1201 0.930 . S
C1209 C1207 1.419 . S
C1209 C1210 1.362 . S
C1210 H1202 0.930 . S
C1210 C1209 1.362 . S
C1210 C1213 1.409 . S
C1211 H1203 0.930 . S
C1211 C1212 1.355 . S
C1211 C1213 1.415 . S
C1212 C1211 1.355 . S
C1212 C1214 1.419 . S
C1213 C1208 1.425 . S
C1213 C1210 1.409 . S
C1213 C1211 1.415 . S
C1214 H1204 0.930 . S
C1214 C1212 1.419 . S
C1214 C1215 1.362 . S
C1215 H1205 0.930 . S
C1215 C1208 1.409 . S
C1215 C1214 1.362 . S
H1216 C1222 0.930 . S
H1217 C1225 0.930 . S
H1218 C1226 0.930 . S
H1219 C1227 0.930 . S
H1220 C1230 0.930 . S
H1221 C1231 0.930 . S
C1222 H1216 0.930 . S
C1222 C1223 1.355 . S
C1222 C1224 1.415 . S
C1223 C1222 1.355 . S
C1223 C1225 1.419 . S
C1224 C1222 1.415 . S
C1224 C1229 1.425 . S
C1224 C1231 1.409 . S
C1225 H1217 0.930 . S
C1225 C1223 1.419 . S
C1225 C1226 1.362 . S
C1226 H1218 0.930 . S
C1226 C1225 1.362 . S
C1226 C1229 1.409 . S
C1227 H1219 0.930 . S
C1227 C1228 1.355 . S
C1227 C1229 1.415 . S
C1228 C1227 1.355 . S
C1228 C1230 1.419 . S
C1229 C1224 1.425 . S
C1229 C1226 1.409 . S
C1229 C1227 1.415 . S
C1230 H1220 0.930 . S
C1230 C1228 1.419 . S
C1230 C1231 1.362 . S
C1231 H1221 0.930 . S
C1231 C1224 1.409 . S
C1231 C1230 1.362 . S
H1232 C1238 0.930 . S
H1233 C1241 0.930 . S
H1234 C1242 0.930 . S
H1235 C1243 0.930 . S
H1236 C1246 0.930 . S
H1237 C1247 0.930 . S
C1238 H1232 0.930 . S
C1238 C1239 1.355 . S
C1238 C1240 1.415 . S
C1239 C1238 1.355 . S
C1239 C1241 1.419 . S
C1240 C1238 1.415 . S
C1240 C1245 1.425 . S
C1240 C1247 1.409 . S
C1241 H1233 0.930 . S
C1241 C1239 1.419 . S
C1241 C1242 1.362 . S
C1242 H1234 0.930 . S
C1242 C1241 1.362 . S
C1242 C1245 1.409 . S
C1243 H1235 0.930 . S
C1243 C1244 1.355 . S
C1243 C1245 1.415 . S
C1244 C1243 1.355 . S
C1244 C1246 1.419 . S
C1245 C1240 1.425 . S
C1245 C1242 1.409 . S
C1245 C1243 1.415 . S
C1246 H1236 0.930 . S
C1246 C1244 1.419 . S
C1246 C1247 1.362 . S
C1247 H1237 0.930 . S
C1247 C1240 1.409 . S
C1247 C1246 1.362 . S
H1248 C1254 0.930 . S
H1249 C1257 0.930 . S
H1250 C1258 0.930 . S
H1251 C1259 0.930 . S
H1252 C1262 0.930 . S
H1253 C1263 0.930 . S
C1254 H1248 0.930 . S
C1254 C1255 1.355 . S
C1254 C1256 1.415 . S
C1255 C1254 1.355 . S
C1255 C1257 1.419 . S
C1256 C1254 1.415 . S
C1256 C1261 1.425 . S
C1256 C1263 1.409 . S
C1257 H1249 0.930 . S
C1257 C1255 1.419 . S
C1257 C1258 1.362 . S
C1258 H1250 0.930 . S
C1258 C1257 1.362 . S
C1258 C1261 1.409 . S
C1259 H1251 0.930 . S
C1259 C1260 1.355 . S
C1259 C1261 1.415 . S
C1260 C1259 1.355 . S
C1260 C1262 1.419 . S
C1261 C1256 1.425 . S
C1261 C1258 1.409 . S
C1261 C1259 1.415 . S
C1262 H1252 0.930 . S
C1262 C1260 1.419 . S
C1262 C1263 1.362 . S
C1263 H1253 0.930 . S
C1263 C1256 1.409 . S
C1263 C1262 1.362 . S
H1264 C1270 0.930 . S
H1265 C1273 0.930 . S
H1266 C1274 0.930 . S
H1267 C1275 0.930 . S
H1268 C1278 0.930 . S
H1269 C1279 0.930 . S
C1270 H1264 0.930 . S
C1270 C1271 1.355 . S
C1270 C1272 1.415 . S
C1271 C1270 1.355 . S
C1271 C1273 1.419 . S
C1272 C1270 1.415 . S
C1272 C1277 1.425 . S
C1272 C1279 1.409 . S
C1273 H1265 0.930 . S
C1273 C1271 1.419 . S
C1273 C1274 1.362 . S
C1274 H1266 0.930 . S
C1274 C1273 1.362 . S
C1274 C1277 1.409 . S
C1275 H1267 0.930 . S
C1275 C1276 1.355 . S
C1275 C1277 1.415 . S
C1276 C1275 1.355 . S
C1276 C1278 1.419 . S
C1277 C1272 1.425 . S
C1277 C1274 1.409 . S
C1277 C1275 1.415 . S
C1278 H1268 0.930 . S
C1278 C1276 1.419 . S
C1278 C1279 1.362 . S
C1279 H1269 0.930 . S
C1279 C1272 1.409 . S
C1279 C1278 1.362 . S
H1280 C1286 0.921 1_554 S
H1281 C1289 0.930 . S
H1282 C1290 0.930 . S
H1283 C1291 0.930 . S
H1284 C1294 0.930 . S
H1285 C1295 0.930 . S
C1286 H1280 0.921 1_556 S
C1286 C1287 1.362 . S
C1286 C1288 1.415 . S
C1287 C1286 1.362 . S
C1287 C1289 1.419 . S
C1288 C1286 1.415 . S
C1288 C1293 1.425 . S
C1288 C1295 1.409 1_556 S
C1289 H1281 0.930 . S
C1289 C1287 1.419 . S
C1289 C1290 1.362 . S
C1290 H1282 0.930 . S
C1290 C1289 1.362 . S
C1290 C1293 1.409 . S
C1291 H1283 0.930 . S
C1291 C1292 1.355 . S
C1291 C1293 1.415 . S
C1292 C1291 1.355 . S
C1292 C1294 1.419 1_556 S
C1293 C1288 1.425 . S
C1293 C1290 1.409 . S
C1293 C1291 1.415 . S
C1294 H1284 0.930 . S
C1294 C1292 1.419 1_554 S
C1294 C1295 1.362 . S
C1295 H1285 0.930 . S
C1295 C1288 1.409 1_554 S
C1295 C1294 1.362 . S
H1296 C1302 0.930 . S
H1297 C1305 0.930 . S
H1298 C1306 0.930 . S
H1299 C1307 0.930 . S
H1300 C1310 0.930 . S
H1301 C1311 0.930 . S
C1302 H1296 0.930 . S
C1302 C1303 1.355 . S
C1302 C1304 1.415 . S
C1303 C1302 1.355 . S
C1303 C1305 1.419 . S
C1304 C1302 1.415 . S
C1304 C1309 1.425 . S
C1304 C1311 1.409 . S
C1305 H1297 0.930 . S
C1305 C1303 1.419 . S
C1305 C1306 1.362 . S
C1306 H1298 0.930 . S
C1306 C1305 1.362 . S
C1306 C1309 1.409 . S
C1307 H1299 0.930 . S
C1307 C1308 1.355 . S
C1307 C1309 1.415 . S
C1308 C1307 1.355 . S
C1308 C1310 1.419 . S
C1309 C1304 1.425 . S
C1309 C1306 1.409 . S
C1309 C1307 1.415 . S
C1310 H1300 0.930 . S
C1310 C1308 1.419 . S
C1310 C1311 1.362 . S
C1311 H1301 0.930 . S
C1311 C1304 1.409 . S
C1311 C1310 1.362 . S
H1312 C1318 0.930 . S
H1313 C1321 0.930 . S
H1314 C1322 0.930 . S
H1315 C1323 0.930 . S
H1316 C1326 0.930 . S
H1317 C1327 0.930 . S
C1318 H1312 0.930 . S
C1318 C1319 1.355 . S
C1318 C1320 1.415 . S
C1319 C1318 1.355 . S
C1319 C1321 1.419 1_554 S
C1320 C1318 1.415 . S
C1320 C1325 1.425 . S
C1320 C1327 1.409 . S
C1321 H1313 0.930 . S
C1321 C1319 1.419 1_556 S
C1321 C1322 1.362 . S
C1322 H1314 0.930 . S
C1322 C1321 1.362 . S
C1322 C1325 1.409 1_556 S
C1323 H1315 0.930 . S
C1323 C1324 1.355 1_556 S
C1323 C1325 1.415 1_556 S
C1324 C1323 1.355 1_554 S
C1324 C1326 1.419 . S
C1325 C1320 1.425 . S
C1325 C1322 1.409 1_554 S
C1325 C1323 1.415 1_554 S
C1326 H1316 0.930 . S
C1326 C1324 1.419 . S
C1326 C1327 1.362 . S
C1327 H1317 0.930 . S
C1327 C1320 1.409 . S
C1327 C1326 1.362 . S
H1328 C1334 0.930 1_545 S
H1329 C1337 0.930 . S
H1330 C1338 0.930 1_556 S
H1331 C1339 0.944 . S
H1332 C1342 0.930 . S
H1333 C1343 0.901 1_545 S
C1334 H1328 0.930 1_565 S
C1334 C1335 1.355 . S
C1334 C1336 1.415 . S
C1335 C1334 1.355 . S
C1335 C1337 1.419 . S
C1336 C1334 1.415 . S
C1336 C1341 1.425 . S
C1336 C1343 1.409 . S
C1337 H1329 0.930 . S
C1337 C1335 1.419 . S
C1337 C1338 1.362 . S
C1338 H1330 0.930 1_554 S
C1338 C1337 1.362 . S
C1338 C1341 1.409 . S
C1339 H1331 0.944 . S
C1339 C1340 1.355 . S
C1339 C1341 1.415 . S
C1340 C1339 1.355 . S
C1340 C1342 1.419 . S
C1341 C1336 1.425 . S
C1341 C1338 1.409 . S
C1341 C1339 1.415 . S
C1342 H1332 0.930 . S
C1342 C1340 1.419 . S
C1342 C1343 1.362 . S
C1343 H1333 0.901 1_565 S
C1343 C1336 1.409 . S
C1343 C1342 1.362 . S
C588 C146 1.416 . S
C583 C50 1.423 . S
C604 C194 1.539 . S
C599 C61 1.618 1_455 S
C615 C67 1.431 . S
C620 C230 1.339 . S
C636 C266 1.536 . S
C631 C41 1.577 . S
C652 C292 1.437 . S
C647 C95 1.432 . S
C668 C328 1.553 . S
C663 C113 1.554 . S
C679 C106 1.473 . S
C684 C363 1.473 . S
C700 C400 1.570 1_565 S
C695 C86 1.576 . S
C711 C104 1.421 . S
C716 C434 1.415 . S
C732 C482 1.538 . S
C727 C88 1.566 . S
C743 C94 1.453 . S
C748 C435 1.444 . S
C764 C472 1.556 . S
C759 C112 1.563 . S
C775 C70 1.466 . S
C780 C518 1.437 . S
C791 C40 1.582 . S
C796 C507 1.583 . S
C807 C49 1.490 . S
C812 C508 1.490 . S
C823 C59 1.603 . S
C828 C506 1.592 1_655 S
C839 C34 1.434 . S
C844 C254 1.426 . S
C855 C133 1.413 . S
C860 C255 1.429 . S
C876 C158 1.519 . S
C871 C139 1.606 1_565 S
C892 C183 1.473 . S
C887 C77 1.466 . S
C903 C43 1.575 1_545 S
C908 C290 1.577 . S
C924 C398 1.443 . S
C919 C103 1.453 . S
C940 C291 1.557 . S
C935 C85 1.567 1_545 S
C956 C364 1.552 . S
C951 C115 1.554 . S
C972 C362 1.424 . S
C967 C131 1.430 . S
C983 C142 1.614 . S
C988 C410 1.564 . S
C999 C76 1.453 . S
C1004 C302 1.383 . S
C1020 C338 1.502 . S
C1015 C122 1.579 . S
C1031 C32 1.434 . S
C1036 C220 1.438 . S
C1052 C256 1.534 . S
C1047 C5 1.540 1_655 S
C1068 C147 1.474 . S
C1063 C16 1.479 . S
C1084 C184 1.569 . S
C1079 C23 1.577 1_455 S
C1095 C14 1.419 . S
C1100 C470 1.411 . S
C1111 C25 1.559 1_556 S
C1116 C446 1.542 . S
C1127 C31 1.431 . S
C1132 C471 1.442 . S
C1143 C4 1.566 1_556 S
C1148 C436 1.568 . S
C1164 C554 1.432 . S
C1159 C79 1.469 . S
C1180 C543 1.582 . S
C1175 C121 1.582 1_554 S
C1196 C544 1.462 . S
C1191 C130 1.460 . S
C1207 C140 1.610 1_554 S
C1212 C542 1.614 . S
C1223 C97 1.442 . S
C1228 C326 1.436 . S
C1244 C327 1.429 . S
C1239 C52 1.412 . S
C1260 C374 1.518 . S
C1255 C58 1.605 . S
C1276 C399 1.471 . S
C1271 C68 1.472 . S
C1287 C124 1.579 . S
C1292 C218 1.562 1_556 S
C1308 C182 1.482 . S
C1303 C13 1.484 . S
C1319 C22 1.566 . S
C1324 C219 1.554 . S
C1340 C148 1.568 . S
C1335 C7 1.568 1_565 S
