# Generated by pormake.
# Topology pyr, (3,6)-cn, num edge types: 1
# Building blocks:
#     Node 0, Type 0, BuildingBlock: KAKCAD_clean_linker_0, # of connection points: 3
#     Node 1, Type 0, BuildingBlock: KAKCAD_clean_linker_0, # of connection points: 3
#     Node 2, Type 0, BuildingBlock: KAKCAD_clean_linker_0, # of connection points: 3
#     Node 3, Type 0, BuildingBlock: KAKCAD_clean_linker_0, # of connection points: 3
#     Node 4, Type 0, BuildingBlock: KAKCAD_clean_linker_0, # of connection points: 3
#     Node 5, Type 0, BuildingBlock: KAKCAD_clean_linker_0, # of connection points: 3
#     Node 6, Type 0, BuildingBlock: KAKCAD_clean_linker_0, # of connection points: 3
#     Node 7, Type 0, BuildingBlock: KAKCAD_clean_linker_0, # of connection points: 3
#     Node 8, Type 1, BuildingBlock: BETFEN_clean_sbu_0, # of connection points: 6
#     Node 9, Type 1, BuildingBlock: BETFEN_clean_sbu_0, # of connection points: 6
#     Node 10, Type 1, BuildingBlock: BETFEN_clean_sbu_0, # of connection points: 6
#     Node 11, Type 1, BuildingBlock: BETFEN_clean_sbu_0, # of connection points: 6
#     Edge 12, Type (0, 1), BuildingBlock: ZUJKAS_clean_linker_0, # of connection points: 2
#     Edge 13, Type (0, 1), BuildingBlock: ZUJKAS_clean_linker_0, # of connection points: 2
#     Edge 14, Type (0, 1), BuildingBlock: ZUJKAS_clean_linker_0, # of connection points: 2
#     Edge 15, Type (0, 1), BuildingBlock: ZUJKAS_clean_linker_0, # of connection points: 2
#     Edge 16, Type (0, 1), BuildingBlock: ZUJKAS_clean_linker_0, # of connection points: 2
#     Edge 17, Type (0, 1), BuildingBlock: ZUJKAS_clean_linker_0, # of connection points: 2
#     Edge 18, Type (0, 1), BuildingBlock: ZUJKAS_clean_linker_0, # of connection points: 2
#     Edge 19, Type (0, 1), BuildingBlock: ZUJKAS_clean_linker_0, # of connection points: 2
#     Edge 20, Type (0, 1), BuildingBlock: ZUJKAS_clean_linker_0, # of connection points: 2
#     Edge 21, Type (0, 1), BuildingBlock: ZUJKAS_clean_linker_0, # of connection points: 2
#     Edge 22, Type (0, 1), BuildingBlock: ZUJKAS_clean_linker_0, # of connection points: 2
#     Edge 23, Type (0, 1), BuildingBlock: ZUJKAS_clean_linker_0, # of connection points: 2
#     Edge 24, Type (0, 1), BuildingBlock: ZUJKAS_clean_linker_0, # of connection points: 2
#     Edge 25, Type (0, 1), BuildingBlock: ZUJKAS_clean_linker_0, # of connection points: 2
#     Edge 26, Type (0, 1), BuildingBlock: ZUJKAS_clean_linker_0, # of connection points: 2
#     Edge 27, Type (0, 1), BuildingBlock: ZUJKAS_clean_linker_0, # of connection points: 2
#     Edge 28, Type (0, 1), BuildingBlock: ZUJKAS_clean_linker_0, # of connection points: 2
#     Edge 29, Type (0, 1), BuildingBlock: ZUJKAS_clean_linker_0, # of connection points: 2
#     Edge 30, Type (0, 1), BuildingBlock: ZUJKAS_clean_linker_0, # of connection points: 2
#     Edge 31, Type (0, 1), BuildingBlock: ZUJKAS_clean_linker_0, # of connection points: 2
#     Edge 32, Type (0, 1), BuildingBlock: ZUJKAS_clean_linker_0, # of connection points: 2
#     Edge 33, Type (0, 1), BuildingBlock: ZUJKAS_clean_linker_0, # of connection points: 2
#     Edge 34, Type (0, 1), BuildingBlock: ZUJKAS_clean_linker_0, # of connection points: 2
#     Edge 35, Type (0, 1), BuildingBlock: ZUJKAS_clean_linker_0, # of connection points: 2
# Relax obj value: 0.110
# Max RMSD: 0.216
# Mean RMSD: 0.104
data_MOF--net-pyr--node1-BETFEN_clean_sbu_0--node2-KAKCAD_clean_linker_0--edge1-ZUJKAS_clean_linker_0
_symmetry_space_group_name_H-M    P1
_symmetry_Int_Tables_number       1
_symmetry_cell_setting            triclinic
loop_
_symmetry_equiv_pos_as_xyz
'x, y, z'
_cell_length_a     56.029176
_cell_length_b     60.412564
_cell_length_c     57.99812
_cell_angle_alpha  91.300636
_cell_angle_beta   98.175303
_cell_angle_gamma 105.45459
loop_
_atom_site_label
_atom_site_type_symbol
_atom_site_fract_x
_atom_site_fract_y
_atom_site_fract_z
_atom_type_partial_charge
C0 C 0.26066 0.28041 0.31725 0.0
C1 C 0.27245 0.27164 0.33656 0.0
C2 C 0.27413 0.29014 0.2998 0.0
C3 C 0.29972 0.29136 0.30125 0.0
C4 C 0.31183 0.28374 0.32118 0.0
C5 C 0.29833 0.27399 0.33866 0.0
C6 C 0.31285 0.29834 0.28097 0.0
C7 C 0.30823 0.31636 0.26775 0.0
C8 C 0.31714 0.32057 0.24635 0.0
C9 C 0.33193 0.30717 0.23885 0.0
C10 C 0.33715 0.28932 0.25204 0.0
C11 C 0.32763 0.28513 0.27313 0.0
C12 C 0.35031 0.27355 0.24273 0.0
C13 C 0.34453 0.26567 0.21907 0.0
C14 C 0.3677 0.26531 0.25757 0.0
C15 C 0.37871 0.24923 0.24901 0.0
C16 C 0.37262 0.24114 0.22542 0.0
C17 C 0.3087 0.33707 0.23065 0.0
C18 C 0.2839 0.33861 0.22883 0.0
C19 C 0.32455 0.35011 0.21616 0.0
C20 C 0.31553 0.36377 0.19979 0.0
C21 C 0.29063 0.36492 0.19786 0.0
C22 C 0.27504 0.35246 0.21275 0.0
C23 C 0.35559 0.2497 0.21052 0.0
H24 H 0.24068 0.27858 0.31491 0.0
H25 H 0.26411 0.29552 0.28453 0.0
H26 H 0.3316 0.28474 0.32294 0.0
H27 H 0.30803 0.2677 0.35351 0.0
H28 H 0.29702 0.32671 0.27388 0.0
H29 H 0.33032 0.27053 0.28265 0.0
H30 H 0.33855 0.30995 0.22221 0.0
H31 H 0.3308 0.27125 0.20727 0.0
H32 H 0.37271 0.27122 0.27584 0.0
H33 H 0.39198 0.24311 0.26084 0.0
H34 H 0.2709 0.32841 0.23919 0.0
H35 H 0.34384 0.34957 0.21727 0.0
H36 H 0.35017 0.2435 0.19235 0.0
H37 H 0.25562 0.35269 0.21135 0.0
H38 H 0.32795 0.37335 0.18858 0.0
C39 C 0.29895 0.84031 0.77824 0.0
C40 C 0.32522 0.84771 0.78369 0.0
C41 C 0.28743 0.83079 0.75591 0.0
C42 C 0.30194 0.82852 0.73857 0.0
C43 C 0.3282 0.83561 0.74417 0.0
C44 C 0.33969 0.84506 0.76646 0.0
C45 C 0.28986 0.81963 0.71444 0.0
C46 C 0.2694 0.82681 0.70359 0.0
C47 C 0.25902 0.81984 0.68022 0.0
C48 C 0.26912 0.8053 0.66767 0.0
C49 C 0.28951 0.79785 0.67832 0.0
C50 C 0.29961 0.80498 0.70173 0.0
C51 C 0.30095 0.78325 0.66499 0.0
C52 C 0.28601 0.76374 0.65115 0.0
C53 C 0.32713 0.78853 0.66658 0.0
C54 C 0.3382 0.77439 0.65495 0.0
C55 C 0.32335 0.75459 0.64149 0.0
C56 C 0.23869 0.8291 0.66872 0.0
C57 C 0.21817 0.82941 0.67996 0.0
C58 C 0.24057 0.83915 0.64723 0.0
C59 C 0.22278 0.8501 0.63761 0.0
C60 C 0.2026 0.85107 0.64919 0.0
C61 C 0.20026 0.84016 0.67025 0.0
C62 C 0.29712 0.74945 0.6396 0.0
H63 H 0.2873 0.84189 0.79123 0.0
H64 H 0.26716 0.82522 0.75222 0.0
H65 H 0.33993 0.83449 0.7311 0.0
H66 H 0.35996 0.85097 0.76998 0.0
H67 H 0.26228 0.83875 0.713 0.0
H68 H 0.31511 0.799 0.7101 0.0
H69 H 0.26142 0.80013 0.64953 0.0
H70 H 0.26578 0.75924 0.6497 0.0
H71 H 0.3391 0.8036 0.67691 0.0
H72 H 0.35845 0.77869 0.65697 0.0
H73 H 0.21615 0.82155 0.69644 0.0
H74 H 0.25637 0.83939 0.63834 0.0
H75 H 0.28521 0.73439 0.62923 0.0
H76 H 0.18469 0.84012 0.67939 0.0
H77 H 0.2254 0.85856 0.62153 0.0
C78 C 0.71478 0.38828 0.86806 0.0
C79 C 0.73358 0.37744 0.87553 0.0
C80 C 0.69176 0.37566 0.85554 0.0
C81 C 0.68698 0.3519 0.85026 0.0
C82 C 0.70577 0.34106 0.85773 0.0
C83 C 0.7288 0.35369 0.87019 0.0
C84 C 0.66245 0.33847 0.83702 0.0
C85 C 0.65107 0.34748 0.81773 0.0
C86 C 0.62776 0.33514 0.80516 0.0
C87 C 0.61582 0.31321 0.81207 0.0
C88 C 0.62707 0.30383 0.83139 0.0
C89 C 0.65032 0.31668 0.8437 0.0
C90 C 0.61472 0.28097 0.83955 0.0
C91 C 0.58933 0.27508 0.8424 0.0
C92 C 0.62899 0.26566 0.84654 0.0
C93 C 0.61858 0.24561 0.85723 0.0
C94 C 0.59357 0.24026 0.86124 0.0
C95 C 0.61659 0.34554 0.78474 0.0
C96 C 0.61739 0.369 0.78621 0.0
C97 C 0.60712 0.33288 0.76321 0.0
C98 C 0.59984 0.34379 0.74334 0.0
C99 C 0.60191 0.36755 0.74463 0.0
C100 C 0.61018 0.37985 0.76645 0.0
C101 C 0.57886 0.25494 0.85315 0.0
H102 H 0.71792 0.40658 0.8717 0.0
H103 H 0.67759 0.38449 0.85023 0.0
H104 H 0.70277 0.32283 0.85376 0.0
H105 H 0.74277 0.34475 0.87591 0.0
H106 H 0.66074 0.36402 0.81211 0.0
H107 H 0.6587 0.30995 0.85902 0.0
H108 H 0.59787 0.30353 0.80251 0.0
H109 H 0.57787 0.28658 0.83734 0.0
H110 H 0.64848 0.26946 0.84419 0.0
H111 H 0.63029 0.23443 0.86269 0.0
H112 H 0.62412 0.37914 0.80264 0.0
H113 H 0.6064 0.31482 0.76148 0.0
H114 H 0.55957 0.25142 0.85604 0.0
H115 H 0.61139 0.39802 0.76823 0.0
H116 H 0.59359 0.33381 0.72679 0.0
C117 C 0.86757 0.61656 0.24867 0.0
C118 C 0.89357 0.62052 0.24866 0.0
C119 C 0.85821 0.62538 0.26718 0.0
C120 C 0.87447 0.63873 0.28632 0.0
C121 C 0.90046 0.6427 0.28629 0.0
C122 C 0.90981 0.63367 0.26792 0.0
C123 C 0.86447 0.64884 0.30589 0.0
C124 C 0.84271 0.63613 0.31459 0.0
C125 C 0.83298 0.64581 0.33239 0.0
C126 C 0.84547 0.66832 0.34159 0.0
C127 C 0.86696 0.68156 0.33342 0.0
C128 C 0.87644 0.67154 0.31569 0.0
C129 C 0.87888 0.70587 0.34363 0.0
C130 C 0.86378 0.71986 0.34939 0.0
C131 C 0.90509 0.71497 0.34898 0.0
C132 C 0.91573 0.73697 0.36049 0.0
C133 C 0.90048 0.7505 0.36704 0.0
C134 C 0.8097 0.63311 0.34178 0.0
C135 C 0.79153 0.64452 0.34544 0.0
C136 C 0.80632 0.61055 0.34909 0.0
C137 C 0.78599 0.6002 0.36068 0.0
C138 C 0.76836 0.61206 0.36519 0.0
C139 C 0.77126 0.6342 0.35683 0.0
C140 C 0.87436 0.74168 0.36093 0.0
H141 H 0.85431 0.60639 0.23441 0.0
H142 H 0.83812 0.62202 0.26626 0.0
H143 H 0.91372 0.65268 0.30066 0.0
H144 H 0.92992 0.63737 0.26867 0.0
H145 H 0.83326 0.61877 0.30747 0.0
H146 H 0.89269 0.68173 0.30897 0.0
H147 H 0.83855 0.67549 0.35574 0.0
H148 H 0.84357 0.71388 0.34508 0.0
H149 H 0.91739 0.70478 0.34499 0.0
H150 H 0.93592 0.74305 0.36491 0.0
H151 H 0.79319 0.66174 0.33974 0.0
H152 H 0.81997 0.60127 0.34675 0.0
H153 H 0.86193 0.75169 0.36505 0.0
H154 H 0.75788 0.64378 0.35918 0.0
H155 H 0.78464 0.58319 0.36682 0.0
C156 C 0.76806 0.7385 0.70986 0.0
C157 C 0.78042 0.76196 0.70921 0.0
C158 C 0.75078 0.73134 0.72528 0.0
C159 C 0.74535 0.74757 0.74001 0.0
C160 C 0.75737 0.77103 0.7389 0.0
C161 C 0.77466 0.77812 0.7237 0.0
C162 C 0.72851 0.74036 0.75765 0.0
C163 C 0.73143 0.72275 0.77225 0.0
C164 C 0.71885 0.71865 0.79169 0.0
C165 C 0.70279 0.73203 0.79615 0.0
C166 C 0.69943 0.74954 0.78154 0.0
C167 C 0.71191 0.75316 0.76202 0.0
C168 C 0.68552 0.76586 0.78824 0.0
C169 C 0.66323 0.75817 0.79775 0.0
C170 C 0.69548 0.78961 0.78648 0.0
C171 C 0.68385 0.80532 0.79455 0.0
C172 C 0.66205 0.79773 0.80475 0.0
C173 C 0.72522 0.70256 0.80889 0.0
C174 C 0.72673 0.68076 0.80151 0.0
C175 C 0.73201 0.70979 0.83268 0.0
C176 C 0.7413 0.69598 0.84858 0.0
C177 C 0.74385 0.67454 0.84109 0.0
C178 C 0.73581 0.66682 0.81746 0.0
C179 C 0.65158 0.77396 0.80589 0.0
H180 H 0.77218 0.72569 0.69887 0.0
H181 H 0.74176 0.71315 0.72577 0.0
H182 H 0.75393 0.78394 0.75026 0.0
H183 H 0.78362 0.79634 0.72333 0.0
H184 H 0.74499 0.71345 0.76956 0.0
H185 H 0.70945 0.76664 0.75065 0.0
H186 H 0.69389 0.72952 0.81166 0.0
H187 H 0.65501 0.73997 0.79919 0.0
H188 H 0.71282 0.7962 0.77959 0.0
H189 H 0.69219 0.8235 0.79312 0.0
H190 H 0.72139 0.67471 0.78329 0.0
H191 H 0.73139 0.72667 0.83882 0.0
H192 H 0.63485 0.76759 0.81378 0.0
H193 H 0.73707 0.65022 0.81116 0.0
H194 H 0.74765 0.70267 0.86653 0.0
C195 C 0.70535 0.15984 0.27499 0.0
C196 C 0.70254 0.17378 0.2563 0.0
C197 C 0.71849 0.16959 0.2967 0.0
C198 C 0.72893 0.1935 0.30022 0.0
C199 C 0.72641 0.20744 0.28145 0.0
C200 C 0.71345 0.19764 0.25963 0.0
C201 C 0.74155 0.20383 0.32369 0.0
C202 C 0.75853 0.19401 0.33696 0.0
C203 C 0.76924 0.20263 0.35988 0.0
C204 C 0.7629 0.22151 0.36947 0.0
C205 C 0.74591 0.23158 0.35632 0.0
C206 C 0.73551 0.2227 0.3334 0.0
C207 C 0.73732 0.25019 0.36675 0.0
C208 C 0.72989 0.24839 0.38893 0.0
C209 C 0.73416 0.26876 0.35362 0.0
C210 C 0.72257 0.28445 0.36191 0.0
C211 C 0.71386 0.28194 0.38351 0.0
C212 C 0.78654 0.19137 0.37371 0.0
C213 C 0.7808 0.16724 0.37318 0.0
C214 C 0.80929 0.20444 0.38663 0.0
C215 C 0.82631 0.19355 0.39813 0.0
C216 C 0.82081 0.16939 0.39705 0.0
C217 C 0.79772 0.15639 0.38467 0.0
C218 C 0.71826 0.26411 0.39723 0.0
H219 H 0.69731 0.14137 0.27283 0.0
H220 H 0.71994 0.15846 0.31092 0.0
H221 H 0.7344 0.22591 0.28369 0.0
H222 H 0.71144 0.20878 0.24553 0.0
H223 H 0.76352 0.17963 0.32933 0.0
H224 H 0.72166 0.22975 0.32346 0.0
H225 H 0.7708 0.22807 0.38725 0.0
H226 H 0.73184 0.23414 0.39934 0.0
H227 H 0.74007 0.27079 0.33661 0.0
H228 H 0.71993 0.29829 0.35115 0.0
H229 H 0.76327 0.1567 0.36362 0.0
H230 H 0.81423 0.22307 0.38729 0.0
H231 H 0.7116 0.2616 0.41387 0.0
H232 H 0.79297 0.13777 0.38327 0.0
H233 H 0.84385 0.20404 0.40772 0.0
C234 C 0.30674 0.64937 0.18791 0.0
C235 C 0.30332 0.64686 0.16342 0.0
C236 C 0.32975 0.66198 0.20049 0.0
C237 C 0.34993 0.67223 0.18886 0.0
C238 C 0.34659 0.66928 0.16436 0.0
C239 C 0.32355 0.65684 0.1518 0.0
C240 C 0.37429 0.68624 0.20208 0.0
C241 C 0.38428 0.6795 0.2235 0.0
C242 C 0.40738 0.69255 0.23594 0.0
C243 C 0.42076 0.71261 0.22651 0.0
C244 C 0.41099 0.71962 0.20499 0.0
C245 C 0.38769 0.70641 0.19316 0.0
C246 C 0.4245 0.74069 0.19442 0.0
C247 C 0.43452 0.76181 0.20761 0.0
C248 C 0.42544 0.74014 0.17032 0.0
C249 C 0.43483 0.76031 0.15942 0.0
C250 C 0.44364 0.78164 0.1723 0.0
C251 C 0.41733 0.68449 0.25846 0.0
C252 C 0.40138 0.67686 0.275 0.0
C253 C 0.44199 0.68255 0.26281 0.0
C254 C 0.4501 0.67215 0.28273 0.0
C255 C 0.43374 0.6636 0.29879 0.0
C256 C 0.40948 0.66665 0.29491 0.0
C257 C 0.44403 0.7821 0.19664 0.0
H258 H 0.29141 0.64208 0.19734 0.0
H259 H 0.33154 0.66412 0.2193 0.0
H260 H 0.36185 0.67649 0.15483 0.0
H261 H 0.32162 0.6549 0.13296 0.0
H262 H 0.37437 0.66366 0.23027 0.0
H263 H 0.37968 0.71217 0.17705 0.0
H264 H 0.43866 0.72267 0.23584 0.0
H265 H 0.43397 0.76281 0.22618 0.0
H266 H 0.41835 0.72409 0.15973 0.0
H267 H 0.43486 0.75922 0.14076 0.0
H268 H 0.38239 0.67845 0.27232 0.0
H269 H 0.45466 0.68811 0.2503 0.0
H270 H 0.45068 0.79826 0.20707 0.0
H271 H 0.39656 0.66086 0.30714 0.0
H272 H 0.46885 0.67 0.28502 0.0
C273 C 0.15839 0.28378 0.68138 0.0
C274 C 0.13279 0.27619 0.67177 0.0
C275 C 0.16879 0.30575 0.69269 0.0
C276 C 0.15396 0.32091 0.69515 0.0
C277 C 0.1282 0.31315 0.68645 0.0
C278 C 0.11779 0.2912 0.67482 0.0
C279 C 0.16597 0.3452 0.70505 0.0
C280 C 0.18752 0.35809 0.6968 0.0
C281 C 0.1998 0.38086 0.70538 0.0
C282 C 0.18995 0.39092 0.72285 0.0
C283 C 0.16832 0.37837 0.73191 0.0
C284 C 0.15643 0.35551 0.72248 0.0
C285 C 0.1584 0.38877 0.75143 0.0
C286 C 0.17467 0.40401 0.76933 0.0
C287 C 0.13251 0.38317 0.75276 0.0
C288 C 0.12333 0.39218 0.77125 0.0
C289 C 0.1396 0.40725 0.78925 0.0
C290 C 0.22287 0.3935 0.6956 0.0
C291 C 0.24102 0.38213 0.69172 0.0
C292 C 0.2261 0.41603 0.68824 0.0
C293 C 0.24624 0.42639 0.67644 0.0
C294 C 0.26382 0.41457 0.67172 0.0
C295 C 0.26108 0.39244 0.68007 0.0
C296 C 0.16546 0.41307 0.78781 0.0
H297 H 0.17062 0.27277 0.68019 0.0
H298 H 0.18865 0.31099 0.69942 0.0
H299 H 0.11625 0.32442 0.68783 0.0
H300 H 0.09809 0.28636 0.66758 0.0
H301 H 0.19452 0.3504 0.68304 0.0
H302 H 0.1402 0.34532 0.72923 0.0
H303 H 0.19925 0.40847 0.72943 0.0
H304 H 0.19472 0.4086 0.76944 0.0
H305 H 0.11911 0.37195 0.73929 0.0
H306 H 0.10328 0.3875 0.77121 0.0
H307 H 0.23953 0.36494 0.69748 0.0
H308 H 0.21248 0.42531 0.69074 0.0
H309 H 0.17882 0.4243 0.80131 0.0
H310 H 0.27444 0.3829 0.67754 0.0
H311 H 0.24748 0.44339 0.6703 0.0
Pr312 Pr 0.99688 1.0057 0.53307 0.0
Pr313 Pr 0.03579 0.02017 0.50627 0.0
C314 C 0.96186 0.98431 0.55861 0.0
C315 C 0.95271 0.96187 0.56813 0.0
C316 C 0.93973 0.96049 0.58718 0.0
C317 C 0.93026 0.93928 0.59622 0.0
C318 C 0.93358 0.91904 0.58632 0.0
C319 C 0.94685 0.92052 0.56731 0.0
C320 C 0.95646 0.94183 0.55833 0.0
C321 C 0.0229 0.05226 0.54568 0.0
C322 C 0.04871 0.99075 0.54872 0.0
C323 C 0.0709 0.03949 0.47992 0.0
C324 C 0.08288 0.06061 0.46934 0.0
C325 C 0.09237 0.0586 0.44857 0.0
C326 C 0.10593 0.07812 0.43907 0.0
C327 C 0.11031 0.10005 0.45021 0.0
C328 C 0.09993 0.10214 0.4706 0.0
C329 C 0.08631 0.08251 0.48014 0.0
C330 C 1.00924 0.97359 0.4942 0.0
C331 C 0.98447 0.03621 0.49144 0.0
O332 O 0.95753 0.985 0.53596 0.0
O333 O 0.98417 0.99667 0.56789 0.0
O334 O 0.0334 0.03658 0.54209 0.0
O335 O 0.99878 0.04401 0.54274 0.0
O336 O 0.05928 1.00821 0.53723 0.0
O337 O 0.02415 0.98375 0.54681 0.0
O338 O 0.07543 0.03927 0.50261 0.0
O339 O 0.04789 0.02863 0.47103 0.0
O340 O 0.99918 0.98967 0.49714 0.0
O341 O 0.03339 0.98135 0.49784 0.0
O342 O 0.97376 0.01847 0.50251 0.0
O343 O 1.00906 0.04297 0.49326 0.0
H344 H 0.93668 0.97581 0.59491 0.0
H345 H 0.91979 0.93868 0.61063 0.0
H346 H 0.94986 0.90525 0.55946 0.0
H347 H 0.96662 0.94265 0.54366 0.0
H348 H 0.08978 0.04183 0.43996 0.0
H349 H 0.11325 0.076 0.4231 0.0
H350 H 0.10305 0.11881 0.47958 0.0
H351 H 0.07903 0.08438 0.49619 0.0
Pr352 Pr 0.48838 0.01563 0.03253 0.0
Pr353 Pr 0.53751 1.0124 1.00537 0.0
C354 C 0.4554 1.01145 0.06248 0.0
C355 C 0.44915 0.02838 0.07732 0.0
C356 C 0.4625 0.05163 0.07788 0.0
C357 C 0.45679 0.06796 0.0919 0.0
C358 C 0.4376 0.06134 0.10562 0.0
C359 C 0.42438 0.03794 0.10512 0.0
C360 C 0.43011 0.02156 0.09101 0.0
C361 C 0.50317 0.05214 1.00347 0.0
C362 C 0.54722 0.04543 0.05437 0.0
C363 C 0.57047 0.01661 0.97542 0.0
C364 C 0.57788 0.9999 0.96124 0.0
C365 C 0.57421 0.97713 0.96766 0.0
C366 C 0.57957 0.96078 0.95337 0.0
C367 C 0.58848 0.96685 0.93229 0.0
C368 C 0.59223 0.98973 0.92595 0.0
C369 C 0.58698 1.00615 0.94036 0.0
C370 C 0.52317 0.97605 0.03466 0.0
C371 C 0.47846 0.98301 0.98326 0.0
O372 O 0.47793 1.00882 0.06835 0.0
O373 O 0.44917 1.01258 0.03993 0.0
O374 O 0.51234 0.03567 1.00789 0.0
O375 O 0.48431 0.05015 1.0148 0.0
O376 O 0.55559 0.04168 0.03476 0.0
O377 O 0.52411 0.03562 0.05829 0.0
O378 O 0.5475 0.01799 0.96919 0.0
O379 O 0.57695 0.01674 0.99811 0.0
O380 O 0.51368 0.99233 0.03016 0.0
O381 O 0.54208 0.97824 0.02337 0.0
O382 O 0.47001 0.98683 1.0028 0.0
O383 O 0.50172 0.99252 0.97955 0.0
H384 H 0.47739 0.05712 0.06747 0.0
H385 H 0.46759 0.08577 0.09218 0.0
H386 H 0.40936 0.03235 0.11535 0.0
H387 H 0.41967 1.00364 0.09074 0.0
H388 H 0.56677 0.9719 0.98354 0.0
H389 H 0.57614 0.94323 0.95855 0.0
H390 H 0.59926 0.99493 0.90989 0.0
H391 H 0.58968 0.02362 0.93506 0.0
Pr392 Pr 0.52418 0.53752 0.53318 0.0
Pr393 Pr 0.51106 0.48667 0.50779 0.0
C394 C 0.52521 0.5798 0.54983 0.0
C395 C 0.50743 0.59212 0.55578 0.0
C396 C 0.51647 0.61448 0.56619 0.0
C397 C 0.49979 0.62657 0.57175 0.0
C398 C 0.47375 0.61646 0.56697 0.0
C399 C 0.46478 0.5939 0.55665 0.0
C400 C 0.48152 0.58182 0.55107 0.0
C401 C 0.54486 0.50566 0.55678 0.0
C402 C 0.46996 0.49804 0.53958 0.0
C403 C 0.51345 0.44341 0.49984 0.0
C404 C 0.52479 0.43108 0.48436 0.0
C405 C 0.52106 0.40732 0.48561 0.0
C406 C 0.53462 0.39589 0.47354 0.0
C407 C 0.55224 0.40813 0.46014 0.0
C408 C 0.55515 0.43185 0.45822 0.0
C409 C 0.54151 0.44323 0.47023 0.0
C410 C 0.49466 0.51652 0.47679 0.0
C411 C 0.56245 0.52761 0.49767 0.0
O412 O 0.52389 0.57433 0.52764 0.0
O413 O 0.52842 0.56342 0.5633 0.0
O414 O 0.52305 0.50174 0.54553 0.0
O415 O 0.55702 0.52728 0.55671 0.0
O416 O 0.47717 0.48191 0.52875 0.0
O417 O 0.48308 0.52006 0.54129 0.0
O418 O 0.52954 0.45832 0.51518 0.0
O419 O 0.49451 0.45077 0.49036 0.0
O420 O 0.50532 0.52113 0.49761 0.0
O421 O 0.49137 0.4948 0.4712 0.0
O422 O 0.55491 0.54346 0.50854 0.0
O423 O 0.55079 0.50532 0.49742 0.0
H424 H 0.53644 0.6226 0.57002 0.0
H425 H 0.50731 0.64375 0.58003 0.0
H426 H 0.44485 0.58572 0.55255 0.0
H427 H 0.47426 0.56454 0.54298 0.0
H428 H 0.50838 0.39776 0.49664 0.0
H429 H 0.53214 0.37768 0.47558 0.0
H430 H 0.56835 0.44168 0.44781 0.0
H431 H 0.54464 0.46164 0.46916 0.0
Pr432 Pr 1.01356 0.5337 1.00461 0.0
Pr433 Pr 0.02198 0.49599 0.03425 0.0
C434 C 0.99594 0.56483 0.98008 0.0
C435 C 0.97326 0.57301 0.97663 0.0
C436 C 0.9757 0.59669 0.97668 0.0
C437 C 0.9545 0.60482 0.97206 0.0
C438 C 0.93042 0.58936 0.96709 0.0
C439 C 0.928 0.5656 0.96778 0.0
C440 C 0.94922 0.5575 0.9726 0.0
C441 C 0.0626 0.54258 0.0282 0.0
C442 C 0.99536 0.53107 0.05769 0.0
C443 C 0.04003 0.46501 0.05855 0.0
C444 C 0.06266 0.4568 0.06061 0.0
C445 C 0.06043 0.43325 0.062 0.0
C446 C 0.0818 0.42525 0.06508 0.0
C447 C 0.10584 0.44073 0.06703 0.0
C448 C 0.10792 0.4643 0.06486 0.0
C449 C 0.08653 0.47225 0.06157 0.0
C450 C 0.97282 0.48722 1.01134 0.0
C451 C 0.04011 0.49858 0.98103 0.0
O452 O 0.99368 0.54395 0.97175 0.0
O453 O 1.01022 0.57007 1.00039 0.0
O454 O 0.04304 0.53409 0.0368 0.0
O455 O 0.0573 0.54782 1.00686 0.0
O456 O 1.00975 0.51719 0.06271 0.0
O457 O 0.99084 0.53695 0.03592 0.0
O458 O 0.04299 0.48609 0.06667 0.0
O459 O 0.0246 0.45948 0.03889 0.0
O460 O 0.99215 0.4956 1.00226 0.0
O461 O 0.97851 0.48205 0.03264 0.0
O462 O 0.0262 0.51289 0.97614 0.0
O463 O 0.04417 0.49226 1.00267 0.0
H464 H 0.99408 0.60892 0.97995 0.0
H465 H 0.95701 0.62323 0.97212 0.0
H466 H 0.90981 0.55319 0.9638 0.0
H467 H 0.94681 0.5391 0.97265 0.0
H468 H 0.04215 0.42105 0.06102 0.0
H469 H 0.07949 0.40695 0.06623 0.0
H470 H 0.1261 0.47675 0.06652 0.0
H471 H 0.0887 0.49053 0.06027 0.0
H472 H 0.23339 0.28072 0.35528 0.0
H473 H 0.20472 0.25499 0.37755 0.0
H474 H 0.2482 0.20594 0.37686 0.0
H475 H 0.27651 0.23115 0.35424 0.0
H476 H 0.19506 0.18921 0.35859 0.0
H477 H 0.21376 0.235 0.4465 0.0
H478 H 0.20944 0.25135 0.42141 0.0
H479 H 0.23646 0.24053 0.42661 0.0
C480 C 0.237 0.26457 0.36013 0.0
C481 C 0.25722 0.25797 0.35297 0.0
C482 C 0.22074 0.25001 0.373 0.0
C483 C 0.22449 0.22868 0.37893 0.0
C484 C 0.24513 0.22243 0.37255 0.0
H485 H 0.15463 0.10313 0.43475 0.0
H486 H 0.18064 0.13568 0.41763 0.0
C487 C 0.26139 0.23695 0.35977 0.0
C488 C 0.20574 0.21181 0.38975 0.0
H489 H 0.18226 0.19967 0.44062 0.0
C490 C 0.19217 0.19153 0.37649 0.0
C491 C 0.20182 0.2151 0.41297 0.0
C492 C 0.21618 0.23659 0.42787 0.0
C493 C 0.17513 0.17414 0.386 0.0
C494 C 0.17198 0.17695 0.40954 0.0
C495 C 0.18485 0.19759 0.4226 0.0
C496 C 0.15667 0.15792 0.42116 0.0
C497 C 0.16074 0.15283 0.37078 0.0
C498 C 0.135 0.15996 0.42953 0.0
C499 C 0.12 0.14129 0.43935 0.0
C500 C 0.12655 0.12039 0.44093 0.0
C501 C 0.14875 0.1188 0.43324 0.0
C502 C 0.16367 0.13739 0.42352 0.0
H503 H 0.15981 0.15609 0.35194 0.0
H504 H 0.17032 0.13908 0.37411 0.0
H505 H 0.14135 0.14644 0.37474 0.0
H506 H 0.12941 0.17576 0.42796 0.0
H507 H 0.10299 0.14301 0.44513 0.0
H508 H 0.36681 0.84139 0.81067 0.0
H509 H 0.38941 0.86282 0.84707 0.0
H510 H 0.33424 0.90095 0.8457 0.0
H511 H 0.31189 0.88004 0.80893 0.0
H512 H 0.38313 0.92858 0.85168 0.0
H513 H 0.3732 0.85946 0.91382 0.0
H514 H 0.38467 0.85277 0.88789 0.0
H515 H 0.35355 0.85624 0.88574 0.0
C516 C 0.35942 0.85425 0.81819 0.0
C517 C 0.33759 0.85906 0.8069 0.0
C518 C 0.37219 0.86629 0.83912 0.0
C519 C 0.3633 0.88324 0.84922 0.0
C520 C 0.34126 0.88777 0.83827 0.0
H521 H 0.42928 0.95936 0.98334 0.0
H522 H 0.40021 0.93515 0.95129 0.0
C523 C 0.32845 0.87572 0.81734 0.0
C524 C 0.37813 0.89752 0.87013 0.0
H525 H 0.40431 0.89485 0.92651 0.0
C526 C 0.38756 0.92125 0.86812 0.0
C527 C 0.38368 0.88793 0.89159 0.0
C528 C 0.37306 0.86274 0.89503 0.0
C529 C 0.40308 0.93555 0.88678 0.0
C530 C 0.40957 0.92578 0.90788 0.0
C531 C 0.39948 0.9022 0.9102 0.0
C532 C 0.42732 0.93977 0.9275 0.0
C533 C 0.41244 0.961 0.88377 0.0
C534 C 0.45226 0.94997 0.9248 0.0
C535 C 0.46891 0.96378 0.94301 0.0
C536 C 0.46095 0.96761 0.96433 0.0
C537 C 0.43603 0.9569 0.96714 0.0
C538 C 0.41939 0.94303 0.94888 0.0
H539 H 0.4008 0.96655 0.86908 0.0
H540 H 0.41255 0.97123 0.89995 0.0
H541 H 0.43193 0.96495 0.87993 0.0
H542 H 0.45882 0.94731 0.90854 0.0
H543 H 0.48797 0.97159 0.94023 0.0
H544 H 0.56285 0.35367 0.70823 0.0
H545 H 0.55397 0.37469 0.67374 0.0
H546 H 0.61958 0.43034 0.69867 0.0
H547 H 0.62884 0.40935 0.73276 0.0
H548 H 0.54545 0.41878 0.67345 0.0
H549 H 0.62772 0.41785 0.6308 0.0
H550 H 0.6179 0.39875 0.65324 0.0
H551 H 0.63557 0.42813 0.66095 0.0
C552 C 0.57554 0.37025 0.7062 0.0
C553 C 0.5965 0.37984 0.72332 0.0
C554 C 0.5704 0.38228 0.68654 0.0
C555 C 0.5863 0.40396 0.68346 0.0
C556 C 0.60728 0.41348 0.70044 0.0
H557 H 0.58752 0.51329 0.58894 0.0
H558 H 0.59744 0.48758 0.61878 0.0
C559 C 0.61237 0.40155 0.72009 0.0
C560 C 0.58039 0.41723 0.66315 0.0
H561 H 0.60399 0.4434 0.61642 0.0
C562 C 0.5581 0.42396 0.66083 0.0
C563 C 0.59702 0.42411 0.64679 0.0
C564 C 0.62079 0.41668 0.64788 0.0
C565 C 0.55232 0.43794 0.64301 0.0
C566 C 0.56903 0.44498 0.62672 0.0
C567 C 0.59121 0.43803 0.6289 0.0
C568 C 0.56392 0.45984 0.60754 0.0
C569 C 0.52875 0.4457 0.6423 0.0
C570 C 0.54221 0.45254 0.59085 0.0
C571 C 0.53648 0.46721 0.5739 0.0
C572 C 0.55249 0.4894 0.57312 0.0
C573 C 0.57481 0.49632 0.58914 0.0
C574 C 0.58048 0.48164 0.60619 0.0
H575 H 0.52162 0.44395 0.65928 0.0
H576 H 0.53204 0.4639 0.63774 0.0
H577 H 0.51394 0.43487 0.62882 0.0
H578 H 0.52946 0.4356 0.59117 0.0
H579 H 0.51918 0.46133 0.56174 0.0
H580 H 0.87624 0.61734 0.20117 0.0
H581 H 0.89271 0.60215 0.16908 0.0
H582 H 0.95064 0.58732 0.21838 0.0
H583 H 0.93418 0.60226 0.25056 0.0
H584 H 0.94165 0.6164 0.1555 0.0
H585 H 0.92009 0.52561 0.17939 0.0
H586 H 0.90599 0.5462 0.19101 0.0
H587 H 0.93757 0.54639 0.20252 0.0
C588 C 0.89234 0.61066 0.20531 0.0
C589 C 0.90368 0.61107 0.22875 0.0
C590 C 0.90189 0.60206 0.18681 0.0
C591 C 0.92286 0.59322 0.19107 0.0
C592 C 0.93426 0.59366 0.21441 0.0
H593 H 1.0056 0.52767 0.10521 0.0
H594 H 0.98832 0.5431 0.13642 0.0
C595 C 0.9249 0.60247 0.2329 0.0
C596 C 0.93297 0.58389 0.17119 0.0
H597 H 0.9443 0.53516 0.14898 0.0
C598 C 0.9421 0.59859 0.15404 0.0
C599 C 0.93383 0.56068 0.1691 0.0
C600 C 0.92368 0.54368 0.18633 0.0
C601 C 0.95252 0.59101 0.13545 0.0
C602 C 0.95321 0.56769 0.1332 0.0
C603 C 0.94393 0.55299 0.15036 0.0
C604 C 0.9638 0.55826 0.1136 0.0
C605 C 0.96354 0.60845 0.11895 0.0
C606 C 0.95583 0.56109 0.08991 0.0
C607 C 0.966 0.55242 0.07187 0.0
C608 C 0.98416 0.5402 0.07684 0.0
C609 C 0.99171 0.53694 0.10049 0.0
C610 C 0.98174 0.5458 0.1185 0.0
H611 H 0.96885 0.62625 0.1271 0.0
H612 H 0.98039 0.60503 0.11326 0.0
H613 H 0.94935 0.60764 0.10329 0.0
H614 H 0.9415 0.56986 0.08523 0.0
H615 H 0.95942 0.55516 0.05397 0.0
H616 H 0.37792 0.20211 0.24606 0.0
H617 H 0.39237 0.1711 0.22973 0.0
H618 H 0.40438 0.20813 0.16782 0.0
H619 H 0.3906 0.23939 0.18422 0.0
H620 H 0.36998 0.14489 0.18805 0.0
H621 H 0.4695 0.18955 0.18486 0.0
H622 H 0.45069 0.20069 0.20249 0.0
H623 H 0.44815 0.20481 0.17171 0.0
C624 C 0.38417 0.20386 0.22919 0.0
C625 C 0.38316 0.22319 0.21642 0.0
C626 C 0.39225 0.18609 0.21985 0.0
C627 C 0.3997 0.18747 0.19771 0.0
C628 C 0.39913 0.20692 0.18512 0.0
H629 H 0.43384 0.10385 0.09368 0.0
H630 H 0.42497 0.13336 0.11796 0.0
C631 C 0.39101 0.22465 0.1944 0.0
C632 C 0.40641 0.16796 0.18698 0.0
H633 H 0.45229 0.15411 0.16162 0.0
C634 C 0.38809 0.14675 0.18255 0.0
C635 C 0.43005 0.17051 0.17987 0.0
C636 C 0.45082 0.19256 0.18516 0.0
C637 C 0.39239 0.1283 0.17022 0.0
C638 C 0.41577 0.1311 0.16247 0.0
C639 C 0.43435 0.15208 0.16752 0.0
C640 C 0.4209 0.11292 0.14802 0.0
C641 C 0.37157 0.1063 0.16472 0.0
C642 C 0.42161 0.09168 0.15696 0.0
C643 C 0.42674 0.07476 0.14313 0.0
C644 C 0.43143 0.07891 0.1202 0.0
C645 C 0.43065 0.10023 0.11136 0.0
C646 C 0.4255 0.11708 0.12517 0.0
H647 H 0.35322 0.10856 0.16781 0.0
H648 H 0.36985 0.09996 0.14627 0.0
H649 H 0.37591 0.09288 0.17604 0.0
H650 H 0.41851 0.0883 0.17471 0.0
H651 H 0.42756 0.05863 0.15053 0.0
H652 H 0.18176 0.87823 0.6739 0.0
H653 H 0.15348 0.90079 0.65875 0.0
H654 H 0.15625 0.87798 0.58842 0.0
H655 H 0.18345 0.85432 0.60345 0.0
H656 H 0.16219 0.93613 0.63138 0.0
H657 H 0.08187 0.86651 0.58711 0.0
H658 H 0.10699 0.86084 0.60713 0.0
H659 H 0.11077 0.86632 0.5773 0.0
C660 C 0.1759 0.87753 0.65522 0.0
C661 C 0.18477 0.86427 0.63991 0.0
C662 C 0.15991 0.89064 0.64658 0.0
C663 C 0.15245 0.89083 0.62247 0.0
C664 C 0.1613 0.8777 0.60711 0.0
H665 H 0.09872 0.99542 0.5497 0.0
H666 H 0.12356 0.97163 0.56903 0.0
C667 C 0.17715 0.86442 0.61574 0.0
C668 C 0.13637 0.9056 0.61341 0.0
H669 H 0.08212 0.90489 0.57781 0.0
C670 C 0.14457 0.92927 0.61981 0.0
C671 C 0.11321 0.89659 0.59862 0.0
C672 C 0.10254 0.87114 0.59232 0.0
C673 C 0.13056 0.94428 0.61137 0.0
C674 C 0.10804 0.93545 0.59563 0.0
C675 C 0.09952 0.91169 0.58969 0.0
C676 C 0.09321 0.95053 0.58477 0.0
C677 C 0.13989 0.96939 0.61965 0.0
C678 C 0.06774 0.94632 0.58679 0.0
C679 C 0.05337 0.9597 0.57548 0.0
C680 C 0.06424 0.97757 0.56194 0.0
C681 C 0.08983 0.98194 0.56019 0.0
C682 C 0.10412 0.96843 0.57134 0.0
H683 H 0.15243 0.97194 0.63672 0.0
H684 H 0.15082 0.97904 0.60678 0.0
H685 H 0.1241 0.97685 0.62143 0.0
H686 H 0.05892 0.93252 0.59698 0.0
H687 H 0.0337 0.95587 0.57715 0.0
H688 H 0.78051 0.3744 0.87064 0.0
H689 H 0.8205 0.39533 0.89381 0.0
H690 H 0.78207 0.43172 0.93389 0.0
H691 H 0.74193 0.41077 0.91087 0.0
H692 H 0.826 0.46019 0.92034 0.0
H693 H 0.84305 0.38266 0.96158 0.0
H694 H 0.83728 0.37994 0.93025 0.0
H695 H 0.81287 0.38304 0.94608 0.0
C696 C 0.78053 0.38674 0.88449 0.0
C697 C 0.75799 0.39077 0.88903 0.0
C698 C 0.8034 0.39871 0.89768 0.0
C699 C 0.80419 0.41482 0.91578 0.0
C700 C 0.78185 0.41932 0.92001 0.0
H701 H 0.92989 0.46487 0.02721 0.0
H702 H 0.88819 0.44933 1.00437 0.0
C703 C 0.75894 0.40738 0.9068 0.0
C704 C 0.8283 0.42668 0.93054 0.0
H705 H 0.8766 0.41678 0.96798 0.0
C706 C 0.83706 0.45075 0.93083 0.0
C707 C 0.84247 0.41433 0.94447 0.0
C708 C 0.83339 0.38859 0.94582 0.0
C709 C 0.85994 0.46277 0.94434 0.0
C710 C 0.87451 0.45031 0.95763 0.0
C711 C 0.86548 0.42629 0.95765 0.0
C712 C 0.89922 0.46168 0.97168 0.0
C713 C 0.86815 0.48869 0.94451 0.0
C714 C 0.91922 0.47396 0.96092 0.0
C715 C 0.94306 0.48289 0.97396 0.0
C716 C 0.94731 0.47947 0.99792 0.0
C717 C 0.92716 0.46767 1.00876 0.0
C718 C 0.90335 0.45879 0.99573 0.0
H719 H 0.85211 0.49586 0.93878 0.0
H720 H 0.87731 0.49644 0.96218 0.0
H721 H 0.8819 0.49389 0.93229 0.0
H722 H 0.91658 0.47604 0.94231 0.0
H723 H 0.95827 0.49195 0.96517 0.0
H724 H 0.74844 0.63441 0.39644 0.0
H725 H 0.71407 0.61854 0.41803 0.0
H726 H 0.70617 0.55076 0.38763 0.0
H727 H 0.74045 0.56657 0.36559 0.0
H728 H 0.66465 0.59581 0.40217 0.0
H729 H 0.70879 0.53879 0.45664 0.0
H730 H 0.72646 0.56079 0.44037 0.0
H731 H 0.70759 0.53397 0.42578 0.0
C732 C 0.73936 0.61613 0.39406 0.0
C733 C 0.74745 0.60192 0.37896 0.0
C734 C 0.71968 0.60701 0.40665 0.0
C735 C 0.70749 0.58333 0.40484 0.0
C736 C 0.71548 0.56901 0.38986 0.0
H737 H 0.58252 0.50116 0.47046 0.0
H738 H 0.61688 0.51415 0.44778 0.0
C739 C 0.73519 0.57814 0.37718 0.0
C740 C 0.6861 0.57397 0.41815 0.0
H741 H 0.66645 0.53638 0.45947 0.0
C742 C 0.66514 0.58284 0.41472 0.0
C743 C 0.6864 0.55691 0.43453 0.0
C744 C 0.70857 0.54715 0.43977 0.0
C745 C 0.64462 0.57511 0.42689 0.0
C746 C 0.64509 0.55834 0.44359 0.0
C747 C 0.66592 0.54925 0.44682 0.0
C748 C 0.62436 0.55031 0.458 0.0
C749 C 0.62234 0.58469 0.42126 0.0
C750 C 0.61716 0.56608 0.47189 0.0
C751 C 0.59742 0.5587 0.48488 0.0
C752 C 0.58433 0.53524 0.48462 0.0
C753 C 0.59199 0.51937 0.47117 0.0
C754 C 0.61174 0.52679 0.45812 0.0
H755 H 0.62139 0.5915 0.40362 0.0
H756 H 0.60451 0.5714 0.4221 0.0
H757 H 0.62405 0.59913 0.43412 0.0
H758 H 0.62688 0.58423 0.47276 0.0
H759 H 0.59236 0.57151 0.49506 0.0
H760 H 0.29452 0.36396 0.15144 0.0
H761 H 0.27159 0.38074 0.12047 0.0
H762 H 0.23944 0.41097 0.17217 0.0
H763 H 0.26246 0.39457 0.20305 0.0
H764 H 0.21996 0.36916 0.11204 0.0
H765 H 0.25734 0.46323 0.12908 0.0
H766 H 0.27426 0.44327 0.14066 0.0
H767 H 0.25024 0.44942 0.15529 0.0
C768 C 0.28314 0.37477 0.15619 0.0
C769 C 0.28017 0.37795 0.1796 0.0
C770 C 0.27 0.38426 0.13851 0.0
C771 C 0.25407 0.39733 0.14406 0.0
C772 C 0.25204 0.40136 0.16753 0.0
H773 H 0.11257 0.40816 0.09723 0.0
H774 H 0.15075 0.39695 0.10969 0.0
C775 C 0.265 0.3918 0.18514 0.0
C776 C 0.23695 0.40424 0.12554 0.0
H777 H 0.21389 0.44956 0.11017 0.0
C778 C 0.21902 0.38684 0.11115 0.0
C779 C 0.23595 0.42732 0.1241 0.0
C780 C 0.25568 0.4469 0.13795 0.0
C781 C 0.19883 0.39164 0.09691 0.0
C782 C 0.19644 0.41434 0.09737 0.0
C783 C 0.21558 0.43208 0.1101 0.0
C784 C 0.17284 0.41949 0.08746 0.0
C785 C 0.17967 0.37221 0.08229 0.0
C786 C 0.17263 0.43603 0.07091 0.0
C787 C 0.15065 0.44242 0.06358 0.0
C788 C 0.12863 0.43257 0.07294 0.0
C789 C 0.12894 0.41573 0.08924 0.0
C790 C 0.1508 0.40929 0.09641 0.0
H791 H 0.18811 0.35835 0.07762 0.0
H792 H 0.16445 0.36462 0.09245 0.0
H793 H 0.17129 0.37836 0.06601 0.0
H794 H 0.18954 0.44422 0.06395 0.0
H795 H 0.15099 0.45528 0.05083 0.0
H796 H 0.54698 0.20896 0.85325 0.0
H797 H 0.53054 0.17656 0.87661 0.0
H798 H 0.6009 0.19348 0.92316 0.0
H799 H 0.61725 0.22604 0.90034 0.0
H800 H 0.54983 0.13786 0.88825 0.0
H801 H 0.54826 0.1913 0.96686 0.0
H802 H 0.55079 0.20287 0.9386 0.0
H803 H 0.5778 0.19804 0.95623 0.0
C804 C 0.55889 0.20587 0.86855 0.0
C805 C 0.58345 0.22014 0.87489 0.0
C806 C 0.54952 0.18726 0.88179 0.0
C807 C 0.5644 0.18275 0.90177 0.0
C808 C 0.58897 0.1968 0.90799 0.0
H809 H 0.54445 0.06006 0.9814 0.0
H810 H 0.55872 0.09112 0.95582 0.0
C811 C 0.59837 0.21529 0.89475 0.0
C812 C 0.55437 0.16339 0.91621 0.0
H813 H 0.54125 0.15117 0.97104 0.0
C814 C 0.54785 0.14074 0.90632 0.0
C815 C 0.55157 0.16719 0.93972 0.0
C816 C 0.55724 0.19116 0.95099 0.0
C817 C 0.53908 0.12178 0.91948 0.0
C818 C 0.53701 0.12557 0.94321 0.0
C819 C 0.54306 0.14825 0.95292 0.0
C820 C 0.52819 0.10632 0.95821 0.0
C821 C 0.53178 0.09787 0.90779 0.0
C822 C 0.50659 0.10476 0.96844 0.0
C823 C 0.49845 0.08706 0.98303 0.0
C824 C 0.51182 0.07061 0.98778 0.0
C825 C 0.53356 0.07226 0.97771 0.0
C826 C 0.54169 0.08997 0.96307 0.0
H827 H 0.52854 0.09817 0.88846 0.0
H828 H 0.54712 0.08966 0.91271 0.0
H829 H 0.51455 0.08706 0.91349 0.0
H830 H 0.49596 0.11724 0.96508 0.0
H831 H 0.4817 0.08628 0.99063 0.0
H832 H 0.8831 0.76843 0.40326 0.0
H833 H 0.90006 0.80601 0.42466 0.0
H834 H 0.96008 0.82234 0.38364 0.0
H835 H 0.94297 0.78483 0.36181 0.0
H836 H 0.94691 0.82525 0.45185 0.0
H837 H 0.93201 0.87871 0.37747 0.0
H838 H 0.91715 0.84817 0.37641 0.0
H839 H 0.94939 0.85846 0.37244 0.0
C840 C 0.89978 0.78005 0.39854 0.0
C841 C 0.91145 0.77348 0.38053 0.0
C842 C 0.90957 0.80157 0.41097 0.0
C843 C 0.9312 0.81733 0.40565 0.0
C844 C 0.94313 0.81076 0.38789 0.0
H845 H 0.02911 0.93764 0.48886 0.0
H846 H 1.00921 0.90002 0.46826 0.0
C847 C 0.93344 0.78913 0.37554 0.0
C848 C 0.94138 0.84037 0.41896 0.0
H849 H 0.9553 0.89856 0.41284 0.0
C850 C 0.94868 0.84124 0.44327 0.0
C851 C 0.94343 0.86141 0.40799 0.0
C852 C 0.93489 0.86178 0.38218 0.0
C853 C 0.95847 0.86237 0.45669 0.0
C854 C 0.96122 0.88339 0.44562 0.0
C855 C 0.95337 0.88255 0.4214 0.0
C856 C 0.97297 0.90632 0.45877 0.0
C857 C 0.9656 0.86202 0.48273 0.0
C858 C 0.9594 0.92274 0.46031 0.0
C859 C 0.97078 0.9444 0.4723 0.0
C860 C 0.99613 0.95026 0.48267 0.0
C861 C 1.00957 0.93376 0.48112 0.0
C862 C 0.99816 0.91213 0.46939 0.0
H863 H 0.95663 0.84514 0.48928 0.0
H864 H 0.98621 0.86516 0.48701 0.0
H865 H 0.96021 0.87574 0.4921 0.0
H866 H 0.93996 0.91878 0.45225 0.0
H867 H 0.95989 0.95668 0.47307 0.0
H868 H 0.36295 0.76659 0.61745 0.0
H869 H 0.38562 0.74135 0.60246 0.0
H870 H 0.33423 0.68242 0.62552 0.0
H871 H 0.31143 0.70758 0.64057 0.0
H872 H 0.40901 0.71384 0.62998 0.0
H873 H 0.33824 0.66106 0.55896 0.0
H874 H 0.33542 0.68776 0.57138 0.0
H875 H 0.32767 0.66192 0.58671 0.0
C876 C 0.35635 0.74823 0.61916 0.0
C877 C 0.33545 0.73907 0.63025 0.0
C878 C 0.36926 0.73384 0.61052 0.0
C879 C 0.36148 0.71002 0.6127 0.0
C880 C 0.34024 0.70071 0.62323 0.0
H881 H 0.43087 0.60069 0.58625 0.0
H882 H 0.40288 0.62285 0.5971 0.0
C883 C 0.32725 0.71511 0.63183 0.0
C884 C 0.3768 0.69527 0.6056 0.0
H885 H 0.37571 0.64981 0.56897 0.0
C886 C 0.40176 0.6999 0.61658 0.0
C887 C 0.36719 0.67697 0.58827 0.0
C888 C 0.34073 0.67168 0.57547 0.0
C889 C 0.4174 0.6867 0.61073 0.0
C890 C 0.40793 0.66862 0.59317 0.0
C891 C 0.38288 0.66374 0.5824 0.0
C892 C 0.42404 0.65495 0.58552 0.0
C893 C 0.44386 0.69202 0.62361 0.0
C894 C 0.44482 0.66561 0.57497 0.0
C895 C 0.46075 0.65303 0.56869 0.0
C896 C 0.45613 0.62951 0.57276 0.0
C897 C 0.43485 0.61874 0.58275 0.0
C898 C 0.41891 0.63136 0.58903 0.0
H899 H 0.44618 0.70233 0.64029 0.0
H900 H 0.44931 0.67595 0.62742 0.0
H901 H 0.45693 0.70211 0.61256 0.0
H902 H 0.44879 0.68372 0.57171 0.0
H903 H 0.47666 0.66173 0.56058 0.0
H904 H 0.77742 0.74955 0.66291 0.0
H905 H 0.80702 0.7667 0.63657 0.0
H906 H 0.85525 0.81001 0.69428 0.0
H907 H 0.82624 0.79265 0.72058 0.0
H908 H 0.81824 0.81221 0.6283 0.0
H909 H 0.90581 0.79022 0.6614 0.0
H910 H 0.87586 0.77486 0.66893 0.0
H911 H 0.89369 0.80158 0.68463 0.0
C912 C 0.79469 0.76228 0.67002 0.0
C913 C 0.79947 0.76992 0.69373 0.0
C914 C 0.81153 0.77208 0.65498 0.0
C915 C 0.83352 0.7894 0.66352 0.0
C916 C 0.83874 0.7963 0.68738 0.0
H917 H 0.93383 0.90865 0.63189 0.0
H918 H 0.91058 0.87321 0.64697 0.0
C919 C 0.82196 0.7866 0.70234 0.0
C920 C 0.8494 0.80257 0.64739 0.0
H921 H 0.91057 0.8257 0.64117 0.0
C922 C 0.83836 0.81469 0.63061 0.0
C923 C 0.87563 0.80577 0.65046 0.0
C924 C 0.88838 0.7922 0.66718 0.0
C925 C 0.85303 0.83131 0.61816 0.0
C926 C 0.87941 0.8356 0.62239 0.0
C927 C 0.89034 0.82243 0.63806 0.0
C928 C 0.8959 0.85557 0.61295 0.0
C929 C 0.84034 0.84529 0.60184 0.0
C930 C 0.89593 0.85709 0.58885 0.0
C931 C 0.90906 0.87743 0.58015 0.0
C932 C 0.92236 0.89651 0.59547 0.0
C933 C 0.92338 0.8944 0.61965 0.0
C934 C 0.91029 0.87411 0.62829 0.0
H935 H 0.82014 0.84211 0.60321 0.0
H936 H 0.84961 0.86396 0.60557 0.0
H937 H 0.84189 0.84073 0.58358 0.0
H938 H 0.88515 0.84284 0.57676 0.0
H939 H 0.90788 0.87856 0.56144 0.0
H940 H 0.71484 0.18152 0.21261 0.0
H941 H 0.69013 0.16354 0.17519 0.0
H942 H 0.6322 0.1248 0.21158 0.0
H943 H 0.65665 0.14265 0.24889 0.0
H944 H 0.67089 0.11203 0.16431 0.0
H945 H 0.59693 0.15822 0.1588 0.0
H946 H 0.62757 0.16957 0.17603 0.0
H947 H 0.60449 0.14704 0.18657 0.0
C948 C 0.69673 0.16931 0.21255 0.0
C949 C 0.68765 0.16341 0.23361 0.0
C950 C 0.68274 0.15904 0.19125 0.0
C951 C 0.65933 0.14306 0.19073 0.0
C952 C 0.65015 0.13728 0.21168 0.0
H953 H 0.53934 0.05341 0.09884 0.0
H954 H 0.56812 0.07859 0.13008 0.0
C955 C 0.6642 0.14734 0.23295 0.0
C956 C 0.64468 0.1316 0.16845 0.0
H957 H 0.58903 0.12517 0.13286 0.0
C958 C 0.65315 0.11507 0.15715 0.0
C959 C 0.62159 0.13566 0.15938 0.0
C960 C 0.61209 0.15371 0.17066 0.0
C961 C 0.63846 0.1016 0.13752 0.0
C962 C 0.61501 0.10525 0.12874 0.0
C963 C 0.607 0.1224 0.13964 0.0
C964 C 0.59769 0.09045 0.10931 0.0
C965 C 0.64761 0.08284 0.1271 0.0
C966 C 0.60465 0.08897 0.08714 0.0
C967 C 0.58828 0.07439 0.0692 0.0
C968 C 0.56454 0.06125 0.07308 0.0
C969 C 0.55747 0.06322 0.0952 0.0
C970 C 0.57389 0.07765 0.1131 0.0
H971 H 0.66303 0.07887 0.13909 0.0
H972 H 0.63212 0.06681 0.12278 0.0
H973 H 0.65483 0.08851 0.11075 0.0
H974 H 0.62272 0.09911 0.0837 0.0
H975 H 0.59422 0.07347 0.05232 0.0
H976 H 0.40524 0.62523 0.31602 0.0
H977 H 0.41744 0.60366 0.34855 0.0
H978 H 0.49183 0.65007 0.35942 0.0
H979 H 0.47966 0.67212 0.32696 0.0
H980 H 0.49132 0.6036 0.3589 0.0
H981 H 0.42897 0.62168 0.41863 0.0
H982 H 0.41275 0.61081 0.38996 0.0
H983 H 0.43585 0.63828 0.3937 0.0
C984 C 0.42409 0.6312 0.32555 0.0
C985 C 0.44137 0.65065 0.31893 0.0
C986 C 0.43104 0.61877 0.34418 0.0
C987 C 0.45542 0.62546 0.35673 0.0
C988 C 0.47285 0.64468 0.35008 0.0
H989 H 0.4999 0.56254 0.48548 0.0
H990 H 0.49192 0.59038 0.4572 0.0
C991 C 0.46589 0.6572 0.33143 0.0
C992 C 0.46283 0.61173 0.37611 0.0
H993 H 0.44713 0.59071 0.42779 0.0
C994 C 0.48182 0.60097 0.37407 0.0
C995 C 0.45068 0.60852 0.39608 0.0
C996 C 0.4311 0.62061 0.39991 0.0
C997 C 0.4883 0.58638 0.39097 0.0
C998 C 0.47523 0.5822 0.4103 0.0
C999 C 0.45694 0.59369 0.41284 0.0
C1000 C 0.47975 0.56541 0.42763 0.0
C1001 C 0.5091 0.57553 0.38797 0.0
C1002 C 0.47506 0.54207 0.42055 0.0
C1003 C 0.47955 0.52622 0.43667 0.0
C1004 C 0.48877 0.53334 0.46024 0.0
C1005 C 0.49296 0.55661 0.46745 0.0
C1006 C 0.48838 0.5725 0.45129 0.0
H1007 H 0.52164 0.58521 0.37622 0.0
H1008 H 0.52052 0.57465 0.40505 0.0
H1009 H 0.50082 0.55773 0.3801 0.0
H1010 H 0.46791 0.5361 0.40251 0.0
H1011 H 0.47603 0.50838 0.43058 0.0
H1012 H 0.09985 0.38577 0.81166 0.0
H1013 H 0.08371 0.40097 0.84376 0.0
H1014 H 0.14038 0.46538 0.84525 0.0
H1015 H 0.15671 0.45027 0.81312 0.0
H1016 H 0.13587 0.45382 0.88894 0.0
H1017 H 0.04025 0.44401 0.8419 0.0
H1018 H 0.04862 0.41735 0.84265 0.0
H1019 H 0.06544 0.44053 0.82722 0.0
C1020 C 0.10879 0.4033 0.81851 0.0
C1021 C 0.12964 0.41669 0.80932 0.0
C1022 C 0.09942 0.41206 0.83702 0.0
C1023 C 0.11032 0.43465 0.84695 0.0
C1024 C 0.13137 0.44795 0.83808 0.0
H1025 H 0.0376 0.50938 0.93493 0.0
H1026 H 0.05511 0.4944 0.90361 0.0
C1027 C 0.14083 0.43918 0.81961 0.0
C1028 C 0.1001 0.44426 0.86667 0.0
H1029 H 0.04654 0.45317 0.88278 0.0
C1030 C 0.11632 0.45368 0.88749 0.0
C1031 C 0.07465 0.44459 0.86505 0.0
C1032 C 0.05628 0.43631 0.84293 0.0
C1033 C 0.10788 0.46291 0.9065 0.0
C1034 C 0.08222 0.46248 0.90518 0.0
C1035 C 0.06611 0.45339 0.88423 0.0
C1036 C 0.07182 0.47187 0.92492 0.0
C1037 C 0.12685 0.47364 0.92761 0.0
C1038 C 0.07492 0.46432 0.94772 0.0
C1039 C 0.06496 0.47305 0.96588 0.0
C1040 C 0.0513 0.48949 0.96183 0.0
C1041 C 0.04801 0.49685 0.93896 0.0
C1042 C 0.05804 0.48818 0.92087 0.0
H1043 H 0.14618 0.47888 0.92327 0.0
H1044 H 0.12266 0.48898 0.93516 0.0
H1045 H 0.12639 0.46087 0.9411 0.0
H1046 H 0.08478 0.45135 0.95151 0.0
H1047 H 0.06779 0.4667 0.98308 0.0
H1048 H 0.61243 0.79679 0.80209 0.0
H1049 H 0.5951 0.82522 0.81974 0.0
H1050 H 0.66982 0.86501 0.84887 0.0
H1051 H 0.68718 0.83684 0.83151 0.0
H1052 H 0.59987 0.83911 0.86649 0.0
H1053 H 0.64023 0.91296 0.81622 0.0
H1054 H 0.63877 0.88368 0.8075 0.0
H1055 H 0.66353 0.8999 0.82961 0.0
C1056 C 0.62512 0.81162 0.81227 0.0
C1057 C 0.65119 0.81473 0.81518 0.0
C1058 C 0.61522 0.82785 0.82222 0.0
C1059 C 0.63124 0.84745 0.83515 0.0
C1060 C 0.65719 0.85036 0.83837 0.0
H1061 H 0.61254 0.93421 0.94492 0.0
H1062 H 0.61984 0.90451 0.91969 0.0
C1063 C 0.66707 0.83423 0.82845 0.0
C1064 C 0.62105 0.86448 0.84628 0.0
H1065 H 0.62689 0.92208 0.85204 0.0
C1066 C 0.60545 0.85721 0.86311 0.0
C1067 C 0.628 0.888 0.84153 0.0
C1068 C 0.64333 0.89658 0.82255 0.0
C1069 C 0.59771 0.87307 0.87624 0.0
C1070 C 0.60624 0.89681 0.8727 0.0
C1071 C 0.62069 0.90391 0.85498 0.0
C1072 C 0.6014 0.91463 0.8879 0.0
C1073 C 0.58066 0.86427 0.89389 0.0
C1074 C 0.58936 0.93066 0.87829 0.0
C1075 C 0.58536 0.94779 0.89265 0.0
C1076 C 0.5934 0.94919 0.91687 0.0
C1077 C 0.60576 0.9333 0.92638 0.0
C1078 C 0.60984 0.91627 0.91201 0.0
H1079 H 0.56965 0.8461 0.88932 0.0
H1080 H 0.59216 0.86494 0.91126 0.0
H1081 H 0.56747 0.87491 0.89526 0.0
H1082 H 0.58288 0.92978 0.85969 0.0
H1083 H 0.5756 0.95969 0.88487 0.0
H1084 H 0.87154 0.18143 0.39696 0.0
H1085 H 0.90133 0.16001 0.41191 0.0
H1086 H 0.8418 0.10918 0.43608 0.0
H1087 H 0.81198 0.13058 0.42151 0.0
H1088 H 0.91333 0.14545 0.45827 0.0
H1089 H 0.87192 0.07205 0.39251 0.0
H1090 H 0.86557 0.0997 0.38939 0.0
H1091 H 0.84984 0.07979 0.40853 0.0
C1092 C 0.86486 0.16589 0.40579 0.0
C1093 C 0.83934 0.1576 0.40787 0.0
C1094 C 0.88187 0.15362 0.41418 0.0
C1095 C 0.87363 0.13282 0.42466 0.0
C1096 C 0.8484 0.12495 0.42756 0.0
H1097 H 0.9336 0.0278 0.48603 0.0
H1098 H 0.90825 0.05211 0.46873 0.0
C1099 C 0.8314 0.13719 0.41923 0.0
C1100 C 0.89127 0.11913 0.43238 0.0
H1101 H 0.90197 0.06676 0.42364 0.0
C1102 C 0.91105 0.12833 0.4506 0.0
C1103 C 0.8882 0.09685 0.42223 0.0
C1104 C 0.86788 0.08653 0.40194 0.0
C1105 C 0.92734 0.11544 0.4596 0.0
C1106 C 0.92396 0.09296 0.44973 0.0
C1107 C 0.90449 0.08399 0.43116 0.0
C1108 C 0.93957 0.07799 0.45922 0.0
C1109 C 0.94738 0.12563 0.48014 0.0
C1110 C 0.96554 0.08422 0.4591 0.0
C1111 C 0.98015 0.07035 0.46903 0.0
C1112 C 0.96897 0.04996 0.47912 0.0
C1113 C 0.94284 0.04342 0.47849 0.0
C1114 C 0.9283 0.05729 0.4686 0.0
H1115 H 0.94392 0.14079 0.48887 0.0
H1116 H 0.94857 0.11265 0.4932 0.0
H1117 H 0.9658 0.13131 0.47399 0.0
H1118 H 0.97453 0.0999 0.45149 0.0
H1119 H 1.00022 0.07582 0.46914 0.0
H1120 H 0.27863 0.65992 0.1243 0.0
H1121 H 0.23775 0.63954 0.10219 0.0
H1122 H 0.23117 0.58526 0.14982 0.0
H1123 H 0.2722 0.60552 0.17206 0.0
H1124 H 0.21996 0.57249 0.09671 0.0
H1125 H 0.16876 0.631 0.12951 0.0
H1126 H 0.19812 0.64433 0.11989 0.0
H1127 H 0.19781 0.62789 0.14526 0.0
C1128 C 0.26858 0.64356 0.12998 0.0
C1129 C 0.27862 0.63432 0.14993 0.0
C1130 C 0.2452 0.63202 0.11741 0.0
C1131 C 0.23149 0.61099 0.12447 0.0
C1132 C 0.24151 0.60152 0.14417 0.0
H1133 H 0.07522 0.53925 0.07487 0.0
H1134 H 0.11663 0.55394 0.0986 0.0
C1135 C 0.26484 0.61316 0.1569 0.0
C1136 C 0.20653 0.59909 0.11134 0.0
H1137 H 0.14654 0.60329 0.09908 0.0
C1138 C 0.20385 0.57911 0.09727 0.0
C1139 C 0.1856 0.60775 0.11231 0.0
C1140 C 0.18749 0.62884 0.12765 0.0
C1141 C 0.18076 0.56785 0.08364 0.0
C1142 C 0.16002 0.57687 0.08416 0.0
C1143 C 0.16257 0.59652 0.09867 0.0
C1144 C 0.1355 0.56642 0.0695 0.0
C1145 C 0.1786 0.54638 0.0688 0.0
C1146 C 0.13252 0.56851 0.04528 0.0
C1147 C 0.10886 0.56033 0.03171 0.0
C1148 C 0.08787 0.54991 0.04217 0.0
C1149 C 0.09106 0.54729 0.06635 0.0
C1150 C 0.11466 0.55564 0.07992 0.0
H1151 H 0.19502 0.53942 0.07333 0.0
H1152 H 0.16129 0.53287 0.07081 0.0
H1153 H 0.1773 0.5504 0.05016 0.0
H1154 H 0.14838 0.57698 0.03699 0.0
H1155 H 0.10693 0.5625 1.01311 0.0
H1156 H 0.28308 0.39235 0.63982 0.0
H1157 H 0.31717 0.40827 0.61792 0.0
H1158 H 0.32521 0.47602 0.64848 0.0
H1159 H 0.29166 0.46006 0.67125 0.0
H1160 H 0.3221 0.43938 0.58507 0.0
H1161 H 0.39707 0.47342 0.66041 0.0
H1162 H 0.36714 0.45426 0.66369 0.0
H1163 H 0.37027 0.48438 0.66029 0.0
C1164 C 0.29228 0.41061 0.6423 0.0
C1165 C 0.28455 0.42474 0.65776 0.0
C1166 C 0.31176 0.41976 0.62949 0.0
C1167 C 0.32433 0.44338 0.63169 0.0
C1168 C 0.31639 0.45767 0.64674 0.0
H1169 H 0.45018 0.52493 0.56656 0.0
H1170 H 0.4146 0.51255 0.58791 0.0
C1171 C 0.29686 0.44851 0.65961 0.0
C1172 C 0.34529 0.45285 0.61787 0.0
H1173 H 0.40745 0.48243 0.62293 0.0
C1174 C 0.34075 0.44876 0.59343 0.0
C1175 C 0.36979 0.46523 0.62853 0.0
C1176 C 0.37651 0.46944 0.65468 0.0
C1177 C 0.35969 0.45671 0.57952 0.0
C1178 C 0.38426 0.46883 0.59019 0.0
C1179 C 0.38874 0.4732 0.61459 0.0
C1180 C 0.40563 0.47655 0.57647 0.0
C1181 C 0.35302 0.45236 0.55338 0.0
C1182 C 0.41283 0.46058 0.56284 0.0
C1183 C 0.43319 0.46762 0.55054 0.0
C1184 C 0.44718 0.49089 0.55152 0.0
C1185 C 0.4399 0.5069 0.56514 0.0
C1186 C 0.41953 0.49981 0.5775 0.0
H1187 H 0.33258 0.44935 0.54756 0.0
H1188 H 0.36324 0.46705 0.54425 0.0
H1189 H 0.35823 0.43675 0.548 0.0
H1190 H 0.40296 0.44247 0.56205 0.0
H1191 H 0.43819 0.45466 0.54051 0.0
H1192 H 0.77721 0.65108 0.83169 0.0
H1193 H 0.80207 0.63296 0.85909 0.0
H1194 H 0.76644 0.651 0.91514 0.0
H1195 H 0.7408 0.66874 0.88763 0.0
H1196 H 0.81963 0.66533 0.92349 0.0
H1197 H 0.78421 0.57314 0.8936 0.0
H1198 H 0.7909 0.59161 0.87016 0.0
H1199 H 0.76645 0.59369 0.88643 0.0
C1200 C 0.774 0.65061 0.84967 0.0
C1201 C 0.7569 0.66134 0.8574 0.0
C1202 C 0.78832 0.64027 0.86534 0.0
C1203 C 0.78586 0.64042 0.88906 0.0
C1204 C 0.76848 0.65062 0.89685 0.0
H1205 H 0.88297 0.57333 0.97827 0.0
H1206 H 0.84571 0.58572 0.96345 0.0
C1207 C 0.75398 0.66086 0.88113 0.0
C1208 C 0.80326 0.63182 0.9058 0.0
H1209 H 0.82588 0.5852 0.9156 0.0
C1210 C 0.8207 0.64769 0.92214 0.0
C1211 C 0.80441 0.60876 0.90418 0.0
C1212 C 0.78533 0.59074 0.8878 0.0
C1213 C 0.84035 0.64146 0.93579 0.0
C1214 C 0.84265 0.61888 0.93281 0.0
C1215 C 0.8242 0.60258 0.91767 0.0
C1216 C 0.86529 0.61246 0.94335 0.0
C1217 C 0.85892 0.65928 0.95278 0.0
C1218 C 0.88853 0.62333 0.93683 0.0
C1219 C 0.90971 0.61615 0.94498 0.0
C1220 C 0.90811 0.59791 0.95985 0.0
C1221 C 0.88482 0.58728 0.96667 0.0
C1222 C 0.86355 0.59441 0.95836 0.0
H1223 H 0.85059 0.67296 0.9582 0.0
H1224 H 0.8657 0.65133 0.96859 0.0
H1225 H 0.8753 0.66755 0.94427 0.0
H1226 H 0.89012 0.63691 0.92478 0.0
H1227 H 0.92715 0.6244 0.93892 0.0
H1228 H 0.48461 0.81902 0.18488 0.0
H1229 H 0.49767 0.85354 0.16326 0.0
H1230 H 0.43287 0.82758 0.11048 0.0
H1231 H 0.41989 0.79314 0.1318 0.0
H1232 H 0.47489 0.84209 0.09138 0.0
H1233 H 0.4704 0.90928 0.15611 0.0
H1234 H 0.48978 0.89137 0.16723 0.0
H1235 H 0.45663 0.87901 0.15877 0.0
C1236 C 0.47301 0.82083 0.16881 0.0
C1237 C 0.4513 0.80323 0.16 0.0
C1238 C 0.48044 0.84061 0.1565 0.0
C1239 C 0.46612 0.84332 0.13532 0.0
C1240 C 0.44427 0.82592 0.12673 0.0
H1241 H 0.48077 0.96614 0.05534 0.0
H1242 H 0.46683 0.93427 0.08022 0.0
C1243 C 0.43693 0.80615 0.13891 0.0
C1244 C 0.4744 0.86359 0.12134 0.0
H1245 H 0.48918 0.92238 0.1228 0.0
C1246 C 0.47794 0.85963 0.09827 0.0
C1247 C 0.47807 0.88651 0.13016 0.0
C1248 C 0.4733 0.89187 0.15434 0.0
C1249 C 0.48532 0.87785 0.08391 0.0
C1250 C 0.48985 0.9008 0.09298 0.0
C1251 C 0.48595 0.90481 0.11593 0.0
C1252 C 0.49876 0.92078 0.07886 0.0
C1253 C 0.48776 0.87229 0.05899 0.0
C1254 C 0.52154 0.92407 0.07021 0.0
C1255 C 0.52945 0.94217 0.05602 0.0
C1256 C 0.51491 0.95754 0.05041 0.0
C1257 C 0.49241 0.95464 0.05952 0.0
C1258 C 0.48444 0.93643 0.07369 0.0
H1259 H 0.477 0.85436 0.05294 0.0
H1260 H 0.4811 0.88423 0.04703 0.0
H1261 H 0.50776 0.87408 0.05776 0.0
H1262 H 0.53318 0.91253 0.07433 0.0
H1263 H 0.54695 0.94406 0.04937 0.0
H1264 H 0.08492 0.24639 0.66806 0.0
H1265 H 0.06795 0.2092 0.64583 0.0
H1266 H 0.13916 0.21545 0.62306 0.0
H1267 H 0.15609 0.253 0.64429 0.0
H1268 H 0.0683 0.19954 0.59394 0.0
H1269 H 0.11961 0.15033 0.6527 0.0
H1270 H 0.11381 0.17674 0.6626 0.0
H1271 H 0.1373 0.17766 0.64436 0.0
C1272 C 0.09703 0.24012 0.65816 0.0
C1273 C 0.12211 0.25305 0.65832 0.0
C1274 C 0.08726 0.21865 0.64554 0.0
C1275 C 0.10231 0.20927 0.63293 0.0
C1276 C 0.12723 0.22205 0.63292 0.0
H1277 H 0.07372 0.07422 0.5559 0.0
H1278 H 0.0937 0.11257 0.57572 0.0
C1279 C 0.13695 0.2436 0.6453 0.0
C1280 C 0.09187 0.1864 0.61944 0.0
H1281 H 0.09462 0.13039 0.61848 0.0
C1282 C 0.07402 0.18441 0.59934 0.0
C1283 C 0.09957 0.16667 0.62618 0.0
C1284 C 0.11852 0.16772 0.6477 0.0
C1285 C 0.06379 0.1634 0.5858 0.0
C1286 C 0.07085 0.14338 0.59292 0.0
C1287 C 0.08902 0.14551 0.6129 0.0
C1288 C 0.0589 0.12003 0.58045 0.0
C1289 C 0.04595 0.16313 0.56363 0.0
C1290 C 0.0327 0.11103 0.57663 0.0
C1291 C 0.02132 0.08932 0.56512 0.0
C1292 C 0.03575 0.07558 0.55744 0.0
C1293 C 0.06202 0.08432 0.56152 0.0
C1294 C 0.07345 0.10627 0.57292 0.0
H1295 H 0.04937 0.18042 0.55649 0.0
H1296 H 0.04763 0.15064 0.55003 0.0
H1297 H 0.02644 0.15821 0.56746 0.0
H1298 H 0.0209 0.12072 0.58281 0.0
H1299 H 1.00106 0.08316 0.56251 0.0
H1300 H 0.71622 0.30175 0.42715 0.0
H1301 H 0.68928 0.32437 0.43936 0.0
H1302 H 0.65012 0.31803 0.36888 0.0
H1303 H 0.67685 0.29546 0.35657 0.0
H1304 H 0.66158 0.3622 0.38923 0.0
H1305 H 0.61597 0.29758 0.4473 0.0
H1306 H 0.64956 0.30669 0.4539 0.0
H1307 H 0.6347 0.2911 0.42657 0.0
C1308 C 0.70183 0.30515 0.41429 0.0
C1309 C 0.69866 0.29679 0.39091 0.0
C1310 C 0.68644 0.31803 0.42128 0.0
C1311 C 0.66747 0.32256 0.40508 0.0
C1312 C 0.66464 0.3147 0.38166 0.0
H1313 H 0.53915 0.36558 0.43695 0.0
H1314 H 0.56705 0.34539 0.42231 0.0
C1315 C 0.68003 0.30191 0.37464 0.0
C1316 C 0.65035 0.33534 0.41244 0.0
H1317 H 0.60634 0.33346 0.44799 0.0
C1318 C 0.64947 0.35594 0.40207 0.0
C1319 C 0.63429 0.3269 0.4289 0.0
C1320 C 0.63342 0.30425 0.43968 0.0
C1321 C 0.63319 0.36851 0.40794 0.0
C1322 C 0.6177 0.36043 0.42492 0.0
C1323 C 0.61835 0.33969 0.43508 0.0
C1324 C 0.60071 0.37323 0.43255 0.0
C1325 C 0.6324 0.39008 0.3956 0.0
C1326 C 0.6104 0.39555 0.44312 0.0
C1327 C 0.59452 0.40711 0.45146 0.0
C1328 C 0.56867 0.39647 0.44959 0.0
C1329 C 0.55899 0.37417 0.43879 0.0
C1330 C 0.57488 0.36265 0.43037 0.0
H1331 H 0.63992 0.39037 0.37885 0.0
H1332 H 0.61297 0.39174 0.39199 0.0
H1333 H 0.64408 0.40529 0.40688 0.0
H1334 H 0.63034 0.40382 0.44549 0.0
H1335 H 0.60264 0.42409 0.46011 0.0
loop_
_geom_bond_atom_site_label_1
_geom_bond_atom_site_label_2
_geom_bond_distance
_geom_bond_site_symmetry_2
_ccdc_geom_bond_type
C0 C1 1.386 . S
C0 C2 1.397 . S
C0 H24 0.931 . S
C1 C0 1.386 . S
C1 C5 1.397 . S
C2 C0 1.397 . S
C2 C3 1.384 . S
C2 H25 0.930 . S
C3 C2 1.384 . S
C3 C4 1.377 . S
C3 C6 1.481 . S
C4 C3 1.377 . S
C4 C5 1.389 . S
C4 H26 0.929 . S
C5 C1 1.397 . S
C5 C4 1.389 . S
C5 H27 0.931 . S
C6 C3 1.481 . S
C6 C7 1.387 . S
C6 C11 1.390 . S
C7 C6 1.387 . S
C7 C8 1.401 . S
C7 H28 0.930 . S
C8 C7 1.401 . S
C8 C9 1.376 . S
C8 C17 1.511 . S
C9 C8 1.376 . S
C9 C10 1.392 . S
C9 H30 0.931 . S
C10 C9 1.392 . S
C10 C11 1.361 . S
C10 C12 1.500 . S
C11 C6 1.390 . S
C11 C10 1.361 . S
C11 H29 0.931 . S
C12 C10 1.500 . S
C12 C13 1.371 . S
C12 C14 1.365 . S
C13 C12 1.371 . S
C13 C23 1.386 . S
C13 H31 0.931 . S
C14 C12 1.365 . S
C14 C15 1.409 . S
C14 H32 0.929 . S
C15 C14 1.409 . S
C15 C16 1.380 . S
C15 H33 0.930 . S
C16 C15 1.380 . S
C16 C23 1.357 . S
C17 C8 1.511 . S
C17 C18 1.341 . S
C17 C19 1.371 . S
C18 C17 1.341 . S
C18 C22 1.394 . S
C18 H34 0.930 . S
C19 C17 1.371 . S
C19 C20 1.392 . S
C19 H35 0.931 . S
C20 C19 1.392 . S
C20 C21 1.331 . S
C20 H38 0.932 . S
C21 C20 1.331 . S
C21 C22 1.336 . S
C22 C18 1.394 . S
C22 C21 1.336 . S
C22 H37 0.929 . S
C23 C13 1.386 . S
C23 C16 1.357 . S
C23 H36 0.928 . S
H24 C0 0.931 . S
H25 C2 0.930 . S
H26 C4 0.929 . S
H27 C5 0.931 . S
H28 C7 0.930 . S
H29 C11 0.931 . S
H30 C9 0.931 . S
H31 C13 0.931 . S
H32 C14 0.929 . S
H33 C15 0.930 . S
H34 C18 0.930 . S
H35 C19 0.931 . S
H36 C23 0.928 . S
H37 C22 0.929 . S
H38 C20 0.932 . S
C39 C40 1.386 . S
C39 C41 1.397 . S
C39 H63 0.931 . S
C40 C39 1.386 . S
C40 C44 1.397 . S
C41 C39 1.397 . S
C41 C42 1.384 . S
C41 H64 0.930 . S
C42 C41 1.384 . S
C42 C43 1.377 . S
C42 C45 1.481 . S
C43 C42 1.377 . S
C43 C44 1.389 . S
C43 H65 0.929 . S
C44 C40 1.397 . S
C44 C43 1.389 . S
C44 H66 0.931 . S
C45 C42 1.481 . S
C45 C46 1.387 . S
C45 C50 1.390 . S
C46 C45 1.387 . S
C46 C47 1.401 . S
C46 H67 0.930 . S
C47 C46 1.401 . S
C47 C48 1.376 . S
C47 C56 1.511 . S
C48 C47 1.376 . S
C48 C49 1.392 . S
C48 H69 0.931 . S
C49 C48 1.392 . S
C49 C50 1.361 . S
C49 C51 1.500 . S
C50 C45 1.390 . S
C50 C49 1.361 . S
C50 H68 0.931 . S
C51 C49 1.500 . S
C51 C52 1.371 . S
C51 C53 1.365 . S
C52 C51 1.371 . S
C52 C62 1.386 . S
C52 H70 0.931 . S
C53 C51 1.365 . S
C53 C54 1.409 . S
C53 H71 0.929 . S
C54 C53 1.409 . S
C54 C55 1.380 . S
C54 H72 0.930 . S
C55 C54 1.380 . S
C55 C62 1.357 . S
C56 C47 1.511 . S
C56 C57 1.341 . S
C56 C58 1.371 . S
C57 C56 1.341 . S
C57 C61 1.394 . S
C57 H73 0.930 . S
C58 C56 1.371 . S
C58 C59 1.392 . S
C58 H74 0.931 . S
C59 C58 1.392 . S
C59 C60 1.331 . S
C59 H77 0.932 . S
C60 C59 1.331 . S
C60 C61 1.336 . S
C61 C57 1.394 . S
C61 C60 1.336 . S
C61 H76 0.929 . S
C62 C52 1.386 . S
C62 C55 1.357 . S
C62 H75 0.928 . S
H63 C39 0.931 . S
H64 C41 0.930 . S
H65 C43 0.929 . S
H66 C44 0.931 . S
H67 C46 0.930 . S
H68 C50 0.931 . S
H69 C48 0.931 . S
H70 C52 0.931 . S
H71 C53 0.929 . S
H72 C54 0.930 . S
H73 C57 0.930 . S
H74 C58 0.931 . S
H75 C62 0.928 . S
H76 C61 0.929 . S
H77 C59 0.932 . S
C78 C79 1.386 . S
C78 C80 1.397 . S
C78 H102 0.931 . S
C79 C78 1.386 . S
C79 C83 1.397 . S
C80 C78 1.397 . S
C80 C81 1.384 . S
C80 H103 0.930 . S
C81 C80 1.384 . S
C81 C82 1.377 . S
C81 C84 1.481 . S
C82 C81 1.377 . S
C82 C83 1.389 . S
C82 H104 0.929 . S
C83 C79 1.397 . S
C83 C82 1.389 . S
C83 H105 0.931 . S
C84 C81 1.481 . S
C84 C85 1.387 . S
C84 C89 1.390 . S
C85 C84 1.387 . S
C85 C86 1.401 . S
C85 H106 0.930 . S
C86 C85 1.401 . S
C86 C87 1.376 . S
C86 C95 1.511 . S
C87 C86 1.376 . S
C87 C88 1.392 . S
C87 H108 0.931 . S
C88 C87 1.392 . S
C88 C89 1.361 . S
C88 C90 1.500 . S
C89 C84 1.390 . S
C89 C88 1.361 . S
C89 H107 0.931 . S
C90 C88 1.500 . S
C90 C91 1.371 . S
C90 C92 1.365 . S
C91 C90 1.371 . S
C91 C101 1.386 . S
C91 H109 0.931 . S
C92 C90 1.365 . S
C92 C93 1.409 . S
C92 H110 0.929 . S
C93 C92 1.409 . S
C93 C94 1.380 . S
C93 H111 0.930 . S
C94 C93 1.380 . S
C94 C101 1.357 . S
C95 C86 1.511 . S
C95 C96 1.341 . S
C95 C97 1.371 . S
C96 C95 1.341 . S
C96 C100 1.394 . S
C96 H112 0.930 . S
C97 C95 1.371 . S
C97 C98 1.392 . S
C97 H113 0.931 . S
C98 C97 1.392 . S
C98 C99 1.331 . S
C98 H116 0.932 . S
C99 C98 1.331 . S
C99 C100 1.336 . S
C100 C96 1.394 . S
C100 C99 1.336 . S
C100 H115 0.929 . S
C101 C91 1.386 . S
C101 C94 1.357 . S
C101 H114 0.928 . S
H102 C78 0.931 . S
H103 C80 0.930 . S
H104 C82 0.929 . S
H105 C83 0.931 . S
H106 C85 0.930 . S
H107 C89 0.931 . S
H108 C87 0.931 . S
H109 C91 0.931 . S
H110 C92 0.929 . S
H111 C93 0.930 . S
H112 C96 0.930 . S
H113 C97 0.931 . S
H114 C101 0.928 . S
H115 C100 0.929 . S
H116 C98 0.932 . S
C117 C118 1.386 . S
C117 C119 1.397 . S
C117 H141 0.931 . S
C118 C117 1.386 . S
C118 C122 1.397 . S
C119 C117 1.397 . S
C119 C120 1.384 . S
C119 H142 0.930 . S
C120 C119 1.384 . S
C120 C121 1.377 . S
C120 C123 1.481 . S
C121 C120 1.377 . S
C121 C122 1.389 . S
C121 H143 0.929 . S
C122 C118 1.397 . S
C122 C121 1.389 . S
C122 H144 0.931 . S
C123 C120 1.481 . S
C123 C124 1.387 . S
C123 C128 1.390 . S
C124 C123 1.387 . S
C124 C125 1.401 . S
C124 H145 0.930 . S
C125 C124 1.401 . S
C125 C126 1.376 . S
C125 C134 1.511 . S
C126 C125 1.376 . S
C126 C127 1.392 . S
C126 H147 0.931 . S
C127 C126 1.392 . S
C127 C128 1.361 . S
C127 C129 1.500 . S
C128 C123 1.390 . S
C128 C127 1.361 . S
C128 H146 0.931 . S
C129 C127 1.500 . S
C129 C130 1.371 . S
C129 C131 1.365 . S
C130 C129 1.371 . S
C130 C140 1.386 . S
C130 H148 0.931 . S
C131 C129 1.365 . S
C131 C132 1.409 . S
C131 H149 0.929 . S
C132 C131 1.409 . S
C132 C133 1.380 . S
C132 H150 0.930 . S
C133 C132 1.380 . S
C133 C140 1.357 . S
C134 C125 1.511 . S
C134 C135 1.341 . S
C134 C136 1.371 . S
C135 C134 1.341 . S
C135 C139 1.394 . S
C135 H151 0.930 . S
C136 C134 1.371 . S
C136 C137 1.392 . S
C136 H152 0.931 . S
C137 C136 1.392 . S
C137 C138 1.331 . S
C137 H155 0.932 . S
C138 C137 1.331 . S
C138 C139 1.336 . S
C139 C135 1.394 . S
C139 C138 1.336 . S
C139 H154 0.929 . S
C140 C130 1.386 . S
C140 C133 1.357 . S
C140 H153 0.928 . S
H141 C117 0.931 . S
H142 C119 0.930 . S
H143 C121 0.929 . S
H144 C122 0.931 . S
H145 C124 0.930 . S
H146 C128 0.931 . S
H147 C126 0.931 . S
H148 C130 0.931 . S
H149 C131 0.929 . S
H150 C132 0.930 . S
H151 C135 0.930 . S
H152 C136 0.931 . S
H153 C140 0.928 . S
H154 C139 0.929 . S
H155 C137 0.932 . S
C156 C157 1.386 . S
C156 C158 1.397 . S
C156 H180 0.931 . S
C157 C156 1.386 . S
C157 C161 1.397 . S
C158 C156 1.397 . S
C158 C159 1.384 . S
C158 H181 0.930 . S
C159 C158 1.384 . S
C159 C160 1.377 . S
C159 C162 1.481 . S
C160 C159 1.377 . S
C160 C161 1.389 . S
C160 H182 0.929 . S
C161 C157 1.397 . S
C161 C160 1.389 . S
C161 H183 0.931 . S
C162 C159 1.481 . S
C162 C163 1.387 . S
C162 C167 1.390 . S
C163 C162 1.387 . S
C163 C164 1.401 . S
C163 H184 0.930 . S
C164 C163 1.401 . S
C164 C165 1.376 . S
C164 C173 1.511 . S
C165 C164 1.376 . S
C165 C166 1.392 . S
C165 H186 0.931 . S
C166 C165 1.392 . S
C166 C167 1.361 . S
C166 C168 1.500 . S
C167 C162 1.390 . S
C167 C166 1.361 . S
C167 H185 0.931 . S
C168 C166 1.500 . S
C168 C169 1.371 . S
C168 C170 1.365 . S
C169 C168 1.371 . S
C169 C179 1.386 . S
C169 H187 0.931 . S
C170 C168 1.365 . S
C170 C171 1.409 . S
C170 H188 0.929 . S
C171 C170 1.409 . S
C171 C172 1.380 . S
C171 H189 0.930 . S
C172 C171 1.380 . S
C172 C179 1.357 . S
C173 C164 1.511 . S
C173 C174 1.341 . S
C173 C175 1.371 . S
C174 C173 1.341 . S
C174 C178 1.394 . S
C174 H190 0.930 . S
C175 C173 1.371 . S
C175 C176 1.392 . S
C175 H191 0.931 . S
C176 C175 1.392 . S
C176 C177 1.331 . S
C176 H194 0.932 . S
C177 C176 1.331 . S
C177 C178 1.336 . S
C178 C174 1.394 . S
C178 C177 1.336 . S
C178 H193 0.929 . S
C179 C169 1.386 . S
C179 C172 1.357 . S
C179 H192 0.928 . S
H180 C156 0.931 . S
H181 C158 0.930 . S
H182 C160 0.929 . S
H183 C161 0.931 . S
H184 C163 0.930 . S
H185 C167 0.931 . S
H186 C165 0.931 . S
H187 C169 0.931 . S
H188 C170 0.929 . S
H189 C171 0.930 . S
H190 C174 0.930 . S
H191 C175 0.931 . S
H192 C179 0.928 . S
H193 C178 0.929 . S
H194 C176 0.932 . S
C195 C196 1.386 . S
C195 C197 1.397 . S
C195 H219 0.931 . S
C196 C195 1.386 . S
C196 C200 1.397 . S
C197 C195 1.397 . S
C197 C198 1.384 . S
C197 H220 0.930 . S
C198 C197 1.384 . S
C198 C199 1.377 . S
C198 C201 1.481 . S
C199 C198 1.377 . S
C199 C200 1.389 . S
C199 H221 0.929 . S
C200 C196 1.397 . S
C200 C199 1.389 . S
C200 H222 0.931 . S
C201 C198 1.481 . S
C201 C202 1.387 . S
C201 C206 1.390 . S
C202 C201 1.387 . S
C202 C203 1.401 . S
C202 H223 0.930 . S
C203 C202 1.401 . S
C203 C204 1.376 . S
C203 C212 1.511 . S
C204 C203 1.376 . S
C204 C205 1.392 . S
C204 H225 0.931 . S
C205 C204 1.392 . S
C205 C206 1.361 . S
C205 C207 1.500 . S
C206 C201 1.390 . S
C206 C205 1.361 . S
C206 H224 0.931 . S
C207 C205 1.500 . S
C207 C208 1.371 . S
C207 C209 1.365 . S
C208 C207 1.371 . S
C208 C218 1.386 . S
C208 H226 0.931 . S
C209 C207 1.365 . S
C209 C210 1.409 . S
C209 H227 0.929 . S
C210 C209 1.409 . S
C210 C211 1.380 . S
C210 H228 0.930 . S
C211 C210 1.380 . S
C211 C218 1.357 . S
C212 C203 1.511 . S
C212 C213 1.341 . S
C212 C214 1.371 . S
C213 C212 1.341 . S
C213 C217 1.394 . S
C213 H229 0.930 . S
C214 C212 1.371 . S
C214 C215 1.392 . S
C214 H230 0.931 . S
C215 C214 1.392 . S
C215 C216 1.331 . S
C215 H233 0.932 . S
C216 C215 1.331 . S
C216 C217 1.336 . S
C217 C213 1.394 . S
C217 C216 1.336 . S
C217 H232 0.929 . S
C218 C208 1.386 . S
C218 C211 1.357 . S
C218 H231 0.928 . S
H219 C195 0.931 . S
H220 C197 0.930 . S
H221 C199 0.929 . S
H222 C200 0.931 . S
H223 C202 0.930 . S
H224 C206 0.931 . S
H225 C204 0.931 . S
H226 C208 0.931 . S
H227 C209 0.929 . S
H228 C210 0.930 . S
H229 C213 0.930 . S
H230 C214 0.931 . S
H231 C218 0.928 . S
H232 C217 0.929 . S
H233 C215 0.932 . S
C234 C235 1.386 . S
C234 C236 1.397 . S
C234 H258 0.931 . S
C235 C234 1.386 . S
C235 C239 1.397 . S
C236 C234 1.397 . S
C236 C237 1.384 . S
C236 H259 0.930 . S
C237 C236 1.384 . S
C237 C238 1.377 . S
C237 C240 1.481 . S
C238 C237 1.377 . S
C238 C239 1.389 . S
C238 H260 0.929 . S
C239 C235 1.397 . S
C239 C238 1.389 . S
C239 H261 0.931 . S
C240 C237 1.481 . S
C240 C241 1.387 . S
C240 C245 1.390 . S
C241 C240 1.387 . S
C241 C242 1.401 . S
C241 H262 0.930 . S
C242 C241 1.401 . S
C242 C243 1.376 . S
C242 C251 1.511 . S
C243 C242 1.376 . S
C243 C244 1.392 . S
C243 H264 0.931 . S
C244 C243 1.392 . S
C244 C245 1.361 . S
C244 C246 1.500 . S
C245 C240 1.390 . S
C245 C244 1.361 . S
C245 H263 0.931 . S
C246 C244 1.500 . S
C246 C247 1.371 . S
C246 C248 1.365 . S
C247 C246 1.371 . S
C247 C257 1.386 . S
C247 H265 0.931 . S
C248 C246 1.365 . S
C248 C249 1.409 . S
C248 H266 0.929 . S
C249 C248 1.409 . S
C249 C250 1.380 . S
C249 H267 0.930 . S
C250 C249 1.380 . S
C250 C257 1.357 . S
C251 C242 1.511 . S
C251 C252 1.341 . S
C251 C253 1.371 . S
C252 C251 1.341 . S
C252 C256 1.394 . S
C252 H268 0.930 . S
C253 C251 1.371 . S
C253 C254 1.392 . S
C253 H269 0.931 . S
C254 C253 1.392 . S
C254 C255 1.331 . S
C254 H272 0.932 . S
C255 C254 1.331 . S
C255 C256 1.336 . S
C256 C252 1.394 . S
C256 C255 1.336 . S
C256 H271 0.929 . S
C257 C247 1.386 . S
C257 C250 1.357 . S
C257 H270 0.928 . S
H258 C234 0.931 . S
H259 C236 0.930 . S
H260 C238 0.929 . S
H261 C239 0.931 . S
H262 C241 0.930 . S
H263 C245 0.931 . S
H264 C243 0.931 . S
H265 C247 0.931 . S
H266 C248 0.929 . S
H267 C249 0.930 . S
H268 C252 0.930 . S
H269 C253 0.931 . S
H270 C257 0.928 . S
H271 C256 0.929 . S
H272 C254 0.932 . S
C273 C274 1.386 . S
C273 C275 1.397 . S
C273 H297 0.931 . S
C274 C273 1.386 . S
C274 C278 1.397 . S
C275 C273 1.397 . S
C275 C276 1.384 . S
C275 H298 0.930 . S
C276 C275 1.384 . S
C276 C277 1.377 . S
C276 C279 1.481 . S
C277 C276 1.377 . S
C277 C278 1.389 . S
C277 H299 0.929 . S
C278 C274 1.397 . S
C278 C277 1.389 . S
C278 H300 0.931 . S
C279 C276 1.481 . S
C279 C280 1.387 . S
C279 C284 1.390 . S
C280 C279 1.387 . S
C280 C281 1.401 . S
C280 H301 0.930 . S
C281 C280 1.401 . S
C281 C282 1.376 . S
C281 C290 1.511 . S
C282 C281 1.376 . S
C282 C283 1.392 . S
C282 H303 0.931 . S
C283 C282 1.392 . S
C283 C284 1.361 . S
C283 C285 1.500 . S
C284 C279 1.390 . S
C284 C283 1.361 . S
C284 H302 0.931 . S
C285 C283 1.500 . S
C285 C286 1.371 . S
C285 C287 1.365 . S
C286 C285 1.371 . S
C286 C296 1.386 . S
C286 H304 0.931 . S
C287 C285 1.365 . S
C287 C288 1.409 . S
C287 H305 0.929 . S
C288 C287 1.409 . S
C288 C289 1.380 . S
C288 H306 0.930 . S
C289 C288 1.380 . S
C289 C296 1.357 . S
C290 C281 1.511 . S
C290 C291 1.341 . S
C290 C292 1.371 . S
C291 C290 1.341 . S
C291 C295 1.394 . S
C291 H307 0.930 . S
C292 C290 1.371 . S
C292 C293 1.392 . S
C292 H308 0.931 . S
C293 C292 1.392 . S
C293 C294 1.331 . S
C293 H311 0.932 . S
C294 C293 1.331 . S
C294 C295 1.336 . S
C295 C291 1.394 . S
C295 C294 1.336 . S
C295 H310 0.929 . S
C296 C286 1.386 . S
C296 C289 1.357 . S
C296 H309 0.928 . S
H297 C273 0.931 . S
H298 C275 0.930 . S
H299 C277 0.929 . S
H300 C278 0.931 . S
H301 C280 0.930 . S
H302 C284 0.931 . S
H303 C282 0.931 . S
H304 C286 0.931 . S
H305 C287 0.929 . S
H306 C288 0.930 . S
H307 C291 0.930 . S
H308 C292 0.931 . S
H309 C296 0.928 . S
H310 C295 0.929 . S
H311 C293 0.932 . S
Pr312 C314 2.880 . S
Pr312 O332 2.562 . S
Pr312 O333 2.490 . S
Pr312 O334 2.695 1_665 S
Pr312 O335 2.512 1_665 S
Pr312 O337 2.437 1_655 S
Pr312 O340 2.436 . S
Pr312 O342 2.438 1_565 S
Pr313 C323 2.880 . S
Pr313 O334 2.436 . S
Pr313 O336 2.438 1_545 S
Pr313 O338 2.562 . S
Pr313 O339 2.490 . S
Pr313 O340 2.695 1_445 S
Pr313 O341 2.508 1_445 S
Pr313 O343 2.437 1_455 S
C314 Pr312 2.880 . S
C314 C315 1.491 . S
C314 O332 1.254 . S
C314 O333 1.225 . S
C315 C314 1.491 . S
C315 C316 1.392 . S
C315 C320 1.356 . S
C316 C315 1.392 . S
C316 C317 1.368 . S
C316 H344 0.929 . S
C317 C316 1.368 . S
C317 C318 1.386 . S
C317 H345 0.929 . S
C318 C317 1.386 . S
C318 C319 1.373 . S
C319 C318 1.373 . S
C319 C320 1.409 . S
C319 H346 0.931 . S
C320 C315 1.356 . S
C320 C319 1.409 . S
C320 H347 0.930 . S
C321 O334 1.270 . S
C321 O335 1.248 . S
C322 O336 1.267 . S
C322 O337 1.278 . S
C323 Pr313 2.880 . S
C323 C324 1.491 . S
C323 O338 1.254 . S
C323 O339 1.225 . S
C324 C323 1.491 . S
C324 C325 1.392 . S
C324 C329 1.356 . S
C325 C324 1.392 . S
C325 C326 1.368 . S
C325 H348 0.929 . S
C326 C325 1.368 . S
C326 C327 1.386 . S
C326 H349 0.929 . S
C327 C326 1.386 . S
C327 C328 1.373 . S
C328 C327 1.373 . S
C328 C329 1.409 . S
C328 H350 0.931 . S
C329 C324 1.356 . S
C329 C328 1.409 . S
C329 H351 0.930 . S
C330 O340 1.270 . S
C330 O341 1.258 . S
C331 O342 1.267 . S
C331 O343 1.278 . S
O332 Pr312 2.562 . S
O332 C314 1.254 . S
O333 Pr312 2.490 . S
O333 C314 1.225 . S
O334 Pr312 2.695 1_445 S
O334 Pr313 2.436 . S
O334 C321 1.270 . S
O335 Pr312 2.512 1_445 S
O335 C321 1.248 . S
O336 Pr313 2.438 1_565 S
O336 C322 1.267 . S
O337 Pr312 2.437 1_455 S
O337 C322 1.278 . S
O338 Pr313 2.562 . S
O338 C323 1.254 . S
O339 Pr313 2.490 . S
O339 C323 1.225 . S
O340 Pr312 2.436 . S
O340 Pr313 2.695 1_665 S
O340 C330 1.270 . S
O341 Pr313 2.508 1_665 S
O341 C330 1.258 . S
O342 Pr312 2.438 1_545 S
O342 C331 1.267 . S
O343 Pr313 2.437 1_655 S
O343 C331 1.278 . S
H344 C316 0.929 . S
H345 C317 0.929 . S
H346 C319 0.931 . S
H347 C320 0.930 . S
H348 C325 0.929 . S
H349 C326 0.929 . S
H350 C328 0.931 . S
H351 C329 0.930 . S
Pr352 C354 2.877 . S
Pr352 O372 2.559 . S
Pr352 O373 2.489 . S
Pr352 O374 2.697 1_554 S
Pr352 O375 2.515 1_554 S
Pr352 O377 2.435 . S
Pr352 O380 2.434 1_545 S
Pr352 O382 2.441 1_544 S
Pr353 C363 2.880 1_554 S
Pr353 O374 2.436 1_564 S
Pr353 O376 2.438 1_565 S
Pr353 O378 2.562 1_554 S
Pr353 O379 2.490 1_554 S
Pr353 O380 2.695 . S
Pr353 O381 2.512 . S
Pr353 O383 2.437 1_554 S
C354 Pr352 2.877 . S
C354 C355 1.491 . S
C354 O372 1.254 . S
C354 O373 1.225 . S
C355 C354 1.491 . S
C355 C356 1.392 . S
C355 C360 1.356 . S
C356 C355 1.392 . S
C356 C357 1.368 . S
C356 H384 0.929 . S
C357 C356 1.368 . S
C357 C358 1.386 . S
C357 H385 0.929 . S
C358 C357 1.386 . S
C358 C359 1.373 . S
C359 C358 1.373 . S
C359 C360 1.409 . S
C359 H386 0.931 . S
C360 C355 1.356 . S
C360 C359 1.409 . S
C360 H387 0.930 . S
C361 O374 1.270 . S
C361 O375 1.248 . S
C362 O376 1.267 . S
C362 O377 1.278 . S
C363 Pr353 2.880 1_556 S
C363 C364 1.491 . S
C363 O378 1.254 . S
C363 O379 1.225 . S
C364 C363 1.491 . S
C364 C365 1.392 . S
C364 C369 1.356 . S
C365 C364 1.392 . S
C365 C366 1.368 . S
C365 H388 0.929 . S
C366 C365 1.368 . S
C366 C367 1.386 . S
C366 H389 0.929 . S
C367 C366 1.386 . S
C367 C368 1.373 . S
C368 C367 1.373 . S
C368 C369 1.409 . S
C368 H390 0.931 . S
C369 C364 1.356 . S
C369 C368 1.409 . S
C369 H391 0.930 . S
C370 O380 1.270 . S
C370 O381 1.248 . S
C371 O382 1.267 . S
C371 O383 1.278 . S
O372 Pr352 2.559 . S
O372 C354 1.254 . S
O373 Pr352 2.489 . S
O373 C354 1.225 . S
O374 Pr352 2.697 1_556 S
O374 Pr353 2.436 1_546 S
O374 C361 1.270 . S
O375 Pr352 2.515 1_556 S
O375 C361 1.248 . S
O376 Pr353 2.438 1_545 S
O376 C362 1.267 . S
O377 Pr352 2.435 . S
O377 C362 1.278 . S
O378 Pr353 2.562 1_556 S
O378 C363 1.254 . S
O379 Pr353 2.490 1_556 S
O379 C363 1.225 . S
O380 Pr352 2.434 1_565 S
O380 Pr353 2.695 . S
O380 C370 1.270 . S
O381 Pr353 2.512 . S
O381 C370 1.248 . S
O382 Pr352 2.441 1_566 S
O382 C371 1.267 . S
O383 Pr353 2.437 1_556 S
O383 C371 1.278 . S
H384 C356 0.929 . S
H385 C357 0.929 . S
H386 C359 0.931 . S
H387 C360 0.930 . S
H388 C365 0.929 . S
H389 C366 0.929 . S
H390 C368 0.931 . S
H391 C369 0.930 . S
Pr392 C394 2.880 . S
Pr392 O412 2.562 . S
Pr392 O413 2.490 . S
Pr392 O414 2.695 . S
Pr392 O415 2.512 . S
Pr392 O417 2.437 . S
Pr392 O420 2.436 . S
Pr392 O422 2.438 . S
Pr393 C403 2.880 . S
Pr393 O414 2.436 . S
Pr393 O416 2.438 . S
Pr393 O418 2.562 . S
Pr393 O419 2.490 . S
Pr393 O420 2.695 . S
Pr393 O421 2.512 . S
Pr393 O423 2.437 . S
C394 Pr392 2.880 . S
C394 C395 1.491 . S
C394 O412 1.254 . S
C394 O413 1.225 . S
C395 C394 1.491 . S
C395 C396 1.392 . S
C395 C400 1.356 . S
C396 C395 1.392 . S
C396 C397 1.368 . S
C396 H424 0.929 . S
C397 C396 1.368 . S
C397 C398 1.386 . S
C397 H425 0.929 . S
C398 C397 1.386 . S
C398 C399 1.373 . S
C399 C398 1.373 . S
C399 C400 1.409 . S
C399 H426 0.931 . S
C400 C395 1.356 . S
C400 C399 1.409 . S
C400 H427 0.930 . S
C401 O414 1.270 . S
C401 O415 1.248 . S
C402 O416 1.267 . S
C402 O417 1.278 . S
C403 Pr393 2.880 . S
C403 C404 1.491 . S
C403 O418 1.254 . S
C403 O419 1.225 . S
C404 C403 1.491 . S
C404 C405 1.392 . S
C404 C409 1.356 . S
C405 C404 1.392 . S
C405 C406 1.368 . S
C405 H428 0.929 . S
C406 C405 1.368 . S
C406 C407 1.386 . S
C406 H429 0.929 . S
C407 C406 1.386 . S
C407 C408 1.373 . S
C408 C407 1.373 . S
C408 C409 1.409 . S
C408 H430 0.931 . S
C409 C404 1.356 . S
C409 C408 1.409 . S
C409 H431 0.930 . S
C410 O420 1.270 . S
C410 O421 1.248 . S
C411 O422 1.267 . S
C411 O423 1.278 . S
O412 Pr392 2.562 . S
O412 C394 1.254 . S
O413 Pr392 2.490 . S
O413 C394 1.225 . S
O414 Pr392 2.695 . S
O414 Pr393 2.436 . S
O414 C401 1.270 . S
O415 Pr392 2.512 . S
O415 C401 1.248 . S
O416 Pr393 2.438 . S
O416 C402 1.267 . S
O417 Pr392 2.437 . S
O417 C402 1.278 . S
O418 Pr393 2.562 . S
O418 C403 1.254 . S
O419 Pr393 2.490 . S
O419 C403 1.225 . S
O420 Pr392 2.436 . S
O420 Pr393 2.695 . S
O420 C410 1.270 . S
O421 Pr393 2.512 . S
O421 C410 1.248 . S
O422 Pr392 2.438 . S
O422 C411 1.267 . S
O423 Pr393 2.437 . S
O423 C411 1.278 . S
H424 C396 0.929 . S
H425 C397 0.929 . S
H426 C399 0.931 . S
H427 C400 0.930 . S
H428 C405 0.929 . S
H429 C406 0.929 . S
H430 C408 0.931 . S
H431 C409 0.930 . S
Pr432 C434 2.902 . S
Pr432 O452 2.591 . S
Pr432 O453 2.502 . S
Pr432 O454 2.679 1_656 S
Pr432 O455 2.494 1_656 S
Pr432 O457 2.453 1_556 S
Pr432 O460 2.447 . S
Pr432 O462 2.416 1_655 S
Pr433 C443 2.880 . S
Pr433 O454 2.436 . S
Pr433 O456 2.438 1_455 S
Pr433 O458 2.562 . S
Pr433 O459 2.490 . S
Pr433 O460 2.695 1_454 S
Pr433 O461 2.512 1_454 S
Pr433 O463 2.437 1_554 S
C434 Pr432 2.902 . S
C434 C435 1.491 . S
C434 O452 1.254 . S
C434 O453 1.225 . S
C435 C434 1.491 . S
C435 C436 1.392 . S
C435 C440 1.356 . S
C436 C435 1.392 . S
C436 C437 1.368 . S
C436 H464 0.929 . S
C437 C436 1.368 . S
C437 C438 1.386 . S
C437 H465 0.929 . S
C438 C437 1.386 . S
C438 C439 1.373 . S
C439 C438 1.373 . S
C439 C440 1.409 . S
C439 H466 0.931 . S
C440 C435 1.356 . S
C440 C439 1.409 . S
C440 H467 0.930 . S
C441 O454 1.270 . S
C441 O455 1.248 . S
C442 O456 1.267 . S
C442 O457 1.278 . S
C443 Pr433 2.880 . S
C443 C444 1.491 . S
C443 O458 1.254 . S
C443 O459 1.225 . S
C444 C443 1.491 . S
C444 C445 1.392 . S
C444 C449 1.356 . S
C445 C444 1.392 . S
C445 C446 1.368 . S
C445 H468 0.929 . S
C446 C445 1.368 . S
C446 C447 1.386 . S
C446 H469 0.929 . S
C447 C446 1.386 . S
C447 C448 1.373 . S
C448 C447 1.373 . S
C448 C449 1.409 . S
C448 H470 0.931 . S
C449 C444 1.356 . S
C449 C448 1.409 . S
C449 H471 0.930 . S
C450 O460 1.270 . S
C450 O461 1.248 . S
C451 O462 1.267 . S
C451 O463 1.278 . S
O452 Pr432 2.591 . S
O452 C434 1.254 . S
O453 Pr432 2.502 . S
O453 C434 1.225 . S
O454 Pr432 2.679 1_454 S
O454 Pr433 2.436 . S
O454 C441 1.270 . S
O455 Pr432 2.494 1_454 S
O455 C441 1.248 . S
O456 Pr433 2.438 1_655 S
O456 C442 1.267 . S
O457 Pr432 2.453 1_554 S
O457 C442 1.278 . S
O458 Pr433 2.562 . S
O458 C443 1.254 . S
O459 Pr433 2.490 . S
O459 C443 1.225 . S
O460 Pr432 2.447 . S
O460 Pr433 2.695 1_656 S
O460 C450 1.270 . S
O461 Pr433 2.512 1_656 S
O461 C450 1.248 . S
O462 Pr432 2.416 1_455 S
O462 C451 1.267 . S
O463 Pr433 2.437 1_556 S
O463 C451 1.278 . S
H464 C436 0.929 . S
H465 C437 0.929 . S
H466 C439 0.931 . S
H467 C440 0.930 . S
H468 C445 0.929 . S
H469 C446 0.929 . S
H470 C448 0.931 . S
H471 C449 0.930 . S
H472 C480 0.929 . S
H473 C482 0.930 . S
H474 C484 0.930 . S
H475 C487 0.929 . S
H476 C490 0.930 . S
H477 C492 0.960 . S
H478 C492 0.960 . S
H479 C492 0.960 . S
C480 H472 0.929 . S
C480 C481 1.377 . S
C480 C482 1.384 . S
C481 C480 1.377 . S
C481 C487 1.390 . S
C482 H473 0.930 . S
C482 C480 1.384 . S
C482 C483 1.372 . S
C483 C482 1.372 . S
C483 C484 1.400 . S
C483 C488 1.490 . S
C484 H474 0.930 . S
C484 C483 1.400 . S
C484 C487 1.386 . S
H485 C501 0.930 . S
H486 C502 0.931 . S
C487 H475 0.929 . S
C487 C481 1.390 . S
C487 C484 1.386 . S
C488 C483 1.490 . S
C488 C490 1.395 . S
C488 C491 1.403 . S
H489 C495 0.930 . S
C490 H476 0.930 . S
C490 C488 1.395 . S
C490 C493 1.403 . S
C491 C488 1.403 . S
C491 C492 1.524 . S
C491 C495 1.400 . S
C492 H477 0.960 . S
C492 H478 0.960 . S
C492 H479 0.960 . S
C492 C491 1.524 . S
C493 C490 1.403 . S
C493 C494 1.392 . S
C493 C497 1.495 . S
C494 C493 1.392 . S
C494 C495 1.385 . S
C494 C496 1.478 . S
C495 H489 0.930 . S
C495 C491 1.400 . S
C495 C494 1.385 . S
C496 C494 1.478 . S
C496 C498 1.381 . S
C496 C502 1.383 . S
C497 C493 1.495 . S
C497 H503 0.959 . S
C497 H504 0.961 . S
C497 H505 0.960 . S
C498 C496 1.381 . S
C498 C499 1.394 . S
C498 H506 0.930 . S
C499 C498 1.394 . S
C499 C500 1.383 . S
C499 H507 0.929 . S
C500 C499 1.383 . S
C500 C501 1.377 . S
C501 H485 0.930 . S
C501 C500 1.377 . S
C501 C502 1.379 . S
C502 H486 0.931 . S
C502 C496 1.383 . S
C502 C501 1.379 . S
H503 C497 0.959 . S
H504 C497 0.961 . S
H505 C497 0.960 . S
H506 C498 0.930 . S
H507 C499 0.929 . S
H508 C516 0.929 . S
H509 C518 0.930 . S
H510 C520 0.930 . S
H511 C523 0.929 . S
H512 C526 0.930 . S
H513 C528 0.960 . S
H514 C528 0.960 . S
H515 C528 0.960 . S
C516 H508 0.929 . S
C516 C517 1.377 . S
C516 C518 1.384 . S
C517 C516 1.377 . S
C517 C523 1.390 . S
C518 H509 0.930 . S
C518 C516 1.384 . S
C518 C519 1.372 . S
C519 C518 1.372 . S
C519 C520 1.400 . S
C519 C524 1.490 . S
C520 H510 0.930 . S
C520 C519 1.400 . S
C520 C523 1.386 . S
H521 C537 0.930 . S
H522 C538 0.931 . S
C523 H511 0.929 . S
C523 C517 1.390 . S
C523 C520 1.386 . S
C524 C519 1.490 . S
C524 C526 1.395 . S
C524 C527 1.403 . S
H525 C531 0.930 . S
C526 H512 0.930 . S
C526 C524 1.395 . S
C526 C529 1.403 . S
C527 C524 1.403 . S
C527 C528 1.524 . S
C527 C531 1.400 . S
C528 H513 0.960 . S
C528 H514 0.960 . S
C528 H515 0.960 . S
C528 C527 1.524 . S
C529 C526 1.403 . S
C529 C530 1.392 . S
C529 C533 1.495 . S
C530 C529 1.392 . S
C530 C531 1.385 . S
C530 C532 1.478 . S
C531 H525 0.930 . S
C531 C527 1.400 . S
C531 C530 1.385 . S
C532 C530 1.478 . S
C532 C534 1.381 . S
C532 C538 1.383 . S
C533 C529 1.495 . S
C533 H539 0.959 . S
C533 H540 0.961 . S
C533 H541 0.960 . S
C534 C532 1.381 . S
C534 C535 1.394 . S
C534 H542 0.930 . S
C535 C534 1.394 . S
C535 C536 1.383 . S
C535 H543 0.929 . S
C536 C535 1.383 . S
C536 C537 1.377 . S
C537 H521 0.930 . S
C537 C536 1.377 . S
C537 C538 1.379 . S
C538 H522 0.931 . S
C538 C532 1.383 . S
C538 C537 1.379 . S
H539 C533 0.959 . S
H540 C533 0.961 . S
H541 C533 0.960 . S
H542 C534 0.930 . S
H543 C535 0.929 . S
H544 C552 0.929 . S
H545 C554 0.930 . S
H546 C556 0.930 . S
H547 C559 0.929 . S
H548 C562 0.930 . S
H549 C564 0.960 . S
H550 C564 0.960 . S
H551 C564 0.960 . S
C552 H544 0.929 . S
C552 C553 1.377 . S
C552 C554 1.384 . S
C553 C552 1.377 . S
C553 C559 1.390 . S
C554 H545 0.930 . S
C554 C552 1.384 . S
C554 C555 1.372 . S
C555 C554 1.372 . S
C555 C556 1.400 . S
C555 C560 1.490 . S
C556 H546 0.930 . S
C556 C555 1.400 . S
C556 C559 1.386 . S
H557 C573 0.930 . S
H558 C574 0.931 . S
C559 H547 0.929 . S
C559 C553 1.390 . S
C559 C556 1.386 . S
C560 C555 1.490 . S
C560 C562 1.395 . S
C560 C563 1.403 . S
H561 C567 0.930 . S
C562 H548 0.930 . S
C562 C560 1.395 . S
C562 C565 1.403 . S
C563 C560 1.403 . S
C563 C564 1.524 . S
C563 C567 1.400 . S
C564 H549 0.960 . S
C564 H550 0.960 . S
C564 H551 0.960 . S
C564 C563 1.524 . S
C565 C562 1.403 . S
C565 C566 1.392 . S
C565 C569 1.495 . S
C566 C565 1.392 . S
C566 C567 1.385 . S
C566 C568 1.478 . S
C567 H561 0.930 . S
C567 C563 1.400 . S
C567 C566 1.385 . S
C568 C566 1.478 . S
C568 C570 1.381 . S
C568 C574 1.383 . S
C569 C565 1.495 . S
C569 H575 0.959 . S
C569 H576 0.961 . S
C569 H577 0.960 . S
C570 C568 1.381 . S
C570 C571 1.394 . S
C570 H578 0.930 . S
C571 C570 1.394 . S
C571 C572 1.383 . S
C571 H579 0.929 . S
C572 C571 1.383 . S
C572 C573 1.377 . S
C573 H557 0.930 . S
C573 C572 1.377 . S
C573 C574 1.379 . S
C574 H558 0.931 . S
C574 C568 1.383 . S
C574 C573 1.379 . S
H575 C569 0.959 . S
H576 C569 0.961 . S
H577 C569 0.960 . S
H578 C570 0.930 . S
H579 C571 0.929 . S
H580 C588 0.929 . S
H581 C590 0.930 . S
H582 C592 0.930 . S
H583 C595 0.929 . S
H584 C598 0.930 . S
H585 C600 0.960 . S
H586 C600 0.960 . S
H587 C600 0.960 . S
C588 H580 0.929 . S
C588 C589 1.377 . S
C588 C590 1.384 . S
C589 C588 1.377 . S
C589 C595 1.390 . S
C590 H581 0.930 . S
C590 C588 1.384 . S
C590 C591 1.372 . S
C591 C590 1.372 . S
C591 C592 1.400 . S
C591 C596 1.490 . S
C592 H582 0.930 . S
C592 C591 1.400 . S
C592 C595 1.386 . S
H593 C609 0.930 . S
H594 C610 0.931 . S
C595 H583 0.929 . S
C595 C589 1.390 . S
C595 C592 1.386 . S
C596 C591 1.490 . S
C596 C598 1.395 . S
C596 C599 1.403 . S
H597 C603 0.930 . S
C598 H584 0.930 . S
C598 C596 1.395 . S
C598 C601 1.403 . S
C599 C596 1.403 . S
C599 C600 1.524 . S
C599 C603 1.400 . S
C600 H585 0.960 . S
C600 H586 0.960 . S
C600 H587 0.960 . S
C600 C599 1.524 . S
C601 C598 1.403 . S
C601 C602 1.392 . S
C601 C605 1.495 . S
C602 C601 1.392 . S
C602 C603 1.385 . S
C602 C604 1.478 . S
C603 H597 0.930 . S
C603 C599 1.400 . S
C603 C602 1.385 . S
C604 C602 1.478 . S
C604 C606 1.381 . S
C604 C610 1.383 . S
C605 C601 1.495 . S
C605 H611 0.959 . S
C605 H612 0.961 . S
C605 H613 0.960 . S
C606 C604 1.381 . S
C606 C607 1.394 . S
C606 H614 0.930 . S
C607 C606 1.394 . S
C607 C608 1.383 . S
C607 H615 0.929 . S
C608 C607 1.383 . S
C608 C609 1.377 . S
C609 H593 0.930 . S
C609 C608 1.377 . S
C609 C610 1.379 . S
C610 H594 0.931 . S
C610 C604 1.383 . S
C610 C609 1.379 . S
H611 C605 0.959 . S
H612 C605 0.961 . S
H613 C605 0.960 . S
H614 C606 0.930 . S
H615 C607 0.929 . S
H616 C624 0.929 . S
H617 C626 0.930 . S
H618 C628 0.930 . S
H619 C631 0.929 . S
H620 C634 0.930 . S
H621 C636 0.960 . S
H622 C636 0.960 . S
H623 C636 0.960 . S
C624 H616 0.929 . S
C624 C625 1.377 . S
C624 C626 1.384 . S
C625 C624 1.377 . S
C625 C631 1.390 . S
C626 H617 0.930 . S
C626 C624 1.384 . S
C626 C627 1.372 . S
C627 C626 1.372 . S
C627 C628 1.400 . S
C627 C632 1.490 . S
C628 H618 0.930 . S
C628 C627 1.400 . S
C628 C631 1.386 . S
H629 C645 0.930 . S
H630 C646 0.931 . S
C631 H619 0.929 . S
C631 C625 1.390 . S
C631 C628 1.386 . S
C632 C627 1.490 . S
C632 C634 1.395 . S
C632 C635 1.403 . S
H633 C639 0.930 . S
C634 H620 0.930 . S
C634 C632 1.395 . S
C634 C637 1.403 . S
C635 C632 1.403 . S
C635 C636 1.524 . S
C635 C639 1.400 . S
C636 H621 0.960 . S
C636 H622 0.960 . S
C636 H623 0.960 . S
C636 C635 1.524 . S
C637 C634 1.403 . S
C637 C638 1.392 . S
C637 C641 1.495 . S
C638 C637 1.392 . S
C638 C639 1.385 . S
C638 C640 1.478 . S
C639 H633 0.930 . S
C639 C635 1.400 . S
C639 C638 1.385 . S
C640 C638 1.478 . S
C640 C642 1.381 . S
C640 C646 1.383 . S
C641 C637 1.495 . S
C641 H647 0.959 . S
C641 H648 0.961 . S
C641 H649 0.960 . S
C642 C640 1.381 . S
C642 C643 1.394 . S
C642 H650 0.930 . S
C643 C642 1.394 . S
C643 C644 1.383 . S
C643 H651 0.929 . S
C644 C643 1.383 . S
C644 C645 1.377 . S
C645 H629 0.930 . S
C645 C644 1.377 . S
C645 C646 1.379 . S
C646 H630 0.931 . S
C646 C640 1.383 . S
C646 C645 1.379 . S
H647 C641 0.959 . S
H648 C641 0.961 . S
H649 C641 0.960 . S
H650 C642 0.930 . S
H651 C643 0.929 . S
H652 C660 0.929 . S
H653 C662 0.930 . S
H654 C664 0.930 . S
H655 C667 0.929 . S
H656 C670 0.930 . S
H657 C672 0.960 . S
H658 C672 0.960 . S
H659 C672 0.960 . S
C660 H652 0.929 . S
C660 C661 1.377 . S
C660 C662 1.384 . S
C661 C660 1.377 . S
C661 C667 1.390 . S
C662 H653 0.930 . S
C662 C660 1.384 . S
C662 C663 1.372 . S
C663 C662 1.372 . S
C663 C664 1.400 . S
C663 C668 1.490 . S
C664 H654 0.930 . S
C664 C663 1.400 . S
C664 C667 1.386 . S
H665 C681 0.930 . S
H666 C682 0.931 . S
C667 H655 0.929 . S
C667 C661 1.390 . S
C667 C664 1.386 . S
C668 C663 1.490 . S
C668 C670 1.395 . S
C668 C671 1.403 . S
H669 C675 0.930 . S
C670 H656 0.930 . S
C670 C668 1.395 . S
C670 C673 1.403 . S
C671 C668 1.403 . S
C671 C672 1.524 . S
C671 C675 1.400 . S
C672 H657 0.960 . S
C672 H658 0.960 . S
C672 H659 0.960 . S
C672 C671 1.524 . S
C673 C670 1.403 . S
C673 C674 1.392 . S
C673 C677 1.495 . S
C674 C673 1.392 . S
C674 C675 1.385 . S
C674 C676 1.478 . S
C675 H669 0.930 . S
C675 C671 1.400 . S
C675 C674 1.385 . S
C676 C674 1.478 . S
C676 C678 1.381 . S
C676 C682 1.383 . S
C677 C673 1.495 . S
C677 H683 0.959 . S
C677 H684 0.961 . S
C677 H685 0.960 . S
C678 C676 1.381 . S
C678 C679 1.394 . S
C678 H686 0.930 . S
C679 C678 1.394 . S
C679 C680 1.383 . S
C679 H687 0.929 . S
C680 C679 1.383 . S
C680 C681 1.377 . S
C681 H665 0.930 . S
C681 C680 1.377 . S
C681 C682 1.379 . S
C682 H666 0.931 . S
C682 C676 1.383 . S
C682 C681 1.379 . S
H683 C677 0.959 . S
H684 C677 0.961 . S
H685 C677 0.960 . S
H686 C678 0.930 . S
H687 C679 0.929 . S
H688 C696 0.929 . S
H689 C698 0.930 . S
H690 C700 0.930 . S
H691 C703 0.929 . S
H692 C706 0.930 . S
H693 C708 0.960 . S
H694 C708 0.960 . S
H695 C708 0.960 . S
C696 H688 0.929 . S
C696 C697 1.377 . S
C696 C698 1.384 . S
C697 C696 1.377 . S
C697 C703 1.390 . S
C698 H689 0.930 . S
C698 C696 1.384 . S
C698 C699 1.372 . S
C699 C698 1.372 . S
C699 C700 1.400 . S
C699 C704 1.490 . S
C700 H690 0.930 . S
C700 C699 1.400 . S
C700 C703 1.386 . S
H701 C717 0.930 . S
H702 C718 0.931 . S
C703 H691 0.929 . S
C703 C697 1.390 . S
C703 C700 1.386 . S
C704 C699 1.490 . S
C704 C706 1.395 . S
C704 C707 1.403 . S
H705 C711 0.930 . S
C706 H692 0.930 . S
C706 C704 1.395 . S
C706 C709 1.403 . S
C707 C704 1.403 . S
C707 C708 1.524 . S
C707 C711 1.400 . S
C708 H693 0.960 . S
C708 H694 0.960 . S
C708 H695 0.960 . S
C708 C707 1.524 . S
C709 C706 1.403 . S
C709 C710 1.392 . S
C709 C713 1.495 . S
C710 C709 1.392 . S
C710 C711 1.385 . S
C710 C712 1.478 . S
C711 H705 0.930 . S
C711 C707 1.400 . S
C711 C710 1.385 . S
C712 C710 1.478 . S
C712 C714 1.381 . S
C712 C718 1.383 . S
C713 C709 1.495 . S
C713 H719 0.959 . S
C713 H720 0.961 . S
C713 H721 0.960 . S
C714 C712 1.381 . S
C714 C715 1.394 . S
C714 H722 0.930 . S
C715 C714 1.394 . S
C715 C716 1.383 . S
C715 H723 0.929 . S
C716 C715 1.383 . S
C716 C717 1.377 . S
C717 H701 0.930 . S
C717 C716 1.377 . S
C717 C718 1.379 . S
C718 H702 0.931 . S
C718 C712 1.383 . S
C718 C717 1.379 . S
H719 C713 0.959 . S
H720 C713 0.961 . S
H721 C713 0.960 . S
H722 C714 0.930 . S
H723 C715 0.929 . S
H724 C732 0.929 . S
H725 C734 0.930 . S
H726 C736 0.930 . S
H727 C739 0.929 . S
H728 C742 0.930 . S
H729 C744 0.960 . S
H730 C744 0.960 . S
H731 C744 0.960 . S
C732 H724 0.929 . S
C732 C733 1.377 . S
C732 C734 1.384 . S
C733 C732 1.377 . S
C733 C739 1.390 . S
C734 H725 0.930 . S
C734 C732 1.384 . S
C734 C735 1.372 . S
C735 C734 1.372 . S
C735 C736 1.400 . S
C735 C740 1.490 . S
C736 H726 0.930 . S
C736 C735 1.400 . S
C736 C739 1.386 . S
H737 C753 0.930 . S
H738 C754 0.931 . S
C739 H727 0.929 . S
C739 C733 1.390 . S
C739 C736 1.386 . S
C740 C735 1.490 . S
C740 C742 1.395 . S
C740 C743 1.403 . S
H741 C747 0.930 . S
C742 H728 0.930 . S
C742 C740 1.395 . S
C742 C745 1.403 . S
C743 C740 1.403 . S
C743 C744 1.524 . S
C743 C747 1.400 . S
C744 H729 0.960 . S
C744 H730 0.960 . S
C744 H731 0.960 . S
C744 C743 1.524 . S
C745 C742 1.403 . S
C745 C746 1.392 . S
C745 C749 1.495 . S
C746 C745 1.392 . S
C746 C747 1.385 . S
C746 C748 1.478 . S
C747 H741 0.930 . S
C747 C743 1.400 . S
C747 C746 1.385 . S
C748 C746 1.478 . S
C748 C750 1.381 . S
C748 C754 1.383 . S
C749 C745 1.495 . S
C749 H755 0.959 . S
C749 H756 0.961 . S
C749 H757 0.960 . S
C750 C748 1.381 . S
C750 C751 1.394 . S
C750 H758 0.930 . S
C751 C750 1.394 . S
C751 C752 1.383 . S
C751 H759 0.929 . S
C752 C751 1.383 . S
C752 C753 1.377 . S
C753 H737 0.930 . S
C753 C752 1.377 . S
C753 C754 1.379 . S
C754 H738 0.931 . S
C754 C748 1.383 . S
C754 C753 1.379 . S
H755 C749 0.959 . S
H756 C749 0.961 . S
H757 C749 0.960 . S
H758 C750 0.930 . S
H759 C751 0.929 . S
H760 C768 0.929 . S
H761 C770 0.930 . S
H762 C772 0.930 . S
H763 C775 0.929 . S
H764 C778 0.930 . S
H765 C780 0.960 . S
H766 C780 0.960 . S
H767 C780 0.960 . S
C768 H760 0.929 . S
C768 C769 1.377 . S
C768 C770 1.384 . S
C769 C768 1.377 . S
C769 C775 1.390 . S
C770 H761 0.930 . S
C770 C768 1.384 . S
C770 C771 1.372 . S
C771 C770 1.372 . S
C771 C772 1.400 . S
C771 C776 1.490 . S
C772 H762 0.930 . S
C772 C771 1.400 . S
C772 C775 1.386 . S
H773 C789 0.930 . S
H774 C790 0.931 . S
C775 H763 0.929 . S
C775 C769 1.390 . S
C775 C772 1.386 . S
C776 C771 1.490 . S
C776 C778 1.395 . S
C776 C779 1.403 . S
H777 C783 0.930 . S
C778 H764 0.930 . S
C778 C776 1.395 . S
C778 C781 1.403 . S
C779 C776 1.403 . S
C779 C780 1.524 . S
C779 C783 1.400 . S
C780 H765 0.960 . S
C780 H766 0.960 . S
C780 H767 0.960 . S
C780 C779 1.524 . S
C781 C778 1.403 . S
C781 C782 1.392 . S
C781 C785 1.495 . S
C782 C781 1.392 . S
C782 C783 1.385 . S
C782 C784 1.478 . S
C783 H777 0.930 . S
C783 C779 1.400 . S
C783 C782 1.385 . S
C784 C782 1.478 . S
C784 C786 1.381 . S
C784 C790 1.383 . S
C785 C781 1.495 . S
C785 H791 0.959 . S
C785 H792 0.961 . S
C785 H793 0.960 . S
C786 C784 1.381 . S
C786 C787 1.394 . S
C786 H794 0.930 . S
C787 C786 1.394 . S
C787 C788 1.383 . S
C787 H795 0.929 . S
C788 C787 1.383 . S
C788 C789 1.377 . S
C789 H773 0.930 . S
C789 C788 1.377 . S
C789 C790 1.379 . S
C790 H774 0.931 . S
C790 C784 1.383 . S
C790 C789 1.379 . S
H791 C785 0.959 . S
H792 C785 0.961 . S
H793 C785 0.960 . S
H794 C786 0.930 . S
H795 C787 0.929 . S
H796 C804 0.929 . S
H797 C806 0.930 . S
H798 C808 0.930 . S
H799 C811 0.929 . S
H800 C814 0.930 . S
H801 C816 0.960 . S
H802 C816 0.960 . S
H803 C816 0.960 . S
C804 H796 0.929 . S
C804 C805 1.377 . S
C804 C806 1.384 . S
C805 C804 1.377 . S
C805 C811 1.390 . S
C806 H797 0.930 . S
C806 C804 1.384 . S
C806 C807 1.372 . S
C807 C806 1.372 . S
C807 C808 1.400 . S
C807 C812 1.490 . S
C808 H798 0.930 . S
C808 C807 1.400 . S
C808 C811 1.386 . S
H809 C825 0.930 . S
H810 C826 0.931 . S
C811 H799 0.929 . S
C811 C805 1.390 . S
C811 C808 1.386 . S
C812 C807 1.490 . S
C812 C814 1.395 . S
C812 C815 1.403 . S
H813 C819 0.930 . S
C814 H800 0.930 . S
C814 C812 1.395 . S
C814 C817 1.403 . S
C815 C812 1.403 . S
C815 C816 1.524 . S
C815 C819 1.400 . S
C816 H801 0.960 . S
C816 H802 0.960 . S
C816 H803 0.960 . S
C816 C815 1.524 . S
C817 C814 1.403 . S
C817 C818 1.392 . S
C817 C821 1.495 . S
C818 C817 1.392 . S
C818 C819 1.385 . S
C818 C820 1.478 . S
C819 H813 0.930 . S
C819 C815 1.400 . S
C819 C818 1.385 . S
C820 C818 1.478 . S
C820 C822 1.381 . S
C820 C826 1.383 . S
C821 C817 1.495 . S
C821 H827 0.959 . S
C821 H828 0.961 . S
C821 H829 0.960 . S
C822 C820 1.381 . S
C822 C823 1.394 . S
C822 H830 0.930 . S
C823 C822 1.394 . S
C823 C824 1.383 . S
C823 H831 0.929 . S
C824 C823 1.383 . S
C824 C825 1.377 . S
C825 H809 0.930 . S
C825 C824 1.377 . S
C825 C826 1.379 . S
C826 H810 0.931 . S
C826 C820 1.383 . S
C826 C825 1.379 . S
H827 C821 0.959 . S
H828 C821 0.961 . S
H829 C821 0.960 . S
H830 C822 0.930 . S
H831 C823 0.929 . S
H832 C840 0.929 . S
H833 C842 0.930 . S
H834 C844 0.930 . S
H835 C847 0.929 . S
H836 C850 0.930 . S
H837 C852 0.960 . S
H838 C852 0.960 . S
H839 C852 0.960 . S
C840 H832 0.929 . S
C840 C841 1.377 . S
C840 C842 1.384 . S
C841 C840 1.377 . S
C841 C847 1.390 . S
C842 H833 0.930 . S
C842 C840 1.384 . S
C842 C843 1.372 . S
C843 C842 1.372 . S
C843 C844 1.400 . S
C843 C848 1.490 . S
C844 H834 0.930 . S
C844 C843 1.400 . S
C844 C847 1.386 . S
H845 C861 0.930 . S
H846 C862 0.931 . S
C847 H835 0.929 . S
C847 C841 1.390 . S
C847 C844 1.386 . S
C848 C843 1.490 . S
C848 C850 1.395 . S
C848 C851 1.403 . S
H849 C855 0.930 . S
C850 H836 0.930 . S
C850 C848 1.395 . S
C850 C853 1.403 . S
C851 C848 1.403 . S
C851 C852 1.524 . S
C851 C855 1.400 . S
C852 H837 0.960 . S
C852 H838 0.960 . S
C852 H839 0.960 . S
C852 C851 1.524 . S
C853 C850 1.403 . S
C853 C854 1.392 . S
C853 C857 1.495 . S
C854 C853 1.392 . S
C854 C855 1.385 . S
C854 C856 1.478 . S
C855 H849 0.930 . S
C855 C851 1.400 . S
C855 C854 1.385 . S
C856 C854 1.478 . S
C856 C858 1.381 . S
C856 C862 1.383 . S
C857 C853 1.495 . S
C857 H863 0.959 . S
C857 H864 0.961 . S
C857 H865 0.960 . S
C858 C856 1.381 . S
C858 C859 1.394 . S
C858 H866 0.930 . S
C859 C858 1.394 . S
C859 C860 1.383 . S
C859 H867 0.929 . S
C860 C859 1.383 . S
C860 C861 1.377 . S
C861 H845 0.930 . S
C861 C860 1.377 . S
C861 C862 1.379 . S
C862 H846 0.931 . S
C862 C856 1.383 . S
C862 C861 1.379 . S
H863 C857 0.959 . S
H864 C857 0.961 . S
H865 C857 0.960 . S
H866 C858 0.930 . S
H867 C859 0.929 . S
H868 C876 0.929 . S
H869 C878 0.930 . S
H870 C880 0.930 . S
H871 C883 0.929 . S
H872 C886 0.930 . S
H873 C888 0.960 . S
H874 C888 0.960 . S
H875 C888 0.960 . S
C876 H868 0.929 . S
C876 C877 1.377 . S
C876 C878 1.384 . S
C877 C876 1.377 . S
C877 C883 1.390 . S
C878 H869 0.930 . S
C878 C876 1.384 . S
C878 C879 1.372 . S
C879 C878 1.372 . S
C879 C880 1.400 . S
C879 C884 1.490 . S
C880 H870 0.930 . S
C880 C879 1.400 . S
C880 C883 1.386 . S
H881 C897 0.930 . S
H882 C898 0.931 . S
C883 H871 0.929 . S
C883 C877 1.390 . S
C883 C880 1.386 . S
C884 C879 1.490 . S
C884 C886 1.395 . S
C884 C887 1.403 . S
H885 C891 0.930 . S
C886 H872 0.930 . S
C886 C884 1.395 . S
C886 C889 1.403 . S
C887 C884 1.403 . S
C887 C888 1.524 . S
C887 C891 1.400 . S
C888 H873 0.960 . S
C888 H874 0.960 . S
C888 H875 0.960 . S
C888 C887 1.524 . S
C889 C886 1.403 . S
C889 C890 1.392 . S
C889 C893 1.495 . S
C890 C889 1.392 . S
C890 C891 1.385 . S
C890 C892 1.478 . S
C891 H885 0.930 . S
C891 C887 1.400 . S
C891 C890 1.385 . S
C892 C890 1.478 . S
C892 C894 1.381 . S
C892 C898 1.383 . S
C893 C889 1.495 . S
C893 H899 0.959 . S
C893 H900 0.961 . S
C893 H901 0.960 . S
C894 C892 1.381 . S
C894 C895 1.394 . S
C894 H902 0.930 . S
C895 C894 1.394 . S
C895 C896 1.383 . S
C895 H903 0.929 . S
C896 C895 1.383 . S
C896 C897 1.377 . S
C897 H881 0.930 . S
C897 C896 1.377 . S
C897 C898 1.379 . S
C898 H882 0.931 . S
C898 C892 1.383 . S
C898 C897 1.379 . S
H899 C893 0.959 . S
H900 C893 0.961 . S
H901 C893 0.960 . S
H902 C894 0.930 . S
H903 C895 0.929 . S
H904 C912 0.929 . S
H905 C914 0.930 . S
H906 C916 0.930 . S
H907 C919 0.929 . S
H908 C922 0.930 . S
H909 C924 0.960 . S
H910 C924 0.960 . S
H911 C924 0.960 . S
C912 H904 0.929 . S
C912 C913 1.377 . S
C912 C914 1.384 . S
C913 C912 1.377 . S
C913 C919 1.390 . S
C914 H905 0.930 . S
C914 C912 1.384 . S
C914 C915 1.372 . S
C915 C914 1.372 . S
C915 C916 1.400 . S
C915 C920 1.490 . S
C916 H906 0.930 . S
C916 C915 1.400 . S
C916 C919 1.386 . S
H917 C933 0.930 . S
H918 C934 0.931 . S
C919 H907 0.929 . S
C919 C913 1.390 . S
C919 C916 1.386 . S
C920 C915 1.490 . S
C920 C922 1.395 . S
C920 C923 1.403 . S
H921 C927 0.930 . S
C922 H908 0.930 . S
C922 C920 1.395 . S
C922 C925 1.403 . S
C923 C920 1.403 . S
C923 C924 1.524 . S
C923 C927 1.400 . S
C924 H909 0.960 . S
C924 H910 0.960 . S
C924 H911 0.960 . S
C924 C923 1.524 . S
C925 C922 1.403 . S
C925 C926 1.392 . S
C925 C929 1.495 . S
C926 C925 1.392 . S
C926 C927 1.385 . S
C926 C928 1.478 . S
C927 H921 0.930 . S
C927 C923 1.400 . S
C927 C926 1.385 . S
C928 C926 1.478 . S
C928 C930 1.381 . S
C928 C934 1.383 . S
C929 C925 1.495 . S
C929 H935 0.959 . S
C929 H936 0.961 . S
C929 H937 0.960 . S
C930 C928 1.381 . S
C930 C931 1.394 . S
C930 H938 0.930 . S
C931 C930 1.394 . S
C931 C932 1.383 . S
C931 H939 0.929 . S
C932 C931 1.383 . S
C932 C933 1.377 . S
C933 H917 0.930 . S
C933 C932 1.377 . S
C933 C934 1.379 . S
C934 H918 0.931 . S
C934 C928 1.383 . S
C934 C933 1.379 . S
H935 C929 0.959 . S
H936 C929 0.961 . S
H937 C929 0.960 . S
H938 C930 0.930 . S
H939 C931 0.929 . S
H940 C948 0.929 . S
H941 C950 0.930 . S
H942 C952 0.930 . S
H943 C955 0.929 . S
H944 C958 0.930 . S
H945 C960 0.960 . S
H946 C960 0.960 . S
H947 C960 0.960 . S
C948 H940 0.929 . S
C948 C949 1.377 . S
C948 C950 1.384 . S
C949 C948 1.377 . S
C949 C955 1.390 . S
C950 H941 0.930 . S
C950 C948 1.384 . S
C950 C951 1.372 . S
C951 C950 1.372 . S
C951 C952 1.400 . S
C951 C956 1.490 . S
C952 H942 0.930 . S
C952 C951 1.400 . S
C952 C955 1.386 . S
H953 C969 0.930 . S
H954 C970 0.931 . S
C955 H943 0.929 . S
C955 C949 1.390 . S
C955 C952 1.386 . S
C956 C951 1.490 . S
C956 C958 1.395 . S
C956 C959 1.403 . S
H957 C963 0.930 . S
C958 H944 0.930 . S
C958 C956 1.395 . S
C958 C961 1.403 . S
C959 C956 1.403 . S
C959 C960 1.524 . S
C959 C963 1.400 . S
C960 H945 0.960 . S
C960 H946 0.960 . S
C960 H947 0.960 . S
C960 C959 1.524 . S
C961 C958 1.403 . S
C961 C962 1.392 . S
C961 C965 1.495 . S
C962 C961 1.392 . S
C962 C963 1.385 . S
C962 C964 1.478 . S
C963 H957 0.930 . S
C963 C959 1.400 . S
C963 C962 1.385 . S
C964 C962 1.478 . S
C964 C966 1.381 . S
C964 C970 1.383 . S
C965 C961 1.495 . S
C965 H971 0.959 . S
C965 H972 0.961 . S
C965 H973 0.960 . S
C966 C964 1.381 . S
C966 C967 1.394 . S
C966 H974 0.930 . S
C967 C966 1.394 . S
C967 C968 1.383 . S
C967 H975 0.929 . S
C968 C967 1.383 . S
C968 C969 1.377 . S
C969 H953 0.930 . S
C969 C968 1.377 . S
C969 C970 1.379 . S
C970 H954 0.931 . S
C970 C964 1.383 . S
C970 C969 1.379 . S
H971 C965 0.959 . S
H972 C965 0.961 . S
H973 C965 0.960 . S
H974 C966 0.930 . S
H975 C967 0.929 . S
H976 C984 0.929 . S
H977 C986 0.930 . S
H978 C988 0.930 . S
H979 C991 0.929 . S
H980 C994 0.930 . S
H981 C996 0.960 . S
H982 C996 0.960 . S
H983 C996 0.960 . S
C984 H976 0.929 . S
C984 C985 1.377 . S
C984 C986 1.384 . S
C985 C984 1.377 . S
C985 C991 1.390 . S
C986 H977 0.930 . S
C986 C984 1.384 . S
C986 C987 1.372 . S
C987 C986 1.372 . S
C987 C988 1.400 . S
C987 C992 1.490 . S
C988 H978 0.930 . S
C988 C987 1.400 . S
C988 C991 1.386 . S
H989 C1005 0.930 . S
H990 C1006 0.931 . S
C991 H979 0.929 . S
C991 C985 1.390 . S
C991 C988 1.386 . S
C992 C987 1.490 . S
C992 C994 1.395 . S
C992 C995 1.403 . S
H993 C999 0.930 . S
C994 H980 0.930 . S
C994 C992 1.395 . S
C994 C997 1.403 . S
C995 C992 1.403 . S
C995 C996 1.524 . S
C995 C999 1.400 . S
C996 H981 0.960 . S
C996 H982 0.960 . S
C996 H983 0.960 . S
C996 C995 1.524 . S
C997 C994 1.403 . S
C997 C998 1.392 . S
C997 C1001 1.495 . S
C998 C997 1.392 . S
C998 C999 1.385 . S
C998 C1000 1.478 . S
C999 H993 0.930 . S
C999 C995 1.400 . S
C999 C998 1.385 . S
C1000 C998 1.478 . S
C1000 C1002 1.381 . S
C1000 C1006 1.383 . S
C1001 C997 1.495 . S
C1001 H1007 0.959 . S
C1001 H1008 0.961 . S
C1001 H1009 0.960 . S
C1002 C1000 1.381 . S
C1002 C1003 1.394 . S
C1002 H1010 0.930 . S
C1003 C1002 1.394 . S
C1003 C1004 1.383 . S
C1003 H1011 0.929 . S
C1004 C1003 1.383 . S
C1004 C1005 1.377 . S
C1005 H989 0.930 . S
C1005 C1004 1.377 . S
C1005 C1006 1.379 . S
C1006 H990 0.931 . S
C1006 C1000 1.383 . S
C1006 C1005 1.379 . S
H1007 C1001 0.959 . S
H1008 C1001 0.961 . S
H1009 C1001 0.960 . S
H1010 C1002 0.930 . S
H1011 C1003 0.929 . S
H1012 C1020 0.929 . S
H1013 C1022 0.930 . S
H1014 C1024 0.930 . S
H1015 C1027 0.929 . S
H1016 C1030 0.930 . S
H1017 C1032 0.960 . S
H1018 C1032 0.960 . S
H1019 C1032 0.960 . S
C1020 H1012 0.929 . S
C1020 C1021 1.377 . S
C1020 C1022 1.384 . S
C1021 C1020 1.377 . S
C1021 C1027 1.390 . S
C1022 H1013 0.930 . S
C1022 C1020 1.384 . S
C1022 C1023 1.372 . S
C1023 C1022 1.372 . S
C1023 C1024 1.400 . S
C1023 C1028 1.490 . S
C1024 H1014 0.930 . S
C1024 C1023 1.400 . S
C1024 C1027 1.386 . S
H1025 C1041 0.930 . S
H1026 C1042 0.931 . S
C1027 H1015 0.929 . S
C1027 C1021 1.390 . S
C1027 C1024 1.386 . S
C1028 C1023 1.490 . S
C1028 C1030 1.395 . S
C1028 C1031 1.403 . S
H1029 C1035 0.930 . S
C1030 H1016 0.930 . S
C1030 C1028 1.395 . S
C1030 C1033 1.403 . S
C1031 C1028 1.403 . S
C1031 C1032 1.524 . S
C1031 C1035 1.400 . S
C1032 H1017 0.960 . S
C1032 H1018 0.960 . S
C1032 H1019 0.960 . S
C1032 C1031 1.524 . S
C1033 C1030 1.403 . S
C1033 C1034 1.392 . S
C1033 C1037 1.495 . S
C1034 C1033 1.392 . S
C1034 C1035 1.385 . S
C1034 C1036 1.478 . S
C1035 H1029 0.930 . S
C1035 C1031 1.400 . S
C1035 C1034 1.385 . S
C1036 C1034 1.478 . S
C1036 C1038 1.381 . S
C1036 C1042 1.383 . S
C1037 C1033 1.495 . S
C1037 H1043 0.959 . S
C1037 H1044 0.961 . S
C1037 H1045 0.960 . S
C1038 C1036 1.381 . S
C1038 C1039 1.394 . S
C1038 H1046 0.930 . S
C1039 C1038 1.394 . S
C1039 C1040 1.383 . S
C1039 H1047 0.929 . S
C1040 C1039 1.383 . S
C1040 C1041 1.377 . S
C1041 H1025 0.930 . S
C1041 C1040 1.377 . S
C1041 C1042 1.379 . S
C1042 H1026 0.931 . S
C1042 C1036 1.383 . S
C1042 C1041 1.379 . S
H1043 C1037 0.959 . S
H1044 C1037 0.961 . S
H1045 C1037 0.960 . S
H1046 C1038 0.930 . S
H1047 C1039 0.929 . S
H1048 C1056 0.929 . S
H1049 C1058 0.930 . S
H1050 C1060 0.930 . S
H1051 C1063 0.929 . S
H1052 C1066 0.930 . S
H1053 C1068 0.960 . S
H1054 C1068 0.960 . S
H1055 C1068 0.960 . S
C1056 H1048 0.929 . S
C1056 C1057 1.377 . S
C1056 C1058 1.384 . S
C1057 C1056 1.377 . S
C1057 C1063 1.390 . S
C1058 H1049 0.930 . S
C1058 C1056 1.384 . S
C1058 C1059 1.372 . S
C1059 C1058 1.372 . S
C1059 C1060 1.400 . S
C1059 C1064 1.490 . S
C1060 H1050 0.930 . S
C1060 C1059 1.400 . S
C1060 C1063 1.386 . S
H1061 C1077 0.930 . S
H1062 C1078 0.931 . S
C1063 H1051 0.929 . S
C1063 C1057 1.390 . S
C1063 C1060 1.386 . S
C1064 C1059 1.490 . S
C1064 C1066 1.395 . S
C1064 C1067 1.403 . S
H1065 C1071 0.930 . S
C1066 H1052 0.930 . S
C1066 C1064 1.395 . S
C1066 C1069 1.403 . S
C1067 C1064 1.403 . S
C1067 C1068 1.524 . S
C1067 C1071 1.400 . S
C1068 H1053 0.960 . S
C1068 H1054 0.960 . S
C1068 H1055 0.960 . S
C1068 C1067 1.524 . S
C1069 C1066 1.403 . S
C1069 C1070 1.392 . S
C1069 C1073 1.495 . S
C1070 C1069 1.392 . S
C1070 C1071 1.385 . S
C1070 C1072 1.478 . S
C1071 H1065 0.930 . S
C1071 C1067 1.400 . S
C1071 C1070 1.385 . S
C1072 C1070 1.478 . S
C1072 C1074 1.381 . S
C1072 C1078 1.383 . S
C1073 C1069 1.495 . S
C1073 H1079 0.959 . S
C1073 H1080 0.961 . S
C1073 H1081 0.960 . S
C1074 C1072 1.381 . S
C1074 C1075 1.394 . S
C1074 H1082 0.930 . S
C1075 C1074 1.394 . S
C1075 C1076 1.383 . S
C1075 H1083 0.929 . S
C1076 C1075 1.383 . S
C1076 C1077 1.377 . S
C1077 H1061 0.930 . S
C1077 C1076 1.377 . S
C1077 C1078 1.379 . S
C1078 H1062 0.931 . S
C1078 C1072 1.383 . S
C1078 C1077 1.379 . S
H1079 C1073 0.959 . S
H1080 C1073 0.961 . S
H1081 C1073 0.960 . S
H1082 C1074 0.930 . S
H1083 C1075 0.929 . S
H1084 C1092 0.929 . S
H1085 C1094 0.930 . S
H1086 C1096 0.930 . S
H1087 C1099 0.929 . S
H1088 C1102 0.930 . S
H1089 C1104 0.960 . S
H1090 C1104 0.960 . S
H1091 C1104 0.960 . S
C1092 H1084 0.929 . S
C1092 C1093 1.377 . S
C1092 C1094 1.384 . S
C1093 C1092 1.377 . S
C1093 C1099 1.390 . S
C1094 H1085 0.930 . S
C1094 C1092 1.384 . S
C1094 C1095 1.372 . S
C1095 C1094 1.372 . S
C1095 C1096 1.400 . S
C1095 C1100 1.490 . S
C1096 H1086 0.930 . S
C1096 C1095 1.400 . S
C1096 C1099 1.386 . S
H1097 C1113 0.930 . S
H1098 C1114 0.931 . S
C1099 H1087 0.929 . S
C1099 C1093 1.390 . S
C1099 C1096 1.386 . S
C1100 C1095 1.490 . S
C1100 C1102 1.395 . S
C1100 C1103 1.403 . S
H1101 C1107 0.930 . S
C1102 H1088 0.930 . S
C1102 C1100 1.395 . S
C1102 C1105 1.403 . S
C1103 C1100 1.403 . S
C1103 C1104 1.524 . S
C1103 C1107 1.400 . S
C1104 H1089 0.960 . S
C1104 H1090 0.960 . S
C1104 H1091 0.960 . S
C1104 C1103 1.524 . S
C1105 C1102 1.403 . S
C1105 C1106 1.392 . S
C1105 C1109 1.495 . S
C1106 C1105 1.392 . S
C1106 C1107 1.385 . S
C1106 C1108 1.478 . S
C1107 H1101 0.930 . S
C1107 C1103 1.400 . S
C1107 C1106 1.385 . S
C1108 C1106 1.478 . S
C1108 C1110 1.381 . S
C1108 C1114 1.383 . S
C1109 C1105 1.495 . S
C1109 H1115 0.959 . S
C1109 H1116 0.961 . S
C1109 H1117 0.960 . S
C1110 C1108 1.381 . S
C1110 C1111 1.394 . S
C1110 H1118 0.930 . S
C1111 C1110 1.394 . S
C1111 C1112 1.383 . S
C1111 H1119 0.929 . S
C1112 C1111 1.383 . S
C1112 C1113 1.377 . S
C1113 H1097 0.930 . S
C1113 C1112 1.377 . S
C1113 C1114 1.379 . S
C1114 H1098 0.931 . S
C1114 C1108 1.383 . S
C1114 C1113 1.379 . S
H1115 C1109 0.959 . S
H1116 C1109 0.961 . S
H1117 C1109 0.960 . S
H1118 C1110 0.930 . S
H1119 C1111 0.929 . S
H1120 C1128 0.929 . S
H1121 C1130 0.930 . S
H1122 C1132 0.930 . S
H1123 C1135 0.929 . S
H1124 C1138 0.930 . S
H1125 C1140 0.960 . S
H1126 C1140 0.960 . S
H1127 C1140 0.960 . S
C1128 H1120 0.929 . S
C1128 C1129 1.377 . S
C1128 C1130 1.384 . S
C1129 C1128 1.377 . S
C1129 C1135 1.390 . S
C1130 H1121 0.930 . S
C1130 C1128 1.384 . S
C1130 C1131 1.372 . S
C1131 C1130 1.372 . S
C1131 C1132 1.400 . S
C1131 C1136 1.490 . S
C1132 H1122 0.930 . S
C1132 C1131 1.400 . S
C1132 C1135 1.386 . S
H1133 C1149 0.930 . S
H1134 C1150 0.931 . S
C1135 H1123 0.929 . S
C1135 C1129 1.390 . S
C1135 C1132 1.386 . S
C1136 C1131 1.490 . S
C1136 C1138 1.395 . S
C1136 C1139 1.403 . S
H1137 C1143 0.930 . S
C1138 H1124 0.930 . S
C1138 C1136 1.395 . S
C1138 C1141 1.403 . S
C1139 C1136 1.403 . S
C1139 C1140 1.524 . S
C1139 C1143 1.400 . S
C1140 H1125 0.960 . S
C1140 H1126 0.960 . S
C1140 H1127 0.960 . S
C1140 C1139 1.524 . S
C1141 C1138 1.403 . S
C1141 C1142 1.392 . S
C1141 C1145 1.495 . S
C1142 C1141 1.392 . S
C1142 C1143 1.385 . S
C1142 C1144 1.478 . S
C1143 H1137 0.930 . S
C1143 C1139 1.400 . S
C1143 C1142 1.385 . S
C1144 C1142 1.478 . S
C1144 C1146 1.381 . S
C1144 C1150 1.383 . S
C1145 C1141 1.495 . S
C1145 H1151 0.959 . S
C1145 H1152 0.961 . S
C1145 H1153 0.960 . S
C1146 C1144 1.381 . S
C1146 C1147 1.394 . S
C1146 H1154 0.930 . S
C1147 C1146 1.394 . S
C1147 C1148 1.383 . S
C1147 H1155 0.929 . S
C1148 C1147 1.383 . S
C1148 C1149 1.377 . S
C1149 H1133 0.930 . S
C1149 C1148 1.377 . S
C1149 C1150 1.379 . S
C1150 H1134 0.931 . S
C1150 C1144 1.383 . S
C1150 C1149 1.379 . S
H1151 C1145 0.959 . S
H1152 C1145 0.961 . S
H1153 C1145 0.960 . S
H1154 C1146 0.930 . S
H1155 C1147 0.929 . S
H1156 C1164 0.929 . S
H1157 C1166 0.930 . S
H1158 C1168 0.930 . S
H1159 C1171 0.929 . S
H1160 C1174 0.930 . S
H1161 C1176 0.960 . S
H1162 C1176 0.960 . S
H1163 C1176 0.960 . S
C1164 H1156 0.929 . S
C1164 C1165 1.377 . S
C1164 C1166 1.384 . S
C1165 C1164 1.377 . S
C1165 C1171 1.390 . S
C1166 H1157 0.930 . S
C1166 C1164 1.384 . S
C1166 C1167 1.372 . S
C1167 C1166 1.372 . S
C1167 C1168 1.400 . S
C1167 C1172 1.490 . S
C1168 H1158 0.930 . S
C1168 C1167 1.400 . S
C1168 C1171 1.386 . S
H1169 C1185 0.930 . S
H1170 C1186 0.931 . S
C1171 H1159 0.929 . S
C1171 C1165 1.390 . S
C1171 C1168 1.386 . S
C1172 C1167 1.490 . S
C1172 C1174 1.395 . S
C1172 C1175 1.403 . S
H1173 C1179 0.930 . S
C1174 H1160 0.930 . S
C1174 C1172 1.395 . S
C1174 C1177 1.403 . S
C1175 C1172 1.403 . S
C1175 C1176 1.524 . S
C1175 C1179 1.400 . S
C1176 H1161 0.960 . S
C1176 H1162 0.960 . S
C1176 H1163 0.960 . S
C1176 C1175 1.524 . S
C1177 C1174 1.403 . S
C1177 C1178 1.392 . S
C1177 C1181 1.495 . S
C1178 C1177 1.392 . S
C1178 C1179 1.385 . S
C1178 C1180 1.478 . S
C1179 H1173 0.930 . S
C1179 C1175 1.400 . S
C1179 C1178 1.385 . S
C1180 C1178 1.478 . S
C1180 C1182 1.381 . S
C1180 C1186 1.383 . S
C1181 C1177 1.495 . S
C1181 H1187 0.959 . S
C1181 H1188 0.961 . S
C1181 H1189 0.960 . S
C1182 C1180 1.381 . S
C1182 C1183 1.394 . S
C1182 H1190 0.930 . S
C1183 C1182 1.394 . S
C1183 C1184 1.383 . S
C1183 H1191 0.929 . S
C1184 C1183 1.383 . S
C1184 C1185 1.377 . S
C1185 H1169 0.930 . S
C1185 C1184 1.377 . S
C1185 C1186 1.379 . S
C1186 H1170 0.931 . S
C1186 C1180 1.383 . S
C1186 C1185 1.379 . S
H1187 C1181 0.959 . S
H1188 C1181 0.961 . S
H1189 C1181 0.960 . S
H1190 C1182 0.930 . S
H1191 C1183 0.929 . S
H1192 C1200 0.929 . S
H1193 C1202 0.930 . S
H1194 C1204 0.930 . S
H1195 C1207 0.929 . S
H1196 C1210 0.930 . S
H1197 C1212 0.960 . S
H1198 C1212 0.960 . S
H1199 C1212 0.960 . S
C1200 H1192 0.929 . S
C1200 C1201 1.377 . S
C1200 C1202 1.384 . S
C1201 C1200 1.377 . S
C1201 C1207 1.390 . S
C1202 H1193 0.930 . S
C1202 C1200 1.384 . S
C1202 C1203 1.372 . S
C1203 C1202 1.372 . S
C1203 C1204 1.400 . S
C1203 C1208 1.490 . S
C1204 H1194 0.930 . S
C1204 C1203 1.400 . S
C1204 C1207 1.386 . S
H1205 C1221 0.930 . S
H1206 C1222 0.931 . S
C1207 H1195 0.929 . S
C1207 C1201 1.390 . S
C1207 C1204 1.386 . S
C1208 C1203 1.490 . S
C1208 C1210 1.395 . S
C1208 C1211 1.403 . S
H1209 C1215 0.930 . S
C1210 H1196 0.930 . S
C1210 C1208 1.395 . S
C1210 C1213 1.403 . S
C1211 C1208 1.403 . S
C1211 C1212 1.524 . S
C1211 C1215 1.400 . S
C1212 H1197 0.960 . S
C1212 H1198 0.960 . S
C1212 H1199 0.960 . S
C1212 C1211 1.524 . S
C1213 C1210 1.403 . S
C1213 C1214 1.392 . S
C1213 C1217 1.495 . S
C1214 C1213 1.392 . S
C1214 C1215 1.385 . S
C1214 C1216 1.478 . S
C1215 H1209 0.930 . S
C1215 C1211 1.400 . S
C1215 C1214 1.385 . S
C1216 C1214 1.478 . S
C1216 C1218 1.381 . S
C1216 C1222 1.383 . S
C1217 C1213 1.495 . S
C1217 H1223 0.959 . S
C1217 H1224 0.961 . S
C1217 H1225 0.960 . S
C1218 C1216 1.381 . S
C1218 C1219 1.394 . S
C1218 H1226 0.930 . S
C1219 C1218 1.394 . S
C1219 C1220 1.383 . S
C1219 H1227 0.929 . S
C1220 C1219 1.383 . S
C1220 C1221 1.377 . S
C1221 H1205 0.930 . S
C1221 C1220 1.377 . S
C1221 C1222 1.379 . S
C1222 H1206 0.931 . S
C1222 C1216 1.383 . S
C1222 C1221 1.379 . S
H1223 C1217 0.959 . S
H1224 C1217 0.961 . S
H1225 C1217 0.960 . S
H1226 C1218 0.930 . S
H1227 C1219 0.929 . S
H1228 C1236 0.929 . S
H1229 C1238 0.930 . S
H1230 C1240 0.930 . S
H1231 C1243 0.929 . S
H1232 C1246 0.930 . S
H1233 C1248 0.960 . S
H1234 C1248 0.960 . S
H1235 C1248 0.960 . S
C1236 H1228 0.929 . S
C1236 C1237 1.377 . S
C1236 C1238 1.384 . S
C1237 C1236 1.377 . S
C1237 C1243 1.390 . S
C1238 H1229 0.930 . S
C1238 C1236 1.384 . S
C1238 C1239 1.372 . S
C1239 C1238 1.372 . S
C1239 C1240 1.400 . S
C1239 C1244 1.490 . S
C1240 H1230 0.930 . S
C1240 C1239 1.400 . S
C1240 C1243 1.386 . S
H1241 C1257 0.930 . S
H1242 C1258 0.931 . S
C1243 H1231 0.929 . S
C1243 C1237 1.390 . S
C1243 C1240 1.386 . S
C1244 C1239 1.490 . S
C1244 C1246 1.395 . S
C1244 C1247 1.403 . S
H1245 C1251 0.930 . S
C1246 H1232 0.930 . S
C1246 C1244 1.395 . S
C1246 C1249 1.403 . S
C1247 C1244 1.403 . S
C1247 C1248 1.524 . S
C1247 C1251 1.400 . S
C1248 H1233 0.960 . S
C1248 H1234 0.960 . S
C1248 H1235 0.960 . S
C1248 C1247 1.524 . S
C1249 C1246 1.403 . S
C1249 C1250 1.392 . S
C1249 C1253 1.495 . S
C1250 C1249 1.392 . S
C1250 C1251 1.385 . S
C1250 C1252 1.478 . S
C1251 H1245 0.930 . S
C1251 C1247 1.400 . S
C1251 C1250 1.385 . S
C1252 C1250 1.478 . S
C1252 C1254 1.381 . S
C1252 C1258 1.383 . S
C1253 C1249 1.495 . S
C1253 H1259 0.959 . S
C1253 H1260 0.961 . S
C1253 H1261 0.960 . S
C1254 C1252 1.381 . S
C1254 C1255 1.394 . S
C1254 H1262 0.930 . S
C1255 C1254 1.394 . S
C1255 C1256 1.383 . S
C1255 H1263 0.929 . S
C1256 C1255 1.383 . S
C1256 C1257 1.377 . S
C1257 H1241 0.930 . S
C1257 C1256 1.377 . S
C1257 C1258 1.379 . S
C1258 H1242 0.931 . S
C1258 C1252 1.383 . S
C1258 C1257 1.379 . S
H1259 C1253 0.959 . S
H1260 C1253 0.961 . S
H1261 C1253 0.960 . S
H1262 C1254 0.930 . S
H1263 C1255 0.929 . S
H1264 C1272 0.929 . S
H1265 C1274 0.930 . S
H1266 C1276 0.930 . S
H1267 C1279 0.929 . S
H1268 C1282 0.930 . S
H1269 C1284 0.960 . S
H1270 C1284 0.960 . S
H1271 C1284 0.960 . S
C1272 H1264 0.929 . S
C1272 C1273 1.377 . S
C1272 C1274 1.384 . S
C1273 C1272 1.377 . S
C1273 C1279 1.390 . S
C1274 H1265 0.930 . S
C1274 C1272 1.384 . S
C1274 C1275 1.372 . S
C1275 C1274 1.372 . S
C1275 C1276 1.400 . S
C1275 C1280 1.490 . S
C1276 H1266 0.930 . S
C1276 C1275 1.400 . S
C1276 C1279 1.386 . S
H1277 C1293 0.930 . S
H1278 C1294 0.931 . S
C1279 H1267 0.929 . S
C1279 C1273 1.390 . S
C1279 C1276 1.386 . S
C1280 C1275 1.490 . S
C1280 C1282 1.395 . S
C1280 C1283 1.403 . S
H1281 C1287 0.930 . S
C1282 H1268 0.930 . S
C1282 C1280 1.395 . S
C1282 C1285 1.403 . S
C1283 C1280 1.403 . S
C1283 C1284 1.524 . S
C1283 C1287 1.400 . S
C1284 H1269 0.960 . S
C1284 H1270 0.960 . S
C1284 H1271 0.960 . S
C1284 C1283 1.524 . S
C1285 C1282 1.403 . S
C1285 C1286 1.392 . S
C1285 C1289 1.495 . S
C1286 C1285 1.392 . S
C1286 C1287 1.385 . S
C1286 C1288 1.478 . S
C1287 H1281 0.930 . S
C1287 C1283 1.400 . S
C1287 C1286 1.385 . S
C1288 C1286 1.478 . S
C1288 C1290 1.381 . S
C1288 C1294 1.383 . S
C1289 C1285 1.495 . S
C1289 H1295 0.959 . S
C1289 H1296 0.961 . S
C1289 H1297 0.960 . S
C1290 C1288 1.381 . S
C1290 C1291 1.394 . S
C1290 H1298 0.930 . S
C1291 C1290 1.394 . S
C1291 C1292 1.383 . S
C1291 H1299 0.929 . S
C1292 C1291 1.383 . S
C1292 C1293 1.377 . S
C1293 H1277 0.930 . S
C1293 C1292 1.377 . S
C1293 C1294 1.379 . S
C1294 H1278 0.931 . S
C1294 C1288 1.383 . S
C1294 C1293 1.379 . S
H1295 C1289 0.959 . S
H1296 C1289 0.961 . S
H1297 C1289 0.960 . S
H1298 C1290 0.930 . S
H1299 C1291 0.929 . S
H1300 C1308 0.929 . S
H1301 C1310 0.930 . S
H1302 C1312 0.930 . S
H1303 C1315 0.929 . S
H1304 C1318 0.930 . S
H1305 C1320 0.960 . S
H1306 C1320 0.960 . S
H1307 C1320 0.960 . S
C1308 H1300 0.929 . S
C1308 C1309 1.377 . S
C1308 C1310 1.384 . S
C1309 C1308 1.377 . S
C1309 C1315 1.390 . S
C1310 H1301 0.930 . S
C1310 C1308 1.384 . S
C1310 C1311 1.372 . S
C1311 C1310 1.372 . S
C1311 C1312 1.400 . S
C1311 C1316 1.490 . S
C1312 H1302 0.930 . S
C1312 C1311 1.400 . S
C1312 C1315 1.386 . S
H1313 C1329 0.930 . S
H1314 C1330 0.931 . S
C1315 H1303 0.929 . S
C1315 C1309 1.390 . S
C1315 C1312 1.386 . S
C1316 C1311 1.490 . S
C1316 C1318 1.395 . S
C1316 C1319 1.403 . S
H1317 C1323 0.930 . S
C1318 H1304 0.930 . S
C1318 C1316 1.395 . S
C1318 C1321 1.403 . S
C1319 C1316 1.403 . S
C1319 C1320 1.524 . S
C1319 C1323 1.400 . S
C1320 H1305 0.960 . S
C1320 H1306 0.960 . S
C1320 H1307 0.960 . S
C1320 C1319 1.524 . S
C1321 C1318 1.403 . S
C1321 C1322 1.392 . S
C1321 C1325 1.495 . S
C1322 C1321 1.392 . S
C1322 C1323 1.385 . S
C1322 C1324 1.478 . S
C1323 H1317 0.930 . S
C1323 C1319 1.400 . S
C1323 C1322 1.385 . S
C1324 C1322 1.478 . S
C1324 C1326 1.381 . S
C1324 C1330 1.383 . S
C1325 C1321 1.495 . S
C1325 H1331 0.959 . S
C1325 H1332 0.961 . S
C1325 H1333 0.960 . S
C1326 C1324 1.381 . S
C1326 C1327 1.394 . S
C1326 H1334 0.930 . S
C1327 C1326 1.394 . S
C1327 C1328 1.383 . S
C1327 H1335 0.929 . S
C1328 C1327 1.383 . S
C1328 C1329 1.377 . S
C1329 H1313 0.930 . S
C1329 C1328 1.377 . S
C1329 C1330 1.379 . S
C1330 H1314 0.931 . S
C1330 C1324 1.383 . S
C1330 C1329 1.379 . S
H1331 C1325 0.959 . S
H1332 C1325 0.961 . S
H1333 C1325 0.960 . S
H1334 C1326 0.930 . S
H1335 C1327 0.929 . S
C481 C1 0.931 . S
C500 C327 0.951 . S
C517 C40 1.603 . S
C536 C371 1.601 . S
C572 C401 2.004 . S
C553 C99 2.022 . S
C589 C118 2.802 . S
C608 C442 2.763 . S
C644 C358 0.712 . S
C625 C16 0.716 . S
C680 C322 2.624 . S
C661 C60 2.619 . S
C716 C450 1.102 . S
C697 C79 1.109 . S
C752 C411 2.100 . S
C733 C138 2.164 . S
C769 C21 0.690 . S
C788 C447 0.711 . S
C824 C361 1.990 . S
C805 C94 2.032 . S
C841 C133 2.126 . S
C860 C330 2.072 . S
C877 C55 1.883 . S
C896 C398 1.902 . S
C932 C318 0.909 . S
C913 C157 0.940 . S
C949 C196 1.599 . S
C968 C362 1.568 . S
C985 C255 2.024 . S
C1004 C410 2.002 . S
C1021 C289 2.795 . S
C1040 C451 2.756 . S
C1057 C172 0.709 . S
C1076 C367 0.710 . S
C1112 C331 2.635 . S
C1093 C216 2.606 . S
C1148 C441 1.101 . S
C1129 C235 1.113 . S
C1184 C402 2.126 . S
C1165 C294 2.172 . S
C1201 C177 0.692 . S
C1220 C438 0.732 . S
C1256 C370 1.966 . S
C1237 C250 2.034 . S
C1292 C321 2.076 . S
C1273 C274 2.134 . S
C1309 C211 1.883 . S
C1328 C407 1.883 . S
