# Generated by pormake.
# Topology tsx, (6,3)-cn, num edge types: 1
# Building blocks:
#     Node 0, Type 0, BuildingBlock: CIFDUS_clean_sbu_1, # of connection points: 6
#     Node 1, Type 0, BuildingBlock: CIFDUS_clean_sbu_1, # of connection points: 6
#     Node 2, Type 1, BuildingBlock: KAKCAD_clean_linker_0, # of connection points: 3
#     Node 3, Type 1, BuildingBlock: KAKCAD_clean_linker_0, # of connection points: 3
#     Node 4, Type 1, BuildingBlock: KAKCAD_clean_linker_0, # of connection points: 3
#     Node 5, Type 1, BuildingBlock: KAKCAD_clean_linker_0, # of connection points: 3
#     Edge 6, Type (0, 1), BuildingBlock: TEMPAE_clean_linker_10, # of connection points: 2
#     Edge 7, Type (0, 1), BuildingBlock: TEMPAE_clean_linker_10, # of connection points: 2
#     Edge 8, Type (0, 1), BuildingBlock: TEMPAE_clean_linker_10, # of connection points: 2
#     Edge 9, Type (0, 1), BuildingBlock: TEMPAE_clean_linker_10, # of connection points: 2
#     Edge 10, Type (0, 1), BuildingBlock: TEMPAE_clean_linker_10, # of connection points: 2
#     Edge 11, Type (0, 1), BuildingBlock: TEMPAE_clean_linker_10, # of connection points: 2
#     Edge 12, Type (0, 1), BuildingBlock: TEMPAE_clean_linker_10, # of connection points: 2
#     Edge 13, Type (0, 1), BuildingBlock: TEMPAE_clean_linker_10, # of connection points: 2
#     Edge 14, Type (0, 1), BuildingBlock: TEMPAE_clean_linker_10, # of connection points: 2
#     Edge 15, Type (0, 1), BuildingBlock: TEMPAE_clean_linker_10, # of connection points: 2
#     Edge 16, Type (0, 1), BuildingBlock: TEMPAE_clean_linker_10, # of connection points: 2
#     Edge 17, Type (0, 1), BuildingBlock: TEMPAE_clean_linker_10, # of connection points: 2
# Relax obj value: 0.127
# Max RMSD: 0.155
# Mean RMSD: 0.118
data_MOF--net-tsx--node1-CIFDUS_clean_sbu_1--node2-KAKCAD_clean_linker_0--edge1-TEMPAE_clean_linker_10
_symmetry_space_group_name_H-M    P1
_symmetry_Int_Tables_number       1
_symmetry_cell_setting            triclinic
loop_
_symmetry_equiv_pos_as_xyz
'x, y, z'
_cell_length_a     22.493155
_cell_length_b     27.597138
_cell_length_c     45.48302
_cell_angle_alpha  97.014119
_cell_angle_beta   91.211032
_cell_angle_gamma 90.80164
loop_
_atom_site_label
_atom_site_type_symbol
_atom_site_fract_x
_atom_site_fract_y
_atom_site_fract_z
_atom_type_partial_charge
O0 O 0.00855 0.09562 0.01597 0.0
Mn1 Mn 0.05048 0.02732 0.0107 0.0
O2 O 0.91353 0.08264 0.00312 0.0
Mn3 Mn 0.93084 0.02224 0.98454 0.0
O4 O 0.09692 0.96064 0.00623 0.0
O5 O 0.12642 0.06766 0.01467 0.0
Mn6 Mn 0.17805 0.04129 0.03708 0.0
O7 O 0.04887 0.02575 0.05678 0.0
O8 O 0.19262 0.97993 0.01861 0.0
O9 O 0.05549 0.02869 0.96455 0.0
O10 O 0.96185 0.02029 0.94744 0.0
O11 O 0.21518 0.09645 0.02698 0.0
O12 O 0.14294 0.04214 0.07356 0.0
C13 C 0.92115 0.9598 0.004 0.0
C14 C 0.9553 0.11068 0.01378 0.0
C15 C 0.15185 0.94899 0.00949 0.0
C16 C 0.16492 0.10278 0.01372 0.0
C17 C 0.08832 0.03279 0.07794 0.0
C18 C 0.01702 0.02454 0.94309 0.0
O19 O 0.97188 0.98497 0.00701 0.0
O20 O 0.87774 0.97611 0.98896 0.0
O21 O 0.51032 0.59137 0.51884 0.0
Mn22 Mn 0.55892 0.52779 0.51039 0.0
O23 O 0.45654 0.58112 0.47718 0.0
Mn24 Mn 0.4677 0.51413 0.47149 0.0
O25 O 0.60515 0.46105 0.50092 0.0
O26 O 0.63321 0.57306 0.52032 0.0
Mn27 Mn 0.67852 0.53068 0.53645 0.0
O28 O 0.55114 0.51649 0.55502 0.0
O29 O 0.70017 0.4796 0.50997 0.0
O30 O 0.57421 0.54144 0.46577 0.0
O31 O 0.51336 0.48965 0.44091 0.0
O32 O 0.72615 0.58291 0.53849 0.0
O33 O 0.64587 0.51635 0.57125 0.0
C34 C 0.42699 0.46597 0.49437 0.0
C35 C 0.47435 0.60765 0.50047 0.0
C36 C 0.66029 0.44977 0.49925 0.0
C37 C 0.68031 0.60168 0.52662 0.0
C38 C 0.5904 0.51273 0.57557 0.0
C39 C 0.55899 0.51594 0.44127 0.0
O40 O 0.47994 0.48413 0.50391 0.0
O41 O 0.40092 0.48161 0.47172 0.0
C42 C 0.03747 0.94784 0.30555 0.0
C43 C 0.04341 0.99171 0.29292 0.0
C44 C 0.03931 0.94811 0.3364 0.0
C45 C 0.04681 0.99226 0.35518 0.0
C46 C 0.05451 0.0358 0.34252 0.0
C47 C 0.05303 0.03551 0.31183 0.0
C48 C 0.04372 -0.0063 0.38787 0.0
C49 C 0.07517 0.96061 0.40305 0.0
C50 C 0.07188 0.96205 0.43412 0.0
C51 C 0.03639 -0.00221 0.4499 0.0
C52 C 0.00575 0.03182 0.4349 0.0
C53 C 0.00922 0.02895 0.40397 0.0
C54 C 0.96957 0.07103 0.45062 0.0
C55 C 0.92463 0.06057 0.47009 0.0
C56 C 0.97486 0.11861 0.44285 0.0
C57 C 0.93297 0.15364 0.4519 0.0
C58 C 0.88526 0.14216 0.46927 0.0
C59 C 0.1072 0.92706 0.4497 0.0
C60 C 0.11681 0.87952 0.43584 0.0
C61 C 0.1344 0.94139 0.47764 0.0
C62 C 0.17175 0.90954 0.4908 0.0
C63 C 0.18354 0.8628 0.47618 0.0
C64 C 0.15496 0.84821 0.44863 0.0
C65 C 0.88262 0.09609 0.47943 0.0
H66 H 0.02982 0.91349 0.29165 0.0
H67 H 0.03296 0.91404 0.34557 0.0
H68 H 0.06151 0.07026 0.35643 0.0
H69 H 0.05949 0.06978 0.30291 0.0
H70 H 0.10368 0.93472 0.39057 0.0
H71 H 0.98399 0.05404 0.39221 0.0
H72 H 0.03293 -0.00045 0.47372 0.0
H73 H 0.91968 0.02422 0.47651 0.0
H74 H 0.00978 0.12799 0.42838 0.0
H75 H 0.93637 0.18924 0.44425 0.0
H76 H 0.09567 0.86651 0.41468 0.0
H77 H 0.12848 0.97775 0.489 0.0
H78 H 0.84628 0.0867 0.49304 0.0
H79 H 0.16333 0.81301 0.43626 0.0
H80 H 0.19197 0.92193 0.51225 0.0
C81 C 0.03018 0.1057 0.71644 0.0
C82 C 0.03308 0.06098 0.72817 0.0
C83 C 0.01916 0.10688 0.68623 0.0
C84 C 0.01167 0.06336 0.66676 0.0
C85 C 0.01305 0.01863 0.67853 0.0
C86 C 0.02345 0.01747 0.70888 0.0
C87 C 0.00557 0.06519 0.63424 0.0
C88 C 0.03945 0.09928 0.62117 0.0
C89 C 0.03289 0.1048 0.59097 0.0
C90 C 0.99373 0.07281 0.57304 0.0
C91 C 0.96167 0.03633 0.58552 0.0
C92 C 0.9672 0.03336 0.61615 0.0
C93 C 0.92324 -9e-05 0.56705 0.0
C94 C 0.87507 0.0142 0.55004 0.0
C95 C 0.93189 0.94998 0.5686 0.0
C96 C 0.89235 0.91504 0.55422 0.0
C97 C 0.84276 0.92924 0.53831 0.0
C98 C 0.06879 0.14382 0.57924 0.0
C99 C 0.0811 0.18775 0.5976 0.0
C100 C 0.09599 0.13632 0.55155 0.0
C101 C 0.13713 0.17077 0.54337 0.0
C102 C 0.15313 0.21293 0.563 0.0
C103 C 0.12361 0.22086 0.59008 0.0
C104 C 0.83455 0.97906 0.53606 0.0
H105 H 0.03754 0.13996 0.73048 0.0
H106 H 0.01715 0.14209 0.67806 0.0
H107 H 0.00762 0.98443 0.66421 0.0
H108 H 0.02394 0.98236 0.71722 0.0
H109 H 0.07227 0.1213 0.63477 0.0
H110 H 0.94097 0.00646 0.6259 0.0
H111 H 0.98867 0.07576 0.54958 0.0
H112 H 0.86738 0.05252 0.54864 0.0
H113 H 0.96868 0.93805 0.58154 0.0
H114 H 0.89925 0.87686 0.55646 0.0
H115 H 0.05955 0.19586 0.61867 0.0
H116 H 0.08732 0.10312 0.53669 0.0
H117 H 0.79645 0.99072 0.52395 0.0
H118 H 0.13434 0.25183 0.60635 0.0
H119 H 0.1569 0.16371 0.52183 0.0
C120 C 0.52815 0.4344 0.80359 0.0
C121 C 0.53564 0.47714 0.78991 0.0
C122 C 0.53025 0.43654 0.83456 0.0
C123 C 0.53944 0.48147 0.85231 0.0
C124 C 0.54895 0.52373 0.83862 0.0
C125 C 0.54733 0.52158 0.80785 0.0
C126 C 0.53659 0.48553 0.88505 0.0
C127 C 0.57015 0.45547 0.90141 0.0
C128 C 0.57019 0.46209 0.93267 0.0
C129 C 0.53648 0.50012 0.94738 0.0
C130 C 0.50283 0.53074 0.93109 0.0
C131 C 0.50205 0.52191 0.90001 0.0
C132 C 0.46965 0.57321 0.94564 0.0
C133 C 0.43781 0.57085 0.97174 0.0
C134 C 0.46697 0.61617 0.93199 0.0
C135 C 0.4301 0.65405 0.94255 0.0
C136 C 0.39637 0.65148 0.96801 0.0
C137 C 0.60766 0.43032 0.94947 0.0
C138 C 0.61398 0.38074 0.93877 0.0
C139 C 0.64005 0.44954 0.97518 0.0
C140 C 0.67932 0.4202 0.98917 0.0
C141 C 0.68741 0.37109 0.97766 0.0
C142 C 0.65364 0.35172 0.95245 0.0
C143 C 0.40178 0.60973 0.98292 0.0
H144 H 0.51908 0.39958 0.79042 0.0
H145 H 0.52278 0.40344 0.84463 0.0
H146 H 0.55736 0.55869 0.85179 0.0
H147 H 0.55523 0.55493 0.79812 0.0
H148 H 0.59804 0.42816 0.8897 0.0
H149 H 0.47455 0.54382 0.88709 0.0
H150 H 0.53703 0.50626 0.97136 0.0
H151 H 0.43911 0.53846 0.98298 0.0
H152 H 0.49232 0.62022 0.91243 0.0
H153 H 0.42692 0.68472 0.92991 0.0
H154 H 0.589 0.36437 0.91937 0.0
H155 H 0.63666 0.48764 0.98397 0.0
H156 H 0.37767 0.60668 0.00297 0.0
H157 H 0.65908 0.31437 0.94256 0.0
H158 H 0.70386 0.43623 0.00878 0.0
C159 C 0.5039 0.61766 0.22015 0.0
C160 C 0.52422 0.57568 0.23152 0.0
C161 C 0.49344 0.61708 0.18965 0.0
C162 C 0.50182 0.57416 0.17022 0.0
C163 C 0.52047 0.53184 0.18181 0.0
C164 C 0.53211 0.53274 0.21216 0.0
C165 C 0.49474 0.57391 0.13773 0.0
C166 C 0.52567 0.60817 0.12344 0.0
C167 C 0.52458 0.60567 0.09237 0.0
C168 C 0.49146 0.56782 0.07544 0.0
C169 C 0.45943 0.53317 0.08959 0.0
C170 C 0.46101 0.53726 0.1208 0.0
C171 C 0.42584 0.49139 0.07252 0.0
C172 C 0.39224 0.49673 0.04666 0.0
C173 C 0.42493 0.44573 0.08324 0.0
C174 C 0.3893 0.40743 0.06969 0.0
C175 C 0.35475 0.41251 0.04412 0.0
C176 C 0.56197 0.6412 0.07849 0.0
C177 C 0.56482 0.69038 0.091 0.0
C178 C 0.60062 0.62552 0.05549 0.0
C179 C 0.64372 0.65766 0.04661 0.0
C180 C 0.64899 0.7061 0.06053 0.0
C181 C 0.60789 0.72227 0.08231 0.0
C182 C 0.3572 0.45767 0.03256 0.0
H183 H 0.4975 0.65112 0.23478 0.0
H184 H 0.47904 0.65013 0.18119 0.0
H185 H 0.52776 0.49844 0.16727 0.0
H186 H 0.5475 0.49991 0.22056 0.0
H187 H 0.55326 0.63552 0.13665 0.0
H188 H 0.43604 0.51169 0.13223 0.0
H189 H 0.49149 0.56495 0.05147 0.0
H190 H 0.39175 0.53136 0.03776 0.0
H191 H 0.45127 0.43952 0.1026 0.0
H192 H 0.38807 0.37404 0.07992 0.0
H193 H 0.53515 0.70377 0.10852 0.0
H194 H 0.59965 0.58786 0.04542 0.0
H195 H 0.33194 0.46301 0.01273 0.0
H196 H 0.61052 0.75909 0.09368 0.0
H197 H 0.67378 0.64423 0.0293 0.0
C198 C 0.18056 0.16594 0.98063 0.0
C199 C 0.15242 0.15153 0.00541 0.0
C200 C 0.20075 0.21442 0.98045 0.0
C201 C 0.1947 0.24842 0.00618 0.0
C202 C 0.15896 0.23553 0.02944 0.0
C203 C 0.13731 0.18731 0.02846 0.0
C204 C 0.23544 0.22718 0.95437 0.0
C205 C 0.1516 0.26993 0.05754 0.0
C206 C 0.33343 0.32254 0.03226 0.0
C207 C 0.31581 0.37077 0.03057 0.0
C208 C 0.29466 0.2828 0.02404 0.0
C209 C 0.23734 0.29075 0.01219 0.0
C210 C 0.22075 0.33885 0.00808 0.0
C211 C 0.25974 0.37839 0.01776 0.0
C212 C 0.31464 0.23233 0.02917 0.0
C213 C 0.16159 0.34857 0.99389 0.0
H214 H 0.19278 0.1383 0.96284 0.0
H215 H 0.11628 0.17607 0.04784 0.0
H216 H 0.2298 0.26606 0.95109 0.0
H217 H 0.28345 0.22122 0.95839 0.0
H218 H 0.22138 0.20374 0.93371 0.0
H219 H 0.11408 0.25838 0.07074 0.0
H220 H 0.193 0.27034 0.0713 0.0
H221 H 0.14398 0.30775 0.05269 0.0
H222 H 0.37743 0.31565 0.04078 0.0
H223 H 0.24537 0.41527 0.0161 0.0
H224 H 0.31585 0.20837 0.00779 0.0
H225 H 0.28264 0.21572 0.04343 0.0
H226 H 0.35949 0.23279 0.03992 0.0
H227 H 0.15689 0.32636 0.9719 0.0
H228 H 0.15647 0.38769 0.99097 0.0
H229 H 0.12476 0.33747 0.00758 0.0
C230 C 0.20799 0.88316 0.02871 0.0
C231 C 0.17001 0.8975 0.00659 0.0
C232 C 0.23742 0.83865 0.02476 0.0
C233 C 0.22899 0.80761 0.99787 0.0
C234 C 0.18683 0.81998 0.97641 0.0
C235 C 0.15748 0.86502 0.98107 0.0
C236 C 0.28137 0.82701 0.04839 0.0
C237 C 0.17643 0.78755 0.94755 0.0
C238 C 0.3676 0.73975 0.97249 0.0
C239 C 0.35447 0.69166 0.97777 0.0
C240 C 0.32622 0.77702 0.97794 0.0
C241 C 0.27108 0.76695 0.99051 0.0
C242 C 0.25838 0.71928 0.99739 0.0
C243 C 0.2998 0.68201 0.99053 0.0
C244 C 0.34171 0.82734 0.97018 0.0
C245 C 0.20122 0.70776 0.01208 0.0
H246 H 0.21707 0.90813 0.04869 0.0
H247 H 0.12812 0.87613 0.964 0.0
H248 H 0.27701 0.78824 0.05227 0.0
H249 H 0.3273 0.83286 0.04095 0.0
H250 H 0.27545 0.85052 0.06973 0.0
H251 H 0.13666 0.79845 0.9352 0.0
H252 H 0.21585 0.78971 0.93347 0.0
H253 H 0.17077 0.7489 0.95153 0.0
H254 H 0.41036 0.74853 0.96382 0.0
H255 H 0.28862 0.64519 0.99465 0.0
H256 H 0.34486 0.85371 0.99064 0.0
H257 H 0.3062 0.84 0.95577 0.0
H258 H 0.38458 0.82823 0.95855 0.0
H259 H 0.19938 0.72955 0.03421 0.0
H260 H 0.19685 0.66846 0.01491 0.0
H261 H 0.16248 0.71813 0.99885 0.0
C262 C 0.90914 0.90534 0.04391 0.0
C263 C 0.91069 0.9114 0.01381 0.0
C264 C 0.87522 0.86687 0.0534 0.0
C265 C 0.84054 0.83548 0.03237 0.0
C266 C 0.84616 0.83939 0.00185 0.0
C267 C 0.88235 0.87638 0.99302 0.0
C268 C 0.87262 0.86265 0.08608 0.0
C269 C 0.80882 0.80822 0.97857 0.0
C270 C 0.75609 0.72142 0.0487 0.0
C271 C 0.69843 0.73922 0.05349 0.0
C272 C 0.80338 0.75258 0.04294 0.0
C273 C 0.79295 0.80281 0.04189 0.0
C274 C 0.73506 0.82113 0.04711 0.0
C275 C 0.68865 0.78919 0.05274 0.0
C276 C 0.86449 0.73175 0.03784 0.0
C277 C 0.72166 0.87436 0.04599 0.0
H278 H 0.93004 0.93268 0.06012 0.0
H279 H 0.88309 0.88133 0.96972 0.0
H280 H 0.83447 0.88377 0.09559 0.0
H281 H 0.86637 0.82412 0.09022 0.0
H282 H 0.91383 0.87768 0.09788 0.0
H283 H 0.82223 0.81296 0.95571 0.0
H284 H 0.81196 0.76905 0.9815 0.0
H285 H 0.76143 0.8184 0.98096 0.0
H286 H 0.76456 0.68313 0.04986 0.0
H287 H 0.64429 0.80335 0.05608 0.0
H288 H 0.89737 0.75247 0.05322 0.0
H289 H 0.87833 0.7356 0.01497 0.0
H290 H 0.86613 0.69252 0.04106 0.0
H291 H 0.75124 0.8976 0.06187 0.0
H292 H 0.67476 0.88307 0.05139 0.0
H293 H 0.73047 0.8842 0.02353 0.0
C294 C 0.91303 0.18441 0.04175 0.0
C295 C 0.94254 0.16292 0.01684 0.0
C296 C 0.87935 0.22662 0.04033 0.0
C297 C 0.87342 0.24613 0.01302 0.0
C298 C 0.90769 0.22693 0.98865 0.0
C299 C 0.94243 0.18577 0.99102 0.0
C300 C 0.84533 0.24709 0.06713 0.0
C301 C 0.90203 0.24582 0.95893 0.0
C302 C 0.72226 0.29024 0.9907 0.0
C303 C 0.73277 0.34048 0.99066 0.0
C304 C 0.76724 0.25951 0.9988 0.0
C305 C 0.82386 0.27961 0.00806 0.0
C306 C 0.83364 0.33066 0.01012 0.0
C307 C 0.78825 0.36046 0.00104 0.0
C308 C 0.7549 0.20514 0.99602 0.0
C309 C 0.89276 0.3536 0.02072 0.0
H310 H 0.91239 0.16611 0.06153 0.0
H311 H 0.96436 0.16829 0.97159 0.0
H312 H 0.84365 0.28751 0.0689 0.0
H313 H 0.79893 0.2327 0.06506 0.0
H314 H 0.8655 0.23647 0.08786 0.0
H315 H 0.93713 0.23139 0.94356 0.0
H316 H 0.85802 0.23454 0.94862 0.0
H317 H 0.90448 0.28626 0.96152 0.0
H318 H 0.67912 0.27455 0.9836 0.0
H319 H 0.79722 0.39912 0.001 0.0
H320 H 0.76444 0.1911 0.01742 0.0
H321 H 0.78457 0.186 0.97936 0.0
H322 H 0.70807 0.19554 0.9892 0.0
H323 H 0.90891 0.33837 0.04086 0.0
H324 H 0.8901 0.39392 0.02577 0.0
H325 H 0.92624 0.34517 0.00336 0.0
C326 C 0.65142 0.67861 0.50405 0.0
C327 C 0.68283 0.65515 0.52507 0.0
C328 C 0.66327 0.72849 0.50137 0.0
C329 C 0.70776 0.75463 0.51988 0.0
C330 C 0.73679 0.73134 0.54204 0.0
C331 C 0.72344 0.68258 0.5445 0.0
C332 C 0.63016 0.75232 0.47798 0.0
C333 C 0.78453 0.75704 0.56246 0.0
C334 C 0.81519 0.85342 0.50499 0.0
C335 C 0.79837 0.89143 0.52627 0.0
C336 C 0.78036 0.81053 0.49917 0.0
C337 C 0.7285 0.80501 0.51573 0.0
C338 C 0.70812 0.84554 0.53485 0.0
C339 C 0.74341 0.88841 0.53991 0.0
C340 C 0.80319 0.76894 0.47801 0.0
C341 C 0.6529 0.84166 0.55271 0.0
H342 H 0.61964 0.65782 0.4891 0.0
H343 H 0.74686 0.66532 0.56142 0.0
H344 H 0.62052 0.79099 0.4859 0.0
H345 H 0.65808 0.75187 0.45813 0.0
H346 H 0.58769 0.73263 0.47119 0.0
H347 H 0.80148 0.73391 0.57905 0.0
H348 H 0.82264 0.76738 0.5493 0.0
H349 H 0.76704 0.79102 0.57453 0.0
H350 H 0.85766 0.85592 0.49438 0.0
H351 H 0.73051 0.91781 0.55646 0.0
H352 H 0.76607 0.74977 0.46474 0.0
H353 H 0.82507 0.74214 0.49083 0.0
H354 H 0.83616 0.78179 0.46272 0.0
H355 H 0.61745 0.82033 0.53934 0.0
H356 H 0.63572 0.87824 0.56098 0.0
H357 H 0.66353 0.82231 0.57213 0.0
C358 C 0.64391 0.3584 0.49154 0.0
C359 C 0.68001 0.39953 0.48917 0.0
C360 C 0.66795 0.31111 0.48796 0.0
C361 C 0.72935 0.30522 0.48219 0.0
C362 C 0.76502 0.34653 0.47844 0.0
C363 C 0.73981 0.39283 0.48162 0.0
C364 C 0.62836 0.26776 0.49151 0.0
C365 C 0.8307 0.34221 0.47233 0.0
C366 C 0.82476 0.20109 0.50213 0.0
C367 C 0.83629 0.17726 0.47394 0.0
C368 C 0.78586 0.24082 0.50555 0.0
C369 C 0.75773 0.25644 0.48016 0.0
C370 C 0.76586 0.22974 0.45199 0.0
C371 C 0.80542 0.19074 0.44921 0.0
C372 C 0.77881 0.2685 0.53596 0.0
C373 C 0.73648 0.24467 0.42441 0.0
H374 H 0.59783 0.36329 0.4976 0.0
H375 H 0.76796 0.42438 0.47947 0.0
H376 H 0.63392 0.23855 0.47277 0.0
H377 H 0.64133 0.25243 0.51211 0.0
H378 H 0.58069 0.27766 0.49272 0.0
H379 H 0.85211 0.37801 0.46996 0.0
H380 H 0.85371 0.32641 0.49068 0.0
H381 H 0.83758 0.31723 0.45171 0.0
H382 H 0.84886 0.19061 0.52121 0.0
H383 H 0.81425 0.17195 0.42742 0.0
H384 H 0.73137 0.27665 0.5401 0.0
H385 H 0.80332 0.30392 0.5373 0.0
H386 H 0.79636 0.24797 0.55372 0.0
H387 H 0.68898 0.25305 0.42827 0.0
H388 H 0.73944 0.21582 0.40522 0.0
H389 H 0.75857 0.27829 0.41857 0.0
C390 C 0.41775 0.40458 0.53167 0.0
C391 C 0.39453 0.42739 0.50809 0.0
C392 C 0.38465 0.36756 0.54328 0.0
C393 C 0.32776 0.35309 0.53077 0.0
C394 C 0.30465 0.37604 0.50702 0.0
C395 C 0.33789 0.41272 0.49624 0.0
C396 C 0.41012 0.34413 0.56893 0.0
C397 C 0.24425 0.3622 0.49293 0.0
C398 C 0.24755 0.2329 0.53707 0.0
C399 C 0.20076 0.24816 0.5559 0.0
C400 C 0.29135 0.26611 0.52985 0.0
C401 C 0.29006 0.31549 0.54266 0.0
C402 C 0.24517 0.3306 0.56288 0.0
C403 C 0.20037 0.29738 0.56852 0.0
C404 C 0.33718 0.24889 0.5073 0.0
C405 C 0.24238 0.38276 0.57738 0.0
H406 H 0.46135 0.41552 0.54096 0.0
H407 H 0.31878 0.42991 0.47814 0.0
H408 H 0.37871 0.34766 0.58753 0.0
H409 H 0.41604 0.30453 0.56215 0.0
H410 H 0.45367 0.36069 0.57699 0.0
H411 H 0.23422 0.38197 0.47359 0.0
H412 H 0.24174 0.32242 0.48545 0.0
H413 H 0.20903 0.37055 0.5094 0.0
H414 H 0.24998 0.19507 0.52761 0.0
H415 H 0.16418 0.3109 0.58234 0.0
H416 H 0.38249 0.25997 0.51587 0.0
H417 H 0.3294 0.26638 0.48687 0.0
H418 H 0.33554 0.20864 0.50129 0.0
H419 H 0.28718 0.39637 0.58545 0.0
H420 H 0.2117 0.38659 0.59632 0.0
H421 H 0.22653 0.40646 0.56092 0.0
C422 C 0.41453 0.66912 0.53119 0.0
C423 C 0.44887 0.65655 0.50616 0.0
C424 C 0.37482 0.70823 0.53213 0.0
C425 C 0.36995 0.73502 0.50752 0.0
C426 C 0.40901 0.72517 0.48357 0.0
C427 C 0.44771 0.68582 0.48314 0.0
C428 C 0.33446 0.71788 0.5582 0.0
C429 C 0.40591 0.75293 0.45697 0.0
C430 C 0.22033 0.77913 0.483 0.0
C431 C 0.22765 0.83009 0.48848 0.0
C432 C 0.26546 0.7478 0.49019 0.0
C433 C 0.31864 0.76765 0.50428 0.0
C434 C 0.32448 0.81871 0.51214 0.0
C435 C 0.27937 0.84939 0.50377 0.0
C436 C 0.25746 0.69351 0.48118 0.0
C437 C 0.37964 0.8411 0.52805 0.0
H438 H 0.41496 0.64598 0.54882 0.0
H439 H 0.47435 0.67581 0.46378 0.0
H440 H 0.3286 0.75766 0.56435 0.0
H441 H 0.28993 0.7014 0.55214 0.0
H442 H 0.3519 0.70178 0.57781 0.0
H443 H 0.44417 0.74504 0.44217 0.0
H444 H 0.36427 0.74259 0.44405 0.0
H445 H 0.40497 0.79281 0.46399 0.0
H446 H 0.17986 0.76352 0.47221 0.0
H447 H 0.28606 0.88857 0.50812 0.0
H448 H 0.26504 0.67337 0.50055 0.0
H449 H 0.2908 0.68083 0.46442 0.0
H450 H 0.2124 0.68372 0.47162 0.0
H451 H 0.39205 0.8209 0.54686 0.0
H452 H 0.37356 0.88014 0.53659 0.0
H453 H 0.41735 0.83856 0.51264 0.0
C454 C 0.02122 0.00104 0.11527 0.0
C455 C 0.07221 0.02733 0.10887 0.0
C456 C 0.01015 0.99164 0.14445 0.0
C457 C 0.05102 0.00902 0.16764 0.0
C458 C 0.1018 0.03637 0.16133 0.0
C459 C 0.11163 0.04522 0.13217 0.0
C460 C 0.95576 0.96197 0.15027 0.0
C461 C 0.14632 0.05595 0.18537 0.0
C462 C 0.01002 0.03055 0.24849 0.0
C463 C 0.03946 0.99245 0.26024 0.0
C464 C 0.01068 0.03485 0.21809 0.0
C465 C 0.04099 -7e-05 0.1988 0.0
C466 C 0.06781 0.95975 0.21019 0.0
C467 C 0.06693 0.95657 0.2408 0.0
C468 C 0.98143 0.07817 0.20686 0.0
C469 C 0.10008 0.92147 0.19028 0.0
H470 H 0.99089 0.98663 0.09742 0.0
H471 H 0.15104 0.06582 0.12758 0.0
H472 H 0.96954 0.92518 0.15494 0.0
H473 H 0.93239 0.97918 0.17001 0.0
H474 H 0.92404 0.95764 0.13105 0.0
H475 H 0.18341 0.07676 0.17677 0.0
H476 H 0.12389 0.08027 0.20282 0.0
H477 H 0.16535 0.02538 0.19603 0.0
H478 H 0.98729 0.05773 0.2632 0.0
H479 H 0.08988 0.92704 0.24963 0.0
H480 H 0.95166 0.06596 0.18754 0.0
H481 H 0.01601 0.10261 0.19929 0.0
H482 H 0.95514 0.09959 0.22416 0.0
H483 H 0.07223 0.9085 0.17037 0.0
H484 H 0.11211 0.8896 0.20179 0.0
H485 H 0.14147 0.93766 0.18253 0.0
C486 C 0.99667 0.00521 0.88911 0.0
C487 C 0.03492 0.02632 0.91206 0.0
C488 C 0.00584 0.01226 0.85964 0.0
C489 C 0.05495 0.04094 0.85263 0.0
C490 C 0.09573 0.0604 0.87542 0.0
C491 C 0.08529 0.05277 0.90501 0.0
C492 C 0.96116 0.99077 0.83614 0.0
C493 C 0.14865 0.09106 0.86873 0.0
C494 C 0.08073 0.02286 0.77007 0.0
C495 C 0.04553 0.0597 0.7604 0.0
C496 C 0.08838 0.01856 0.80036 0.0
C497 C 0.06046 0.05206 0.82156 0.0
C498 C 0.0285 0.09142 0.81206 0.0
C499 C 0.02103 0.09455 0.78164 0.0
C500 C 0.12313 0.97627 0.80952 0.0
C501 C 0.99838 0.12827 0.8339 0.0
H502 H 0.95806 0.98418 0.89433 0.0
H503 H 0.11486 0.06933 0.92266 0.0
H504 H 0.93826 0.0206 0.82638 0.0
H505 H 0.98403 0.96847 0.81796 0.0
H506 H 0.92696 0.96748 0.8451 0.0
H507 H 0.17927 0.09936 0.88824 0.0
H508 H 0.17369 0.07216 0.85006 0.0
H509 H 0.13314 0.12601 0.8618 0.0
H510 H 0.10137 -0.00339 0.75392 0.0
H511 H 0.99358 0.12312 0.77454 0.0
H512 H 0.09193 0.94899 0.81697 0.0
H513 H 0.15384 0.98873 0.82842 0.0
H514 H 0.14927 0.95794 0.79103 0.0
H515 H 0.95814 0.11121 0.84224 0.0
H516 H 0.98464 0.16103 0.82366 0.0
H517 H 0.02819 0.14011 0.85326 0.0
C518 C 0.51973 0.48156 0.61163 0.0
C519 C 0.57278 0.50567 0.60596 0.0
C520 C 0.50642 0.47258 0.64066 0.0
C521 C 0.54664 0.48889 0.66438 0.0
C522 C 0.59955 0.51404 0.65869 0.0
C523 C 0.61195 0.5219 0.62967 0.0
C524 C 0.44991 0.44519 0.64595 0.0
C525 C 0.64339 0.53268 0.68329 0.0
C526 C 0.50375 0.51445 0.7447 0.0
C527 C 0.53135 0.47615 0.75713 0.0
C528 C 0.50513 0.51746 0.71418 0.0
C529 C 0.53407 0.48087 0.69544 0.0
C530 C 0.55867 0.44043 0.70753 0.0
C531 C 0.55725 0.43863 0.73826 0.0
C532 C 0.47899 0.5615 0.70231 0.0
C533 C 0.58977 0.40059 0.68826 0.0
H534 H 0.48952 0.4687 0.59337 0.0
H535 H 0.65276 0.54108 0.62554 0.0
H536 H 0.46062 0.41207 0.65648 0.0
H537 H 0.42165 0.4683 0.66148 0.0
H538 H 0.42394 0.43402 0.62511 0.0
H539 H 0.68221 0.55198 0.67509 0.0
H540 H 0.62114 0.55816 0.7002 0.0
H541 H 0.65996 0.50182 0.69449 0.0
H542 H 0.48227 0.54297 0.759 0.0
H543 H 0.57884 0.40897 0.74762 0.0
H544 H 0.45007 0.55009 0.68256 0.0
H545 H 0.51539 0.58475 0.69526 0.0
H546 H 0.4526 0.58394 0.71913 0.0
H547 H 0.56256 0.38833 0.66802 0.0
H548 H 0.599 0.36854 0.70014 0.0
H549 H 0.63267 0.41497 0.68103 0.0
C550 C 0.5713 0.49215 0.38767 0.0
C551 C 0.57802 0.52817 0.41213 0.0
C552 C 0.56895 0.50439 0.3587 0.0
C553 C 0.57463 0.55395 0.35392 0.0
C554 C 0.58654 0.59013 0.37836 0.0
C555 C 0.58791 0.57682 0.40732 0.0
C556 C 0.55551 0.4646 0.33344 0.0
C557 C 0.59376 0.64324 0.37412 0.0
C558 C 0.59647 0.56822 0.27292 0.0
C559 C 0.53824 0.57637 0.26345 0.0
C560 C 0.60986 0.56443 0.30284 0.0
C561 C 0.56353 0.56744 0.32354 0.0
C562 C 0.50485 0.57736 0.31414 0.0
C563 C 0.49305 0.58225 0.28418 0.0
C564 C 0.67309 0.55507 0.31204 0.0
C565 C 0.45386 0.57984 0.33531 0.0
H566 H 0.56336 0.45453 0.39138 0.0
H567 H 0.59215 0.6049 0.42616 0.0
H568 H 0.51115 0.47058 0.32348 0.0
H569 H 0.58859 0.46565 0.31579 0.0
H570 H 0.55554 0.42762 0.34074 0.0
H571 H 0.61168 0.66552 0.39446 0.0
H572 H 0.62381 0.64742 0.35553 0.0
H573 H 0.54994 0.65795 0.36838 0.0
H574 H 0.63139 0.56405 0.25677 0.0
H575 H 0.448 0.58839 0.27669 0.0
H576 H 0.67666 0.51706 0.3174 0.0
H577 H 0.68625 0.57979 0.3323 0.0
H578 H 0.70494 0.56026 0.2943 0.0
H579 H 0.44569 0.54318 0.34225 0.0
H580 H 0.41213 0.59203 0.32518 0.0
H581 H 0.465 0.60514 0.35559 0.0
loop_
_geom_bond_atom_site_label_1
_geom_bond_atom_site_label_2
_geom_bond_distance
_geom_bond_site_symmetry_2
_ccdc_geom_bond_type
O0 Mn1 2.163 . S
O0 C14 1.244 1_455 S
Mn1 O0 2.163 . S
Mn1 O4 2.160 1_545 S
Mn1 O5 2.221 . S
Mn1 O7 2.163 . S
Mn1 O9 2.160 1_554 S
Mn1 O19 2.221 1_444 S
O2 Mn3 2.087 . S
O2 C14 1.256 1_556 S
Mn3 O2 2.087 . S
Mn3 O10 2.089 . S
Mn3 O19 2.290 1_545 S
Mn3 O20 2.251 1_546 S
O4 Mn1 2.160 1_565 S
O4 C15 1.248 . S
O5 Mn1 2.221 . S
O5 Mn6 2.290 . S
O5 C16 1.278 . S
Mn6 O5 2.290 . S
Mn6 O8 2.089 1_545 S
Mn6 O11 2.251 . S
Mn6 O12 2.087 . S
O7 Mn1 2.163 . S
O7 C17 1.244 . S
O8 Mn6 2.089 1_565 S
O8 C15 1.256 . S
O9 Mn1 2.160 1_556 S
O9 C18 1.239 . S
O10 Mn3 2.089 . S
O10 C18 1.256 1_655 S
O11 Mn6 2.251 . S
O11 C16 1.241 . S
O12 Mn6 2.087 . S
O12 C17 1.256 . S
C13 O19 1.278 1_554 S
C13 O20 1.241 . S
C14 O0 1.244 1_655 S
C14 O2 1.256 1_554 S
C15 O4 1.248 . S
C15 O8 1.256 . S
C16 O5 1.278 . S
C16 O11 1.241 . S
C17 O7 1.244 . S
C17 O12 1.256 . S
C18 O9 1.239 . S
C18 O10 1.256 1_455 S
O19 Mn1 2.221 1_666 S
O19 Mn3 2.290 1_565 S
O19 C13 1.278 1_556 S
O20 Mn3 2.251 1_564 S
O20 C13 1.241 . S
O21 Mn22 2.163 . S
O21 C35 1.244 . S
Mn22 O21 2.163 . S
Mn22 O25 2.160 . S
Mn22 O26 2.221 . S
Mn22 O28 2.163 . S
Mn22 O30 2.160 . S
Mn22 O40 2.221 . S
O23 Mn24 2.087 . S
O23 C35 1.256 . S
Mn24 O23 2.087 . S
Mn24 O31 2.089 . S
Mn24 O40 2.290 . S
Mn24 O41 2.251 . S
O25 Mn22 2.160 . S
O25 C36 1.239 . S
O26 Mn22 2.221 . S
O26 Mn27 2.290 . S
O26 C37 1.278 . S
Mn27 O26 2.290 . S
Mn27 O29 2.089 . S
Mn27 O32 2.251 . S
Mn27 O33 2.087 . S
O28 Mn22 2.163 . S
O28 C38 1.244 . S
O29 Mn27 2.089 . S
O29 C36 1.256 . S
O30 Mn22 2.160 . S
O30 C39 1.239 . S
O31 Mn24 2.089 . S
O31 C39 1.256 . S
O32 Mn27 2.251 . S
O32 C37 1.241 . S
O33 Mn27 2.087 . S
O33 C38 1.256 . S
C34 O40 1.278 . S
C34 O41 1.241 . S
C35 O21 1.244 . S
C35 O23 1.256 . S
C36 O25 1.239 . S
C36 O29 1.256 . S
C37 O26 1.278 . S
C37 O32 1.241 . S
C38 O28 1.244 . S
C38 O33 1.256 . S
C39 O30 1.239 . S
C39 O31 1.256 . S
O40 Mn22 2.221 . S
O40 Mn24 2.290 . S
O40 C34 1.278 . S
O41 Mn24 2.251 . S
O41 C34 1.241 . S
C42 C43 1.386 . S
C42 C44 1.397 . S
C42 H66 0.931 . S
C43 C42 1.386 . S
C43 C47 1.397 1_565 S
C44 C42 1.397 . S
C44 C45 1.384 . S
C44 H67 0.930 . S
C45 C44 1.384 . S
C45 C46 1.377 1_565 S
C45 C48 1.481 . S
C46 C45 1.377 1_545 S
C46 C47 1.389 . S
C46 H68 0.929 . S
C47 C43 1.397 1_545 S
C47 C46 1.389 . S
C47 H69 0.931 . S
C48 C45 1.481 . S
C48 C49 1.387 . S
C48 C53 1.390 1_565 S
C49 C48 1.387 . S
C49 C50 1.401 . S
C49 H70 0.930 . S
C50 C49 1.401 . S
C50 C51 1.376 1_565 S
C50 C59 1.511 . S
C51 C50 1.376 1_545 S
C51 C52 1.392 . S
C51 H72 0.931 . S
C52 C51 1.392 . S
C52 C53 1.361 . S
C52 C54 1.500 1_455 S
C53 C48 1.390 1_545 S
C53 C52 1.361 . S
C53 H71 0.931 1_455 S
C54 C52 1.500 1_655 S
C54 C55 1.371 . S
C54 C56 1.365 . S
C55 C54 1.371 . S
C55 C65 1.386 . S
C55 H73 0.931 . S
C56 C54 1.365 . S
C56 C57 1.409 . S
C56 H74 0.929 . S
C57 C56 1.409 . S
C57 C58 1.380 . S
C57 H75 0.930 . S
C58 C57 1.380 . S
C58 C65 1.357 . S
C59 C50 1.511 . S
C59 C60 1.341 . S
C59 C61 1.371 . S
C60 C59 1.341 . S
C60 C64 1.394 . S
C60 H76 0.930 . S
C61 C59 1.371 . S
C61 C62 1.392 . S
C61 H77 0.931 . S
C62 C61 1.392 . S
C62 C63 1.331 . S
C62 H80 0.932 . S
C63 C62 1.331 . S
C63 C64 1.336 . S
C64 C60 1.394 . S
C64 C63 1.336 . S
C64 H79 0.929 . S
C65 C55 1.386 . S
C65 C58 1.357 . S
C65 H78 0.928 . S
H66 C42 0.931 . S
H67 C44 0.930 . S
H68 C46 0.929 . S
H69 C47 0.931 . S
H70 C49 0.930 . S
H71 C53 0.931 1_655 S
H72 C51 0.931 . S
H73 C55 0.931 . S
H74 C56 0.929 . S
H75 C57 0.930 . S
H76 C60 0.930 . S
H77 C61 0.931 . S
H78 C65 0.928 . S
H79 C64 0.929 . S
H80 C62 0.932 . S
C81 C82 1.386 . S
C81 C83 1.397 . S
C81 H105 0.931 . S
C82 C81 1.386 . S
C82 C86 1.397 . S
C83 C81 1.397 . S
C83 C84 1.384 . S
C83 H106 0.930 . S
C84 C83 1.384 . S
C84 C85 1.377 . S
C84 C87 1.481 . S
C85 C84 1.377 . S
C85 C86 1.389 . S
C85 H107 0.929 . S
C86 C82 1.397 . S
C86 C85 1.389 . S
C86 H108 0.931 . S
C87 C84 1.481 . S
C87 C88 1.387 . S
C87 C92 1.390 1_455 S
C88 C87 1.387 . S
C88 C89 1.401 . S
C88 H109 0.930 . S
C89 C88 1.401 . S
C89 C90 1.376 1_455 S
C89 C98 1.511 . S
C90 C89 1.376 1_655 S
C90 C91 1.392 . S
C90 H111 0.931 . S
C91 C90 1.392 . S
C91 C92 1.361 . S
C91 C93 1.500 . S
C92 C87 1.390 1_655 S
C92 C91 1.361 . S
C92 H110 0.931 . S
C93 C91 1.500 . S
C93 C94 1.371 . S
C93 C95 1.365 1_545 S
C94 C93 1.371 . S
C94 C104 1.386 1_545 S
C94 H112 0.931 . S
C95 C93 1.365 1_565 S
C95 C96 1.409 . S
C95 H113 0.929 . S
C96 C95 1.409 . S
C96 C97 1.380 . S
C96 H114 0.930 . S
C97 C96 1.380 . S
C97 C104 1.357 . S
C98 C89 1.511 . S
C98 C99 1.341 . S
C98 C100 1.371 . S
C99 C98 1.341 . S
C99 C103 1.394 . S
C99 H115 0.930 . S
C100 C98 1.371 . S
C100 C101 1.392 . S
C100 H116 0.931 . S
C101 C100 1.392 . S
C101 C102 1.331 . S
C101 H119 0.932 . S
C102 C101 1.331 . S
C102 C103 1.336 . S
C103 C99 1.394 . S
C103 C102 1.336 . S
C103 H118 0.929 . S
C104 C94 1.386 1_565 S
C104 C97 1.357 . S
C104 H117 0.928 . S
H105 C81 0.931 . S
H106 C83 0.930 . S
H107 C85 0.929 . S
H108 C86 0.931 . S
H109 C88 0.930 . S
H110 C92 0.931 . S
H111 C90 0.931 . S
H112 C94 0.931 . S
H113 C95 0.929 . S
H114 C96 0.930 . S
H115 C99 0.930 . S
H116 C100 0.931 . S
H117 C104 0.928 . S
H118 C103 0.929 . S
H119 C101 0.932 . S
C120 C121 1.386 . S
C120 C122 1.397 . S
C120 H144 0.931 . S
C121 C120 1.386 . S
C121 C125 1.397 . S
C122 C120 1.397 . S
C122 C123 1.384 . S
C122 H145 0.930 . S
C123 C122 1.384 . S
C123 C124 1.377 . S
C123 C126 1.481 . S
C124 C123 1.377 . S
C124 C125 1.389 . S
C124 H146 0.929 . S
C125 C121 1.397 . S
C125 C124 1.389 . S
C125 H147 0.931 . S
C126 C123 1.481 . S
C126 C127 1.387 . S
C126 C131 1.390 . S
C127 C126 1.387 . S
C127 C128 1.401 . S
C127 H148 0.930 . S
C128 C127 1.401 . S
C128 C129 1.376 . S
C128 C137 1.511 . S
C129 C128 1.376 . S
C129 C130 1.392 . S
C129 H150 0.931 . S
C130 C129 1.392 . S
C130 C131 1.361 . S
C130 C132 1.500 . S
C131 C126 1.390 . S
C131 C130 1.361 . S
C131 H149 0.931 . S
C132 C130 1.500 . S
C132 C133 1.371 . S
C132 C134 1.365 . S
C133 C132 1.371 . S
C133 C143 1.386 . S
C133 H151 0.931 . S
C134 C132 1.365 . S
C134 C135 1.409 . S
C134 H152 0.929 . S
C135 C134 1.409 . S
C135 C136 1.380 . S
C135 H153 0.930 . S
C136 C135 1.380 . S
C136 C143 1.357 . S
C137 C128 1.511 . S
C137 C138 1.341 . S
C137 C139 1.371 . S
C138 C137 1.341 . S
C138 C142 1.394 . S
C138 H154 0.930 . S
C139 C137 1.371 . S
C139 C140 1.392 . S
C139 H155 0.931 . S
C140 C139 1.392 . S
C140 C141 1.331 . S
C140 H158 0.932 1_556 S
C141 C140 1.331 . S
C141 C142 1.336 . S
C142 C138 1.394 . S
C142 C141 1.336 . S
C142 H157 0.929 . S
C143 C133 1.386 . S
C143 C136 1.357 . S
C143 H156 0.928 1_556 S
H144 C120 0.931 . S
H145 C122 0.930 . S
H146 C124 0.929 . S
H147 C125 0.931 . S
H148 C127 0.930 . S
H149 C131 0.931 . S
H150 C129 0.931 . S
H151 C133 0.931 . S
H152 C134 0.929 . S
H153 C135 0.930 . S
H154 C138 0.930 . S
H155 C139 0.931 . S
H156 C143 0.928 1_554 S
H157 C142 0.929 . S
H158 C140 0.932 1_554 S
C159 C160 1.386 . S
C159 C161 1.397 . S
C159 H183 0.931 . S
C160 C159 1.386 . S
C160 C164 1.397 . S
C161 C159 1.397 . S
C161 C162 1.384 . S
C161 H184 0.930 . S
C162 C161 1.384 . S
C162 C163 1.377 . S
C162 C165 1.481 . S
C163 C162 1.377 . S
C163 C164 1.389 . S
C163 H185 0.929 . S
C164 C160 1.397 . S
C164 C163 1.389 . S
C164 H186 0.931 . S
C165 C162 1.481 . S
C165 C166 1.387 . S
C165 C170 1.390 . S
C166 C165 1.387 . S
C166 C167 1.401 . S
C166 H187 0.930 . S
C167 C166 1.401 . S
C167 C168 1.376 . S
C167 C176 1.511 . S
C168 C167 1.376 . S
C168 C169 1.392 . S
C168 H189 0.931 . S
C169 C168 1.392 . S
C169 C170 1.361 . S
C169 C171 1.500 . S
C170 C165 1.390 . S
C170 C169 1.361 . S
C170 H188 0.931 . S
C171 C169 1.500 . S
C171 C172 1.371 . S
C171 C173 1.365 . S
C172 C171 1.371 . S
C172 C182 1.386 . S
C172 H190 0.931 . S
C173 C171 1.365 . S
C173 C174 1.409 . S
C173 H191 0.929 . S
C174 C173 1.409 . S
C174 C175 1.380 . S
C174 H192 0.930 . S
C175 C174 1.380 . S
C175 C182 1.357 . S
C176 C167 1.511 . S
C176 C177 1.341 . S
C176 C178 1.371 . S
C177 C176 1.341 . S
C177 C181 1.394 . S
C177 H193 0.930 . S
C178 C176 1.371 . S
C178 C179 1.392 . S
C178 H194 0.931 . S
C179 C178 1.392 . S
C179 C180 1.331 . S
C179 H197 0.932 . S
C180 C179 1.331 . S
C180 C181 1.336 . S
C181 C177 1.394 . S
C181 C180 1.336 . S
C181 H196 0.929 . S
C182 C172 1.386 . S
C182 C175 1.357 . S
C182 H195 0.928 . S
H183 C159 0.931 . S
H184 C161 0.930 . S
H185 C163 0.929 . S
H186 C164 0.931 . S
H187 C166 0.930 . S
H188 C170 0.931 . S
H189 C168 0.931 . S
H190 C172 0.931 . S
H191 C173 0.929 . S
H192 C174 0.930 . S
H193 C177 0.930 . S
H194 C178 0.931 . S
H195 C182 0.928 . S
H196 C181 0.929 . S
H197 C179 0.932 . S
C198 C199 1.391 1_556 S
C198 C200 1.394 . S
C198 H214 0.931 . S
C199 C198 1.391 1_554 S
C199 C203 1.376 . S
C200 C198 1.394 . S
C200 C201 1.369 1_556 S
C200 C204 1.531 . S
C201 C200 1.369 1_554 S
C201 C202 1.410 . S
C201 C209 1.503 . S
C202 C201 1.410 . S
C202 C203 1.392 . S
C202 C205 1.511 . S
C203 C199 1.376 . S
C203 C202 1.392 . S
C203 H215 0.929 . S
C204 C200 1.531 . S
C204 H216 0.960 . S
C204 H217 0.962 . S
C204 H218 0.960 . S
C205 C202 1.511 . S
C205 H219 0.961 . S
C205 H220 0.961 . S
C205 H221 0.961 . S
C206 C207 1.370 . S
C206 C208 1.363 . S
C206 H222 0.931 . S
C207 C206 1.370 . S
C207 C211 1.408 . S
C208 C206 1.363 . S
C208 C209 1.370 . S
C208 C212 1.524 . S
C209 C201 1.503 . S
C209 C208 1.370 . S
C209 C210 1.403 . S
C210 C209 1.403 . S
C210 C211 1.404 . S
C210 C213 1.539 1_554 S
C211 C207 1.408 . S
C211 C210 1.404 . S
C211 H223 0.930 . S
C212 C208 1.524 . S
C212 H224 0.956 . S
C212 H225 0.961 . S
C212 H226 0.961 . S
C213 C210 1.539 1_556 S
C213 H227 0.958 . S
C213 H228 0.961 1_556 S
C213 H229 0.960 1_556 S
H214 C198 0.931 . S
H215 C203 0.929 . S
H216 C204 0.960 . S
H217 C204 0.962 . S
H218 C204 0.960 . S
H219 C205 0.961 . S
H220 C205 0.961 . S
H221 C205 0.961 . S
H222 C206 0.931 . S
H223 C211 0.930 . S
H224 C212 0.956 . S
H225 C212 0.961 . S
H226 C212 0.961 . S
H227 C213 0.958 . S
H228 C213 0.961 1_554 S
H229 C213 0.960 1_554 S
C230 C231 1.391 . S
C230 C232 1.394 . S
C230 H246 0.931 . S
C231 C230 1.391 . S
C231 C235 1.376 1_554 S
C232 C230 1.394 . S
C232 C233 1.369 . S
C232 C236 1.531 . S
C233 C232 1.369 . S
C233 C234 1.410 1_554 S
C233 C241 1.503 . S
C234 C233 1.410 1_556 S
C234 C235 1.392 . S
C234 C237 1.511 . S
C235 C231 1.376 1_556 S
C235 C234 1.392 . S
C235 H247 0.929 . S
C236 C232 1.531 . S
C236 H248 0.960 . S
C236 H249 0.962 . S
C236 H250 0.960 . S
C237 C234 1.511 . S
C237 H251 0.961 . S
C237 H252 0.961 . S
C237 H253 0.961 . S
C238 C239 1.370 . S
C238 C240 1.363 . S
C238 H254 0.931 . S
C239 C238 1.370 . S
C239 C243 1.408 1_556 S
C240 C238 1.363 . S
C240 C241 1.370 1_556 S
C240 C244 1.524 . S
C241 C233 1.503 . S
C241 C240 1.370 1_554 S
C241 C242 1.403 . S
C242 C241 1.403 . S
C242 C243 1.404 . S
C242 C245 1.539 . S
C243 C239 1.408 1_554 S
C243 C242 1.404 . S
C243 H255 0.930 . S
C244 C240 1.524 . S
C244 H256 0.956 . S
C244 H257 0.961 . S
C244 H258 0.961 . S
C245 C242 1.539 . S
C245 H259 0.958 . S
C245 H260 0.961 . S
C245 H261 0.960 . S
H246 C230 0.931 . S
H247 C235 0.929 . S
H248 C236 0.960 . S
H249 C236 0.962 . S
H250 C236 0.960 . S
H251 C237 0.961 . S
H252 C237 0.961 . S
H253 C237 0.961 . S
H254 C238 0.931 . S
H255 C243 0.930 . S
H256 C244 0.956 . S
H257 C244 0.961 . S
H258 C244 0.961 . S
H259 C245 0.958 . S
H260 C245 0.961 . S
H261 C245 0.960 . S
C262 C263 1.391 . S
C262 C264 1.394 . S
C262 H278 0.931 . S
C263 C262 1.391 . S
C263 C267 1.388 . S
C264 C262 1.394 . S
C264 C265 1.369 . S
C264 C268 1.531 . S
C265 C264 1.369 . S
C265 C266 1.410 . S
C265 C273 1.503 . S
C266 C265 1.410 . S
C266 C267 1.396 . S
C266 C269 1.511 1_554 S
C267 C263 1.388 . S
C267 C266 1.396 . S
C267 H279 0.913 1_554 S
C268 C264 1.531 . S
C268 H280 0.960 . S
C268 H281 0.962 . S
C268 H282 0.960 . S
C269 C266 1.511 1_556 S
C269 H283 0.961 . S
C269 H284 0.961 . S
C269 H285 0.961 . S
C270 C271 1.370 . S
C270 C272 1.363 . S
C270 H286 0.931 . S
C271 C270 1.370 . S
C271 C275 1.408 . S
C272 C270 1.363 . S
C272 C273 1.370 . S
C272 C276 1.524 . S
C273 C265 1.503 . S
C273 C272 1.370 . S
C273 C274 1.403 . S
C274 C273 1.403 . S
C274 C275 1.404 . S
C274 C277 1.539 . S
C275 C271 1.408 . S
C275 C274 1.404 . S
C275 H287 0.930 . S
C276 C272 1.524 . S
C276 H288 0.956 . S
C276 H289 0.961 1_554 S
C276 H290 0.961 1_554 S
C277 C274 1.539 . S
C277 H291 0.958 . S
C277 H292 0.961 . S
C277 H293 0.960 . S
H278 C262 0.931 . S
H279 C267 0.913 1_556 S
H280 C268 0.960 . S
H281 C268 0.962 . S
H282 C268 0.960 . S
H283 C269 0.961 . S
H284 C269 0.961 . S
H285 C269 0.961 . S
H286 C270 0.931 . S
H287 C275 0.930 . S
H288 C276 0.956 . S
H289 C276 0.961 1_556 S
H290 C276 0.961 1_556 S
H291 C277 0.958 . S
H292 C277 0.961 . S
H293 C277 0.960 . S
C294 C295 1.391 . S
C294 C296 1.394 . S
C294 H310 0.931 . S
C295 C294 1.391 . S
C295 C299 1.376 1_554 S
C296 C294 1.394 . S
C296 C297 1.353 1_554 S
C296 C300 1.531 . S
C297 C296 1.353 1_556 S
C297 C298 1.422 . S
C297 C305 1.507 . S
C298 C297 1.422 . S
C298 C299 1.392 . S
C298 C301 1.511 . S
C299 C295 1.376 1_556 S
C299 C298 1.392 . S
C299 H311 0.929 . S
C300 C296 1.531 . S
C300 H312 0.960 . S
C300 H313 0.962 . S
C300 H314 0.960 . S
C301 C298 1.511 . S
C301 H315 0.961 . S
C301 H316 0.961 . S
C301 H317 0.961 . S
C302 C303 1.370 . S
C302 C304 1.363 . S
C302 H318 0.931 . S
C303 C302 1.370 . S
C303 C307 1.408 . S
C304 C302 1.363 . S
C304 C305 1.370 . S
C304 C308 1.524 . S
C305 C297 1.507 . S
C305 C304 1.370 . S
C305 C306 1.403 . S
C306 C305 1.403 . S
C306 C307 1.409 . S
C306 C309 1.536 1_556 S
C307 C303 1.408 . S
C307 C306 1.409 . S
C307 H319 0.930 . S
C308 C304 1.524 . S
C308 H320 0.951 1_556 S
C308 H321 0.961 . S
C308 H322 0.961 . S
C309 C306 1.536 1_554 S
C309 H323 0.958 . S
C309 H324 0.961 1_554 S
C309 H325 0.952 1_554 S
H310 C294 0.931 . S
H311 C299 0.929 . S
H312 C300 0.960 . S
H313 C300 0.962 . S
H314 C300 0.960 . S
H315 C301 0.961 . S
H316 C301 0.961 . S
H317 C301 0.961 . S
H318 C302 0.931 . S
H319 C307 0.930 . S
H320 C308 0.951 1_554 S
H321 C308 0.961 . S
H322 C308 0.961 . S
H323 C309 0.958 . S
H324 C309 0.961 1_556 S
H325 C309 0.952 1_556 S
C326 C327 1.391 . S
C326 C328 1.394 . S
C326 H342 0.931 . S
C327 C326 1.391 . S
C327 C331 1.376 . S
C328 C326 1.394 . S
C328 C329 1.369 . S
C328 C332 1.531 . S
C329 C328 1.369 . S
C329 C330 1.410 . S
C329 C337 1.503 . S
C330 C329 1.410 . S
C330 C331 1.392 . S
C330 C333 1.511 . S
C331 C327 1.376 . S
C331 C330 1.392 . S
C331 H343 0.929 . S
C332 C328 1.531 . S
C332 H344 0.960 . S
C332 H345 0.962 . S
C332 H346 0.960 . S
C333 C330 1.511 . S
C333 H347 0.961 . S
C333 H348 0.961 . S
C333 H349 0.961 . S
C334 C335 1.370 . S
C334 C336 1.363 . S
C334 H350 0.931 . S
C335 C334 1.370 . S
C335 C339 1.408 . S
C336 C334 1.363 . S
C336 C337 1.370 . S
C336 C340 1.524 . S
C337 C329 1.503 . S
C337 C336 1.370 . S
C337 C338 1.403 . S
C338 C337 1.403 . S
C338 C339 1.404 . S
C338 C341 1.539 . S
C339 C335 1.408 . S
C339 C338 1.404 . S
C339 H351 0.930 . S
C340 C336 1.524 . S
C340 H352 0.956 . S
C340 H353 0.961 . S
C340 H354 0.961 . S
C341 C338 1.539 . S
C341 H355 0.958 . S
C341 H356 0.961 . S
C341 H357 0.960 . S
H342 C326 0.931 . S
H343 C331 0.929 . S
H344 C332 0.960 . S
H345 C332 0.962 . S
H346 C332 0.960 . S
H347 C333 0.961 . S
H348 C333 0.961 . S
H349 C333 0.961 . S
H350 C334 0.931 . S
H351 C339 0.930 . S
H352 C340 0.956 . S
H353 C340 0.961 . S
H354 C340 0.961 . S
H355 C341 0.958 . S
H356 C341 0.961 . S
H357 C341 0.960 . S
C358 C359 1.391 . S
C358 C360 1.394 . S
C358 H374 0.931 . S
C359 C358 1.391 . S
C359 C363 1.376 . S
C360 C358 1.394 . S
C360 C361 1.369 . S
C360 C364 1.531 . S
C361 C360 1.369 . S
C361 C362 1.410 . S
C361 C369 1.503 . S
C362 C361 1.410 . S
C362 C363 1.392 . S
C362 C365 1.511 . S
C363 C359 1.376 . S
C363 C362 1.392 . S
C363 H375 0.929 . S
C364 C360 1.531 . S
C364 H376 0.960 . S
C364 H377 0.962 . S
C364 H378 0.960 . S
C365 C362 1.511 . S
C365 H379 0.961 . S
C365 H380 0.961 . S
C365 H381 0.961 . S
C366 C367 1.370 . S
C366 C368 1.363 . S
C366 H382 0.931 . S
C367 C366 1.370 . S
C367 C371 1.408 . S
C368 C366 1.363 . S
C368 C369 1.370 . S
C368 C372 1.524 . S
C369 C361 1.503 . S
C369 C368 1.370 . S
C369 C370 1.403 . S
C370 C369 1.403 . S
C370 C371 1.404 . S
C370 C373 1.539 . S
C371 C367 1.408 . S
C371 C370 1.404 . S
C371 H383 0.930 . S
C372 C368 1.524 . S
C372 H384 0.956 . S
C372 H385 0.961 . S
C372 H386 0.961 . S
C373 C370 1.539 . S
C373 H387 0.958 . S
C373 H388 0.961 . S
C373 H389 0.960 . S
H374 C358 0.931 . S
H375 C363 0.929 . S
H376 C364 0.960 . S
H377 C364 0.962 . S
H378 C364 0.960 . S
H379 C365 0.961 . S
H380 C365 0.961 . S
H381 C365 0.961 . S
H382 C366 0.931 . S
H383 C371 0.930 . S
H384 C372 0.956 . S
H385 C372 0.961 . S
H386 C372 0.961 . S
H387 C373 0.958 . S
H388 C373 0.961 . S
H389 C373 0.960 . S
C390 C391 1.391 . S
C390 C392 1.394 . S
C390 H406 0.931 . S
C391 C390 1.391 . S
C391 C395 1.376 . S
C392 C390 1.394 . S
C392 C393 1.369 . S
C392 C396 1.531 . S
C393 C392 1.369 . S
C393 C394 1.410 . S
C393 C401 1.503 . S
C394 C393 1.410 . S
C394 C395 1.392 . S
C394 C397 1.511 . S
C395 C391 1.376 . S
C395 C394 1.392 . S
C395 H407 0.929 . S
C396 C392 1.531 . S
C396 H408 0.960 . S
C396 H409 0.962 . S
C396 H410 0.960 . S
C397 C394 1.511 . S
C397 H411 0.961 . S
C397 H412 0.961 . S
C397 H413 0.961 . S
C398 C399 1.370 . S
C398 C400 1.363 . S
C398 H414 0.931 . S
C399 C398 1.370 . S
C399 C403 1.408 . S
C400 C398 1.363 . S
C400 C401 1.370 . S
C400 C404 1.524 . S
C401 C393 1.503 . S
C401 C400 1.370 . S
C401 C402 1.403 . S
C402 C401 1.403 . S
C402 C403 1.404 . S
C402 C405 1.539 . S
C403 C399 1.408 . S
C403 C402 1.404 . S
C403 H415 0.930 . S
C404 C400 1.524 . S
C404 H416 0.956 . S
C404 H417 0.961 . S
C404 H418 0.961 . S
C405 C402 1.539 . S
C405 H419 0.958 . S
C405 H420 0.961 . S
C405 H421 0.960 . S
H406 C390 0.931 . S
H407 C395 0.929 . S
H408 C396 0.960 . S
H409 C396 0.962 . S
H410 C396 0.960 . S
H411 C397 0.961 . S
H412 C397 0.961 . S
H413 C397 0.961 . S
H414 C398 0.931 . S
H415 C403 0.930 . S
H416 C404 0.956 . S
H417 C404 0.961 . S
H418 C404 0.961 . S
H419 C405 0.958 . S
H420 C405 0.961 . S
H421 C405 0.960 . S
C422 C423 1.391 . S
C422 C424 1.394 . S
C422 H438 0.931 . S
C423 C422 1.391 . S
C423 C427 1.376 . S
C424 C422 1.394 . S
C424 C425 1.369 . S
C424 C428 1.531 . S
C425 C424 1.369 . S
C425 C426 1.410 . S
C425 C433 1.503 . S
C426 C425 1.410 . S
C426 C427 1.392 . S
C426 C429 1.511 . S
C427 C423 1.376 . S
C427 C426 1.392 . S
C427 H439 0.929 . S
C428 C424 1.531 . S
C428 H440 0.960 . S
C428 H441 0.962 . S
C428 H442 0.960 . S
C429 C426 1.511 . S
C429 H443 0.961 . S
C429 H444 0.961 . S
C429 H445 0.961 . S
C430 C431 1.370 . S
C430 C432 1.363 . S
C430 H446 0.931 . S
C431 C430 1.370 . S
C431 C435 1.408 . S
C432 C430 1.363 . S
C432 C433 1.370 . S
C432 C436 1.524 . S
C433 C425 1.503 . S
C433 C432 1.370 . S
C433 C434 1.403 . S
C434 C433 1.403 . S
C434 C435 1.404 . S
C434 C437 1.539 . S
C435 C431 1.408 . S
C435 C434 1.404 . S
C435 H447 0.930 . S
C436 C432 1.524 . S
C436 H448 0.956 . S
C436 H449 0.961 . S
C436 H450 0.961 . S
C437 C434 1.539 . S
C437 H451 0.958 . S
C437 H452 0.961 . S
C437 H453 0.960 . S
H438 C422 0.931 . S
H439 C427 0.929 . S
H440 C428 0.960 . S
H441 C428 0.962 . S
H442 C428 0.960 . S
H443 C429 0.961 . S
H444 C429 0.961 . S
H445 C429 0.961 . S
H446 C430 0.931 . S
H447 C435 0.930 . S
H448 C436 0.956 . S
H449 C436 0.961 . S
H450 C436 0.961 . S
H451 C437 0.958 . S
H452 C437 0.961 . S
H453 C437 0.960 . S
C454 C455 1.391 1_565 S
C454 C456 1.394 . S
C454 H470 0.931 1_455 S
C455 C454 1.391 1_545 S
C455 C459 1.376 . S
C456 C454 1.394 . S
C456 C457 1.369 . S
C456 C460 1.531 1_455 S
C457 C456 1.369 . S
C457 C458 1.410 1_565 S
C457 C465 1.503 . S
C458 C457 1.410 1_545 S
C458 C459 1.392 . S
C458 C461 1.511 . S
C459 C455 1.376 . S
C459 C458 1.392 . S
C459 H471 0.929 . S
C460 C456 1.531 1_655 S
C460 H472 0.960 . S
C460 H473 0.962 . S
C460 H474 0.960 . S
C461 C458 1.511 . S
C461 H475 0.961 . S
C461 H476 0.961 . S
C461 H477 0.961 . S
C462 C463 1.370 1_545 S
C462 C464 1.363 . S
C462 H478 0.931 . S
C463 C462 1.370 1_565 S
C463 C467 1.408 . S
C464 C462 1.363 . S
C464 C465 1.370 1_545 S
C464 C468 1.524 . S
C465 C457 1.503 . S
C465 C464 1.370 1_565 S
C465 C466 1.403 . S
C466 C465 1.403 . S
C466 C467 1.404 . S
C466 C469 1.539 . S
C467 C463 1.408 . S
C467 C466 1.404 . S
C467 H479 0.930 . S
C468 C464 1.524 . S
C468 H480 0.956 1_455 S
C468 H481 0.961 . S
C468 H482 0.961 1_455 S
C469 C466 1.539 . S
C469 H483 0.958 . S
C469 H484 0.961 . S
C469 H485 0.960 . S
H470 C454 0.931 1_655 S
H471 C459 0.929 . S
H472 C460 0.960 . S
H473 C460 0.962 . S
H474 C460 0.960 . S
H475 C461 0.961 . S
H476 C461 0.961 . S
H477 C461 0.961 . S
H478 C462 0.931 . S
H479 C467 0.930 . S
H480 C468 0.956 1_655 S
H481 C468 0.961 . S
H482 C468 0.961 1_655 S
H483 C469 0.958 . S
H484 C469 0.961 . S
H485 C469 0.960 . S
C486 C487 1.391 1_655 S
C486 C488 1.394 . S
C486 H502 0.931 . S
C487 C486 1.391 1_455 S
C487 C491 1.376 . S
C488 C486 1.394 . S
C488 C489 1.369 1_655 S
C488 C492 1.531 . S
C489 C488 1.369 1_455 S
C489 C490 1.410 . S
C489 C497 1.503 . S
C490 C489 1.410 . S
C490 C491 1.392 . S
C490 C493 1.511 . S
C491 C487 1.376 . S
C491 C490 1.392 . S
C491 H503 0.929 . S
C492 C488 1.531 . S
C492 H504 0.960 . S
C492 H505 0.962 . S
C492 H506 0.960 . S
C493 C490 1.511 . S
C493 H507 0.961 . S
C493 H508 0.961 . S
C493 H509 0.961 . S
C494 C495 1.370 . S
C494 C496 1.363 . S
C494 H510 0.931 . S
C495 C494 1.370 . S
C495 C499 1.408 1_455 S
C496 C494 1.363 . S
C496 C497 1.370 . S
C496 C500 1.524 1_545 S
C497 C489 1.503 . S
C497 C496 1.370 . S
C497 C498 1.403 1_455 S
C498 C497 1.403 1_655 S
C498 C499 1.404 . S
C498 C501 1.539 . S
C499 C495 1.408 1_655 S
C499 C498 1.404 . S
C499 H511 0.930 . S
C500 C496 1.524 1_565 S
C500 H512 0.956 . S
C500 H513 0.961 . S
C500 H514 0.961 . S
C501 C498 1.539 . S
C501 H515 0.958 . S
C501 H516 0.961 . S
C501 H517 0.960 1_655 S
H502 C486 0.931 . S
H503 C491 0.929 . S
H504 C492 0.960 . S
H505 C492 0.962 . S
H506 C492 0.960 . S
H507 C493 0.961 . S
H508 C493 0.961 . S
H509 C493 0.961 . S
H510 C494 0.931 . S
H511 C499 0.930 . S
H512 C500 0.956 . S
H513 C500 0.961 . S
H514 C500 0.961 . S
H515 C501 0.958 . S
H516 C501 0.961 . S
H517 C501 0.960 1_455 S
C518 C519 1.391 . S
C518 C520 1.394 . S
C518 H534 0.931 . S
C519 C518 1.391 . S
C519 C523 1.376 . S
C520 C518 1.394 . S
C520 C521 1.369 . S
C520 C524 1.531 . S
C521 C520 1.369 . S
C521 C522 1.410 . S
C521 C529 1.503 . S
C522 C521 1.410 . S
C522 C523 1.392 . S
C522 C525 1.511 . S
C523 C519 1.376 . S
C523 C522 1.392 . S
C523 H535 0.929 . S
C524 C520 1.531 . S
C524 H536 0.960 . S
C524 H537 0.962 . S
C524 H538 0.960 . S
C525 C522 1.511 . S
C525 H539 0.961 . S
C525 H540 0.961 . S
C525 H541 0.961 . S
C526 C527 1.370 . S
C526 C528 1.363 . S
C526 H542 0.931 . S
C527 C526 1.370 . S
C527 C531 1.408 . S
C528 C526 1.363 . S
C528 C529 1.370 . S
C528 C532 1.524 . S
C529 C521 1.503 . S
C529 C528 1.370 . S
C529 C530 1.403 . S
C530 C529 1.403 . S
C530 C531 1.404 . S
C530 C533 1.539 . S
C531 C527 1.408 . S
C531 C530 1.404 . S
C531 H543 0.930 . S
C532 C528 1.524 . S
C532 H544 0.956 . S
C532 H545 0.961 . S
C532 H546 0.961 . S
C533 C530 1.539 . S
C533 H547 0.958 . S
C533 H548 0.961 . S
C533 H549 0.960 . S
H534 C518 0.931 . S
H535 C523 0.929 . S
H536 C524 0.960 . S
H537 C524 0.962 . S
H538 C524 0.960 . S
H539 C525 0.961 . S
H540 C525 0.961 . S
H541 C525 0.961 . S
H542 C526 0.931 . S
H543 C531 0.930 . S
H544 C532 0.956 . S
H545 C532 0.961 . S
H546 C532 0.961 . S
H547 C533 0.958 . S
H548 C533 0.961 . S
H549 C533 0.960 . S
C550 C551 1.391 . S
C550 C552 1.394 . S
C550 H566 0.931 . S
C551 C550 1.391 . S
C551 C555 1.376 . S
C552 C550 1.394 . S
C552 C553 1.369 . S
C552 C556 1.531 . S
C553 C552 1.369 . S
C553 C554 1.410 . S
C553 C561 1.503 . S
C554 C553 1.410 . S
C554 C555 1.392 . S
C554 C557 1.511 . S
C555 C551 1.376 . S
C555 C554 1.392 . S
C555 H567 0.929 . S
C556 C552 1.531 . S
C556 H568 0.960 . S
C556 H569 0.962 . S
C556 H570 0.960 . S
C557 C554 1.511 . S
C557 H571 0.961 . S
C557 H572 0.961 . S
C557 H573 0.961 . S
C558 C559 1.370 . S
C558 C560 1.363 . S
C558 H574 0.931 . S
C559 C558 1.370 . S
C559 C563 1.408 . S
C560 C558 1.363 . S
C560 C561 1.370 . S
C560 C564 1.524 . S
C561 C553 1.503 . S
C561 C560 1.370 . S
C561 C562 1.403 . S
C562 C561 1.403 . S
C562 C563 1.404 . S
C562 C565 1.539 . S
C563 C559 1.408 . S
C563 C562 1.404 . S
C563 H575 0.930 . S
C564 C560 1.524 . S
C564 H576 0.956 . S
C564 H577 0.961 . S
C564 H578 0.961 . S
C565 C562 1.539 . S
C565 H579 0.958 . S
C565 H580 0.961 . S
C565 H581 0.960 . S
H566 C550 0.931 . S
H567 C555 0.929 . S
H568 C556 0.960 . S
H569 C556 0.962 . S
H570 C556 0.960 . S
H571 C557 0.961 . S
H572 C557 0.961 . S
H573 C557 0.961 . S
H574 C558 0.931 . S
H575 C563 0.930 . S
H576 C564 0.956 . S
H577 C564 0.961 . S
H578 C564 0.961 . S
H579 C565 0.958 . S
H580 C565 0.961 . S
H581 C565 0.960 . S
C207 C175 1.474 . S
C199 C16 1.388 . S
C231 C15 1.536 . S
C239 C136 1.530 . S
C263 C13 1.270 . S
C271 C180 1.485 . S
C295 C14 1.374 . S
C303 C141 1.381 . S
C327 C37 1.331 . S
C335 C97 1.460 . S
C359 C36 1.545 . S
C367 C58 1.510 . S
C399 C102 1.480 . S
C391 C34 1.300 . S
C431 C63 1.385 . S
C423 C35 1.373 . S
C455 C17 1.515 . S
C463 C43 1.562 . S
C487 C18 1.369 . S
C495 C82 1.439 . S
C527 C121 1.562 . S
C519 C38 1.516 . S
C551 C39 1.346 . S
C559 C160 1.437 . S
