# Generated by pormake.
# Topology pts, (4,4)-cn, num edge types: 1
# Building blocks:
#     Node 0, Type 0, BuildingBlock: NAHDIM_clean_linker_0, # of connection points: 4
#     Node 1, Type 0, BuildingBlock: NAHDIM_clean_linker_0, # of connection points: 4
#     Node 2, Type 1, BuildingBlock: UXUYUI_clean_sbu_0, # of connection points: 4
#     Node 3, Type 1, BuildingBlock: UXUYUI_clean_sbu_0, # of connection points: 4
#     Edge 4, Type (0, 1), BuildingBlock: CIFDUS_clean_linker_0, # of connection points: 2
#     Edge 5, Type (0, 1), BuildingBlock: CIFDUS_clean_linker_0, # of connection points: 2
#     Edge 6, Type (0, 1), BuildingBlock: CIFDUS_clean_linker_0, # of connection points: 2
#     Edge 7, Type (0, 1), BuildingBlock: CIFDUS_clean_linker_0, # of connection points: 2
#     Edge 8, Type (0, 1), BuildingBlock: CIFDUS_clean_linker_0, # of connection points: 2
#     Edge 9, Type (0, 1), BuildingBlock: CIFDUS_clean_linker_0, # of connection points: 2
#     Edge 10, Type (0, 1), BuildingBlock: CIFDUS_clean_linker_0, # of connection points: 2
#     Edge 11, Type (0, 1), BuildingBlock: CIFDUS_clean_linker_0, # of connection points: 2
# Relax obj value: 0.021
# Max RMSD: 0.066
# Mean RMSD: 0.065
data_MOF--net-pts--node1-UXUYUI_clean_sbu_0--node2-NAHDIM_clean_linker_0--edge1-CIFDUS_clean_linker_0
_symmetry_space_group_name_H-M    P1
_symmetry_Int_Tables_number       1
_symmetry_cell_setting            triclinic
loop_
_symmetry_equiv_pos_as_xyz
'x, y, z'
_cell_length_a     35.220459
_cell_length_b     35.26021
_cell_length_c     57.306263
_cell_angle_alpha  90.4064
_cell_angle_beta   89.534754
_cell_angle_gamma 90.000801
loop_
_atom_site_label
_atom_site_type_symbol
_atom_site_fract_x
_atom_site_fract_y
_atom_site_fract_z
_atom_type_partial_charge
C0 C 0.69605 0.08303 0.13903 0.0
C1 C 0.71142 0.04571 0.12892 0.0
C2 C 0.68138 0.0367 0.09178 0.0
C3 C 0.67414 0.99833 0.08752 0.0
C4 C 0.64285 0.98714 0.0741 0.0
C5 C 0.61817 0.01512 0.06513 0.0
C6 C 0.62549 0.054 0.0696 0.0
C7 C 0.65751 0.06433 0.08258 0.0
C8 C 0.63614 0.9455 0.06951 0.0
C9 C 0.59935 0.08459 0.06085 0.0
C10 C 0.40911 0.90921 0.14783 0.0
C11 C 0.39628 0.94319 0.13345 0.0
C12 C 0.4259 0.94564 0.09526 0.0
C13 C 0.43353 0.98432 0.09247 0.0
C14 C 0.46319 0.99641 0.07781 0.0
C15 C 0.48591 0.9691 0.06601 0.0
C16 C 0.4778 0.92999 0.0686 0.0
C17 C 0.4473 0.91881 0.08289 0.0
C18 C 0.47051 0.03833 0.07514 0.0
C19 C 0.50181 0.90001 0.0567 0.0
C20 C 0.41523 0.95718 0.91582 0.0
C21 C 0.41878 0.99422 0.92462 0.0
C22 C 0.45175 0.00554 0.93637 0.0
C23 C 0.48155 0.97915 0.93943 0.0
C24 C 0.47848 0.94218 0.92985 0.0
C25 C 0.44543 0.93184 0.91789 0.0
C26 C 0.45468 0.04556 0.94568 0.0
C27 C 0.50985 0.91345 0.93262 0.0
C28 C 0.76344 0.09535 0.92633 0.0
C29 C 0.74748 0.06128 0.91297 0.0
C30 C 0.67889 0.05445 0.91611 0.0
C31 C 0.64852 0.07863 0.9212 0.0
C32 C 0.61599 0.0652 0.93277 0.0
C33 C 0.61364 0.02642 0.93883 0.0
C34 C 0.64343 0.00137 0.93247 0.0
C35 C 0.67585 0.0157 0.92119 0.0
C36 C 0.58455 0.09259 0.93905 0.0
C37 C 0.64125 0.95965 0.938 0.0
C38 C 0.58445 0.00374 0.05135 0.0
C39 C 0.55217 0.99159 0.06349 0.0
C40 C 0.51901 0.98144 0.05175 0.0
C41 C 0.51782 0.98346 0.02712 0.0
C42 C 0.48483 0.97393 0.01474 0.0
C43 C 0.4841 0.97564 0.9905 0.0
C44 C 0.51613 0.98762 0.97771 0.0
C45 C 0.51557 0.98987 0.95307 0.0
C46 C 0.54774 0.00231 0.94091 0.0
C47 C 0.58081 0.01251 0.95271 0.0
C48 C 0.58211 0.01006 0.97732 0.0
C49 C 0.61506 0.01977 0.98972 0.0
C50 C 0.61607 0.01727 0.01392 0.0
C51 C 0.58397 0.00557 0.02671 0.0
C52 C 0.55048 0.99551 0.01458 0.0
C53 C 0.54959 0.99768 0.98985 0.0
C54 C 0.33296 0.91496 0.9252 0.0
C55 C 0.34658 0.95092 0.91293 0.0
O56 O 0.71149 0.0473 0.10478 0.0
O57 O 0.71064 0.06927 0.90621 0.0
O58 O 0.38338 0.94534 0.90482 0.0
O59 O 0.39815 0.93365 0.10995 0.0
H60 H 0.6926 0.02219 0.13491 0.0
H61 H 0.66639 0.08754 0.13324 0.0
H62 H 0.71369 0.1073 0.13308 0.0
H63 H 0.696 0.0823 0.15841 0.0
H64 H 0.69312 0.97728 0.09467 0.0
H65 H 0.66365 0.09395 0.08602 0.0
H66 H 0.60954 0.93653 0.07842 0.0
H67 H 0.65983 0.9276 0.07585 0.0
H68 H 0.63251 0.94034 0.05052 0.0
H69 H 0.60664 0.11299 0.06805 0.0
H70 H 0.56946 0.07792 0.06559 0.0
H71 H 0.60121 0.08586 0.04153 0.0
H72 H 0.41596 0.96712 0.13742 0.0
H73 H 0.40838 0.91633 0.16675 0.0
H74 H 0.4387 0.90143 0.14294 0.0
H75 H 0.39046 0.88433 0.14458 0.0
H76 H 0.41621 0.00496 0.10176 0.0
H77 H 0.44085 0.88899 0.08513 0.0
H78 H 0.49771 0.04579 0.08367 0.0
H79 H 0.44755 0.05585 0.08311 0.0
H80 H 0.47324 0.04561 0.05637 0.0
H81 H 0.49406 0.87092 0.06234 0.0
H82 H 0.53231 0.90492 0.06047 0.0
H83 H 0.49819 0.90177 0.03752 0.0
H84 H 0.3454 0.97447 0.92595 0.0
H85 H 0.39602 0.01439 0.9221 0.0
H86 H 0.44257 0.90353 0.91063 0.0
H87 H 0.45551 0.04505 0.96504 0.0
H88 H 0.4304 0.06349 0.94027 0.0
H89 H 0.48149 0.05882 0.93948 0.0
H90 H 0.50253 0.88549 0.92481 0.0
H91 H 0.51599 0.90953 0.95142 0.0
H92 H 0.5362 0.92407 0.92414 0.0
H93 H 0.74811 0.03682 0.92515 0.0
H94 H 0.79304 0.08958 0.93187 0.0
H95 H 0.74589 0.10086 0.94219 0.0
H96 H 0.76316 0.12119 0.91533 0.0
H97 H 0.65096 0.10837 0.9168 0.0
H98 H 0.69875 0.99665 0.9163 0.0
H99 H 0.57975 0.09261 0.95823 0.0
H100 H 0.55773 0.08331 0.93072 0.0
H101 H 0.59101 0.122 0.93344 0.0
H102 H 0.66519 0.94339 0.9301 0.0
H103 H 0.61408 0.94766 0.93157 0.0
H104 H 0.64178 0.9558 0.9572 0.0
H105 H 0.55278 0.99025 0.0824 0.0
H106 H 0.4592 0.96489 0.02366 0.0
H107 H 0.45799 0.96765 0.98193 0.0
H108 H 0.547 0.00418 0.92203 0.0
H109 H 0.64055 0.02932 0.98086 0.0
H110 H 0.64231 0.02484 0.02248 0.0
H111 H 0.33349 0.89035 0.91296 0.0
H112 H 0.30359 0.91885 0.93203 0.0
H113 H 0.35181 0.90865 0.94013 0.0
C114 C 0.11366 0.37857 0.65269 0.0
C115 C 0.07792 0.36297 0.64106 0.0
C116 C 0.07449 0.38371 0.60114 0.0
C117 C 0.0363 0.39328 0.5981 0.0
C118 C 0.02594 0.42167 0.58235 0.0
C119 C 0.05454 0.44114 0.56971 0.0
C120 C 0.09312 0.43067 0.57236 0.0
C121 C 0.1025 0.40144 0.58777 0.0
C122 C 0.98453 0.43159 0.57971 0.0
C123 C 0.12455 0.45127 0.55963 0.0
C124 C 0.05052 0.731 0.63184 0.0
C125 C 0.06002 0.69703 0.61748 0.0
C126 C 0.0301 0.64286 0.59838 0.0
C127 C 0.063 0.63198 0.58594 0.0
C128 C 0.06311 0.5997 0.57155 0.0
C129 C 0.02954 0.57801 0.56928 0.0
C130 C 0.99615 0.58926 0.58132 0.0
C131 C 0.99691 0.62159 0.59578 0.0
C132 C 0.0994 0.58832 0.55913 0.0
C133 C 0.95989 0.56681 0.57914 0.0
C134 C 0.00832 0.64334 0.41873 0.0
C135 C 0.04421 0.63592 0.42808 0.0
C136 C 0.05118 0.60211 0.4401 0.0
C137 C 0.02148 0.57543 0.44296 0.0
C138 C 0.98561 0.58238 0.4329 0.0
C139 C 0.97967 0.61615 0.42062 0.0
C140 C 0.09021 0.595 0.44984 0.0
C141 C 0.95344 0.55442 0.43543 0.0
C142 C 0.12655 0.28895 0.43427 0.0
C143 C 0.09054 0.30392 0.42277 0.0
C144 C 0.08381 0.37241 0.42217 0.0
C145 C 0.10859 0.40276 0.42559 0.0
C146 C 0.09601 0.43642 0.43629 0.0
C147 C 0.0574 0.43994 0.44307 0.0
C148 C 0.03164 0.4102 0.43812 0.0
C149 C 0.04522 0.37653 0.42784 0.0
C150 C 0.12419 0.46774 0.44102 0.0
C151 C 0.99006 0.41361 0.44428 0.0
C152 C 0.04443 0.47469 0.55555 0.0
C153 C 0.03827 0.50885 0.56746 0.0
C154 C 0.03045 0.54226 0.55551 0.0
C155 C 0.02773 0.54168 0.53092 0.0
C156 C 0.01892 0.57462 0.51841 0.0
C157 C 0.01807 0.57414 0.49413 0.0
C158 C 0.02657 0.54084 0.48145 0.0
C159 C 0.02783 0.54054 0.45676 0.0
C160 C 0.03686 0.50705 0.44474 0.0
C161 C 0.04477 0.47362 0.45672 0.0
C162 C 0.04317 0.47321 0.4814 0.0
C163 C 0.05068 0.43996 0.49402 0.0
C164 C 0.05003 0.44009 0.51829 0.0
C165 C 0.04294 0.47369 0.5309 0.0
C166 C 0.03468 0.50739 0.51856 0.0
C167 C 0.03446 0.50707 0.49378 0.0
C168 C 0.97682 0.72594 0.43162 0.0
C169 C 0.00913 0.71215 0.41568 0.0
O170 O 0.08484 0.35811 0.61737 0.0
O171 O 0.09792 0.3394 0.41351 0.0
O172 O 0.00076 0.67608 0.40738 0.0
O173 O 0.02944 0.67334 0.61308 0.0
H174 H 0.0547 0.38401 0.64402 0.0
H175 H 0.12129 0.40636 0.64494 0.0
H176 H 0.13792 0.35878 0.65011 0.0
H177 H 0.10865 0.38285 0.6717 0.0
H178 H 0.01475 0.37879 0.60828 0.0
H179 H 0.13191 0.39349 0.59025 0.0
H180 H 0.97896 0.45958 0.58804 0.0
H181 H 0.96561 0.41024 0.58797 0.0
H182 H 0.97725 0.43389 0.56095 0.0
H183 H 0.15316 0.44208 0.56534 0.0
H184 H 0.12191 0.48233 0.56252 0.0
H185 H 0.12224 0.44587 0.5406 0.0
H186 H 0.0859 0.68141 0.62311 0.0
H187 H 0.06709 0.7275 0.64842 0.0
H188 H 0.02215 0.72517 0.64033 0.0
H189 H 0.0597 0.7766 0.60874 0.0
H190 H 0.0889 0.64825 0.58755 0.0
H191 H 0.97161 0.63024 0.6053 0.0
H192 H 0.095 0.58862 0.53998 0.0
H193 H 0.10733 0.55896 0.56399 0.0
H194 H 0.12344 0.60751 0.56335 0.0
H195 H 0.93556 0.58097 0.58806 0.0
H196 H 0.96388 0.53832 0.58688 0.0
H197 H 0.9529 0.56261 0.56043 0.0
H198 H 0.03563 0.71182 0.4261 0.0
H199 H 0.06697 0.6562 0.42572 0.0
H200 H 0.95226 0.62195 0.41296 0.0
H201 H 0.08882 0.59578 0.46919 0.0
H202 H 0.11122 0.61645 0.44393 0.0
H203 H 0.1004 0.56639 0.44453 0.0
H204 H 0.92673 0.5649 0.42756 0.0
H205 H 0.94819 0.54851 0.45419 0.0
H206 H 0.96138 0.5272 0.42684 0.0
H207 H 0.06833 0.30569 0.4367 0.0
H208 H 0.12128 0.2605 0.44187 0.0
H209 H 0.13524 0.30851 0.44854 0.0
H210 H 0.15021 0.28686 0.42137 0.0
H211 H 0.1382 0.39939 0.42072 0.0
H212 H 0.02582 0.35338 0.42432 0.0
H213 H 0.12429 0.47477 0.45994 0.0
H214 H 0.11563 0.49368 0.43155 0.0
H215 H 0.15349 0.45993 0.43549 0.0
H216 H 0.97301 0.39017 0.43664 0.0
H217 H 0.9787 0.4411 0.43806 0.0
H218 H 0.98652 0.41309 0.46354 0.0
H219 H 0.0408 0.50969 0.58633 0.0
H220 H 0.01274 0.60116 0.52727 0.0
H221 H 0.01122 0.60039 0.48542 0.0
H222 H 0.03855 0.50722 0.42583 0.0
H223 H 0.05723 0.41341 0.48529 0.0
H224 H 0.05589 0.41366 0.52707 0.0
H225 H 0.94958 0.72664 0.42197 0.0
H226 H 0.98308 0.7548 0.43849 0.0
H227 H 0.97359 0.70651 0.44668 0.0
Li228 Li 0.05567 0.04937 0.26935 0.0
Li229 Li 0.0518 0.98033 0.27224 0.0
Li230 Li 0.08833 0.01205 0.23951 0.0
Li231 Li 0.01857 0.0114 0.24008 0.0
C232 C 0.1223 0.03162 0.28813 0.0
N233 N 0.17051 0.07107 0.31739 0.0
C234 C 0.12665 0.02034 0.31129 0.0
C235 C 0.14305 0.06251 0.27975 0.0
C236 C 0.15102 0.04076 0.32583 0.0
C237 C 0.1671 0.08223 0.29483 0.0
C238 C 0.98234 0.00229 0.28831 0.0
C239 C 0.93358 0.95548 0.29502 0.0
N240 N 0.92733 0.97033 0.31668 0.0
C241 C 0.97509 0.0174 0.31052 0.0
C242 C 0.96114 0.97134 0.28041 0.0
C243 C 0.9473 0.00073 0.32464 0.0
C244 C 0.05995 0.12904 0.27868 0.0
N245 N 0.05752 0.09388 0.28816 0.0
C246 C 0.06155 0.11977 0.32665 0.0
C247 C 0.05786 0.0888 0.31163 0.0
C248 C 0.06485 0.15643 0.31744 0.0
C249 C 0.0638 0.16094 0.2931 0.0
H250 H 0.05928 0.13228 0.25996 0.0
H251 H 0.05614 0.06048 0.31866 0.0
C252 C 0.05406 0.90329 0.28721 0.0
N253 N 0.05053 0.94008 0.29416 0.0
C254 C 0.05268 0.87421 0.30366 0.0
C255 C 0.04511 0.92155 0.33406 0.0
C256 C 0.04623 0.9496 0.31705 0.0
C257 C 0.04827 0.88328 0.32743 0.0
H258 H 0.05816 0.89653 0.26895 0.0
H259 H 0.04381 0.9791 0.3221 0.0
C260 C 0.06595 0.07458 0.2156 0.0
N261 N 0.09211 0.11242 0.17656 0.0
C262 C 0.04876 0.06867 0.19398 0.0
C263 C 0.09614 0.10014 0.2174 0.0
C264 C 0.06245 0.08798 0.17444 0.0
C265 C 0.10907 0.11885 0.19745 0.0
C266 C 0.04109 0.94141 0.22213 0.0
C267 C 0.05646 0.94116 0.19956 0.0
C268 C 0.01318 0.91491 0.22808 0.0
C269 C 0.04311 0.91492 0.18319 0.0
C270 C 0.00054 0.88915 0.21122 0.0
N271 N 0.01561 0.88971 0.1893 0.0
C272 C 0.16604 0.00026 0.23382 0.0
C273 C 0.13629 0.01439 0.19799 0.0
C274 C 0.20136 0.99792 0.22278 0.0
N275 N 0.13443 0.00886 0.22147 0.0
C276 C 0.17108 0.01169 0.18613 0.0
C277 C 0.20417 0.00369 0.19865 0.0
H278 H 0.16389 0.99496 0.25231 0.0
H279 H 0.11084 0.02059 0.18838 0.0
C280 C 0.94178 0.02688 0.23393 0.0
N281 N 0.97216 0.01104 0.22278 0.0
C282 C 0.90623 0.02723 0.22342 0.0
C283 C 0.93398 0.99672 0.18947 0.0
C284 C 0.96897 0.99637 0.20084 0.0
C285 C 0.90203 0.01193 0.20094 0.0
H286 H 0.94512 0.0393 0.25108 0.0
H287 H 0.99354 0.98481 0.19199 0.0
O288 O 0.09784 0.0126 0.27373 0.0
O289 O 0.00992 0.0178 0.27435 0.0
O290 O 0.05278 0.05599 0.23494 0.0
O291 O 0.05404 0.96681 0.23841 0.0
H292 H 0.11132 0.9962 0.31802 0.0
H293 H 0.14052 0.0712 0.26181 0.0
H294 H 0.15443 0.0325 0.34384 0.0
H295 H 0.18307 0.10638 0.2886 0.0
H296 H 0.9171 0.93142 0.28913 0.0
H297 H 0.99076 0.04167 0.31684 0.0
H298 H 0.96575 0.9599 0.2631 0.0
H299 H 0.94158 0.01198 0.34192 0.0
H300 H 0.06287 0.11491 0.34527 0.0
H301 H 0.06592 0.18877 0.28533 0.0
H302 H 0.05564 0.84503 0.2979 0.0
H303 H 0.04136 0.9297 0.3522 0.0
H304 H 0.02524 0.04928 0.19225 0.0
H305 H 0.10946 0.1056 0.23399 0.0
H306 H 0.04951 0.0835 0.15759 0.0
H307 H 0.13253 0.13856 0.19859 0.0
H308 H 0.07825 0.96113 0.19467 0.0
H309 H 0.00158 0.91394 0.24556 0.0
H310 H 0.0546 0.91462 0.16563 0.0
H311 H 0.97886 0.86861 0.21559 0.0
H312 H 0.22616 0.99097 0.23296 0.0
H313 H 0.17218 0.01617 0.16746 0.0
H314 H 0.88235 0.03984 0.23264 0.0
H315 H 0.93181 0.98485 0.17205 0.0
Li316 Li 0.01227 0.00754 0.76836 0.0
Li317 Li 0.08107 0.00689 0.77071 0.0
Li318 Li 0.04683 0.04479 0.7399 0.0
Li319 Li 0.051 0.9755 0.73669 0.0
C320 C 0.02744 0.07317 0.79026 0.0
N321 N 0.98713 0.11585 0.82264 0.0
C322 C 0.03905 0.0746 0.81352 0.0
C323 C 0.99574 0.09402 0.78341 0.0
C324 C 0.0182 0.0962 0.82964 0.0
C325 C 0.97561 0.11526 0.80005 0.0
C326 C 0.06214 0.93196 0.78134 0.0
C327 C 0.1064 0.8797 0.78146 0.0
N328 N 0.09484 0.87072 0.80343 0.0
C329 C 0.05023 0.92174 0.80377 0.0
C330 C 0.09006 0.91038 0.76998 0.0
C331 C 0.0673 0.8909 0.81471 0.0
C332 C 0.93277 0.00868 0.78048 0.0
N333 N 0.96896 0.00533 0.78828 0.0
C334 C 0.94722 0.00208 0.82777 0.0
C335 C 0.97657 0.00185 0.81135 0.0
C336 C 0.90954 0.006 0.82039 0.0
C337 C 0.90238 0.00923 0.79638 0.0
H338 H 0.92752 0.01134 0.76201 0.0
H339 H 0.00566 -0.00012 0.81705 0.0
C340 C 0.15783 0.01436 0.78654 0.0
N341 N 0.12147 0.0055 0.79254 0.0
C342 C 0.18668 0.01224 0.8031 0.0
C343 C 0.13975 0.99389 0.83189 0.0
C344 C 0.11201 0.99581 0.81474 0.0
C345 C 0.17767 0.00187 0.82609 0.0
H346 H 0.16448 0.02323 0.76898 0.0
H347 H 0.08275 0.98984 0.81917 0.0
C348 C 0.98424 0.02201 0.71582 0.0
N349 N 0.94318 0.05071 0.67901 0.0
C350 C 0.98878 0.00671 0.6934 0.0
C351 C 0.95831 0.05148 0.71957 0.0
C352 C 0.9679 0.02171 0.675 0.0
C353 C 0.93798 0.06573 0.70072 0.0
C354 C 0.12535 0.00483 0.72428 0.0
C355 C 0.13399 0.02552 0.70419 0.0
C356 C 0.14982 0.97589 0.73125 0.0
C357 C 0.16642 0.01632 0.69114 0.0
C358 C 0.182 0.96757 0.71776 0.0
N359 N 0.18953 0.98773 0.69812 0.0
C360 C 0.05146 0.12398 0.7331 0.0
C361 C 0.04809 0.08757 0.69826 0.0
C362 C 0.05476 0.15737 0.7203 0.0
N363 N 0.04824 0.09 0.72195 0.0
C364 C 0.05149 0.12021 0.68477 0.0
C365 C 0.05516 0.15568 0.6958 0.0
H366 H 0.05238 0.1251 0.75193 0.0
H367 H 0.04641 0.06016 0.6898 0.0
C368 C 0.03813 0.90047 0.7199 0.0
N369 N 0.05476 0.93437 0.71501 0.0
C370 C 0.04237 0.86979 0.70448 0.0
C371 C 0.08007 0.90978 0.6792 0.0
C372 C 0.07462 0.9397 0.69485 0.0
C373 C 0.06412 0.87432 0.68409 0.0
H374 H 0.02208 0.89715 0.73593 0.0
H375 H 0.08613 0.96722 0.69082 0.0
O376 O 0.04697 0.05147 0.77429 0.0
O377 O 0.04596 0.96237 0.77045 0.0
O378 O 0.00448 0.00765 0.73404 0.0
O379 O 0.09329 0.01315 0.73704 0.0
H380 H 0.06378 0.05909 0.8191 0.0
H381 H 0.98678 0.09378 0.76545 0.0
H382 H 0.02672 0.09733 0.84773 0.0
H383 H 0.95087 0.1313 0.79499 0.0
H384 H 0.12816 0.86292 0.77285 0.0
H385 H 0.02816 0.93748 0.81274 0.0
H386 H 0.09878 0.9169 0.75238 0.0
H387 H 0.05857 0.88297 0.83214 0.0
H388 H 0.9541 0.00028 0.84611 0.0
H389 H 0.87368 0.01211 0.78999 0.0
H390 H 0.21558 0.01911 0.79808 0.0
H391 H 0.13172 0.9857 0.84944 0.0
H392 H 0.00833 0.98364 0.69016 0.0
H393 H 0.9538 0.06319 0.73682 0.0
H394 H 0.97134 0.01029 0.65755 0.0
H395 H 0.91797 0.08867 0.70338 0.0
H396 H 0.1158 0.0483 0.69863 0.0
H397 H 0.14448 0.96045 0.74712 0.0
H398 H 0.17323 0.03193 0.67547 0.0
H399 H 0.20109 0.9452 0.72297 0.0
H400 H 0.0582 0.18408 0.7295 0.0
H401 H 0.05154 0.11767 0.66593 0.0
H402 H 0.0296 0.8427 0.70864 0.0
H403 H 0.09649 0.91428 0.66339 0.0
H404 H 0.37539 0.99448 0.1666 0.0
H405 H 0.32798 0.91546 0.11703 0.0
H406 H 0.26398 0.92981 0.13149 0.0
H407 H 0.22193 0.96165 0.16016 0.0
H408 H 0.27019 0.03792 0.21103 0.0
H409 H 0.33337 0.02811 0.19408 0.0
C410 C 0.35094 0.98093 0.15871 0.0
C411 C 0.35633 0.95459 0.14047 0.0
C412 C 0.31442 0.98865 0.16747 0.0
C413 C 0.32451 0.93645 0.13077 0.0
C414 C 0.28795 0.94447 0.13913 0.0
C415 C 0.24626 0.97653 0.16724 0.0
C416 C 0.24156 0.00039 0.18681 0.0
C417 C 0.28261 0.97014 0.15769 0.0
C418 C 0.27328 0.01919 0.19607 0.0
C419 C 0.30934 0.0136 0.18639 0.0
H420 H 0.10554 0.29168 0.63148 0.0
H421 H 0.02645 0.35156 0.6762 0.0
H422 H 0.01136 0.29271 0.69658 0.0
H423 H 0.02222 0.22468 0.70249 0.0
H424 H 0.10182 0.16489 0.658 0.0
H425 H 0.11451 0.22304 0.63638 0.0
C426 C 0.08454 0.29166 0.64543 0.0
C427 C 0.0666 0.32575 0.65207 0.0
C428 C 0.07612 0.25777 0.6571 0.0
C429 C 0.04014 0.32552 0.67055 0.0
C430 C 0.03163 0.29195 0.68226 0.0
C431 C 0.04237 0.22443 0.68808 0.0
C432 C 0.06112 0.19057 0.68191 0.0
C433 C 0.0497 0.25799 0.67582 0.0
C434 C 0.08673 0.19051 0.66296 0.0
C435 C 0.09419 0.22379 0.65068 0.0
H436 H 0.73089 0.01201 0.16944 0.0
H437 H 0.78061 0.06579 0.10915 0.0
H438 H 0.84398 0.05762 0.12542 0.0
H439 H 0.88512 0.03781 0.15773 0.0
H440 H 0.83479 0.98771 0.21903 0.0
H441 H 0.77187 0.99171 0.20148 0.0
C442 C 0.75571 0.02143 0.15976 0.0
C443 C 0.7511 0.03856 0.13789 0.0
C444 C 0.79192 0.01753 0.16948 0.0
C445 C 0.78338 0.05168 0.12577 0.0
C446 C 0.81963 0.04722 0.13512 0.0
C447 C 0.86036 0.02738 0.16707 0.0
C448 C 0.86444 0.01245 0.18958 0.0
C449 C 0.82421 0.03046 0.15705 0.0
C450 C 0.83219 -0.00048 0.20171 0.0
C451 C 0.79628 0.00175 0.19169 0.0
H452 H 0.13497 0.73738 0.61245 0.0
H453 H 0.99412 0.73339 0.58893 0.0
H454 H 0.97957 0.79291 0.62312 0.0
H455 H 0.01173 0.83784 0.65844 0.0
H456 H 0.13121 0.84313 0.67503 0.0
H457 H 0.15011 0.79388 0.64739 0.0
C458 C 0.10651 0.74885 0.61354 0.0
C459 C 0.06522 0.72436 0.60014 0.0
C460 C 0.094 0.78423 0.63489 0.0
C461 C 0.01698 0.7462 0.5987 0.0
C462 C 0.00797 0.78179 0.62076 0.0
C463 C 0.04016 0.82691 0.65559 0.0
C464 C 0.07106 0.84225 0.66797 0.0
C465 C 0.04595 0.79907 0.63883 0.0
C466 C 0.1091 0.82987 0.66475 0.0
C467 C 0.12046 0.80165 0.6489 0.0
H468 H 0.28353 0.99519 0.91421 0.0
H469 H 0.34995 0.92524 0.86728 0.0
H470 H 0.3049 0.93698 0.83594 0.0
H471 H 0.24489 0.96471 0.82241 0.0
H472 H 0.17688 0.03194 0.86998 0.0
H473 H 0.22423 0.02384 0.90053 0.0
C474 C 0.28834 0.98301 0.897 0.0
C475 C 0.32047 0.96019 0.89292 0.0
C476 C 0.26191 0.9892 0.87924 0.0
C477 C 0.32591 0.94365 0.87073 0.0
C478 C 0.30005 0.95017 0.85284 0.0
C479 C 0.24078 0.97795 0.83939 0.0
C480 C 0.20756 0.99887 0.844 0.0
C481 C 0.2678 0.97264 0.85695 0.0
C482 C 0.20216 0.01547 0.86614 0.0
C483 C 0.22922 0.0109 0.88356 0.0
H484 H 0.11913 0.29569 0.3784 0.0
H485 H 0.03438 0.25056 0.4253 0.0
H486 H 0.0172 0.20252 0.3963 0.0
H487 H 0.0286 0.17138 0.35851 0.0
H488 H 0.11461 0.21524 0.31194 0.0
H489 H 0.12834 0.26634 0.33965 0.0
C490 C 0.0965 0.27568 0.38207 0.0
C491 C 0.07771 0.27689 0.40382 0.0
C492 C 0.08704 0.24795 0.3654 0.0
C493 C 0.04891 0.25042 0.40857 0.0
C494 C 0.03919 0.2229 0.39204 0.0
C495 C 0.05034 0.19215 0.35442 0.0
C496 C 0.07072 0.18936 0.33328 0.0
C497 C 0.05844 0.22108 0.37055 0.0
C498 C 0.0983 0.2169 0.32802 0.0
C499 C 0.10637 0.24596 0.34393 0.0
H500 H 0.79992 0.00503 0.90787 0.0
H501 H 0.7508 0.09911 0.87116 0.0
H502 H 0.79477 0.08859 0.83846 0.0
H503 H 0.85009 0.0553 0.82161 0.0
H504 H 0.89946 0.96164 0.85874 0.0
H505 H 0.85243 0.96923 0.88995 0.0
C506 C 0.79852 0.02284 0.89255 0.0
C507 C 0.77198 0.05255 0.89181 0.0
C508 C 0.82409 0.01686 0.87399 0.0
C509 C 0.77076 0.0758 0.87199 0.0
C510 C 0.79597 0.06988 0.85336 0.0
C511 C 0.85008 0.03612 0.83632 0.0
C512 C 0.87837 0.00812 0.83793 0.0
C513 C 0.82311 0.04082 0.85431 0.0
C514 C 0.8783 0.98376 0.85726 0.0
C515 C 0.85138 0.98802 0.87508 0.0
H516 H 0.05489 0.77406 0.41411 0.0
H517 H 0.97332 0.71242 0.3729 0.0
H518 H 0.97971 0.75881 0.34161 0.0
H519 H 0.00687 0.81825 0.32654 0.0
H520 H 0.08645 0.88114 0.36855 0.0
H521 H 0.08246 0.83303 0.39896 0.0
C522 C 0.03893 0.77059 0.39813 0.0
C523 C 0.01447 0.73935 0.39559 0.0
C524 C 0.04219 0.79773 0.38044 0.0
C525 C 0.99306 0.73571 0.37507 0.0
C526 C 0.99654 0.76233 0.35723 0.0
C527 C 0.02363 0.82112 0.34226 0.0
C528 C 0.0469 0.85315 0.34533 0.0
C529 C 0.02087 0.79356 0.35977 0.0
C530 C 0.06807 0.85688 0.3659 0.0
C531 C 0.06589 0.82935 0.38325 0.0
loop_
_geom_bond_atom_site_label_1
_geom_bond_atom_site_label_2
_geom_bond_distance
_geom_bond_site_symmetry_2
_ccdc_geom_bond_type
C0 C1 1.560 . S
C0 H61 0.959 . S
C0 H62 0.959 . S
C0 H63 0.960 . S
C1 C0 1.560 . S
C1 O56 1.426 . S
C1 H60 0.980 . S
C2 C3 1.407 1_545 S
C2 C7 1.418 . S
C2 O56 1.334 . S
C3 C2 1.407 1_565 S
C3 C4 1.360 . S
C3 H64 0.929 . S
C4 C3 1.360 . S
C4 C5 1.401 1_565 S
C4 C8 1.527 . S
C5 C4 1.401 1_545 S
C5 C6 1.405 . S
C5 C38 1.587 1_545 S
C6 C5 1.405 . S
C6 C7 1.332 . S
C6 C9 1.496 . S
C7 C2 1.418 . S
C7 C6 1.332 . S
C7 H65 0.929 . S
C8 C4 1.527 . S
C8 H66 0.959 . S
C8 H67 0.961 . S
C8 H68 0.961 . S
C9 C6 1.496 . S
C9 H69 0.960 . S
C9 H70 0.960 . S
C9 H71 0.961 . S
C10 C11 1.517 . S
C10 H73 0.961 . S
C10 H74 0.960 . S
C10 H75 0.959 . S
C11 C10 1.517 . S
C11 O59 1.468 . S
C11 H72 0.980 1_565 S
C12 C13 1.349 . S
C12 C17 1.367 . S
C12 O59 1.408 . S
C13 C12 1.349 . S
C13 C14 1.407 1_565 S
C13 H76 0.930 1_565 S
C14 C13 1.407 1_545 S
C14 C15 1.449 1_545 S
C14 C18 1.535 . S
C15 C14 1.449 1_565 S
C15 C16 1.384 . S
C15 C40 1.553 . S
C16 C15 1.384 . S
C16 C17 1.364 . S
C16 C19 1.450 . S
C17 C12 1.367 . S
C17 C16 1.364 . S
C17 H77 0.931 . S
C18 C14 1.535 . S
C18 H78 0.959 . S
C18 H79 0.961 . S
C18 H80 0.959 . S
C19 C16 1.450 . S
C19 H81 0.960 . S
C19 H82 0.960 . S
C19 H83 0.960 . S
C20 C21 1.309 1_565 S
C20 C25 1.304 . S
C20 O58 1.435 . S
C21 C20 1.309 1_545 S
C21 C22 1.476 . S
C21 H85 0.930 . S
C22 C21 1.476 . S
C22 C23 1.400 1_545 S
C22 C26 1.567 . S
C23 C22 1.400 1_565 S
C23 C24 1.373 . S
C23 C45 1.432 . S
C24 C23 1.373 . S
C24 C25 1.339 . S
C24 C27 1.530 . S
C25 C20 1.304 . S
C25 C24 1.339 . S
C25 H86 0.930 . S
C26 C22 1.567 . S
C26 H87 0.961 . S
C26 H88 0.960 . S
C26 H89 0.958 . S
C27 C24 1.530 . S
C27 H90 0.961 . S
C27 H91 0.960 . S
C27 H92 0.960 . S
C28 C29 1.530 . S
C28 H94 0.961 . S
C28 H95 0.961 . S
C28 H96 0.959 . S
C29 C28 1.530 . S
C29 O57 1.412 . S
C29 H93 0.980 . S
C30 C31 1.288 . S
C30 C35 1.377 1_545 S
C30 O57 1.393 . S
C31 C30 1.288 . S
C31 C32 1.369 . S
C31 H97 0.932 . S
C32 C31 1.369 . S
C32 C33 1.398 . S
C32 C36 1.527 . S
C33 C32 1.398 . S
C33 C34 1.380 1_545 S
C33 C47 1.499 . S
C34 C33 1.380 1_565 S
C34 C35 1.383 . S
C34 C37 1.603 . S
C35 C30 1.377 1_565 S
C35 C34 1.383 . S
C35 H98 0.929 . S
C36 C32 1.527 . S
C36 H99 0.961 . S
C36 H100 0.959 . S
C36 H101 0.959 . S
C37 C34 1.603 . S
C37 H102 0.960 . S
C37 H103 0.962 . S
C37 H104 0.961 . S
C38 C5 1.587 1_565 S
C38 C39 1.360 . S
C38 C51 1.412 . S
C39 C38 1.360 . S
C39 C40 1.365 . S
C39 H105 0.929 . S
C40 C15 1.553 . S
C40 C39 1.365 . S
C40 C41 1.404 . S
C41 C40 1.404 . S
C41 C42 1.395 . S
C41 C52 1.451 . S
C42 C41 1.395 . S
C42 C43 1.322 . S
C42 H106 0.930 . S
C43 C42 1.322 . S
C43 C44 1.459 1_554 S
C43 H107 0.929 1_554 S
C44 C43 1.459 1_556 S
C44 C45 1.445 . S
C44 C53 1.417 . S
C45 C23 1.432 . S
C45 C44 1.445 . S
C45 C46 1.370 . S
C46 C45 1.370 . S
C46 C47 1.437 1_565 S
C46 H108 0.930 . S
C47 C33 1.499 . S
C47 C46 1.437 1_545 S
C47 C48 1.359 1_545 S
C48 C47 1.359 1_565 S
C48 C49 1.401 1_565 S
C48 C53 1.469 . S
C49 C48 1.401 1_545 S
C49 C50 1.347 1_546 S
C49 H109 0.929 . S
C50 C49 1.347 1_564 S
C50 C51 1.456 . S
C50 H110 0.930 1_565 S
C51 C38 1.412 . S
C51 C50 1.456 . S
C51 C52 1.331 . S
C52 C41 1.451 . S
C52 C51 1.331 . S
C52 C53 1.451 1_554 S
C53 C44 1.417 . S
C53 C48 1.469 . S
C53 C52 1.451 1_556 S
C54 C55 1.582 . S
C54 H111 0.962 . S
C54 H112 0.959 . S
C54 H113 0.958 . S
C55 C54 1.582 . S
C55 O58 1.458 . S
C55 H84 0.980 1_565 S
O56 C1 1.426 . S
O56 C2 1.334 . S
O57 C29 1.412 . S
O57 C30 1.393 . S
O58 C20 1.435 . S
O58 C55 1.458 . S
O59 C11 1.468 . S
O59 C12 1.408 . S
H60 C1 0.980 . S
H61 C0 0.959 . S
H62 C0 0.959 . S
H63 C0 0.960 . S
H64 C3 0.929 . S
H65 C7 0.929 . S
H66 C8 0.959 . S
H67 C8 0.961 . S
H68 C8 0.961 . S
H69 C9 0.960 . S
H70 C9 0.960 . S
H71 C9 0.961 . S
H72 C11 0.980 1_545 S
H73 C10 0.961 . S
H74 C10 0.960 . S
H75 C10 0.959 . S
H76 C13 0.930 1_545 S
H77 C17 0.931 . S
H78 C18 0.959 . S
H79 C18 0.961 . S
H80 C18 0.959 . S
H81 C19 0.960 . S
H82 C19 0.960 . S
H83 C19 0.960 . S
H84 C55 0.980 1_545 S
H85 C21 0.930 . S
H86 C25 0.930 . S
H87 C26 0.961 . S
H88 C26 0.960 . S
H89 C26 0.958 . S
H90 C27 0.961 . S
H91 C27 0.960 . S
H92 C27 0.960 . S
H93 C29 0.980 . S
H94 C28 0.961 . S
H95 C28 0.961 . S
H96 C28 0.959 . S
H97 C31 0.932 . S
H98 C35 0.929 . S
H99 C36 0.961 . S
H100 C36 0.959 . S
H101 C36 0.959 . S
H102 C37 0.960 . S
H103 C37 0.962 . S
H104 C37 0.961 . S
H105 C39 0.929 . S
H106 C42 0.930 . S
H107 C43 0.929 1_556 S
H108 C46 0.930 . S
H109 C49 0.929 . S
H110 C50 0.930 1_545 S
H111 C54 0.962 . S
H112 C54 0.959 . S
H113 C54 0.958 . S
C114 C115 1.560 . S
C114 H175 0.959 . S
C114 H176 0.959 . S
C114 H177 0.960 . S
C115 C114 1.560 . S
C115 O170 1.426 . S
C115 H174 0.980 . S
C116 C117 1.407 . S
C116 C121 1.418 . S
C116 O170 1.334 . S
C117 C116 1.407 . S
C117 C118 1.360 . S
C117 H178 0.929 . S
C118 C117 1.360 . S
C118 C119 1.401 . S
C118 C122 1.527 1_455 S
C119 C118 1.401 . S
C119 C120 1.405 . S
C119 C152 1.587 . S
C120 C119 1.405 . S
C120 C121 1.332 . S
C120 C123 1.496 . S
C121 C116 1.418 . S
C121 C120 1.332 . S
C121 H179 0.929 . S
C122 C118 1.527 1_655 S
C122 H180 0.959 . S
C122 H181 0.961 . S
C122 H182 0.961 . S
C123 C120 1.496 . S
C123 H183 0.960 . S
C123 H184 0.960 . S
C123 H185 0.961 . S
C124 C125 1.517 . S
C124 H187 0.961 . S
C124 H188 0.960 . S
C124 H189 0.959 . S
C125 C124 1.517 . S
C125 O173 1.477 . S
C125 H186 0.980 . S
C126 C127 1.349 . S
C126 C131 1.367 1_455 S
C126 O173 1.411 . S
C127 C126 1.349 . S
C127 C128 1.407 . S
C127 H190 0.930 . S
C128 C127 1.407 . S
C128 C129 1.449 . S
C128 C132 1.535 . S
C129 C128 1.449 . S
C129 C130 1.384 1_455 S
C129 C154 1.553 . S
C130 C129 1.384 1_655 S
C130 C131 1.364 . S
C130 C133 1.450 . S
C131 C126 1.367 1_655 S
C131 C130 1.364 . S
C131 H191 0.931 . S
C132 C128 1.535 . S
C132 H192 0.959 . S
C132 H193 0.961 . S
C132 H194 0.959 . S
C133 C130 1.450 . S
C133 H195 0.960 . S
C133 H196 0.960 . S
C133 H197 0.960 . S
C134 C135 1.309 . S
C134 C139 1.304 1_455 S
C134 O172 1.435 . S
C135 C134 1.309 . S
C135 C136 1.476 . S
C135 H199 0.930 . S
C136 C135 1.476 . S
C136 C137 1.400 . S
C136 C140 1.567 . S
C137 C136 1.400 . S
C137 C138 1.373 1_455 S
C137 C159 1.432 . S
C138 C137 1.373 1_655 S
C138 C139 1.339 . S
C138 C141 1.530 . S
C139 C134 1.304 1_655 S
C139 C138 1.339 . S
C139 H200 0.930 . S
C140 C136 1.567 . S
C140 H201 0.961 . S
C140 H202 0.960 . S
C140 H203 0.958 . S
C141 C138 1.530 . S
C141 H204 0.961 . S
C141 H205 0.960 . S
C141 H206 0.960 . S
C142 C143 1.530 . S
C142 H208 0.961 . S
C142 H209 0.961 . S
C142 H210 0.959 . S
C143 C142 1.530 . S
C143 O171 1.412 . S
C143 H207 0.980 . S
C144 C145 1.288 . S
C144 C149 1.377 . S
C144 O171 1.393 . S
C145 C144 1.288 . S
C145 C146 1.369 . S
C145 H211 0.932 . S
C146 C145 1.369 . S
C146 C147 1.398 . S
C146 C150 1.527 . S
C147 C146 1.398 . S
C147 C148 1.380 . S
C147 C161 1.497 . S
C148 C147 1.380 . S
C148 C149 1.383 . S
C148 C151 1.603 1_455 S
C149 C144 1.377 . S
C149 C148 1.383 . S
C149 H212 0.929 . S
C150 C146 1.527 . S
C150 H213 0.961 . S
C150 H214 0.959 . S
C150 H215 0.959 . S
C151 C148 1.603 1_655 S
C151 H216 0.960 . S
C151 H217 0.962 . S
C151 H218 0.961 . S
C152 C119 1.587 . S
C152 C153 1.360 . S
C152 C165 1.412 . S
C153 C152 1.360 . S
C153 C154 1.365 . S
C153 H219 0.929 . S
C154 C129 1.553 . S
C154 C153 1.365 . S
C154 C155 1.404 . S
C155 C154 1.404 . S
C155 C156 1.395 . S
C155 C166 1.451 . S
C156 C155 1.395 . S
C156 C157 1.322 . S
C156 H220 0.930 . S
C157 C156 1.322 . S
C157 C158 1.459 . S
C157 H221 0.929 . S
C158 C157 1.459 . S
C158 C159 1.445 . S
C158 C167 1.395 . S
C159 C137 1.432 . S
C159 C158 1.445 . S
C159 C160 1.370 . S
C160 C159 1.370 . S
C160 C161 1.438 . S
C160 H222 0.930 . S
C161 C147 1.497 . S
C161 C160 1.438 . S
C161 C162 1.360 . S
C162 C161 1.360 . S
C162 C163 1.401 . S
C162 C167 1.446 . S
C163 C162 1.401 . S
C163 C164 1.347 . S
C163 H223 0.929 . S
C164 C163 1.347 . S
C164 C165 1.455 . S
C164 H224 0.930 . S
C165 C152 1.412 . S
C165 C164 1.455 . S
C165 C166 1.331 . S
C166 C155 1.451 . S
C166 C165 1.331 . S
C166 C167 1.497 . S
C167 C158 1.395 . S
C167 C162 1.446 . S
C167 C166 1.497 . S
C168 C169 1.582 . S
C168 H225 0.962 . S
C168 H226 0.959 . S
C168 H227 0.958 . S
C169 C168 1.582 . S
C169 O172 1.458 . S
C169 H198 0.980 . S
O170 C115 1.426 . S
O170 C116 1.334 . S
O171 C143 1.412 . S
O171 C144 1.393 . S
O172 C134 1.435 . S
O172 C169 1.458 . S
O173 C125 1.477 . S
O173 C126 1.411 . S
H174 C115 0.980 . S
H175 C114 0.959 . S
H176 C114 0.959 . S
H177 C114 0.960 . S
H178 C117 0.929 . S
H179 C121 0.929 . S
H180 C122 0.959 . S
H181 C122 0.961 . S
H182 C122 0.961 . S
H183 C123 0.960 . S
H184 C123 0.960 . S
H185 C123 0.961 . S
H186 C125 0.980 . S
H187 C124 0.961 . S
H188 C124 0.960 . S
H189 C124 0.959 . S
H190 C127 0.930 . S
H191 C131 0.931 . S
H192 C132 0.959 . S
H193 C132 0.961 . S
H194 C132 0.959 . S
H195 C133 0.960 . S
H196 C133 0.960 . S
H197 C133 0.960 . S
H198 C169 0.980 . S
H199 C135 0.930 . S
H200 C139 0.930 . S
H201 C140 0.961 . S
H202 C140 0.960 . S
H203 C140 0.958 . S
H204 C141 0.961 . S
H205 C141 0.960 . S
H206 C141 0.960 . S
H207 C143 0.980 . S
H208 C142 0.961 . S
H209 C142 0.961 . S
H210 C142 0.959 . S
H211 C145 0.932 . S
H212 C149 0.929 . S
H213 C150 0.961 . S
H214 C150 0.959 . S
H215 C150 0.959 . S
H216 C151 0.960 . S
H217 C151 0.962 . S
H218 C151 0.961 . S
H219 C153 0.929 . S
H220 C156 0.930 . S
H221 C157 0.929 . S
H222 C160 0.930 . S
H223 C163 0.929 . S
H224 C164 0.930 . S
H225 C168 0.962 . S
H226 C168 0.959 . S
H227 C168 0.958 . S
Li228 N245 1.990 . S
Li228 O288 1.956 . S
Li228 O289 1.970 . S
Li228 O290 1.961 . S
Li229 N253 1.990 . S
Li229 O288 1.970 1_565 S
Li229 O289 1.956 1_565 S
Li229 O291 1.961 . S
Li230 N275 1.990 . S
Li230 O288 1.961 . S
Li230 O290 1.956 . S
Li230 O291 1.970 1_545 S
Li231 N281 1.990 1_455 S
Li231 O289 1.961 . S
Li231 O290 1.970 . S
Li231 O291 1.956 1_545 S
C232 C234 1.348 1_545 S
C232 C235 1.356 . S
C232 O288 1.325 . S
N233 C236 1.314 1_545 S
N233 C237 1.279 . S
C234 C232 1.348 1_565 S
C234 C236 1.353 . S
C234 H292 0.929 . S
C235 C232 1.356 . S
C235 C237 1.358 . S
C235 H293 0.930 . S
C236 N233 1.314 1_565 S
C236 C234 1.353 . S
C236 H294 0.930 . S
C237 N233 1.279 . S
C237 C235 1.358 . S
C237 H295 0.930 . S
C238 C241 1.348 . S
C238 C242 1.356 1_545 S
C238 O289 1.325 1_655 S
C239 N240 1.279 1_565 S
C239 C242 1.358 . S
C239 H296 0.930 . S
N240 C239 1.279 1_545 S
N240 C243 1.314 . S
C241 C238 1.348 . S
C241 C243 1.353 . S
C241 H297 0.926 1_655 S
C242 C238 1.356 1_565 S
C242 C239 1.358 . S
C242 H298 0.930 . S
C243 N240 1.314 . S
C243 C241 1.353 . S
C243 H299 0.930 . S
C244 N245 1.314 . S
C244 C249 1.353 . S
C244 H250 0.930 . S
N245 Li228 1.990 . S
N245 C244 1.314 . S
N245 C247 1.279 . S
C246 C247 1.358 . S
C246 C248 1.356 . S
C246 H300 0.930 . S
C247 N245 1.279 . S
C247 C246 1.358 . S
C247 H251 0.930 . S
C248 C246 1.356 . S
C248 C249 1.348 . S
C249 C244 1.353 . S
C249 C248 1.348 . S
C249 H301 0.929 . S
H250 C244 0.930 . S
H251 C247 0.930 . S
C252 N253 1.314 . S
C252 C254 1.353 . S
C252 H258 0.930 . S
N253 Li229 1.990 . S
N253 C252 1.314 . S
N253 C256 1.279 . S
C254 C252 1.353 . S
C254 C257 1.348 . S
C254 H302 0.929 . S
C255 C256 1.358 . S
C255 C257 1.356 . S
C255 H303 0.930 . S
C256 N253 1.279 . S
C256 C255 1.358 . S
C256 H259 0.930 . S
C257 C254 1.348 . S
C257 C255 1.356 . S
H258 C252 0.930 . S
H259 C256 0.930 . S
C260 C262 1.348 . S
C260 C263 1.356 . S
C260 O290 1.325 . S
N261 C264 1.314 . S
N261 C265 1.279 . S
C262 C260 1.348 . S
C262 C264 1.353 . S
C262 H304 0.929 . S
C263 C260 1.356 . S
C263 C265 1.358 . S
C263 H305 0.930 . S
C264 N261 1.314 . S
C264 C262 1.353 . S
C264 H306 0.930 . S
C265 N261 1.279 . S
C265 C263 1.358 . S
C265 H307 0.930 . S
C266 C267 1.348 . S
C266 C268 1.356 . S
C266 O291 1.325 . S
C267 C266 1.348 . S
C267 C269 1.353 . S
C267 H308 0.929 . S
C268 C266 1.356 . S
C268 C270 1.358 . S
C268 H309 0.930 . S
C269 C267 1.353 . S
C269 N271 1.314 . S
C269 H310 0.930 . S
C270 C268 1.358 . S
C270 N271 1.279 . S
C270 H311 0.930 . S
N271 C269 1.314 . S
N271 C270 1.279 . S
C272 C274 1.353 . S
C272 N275 1.314 1_565 S
C272 H278 0.930 . S
C273 N275 1.279 . S
C273 C276 1.358 . S
C273 H279 0.930 . S
C274 C272 1.353 . S
C274 C277 1.348 1_565 S
C274 H312 0.929 . S
N275 Li230 1.990 . S
N275 C272 1.314 1_545 S
N275 C273 1.279 . S
C276 C273 1.358 . S
C276 C277 1.356 . S
C276 H313 0.930 . S
C277 C274 1.348 1_545 S
C277 C276 1.356 . S
H278 C272 0.930 . S
H279 C273 0.930 . S
C280 N281 1.314 . S
C280 C282 1.353 . S
C280 H286 0.930 . S
N281 Li231 1.990 1_655 S
N281 C280 1.314 . S
N281 C284 1.279 1_545 S
C282 C280 1.353 . S
C282 C285 1.348 . S
C282 H314 0.929 . S
C283 C284 1.358 . S
C283 C285 1.356 1_565 S
C283 H315 0.930 . S
C284 N281 1.279 1_565 S
C284 C283 1.358 . S
C284 H287 0.930 . S
C285 C282 1.348 . S
C285 C283 1.356 1_545 S
H286 C280 0.930 . S
H287 C284 0.930 . S
O288 Li228 1.956 . S
O288 Li229 1.970 1_545 S
O288 Li230 1.961 . S
O288 C232 1.325 . S
O289 Li228 1.970 . S
O289 Li229 1.956 1_545 S
O289 Li231 1.961 . S
O289 C238 1.325 1_455 S
O290 Li228 1.961 . S
O290 Li230 1.956 . S
O290 Li231 1.970 . S
O290 C260 1.325 . S
O291 Li229 1.961 . S
O291 Li230 1.970 1_565 S
O291 Li231 1.956 1_565 S
O291 C266 1.325 . S
H292 C234 0.929 . S
H293 C235 0.930 . S
H294 C236 0.930 . S
H295 C237 0.930 . S
H296 C239 0.930 . S
H297 C241 0.926 1_455 S
H298 C242 0.930 . S
H299 C243 0.930 . S
H300 C246 0.930 . S
H301 C249 0.929 . S
H302 C254 0.929 . S
H303 C255 0.930 . S
H304 C262 0.929 . S
H305 C263 0.930 . S
H306 C264 0.930 . S
H307 C265 0.930 . S
H308 C267 0.929 . S
H309 C268 0.930 . S
H310 C269 0.930 . S
H311 C270 0.930 . S
H312 C274 0.929 . S
H313 C276 0.930 . S
H314 C282 0.929 . S
H315 C283 0.930 . S
Li316 N333 1.990 1_455 S
Li316 O376 1.956 . S
Li316 O377 1.970 1_545 S
Li316 O378 1.961 . S
Li317 N341 1.990 . S
Li317 O376 1.970 . S
Li317 O377 1.956 1_545 S
Li317 O379 1.961 . S
Li318 N363 1.990 . S
Li318 O376 1.961 . S
Li318 O378 1.956 . S
Li318 O379 1.970 . S
Li319 N369 1.990 . S
Li319 O377 1.961 . S
Li319 O378 1.970 1_565 S
Li319 O379 1.956 1_565 S
C320 C322 1.348 . S
C320 C323 1.356 . S
C320 O376 1.325 . S
N321 C324 1.314 . S
N321 C325 1.279 . S
C322 C320 1.348 . S
C322 C324 1.353 . S
C322 H380 0.929 . S
C323 C320 1.356 . S
C323 C325 1.358 . S
C323 H381 0.930 . S
C324 N321 1.314 . S
C324 C322 1.353 . S
C324 H382 0.930 . S
C325 N321 1.279 . S
C325 C323 1.358 . S
C325 H383 0.930 . S
C326 C329 1.348 . S
C326 C330 1.356 . S
C326 O377 1.325 . S
C327 N328 1.279 . S
C327 C330 1.358 . S
C327 H384 0.930 . S
N328 C327 1.279 . S
N328 C331 1.314 . S
C329 C326 1.348 . S
C329 C331 1.353 . S
C329 H385 0.929 . S
C330 C326 1.356 . S
C330 C327 1.358 . S
C330 H386 0.930 . S
C331 N328 1.314 . S
C331 C329 1.353 . S
C331 H387 0.930 . S
C332 N333 1.314 1_565 S
C332 C337 1.353 . S
C332 H338 0.930 . S
N333 Li316 1.990 1_655 S
N333 C332 1.314 1_545 S
N333 C335 1.279 . S
C334 C335 1.358 . S
C334 C336 1.356 . S
C334 H388 0.930 . S
C335 N333 1.279 . S
C335 C334 1.358 . S
C335 H339 0.930 . S
C336 C334 1.356 . S
C336 C337 1.348 1_545 S
C337 C332 1.353 . S
C337 C336 1.348 1_565 S
C337 H389 0.929 . S
H338 C332 0.930 . S
H339 C335 0.930 . S
C340 N341 1.314 . S
C340 C342 1.353 . S
C340 H346 0.930 . S
N341 Li317 1.990 . S
N341 C340 1.314 . S
N341 C344 1.279 1_545 S
C342 C340 1.353 . S
C342 C345 1.348 . S
C342 H390 0.929 . S
C343 C344 1.358 . S
C343 C345 1.356 1_565 S
C343 H391 0.930 . S
C344 N341 1.279 1_565 S
C344 C343 1.358 . S
C344 H347 0.930 . S
C345 C342 1.348 . S
C345 C343 1.356 1_545 S
H346 C340 0.930 . S
H347 C344 0.930 . S
C348 C350 1.348 1_545 S
C348 C351 1.356 . S
C348 O378 1.325 1_655 S
N349 C352 1.314 1_545 S
N349 C353 1.279 . S
C350 C348 1.348 1_565 S
C350 C352 1.353 . S
C350 H392 0.929 . S
C351 C348 1.356 . S
C351 C353 1.358 . S
C351 H393 0.930 . S
C352 N349 1.314 1_565 S
C352 C350 1.353 . S
C352 H394 0.930 . S
C353 N349 1.279 . S
C353 C351 1.358 . S
C353 H395 0.930 . S
C354 C355 1.348 . S
C354 C356 1.356 1_545 S
C354 O379 1.325 . S
C355 C354 1.348 . S
C355 C357 1.353 . S
C355 H396 0.929 . S
C356 C354 1.356 1_565 S
C356 C358 1.358 . S
C356 H397 0.930 . S
C357 C355 1.353 . S
C357 N359 1.314 . S
C357 H398 0.930 . S
C358 C356 1.358 . S
C358 N359 1.279 1_565 S
C358 H399 0.930 . S
N359 C357 1.314 . S
N359 C358 1.279 1_545 S
C360 C362 1.353 . S
C360 N363 1.314 . S
C360 H366 0.930 . S
C361 N363 1.279 . S
C361 C364 1.358 . S
C361 H367 0.930 . S
C362 C360 1.353 . S
C362 C365 1.348 . S
C362 H400 0.929 . S
N363 Li318 1.990 . S
N363 C360 1.314 . S
N363 C361 1.279 . S
C364 C361 1.358 . S
C364 C365 1.356 . S
C364 H401 0.930 . S
C365 C362 1.348 . S
C365 C364 1.356 . S
H366 C360 0.930 . S
H367 C361 0.930 . S
C368 N369 1.314 . S
C368 C370 1.353 . S
C368 H374 0.930 . S
N369 Li319 1.990 . S
N369 C368 1.314 . S
N369 C372 1.279 . S
C370 C368 1.353 . S
C370 C373 1.348 . S
C370 H402 0.929 . S
C371 C372 1.358 . S
C371 C373 1.356 . S
C371 H403 0.930 . S
C372 N369 1.279 . S
C372 C371 1.358 . S
C372 H375 0.930 . S
C373 C370 1.348 . S
C373 C371 1.356 . S
H374 C368 0.930 . S
H375 C372 0.930 . S
O376 Li316 1.956 . S
O376 Li317 1.970 . S
O376 Li318 1.961 . S
O376 C320 1.325 . S
O377 Li316 1.970 1_565 S
O377 Li317 1.956 1_565 S
O377 Li319 1.961 . S
O377 C326 1.325 . S
O378 Li316 1.961 . S
O378 Li318 1.956 . S
O378 Li319 1.970 1_545 S
O378 C348 1.325 1_455 S
O379 Li317 1.961 . S
O379 Li318 1.970 . S
O379 Li319 1.956 1_545 S
O379 C354 1.325 . S
H380 C322 0.929 . S
H381 C323 0.930 . S
H382 C324 0.930 . S
H383 C325 0.930 . S
H384 C327 0.930 . S
H385 C329 0.929 . S
H386 C330 0.930 . S
H387 C331 0.930 . S
H388 C334 0.930 . S
H389 C337 0.929 . S
H390 C342 0.929 . S
H391 C343 0.930 . S
H392 C350 0.929 . S
H393 C351 0.930 . S
H394 C352 0.930 . S
H395 C353 0.930 . S
H396 C355 0.929 . S
H397 C356 0.930 . S
H398 C357 0.930 . S
H399 C358 0.930 . S
H400 C362 0.929 . S
H401 C364 0.930 . S
H402 C370 0.929 . S
H403 C371 0.930 . S
H404 C410 0.930 . S
H405 C413 0.930 . S
H406 C414 0.930 . S
H407 C415 0.930 1_565 S
H408 C418 0.930 . S
H409 C419 0.930 . S
C410 H404 0.930 . S
C410 C411 1.355 . S
C410 C412 1.415 . S
C411 C410 1.355 . S
C411 C413 1.419 1_545 S
C412 C410 1.415 . S
C412 C417 1.425 . S
C412 C419 1.409 . S
C413 H405 0.930 . S
C413 C411 1.419 1_565 S
C413 C414 1.362 . S
C414 H406 0.930 . S
C414 C413 1.362 . S
C414 C417 1.409 1_565 S
C415 H407 0.930 1_545 S
C415 C416 1.355 . S
C415 C417 1.415 . S
C416 C415 1.355 . S
C416 C418 1.419 . S
C417 C412 1.425 . S
C417 C414 1.409 1_545 S
C417 C415 1.415 . S
C418 H408 0.930 . S
C418 C416 1.419 . S
C418 C419 1.362 . S
C419 H409 0.930 . S
C419 C412 1.409 . S
C419 C418 1.362 . S
H420 C426 0.930 . S
H421 C429 0.930 . S
H422 C430 0.930 . S
H423 C431 0.930 . S
H424 C434 0.930 . S
H425 C435 0.930 . S
C426 H420 0.930 . S
C426 C427 1.355 . S
C426 C428 1.415 . S
C427 C426 1.355 . S
C427 C429 1.419 . S
C428 C426 1.415 . S
C428 C433 1.425 . S
C428 C435 1.409 . S
C429 H421 0.930 . S
C429 C427 1.419 . S
C429 C430 1.362 . S
C430 H422 0.930 . S
C430 C429 1.362 . S
C430 C433 1.409 . S
C431 H423 0.930 . S
C431 C432 1.355 . S
C431 C433 1.415 . S
C432 C431 1.355 . S
C432 C434 1.419 . S
C433 C428 1.425 . S
C433 C430 1.409 . S
C433 C431 1.415 . S
C434 H424 0.930 . S
C434 C432 1.419 . S
C434 C435 1.362 . S
C435 H425 0.930 . S
C435 C428 1.409 . S
C435 C434 1.362 . S
H436 C442 0.930 . S
H437 C445 0.930 . S
H438 C446 0.930 . S
H439 C447 0.930 . S
H440 C450 0.930 . S
H441 C451 0.930 . S
C442 H436 0.930 . S
C442 C443 1.355 . S
C442 C444 1.415 . S
C443 C442 1.355 . S
C443 C445 1.419 . S
C444 C442 1.415 . S
C444 C449 1.425 . S
C444 C451 1.409 . S
C445 H437 0.930 . S
C445 C443 1.419 . S
C445 C446 1.362 . S
C446 H438 0.930 . S
C446 C445 1.362 . S
C446 C449 1.409 . S
C447 H439 0.930 . S
C447 C448 1.355 . S
C447 C449 1.415 . S
C448 C447 1.355 . S
C448 C450 1.419 . S
C449 C444 1.425 . S
C449 C446 1.409 . S
C449 C447 1.415 . S
C450 H440 0.930 . S
C450 C448 1.419 . S
C450 C451 1.362 . S
C451 H441 0.930 . S
C451 C444 1.409 . S
C451 C450 1.362 . S
H452 C458 0.930 . S
H453 C461 0.930 1_655 S
H454 C462 0.930 1_655 S
H455 C463 0.930 . S
H456 C466 0.930 . S
H457 C467 0.930 . S
C458 H452 0.930 . S
C458 C459 1.355 . S
C458 C460 1.415 . S
C459 C458 1.355 . S
C459 C461 1.419 . S
C460 C458 1.415 . S
C460 C465 1.425 . S
C460 C467 1.409 . S
C461 H453 0.930 1_455 S
C461 C459 1.419 . S
C461 C462 1.362 . S
C462 H454 0.930 1_455 S
C462 C461 1.362 . S
C462 C465 1.409 . S
C463 H455 0.930 . S
C463 C464 1.355 . S
C463 C465 1.415 . S
C464 C463 1.355 . S
C464 C466 1.419 . S
C465 C460 1.425 . S
C465 C462 1.409 . S
C465 C463 1.415 . S
C466 H456 0.930 . S
C466 C464 1.419 . S
C466 C467 1.362 . S
C467 H457 0.930 . S
C467 C460 1.409 . S
C467 C466 1.362 . S
H468 C474 0.930 . S
H469 C477 0.930 . S
H470 C478 0.930 . S
H471 C479 0.930 . S
H472 C482 0.930 . S
H473 C483 0.930 . S
C474 H468 0.930 . S
C474 C475 1.355 . S
C474 C476 1.415 . S
C475 C474 1.355 . S
C475 C477 1.419 . S
C476 C474 1.415 . S
C476 C481 1.425 . S
C476 C483 1.409 . S
C477 H469 0.930 . S
C477 C475 1.419 . S
C477 C478 1.362 . S
C478 H470 0.930 . S
C478 C477 1.362 . S
C478 C481 1.409 . S
C479 H471 0.930 . S
C479 C480 1.355 . S
C479 C481 1.415 . S
C480 C479 1.355 . S
C480 C482 1.419 . S
C481 C476 1.425 . S
C481 C478 1.409 . S
C481 C479 1.415 . S
C482 H472 0.930 . S
C482 C480 1.419 . S
C482 C483 1.362 . S
C483 H473 0.930 . S
C483 C476 1.409 . S
C483 C482 1.362 . S
H484 C490 0.930 . S
H485 C493 0.930 . S
H486 C494 0.930 . S
H487 C495 0.930 . S
H488 C498 0.930 . S
H489 C499 0.930 . S
C490 H484 0.930 . S
C490 C491 1.355 . S
C490 C492 1.415 . S
C491 C490 1.355 . S
C491 C493 1.419 . S
C492 C490 1.415 . S
C492 C497 1.425 . S
C492 C499 1.409 . S
C493 H485 0.930 . S
C493 C491 1.419 . S
C493 C494 1.362 . S
C494 H486 0.930 . S
C494 C493 1.362 . S
C494 C497 1.409 . S
C495 H487 0.930 . S
C495 C496 1.355 . S
C495 C497 1.415 . S
C496 C495 1.355 . S
C496 C498 1.419 . S
C497 C492 1.425 . S
C497 C494 1.409 . S
C497 C495 1.415 . S
C498 H488 0.930 . S
C498 C496 1.419 . S
C498 C499 1.362 . S
C499 H489 0.930 . S
C499 C492 1.409 . S
C499 C498 1.362 . S
H500 C506 0.930 . S
H501 C509 0.930 . S
H502 C510 0.930 . S
H503 C511 0.930 . S
H504 C514 0.930 . S
H505 C515 0.930 . S
C506 H500 0.930 . S
C506 C507 1.355 . S
C506 C508 1.415 . S
C507 C506 1.355 . S
C507 C509 1.419 . S
C508 C506 1.415 . S
C508 C513 1.425 . S
C508 C515 1.409 . S
C509 H501 0.930 . S
C509 C507 1.419 . S
C509 C510 1.362 . S
C510 H502 0.930 . S
C510 C509 1.362 . S
C510 C513 1.409 . S
C511 H503 0.930 . S
C511 C512 1.355 . S
C511 C513 1.415 . S
C512 C511 1.355 . S
C512 C514 1.419 . S
C513 C508 1.425 . S
C513 C510 1.409 . S
C513 C511 1.415 . S
C514 H504 0.930 . S
C514 C512 1.419 . S
C514 C515 1.362 . S
C515 H505 0.930 . S
C515 C508 1.409 . S
C515 C514 1.362 . S
H516 C522 0.930 . S
H517 C525 0.930 . S
H518 C526 0.930 . S
H519 C527 0.930 . S
H520 C530 0.930 . S
H521 C531 0.930 . S
C522 H516 0.930 . S
C522 C523 1.355 . S
C522 C524 1.415 . S
C523 C522 1.355 . S
C523 C525 1.419 . S
C524 C522 1.415 . S
C524 C529 1.425 . S
C524 C531 1.409 . S
C525 H517 0.930 . S
C525 C523 1.419 . S
C525 C526 1.362 . S
C526 H518 0.930 . S
C526 C525 1.362 . S
C526 C529 1.409 . S
C527 H519 0.930 . S
C527 C528 1.355 . S
C527 C529 1.415 . S
C528 C527 1.355 . S
C528 C530 1.419 . S
C529 C524 1.425 . S
C529 C526 1.409 . S
C529 C527 1.415 . S
C530 H520 0.930 . S
C530 C528 1.419 . S
C530 C531 1.362 . S
C531 H521 0.930 . S
C531 C524 1.409 . S
C531 C530 1.362 . S
C416 C277 1.486 . S
C411 C11 0.938 1_545 S
C432 C365 1.323 . S
C427 C115 1.081 . S
C448 C285 1.324 . S
C443 C1 1.109 . S
C464 C373 1.476 . S
C459 C125 0.844 . S
C480 C345 1.561 . S
C475 C55 1.188 1_545 S
C496 C248 1.414 . S
C491 C143 1.086 . S
C512 C336 1.416 . S
C507 C29 1.155 . S
C523 C169 1.216 . S
C528 C257 1.563 . S
