# Generated by pormake.
# Topology ctn, (3,4)-cn, num edge types: 1
# Building blocks:
#     Node 0, Type 0, BuildingBlock: PAMTOO_clean_linker_0, # of connection points: 3
#     Node 1, Type 0, BuildingBlock: PAMTOO_clean_linker_0, # of connection points: 3
#     Node 2, Type 0, BuildingBlock: PAMTOO_clean_linker_0, # of connection points: 3
#     Node 3, Type 0, BuildingBlock: PAMTOO_clean_linker_0, # of connection points: 3
#     Node 4, Type 0, BuildingBlock: PAMTOO_clean_linker_0, # of connection points: 3
#     Node 5, Type 0, BuildingBlock: PAMTOO_clean_linker_0, # of connection points: 3
#     Node 6, Type 0, BuildingBlock: PAMTOO_clean_linker_0, # of connection points: 3
#     Node 7, Type 0, BuildingBlock: PAMTOO_clean_linker_0, # of connection points: 3
#     Node 8, Type 0, BuildingBlock: PAMTOO_clean_linker_0, # of connection points: 3
#     Node 9, Type 0, BuildingBlock: PAMTOO_clean_linker_0, # of connection points: 3
#     Node 10, Type 0, BuildingBlock: PAMTOO_clean_linker_0, # of connection points: 3
#     Node 11, Type 0, BuildingBlock: PAMTOO_clean_linker_0, # of connection points: 3
#     Node 12, Type 0, BuildingBlock: PAMTOO_clean_linker_0, # of connection points: 3
#     Node 13, Type 0, BuildingBlock: PAMTOO_clean_linker_0, # of connection points: 3
#     Node 14, Type 0, BuildingBlock: PAMTOO_clean_linker_0, # of connection points: 3
#     Node 15, Type 0, BuildingBlock: PAMTOO_clean_linker_0, # of connection points: 3
#     Node 16, Type 1, BuildingBlock: NAHDIM_clean_sbu_0, # of connection points: 4
#     Node 17, Type 1, BuildingBlock: NAHDIM_clean_sbu_0, # of connection points: 4
#     Node 18, Type 1, BuildingBlock: NAHDIM_clean_sbu_0, # of connection points: 4
#     Node 19, Type 1, BuildingBlock: NAHDIM_clean_sbu_0, # of connection points: 4
#     Node 20, Type 1, BuildingBlock: NAHDIM_clean_sbu_0, # of connection points: 4
#     Node 21, Type 1, BuildingBlock: NAHDIM_clean_sbu_0, # of connection points: 4
#     Node 22, Type 1, BuildingBlock: NAHDIM_clean_sbu_0, # of connection points: 4
#     Node 23, Type 1, BuildingBlock: NAHDIM_clean_sbu_0, # of connection points: 4
#     Node 24, Type 1, BuildingBlock: NAHDIM_clean_sbu_0, # of connection points: 4
#     Node 25, Type 1, BuildingBlock: NAHDIM_clean_sbu_0, # of connection points: 4
#     Node 26, Type 1, BuildingBlock: NAHDIM_clean_sbu_0, # of connection points: 4
#     Node 27, Type 1, BuildingBlock: NAHDIM_clean_sbu_0, # of connection points: 4
#     Edge 28, Type (0, 1), BuildingBlock: XIVTED_clean_linker_0, # of connection points: 2
#     Edge 29, Type (0, 1), BuildingBlock: XIVTED_clean_linker_0, # of connection points: 2
#     Edge 30, Type (0, 1), BuildingBlock: XIVTED_clean_linker_0, # of connection points: 2
#     Edge 31, Type (0, 1), BuildingBlock: XIVTED_clean_linker_0, # of connection points: 2
#     Edge 32, Type (0, 1), BuildingBlock: XIVTED_clean_linker_0, # of connection points: 2
#     Edge 33, Type (0, 1), BuildingBlock: XIVTED_clean_linker_0, # of connection points: 2
#     Edge 34, Type (0, 1), BuildingBlock: XIVTED_clean_linker_0, # of connection points: 2
#     Edge 35, Type (0, 1), BuildingBlock: XIVTED_clean_linker_0, # of connection points: 2
#     Edge 36, Type (0, 1), BuildingBlock: XIVTED_clean_linker_0, # of connection points: 2
#     Edge 37, Type (0, 1), BuildingBlock: XIVTED_clean_linker_0, # of connection points: 2
#     Edge 38, Type (0, 1), BuildingBlock: XIVTED_clean_linker_0, # of connection points: 2
#     Edge 39, Type (0, 1), BuildingBlock: XIVTED_clean_linker_0, # of connection points: 2
#     Edge 40, Type (0, 1), BuildingBlock: XIVTED_clean_linker_0, # of connection points: 2
#     Edge 41, Type (0, 1), BuildingBlock: XIVTED_clean_linker_0, # of connection points: 2
#     Edge 42, Type (0, 1), BuildingBlock: XIVTED_clean_linker_0, # of connection points: 2
#     Edge 43, Type (0, 1), BuildingBlock: XIVTED_clean_linker_0, # of connection points: 2
#     Edge 44, Type (0, 1), BuildingBlock: XIVTED_clean_linker_0, # of connection points: 2
#     Edge 45, Type (0, 1), BuildingBlock: XIVTED_clean_linker_0, # of connection points: 2
#     Edge 46, Type (0, 1), BuildingBlock: XIVTED_clean_linker_0, # of connection points: 2
#     Edge 47, Type (0, 1), BuildingBlock: XIVTED_clean_linker_0, # of connection points: 2
#     Edge 48, Type (0, 1), BuildingBlock: XIVTED_clean_linker_0, # of connection points: 2
#     Edge 49, Type (0, 1), BuildingBlock: XIVTED_clean_linker_0, # of connection points: 2
#     Edge 50, Type (0, 1), BuildingBlock: XIVTED_clean_linker_0, # of connection points: 2
#     Edge 51, Type (0, 1), BuildingBlock: XIVTED_clean_linker_0, # of connection points: 2
#     Edge 52, Type (0, 1), BuildingBlock: XIVTED_clean_linker_0, # of connection points: 2
#     Edge 53, Type (0, 1), BuildingBlock: XIVTED_clean_linker_0, # of connection points: 2
#     Edge 54, Type (0, 1), BuildingBlock: XIVTED_clean_linker_0, # of connection points: 2
#     Edge 55, Type (0, 1), BuildingBlock: XIVTED_clean_linker_0, # of connection points: 2
#     Edge 56, Type (0, 1), BuildingBlock: XIVTED_clean_linker_0, # of connection points: 2
#     Edge 57, Type (0, 1), BuildingBlock: XIVTED_clean_linker_0, # of connection points: 2
#     Edge 58, Type (0, 1), BuildingBlock: XIVTED_clean_linker_0, # of connection points: 2
#     Edge 59, Type (0, 1), BuildingBlock: XIVTED_clean_linker_0, # of connection points: 2
#     Edge 60, Type (0, 1), BuildingBlock: XIVTED_clean_linker_0, # of connection points: 2
#     Edge 61, Type (0, 1), BuildingBlock: XIVTED_clean_linker_0, # of connection points: 2
#     Edge 62, Type (0, 1), BuildingBlock: XIVTED_clean_linker_0, # of connection points: 2
#     Edge 63, Type (0, 1), BuildingBlock: XIVTED_clean_linker_0, # of connection points: 2
#     Edge 64, Type (0, 1), BuildingBlock: XIVTED_clean_linker_0, # of connection points: 2
#     Edge 65, Type (0, 1), BuildingBlock: XIVTED_clean_linker_0, # of connection points: 2
#     Edge 66, Type (0, 1), BuildingBlock: XIVTED_clean_linker_0, # of connection points: 2
#     Edge 67, Type (0, 1), BuildingBlock: XIVTED_clean_linker_0, # of connection points: 2
#     Edge 68, Type (0, 1), BuildingBlock: XIVTED_clean_linker_0, # of connection points: 2
#     Edge 69, Type (0, 1), BuildingBlock: XIVTED_clean_linker_0, # of connection points: 2
#     Edge 70, Type (0, 1), BuildingBlock: XIVTED_clean_linker_0, # of connection points: 2
#     Edge 71, Type (0, 1), BuildingBlock: XIVTED_clean_linker_0, # of connection points: 2
#     Edge 72, Type (0, 1), BuildingBlock: XIVTED_clean_linker_0, # of connection points: 2
#     Edge 73, Type (0, 1), BuildingBlock: XIVTED_clean_linker_0, # of connection points: 2
#     Edge 74, Type (0, 1), BuildingBlock: XIVTED_clean_linker_0, # of connection points: 2
#     Edge 75, Type (0, 1), BuildingBlock: XIVTED_clean_linker_0, # of connection points: 2
# Relax obj value: 0.063
# Max RMSD: 0.181
# Mean RMSD: 0.112
data_MOF--net-ctn--node1-NAHDIM_clean_sbu_0--node2-PAMTOO_clean_linker_0--edge1-XIVTED_clean_linker_0
_symmetry_space_group_name_H-M    P1
_symmetry_Int_Tables_number       1
_symmetry_cell_setting            triclinic
loop_
_symmetry_equiv_pos_as_xyz
'x, y, z'
_cell_length_a     53.843272
_cell_length_b     54.511079
_cell_length_c     54.802761
_cell_angle_alpha  85.982527
_cell_angle_beta   92.432759
_cell_angle_gamma 99.992611
loop_
_atom_site_label
_atom_site_type_symbol
_atom_site_fract_x
_atom_site_fract_y
_atom_site_fract_z
_atom_type_partial_charge
H0 H 0.01589 0.10491 0.05186 0.0
H1 H 0.03961 0.03376 0.06738 0.0
H2 H 0.06201 0.07738 0.00134 0.0
H3 H 0.04615 0.0237 0.99628 0.0
C4 C 0.0546 0.0165 0.01365 0.0
O5 O 0.0651 0.03605 0.02749 0.0
H6 H 0.03934 0.00414 0.0239 0.0
C7 C 0.02634 0.09076 0.04698 0.0
C8 C 0.039 0.09393 0.0248 0.0
C9 C 0.02626 0.0691 0.06247 0.0
C10 C 0.03915 0.05048 0.05557 0.0
C11 C 0.05194 0.05355 0.03356 0.0
C12 C 0.05182 0.07517 0.01821 0.0
H13 H 0.30394 0.6844 0.25802 0.0
H14 H 0.25479 0.70256 0.19784 0.0
H15 H 0.31317 0.75904 0.22405 0.0
H16 H 0.26555 0.7766 0.21122 0.0
C17 C 0.25812 0.76353 0.19688 0.0
O18 O 0.27593 0.74922 0.19227 0.0
H19 H 0.24068 0.75137 0.20371 0.0
C20 C 0.29821 0.69782 0.24435 0.0
C21 C 0.31109 0.72263 0.24323 0.0
C22 C 0.27791 0.69023 0.22802 0.0
C23 C 0.27059 0.70781 0.21041 0.0
C24 C 0.28318 0.73252 0.20925 0.0
C25 C 0.3034 0.73989 0.22549 0.0
H26 H 0.97463 0.51342 0.08764 0.0
H27 H 0.95824 0.49247 0.01352 0.0
H28 H 0.00933 0.45628 0.05912 0.0
H29 H 0.02491 0.47089 0.00853 0.0
C30 C 0.00617 0.46641 0.99897 0.0
O31 O 0.98761 0.45898 0.01581 0.0
H32 H 0.0025 0.48356 0.98818 0.0
C33 C 0.97699 0.50185 0.0729 0.0
C34 C 0.99348 0.48441 0.07633 0.0
C35 C 0.96428 0.50512 0.05026 0.0
C36 C 0.96809 0.49056 0.03102 0.0
C37 C 0.98439 0.47315 0.03429 0.0
C38 C 0.99699 0.47006 0.05684 0.0
H39 H 0.69773 0.84127 0.24674 0.0
H40 H 0.67545 0.76696 0.22256 0.0
H41 H 0.74306 0.81271 0.19608 0.0
H42 H 0.7017 0.78639 0.16119 0.0
C43 C 0.70266 0.76762 0.1703 0.0
O44 O 0.71334 0.76971 0.19354 0.0
H45 H 0.68301 0.75723 0.1715 0.0
C46 C 0.70119 0.82635 0.23594 0.0
C47 C 0.72269 0.82982 0.22158 0.0
C48 C 0.68406 0.80375 0.2365 0.0
C49 C 0.68857 0.78445 0.22252 0.0
C50 C 0.70961 0.78795 0.20771 0.0
C51 C 0.72665 0.81049 0.20733 0.0
H52 H 0.08618 0.96764 0.51158 0.0
H53 H 0.01915 0.94767 0.46638 0.0
H54 H 0.06921 0.01625 0.45003 0.0
H55 H 0.01494 0.01979 0.44682 0.0
C56 C 0.00733 0.0008 0.44074 0.0
O57 O 0.02694 0.98817 0.43768 0.0
H58 H 0.99464 0.9907 0.45505 0.0
C59 C 0.07425 0.97151 0.49586 0.0
C60 C 0.08072 0.99383 0.48131 0.0
C61 C 0.05198 0.95466 0.49084 0.0
C62 C 0.03624 0.96042 0.4709 0.0
C63 C 0.0424 0.9827 0.45653 0.0
C64 C 0.06458 0.99927 0.46162 0.0
H65 H 0.18458 0.75861 0.81144 0.0
H66 H 0.21351 0.70928 0.76606 0.0
H67 H 0.25568 0.7348 0.8301 0.0
H68 H 0.28553 0.73397 0.78695 0.0
C69 C 0.27456 0.7172 0.77865 0.0
O70 O 0.25435 0.7072 0.79294 0.0
H71 H 0.26769 0.72315 0.76009 0.0
C72 C 0.19926 0.74831 0.80741 0.0
C73 C 0.22047 0.74867 0.82338 0.0
C74 C 0.19643 0.73414 0.78668 0.0
C75 C 0.21511 0.72012 0.78206 0.0
C76 C 0.23636 0.72048 0.79771 0.0
C77 C 0.23897 0.73458 0.81833 0.0
H78 H 0.95432 0.5609 0.5178 0.0
H79 H 0.97501 0.52448 0.45634 0.0
H80 H 0.0209 0.59218 0.47767 0.0
H81 H 0.0153 0.58838 0.4242 0.0
C82 C 0.01089 0.56769 0.42378 0.0
O83 O 0.01527 0.55716 0.44684 0.0
H84 H 0.99071 0.56232 0.41802 0.0
C85 C 0.96687 0.56034 0.50298 0.0
C86 C 0.98823 0.57911 0.49987 0.0
C87 C 0.96186 0.54049 0.48743 0.0
C88 C 0.97866 0.53937 0.4688 0.0
C89 C -0.0002 0.558 0.46541 0.0
C90 C 0.00463 0.57772 0.48089 0.0
H91 H 0.76906 0.80122 0.84435 0.0
H92 H 0.8235 0.76821 0.8081 0.0
H93 H 0.79083 0.82723 0.771 0.0
H94 H 0.80254 0.79054 0.73577 0.0
C95 C 0.81445 0.78105 0.74913 0.0
O96 O 0.82256 0.79642 0.76786 0.0
H97 H 0.80272 0.7633 0.75625 0.0
C98 C 0.78037 0.80039 0.82863 0.0
C99 C 0.77801 0.81647 0.80776 0.0
C100 C 0.79647 0.7826 0.82891 0.0
C101 C 0.81062 0.78142 0.80818 0.0
C102 C 0.80845 0.79743 0.78742 0.0
C103 C 0.79214 0.81481 0.78715 0.0
H104 H 0.26467 0.30473 0.35292 0.0
H105 H 0.3206 0.26826 0.32327 0.0
H106 H 0.28935 0.32404 0.27925 0.0
H107 H 0.29851 0.2842 0.24979 0.0
C108 C 0.31166 0.27578 0.26268 0.0
O109 O 0.32041 0.29213 0.28046 0.0
H110 H 0.30111 0.25805 0.27117 0.0
C111 C 0.27666 0.30249 0.33814 0.0
C112 C 0.2751 0.31675 0.3159 0.0
C113 C 0.29294 0.28481 0.34114 0.0
C114 C 0.30765 0.28148 0.32142 0.0
C115 C 0.30608 0.29545 0.29919 0.0
C116 C 0.29 0.31309 0.29647 0.0
H117 H 0.46628 0.00436 0.59593 0.0
H118 H 0.4535 0.97792 0.52336 0.0
H119 H 0.50974 0.95209 0.57101 0.0
H120 H 0.524 0.96028 0.52094 0.0
C121 C 0.50525 0.95608 0.5114 0.0
O122 O 0.48677 0.94842 0.52831 0.0
H123 H 0.50143 0.97334 0.5009 0.0
C124 C 0.47101 0.99331 0.58168 0.0
C125 C 0.48996 0.97859 0.58632 0.0
C126 C 0.45757 0.99327 0.55907 0.0
C127 C 0.46328 0.97813 0.54106 0.0
C128 C 0.48189 0.96328 0.54556 0.0
C129 C 0.49513 0.96346 0.56806 0.0
H130 H 0.21963 0.34908 0.75285 0.0
H131 H 0.19247 0.27833 0.72224 0.0
H132 H 0.26571 0.31868 0.70442 0.0
H133 H 0.23095 0.29866 0.66419 0.0
C134 C 0.22519 0.27949 0.67279 0.0
O135 O 0.23273 0.27858 0.69715 0.0
H136 H 0.20425 0.2748 0.67121 0.0
C137 C 0.22221 0.33457 0.74112 0.0
C138 C 0.24494 0.33658 0.72887 0.0
C139 C 0.20315 0.31358 0.73906 0.0
C140 C 0.20703 0.29452 0.7244 0.0
C141 C 0.2295 0.29653 0.71189 0.0
C142 C 0.24848 0.31734 0.71432 0.0
H143 H 0.79503 0.18322 0.77776 0.0
H144 H 0.74775 0.19533 0.71426 0.0
H145 H 0.81205 0.25045 0.73079 0.0
H146 H 0.76626 0.27003 0.71606 0.0
C147 C 0.75797 0.25627 0.70259 0.0
O148 O 0.77351 0.23891 0.70079 0.0
H149 H 0.73921 0.24684 0.70917 0.0
C150 C 0.79056 0.1949 0.76191 0.0
C151 C 0.80632 0.21783 0.75623 0.0
C152 C 0.76949 0.1865 0.74682 0.0
C153 C 0.76412 0.20133 0.72594 0.0
C154 C 0.77937 0.22437 0.7204 0.0
C155 C 0.80051 0.23249 0.73532 0.0
H156 H 0.5115 0.58416 0.54741 0.0
H157 H 0.54934 0.5221 0.5687 0.0
H158 H 0.56387 0.5622 0.49942 0.0
H159 H 0.55584 0.50765 0.49853 0.0
C160 C 0.56535 0.50317 0.51632 0.0
O161 O 0.5736 0.5247 0.52819 0.0
H162 H 0.55141 0.49026 0.52764 0.0
C163 C 0.5249 0.57225 0.54379 0.0
C164 C 0.53741 0.57592 0.52148 0.0
C165 C 0.52897 0.55295 0.56112 0.0
C166 C 0.54557 0.53696 0.55563 0.0
C167 C 0.55774 0.54018 0.53329 0.0
C168 C 0.55383 0.55967 0.51637 0.0
H169 H 0.59124 0.46475 0.02066 0.0
H170 H 0.52148 0.45326 0.97813 0.0
H171 H 0.57691 0.51816 0.96231 0.0
H172 H 0.52637 0.52864 0.9588 0.0
C173 C 0.51568 0.50999 0.95453 0.0
O174 O 0.53231 0.49423 0.95041 0.0
H175 H 0.50394 0.50244 0.97049 0.0
C176 C 0.5791 0.47075 0.006 0.0
C177 C 0.58722 0.49316 0.99205 0.0
C178 C 0.55539 0.45613 0.00127 0.0
C179 C 0.53974 0.46424 0.98232 0.0
C180 C 0.54761 0.48652 0.9684 0.0
C181 C 0.5713 0.50081 0.97311 0.0
H182 H 0.68648 0.26644 0.31209 0.0
H183 H 0.70378 0.21065 0.2668 0.0
H184 H 0.75392 0.23439 0.32661 0.0
H185 H 0.77892 0.22812 0.28235 0.0
C186 C 0.76561 0.21216 0.27505 0.0
O187 O 0.74574 0.20501 0.29053 0.0
H188 H 0.75836 0.21823 0.25669 0.0
C189 C 0.69907 0.25408 0.30749 0.0
C190 C 0.721 0.25243 0.322 0.0
C191 C 0.69263 0.23899 0.28765 0.0
C192 C 0.70843 0.22234 0.28211 0.0
C193 C 0.73054 0.22095 0.29607 0.0
C194 C 0.73671 0.23577 0.31602 0.0
H195 H 0.43827 0.05602 0.02345 0.0
H196 H 0.46753 0.018 0.96753 0.0
H197 H 0.51322 0.08189 0.9973 0.0
H198 H 0.52463 0.07857 0.94521 0.0
C199 C 0.51415 0.05929 0.94342 0.0
O200 O 0.51125 0.0472 0.96634 0.0
H201 H 0.49543 0.06073 0.93448 0.0
C202 C 0.45331 0.05426 0.0115 0.0
C203 C 0.47601 0.07144 0.01226 0.0
C204 C 0.44994 0.03483 0.99543 0.0
C205 C 0.46971 0.03268 0.9802 0.0
C206 C 0.49234 0.04968 0.98089 0.0
C207 C 0.49548 0.069 0.99682 0.0
C208 C 0.1986 0.92746 0.98586 0.0
O209 O 0.21318 0.93448 0.96712 0.0
O210 O 0.22975 0.87261 0.96939 0.0
Zn211 Zn 0.23444 0.89429 0.99824 0.0
O212 O 0.26548 0.92054 0.99399 0.0
C213 C 0.22228 0.85692 0.03818 0.0
O214 O 0.20058 0.85192 0.02612 0.0
O215 O 0.204 0.91053 0.00129 0.0
C216 C 0.28677 0.91343 0.99454 0.0
O217 O 0.28755 0.88944 0.99723 0.0
C218 C 0.23748 0.8518 0.97012 0.0
O219 O 0.24856 0.84395 0.99027 0.0
O220 O 0.23936 0.87401 0.02958 0.0
C221 C 0.16641 0.44939 0.2944 0.0
O222 O 0.16963 0.46786 0.30903 0.0
O223 O 0.11537 0.48824 0.29504 0.0
Zn224 Zn 0.13621 0.48099 0.26748 0.0
O225 O 0.16397 0.51066 0.26287 0.0
C226 C 0.09093 0.47339 0.2359 0.0
O227 O 0.0791 0.47062 0.25664 0.0
O228 O 0.15205 0.45046 0.27548 0.0
C229 C 0.17152 0.51998 0.24202 0.0
O230 O 0.16169 0.50935 0.22223 0.0
C231 C 0.10992 0.51009 0.29384 0.0
O232 O 0.1175 0.52551 0.27507 0.0
O233 O 0.11492 0.47738 0.23629 0.0
C234 C 0.84315 0.62538 0.0188 0.0
O235 O 0.84495 0.64107 -0.00061 0.0
O236 O 0.80076 0.66608 0.99484 0.0
Zn237 Zn 0.7945 0.64111 0.02381 0.0
O238 O 0.76395 0.61587 0.01559 0.0
C239 C 0.79408 0.68143 0.05581 0.0
O240 O 0.80991 0.69435 0.04016 0.0
O241 O 0.82386 0.62301 0.03193 0.0
C242 C 0.75196 0.60227 0.0325 0.0
O243 O 0.76018 0.6045 0.05529 0.0
C244 C 0.79778 0.65877 0.97322 0.0
O245 O 0.7918 0.63475 0.97013 0.0
O246 O 0.78595 0.6585 0.05277 0.0
C247 C 0.85579 0.06669 0.26353 0.0
O248 O 0.86006 0.05323 0.28362 0.0
O249 O 0.90176 0.02847 0.27347 0.0
Zn250 Zn 0.88005 0.03073 0.24286 0.0
O251 O 0.85386 -0.00035 0.24147 0.0
C252 C 0.91999 0.05205 0.21066 0.0
O253 O 0.92377 0.06936 0.22658 0.0
O254 O 0.86277 0.06066 0.24323 0.0
C255 C 0.84548 0.99107 0.22118 0.0
O256 O 0.85378 0.00304 0.20068 0.0
C257 C 0.90579 0.00752 0.28295 0.0
O258 O 0.8958 0.98705 0.27239 0.0
O259 O 0.90207 0.03373 0.21376 0.0
C260 C 0.32048 0.0959 0.52424 0.0
O261 O 0.30298 0.08971 0.50727 0.0
O262 O 0.29674 0.15691 0.4997 0.0
Zn263 Zn 0.2901 0.13293 0.52953 0.0
O264 O 0.25881 0.10814 0.52234 0.0
C265 C 0.29854 0.16864 0.56775 0.0
O266 O 0.32102 0.17534 0.55852 0.0
O267 O 0.31931 0.11454 0.5366 0.0
C268 C 0.23794 0.11577 0.51825 0.0
O269 O 0.2373 0.1397 0.5189 0.0
C270 C 0.28984 0.17814 0.49819 0.0
O271 O 0.2787 0.1851 0.51676 0.0
O272 O 0.28317 0.15101 0.55864 0.0
C273 C 0.38471 0.58718 0.76749 0.0
O274 O 0.40551 0.5876 0.78099 0.0
O275 O 0.41891 0.53757 0.78149 0.0
Zn276 Zn 0.39743 0.54137 0.75093 0.0
O277 O 0.37223 0.50983 0.74656 0.0
C278 C 0.43204 0.5317 0.71593 0.0
O279 O 0.43059 0.51081 0.72966 0.0
O280 O 0.37798 0.56957 0.75331 0.0
C281 C 0.37611 0.48818 0.75409 0.0
O282 O 0.39748 0.48566 0.76565 0.0
C283 C 0.40887 0.52999 0.80183 0.0
O284 O 0.38417 0.52464 0.80276 0.0
O285 O 0.41958 0.54816 0.72158 0.0
C286 C 0.71603 0.42254 0.49119 0.0
O287 O 0.7292 0.42844 0.47135 0.0
O288 O 0.74762 0.37041 0.47312 0.0
Zn289 Zn 0.75293 0.39053 0.50303 0.0
O290 O 0.78391 0.41688 0.49943 0.0
C291 C 0.73987 0.35174 0.54105 0.0
O292 O 0.71829 0.34819 0.52859 0.0
O293 O 0.72269 0.40674 0.50719 0.0
C294 C 0.8054 0.4103 0.49918 0.0
O295 O 0.80676 0.38641 0.50089 0.0
C296 C 0.75531 0.34969 0.47248 0.0
O297 O 0.76701 0.34098 0.49184 0.0
O298 O 0.75759 0.36868 0.53338 0.0
C299 C 0.668 0.94782 0.7977 0.0
O300 O 0.67741 0.96948 0.80634 0.0
O301 O 0.60601 0.97708 0.80928 0.0
Zn302 Zn 0.62784 0.97423 0.78082 0.0
O303 O 0.65292 0.00619 0.77501 0.0
C304 C 0.59402 0.98766 0.74307 0.0
O305 O 0.59728 0.00785 0.75541 0.0
O306 O 0.6467 0.94522 0.78634 0.0
C307 C 0.65151 0.02622 0.78506 0.0
O308 O 0.63315 0.02657 0.79997 0.0
C309 C 0.6145 0.97997 0.83109 0.0
O310 O 0.63853 0.97975 0.83611 0.0
O311 O 0.60533 0.9698 0.75057 0.0
C312 C 0.02632 0.24919 0.91881 0.0
O313 O 0.03711 0.2713 0.92552 0.0
O314 O 0.98133 0.2719 0.8546 0.0
Zn315 Zn 0.01304 0.27785 0.8756 0.0
O316 O 0.01391 0.30793 0.89531 0.0
C317 C 0.04945 0.30124 0.83962 0.0
O318 O 0.03617 0.31938 0.83833 0.0
O319 O 0.01452 0.24745 0.89826 0.0
C320 C 0.00177 0.32547 0.88886 0.0
O321 O 0.98825 0.32442 0.86832 0.0
C322 C 0.96006 0.2647 0.8643 0.0
O323 O 0.95905 0.26154 0.88825 0.0
O324 O 0.04305 0.28227 0.85423 0.0
C325 C 0.50997 0.71715 0.40128 0.0
O326 O 0.50957 0.71496 0.37753 0.0
O327 O 0.47308 0.75888 0.36493 0.0
Zn328 Zn 0.50464 0.76743 0.38597 0.0
O329 O 0.50385 0.79705 0.40594 0.0
C330 C 0.5341 0.78359 0.34297 0.0
O331 O 0.51336 0.79126 0.33456 0.0
O332 O 0.50788 0.73801 0.40926 0.0
C333 C 0.50915 0.81969 0.39777 0.0
O334 O 0.51518 0.82477 0.37478 0.0
C335 C 0.45673 0.77295 0.36032 0.0
O336 O 0.45971 0.79467 0.37 0.0
O337 O 0.53479 0.77337 0.3645 0.0
C338 C 0.00651 0.80007 0.60177 0.0
O339 O 0.98273 0.7896 0.60378 0.0
O340 O 0.98156 0.76558 0.65454 0.0
Zn341 Zn 0.0129 0.761 0.63787 0.0
O342 O 0.00578 0.73051 0.61832 0.0
C343 C 0.04633 0.73791 0.67198 0.0
O344 O 0.0325 0.71695 0.6655 0.0
O345 O 0.02326 0.79095 0.61471 0.0
C346 C 0.02357 0.72425 0.60696 0.0
O347 O 0.04628 0.73763 0.60864 0.0
C348 C 0.97046 0.74973 0.67035 0.0
O349 O 0.97967 0.72928 0.67643 0.0
O350 O 0.0412 0.75857 0.66276 0.0
C351 C 0.49889 0.30167 0.10932 0.0
O352 O 0.47491 0.29318 0.11309 0.0
O353 O 0.47543 0.2635 0.16112 0.0
Zn354 Zn 0.50606 0.25973 0.14254 0.0
O355 O 0.49922 0.23003 0.12156 0.0
C356 C 0.53417 0.24537 0.18657 0.0
O357 O 0.51217 0.23326 0.19373 0.0
O358 O 0.51547 0.29039 0.12004 0.0
C359 C 0.50102 0.20783 0.12924 0.0
O360 O 0.50719 0.20315 0.15232 0.0
C361 C 0.45874 0.24542 0.16863 0.0
O362 O 0.46101 0.22252 0.16435 0.0
O363 O 0.53573 0.25751 0.16587 0.0
H364 H 0.23765 0.73607 0.86966 0.0
H365 H 0.21751 0.86329 0.92473 0.0
H366 H 0.20954 0.79561 0.82697 0.0
H367 H 0.25069 0.80603 0.96596 0.0
H368 H 0.21336 0.83828 0.88901 0.0
H369 H 0.24185 0.7611 0.90534 0.0
C370 C 0.2325 0.75447 0.86773 0.0
C371 C 0.22322 0.76372 0.84524 0.0
C372 C 0.22155 0.83118 0.90587 0.0
C373 C 0.22769 0.7924 0.88616 0.0
C374 C 0.22389 0.84544 0.9263 0.0
C375 C 0.23449 0.83676 0.94839 0.0
C376 C 0.22979 0.80802 0.90753 0.0
C377 C 0.24244 0.81349 0.94931 0.0
C378 C 0.23477 0.7687 0.88817 0.0
C379 C 0.21645 0.78755 0.84399 0.0
N380 N 0.23992 0.79995 0.92919 0.0
N381 N 0.21882 0.80104 0.86415 0.0
H382 H 0.01626 0.5195 0.41692 0.0
H383 H 0.09994 0.55687 0.29854 0.0
H384 H 0.04041 0.59529 0.38859 0.0
H385 H 0.08734 0.48241 0.33334 0.0
H386 H 0.07654 0.57072 0.33051 0.0
H387 H 0.0407 0.50496 0.38572 0.0
C388 C 0.02695 0.53305 0.40425 0.0
C389 C 0.02676 0.55863 0.40553 0.0
C390 C 0.0789 0.55135 0.33122 0.0
C391 C 0.05423 0.54222 0.36959 0.0
C392 C 0.09222 0.54339 0.3129 0.0
C393 C 0.09561 0.51841 0.31324 0.0
C394 C 0.06869 0.53423 0.35001 0.0
C395 C 0.0852 0.50184 0.33238 0.0
C396 C 0.04082 0.52478 0.38645 0.0
C397 C 0.04039 0.57544 0.38841 0.0
N398 N 0.07214 0.51003 0.34999 0.0
N399 N 0.05356 0.56694 0.37114 0.0
H400 H 0.79917 0.79234 0.87752 0.0
H401 H 0.79516 0.64941 0.92471 0.0
H402 H 0.79745 0.73252 0.82956 0.0
H403 H 0.80463 0.70984 0.973 0.0
H404 H 0.79616 0.67971 0.88965 0.0
H405 H 0.80097 0.76251 0.9128 0.0
C406 C 0.79911 0.77292 0.87442 0.0
C407 C 0.79813 0.76491 0.85055 0.0
C408 C 0.79813 0.68638 0.90791 0.0
C409 C 0.80033 0.7307 0.89082 0.0
C410 C 0.79756 0.66906 0.92795 0.0
C411 C 0.79973 0.67708 0.95185 0.0
C412 C 0.80075 0.71193 0.91173 0.0
C413 C 0.80286 0.70281 0.95491 0.0
C414 C 0.8003 0.75593 0.89456 0.0
C415 C 0.79846 0.73958 0.84761 0.0
N416 N 0.80314 0.7193 0.93509 0.0
N417 N 0.79943 0.72339 0.86749 0.0
H418 H 0.00358 0.04223 0.41 0.0
H419 H 0.91486 0.96578 0.31022 0.0
H420 H 0.97786 0.96277 0.41777 0.0
H421 H 0.93172 0.04628 0.30792 0.0
H422 H 0.93983 0.96408 0.34839 0.0
H423 H 0.97926 0.04394 0.37129 0.0
C424 C 0.99272 0.02517 0.40352 0.0
C425 C 0.99245 0.00235 0.41705 0.0
C426 C 0.93806 0.98212 0.33953 0.0
C427 C 0.96484 0.00405 0.37284 0.0
C428 C 0.92385 0.9831 0.3177 0.0
C429 C 0.92117 0.00621 0.30586 0.0
C430 C 0.94979 0.00439 0.34955 0.0
C431 C 0.93323 0.02805 0.31644 0.0
C432 C 0.97886 0.02612 0.38146 0.0
C433 C 0.97832 0.98072 0.40783 0.0
N434 N 0.94703 0.0266 0.33767 0.0
N435 N 0.96506 0.98208 0.38627 0.0
H436 H 0.20495 0.23154 0.66217 0.0
H437 H 0.32363 0.21153 0.58706 0.0
H438 H 0.27258 0.28641 0.6544 0.0
H439 H 0.25357 0.15926 0.59094 0.0
H440 H 0.30708 0.23735 0.61506 0.0
H441 H 0.22418 0.20297 0.63937 0.0
C442 C 0.22387 0.23751 0.6556 0.0
C443 C 0.23706 0.26146 0.65959 0.0
C444 C 0.29541 0.22014 0.60991 0.0
C445 C 0.25931 0.22895 0.63378 0.0
C446 C 0.30487 0.20534 0.59397 0.0
C447 C 0.28991 0.18327 0.58648 0.0
C448 C 0.27081 0.2128 0.61844 0.0
C449 C 0.26574 0.1762 0.59606 0.0
C450 C 0.23487 0.22124 0.64264 0.0
C451 C 0.26171 0.2682 0.65123 0.0
N452 N 0.25692 0.19098 0.61141 0.0
N453 N 0.272 0.25209 0.63854 0.0
H454 H 0.50933 0.50904 0.58656 0.0
H455 H 0.44443 0.57456 0.68652 0.0
H456 H 0.51838 0.58907 0.5897 0.0
H457 H 0.45433 0.49746 0.69475 0.0
H458 H 0.46896 0.57991 0.64935 0.0
H459 H 0.48689 0.50405 0.62487 0.0
C460 C 0.50682 0.52558 0.59536 0.0
C461 C 0.51576 0.54953 0.58475 0.0
C462 C 0.46584 0.56186 0.65937 0.0
C463 C 0.48959 0.54388 0.62843 0.0
C464 C 0.45179 0.55877 0.68054 0.0
C465 C 0.44731 0.53552 0.69375 0.0
C466 C 0.47523 0.54148 0.65121 0.0
C467 C 0.45735 0.51573 0.68517 0.0
C468 C 0.49387 0.52269 0.61718 0.0
C469 C 0.51146 0.57024 0.59687 0.0
N470 N 0.47072 0.51913 0.66438 0.0
N471 N 0.49859 0.56693 0.61798 0.0
H472 H 0.71883 0.24792 0.66872 0.0
H473 H 0.78142 0.35561 0.572 0.0
H474 H 0.79116 0.29421 0.6806 0.0
H475 H 0.70622 0.31375 0.56271 0.0
H476 H 0.78628 0.33166 0.6107 0.0
H477 H 0.71474 0.27018 0.62869 0.0
C478 C 0.73378 0.26288 0.66286 0.0
C479 C 0.75513 0.26967 0.67802 0.0
C480 C 0.76872 0.32768 0.60019 0.0
C481 C 0.75083 0.29493 0.63231 0.0
C482 C 0.76594 0.34133 0.57805 0.0
C483 C 0.74333 0.33675 0.56411 0.0
C484 C 0.74878 0.30924 0.60848 0.0
C485 C 0.72395 0.31797 0.57288 0.0
C486 C 0.73149 0.27554 0.64005 0.0
C487 C 0.77424 0.28878 0.6695 0.0
N488 N 0.7271 0.30494 0.59452 0.0
N489 N 0.77161 0.30083 0.64723 0.0
H490 H 0.50586 0.93955 0.61356 0.0
H491 H 0.57071 0.0241 0.72021 0.0
H492 H 0.50729 0.01902 0.61325 0.0
H493 H 0.58049 0.94777 0.7145 0.0
H494 H 0.54472 0.02163 0.68261 0.0
H495 H 0.53074 0.94136 0.65194 0.0
C496 C 0.51147 0.95741 0.62148 0.0
C497 C 0.50448 0.97919 0.61005 0.0
C498 C 0.55253 0.00541 0.68957 0.0
C499 C 0.53271 0.98129 0.65422 0.0
C500 C 0.56736 0.00678 0.71109 0.0
C501 C 0.57786 0.98612 0.72052 0.0
C502 C 0.54803 0.98317 0.67738 0.0
C503 C 0.57284 0.96418 0.70786 0.0
C504 C 0.52558 0.95839 0.64347 0.0
C505 C 0.51191 0.00169 0.62149 0.0
N506 N 0.55827 0.96328 0.68695 0.0
N507 N 0.52561 0.00215 0.6429 0.0
H508 H 0.85361 0.23996 0.74204 0.0
H509 H 0.9118 0.24724 0.87884 0.0
H510 H 0.81037 0.215 0.80638 0.0
H511 H 0.95551 0.26967 0.81431 0.0
H512 H 0.87402 0.23706 0.85269 0.0
H513 H 0.89069 0.25288 0.76832 0.0
C514 C 0.85186 0.23737 0.7617 0.0
C515 C 0.82884 0.22631 0.77201 0.0
C516 C 0.89187 0.24426 0.84425 0.0
C517 C 0.87132 0.24083 0.80224 0.0
C518 C 0.91345 0.2501 0.85918 0.0
C519 C 0.93689 0.25923 0.84876 0.0
C520 C 0.8937 0.2476 0.8187 0.0
C521 C 0.93786 0.2626 0.82315 0.0
C522 C 0.87308 0.24462 0.7767 0.0
C523 C 0.8278 0.22311 0.79762 0.0
N524 N 0.9166 0.25673 0.80902 0.0
N525 N 0.84873 0.23031 0.81184 0.0
H526 H 0.5083 0.90712 0.52362 0.0
H527 H 0.51416 0.86989 0.38549 0.0
H528 H 0.50413 0.95886 0.461 0.0
H529 H 0.50284 0.81595 0.44728 0.0
H530 H 0.51336 0.90321 0.41295 0.0
H531 H 0.50927 0.87383 0.49601 0.0
C532 C 0.50747 0.91137 0.50402 0.0
C533 C 0.50574 0.93558 0.49451 0.0
C534 C 0.51101 0.88408 0.42048 0.0
C535 C 0.50721 0.89785 0.46284 0.0
C536 C 0.51152 0.86504 0.40482 0.0
C537 C 0.50855 0.84007 0.41409 0.0
C538 C 0.50771 0.87814 0.44562 0.0
C539 C 0.50515 0.83492 0.43931 0.0
C540 C 0.50803 0.89243 0.48829 0.0
C541 C 0.50517 0.94033 0.46902 0.0
N542 N 0.50489 0.85378 0.45419 0.0
N543 N 0.50589 0.92162 0.45405 0.0
H544 H 0.17471 0.34997 0.74371 0.0
H545 H 0.07867 0.26547 0.83555 0.0
H546 H 0.1777 0.27278 0.76498 0.0
H547 H 0.07064 0.34007 0.8084 0.0
H548 H 0.11524 0.26804 0.81012 0.0
H549 H 0.13681 0.34692 0.76754 0.0
C550 C 0.16739 0.33238 0.75343 0.0
C551 C 0.17944 0.31162 0.75245 0.0
C552 C 0.10546 0.28383 0.80967 0.0
C553 C 0.13602 0.30797 0.77969 0.0
C554 C 0.08459 0.28241 0.82424 0.0
C555 C 0.07157 0.30262 0.82415 0.0
C556 C 0.11352 0.30566 0.79495 0.0
C557 C 0.0801 0.32405 0.80906 0.0
C558 C 0.14569 0.33062 0.76693 0.0
C559 C 0.16891 0.28918 0.76507 0.0
N560 N 0.10059 0.32504 0.79512 0.0
N561 N 0.14788 0.288 0.77827 0.0
H562 H 0.53393 0.62378 0.53114 0.0
H563 H 0.51486 0.66982 0.39069 0.0
H564 H 0.53181 0.57581 0.4714 0.0
H565 H 0.51315 0.71598 0.4513 0.0
H566 H 0.52147 0.63522 0.41973 0.0
H567 H 0.52668 0.65783 0.50193 0.0
C568 C 0.53179 0.62035 0.51187 0.0
C569 C 0.53338 0.59684 0.50373 0.0
C570 C 0.51961 0.65291 0.42666 0.0
C571 C 0.52536 0.63593 0.47007 0.0
C572 C 0.51583 0.67268 0.41009 0.0
C573 C 0.51347 0.69586 0.41856 0.0
C574 C 0.52109 0.65635 0.45187 0.0
C575 C 0.51487 0.69846 0.44391 0.0
C576 C 0.52778 0.63986 0.49517 0.0
C577 C 0.53097 0.59368 0.47848 0.0
N578 N 0.51863 0.67898 0.45964 0.0
N579 N 0.52705 0.61299 0.46254 0.0
H580 H 0.84013 0.74225 0.76014 0.0
H581 H 0.9455 0.78915 0.66044 0.0
H582 H 0.84058 0.80781 0.71134 0.0
H583 H 0.94269 0.72087 0.706 0.0
H584 H 0.90742 0.79652 0.67926 0.0
H585 H 0.87804 0.73425 0.74097 0.0
C586 C 0.84815 0.75479 0.74519 0.0
C587 C 0.83704 0.77538 0.73687 0.0
C588 C 0.91511 0.77991 0.68515 0.0
C589 C 0.88052 0.76673 0.71519 0.0
C590 C 0.93689 0.77569 0.67442 0.0
C591 C 0.94735 0.75435 0.68166 0.0
C592 C 0.90365 0.76271 0.70332 0.0
C593 C 0.93531 0.73757 0.69984 0.0
C594 C 0.86978 0.7503 0.73432 0.0
C595 C 0.8484 0.79147 0.71791 0.0
N596 N 0.91412 0.74213 0.71006 0.0
N597 N 0.86951 0.78678 0.70766 0.0
H598 H 0.00497 0.93305 0.50641 0.0
H599 H 0.05401 0.82407 0.59022 0.0
H600 H 0.08294 0.92324 0.51151 0.0
H601 H 0.97519 0.827 0.57508 0.0
H602 H 0.06518 0.86134 0.56279 0.0
H603 H 0.99386 0.89502 0.53268 0.0
C604 C 0.01975 0.92281 0.51287 0.0
C605 C 0.04495 0.93139 0.50666 0.0
C606 C 0.04545 0.85379 0.56543 0.0
C607 C 0.03236 0.88797 0.53715 0.0
C608 C 0.03905 0.83253 0.58112 0.0
C609 C 0.01362 0.8224 0.58498 0.0
C610 C 0.02629 0.86511 0.55361 0.0
C611 C 0.99504 0.83414 0.57265 0.0
C612 C 0.01339 0.90115 0.528 0.0
C613 C 0.06333 0.91755 0.51605 0.0
N614 N 0.00175 0.85491 0.55759 0.0
N615 N 0.05667 0.89657 0.53085 0.0
H616 H 0.16749 0.69439 0.76525 0.0
H617 H 0.07722 0.77772 0.69116 0.0
H618 H 0.17454 0.77405 0.7697 0.0
H619 H 0.06517 0.69726 0.6923 0.0
H620 H 0.11357 0.77675 0.71915 0.0
H621 H 0.13078 0.69509 0.73748 0.0
C622 C 0.16138 0.71204 0.7603 0.0
C623 C 0.17409 0.73419 0.76983 0.0
C624 C 0.10296 0.75929 0.71333 0.0
C625 C 0.13201 0.73512 0.73819 0.0
C626 C 0.08218 0.75983 0.69731 0.0
C627 C 0.0681 0.73753 0.68934 0.0
C628 C 0.10982 0.7363 0.72139 0.0
C629 C 0.07544 0.71491 0.69797 0.0
C630 C 0.14033 0.71241 0.74457 0.0
C631 C 0.16514 0.75648 0.76303 0.0
N632 N 0.09583 0.71488 0.71348 0.0
N633 N 0.1447 0.75637 0.7476 0.0
H634 H 0.95395 0.60442 0.51815 0.0
H635 H 0.05802 0.70303 0.5841 0.0
H636 H 0.03377 0.60225 0.51868 0.0
H637 H 0.97809 0.69579 0.59513 0.0
H638 H 0.04955 0.66745 0.55842 0.0
H639 H 0.96245 0.63908 0.54486 0.0
C640 C 0.97325 0.61107 0.52401 0.0
C641 C 0.99316 0.60028 0.51615 0.0
C642 C 0.03387 0.67361 0.56651 0.0
C643 C 0.00305 0.64036 0.54647 0.0
C644 C 0.03868 0.69396 0.58115 0.0
C645 C 0.01873 0.70243 0.59177 0.0
C646 C 0.0089 0.66173 0.5623 0.0
C647 C 0.99406 0.68989 0.58734 0.0
C648 C 0.9781 0.63098 0.53918 0.0
C649 C 0.01784 0.61014 0.52398 0.0
N650 N 0.98984 0.67024 0.57286 0.0
N651 N 0.02208 0.62962 0.53865 0.0
H652 H 0.74089 0.85648 0.26091 0.0
H653 H 0.82539 0.96618 0.18123 0.0
H654 H 0.74608 0.85721 0.18248 0.0
H655 H 0.82373 0.9623 0.26012 0.0
H656 H 0.79553 0.92691 0.18108 0.0
H657 H 0.77038 0.8959 0.26074 0.0
C658 C 0.74815 0.86501 0.24362 0.0
C659 C 0.74094 0.85357 0.22166 0.0
C660 C 0.8017 0.93466 0.19841 0.0
C661 C 0.77493 0.89866 0.22134 0.0
C662 C 0.81872 0.95711 0.19852 0.0
C663 C 0.82709 0.96756 0.22073 0.0
C664 C 0.79293 0.92259 0.22067 0.0
C665 C 0.81782 0.95495 0.24256 0.0
C666 C 0.76511 0.88746 0.24355 0.0
C667 C 0.7513 0.86526 0.19986 0.0
N668 N 0.80124 0.93315 0.24198 0.0
N669 N 0.76772 0.88721 0.20024 0.0
H670 H 0.78889 0.18761 0.31204 0.0
H671 H 0.8396 0.09588 0.22535 0.0
H672 H 0.77389 0.18838 0.23414 0.0
H673 H 0.84271 0.08712 0.30427 0.0
H674 H 0.81803 0.13156 0.22788 0.0
H675 H 0.81129 0.15244 0.3093 0.0
C676 C 0.79035 0.18028 0.29439 0.0
C677 C 0.77949 0.1907 0.27333 0.0
C678 C 0.82343 0.12181 0.24463 0.0
C679 C 0.80511 0.15071 0.26993 0.0
C680 C 0.83579 0.10147 0.24321 0.0
C681 C 0.84294 0.08845 0.26464 0.0
C682 C 0.81833 0.1293 0.26765 0.0
C683 C 0.83749 0.09654 0.28727 0.0
C684 C 0.80308 0.16025 0.2928 0.0
C685 C 0.78196 0.18075 0.25081 0.0
N686 N 0.82556 0.11645 0.28818 0.0
N687 N 0.79454 0.1613 0.24969 0.0
H688 H 0.44348 0.98411 0.99286 0.0
H689 H 0.2925 0.96456 0.99225 0.0
H690 H 0.40164 0.04449 0.99603 0.0
H691 H 0.33503 0.90418 0.99407 0.0
H692 H 0.33211 0.99435 0.99173 0.0
H693 H 0.40375 0.95475 0.99137 0.0
C694 C 0.42592 0.99121 0.99311 0.0
C695 C 0.42589 0.0168 0.99458 0.0
C696 C 0.33276 0.97458 0.9922 0.0
C697 C 0.38027 0.98324 0.99309 0.0
C698 C 0.31015 0.95756 0.99245 0.0
C699 C 0.31044 0.93182 0.99327 0.0
C700 C 0.35583 0.96581 0.99272 0.0
C701 C 0.33388 0.92383 0.9935 0.0
C702 C 0.40323 0.97442 0.99239 0.0
C703 C 0.40255 0.02489 0.99521 0.0
N704 N 0.3556 0.94075 0.99326 0.0
N705 N 0.38069 0.00817 0.99443 0.0
H706 H 0.24386 0.32566 0.27667 0.0
H707 H 0.19753 0.4406 0.3337 0.0
H708 H 0.26721 0.35033 0.3485 0.0
H709 H 0.16825 0.41092 0.26525 0.0
H710 H 0.22304 0.40759 0.33956 0.0
H711 H 0.21624 0.35697 0.27202 0.0
C712 C 0.24324 0.33773 0.29143 0.0
C713 C 0.25792 0.33542 0.31298 0.0
C714 C 0.21094 0.40822 0.32331 0.0
C715 C 0.2262 0.37121 0.30787 0.0
C716 C 0.19635 0.42707 0.31995 0.0
C717 C 0.18076 0.4286 0.29891 0.0
C718 C 0.21008 0.39081 0.30544 0.0
C719 C 0.18 0.4105 0.28174 0.0
C720 C 0.22734 0.3555 0.28884 0.0
C721 C 0.25605 0.3513 0.33167 0.0
N722 N 0.19455 0.39245 0.28533 0.0
N723 N 0.24058 0.36858 0.32864 0.0
H724 H 0.12764 0.98318 0.49413 0.0
H725 H 0.19063 0.12611 0.50734 0.0
H726 H 0.08718 0.04484 0.48111 0.0
H727 H 0.23219 0.06493 0.51669 0.0
H728 H 0.15239 0.0965 0.49836 0.0
H729 H 0.16596 0.01271 0.50333 0.0
C730 C 0.12679 0.00293 0.49332 0.0
C731 C 0.10417 0.01155 0.48684 0.0
C732 C 0.16987 0.08954 0.50237 0.0
C733 C 0.148 0.04548 0.49716 0.0
C734 C 0.19173 0.10644 0.50752 0.0
C735 C 0.21466 0.09799 0.51279 0.0
C736 C 0.1709 0.06396 0.50252 0.0
C737 C 0.21493 0.07229 0.51272 0.0
C738 C 0.14871 0.01979 0.49844 0.0
C739 C 0.10426 0.03738 0.48574 0.0
N740 N 0.19337 0.05618 0.50769 0.0
N741 N 0.12582 0.05341 0.49088 0.0
H742 H 0.74939 0.16956 0.79101 0.0
H743 H 0.68445 0.03613 0.74745 0.0
H744 H 0.75202 0.14885 0.71675 0.0
H745 H 0.66057 0.0685 0.81027 0.0
H746 H 0.71404 0.07488 0.73829 0.0
H747 H 0.72143 0.12992 0.80083 0.0
C748 C 0.74417 0.15656 0.77684 0.0
C749 C 0.75293 0.16243 0.75304 0.0
C750 C 0.70231 0.07344 0.75407 0.0
C751 C 0.72112 0.11717 0.76411 0.0
C752 C 0.68552 0.05133 0.75937 0.0
C753 C 0.66998 0.04914 0.77961 0.0
C754 C 0.70382 0.09332 0.76933 0.0
C755 C 0.67209 0.06945 0.7944 0.0
C756 C 0.72814 0.13406 0.78239 0.0
C757 C 0.74547 0.14508 0.73527 0.0
N758 N 0.68876 0.09066 0.78902 0.0
N759 N 0.73005 0.12315 0.74118 0.0
H760 H 0.45731 0.0408 0.57282 0.0
H761 H 0.32513 0.05226 0.50465 0.0
H762 H 0.41204 0.98134 0.53443 0.0
H763 H 0.3622 0.10544 0.55498 0.0
H764 H 0.35846 0.02746 0.51317 0.0
H765 H 0.42409 0.06596 0.56467 0.0
C766 C 0.44035 0.03294 0.56281 0.0
C767 C 0.43754 0.00886 0.5543 0.0
C768 C 0.35932 0.04454 0.52238 0.0
C769 C 0.39959 0.03778 0.54458 0.0
C770 C 0.34031 0.05877 0.51747 0.0
C771 C 0.34084 0.08097 0.52914 0.0
C772 C 0.37916 0.0526 0.53896 0.0
C773 C 0.361 0.08842 0.54561 0.0
C774 C 0.42144 0.04739 0.55806 0.0
C775 C 0.41529 -9e-05 0.54104 0.0
N776 N 0.37939 0.07429 0.55 0.0
N777 N 0.39724 0.01438 0.53657 0.0
H778 H 0.59646 0.51121 0.47721 0.0
H779 H 0.68475 0.4144 0.53012 0.0
H780 H 0.58504 0.46831 0.5461 0.0
H781 H 0.69648 0.45724 0.46102 0.0
H782 H 0.64815 0.43388 0.53619 0.0
H783 H 0.63323 0.4917 0.47083 0.0
C784 C 0.60167 0.49751 0.49087 0.0
C785 C 0.58754 0.4909 0.51194 0.0
C786 C 0.65871 0.43903 0.5197 0.0
C787 C 0.62962 0.46881 0.50506 0.0
C788 C 0.67964 0.4279 0.5162 0.0
C789 C 0.69374 0.43419 0.49502 0.0
C790 C 0.65177 0.45661 0.50189 0.0
C791 C 0.68619 0.45182 0.47763 0.0
C792 C 0.62264 0.48644 0.48729 0.0
C793 C 0.59527 0.47352 0.52941 0.0
N794 N 0.66572 0.46241 0.48146 0.0
N795 N 0.61575 0.463 0.52555 0.0
H796 H 0.71585 0.30119 0.32646 0.0
H797 H 0.76683 0.30369 0.46585 0.0
H798 H 0.73994 0.23823 0.36706 0.0
H799 H 0.73419 0.36335 0.42827 0.0
H800 H 0.75941 0.28041 0.42901 0.0
H801 H 0.72459 0.32516 0.36282 0.0
C802 C 0.7229 0.29236 0.34303 0.0
C803 C 0.72709 0.2676 0.34368 0.0
C804 C 0.75387 0.29859 0.42881 0.0
C805 C 0.73741 0.29507 0.38533 0.0
C806 C 0.75812 0.31192 0.44985 0.0
C807 C 0.75107 0.3355 0.45019 0.0
C808 C 0.74255 0.30892 0.40788 0.0
C809 C 0.73987 0.34521 0.42888 0.0
C810 C 0.728 0.30611 0.36376 0.0
C811 C 0.73671 0.25734 0.36556 0.0
N812 N 0.73597 0.33188 0.40859 0.0
N813 N 0.74149 0.27109 0.3855 0.0
H814 H 0.56413 0.05556 0.94801 0.0
H815 H 0.56383 0.98118 0.82735 0.0
H816 H 0.49701 0.03101 0.90452 0.0
H817 H 0.62863 0.99649 0.87653 0.0
H818 H 0.53874 0.99822 0.85595 0.0
H819 H 0.58802 0.03329 0.92248 0.0
C820 C 0.55451 0.04544 0.93303 0.0
C821 C 0.52876 0.04535 0.92805 0.0
C822 C 0.55839 0.99766 0.8606 0.0
C823 C 0.55572 0.01981 0.8989 0.0
C824 C 0.57273 0.98789 0.84428 0.0
C825 C 0.59843 0.98753 0.84947 0.0
C826 C 0.56985 0.00734 0.8822 0.0
C827 C 0.60891 0.99643 0.87173 0.0
C828 C 0.56806 0.03269 0.91854 0.0
C829 C 0.51695 0.03177 0.90871 0.0
N830 N 0.59464 0.00618 0.88716 0.0
N831 N 0.53057 0.01968 0.89471 0.0
H832 H 0.2918 0.29993 0.38779 0.0
H833 H 0.3046 0.16673 0.45365 0.0
H834 H 0.29747 0.23532 0.34839 0.0
H835 H 0.28188 0.22631 0.49054 0.0
H836 H 0.30712 0.19312 0.41553 0.0
H837 H 0.29275 0.27454 0.42621 0.0
C838 C 0.29314 0.28039 0.38717 0.0
C839 C 0.29438 0.26975 0.36473 0.0
C840 C 0.30166 0.20042 0.43199 0.0
C841 C 0.29592 0.24065 0.40878 0.0
C842 C 0.3003 0.18541 0.45378 0.0
C843 C 0.2929 0.19428 0.4753 0.0
C844 C 0.29575 0.22455 0.43176 0.0
C845 C 0.28753 0.21863 0.47437 0.0
C846 C 0.29383 0.26594 0.40915 0.0
C847 C 0.29672 0.24444 0.3652 0.0
N848 N 0.28904 0.2329 0.45296 0.0
N849 N 0.29736 0.23075 0.38685 0.0
H850 H 0.46539 0.49087 0.9472 0.0
H851 H 0.46013 0.54343 0.80725 0.0
H852 H 0.52914 0.53481 0.91075 0.0
H853 H 0.39404 0.50984 0.84717 0.0
H854 H 0.48613 0.53839 0.84427 0.0
H855 H 0.43929 0.49551 0.90998 0.0
C856 C 0.47381 0.50158 0.93132 0.0
C857 C 0.49929 0.51276 0.93199 0.0
C858 C 0.46594 0.53215 0.84494 0.0
C859 C 0.46977 0.51793 0.88938 0.0
C860 C 0.45107 0.53498 0.82379 0.0
C861 C 0.42484 0.52707 0.82411 0.0
C862 C 0.45454 0.5212 0.86656 0.0
C863 C 0.41417 0.51627 0.8461 0.0
C864 C 0.45896 0.50423 0.91012 0.0
C865 C 0.50946 0.52615 0.91091 0.0
N866 N 0.42906 0.51361 0.86642 0.0
N867 N 0.49467 0.52839 0.89044 0.0
H868 H 0.69772 0.71728 0.16546 0.0
H869 H 0.80489 0.73076 0.06601 0.0
H870 H 0.743 0.78745 0.14208 0.0
H871 H 0.75952 0.66056 0.08984 0.0
H872 H 0.78469 0.7515 0.09587 0.0
H873 H 0.72226 0.69574 0.13993 0.0
C874 C 0.71286 0.72809 0.15486 0.0
C875 C 0.71805 0.75414 0.1553 0.0
C876 C 0.77928 0.73153 0.09468 0.0
C877 C 0.74635 0.72979 0.12632 0.0
C878 C 0.79084 0.71966 0.07765 0.0
C879 C 0.78377 0.6939 0.07527 0.0
C880 C 0.76046 0.71756 0.10942 0.0
C881 C 0.76549 0.68047 0.09092 0.0
C882 C 0.72689 0.71585 0.14036 0.0
C883 C 0.73817 0.76735 0.14176 0.0
N884 N 0.75437 0.69248 0.10719 0.0
N885 N 0.75147 0.75505 0.12764 0.0
H886 H 0.02599 0.10362 0.0963 0.0
H887 H 0.91956 0.01777 0.17635 0.0
H888 H 0.99489 0.02761 0.08118 0.0
H889 H 0.95785 0.09015 0.19659 0.0
H890 H 0.94663 0.02112 0.14119 0.0
H891 H 0.00095 0.09911 0.13299 0.0
C892 C 0.01388 0.08596 0.10074 0.0
C893 C 0.0124 0.066 0.08561 0.0
C894 C 0.94916 0.03624 0.15336 0.0
C895 C 0.9837 0.06067 0.12761 0.0
C896 C 0.93366 0.03437 0.17342 0.0
C897 C 0.93639 0.05375 0.18942 0.0
C898 C 0.96744 0.05769 0.14917 0.0
C899 C 0.95505 0.07477 0.18473 0.0
C900 C -0.00033 0.08336 0.12174 0.0
C901 C 0.99671 0.04342 0.09242 0.0
N902 N 0.9698 0.07622 0.16499 0.0
N903 N 0.98283 0.04142 0.11284 0.0
H904 H 0.28606 0.80594 0.17625 0.0
H905 H 0.19123 0.81744 0.06087 0.0
H906 H 0.2176 0.75346 0.16473 0.0
H907 H 0.26398 0.86455 0.06879 0.0
H908 H 0.19951 0.79481 0.09967 0.0
H909 H 0.2773 0.82885 0.13765 0.0
C910 C 0.26908 0.79943 0.16559 0.0
C911 C 0.25229 0.77813 0.17373 0.0
C912 C 0.21365 0.81009 0.09289 0.0
C913 C 0.24223 0.80389 0.12955 0.0
C914 C 0.20893 0.82303 0.07075 0.0
C915 C 0.22694 0.84292 0.06155 0.0
C916 C 0.2365 0.81715 0.10597 0.0
C917 C 0.24955 0.84933 0.07515 0.0
C918 C 0.2641 0.8124 0.14357 0.0
C919 C 0.23078 0.77006 0.15917 0.0
N920 N 0.25366 0.83651 0.09666 0.0
N921 N 0.2263 0.78301 0.13779 0.0
H922 H 0.9753 0.48243 0.12255 0.0
H923 H 0.10924 0.47639 0.1897 0.0
H924 H 0.04309 0.47978 0.08425 0.0
H925 H 0.03988 0.47022 0.22819 0.0
H926 H 0.08536 0.47791 0.1509 0.0
H927 H 0.9987 0.47853 0.16147 0.0
C928 C 0.99513 0.48109 0.12234 0.0
C929 C 0.00727 0.48148 0.10012 0.0
C930 C 0.07534 0.47612 0.16783 0.0
C931 C 0.03415 0.47688 0.14459 0.0
C932 C 0.08897 0.47526 0.19001 0.0
C933 C 0.07656 0.47322 0.21226 0.0
C934 C 0.04909 0.47509 0.16784 0.0
C935 C 0.05025 0.4718 0.2115 0.0
C936 C 0.00844 0.47872 0.14456 0.0
C937 C 0.03291 0.47931 0.10094 0.0
N938 N 0.03742 0.47288 0.18966 0.0
N939 N 0.04551 0.47722 0.1228 0.0
H940 H 0.32163 0.76581 0.26741 0.0
H941 H 0.44531 0.72949 0.33691 0.0
H942 H 0.34925 0.69729 0.25866 0.0
H943 H 0.41866 0.79861 0.34533 0.0
H944 H 0.40988 0.71726 0.30858 0.0
H945 H 0.35689 0.7782 0.29606 0.0
C946 C 0.33518 0.75343 0.27141 0.0
C947 C 0.33246 0.73047 0.26061 0.0
C948 C 0.41174 0.73509 0.31663 0.0
C949 C 0.37274 0.74442 0.2936 0.0
C950 C 0.43198 0.7421 0.33285 0.0
C951 C 0.43499 0.76514 0.34353 0.0
C952 C 0.39432 0.75123 0.31099 0.0
C953 C 0.41709 0.78068 0.33754 0.0
C954 C 0.35523 0.76045 0.28788 0.0
C955 C 0.3504 0.71501 0.26678 0.0
N956 N 0.39754 0.77345 0.32165 0.0
N957 N 0.36976 0.72228 0.28283 0.0
H958 H 0.03111 0.42666 0.00593 0.0
H959 H 0.97774 0.36585 0.88102 0.0
H960 H 0.98076 0.45884 0.95493 0.0
H961 H 0.02762 0.33332 0.93256 0.0
H962 H 0.97897 0.40029 0.90752 0.0
H963 H 0.03038 0.39239 0.97907 0.0
C964 C 0.02007 0.42652 0.98893 0.0
C965 C 0.00639 0.44573 0.98229 0.0
C966 C 0.98966 0.38563 0.91303 0.0
C967 C 0.00508 0.40658 0.95168 0.0
C968 C 0.98898 0.36595 0.89789 0.0
C969 C 0.00259 0.34664 0.90456 0.0
C970 C 0.00405 0.38604 0.93503 0.0
C971 C 0.01682 0.34778 0.92666 0.0
C972 C 0.01958 0.40699 0.97365 0.0
C973 C 0.9919 0.44453 0.96041 0.0
N974 N 0.01716 0.36713 0.94109 0.0
N975 N 0.99168 0.42532 0.94582 0.0
H976 H 0.65006 0.83534 0.23788 0.0
H977 H 0.57515 0.76023 0.3497 0.0
H978 H 0.66672 0.765 0.26926 0.0
H979 H 0.54346 0.81307 0.30076 0.0
H980 H 0.61143 0.76466 0.32334 0.0
H981 H 0.61325 0.83036 0.2637 0.0
C982 C 0.64594 0.81887 0.25026 0.0
C983 C 0.66139 0.80055 0.25153 0.0
C984 C 0.5965 0.77523 0.31838 0.0
C985 C 0.61953 0.79481 0.28111 0.0
C986 C 0.57586 0.77283 0.33345 0.0
C987 C 0.55627 0.78632 0.3274 0.0
C988 C 0.59773 0.79153 0.2973 0.0
C989 C 0.55811 0.80227 0.30607 0.0
C990 C 0.62491 0.81598 0.26486 0.0
C991 C 0.65515 0.77945 0.26767 0.0
N992 N 0.57856 0.80454 0.29185 0.0
N993 N 0.63478 0.77723 0.282 0.0
H994 H 0.03017 0.09738 0.9752 0.0
H995 H 0.04543 0.24638 0.96581 0.0
H996 H 0.04653 0.14234 0.03752 0.0
H997 H 0.01247 0.20036 0.9078 0.0
H998 H 0.04956 0.20866 0.9914 0.0
H999 H 0.02762 0.13526 0.94907 0.0
C1000 C 0.03342 0.11526 0.98333 0.0
C1001 C 0.03849 0.11676 0.00855 0.0
C1002 C 0.04139 0.20682 0.97308 0.0
C1003 C 0.03548 0.16006 0.97888 0.0
C1004 C 0.03905 0.22835 0.95845 0.0
C1005 C 0.02855 0.22652 0.93464 0.0
C1006 C 0.03336 0.18329 0.96378 0.0
C1007 C 0.02059 0.20265 0.92607 0.0
C1008 C 0.03179 0.13682 0.96846 0.0
C1009 C 0.0423 0.14035 0.0182 0.0
N1010 N 0.02324 0.18197 0.94061 0.0
N1011 N 0.04074 0.16108 0.00335 0.0
H1012 H 0.32869 0.23131 0.25971 0.0
H1013 H 0.44569 0.2905 0.17669 0.0
H1014 H 0.34413 0.30891 0.23432 0.0
H1015 H 0.42253 0.21119 0.19178 0.0
H1016 H 0.41 0.29791 0.19956 0.0
H1017 H 0.36444 0.22381 0.23678 0.0
C1018 C 0.33965 0.24675 0.24926 0.0
C1019 C 0.33353 0.27075 0.24878 0.0
C1020 C 0.4127 0.27888 0.19783 0.0
C1021 C 0.37443 0.2624 0.22265 0.0
C1022 C 0.43311 0.27463 0.18482 0.0
C1023 C 0.43712 0.25017 0.1823 0.0
C1024 C 0.39624 0.25855 0.20857 0.0
C1025 C 0.42015 0.23035 0.1932 0.0
C1026 C 0.36001 0.24248 0.23617 0.0
C1027 C 0.34832 0.29015 0.23506 0.0
N1028 N 0.4005 0.23498 0.20591 0.0
N1029 N 0.36813 0.28557 0.22256 0.0
H1030 H 0.58333 0.42049 0.01805 0.0
H1031 H 0.46892 0.33262 0.08631 0.0
H1032 H 0.50823 0.43811 0.01879 0.0
H1033 H 0.54647 0.32181 0.09461 0.0
H1034 H 0.48229 0.36977 0.05925 0.0
H1035 H 0.56949 0.38272 0.04393 0.0
C1036 C 0.56395 0.41649 0.02373 0.0
C1037 C 0.54696 0.43262 0.01631 0.0
C1038 C 0.49637 0.35926 0.067 0.0
C1039 C 0.53088 0.38915 0.04574 0.0
C1040 C 0.48875 0.33802 0.08243 0.0
C1041 C 0.50661 0.3241 0.09279 0.0
C1042 C 0.52201 0.36655 0.06179 0.0
C1043 C 0.53204 0.332 0.0871 0.0
C1044 C 0.55602 0.39484 0.03843 0.0
C1045 C 0.52192 0.42613 0.02383 0.0
N1046 N 0.53897 0.35267 0.07198 0.0
N1047 N 0.51466 0.40492 0.03816 0.0
H1048 H 0.67725 0.28048 0.26555 0.0
H1049 H 0.54157 0.21074 0.22352 0.0
H1050 H 0.6549 0.20072 0.27654 0.0
H1051 H 0.5789 0.27792 0.18502 0.0
H1052 H 0.58019 0.20919 0.24852 0.0
H1053 H 0.63825 0.28236 0.24111 0.0
C1054 C 0.66405 0.26341 0.26285 0.0
C1055 C 0.66921 0.24041 0.27292 0.0
C1056 C 0.57986 0.22424 0.23458 0.0
C1057 C 0.62469 0.24243 0.24541 0.0
C1058 C 0.55784 0.22522 0.22042 0.0
C1059 C 0.55709 0.24445 0.20215 0.0
C1060 C 0.60106 0.24291 0.23076 0.0
C1061 C 0.57874 0.26269 0.19883 0.0
C1062 C 0.64193 0.26447 0.24887 0.0
C1063 C 0.65162 0.21878 0.26887 0.0
N1064 N 0.59982 0.26157 0.21311 0.0
N1065 N 0.63002 0.22032 0.25554 0.0
H1066 H 0.49407 0.121 0.00214 0.0
H1067 H 0.49419 0.15748 0.14061 0.0
H1068 H 0.46575 0.06816 0.06095 0.0
H1069 H 0.49792 0.2119 0.07915 0.0
H1070 H 0.48768 0.12418 0.11212 0.0
H1071 H 0.49976 0.1544 0.0306 0.0
C1072 C 0.48913 0.11646 0.02107 0.0
C1073 C 0.47942 0.09183 0.02924 0.0
C1074 C 0.48984 0.14341 0.1049 0.0
C1075 C 0.48591 0.12982 0.06184 0.0
C1076 C 0.49363 0.16243 0.12113 0.0
C1077 C 0.49659 0.18751 0.11224 0.0
C1078 C 0.48936 0.14952 0.07958 0.0
C1079 C 0.49564 0.19282 0.08681 0.0
C1080 C 0.49224 0.13551 0.03725 0.0
C1081 C 0.47309 0.08695 0.0539 0.0
N1082 N 0.49226 0.17399 0.07136 0.0
N1083 N 0.47659 0.10576 0.06937 0.0
H1084 H 0.29569 0.33796 0.73707 0.0
H1085 H 0.3278 0.48697 0.73593 0.0
H1086 H 0.2395 0.38564 0.72645 0.0
H1087 H 0.38041 0.4389 0.76203 0.0
H1088 H 0.29613 0.4501 0.72878 0.0
H1089 H 0.32806 0.3749 0.74243 0.0
C1090 C 0.29022 0.35623 0.7357 0.0
C1091 C 0.26489 0.35877 0.7314 0.0
C1092 C 0.3146 0.44762 0.73609 0.0
C1093 C 0.30171 0.40101 0.73761 0.0
C1094 C 0.33271 0.46866 0.74014 0.0
C1095 C 0.35678 0.46602 0.74966 0.0
C1096 C 0.32063 0.42373 0.74141 0.0
C1097 C 0.36207 0.44182 0.75477 0.0
C1098 C 0.30864 0.37726 0.73892 0.0
C1099 C 0.25877 0.38284 0.73004 0.0
N1100 N 0.34415 0.4216 0.75053 0.0
N1101 N 0.27705 0.40303 0.7331 0.0
H1102 H 0.26892 0.67986 0.74694 0.0
H1103 H 0.39189 0.62589 0.79779 0.0
H1104 H 0.31687 0.71037 0.80627 0.0
H1105 H 0.34148 0.59287 0.74107 0.0
H1106 H 0.36521 0.6575 0.80061 0.0
H1107 H 0.29569 0.64816 0.74401 0.0
C1108 C 0.28522 0.67989 0.75923 0.0
C1109 C 0.29107 0.69792 0.77654 0.0
C1110 C 0.35999 0.64335 0.78753 0.0
C1111 C 0.32158 0.6617 0.77359 0.0
C1112 C 0.37525 0.6253 0.78588 0.0
C1113 C 0.36894 0.60668 0.76916 0.0
C1114 C 0.33827 0.64284 0.77231 0.0
C1115 C 0.34709 0.60685 0.75424 0.0
C1116 C 0.30045 0.66182 0.75763 0.0
C1117 C 0.31204 0.69698 0.79242 0.0
N1118 N 0.33257 0.62464 0.75617 0.0
N1119 N 0.32662 0.67923 0.7905 0.0
H1120 H 0.91394 0.54767 0.49581 0.0
H1121 H 0.854 0.40256 0.49592 0.0
H1122 H 0.95711 0.48979 0.48506 0.0
H1123 H 0.80979 0.46119 0.49874 0.0
H1124 H 0.89221 0.43408 0.49369 0.0
H1125 H 0.87586 0.51603 0.49911 0.0
C1126 C 0.91543 0.52827 0.49434 0.0
C1127 C 0.93874 0.52135 0.49017 0.0
C1128 C 0.87415 0.44006 0.49477 0.0
C1129 C 0.89518 0.48505 0.49366 0.0
C1130 C 0.85231 0.42206 0.49605 0.0
C1131 C 0.82864 0.42924 0.4975 0.0
C1132 C 0.87235 0.46543 0.49503 0.0
C1133 C 0.82762 0.45479 0.49761 0.0
C1134 C 0.89366 0.51023 0.49605 0.0
C1135 C 0.93949 0.49598 0.48803 0.0
N1136 N 0.84917 0.47196 0.49643 0.0
N1137 N 0.91804 0.47875 0.48983 0.0
H1138 H 0.77373 0.84887 0.84266 0.0
H1139 H 0.6605 0.90494 0.77307 0.0
H1140 H 0.74317 0.82606 0.77216 0.0
H1141 H 0.70888 0.94363 0.82807 0.0
H1142 H 0.68637 0.87199 0.77628 0.0
H1143 H 0.74574 0.87998 0.84132 0.0
C1144 C 0.761 0.85033 0.82698 0.0
C1145 C 0.76079 0.83498 0.80745 0.0
C1146 C 0.69125 0.88769 0.78767 0.0
C1147 C 0.72875 0.87036 0.80582 0.0
C1148 C 0.67645 0.90643 0.78593 0.0
C1149 C 0.68262 0.92712 0.80025 0.0
C1150 C 0.71215 0.88948 0.80407 0.0
C1151 C 0.70354 0.92809 0.81657 0.0
C1152 C 0.74516 0.86814 0.82617 0.0
C1153 C 0.74408 0.83774 0.78748 0.0
N1154 N 0.71752 0.90952 0.81807 0.0
N1155 N 0.72866 0.85504 0.78721 0.0
H1156 H 0.62187 0.51811 0.95968 0.0
H1157 H 0.72019 0.57266 0.06443 0.0
H1158 H 0.60921 0.50373 0.03702 0.0
H1159 H 0.72999 0.59261 0.98736 0.0
H1160 H 0.68056 0.54546 0.05456 0.0
H1161 H 0.66242 0.54401 0.9693 0.0
C1162 C 0.62756 0.52047 0.97868 0.0
C1163 C 0.61208 0.5087 0.99756 0.0
C1164 C 0.69139 0.55575 0.0398 0.0
C1165 C 0.65863 0.53812 0.00871 0.0
C1166 C 0.71407 0.57126 0.04542 0.0
C1167 C 0.72842 0.585 0.0267 0.0
C1168 C 0.68298 0.5539 0.01527 0.0
C1169 C 0.71952 0.58242 0.00239 0.0
C1170 C 0.65079 0.53515 0.98416 0.0
C1171 C 0.62065 0.51213 0.02186 0.0
N1172 N 0.69736 0.56721 0.99739 0.0
N1173 N 0.64331 0.52652 0.02672 0.0
H1174 H 0.26068 0.66033 0.19049 0.0
H1175 H 0.19468 0.54709 0.27933 0.0
H1176 H 0.26344 0.66075 0.2693 0.0
H1177 H 0.18954 0.54706 0.20048 0.0
H1178 H 0.22222 0.58763 0.27591 0.0
H1179 H 0.23653 0.61795 0.19368 0.0
C1180 C 0.25617 0.65153 0.20847 0.0
C1181 C 0.26404 0.66416 0.22966 0.0
C1182 C 0.21517 0.57873 0.25934 0.0
C1183 C 0.23659 0.61557 0.23345 0.0
C1184 C 0.19946 0.55553 0.26127 0.0
C1185 C 0.18966 0.54369 0.24014 0.0
C1186 C 0.22114 0.59026 0.23611 0.0
C1187 C 0.19658 0.55553 0.21726 0.0
C1188 C 0.24251 0.62728 0.21028 0.0
C1189 C 0.25802 0.65166 0.25248 0.0
N1190 N 0.2118 0.57822 0.21585 0.0
N1191 N 0.24459 0.62812 0.25375 0.0
H1192 H 0.92918 0.51465 0.08154 0.0
H1193 H 0.88421 0.62225 0.99209 0.0
H1194 H 0.96045 0.53816 0.01079 0.0
H1195 H 0.84615 0.59188 0.05811 0.0
H1196 H 0.91458 0.594 0.00039 0.0
H1197 H 0.90085 0.54522 0.07495 0.0
C1198 C 0.93019 0.52635 0.06468 0.0
C1199 C 0.94715 0.52379 0.04665 0.0
C1200 C 0.89962 0.59356 0.0131 0.0
C1201 C 0.9147 0.55873 0.03893 0.0
C1202 C 0.8823 0.60975 0.00842 0.0
C1203 C 0.86251 0.60938 0.02438 0.0
C1204 C 0.89724 0.57691 0.03395 0.0
C1205 C 0.86103 0.59276 0.04524 0.0
C1206 C 0.91392 0.5437 0.06088 0.0
C1207 C 0.94744 0.53926 0.02504 0.0
N1208 N 0.87812 0.57716 0.0494 0.0
N1209 N 0.93148 0.55607 0.0218 0.0
H1210 H 0.08639 0.02455 0.97507 0.0
H1211 H 0.16471 0.9173 0.02261 0.0
H1212 H 0.0694 0.97682 0.04037 0.0
H1213 H 0.18213 0.9651 0.95721 0.0
H1214 H 0.129 0.93808 0.02871 0.0
H1215 H 0.12089 0.00229 0.96748 0.0
C1216 C 0.08983 0.00916 0.98763 0.0
C1217 C 0.07484 0.0021 0.00808 0.0
C1218 C 0.14059 0.94401 0.01299 0.0
C1219 C 0.1144 0.97687 -0.00013 0.0
C1220 C 0.16101 0.93214 0.00949 0.0
C1221 C 0.17652 0.93951 0.98939 0.0
C1222 C 0.13558 0.96343 0.99631 0.0
C1223 C 0.17073 0.95882 0.97298 0.0
C1224 C 0.10952 0.99653 0.98337 0.0
C1225 C 0.08032 0.98248 0.02417 0.0
N1226 N 0.15077 0.97015 0.97684 0.0
N1227 N 0.09964 0.97051 0.01971 0.0
loop_
_geom_bond_atom_site_label_1
_geom_bond_atom_site_label_2
_geom_bond_distance
_geom_bond_site_symmetry_2
_ccdc_geom_bond_type
H0 C7 0.929 1_655 S
H1 C10 0.930 . S
H2 C12 0.930 1_556 S
H3 C4 0.969 1_565 S
C4 H3 0.969 1_545 S
C4 O5 1.550 . S
C4 H6 0.973 . S
O5 C4 1.550 . S
O5 C11 1.412 . S
H6 C4 0.973 . S
C7 H0 0.929 1_455 S
C7 C8 1.400 . S
C7 C9 1.364 . S
C8 C7 1.400 . S
C8 C12 1.377 . S
C9 C7 1.364 . S
C9 C10 1.374 . S
C10 H1 0.930 . S
C10 C9 1.374 . S
C10 C11 1.383 . S
C11 O5 1.412 . S
C11 C10 1.383 . S
C11 C12 1.394 . S
C12 H2 0.930 1_554 S
C12 C8 1.377 . S
C12 C11 1.394 . S
H13 C20 0.929 . S
H14 C23 0.930 . S
H15 C25 0.929 . S
H16 C17 0.969 . S
C17 H16 0.969 . S
C17 O18 1.550 . S
C17 H19 0.973 . S
O18 C17 1.550 . S
O18 C24 1.412 . S
H19 C17 0.973 . S
C20 H13 0.929 . S
C20 C21 1.400 . S
C20 C22 1.364 . S
C21 C20 1.400 . S
C21 C25 1.377 . S
C22 C20 1.364 . S
C22 C23 1.374 . S
C23 H14 0.930 . S
C23 C22 1.374 . S
C23 C24 1.383 . S
C24 O18 1.412 . S
C24 C23 1.383 . S
C24 C25 1.394 . S
C25 H15 0.929 . S
C25 C21 1.377 . S
C25 C24 1.394 . S
H26 C33 0.929 . S
H27 C36 0.930 . S
H28 C38 0.929 1_455 S
H29 C30 0.969 . S
C30 H29 0.969 . S
C30 O31 1.550 . S
C30 H32 0.973 . S
O31 C30 1.550 . S
O31 C37 1.412 . S
H32 C30 0.973 . S
C33 H26 0.929 . S
C33 C34 1.400 . S
C33 C35 1.364 . S
C34 C33 1.400 . S
C34 C38 1.377 . S
C35 C33 1.364 . S
C35 C36 1.374 . S
C36 H27 0.930 . S
C36 C35 1.374 . S
C36 C37 1.383 . S
C37 O31 1.412 . S
C37 C36 1.383 . S
C37 C38 1.394 . S
C38 H28 0.929 1_655 S
C38 C34 1.377 . S
C38 C37 1.394 . S
H39 C46 0.929 . S
H40 C49 0.930 . S
H41 C51 0.929 . S
H42 C43 0.969 . S
C43 H42 0.969 . S
C43 O44 1.550 . S
C43 H45 0.973 . S
O44 C43 1.550 . S
O44 C50 1.412 . S
H45 C43 0.973 . S
C46 H39 0.929 . S
C46 C47 1.400 . S
C46 C48 1.364 . S
C47 C46 1.400 . S
C47 C51 1.377 . S
C48 C46 1.364 . S
C48 C49 1.374 . S
C49 H40 0.930 . S
C49 C48 1.374 . S
C49 C50 1.383 . S
C50 O44 1.412 . S
C50 C49 1.383 . S
C50 C51 1.394 . S
C51 H41 0.929 . S
C51 C47 1.377 . S
C51 C50 1.394 . S
H52 C59 0.929 . S
H53 C62 0.930 . S
H54 C64 0.929 . S
H55 C56 0.969 1_655 S
C56 H55 0.969 1_455 S
C56 O57 1.550 . S
C56 H58 0.973 . S
O57 C56 1.550 . S
O57 C63 1.412 . S
H58 C56 0.973 . S
C59 H52 0.929 . S
C59 C60 1.400 . S
C59 C61 1.364 . S
C60 C59 1.400 . S
C60 C64 1.377 1_565 S
C61 C59 1.364 . S
C61 C62 1.374 . S
C62 H53 0.930 . S
C62 C61 1.374 . S
C62 C63 1.383 . S
C63 O57 1.412 . S
C63 C62 1.383 . S
C63 C64 1.394 1_565 S
C64 H54 0.929 . S
C64 C60 1.377 1_545 S
C64 C63 1.394 1_545 S
H65 C72 0.929 . S
H66 C75 0.930 . S
H67 C77 0.929 . S
H68 C69 0.969 . S
C69 H68 0.969 . S
C69 O70 1.550 . S
C69 H71 0.973 . S
O70 C69 1.550 . S
O70 C76 1.412 . S
H71 C69 0.973 . S
C72 H65 0.929 . S
C72 C73 1.400 . S
C72 C74 1.364 . S
C73 C72 1.400 . S
C73 C77 1.377 . S
C74 C72 1.364 . S
C74 C75 1.374 . S
C75 H66 0.930 . S
C75 C74 1.374 . S
C75 C76 1.383 . S
C76 O70 1.412 . S
C76 C75 1.383 . S
C76 C77 1.394 . S
C77 H67 0.929 . S
C77 C73 1.377 . S
C77 C76 1.394 . S
H78 C85 0.929 . S
H79 C88 0.930 . S
H80 C90 0.929 1_455 S
H81 C82 0.969 . S
C82 H81 0.969 . S
C82 O83 1.550 . S
C82 H84 0.973 . S
O83 C82 1.550 . S
O83 C89 1.412 1_455 S
H84 C82 0.973 . S
C85 H78 0.929 . S
C85 C86 1.400 . S
C85 C87 1.364 . S
C86 C85 1.400 . S
C86 C90 1.377 . S
C87 C85 1.364 . S
C87 C88 1.374 . S
C88 H79 0.930 . S
C88 C87 1.374 . S
C88 C89 1.383 . S
C89 O83 1.412 1_655 S
C89 C88 1.383 . S
C89 C90 1.394 . S
C90 H80 0.929 1_655 S
C90 C86 1.377 . S
C90 C89 1.394 . S
H91 C98 0.929 . S
H92 C101 0.930 . S
H93 C103 0.929 . S
H94 C95 0.969 . S
C95 H94 0.969 . S
C95 O96 1.550 . S
C95 H97 0.973 . S
O96 C95 1.550 . S
O96 C102 1.412 . S
H97 C95 0.973 . S
C98 H91 0.929 . S
C98 C99 1.400 . S
C98 C100 1.364 . S
C99 C98 1.400 . S
C99 C103 1.377 . S
C100 C98 1.364 . S
C100 C101 1.374 . S
C101 H92 0.930 . S
C101 C100 1.374 . S
C101 C102 1.383 . S
C102 O96 1.412 . S
C102 C101 1.383 . S
C102 C103 1.394 . S
C103 H93 0.929 . S
C103 C99 1.377 . S
C103 C102 1.394 . S
H104 C111 0.929 . S
H105 C114 0.930 . S
H106 C116 0.929 . S
H107 C108 0.969 . S
C108 H107 0.969 . S
C108 O109 1.550 . S
C108 H110 0.973 . S
O109 C108 1.550 . S
O109 C115 1.412 . S
H110 C108 0.973 . S
C111 H104 0.929 . S
C111 C112 1.400 . S
C111 C113 1.364 . S
C112 C111 1.400 . S
C112 C116 1.377 . S
C113 C111 1.364 . S
C113 C114 1.374 . S
C114 H105 0.930 . S
C114 C113 1.374 . S
C114 C115 1.383 . S
C115 O109 1.412 . S
C115 C114 1.383 . S
C115 C116 1.394 . S
C116 H106 0.929 . S
C116 C112 1.377 . S
C116 C115 1.394 . S
H117 C124 0.929 . S
H118 C127 0.930 . S
H119 C129 0.929 . S
H120 C121 0.969 . S
C121 H120 0.969 . S
C121 O122 1.550 . S
C121 H123 0.973 . S
O122 C121 1.550 . S
O122 C128 1.412 . S
H123 C121 0.973 . S
C124 H117 0.929 . S
C124 C125 1.400 . S
C124 C126 1.364 . S
C125 C124 1.400 . S
C125 C129 1.377 . S
C126 C124 1.364 . S
C126 C127 1.374 . S
C127 H118 0.930 . S
C127 C126 1.374 . S
C127 C128 1.383 . S
C128 O122 1.412 . S
C128 C127 1.383 . S
C128 C129 1.394 . S
C129 H119 0.929 . S
C129 C125 1.377 . S
C129 C128 1.394 . S
H130 C137 0.929 . S
H131 C140 0.930 . S
H132 C142 0.929 . S
H133 C134 0.969 . S
C134 H133 0.969 . S
C134 O135 1.550 . S
C134 H136 0.973 . S
O135 C134 1.550 . S
O135 C141 1.412 . S
H136 C134 0.973 . S
C137 H130 0.929 . S
C137 C138 1.400 . S
C137 C139 1.364 . S
C138 C137 1.400 . S
C138 C142 1.377 . S
C139 C137 1.364 . S
C139 C140 1.374 . S
C140 H131 0.930 . S
C140 C139 1.374 . S
C140 C141 1.383 . S
C141 O135 1.412 . S
C141 C140 1.383 . S
C141 C142 1.394 . S
C142 H132 0.929 . S
C142 C138 1.377 . S
C142 C141 1.394 . S
H143 C150 0.929 . S
H144 C153 0.930 . S
H145 C155 0.929 . S
H146 C147 0.969 . S
C147 H146 0.969 . S
C147 O148 1.550 . S
C147 H149 0.973 . S
O148 C147 1.550 . S
O148 C154 1.412 . S
H149 C147 0.973 . S
C150 H143 0.929 . S
C150 C151 1.400 . S
C150 C152 1.364 . S
C151 C150 1.400 . S
C151 C155 1.377 . S
C152 C150 1.364 . S
C152 C153 1.374 . S
C153 H144 0.930 . S
C153 C152 1.374 . S
C153 C154 1.383 . S
C154 O148 1.412 . S
C154 C153 1.383 . S
C154 C155 1.394 . S
C155 H145 0.929 . S
C155 C151 1.377 . S
C155 C154 1.394 . S
H156 C163 0.929 . S
H157 C166 0.930 . S
H158 C168 0.929 . S
H159 C160 0.969 . S
C160 H159 0.969 . S
C160 O161 1.550 . S
C160 H162 0.973 . S
O161 C160 1.550 . S
O161 C167 1.412 . S
H162 C160 0.973 . S
C163 H156 0.929 . S
C163 C164 1.400 . S
C163 C165 1.364 . S
C164 C163 1.400 . S
C164 C168 1.377 . S
C165 C163 1.364 . S
C165 C166 1.374 . S
C166 H157 0.930 . S
C166 C165 1.374 . S
C166 C167 1.383 . S
C167 O161 1.412 . S
C167 C166 1.383 . S
C167 C168 1.394 . S
C168 H158 0.929 . S
C168 C164 1.377 . S
C168 C167 1.394 . S
H169 C176 0.929 . S
H170 C179 0.930 . S
H171 C181 0.929 . S
H172 C173 0.969 . S
C173 H172 0.969 . S
C173 O174 1.550 . S
C173 H175 0.973 . S
O174 C173 1.550 . S
O174 C180 1.412 . S
H175 C173 0.973 . S
C176 H169 0.929 . S
C176 C177 1.400 . S
C176 C178 1.364 . S
C177 C176 1.400 . S
C177 C181 1.377 . S
C178 C176 1.364 . S
C178 C179 1.374 . S
C179 H170 0.930 . S
C179 C178 1.374 . S
C179 C180 1.383 . S
C180 O174 1.412 . S
C180 C179 1.383 . S
C180 C181 1.394 . S
C181 H171 0.929 . S
C181 C177 1.377 . S
C181 C180 1.394 . S
H182 C189 0.929 . S
H183 C192 0.930 . S
H184 C194 0.929 . S
H185 C186 0.969 . S
C186 H185 0.969 . S
C186 O187 1.550 . S
C186 H188 0.973 . S
O187 C186 1.550 . S
O187 C193 1.412 . S
H188 C186 0.973 . S
C189 H182 0.929 . S
C189 C190 1.400 . S
C189 C191 1.364 . S
C190 C189 1.400 . S
C190 C194 1.377 . S
C191 C189 1.364 . S
C191 C192 1.374 . S
C192 H183 0.930 . S
C192 C191 1.374 . S
C192 C193 1.383 . S
C193 O187 1.412 . S
C193 C192 1.383 . S
C193 C194 1.394 . S
C194 H184 0.929 . S
C194 C190 1.377 . S
C194 C193 1.394 . S
H195 C202 0.929 . S
H196 C205 0.930 . S
H197 C207 0.929 . S
H198 C199 0.969 . S
C199 H198 0.969 . S
C199 O200 1.550 . S
C199 H201 0.973 . S
O200 C199 1.550 . S
O200 C206 1.412 . S
H201 C199 0.973 . S
C202 H195 0.929 . S
C202 C203 1.400 . S
C202 C204 1.364 1_554 S
C203 C202 1.400 . S
C203 C207 1.377 1_554 S
C204 C202 1.364 1_556 S
C204 C205 1.374 . S
C205 H196 0.930 . S
C205 C204 1.374 . S
C205 C206 1.383 . S
C206 O200 1.412 . S
C206 C205 1.383 . S
C206 C207 1.394 . S
C207 H197 0.929 . S
C207 C203 1.377 1_556 S
C207 C206 1.394 . S
C208 O209 1.182 . S
C208 O215 1.170 1_556 S
O209 C208 1.182 . S
O210 Zn211 1.899 1_556 S
O210 C218 1.284 . S
Zn211 O210 1.899 1_554 S
Zn211 O212 2.032 1_554 S
Zn211 O215 2.086 . S
Zn211 O220 1.977 . S
O212 Zn211 2.032 1_556 S
O212 C216 1.280 . S
C213 O214 1.203 . S
C213 O220 1.267 . S
O214 C213 1.203 . S
O215 C208 1.170 1_554 S
O215 Zn211 2.086 . S
C216 O212 1.280 . S
C216 O217 1.206 1_556 S
O217 C216 1.206 1_554 S
C218 O210 1.284 . S
C218 O219 1.273 . S
O219 C218 1.273 . S
O220 Zn211 1.977 . S
O220 C213 1.267 . S
C221 O222 1.160 . S
C221 O228 1.185 . S
O222 C221 1.160 . S
O223 Zn224 1.899 . S
O223 C231 1.284 . S
Zn224 O223 1.899 . S
Zn224 O225 2.032 . S
Zn224 O228 2.086 . S
Zn224 O233 1.977 . S
O225 Zn224 2.032 . S
O225 C229 1.278 . S
C226 O227 1.203 . S
C226 O233 1.267 . S
O227 C226 1.203 . S
O228 C221 1.185 . S
O228 Zn224 2.086 . S
C229 O225 1.278 . S
C229 O230 1.211 . S
O230 C229 1.211 . S
C231 O223 1.284 . S
C231 O232 1.273 . S
O232 C231 1.273 . S
O233 Zn224 1.977 . S
O233 C226 1.267 . S
C234 O235 1.160 . S
C234 O241 1.185 . S
O235 C234 1.160 . S
O236 Zn237 1.899 . S
O236 C244 1.284 1_554 S
Zn237 O236 1.899 . S
Zn237 O238 2.032 . S
Zn237 O241 2.086 . S
Zn237 O246 1.977 . S
O238 Zn237 2.032 . S
O238 C242 1.278 . S
C239 O240 1.203 . S
C239 O246 1.267 . S
O240 C239 1.203 . S
O241 C234 1.185 . S
O241 Zn237 2.086 . S
C242 O238 1.278 . S
C242 O243 1.211 . S
O243 C242 1.211 . S
C244 O236 1.284 1_556 S
C244 O245 1.273 . S
O245 C244 1.273 . S
O246 Zn237 1.977 . S
O246 C239 1.267 . S
C247 O248 1.160 . S
C247 O254 1.185 . S
O248 C247 1.160 . S
O249 Zn250 1.899 . S
O249 C257 1.284 . S
Zn250 O249 1.899 . S
Zn250 O251 2.032 . S
Zn250 O254 2.086 . S
Zn250 O259 1.977 . S
O251 Zn250 2.032 . S
O251 C255 1.278 1_545 S
C252 O253 1.203 . S
C252 O259 1.267 . S
O253 C252 1.203 . S
O254 C247 1.185 . S
O254 Zn250 2.086 . S
C255 O251 1.278 1_565 S
C255 O256 1.211 . S
O256 C255 1.211 . S
C257 O249 1.284 . S
C257 O258 1.273 1_545 S
O258 C257 1.273 1_565 S
O259 Zn250 1.977 . S
O259 C252 1.267 . S
C260 O261 1.160 . S
C260 O267 1.185 . S
O261 C260 1.160 . S
O262 Zn263 1.899 . S
O262 C270 1.284 . S
Zn263 O262 1.899 . S
Zn263 O264 2.032 . S
Zn263 O267 2.086 . S
Zn263 O272 1.977 . S
O264 Zn263 2.032 . S
O264 C268 1.278 . S
C265 O266 1.203 . S
C265 O272 1.267 . S
O266 C265 1.203 . S
O267 C260 1.185 . S
O267 Zn263 2.086 . S
C268 O264 1.278 . S
C268 O269 1.211 . S
O269 C268 1.211 . S
C270 O262 1.284 . S
C270 O271 1.273 . S
O271 C270 1.273 . S
O272 Zn263 1.977 . S
O272 C265 1.267 . S
C273 O274 1.160 . S
C273 O280 1.185 . S
O274 C273 1.160 . S
O275 Zn276 1.899 . S
O275 C283 1.284 . S
Zn276 O275 1.899 . S
Zn276 O277 2.032 . S
Zn276 O280 2.086 . S
Zn276 O285 1.977 . S
O277 Zn276 2.032 . S
O277 C281 1.278 . S
C278 O279 1.203 . S
C278 O285 1.267 . S
O279 C278 1.203 . S
O280 C273 1.185 . S
O280 Zn276 2.086 . S
C281 O277 1.278 . S
C281 O282 1.211 . S
O282 C281 1.211 . S
C283 O275 1.284 . S
C283 O284 1.273 . S
O284 C283 1.273 . S
O285 Zn276 1.977 . S
O285 C278 1.267 . S
C286 O287 1.160 . S
C286 O293 1.185 . S
O287 C286 1.160 . S
O288 Zn289 1.899 . S
O288 C296 1.284 . S
Zn289 O288 1.899 . S
Zn289 O290 2.032 . S
Zn289 O293 2.086 . S
Zn289 O298 1.977 . S
O290 Zn289 2.032 . S
O290 C294 1.278 . S
C291 O292 1.203 . S
C291 O298 1.267 . S
O292 C291 1.203 . S
O293 C286 1.185 . S
O293 Zn289 2.086 . S
C294 O290 1.278 . S
C294 O295 1.211 . S
O295 C294 1.211 . S
C296 O288 1.284 . S
C296 O297 1.273 . S
O297 C296 1.273 . S
O298 Zn289 1.977 . S
O298 C291 1.267 . S
C299 O300 1.160 . S
C299 O306 1.185 . S
O300 C299 1.160 . S
O301 Zn302 1.899 . S
O301 C309 1.284 1_565 S
Zn302 O301 1.899 . S
Zn302 O303 2.032 1_565 S
Zn302 O306 2.086 . S
Zn302 O311 1.977 . S
O303 Zn302 2.032 1_545 S
O303 C307 1.278 . S
C304 O305 1.203 1_565 S
C304 O311 1.267 . S
O305 C304 1.203 1_545 S
O306 C299 1.185 . S
O306 Zn302 2.086 . S
C307 O303 1.278 . S
C307 O308 1.211 . S
O308 C307 1.211 . S
C309 O301 1.284 1_545 S
C309 O310 1.273 . S
O310 C309 1.273 . S
O311 Zn302 1.977 . S
O311 C304 1.267 . S
C312 O313 1.160 . S
C312 O319 1.185 1_655 S
O313 C312 1.160 . S
O314 Zn315 1.899 1_655 S
O314 C322 1.284 . S
Zn315 O314 1.899 1_455 S
Zn315 O316 2.032 1_455 S
Zn315 O319 2.086 . S
Zn315 O324 1.977 . S
O316 Zn315 2.032 1_655 S
O316 C320 1.278 1_655 S
C317 O318 1.203 . S
C317 O324 1.267 . S
O318 C317 1.203 . S
O319 C312 1.185 1_455 S
O319 Zn315 2.086 . S
C320 O316 1.278 1_455 S
C320 O321 1.211 . S
O321 C320 1.211 . S
C322 O314 1.284 . S
C322 O323 1.273 . S
O323 C322 1.273 . S
O324 Zn315 1.977 . S
O324 C317 1.267 . S
C325 O326 1.160 . S
C325 O332 1.185 . S
O326 C325 1.160 . S
O327 Zn328 1.899 . S
O327 C335 1.284 . S
Zn328 O327 1.899 . S
Zn328 O329 2.032 . S
Zn328 O332 2.086 . S
Zn328 O337 1.977 . S
O329 Zn328 2.032 . S
O329 C333 1.278 . S
C330 O331 1.203 . S
C330 O337 1.267 . S
O331 C330 1.203 . S
O332 C325 1.185 . S
O332 Zn328 2.086 . S
C333 O329 1.278 . S
C333 O334 1.211 . S
O334 C333 1.211 . S
C335 O327 1.284 . S
C335 O336 1.273 . S
O336 C335 1.273 . S
O337 Zn328 1.977 . S
O337 C330 1.267 . S
C338 O339 1.160 . S
C338 O345 1.185 . S
O339 C338 1.160 . S
O340 Zn341 1.899 . S
O340 C348 1.284 1_455 S
Zn341 O340 1.899 . S
Zn341 O342 2.032 . S
Zn341 O345 2.086 . S
Zn341 O350 1.977 . S
O342 Zn341 2.032 . S
O342 C346 1.278 . S
C343 O344 1.203 . S
C343 O350 1.267 . S
O344 C343 1.203 . S
O345 C338 1.185 . S
O345 Zn341 2.086 . S
C346 O342 1.278 . S
C346 O347 1.211 . S
O347 C346 1.211 . S
C348 O340 1.284 1_655 S
C348 O349 1.273 . S
O349 C348 1.273 . S
O350 Zn341 1.977 . S
O350 C343 1.267 . S
C351 O352 1.160 . S
C351 O358 1.185 . S
O352 C351 1.160 . S
O353 Zn354 1.899 . S
O353 C361 1.284 . S
Zn354 O353 1.899 . S
Zn354 O355 2.032 . S
Zn354 O358 2.086 . S
Zn354 O363 1.977 . S
O355 Zn354 2.032 . S
O355 C359 1.278 . S
C356 O357 1.203 . S
C356 O363 1.267 . S
O357 C356 1.203 . S
O358 C351 1.185 . S
O358 Zn354 2.086 . S
C359 O355 1.278 . S
C359 O360 1.211 . S
O360 C359 1.211 . S
C361 O353 1.284 . S
C361 O362 1.273 . S
O362 C361 1.273 . S
O363 Zn354 1.977 . S
O363 C356 1.267 . S
H364 C370 0.930 . S
H365 C374 0.930 . S
H366 C379 0.929 . S
H367 C377 0.929 . S
H368 C372 0.929 . S
H369 C378 0.929 . S
C370 H364 0.930 . S
C370 C371 1.367 . S
C370 C378 1.378 . S
C371 C370 1.367 . S
C371 C379 1.433 . S
C372 H368 0.929 . S
C372 C374 1.378 . S
C372 C376 1.350 . S
C373 C376 1.463 . S
C373 C378 1.350 . S
C373 N381 1.427 . S
C374 H365 0.930 . S
C374 C372 1.378 . S
C374 C375 1.367 . S
C375 C374 1.367 . S
C375 C377 1.433 . S
C376 C372 1.350 . S
C376 C373 1.463 . S
C376 N380 1.427 . S
C377 H367 0.929 . S
C377 C375 1.433 . S
C377 N380 1.384 . S
C378 H369 0.929 . S
C378 C370 1.378 . S
C378 C373 1.350 . S
C379 H366 0.929 . S
C379 C371 1.433 . S
C379 N381 1.384 . S
N380 C376 1.427 . S
N380 C377 1.384 . S
N381 C373 1.427 . S
N381 C379 1.384 . S
H382 C388 0.930 . S
H383 C392 0.930 . S
H384 C397 0.929 . S
H385 C395 0.929 . S
H386 C390 0.929 . S
H387 C396 0.929 . S
C388 H382 0.930 . S
C388 C389 1.367 . S
C388 C396 1.378 . S
C389 C388 1.367 . S
C389 C397 1.433 . S
C390 H386 0.929 . S
C390 C392 1.378 . S
C390 C394 1.350 . S
C391 C394 1.463 . S
C391 C396 1.350 . S
C391 N399 1.427 . S
C392 H383 0.930 . S
C392 C390 1.378 . S
C392 C393 1.367 . S
C393 C392 1.367 . S
C393 C395 1.433 . S
C394 C390 1.350 . S
C394 C391 1.463 . S
C394 N398 1.427 . S
C395 H385 0.929 . S
C395 C393 1.433 . S
C395 N398 1.384 . S
C396 H387 0.929 . S
C396 C388 1.378 . S
C396 C391 1.350 . S
C397 H384 0.929 . S
C397 C389 1.433 . S
C397 N399 1.384 . S
N398 C394 1.427 . S
N398 C395 1.384 . S
N399 C391 1.427 . S
N399 C397 1.384 . S
H400 C406 0.930 . S
H401 C410 0.930 . S
H402 C415 0.929 . S
H403 C413 0.929 . S
H404 C408 0.929 . S
H405 C414 0.929 . S
C406 H400 0.930 . S
C406 C407 1.367 . S
C406 C414 1.378 . S
C407 C406 1.367 . S
C407 C415 1.433 . S
C408 H404 0.929 . S
C408 C410 1.378 . S
C408 C412 1.350 . S
C409 C412 1.463 . S
C409 C414 1.350 . S
C409 N417 1.427 . S
C410 H401 0.930 . S
C410 C408 1.378 . S
C410 C411 1.367 . S
C411 C410 1.367 . S
C411 C413 1.433 . S
C412 C408 1.350 . S
C412 C409 1.463 . S
C412 N416 1.427 . S
C413 H403 0.929 . S
C413 C411 1.433 . S
C413 N416 1.384 . S
C414 H405 0.929 . S
C414 C406 1.378 . S
C414 C409 1.350 . S
C415 H402 0.929 . S
C415 C407 1.433 . S
C415 N417 1.384 . S
N416 C412 1.427 . S
N416 C413 1.384 . S
N417 C409 1.427 . S
N417 C415 1.384 . S
H418 C424 0.930 . S
H419 C428 0.930 . S
H420 C433 0.931 1_455 S
H421 C431 0.929 . S
H422 C426 0.929 . S
H423 C432 0.929 . S
C424 H418 0.930 . S
C424 C425 1.367 1_545 S
C424 C432 1.378 . S
C425 C424 1.367 1_565 S
C425 C433 1.433 . S
C426 H422 0.929 . S
C426 C428 1.378 . S
C426 C430 1.350 1_565 S
C427 C430 1.463 . S
C427 C432 1.350 . S
C427 N435 1.427 1_545 S
C428 H419 0.930 . S
C428 C426 1.378 . S
C428 C429 1.367 1_565 S
C429 C428 1.367 1_545 S
C429 C431 1.433 . S
C430 C426 1.350 1_545 S
C430 C427 1.463 . S
C430 N434 1.427 . S
C431 H421 0.929 . S
C431 C429 1.433 . S
C431 N434 1.384 . S
C432 H423 0.929 . S
C432 C424 1.378 . S
C432 C427 1.350 . S
C433 H420 0.931 1_655 S
C433 C425 1.433 . S
C433 N435 1.384 . S
N434 C430 1.427 . S
N434 C431 1.384 . S
N435 C427 1.427 1_565 S
N435 C433 1.384 . S
H436 C442 0.930 . S
H437 C446 0.930 . S
H438 C451 0.929 . S
H439 C449 0.929 . S
H440 C444 0.929 . S
H441 C450 0.929 . S
C442 H436 0.930 . S
C442 C443 1.367 . S
C442 C450 1.378 . S
C443 C442 1.367 . S
C443 C451 1.433 . S
C444 H440 0.929 . S
C444 C446 1.378 . S
C444 C448 1.350 . S
C445 C448 1.463 . S
C445 C450 1.350 . S
C445 N453 1.427 . S
C446 H437 0.930 . S
C446 C444 1.378 . S
C446 C447 1.367 . S
C447 C446 1.367 . S
C447 C449 1.433 . S
C448 C444 1.350 . S
C448 C445 1.463 . S
C448 N452 1.427 . S
C449 H439 0.929 . S
C449 C447 1.433 . S
C449 N452 1.384 . S
C450 H441 0.929 . S
C450 C442 1.378 . S
C450 C445 1.350 . S
C451 H438 0.929 . S
C451 C443 1.433 . S
C451 N453 1.384 . S
N452 C448 1.427 . S
N452 C449 1.384 . S
N453 C445 1.427 . S
N453 C451 1.384 . S
H454 C460 0.930 . S
H455 C464 0.930 . S
H456 C469 0.929 . S
H457 C467 0.929 . S
H458 C462 0.929 . S
H459 C468 0.929 . S
C460 H454 0.930 . S
C460 C461 1.367 . S
C460 C468 1.378 . S
C461 C460 1.367 . S
C461 C469 1.433 . S
C462 H458 0.929 . S
C462 C464 1.378 . S
C462 C466 1.350 . S
C463 C466 1.463 . S
C463 C468 1.350 . S
C463 N471 1.427 . S
C464 H455 0.930 . S
C464 C462 1.378 . S
C464 C465 1.367 . S
C465 C464 1.367 . S
C465 C467 1.433 . S
C466 C462 1.350 . S
C466 C463 1.463 . S
C466 N470 1.427 . S
C467 H457 0.929 . S
C467 C465 1.433 . S
C467 N470 1.384 . S
C468 H459 0.929 . S
C468 C460 1.378 . S
C468 C463 1.350 . S
C469 H456 0.929 . S
C469 C461 1.433 . S
C469 N471 1.384 . S
N470 C466 1.427 . S
N470 C467 1.384 . S
N471 C463 1.427 . S
N471 C469 1.384 . S
H472 C478 0.930 . S
H473 C482 0.930 . S
H474 C487 0.929 . S
H475 C485 0.929 . S
H476 C480 0.929 . S
H477 C486 0.929 . S
C478 H472 0.930 . S
C478 C479 1.367 . S
C478 C486 1.378 . S
C479 C478 1.367 . S
C479 C487 1.433 . S
C480 H476 0.929 . S
C480 C482 1.378 . S
C480 C484 1.350 . S
C481 C484 1.463 . S
C481 C486 1.350 . S
C481 N489 1.427 . S
C482 H473 0.930 . S
C482 C480 1.378 . S
C482 C483 1.367 . S
C483 C482 1.367 . S
C483 C485 1.433 . S
C484 C480 1.350 . S
C484 C481 1.463 . S
C484 N488 1.427 . S
C485 H475 0.929 . S
C485 C483 1.433 . S
C485 N488 1.384 . S
C486 H477 0.929 . S
C486 C478 1.378 . S
C486 C481 1.350 . S
C487 H474 0.929 . S
C487 C479 1.433 . S
C487 N489 1.384 . S
N488 C484 1.427 . S
N488 C485 1.384 . S
N489 C481 1.427 . S
N489 C487 1.384 . S
H490 C496 0.930 . S
H491 C500 0.930 . S
H492 C505 0.929 1_545 S
H493 C503 0.929 . S
H494 C498 0.929 . S
H495 C504 0.929 . S
C496 H490 0.930 . S
C496 C497 1.367 . S
C496 C504 1.378 . S
C497 C496 1.367 . S
C497 C505 1.433 . S
C498 H494 0.929 . S
C498 C500 1.378 . S
C498 C502 1.350 1_545 S
C499 C502 1.463 . S
C499 C504 1.350 . S
C499 N507 1.408 1_565 S
C500 H491 0.930 . S
C500 C498 1.378 . S
C500 C501 1.367 1_545 S
C501 C500 1.367 1_565 S
C501 C503 1.433 . S
C502 C498 1.350 1_565 S
C502 C499 1.463 . S
C502 N506 1.427 . S
C503 H493 0.929 . S
C503 C501 1.433 . S
C503 N506 1.384 . S
C504 H495 0.929 . S
C504 C496 1.378 . S
C504 C499 1.350 . S
C505 H492 0.929 1_565 S
C505 C497 1.433 . S
C505 N507 1.383 1_565 S
N506 C502 1.427 . S
N506 C503 1.384 . S
N507 C499 1.408 1_545 S
N507 C505 1.383 1_545 S
H508 C514 0.930 . S
H509 C518 0.930 . S
H510 C523 0.929 . S
H511 C521 0.929 . S
H512 C516 0.929 . S
H513 C522 0.929 . S
C514 H508 0.930 . S
C514 C515 1.367 . S
C514 C522 1.378 . S
C515 C514 1.367 . S
C515 C523 1.433 . S
C516 H512 0.929 . S
C516 C518 1.378 . S
C516 C520 1.350 . S
C517 C520 1.463 . S
C517 C522 1.350 . S
C517 N525 1.427 . S
C518 H509 0.930 . S
C518 C516 1.378 . S
C518 C519 1.367 . S
C519 C518 1.367 . S
C519 C521 1.433 . S
C520 C516 1.350 . S
C520 C517 1.463 . S
C520 N524 1.427 . S
C521 H511 0.929 . S
C521 C519 1.433 . S
C521 N524 1.384 . S
C522 H513 0.929 . S
C522 C514 1.378 . S
C522 C517 1.350 . S
C523 H510 0.929 . S
C523 C515 1.433 . S
C523 N525 1.384 . S
N524 C520 1.427 . S
N524 C521 1.384 . S
N525 C517 1.427 . S
N525 C523 1.384 . S
H526 C532 0.930 . S
H527 C536 0.930 . S
H528 C541 0.929 . S
H529 C539 0.929 . S
H530 C534 0.929 . S
H531 C540 0.929 . S
C532 H526 0.930 . S
C532 C533 1.367 . S
C532 C540 1.378 . S
C533 C532 1.367 . S
C533 C541 1.433 . S
C534 H530 0.929 . S
C534 C536 1.378 . S
C534 C538 1.350 . S
C535 C538 1.463 . S
C535 C540 1.350 . S
C535 N543 1.427 . S
C536 H527 0.930 . S
C536 C534 1.378 . S
C536 C537 1.367 . S
C537 C536 1.367 . S
C537 C539 1.433 . S
C538 C534 1.350 . S
C538 C535 1.463 . S
C538 N542 1.427 . S
C539 H529 0.929 . S
C539 C537 1.433 . S
C539 N542 1.384 . S
C540 H531 0.929 . S
C540 C532 1.378 . S
C540 C535 1.350 . S
C541 H528 0.929 . S
C541 C533 1.433 . S
C541 N543 1.384 . S
N542 C538 1.427 . S
N542 C539 1.384 . S
N543 C535 1.427 . S
N543 C541 1.384 . S
H544 C550 0.930 . S
H545 C554 0.930 . S
H546 C559 0.929 . S
H547 C557 0.929 . S
H548 C552 0.929 . S
H549 C558 0.929 . S
C550 H544 0.930 . S
C550 C551 1.367 . S
C550 C558 1.378 . S
C551 C550 1.367 . S
C551 C559 1.433 . S
C552 H548 0.929 . S
C552 C554 1.378 . S
C552 C556 1.350 . S
C553 C556 1.463 . S
C553 C558 1.350 . S
C553 N561 1.427 . S
C554 H545 0.930 . S
C554 C552 1.378 . S
C554 C555 1.367 . S
C555 C554 1.367 . S
C555 C557 1.433 . S
C556 C552 1.350 . S
C556 C553 1.463 . S
C556 N560 1.427 . S
C557 H547 0.929 . S
C557 C555 1.433 . S
C557 N560 1.384 . S
C558 H549 0.929 . S
C558 C550 1.378 . S
C558 C553 1.350 . S
C559 H546 0.929 . S
C559 C551 1.433 . S
C559 N561 1.384 . S
N560 C556 1.427 . S
N560 C557 1.384 . S
N561 C553 1.427 . S
N561 C559 1.384 . S
H562 C568 0.930 . S
H563 C572 0.930 . S
H564 C577 0.929 . S
H565 C575 0.929 . S
H566 C570 0.929 . S
H567 C576 0.929 . S
C568 H562 0.930 . S
C568 C569 1.367 . S
C568 C576 1.378 . S
C569 C568 1.367 . S
C569 C577 1.433 . S
C570 H566 0.929 . S
C570 C572 1.378 . S
C570 C574 1.350 . S
C571 C574 1.463 . S
C571 C576 1.350 . S
C571 N579 1.427 . S
C572 H563 0.930 . S
C572 C570 1.378 . S
C572 C573 1.367 . S
C573 C572 1.367 . S
C573 C575 1.433 . S
C574 C570 1.350 . S
C574 C571 1.463 . S
C574 N578 1.427 . S
C575 H565 0.929 . S
C575 C573 1.433 . S
C575 N578 1.384 . S
C576 H567 0.929 . S
C576 C568 1.378 . S
C576 C571 1.350 . S
C577 H564 0.929 . S
C577 C569 1.433 . S
C577 N579 1.384 . S
N578 C574 1.427 . S
N578 C575 1.384 . S
N579 C571 1.427 . S
N579 C577 1.384 . S
H580 C586 0.930 . S
H581 C590 0.930 . S
H582 C595 0.929 . S
H583 C593 0.929 . S
H584 C588 0.929 . S
H585 C594 0.929 . S
C586 H580 0.930 . S
C586 C587 1.367 . S
C586 C594 1.378 . S
C587 C586 1.367 . S
C587 C595 1.433 . S
C588 H584 0.929 . S
C588 C590 1.378 . S
C588 C592 1.350 . S
C589 C592 1.463 . S
C589 C594 1.350 . S
C589 N597 1.427 . S
C590 H581 0.930 . S
C590 C588 1.378 . S
C590 C591 1.367 . S
C591 C590 1.367 . S
C591 C593 1.433 . S
C592 C588 1.350 . S
C592 C589 1.463 . S
C592 N596 1.427 . S
C593 H583 0.929 . S
C593 C591 1.433 . S
C593 N596 1.384 . S
C594 H585 0.929 . S
C594 C586 1.378 . S
C594 C589 1.350 . S
C595 H582 0.929 . S
C595 C587 1.433 . S
C595 N597 1.384 . S
N596 C592 1.427 . S
N596 C593 1.384 . S
N597 C589 1.427 . S
N597 C595 1.384 . S
H598 C604 0.930 . S
H599 C608 0.930 . S
H600 C613 0.929 . S
H601 C611 0.929 . S
H602 C606 0.929 . S
H603 C612 0.929 . S
C604 H598 0.930 . S
C604 C605 1.367 . S
C604 C612 1.378 . S
C605 C604 1.367 . S
C605 C613 1.433 . S
C606 H602 0.929 . S
C606 C608 1.378 . S
C606 C610 1.350 . S
C607 C610 1.463 . S
C607 C612 1.350 . S
C607 N615 1.427 . S
C608 H599 0.930 . S
C608 C606 1.378 . S
C608 C609 1.367 . S
C609 C608 1.367 . S
C609 C611 1.433 . S
C610 C606 1.350 . S
C610 C607 1.463 . S
C610 N614 1.427 . S
C611 H601 0.929 . S
C611 C609 1.433 . S
C611 N614 1.384 . S
C612 H603 0.929 . S
C612 C604 1.378 . S
C612 C607 1.350 . S
C613 H600 0.929 . S
C613 C605 1.433 . S
C613 N615 1.384 . S
N614 C610 1.427 . S
N614 C611 1.384 . S
N615 C607 1.427 . S
N615 C613 1.384 . S
H616 C622 0.930 . S
H617 C626 0.930 . S
H618 C631 0.929 . S
H619 C629 0.929 . S
H620 C624 0.929 . S
H621 C630 0.929 . S
C622 H616 0.930 . S
C622 C623 1.367 . S
C622 C630 1.378 . S
C623 C622 1.367 . S
C623 C631 1.433 . S
C624 H620 0.929 . S
C624 C626 1.378 . S
C624 C628 1.350 . S
C625 C628 1.463 . S
C625 C630 1.350 . S
C625 N633 1.427 . S
C626 H617 0.930 . S
C626 C624 1.378 . S
C626 C627 1.367 . S
C627 C626 1.367 . S
C627 C629 1.433 . S
C628 C624 1.350 . S
C628 C625 1.463 . S
C628 N632 1.427 . S
C629 H619 0.929 . S
C629 C627 1.433 . S
C629 N632 1.384 . S
C630 H621 0.929 . S
C630 C622 1.378 . S
C630 C625 1.350 . S
C631 H618 0.929 . S
C631 C623 1.433 . S
C631 N633 1.384 . S
N632 C628 1.427 . S
N632 C629 1.384 . S
N633 C625 1.427 . S
N633 C631 1.384 . S
H634 C640 0.930 . S
H635 C644 0.930 . S
H636 C649 0.929 . S
H637 C647 0.929 . S
H638 C642 0.929 . S
H639 C648 0.929 . S
C640 H634 0.930 . S
C640 C641 1.367 . S
C640 C648 1.378 . S
C641 C640 1.367 . S
C641 C649 1.433 1_655 S
C642 H638 0.929 . S
C642 C644 1.378 . S
C642 C646 1.350 1_455 S
C643 C646 1.463 . S
C643 C648 1.350 . S
C643 N651 1.427 1_655 S
C644 H635 0.930 . S
C644 C642 1.378 . S
C644 C645 1.367 . S
C645 C644 1.367 . S
C645 C647 1.433 1_455 S
C646 C642 1.350 1_655 S
C646 C643 1.463 . S
C646 N650 1.427 . S
C647 H637 0.929 . S
C647 C645 1.433 1_655 S
C647 N650 1.384 . S
C648 H639 0.929 . S
C648 C640 1.378 . S
C648 C643 1.350 . S
C649 H636 0.929 . S
C649 C641 1.433 1_455 S
C649 N651 1.384 . S
N650 C646 1.427 . S
N650 C647 1.384 . S
N651 C643 1.427 1_455 S
N651 C649 1.384 . S
H652 C658 0.930 . S
H653 C662 0.930 . S
H654 C667 0.929 . S
H655 C665 0.929 . S
H656 C660 0.929 . S
H657 C666 0.929 . S
C658 H652 0.930 . S
C658 C659 1.367 . S
C658 C666 1.378 . S
C659 C658 1.367 . S
C659 C667 1.433 . S
C660 H656 0.929 . S
C660 C662 1.378 . S
C660 C664 1.350 . S
C661 C664 1.463 . S
C661 C666 1.350 . S
C661 N669 1.427 . S
C662 H653 0.930 . S
C662 C660 1.378 . S
C662 C663 1.367 . S
C663 C662 1.367 . S
C663 C665 1.433 . S
C664 C660 1.350 . S
C664 C661 1.463 . S
C664 N668 1.427 . S
C665 H655 0.929 . S
C665 C663 1.433 . S
C665 N668 1.384 . S
C666 H657 0.929 . S
C666 C658 1.378 . S
C666 C661 1.350 . S
C667 H654 0.929 . S
C667 C659 1.433 . S
C667 N669 1.384 . S
N668 C664 1.427 . S
N668 C665 1.384 . S
N669 C661 1.427 . S
N669 C667 1.384 . S
H670 C676 0.930 . S
H671 C680 0.930 . S
H672 C685 0.929 . S
H673 C683 0.929 . S
H674 C678 0.929 . S
H675 C684 0.929 . S
C676 H670 0.930 . S
C676 C677 1.367 . S
C676 C684 1.378 . S
C677 C676 1.367 . S
C677 C685 1.433 . S
C678 H674 0.929 . S
C678 C680 1.378 . S
C678 C682 1.350 . S
C679 C682 1.463 . S
C679 C684 1.350 . S
C679 N687 1.427 . S
C680 H671 0.930 . S
C680 C678 1.378 . S
C680 C681 1.367 . S
C681 C680 1.367 . S
C681 C683 1.433 . S
C682 C678 1.350 . S
C682 C679 1.463 . S
C682 N686 1.427 . S
C683 H673 0.929 . S
C683 C681 1.433 . S
C683 N686 1.384 . S
C684 H675 0.929 . S
C684 C676 1.378 . S
C684 C679 1.350 . S
C685 H672 0.929 . S
C685 C677 1.433 . S
C685 N687 1.384 . S
N686 C682 1.427 . S
N686 C683 1.384 . S
N687 C679 1.427 . S
N687 C685 1.384 . S
H688 C694 0.930 1_565 S
H689 C698 0.930 . S
H690 C703 0.929 . S
H691 C701 0.929 . S
H692 C696 0.929 1_545 S
H693 C702 0.929 . S
C694 H688 0.930 1_545 S
C694 C695 1.367 . S
C694 C702 1.378 1_545 S
C695 C694 1.367 . S
C695 C703 1.433 . S
C696 H692 0.929 1_565 S
C696 C698 1.378 . S
C696 C700 1.350 . S
C697 C700 1.463 . S
C697 C702 1.350 . S
C697 N705 1.427 1_565 S
C698 H689 0.930 . S
C698 C696 1.378 . S
C698 C699 1.367 . S
C699 C698 1.367 . S
C699 C701 1.433 . S
C700 C696 1.350 . S
C700 C697 1.463 . S
C700 N704 1.427 . S
C701 H691 0.929 . S
C701 C699 1.433 . S
C701 N704 1.384 . S
C702 H693 0.929 . S
C702 C694 1.378 1_565 S
C702 C697 1.350 . S
C703 H690 0.929 . S
C703 C695 1.433 . S
C703 N705 1.384 . S
N704 C700 1.427 . S
N704 C701 1.384 . S
N705 C697 1.427 1_545 S
N705 C703 1.384 . S
H706 C712 0.930 . S
H707 C716 0.930 . S
H708 C721 0.929 . S
H709 C719 0.929 . S
H710 C714 0.929 . S
H711 C720 0.929 . S
C712 H706 0.930 . S
C712 C713 1.367 . S
C712 C720 1.378 . S
C713 C712 1.367 . S
C713 C721 1.433 . S
C714 H710 0.929 . S
C714 C716 1.378 . S
C714 C718 1.350 . S
C715 C718 1.463 . S
C715 C720 1.350 . S
C715 N723 1.427 . S
C716 H707 0.930 . S
C716 C714 1.378 . S
C716 C717 1.367 . S
C717 C716 1.367 . S
C717 C719 1.433 . S
C718 C714 1.350 . S
C718 C715 1.463 . S
C718 N722 1.427 . S
C719 H709 0.929 . S
C719 C717 1.433 . S
C719 N722 1.384 . S
C720 H711 0.929 . S
C720 C712 1.378 . S
C720 C715 1.350 . S
C721 H708 0.929 . S
C721 C713 1.433 . S
C721 N723 1.384 . S
N722 C718 1.427 . S
N722 C719 1.384 . S
N723 C715 1.427 . S
N723 C721 1.384 . S
H724 C730 0.930 1_565 S
H725 C734 0.930 . S
H726 C739 0.929 . S
H727 C737 0.929 . S
H728 C732 0.929 . S
H729 C738 0.929 . S
C730 H724 0.930 1_545 S
C730 C731 1.367 . S
C730 C738 1.378 . S
C731 C730 1.367 . S
C731 C739 1.433 . S
C732 H728 0.929 . S
C732 C734 1.378 . S
C732 C736 1.350 . S
C733 C736 1.463 . S
C733 C738 1.350 . S
C733 N741 1.427 . S
C734 H725 0.930 . S
C734 C732 1.378 . S
C734 C735 1.367 . S
C735 C734 1.367 . S
C735 C737 1.433 . S
C736 C732 1.350 . S
C736 C733 1.463 . S
C736 N740 1.427 . S
C737 H727 0.929 . S
C737 C735 1.433 . S
C737 N740 1.384 . S
C738 H729 0.929 . S
C738 C730 1.378 . S
C738 C733 1.350 . S
C739 H726 0.929 . S
C739 C731 1.433 . S
C739 N741 1.384 . S
N740 C736 1.427 . S
N740 C737 1.384 . S
N741 C733 1.427 . S
N741 C739 1.384 . S
H742 C748 0.930 . S
H743 C752 0.930 . S
H744 C757 0.929 . S
H745 C755 0.929 . S
H746 C750 0.929 . S
H747 C756 0.929 . S
C748 H742 0.930 . S
C748 C749 1.367 . S
C748 C756 1.378 . S
C749 C748 1.367 . S
C749 C757 1.433 . S
C750 H746 0.929 . S
C750 C752 1.378 . S
C750 C754 1.350 . S
C751 C754 1.463 . S
C751 C756 1.350 . S
C751 N759 1.427 . S
C752 H743 0.930 . S
C752 C750 1.378 . S
C752 C753 1.367 . S
C753 C752 1.367 . S
C753 C755 1.433 . S
C754 C750 1.350 . S
C754 C751 1.463 . S
C754 N758 1.427 . S
C755 H745 0.929 . S
C755 C753 1.433 . S
C755 N758 1.384 . S
C756 H747 0.929 . S
C756 C748 1.378 . S
C756 C751 1.350 . S
C757 H744 0.929 . S
C757 C749 1.433 . S
C757 N759 1.384 . S
N758 C754 1.427 . S
N758 C755 1.384 . S
N759 C751 1.427 . S
N759 C757 1.384 . S
H760 C766 0.930 . S
H761 C770 0.930 . S
H762 C775 0.929 . S
H763 C773 0.929 . S
H764 C768 0.929 . S
H765 C774 0.929 . S
C766 H760 0.930 . S
C766 C767 1.385 . S
C766 C774 1.378 . S
C767 C766 1.385 . S
C767 C775 1.428 1_545 S
C768 H764 0.929 . S
C768 C770 1.378 . S
C768 C772 1.350 . S
C769 C772 1.463 . S
C769 C774 1.350 . S
C769 N777 1.427 . S
C770 H761 0.930 . S
C770 C768 1.378 . S
C770 C771 1.367 . S
C771 C770 1.367 . S
C771 C773 1.433 . S
C772 C768 1.350 . S
C772 C769 1.463 . S
C772 N776 1.427 . S
C773 H763 0.929 . S
C773 C771 1.433 . S
C773 N776 1.384 . S
C774 H765 0.929 . S
C774 C766 1.378 . S
C774 C769 1.350 . S
C775 H762 0.929 . S
C775 C767 1.428 1_565 S
C775 N777 1.384 1_565 S
N776 C772 1.427 . S
N776 C773 1.384 . S
N777 C769 1.427 . S
N777 C775 1.384 1_545 S
H778 C784 0.930 . S
H779 C788 0.930 . S
H780 C793 0.929 . S
H781 C791 0.929 . S
H782 C786 0.929 . S
H783 C792 0.929 . S
C784 H778 0.930 . S
C784 C785 1.367 . S
C784 C792 1.378 . S
C785 C784 1.367 . S
C785 C793 1.433 . S
C786 H782 0.929 . S
C786 C788 1.378 . S
C786 C790 1.350 . S
C787 C790 1.463 . S
C787 C792 1.350 . S
C787 N795 1.427 . S
C788 H779 0.930 . S
C788 C786 1.378 . S
C788 C789 1.367 . S
C789 C788 1.367 . S
C789 C791 1.433 . S
C790 C786 1.350 . S
C790 C787 1.463 . S
C790 N794 1.427 . S
C791 H781 0.929 . S
C791 C789 1.433 . S
C791 N794 1.384 . S
C792 H783 0.929 . S
C792 C784 1.378 . S
C792 C787 1.350 . S
C793 H780 0.929 . S
C793 C785 1.433 . S
C793 N795 1.384 . S
N794 C790 1.427 . S
N794 C791 1.384 . S
N795 C787 1.427 . S
N795 C793 1.384 . S
H796 C802 0.930 . S
H797 C806 0.930 . S
H798 C811 0.929 . S
H799 C809 0.929 . S
H800 C804 0.929 . S
H801 C810 0.929 . S
C802 H796 0.930 . S
C802 C803 1.367 . S
C802 C810 1.378 . S
C803 C802 1.367 . S
C803 C811 1.433 . S
C804 H800 0.929 . S
C804 C806 1.378 . S
C804 C808 1.350 . S
C805 C808 1.463 . S
C805 C810 1.350 . S
C805 N813 1.427 . S
C806 H797 0.930 . S
C806 C804 1.378 . S
C806 C807 1.367 . S
C807 C806 1.367 . S
C807 C809 1.433 . S
C808 C804 1.350 . S
C808 C805 1.463 . S
C808 N812 1.427 . S
C809 H799 0.929 . S
C809 C807 1.433 . S
C809 N812 1.384 . S
C810 H801 0.929 . S
C810 C802 1.378 . S
C810 C805 1.350 . S
C811 H798 0.929 . S
C811 C803 1.433 . S
C811 N813 1.384 . S
N812 C808 1.427 . S
N812 C809 1.384 . S
N813 C805 1.427 . S
N813 C811 1.384 . S
H814 C820 0.930 . S
H815 C824 0.930 . S
H816 C829 0.929 . S
H817 C827 0.929 . S
H818 C822 0.929 . S
H819 C828 0.929 . S
C820 H814 0.930 . S
C820 C821 1.367 . S
C820 C828 1.378 . S
C821 C820 1.367 . S
C821 C829 1.433 . S
C822 H818 0.929 . S
C822 C824 1.378 . S
C822 C826 1.350 1_565 S
C823 C826 1.463 . S
C823 C828 1.350 . S
C823 N831 1.427 . S
C824 H815 0.930 . S
C824 C822 1.378 . S
C824 C825 1.367 1_565 S
C825 C824 1.367 1_545 S
C825 C827 1.433 . S
C826 C822 1.350 1_545 S
C826 C823 1.463 . S
C826 N830 1.427 . S
C827 H817 0.929 . S
C827 C825 1.433 . S
C827 N830 1.384 . S
C828 H819 0.929 . S
C828 C820 1.378 . S
C828 C823 1.350 . S
C829 H816 0.929 . S
C829 C821 1.433 . S
C829 N831 1.384 . S
N830 C826 1.427 . S
N830 C827 1.384 . S
N831 C823 1.427 . S
N831 C829 1.384 . S
H832 C838 0.930 . S
H833 C842 0.930 . S
H834 C847 0.929 . S
H835 C845 0.929 . S
H836 C840 0.929 . S
H837 C846 0.929 . S
C838 H832 0.930 . S
C838 C839 1.367 . S
C838 C846 1.378 . S
C839 C838 1.367 . S
C839 C847 1.433 . S
C840 H836 0.929 . S
C840 C842 1.378 . S
C840 C844 1.350 . S
C841 C844 1.463 . S
C841 C846 1.350 . S
C841 N849 1.427 . S
C842 H833 0.930 . S
C842 C840 1.378 . S
C842 C843 1.367 . S
C843 C842 1.367 . S
C843 C845 1.433 . S
C844 C840 1.350 . S
C844 C841 1.463 . S
C844 N848 1.427 . S
C845 H835 0.929 . S
C845 C843 1.433 . S
C845 N848 1.384 . S
C846 H837 0.929 . S
C846 C838 1.378 . S
C846 C841 1.350 . S
C847 H834 0.929 . S
C847 C839 1.433 . S
C847 N849 1.384 . S
N848 C844 1.427 . S
N848 C845 1.384 . S
N849 C841 1.427 . S
N849 C847 1.384 . S
H850 C856 0.930 . S
H851 C860 0.930 . S
H852 C865 0.929 . S
H853 C863 0.929 . S
H854 C858 0.929 . S
H855 C864 0.929 . S
C856 H850 0.930 . S
C856 C857 1.367 . S
C856 C864 1.378 . S
C857 C856 1.367 . S
C857 C865 1.433 . S
C858 H854 0.929 . S
C858 C860 1.378 . S
C858 C862 1.350 . S
C859 C862 1.463 . S
C859 C864 1.350 . S
C859 N867 1.427 . S
C860 H851 0.930 . S
C860 C858 1.378 . S
C860 C861 1.367 . S
C861 C860 1.367 . S
C861 C863 1.433 . S
C862 C858 1.350 . S
C862 C859 1.463 . S
C862 N866 1.427 . S
C863 H853 0.929 . S
C863 C861 1.433 . S
C863 N866 1.384 . S
C864 H855 0.929 . S
C864 C856 1.378 . S
C864 C859 1.350 . S
C865 H852 0.929 . S
C865 C857 1.433 . S
C865 N867 1.384 . S
N866 C862 1.427 . S
N866 C863 1.384 . S
N867 C859 1.427 . S
N867 C865 1.384 . S
H868 C874 0.930 . S
H869 C878 0.930 . S
H870 C883 0.929 . S
H871 C881 0.929 . S
H872 C876 0.929 . S
H873 C882 0.929 . S
C874 H868 0.930 . S
C874 C875 1.367 . S
C874 C882 1.378 . S
C875 C874 1.367 . S
C875 C883 1.433 . S
C876 H872 0.929 . S
C876 C878 1.378 . S
C876 C880 1.350 . S
C877 C880 1.463 . S
C877 C882 1.350 . S
C877 N885 1.427 . S
C878 H869 0.930 . S
C878 C876 1.378 . S
C878 C879 1.367 . S
C879 C878 1.367 . S
C879 C881 1.433 . S
C880 C876 1.350 . S
C880 C877 1.463 . S
C880 N884 1.427 . S
C881 H871 0.929 . S
C881 C879 1.433 . S
C881 N884 1.384 . S
C882 H873 0.929 . S
C882 C874 1.378 . S
C882 C877 1.350 . S
C883 H870 0.929 . S
C883 C875 1.433 . S
C883 N885 1.384 . S
N884 C880 1.427 . S
N884 C881 1.384 . S
N885 C877 1.427 . S
N885 C883 1.384 . S
H886 C892 0.930 . S
H887 C896 0.930 . S
H888 C901 0.929 . S
H889 C899 0.929 . S
H890 C894 0.929 . S
H891 C900 0.929 . S
C892 H886 0.930 . S
C892 C893 1.367 1_455 S
C892 C900 1.378 1_455 S
C893 C892 1.367 1_655 S
C893 C901 1.433 . S
C894 H890 0.929 . S
C894 C896 1.378 . S
C894 C898 1.350 . S
C895 C898 1.463 . S
C895 C900 1.350 . S
C895 N903 1.427 . S
C896 H887 0.930 . S
C896 C894 1.378 . S
C896 C897 1.367 . S
C897 C896 1.367 . S
C897 C899 1.433 . S
C898 C894 1.350 . S
C898 C895 1.463 . S
C898 N902 1.427 . S
C899 H889 0.929 . S
C899 C897 1.433 . S
C899 N902 1.384 . S
C900 H891 0.929 . S
C900 C892 1.378 1_655 S
C900 C895 1.350 . S
C901 H888 0.929 . S
C901 C893 1.433 . S
C901 N903 1.384 . S
N902 C898 1.427 . S
N902 C899 1.384 . S
N903 C895 1.427 . S
N903 C901 1.384 . S
H904 C910 0.930 . S
H905 C914 0.930 . S
H906 C919 0.929 . S
H907 C917 0.929 . S
H908 C912 0.929 . S
H909 C918 0.929 . S
C910 H904 0.930 . S
C910 C911 1.367 . S
C910 C918 1.378 . S
C911 C910 1.367 . S
C911 C919 1.433 . S
C912 H908 0.929 . S
C912 C914 1.378 . S
C912 C916 1.350 . S
C913 C916 1.463 . S
C913 C918 1.350 . S
C913 N921 1.427 . S
C914 H905 0.930 . S
C914 C912 1.378 . S
C914 C915 1.367 . S
C915 C914 1.367 . S
C915 C917 1.433 . S
C916 C912 1.350 . S
C916 C913 1.463 . S
C916 N920 1.427 . S
C917 H907 0.929 . S
C917 C915 1.433 . S
C917 N920 1.384 . S
C918 H909 0.929 . S
C918 C910 1.378 . S
C918 C913 1.350 . S
C919 H906 0.929 . S
C919 C911 1.433 . S
C919 N921 1.384 . S
N920 C916 1.427 . S
N920 C917 1.384 . S
N921 C913 1.427 . S
N921 C919 1.384 . S
H922 C928 0.930 1_655 S
H923 C932 0.930 . S
H924 C937 0.929 . S
H925 C935 0.929 . S
H926 C930 0.929 . S
H927 C936 0.929 . S
C928 H922 0.930 1_455 S
C928 C929 1.367 . S
C928 C936 1.378 . S
C929 C928 1.367 . S
C929 C937 1.433 . S
C930 H926 0.929 . S
C930 C932 1.378 . S
C930 C934 1.350 . S
C931 C934 1.463 . S
C931 C936 1.350 . S
C931 N939 1.427 . S
C932 H923 0.930 . S
C932 C930 1.378 . S
C932 C933 1.367 . S
C933 C932 1.367 . S
C933 C935 1.433 . S
C934 C930 1.350 . S
C934 C931 1.463 . S
C934 N938 1.427 . S
C935 H925 0.929 . S
C935 C933 1.433 . S
C935 N938 1.384 . S
C936 H927 0.929 . S
C936 C928 1.378 . S
C936 C931 1.350 . S
C937 H924 0.929 . S
C937 C929 1.433 . S
C937 N939 1.384 . S
N938 C934 1.427 . S
N938 C935 1.384 . S
N939 C931 1.427 . S
N939 C937 1.384 . S
H940 C946 0.930 . S
H941 C950 0.930 . S
H942 C955 0.929 . S
H943 C953 0.929 . S
H944 C948 0.929 . S
H945 C954 0.929 . S
C946 H940 0.930 . S
C946 C947 1.367 . S
C946 C954 1.378 . S
C947 C946 1.367 . S
C947 C955 1.433 . S
C948 H944 0.929 . S
C948 C950 1.378 . S
C948 C952 1.350 . S
C949 C952 1.463 . S
C949 C954 1.350 . S
C949 N957 1.427 . S
C950 H941 0.930 . S
C950 C948 1.378 . S
C950 C951 1.367 . S
C951 C950 1.367 . S
C951 C953 1.433 . S
C952 C948 1.350 . S
C952 C949 1.463 . S
C952 N956 1.427 . S
C953 H943 0.929 . S
C953 C951 1.433 . S
C953 N956 1.384 . S
C954 H945 0.929 . S
C954 C946 1.378 . S
C954 C949 1.350 . S
C955 H942 0.929 . S
C955 C947 1.433 . S
C955 N957 1.384 . S
N956 C952 1.427 . S
N956 C953 1.384 . S
N957 C949 1.427 . S
N957 C955 1.384 . S
H958 C964 0.930 . S
H959 C968 0.930 . S
H960 C973 0.929 . S
H961 C971 0.929 . S
H962 C966 0.929 . S
H963 C972 0.930 . S
C964 H958 0.930 . S
C964 C965 1.367 . S
C964 C972 1.378 1_554 S
C965 C964 1.367 . S
C965 C973 1.433 1_554 S
C966 H962 0.929 . S
C966 C968 1.378 . S
C966 C970 1.350 1_455 S
C967 C970 1.463 . S
C967 C972 1.350 . S
C967 N975 1.427 . S
C968 H959 0.930 . S
C968 C966 1.378 . S
C968 C969 1.367 1_455 S
C969 C968 1.367 1_655 S
C969 C971 1.433 . S
C970 C966 1.350 1_655 S
C970 C967 1.463 . S
C970 N974 1.427 . S
C971 H961 0.929 . S
C971 C969 1.433 . S
C971 N974 1.384 . S
C972 H963 0.930 . S
C972 C964 1.378 1_556 S
C972 C967 1.350 . S
C973 H960 0.929 . S
C973 C965 1.433 1_556 S
C973 N975 1.384 . S
N974 C970 1.427 . S
N974 C971 1.384 . S
N975 C967 1.427 . S
N975 C973 1.384 . S
H976 C982 0.930 . S
H977 C986 0.930 . S
H978 C991 0.929 . S
H979 C989 0.929 . S
H980 C984 0.929 . S
H981 C990 0.929 . S
C982 H976 0.930 . S
C982 C983 1.367 . S
C982 C990 1.378 . S
C983 C982 1.367 . S
C983 C991 1.433 . S
C984 H980 0.929 . S
C984 C986 1.378 . S
C984 C988 1.350 . S
C985 C988 1.463 . S
C985 C990 1.350 . S
C985 N993 1.427 . S
C986 H977 0.930 . S
C986 C984 1.378 . S
C986 C987 1.367 . S
C987 C986 1.367 . S
C987 C989 1.433 . S
C988 C984 1.350 . S
C988 C985 1.463 . S
C988 N992 1.427 . S
C989 H979 0.929 . S
C989 C987 1.433 . S
C989 N992 1.384 . S
C990 H981 0.929 . S
C990 C982 1.378 . S
C990 C985 1.350 . S
C991 H978 0.929 . S
C991 C983 1.433 . S
C991 N993 1.384 . S
N992 C988 1.427 . S
N992 C989 1.384 . S
N993 C985 1.427 . S
N993 C991 1.384 . S
H994 C1000 0.930 . S
H995 C1004 0.930 . S
H996 C1009 0.929 . S
H997 C1007 0.938 . S
H998 C1002 0.929 . S
H999 C1008 0.929 . S
C1000 H994 0.930 . S
C1000 C1001 1.367 1_556 S
C1000 C1008 1.378 . S
C1001 C1000 1.367 1_554 S
C1001 C1009 1.433 . S
C1002 H998 0.929 . S
C1002 C1004 1.378 . S
C1002 C1006 1.350 . S
C1003 C1006 1.463 . S
C1003 C1008 1.350 . S
C1003 N1011 1.427 1_556 S
C1004 H995 0.930 . S
C1004 C1002 1.378 . S
C1004 C1005 1.367 . S
C1005 C1004 1.367 . S
C1005 C1007 1.435 1_455 S
C1006 C1002 1.350 . S
C1006 C1003 1.463 . S
C1006 N1010 1.427 . S
C1007 H997 0.938 . S
C1007 C1005 1.435 1_655 S
C1007 N1010 1.375 1_655 S
C1008 H999 0.929 . S
C1008 C1000 1.378 . S
C1008 C1003 1.350 . S
C1009 H996 0.929 . S
C1009 C1001 1.433 . S
C1009 N1011 1.384 . S
N1010 C1006 1.427 . S
N1010 C1007 1.375 1_455 S
N1011 C1003 1.427 1_554 S
N1011 C1009 1.384 . S
H1012 C1018 0.930 . S
H1013 C1022 0.930 . S
H1014 C1027 0.929 . S
H1015 C1025 0.929 . S
H1016 C1020 0.929 . S
H1017 C1026 0.929 . S
C1018 H1012 0.930 . S
C1018 C1019 1.367 . S
C1018 C1026 1.378 . S
C1019 C1018 1.367 . S
C1019 C1027 1.433 . S
C1020 H1016 0.929 . S
C1020 C1022 1.378 . S
C1020 C1024 1.350 . S
C1021 C1024 1.463 . S
C1021 C1026 1.350 . S
C1021 N1029 1.427 . S
C1022 H1013 0.930 . S
C1022 C1020 1.378 . S
C1022 C1023 1.367 . S
C1023 C1022 1.367 . S
C1023 C1025 1.433 . S
C1024 C1020 1.350 . S
C1024 C1021 1.463 . S
C1024 N1028 1.427 . S
C1025 H1015 0.929 . S
C1025 C1023 1.433 . S
C1025 N1028 1.384 . S
C1026 H1017 0.929 . S
C1026 C1018 1.378 . S
C1026 C1021 1.350 . S
C1027 H1014 0.929 . S
C1027 C1019 1.433 . S
C1027 N1029 1.384 . S
N1028 C1024 1.427 . S
N1028 C1025 1.384 . S
N1029 C1021 1.427 . S
N1029 C1027 1.384 . S
H1030 C1036 0.930 . S
H1031 C1040 0.930 . S
H1032 C1045 0.929 . S
H1033 C1043 0.929 . S
H1034 C1038 0.929 . S
H1035 C1044 0.929 . S
C1036 H1030 0.930 . S
C1036 C1037 1.367 . S
C1036 C1044 1.378 1_556 S
C1037 C1036 1.367 . S
C1037 C1045 1.433 1_556 S
C1038 H1034 0.929 . S
C1038 C1040 1.378 . S
C1038 C1042 1.350 . S
C1039 C1042 1.463 . S
C1039 C1044 1.350 . S
C1039 N1047 1.427 . S
C1040 H1031 0.930 . S
C1040 C1038 1.378 . S
C1040 C1041 1.367 . S
C1041 C1040 1.367 . S
C1041 C1043 1.433 . S
C1042 C1038 1.350 . S
C1042 C1039 1.463 . S
C1042 N1046 1.427 . S
C1043 H1033 0.929 . S
C1043 C1041 1.433 . S
C1043 N1046 1.384 . S
C1044 H1035 0.929 . S
C1044 C1036 1.378 1_554 S
C1044 C1039 1.350 . S
C1045 H1032 0.929 . S
C1045 C1037 1.433 1_554 S
C1045 N1047 1.384 . S
N1046 C1042 1.427 . S
N1046 C1043 1.384 . S
N1047 C1039 1.427 . S
N1047 C1045 1.384 . S
H1048 C1054 0.930 . S
H1049 C1058 0.930 . S
H1050 C1063 0.929 . S
H1051 C1061 0.929 . S
H1052 C1056 0.929 . S
H1053 C1062 0.929 . S
C1054 H1048 0.930 . S
C1054 C1055 1.367 . S
C1054 C1062 1.378 . S
C1055 C1054 1.367 . S
C1055 C1063 1.433 . S
C1056 H1052 0.929 . S
C1056 C1058 1.378 . S
C1056 C1060 1.350 . S
C1057 C1060 1.463 . S
C1057 C1062 1.350 . S
C1057 N1065 1.427 . S
C1058 H1049 0.930 . S
C1058 C1056 1.378 . S
C1058 C1059 1.367 . S
C1059 C1058 1.367 . S
C1059 C1061 1.433 . S
C1060 C1056 1.350 . S
C1060 C1057 1.463 . S
C1060 N1064 1.427 . S
C1061 H1051 0.929 . S
C1061 C1059 1.433 . S
C1061 N1064 1.384 . S
C1062 H1053 0.929 . S
C1062 C1054 1.378 . S
C1062 C1057 1.350 . S
C1063 H1050 0.929 . S
C1063 C1055 1.433 . S
C1063 N1065 1.384 . S
N1064 C1060 1.427 . S
N1064 C1061 1.384 . S
N1065 C1057 1.427 . S
N1065 C1063 1.384 . S
H1066 C1072 0.930 1_556 S
H1067 C1076 0.930 . S
H1068 C1081 0.929 . S
H1069 C1079 0.929 . S
H1070 C1074 0.929 . S
H1071 C1080 0.929 . S
C1072 H1066 0.930 1_554 S
C1072 C1073 1.367 . S
C1072 C1080 1.378 . S
C1073 C1072 1.367 . S
C1073 C1081 1.433 . S
C1074 H1070 0.929 . S
C1074 C1076 1.378 . S
C1074 C1078 1.350 . S
C1075 C1078 1.463 . S
C1075 C1080 1.350 . S
C1075 N1083 1.427 . S
C1076 H1067 0.930 . S
C1076 C1074 1.378 . S
C1076 C1077 1.367 . S
C1077 C1076 1.367 . S
C1077 C1079 1.433 . S
C1078 C1074 1.350 . S
C1078 C1075 1.463 . S
C1078 N1082 1.427 . S
C1079 H1069 0.929 . S
C1079 C1077 1.433 . S
C1079 N1082 1.384 . S
C1080 H1071 0.929 . S
C1080 C1072 1.378 . S
C1080 C1075 1.350 . S
C1081 H1068 0.929 . S
C1081 C1073 1.433 . S
C1081 N1083 1.384 . S
N1082 C1078 1.427 . S
N1082 C1079 1.384 . S
N1083 C1075 1.427 . S
N1083 C1081 1.384 . S
H1084 C1090 0.930 . S
H1085 C1094 0.930 . S
H1086 C1099 0.929 . S
H1087 C1097 0.929 . S
H1088 C1092 0.929 . S
H1089 C1098 0.929 . S
C1090 H1084 0.930 . S
C1090 C1091 1.367 . S
C1090 C1098 1.378 . S
C1091 C1090 1.367 . S
C1091 C1099 1.433 . S
C1092 H1088 0.929 . S
C1092 C1094 1.378 . S
C1092 C1096 1.350 . S
C1093 C1096 1.463 . S
C1093 C1098 1.350 . S
C1093 N1101 1.427 . S
C1094 H1085 0.930 . S
C1094 C1092 1.378 . S
C1094 C1095 1.367 . S
C1095 C1094 1.367 . S
C1095 C1097 1.433 . S
C1096 C1092 1.350 . S
C1096 C1093 1.463 . S
C1096 N1100 1.427 . S
C1097 H1087 0.929 . S
C1097 C1095 1.433 . S
C1097 N1100 1.384 . S
C1098 H1089 0.929 . S
C1098 C1090 1.378 . S
C1098 C1093 1.350 . S
C1099 H1086 0.929 . S
C1099 C1091 1.433 . S
C1099 N1101 1.384 . S
N1100 C1096 1.427 . S
N1100 C1097 1.384 . S
N1101 C1093 1.427 . S
N1101 C1099 1.384 . S
H1102 C1108 0.930 . S
H1103 C1112 0.930 . S
H1104 C1117 0.929 . S
H1105 C1115 0.929 . S
H1106 C1110 0.929 . S
H1107 C1116 0.929 . S
C1108 H1102 0.930 . S
C1108 C1109 1.367 . S
C1108 C1116 1.378 . S
C1109 C1108 1.367 . S
C1109 C1117 1.433 . S
C1110 H1106 0.929 . S
C1110 C1112 1.378 . S
C1110 C1114 1.350 . S
C1111 C1114 1.463 . S
C1111 C1116 1.350 . S
C1111 N1119 1.427 . S
C1112 H1103 0.930 . S
C1112 C1110 1.378 . S
C1112 C1113 1.367 . S
C1113 C1112 1.367 . S
C1113 C1115 1.433 . S
C1114 C1110 1.350 . S
C1114 C1111 1.463 . S
C1114 N1118 1.427 . S
C1115 H1105 0.929 . S
C1115 C1113 1.433 . S
C1115 N1118 1.384 . S
C1116 H1107 0.929 . S
C1116 C1108 1.378 . S
C1116 C1111 1.350 . S
C1117 H1104 0.929 . S
C1117 C1109 1.433 . S
C1117 N1119 1.384 . S
N1118 C1114 1.427 . S
N1118 C1115 1.384 . S
N1119 C1111 1.427 . S
N1119 C1117 1.384 . S
H1120 C1126 0.930 . S
H1121 C1130 0.930 . S
H1122 C1135 0.929 . S
H1123 C1133 0.929 . S
H1124 C1128 0.929 . S
H1125 C1134 0.929 . S
C1126 H1120 0.930 . S
C1126 C1127 1.367 . S
C1126 C1134 1.378 . S
C1127 C1126 1.367 . S
C1127 C1135 1.433 . S
C1128 H1124 0.929 . S
C1128 C1130 1.378 . S
C1128 C1132 1.350 . S
C1129 C1132 1.463 . S
C1129 C1134 1.350 . S
C1129 N1137 1.427 . S
C1130 H1121 0.930 . S
C1130 C1128 1.378 . S
C1130 C1131 1.367 . S
C1131 C1130 1.367 . S
C1131 C1133 1.433 . S
C1132 C1128 1.350 . S
C1132 C1129 1.463 . S
C1132 N1136 1.427 . S
C1133 H1123 0.929 . S
C1133 C1131 1.433 . S
C1133 N1136 1.384 . S
C1134 H1125 0.929 . S
C1134 C1126 1.378 . S
C1134 C1129 1.350 . S
C1135 H1122 0.929 . S
C1135 C1127 1.433 . S
C1135 N1137 1.384 . S
N1136 C1132 1.427 . S
N1136 C1133 1.384 . S
N1137 C1129 1.427 . S
N1137 C1135 1.384 . S
H1138 C1144 0.930 . S
H1139 C1148 0.930 . S
H1140 C1153 0.929 . S
H1141 C1151 0.929 . S
H1142 C1146 0.929 . S
H1143 C1152 0.929 . S
C1144 H1138 0.930 . S
C1144 C1145 1.367 . S
C1144 C1152 1.378 . S
C1145 C1144 1.367 . S
C1145 C1153 1.433 . S
C1146 H1142 0.929 . S
C1146 C1148 1.378 . S
C1146 C1150 1.350 . S
C1147 C1150 1.463 . S
C1147 C1152 1.350 . S
C1147 N1155 1.427 . S
C1148 H1139 0.930 . S
C1148 C1146 1.378 . S
C1148 C1149 1.367 . S
C1149 C1148 1.367 . S
C1149 C1151 1.433 . S
C1150 C1146 1.350 . S
C1150 C1147 1.463 . S
C1150 N1154 1.427 . S
C1151 H1141 0.929 . S
C1151 C1149 1.433 . S
C1151 N1154 1.384 . S
C1152 H1143 0.929 . S
C1152 C1144 1.378 . S
C1152 C1147 1.350 . S
C1153 H1140 0.929 . S
C1153 C1145 1.433 . S
C1153 N1155 1.384 . S
N1154 C1150 1.427 . S
N1154 C1151 1.384 . S
N1155 C1147 1.427 . S
N1155 C1153 1.384 . S
H1156 C1162 0.930 . S
H1157 C1166 0.930 . S
H1158 C1171 0.929 . S
H1159 C1169 0.929 . S
H1160 C1164 0.929 . S
H1161 C1170 0.929 . S
C1162 H1156 0.930 . S
C1162 C1163 1.367 . S
C1162 C1170 1.378 . S
C1163 C1162 1.367 . S
C1163 C1171 1.433 1_556 S
C1164 H1160 0.929 . S
C1164 C1166 1.378 . S
C1164 C1168 1.350 . S
C1165 C1168 1.463 1_556 S
C1165 C1170 1.350 . S
C1165 N1173 1.427 1_556 S
C1166 H1157 0.930 . S
C1166 C1164 1.378 . S
C1166 C1167 1.367 . S
C1167 C1166 1.367 . S
C1167 C1169 1.433 1_554 S
C1168 C1164 1.350 . S
C1168 C1165 1.463 1_554 S
C1168 N1172 1.427 1_554 S
C1169 H1159 0.929 . S
C1169 C1167 1.433 1_556 S
C1169 N1172 1.384 . S
C1170 H1161 0.929 . S
C1170 C1162 1.378 . S
C1170 C1165 1.350 . S
C1171 H1158 0.929 . S
C1171 C1163 1.433 1_554 S
C1171 N1173 1.384 . S
N1172 C1168 1.427 1_556 S
N1172 C1169 1.384 . S
N1173 C1165 1.427 1_554 S
N1173 C1171 1.384 . S
H1174 C1180 0.930 . S
H1175 C1184 0.930 . S
H1176 C1189 0.929 . S
H1177 C1187 0.929 . S
H1178 C1182 0.929 . S
H1179 C1188 0.929 . S
C1180 H1174 0.930 . S
C1180 C1181 1.367 . S
C1180 C1188 1.378 . S
C1181 C1180 1.367 . S
C1181 C1189 1.433 . S
C1182 H1178 0.929 . S
C1182 C1184 1.378 . S
C1182 C1186 1.350 . S
C1183 C1186 1.463 . S
C1183 C1188 1.350 . S
C1183 N1191 1.427 . S
C1184 H1175 0.930 . S
C1184 C1182 1.378 . S
C1184 C1185 1.367 . S
C1185 C1184 1.367 . S
C1185 C1187 1.433 . S
C1186 C1182 1.350 . S
C1186 C1183 1.463 . S
C1186 N1190 1.427 . S
C1187 H1177 0.929 . S
C1187 C1185 1.433 . S
C1187 N1190 1.384 . S
C1188 H1179 0.929 . S
C1188 C1180 1.378 . S
C1188 C1183 1.350 . S
C1189 H1176 0.929 . S
C1189 C1181 1.433 . S
C1189 N1191 1.384 . S
N1190 C1186 1.427 . S
N1190 C1187 1.384 . S
N1191 C1183 1.427 . S
N1191 C1189 1.384 . S
H1192 C1198 0.930 . S
H1193 C1202 0.930 . S
H1194 C1207 0.929 . S
H1195 C1205 0.929 . S
H1196 C1200 0.929 . S
H1197 C1206 0.929 . S
C1198 H1192 0.930 . S
C1198 C1199 1.367 . S
C1198 C1206 1.378 . S
C1199 C1198 1.367 . S
C1199 C1207 1.433 . S
C1200 H1196 0.929 . S
C1200 C1202 1.378 . S
C1200 C1204 1.350 . S
C1201 C1204 1.463 . S
C1201 C1206 1.350 . S
C1201 N1209 1.427 . S
C1202 H1193 0.930 . S
C1202 C1200 1.378 . S
C1202 C1203 1.367 . S
C1203 C1202 1.367 . S
C1203 C1205 1.433 . S
C1204 C1200 1.350 . S
C1204 C1201 1.463 . S
C1204 N1208 1.427 . S
C1205 H1195 0.929 . S
C1205 C1203 1.433 . S
C1205 N1208 1.384 . S
C1206 H1197 0.929 . S
C1206 C1198 1.378 . S
C1206 C1201 1.350 . S
C1207 H1194 0.929 . S
C1207 C1199 1.433 . S
C1207 N1209 1.384 . S
N1208 C1204 1.427 . S
N1208 C1205 1.384 . S
N1209 C1201 1.427 . S
N1209 C1207 1.384 . S
H1210 C1216 0.930 . S
H1211 C1220 0.930 . S
H1212 C1225 0.929 . S
H1213 C1223 0.929 . S
H1214 C1218 0.929 . S
H1215 C1224 0.917 1_546 S
C1216 H1210 0.930 . S
C1216 C1217 1.367 1_545 S
C1216 C1224 1.354 1_545 S
C1217 C1216 1.367 1_565 S
C1217 C1225 1.433 . S
C1218 H1214 0.929 . S
C1218 C1220 1.378 . S
C1218 C1222 1.350 . S
C1219 C1222 1.463 . S
C1219 C1224 1.387 . S
C1219 N1227 1.427 . S
C1220 H1211 0.930 . S
C1220 C1218 1.378 . S
C1220 C1221 1.367 . S
C1221 C1220 1.367 . S
C1221 C1223 1.433 1_554 S
C1222 C1218 1.350 . S
C1222 C1219 1.463 . S
C1222 N1226 1.402 1_554 S
C1223 H1213 0.929 . S
C1223 C1221 1.433 1_556 S
C1223 N1226 1.395 . S
C1224 H1215 0.917 1_564 S
C1224 C1216 1.354 1_565 S
C1224 C1219 1.387 . S
C1225 H1212 0.929 . S
C1225 C1217 1.433 . S
C1225 N1227 1.384 . S
N1226 C1222 1.402 1_556 S
N1226 C1223 1.395 . S
N1227 C1219 1.427 . S
N1227 C1225 1.384 . S
C375 C218 1.657 . S
C371 C73 1.677 . S
C393 C231 1.357 . S
C389 C82 1.327 . S
C407 C100 1.813 . S
C411 C244 1.783 . S
C429 C257 1.345 . S
C425 C56 1.324 1_655 S
C447 C265 1.341 . S
C443 C134 1.376 . S
C465 C278 1.608 . S
C461 C165 1.630 . S
C479 C147 1.204 . S
C483 C291 1.219 . S
C501 C304 1.793 . S
C497 C125 1.824 . S
C515 C151 1.332 . S
C519 C322 1.327 . S
C537 C333 1.469 . S
C533 C121 1.453 . S
C551 C139 1.720 . S
C555 C317 1.702 . S
C573 C325 1.275 . S
C569 C164 1.300 . S
C587 C95 1.323 . S
C591 C348 1.390 . S
C605 C61 1.490 . S
C609 C338 1.481 . S
C623 C74 1.443 . S
C627 C343 1.421 . S
C641 C86 1.799 . S
C645 C346 1.756 . S
C659 C47 1.352 . S
C663 C255 1.319 . S
C677 C186 1.231 . S
C681 C247 1.249 . S
C699 C216 1.529 . S
C695 C204 1.573 . S
C717 C221 1.868 . S
C713 C112 1.885 . S
C731 C60 1.420 1_545 S
C735 C268 1.392 . S
C753 C307 1.415 . S
C749 C152 1.444 . S
C771 C260 1.841 . S
C767 C126 1.865 1_545 S
C789 C286 1.244 . S
C785 C160 1.255 . S
C807 C296 1.653 . S
C803 C190 1.676 . S
C821 C199 1.329 . S
C825 C309 1.366 . S
C839 C113 1.813 . S
C843 C270 1.786 . S
C861 C283 1.354 . S
C857 C173 1.321 . S
C875 C43 1.368 . S
C879 C239 1.339 . S
C897 C252 1.602 . S
C893 C9 1.625 1_655 S
C915 C213 1.210 . S
C911 C17 1.201 . S
C933 C226 1.800 . S
C929 C34 1.826 1_455 S
C947 C21 1.329 . S
C951 C335 1.329 . S
C965 C30 1.452 . S
C969 C320 1.469 1_655 S
C983 C48 1.721 . S
C987 C330 1.709 . S
C1001 C8 1.301 . S
C1005 C312 1.284 1_455 S
C1023 C361 1.390 . S
C1019 C108 1.323 . S
C1041 C351 1.471 . S
C1037 C178 1.490 . S
C1059 C356 1.414 . S
C1055 C191 1.442 . S
C1073 C203 1.799 . S
C1077 C359 1.758 . S
C1091 C138 1.350 . S
C1095 C281 1.326 . S
C1113 C273 1.238 . S
C1109 C69 1.213 . S
C1131 C294 1.518 . S
C1127 C87 1.570 . S
C1149 C299 1.872 . S
C1145 C99 1.887 . S
C1163 C177 1.422 . S
C1167 C242 1.394 . S
C1185 C229 1.421 . S
C1181 C22 1.448 . S
C1199 C35 1.879 . S
C1203 C234 1.836 . S
C1221 C208 1.239 1_554 S
C1217 C4 1.256 1_565 S
