# Generated by pormake.
# Topology zzz, (3,6)-cn, num edge types: 1
# Building blocks:
#     Node 0, Type 0, BuildingBlock: MIDCAF_clean_linker_0, # of connection points: 3
#     Node 1, Type 0, BuildingBlock: MIDCAF_clean_linker_0, # of connection points: 3
#     Node 2, Type 0, BuildingBlock: MIDCAF_clean_linker_0, # of connection points: 3
#     Node 3, Type 0, BuildingBlock: MIDCAF_clean_linker_0, # of connection points: 3
#     Node 4, Type 0, BuildingBlock: MIDCAF_clean_linker_0, # of connection points: 3
#     Node 5, Type 0, BuildingBlock: MIDCAF_clean_linker_0, # of connection points: 3
#     Node 6, Type 0, BuildingBlock: MIDCAF_clean_linker_0, # of connection points: 3
#     Node 7, Type 0, BuildingBlock: MIDCAF_clean_linker_0, # of connection points: 3
#     Node 8, Type 1, BuildingBlock: MIFKUJ_clean_sbu_0, # of connection points: 6
#     Node 9, Type 1, BuildingBlock: MIFKUJ_clean_sbu_0, # of connection points: 6
#     Node 10, Type 1, BuildingBlock: MIFKUJ_clean_sbu_0, # of connection points: 6
#     Node 11, Type 1, BuildingBlock: MIFKUJ_clean_sbu_0, # of connection points: 6
#     Edge 12, Type (0, 1), BuildingBlock: KIFKEQ_clean_linker_1, # of connection points: 2
#     Edge 13, Type (0, 1), BuildingBlock: KIFKEQ_clean_linker_1, # of connection points: 2
#     Edge 14, Type (0, 1), BuildingBlock: KIFKEQ_clean_linker_1, # of connection points: 2
#     Edge 15, Type (0, 1), BuildingBlock: KIFKEQ_clean_linker_1, # of connection points: 2
#     Edge 16, Type (0, 1), BuildingBlock: KIFKEQ_clean_linker_1, # of connection points: 2
#     Edge 17, Type (0, 1), BuildingBlock: KIFKEQ_clean_linker_1, # of connection points: 2
#     Edge 18, Type (0, 1), BuildingBlock: KIFKEQ_clean_linker_1, # of connection points: 2
#     Edge 19, Type (0, 1), BuildingBlock: KIFKEQ_clean_linker_1, # of connection points: 2
#     Edge 20, Type (0, 1), BuildingBlock: KIFKEQ_clean_linker_1, # of connection points: 2
#     Edge 21, Type (0, 1), BuildingBlock: KIFKEQ_clean_linker_1, # of connection points: 2
#     Edge 22, Type (0, 1), BuildingBlock: KIFKEQ_clean_linker_1, # of connection points: 2
#     Edge 23, Type (0, 1), BuildingBlock: KIFKEQ_clean_linker_1, # of connection points: 2
#     Edge 24, Type (0, 1), BuildingBlock: KIFKEQ_clean_linker_1, # of connection points: 2
#     Edge 25, Type (0, 1), BuildingBlock: KIFKEQ_clean_linker_1, # of connection points: 2
#     Edge 26, Type (0, 1), BuildingBlock: KIFKEQ_clean_linker_1, # of connection points: 2
#     Edge 27, Type (0, 1), BuildingBlock: KIFKEQ_clean_linker_1, # of connection points: 2
#     Edge 28, Type (0, 1), BuildingBlock: KIFKEQ_clean_linker_1, # of connection points: 2
#     Edge 29, Type (0, 1), BuildingBlock: KIFKEQ_clean_linker_1, # of connection points: 2
#     Edge 30, Type (0, 1), BuildingBlock: KIFKEQ_clean_linker_1, # of connection points: 2
#     Edge 31, Type (0, 1), BuildingBlock: KIFKEQ_clean_linker_1, # of connection points: 2
#     Edge 32, Type (0, 1), BuildingBlock: KIFKEQ_clean_linker_1, # of connection points: 2
#     Edge 33, Type (0, 1), BuildingBlock: KIFKEQ_clean_linker_1, # of connection points: 2
#     Edge 34, Type (0, 1), BuildingBlock: KIFKEQ_clean_linker_1, # of connection points: 2
#     Edge 35, Type (0, 1), BuildingBlock: KIFKEQ_clean_linker_1, # of connection points: 2
# Relax obj value: 0.313
# Max RMSD: 0.214
# Mean RMSD: 0.193
data_MOF--net-zzz--node1-MIFKUJ_clean_sbu_0--node2-MIDCAF_clean_linker_0--edge1-KIFKEQ_clean_linker_1
_symmetry_space_group_name_H-M    P1
_symmetry_Int_Tables_number       1
_symmetry_cell_setting            triclinic
loop_
_symmetry_equiv_pos_as_xyz
'x, y, z'
_cell_length_a     57.322325
_cell_length_b     59.781146
_cell_length_c     21.574856
_cell_angle_alpha  89.503285
_cell_angle_beta   90.665562
_cell_angle_gamma 92.239568
loop_
_atom_site_label
_atom_site_type_symbol
_atom_site_fract_x
_atom_site_fract_y
_atom_site_fract_z
_atom_type_partial_charge
C0 C 0.79465 0.58682 0.21141 0.0
C1 C 0.78889 0.56865 0.2508 0.0
C2 C 0.76736 0.55681 0.24067 0.0
C3 C 0.75283 0.56213 0.19 0.0
H4 H 0.68215 0.55308 0.07139 0.0
H5 H 0.64348 0.54301 0.02686 0.0
H6 H 0.65593 0.59083 0.87834 0.0
H7 H 0.69334 0.60132 0.92351 0.0
H8 H 0.74305 0.58415 0.85672 0.0
H9 H 0.77039 0.57683 0.77433 0.0
H10 H 0.82808 0.59019 0.9009 0.0
H11 H 0.80104 0.5975 0.98306 0.0
H12 H 0.78596 0.60553 0.13034 0.0
H13 H 0.81104 0.59625 0.21675 0.0
H14 H 0.7621 0.54294 0.27063 0.0
H15 H 0.73712 0.55194 0.18123 0.0
N16 N 0.72477 0.57853 0.07627 0.0
N17 N 0.73076 0.58609 0.97022 0.0
N18 N 0.76248 0.58703 0.0383 0.0
C19 C 0.71598 0.58115 0.01739 0.0
C20 C 0.75393 0.58899 0.98 0.0
C21 C 0.74828 0.58199 0.08674 0.0
C22 C 0.69089 0.57786 0.00083 0.0
C23 C 0.67618 0.56187 0.03043 0.0
C24 C 0.65419 0.55594 0.0044 0.0
C25 C 0.64658 0.56598 0.94859 0.0
C26 C 0.66085 0.58291 0.92163 0.0
C27 C 0.68254 0.58881 0.94747 0.0
C28 C 0.76991 0.59077 0.92696 0.0
C29 C 0.76157 0.58623 0.86654 0.0
C30 C 0.77716 0.58205 0.81924 0.0
C31 C 0.80123 0.58267 0.83157 0.0
C32 C 0.80957 0.58973 0.88997 0.0
C33 C 0.79404 0.59371 0.93732 0.0
C34 C 0.75961 0.57933 0.14849 0.0
C35 C 0.78024 0.59208 0.16128 0.0
C36 C 0.97203 0.77693 0.2317 0.0
C37 C 0.98967 0.77744 0.27753 0.0
C38 C 0.00688 0.76121 0.27551 0.0
C39 C 0.00742 0.74606 0.22609 0.0
H40 H 0.01967 0.67184 0.08772 0.0
H41 H 0.01967 0.63474 0.03859 0.0
H42 H 0.96723 0.65577 0.90748 0.0
H43 H 0.96751 0.69239 0.95571 0.0
H44 H 0.0095 0.73916 0.88647 0.0
H45 H 0.0145 0.768 0.80519 0.0
H46 H 0.00926 0.8195 0.94236 0.0
H47 H 0.00429 0.79132 0.02321 0.0
H48 H 0.95992 0.76328 0.14528 0.0
H49 H 0.9587 0.78929 0.23091 0.0
H50 H 0.0206 0.76097 0.3104 0.0
H51 H 0.02185 0.73498 0.22294 0.0
N52 N 0.99411 0.71534 0.10377 0.0
N53 N 0.00083 0.72387 -0.00173 0.0
N54 N -0.00038 0.75267 0.0701 0.0
C55 C 0.99674 0.70847 0.04399 0.0
C56 C 0.00254 0.74599 0.0111 0.0
C57 C 0.99549 0.7377 0.11649 0.0
C58 C 0.99349 0.68483 0.02559 0.0
C59 C 0.0077 0.66815 0.04962 0.0
C60 C 0.00784 0.64707 0.02115 0.0
C61 C 0.99343 0.64233 0.96911 0.0
C62 C 0.97829 0.65871 0.94788 0.0
C63 C 0.97846 0.67972 0.97544 0.0
C64 C 0.00648 0.7629 0.96147 0.0
C65 C 0.00958 0.75663 0.89934 0.0
C66 C 0.0125 0.77301 0.85292 0.0
C67 C 0.01241 0.79571 0.86834 0.0
C68 C 0.00957 0.80197 0.93001 0.0
C69 C 0.00667 0.78578 0.97613 0.0
C70 C 0.99076 0.74692 0.17806 0.0
C71 C 0.97265 0.76194 0.18255 0.0
C72 C 0.70489 0.90106 0.24049 0.0
C73 C 0.7055 0.92257 0.26654 0.0
C74 C 0.7239 0.93773 0.24952 0.0
C75 C 0.73989 0.93218 0.20367 0.0
H76 H 0.8102 0.94242 0.08068 0.0
H77 H 0.84677 0.95428 0.02945 0.0
H78 H 0.83661 0.90015 0.89911 0.0
H79 H 0.8011 0.88816 0.95101 0.0
H80 H 0.74604 0.90987 0.88292 0.0
H81 H 0.71565 0.92172 0.81086 0.0
H82 H 0.663 0.90273 0.94446 0.0
H83 H 0.69302 0.89066 0.01654 0.0
H84 H 0.71855 0.8795 0.17242 0.0
H85 H 0.69101 0.88892 0.25145 0.0
H86 H 0.72526 0.95432 0.26932 0.0
H87 H 0.75256 0.94481 0.18778 0.0
N88 N 0.77087 0.91253 0.09866 0.0
N89 N 0.76246 0.90445 0.99379 0.0
N90 N 0.73261 0.90247 0.06596 0.0
C91 C 0.77827 0.90995 0.03904 0.0
C92 C 0.73963 0.90081 0.00669 0.0
C93 C 0.74786 0.90814 0.11216 0.0
C94 C 0.80275 0.91444 0.01971 0.0
C95 C 0.81632 0.93271 0.04242 0.0
C96 C 0.83707 0.93965 0.01242 0.0
C97 C 0.84463 0.92836 0.95949 0.0
C98 C 0.8317 0.9092 0.93989 0.0
C99 C 0.81114 0.90236 0.96958 0.0
C100 C 0.72196 0.90005 0.95632 0.0
C101 C 0.72795 0.90732 0.89608 0.0
C102 C 0.71062 0.91409 0.85469 0.0
C103 C 0.68726 0.9135 0.87319 0.0
C104 C 0.68105 0.9035 0.9299 0.0
C105 C 0.69826 0.89666 0.97107 0.0
C106 C 0.73778 0.91137 0.17412 0.0
C107 C 0.72077 0.89558 0.19498 0.0
C108 C 0.45823 0.68818 0.93463 0.0
C109 C 0.45015 0.69443 0.87571 0.0
C110 C 0.44638 0.717 0.86248 0.0
C111 C 0.44966 0.73303 0.90908 0.0
H112 H 0.42481 0.79902 0.98918 0.0
H113 H 0.42793 0.83553 0.93733 0.0
H114 H 0.49321 0.85001 0.03297 0.0
H115 H 0.48973 0.81364 0.08655 0.0
H116 H 0.4471 0.75464 0.23611 0.0
H117 H 0.45196 0.72995 0.32673 0.0
H118 H 0.50952 0.69944 0.23646 0.0
H119 H 0.50468 0.72396 0.1476 0.0
H120 H 0.46767 0.69844 0.02578 0.0
H121 H 0.46173 0.67086 0.94521 0.0
H122 H 0.44036 0.72208 0.8169 0.0
H123 H 0.44616 0.75032 0.89839 0.0
N124 N 0.45581 0.76486 0.01027 0.0
N125 N 0.46525 0.7726 0.11483 0.0
N126 N 0.46616 0.73594 0.077 0.0
C127 C 0.45863 0.77977 0.05721 0.0
C128 C 0.46883 0.75044 0.1246 0.0
C129 C 0.45963 0.74291 0.01984 0.0
C130 C 0.457 0.80367 0.04188 0.0
C131 C 0.43929 0.81044 0.00113 0.0
C132 C 0.44107 0.83126 0.97147 0.0
C133 C 0.46087 0.84538 0.98105 0.0
C134 C 0.47779 0.83932 0.0251 0.0
C135 C 0.4757 0.81867 0.05601 0.0
C136 C 0.47564 0.74124 0.18536 0.0
C137 C 0.46138 0.74329 0.23726 0.0
C138 C 0.464 0.72897 0.28863 0.0
C139 C 0.48107 0.71261 0.28883 0.0
C140 C 0.49644 0.71199 0.23864 0.0
C141 C 0.49366 0.72604 0.18748 0.0
C142 C 0.457 0.72659 0.96899 0.0
C143 C 0.46165 0.70404 0.9807 0.0
C144 C 0.19894 0.39715 0.96475 0.0
C145 C 0.2044 0.41531 0.92499 0.0
C146 C 0.22649 0.4264 0.93166 0.0
C147 C 0.24203 0.4203 0.97929 0.0
H148 H 0.30659 0.44055 0.12056 0.0
H149 H 0.34281 0.45315 0.17359 0.0
H150 H 0.35036 0.38661 0.24861 0.0
H151 H 0.31421 0.37424 0.19628 0.0
H152 H 0.25846 0.40603 0.30347 0.0
H153 H 0.23111 0.41611 0.3833 0.0
H154 H 0.17428 0.38574 0.27671 0.0
H155 H 0.20144 0.37585 0.19647 0.0
H156 H 0.20895 0.37766 0.04317 0.0
H157 H 0.18212 0.38831 0.9621 0.0
H158 H 0.23149 0.44026 0.90135 0.0
H159 H 0.2583 0.42989 0.98544 0.0
N160 N 0.27232 0.40383 0.08592 0.0
N161 N 0.2699 0.39516 0.19247 0.0
N162 N 0.23626 0.39355 0.13088 0.0
C163 C 0.28293 0.40094 0.14238 0.0
C164 C 0.24657 0.39156 0.18723 0.0
C165 C 0.2488 0.39947 0.07996 0.0
C166 C 0.30786 0.40639 0.15378 0.0
C167 C 0.31663 0.42845 0.14596 0.0
C168 C 0.33714 0.43569 0.17705 0.0
C169 C 0.34928 0.42089 0.2157 0.0
C170 C 0.34153 0.39835 0.21882 0.0
C171 C 0.32091 0.39123 0.18862 0.0
C172 C 0.23196 0.3906 0.24302 0.0
C173 C 0.24028 0.40071 0.29808 0.0
C174 C 0.22466 0.40659 0.34372 0.0
C175 C 0.20067 0.40201 0.33544 0.0
C176 C 0.19275 0.38944 0.28415 0.0
C177 C 0.20828 0.38386 0.23808 0.0
C178 C 0.23569 0.40307 0.02122 0.0
C179 C 0.21435 0.39112 0.01189 0.0
C180 C 0.97794 0.2093 0.93167 0.0
C181 C -0.00233 0.20783 0.89403 0.0
C182 C 0.01657 0.22329 0.90329 0.0
C183 C 0.01637 0.23873 0.95205 0.0
H184 H 0.98033 0.31304 0.08603 0.0
H185 H 0.97958 0.34996 0.13524 0.0
H186 H 0.03594 0.33145 0.25782 0.0
H187 H 0.03675 0.29522 0.2085 0.0
H188 H 0.98502 0.24471 0.27902 0.0
H189 H 0.98072 0.21518 0.35883 0.0
H190 H 0.01442 0.16928 0.23869 0.0
H191 H 0.01821 0.19825 0.15912 0.0
H192 H 0.96323 0.22384 0.01188 0.0
H193 H 0.96321 0.19751 0.92664 0.0
H194 H 0.03197 0.2227 0.87482 0.0
H195 H 0.03183 0.24923 0.96127 0.0
N196 N 0.00304 0.27047 0.06685 0.0
N197 N 0.00516 0.26228 0.17393 0.0
N198 N -8e-05 0.23324 0.10303 0.0
C199 C 0.00561 0.27752 0.12684 0.0
C200 C 0.00237 0.24017 0.16225 0.0
C201 C 0.00018 0.24808 0.05527 0.0
C202 C 0.00861 0.30137 0.1435 0.0
C203 C 0.99305 0.31731 0.12197 0.0
C204 C 0.99244 0.33829 0.15073 0.0
C205 C 0.00758 0.34366 0.20092 0.0
C206 C 0.02419 0.32813 0.21901 0.0
C207 C 0.02463 0.30727 0.19084 0.0
C208 C 0.00178 0.2236 0.21295 0.0
C209 C 0.99171 0.22835 0.27026 0.0
C210 C 0.98917 0.21156 0.31561 0.0
C211 C 0.99729 0.19014 0.30453 0.0
C212 C 0.00819 0.18577 0.24828 0.0
C213 C 0.01023 0.20227 0.20272 0.0
C214 C 0.99735 0.23881 0.99243 0.0
C215 C 0.97787 0.22448 0.98045 0.0
C216 C 0.29673 0.08673 0.95314 0.0
C217 C 0.29059 0.06892 0.91327 0.0
C218 C 0.26876 0.05754 0.92191 0.0
C219 C 0.2544 0.06282 0.97185 0.0
H220 H 0.18789 0.04718 0.09874 0.0
H221 H 0.15053 0.03512 0.14542 0.0
H222 H 0.15838 0.08896 0.27753 0.0
H223 H 0.19475 0.1011 0.23004 0.0
H224 H 0.24989 0.07367 0.30296 0.0
H225 H 0.28019 0.06152 0.37501 0.0
H226 H 0.33326 0.08825 0.25205 0.0
H227 H 0.30328 0.10059 0.18006 0.0
H228 H 0.28851 0.10513 0.03361 0.0
H229 H 0.31337 0.0958 0.94933 0.0
H230 H 0.26315 0.044 0.89156 0.0
H231 H 0.2385 0.05286 0.97972 0.0
N232 N 0.22741 0.07764 0.08611 0.0
N233 N 0.23423 0.08377 0.19281 0.0
N234 N 0.26523 0.08639 0.12419 0.0
C235 C 0.2191 0.07931 0.14515 0.0
C236 C 0.2573 0.08727 0.18277 0.0
C237 C 0.25069 0.08175 0.0756 0.0
C238 C 0.19426 0.07499 0.16097 0.0
C239 C 0.18109 0.0568 0.13631 0.0
C240 C 0.15988 0.04975 0.16373 0.0
C241 C 0.15145 0.06085 0.21598 0.0
C242 C 0.16397 0.08003 0.23721 0.0
C243 C 0.18501 0.08697 0.2101 0.0
C244 C 0.27425 0.08745 0.23489 0.0
C245 C 0.26798 0.07788 0.29249 0.0
C246 C 0.28526 0.07095 0.33388 0.0
C247 C 0.30885 0.0737 0.31811 0.0
C248 C 0.31508 0.08589 0.26465 0.0
C249 C 0.2979 0.09283 0.22343 0.0
C250 C 0.26162 0.07956 0.01395 0.0
C251 C 0.28244 0.09202 0.00226 0.0
C252 C 0.55846 0.29884 0.2257 0.0
C253 C 0.55315 0.29273 0.287 0.0
C254 C 0.54837 0.27014 0.30189 0.0
C255 C 0.54858 0.25392 0.25568 0.0
H256 H 0.57339 0.18665 0.19611 0.0
H257 H 0.56706 0.15034 0.24496 0.0
H258 H 0.50973 0.13547 0.11814 0.0
H259 H 0.51609 0.17248 0.06907 0.0
H260 H 0.50505 0.23168 0.96731 0.0
H261 H 0.49408 0.25834 0.88566 0.0
H262 H 0.5639 0.28792 0.88961 0.0
H263 H 0.57459 0.26186 0.97221 0.0
H264 H 0.56198 0.28814 0.13242 0.0
H265 H 0.56174 0.31623 0.2129 0.0
H266 H 0.5441 0.26512 0.34892 0.0
H267 H 0.54434 0.23666 0.26809 0.0
N268 N 0.54987 0.22149 0.15666 0.0
N269 N 0.54279 0.21325 0.05139 0.0
N270 N 0.54855 0.25052 0.08413 0.0
C271 C 0.54606 0.20621 0.11114 0.0
C272 C 0.54454 0.23559 0.03796 0.0
C273 C 0.55099 0.24363 0.14362 0.0
C274 C 0.5451 0.18238 0.12918 0.0
C275 C 0.55979 0.17543 0.17756 0.0
C276 C 0.55624 0.15452 0.20534 0.0
C277 C 0.5378 0.14005 0.18567 0.0
C278 C 0.52396 0.1464 0.13455 0.0
C279 C 0.52771 0.16741 0.10612 0.0
C280 C 0.54069 0.24465 0.97531 0.0
C281 C 0.5183 0.24314 0.9484 0.0
C282 C 0.51199 0.25846 0.90221 0.0
C283 C 0.52819 0.27508 0.88161 0.0
C284 C 0.55123 0.27506 0.90417 0.0
C285 C 0.55736 0.26011 0.95116 0.0
C286 C 0.55317 0.26018 0.19381 0.0
C287 C 0.5584 0.28276 0.17954 0.0
Zn288 Zn 0.00239 0.01869 0.61668 0.0
Zn289 Zn 0.99389 0.96713 0.55525 0.0
C290 C 0.99293 0.05685 0.68734 0.0
O291 O 0.97194 0.0479 0.67716 0.0
C292 C 0.0034 0.92654 0.49517 0.0
O293 O 0.02424 0.93362 0.51411 0.0
O294 O 0.98278 0.03236 0.5497 0.0
O295 O 0.03182 0.00783 0.57576 0.0
O296 O 0.01385 -0.01193 0.50212 0.0
C297 C 0.99551 0.04652 0.52009 0.0
O298 O 0.01779 0.04875 0.53432 0.0
O299 O 0.0105 0.04645 0.66871 0.0
C300 C -8e-05 0.9396 0.65342 0.0
O301 O 0.97769 0.93759 0.63846 0.0
O302 O 0.01288 0.95374 0.62426 0.0
O303 O 0.9643 0.97833 0.59514 0.0
O304 O 0.98259 -0.00244 0.66939 0.0
O305 O 0.98619 0.93908 0.50333 0.0
C306 C 0.03101 0.00055 0.52035 0.0
C307 C 0.96509 0.98563 0.65058 0.0
Zn308 Zn 0.46775 0.00603 0.60947 0.0
Zn309 Zn 0.52329 0.97829 0.56212 0.0
C310 C 0.43123 0.01169 0.69379 0.0
O311 O 0.43346 -0.0101 0.69527 0.0
C312 C 0.55909 0.97154 0.47673 0.0
O313 O 0.56046 -0.00669 0.48437 0.0
O314 O 0.44373 -0.01037 0.55717 0.0
O315 O 0.48638 0.02717 0.55328 0.0
O316 O 0.51474 0.00654 0.51813 0.0
C317 C 0.44282 -0.00729 0.49898 0.0
O318 O 0.46216 -0.00192 0.46951 0.0
O319 O 0.44571 0.02369 0.6622 0.0
C320 C 0.54989 0.98282 0.68097 0.0
O321 O 0.53088 0.97697 0.71123 0.0
O322 O 0.54888 0.986 0.62286 0.0
O323 O 0.49793 0.95893 0.60405 0.0
O324 O 0.48461 0.98478 0.66555 0.0
O325 O 0.54272 0.96011 0.50317 0.0
C326 C 0.50296 0.02411 0.51587 0.0
C327 C 0.487 0.9643 0.65251 0.0
Zn328 Zn 0.50703 0.45901 0.59719 0.0
Zn329 Zn 0.48462 0.52634 0.57345 0.0
C330 C 0.50893 0.42613 0.69215 0.0
O331 O 0.52783 0.43838 0.7052 0.0
C332 C 0.47937 0.56108 0.49046 0.0
O333 O 0.4587 0.55079 0.49117 0.0
O334 O 0.52504 0.44411 0.53306 0.0
O335 O 0.48261 0.47699 0.55497 0.0
O336 O 0.46294 0.50558 0.52434 0.0
C337 C 0.51131 0.43123 0.50209 0.0
O338 O 0.48873 0.43212 0.51101 0.0
O339 O 0.49519 0.43263 0.64944 0.0
C340 C 0.4758 0.55296 0.67471 0.0
O341 O 0.49793 0.5494 0.68557 0.0
O342 O 0.46511 0.5424 0.63171 0.0
O343 O 0.50996 0.51036 0.62244 0.0
O344 O 0.52771 0.47955 0.64853 0.0
O345 O 0.49614 0.55232 0.51997 0.0
C346 C 0.4658 0.4847 0.52381 0.0
C347 C 0.52578 0.50057 0.65317 0.0
Zn348 Zn 0.03516 0.48718 0.59528 0.0
Zn349 Zn 0.96112 0.49851 0.57725 0.0
C350 C 0.06679 0.47757 0.69169 0.0
O351 O 0.0678 0.49954 0.68935 0.0
C352 C 0.92164 0.50871 0.50909 0.0
O353 O 0.91871 0.48763 0.52603 0.0
O354 O 0.06034 0.4926 0.53291 0.0
O355 O 0.00662 0.4728 0.54895 0.0
O356 O 0.96896 0.47198 0.5269 0.0
C357 C 0.06342 0.47365 0.50897 0.0
O358 O 0.04976 0.45663 0.52557 0.0
O359 O 0.05189 0.46701 0.65734 0.0
C360 C 0.93493 0.50688 0.67332 0.0
O361 O 0.94684 0.52543 0.65967 0.0
O362 O 0.93905 0.48927 0.64385 0.0
O363 O 0.99017 0.51269 0.61905 0.0
O364 O 0.02774 0.5157 0.63944 0.0
O365 O 0.94103 0.51887 0.52256 0.0
C366 C 0.98896 0.46395 0.52039 0.0
C367 C 0.00729 0.52246 0.64727 0.0
H368 H 0.13932 0.0167 0.24014 0.0
H369 H 0.11778 0.08382 0.27612 0.0
H370 H 0.10972 0.00182 0.31138 0.0
H371 H 0.08883 0.06886 0.349 0.0
H372 H 0.06417 0.03473 0.53267 0.0
H373 H 0.09145 0.04921 0.4545 0.0
H374 H 0.06564 -0.00118 0.32627 0.0
H375 H 0.03808 0.98447 0.40393 0.0
C376 C 0.12804 0.02829 0.26215 0.0
C377 C 0.13119 0.05154 0.25244 0.0
C378 C 0.11117 0.01973 0.30342 0.0
C379 C 0.09719 0.03419 0.33652 0.0
C380 C 0.09967 0.05732 0.32513 0.0
C381 C 0.1163 0.06587 0.28329 0.0
C382 C 0.06432 0.02666 0.48793 0.0
C383 C 0.04884 0.00845 0.47466 0.0
C384 C 0.07985 0.03508 0.44297 0.0
C385 C 0.08059 0.02524 0.38408 0.0
C386 C 0.06552 0.00672 0.37126 0.0
C387 C 0.04972 -0.00147 0.41581 0.0
H388 H 0.49455 0.12505 0.22316 0.0
H389 H 0.56753 0.10991 0.23555 0.0
H390 H 0.48544 0.09592 0.30012 0.0
H391 H 0.55862 0.08152 0.31415 0.0
H392 H 0.5325 0.01984 0.41881 0.0
H393 H 0.53967 0.04565 0.33332 0.0
H394 H 0.4917 0.09141 0.41153 0.0
H395 H 0.48411 0.06524 0.49717 0.0
C396 C 0.50858 0.1152 0.24138 0.0
C397 C 0.53178 0.11983 0.22346 0.0
C398 C 0.50342 0.09878 0.28624 0.0
C399 C 0.52133 0.08664 0.31398 0.0
C400 C 0.54436 0.09049 0.29361 0.0
C401 C 0.54951 0.10685 0.24878 0.0
C402 C 0.52358 0.03547 0.41835 0.0
C403 C 0.50789 0.04054 0.46543 0.0
C404 C 0.5277 0.05028 0.36908 0.0
C405 C 0.51628 0.07059 0.3655 0.0
C406 C 0.50054 0.07572 0.41245 0.0
C407 C 0.49635 0.06084 0.46186 0.0
H408 H 0.39199 0.40323 0.24001 0.0
H409 H 0.34821 0.45713 0.29064 0.0
H410 H 0.42098 0.41566 0.31816 0.0
H411 H 0.37708 0.46966 0.36777 0.0
H412 H 0.42011 0.47445 0.54162 0.0
H413 H 0.39251 0.45702 0.46755 0.0
H414 H 0.44899 0.44754 0.34063 0.0
H415 H 0.47659 0.46457 0.41588 0.0
C416 C 0.38869 0.41783 0.26748 0.0
C417 C 0.36796 0.42935 0.25877 0.0
C418 C 0.40527 0.42496 0.31209 0.0
C419 C 0.40126 0.44353 0.34958 0.0
C420 C 0.38059 0.4551 0.34035 0.0
C421 C 0.36419 0.44814 0.29544 0.0
C422 C 0.4266 0.46809 0.49849 0.0
C423 C 0.45038 0.47047 0.48455 0.0
C424 C 0.41084 0.45835 0.45581 0.0
C425 C 0.4185 0.45116 0.3978 0.0
C426 C 0.44254 0.45272 0.38505 0.0
C427 C 0.45835 0.46238 0.42805 0.0
H428 H 0.04193 0.37115 0.25239 0.0
H429 H 0.96693 0.36216 0.23719 0.0
H430 H 0.03736 0.40052 0.32867 0.0
H431 H 0.96243 0.39186 0.31254 0.0
H432 H 0.96523 0.4602 0.41135 0.0
H433 H 0.96966 0.4328 0.32958 0.0
H434 H 0.02283 0.40108 0.43875 0.0
H435 H 0.01755 0.42798 0.52194 0.0
C436 C 0.02446 0.37555 0.26488 0.0
C437 C 0.00481 0.3641 0.23893 0.0
C438 C 0.02186 0.39234 0.30874 0.0
C439 C -0.00045 0.39828 0.32731 0.0
C440 C 0.97987 0.38771 0.29904 0.0
C441 C 0.98246 0.37077 0.25548 0.0
C442 C 0.97783 0.44732 0.41803 0.0
C443 C 0.99167 0.44671 0.47229 0.0
C444 C 0.98035 0.43165 0.37112 0.0
C445 C 0.99684 0.41498 0.37723 0.0
C446 C 0.01041 0.4141 0.43198 0.0
C447 C 0.00763 0.42965 0.47933 0.0
H448 H 0.85696 0.97229 0.93292 0.0
H449 H 0.8773 0.90476 0.89749 0.0
H450 H 0.88615 0.98657 0.85961 0.0
H451 H 0.90588 0.91909 0.82279 0.0
H452 H 0.93147 0.95179 0.63897 0.0
H453 H 0.90378 0.93814 0.7173 0.0
H454 H 0.92979 -0.01078 0.84325 0.0
H455 H 0.95766 0.00274 0.76546 0.0
C456 C 0.86788 0.96048 0.9105 0.0
C457 C 0.86453 0.93731 0.92109 0.0
C458 C 0.88452 0.96869 0.86805 0.0
C459 C 0.89808 0.95394 0.83469 0.0
C460 C 0.89535 0.93086 0.84677 0.0
C461 C 0.87894 0.92267 0.8897 0.0
C462 C 0.93124 0.96019 0.68322 0.0
C463 C 0.94691 0.9783 0.69591 0.0
C464 C 0.91548 0.95225 0.72828 0.0
C465 C 0.91471 0.96251 0.78665 0.0
C466 C 0.92991 0.981 0.79871 0.0
C467 C 0.94591 -0.0113 0.75409 0.0
H468 H 0.43416 0.88165 0.96067 0.0
H469 H 0.49724 0.85111 0.90326 0.0
H470 H 0.43993 0.91084 0.88101 0.0
H471 H 0.50301 0.88002 0.82352 0.0
H472 H 0.4897 0.91875 0.64329 0.0
H473 H 0.48333 0.89072 0.72494 0.0
H474 H 0.46721 0.9428 0.85325 0.0
H475 H 0.47323 0.97081 0.77176 0.0
C476 C 0.44939 0.88142 0.93142 0.0
C477 C 0.46542 0.86441 0.93828 0.0
C478 C 0.45271 0.89804 0.88595 0.0
C479 C 0.47185 0.89761 0.84576 0.0
C480 C 0.48799 0.88067 0.85334 0.0
C481 C 0.48487 0.86431 0.89939 0.0
C482 C 0.48475 0.92423 0.68884 0.0
C483 C 0.48209 0.94705 0.70093 0.0
C484 C 0.48121 0.90818 0.73568 0.0
C485 C 0.47492 0.91459 0.79561 0.0
C486 C 0.47185 0.93734 0.80742 0.0
C487 C 0.47537 0.95338 0.76065 0.0
H488 H 0.63005 0.52264 0.93593 0.0
H489 H 0.61483 0.59039 0.88249 0.0
H490 H 0.59891 0.50854 0.86808 0.0
H491 H 0.58352 0.57625 0.81438 0.0
H492 H 0.55084 0.54041 0.64151 0.0
H493 H 0.57796 0.55731 0.71816 0.0
H494 H 0.55865 0.50479 0.84907 0.0
H495 H 0.53284 0.48748 0.77138 0.0
C496 C 0.6197 0.53459 0.91094 0.0
C497 C 0.62513 0.55767 0.91468 0.0
C498 C 0.60178 0.52649 0.87165 0.0
C499 C 0.58868 0.54122 0.83511 0.0
C500 C 0.59349 0.56436 0.84074 0.0
C501 C 0.61142 0.57247 0.88009 0.0
C502 C 0.55237 0.53271 0.68695 0.0
C503 C 0.54006 0.51256 0.70051 0.0
C504 C 0.56779 0.54239 0.73105 0.0
C505 C 0.57079 0.53228 0.78985 0.0
C506 C 0.55739 0.51273 0.80393 0.0
C507 C 0.54246 0.50287 0.75958 0.0
H508 H 0.95821 0.61486 0.92303 0.0
H509 H 0.03331 0.62323 0.93063 0.0
H510 H 0.96133 0.58508 0.84723 0.0
H511 H 0.03651 0.59311 0.8556 0.0
H512 H 0.03111 0.56236 0.6604 0.0
H513 H 0.02818 0.58931 0.74443 0.0
H514 H 0.9743 0.5471 0.8288 0.0
H515 H 0.97764 0.52011 0.74515 0.0
C516 C 0.97541 0.61004 0.90927 0.0
C517 C 0.9955 0.6215 0.93253 0.0
C518 C 0.97721 0.59291 0.86599 0.0
C519 C -0.00083 0.58692 0.84453 0.0
C520 C 0.01931 0.5976 0.87024 0.0
C521 C 0.0175 0.61464 0.91392 0.0
C522 C 0.01841 0.55908 0.6965 0.0
C523 C 0.0038 0.5397 0.69472 0.0
C524 C 0.01692 0.57434 0.74505 0.0
C525 C 0.00093 0.57043 0.79338 0.0
C526 C 0.98645 0.55088 0.79174 0.0
C527 C 0.98805 0.53559 0.74327 0.0
H528 H 0.95582 0.17359 0.34971 0.0
H529 H 0.03013 0.16457 0.35651 0.0
H530 H 0.94912 0.13689 0.4003 0.0
H531 H 0.02357 0.1283 0.40716 0.0
H532 H 0.00826 0.05677 0.40401 0.0
H533 H 0.00464 0.09339 0.35514 0.0
H534 H 0.95945 0.11307 0.50217 0.0
H535 H 0.96269 0.07593 0.55044 0.0
C536 C 0.97068 0.16404 0.36389 0.0
C537 C 0.99346 0.17158 0.34887 0.0
C538 C 0.96684 0.14309 0.39228 0.0
C539 C 0.9858 0.12961 0.40553 0.0
C540 C 0.00863 0.13816 0.39554 0.0
C541 C 0.01243 0.15893 0.36726 0.0
C542 C 0.99661 0.06853 0.42404 0.0
C543 C 0.98565 0.0637 0.48043 0.0
C544 C 0.99481 0.08954 0.39676 0.0
C545 C 0.98235 0.10614 0.42612 0.0
C546 C 0.96924 0.10052 0.47898 0.0
C547 C 0.97088 0.07927 0.50612 0.0
H548 H 0.32672 0.07621 0.43661 0.0
H549 H 0.32949 0.03932 0.26615 0.0
H550 H 0.35739 0.05315 0.48138 0.0
H551 H 0.35925 0.01587 0.31073 0.0
H552 H 0.43396 0.00346 0.37825 0.0
H553 H 0.39986 0.02168 0.33726 0.0
H554 H 0.36668 0.01503 0.51566 0.0
H555 H 0.40102 -0.0029 0.55724 0.0
C556 C 0.33378 0.06302 0.40924 0.0
C557 C 0.32628 0.05965 0.3479 0.0
C558 C 0.35112 0.04973 0.43474 0.0
C559 C 0.36087 0.03282 0.39925 0.0
C560 C 0.35249 0.02905 0.33873 0.0
C561 C 0.33547 0.0424 0.31327 0.0
C562 C 0.41921 0.0054 0.40841 0.0
C563 C 0.42028 -0.00116 0.47095 0.0
C564 C 0.39963 0.01586 0.38494 0.0
C565 C 0.38064 0.01995 0.42343 0.0
C566 C 0.38118 0.01239 0.48517 0.0
C567 C 0.40076 0.00184 0.50867 0.0
H568 H 0.51632 0.29823 0.36281 0.0
H569 H 0.58371 0.32735 0.31294 0.0
H570 H 0.50798 0.33201 0.4201 0.0
H571 H 0.57522 0.36132 0.36896 0.0
H572 H 0.55472 0.41419 0.5112 0.0
H573 H 0.56674 0.37858 0.46979 0.0
H574 H 0.4998 0.36965 0.37724 0.0
H575 H 0.48766 0.40496 0.41923 0.0
C576 C 0.52958 0.31162 0.36563 0.0
C577 C 0.55052 0.31044 0.33305 0.0
C578 C 0.52471 0.33101 0.39763 0.0
C579 C 0.54076 0.3494 0.39756 0.0
C580 C 0.56252 0.34742 0.36951 0.0
C581 C 0.56735 0.32807 0.33736 0.0
C582 C 0.54276 0.40478 0.4811 0.0
C583 C 0.52023 0.4122 0.46853 0.0
C584 C 0.54958 0.38437 0.45787 0.0
C585 C 0.53398 0.37119 0.42161 0.0
C586 C 0.51189 0.37919 0.40668 0.0
C587 C 0.50506 0.3995 0.42999 0.0
H588 H 0.20049 0.44642 0.35954 0.0
H589 H 0.16199 0.38398 0.39211 0.0
H590 H 0.16796 0.46703 0.3991 0.0
H591 H 0.12967 0.4045 0.43317 0.0
H592 H 0.06624 0.44402 0.41705 0.0
H593 H 0.10164 0.42784 0.37967 0.0
H594 H 0.14331 0.47496 0.48929 0.0
H595 H 0.10756 0.49158 0.52563 0.0
C596 C 0.18536 0.4371 0.37722 0.0
C597 C 0.18359 0.41365 0.3727 0.0
C598 C 0.16673 0.44891 0.3995 0.0
C599 C 0.14613 0.43739 0.41771 0.0
C600 C 0.14513 0.41383 0.41763 0.0
C601 C 0.16364 0.40206 0.39487 0.0
C602 C 0.08301 0.45134 0.4316 0.0
C603 C 0.08434 0.46894 0.47409 0.0
C604 C 0.10323 0.44188 0.41109 0.0
C605 C 0.12515 0.44967 0.43329 0.0
C606 C 0.12659 0.46854 0.47187 0.0
C607 C 0.10622 0.47818 0.49214 0.0
H608 H 0.97631 0.8152 0.81229 0.0
H609 H 0.0515 0.81685 0.82312 0.0
H610 H 0.97765 0.8515 0.75949 0.0
H611 H 0.05301 0.8535 0.77041 0.0
H612 H 0.03623 0.91337 0.62683 0.0
H613 H 0.04183 0.87603 0.67146 0.0
H614 H 0.98968 0.88832 0.80876 0.0
H615 H 0.98372 0.92512 0.7632 0.0
C616 C 0.99312 0.82307 0.80125 0.0
C617 C 0.0138 0.81345 0.82112 0.0
C618 C 0.99393 0.84392 0.77198 0.0
C619 C 0.01544 0.8555 0.76263 0.0
C620 C 0.03625 0.84495 0.7776 0.0
C621 C 0.03541 0.82402 0.80722 0.0
C622 C 0.02674 0.90835 0.6681 0.0
C623 C 0.00956 0.92192 0.69193 0.0
C624 C 0.02975 0.88696 0.69314 0.0
C625 C 0.01565 0.87915 0.7422 0.0
C626 C 0.00026 0.89374 0.76971 0.0
C627 C 0.99712 0.91489 0.74447 0.0
H628 H 0.66784 0.95007 0.91721 0.0
H629 H 0.66903 0.90783 0.75625 0.0
H630 H 0.63748 0.97201 0.86885 0.0
H631 H 0.63804 0.92951 0.7078 0.0
H632 H 0.59189 0.98114 0.62301 0.0
H633 H 0.62802 0.96744 0.66683 0.0
H634 H 0.59601 0.96227 0.84695 0.0
H635 H 0.55986 0.97602 0.80344 0.0
C636 C 0.6615 0.94558 0.87127 0.0
C637 C 0.67024 0.92716 0.84055 0.0
C638 C 0.64422 0.95809 0.84369 0.0
C639 C 0.63527 0.9523 0.78502 0.0
C640 C 0.6448 0.93442 0.75297 0.0
C641 C 0.66231 0.92195 0.78058 0.0
C642 C 0.5927 0.97763 0.67233 0.0
C643 C 0.57293 0.97948 0.70984 0.0
C644 C 0.61335 0.96959 0.69714 0.0
C645 C 0.61468 0.96357 0.75997 0.0
C646 C 0.59548 0.96691 0.79832 0.0
C647 C 0.57476 0.97475 0.77344 0.0
H648 H 0.42035 0.65882 0.8874 0.0
H649 H 0.47063 0.68995 0.76314 0.0
H650 H 0.42151 0.62399 0.82944 0.0
H651 H 0.47152 0.65495 0.70429 0.0
H652 H 0.4514 0.5835 0.6103 0.0
H653 H 0.43971 0.62012 0.64713 0.0
H654 H 0.4668 0.60453 0.82927 0.0
H655 H 0.47925 0.56832 0.79209 0.0
C656 C 0.43091 0.65839 0.84613 0.0
C657 C 0.44559 0.67678 0.82979 0.0
C658 C 0.43156 0.63857 0.8132 0.0
C659 C 0.44671 0.63699 0.7632 0.0
C660 C 0.4596 0.65603 0.74268 0.0
C661 C 0.45907 0.67595 0.77605 0.0
C662 C 0.45435 0.58778 0.65856 0.0
C663 C 0.46581 0.57314 0.69905 0.0
C664 C 0.44787 0.60868 0.67918 0.0
C665 C 0.45225 0.61478 0.7408 0.0
C666 C 0.46309 0.59988 0.78162 0.0
C667 C 0.47013 0.57929 0.76062 0.0
H668 H 0.84415 0.59822 0.79422 0.0
H669 H 0.79485 0.542 0.77751 0.0
H670 H 0.87493 0.57521 0.7556 0.0
H671 H 0.82571 0.51891 0.73949 0.0
H672 H 0.89188 0.4942 0.6308 0.0
H673 H 0.85625 0.51265 0.65919 0.0
H674 H 0.89312 0.54401 0.81341 0.0
H675 H 0.92882 0.52638 0.78316 0.0
C676 C 0.83981 0.58114 0.78061 0.0
C677 C 0.81733 0.57175 0.78978 0.0
C678 C 0.8574 0.56791 0.75931 0.0
C679 C 0.85276 0.54509 0.7472 0.0
C680 C 0.82973 0.53638 0.74948 0.0
C681 C 0.81207 0.54966 0.77067 0.0
C682 C 0.89198 0.50426 0.67231 0.0
C683 C 0.91289 0.50911 0.70489 0.0
C684 C 0.87172 0.515 0.68807 0.0
C685 C 0.87232 0.53037 0.73692 0.0
C686 C 0.89253 0.53285 0.77408 0.0
C687 C 0.91277 0.52244 0.75776 0.0
H688 H 0.96401 0.19034 0.81496 0.0
H689 H 0.03481 0.18108 0.87742 0.0
H690 H 0.96423 0.15495 0.75988 0.0
H691 H 0.03497 0.14546 0.82321 0.0
H692 H 0.03138 0.08605 0.68855 0.0
H693 H 0.03385 0.12427 0.72887 0.0
H694 H 0.96242 0.11671 0.78993 0.0
H695 H 0.95984 0.07912 0.74837 0.0
C696 C 0.97972 0.18085 0.81643 0.0
C697 C -0.0007 0.18849 0.85116 0.0
C698 C 0.97982 0.16044 0.78516 0.0
C699 C -0.00055 0.14698 0.7881 0.0
C700 C 0.01955 0.15531 0.81962 0.0
C701 C 0.01949 0.17583 0.85068 0.0
C702 C 0.01629 0.09256 0.71094 0.0
C703 C 0.99543 0.07948 0.71532 0.0
C704 C 0.01768 0.1145 0.73403 0.0
C705 C -0.00174 0.1238 0.76221 0.0
C706 C 0.97758 0.11046 0.76722 0.0
C707 C 0.97616 0.08872 0.7439 0.0
H708 H 0.29816 0.0258 0.87628 0.0
H709 H 0.32335 0.09413 0.84718 0.0
H710 H 0.33045 0.01268 0.81669 0.0
H711 H 0.35684 0.0809 0.79292 0.0
H712 H 0.41057 0.05141 0.66659 0.0
H713 H 0.37448 0.06503 0.70901 0.0
H714 H 0.36971 0.0073 0.83116 0.0
H715 H 0.40487 -0.00665 0.78641 0.0
C716 C 0.31038 0.03812 0.85678 0.0
C717 C 0.30816 0.06109 0.86803 0.0
C718 C 0.32932 0.03052 0.82348 0.0
C719 C 0.3469 0.04559 0.8013 0.0
C720 C 0.34388 0.06864 0.80916 0.0
C721 C 0.3247 0.07626 0.84137 0.0
C722 C 0.40183 0.04177 0.70282 0.0
C723 C 0.41065 0.02135 0.72329 0.0
C724 C 0.38107 0.04955 0.72727 0.0
C725 C 0.3688 0.03725 0.77349 0.0
C726 C 0.37807 0.01704 0.79457 0.0
C727 C 0.39853 0.00913 0.76946 0.0
H728 H 0.49831 0.30543 0.92118 0.0
H729 H 0.54153 0.28988 0.76627 0.0
H730 H 0.49006 0.34166 0.87363 0.0
H731 H 0.53262 0.32599 0.71741 0.0
H732 H 0.49163 0.38778 0.63725 0.0
H733 H 0.49334 0.34942 0.67874 0.0
H734 H 0.52259 0.37528 0.85003 0.0
H735 H 0.52158 0.41339 0.8082 0.0
C736 C 0.50541 0.30953 0.87598 0.0
C737 C 0.5203 0.29487 0.84687 0.0
C738 C 0.50081 0.33024 0.84905 0.0
C739 C 0.51062 0.33649 0.79188 0.0
C740 C 0.52466 0.3214 0.76125 0.0
C741 C 0.52975 0.30084 0.78902 0.0
C742 C 0.49795 0.38524 0.68422 0.0
C743 C 0.50624 0.40352 0.71989 0.0
C744 C 0.49913 0.36335 0.70759 0.0
C745 C 0.50805 0.3595 0.7675 0.0
C746 C 0.51548 0.37785 0.80388 0.0
C747 C 0.51486 0.39961 0.78003 0.0
H748 H 0.19564 0.45885 0.89325 0.0
H749 H 0.17119 0.3908 0.85817 0.0
H750 H 0.16281 0.47258 0.8341 0.0
H751 H 0.13734 0.40454 0.80319 0.0
H752 H 0.08635 0.43742 0.66679 0.0
H753 H 0.12096 0.42216 0.71639 0.0
H754 H 0.12297 0.47671 0.84696 0.0
H755 H 0.08929 0.49228 0.79554 0.0
C756 C 0.18345 0.44675 0.87245 0.0
C757 C 0.18609 0.42365 0.88143 0.0
C758 C 0.16424 0.45466 0.8394 0.0
C759 C 0.1469 0.43975 0.81496 0.0
C760 C 0.15017 0.41663 0.82121 0.0
C761 C 0.16955 0.40872 0.85357 0.0
C762 C 0.09403 0.44588 0.70672 0.0
C763 C 0.08509 0.46602 0.72734 0.0
C764 C 0.11396 0.4372 0.73515 0.0
C765 C 0.12519 0.44834 0.78532 0.0
C766 C 0.11542 0.46796 0.80736 0.0
C767 C 0.09583 0.47676 0.77843 0.0
H768 H 0.02909 0.80129 0.3144 0.0
H769 H 0.95439 0.79756 0.33914 0.0
H770 H 0.03164 0.83612 0.37153 0.0
H771 H 0.95692 0.83243 0.39717 0.0
H772 H 0.96701 0.9089 0.42424 0.0
H773 H 0.96341 0.87149 0.37917 0.0
H774 H 0.02875 0.85467 0.46647 0.0
H775 H 0.0327 0.89213 0.50899 0.0
C776 C 0.01324 0.80757 0.33345 0.0
C777 C 0.99151 0.79659 0.32169 0.0
C778 C 0.01468 0.82769 0.36625 0.0
C779 C 0.99444 0.83742 0.38856 0.0
C780 C 0.97283 0.82583 0.37947 0.0
C781 C 0.97139 0.80572 0.34646 0.0
C782 C 0.98055 0.89716 0.43372 0.0
C783 C 0.00028 0.90364 0.46936 0.0
C784 C 0.97844 0.87561 0.40832 0.0
C785 C 0.99587 0.85993 0.41867 0.0
C786 C 0.01522 0.86632 0.45607 0.0
C787 C 0.01746 0.88787 0.48068 0.0
H788 H 0.68554 0.9636 0.26821 0.0
H789 H 0.67948 0.89768 0.35152 0.0
H790 H 0.65049 0.97401 0.32066 0.0
H791 H 0.64329 0.90754 0.4003 0.0
H792 H 0.58737 0.93915 0.52072 0.0
H793 H 0.62384 0.9275 0.47517 0.0
H794 H 0.61045 0.96884 0.31405 0.0
H795 H 0.57503 0.98139 0.3619 0.0
C796 C 0.67693 0.95133 0.29821 0.0
C797 C 0.68551 0.9297 0.30505 0.0
C798 C 0.65638 0.95717 0.32743 0.0
C799 C 0.64347 0.9415 0.36383 0.0
C800 C 0.65255 0.92015 0.37277 0.0
C801 C 0.6733 0.91438 0.34409 0.0
C802 C 0.5921 0.94529 0.47498 0.0
C803 C 0.5783 0.96092 0.44432 0.0
C804 C 0.61307 0.93871 0.44881 0.0
C805 C 0.62051 0.94741 0.39096 0.0
C806 C 0.60589 0.96225 0.35937 0.0
C807 C 0.5853 0.96918 0.38618 0.0
H808 H 0.44337 0.68954 0.33794 0.0
H809 H 0.51875 0.69338 0.34431 0.0
H810 H 0.44347 0.65421 0.39483 0.0
H811 H 0.51892 0.65744 0.39819 0.0
H812 H 0.51083 0.59501 0.52175 0.0
H813 H 0.51072 0.63401 0.48618 0.0
H814 H 0.45236 0.61746 0.36407 0.0
H815 H 0.45207 0.57897 0.40108 0.0
C816 C 0.45997 0.68314 0.3527 0.0
C817 C 0.48107 0.69415 0.33564 0.0
C818 C 0.46005 0.66264 0.38443 0.0
C819 C 0.48122 0.65259 0.39951 0.0
C820 C 0.50228 0.66455 0.38713 0.0
C821 C 0.50219 0.68512 0.35576 0.0
C822 C 0.49822 0.59973 0.48673 0.0
C823 C 0.48156 0.58393 0.46386 0.0
C824 C 0.49804 0.62209 0.46657 0.0
C825 C 0.48133 0.62903 0.4228 0.0
C826 C 0.46508 0.61297 0.39907 0.0
C827 C 0.46511 0.59078 0.41961 0.0
H828 H 0.81967 0.59433 0.32273 0.0
H829 H 0.79856 0.52559 0.28459 0.0
H830 H 0.85152 0.58157 0.38852 0.0
H831 H 0.83 0.51297 0.35089 0.0
H832 H 0.876 0.49529 0.51124 0.0
H833 H 0.84324 0.51104 0.45648 0.0
H834 H 0.8891 0.56316 0.38081 0.0
H835 H 0.92219 0.5475 0.43766 0.0
C836 C 0.82169 0.5765 0.32843 0.0
C837 C 0.80642 0.56103 0.29781 0.0
C838 C 0.84004 0.5692 0.36618 0.0
C839 C 0.84349 0.54623 0.37497 0.0
C840 C 0.82777 0.5308 0.34601 0.0
C841 C 0.80955 0.53807 0.30803 0.0
C842 C 0.87922 0.51014 0.48302 0.0
C843 C 0.90186 0.5199 0.47804 0.0
C844 C 0.86035 0.51915 0.45137 0.0
C845 C 0.86349 0.53814 0.41317 0.0
C846 C 0.886 0.54853 0.40994 0.0
C847 C 0.905 0.53953 0.44226 0.0
loop_
_geom_bond_atom_site_label_1
_geom_bond_atom_site_label_2
_geom_bond_distance
_geom_bond_site_symmetry_2
_ccdc_geom_bond_type
C0 C1 1.384 . S
C0 H13 0.947 . S
C0 C35 1.382 . S
C1 C0 1.384 . S
C1 C2 1.378 . S
C2 C1 1.378 . S
C2 C3 1.378 . S
C2 H14 0.952 . S
C3 C2 1.378 . S
C3 H15 0.950 . S
C3 C34 1.383 . S
H4 C23 0.947 . S
H5 C24 0.946 . S
H6 C26 0.953 . S
H7 C27 0.945 . S
H8 C29 0.952 . S
H9 C30 0.949 . S
H10 C32 0.950 . S
H11 C33 0.948 . S
H12 C35 0.951 . S
H13 C0 0.947 . S
H14 C2 0.952 . S
H15 C3 0.950 . S
N16 C19 1.382 1_554 S
N16 C21 1.363 . S
N17 C19 1.371 . S
N17 C20 1.372 . S
N18 C20 1.361 1_554 S
N18 C21 1.377 . S
C19 N16 1.382 1_556 S
C19 N17 1.371 . S
C19 C22 1.480 . S
C20 N17 1.372 . S
C20 N18 1.361 1_556 S
C20 C28 1.457 . S
C21 N16 1.363 . S
C21 N18 1.377 . S
C21 C34 1.479 . S
C22 C19 1.480 . S
C22 C23 1.383 1_556 S
C22 C27 1.385 . S
C23 H4 0.947 . S
C23 C22 1.383 1_554 S
C23 C24 1.388 . S
C24 H5 0.946 . S
C24 C23 1.388 . S
C24 C25 1.384 1_554 S
C25 C24 1.384 1_556 S
C25 C26 1.377 . S
C26 H6 0.953 . S
C26 C25 1.377 . S
C26 C27 1.369 . S
C27 H7 0.945 . S
C27 C22 1.385 . S
C27 C26 1.369 . S
C28 C20 1.457 . S
C28 C29 1.372 . S
C28 C33 1.364 . S
C29 H8 0.952 . S
C29 C28 1.372 . S
C29 C30 1.389 . S
C30 H9 0.949 . S
C30 C29 1.389 . S
C30 C31 1.387 . S
C31 C30 1.387 . S
C31 C32 1.372 . S
C32 H10 0.950 . S
C32 C31 1.372 . S
C32 C33 1.379 . S
C33 H11 0.948 . S
C33 C28 1.364 . S
C33 C32 1.379 . S
C34 C3 1.383 . S
C34 C21 1.479 . S
C34 C35 1.398 . S
C35 C0 1.382 . S
C35 H12 0.951 . S
C35 C34 1.398 . S
C36 C37 1.383 1_655 S
C36 H49 0.948 . S
C36 C71 1.382 1_655 S
C37 C36 1.383 1_455 S
C37 C38 1.378 . S
C38 C37 1.378 . S
C38 C39 1.378 . S
C38 H50 0.952 . S
C39 C38 1.378 . S
C39 H51 0.950 . S
C39 C70 1.383 . S
H40 C59 0.947 . S
H41 C60 0.951 . S
H42 C62 0.953 . S
H43 C63 0.945 . S
H44 C65 0.949 1_655 S
H45 C66 0.956 . S
H46 C68 0.950 . S
H47 C69 0.948 . S
H48 C71 0.951 1_655 S
H49 C36 0.948 . S
H50 C38 0.952 . S
H51 C39 0.950 . S
N52 C55 1.382 . S
N52 C57 1.363 . S
N53 C55 1.371 1_556 S
N53 C56 1.372 . S
N54 C56 1.361 1_554 S
N54 C57 1.377 . S
C55 N52 1.382 . S
C55 N53 1.371 1_554 S
C55 C58 1.480 . S
C56 N53 1.372 . S
C56 N54 1.361 1_556 S
C56 C64 1.457 . S
C57 N52 1.363 . S
C57 N54 1.377 . S
C57 C70 1.479 . S
C58 C55 1.480 . S
C58 C59 1.383 . S
C58 C63 1.385 1_554 S
C59 H40 0.947 . S
C59 C58 1.383 . S
C59 C60 1.386 1_455 S
C60 H41 0.951 . S
C60 C59 1.386 1_655 S
C60 C61 1.381 1_654 S
C61 C60 1.381 1_456 S
C61 C62 1.377 . S
C62 H42 0.953 . S
C62 C61 1.377 . S
C62 C63 1.369 . S
C63 H43 0.945 . S
C63 C58 1.385 1_556 S
C63 C62 1.369 . S
C64 C56 1.457 . S
C64 C65 1.376 . S
C64 C69 1.364 . S
C65 H44 0.949 1_455 S
C65 C64 1.376 . S
C65 C66 1.385 1_455 S
C66 H45 0.956 . S
C66 C65 1.385 1_655 S
C66 C67 1.383 1_655 S
C67 C66 1.383 1_455 S
C67 C68 1.372 . S
C68 H46 0.950 . S
C68 C67 1.372 . S
C68 C69 1.379 . S
C69 H47 0.948 . S
C69 C64 1.364 . S
C69 C68 1.379 . S
C70 C39 1.383 . S
C70 C57 1.479 . S
C70 C71 1.398 . S
C71 C36 1.382 1_455 S
C71 H48 0.951 1_455 S
C71 C70 1.398 . S
C72 C73 1.384 . S
C72 H85 0.947 . S
C72 C107 1.382 . S
C73 C72 1.384 . S
C73 C74 1.378 . S
C74 C73 1.378 . S
C74 C75 1.378 . S
C74 H86 0.952 . S
C75 C74 1.378 . S
C75 H87 0.950 . S
C75 C106 1.383 . S
H76 C95 0.947 . S
H77 C96 0.946 . S
H78 C98 0.953 . S
H79 C99 0.945 . S
H80 C101 0.952 . S
H81 C102 0.949 . S
H82 C104 0.950 . S
H83 C105 0.948 . S
H84 C107 0.951 . S
H85 C72 0.947 . S
H86 C74 0.952 . S
H87 C75 0.950 . S
N88 C91 1.382 . S
N88 C93 1.363 . S
N89 C91 1.371 1_556 S
N89 C92 1.372 . S
N90 C92 1.361 1_554 S
N90 C93 1.377 . S
C91 N88 1.382 . S
C91 N89 1.371 1_554 S
C91 C94 1.480 1_554 S
C92 N89 1.372 . S
C92 N90 1.361 1_556 S
C92 C100 1.457 . S
C93 N88 1.363 . S
C93 N90 1.377 . S
C93 C106 1.479 . S
C94 C91 1.480 1_556 S
C94 C95 1.383 1_556 S
C94 C99 1.385 . S
C95 H76 0.947 . S
C95 C94 1.383 1_554 S
C95 C96 1.388 . S
C96 H77 0.946 . S
C96 C95 1.388 . S
C96 C97 1.384 1_554 S
C97 C96 1.384 1_556 S
C97 C98 1.377 . S
C98 H78 0.953 . S
C98 C97 1.377 . S
C98 C99 1.369 . S
C99 H79 0.945 . S
C99 C94 1.385 . S
C99 C98 1.369 . S
C100 C92 1.457 . S
C100 C101 1.372 . S
C100 C105 1.364 . S
C101 H80 0.952 . S
C101 C100 1.372 . S
C101 C102 1.389 . S
C102 H81 0.949 . S
C102 C101 1.389 . S
C102 C103 1.387 . S
C103 C102 1.387 . S
C103 C104 1.372 . S
C104 H82 0.950 . S
C104 C103 1.372 . S
C104 C105 1.379 . S
C105 H83 0.948 . S
C105 C100 1.364 . S
C105 C104 1.379 . S
C106 C75 1.383 . S
C106 C93 1.479 . S
C106 C107 1.398 . S
C107 C72 1.382 . S
C107 H84 0.951 . S
C107 C106 1.398 . S
C108 C109 1.384 . S
C108 H121 0.947 . S
C108 C143 1.382 . S
C109 C108 1.384 . S
C109 C110 1.378 . S
C110 C109 1.378 . S
C110 C111 1.378 . S
C110 H122 0.952 . S
C111 C110 1.378 . S
C111 H123 0.950 . S
C111 C142 1.383 . S
H112 C131 0.947 . S
H113 C132 0.946 . S
H114 C134 0.953 . S
H115 C135 0.945 . S
H116 C137 0.952 . S
H117 C138 0.949 . S
H118 C140 0.950 . S
H119 C141 0.948 . S
H120 C143 0.951 . S
H121 C108 0.947 . S
H122 C110 0.952 . S
H123 C111 0.950 . S
N124 C127 1.382 1_556 S
N124 C129 1.363 . S
N125 C127 1.371 . S
N125 C128 1.372 . S
N126 C128 1.361 . S
N126 C129 1.377 1_554 S
C127 N124 1.382 1_554 S
C127 N125 1.371 . S
C127 C130 1.480 . S
C128 N125 1.372 . S
C128 N126 1.361 . S
C128 C136 1.457 . S
C129 N124 1.363 . S
C129 N126 1.377 1_556 S
C129 C142 1.479 . S
C130 C127 1.480 . S
C130 C131 1.383 1_554 S
C130 C135 1.385 . S
C131 H112 0.947 . S
C131 C130 1.383 1_556 S
C131 C132 1.388 . S
C132 H113 0.946 . S
C132 C131 1.388 . S
C132 C133 1.384 . S
C133 C132 1.384 . S
C133 C134 1.377 1_556 S
C134 H114 0.953 . S
C134 C133 1.377 1_554 S
C134 C135 1.369 . S
C135 H115 0.945 . S
C135 C130 1.385 . S
C135 C134 1.369 . S
C136 C128 1.457 . S
C136 C137 1.372 . S
C136 C141 1.364 . S
C137 H116 0.952 . S
C137 C136 1.372 . S
C137 C138 1.389 . S
C138 H117 0.949 . S
C138 C137 1.389 . S
C138 C139 1.387 . S
C139 C138 1.387 . S
C139 C140 1.372 . S
C140 H118 0.950 . S
C140 C139 1.372 . S
C140 C141 1.379 . S
C141 H119 0.948 . S
C141 C136 1.364 . S
C141 C140 1.379 . S
C142 C111 1.383 . S
C142 C129 1.479 . S
C142 C143 1.398 . S
C143 C108 1.382 . S
C143 H120 0.951 . S
C143 C142 1.398 . S
C144 C145 1.384 . S
C144 H157 0.947 . S
C144 C179 1.382 1_556 S
C145 C144 1.384 . S
C145 C146 1.378 . S
C146 C145 1.378 . S
C146 C147 1.373 1_556 S
C146 H158 0.952 . S
C147 C146 1.373 1_554 S
C147 H159 0.951 . S
C147 C178 1.386 . S
H148 C167 0.947 . S
H149 C168 0.946 . S
H150 C170 0.953 . S
H151 C171 0.945 . S
H152 C173 0.952 . S
H153 C174 0.949 . S
H154 C176 0.950 . S
H155 C177 0.948 . S
H156 C179 0.951 . S
H157 C144 0.947 . S
H158 C146 0.952 . S
H159 C147 0.951 . S
N160 C163 1.382 . S
N160 C165 1.363 . S
N161 C163 1.371 . S
N161 C164 1.372 . S
N162 C164 1.361 . S
N162 C165 1.377 . S
C163 N160 1.382 . S
C163 N161 1.371 . S
C163 C166 1.480 . S
C164 N161 1.372 . S
C164 N162 1.361 . S
C164 C172 1.457 . S
C165 N160 1.363 . S
C165 N162 1.377 . S
C165 C178 1.479 . S
C166 C163 1.480 . S
C166 C167 1.383 . S
C166 C171 1.385 . S
C167 H148 0.947 . S
C167 C166 1.383 . S
C167 C168 1.388 . S
C168 H149 0.946 . S
C168 C167 1.388 . S
C168 C169 1.384 . S
C169 C168 1.384 . S
C169 C170 1.377 . S
C170 H150 0.953 . S
C170 C169 1.377 . S
C170 C171 1.369 . S
C171 H151 0.945 . S
C171 C166 1.385 . S
C171 C170 1.369 . S
C172 C164 1.457 . S
C172 C173 1.372 . S
C172 C177 1.364 . S
C173 H152 0.952 . S
C173 C172 1.372 . S
C173 C174 1.389 . S
C174 H153 0.949 . S
C174 C173 1.389 . S
C174 C175 1.387 . S
C175 C174 1.387 . S
C175 C176 1.372 . S
C176 H154 0.950 . S
C176 C175 1.372 . S
C176 C177 1.379 . S
C177 H155 0.948 . S
C177 C172 1.364 . S
C177 C176 1.379 . S
C178 C147 1.386 . S
C178 C165 1.479 . S
C178 C179 1.398 . S
C179 C144 1.382 1_554 S
C179 H156 0.951 . S
C179 C178 1.398 . S
C180 C181 1.384 . S
C180 H193 0.948 1_455 S
C180 C215 1.382 1_556 S
C181 C180 1.384 . S
C181 C182 1.378 . S
C182 C181 1.378 . S
C182 C183 1.378 . S
C182 H194 0.952 . S
C183 C182 1.378 . S
C183 H195 0.950 . S
C183 C214 1.383 1_556 S
H184 C203 0.947 . S
H185 C204 0.949 . S
H186 C206 0.953 . S
H187 C207 0.945 . S
H188 C209 0.947 1_655 S
H189 C210 0.954 . S
H190 C212 0.950 . S
H191 C213 0.948 . S
H192 C215 0.950 1_655 S
H193 C180 0.948 1_655 S
H194 C182 0.952 . S
H195 C183 0.950 . S
N196 C199 1.382 . S
N196 C201 1.363 . S
N197 C199 1.371 . S
N197 C200 1.372 . S
N198 C200 1.361 . S
N198 C201 1.377 . S
C199 N196 1.382 . S
C199 N197 1.371 . S
C199 C202 1.480 . S
C200 N197 1.372 . S
C200 N198 1.361 . S
C200 C208 1.457 . S
C201 N196 1.363 . S
C201 N198 1.377 . S
C201 C214 1.479 . S
C202 C199 1.480 . S
C202 C203 1.383 . S
C202 C207 1.385 . S
C203 H184 0.947 . S
C203 C202 1.383 . S
C203 C204 1.386 1_455 S
C204 H185 0.949 . S
C204 C203 1.386 1_655 S
C204 C205 1.382 1_655 S
C205 C204 1.382 1_455 S
C205 C206 1.377 . S
C206 H186 0.953 . S
C206 C205 1.377 . S
C206 C207 1.369 . S
C207 H187 0.945 . S
C207 C202 1.385 . S
C207 C206 1.369 . S
C208 C200 1.457 . S
C208 C209 1.379 . S
C208 C213 1.364 . S
C209 H188 0.947 1_455 S
C209 C208 1.379 . S
C209 C210 1.388 1_455 S
C210 H189 0.954 . S
C210 C209 1.388 1_655 S
C210 C211 1.383 1_655 S
C211 C210 1.383 1_455 S
C211 C212 1.372 . S
C212 H190 0.950 . S
C212 C211 1.372 . S
C212 C213 1.379 . S
C213 H191 0.948 . S
C213 C208 1.364 . S
C213 C212 1.379 . S
C214 C183 1.383 1_554 S
C214 C201 1.479 . S
C214 C215 1.399 . S
C215 C180 1.382 1_554 S
C215 H192 0.950 1_455 S
C215 C214 1.399 . S
C216 C217 1.384 . S
C216 H229 0.947 . S
C216 C251 1.382 1_556 S
C217 C216 1.384 . S
C217 C218 1.378 . S
C218 C217 1.378 . S
C218 C219 1.378 . S
C218 H230 0.952 . S
C219 C218 1.378 . S
C219 H231 0.950 . S
C219 C250 1.383 1_556 S
H220 C239 0.947 . S
H221 C240 0.946 . S
H222 C242 0.953 . S
H223 C243 0.945 . S
H224 C245 0.952 . S
H225 C246 0.949 . S
H226 C248 0.950 . S
H227 C249 0.948 . S
H228 C251 0.951 . S
H229 C216 0.947 . S
H230 C218 0.952 . S
H231 C219 0.950 . S
N232 C235 1.382 . S
N232 C237 1.363 . S
N233 C235 1.371 . S
N233 C236 1.372 . S
N234 C236 1.361 . S
N234 C237 1.377 . S
C235 N232 1.382 . S
C235 N233 1.371 . S
C235 C238 1.480 . S
C236 N233 1.372 . S
C236 N234 1.361 . S
C236 C244 1.457 . S
C237 N232 1.363 . S
C237 N234 1.377 . S
C237 C250 1.479 . S
C238 C235 1.480 . S
C238 C239 1.383 . S
C238 C243 1.385 . S
C239 H220 0.947 . S
C239 C238 1.383 . S
C239 C240 1.388 . S
C240 H221 0.946 . S
C240 C239 1.388 . S
C240 C241 1.384 . S
C241 C240 1.384 . S
C241 C242 1.377 . S
C242 H222 0.953 . S
C242 C241 1.377 . S
C242 C243 1.369 . S
C243 H223 0.945 . S
C243 C238 1.385 . S
C243 C242 1.369 . S
C244 C236 1.457 . S
C244 C245 1.372 . S
C244 C249 1.364 . S
C245 H224 0.952 . S
C245 C244 1.372 . S
C245 C246 1.389 . S
C246 H225 0.949 . S
C246 C245 1.389 . S
C246 C247 1.387 . S
C247 C246 1.387 . S
C247 C248 1.372 . S
C248 H226 0.950 . S
C248 C247 1.372 . S
C248 C249 1.379 . S
C249 H227 0.948 . S
C249 C244 1.364 . S
C249 C248 1.379 . S
C250 C219 1.383 1_554 S
C250 C237 1.479 . S
C250 C251 1.398 . S
C251 C216 1.382 1_554 S
C251 H228 0.951 . S
C251 C250 1.398 . S
C252 C253 1.384 . S
C252 H265 0.947 . S
C252 C287 1.382 . S
C253 C252 1.384 . S
C253 C254 1.378 . S
C254 C253 1.378 . S
C254 C255 1.378 . S
C254 H266 0.952 . S
C255 C254 1.378 . S
C255 H267 0.950 . S
C255 C286 1.383 . S
H256 C275 0.947 . S
H257 C276 0.946 . S
H258 C278 0.953 . S
H259 C279 0.945 . S
H260 C281 0.952 . S
H261 C282 0.949 . S
H262 C284 0.950 . S
H263 C285 0.948 . S
H264 C287 0.951 . S
H265 C252 0.947 . S
H266 C254 0.952 . S
H267 C255 0.950 . S
N268 C271 1.382 . S
N268 C273 1.363 . S
N269 C271 1.371 . S
N269 C272 1.372 . S
N270 C272 1.361 . S
N270 C273 1.377 . S
C271 N268 1.382 . S
C271 N269 1.371 . S
C271 C274 1.480 . S
C272 N269 1.372 . S
C272 N270 1.361 . S
C272 C280 1.457 . S
C273 N268 1.363 . S
C273 N270 1.377 . S
C273 C286 1.479 . S
C274 C271 1.480 . S
C274 C275 1.383 . S
C274 C279 1.385 . S
C275 H256 0.947 . S
C275 C274 1.383 . S
C275 C276 1.388 . S
C276 H257 0.946 . S
C276 C275 1.388 . S
C276 C277 1.384 . S
C277 C276 1.384 . S
C277 C278 1.377 . S
C278 H258 0.953 . S
C278 C277 1.377 . S
C278 C279 1.369 . S
C279 H259 0.945 . S
C279 C274 1.385 . S
C279 C278 1.369 . S
C280 C272 1.457 . S
C280 C281 1.372 1_554 S
C280 C285 1.364 . S
C281 H260 0.952 . S
C281 C280 1.372 1_556 S
C281 C282 1.389 . S
C282 H261 0.949 . S
C282 C281 1.389 . S
C282 C283 1.387 . S
C283 C282 1.387 . S
C283 C284 1.372 . S
C284 H262 0.950 . S
C284 C283 1.372 . S
C284 C285 1.379 1_556 S
C285 H263 0.948 . S
C285 C280 1.364 . S
C285 C284 1.379 1_554 S
C286 C255 1.383 . S
C286 C273 1.479 . S
C286 C287 1.398 . S
C287 C252 1.382 . S
C287 H264 0.951 . S
C287 C286 1.398 . S
Zn288 O294 1.969 . S
Zn288 O295 1.965 1_655 S
Zn288 O299 2.024 1_655 S
Zn288 O304 1.969 . S
Zn289 O296 1.969 . S
Zn289 O302 1.969 . S
Zn289 O303 1.965 1_455 S
Zn289 O305 2.024 1_455 S
C290 O291 1.229 1_455 S
C290 O299 1.058 . S
O291 C290 1.229 1_655 S
C292 O293 1.229 1_655 S
C292 O305 1.058 . S
O293 C292 1.229 1_455 S
O294 Zn288 1.969 . S
O294 C297 1.267 . S
O295 Zn288 1.965 1_455 S
O295 C306 1.260 . S
O296 Zn289 1.969 . S
O296 C306 1.258 1_565 S
C297 O294 1.267 . S
C297 O298 1.228 1_655 S
O298 C297 1.228 1_455 S
O299 Zn288 2.024 1_455 S
O299 C290 1.058 . S
C300 O301 1.228 1_455 S
C300 O302 1.267 . S
O301 C300 1.228 1_655 S
O302 Zn289 1.969 . S
O302 C300 1.267 . S
O303 Zn289 1.965 1_655 S
O303 C307 1.260 1_565 S
O304 Zn288 1.969 . S
O304 C307 1.258 . S
O305 Zn289 2.024 1_655 S
O305 C292 1.058 . S
C306 O295 1.260 . S
C306 O296 1.258 1_545 S
C307 O303 1.260 1_545 S
C307 O304 1.258 . S
Zn308 O314 1.969 . S
Zn308 O315 1.965 . S
Zn308 O319 2.024 . S
Zn308 O324 1.969 1_545 S
Zn309 O316 1.969 1_565 S
Zn309 O322 1.969 1_565 S
Zn309 O323 1.965 . S
Zn309 O325 2.024 . S
C310 O311 1.229 . S
C310 O319 1.058 . S
O311 C310 1.229 . S
C312 O313 1.229 . S
C312 O325 1.058 . S
O313 C312 1.229 . S
O314 Zn308 1.969 . S
O314 C317 1.267 . S
O315 Zn308 1.965 . S
O315 C326 1.260 . S
O316 Zn309 1.969 1_545 S
O316 C326 1.258 . S
C317 O314 1.267 . S
C317 O318 1.228 . S
O318 C317 1.228 . S
O319 Zn308 2.024 . S
O319 C310 1.058 . S
C320 O321 1.228 . S
C320 O322 1.267 1_565 S
O321 C320 1.228 . S
O322 Zn309 1.969 1_545 S
O322 C320 1.267 1_545 S
O323 Zn309 1.965 . S
O323 C327 1.260 . S
O324 Zn308 1.969 1_565 S
O324 C327 1.258 . S
O325 Zn309 2.024 . S
O325 C312 1.058 . S
C326 O315 1.260 . S
C326 O316 1.258 . S
C327 O323 1.260 . S
C327 O324 1.258 . S
Zn328 O334 1.969 . S
Zn328 O335 1.965 . S
Zn328 O339 2.024 . S
Zn328 O344 1.969 . S
Zn329 O336 1.969 . S
Zn329 O342 1.969 . S
Zn329 O343 1.965 . S
Zn329 O345 2.024 . S
C330 O331 1.229 . S
C330 O339 1.058 . S
O331 C330 1.229 . S
C332 O333 1.229 . S
C332 O345 1.058 . S
O333 C332 1.229 . S
O334 Zn328 1.969 . S
O334 C337 1.267 . S
O335 Zn328 1.965 . S
O335 C346 1.260 . S
O336 Zn329 1.969 . S
O336 C346 1.258 . S
C337 O334 1.267 . S
C337 O338 1.228 . S
O338 C337 1.228 . S
O339 Zn328 2.024 . S
O339 C330 1.058 . S
C340 O341 1.228 . S
C340 O342 1.267 . S
O341 C340 1.228 . S
O342 Zn329 1.969 . S
O342 C340 1.267 . S
O343 Zn329 1.965 . S
O343 C347 1.260 . S
O344 Zn328 1.969 . S
O344 C347 1.258 . S
O345 Zn329 2.024 . S
O345 C332 1.058 . S
C346 O335 1.260 . S
C346 O336 1.258 . S
C347 O343 1.260 . S
C347 O344 1.258 . S
Zn348 O354 1.969 . S
Zn348 O355 1.965 . S
Zn348 O359 2.024 . S
Zn348 O364 1.969 . S
Zn349 O356 1.969 . S
Zn349 O362 1.969 . S
Zn349 O363 1.965 . S
Zn349 O365 2.024 . S
C350 O351 1.229 . S
C350 O359 1.058 . S
O351 C350 1.229 . S
C352 O353 1.229 . S
C352 O365 1.058 . S
O353 C352 1.229 . S
O354 Zn348 1.969 . S
O354 C357 1.267 . S
O355 Zn348 1.965 . S
O355 C366 1.260 1_455 S
O356 Zn349 1.969 . S
O356 C366 1.258 . S
C357 O354 1.267 . S
C357 O358 1.228 . S
O358 C357 1.228 . S
O359 Zn348 2.024 . S
O359 C350 1.058 . S
C360 O361 1.228 . S
C360 O362 1.267 . S
O361 C360 1.228 . S
O362 Zn349 1.969 . S
O362 C360 1.267 . S
O363 Zn349 1.965 . S
O363 C367 1.260 1_655 S
O364 Zn348 1.969 . S
O364 C367 1.258 . S
O365 Zn349 2.024 . S
O365 C352 1.058 . S
C366 O355 1.260 1_655 S
C366 O356 1.258 . S
C367 O363 1.260 1_455 S
C367 O364 1.258 . S
H368 C376 0.950 . S
H369 C381 0.950 . S
H370 C378 0.950 . S
H371 C380 0.950 . S
H372 C382 0.950 . S
H373 C384 0.950 . S
H374 C386 0.950 . S
H375 C387 0.950 1_565 S
C376 H368 0.950 . S
C376 C377 1.386 . S
C376 C378 1.391 . S
C377 C376 1.386 . S
C377 C381 1.393 . S
C378 H370 0.950 . S
C378 C376 1.391 . S
C378 C379 1.400 . S
C379 C378 1.400 . S
C379 C380 1.398 . S
C379 C385 1.491 . S
C380 H371 0.950 . S
C380 C379 1.398 . S
C380 C381 1.391 . S
C381 H369 0.950 . S
C381 C377 1.393 . S
C381 C380 1.391 . S
C382 H372 0.950 . S
C382 C383 1.386 . S
C382 C384 1.391 . S
C383 C382 1.386 . S
C383 C387 1.393 . S
C384 H373 0.950 . S
C384 C382 1.391 . S
C384 C385 1.400 . S
C385 C379 1.491 . S
C385 C384 1.400 . S
C385 C386 1.398 . S
C386 H374 0.950 . S
C386 C385 1.398 . S
C386 C387 1.391 . S
C387 H375 0.950 1_545 S
C387 C383 1.393 . S
C387 C386 1.391 . S
H388 C396 0.950 . S
H389 C401 0.950 . S
H390 C398 0.950 . S
H391 C400 0.950 . S
H392 C402 0.950 . S
H393 C404 0.950 . S
H394 C406 0.950 . S
H395 C407 0.950 . S
C396 H388 0.950 . S
C396 C397 1.386 . S
C396 C398 1.391 . S
C397 C396 1.386 . S
C397 C401 1.393 . S
C398 H390 0.950 . S
C398 C396 1.391 . S
C398 C399 1.400 . S
C399 C398 1.400 . S
C399 C400 1.398 . S
C399 C405 1.491 . S
C400 H391 0.950 . S
C400 C399 1.398 . S
C400 C401 1.391 . S
C401 H389 0.950 . S
C401 C397 1.393 . S
C401 C400 1.391 . S
C402 H392 0.950 . S
C402 C403 1.386 . S
C402 C404 1.391 . S
C403 C402 1.386 . S
C403 C407 1.393 . S
C404 H393 0.950 . S
C404 C402 1.391 . S
C404 C405 1.400 . S
C405 C399 1.491 . S
C405 C404 1.400 . S
C405 C406 1.398 . S
C406 H394 0.950 . S
C406 C405 1.398 . S
C406 C407 1.391 . S
C407 H395 0.950 . S
C407 C403 1.393 . S
C407 C406 1.391 . S
H408 C416 0.950 . S
H409 C421 0.950 . S
H410 C418 0.950 . S
H411 C420 0.950 . S
H412 C422 0.950 . S
H413 C424 0.950 . S
H414 C426 0.950 . S
H415 C427 0.950 . S
C416 H408 0.950 . S
C416 C417 1.386 . S
C416 C418 1.391 . S
C417 C416 1.386 . S
C417 C421 1.393 . S
C418 H410 0.950 . S
C418 C416 1.391 . S
C418 C419 1.400 . S
C419 C418 1.400 . S
C419 C420 1.398 . S
C419 C425 1.491 . S
C420 H411 0.950 . S
C420 C419 1.398 . S
C420 C421 1.391 . S
C421 H409 0.950 . S
C421 C417 1.393 . S
C421 C420 1.391 . S
C422 H412 0.950 . S
C422 C423 1.386 . S
C422 C424 1.391 . S
C423 C422 1.386 . S
C423 C427 1.393 . S
C424 H413 0.950 . S
C424 C422 1.391 . S
C424 C425 1.400 . S
C425 C419 1.491 . S
C425 C424 1.400 . S
C425 C426 1.398 . S
C426 H414 0.950 . S
C426 C425 1.398 . S
C426 C427 1.391 . S
C427 H415 0.950 . S
C427 C423 1.393 . S
C427 C426 1.391 . S
H428 C436 0.950 . S
H429 C441 0.950 . S
H430 C438 0.950 . S
H431 C440 0.950 . S
H432 C442 0.950 . S
H433 C444 0.950 . S
H434 C446 0.950 . S
H435 C447 0.950 . S
C436 H428 0.950 . S
C436 C437 1.375 1_455 S
C436 C438 1.391 . S
C437 C436 1.375 1_655 S
C437 C441 1.404 . S
C438 H430 0.950 . S
C438 C436 1.391 . S
C438 C439 1.400 1_455 S
C439 C438 1.400 1_655 S
C439 C440 1.398 . S
C439 C445 1.491 . S
C440 H431 0.950 . S
C440 C439 1.398 . S
C440 C441 1.391 . S
C441 H429 0.950 . S
C441 C437 1.404 . S
C441 C440 1.391 . S
C442 H432 0.950 . S
C442 C443 1.386 . S
C442 C444 1.391 . S
C443 C442 1.386 . S
C443 C447 1.393 1_655 S
C444 H433 0.950 . S
C444 C442 1.391 . S
C444 C445 1.400 . S
C445 C439 1.491 . S
C445 C444 1.400 . S
C445 C446 1.398 1_655 S
C446 H434 0.950 . S
C446 C445 1.398 1_455 S
C446 C447 1.391 . S
C447 H435 0.950 . S
C447 C443 1.393 1_455 S
C447 C446 1.391 . S
H448 C456 0.950 . S
H449 C461 0.950 . S
H450 C458 0.950 . S
H451 C460 0.950 . S
H452 C462 0.950 . S
H453 C464 0.950 . S
H454 C466 0.950 . S
H455 C467 0.969 . S
C456 H448 0.950 . S
C456 C457 1.386 . S
C456 C458 1.391 . S
C457 C456 1.386 . S
C457 C461 1.393 . S
C458 H450 0.950 . S
C458 C456 1.391 . S
C458 C459 1.400 . S
C459 C458 1.400 . S
C459 C460 1.398 . S
C459 C465 1.491 . S
C460 H451 0.950 . S
C460 C459 1.398 . S
C460 C461 1.391 . S
C461 H449 0.950 . S
C461 C457 1.393 . S
C461 C460 1.391 . S
C462 H452 0.950 . S
C462 C463 1.386 . S
C462 C464 1.391 . S
C463 C462 1.386 . S
C463 C467 1.382 1_565 S
C464 H453 0.950 . S
C464 C462 1.391 . S
C464 C465 1.400 . S
C465 C459 1.491 . S
C465 C464 1.400 . S
C465 C466 1.398 . S
C466 H454 0.950 . S
C466 C465 1.398 . S
C466 C467 1.383 1_565 S
C467 H455 0.969 . S
C467 C463 1.382 1_545 S
C467 C466 1.383 1_545 S
H468 C476 0.950 . S
H469 C481 0.950 . S
H470 C478 0.950 . S
H471 C480 0.950 . S
H472 C482 0.950 . S
H473 C484 0.950 . S
H474 C486 0.950 . S
H475 C487 0.950 . S
C476 H468 0.950 . S
C476 C477 1.386 . S
C476 C478 1.391 . S
C477 C476 1.386 . S
C477 C481 1.393 . S
C478 H470 0.950 . S
C478 C476 1.391 . S
C478 C479 1.400 . S
C479 C478 1.400 . S
C479 C480 1.398 . S
C479 C485 1.491 . S
C480 H471 0.950 . S
C480 C479 1.398 . S
C480 C481 1.391 . S
C481 H469 0.950 . S
C481 C477 1.393 . S
C481 C480 1.391 . S
C482 H472 0.950 . S
C482 C483 1.386 . S
C482 C484 1.391 . S
C483 C482 1.386 . S
C483 C487 1.393 . S
C484 H473 0.950 . S
C484 C482 1.391 . S
C484 C485 1.400 . S
C485 C479 1.491 . S
C485 C484 1.400 . S
C485 C486 1.398 . S
C486 H474 0.950 . S
C486 C485 1.398 . S
C486 C487 1.391 . S
C487 H475 0.950 . S
C487 C483 1.393 . S
C487 C486 1.391 . S
H488 C496 0.950 . S
H489 C501 0.950 . S
H490 C498 0.950 . S
H491 C500 0.950 . S
H492 C502 0.950 . S
H493 C504 0.950 . S
H494 C506 0.950 . S
H495 C507 0.950 . S
C496 H488 0.950 . S
C496 C497 1.386 . S
C496 C498 1.391 . S
C497 C496 1.386 . S
C497 C501 1.393 . S
C498 H490 0.950 . S
C498 C496 1.391 . S
C498 C499 1.400 . S
C499 C498 1.400 . S
C499 C500 1.398 . S
C499 C505 1.491 . S
C500 H491 0.950 . S
C500 C499 1.398 . S
C500 C501 1.391 . S
C501 H489 0.950 . S
C501 C497 1.393 . S
C501 C500 1.391 . S
C502 H492 0.950 . S
C502 C503 1.386 . S
C502 C504 1.391 . S
C503 C502 1.386 . S
C503 C507 1.393 . S
C504 H493 0.950 . S
C504 C502 1.391 . S
C504 C505 1.400 . S
C505 C499 1.491 . S
C505 C504 1.400 . S
C505 C506 1.398 . S
C506 H494 0.950 . S
C506 C505 1.398 . S
C506 C507 1.391 . S
C507 H495 0.950 . S
C507 C503 1.393 . S
C507 C506 1.391 . S
H508 C516 0.950 . S
H509 C521 0.950 . S
H510 C518 0.950 . S
H511 C520 0.950 . S
H512 C522 0.950 . S
H513 C524 0.950 . S
H514 C526 0.950 . S
H515 C527 0.950 . S
C516 H508 0.950 . S
C516 C517 1.387 1_655 S
C516 C518 1.391 . S
C517 C516 1.387 1_455 S
C517 C521 1.392 . S
C518 H510 0.950 . S
C518 C516 1.391 . S
C518 C519 1.400 1_655 S
C519 C518 1.400 1_455 S
C519 C520 1.398 . S
C519 C525 1.491 . S
C520 H511 0.950 . S
C520 C519 1.398 . S
C520 C521 1.391 . S
C521 H509 0.950 . S
C521 C517 1.392 . S
C521 C520 1.391 . S
C522 H512 0.950 . S
C522 C523 1.386 . S
C522 C524 1.391 . S
C523 C522 1.386 . S
C523 C527 1.393 1_455 S
C524 H513 0.950 . S
C524 C522 1.391 . S
C524 C525 1.400 . S
C525 C519 1.491 . S
C525 C524 1.400 . S
C525 C526 1.398 1_455 S
C526 H514 0.950 . S
C526 C525 1.398 1_655 S
C526 C527 1.391 . S
C527 H515 0.950 . S
C527 C523 1.393 1_655 S
C527 C526 1.391 . S
H528 C536 0.950 . S
H529 C541 0.950 . S
H530 C538 0.950 . S
H531 C540 0.950 . S
H532 C542 0.950 . S
H533 C544 0.950 . S
H534 C546 0.950 . S
H535 C547 0.950 . S
C536 H528 0.950 . S
C536 C537 1.371 1_655 S
C536 C538 1.391 . S
C537 C536 1.371 1_455 S
C537 C541 1.405 . S
C538 H530 0.950 . S
C538 C536 1.391 . S
C538 C539 1.400 . S
C539 C538 1.400 . S
C539 C540 1.398 1_655 S
C539 C545 1.491 . S
C540 H531 0.950 . S
C540 C539 1.398 1_455 S
C540 C541 1.391 . S
C541 H529 0.950 . S
C541 C537 1.405 . S
C541 C540 1.391 . S
C542 H532 0.950 . S
C542 C543 1.386 1_455 S
C542 C544 1.391 . S
C543 C542 1.386 1_655 S
C543 C547 1.393 . S
C544 H533 0.950 . S
C544 C542 1.391 . S
C544 C545 1.400 1_455 S
C545 C539 1.491 . S
C545 C544 1.400 1_655 S
C545 C546 1.398 . S
C546 H534 0.950 . S
C546 C545 1.398 . S
C546 C547 1.391 . S
C547 H535 0.950 . S
C547 C543 1.393 . S
C547 C546 1.391 . S
H548 C556 0.950 . S
H549 C561 0.950 . S
H550 C558 0.950 . S
H551 C560 0.950 . S
H552 C562 0.950 . S
H553 C564 0.950 . S
H554 C566 0.950 . S
H555 C567 0.950 . S
C556 H548 0.950 . S
C556 C557 1.386 . S
C556 C558 1.391 . S
C557 C556 1.386 . S
C557 C561 1.393 . S
C558 H550 0.950 . S
C558 C556 1.391 . S
C558 C559 1.400 . S
C559 C558 1.400 . S
C559 C560 1.398 . S
C559 C565 1.491 . S
C560 H551 0.950 . S
C560 C559 1.398 . S
C560 C561 1.391 . S
C561 H549 0.950 . S
C561 C557 1.393 . S
C561 C560 1.391 . S
C562 H552 0.950 . S
C562 C563 1.386 . S
C562 C564 1.391 . S
C563 C562 1.386 . S
C563 C567 1.393 . S
C564 H553 0.950 . S
C564 C562 1.391 . S
C564 C565 1.400 . S
C565 C559 1.491 . S
C565 C564 1.400 . S
C565 C566 1.398 . S
C566 H554 0.950 . S
C566 C565 1.398 . S
C566 C567 1.391 . S
C567 H555 0.950 . S
C567 C563 1.393 . S
C567 C566 1.391 . S
H568 C576 0.950 . S
H569 C581 0.950 . S
H570 C578 0.950 . S
H571 C580 0.950 . S
H572 C582 0.950 . S
H573 C584 0.950 . S
H574 C586 0.950 . S
H575 C587 0.950 . S
C576 H568 0.950 . S
C576 C577 1.386 . S
C576 C578 1.391 . S
C577 C576 1.386 . S
C577 C581 1.393 . S
C578 H570 0.950 . S
C578 C576 1.391 . S
C578 C579 1.400 . S
C579 C578 1.400 . S
C579 C580 1.398 . S
C579 C585 1.491 . S
C580 H571 0.950 . S
C580 C579 1.398 . S
C580 C581 1.391 . S
C581 H569 0.950 . S
C581 C577 1.393 . S
C581 C580 1.391 . S
C582 H572 0.950 . S
C582 C583 1.386 . S
C582 C584 1.391 . S
C583 C582 1.386 . S
C583 C587 1.393 . S
C584 H573 0.950 . S
C584 C582 1.391 . S
C584 C585 1.400 . S
C585 C579 1.491 . S
C585 C584 1.400 . S
C585 C586 1.398 . S
C586 H574 0.950 . S
C586 C585 1.398 . S
C586 C587 1.391 . S
C587 H575 0.950 . S
C587 C583 1.393 . S
C587 C586 1.391 . S
H588 C596 0.950 . S
H589 C601 0.950 . S
H590 C598 0.950 . S
H591 C600 0.950 . S
H592 C602 0.950 . S
H593 C604 0.950 . S
H594 C606 0.950 . S
H595 C607 0.950 . S
C596 H588 0.950 . S
C596 C597 1.386 . S
C596 C598 1.391 . S
C597 C596 1.386 . S
C597 C601 1.393 . S
C598 H590 0.950 . S
C598 C596 1.391 . S
C598 C599 1.400 . S
C599 C598 1.400 . S
C599 C600 1.398 . S
C599 C605 1.491 . S
C600 H591 0.950 . S
C600 C599 1.398 . S
C600 C601 1.391 . S
C601 H589 0.950 . S
C601 C597 1.393 . S
C601 C600 1.391 . S
C602 H592 0.950 . S
C602 C603 1.386 . S
C602 C604 1.391 . S
C603 C602 1.386 . S
C603 C607 1.393 . S
C604 H593 0.950 . S
C604 C602 1.391 . S
C604 C605 1.400 . S
C605 C599 1.491 . S
C605 C604 1.400 . S
C605 C606 1.398 . S
C606 H594 0.950 . S
C606 C605 1.398 . S
C606 C607 1.391 . S
C607 H595 0.950 . S
C607 C603 1.393 . S
C607 C606 1.391 . S
H608 C616 0.950 . S
H609 C621 0.950 . S
H610 C618 0.950 . S
H611 C620 0.950 . S
H612 C622 0.950 . S
H613 C624 0.950 . S
H614 C626 0.950 . S
H615 C627 0.950 . S
C616 H608 0.950 . S
C616 C617 1.390 . S
C616 C618 1.391 . S
C617 C616 1.390 . S
C617 C621 1.388 1_655 S
C618 H610 0.950 . S
C618 C616 1.391 . S
C618 C619 1.400 1_655 S
C619 C618 1.400 1_455 S
C619 C620 1.398 . S
C619 C625 1.491 . S
C620 H611 0.950 . S
C620 C619 1.398 . S
C620 C621 1.391 . S
C621 H609 0.950 . S
C621 C617 1.388 1_455 S
C621 C620 1.391 . S
C622 H612 0.950 . S
C622 C623 1.386 . S
C622 C624 1.391 . S
C623 C622 1.386 . S
C623 C627 1.393 1_455 S
C624 H613 0.950 . S
C624 C622 1.391 . S
C624 C625 1.400 . S
C625 C619 1.491 . S
C625 C624 1.400 . S
C625 C626 1.398 1_455 S
C626 H614 0.950 . S
C626 C625 1.398 1_655 S
C626 C627 1.391 . S
C627 H615 0.950 . S
C627 C623 1.393 1_655 S
C627 C626 1.391 . S
H628 C636 0.950 . S
H629 C641 0.950 . S
H630 C638 0.950 . S
H631 C640 0.950 . S
H632 C642 0.950 . S
H633 C644 0.950 . S
H634 C646 0.950 . S
H635 C647 0.950 1_545 S
C636 H628 0.950 . S
C636 C637 1.386 . S
C636 C638 1.391 . S
C637 C636 1.386 . S
C637 C641 1.393 . S
C638 H630 0.950 . S
C638 C636 1.391 . S
C638 C639 1.400 . S
C639 C638 1.400 . S
C639 C640 1.398 . S
C639 C645 1.491 . S
C640 H631 0.950 . S
C640 C639 1.398 . S
C640 C641 1.391 . S
C641 H629 0.950 . S
C641 C637 1.393 . S
C641 C640 1.391 . S
C642 H632 0.950 . S
C642 C643 1.386 . S
C642 C644 1.391 . S
C643 C642 1.386 . S
C643 C647 1.393 . S
C644 H633 0.950 . S
C644 C642 1.391 . S
C644 C645 1.400 . S
C645 C639 1.491 . S
C645 C644 1.400 . S
C645 C646 1.398 . S
C646 H634 0.950 . S
C646 C645 1.398 . S
C646 C647 1.391 . S
C647 H635 0.950 1_565 S
C647 C643 1.393 . S
C647 C646 1.391 . S
H648 C656 0.950 . S
H649 C661 0.950 . S
H650 C658 0.950 . S
H651 C660 0.950 . S
H652 C662 0.950 . S
H653 C664 0.950 . S
H654 C666 0.950 . S
H655 C667 0.950 . S
C656 H648 0.950 . S
C656 C657 1.386 . S
C656 C658 1.391 . S
C657 C656 1.386 . S
C657 C661 1.393 . S
C658 H650 0.950 . S
C658 C656 1.391 . S
C658 C659 1.400 . S
C659 C658 1.400 . S
C659 C660 1.398 . S
C659 C665 1.491 . S
C660 H651 0.950 . S
C660 C659 1.398 . S
C660 C661 1.391 . S
C661 H649 0.950 . S
C661 C657 1.393 . S
C661 C660 1.391 . S
C662 H652 0.950 . S
C662 C663 1.386 . S
C662 C664 1.391 . S
C663 C662 1.386 . S
C663 C667 1.393 . S
C664 H653 0.950 . S
C664 C662 1.391 . S
C664 C665 1.400 . S
C665 C659 1.491 . S
C665 C664 1.400 . S
C665 C666 1.398 . S
C666 H654 0.950 . S
C666 C665 1.398 . S
C666 C667 1.391 . S
C667 H655 0.950 . S
C667 C663 1.393 . S
C667 C666 1.391 . S
H668 C676 0.950 . S
H669 C681 0.950 . S
H670 C678 0.950 . S
H671 C680 0.950 . S
H672 C682 0.950 . S
H673 C684 0.950 . S
H674 C686 0.950 . S
H675 C687 0.950 . S
C676 H668 0.950 . S
C676 C677 1.386 . S
C676 C678 1.391 . S
C677 C676 1.386 . S
C677 C681 1.393 . S
C678 H670 0.950 . S
C678 C676 1.391 . S
C678 C679 1.400 . S
C679 C678 1.400 . S
C679 C680 1.398 . S
C679 C685 1.491 . S
C680 H671 0.950 . S
C680 C679 1.398 . S
C680 C681 1.391 . S
C681 H669 0.950 . S
C681 C677 1.393 . S
C681 C680 1.391 . S
C682 H672 0.950 . S
C682 C683 1.386 . S
C682 C684 1.391 . S
C683 C682 1.386 . S
C683 C687 1.393 . S
C684 H673 0.950 . S
C684 C682 1.391 . S
C684 C685 1.400 . S
C685 C679 1.491 . S
C685 C684 1.400 . S
C685 C686 1.398 . S
C686 H674 0.950 . S
C686 C685 1.398 . S
C686 C687 1.391 . S
C687 H675 0.950 . S
C687 C683 1.393 . S
C687 C686 1.391 . S
H688 C696 0.950 . S
H689 C701 0.950 . S
H690 C698 0.950 . S
H691 C700 0.950 . S
H692 C702 0.950 . S
H693 C704 0.950 . S
H694 C706 0.950 . S
H695 C707 0.950 . S
C696 H688 0.950 . S
C696 C697 1.386 1_655 S
C696 C698 1.391 . S
C697 C696 1.386 1_455 S
C697 C701 1.393 . S
C698 H690 0.950 . S
C698 C696 1.391 . S
C698 C699 1.400 1_655 S
C699 C698 1.400 1_455 S
C699 C700 1.398 . S
C699 C705 1.491 . S
C700 H691 0.950 . S
C700 C699 1.398 . S
C700 C701 1.391 . S
C701 H689 0.950 . S
C701 C697 1.393 . S
C701 C700 1.391 . S
C702 H692 0.950 . S
C702 C703 1.386 . S
C702 C704 1.391 . S
C703 C702 1.386 . S
C703 C707 1.393 1_455 S
C704 H693 0.950 . S
C704 C702 1.391 . S
C704 C705 1.400 . S
C705 C699 1.491 . S
C705 C704 1.400 . S
C705 C706 1.398 1_455 S
C706 H694 0.950 . S
C706 C705 1.398 1_655 S
C706 C707 1.391 . S
C707 H695 0.950 . S
C707 C703 1.393 1_655 S
C707 C706 1.391 . S
H708 C716 0.950 . S
H709 C721 0.950 . S
H710 C718 0.950 . S
H711 C720 0.950 . S
H712 C722 0.950 . S
H713 C724 0.950 . S
H714 C726 0.950 . S
H715 C727 0.950 . S
C716 H708 0.950 . S
C716 C717 1.386 . S
C716 C718 1.391 . S
C717 C716 1.386 . S
C717 C721 1.393 . S
C718 H710 0.950 . S
C718 C716 1.391 . S
C718 C719 1.400 . S
C719 C718 1.400 . S
C719 C720 1.398 . S
C719 C725 1.491 . S
C720 H711 0.950 . S
C720 C719 1.398 . S
C720 C721 1.391 . S
C721 H709 0.950 . S
C721 C717 1.393 . S
C721 C720 1.391 . S
C722 H712 0.950 . S
C722 C723 1.386 . S
C722 C724 1.391 . S
C723 C722 1.386 . S
C723 C727 1.393 . S
C724 H713 0.950 . S
C724 C722 1.391 . S
C724 C725 1.400 . S
C725 C719 1.491 . S
C725 C724 1.400 . S
C725 C726 1.398 . S
C726 H714 0.950 . S
C726 C725 1.398 . S
C726 C727 1.391 . S
C727 H715 0.950 . S
C727 C723 1.393 . S
C727 C726 1.391 . S
H728 C736 0.950 . S
H729 C741 0.950 . S
H730 C738 0.950 . S
H731 C740 0.950 . S
H732 C742 0.950 . S
H733 C744 0.950 . S
H734 C746 0.950 . S
H735 C747 0.950 . S
C736 H728 0.950 . S
C736 C737 1.386 . S
C736 C738 1.391 . S
C737 C736 1.386 . S
C737 C741 1.393 . S
C738 H730 0.950 . S
C738 C736 1.391 . S
C738 C739 1.400 . S
C739 C738 1.400 . S
C739 C740 1.398 . S
C739 C745 1.491 . S
C740 H731 0.950 . S
C740 C739 1.398 . S
C740 C741 1.391 . S
C741 H729 0.950 . S
C741 C737 1.393 . S
C741 C740 1.391 . S
C742 H732 0.950 . S
C742 C743 1.386 . S
C742 C744 1.391 . S
C743 C742 1.386 . S
C743 C747 1.393 . S
C744 H733 0.950 . S
C744 C742 1.391 . S
C744 C745 1.400 . S
C745 C739 1.491 . S
C745 C744 1.400 . S
C745 C746 1.398 . S
C746 H734 0.950 . S
C746 C745 1.398 . S
C746 C747 1.391 . S
C747 H735 0.950 . S
C747 C743 1.393 . S
C747 C746 1.391 . S
H748 C756 0.950 . S
H749 C761 0.950 . S
H750 C758 0.950 . S
H751 C760 0.950 . S
H752 C762 0.950 . S
H753 C764 0.950 . S
H754 C766 0.950 . S
H755 C767 0.950 . S
C756 H748 0.950 . S
C756 C757 1.386 . S
C756 C758 1.391 . S
C757 C756 1.386 . S
C757 C761 1.393 . S
C758 H750 0.950 . S
C758 C756 1.391 . S
C758 C759 1.400 . S
C759 C758 1.400 . S
C759 C760 1.398 . S
C759 C765 1.491 . S
C760 H751 0.950 . S
C760 C759 1.398 . S
C760 C761 1.391 . S
C761 H749 0.950 . S
C761 C757 1.393 . S
C761 C760 1.391 . S
C762 H752 0.950 . S
C762 C763 1.386 . S
C762 C764 1.391 . S
C763 C762 1.386 . S
C763 C767 1.393 . S
C764 H753 0.950 . S
C764 C762 1.391 . S
C764 C765 1.400 . S
C765 C759 1.491 . S
C765 C764 1.400 . S
C765 C766 1.398 . S
C766 H754 0.950 . S
C766 C765 1.398 . S
C766 C767 1.391 . S
C767 H755 0.950 . S
C767 C763 1.393 . S
C767 C766 1.391 . S
H768 C776 0.950 . S
H769 C781 0.950 . S
H770 C778 0.950 . S
H771 C780 0.950 . S
H772 C782 0.950 . S
H773 C784 0.950 . S
H774 C786 0.950 . S
H775 C787 0.950 . S
C776 H768 0.950 . S
C776 C777 1.347 1_455 S
C776 C778 1.391 . S
C777 C776 1.347 1_655 S
C777 C781 1.435 . S
C778 H770 0.950 . S
C778 C776 1.391 . S
C778 C779 1.400 1_455 S
C779 C778 1.400 1_655 S
C779 C780 1.398 . S
C779 C785 1.491 . S
C780 H771 0.950 . S
C780 C779 1.398 . S
C780 C781 1.391 . S
C781 H769 0.950 . S
C781 C777 1.435 . S
C781 C780 1.391 . S
C782 H772 0.950 . S
C782 C783 1.386 . S
C782 C784 1.391 . S
C783 C782 1.386 . S
C783 C787 1.393 1_655 S
C784 H773 0.950 . S
C784 C782 1.391 . S
C784 C785 1.400 . S
C785 C779 1.491 . S
C785 C784 1.400 . S
C785 C786 1.398 1_655 S
C786 H774 0.950 . S
C786 C785 1.398 1_455 S
C786 C787 1.391 . S
C787 H775 0.950 . S
C787 C783 1.393 1_455 S
C787 C786 1.391 . S
H788 C796 0.950 . S
H789 C801 0.950 . S
H790 C798 0.950 . S
H791 C800 0.950 . S
H792 C802 0.950 . S
H793 C804 0.950 . S
H794 C806 0.950 . S
H795 C807 0.950 . S
C796 H788 0.950 . S
C796 C797 1.386 . S
C796 C798 1.391 . S
C797 C796 1.386 . S
C797 C801 1.393 . S
C798 H790 0.950 . S
C798 C796 1.391 . S
C798 C799 1.400 . S
C799 C798 1.400 . S
C799 C800 1.398 . S
C799 C805 1.491 . S
C800 H791 0.950 . S
C800 C799 1.398 . S
C800 C801 1.391 . S
C801 H789 0.950 . S
C801 C797 1.393 . S
C801 C800 1.391 . S
C802 H792 0.950 . S
C802 C803 1.386 . S
C802 C804 1.391 . S
C803 C802 1.386 . S
C803 C807 1.393 . S
C804 H793 0.950 . S
C804 C802 1.391 . S
C804 C805 1.400 . S
C805 C799 1.491 . S
C805 C804 1.400 . S
C805 C806 1.398 . S
C806 H794 0.950 . S
C806 C805 1.398 . S
C806 C807 1.391 . S
C807 H795 0.950 . S
C807 C803 1.393 . S
C807 C806 1.391 . S
H808 C816 0.950 . S
H809 C821 0.950 . S
H810 C818 0.950 . S
H811 C820 0.950 . S
H812 C822 0.950 . S
H813 C824 0.950 . S
H814 C826 0.950 . S
H815 C827 0.950 . S
C816 H808 0.950 . S
C816 C817 1.386 . S
C816 C818 1.391 . S
C817 C816 1.386 . S
C817 C821 1.393 . S
C818 H810 0.950 . S
C818 C816 1.391 . S
C818 C819 1.400 . S
C819 C818 1.400 . S
C819 C820 1.398 . S
C819 C825 1.491 . S
C820 H811 0.950 . S
C820 C819 1.398 . S
C820 C821 1.391 . S
C821 H809 0.950 . S
C821 C817 1.393 . S
C821 C820 1.391 . S
C822 H812 0.950 . S
C822 C823 1.386 . S
C822 C824 1.391 . S
C823 C822 1.386 . S
C823 C827 1.393 . S
C824 H813 0.950 . S
C824 C822 1.391 . S
C824 C825 1.400 . S
C825 C819 1.491 . S
C825 C824 1.400 . S
C825 C826 1.398 . S
C826 H814 0.950 . S
C826 C825 1.398 . S
C826 C827 1.391 . S
C827 H815 0.950 . S
C827 C823 1.393 . S
C827 C826 1.391 . S
H828 C836 0.950 . S
H829 C841 0.950 . S
H830 C838 0.950 . S
H831 C840 0.950 . S
H832 C842 0.950 . S
H833 C844 0.950 . S
H834 C846 0.950 . S
H835 C847 0.950 . S
C836 H828 0.950 . S
C836 C837 1.386 . S
C836 C838 1.391 . S
C837 C836 1.386 . S
C837 C841 1.393 . S
C838 H830 0.950 . S
C838 C836 1.391 . S
C838 C839 1.400 . S
C839 C838 1.400 . S
C839 C840 1.398 . S
C839 C845 1.491 . S
C840 H831 0.950 . S
C840 C839 1.398 . S
C840 C841 1.391 . S
C841 H829 0.950 . S
C841 C837 1.393 . S
C841 C840 1.391 . S
C842 H832 0.950 . S
C842 C843 1.386 . S
C842 C844 1.391 . S
C843 C842 1.386 . S
C843 C847 1.393 . S
C844 H833 0.950 . S
C844 C842 1.391 . S
C844 C845 1.400 . S
C845 C839 1.491 . S
C845 C844 1.400 . S
C845 C846 1.398 . S
C846 H834 0.950 . S
C846 C845 1.398 . S
C846 C847 1.391 . S
C847 H835 0.950 . S
C847 C843 1.393 . S
C847 C846 1.391 . S
C377 C241 1.806 . S
C383 C306 1.842 . S
C403 C326 1.569 . S
C397 C277 1.611 . S
C423 C346 1.822 . S
C417 C169 1.777 . S
C443 C366 1.551 . S
C437 C205 1.541 1_655 S
C463 C307 1.869 1_565 S
C457 C97 1.775 . S
C477 C133 1.569 . S
C483 C327 1.553 . S
C497 C25 1.739 . S
C503 C347 1.822 . S
C517 C61 1.509 . S
C523 C367 1.523 . S
C543 C297 0.595 . S
C537 C211 0.561 . S
C563 C317 0.773 . S
C557 C247 0.798 . S
C583 C337 0.682 . S
C577 C253 0.652 . S
C597 C175 0.776 . S
C603 C357 0.771 . S
C617 C67 0.562 1_655 S
C623 C300 0.583 . S
C643 C320 0.784 . S
C637 C103 0.790 . S
C663 C340 0.644 . S
C657 C109 0.654 . S
C677 C31 0.748 . S
C683 C360 0.744 . S
C697 C181 2.060 . S
C703 C290 2.013 . S
C717 C217 2.109 . S
C723 C310 2.057 . S
C743 C330 1.932 . S
C737 C283 1.943 . S
C763 C350 2.150 . S
C757 C145 2.199 . S
C777 C37 2.034 1_655 S
C783 C292 1.990 . S
C803 C312 2.033 . S
C797 C73 2.068 . S
C823 C332 1.903 . S
C817 C139 1.891 . S
C837 C1 2.172 . S
C843 C352 2.146 . S
