# Generated by pormake.
# Topology pyr, (3,6)-cn, num edge types: 1
# Building blocks:
#     Node 0, Type 0, BuildingBlock: BETDIP_clean_linker_0, # of connection points: 3
#     Node 1, Type 0, BuildingBlock: BETDIP_clean_linker_0, # of connection points: 3
#     Node 2, Type 0, BuildingBlock: BETDIP_clean_linker_0, # of connection points: 3
#     Node 3, Type 0, BuildingBlock: BETDIP_clean_linker_0, # of connection points: 3
#     Node 4, Type 0, BuildingBlock: BETDIP_clean_linker_0, # of connection points: 3
#     Node 5, Type 0, BuildingBlock: BETDIP_clean_linker_0, # of connection points: 3
#     Node 6, Type 0, BuildingBlock: BETDIP_clean_linker_0, # of connection points: 3
#     Node 7, Type 0, BuildingBlock: BETDIP_clean_linker_0, # of connection points: 3
#     Node 8, Type 1, BuildingBlock: GEDQOX_clean_sbu_0, # of connection points: 6
#     Node 9, Type 1, BuildingBlock: GEDQOX_clean_sbu_0, # of connection points: 6
#     Node 10, Type 1, BuildingBlock: GEDQOX_clean_sbu_0, # of connection points: 6
#     Node 11, Type 1, BuildingBlock: GEDQOX_clean_sbu_0, # of connection points: 6
#     Edge 12, Type (0, 1), BuildingBlock: TEMPAE_clean_linker_10, # of connection points: 2
#     Edge 13, Type (0, 1), BuildingBlock: TEMPAE_clean_linker_10, # of connection points: 2
#     Edge 14, Type (0, 1), BuildingBlock: TEMPAE_clean_linker_10, # of connection points: 2
#     Edge 15, Type (0, 1), BuildingBlock: TEMPAE_clean_linker_10, # of connection points: 2
#     Edge 16, Type (0, 1), BuildingBlock: TEMPAE_clean_linker_10, # of connection points: 2
#     Edge 17, Type (0, 1), BuildingBlock: TEMPAE_clean_linker_10, # of connection points: 2
#     Edge 18, Type (0, 1), BuildingBlock: TEMPAE_clean_linker_10, # of connection points: 2
#     Edge 19, Type (0, 1), BuildingBlock: TEMPAE_clean_linker_10, # of connection points: 2
#     Edge 20, Type (0, 1), BuildingBlock: TEMPAE_clean_linker_10, # of connection points: 2
#     Edge 21, Type (0, 1), BuildingBlock: TEMPAE_clean_linker_10, # of connection points: 2
#     Edge 22, Type (0, 1), BuildingBlock: TEMPAE_clean_linker_10, # of connection points: 2
#     Edge 23, Type (0, 1), BuildingBlock: TEMPAE_clean_linker_10, # of connection points: 2
#     Edge 24, Type (0, 1), BuildingBlock: TEMPAE_clean_linker_10, # of connection points: 2
#     Edge 25, Type (0, 1), BuildingBlock: TEMPAE_clean_linker_10, # of connection points: 2
#     Edge 26, Type (0, 1), BuildingBlock: TEMPAE_clean_linker_10, # of connection points: 2
#     Edge 27, Type (0, 1), BuildingBlock: TEMPAE_clean_linker_10, # of connection points: 2
#     Edge 28, Type (0, 1), BuildingBlock: TEMPAE_clean_linker_10, # of connection points: 2
#     Edge 29, Type (0, 1), BuildingBlock: TEMPAE_clean_linker_10, # of connection points: 2
#     Edge 30, Type (0, 1), BuildingBlock: TEMPAE_clean_linker_10, # of connection points: 2
#     Edge 31, Type (0, 1), BuildingBlock: TEMPAE_clean_linker_10, # of connection points: 2
#     Edge 32, Type (0, 1), BuildingBlock: TEMPAE_clean_linker_10, # of connection points: 2
#     Edge 33, Type (0, 1), BuildingBlock: TEMPAE_clean_linker_10, # of connection points: 2
#     Edge 34, Type (0, 1), BuildingBlock: TEMPAE_clean_linker_10, # of connection points: 2
#     Edge 35, Type (0, 1), BuildingBlock: TEMPAE_clean_linker_10, # of connection points: 2
# Relax obj value: 0.223
# Max RMSD: 0.190
# Mean RMSD: 0.162
data_MOF--net-pyr--node1-GEDQOX_clean_sbu_0--node2-BETDIP_clean_linker_0--edge1-TEMPAE_clean_linker_10
_symmetry_space_group_name_H-M    P1
_symmetry_Int_Tables_number       1
_symmetry_cell_setting            triclinic
loop_
_symmetry_equiv_pos_as_xyz
'x, y, z'
_cell_length_a     39.88243
_cell_length_b     39.093829
_cell_length_c     37.054467
_cell_angle_alpha  92.058541
_cell_angle_beta   88.531013
_cell_angle_gamma 94.301862
loop_
_atom_site_label
_atom_site_type_symbol
_atom_site_fract_x
_atom_site_fract_y
_atom_site_fract_z
_atom_type_partial_charge
H0 H 0.17202 0.19758 0.21964 0.0
H1 H 0.2512 0.19558 0.13844 0.0
H2 H 0.24639 0.1225 0.224 0.0
H3 H 0.16543 0.25352 0.1986 0.0
C4 C 0.17348 0.25471 0.17044 0.0
C5 C 0.19428 0.18643 0.20871 0.0
C6 C 0.2065 0.15777 0.22656 0.0
C7 C 0.21026 0.20089 0.177 0.0
C8 C 0.23967 0.18527 0.16286 0.0
C9 C 0.25417 0.15681 0.17886 0.0
C10 C 0.23662 0.14385 0.21097 0.0
N11 N 0.19735 0.22977 0.15781 0.0
H12 H 0.3547 0.82434 0.80222 0.0
H13 H 0.36764 0.75016 0.71628 0.0
H14 H 0.45221 0.78554 0.78026 0.0
H15 H 0.31094 0.74386 0.7189 0.0
C16 C 0.30424 0.76991 0.7249 0.0
C17 C 0.3712 0.80824 0.78682 0.0
C18 C 0.40558 0.80854 0.79495 0.0
C19 C 0.35737 0.78766 0.75859 0.0
C20 C 0.37782 0.76593 0.73857 0.0
C21 C 0.41181 0.76449 0.7469 0.0
C22 C 0.42565 0.78585 0.77503 0.0
N23 N 0.3235 0.7916 0.74944 0.0
H24 H 0.81029 0.46672 0.80067 0.0
H25 H 0.72939 0.38854 0.78861 0.0
H26 H 0.79741 0.38565 0.87657 0.0
H27 H 0.75494 0.40331 0.72183 0.0
C28 C 0.74511 0.42778 0.72959 0.0
C29 C 0.79673 0.44349 0.80997 0.0
C30 C 0.80725 0.42767 0.84076 0.0
C31 C 0.76894 0.42918 0.79088 0.0
C32 C 0.75145 0.39905 0.80284 0.0
C33 C 0.76125 0.38341 0.83401 0.0
C34 C 0.78915 0.39797 0.85293 0.0
N35 N 0.75762 0.44614 0.76078 0.0
H36 H 0.79285 0.80081 0.2525 0.0
H37 H 0.87396 0.87935 0.25874 0.0
H38 H 0.83149 0.83473 0.35592 0.0
H39 H 0.8887 0.84255 0.20479 0.0
C40 C 0.86483 0.83128 0.19479 0.0
C41 C 0.80958 0.81784 0.26874 0.0
C42 C 0.80971 0.81482 0.30627 0.0
C43 C 0.83287 0.84073 0.2516 0.0
C44 C 0.85571 0.86194 0.2722 0.0
C45 C 0.85533 0.86003 0.31006 0.0
C46 C 0.83219 0.83637 0.32675 0.0
N47 N 0.83485 0.83946 0.21341 0.0
H48 H 0.82447 0.86655 0.9183 0.0
H49 H 0.90331 0.86409 0.83678 0.0
H50 H 0.82906 0.9393 0.8324 0.0
H51 H 0.90703 0.80632 0.85669 0.0
C52 C 0.90099 0.80642 0.88542 0.0
C53 C 0.83589 0.87673 0.89378 0.0
C54 C 0.82134 0.90515 0.8777 0.0
C55 C 0.86522 0.861 0.87952 0.0
C56 C 0.88108 0.87531 0.84772 0.0
C57 C 0.8689 0.90397 0.82987 0.0
C58 C 0.83882 0.91798 0.84549 0.0
N59 N 0.87839 0.83231 0.8988 0.0
H60 H 0.69334 0.22415 0.2764 0.0
H61 H 0.67848 0.29526 0.36497 0.0
H62 H 0.60141 0.27581 0.28617 0.0
H63 H 0.73584 0.3009 0.36268 0.0
C64 C 0.74199 0.27457 0.35738 0.0
C65 C 0.67786 0.24245 0.29012 0.0
C66 C 0.64607 0.24805 0.27686 0.0
C67 C 0.69002 0.25981 0.32122 0.0
C68 C 0.66971 0.2824 0.34025 0.0
C69 C 0.6377 0.28828 0.3279 0.0
C70 C 0.62602 0.27126 0.29591 0.0
N71 N 0.72213 0.25271 0.33353 0.0
H72 H 0.27096 0.58809 0.24403 0.0
H73 H 0.35884 0.65879 0.24544 0.0
H74 H 0.28085 0.67075 0.16986 0.0
H75 H 0.38021 0.60022 0.25049 0.0
C76 C 0.3653 0.59715 0.27532 0.0
C77 C 0.28507 0.61052 0.23359 0.0
C78 C 0.27247 0.62805 0.20501 0.0
C79 C 0.3167 0.62095 0.24749 0.0
C80 C 0.33471 0.65025 0.23416 0.0
C81 C 0.32186 0.66861 0.20645 0.0
C82 C 0.29097 0.65692 0.19146 0.0
N83 N 0.33035 0.60198 0.27484 0.0
H84 H 0.18569 0.16742 0.80801 0.0
H85 H 0.25746 0.25208 0.83337 0.0
H86 H 0.22953 0.23058 0.72361 0.0
H87 H 0.23852 0.20562 0.91458 0.0
C88 C 0.22947 0.21958 0.89243 0.0
C89 C 0.20238 0.18883 0.79924 0.0
C90 C 0.20545 0.19622 0.76238 0.0
C91 C 0.22047 0.20908 0.82518 0.0
C92 C 0.24228 0.23687 0.81404 0.0
C93 C 0.24488 0.24503 0.77756 0.0
C94 C 0.2268 0.22447 0.75189 0.0
N95 N 0.217 0.19985 0.86194 0.0
Nd96 Nd 0.05566 0.99984 0.52282 0.0
Nd97 Nd 1.01985 0.06115 0.53347 0.0
C98 C 0.07682 0.93743 0.51385 0.0
C99 C 0.09192 0.91288 0.53638 0.0
C100 C 0.09108 0.91691 0.57417 0.0
C101 C 0.10991 0.89663 0.59509 0.0
C102 C 0.1301 0.87231 0.57845 0.0
C103 C 0.12973 0.86749 0.54066 0.0
C104 C 0.11078 0.88764 0.51982 0.0
C105 C 0.08838 0.04848 0.56776 0.0
C106 C 1.00067 1.00236 0.5948 0.0
C107 C 0.99835 0.12337 0.54306 0.0
C108 C 0.98063 0.14681 0.52165 0.0
C109 C 0.97681 0.14067 0.48439 0.0
C110 C 0.9548 0.15926 0.46545 0.0
C111 C 0.93607 0.18394 0.48362 0.0
C112 C 0.94124 0.19107 0.52061 0.0
C113 C 0.96336 0.17261 0.53946 0.0
C114 C 0.98679 1.0126 0.4889 0.0
C115 C 0.07506 0.05869 0.46165 0.0
O116 O 0.04532 0.94313 0.52065 0.0
O117 O 0.09573 0.96549 0.50812 0.0
O118 O 0.10371 0.03009 0.54377 0.0
O119 O 0.05745 0.03999 0.56841 0.0
O120 O 1.01634 0.98238 0.57062 0.0
O121 O 1.0025 0.03586 0.58887 0.0
O122 O 0.02932 0.11797 0.53324 0.0
O123 O 0.98055 0.09525 0.55124 0.0
O124 O 0.97173 0.03132 0.51277 0.0
O125 O 1.01781 0.02087 0.48789 0.0
O126 O 0.0594 0.07864 0.48588 0.0
O127 O 0.07326 0.02516 0.46751 0.0
H128 H 0.07696 0.93663 0.58735 0.0
H129 H 0.10997 0.90114 0.6241 0.0
H130 H 0.14477 0.84871 0.52717 0.0
H131 H 0.11187 0.88439 0.49066 0.0
H132 H 0.98963 0.12044 0.47036 0.0
H133 H 0.95108 0.15302 0.43704 0.0
H134 H 0.92739 0.21019 0.53519 0.0
H135 H 0.96582 0.17743 0.56829 0.0
Nd136 Nd 0.53701 1.01294 0.05296 0.0
Nd137 Nd 0.53855 0.05007 1.0027 0.0
C138 C 0.53607 0.95982 0.09582 0.0
C139 C 0.51234 0.93077 0.10615 0.0
C140 C 0.51684 0.89777 0.09147 0.0
C141 C 0.49477 0.86994 0.1008 0.0
C142 C 0.46788 0.87442 0.12534 0.0
C143 C 0.46341 0.90744 0.14014 0.0
C144 C 0.48543 0.93536 0.13066 0.0
C145 C 0.48045 0.05385 0.06724 0.0
C146 C 0.49708 0.98339 0.98252 0.0
C147 C 0.54065 0.10287 0.95919 0.0
C148 C 0.56506 0.12988 0.94572 0.0
C149 C 0.55904 0.16434 0.95309 0.0
C150 C 0.5816 0.19061 0.94083 0.0
C151 C 0.61056 0.18299 0.9206 0.0
C152 C 0.61662 0.1484 0.91326 0.0
C153 C 0.59411 0.12205 0.92577 0.0
C154 C 0.59511 1.00888 0.98892 0.0
C155 C 0.57572 0.08083 0.07413 0.0
O156 O 0.54742 0.9592 0.06257 0.0
O157 O 0.52943 0.99056 0.10714 0.0
O158 O 0.50425 0.04871 0.0891 0.0
O159 O 0.48843 0.03947 0.03651 0.0
O160 O 0.51449 0.97444 1.00958 0.0
O161 O 0.49721 1.01588 0.97609 0.0
O162 O 0.53271 0.10503 0.99341 0.0
O163 O 0.54386 0.07136 0.94785 0.0
O164 O 0.5712 1.01362 0.96712 0.0
O165 O 0.58714 0.02385 1.01929 0.0
O166 O 0.55725 0.08889 0.04754 0.0
O167 O 0.57802 0.04831 0.07915 0.0
H168 H 0.53745 0.89344 0.07265 0.0
H169 H 0.49867 0.84492 0.08858 0.0
H170 H 0.44321 0.91163 0.15952 0.0
H171 H 0.4814 0.96043 0.14267 0.0
H172 H 0.53685 0.17096 0.96851 0.0
H173 H 0.57646 0.21693 0.94752 0.0
H174 H 0.63852 0.14167 0.89743 0.0
H175 H 0.59942 0.09566 0.91971 0.0
Nd176 Nd 0.49332 0.50284 0.54784 0.0
Nd177 Nd 0.55759 0.54597 0.53335 0.0
C178 C 0.431 0.47682 0.55891 0.0
C179 C 0.41156 0.46251 0.58982 0.0
C180 C 0.37783 0.46951 0.59521 0.0
C181 C 0.35861 0.45438 0.62329 0.0
C182 C 0.3728 0.43173 0.64627 0.0
C183 C 0.40702 0.42582 0.64145 0.0
C184 C 0.42625 0.44123 0.61369 0.0
C185 C 0.54558 0.48778 0.59027 0.0
C186 C 0.5065 0.577 0.59094 0.0
C187 C 0.62003 0.57283 0.52432 0.0
C188 C 0.63946 0.59345 0.49776 0.0
C189 C 0.66651 0.61554 0.50953 0.0
C190 C 0.68336 0.63803 0.48567 0.0
C191 C 0.67343 0.63867 0.44961 0.0
C192 C 0.64691 0.61575 0.43755 0.0
C193 C 0.62983 0.5934 0.46158 0.0
C194 C 0.50532 0.56048 0.49017 0.0
C195 C 0.54448 0.4719 0.49069 0.0
O196 O 0.43944 0.50978 0.56076 0.0
O197 O 0.45524 0.45888 0.546 0.0
O198 O 0.52214 0.46514 0.57994 0.0
O199 O 0.53893 0.51719 0.58169 0.0
O200 O 0.48374 0.55526 0.57563 0.0
O201 O 0.53877 0.57432 0.58402 0.0
O202 O 0.61037 0.54124 0.51459 0.0
O203 O 0.59662 0.58851 0.54196 0.0
O204 O 0.52829 0.58332 0.50129 0.0
O205 O 0.51231 0.53123 0.49897 0.0
O206 O 0.5672 0.49268 0.50746 0.0
O207 O 0.51215 0.47544 0.49653 0.0
H208 H 0.36619 0.48622 0.57731 0.0
H209 H 0.3325 0.45995 0.62659 0.0
H210 H 0.41874 0.40818 0.65819 0.0
H211 H 0.4524 0.43575 0.61033 0.0
H212 H 0.6741 0.61596 0.53743 0.0
H213 H 0.704 0.65517 0.49549 0.0
H214 H 0.63871 0.61592 0.40991 0.0
H215 H 0.60869 0.57671 0.45219 0.0
Nd216 Nd 1.00627 0.51905 0.04508 0.0
Nd217 Nd 0.06967 0.54119 1.00698 0.0
C218 C 0.94253 0.50825 0.06494 0.0
C219 C 0.91796 0.53361 0.07575 0.0
C220 C 0.90089 0.55047 0.04965 0.0
C221 C 0.88399 0.57967 0.05932 0.0
C222 C 0.88403 0.59279 0.09523 0.0
C223 C 0.89883 0.57416 0.12164 0.0
C224 C 0.91523 0.54478 0.11208 0.0
C225 C 0.05253 0.55469 0.08824 0.0
C226 C 1.01023 0.59524 1.00073 0.0
C227 C 0.13307 0.5517 0.98559 0.0
C228 C 0.15816 0.52616 0.97832 0.0
C229 C 0.16558 0.50343 1.00508 0.0
C230 C 0.18089 0.47331 0.99566 0.0
C231 C 0.18923 0.46542 0.95938 0.0
C232 C 0.18502 0.48982 0.93325 0.0
C233 C 0.1696 0.51996 0.94267 0.0
C234 C 1.02265 0.50589 0.96432 0.0
C235 C 0.06596 0.46549 0.05204 0.0
O236 O 0.95265 0.50767 0.03103 0.0
O237 O 0.96732 0.5062 0.087 0.0
O238 O 0.03352 0.52836 0.09853 0.0
O239 O 0.0455 0.56262 0.05679 0.0
O240 O 0.99131 0.56943 1.01559 0.0
O241 O 0.04343 0.59264 0.9982 0.0
O242 O 0.12309 0.55648 1.01925 0.0
O243 O 0.10807 0.5495 0.96333 0.0
O244 O 0.04088 0.53285 0.95433 0.0
O245 O 0.03045 0.4976 0.99539 0.0
O246 O 0.08489 0.49168 0.0379 0.0
O247 O 0.03267 0.46758 0.05347 0.0
H248 H 0.90203 0.54224 1.02144 0.0
H249 H 0.87208 0.59271 0.03837 0.0
H250 H 0.89981 0.58336 0.14952 0.0
H251 H 0.92774 0.53219 0.13296 0.0
H252 H 0.1575 0.50763 0.0329 0.0
H253 H 0.1845 0.45524 1.01647 0.0
H254 H 0.19123 0.48444 0.90509 0.0
H255 H 0.16425 0.5371 0.92156 0.0
C256 C 0.15183 0.14156 0.26589 0.0
C257 C 0.18743 0.14265 0.26125 0.0
C258 C 0.13387 0.12816 0.29734 0.0
C259 C 0.15091 0.11548 0.3271 0.0
C260 C 0.18683 0.1167 0.32279 0.0
C261 C 0.20415 0.12952 0.29062 0.0
C262 C 0.09603 0.12728 0.29844 0.0
C263 C 0.20741 0.10472 0.35277 0.0
C264 C 0.10388 0.10903 0.42343 0.0
C265 C 0.09433 0.07358 0.42723 0.0
C266 C 0.12219 0.12257 0.39217 0.0
C267 C 0.13142 0.10097 0.36195 0.0
C268 C 0.12141 0.06525 0.36548 0.0
C269 C 0.10385 0.0523 0.39737 0.0
C270 C 0.13204 0.16051 0.39175 0.0
C271 C 0.129 0.04025 0.33501 0.0
H272 H 0.13748 0.15074 0.24429 0.0
H273 H 0.23133 0.12991 0.28898 0.0
H274 H 0.08524 0.10069 0.30272 0.0
H275 H 0.08744 0.1435 0.32153 0.0
H276 H 0.08584 0.13651 0.27322 0.0
H277 H 0.23486 0.10837 0.34686 0.0
H278 H 0.2016 0.11896 0.37835 0.0
H279 H 0.20071 0.07711 0.35719 0.0
H280 H 0.09744 0.12654 0.4454 0.0
H281 H 0.09712 0.025 0.39862 0.0
H282 H 0.11965 0.17204 0.36916 0.0
H283 H 0.15961 0.16487 0.38706 0.0
H284 H 0.125 0.17404 0.41738 0.0
H285 H 0.11838 0.04845 0.30959 0.0
H286 H 0.11861 1.01371 0.34037 0.0
H287 H 0.1566 0.04005 0.33061 0.0
C288 C 0.44725 0.82564 0.84424 0.0
C289 C 0.4201 0.83342 0.82328 0.0
C290 C 0.46077 0.84916 0.87071 0.0
C291 C 0.44606 0.88073 0.87742 0.0
C292 C 0.41848 0.88857 0.85681 0.0
C293 C 0.40652 0.86539 0.82951 0.0
C294 C 0.49105 0.84041 0.89119 0.0
C295 C 0.40152 0.92159 0.86351 0.0
C296 C 0.46133 0.92987 0.96701 0.0
C297 C 0.4833 0.95735 0.95612 0.0
C298 C 0.44886 0.90468 0.94169 0.0
C299 C 0.46 0.90627 0.90507 0.0
C300 C 0.48322 0.93346 0.89439 0.0
C301 C 0.494 0.95907 0.91991 0.0
C302 C 0.42317 0.87692 0.9539 0.0
C303 C 0.49682 0.93544 0.85605 0.0
H304 H 0.45794 0.8011 0.84024 0.0
H305 H 0.3865 0.87271 0.81287 0.0
H306 H 0.51166 0.86087 0.88808 0.0
H307 H 0.48466 0.83911 0.92042 0.0
H308 H 0.50045 0.81551 0.88173 0.0
H309 H 0.37848 0.92242 0.84742 0.0
H310 H 0.39456 0.92477 0.89256 0.0
H311 H 0.41911 0.9438 0.85647 0.0
H312 H 0.45334 0.92856 0.99515 0.0
H313 H 0.51162 0.98003 0.91178 0.0
H314 H 0.43253 0.85127 0.948 0.0
H315 H 0.39968 0.87809 0.93869 0.0
H316 H 0.41705 0.87936 0.98326 0.0
H317 H 0.50705 0.91077 0.84731 0.0
H318 H 0.51697 0.95641 0.85296 0.0
H319 H 0.47627 0.93986 0.83756 0.0
C320 C 0.69517 0.46233 0.72454 0.0
C321 C 0.71778 0.44021 0.70859 0.0
C322 C 0.66721 0.47136 0.70567 0.0
C323 C 0.66236 0.45864 0.66975 0.0
C324 C 0.68588 0.43729 0.65316 0.0
C325 C 0.71302 0.42788 0.67304 0.0
C326 C 0.64223 0.49346 0.72458 0.0
C327 C 0.68211 0.42396 0.61461 0.0
C328 C 0.57482 0.45065 0.63073 0.0
C329 C 0.57504 0.48062 0.61115 0.0
C330 C 0.60283 0.4436 0.65064 0.0
C331 C 0.63205 0.46657 0.64992 0.0
C332 C 0.63245 0.49672 0.62979 0.0
C333 C 0.6037 0.50364 0.61108 0.0
C334 C 0.60112 0.41162 0.67248 0.0
C335 C 0.6634 0.52134 0.62751 0.0
H336 H 0.69856 0.47152 0.75225 0.0
H337 H 0.73056 0.41074 0.66079 0.0
H338 H 0.63917 0.5166 0.70889 0.0
H339 H 0.61724 0.47898 0.7263 0.0
H340 H 0.64996 0.50176 0.75232 0.0
H341 H 0.70392 0.40983 0.60486 0.0
H342 H 0.659 0.40644 0.61237 0.0
H343 H 0.67935 0.44554 0.59652 0.0
H344 H 0.55255 0.43295 0.63088 0.0
H345 H 0.6039 0.52673 0.59567 0.0
H346 H 0.60702 0.41847 0.70106 0.0
H347 H 0.62019 0.39428 0.66208 0.0
H348 H 0.57597 0.39736 0.67163 0.0
H349 H 0.67014 0.53162 0.65486 0.0
H350 H 0.6598 0.54324 0.61005 0.0
H351 H 0.68503 0.50763 0.61657 0.0
C352 C 0.83513 0.78339 0.15862 0.0
C353 C 0.86484 0.79853 0.17358 0.0
C354 C 0.83415 0.75036 0.14228 0.0
C355 C 0.86338 0.73193 0.14164 0.0
C356 C 0.8937 0.74763 0.15572 0.0
C357 C 0.89412 0.78093 0.17119 0.0
C358 C 0.80166 0.73489 0.12657 0.0
C359 C 0.92539 0.72875 0.15573 0.0
C360 C 0.8589 0.63473 0.13935 0.0
C361 C 0.87232 0.62744 0.10473 0.0
C362 C 0.85439 0.66858 0.15127 0.0
C363 C 0.86234 0.69576 0.12758 0.0
C364 C 0.8727 0.68834 0.09157 0.0
C365 C 0.87815 0.6544 0.08072 0.0
C366 C 0.84329 0.67541 0.18996 0.0
C367 C 0.88016 0.71653 0.06515 0.0
H368 H 0.81248 0.79712 0.16021 0.0
H369 H 0.91705 0.79263 0.18288 0.0
H370 H 0.80618 0.72454 0.09873 0.0
H371 H 0.79153 0.71312 0.14297 0.0
H372 H 0.7823 0.75384 0.12583 0.0
H373 H 0.9469 0.74469 0.16752 0.0
H374 H 0.92091 0.70517 0.1715 0.0
H375 H 0.93248 0.72064 0.12775 0.0
H376 H 0.85322 0.6141 0.1578 0.0
H377 H 0.88876 0.64947 0.054 0.0
H378 H 0.822 0.69213 0.19117 0.0
H379 H 0.8643 0.68919 0.20486 0.0
H380 H 0.83551 0.65138 0.20405 0.0
H381 H 0.86084 0.73553 0.06734 0.0
H382 H 0.88123 0.70625 0.03688 0.0
H383 H 0.90475 0.7303 0.07147 0.0
C384 C 0.29529 0.10656 0.16618 0.0
C385 C 0.28718 0.14105 0.16171 0.0
C386 C 0.32497 0.09209 0.15016 0.0
C387 C 0.34919 0.1117 0.12841 0.0
C388 C 0.34134 0.14648 0.12395 0.0
C389 C 0.3114 0.16023 0.14 0.0
C390 C 0.33035 0.05509 0.15659 0.0
C391 C 0.36512 0.16983 0.10214 0.0
C392 C 0.4436 0.08438 0.11627 0.0
C393 C 0.44625 0.06876 0.08109 0.0
C394 C 0.41333 0.09804 0.13128 0.0
C395 C 0.3827 0.0966 0.11173 0.0
C396 C 0.38502 0.0808 0.07611 0.0
C397 C 0.41595 0.06757 0.0615 0.0
C398 C 0.41431 0.11435 0.16874 0.0
C399 C 0.35431 0.07758 0.0531 0.0
H400 H 0.278 0.09016 0.18201 0.0
H401 H 0.30748 0.18686 0.13578 0.0
H402 H 0.33275 0.04079 0.13035 0.0
H403 H 0.35419 0.05345 0.17098 0.0
H404 H 0.30946 0.04235 0.17274 0.0
H405 H 0.35612 0.19589 0.10019 0.0
H406 H 0.39024 0.17219 0.1146 0.0
H407 H 0.36841 0.15862 0.07445 0.0
H408 H 0.46582 0.08616 0.13265 0.0
H409 H 0.41614 0.05586 0.03457 0.0
H410 H 0.39576 0.10029 0.18667 0.0
H411 H 0.4071 0.14118 0.168 0.0
H412 H 0.43957 0.11451 0.18073 0.0
H413 H 0.3334 0.06302 0.06749 0.0
H414 H 0.35902 0.06443 0.02658 0.0
H415 H 0.34592 0.10344 0.04837 0.0
C416 C 0.25737 0.7614 0.68155 0.0
C417 C 0.27573 0.78296 0.7061 0.0
C418 C 0.23171 0.77377 0.6615 0.0
C419 C 0.22445 0.80859 0.66606 0.0
C420 C 0.2424 0.83025 0.69151 0.0
C421 C 0.26779 0.81716 0.71129 0.0
C422 C 0.21301 0.74988 0.63474 0.0
C423 C 0.23552 0.86758 0.69702 0.0
C424 C 0.18711 0.85248 0.58849 0.0
C425 C 0.1535 0.85404 0.60009 0.0
C426 C 0.21028 0.83725 0.60945 0.0
C427 C 0.19955 0.82302 0.64277 0.0
C428 C 0.16548 0.82385 0.65431 0.0
C429 C 0.14287 0.83954 0.6329 0.0
C430 C 0.24647 0.83722 0.59636 0.0
C431 C 0.15309 0.80864 0.68952 0.0
H432 H 0.26351 0.73495 0.67755 0.0
H433 H 0.28188 0.83401 0.73024 0.0
H434 H 0.18548 0.75031 0.63962 0.0
H435 H 0.21852 0.75866 0.60692 0.0
H436 H 0.22005 0.72301 0.63621 0.0
H437 H 0.25057 0.88055 0.71906 0.0
H438 H 0.24152 0.88132 0.6717 0.0
H439 H 0.20847 0.86994 0.70349 0.0
H440 H 0.19558 0.86415 0.56343 0.0
H441 H 0.11684 0.84051 0.64181 0.0
H442 H 0.25451 0.81064 0.59497 0.0
H443 H 0.26298 0.85224 0.61576 0.0
H444 H 0.25049 0.84838 0.5693 0.0
H445 H 0.15915 0.78143 0.69019 0.0
H446 H 0.12552 0.80988 0.69378 0.0
H447 H 0.16609 0.82259 0.71237 0.0
C448 C 0.86898 0.44264 0.8407 0.0
C449 C 0.83802 0.44108 0.85942 0.0
C450 C 0.89887 0.45291 0.85851 0.0
C451 C 0.89754 0.46263 0.89569 0.0
C452 C 0.86614 0.46185 0.91451 0.0
C453 C 0.83673 0.45056 0.89622 0.0
C454 C 0.93191 0.45281 0.83768 0.0
C455 C 0.86365 0.473 0.95388 0.0
C456 C 0.97724 0.46056 0.94951 0.0
C457 C 0.99061 0.49455 0.94735 0.0
C458 C 0.94687 0.44972 0.93277 0.0
C459 C 0.92908 0.47383 0.91467 0.0
C460 C 0.94201 0.50851 0.91369 0.0
C461 C 0.97294 0.51831 0.92952 0.0
C462 C 0.93418 0.4124 0.93377 0.0
C463 C 0.92325 0.53525 0.89585 0.0
H464 H 0.86986 0.43488 0.81232 0.0
H465 H 0.81265 0.44932 0.91055 0.0
H466 H 0.94455 0.47907 0.83786 0.0
H467 H 0.94891 0.43607 0.85084 0.0
H468 H 0.92866 0.44362 0.80918 0.0
H469 H 0.83721 0.47205 0.96419 0.0
H470 H 0.87791 0.45626 0.97041 0.0
H471 H 0.87511 0.49959 0.95781 0.0
H472 H 0.99095 0.44234 0.96352 0.0
H473 H 0.98302 0.54481 0.92852 0.0
H474 H 0.93201 0.40142 0.90582 0.0
H475 H 0.9087 0.40993 0.94655 0.0
H476 H 0.95101 0.39695 0.9489 0.0
H477 H 0.92179 0.52925 0.86642 0.0
H478 H 0.93551 0.56154 0.89989 0.0
H479 H 0.89708 0.53497 0.90681 0.0
C480 C 0.7537 0.7828 0.3167 0.0
C481 C 0.78805 0.7877 0.32404 0.0
C482 C 0.73301 0.75771 0.33443 0.0
C483 C 0.74722 0.73697 0.35969 0.0
C484 C 0.7821 0.74118 0.36631 0.0
C485 C 0.80206 0.76659 0.34849 0.0
C486 C 0.69587 0.75404 0.32692 0.0
C487 C 0.79824 0.71931 0.39278 0.0
C488 C 0.69508 0.69853 0.43687 0.0
C489 C 0.69018 0.66408 0.42519 0.0
C490 C 0.71249 0.72279 0.41512 0.0
C491 C 0.72553 0.71224 0.38098 0.0
C492 C 0.71982 0.67766 0.36855 0.0
C493 C 0.702 0.65394 0.39081 0.0
C494 C 0.71779 0.75951 0.42915 0.0
C495 C 0.73361 0.66548 0.3324 0.0
H496 H 0.7429 0.79917 0.29778 0.0
H497 H 0.82877 0.76994 0.35363 0.0
H498 H 0.68794 0.727 0.31927 0.0
H499 H 0.68137 0.76085 0.35176 0.0
H500 H 0.68914 0.77074 0.30499 0.0
H501 H 0.82599 0.72457 0.3933 0.0
H502 H 0.78779 0.72418 0.42037 0.0
H503 H 0.79245 0.6917 0.38579 0.0
H504 H 0.68543 0.70646 0.46324 0.0
H505 H 0.69827 0.62725 0.38185 0.0
H506 H 0.70942 0.77725 0.40906 0.0
H507 H 0.74498 0.76615 0.43335 0.0
H508 H 0.70399 0.76399 0.45511 0.0
H509 H 0.72613 0.68202 0.31073 0.0
H510 H 0.72479 0.63845 0.32555 0.0
H511 H 0.7615 0.66746 0.33273 0.0
C512 C 0.1609 0.28875 0.11173 0.0
C513 C 0.16049 0.28547 0.14972 0.0
C514 C 0.14629 0.31673 0.09453 0.0
C515 C 0.13094 0.34364 0.11494 0.0
C516 C 0.13123 0.3406 0.15322 0.0
C517 C 0.14519 0.31216 0.16957 0.0
C518 C 0.14725 0.31735 0.05401 0.0
C519 C 0.11673 0.36785 0.17746 0.0
C520 C 0.11768 0.43418 0.07332 0.0
C521 C 0.08267 0.43378 0.06704 0.0
C522 C 0.13336 0.4058 0.08812 0.0
C523 C 0.11449 0.37445 0.09702 0.0
C524 C 0.07922 0.37368 0.09012 0.0
C525 C 0.06407 0.40271 0.07596 0.0
C526 C 0.17061 0.40973 0.09457 0.0
C527 C 0.05708 0.34169 0.09768 0.0
H528 H 0.17204 0.26903 0.09515 0.0
H529 H 0.14417 0.31093 0.19875 0.0
H530 H 0.12184 0.32098 0.04389 0.0
H531 H 0.16426 0.33943 0.04537 0.0
H532 H 0.15634 0.29346 0.04137 0.0
H533 H 0.12014 0.3634 0.20653 0.0
H534 H 0.12887 0.39346 0.17104 0.0
H535 H 0.08946 0.36851 0.17262 0.0
H536 H 0.13315 0.45729 0.06725 0.0
H537 H 0.03723 0.40083 0.07163 0.0
H538 H 0.17579 0.40283 0.12258 0.0
H539 H 0.18149 0.43629 0.09015 0.0
H540 H 0.18361 0.39194 0.07596 0.0
H541 H 0.0676 0.31912 0.08374 0.0
H542 H 0.0309 0.34345 0.08876 0.0
H543 H 0.05644 0.33707 0.12705 0.0
C544 C 0.73238 0.34989 0.88358 0.0
C545 C 0.74189 0.35224 0.84703 0.0
C546 C 0.71239 0.32142 0.8959 0.0
C547 C 0.70188 0.29464 0.87105 0.0
C548 C 0.71218 0.29644 0.83429 0.0
C549 C 0.73199 0.3253 0.82269 0.0
C550 C 0.70168 0.32049 0.93526 0.0
C551 C 0.7017 0.26821 0.80709 0.0
C552 C 0.66907 0.20894 0.90832 0.0
C553 C 0.63416 0.21116 0.90715 0.0
C554 C 0.69149 0.23579 0.89634 0.0
C555 C 0.67866 0.26561 0.88316 0.0
C556 C 0.64349 0.26792 0.88171 0.0
C557 C 0.62169 0.24061 0.89353 0.0
C558 C 0.72887 0.2324 0.89809 0.0
C559 C 0.62886 0.29936 0.86785 0.0
H560 H 0.73974 0.37083 0.90239 0.0
H561 H 0.7397 0.32687 0.79449 0.0
H562 H 0.67393 0.32093 0.9378 0.0
H563 H 0.70855 0.29635 0.94702 0.0
H564 H 0.71336 0.34255 0.95138 0.0
H565 H 0.71335 0.27267 0.77994 0.0
H566 H 0.70881 0.24313 0.81637 0.0
H567 H 0.67396 0.26632 0.8046 0.0
H568 H 0.6789 0.18644 0.91919 0.0
H569 H 0.59476 0.24226 0.89191 0.0
H570 H 0.74044 0.2529 0.91627 0.0
H571 H 0.74079 0.23574 0.87094 0.0
H572 H 0.73476 0.20711 0.90805 0.0
H573 H 0.63774 0.3224 0.88427 0.0
H574 H 0.60091 0.29716 0.86867 0.0
H575 H 0.63762 0.30359 0.8396 0.0
C576 C 0.88435 0.91745 0.32657 0.0
C577 C 0.87896 0.88225 0.33263 0.0
C578 C 0.9038 0.9392 0.35021 0.0
C579 C 0.91805 0.92537 0.38061 0.0
C580 C 0.91382 0.88965 0.386 0.0
C581 C 0.89448 0.86853 0.36186 0.0
C582 C 0.90805 0.97714 0.34342 0.0
C583 C 0.92869 0.87388 0.41802 0.0
C584 C 0.98743 0.97644 0.43202 0.0
C585 C 0.96931 0.99033 0.46124 0.0
C586 C 0.97104 0.95565 0.40521 0.0
C587 C 0.93578 0.94837 0.40796 0.0
C588 C 0.91741 0.96229 0.43751 0.0
C589 C 0.93442 0.98322 0.46376 0.0
C590 C 0.99144 0.94141 0.37403 0.0
C591 C 0.87982 0.95484 0.44156 0.0
H592 H 0.87231 0.92822 0.30413 0.0
H593 H 0.89097 0.84122 0.36626 0.0
H594 H 0.89498 0.99152 0.36524 0.0
H595 H 0.93506 0.9863 0.3439 0.0
H596 H 0.89773 0.98341 0.3171 0.0
H597 H 0.92453 0.84545 0.41728 0.0
H598 H 0.95612 0.88095 0.41895 0.0
H599 H 0.9172 0.88408 0.4434 0.0
H600 H 1.01445 0.98196 0.43 0.0
H601 H 0.92039 0.99388 0.48638 0.0
H602 H 0.98154 0.94912 0.34806 0.0
H603 H 0.98917 0.91295 0.37396 0.0
H604 H 1.0185 0.95037 0.3753 0.0
H605 H 0.86719 0.96317 0.41739 0.0
H606 H 0.86923 0.96796 0.46589 0.0
H607 H 0.87374 0.92679 0.44349 0.0
C608 C 0.43302 0.74103 0.68773 0.0
C609 C 0.43233 0.74049 0.72555 0.0
C610 C 0.44804 0.71552 0.66671 0.0
C611 C 0.46229 0.68845 0.68392 0.0
C612 C 0.46289 0.68857 0.72218 0.0
C613 C 0.44808 0.71478 0.74257 0.0
C614 C 0.44737 0.71678 0.62606 0.0
C615 C 0.4776 0.66009 0.74156 0.0
C616 C 0.46225 0.60438 0.62888 0.0
C617 C 0.49566 0.60475 0.61605 0.0
C618 C 0.45137 0.63098 0.65177 0.0
C619 C 0.47433 0.65894 0.66178 0.0
C620 C 0.50819 0.65929 0.64928 0.0
C621 C 0.5185 0.63212 0.62674 0.0
C622 C 0.41511 0.62942 0.66479 0.0
C623 C 0.53334 0.68878 0.65896 0.0
H624 H 0.42099 0.76105 0.67458 0.0
H625 H 0.44729 0.71421 0.77182 0.0
H626 H 0.4729 0.71406 0.6142 0.0
H627 H 0.43072 0.69501 0.61521 0.0
H628 H 0.43811 0.74107 0.61695 0.0
H629 H 0.47865 0.66537 0.77118 0.0
H630 H 0.46207 0.6357 0.73655 0.0
H631 H 0.50336 0.6562 0.73098 0.0
H632 H 0.44447 0.58328 0.62098 0.0
H633 H 0.54435 0.63271 0.61689 0.0
H634 H 0.40251 0.65116 0.6541 0.0
H635 H 0.41378 0.63196 0.69471 0.0
H636 H 0.40092 0.60508 0.65618 0.0
H637 H 0.52538 0.71279 0.64781 0.0
H638 H 0.55905 0.68451 0.64835 0.0
H639 H 0.53427 0.69277 0.68871 0.0
C640 C 0.92359 0.92009 0.79062 0.0
C641 C 0.88799 0.91901 0.79518 0.0
C642 C 0.9416 0.93339 0.75917 0.0
C643 C 0.92461 0.94597 0.72933 0.0
C644 C 0.88869 0.94477 0.73356 0.0
C645 C 0.87131 0.93206 0.76573 0.0
C646 C 0.97945 0.93427 0.75816 0.0
C647 C 0.86817 0.95666 0.70348 0.0
C648 C 0.97183 1.00892 0.65899 0.0
C649 C 0.9814 0.98756 0.62923 0.0
C650 C 0.9542 0.99608 0.69088 0.0
C651 C 0.94417 0.96037 0.69449 0.0
C652 C 0.95346 0.93868 0.66437 0.0
C653 C 0.97183 0.95212 0.63312 0.0
C654 C 0.94655 0.02116 0.72125 0.0
C655 C 0.9436 0.90075 0.6649 0.0
H656 H 0.93791 0.91098 0.8123 0.0
H657 H 0.84414 0.93166 0.76732 0.0
H658 H 0.98807 0.91798 0.73514 0.0
H659 H 0.99025 0.96084 0.75381 0.0
H660 H 0.98959 0.92512 0.78344 0.0
H661 H 0.8407 0.95301 0.70934 0.0
H662 H 0.87487 0.98425 0.699 0.0
H663 H 0.87404 0.94236 0.67796 0.0
H664 H 0.97856 0.03622 0.65767 0.0
H665 H 0.97832 0.93455 0.61121 0.0
H666 H 0.95709 1.01301 0.74674 0.0
H667 H 0.91894 0.02139 0.72555 0.0
H668 H 0.95699 0.04768 0.71584 0.0
H669 H 0.95593 0.88928 0.68757 0.0
H670 H 0.9507 0.88713 0.63933 0.0
H671 H 0.91602 0.8964 0.66951 0.0
C672 C 0.65628 0.22398 0.21425 0.0
C673 C 0.63412 0.2284 0.24385 0.0
C674 C 0.64732 0.20175 0.18491 0.0
C675 C 0.61531 0.18351 0.18495 0.0
C676 C 0.59219 0.18905 0.21392 0.0
C677 C 0.60187 0.21145 0.24303 0.0
C678 C 0.67263 0.19683 0.15449 0.0
C679 C 0.55771 0.17028 0.21485 0.0
C680 C 0.58225 0.14198 0.097 0.0
C681 C 0.58872 0.10749 0.10082 0.0
C682 C 0.59097 0.16704 0.12397 0.0
C683 C 0.60665 0.15746 0.15554 0.0
C684 C 0.61407 0.12286 0.15912 0.0
C685 C 0.605 0.09831 0.13175 0.0
C686 C 0.58271 0.20362 0.11903 0.0
C687 C 0.63101 0.11164 0.19223 0.0
H688 H 0.68106 0.23742 0.21443 0.0
H689 H 0.58471 0.21453 0.26588 0.0
H690 H 0.68002 0.17001 0.15372 0.0
H691 H 0.66131 0.20116 0.12816 0.0
H692 H 0.69566 0.21443 0.15747 0.0
H693 H 0.5419 0.17915 0.23795 0.0
H694 H 0.54455 0.17388 0.1894 0.0
H695 H 0.56018 0.14235 0.21701 0.0
H696 H 0.5696 0.14934 0.07324 0.0
H697 H 0.61002 0.07174 0.135 0.0
H698 H 0.60574 0.22122 0.12155 0.0
H699 H 0.56471 0.21137 0.14059 0.0
H700 H 0.57153 0.20713 0.09239 0.0
H701 H 0.65536 0.12687 0.19593 0.0
H702 H 0.63571 0.08397 0.19055 0.0
H703 H 0.61508 0.11647 0.2166 0.0
C704 C 0.41667 0.58373 0.30649 0.0
C705 C 0.3826 0.59009 0.30876 0.0
C706 C 0.43473 0.57871 0.33757 0.0
C707 C 0.41832 0.58038 0.37185 0.0
C708 C 0.38376 0.58651 0.37434 0.0
C709 C 0.3662 0.5912 0.34266 0.0
C710 C 0.47147 0.57194 0.3337 0.0
C711 C 0.36552 0.58862 0.41046 0.0
C712 C 0.46161 0.53819 0.44669 0.0
C713 C 0.48069 0.56619 0.46235 0.0
C714 C 0.44023 0.54261 0.41801 0.0
C715 C 0.43769 0.57586 0.40492 0.0
C716 C 0.45581 0.60443 0.42171 0.0
C717 C 0.47721 0.59922 0.45021 0.0
C718 C 0.42149 0.51148 0.40074 0.0
C719 C 0.45353 0.64032 0.40871 0.0
H720 H 0.42933 0.58294 0.28025 0.0
H721 H 0.33988 0.59632 0.34454 0.0
H722 H 0.48701 0.59252 0.34819 0.0
H723 H 0.47592 0.54735 0.34617 0.0
H724 H 0.48025 0.5707 0.30502 0.0
H725 H 0.33851 0.59299 0.40774 0.0
H726 H 0.36742 0.56458 0.42504 0.0
H727 H 0.3775 0.60988 0.4274 0.0
H728 H 0.46408 0.51261 0.45617 0.0
H729 H 0.49176 0.62092 0.46247 0.0
H730 H 0.43114 0.50743 0.37268 0.0
H731 H 0.39435 0.51555 0.39919 0.0
H732 H 0.42424 0.48781 0.41578 0.0
H733 H 0.46473 0.64225 0.38108 0.0
H734 H 0.46686 0.66002 0.42659 0.0
H735 H 0.42683 0.64622 0.4072 0.0
C736 C 0.24367 0.27446 0.92629 0.0
C737 C 0.22563 0.25688 0.89853 0.0
C738 C 0.23992 0.30931 0.93438 0.0
C739 C 0.2179 0.32715 0.91383 0.0
C740 C 0.2003 0.3098 0.88505 0.0
C741 C 0.20368 0.27463 0.87835 0.0
C742 C 0.25868 0.32674 0.96567 0.0
C743 C 0.17734 0.32822 0.86186 0.0
C744 C 0.17829 0.40195 0.96148 0.0
C745 C 0.1979 0.43025 0.94826 0.0
C746 C 0.18424 0.36842 0.94987 0.0
C747 C 0.21079 0.3629 0.92479 0.0
C748 C 0.23062 0.39133 0.91108 0.0
C749 C 0.22389 0.42476 0.92296 0.0
C750 C 0.16192 0.33887 0.96431 0.0
C751 C 0.25913 0.38652 0.88423 0.0
H752 H 0.26041 0.26072 0.94215 0.0
H753 H 0.18873 0.26113 0.85763 0.0
H754 H 0.27329 0.3503 0.95669 0.0
H755 H 0.24046 0.33468 0.98693 0.0
H756 H 0.27617 0.30977 0.97777 0.0
H757 H 0.16795 0.31191 0.83854 0.0
H758 H 0.15544 0.33617 0.87829 0.0
H759 H 0.19081 0.35187 0.85146 0.0
H760 H 0.15762 0.40607 0.98035 0.0
H761 H 0.23905 0.4466 0.91262 0.0
H762 H 0.17728 0.32166 0.97903 0.0
H763 H 0.15009 0.32342 0.94171 0.0
H764 H 0.14163 0.34766 0.98267 0.0
H765 H 0.28103 0.37819 0.89857 0.0
H766 H 0.26711 0.41065 0.87042 0.0
H767 H 0.25196 0.36627 0.86353 0.0
C768 C 0.76423 0.90204 0.91687 0.0
C769 C 0.78837 0.92103 0.89486 0.0
C770 C 0.73431 0.9159 0.93287 0.0
C771 C 0.72638 0.95061 0.92807 0.0
C772 C 0.75052 0.97003 0.90603 0.0
C773 C 0.78017 0.95545 0.89008 0.0
C774 C 0.71063 0.89274 0.955 0.0
C775 C 0.74507 1.00693 0.89922 0.0
C776 C 0.63192 0.97793 0.94014 0.0
C777 C 0.62934 0.99392 0.97516 0.0
C778 C 0.66219 0.96416 0.92521 0.0
C779 C 0.69287 0.96583 0.94467 0.0
C780 C 0.69063 0.982 0.98013 0.0
C781 C 0.65971 0.99536 0.99466 0.0
C782 C 0.66112 0.94748 0.88792 0.0
C783 C 0.72139 0.98548 1.00305 0.0
H784 H 0.76821 0.87547 0.92135 0.0
H785 H 0.79739 0.97172 0.87402 0.0
H786 H 0.70739 0.90422 0.98257 0.0
H787 H 0.68548 0.8902 0.94262 0.0
H788 H 0.71969 0.86673 0.95722 0.0
H789 H 0.76589 0.01954 0.88287 0.0
H790 H 0.72117 1.0084 0.88488 0.0
H791 H 0.74273 0.02148 0.92533 0.0
H792 H 0.60966 0.97595 0.92383 0.0
H793 H 0.65958 1.00733 1.02147 0.0
H794 H 0.6683 0.92066 0.88896 0.0
H795 H 0.67964 0.96132 0.8698 0.0
H796 H 0.63583 0.94721 0.87598 0.0
H797 H 0.72981 0.95969 1.00805 0.0
H798 H 0.71674 0.99888 0.02944 0.0
H799 H 0.74225 0.99992 0.98845 0.0
C800 C 0.79247 0.2852 0.39541 0.0
C801 C 0.77199 0.26238 0.37409 0.0
C802 C 0.82052 0.27416 0.41255 0.0
C803 C 0.82803 0.23939 0.4084 0.0
C804 C 0.8076 0.21631 0.38654 0.0
C805 C 0.77984 0.22811 0.36955 0.0
C806 C 0.84178 0.29952 0.43557 0.0
C807 C 0.81467 0.17898 0.38169 0.0
C808 C 0.91478 0.21278 0.43022 0.0
C809 C 0.90914 0.19998 0.46488 0.0
C810 C 0.88876 0.22636 0.41172 0.0
C811 C 0.85634 0.22672 0.42818 0.0
C812 C 0.85062 0.21409 0.46329 0.0
C813 C 0.87712 0.20099 0.48124 0.0
C814 C 0.89584 0.23991 0.37444 0.0
C815 C 0.81631 0.21369 0.48159 0.0
H816 H 0.78638 0.31171 0.39889 0.0
H817 H 0.76404 0.2103 0.35316 0.0
H818 H 0.8405 0.29159 0.46405 0.0
H819 H 0.86851 0.29982 0.42644 0.0
H820 H 0.8335 0.32597 0.43463 0.0
H821 H 0.79698 0.16462 0.36292 0.0
H822 H 0.84071 0.17676 0.37111 0.0
H823 H 0.81267 0.16657 0.4082 0.0
H824 H 0.93957 0.21219 0.41761 0.0
H825 H 0.87251 0.19057 0.50779 0.0
H826 H 0.88894 0.26684 0.37362 0.0
H827 H 0.88017 0.22462 0.35448 0.0
H828 H 0.92269 0.23897 0.36602 0.0
H829 H 0.80753 0.23997 0.48325 0.0
H830 H 0.81627 0.20372 0.50929 0.0
H831 H 0.79787 0.19741 0.4654 0.0
C832 C 0.23956 0.60336 0.15295 0.0
C833 C 0.24016 0.61621 0.18869 0.0
C834 C 0.20898 0.59311 0.13646 0.0
C835 C 0.17839 0.59674 0.15601 0.0
C836 C 0.17898 0.60993 0.19213 0.0
C837 C 0.20999 0.61916 0.20823 0.0
C838 C 0.2094 0.57829 0.09825 0.0
C839 C 0.14687 0.61469 0.21358 0.0
C840 C 0.09927 0.59913 0.1013 0.0
C841 C 0.08415 0.5661 0.10607 0.0
C842 C 0.12974 0.60973 0.11797 0.0
C843 C 0.14579 0.58627 0.1388 0.0
C844 C 0.13082 0.55263 0.143 0.0
C845 C 0.09989 0.54314 0.12703 0.0
C846 C 0.14468 0.64599 0.11344 0.0
C847 C 0.14768 0.5265 0.16389 0.0
H848 H 0.26309 0.60117 0.13803 0.0
H849 H 0.2107 0.62943 0.23579 0.0
H850 H 0.196 0.55236 0.09731 0.0
H851 H 0.19594 0.59455 0.08039 0.0
H852 H 0.23537 0.57628 0.08721 0.0
H853 H 0.15168 0.62615 0.241 0.0
H854 H 0.13097 0.63155 0.19906 0.0
H855 H 0.13226 0.5896 0.21637 0.0
H856 H 0.08705 0.61675 0.08494 0.0
H857 H 0.08844 0.51734 0.13017 0.0
H858 H 0.16967 0.64569 0.09965 0.0
H859 H 0.14857 0.65893 0.14032 0.0
H860 H 0.12843 0.66139 0.09752 0.0
H861 H 0.17319 0.52311 0.15226 0.0
H862 H 0.13317 0.50109 0.1636 0.0
H863 H 0.15079 0.5357 0.19235 0.0
C864 C 0.25963 0.30822 0.7797 0.0
C865 C 0.2659 0.27544 0.76581 0.0
C866 C 0.27621 0.33766 0.76496 0.0
C867 C 0.30022 0.33391 0.73652 0.0
C868 C 0.30783 0.30068 0.72387 0.0
C869 C 0.2903 0.27184 0.73845 0.0
C870 C 0.26732 0.3726 0.77913 0.0
C871 C 0.33355 0.29555 0.69389 0.0
C872 C 0.31931 0.39808 0.66373 0.0
C873 C 0.35159 0.41181 0.67296 0.0
C874 C 0.3011 0.37465 0.68587 0.0
C875 C 0.31575 0.36425 0.7177 0.0
C876 C 0.34723 0.37976 0.72851 0.0
C877 C 0.36471 0.40356 0.70611 0.0
C878 C 0.26714 0.35929 0.67392 0.0
C879 C 0.36346 0.36953 0.76245 0.0
H880 H 0.24064 0.31083 0.8009 0.0
H881 H 0.29518 0.24638 0.728 0.0
H882 H 0.28821 0.38452 0.79558 0.0
H883 H 0.26376 0.38983 0.7566 0.0
H884 H 0.24404 0.37109 0.7963 0.0
H885 H 0.33834 0.2681 0.68917 0.0
H886 H 0.32461 0.30545 0.66842 0.0
H887 H 0.35768 0.3102 0.70035 0.0
H888 H 0.30893 0.40404 0.63816 0.0
H889 H 0.38925 0.41474 0.71393 0.0
H890 H 0.24859 0.35966 0.69675 0.0
H891 H 0.26911 0.33209 0.66504 0.0
H892 H 0.25744 0.37319 0.65121 0.0
H893 H 0.34537 0.3701 0.78565 0.0
H894 H 0.38618 0.38656 0.76912 0.0
H895 H 0.37093 0.34281 0.75888 0.0
C896 C 0.92472 0.74661 0.88602 0.0
C897 C 0.9142 0.77573 0.90605 0.0
C898 C 0.93919 0.71824 0.90196 0.0
C899 C 0.94489 0.71769 0.93982 0.0
C900 C 0.93453 0.74715 0.96041 0.0
C901 C 0.91937 0.77508 0.94374 0.0
C902 C 0.94883 0.68862 0.87768 0.0
C903 C 0.94074 0.75026 1.00031 0.0
C904 C 0.95816 0.62846 0.98413 0.0
C905 C 0.99356 0.62716 0.9862 0.0
C906 C 0.94243 0.6571 0.96997 0.0
C907 C 0.96172 0.68677 0.95703 0.0
C908 C 0.99742 0.6858 0.95953 0.0
C909 C 1.01254 0.65668 0.97351 0.0
C910 C 0.90465 0.65512 0.96823 0.0
C911 C 1.02006 0.71594 0.94725 0.0
H912 H 0.92164 0.74591 0.85703 0.0
H913 H 0.91256 0.79696 0.96035 0.0
H914 H 0.9763 0.68608 0.87895 0.0
H915 H 0.93594 0.66431 0.88714 0.0
H916 H 0.94229 0.6918 0.8491 0.0
H917 H 0.92264 0.76672 1.01442 0.0
H918 H 0.93917 0.72481 1.01279 0.0
H919 H 0.96646 0.76238 1.00452 0.0
H920 H 0.94233 0.60657 0.99327 0.0
H921 H 0.03969 0.6572 0.9745 0.0
H922 H 0.89716 0.65146 0.93964 0.0
H923 H 0.89485 0.67945 0.97871 0.0
H924 H 0.89263 0.63353 0.98377 0.0
H925 H 1.01641 0.71983 0.91814 0.0
H926 H 0.04705 0.71243 0.95146 0.0
H927 H 1.01328 0.73963 0.96223 0.0
C928 C 0.34575 0.70507 0.1564 0.0
C929 C 0.34081 0.70001 0.19347 0.0
C930 C 0.36505 0.73397 0.14401 0.0
C931 C 0.37954 0.75836 0.16934 0.0
C932 C 0.37391 0.75379 0.20678 0.0
C933 C 0.35464 0.72463 0.21838 0.0
C934 C 0.37068 0.73796 0.10389 0.0
C935 C 0.38875 0.77938 0.23459 0.0
C936 C 0.45805 0.81314 0.14268 0.0
C937 C 0.445 0.84456 0.13592 0.0
C938 C 0.43692 0.78474 0.15299 0.0
C939 C 0.40189 0.78789 0.15688 0.0
C940 C 0.38847 0.81944 0.14995 0.0
C941 C 0.4102 0.84741 0.13947 0.0
C942 C 0.45215 0.75148 0.1602 0.0
C943 C 0.35122 0.8237 0.1539 0.0
H944 H 0.33527 0.68593 0.13711 0.0
H945 H 0.3504 0.72102 0.24706 0.0
H946 H 0.36325 0.76336 0.09592 0.0
H947 H 0.39782 0.7369 0.09694 0.0
H948 H 0.35628 0.71764 0.08774 0.0
H949 H 0.38077 0.77277 0.26259 0.0
H950 H 0.41661 0.78047 0.23257 0.0
H951 H 0.38113 0.80544 0.22939 0.0
H952 H 0.48496 0.8109 0.14053 0.0
H953 H 0.39991 0.87149 0.13381 0.0
H954 H 0.44016 0.73029 0.14319 0.0
H955 H 0.44737 0.74479 0.18881 0.0
H956 H 0.47972 0.75294 0.15468 0.0
H957 H 0.33704 0.80452 0.13625 0.0
H958 H 0.34475 0.84977 0.1469 0.0
H959 H 0.34264 0.81897 0.18212 0.0
C960 C 0.18405 0.13862 0.73664 0.0
C961 C 0.18674 0.17449 0.73466 0.0
C962 C 0.16773 0.11783 0.70976 0.0
C963 C 0.15402 0.13328 0.68004 0.0
C964 C 0.15635 0.16946 0.67804 0.0
C965 C 0.17246 0.18961 0.70547 0.0
C966 C 0.16543 0.07933 0.71298 0.0
C967 C 0.14206 0.18688 0.64675 0.0
C968 C 0.13995 0.07914 0.59372 0.0
C969 C 0.10526 0.07055 0.59598 0.0
C970 C 0.15617 0.09974 0.62084 0.0
C971 C 0.13722 0.11162 0.651 0.0
C972 C 0.10215 0.10296 0.65334 0.0
C973 C 0.08656 0.08271 0.62567 0.0
C974 C 0.19354 0.10883 0.61721 0.0
C975 C 0.08113 0.11488 0.6852 0.0
H976 H 0.19534 0.1267 0.75884 0.0
H977 H 0.17385 0.21732 0.70405 0.0
H978 H 0.13874 0.06906 0.71229 0.0
H979 H 0.17872 0.06736 0.68967 0.0
H980 H 0.17652 0.07139 0.73829 0.0
H981 H 0.1462 0.21529 0.64909 0.0
H982 H 0.15383 0.17792 0.621 0.0
H983 H 0.11465 0.17991 0.64516 0.0
H984 H 0.15439 0.06985 0.5707 0.0
H985 H 0.0597 0.07606 0.62751 0.0
H986 H 0.20655 0.09928 0.64052 0.0
H987 H 0.19862 0.13714 0.61752 0.0
H988 H 0.20456 0.09784 0.59192 0.0
H989 H 0.05424 0.1055 0.68313 0.0
H990 H 0.08283 0.14333 0.68727 0.0
H991 H 0.09094 0.10572 0.7106 0.0
C992 C 0.61231 0.30859 0.38637 0.0
C993 C 0.61718 0.31245 0.34908 0.0
C994 C 0.59764 0.33379 0.40816 0.0
C995 C 0.58787 0.36385 0.39235 0.0
C996 C 0.59132 0.36717 0.35442 0.0
C997 C 0.6058 0.34129 0.33316 0.0
C998 C 0.594 0.3289 0.44835 0.0
C999 C 0.58132 0.39883 0.33653 0.0
C1000 C 0.53173 0.42049 0.44931 0.0
C1001 C 0.55537 0.44487 0.46463 0.0
C1002 C 0.5418 0.39435 0.42522 0.0
C1003 C 0.57632 0.39263 0.41599 0.0
C1004 C 0.60021 0.41755 0.43083 0.0
C1005 C 0.58949 0.44324 0.45503 0.0
C1006 C 0.51557 0.36817 0.41023 0.0
C1007 C 0.63725 0.41679 0.42156 0.0
H1008 H 0.6209 0.28616 0.39868 0.0
H1009 H 0.60979 0.34443 0.30438 0.0
H1010 H 0.61103 0.34819 0.46285 0.0
H1011 H 0.56794 0.33299 0.4578 0.0
H1012 H 0.60015 0.30289 0.45595 0.0
H1013 H 0.58274 0.39616 0.30659 0.0
H1014 H 0.55534 0.4044 0.34496 0.0
H1015 H 0.59824 0.42127 0.34524 0.0
H1016 H 0.50531 0.42149 0.4565 0.0
H1017 H 0.60795 0.46203 0.4665 0.0
H1018 H 0.52021 0.34232 0.41957 0.0
H1019 H 0.51732 0.36702 0.38029 0.0
H1020 H 0.48963 0.37398 0.4187 0.0
H1021 H 0.64669 0.39277 0.43108 0.0
H1022 H 0.65241 0.43895 0.43396 0.0
H1023 H 0.64135 0.41691 0.39184 0.0
loop_
_geom_bond_atom_site_label_1
_geom_bond_atom_site_label_2
_geom_bond_distance
_geom_bond_site_symmetry_2
_ccdc_geom_bond_type
H0 C5 0.930 . S
H1 C8 0.930 . S
H2 C10 0.930 . S
H3 C4 1.016 . S
C4 H3 1.016 . S
C4 N11 1.286 . S
C5 H0 0.930 . S
C5 C6 1.397 . S
C5 C7 1.361 . S
C6 C5 1.397 . S
C6 C10 1.390 . S
C7 C5 1.361 . S
C7 C8 1.393 . S
C7 N11 1.413 . S
C8 H1 0.930 . S
C8 C7 1.393 . S
C8 C9 1.399 . S
C9 C8 1.399 . S
C9 C10 1.381 . S
C10 H2 0.930 . S
C10 C6 1.390 . S
C10 C9 1.381 . S
N11 C4 1.286 . S
N11 C7 1.413 . S
H12 C17 0.930 . S
H13 C20 0.930 . S
H14 C22 0.930 . S
H15 C16 1.016 . S
C16 H15 1.016 . S
C16 N23 1.286 . S
C17 H12 0.930 . S
C17 C18 1.397 . S
C17 C19 1.361 . S
C18 C17 1.397 . S
C18 C22 1.390 . S
C19 C17 1.361 . S
C19 C20 1.393 . S
C19 N23 1.413 . S
C20 H13 0.930 . S
C20 C19 1.393 . S
C20 C21 1.399 . S
C21 C20 1.399 . S
C21 C22 1.381 . S
C22 H14 0.930 . S
C22 C18 1.390 . S
C22 C21 1.381 . S
N23 C16 1.286 . S
N23 C19 1.413 . S
H24 C29 0.930 . S
H25 C32 0.930 . S
H26 C34 0.930 . S
H27 C28 1.016 . S
C28 H27 1.016 . S
C28 N35 1.286 . S
C29 H24 0.930 . S
C29 C30 1.397 . S
C29 C31 1.361 . S
C30 C29 1.397 . S
C30 C34 1.390 . S
C31 C29 1.361 . S
C31 C32 1.393 . S
C31 N35 1.413 . S
C32 H25 0.930 . S
C32 C31 1.393 . S
C32 C33 1.399 . S
C33 C32 1.399 . S
C33 C34 1.381 . S
C34 H26 0.930 . S
C34 C30 1.390 . S
C34 C33 1.381 . S
N35 C28 1.286 . S
N35 C31 1.413 . S
H36 C41 0.930 . S
H37 C44 0.930 . S
H38 C46 0.930 . S
H39 C40 1.016 . S
C40 H39 1.016 . S
C40 N47 1.286 . S
C41 H36 0.930 . S
C41 C42 1.397 . S
C41 C43 1.361 . S
C42 C41 1.397 . S
C42 C46 1.390 . S
C43 C41 1.361 . S
C43 C44 1.393 . S
C43 N47 1.413 . S
C44 H37 0.930 . S
C44 C43 1.393 . S
C44 C45 1.399 . S
C45 C44 1.399 . S
C45 C46 1.381 . S
C46 H38 0.930 . S
C46 C42 1.390 . S
C46 C45 1.381 . S
N47 C40 1.286 . S
N47 C43 1.413 . S
H48 C53 0.930 . S
H49 C56 0.930 . S
H50 C58 0.930 . S
H51 C52 1.016 . S
C52 H51 1.016 . S
C52 N59 1.286 . S
C53 H48 0.930 . S
C53 C54 1.397 . S
C53 C55 1.361 . S
C54 C53 1.397 . S
C54 C58 1.390 . S
C55 C53 1.361 . S
C55 C56 1.393 . S
C55 N59 1.413 . S
C56 H49 0.930 . S
C56 C55 1.393 . S
C56 C57 1.399 . S
C57 C56 1.399 . S
C57 C58 1.381 . S
C58 H50 0.930 . S
C58 C54 1.390 . S
C58 C57 1.381 . S
N59 C52 1.286 . S
N59 C55 1.413 . S
H60 C65 0.930 . S
H61 C68 0.930 . S
H62 C70 0.930 . S
H63 C64 1.016 . S
C64 H63 1.016 . S
C64 N71 1.286 . S
C65 H60 0.930 . S
C65 C66 1.397 . S
C65 C67 1.361 . S
C66 C65 1.397 . S
C66 C70 1.390 . S
C67 C65 1.361 . S
C67 C68 1.393 . S
C67 N71 1.413 . S
C68 H61 0.930 . S
C68 C67 1.393 . S
C68 C69 1.399 . S
C69 C68 1.399 . S
C69 C70 1.381 . S
C70 H62 0.930 . S
C70 C66 1.390 . S
C70 C69 1.381 . S
N71 C64 1.286 . S
N71 C67 1.413 . S
H72 C77 0.930 . S
H73 C80 0.930 . S
H74 C82 0.930 . S
H75 C76 1.016 . S
C76 H75 1.016 . S
C76 N83 1.286 . S
C77 H72 0.930 . S
C77 C78 1.397 . S
C77 C79 1.361 . S
C78 C77 1.397 . S
C78 C82 1.390 . S
C79 C77 1.361 . S
C79 C80 1.393 . S
C79 N83 1.413 . S
C80 H73 0.930 . S
C80 C79 1.393 . S
C80 C81 1.399 . S
C81 C80 1.399 . S
C81 C82 1.381 . S
C82 H74 0.930 . S
C82 C78 1.390 . S
C82 C81 1.381 . S
N83 C76 1.286 . S
N83 C79 1.413 . S
H84 C89 0.930 . S
H85 C92 0.930 . S
H86 C94 0.930 . S
H87 C88 1.016 . S
C88 H87 1.016 . S
C88 N95 1.286 . S
C89 H84 0.930 . S
C89 C90 1.397 . S
C89 C91 1.361 . S
C90 C89 1.397 . S
C90 C94 1.390 . S
C91 C89 1.361 . S
C91 C92 1.393 . S
C91 N95 1.413 . S
C92 H85 0.930 . S
C92 C91 1.393 . S
C92 C93 1.399 . S
C93 C92 1.399 . S
C93 C94 1.381 . S
C94 H86 0.930 . S
C94 C90 1.390 . S
C94 C93 1.381 . S
N95 C88 1.286 . S
N95 C91 1.413 . S
Nd96 C98 2.836 . S
Nd96 O116 2.500 . S
Nd96 O117 2.492 . S
Nd96 O118 2.487 1_565 S
Nd96 O119 2.682 1_565 S
Nd96 O120 2.410 . S
Nd96 O125 2.414 1_455 S
Nd96 O127 2.424 1_565 S
Nd97 C107 2.836 . S
Nd97 O119 2.414 1_655 S
Nd97 O121 2.424 1_545 S
Nd97 O122 2.500 . S
Nd97 O123 2.492 . S
Nd97 O124 2.487 1_545 S
Nd97 O125 2.682 1_545 S
Nd97 O126 2.410 . S
C98 Nd96 2.836 . S
C98 C99 1.498 . S
C98 O116 1.258 . S
C98 O117 1.239 . S
C99 C98 1.498 . S
C99 C100 1.366 . S
C99 C104 1.407 . S
C100 C99 1.366 . S
C100 C101 1.392 . S
C100 H128 0.930 . S
C101 C100 1.392 . S
C101 C102 1.398 . S
C101 H129 0.929 . S
C102 C101 1.398 . S
C102 C103 1.352 . S
C103 C102 1.352 . S
C103 C104 1.384 . S
C103 H130 0.930 . S
C104 C99 1.407 . S
C104 C103 1.384 . S
C104 H131 0.929 . S
C105 O118 1.241 . S
C105 O119 1.273 . S
C106 O120 1.251 1_655 S
C106 O121 1.268 . S
C107 Nd97 2.836 . S
C107 C108 1.498 . S
C107 O122 1.258 . S
C107 O123 1.239 . S
C108 C107 1.498 . S
C108 C109 1.366 . S
C108 C113 1.407 . S
C109 C108 1.366 . S
C109 C110 1.392 . S
C109 H132 0.930 . S
C110 C109 1.392 . S
C110 C111 1.398 . S
C110 H133 0.929 . S
C111 C110 1.398 . S
C111 C112 1.352 . S
C112 C111 1.352 . S
C112 C113 1.384 . S
C112 H134 0.930 . S
C113 C108 1.407 . S
C113 C112 1.384 . S
C113 H135 0.929 . S
C114 O124 1.241 . S
C114 O125 1.273 . S
C115 O126 1.251 1_455 S
C115 O127 1.268 . S
O116 Nd96 2.500 . S
O116 C98 1.258 . S
O117 Nd96 2.492 . S
O117 C98 1.239 . S
O118 Nd96 2.487 1_545 S
O118 C105 1.241 . S
O119 Nd96 2.682 1_545 S
O119 Nd97 2.414 1_455 S
O119 C105 1.273 . S
O120 Nd96 2.410 . S
O120 C106 1.251 1_455 S
O121 Nd97 2.424 1_565 S
O121 C106 1.268 . S
O122 Nd97 2.500 . S
O122 C107 1.258 . S
O123 Nd97 2.492 . S
O123 C107 1.239 . S
O124 Nd97 2.487 1_565 S
O124 C114 1.241 . S
O125 Nd96 2.414 1_655 S
O125 Nd97 2.682 1_565 S
O125 C114 1.273 . S
O126 Nd97 2.410 . S
O126 C115 1.251 1_655 S
O127 Nd96 2.424 1_545 S
O127 C115 1.268 . S
H128 C100 0.930 . S
H129 C101 0.929 . S
H130 C103 0.930 . S
H131 C104 0.929 . S
H132 C109 0.930 . S
H133 C110 0.929 . S
H134 C112 0.930 . S
H135 C113 0.929 . S
Nd136 C138 2.836 . S
Nd136 O156 2.500 . S
Nd136 O157 2.492 . S
Nd136 O158 2.487 1_565 S
Nd136 O159 2.682 1_565 S
Nd136 O160 2.387 1_554 S
Nd136 O165 2.414 . S
Nd136 O167 2.424 1_565 S
Nd137 C147 2.836 . S
Nd137 O159 2.414 1_556 S
Nd137 O161 2.424 1_545 S
Nd137 O162 2.500 . S
Nd137 O163 2.492 . S
Nd137 O164 2.487 . S
Nd137 O165 2.682 1_546 S
Nd137 O166 2.410 1_556 S
C138 Nd136 2.836 . S
C138 C139 1.498 . S
C138 O156 1.258 . S
C138 O157 1.239 . S
C139 C138 1.498 . S
C139 C140 1.366 . S
C139 C144 1.407 . S
C140 C139 1.366 . S
C140 C141 1.392 . S
C140 H168 0.930 . S
C141 C140 1.392 . S
C141 C142 1.398 . S
C141 H169 0.929 . S
C142 C141 1.398 . S
C142 C143 1.352 . S
C143 C142 1.352 . S
C143 C144 1.384 . S
C143 H170 0.930 . S
C144 C139 1.407 . S
C144 C143 1.384 . S
C144 H171 0.929 . S
C145 O158 1.241 . S
C145 O159 1.273 . S
C146 O160 1.280 . S
C146 O161 1.268 . S
C147 Nd137 2.836 . S
C147 C148 1.498 . S
C147 O162 1.258 . S
C147 O163 1.239 . S
C148 C147 1.498 . S
C148 C149 1.366 . S
C148 C153 1.407 . S
C149 C148 1.366 . S
C149 C150 1.392 . S
C149 H172 0.930 . S
C150 C149 1.392 . S
C150 C151 1.398 . S
C150 H173 0.929 . S
C151 C150 1.398 . S
C151 C152 1.352 . S
C152 C151 1.352 . S
C152 C153 1.384 . S
C152 H174 0.930 . S
C153 C148 1.407 . S
C153 C152 1.384 . S
C153 H175 0.929 . S
C154 O164 1.241 1_565 S
C154 O165 1.273 1_556 S
C155 O166 1.251 . S
C155 O167 1.268 . S
O156 Nd136 2.500 . S
O156 C138 1.258 . S
O157 Nd136 2.492 . S
O157 C138 1.239 . S
O158 Nd136 2.487 1_545 S
O158 C145 1.241 . S
O159 Nd136 2.682 1_545 S
O159 Nd137 2.414 1_554 S
O159 C145 1.273 . S
O160 Nd136 2.387 1_556 S
O160 C146 1.280 . S
O161 Nd137 2.424 1_565 S
O161 C146 1.268 . S
O162 Nd137 2.500 . S
O162 C147 1.258 . S
O163 Nd137 2.492 . S
O163 C147 1.239 . S
O164 Nd137 2.487 . S
O164 C154 1.241 1_545 S
O165 Nd136 2.414 . S
O165 Nd137 2.682 1_564 S
O165 C154 1.273 1_554 S
O166 Nd137 2.410 1_554 S
O166 C155 1.251 . S
O167 Nd136 2.424 1_545 S
O167 C155 1.268 . S
H168 C140 0.930 . S
H169 C141 0.929 . S
H170 C143 0.930 . S
H171 C144 0.929 . S
H172 C149 0.930 . S
H173 C150 0.929 . S
H174 C152 0.930 . S
H175 C153 0.929 . S
Nd176 C178 2.836 . S
Nd176 O196 2.500 . S
Nd176 O197 2.492 . S
Nd176 O198 2.487 . S
Nd176 O199 2.682 . S
Nd176 O200 2.410 . S
Nd176 O205 2.414 . S
Nd176 O207 2.424 . S
Nd177 C187 2.836 . S
Nd177 O199 2.414 . S
Nd177 O201 2.424 . S
Nd177 O202 2.500 . S
Nd177 O203 2.492 . S
Nd177 O204 2.487 . S
Nd177 O205 2.682 . S
Nd177 O206 2.410 . S
C178 Nd176 2.836 . S
C178 C179 1.498 . S
C178 O196 1.258 . S
C178 O197 1.239 . S
C179 C178 1.498 . S
C179 C180 1.366 . S
C179 C184 1.407 . S
C180 C179 1.366 . S
C180 C181 1.392 . S
C180 H208 0.930 . S
C181 C180 1.392 . S
C181 C182 1.398 . S
C181 H209 0.929 . S
C182 C181 1.398 . S
C182 C183 1.352 . S
C183 C182 1.352 . S
C183 C184 1.384 . S
C183 H210 0.930 . S
C184 C179 1.407 . S
C184 C183 1.384 . S
C184 H211 0.929 . S
C185 O198 1.241 . S
C185 O199 1.273 . S
C186 O200 1.251 . S
C186 O201 1.268 . S
C187 Nd177 2.836 . S
C187 C188 1.498 . S
C187 O202 1.258 . S
C187 O203 1.239 . S
C188 C187 1.498 . S
C188 C189 1.366 . S
C188 C193 1.407 . S
C189 C188 1.366 . S
C189 C190 1.392 . S
C189 H212 0.930 . S
C190 C189 1.392 . S
C190 C191 1.398 . S
C190 H213 0.929 . S
C191 C190 1.398 . S
C191 C192 1.352 . S
C192 C191 1.352 . S
C192 C193 1.384 . S
C192 H214 0.930 . S
C193 C188 1.407 . S
C193 C192 1.384 . S
C193 H215 0.929 . S
C194 O204 1.241 . S
C194 O205 1.273 . S
C195 O206 1.251 . S
C195 O207 1.268 . S
O196 Nd176 2.500 . S
O196 C178 1.258 . S
O197 Nd176 2.492 . S
O197 C178 1.239 . S
O198 Nd176 2.487 . S
O198 C185 1.241 . S
O199 Nd176 2.682 . S
O199 Nd177 2.414 . S
O199 C185 1.273 . S
O200 Nd176 2.410 . S
O200 C186 1.251 . S
O201 Nd177 2.424 . S
O201 C186 1.268 . S
O202 Nd177 2.500 . S
O202 C187 1.258 . S
O203 Nd177 2.492 . S
O203 C187 1.239 . S
O204 Nd177 2.487 . S
O204 C194 1.241 . S
O205 Nd176 2.414 . S
O205 Nd177 2.682 . S
O205 C194 1.273 . S
O206 Nd177 2.410 . S
O206 C195 1.251 . S
O207 Nd176 2.424 . S
O207 C195 1.268 . S
H208 C180 0.930 . S
H209 C181 0.929 . S
H210 C183 0.930 . S
H211 C184 0.929 . S
H212 C189 0.930 . S
H213 C190 0.929 . S
H214 C192 0.930 . S
H215 C193 0.929 . S
Nd216 C218 2.841 . S
Nd216 O236 2.507 . S
Nd216 O237 2.494 . S
Nd216 O238 2.479 1_655 S
Nd216 O239 2.675 1_655 S
Nd216 O240 2.410 1_655 S
Nd216 O245 2.417 1_554 S
Nd216 O247 2.421 1_655 S
Nd217 C227 2.836 . S
Nd217 O239 2.414 1_556 S
Nd217 O241 2.424 . S
Nd217 O242 2.500 . S
Nd217 O243 2.492 . S
Nd217 O244 2.487 1_455 S
Nd217 O245 2.682 1_455 S
Nd217 O246 2.410 . S
C218 Nd216 2.841 . S
C218 C219 1.498 . S
C218 O236 1.258 . S
C218 O237 1.239 . S
C219 C218 1.498 . S
C219 C220 1.366 . S
C219 C224 1.407 . S
C220 C219 1.366 . S
C220 C221 1.392 . S
C220 H248 0.930 . S
C221 C220 1.392 . S
C221 C222 1.398 . S
C221 H249 0.929 . S
C222 C221 1.398 . S
C222 C223 1.352 . S
C223 C222 1.352 . S
C223 C224 1.384 . S
C223 H250 0.930 . S
C224 C219 1.407 . S
C224 C223 1.384 . S
C224 H251 0.929 . S
C225 O238 1.241 . S
C225 O239 1.273 . S
C226 O240 1.251 1_556 S
C226 O241 1.268 . S
C227 Nd217 2.836 . S
C227 C228 1.498 . S
C227 O242 1.258 . S
C227 O243 1.239 . S
C228 C227 1.498 . S
C228 C229 1.366 . S
C228 C233 1.407 . S
C229 C228 1.366 . S
C229 C230 1.392 . S
C229 H252 0.930 . S
C230 C229 1.392 . S
C230 C231 1.398 . S
C230 H253 0.929 . S
C231 C230 1.398 . S
C231 C232 1.352 . S
C232 C231 1.352 . S
C232 C233 1.384 . S
C232 H254 0.930 . S
C233 C228 1.407 . S
C233 C232 1.384 . S
C233 H255 0.929 . S
C234 O244 1.241 . S
C234 O245 1.273 . S
C235 O246 1.251 1_554 S
C235 O247 1.268 . S
O236 Nd216 2.507 . S
O236 C218 1.258 . S
O237 Nd216 2.494 . S
O237 C218 1.239 . S
O238 Nd216 2.479 1_455 S
O238 C225 1.241 . S
O239 Nd216 2.675 1_455 S
O239 Nd217 2.414 1_554 S
O239 C225 1.273 . S
O240 Nd216 2.410 1_455 S
O240 C226 1.251 1_554 S
O241 Nd217 2.424 . S
O241 C226 1.268 . S
O242 Nd217 2.500 . S
O242 C227 1.258 . S
O243 Nd217 2.492 . S
O243 C227 1.239 . S
O244 Nd217 2.487 1_655 S
O244 C234 1.241 . S
O245 Nd216 2.417 1_556 S
O245 Nd217 2.682 1_655 S
O245 C234 1.273 . S
O246 Nd217 2.410 . S
O246 C235 1.251 1_556 S
O247 Nd216 2.421 1_455 S
O247 C235 1.268 . S
H248 C220 0.930 . S
H249 C221 0.929 . S
H250 C223 0.930 . S
H251 C224 0.929 . S
H252 C229 0.930 . S
H253 C230 0.929 . S
H254 C232 0.930 . S
H255 C233 0.929 . S
C256 C257 1.391 . S
C256 C258 1.394 . S
C256 H272 0.931 . S
C257 C256 1.391 . S
C257 C261 1.376 . S
C258 C256 1.394 . S
C258 C259 1.369 . S
C258 C262 1.531 . S
C259 C258 1.369 . S
C259 C260 1.410 . S
C259 C267 1.503 . S
C260 C259 1.410 . S
C260 C261 1.392 . S
C260 C263 1.511 . S
C261 C257 1.376 . S
C261 C260 1.392 . S
C261 H273 0.929 . S
C262 C258 1.531 . S
C262 H274 0.960 . S
C262 H275 0.962 . S
C262 H276 0.960 . S
C263 C260 1.511 . S
C263 H277 0.961 . S
C263 H278 0.961 . S
C263 H279 0.961 . S
C264 C265 1.370 . S
C264 C266 1.363 . S
C264 H280 0.931 . S
C265 C264 1.370 . S
C265 C269 1.408 . S
C266 C264 1.363 . S
C266 C267 1.370 . S
C266 C270 1.524 . S
C267 C259 1.503 . S
C267 C266 1.370 . S
C267 C268 1.403 . S
C268 C267 1.403 . S
C268 C269 1.404 . S
C268 C271 1.539 . S
C269 C265 1.408 . S
C269 C268 1.404 . S
C269 H281 0.930 . S
C270 C266 1.524 . S
C270 H282 0.956 . S
C270 H283 0.961 . S
C270 H284 0.961 . S
C271 C268 1.539 . S
C271 H285 0.958 . S
C271 H286 0.961 . S
C271 H287 0.960 . S
H272 C256 0.931 . S
H273 C261 0.929 . S
H274 C262 0.960 . S
H275 C262 0.962 . S
H276 C262 0.960 . S
H277 C263 0.961 . S
H278 C263 0.961 . S
H279 C263 0.961 . S
H280 C264 0.931 . S
H281 C269 0.930 . S
H282 C270 0.956 . S
H283 C270 0.961 . S
H284 C270 0.961 . S
H285 C271 0.958 . S
H286 C271 0.961 . S
H287 C271 0.960 . S
C288 C289 1.391 . S
C288 C290 1.394 . S
C288 H304 0.931 . S
C289 C288 1.391 . S
C289 C293 1.376 . S
C290 C288 1.394 . S
C290 C291 1.369 . S
C290 C294 1.531 . S
C291 C290 1.369 . S
C291 C292 1.410 . S
C291 C299 1.503 . S
C292 C291 1.410 . S
C292 C293 1.392 . S
C292 C295 1.511 . S
C293 C289 1.376 . S
C293 C292 1.392 . S
C293 H305 0.929 . S
C294 C290 1.531 . S
C294 H306 0.960 . S
C294 H307 0.962 . S
C294 H308 0.960 . S
C295 C292 1.511 . S
C295 H309 0.961 . S
C295 H310 0.961 . S
C295 H311 0.961 . S
C296 C297 1.370 . S
C296 C298 1.363 . S
C296 H312 0.931 . S
C297 C296 1.370 . S
C297 C301 1.408 . S
C298 C296 1.363 . S
C298 C299 1.370 . S
C298 C302 1.524 . S
C299 C291 1.503 . S
C299 C298 1.370 . S
C299 C300 1.403 . S
C300 C299 1.403 . S
C300 C301 1.404 . S
C300 C303 1.539 . S
C301 C297 1.408 . S
C301 C300 1.404 . S
C301 H313 0.930 . S
C302 C298 1.524 . S
C302 H314 0.956 . S
C302 H315 0.961 . S
C302 H316 0.961 . S
C303 C300 1.539 . S
C303 H317 0.958 . S
C303 H318 0.961 . S
C303 H319 0.960 . S
H304 C288 0.931 . S
H305 C293 0.929 . S
H306 C294 0.960 . S
H307 C294 0.962 . S
H308 C294 0.960 . S
H309 C295 0.961 . S
H310 C295 0.961 . S
H311 C295 0.961 . S
H312 C296 0.931 . S
H313 C301 0.930 . S
H314 C302 0.956 . S
H315 C302 0.961 . S
H316 C302 0.961 . S
H317 C303 0.958 . S
H318 C303 0.961 . S
H319 C303 0.960 . S
C320 C321 1.391 . S
C320 C322 1.394 . S
C320 H336 0.931 . S
C321 C320 1.391 . S
C321 C325 1.376 . S
C322 C320 1.394 . S
C322 C323 1.369 . S
C322 C326 1.531 . S
C323 C322 1.369 . S
C323 C324 1.410 . S
C323 C331 1.503 . S
C324 C323 1.410 . S
C324 C325 1.392 . S
C324 C327 1.511 . S
C325 C321 1.376 . S
C325 C324 1.392 . S
C325 H337 0.929 . S
C326 C322 1.531 . S
C326 H338 0.960 . S
C326 H339 0.962 . S
C326 H340 0.960 . S
C327 C324 1.511 . S
C327 H341 0.961 . S
C327 H342 0.961 . S
C327 H343 0.961 . S
C328 C329 1.370 . S
C328 C330 1.363 . S
C328 H344 0.931 . S
C329 C328 1.370 . S
C329 C333 1.408 . S
C330 C328 1.363 . S
C330 C331 1.370 . S
C330 C334 1.524 . S
C331 C323 1.503 . S
C331 C330 1.370 . S
C331 C332 1.403 . S
C332 C331 1.403 . S
C332 C333 1.404 . S
C332 C335 1.539 . S
C333 C329 1.408 . S
C333 C332 1.404 . S
C333 H345 0.930 . S
C334 C330 1.524 . S
C334 H346 0.956 . S
C334 H347 0.961 . S
C334 H348 0.961 . S
C335 C332 1.539 . S
C335 H349 0.958 . S
C335 H350 0.961 . S
C335 H351 0.960 . S
H336 C320 0.931 . S
H337 C325 0.929 . S
H338 C326 0.960 . S
H339 C326 0.962 . S
H340 C326 0.960 . S
H341 C327 0.961 . S
H342 C327 0.961 . S
H343 C327 0.961 . S
H344 C328 0.931 . S
H345 C333 0.930 . S
H346 C334 0.956 . S
H347 C334 0.961 . S
H348 C334 0.961 . S
H349 C335 0.958 . S
H350 C335 0.961 . S
H351 C335 0.960 . S
C352 C353 1.391 . S
C352 C354 1.394 . S
C352 H368 0.931 . S
C353 C352 1.391 . S
C353 C357 1.376 . S
C354 C352 1.394 . S
C354 C355 1.369 . S
C354 C358 1.531 . S
C355 C354 1.369 . S
C355 C356 1.410 . S
C355 C363 1.503 . S
C356 C355 1.410 . S
C356 C357 1.392 . S
C356 C359 1.511 . S
C357 C353 1.376 . S
C357 C356 1.392 . S
C357 H369 0.929 . S
C358 C354 1.531 . S
C358 H370 0.960 . S
C358 H371 0.962 . S
C358 H372 0.960 . S
C359 C356 1.511 . S
C359 H373 0.961 . S
C359 H374 0.961 . S
C359 H375 0.961 . S
C360 C361 1.370 . S
C360 C362 1.363 . S
C360 H376 0.931 . S
C361 C360 1.370 . S
C361 C365 1.408 . S
C362 C360 1.363 . S
C362 C363 1.370 . S
C362 C366 1.524 . S
C363 C355 1.503 . S
C363 C362 1.370 . S
C363 C364 1.403 . S
C364 C363 1.403 . S
C364 C365 1.404 . S
C364 C367 1.539 . S
C365 C361 1.408 . S
C365 C364 1.404 . S
C365 H377 0.930 . S
C366 C362 1.524 . S
C366 H378 0.956 . S
C366 H379 0.961 . S
C366 H380 0.961 . S
C367 C364 1.539 . S
C367 H381 0.958 . S
C367 H382 0.961 . S
C367 H383 0.960 . S
H368 C352 0.931 . S
H369 C357 0.929 . S
H370 C358 0.960 . S
H371 C358 0.962 . S
H372 C358 0.960 . S
H373 C359 0.961 . S
H374 C359 0.961 . S
H375 C359 0.961 . S
H376 C360 0.931 . S
H377 C365 0.930 . S
H378 C366 0.956 . S
H379 C366 0.961 . S
H380 C366 0.961 . S
H381 C367 0.958 . S
H382 C367 0.961 . S
H383 C367 0.960 . S
C384 C385 1.391 . S
C384 C386 1.394 . S
C384 H400 0.931 . S
C385 C384 1.391 . S
C385 C389 1.376 . S
C386 C384 1.394 . S
C386 C387 1.369 . S
C386 C390 1.531 . S
C387 C386 1.369 . S
C387 C388 1.410 . S
C387 C395 1.503 . S
C388 C387 1.410 . S
C388 C389 1.392 . S
C388 C391 1.511 . S
C389 C385 1.376 . S
C389 C388 1.392 . S
C389 H401 0.929 . S
C390 C386 1.531 . S
C390 H402 0.960 . S
C390 H403 0.962 . S
C390 H404 0.960 . S
C391 C388 1.511 . S
C391 H405 0.961 . S
C391 H406 0.961 . S
C391 H407 0.961 . S
C392 C393 1.370 . S
C392 C394 1.363 . S
C392 H408 0.931 . S
C393 C392 1.370 . S
C393 C397 1.408 . S
C394 C392 1.363 . S
C394 C395 1.370 . S
C394 C398 1.524 . S
C395 C387 1.503 . S
C395 C394 1.370 . S
C395 C396 1.403 . S
C396 C395 1.403 . S
C396 C397 1.404 . S
C396 C399 1.539 . S
C397 C393 1.408 . S
C397 C396 1.404 . S
C397 H409 0.930 . S
C398 C394 1.524 . S
C398 H410 0.956 . S
C398 H411 0.961 . S
C398 H412 0.961 . S
C399 C396 1.539 . S
C399 H413 0.958 1_554 S
C399 H414 0.961 1_554 S
C399 H415 0.960 . S
H400 C384 0.931 . S
H401 C389 0.929 . S
H402 C390 0.960 . S
H403 C390 0.962 . S
H404 C390 0.960 . S
H405 C391 0.961 . S
H406 C391 0.961 . S
H407 C391 0.961 . S
H408 C392 0.931 . S
H409 C397 0.930 . S
H410 C398 0.956 . S
H411 C398 0.961 . S
H412 C398 0.961 . S
H413 C399 0.958 1_556 S
H414 C399 0.961 1_556 S
H415 C399 0.960 . S
C416 C417 1.391 . S
C416 C418 1.394 . S
C416 H432 0.931 . S
C417 C416 1.391 . S
C417 C421 1.376 . S
C418 C416 1.394 . S
C418 C419 1.369 . S
C418 C422 1.531 . S
C419 C418 1.369 . S
C419 C420 1.410 . S
C419 C427 1.503 . S
C420 C419 1.410 . S
C420 C421 1.392 . S
C420 C423 1.511 . S
C421 C417 1.376 . S
C421 C420 1.392 . S
C421 H433 0.929 . S
C422 C418 1.531 . S
C422 H434 0.960 . S
C422 H435 0.962 . S
C422 H436 0.960 . S
C423 C420 1.511 . S
C423 H437 0.961 . S
C423 H438 0.961 . S
C423 H439 0.961 . S
C424 C425 1.370 . S
C424 C426 1.363 . S
C424 H440 0.931 . S
C425 C424 1.370 . S
C425 C429 1.408 . S
C426 C424 1.363 . S
C426 C427 1.370 . S
C426 C430 1.524 . S
C427 C419 1.503 . S
C427 C426 1.370 . S
C427 C428 1.403 . S
C428 C427 1.403 . S
C428 C429 1.404 . S
C428 C431 1.539 . S
C429 C425 1.408 . S
C429 C428 1.404 . S
C429 H441 0.930 . S
C430 C426 1.524 . S
C430 H442 0.956 . S
C430 H443 0.961 . S
C430 H444 0.961 . S
C431 C428 1.539 . S
C431 H445 0.958 . S
C431 H446 0.961 . S
C431 H447 0.960 . S
H432 C416 0.931 . S
H433 C421 0.929 . S
H434 C422 0.960 . S
H435 C422 0.962 . S
H436 C422 0.960 . S
H437 C423 0.961 . S
H438 C423 0.961 . S
H439 C423 0.961 . S
H440 C424 0.931 . S
H441 C429 0.930 . S
H442 C430 0.956 . S
H443 C430 0.961 . S
H444 C430 0.961 . S
H445 C431 0.958 . S
H446 C431 0.961 . S
H447 C431 0.960 . S
C448 C449 1.391 . S
C448 C450 1.394 . S
C448 H464 0.931 . S
C449 C448 1.391 . S
C449 C453 1.376 . S
C450 C448 1.394 . S
C450 C451 1.369 . S
C450 C454 1.531 . S
C451 C450 1.369 . S
C451 C452 1.410 . S
C451 C459 1.503 . S
C452 C451 1.410 . S
C452 C453 1.392 . S
C452 C455 1.511 . S
C453 C449 1.376 . S
C453 C452 1.392 . S
C453 H465 0.929 . S
C454 C450 1.531 . S
C454 H466 0.960 . S
C454 H467 0.962 . S
C454 H468 0.960 . S
C455 C452 1.511 . S
C455 H469 0.961 . S
C455 H470 0.961 . S
C455 H471 0.961 . S
C456 C457 1.370 . S
C456 C458 1.363 . S
C456 H472 0.931 . S
C457 C456 1.370 . S
C457 C461 1.408 . S
C458 C456 1.363 . S
C458 C459 1.370 . S
C458 C462 1.524 . S
C459 C451 1.503 . S
C459 C458 1.370 . S
C459 C460 1.403 . S
C460 C459 1.403 . S
C460 C461 1.404 . S
C460 C463 1.539 . S
C461 C457 1.408 . S
C461 C460 1.404 . S
C461 H473 0.930 . S
C462 C458 1.524 . S
C462 H474 0.956 . S
C462 H475 0.961 . S
C462 H476 0.961 . S
C463 C460 1.539 . S
C463 H477 0.958 . S
C463 H478 0.961 . S
C463 H479 0.960 . S
H464 C448 0.931 . S
H465 C453 0.929 . S
H466 C454 0.960 . S
H467 C454 0.962 . S
H468 C454 0.960 . S
H469 C455 0.961 . S
H470 C455 0.961 . S
H471 C455 0.961 . S
H472 C456 0.931 . S
H473 C461 0.930 . S
H474 C462 0.956 . S
H475 C462 0.961 . S
H476 C462 0.961 . S
H477 C463 0.958 . S
H478 C463 0.961 . S
H479 C463 0.960 . S
C480 C481 1.391 . S
C480 C482 1.394 . S
C480 H496 0.931 . S
C481 C480 1.391 . S
C481 C485 1.376 . S
C482 C480 1.394 . S
C482 C483 1.369 . S
C482 C486 1.531 . S
C483 C482 1.369 . S
C483 C484 1.410 . S
C483 C491 1.503 . S
C484 C483 1.410 . S
C484 C485 1.392 . S
C484 C487 1.511 . S
C485 C481 1.376 . S
C485 C484 1.392 . S
C485 H497 0.929 . S
C486 C482 1.531 . S
C486 H498 0.960 . S
C486 H499 0.962 . S
C486 H500 0.960 . S
C487 C484 1.511 . S
C487 H501 0.961 . S
C487 H502 0.961 . S
C487 H503 0.961 . S
C488 C489 1.370 . S
C488 C490 1.363 . S
C488 H504 0.931 . S
C489 C488 1.370 . S
C489 C493 1.408 . S
C490 C488 1.363 . S
C490 C491 1.370 . S
C490 C494 1.524 . S
C491 C483 1.503 . S
C491 C490 1.370 . S
C491 C492 1.403 . S
C492 C491 1.403 . S
C492 C493 1.404 . S
C492 C495 1.539 . S
C493 C489 1.408 . S
C493 C492 1.404 . S
C493 H505 0.930 . S
C494 C490 1.524 . S
C494 H506 0.956 . S
C494 H507 0.961 . S
C494 H508 0.961 . S
C495 C492 1.539 . S
C495 H509 0.958 . S
C495 H510 0.961 . S
C495 H511 0.960 . S
H496 C480 0.931 . S
H497 C485 0.929 . S
H498 C486 0.960 . S
H499 C486 0.962 . S
H500 C486 0.960 . S
H501 C487 0.961 . S
H502 C487 0.961 . S
H503 C487 0.961 . S
H504 C488 0.931 . S
H505 C493 0.930 . S
H506 C494 0.956 . S
H507 C494 0.961 . S
H508 C494 0.961 . S
H509 C495 0.958 . S
H510 C495 0.961 . S
H511 C495 0.960 . S
C512 C513 1.391 . S
C512 C514 1.394 . S
C512 H528 0.931 . S
C513 C512 1.391 . S
C513 C517 1.376 . S
C514 C512 1.394 . S
C514 C515 1.369 . S
C514 C518 1.531 . S
C515 C514 1.369 . S
C515 C516 1.410 . S
C515 C523 1.503 . S
C516 C515 1.410 . S
C516 C517 1.392 . S
C516 C519 1.511 . S
C517 C513 1.376 . S
C517 C516 1.392 . S
C517 H529 0.929 . S
C518 C514 1.531 . S
C518 H530 0.960 . S
C518 H531 0.962 . S
C518 H532 0.960 . S
C519 C516 1.511 . S
C519 H533 0.961 . S
C519 H534 0.961 . S
C519 H535 0.961 . S
C520 C521 1.370 . S
C520 C522 1.363 . S
C520 H536 0.931 1_554 S
C521 C520 1.370 . S
C521 C525 1.408 . S
C522 C520 1.363 . S
C522 C523 1.370 . S
C522 C526 1.524 1_554 S
C523 C515 1.503 . S
C523 C522 1.370 . S
C523 C524 1.403 . S
C524 C523 1.403 . S
C524 C525 1.404 . S
C524 C527 1.539 . S
C525 C521 1.408 . S
C525 C524 1.404 . S
C525 H537 0.930 . S
C526 C522 1.524 1_556 S
C526 H538 0.956 1_556 S
C526 H539 0.961 . S
C526 H540 0.961 . S
C527 C524 1.539 . S
C527 H541 0.958 . S
C527 H542 0.961 . S
C527 H543 0.960 . S
H528 C512 0.931 . S
H529 C517 0.929 . S
H530 C518 0.960 . S
H531 C518 0.962 . S
H532 C518 0.960 . S
H533 C519 0.961 . S
H534 C519 0.961 . S
H535 C519 0.961 . S
H536 C520 0.931 1_556 S
H537 C525 0.930 . S
H538 C526 0.956 1_554 S
H539 C526 0.961 . S
H540 C526 0.961 . S
H541 C527 0.958 . S
H542 C527 0.961 . S
H543 C527 0.960 . S
C544 C545 1.391 . S
C544 C546 1.394 . S
C544 H560 0.931 . S
C545 C544 1.391 . S
C545 C549 1.376 . S
C546 C544 1.394 . S
C546 C547 1.369 . S
C546 C550 1.531 . S
C547 C546 1.369 . S
C547 C548 1.410 . S
C547 C555 1.503 . S
C548 C547 1.410 . S
C548 C549 1.392 . S
C548 C551 1.511 . S
C549 C545 1.376 . S
C549 C548 1.392 . S
C549 H561 0.929 . S
C550 C546 1.531 . S
C550 H562 0.960 . S
C550 H563 0.962 . S
C550 H564 0.960 . S
C551 C548 1.511 . S
C551 H565 0.961 . S
C551 H566 0.961 . S
C551 H567 0.961 . S
C552 C553 1.370 . S
C552 C554 1.363 . S
C552 H568 0.931 . S
C553 C552 1.370 . S
C553 C557 1.408 . S
C554 C552 1.363 . S
C554 C555 1.370 . S
C554 C558 1.524 . S
C555 C547 1.503 . S
C555 C554 1.370 . S
C555 C556 1.403 . S
C556 C555 1.403 . S
C556 C557 1.404 . S
C556 C559 1.539 . S
C557 C553 1.408 . S
C557 C556 1.404 . S
C557 H569 0.930 . S
C558 C554 1.524 . S
C558 H570 0.956 . S
C558 H571 0.961 . S
C558 H572 0.961 . S
C559 C556 1.539 . S
C559 H573 0.958 . S
C559 H574 0.961 . S
C559 H575 0.960 . S
H560 C544 0.931 . S
H561 C549 0.929 . S
H562 C550 0.960 . S
H563 C550 0.962 . S
H564 C550 0.960 . S
H565 C551 0.961 . S
H566 C551 0.961 . S
H567 C551 0.961 . S
H568 C552 0.931 . S
H569 C557 0.930 . S
H570 C558 0.956 . S
H571 C558 0.961 . S
H572 C558 0.961 . S
H573 C559 0.958 . S
H574 C559 0.961 . S
H575 C559 0.960 . S
C576 C577 1.391 . S
C576 C578 1.394 . S
C576 H592 0.931 . S
C577 C576 1.391 . S
C577 C581 1.376 . S
C578 C576 1.394 . S
C578 C579 1.369 . S
C578 C582 1.531 . S
C579 C578 1.369 . S
C579 C580 1.410 . S
C579 C587 1.503 . S
C580 C579 1.410 . S
C580 C581 1.392 . S
C580 C583 1.511 . S
C581 C577 1.376 . S
C581 C580 1.392 . S
C581 H593 0.929 . S
C582 C578 1.531 . S
C582 H594 0.960 . S
C582 H595 0.962 . S
C582 H596 0.960 . S
C583 C580 1.511 . S
C583 H597 0.961 . S
C583 H598 0.961 . S
C583 H599 0.961 . S
C584 C585 1.370 . S
C584 C586 1.363 . S
C584 H600 0.931 . S
C585 C584 1.370 . S
C585 C589 1.408 . S
C586 C584 1.363 . S
C586 C587 1.370 . S
C586 C590 1.524 . S
C587 C579 1.503 . S
C587 C586 1.370 . S
C587 C588 1.403 . S
C588 C587 1.403 . S
C588 C589 1.404 . S
C588 C591 1.539 . S
C589 C585 1.408 . S
C589 C588 1.404 . S
C589 H601 0.930 . S
C590 C586 1.524 . S
C590 H602 0.956 . S
C590 H603 0.961 . S
C590 H604 0.961 . S
C591 C588 1.539 . S
C591 H605 0.958 . S
C591 H606 0.961 . S
C591 H607 0.960 . S
H592 C576 0.931 . S
H593 C581 0.929 . S
H594 C582 0.960 . S
H595 C582 0.962 . S
H596 C582 0.960 . S
H597 C583 0.961 . S
H598 C583 0.961 . S
H599 C583 0.961 . S
H600 C584 0.931 . S
H601 C589 0.930 . S
H602 C590 0.956 . S
H603 C590 0.961 . S
H604 C590 0.961 . S
H605 C591 0.958 . S
H606 C591 0.961 . S
H607 C591 0.960 . S
C608 C609 1.391 . S
C608 C610 1.394 . S
C608 H624 0.931 . S
C609 C608 1.391 . S
C609 C613 1.376 . S
C610 C608 1.394 . S
C610 C611 1.369 . S
C610 C614 1.531 . S
C611 C610 1.369 . S
C611 C612 1.410 . S
C611 C619 1.503 . S
C612 C611 1.410 . S
C612 C613 1.392 . S
C612 C615 1.511 . S
C613 C609 1.376 . S
C613 C612 1.392 . S
C613 H625 0.929 . S
C614 C610 1.531 . S
C614 H626 0.960 . S
C614 H627 0.962 . S
C614 H628 0.960 . S
C615 C612 1.511 . S
C615 H629 0.961 . S
C615 H630 0.961 . S
C615 H631 0.961 . S
C616 C617 1.370 . S
C616 C618 1.363 . S
C616 H632 0.931 . S
C617 C616 1.370 . S
C617 C621 1.408 . S
C618 C616 1.363 . S
C618 C619 1.370 . S
C618 C622 1.524 . S
C619 C611 1.503 . S
C619 C618 1.370 . S
C619 C620 1.403 . S
C620 C619 1.403 . S
C620 C621 1.404 . S
C620 C623 1.539 . S
C621 C617 1.408 . S
C621 C620 1.404 . S
C621 H633 0.930 . S
C622 C618 1.524 . S
C622 H634 0.956 . S
C622 H635 0.961 . S
C622 H636 0.961 . S
C623 C620 1.539 . S
C623 H637 0.958 . S
C623 H638 0.961 . S
C623 H639 0.960 . S
H624 C608 0.931 . S
H625 C613 0.929 . S
H626 C614 0.960 . S
H627 C614 0.962 . S
H628 C614 0.960 . S
H629 C615 0.961 . S
H630 C615 0.961 . S
H631 C615 0.961 . S
H632 C616 0.931 . S
H633 C621 0.930 . S
H634 C622 0.956 . S
H635 C622 0.961 . S
H636 C622 0.961 . S
H637 C623 0.958 . S
H638 C623 0.961 . S
H639 C623 0.960 . S
C640 C641 1.391 . S
C640 C642 1.394 . S
C640 H656 0.931 . S
C641 C640 1.391 . S
C641 C645 1.376 . S
C642 C640 1.394 . S
C642 C643 1.369 . S
C642 C646 1.531 . S
C643 C642 1.369 . S
C643 C644 1.410 . S
C643 C651 1.503 . S
C644 C643 1.410 . S
C644 C645 1.392 . S
C644 C647 1.511 . S
C645 C641 1.376 . S
C645 C644 1.392 . S
C645 H657 0.929 . S
C646 C642 1.531 . S
C646 H658 0.960 . S
C646 H659 0.962 . S
C646 H660 0.960 . S
C647 C644 1.511 . S
C647 H661 0.961 . S
C647 H662 0.961 . S
C647 H663 0.961 . S
C648 C649 1.370 . S
C648 C650 1.363 . S
C648 H664 0.931 . S
C649 C648 1.370 . S
C649 C653 1.408 . S
C650 C648 1.363 . S
C650 C651 1.370 . S
C650 C654 1.524 . S
C651 C643 1.503 . S
C651 C650 1.370 . S
C651 C652 1.403 . S
C652 C651 1.403 . S
C652 C653 1.404 . S
C652 C655 1.539 . S
C653 C649 1.408 . S
C653 C652 1.404 . S
C653 H665 0.930 . S
C654 C650 1.524 . S
C654 H666 0.956 . S
C654 H667 0.961 . S
C654 H668 0.961 1_565 S
C655 C652 1.539 . S
C655 H669 0.958 . S
C655 H670 0.961 . S
C655 H671 0.960 . S
H656 C640 0.931 . S
H657 C645 0.929 . S
H658 C646 0.960 . S
H659 C646 0.962 . S
H660 C646 0.960 . S
H661 C647 0.961 . S
H662 C647 0.961 . S
H663 C647 0.961 . S
H664 C648 0.931 . S
H665 C653 0.930 . S
H666 C654 0.956 . S
H667 C654 0.961 . S
H668 C654 0.961 1_545 S
H669 C655 0.958 . S
H670 C655 0.961 . S
H671 C655 0.960 . S
C672 C673 1.391 . S
C672 C674 1.394 . S
C672 H688 0.931 . S
C673 C672 1.391 . S
C673 C677 1.376 . S
C674 C672 1.394 . S
C674 C675 1.369 . S
C674 C678 1.531 . S
C675 C674 1.369 . S
C675 C676 1.410 . S
C675 C683 1.503 . S
C676 C675 1.410 . S
C676 C677 1.392 . S
C676 C679 1.511 . S
C677 C673 1.376 . S
C677 C676 1.392 . S
C677 H689 0.929 . S
C678 C674 1.531 . S
C678 H690 0.960 . S
C678 H691 0.962 . S
C678 H692 0.960 . S
C679 C676 1.511 . S
C679 H693 0.961 . S
C679 H694 0.961 . S
C679 H695 0.961 . S
C680 C681 1.370 . S
C680 C682 1.363 . S
C680 H696 0.931 . S
C681 C680 1.370 . S
C681 C685 1.408 . S
C682 C680 1.363 . S
C682 C683 1.370 . S
C682 C686 1.524 . S
C683 C675 1.503 . S
C683 C682 1.370 . S
C683 C684 1.403 . S
C684 C683 1.403 . S
C684 C685 1.404 . S
C684 C687 1.539 . S
C685 C681 1.408 . S
C685 C684 1.404 . S
C685 H697 0.930 . S
C686 C682 1.524 . S
C686 H698 0.956 . S
C686 H699 0.961 . S
C686 H700 0.961 . S
C687 C684 1.539 . S
C687 H701 0.958 . S
C687 H702 0.961 . S
C687 H703 0.960 . S
H688 C672 0.931 . S
H689 C677 0.929 . S
H690 C678 0.960 . S
H691 C678 0.962 . S
H692 C678 0.960 . S
H693 C679 0.961 . S
H694 C679 0.961 . S
H695 C679 0.961 . S
H696 C680 0.931 . S
H697 C685 0.930 . S
H698 C686 0.956 . S
H699 C686 0.961 . S
H700 C686 0.961 . S
H701 C687 0.958 . S
H702 C687 0.961 . S
H703 C687 0.960 . S
C704 C705 1.391 . S
C704 C706 1.394 . S
C704 H720 0.931 . S
C705 C704 1.391 . S
C705 C709 1.376 . S
C706 C704 1.394 . S
C706 C707 1.369 . S
C706 C710 1.531 . S
C707 C706 1.369 . S
C707 C708 1.410 . S
C707 C715 1.503 . S
C708 C707 1.410 . S
C708 C709 1.392 . S
C708 C711 1.511 . S
C709 C705 1.376 . S
C709 C708 1.392 . S
C709 H721 0.929 . S
C710 C706 1.531 . S
C710 H722 0.960 . S
C710 H723 0.962 . S
C710 H724 0.960 . S
C711 C708 1.511 . S
C711 H725 0.961 . S
C711 H726 0.961 . S
C711 H727 0.961 . S
C712 C713 1.370 . S
C712 C714 1.363 . S
C712 H728 0.931 . S
C713 C712 1.370 . S
C713 C717 1.408 . S
C714 C712 1.363 . S
C714 C715 1.370 . S
C714 C718 1.524 . S
C715 C707 1.503 . S
C715 C714 1.370 . S
C715 C716 1.403 . S
C716 C715 1.403 . S
C716 C717 1.404 . S
C716 C719 1.539 . S
C717 C713 1.408 . S
C717 C716 1.404 . S
C717 H729 0.930 . S
C718 C714 1.524 . S
C718 H730 0.956 . S
C718 H731 0.961 . S
C718 H732 0.961 . S
C719 C716 1.539 . S
C719 H733 0.958 . S
C719 H734 0.961 . S
C719 H735 0.960 . S
H720 C704 0.931 . S
H721 C709 0.929 . S
H722 C710 0.960 . S
H723 C710 0.962 . S
H724 C710 0.960 . S
H725 C711 0.961 . S
H726 C711 0.961 . S
H727 C711 0.961 . S
H728 C712 0.931 . S
H729 C717 0.930 . S
H730 C718 0.956 . S
H731 C718 0.961 . S
H732 C718 0.961 . S
H733 C719 0.958 . S
H734 C719 0.961 . S
H735 C719 0.960 . S
C736 C737 1.391 . S
C736 C738 1.394 . S
C736 H752 0.931 . S
C737 C736 1.391 . S
C737 C741 1.376 . S
C738 C736 1.394 . S
C738 C739 1.369 . S
C738 C742 1.531 . S
C739 C738 1.369 . S
C739 C740 1.410 . S
C739 C747 1.503 . S
C740 C739 1.410 . S
C740 C741 1.392 . S
C740 C743 1.511 . S
C741 C737 1.376 . S
C741 C740 1.392 . S
C741 H753 0.929 . S
C742 C738 1.531 . S
C742 H754 0.960 . S
C742 H755 0.962 . S
C742 H756 0.960 . S
C743 C740 1.511 . S
C743 H757 0.961 . S
C743 H758 0.961 . S
C743 H759 0.961 . S
C744 C745 1.370 . S
C744 C746 1.363 . S
C744 H760 0.931 . S
C745 C744 1.370 . S
C745 C749 1.408 . S
C746 C744 1.363 . S
C746 C747 1.370 . S
C746 C750 1.524 . S
C747 C739 1.503 . S
C747 C746 1.370 . S
C747 C748 1.403 . S
C748 C747 1.403 . S
C748 C749 1.404 . S
C748 C751 1.539 . S
C749 C745 1.408 . S
C749 C748 1.404 . S
C749 H761 0.930 . S
C750 C746 1.524 . S
C750 H762 0.956 . S
C750 H763 0.961 . S
C750 H764 0.961 . S
C751 C748 1.539 . S
C751 H765 0.958 . S
C751 H766 0.961 . S
C751 H767 0.960 . S
H752 C736 0.931 . S
H753 C741 0.929 . S
H754 C742 0.960 . S
H755 C742 0.962 . S
H756 C742 0.960 . S
H757 C743 0.961 . S
H758 C743 0.961 . S
H759 C743 0.961 . S
H760 C744 0.931 . S
H761 C749 0.930 . S
H762 C750 0.956 . S
H763 C750 0.961 . S
H764 C750 0.961 . S
H765 C751 0.958 . S
H766 C751 0.961 . S
H767 C751 0.960 . S
C768 C769 1.391 . S
C768 C770 1.394 . S
C768 H784 0.931 . S
C769 C768 1.391 . S
C769 C773 1.376 . S
C770 C768 1.394 . S
C770 C771 1.369 . S
C770 C774 1.531 . S
C771 C770 1.369 . S
C771 C772 1.410 . S
C771 C779 1.503 . S
C772 C771 1.410 . S
C772 C773 1.392 . S
C772 C775 1.511 . S
C773 C769 1.376 . S
C773 C772 1.392 . S
C773 H785 0.929 . S
C774 C770 1.531 . S
C774 H786 0.960 . S
C774 H787 0.962 . S
C774 H788 0.960 . S
C775 C772 1.511 . S
C775 H789 0.961 . S
C775 H790 0.961 . S
C775 H791 0.961 . S
C776 C777 1.370 . S
C776 C778 1.363 . S
C776 H792 0.931 . S
C777 C776 1.370 . S
C777 C781 1.408 . S
C778 C776 1.363 . S
C778 C779 1.370 . S
C778 C782 1.524 . S
C779 C771 1.503 . S
C779 C778 1.370 . S
C779 C780 1.403 . S
C780 C779 1.403 . S
C780 C781 1.404 . S
C780 C783 1.539 1_556 S
C781 C777 1.408 . S
C781 C780 1.404 . S
C781 H793 0.930 1_556 S
C782 C778 1.524 . S
C782 H794 0.956 . S
C782 H795 0.961 . S
C782 H796 0.961 . S
C783 C780 1.539 1_554 S
C783 H797 0.958 . S
C783 H798 0.961 . S
C783 H799 0.960 . S
H784 C768 0.931 . S
H785 C773 0.929 . S
H786 C774 0.960 . S
H787 C774 0.962 . S
H788 C774 0.960 . S
H789 C775 0.961 . S
H790 C775 0.961 . S
H791 C775 0.961 . S
H792 C776 0.931 . S
H793 C781 0.930 1_554 S
H794 C782 0.956 . S
H795 C782 0.961 . S
H796 C782 0.961 . S
H797 C783 0.958 . S
H798 C783 0.961 . S
H799 C783 0.960 . S
C800 C801 1.391 . S
C800 C802 1.394 . S
C800 H816 0.931 . S
C801 C800 1.391 . S
C801 C805 1.376 . S
C802 C800 1.394 . S
C802 C803 1.369 . S
C802 C806 1.531 . S
C803 C802 1.369 . S
C803 C804 1.410 . S
C803 C811 1.503 . S
C804 C803 1.410 . S
C804 C805 1.392 . S
C804 C807 1.511 . S
C805 C801 1.376 . S
C805 C804 1.392 . S
C805 H817 0.929 . S
C806 C802 1.531 . S
C806 H818 0.960 . S
C806 H819 0.962 . S
C806 H820 0.960 . S
C807 C804 1.511 . S
C807 H821 0.961 . S
C807 H822 0.961 . S
C807 H823 0.961 . S
C808 C809 1.370 . S
C808 C810 1.363 . S
C808 H824 0.931 . S
C809 C808 1.370 . S
C809 C813 1.408 . S
C810 C808 1.363 . S
C810 C811 1.370 . S
C810 C814 1.524 . S
C811 C803 1.503 . S
C811 C810 1.370 . S
C811 C812 1.403 . S
C812 C811 1.403 . S
C812 C813 1.404 . S
C812 C815 1.539 . S
C813 C809 1.408 . S
C813 C812 1.404 . S
C813 H825 0.930 . S
C814 C810 1.524 . S
C814 H826 0.956 . S
C814 H827 0.961 . S
C814 H828 0.961 . S
C815 C812 1.539 . S
C815 H829 0.958 . S
C815 H830 0.961 . S
C815 H831 0.960 . S
H816 C800 0.931 . S
H817 C805 0.929 . S
H818 C806 0.960 . S
H819 C806 0.962 . S
H820 C806 0.960 . S
H821 C807 0.961 . S
H822 C807 0.961 . S
H823 C807 0.961 . S
H824 C808 0.931 . S
H825 C813 0.930 . S
H826 C814 0.956 . S
H827 C814 0.961 . S
H828 C814 0.961 . S
H829 C815 0.958 . S
H830 C815 0.961 . S
H831 C815 0.960 . S
C832 C833 1.391 . S
C832 C834 1.394 . S
C832 H848 0.931 . S
C833 C832 1.391 . S
C833 C837 1.376 . S
C834 C832 1.394 . S
C834 C835 1.369 . S
C834 C838 1.531 . S
C835 C834 1.369 . S
C835 C836 1.410 . S
C835 C843 1.503 . S
C836 C835 1.410 . S
C836 C837 1.392 . S
C836 C839 1.511 . S
C837 C833 1.376 . S
C837 C836 1.392 . S
C837 H849 0.929 . S
C838 C834 1.531 . S
C838 H850 0.960 . S
C838 H851 0.962 . S
C838 H852 0.960 . S
C839 C836 1.511 . S
C839 H853 0.961 . S
C839 H854 0.961 . S
C839 H855 0.961 . S
C840 C841 1.370 . S
C840 C842 1.363 . S
C840 H856 0.931 . S
C841 C840 1.370 . S
C841 C845 1.408 . S
C842 C840 1.363 . S
C842 C843 1.370 . S
C842 C846 1.524 . S
C843 C835 1.503 . S
C843 C842 1.370 . S
C843 C844 1.403 . S
C844 C843 1.403 . S
C844 C845 1.404 . S
C844 C847 1.539 . S
C845 C841 1.408 . S
C845 C844 1.404 . S
C845 H857 0.930 . S
C846 C842 1.524 . S
C846 H858 0.956 . S
C846 H859 0.961 . S
C846 H860 0.961 . S
C847 C844 1.539 . S
C847 H861 0.958 . S
C847 H862 0.961 . S
C847 H863 0.960 . S
H848 C832 0.931 . S
H849 C837 0.929 . S
H850 C838 0.960 . S
H851 C838 0.962 . S
H852 C838 0.960 . S
H853 C839 0.961 . S
H854 C839 0.961 . S
H855 C839 0.961 . S
H856 C840 0.931 . S
H857 C845 0.930 . S
H858 C846 0.956 . S
H859 C846 0.961 . S
H860 C846 0.961 . S
H861 C847 0.958 . S
H862 C847 0.961 . S
H863 C847 0.960 . S
C864 C865 1.391 . S
C864 C866 1.394 . S
C864 H880 0.931 . S
C865 C864 1.391 . S
C865 C869 1.376 . S
C866 C864 1.394 . S
C866 C867 1.369 . S
C866 C870 1.531 . S
C867 C866 1.369 . S
C867 C868 1.410 . S
C867 C875 1.503 . S
C868 C867 1.410 . S
C868 C869 1.392 . S
C868 C871 1.511 . S
C869 C865 1.376 . S
C869 C868 1.392 . S
C869 H881 0.929 . S
C870 C866 1.531 . S
C870 H882 0.960 . S
C870 H883 0.962 . S
C870 H884 0.960 . S
C871 C868 1.511 . S
C871 H885 0.961 . S
C871 H886 0.961 . S
C871 H887 0.961 . S
C872 C873 1.370 . S
C872 C874 1.363 . S
C872 H888 0.931 . S
C873 C872 1.370 . S
C873 C877 1.408 . S
C874 C872 1.363 . S
C874 C875 1.370 . S
C874 C878 1.524 . S
C875 C867 1.503 . S
C875 C874 1.370 . S
C875 C876 1.403 . S
C876 C875 1.403 . S
C876 C877 1.404 . S
C876 C879 1.539 . S
C877 C873 1.408 . S
C877 C876 1.404 . S
C877 H889 0.930 . S
C878 C874 1.524 . S
C878 H890 0.956 . S
C878 H891 0.961 . S
C878 H892 0.961 . S
C879 C876 1.539 . S
C879 H893 0.958 . S
C879 H894 0.961 . S
C879 H895 0.960 . S
H880 C864 0.931 . S
H881 C869 0.929 . S
H882 C870 0.960 . S
H883 C870 0.962 . S
H884 C870 0.960 . S
H885 C871 0.961 . S
H886 C871 0.961 . S
H887 C871 0.961 . S
H888 C872 0.931 . S
H889 C877 0.930 . S
H890 C878 0.956 . S
H891 C878 0.961 . S
H892 C878 0.961 . S
H893 C879 0.958 . S
H894 C879 0.961 . S
H895 C879 0.960 . S
C896 C897 1.391 . S
C896 C898 1.394 . S
C896 H912 0.931 . S
C897 C896 1.391 . S
C897 C901 1.376 . S
C898 C896 1.394 . S
C898 C899 1.369 . S
C898 C902 1.531 . S
C899 C898 1.369 . S
C899 C900 1.410 . S
C899 C907 1.503 . S
C900 C899 1.410 . S
C900 C901 1.392 . S
C900 C903 1.511 . S
C901 C897 1.376 . S
C901 C900 1.392 . S
C901 H913 0.929 . S
C902 C898 1.531 . S
C902 H914 0.960 . S
C902 H915 0.962 . S
C902 H916 0.960 . S
C903 C900 1.511 . S
C903 H917 0.946 1_556 S
C903 H918 0.961 . S
C903 H919 0.961 . S
C904 C905 1.370 . S
C904 C906 1.363 . S
C904 H920 0.931 1_556 S
C905 C904 1.370 . S
C905 C909 1.408 . S
C906 C904 1.363 . S
C906 C907 1.370 . S
C906 C910 1.540 . S
C907 C899 1.503 . S
C907 C906 1.370 . S
C907 C908 1.403 . S
C908 C907 1.403 . S
C908 C909 1.404 . S
C908 C911 1.539 . S
C909 C905 1.408 . S
C909 C908 1.404 . S
C909 H921 0.930 1_655 S
C910 C906 1.540 . S
C910 H922 0.976 . S
C910 H923 0.953 1_556 S
C910 H924 0.933 1_556 S
C911 C908 1.539 . S
C911 H925 0.958 . S
C911 H926 0.961 1_655 S
C911 H927 0.960 . S
H912 C896 0.931 . S
H913 C901 0.929 . S
H914 C902 0.960 . S
H915 C902 0.962 . S
H916 C902 0.960 . S
H917 C903 0.946 1_554 S
H918 C903 0.961 . S
H919 C903 0.961 . S
H920 C904 0.931 1_554 S
H921 C909 0.930 1_455 S
H922 C910 0.976 . S
H923 C910 0.953 1_554 S
H924 C910 0.933 1_554 S
H925 C911 0.958 . S
H926 C911 0.961 1_455 S
H927 C911 0.960 . S
C928 C929 1.391 . S
C928 C930 1.394 . S
C928 H944 0.931 . S
C929 C928 1.391 . S
C929 C933 1.376 . S
C930 C928 1.394 . S
C930 C931 1.369 . S
C930 C934 1.531 . S
C931 C930 1.369 . S
C931 C932 1.410 . S
C931 C939 1.503 . S
C932 C931 1.410 . S
C932 C933 1.392 . S
C932 C935 1.511 . S
C933 C929 1.376 . S
C933 C932 1.392 . S
C933 H945 0.929 . S
C934 C930 1.531 . S
C934 H946 0.960 . S
C934 H947 0.962 . S
C934 H948 0.960 . S
C935 C932 1.511 . S
C935 H949 0.961 . S
C935 H950 0.961 . S
C935 H951 0.961 . S
C936 C937 1.370 . S
C936 C938 1.363 . S
C936 H952 0.931 . S
C937 C936 1.370 . S
C937 C941 1.408 . S
C938 C936 1.363 . S
C938 C939 1.370 . S
C938 C942 1.524 . S
C939 C931 1.503 . S
C939 C938 1.370 . S
C939 C940 1.403 . S
C940 C939 1.403 . S
C940 C941 1.404 . S
C940 C943 1.539 . S
C941 C937 1.408 . S
C941 C940 1.404 . S
C941 H953 0.930 . S
C942 C938 1.524 . S
C942 H954 0.956 . S
C942 H955 0.961 . S
C942 H956 0.961 . S
C943 C940 1.539 . S
C943 H957 0.958 . S
C943 H958 0.961 . S
C943 H959 0.960 . S
H944 C928 0.931 . S
H945 C933 0.929 . S
H946 C934 0.960 . S
H947 C934 0.962 . S
H948 C934 0.960 . S
H949 C935 0.961 . S
H950 C935 0.961 . S
H951 C935 0.961 . S
H952 C936 0.931 . S
H953 C941 0.930 . S
H954 C942 0.956 . S
H955 C942 0.961 . S
H956 C942 0.961 . S
H957 C943 0.958 . S
H958 C943 0.961 . S
H959 C943 0.960 . S
C960 C961 1.391 . S
C960 C962 1.394 . S
C960 H976 0.931 . S
C961 C960 1.391 . S
C961 C965 1.376 . S
C962 C960 1.394 . S
C962 C963 1.369 . S
C962 C966 1.531 . S
C963 C962 1.369 . S
C963 C964 1.410 . S
C963 C971 1.503 . S
C964 C963 1.410 . S
C964 C965 1.392 . S
C964 C967 1.511 . S
C965 C961 1.376 . S
C965 C964 1.392 . S
C965 H977 0.929 . S
C966 C962 1.531 . S
C966 H978 0.960 . S
C966 H979 0.962 . S
C966 H980 0.960 . S
C967 C964 1.511 . S
C967 H981 0.961 . S
C967 H982 0.961 . S
C967 H983 0.961 . S
C968 C969 1.370 . S
C968 C970 1.363 . S
C968 H984 0.931 . S
C969 C968 1.370 . S
C969 C973 1.408 . S
C970 C968 1.363 . S
C970 C971 1.370 . S
C970 C974 1.524 . S
C971 C963 1.503 . S
C971 C970 1.370 . S
C971 C972 1.403 . S
C972 C971 1.403 . S
C972 C973 1.404 . S
C972 C975 1.539 . S
C973 C969 1.408 . S
C973 C972 1.404 . S
C973 H985 0.930 . S
C974 C970 1.524 . S
C974 H986 0.956 . S
C974 H987 0.961 . S
C974 H988 0.961 . S
C975 C972 1.539 . S
C975 H989 0.958 . S
C975 H990 0.961 . S
C975 H991 0.960 . S
H976 C960 0.931 . S
H977 C965 0.929 . S
H978 C966 0.960 . S
H979 C966 0.962 . S
H980 C966 0.960 . S
H981 C967 0.961 . S
H982 C967 0.961 . S
H983 C967 0.961 . S
H984 C968 0.931 . S
H985 C973 0.930 . S
H986 C974 0.956 . S
H987 C974 0.961 . S
H988 C974 0.961 . S
H989 C975 0.958 . S
H990 C975 0.961 . S
H991 C975 0.960 . S
C992 C993 1.391 . S
C992 C994 1.394 . S
C992 H1008 0.931 . S
C993 C992 1.391 . S
C993 C997 1.376 . S
C994 C992 1.394 . S
C994 C995 1.369 . S
C994 C998 1.531 . S
C995 C994 1.369 . S
C995 C996 1.410 . S
C995 C1003 1.503 . S
C996 C995 1.410 . S
C996 C997 1.392 . S
C996 C999 1.511 . S
C997 C993 1.376 . S
C997 C996 1.392 . S
C997 H1009 0.929 . S
C998 C994 1.531 . S
C998 H1010 0.960 . S
C998 H1011 0.962 . S
C998 H1012 0.960 . S
C999 C996 1.511 . S
C999 H1013 0.961 . S
C999 H1014 0.961 . S
C999 H1015 0.961 . S
C1000 C1001 1.370 . S
C1000 C1002 1.363 . S
C1000 H1016 0.931 . S
C1001 C1000 1.370 . S
C1001 C1005 1.408 . S
C1002 C1000 1.363 . S
C1002 C1003 1.370 . S
C1002 C1006 1.524 . S
C1003 C995 1.503 . S
C1003 C1002 1.370 . S
C1003 C1004 1.403 . S
C1004 C1003 1.403 . S
C1004 C1005 1.404 . S
C1004 C1007 1.539 . S
C1005 C1001 1.408 . S
C1005 C1004 1.404 . S
C1005 H1017 0.930 . S
C1006 C1002 1.524 . S
C1006 H1018 0.956 . S
C1006 H1019 0.961 . S
C1006 H1020 0.961 . S
C1007 C1004 1.539 . S
C1007 H1021 0.958 . S
C1007 H1022 0.961 . S
C1007 H1023 0.960 . S
H1008 C992 0.931 . S
H1009 C997 0.929 . S
H1010 C998 0.960 . S
H1011 C998 0.962 . S
H1012 C998 0.960 . S
H1013 C999 0.961 . S
H1014 C999 0.961 . S
H1015 C999 0.961 . S
H1016 C1000 0.931 . S
H1017 C1005 0.930 . S
H1018 C1006 0.956 . S
H1019 C1006 0.961 . S
H1020 C1006 0.961 . S
H1021 C1007 0.958 . S
H1022 C1007 0.961 . S
H1023 C1007 0.960 . S
C257 C6 3.039 . S
C265 C115 3.003 . S
C289 C18 2.366 . S
C297 C146 2.435 . S
C329 C185 1.385 . S
C321 C28 1.406 . S
C353 C40 0.318 . S
C361 C222 0.338 . S
C393 C145 3.086 . S
C385 C9 3.172 . S
C425 C102 1.326 . S
C417 C16 1.318 . S
C457 C234 1.446 . S
C449 C30 1.500 . S
C489 C191 0.953 . S
C481 C42 0.911 . S
C513 C4 2.365 . S
C521 C235 2.369 . S
C553 C151 1.417 . S
C545 C33 1.423 . S
C577 C45 0.218 . S
C585 C114 0.507 . S
C609 C21 2.484 . S
C617 C186 2.489 . S
C649 C106 3.042 . S
C641 C57 3.075 . S
C673 C66 2.284 . S
C681 C155 2.390 . S
C705 C76 1.380 . S
C713 C194 1.370 . S
C737 C88 0.335 . S
C745 C231 0.393 . S
C769 C54 3.122 . S
C777 C154 3.028 . S
C809 C111 1.368 . S
C801 C64 1.361 . S
C841 C225 1.263 . S
C833 C78 1.346 . S
C873 C182 0.974 . S
C865 C93 0.982 . S
C897 C52 2.252 . S
C905 C226 2.291 1_655 S
C937 C142 1.418 . S
C929 C81 1.413 . S
C969 C105 0.536 . S
C961 C90 0.227 . S
C993 C69 2.524 . S
C1001 C195 2.548 . S
