# Generated by pormake.
# Topology pyr, (3,6)-cn, num edge types: 1
# Building blocks:
#     Node 0, Type 0, BuildingBlock: VETTIZ_charged_linker_0, # of connection points: 3
#     Node 1, Type 0, BuildingBlock: VETTIZ_charged_linker_0, # of connection points: 3
#     Node 2, Type 0, BuildingBlock: VETTIZ_charged_linker_0, # of connection points: 3
#     Node 3, Type 0, BuildingBlock: VETTIZ_charged_linker_0, # of connection points: 3
#     Node 4, Type 0, BuildingBlock: VETTIZ_charged_linker_0, # of connection points: 3
#     Node 5, Type 0, BuildingBlock: VETTIZ_charged_linker_0, # of connection points: 3
#     Node 6, Type 0, BuildingBlock: VETTIZ_charged_linker_0, # of connection points: 3
#     Node 7, Type 0, BuildingBlock: VETTIZ_charged_linker_0, # of connection points: 3
#     Node 8, Type 1, BuildingBlock: BETFEN_clean_sbu_0, # of connection points: 6
#     Node 9, Type 1, BuildingBlock: BETFEN_clean_sbu_0, # of connection points: 6
#     Node 10, Type 1, BuildingBlock: BETFEN_clean_sbu_0, # of connection points: 6
#     Node 11, Type 1, BuildingBlock: BETFEN_clean_sbu_0, # of connection points: 6
#     Edge 12, Type (0, 1), BuildingBlock: AJUNOK_clean_linker_0, # of connection points: 2
#     Edge 13, Type (0, 1), BuildingBlock: AJUNOK_clean_linker_0, # of connection points: 2
#     Edge 14, Type (0, 1), BuildingBlock: AJUNOK_clean_linker_0, # of connection points: 2
#     Edge 15, Type (0, 1), BuildingBlock: AJUNOK_clean_linker_0, # of connection points: 2
#     Edge 16, Type (0, 1), BuildingBlock: AJUNOK_clean_linker_0, # of connection points: 2
#     Edge 17, Type (0, 1), BuildingBlock: AJUNOK_clean_linker_0, # of connection points: 2
#     Edge 18, Type (0, 1), BuildingBlock: AJUNOK_clean_linker_0, # of connection points: 2
#     Edge 19, Type (0, 1), BuildingBlock: AJUNOK_clean_linker_0, # of connection points: 2
#     Edge 20, Type (0, 1), BuildingBlock: AJUNOK_clean_linker_0, # of connection points: 2
#     Edge 21, Type (0, 1), BuildingBlock: AJUNOK_clean_linker_0, # of connection points: 2
#     Edge 22, Type (0, 1), BuildingBlock: AJUNOK_clean_linker_0, # of connection points: 2
#     Edge 23, Type (0, 1), BuildingBlock: AJUNOK_clean_linker_0, # of connection points: 2
#     Edge 24, Type (0, 1), BuildingBlock: AJUNOK_clean_linker_0, # of connection points: 2
#     Edge 25, Type (0, 1), BuildingBlock: AJUNOK_clean_linker_0, # of connection points: 2
#     Edge 26, Type (0, 1), BuildingBlock: AJUNOK_clean_linker_0, # of connection points: 2
#     Edge 27, Type (0, 1), BuildingBlock: AJUNOK_clean_linker_0, # of connection points: 2
#     Edge 28, Type (0, 1), BuildingBlock: AJUNOK_clean_linker_0, # of connection points: 2
#     Edge 29, Type (0, 1), BuildingBlock: AJUNOK_clean_linker_0, # of connection points: 2
#     Edge 30, Type (0, 1), BuildingBlock: AJUNOK_clean_linker_0, # of connection points: 2
#     Edge 31, Type (0, 1), BuildingBlock: AJUNOK_clean_linker_0, # of connection points: 2
#     Edge 32, Type (0, 1), BuildingBlock: AJUNOK_clean_linker_0, # of connection points: 2
#     Edge 33, Type (0, 1), BuildingBlock: AJUNOK_clean_linker_0, # of connection points: 2
#     Edge 34, Type (0, 1), BuildingBlock: AJUNOK_clean_linker_0, # of connection points: 2
#     Edge 35, Type (0, 1), BuildingBlock: AJUNOK_clean_linker_0, # of connection points: 2
# Relax obj value: 0.171
# Max RMSD: 0.258
# Mean RMSD: 0.126
data_MOF--net-pyr--node1-BETFEN_clean_sbu_0--node2-VETTIZ_charged_linker_0--edge1-AJUNOK_clean_linker_0
_symmetry_space_group_name_H-M    P1
_symmetry_Int_Tables_number       1
_symmetry_cell_setting            triclinic
loop_
_symmetry_equiv_pos_as_xyz
'x, y, z'
_cell_length_a     35.242668
_cell_length_b     38.381316
_cell_length_c     34.23401
_cell_angle_alpha  90.530481
_cell_angle_beta   97.317615
_cell_angle_gamma 108.2793
loop_
_atom_site_label
_atom_site_type_symbol
_atom_site_fract_x
_atom_site_fract_y
_atom_site_fract_z
_atom_type_partial_charge
C0 C 0.3977 0.29912 0.46066 0.0
C1 C 0.36444 0.30335 0.4765 0.0
C2 C 0.35548 0.33645 0.47132 0.0
C3 C 0.40457 0.35491 0.42576 0.0
C4 C 0.4164 0.32448 0.43429 0.0
C5 C 0.44518 0.31923 0.40758 0.0
H6 H 0.48622 0.3256 0.22712 0.0
C7 C 0.4229 0.37137 0.39106 0.0
C8 C 0.44814 0.35158 0.38113 0.0
H9 H 0.5294 0.27009 0.32371 0.0
H10 H 0.51481 0.31056 0.37045 0.0
H11 H 0.52625 0.40705 0.27107 0.0
H12 H 0.40644 0.33009 0.25632 0.0
H13 H 0.4055 0.37426 0.24281 0.0
H14 H 0.43343 0.35224 0.21742 0.0
H15 H 0.48957 0.40937 0.23073 0.0
H16 H 0.49462 0.43361 0.2776 0.0
C17 C 0.48583 0.32162 0.43271 0.0
C18 C 0.42488 0.28178 0.3842 0.0
C19 C 0.35382 0.4492 0.30875 0.0
C20 C 0.35518 0.45969 0.26956 0.0
C21 C 0.38648 0.45592 0.24977 0.0
C22 C 0.41388 0.43915 0.26755 0.0
C23 C 0.40921 0.42511 0.305 0.0
C24 C 0.38103 0.43194 0.32584 0.0
C25 C 0.38077 0.41526 0.36547 0.0
C26 C 0.41247 0.39604 0.3642 0.0
C27 C 0.4284 0.40146 0.32831 0.0
C28 C 0.39495 0.44698 0.39756 0.0
C29 C 0.33779 0.38801 0.3678 0.0
C30 C 0.49276 0.3224 0.2584 0.0
C31 C 0.50744 0.29389 0.27178 0.0
C32 C 0.5174 0.2914 0.31263 0.0
C33 C 0.50792 0.31394 0.33965 0.0
C34 C 0.48691 0.33778 0.3255 0.0
C35 C 0.483 0.34432 0.28593 0.0
C36 C 0.46342 0.37361 0.2773 0.0
C37 C 0.45311 0.38085 0.31793 0.0
C38 C 0.46523 0.35817 0.34543 0.0
C39 C 0.49484 0.40766 0.26324 0.0
C40 C 0.42518 0.35694 0.24681 0.0
H41 H 0.36693 0.3866 0.44238 0.0
H42 H 0.40633 0.27465 0.46563 0.0
H43 H 0.3948 0.2805 0.36847 0.0
H44 H 0.44263 0.27645 0.362 0.0
H45 H 0.42062 0.25866 0.40421 0.0
H46 H 0.48529 0.32634 0.46462 0.0
H47 H 0.49319 0.29568 0.42994 0.0
H48 H 0.51108 0.34463 0.42424 0.0
H49 H 0.32995 0.45141 0.32468 0.0
H50 H 0.3885 0.46433 0.21978 0.0
H51 H 0.43619 0.4358 0.25064 0.0
H52 H 0.42127 0.4694 0.38975 0.0
H53 H 0.37049 0.45891 0.40074 0.0
H54 H 0.40527 0.43824 0.42658 0.0
H55 H 0.31747 0.38391 0.33934 0.0
H56 H 0.33833 0.36002 0.3747 0.0
H57 H 0.32263 0.39786 0.39005 0.0
H58 H 0.3305 0.34083 0.4838 0.0
C59 C 0.37602 0.36262 0.44658 0.0
C60 C 0.19897 0.89467 0.65653 0.0
C61 C 0.18062 0.91552 0.67697 0.0
C62 C 0.18591 0.91715 0.71842 0.0
C63 C 0.22878 0.87876 0.71888 0.0
C64 C 0.2225 0.87608 0.67813 0.0
C65 C 0.24321 0.8514 0.66171 0.0
H66 H 0.36134 0.74227 0.69797 0.0
C67 C 0.25476 0.85665 0.73262 0.0
C68 C 0.2626 0.83968 0.6994 0.0
H69 H 0.31427 0.77035 0.58426 0.0
H70 H 0.27981 0.80626 0.61614 0.0
H71 H 0.39075 0.81584 0.73282 0.0
H72 H 0.27992 0.7315 0.74253 0.0
H73 H 0.2998 0.75239 0.79002 0.0
H74 H 0.32904 0.73126 0.76403 0.0
H75 H 0.38728 0.78423 0.77133 0.0
H76 H 0.37813 0.82747 0.77786 0.0
C77 C 0.27507 0.87473 0.63709 0.0
C78 C 0.21065 0.81858 0.63815 0.0
C79 C 0.32098 0.87255 0.87448 0.0
C80 C 0.35045 0.85887 0.89408 0.0
C81 C 0.35804 0.82877 0.87664 0.0
C82 C 0.33943 0.81485 0.83865 0.0
C83 C 0.31328 0.83143 0.81781 0.0
C84 C 0.30281 0.85848 0.83641 0.0
C85 C 0.27439 0.87273 0.80959 0.0
C86 C 0.27257 0.85205 0.77094 0.0
C87 C 0.29561 0.8282 0.77597 0.0
C88 C 0.29395 0.91477 0.80724 0.0
C89 C 0.23302 0.86142 0.8253 0.0
C90 C 0.34274 0.7554 0.67992 0.0
C91 C 0.33955 0.75293 0.63871 0.0
C92 C 0.31661 0.77167 0.61613 0.0
C93 C 0.29681 0.79246 0.63471 0.0
C94 C 0.30078 0.79502 0.67621 0.0
C95 C 0.3236 0.77664 0.69794 0.0
C96 C 0.32773 0.78459 0.74149 0.0
C97 C 0.30277 0.81019 0.74267 0.0
C98 C 0.28675 0.8161 0.70448 0.0
C99 C 0.37316 0.80381 0.75696 0.0
C100 C 0.30841 0.7481 0.76086 0.0
H101 H 0.21318 0.90149 0.77099 0.0
H102 H 0.19463 0.89253 0.62459 0.0
H103 H 0.18384 0.8086 0.65392 0.0
H104 H 0.22101 0.79459 0.63447 0.0
H105 H 0.20041 0.82665 0.60857 0.0
H106 H 0.28976 0.90286 0.65103 0.0
H107 H 0.261 0.87754 0.60685 0.0
H108 H 0.30003 0.8635 0.63508 0.0
H109 H 0.31477 0.89585 0.88702 0.0
H110 H 0.38029 0.81752 0.89149 0.0
H111 H 0.34779 0.79304 0.82621 0.0
H112 H 0.32618 0.92141 0.80295 0.0
H113 H 0.29271 0.92964 0.83479 0.0
H114 H 0.27967 0.92634 0.78236 0.0
H115 H 0.22984 0.83857 0.8457 0.0
H116 H 0.20744 0.8508 0.80128 0.0
H117 H 0.22887 0.88476 0.84172 0.0
H118 H 0.17178 0.93298 0.73452 0.0
C119 C 0.20989 0.89888 0.73947 0.0
C120 C 0.59795 0.22748 0.9341 0.0
C121 C 0.56303 0.20233 0.9138 0.0
C122 C 0.54447 0.21353 0.87909 0.0
C123 C 0.59717 0.27353 0.88558 0.0
C124 C 0.61437 0.26204 0.91963 0.0
C125 C 0.65258 0.28972 0.93812 0.0
H126 H 0.8011 0.44885 0.93676 0.0
C127 C 0.62381 0.31145 0.87888 0.0
C128 C 0.65619 0.32021 0.90999 0.0
H129 H 0.79084 0.36345 1.01999 0.0
H130 H 0.72524 0.32973 0.98656 0.0
H131 H 0.7193 0.45467 0.93157 0.0
H132 H 0.76077 0.38763 0.85668 0.0
H133 H 0.73789 0.41547 0.82799 0.0
H134 H 0.78123 0.4365 0.86404 0.0
H135 H 0.74034 0.47251 0.88829 0.0
H136 H 0.68704 0.44835 0.88682 0.0
C137 C 0.64608 0.30145 0.97968 0.0
C138 C 0.68708 0.2725 0.93779 0.0
C139 C 0.59352 0.39044 0.76441 0.0
C140 C 0.61473 0.42664 0.75484 0.0
C141 C 0.65202 0.44529 0.77735 0.0
C142 C 0.66777 0.42924 0.8091 0.0
C143 C 0.64626 0.39384 0.81917 0.0
C144 C 0.60987 0.37456 0.79703 0.0
C145 C 0.59194 0.33701 0.81342 0.0
C146 C 0.62294 0.33789 0.8495 0.0
C147 C 0.65471 0.37152 0.85207 0.0
C148 C 0.55038 0.33424 0.82522 0.0
C149 C 0.58992 0.30718 0.78206 0.0
C150 C 0.78479 0.42264 0.94744 0.0
C151 C 0.8014 0.40853 0.98074 0.0
C152 C 0.77867 0.37498 0.99448 0.0
C153 C 0.74059 0.35526 0.97471 0.0
C154 C 0.72505 0.3689 0.94043 0.0
C155 C 0.74688 0.40219 0.9276 0.0
C156 C 0.72578 0.4122 0.89055 0.0
C157 C 0.68729 0.37946 0.88338 0.0
C158 C 0.68763 0.35408 0.91228 0.0
C159 C 0.71779 0.44887 0.8994 0.0
C160 C 0.75264 0.41335 0.85785 0.0
H161 H 0.54625 0.25603 0.83836 0.0
H162 H 0.61274 0.22039 0.96116 0.0
H163 H 0.6807 0.25212 0.9125 0.0
H164 H 0.7163 0.29279 0.93376 0.0
H165 H 0.69105 0.25803 0.9652 0.0
H166 H 0.61426 0.3005 0.98021 0.0
H167 H 0.65306 0.28299 1.00231 0.0
H168 H 0.66407 0.33019 0.98894 0.0
H169 H 0.56467 0.37544 0.74767 0.0
H170 H 0.66904 0.47286 0.77052 0.0
H171 H 0.69609 0.44547 0.8248 0.0
H172 H 0.55254 0.35877 0.84401 0.0
H173 H 0.52808 0.33271 0.79868 0.0
H174 H 0.53851 0.30998 0.84241 0.0
H175 H 0.61929 0.31322 0.77051 0.0
H176 H 0.58358 0.27969 0.79404 0.0
H177 H 0.56627 0.30603 0.75683 0.0
H178 H 0.51742 0.19472 0.86261 0.0
C179 C 0.56136 0.24901 0.8649 0.0
C180 C 0.95388 0.81191 0.40192 0.0
C181 C 0.94251 0.82955 0.43294 0.0
C182 C 0.91233 0.80843 0.45405 0.0
C183 C 0.90346 0.75404 0.4127 0.0
C184 C 0.9337 0.77406 0.39217 0.0
C185 C 0.94052 0.75018 0.35984 0.0
H186 H 0.89033 0.58023 0.26465 0.0
C187 C 0.88762 0.71586 0.39539 0.0
C188 C 0.90902 0.71294 0.3643 0.0
H189 H 0.9816 0.67995 0.24106 0.0
H190 H 0.96384 0.71319 0.29254 0.0
H191 H 0.90413 0.59129 0.36312 0.0
H192 H 0.8221 0.62159 0.27492 0.0
H193 H 0.79671 0.60137 0.31419 0.0
H194 H 0.81664 0.57436 0.2841 0.0
H195 H 0.86566 0.55771 0.33057 0.0
H196 H 0.85412 0.5759 0.37451 0.0
C197 C 0.98401 0.74859 0.36902 0.0
C198 C 0.93174 0.76628 0.31975 0.0
C199 C 0.77017 0.62901 0.45196 0.0
C200 C 0.74389 0.59346 0.44135 0.0
C201 C 0.75268 0.57306 0.4111 0.0
C202 C 0.78604 0.58884 0.39065 0.0
C203 C 0.81081 0.62546 0.40045 0.0
C204 C 0.80242 0.64448 0.43098 0.0
C205 C 0.82964 0.68333 0.43696 0.0
C206 C 0.85605 0.68516 0.40496 0.0
C207 C 0.84562 0.65124 0.38359 0.0
C208 C 0.85411 0.68789 0.47881 0.0
C209 C 0.80305 0.70887 0.42964 0.0
C210 C 0.90668 0.60916 0.27083 0.0
C211 C 0.93785 0.62729 0.24884 0.0
C212 C 0.95758 0.66523 0.25736 0.0
C213 C 0.94733 0.6845 0.28748 0.0
C214 C 0.91654 0.66598 0.30946 0.0
C215 C 0.8964 0.62894 0.30063 0.0
C216 C 0.86319 0.61413 0.32585 0.0
C217 C 0.86771 0.64779 0.35225 0.0
C218 C 0.89918 0.67839 0.34253 0.0
C219 C 0.87191 0.58292 0.34978 0.0
C220 C 0.82237 0.60191 0.29854 0.0
H221 H 0.87024 0.75724 0.46175 0.0
H222 H 0.97738 0.82728 0.38541 0.0
H223 H 0.90461 0.77534 0.31896 0.0
H224 H 0.92488 0.74603 0.29468 0.0
H225 H 0.95751 0.7905 0.31459 0.0
H226 H 0.99147 0.74506 0.401 0.0
H227 H 1.00622 0.77437 0.36125 0.0
H228 H 0.98844 0.72509 0.35365 0.0
H229 H 0.76496 0.64523 0.47556 0.0
H230 H 0.73306 0.54542 0.40248 0.0
H231 H 0.7909 0.57225 0.36756 0.0
H232 H 0.86003 0.66196 0.48736 0.0
H233 H 0.83755 0.69529 0.50139 0.0
H234 H 0.88443 0.7085 0.48078 0.0
H235 H 0.77527 0.69555 0.40857 0.0
H236 H 0.81817 0.73446 0.41569 0.0
H237 H 0.79334 0.71597 0.45744 0.0
H238 H 0.90384 0.8208 0.47874 0.0
C239 C 0.89293 0.77116 0.44421 0.0
C240 C 0.69381 0.59879 0.84051 0.0
C241 C 0.72193 0.58395 0.82693 0.0
C242 C 0.72285 0.58154 0.78588 0.0
C243 C 0.67608 0.61608 0.77443 0.0
C244 C 0.67181 0.61533 0.81395 0.0
C245 C 0.64698 0.63875 0.82449 0.0
H246 H 0.58945 0.78658 0.7835 0.0
C247 C 0.65707 0.64233 0.75615 0.0
C248 C 0.63908 0.6552 0.78513 0.0
H249 H 0.57991 0.72658 0.88973 0.0
H250 H 0.59586 0.67742 0.85727 0.0
H251 H 0.54698 0.70835 0.72024 0.0
H252 H 0.66082 0.7849 0.76636 0.0
H253 H 0.67219 0.76575 0.72464 0.0
H254 H 0.63605 0.79042 0.71903 0.0
H255 H 0.56614 0.75549 0.70806 0.0
H256 H 0.57619 0.71944 0.6812 0.0
C257 C 0.60753 0.61338 0.83749 0.0
C258 C 0.67341 0.66828 0.85649 0.0
C259 C 0.70533 0.69969 0.63161 0.0
C260 C 0.70712 0.7346 0.61809 0.0
C261 C 0.67773 0.75006 0.62729 0.0
C262 C 0.65177 0.73411 0.65455 0.0
C263 C 0.65627 0.70324 0.67385 0.0
C264 C 0.6812 0.68539 0.66095 0.0
C265 C 0.68629 0.65602 0.68804 0.0
C266 C 0.66063 0.65951 0.71953 0.0
C267 C 0.64374 0.68771 0.71131 0.0
C268 C 0.66904 0.6184 0.6647 0.0
C269 C 0.73187 0.66672 0.70467 0.0
C270 C 0.59002 0.76244 0.79944 0.0
C271 C 0.58412 0.76048 0.8392 0.0
C272 C 0.58457 0.72862 0.85905 0.0
C273 C 0.59428 0.70042 0.84033 0.0
C274 C 0.60441 0.70466 0.80179 0.0
C275 C 0.60008 0.73434 0.78136 0.0
C276 C 0.61177 0.73446 0.7407 0.0
C277 C 0.62527 0.70053 0.74046 0.0
C278 C 0.62177 0.68363 0.77669 0.0
C279 C 0.57344 0.72941 0.71073 0.0
C280 C 0.64676 0.77064 0.73717 0.0
H281 H 0.7024 0.59501 0.72897 0.0
H282 H 0.69145 0.60025 0.87167 0.0
H283 H 0.70443 0.68032 0.84873 0.0
H284 H 0.66233 0.69172 0.86 0.0
H285 H 0.6759 0.65617 0.88567 0.0
H286 H 0.59804 0.58575 0.82205 0.0
H287 H 0.61138 0.60949 0.8697 0.0
H288 H 0.58178 0.62383 0.82976 0.0
H289 H 0.72627 0.68625 0.62367 0.0
H290 H 0.67753 0.77655 0.61681 0.0
H291 H 0.6321 0.74857 0.66235 0.0
H292 H 0.64445 0.61841 0.64084 0.0
H293 H 0.69269 0.61151 0.65065 0.0
H294 H 0.65508 0.59586 0.68344 0.0
H295 H 0.74486 0.6969 0.71127 0.0
H296 H 0.73828 0.65482 0.7328 0.0
H297 H 0.74925 0.65895 0.68313 0.0
H298 H 0.74434 0.57108 0.77394 0.0
C299 C 0.69906 0.59641 0.75957 0.0
C300 C 0.85009 0.15872 0.44969 0.0
C301 C 0.87017 0.13874 0.43028 0.0
C302 C 0.86809 0.13891 0.38899 0.0
C303 C 0.82474 0.17694 0.38655 0.0
C304 C 0.82789 0.17798 0.42721 0.0
C305 C 0.80544 0.20169 0.44249 0.0
H306 H 0.67985 0.30342 0.40088 0.0
C307 C 0.79905 0.19896 0.37165 0.0
C308 C 0.78832 0.21442 0.40419 0.0
H309 H 0.7258 0.27717 0.5158 0.0
H310 H 0.76593 0.24569 0.48587 0.0
H311 H 0.6579 0.23178 0.36375 0.0
H312 H 0.76608 0.32144 0.36153 0.0
H313 H 0.75038 0.3015 0.31318 0.0
H314 H 0.71706 0.31921 0.33724 0.0
H315 H 0.66188 0.26399 0.32588 0.0
H316 H 0.67457 0.22236 0.32011 0.0
C317 C 0.77187 0.17704 0.46441 0.0
C318 C 0.8362 0.23407 0.46836 0.0
C319 C 0.7384 0.18251 0.2284 0.0
C320 C 0.707 0.19359 0.20891 0.0
C321 C 0.69803 0.22354 0.22483 0.0
C322 C 0.71644 0.23901 0.26236 0.0
C323 C 0.74345 0.22386 0.28412 0.0
C324 C 0.75596 0.1977 0.26628 0.0
C325 C 0.78401 0.18412 0.29437 0.0
C326 C 0.78317 0.204 0.33271 0.0
C327 C 0.75908 0.22688 0.32652 0.0
C328 C 0.76553 0.14182 0.29588 0.0
C329 C 0.82639 0.19697 0.2808 0.0
C330 C 0.69909 0.29129 0.41949 0.0
C331 C 0.7001 0.29259 0.46043 0.0
C332 C 0.72486 0.27629 0.48405 0.0
C333 C 0.74791 0.25804 0.4666 0.0
C334 C 0.74565 0.25593 0.42521 0.0
C335 C 0.72179 0.27281 0.40254 0.0
C336 C 0.72096 0.26639 0.35915 0.0
C337 C 0.74863 0.24312 0.35921 0.0
C338 C 0.7631 0.23698 0.3979 0.0
C339 C 0.67673 0.24526 0.341 0.0
C340 C 0.7393 0.30403 0.34151 0.0
H341 H 0.8449 0.1568 0.33572 0.0
H342 H 0.85213 0.15972 0.48155 0.0
H343 H 0.8649 0.24413 0.45548 0.0
H344 H 0.82572 0.2582 0.47033 0.0
H345 H 0.84341 0.22556 0.49859 0.0
H346 H 0.7574 0.14982 0.44833 0.0
H347 H 0.78437 0.17218 0.49457 0.0
H348 H 0.74707 0.18843 0.46653 0.0
H349 H 0.74556 0.15944 0.21648 0.0
H350 H 0.67395 0.23248 0.2099 0.0
H351 H 0.70655 0.26014 0.27415 0.0
H352 H 0.73267 0.13408 0.29783 0.0
H353 H 0.76936 0.12757 0.26899 0.0
H354 H 0.77853 0.13038 0.32164 0.0
H355 H 0.82991 0.22026 0.26096 0.0
H356 H 0.85079 0.20758 0.30591 0.0
H357 H 0.83217 0.17442 0.26446 0.0
H358 H 0.88361 0.12389 0.37361 0.0
C359 C 0.84565 0.15801 0.36708 0.0
C360 C 0.4797 0.67309 0.36686 0.0
C361 C 0.45836 0.63944 0.38208 0.0
C362 C 0.41927 0.62011 0.3636 0.0
C363 C 0.42365 0.66587 0.31449 0.0
C364 C 0.46143 0.68612 0.33328 0.0
C365 C 0.47808 0.72196 0.31335 0.0
H366 H 0.44945 0.82739 0.15745 0.0
C367 C 0.41355 0.68518 0.27941 0.0
C368 C 0.44522 0.7185 0.27834 0.0
H369 H 0.54735 0.86025 0.25336 0.0
H370 H 0.52133 0.80039 0.28197 0.0
H371 H 0.3836 0.79833 0.20805 0.0
H372 H 0.4503 0.74695 0.1444 0.0
H373 H 0.40139 0.7155 0.13872 0.0
H374 H 0.40949 0.76105 0.12081 0.0
H375 H 0.37231 0.78866 0.15578 0.0
H376 H 0.34836 0.75627 0.19006 0.0
C377 C 0.48165 0.75402 0.34257 0.0
C378 C 0.51861 0.72345 0.29984 0.0
C379 C 0.28203 0.62639 0.18706 0.0
C380 C 0.26499 0.63806 0.15212 0.0
C381 C 0.28736 0.67033 0.13584 0.0
C382 C 0.32532 0.69133 0.15447 0.0
C383 C 0.34138 0.6803 0.19013 0.0
C384 C 0.32024 0.64802 0.20554 0.0
C385 C 0.34255 0.64088 0.24362 0.0
C386 C 0.38014 0.67471 0.24878 0.0
C387 C 0.37887 0.69751 0.2174 0.0
C388 C 0.31585 0.63971 0.27658 0.0
C389 C 0.35267 0.60504 0.23669 0.0
C390 C 0.46521 0.82221 0.18497 0.0
C391 C 0.49969 0.84906 0.20366 0.0
C392 C 0.52013 0.84023 0.23862 0.0
C393 C 0.50484 0.80563 0.2553 0.0
C394 C 0.46883 0.77967 0.23677 0.0
C395 C 0.45025 0.78862 0.20196 0.0
C396 C 0.41217 0.75953 0.18572 0.0
C397 C 0.40984 0.73135 0.21652 0.0
C398 C 0.44305 0.74243 0.24666 0.0
C399 C 0.37715 0.7763 0.18444 0.0
C400 C 0.41822 0.74501 0.14519 0.0
H401 H 0.37232 0.6164 0.31738 0.0
H402 H 0.50969 0.68871 0.38074 0.0
H403 H 0.5155 0.69761 0.28291 0.0
H404 H 0.5292 0.74618 0.28032 0.0
H405 H 0.5423 0.72684 0.32561 0.0
H406 H 0.45369 0.74857 0.35659 0.0
H407 H 0.50739 0.75771 0.36635 0.0
H408 H 0.48556 0.7802 0.32809 0.0
H409 H 0.26582 0.60135 0.19998 0.0
H410 H 0.27486 0.68009 0.10919 0.0
H411 H 0.34011 0.71586 0.14063 0.0
H412 H 0.2976 0.65857 0.27093 0.0
H413 H 0.29454 0.61168 0.27834 0.0
H414 H 0.3336 0.64934 0.30585 0.0
H415 H 0.36311 0.60445 0.20742 0.0
H416 H 0.37746 0.6021 0.25812 0.0
H417 H 0.32566 0.58054 0.23706 0.0
H418 H 0.40239 0.59423 0.37458 0.0
C419 C 0.40198 0.63295 0.33005 0.0
C420 C 0.10191 0.24497 0.71904 0.0
C421 C 0.11145 0.22863 0.68585 0.0
C422 C 0.13947 0.25101 0.66338 0.0
C423 C 0.15119 0.30353 0.70844 0.0
C424 C 0.12224 0.28262 0.72977 0.0
C425 C 0.11675 0.30546 0.76383 0.0
H426 H 0.17175 0.47251 0.86636 0.0
C427 C 0.16839 0.3409 0.7276 0.0
C428 C 0.14839 0.3428 0.76006 0.0
H429 H 0.07907 0.37273 0.88708 0.0
H430 H 0.09543 0.34074 0.83357 0.0
H431 H 0.15921 0.4656 0.76717 0.0
H432 H 0.23768 0.42892 0.85343 0.0
H433 H 0.26388 0.44918 0.8147 0.0
H434 H 0.24595 0.47687 0.84604 0.0
H435 H 0.19742 0.49689 0.80213 0.0
H436 H 0.20996 0.48085 0.7576 0.0
C437 C 0.07336 0.30758 0.75657 0.0
C438 C 0.12636 0.28787 0.80272 0.0
C439 C 0.28785 0.42703 0.67356 0.0
C440 C 0.31648 0.46096 0.68656 0.0
C441 C 0.30956 0.48041 0.7188 0.0
C442 C 0.27574 0.46506 0.7388 0.0
C443 C 0.2487 0.42977 0.72662 0.0
C444 C 0.25533 0.41179 0.69424 0.0
C445 C 0.22613 0.37394 0.68606 0.0
C446 C 0.2007 0.37141 0.71902 0.0
C447 C 0.21314 0.40423 0.74264 0.0
C448 C 0.2012 0.37291 0.64496 0.0
C449 C 0.25063 0.34642 0.68991 0.0
C450 C 0.15485 0.44385 0.85907 0.0
C451 C 0.1238 0.42524 0.88095 0.0
C452 C 0.10308 0.38772 0.8709 0.0
C453 C 0.11248 0.36921 0.8396 0.0
C454 C 0.14332 0.38811 0.81788 0.0
C455 C 0.16438 0.42476 0.82812 0.0
C456 C 0.19792 0.43974 0.80326 0.0
C457 C 0.19196 0.40695 0.77498 0.0
C458 C 0.1598 0.37646 0.78373 0.0
C459 C 0.19106 0.47269 0.78137 0.0
C460 C 0.23866 0.44951 0.8306 0.0
H461 H 0.18058 0.30275 0.656 0.0
H462 H 0.07973 0.22878 0.73643 0.0
H463 H 0.1537 0.27936 0.80215 0.0
H464 H 0.13318 0.30704 0.82876 0.0
H465 H 0.10096 0.26307 0.80722 0.0
H466 H 0.06474 0.31143 0.72488 0.0
H467 H 0.05129 0.2819 0.76473 0.0
H468 H 0.06991 0.33117 0.77268 0.0
H469 H 0.29142 0.4117 0.6483 0.0
H470 H 0.33091 0.50689 0.72926 0.0
H471 H 0.27229 0.48086 0.76338 0.0
H472 H 0.19777 0.40022 0.63851 0.0
H473 H 0.21599 0.36508 0.62106 0.0
H474 H 0.16987 0.35411 0.64297 0.0
H475 H 0.27875 0.35734 0.71122 0.0
H476 H 0.23438 0.3201 0.70184 0.0
H477 H 0.25963 0.3408 0.66117 0.0
H478 H 0.14608 0.2399 0.63679 0.0
C479 C 0.1593 0.28793 0.67446 0.0
Pr480 Pr 0.99264 1.00948 0.57876 0.0
Pr481 Pr 0.05858 0.04954 0.5386 0.0
C482 C 0.93723 0.96066 0.61561 0.0
C483 C 0.90542 0.92509 0.60891 0.0
C484 C 0.88749 0.90872 0.64112 0.0
C485 C 0.85756 0.87465 0.63607 0.0
C486 C 0.84512 0.85626 0.59867 0.0
C487 C 0.86265 0.8729 0.56612 0.0
C488 C 0.89298 0.90714 0.57131 0.0
C489 C 0.03292 0.07998 0.61502 0.0
C490 C 0.0804 0.99613 0.60013 0.0
C491 C 0.11558 0.10128 0.50666 0.0
C492 C 0.1556 0.1295 0.51602 0.0
C493 C 0.19125 0.11996 0.52014 0.0
C494 C 0.22878 0.14722 0.5223 0.0
C495 C 0.23126 0.1844 0.52018 0.0
C496 C 0.1959 0.19406 0.51896 0.0
C497 C 0.1584 0.16685 0.51673 0.0
C498 C 1.01929 0.97897 0.50229 0.0
C499 C 0.96878 0.05904 0.51251 0.0
O500 O 0.93043 0.98823 0.59738 0.0
O501 O 0.97419 0.96035 0.6163 0.0
O502 O 0.05004 0.05833 0.60307 0.0
O503 O 0.99421 0.06505 0.60949 0.0
O504 O 0.09579 0.02965 0.58893 0.0
O505 O 0.04119 0.97953 0.59307 0.0
O506 O 0.1135 0.06667 0.50669 0.0
O507 O 0.08522 0.10759 0.52019 0.0
O508 O 1.00144 1.00012 0.51428 0.0
O509 O 0.05801 0.9946 0.50751 0.0
O510 O 0.95376 0.02725 0.52784 0.0
O511 O 1.00801 0.07535 0.51693 0.0
H512 H 0.8967 0.9223 0.67028 0.0
H513 H 0.8439 0.86266 0.66147 0.0
H514 H 0.85335 0.85925 0.53702 0.0
H515 H 0.90681 0.91956 0.54623 0.0
H516 H 0.19016 0.09144 0.5199 0.0
H517 H 0.25573 0.13916 0.52362 0.0
H518 H 0.19699 0.22251 0.51704 0.0
H519 H 0.13145 0.17503 0.51351 0.0
Pr520 Pr 0.49682 0.03096 0.07193 0.0
Pr521 Pr 0.56009 1.01471 1.03763 0.0
C522 C 0.45436 0.05368 0.12081 0.0
C523 C 0.46277 0.08994 0.14045 0.0
C524 C 0.43868 0.09538 0.16787 0.0
C525 C 0.44786 0.12983 0.1873 0.0
C526 C 0.48148 0.15913 0.17978 0.0
C527 C 0.50551 0.15353 0.15221 0.0
C528 C 0.49612 0.11921 0.13259 0.0
C529 C 0.51485 0.07135 1.00462 0.0
C530 C 0.59153 0.08008 0.10281 0.0
C531 C 0.60419 0.9955 0.98788 0.0
C532 C 0.6008 0.96077 0.96699 0.0
C533 C 0.58681 0.92704 0.98465 0.0
C534 C 0.58217 0.89411 0.96389 0.0
C535 C 0.59078 0.89428 0.9249 0.0
C536 C 0.60442 0.92815 0.90727 0.0
C537 C 0.60941 0.96108 0.92816 0.0
C538 C 0.5428 0.97494 0.10535 0.0
C539 C 0.46447 0.96358 1.00919 0.0
O540 O 0.47996 0.03644 0.13273 0.0
O541 O 0.44555 0.05204 0.08246 0.0
O542 O 0.54073 0.06665 1.03147 0.0
O543 O 0.4786 0.05449 1.01191 0.0
O544 O 0.60061 0.07022 0.0693 0.0
O545 O 0.55575 0.06375 0.11294 0.0
O546 O 0.57587 1.00986 0.9762 0.0
O547 O 0.61354 0.99737 1.02623 0.0
O548 O 0.5167 0.97938 0.07856 0.0
O549 O 0.579 0.99068 0.09715 0.0
O550 O 0.45534 0.97563 1.04157 0.0
O551 O 0.50067 0.97818 0.99883 0.0
H552 H 0.41298 0.07302 0.17437 0.0
H553 H 0.42897 0.1335 0.20856 0.0
H554 H 0.53123 0.17576 0.14552 0.0
H555 H 0.51503 0.11543 0.11138 0.0
H556 H 0.57946 0.92613 1.01449 0.0
H557 H 0.57247 0.86859 0.97861 0.0
H558 H 0.61105 0.92915 0.87718 0.0
H559 H 0.61969 0.98679 0.91388 0.0
Pr560 Pr 0.54347 0.56802 0.58512 0.0
Pr561 Pr 0.51866 0.48841 0.54312 0.0
C562 C 0.55092 0.63904 0.5982 0.0
C563 C 0.52116 0.65883 0.59939 0.0
C564 C 0.50829 0.66438 0.63544 0.0
C565 C 0.47695 0.67903 0.63662 0.0
C566 C 0.4577 0.68844 0.60179 0.0
C567 C 0.47166 0.68473 0.56588 0.0
C568 C 0.50313 0.66992 0.56465 0.0
C569 C 0.57474 0.52192 0.63492 0.0
C570 C 0.45642 0.5086 0.60073 0.0
C571 C 0.50171 0.41666 0.5239 0.0
C572 C 0.52757 0.39556 0.51308 0.0
C573 C 0.55454 0.40867 0.48567 0.0
C574 C 0.58285 0.39135 0.4796 0.0
C575 C 0.5851 0.36093 0.50117 0.0
C576 C 0.55737 0.34719 0.52776 0.0
C577 C 0.52891 0.36448 0.53376 0.0
C578 C 0.50423 0.54345 0.49605 0.0
C579 C 0.60573 0.54633 0.5296 0.0
O580 O 0.55357 0.62549 0.56372 0.0
O581 O 0.55261 0.61674 0.62663 0.0
O582 O 0.55515 0.51419 0.6009 0.0
O583 O 0.57997 0.55617 0.64408 0.0
O584 O 0.46506 0.48349 0.57986 0.0
O585 O 0.47918 0.54344 0.60409 0.0
O586 O 0.51008 0.43005 0.56032 0.0
O587 O 0.49412 0.43985 0.49866 0.0
O588 O 0.49735 0.53914 0.53148 0.0
O589 O 0.51643 0.51734 0.48334 0.0
O590 O 0.5932 0.57233 0.54397 0.0
O591 O 0.58657 0.51104 0.53297 0.0
H592 H 0.52173 0.65647 0.66276 0.0
H593 H 0.46731 0.68252 0.66481 0.0
H594 H 0.45743 0.69219 0.53873 0.0
H595 H 0.5125 0.66621 0.53639 0.0
H596 H 0.55449 0.43282 0.46959 0.0
H597 H 0.60314 0.4019 0.45814 0.0
H598 H 0.55839 0.32369 0.54462 0.0
H599 H 0.50867 0.3542 0.55535 0.0
Pr600 Pr 1.02136 0.55083 1.03575 0.0
Pr601 Pr 0.04425 0.50107 0.09742 0.0
C602 C 0.98443 0.58695 0.98433 0.0
C603 C 0.94347 0.58409 0.96581 0.0
C604 C 0.93652 0.61452 0.94777 0.0
C605 C 0.89837 0.61176 0.92804 0.0
C606 C 0.86661 0.57837 0.92571 0.0
C607 C 0.87344 0.54799 0.94437 0.0
C608 C 0.91158 0.55095 0.96451 0.0
C609 C 0.10098 0.57774 0.073 0.0
C610 C 0.9966 0.55499 0.12723 0.0
C611 C 0.08277 0.46592 0.1482 0.0
C612 C 0.12475 0.46802 0.16215 0.0
C613 C 0.13376 0.43596 0.17231 0.0
C614 C 0.17317 0.43779 0.18727 0.0
C615 C 0.20412 0.47178 0.19263 0.0
C616 C 0.19523 0.50383 0.18179 0.0
C617 C 0.15586 0.50189 0.16644 0.0
C618 C 0.96455 0.47409 0.06069 0.0
C619 C 0.06764 0.49594 1.00583 0.0
O620 O 0.99863 0.56127 0.97372 0.0
O621 O 0.99337 0.596 1.02203 0.0
O622 O 0.07063 0.56244 0.08938 0.0
O623 O 0.09068 0.58259 1.03621 0.0
O624 O 1.02266 0.53766 0.13893 0.0
O625 O 0.98674 0.55875 0.08912 0.0
O626 O 0.07184 0.49378 0.15865 0.0
O627 O 0.06858 0.45368 0.11178 0.0
O628 O 0.99475 0.48937 1.04399 0.0
O629 O 0.97518 0.46923 0.09743 0.0
O630 O 0.04087 0.51255 0.9942 0.0
O631 O 0.07891 0.49375 1.04397 0.0
H632 H 0.96077 0.64031 0.94846 0.0
H633 H 0.8939 0.63553 0.91381 0.0
H634 H 0.84932 0.5221 0.94346 0.0
H635 H 0.91633 0.52735 0.97874 0.0
H636 H 0.11021 0.40956 0.16912 0.0
H637 H 0.17934 0.4127 0.19548 0.0
H638 H 0.21867 0.53028 0.18511 0.0
H639 H 0.14961 0.52684 0.15829 0.0
C640 C 0.31648 0.27498 0.52467 0.0
C641 C 0.33483 0.27114 0.49138 0.0
C642 C 0.28411 0.24617 0.53521 0.0
C643 C 0.26923 0.21248 0.51299 0.0
H644 H 0.32641 0.30079 0.54198 0.0
H645 H 0.26988 0.25059 0.56022 0.0
S646 S 0.30535 0.18879 0.42238 0.0
N647 N 0.33463 0.23105 0.43569 0.0
N648 N 0.27473 0.17705 0.45608 0.0
C649 C 0.28794 0.20795 0.48033 0.0
C650 C 0.32051 0.23723 0.46939 0.0
C651 C 0.4202 0.89118 0.92603 0.0
C652 C 0.37855 0.88052 0.92797 0.0
C653 C 0.44764 0.91714 0.95327 0.0
C654 C 0.43461 0.93354 0.98364 0.0
H655 H 0.43165 0.88087 0.90201 0.0
H656 H 0.47928 0.92508 0.94967 0.0
S657 S 0.32901 0.91162 1.00445 0.0
N658 N 0.3257 0.88559 0.96467 0.0
N659 N 0.37741 0.93477 1.01616 0.0
C660 C 0.39322 0.92159 0.98735 0.0
C661 C 0.36516 0.89507 0.95939 0.0
C662 C 0.59537 0.48161 0.73347 0.0
C663 C 0.59877 0.44716 0.7233 0.0
C664 C 0.58753 0.50514 0.70461 0.0
C665 C 0.58253 0.49538 0.66408 0.0
H666 H 0.59997 0.49095 0.7642 0.0
H667 H 0.5857 0.53145 0.7143 0.0
S668 S 0.59066 0.40916 0.62154 0.0
N669 N 0.59761 0.40488 0.66969 0.0
N670 N 0.58287 0.44916 0.6153 0.0
C671 C 0.58543 0.46087 0.65335 0.0
C672 C 0.59348 0.43677 0.68295 0.0
C673 C 0.95317 0.62023 0.17921 0.0
C674 C 0.95045 0.60707 0.21747 0.0
C675 C 0.96673 0.60264 0.14992 0.0
C676 C 0.97917 0.57156 0.15777 0.0
H677 H 0.94477 0.64445 0.17182 0.0
H678 H 0.96854 0.61418 0.1212 0.0
S679 S 0.97768 0.52587 0.25312 0.0
N680 N 0.96077 0.56048 0.26117 0.0
N681 N 0.98689 0.52805 0.20695 0.0
C682 C 0.97629 0.558 0.19587 0.0
C683 C 0.96178 0.57551 0.22539 0.0
C684 C 0.4668 0.24486 0.22164 0.0
C685 C 0.50429 0.26277 0.24434 0.0
C686 C 0.46007 0.2118 0.2002 0.0
C687 C 0.49069 0.19558 0.20029 0.0
H688 H 0.4418 0.25557 0.22189 0.0
H689 H 0.43043 0.19847 0.18395 0.0
S690 S 0.59513 0.23285 0.25253 0.0
N691 N 0.57305 0.26296 0.26406 0.0
N692 N 0.56057 0.20082 0.2232 0.0
C693 C 0.52887 0.21399 0.22144 0.0
C694 C 0.5356 0.24753 0.24371 0.0
C695 C 0.11491 0.92726 0.66137 0.0
C696 C 0.15548 0.93547 0.65564 0.0
C697 C 0.09086 0.94699 0.64312 0.0
C698 C 0.1068 0.97614 0.61916 0.0
H699 H 0.10171 0.90538 0.68011 0.0
H700 H 0.05969 0.93965 0.64829 0.0
S701 S 0.21158 1.00828 0.59499 0.0
N702 N 0.21067 0.97414 0.62427 0.0
N703 N 0.16574 1.01188 0.59033 0.0
C704 C 0.14745 0.98463 0.61325 0.0
C705 C 0.17172 0.96406 0.63136 0.0
C706 C 0.85101 0.43148 1.04177 0.0
C707 C 0.84295 0.42752 1.00035 0.0
C708 C 0.89046 0.44681 0.06109 0.0
C709 C 0.92322 0.4588 1.03964 0.0
H710 H 0.8266 0.42247 0.05945 0.0
H711 H 0.89531 0.4492 0.09299 0.0
S712 S 0.9185 0.45414 0.93068 0.0
N713 N 0.87116 0.43645 0.93853 0.0
N714 N 0.94521 0.4657 0.97476 0.0
C715 C 0.91561 0.4554 0.99821 0.0
C716 C 0.87548 0.43974 0.97855 0.0
C717 C 0.69647 0.5455 0.47858 0.0
C718 C 0.70659 0.5796 0.46081 0.0
C719 C 0.66372 0.53458 0.5006 0.0
C720 C 0.64017 0.55753 0.506 0.0
H721 H 0.71464 0.52762 0.47639 0.0
H722 H 0.65738 0.50835 0.51417 0.0
S723 S 0.65074 0.64716 0.46061 0.0
N724 N 0.68746 0.63416 0.44642 0.0
N725 N 0.6273 0.61446 0.48822 0.0
C726 C 0.64917 0.59101 0.48698 0.0
C727 C 0.68193 0.60178 0.4643 0.0
C728 C 0.30118 0.44824 0.21192 0.0
C729 C 0.32041 0.46832 0.24751 0.0
C730 C 0.26427 0.45059 0.19363 0.0
C731 C 0.24537 0.47336 0.21 0.0
H732 H 0.31363 0.42903 0.19914 0.0
H733 H 0.24983 0.43367 0.16702 0.0
S734 S 0.28445 0.53353 0.30121 0.0
N735 N 0.31901 0.51343 0.29715 0.0
N736 N 0.24937 0.51776 0.26273 0.0
C737 C 0.26513 0.49497 0.2445 0.0
C738 C 0.30267 0.49241 0.26331 0.0
C739 C 0.57522 0.14684 0.94468 0.0
C740 C 0.54758 0.16512 0.93022 0.0
C741 C 0.56401 0.11595 0.9675 0.0
C742 C 0.52444 0.10138 0.97643 0.0
H743 H 0.60641 0.15743 0.93959 0.0
H744 H 0.58688 0.10393 0.97908 0.0
S745 S 0.4394 0.13666 0.9432 0.0
N746 N 0.47814 0.16487 0.92498 0.0
N747 N 0.45662 0.10609 0.96664 0.0
C748 C 0.49577 0.11786 0.96017 0.0
C749 C 0.50739 0.14977 0.9373 0.0
C750 C 1.00414 0.88393 0.45549 0.0
C751 C 0.96207 0.86941 0.44516 0.0
C752 C 1.02228 0.9196 0.47319 0.0
C753 C 0.99915 0.94225 0.48125 0.0
H754 H 1.02301 0.86705 0.45145 0.0
H755 H 0.0547 0.92909 0.48161 0.0
S756 S 0.88827 0.91886 0.4554 0.0
N757 N 0.89814 0.88178 0.44109 0.0
N758 N 0.93214 0.94844 0.47428 0.0
C759 C 0.95726 0.92864 0.46945 0.0
C760 C 0.93881 0.8924 0.45142 0.0
C761 C 0.39444 0.75222 0.59951 0.0
C762 C 0.36321 0.73305 0.62062 0.0
C763 C 0.42384 0.73669 0.59106 0.0
C764 C 0.42279 0.70166 0.60364 0.0
H765 H 0.39776 0.78028 0.59196 0.0
H766 H 0.44886 0.75304 0.57691 0.0
S767 S 0.34338 0.63811 0.6537 0.0
N768 N 0.33011 0.67567 0.64933 0.0
N769 N 0.38522 0.64647 0.63341 0.0
C770 C 0.38991 0.6812 0.62186 0.0
C771 C 0.36011 0.69691 0.63036 0.0
C772 C 0.74209 0.78513 0.57615 0.0
C773 C 0.74447 0.75887 0.60412 0.0
C774 C 0.77597 0.81531 0.57158 0.0
C775 C 0.8133 0.82005 0.59472 0.0
H776 H 0.71325 0.78376 0.55967 0.0
H777 H 0.77217 0.83644 0.55214 0.0
S778 S 0.83796 0.7566 0.66699 0.0
N779 N 0.78926 0.73804 0.65193 0.0
N780 N 0.85256 0.79384 0.64191 0.0
C781 C 0.81719 0.79221 0.61956 0.0
C782 C 0.78288 0.76177 0.62457 0.0
C783 C 0.68621 0.15801 0.14361 0.0
C784 C 0.6767 0.16749 0.17999 0.0
C785 C 0.65838 0.12987 0.11842 0.0
C786 C 0.62061 0.10996 0.12931 0.0
H787 H 0.7154 0.17212 0.13486 0.0
H788 H 0.66673 0.12343 0.09052 0.0
S789 S 0.58347 0.12287 0.22369 0.0
N790 N 0.62833 0.15418 0.2267 0.0
N791 N 0.57632 0.10123 0.18022 0.0
C792 C 0.61121 0.11924 0.16604 0.0
C793 C 0.63923 0.148 0.19119 0.0
C794 C 0.4577 0.61342 0.44949 0.0
C795 C 0.47644 0.62199 0.41516 0.0
C796 C 0.46843 0.58977 0.47701 0.0
C797 C 0.49742 0.5729 0.47056 0.0
H798 H 0.43341 0.62393 0.45428 0.0
H799 H 0.45234 0.58311 0.50228 0.0
S800 S 0.55744 0.58844 0.38696 0.0
N801 N 0.52742 0.61379 0.37801 0.0
N802 N 0.54681 0.56878 0.42867 0.0
C803 C 0.51759 0.58261 0.43729 0.0
C804 C 0.5073 0.60726 0.40987 0.0
C805 C 0.09805 0.47456 0.90652 0.0
C806 C 0.11238 0.44453 0.91387 0.0
C807 C 0.08407 0.49109 0.93634 0.0
C808 C 0.0846 0.47893 0.9752 0.0
H809 H 0.09655 0.48472 0.87714 0.0
H810 H 0.0726 0.51359 0.92876 0.0
S811 S 0.12105 0.4022 1.01026 0.0
N812 N 0.12707 0.40385 0.96316 0.0
N813 N 0.10208 0.43527 1.01919 0.0
C814 C 0.09998 0.44954 0.98312 0.0
C815 C 0.11344 0.43228 0.95255 0.0
C816 C 0.61722 0.82593 0.86167 0.0
C817 C 0.58403 0.79385 0.86107 0.0
C818 C 0.619 0.85809 0.88237 0.0
C819 C 0.58748 0.85956 0.90307 0.0
H820 H 0.64237 0.826 0.84641 0.0
H821 H 0.64559 0.88188 0.88256 0.0
S822 S 0.49265 0.78339 0.90854 0.0
N823 N 0.51848 0.76543 0.88186 0.0
N824 N 0.52108 0.82635 0.92012 0.0
C825 C 0.5538 0.82768 0.90234 0.0
C826 C 0.55225 0.79471 0.8815 0.0
C827 C 0.935 0.12572 0.4471 0.0
C828 C 0.89445 0.11841 0.45248 0.0
C829 C 0.95848 0.10601 0.46634 0.0
C830 C 0.94217 0.07786 0.49131 0.0
H831 H 0.94874 0.14702 0.42797 0.0
H832 H 0.98969 0.1129 0.46142 0.0
S833 S 0.83704 0.04776 0.51459 0.0
N834 N 0.83862 0.08115 0.48411 0.0
N835 N 0.88268 0.04365 0.52028 0.0
C836 C 0.90146 0.07006 0.49672 0.0
C837 C 0.87765 0.09053 0.4774 0.0
C838 C 0.21505 0.61252 0.09194 0.0
C839 C 0.22324 0.61858 0.13324 0.0
C840 C 0.17538 0.59911 0.07266 0.0
C841 C 0.14248 0.59104 0.09402 0.0
H842 H 0.23954 0.61889 0.07427 0.0
H843 H 0.17047 0.59524 1.04081 0.0
S844 S 0.14741 0.6014 0.20263 0.0
N845 N 0.19502 0.61511 0.19485 0.0
N846 N 0.12045 0.58934 0.15871 0.0
C847 C 0.15016 0.59607 0.13538 0.0
C848 C 0.19056 0.60984 0.155 0.0
C849 C 0.36739 0.51003 0.65388 0.0
C850 C 0.35392 0.47415 0.66718 0.0
C851 C 0.40051 0.52115 0.63242 0.0
C852 C 0.42113 0.49668 0.62306 0.0
H853 H 0.35166 0.52936 0.65926 0.0
H854 H 0.40956 0.54891 0.6225 0.0
S855 S 0.40139 0.40141 0.65583 0.0
N856 N 0.36686 0.41565 0.67307 0.0
N857 N 0.42772 0.436 0.6321 0.0
C858 C 0.40871 0.46118 0.63736 0.0
C859 C 0.37557 0.45011 0.65957 0.0
C860 C 0.77286 0.6028 0.88775 0.0
C861 C 0.75469 0.57749 0.85536 0.0
C862 C 0.80804 0.60185 0.91125 0.0
C863 C 0.82673 0.57569 0.90339 0.0
H864 H 0.76122 0.62494 0.89392 0.0
H865 H 0.82147 0.62257 0.93506 0.0
S866 S 0.79159 0.50277 0.82311 0.0
N867 N 0.75727 0.52398 0.81837 0.0
N868 N 0.82462 0.52354 0.8615 0.0
C869 C 0.8084 0.54939 0.87215 0.0
C870 C 0.77218 0.55002 0.84839 0.0
C871 C 0.55216 0.89977 0.17505 0.0
C872 C 0.513 0.88546 0.18531 0.0
C873 C 0.56219 0.92979 0.15053 0.0
C874 C 0.53331 0.94635 0.13505 0.0
H875 H 0.57456 0.88651 0.18426 0.0
H876 H 0.59225 0.93893 0.1422 0.0
S877 S 0.42849 0.92293 0.158 0.0
N878 N 0.44684 0.89338 0.18209 0.0
N879 N 0.46532 0.94862 0.13536 0.0
C880 C 0.49489 0.93368 0.14703 0.0
C881 C 0.48487 0.90363 0.17233 0.0
C882 C 0.04992 0.17306 0.6674 0.0
C883 C 0.09215 0.18889 0.67286 0.0
C884 C 1.03118 0.13761 0.64937 0.0
C885 C 0.05385 0.11648 0.63615 0.0
H886 H 1.03115 0.18873 0.67558 0.0
H887 H 0.9985 0.12704 0.64493 0.0
S888 S 0.16553 0.14393 0.64666 0.0
N889 N 0.15621 0.17935 0.6663 0.0
N890 N 0.121 0.1134 0.63187 0.0
C891 C 0.09611 0.13143 0.64277 0.0
C892 C 0.11519 0.16738 0.66127 0.0
C893 C 0.63289 0.28849 0.47859 0.0
C894 C 0.67328 0.30943 0.47738 0.0
C895 C 0.60475 0.30518 0.48771 0.0
C896 C 0.61611 0.3434 0.49549 0.0
H897 H 0.62271 0.25926 0.47089 0.0
H898 H 0.57357 0.2883 0.48701 0.0
S899 S 0.71917 0.40966 0.49857 0.0
N900 N 0.72388 0.36963 0.4863 0.0
N901 N 0.67127 0.40121 0.50409 0.0
C902 C 0.65688 0.36433 0.4958 0.0
C903 C 0.68543 0.34728 0.48654 0.0
loop_
_geom_bond_atom_site_label_1
_geom_bond_atom_site_label_2
_geom_bond_distance
_geom_bond_site_symmetry_2
_ccdc_geom_bond_type
C0 C1 1.391 . S
C0 C4 1.391 . S
C0 H42 0.948 . S
C1 C0 1.391 . S
C1 C2 1.391 . S
C2 C1 1.391 . S
C2 H58 0.947 . S
C2 C59 1.392 . S
C3 C4 1.391 . S
C3 C7 1.397 . S
C3 C59 1.419 . S
C4 C0 1.391 . S
C4 C3 1.391 . S
C4 C5 1.399 . S
C5 C4 1.399 . S
C5 C8 1.396 . S
C5 C17 1.453 . S
C5 C18 1.684 . S
H6 C30 0.948 . S
C7 C3 1.397 . S
C7 C8 1.394 . S
C7 C26 1.723 . S
C8 C5 1.396 . S
C8 C7 1.394 . S
C8 C38 1.723 . S
H9 C32 0.947 . S
H10 C33 0.948 . S
H11 C39 0.982 . S
H12 C40 0.979 . S
H13 C40 0.980 . S
H14 C40 0.983 . S
H15 C39 0.979 . S
H16 C39 0.977 . S
C17 C5 1.453 . S
C17 H46 0.982 . S
C17 H47 0.979 . S
C17 H48 0.977 . S
C18 C5 1.684 . S
C18 H43 0.979 . S
C18 H44 0.980 . S
C18 H45 0.983 . S
C19 C20 1.391 . S
C19 C24 1.391 . S
C19 H49 0.948 . S
C20 C19 1.391 . S
C20 C21 1.391 . S
C21 C20 1.391 . S
C21 C22 1.392 . S
C21 H50 0.947 . S
C22 C21 1.392 . S
C22 C23 1.419 . S
C22 H51 0.948 . S
C23 C22 1.419 . S
C23 C24 1.391 . S
C23 C27 1.397 . S
C24 C19 1.391 . S
C24 C23 1.391 . S
C24 C25 1.399 . S
C25 C24 1.399 . S
C25 C26 1.396 . S
C25 C28 1.453 . S
C25 C29 1.684 . S
C26 C7 1.723 . S
C26 C25 1.396 . S
C26 C27 1.394 . S
C27 C23 1.397 . S
C27 C26 1.394 . S
C27 C37 1.723 . S
C28 C25 1.453 . S
C28 H52 0.982 . S
C28 H53 0.979 . S
C28 H54 0.977 . S
C29 C25 1.684 . S
C29 H55 0.979 . S
C29 H56 0.980 . S
C29 H57 0.983 . S
C30 H6 0.948 . S
C30 C31 1.391 . S
C30 C35 1.391 . S
C31 C30 1.391 . S
C31 C32 1.391 . S
C32 H9 0.947 . S
C32 C31 1.391 . S
C32 C33 1.392 . S
C33 H10 0.948 . S
C33 C32 1.392 . S
C33 C34 1.419 . S
C34 C33 1.419 . S
C34 C35 1.391 . S
C34 C38 1.397 . S
C35 C30 1.391 . S
C35 C34 1.391 . S
C35 C36 1.399 . S
C36 C35 1.399 . S
C36 C37 1.396 . S
C36 C39 1.453 . S
C36 C40 1.684 . S
C37 C27 1.723 . S
C37 C36 1.396 . S
C37 C38 1.394 . S
C38 C8 1.723 . S
C38 C34 1.397 . S
C38 C37 1.394 . S
C39 H11 0.982 . S
C39 H15 0.979 . S
C39 H16 0.977 . S
C39 C36 1.453 . S
C40 H12 0.979 . S
C40 H13 0.980 . S
C40 H14 0.983 . S
C40 C36 1.684 . S
H41 C59 0.948 . S
H42 C0 0.948 . S
H43 C18 0.979 . S
H44 C18 0.980 . S
H45 C18 0.983 . S
H46 C17 0.982 . S
H47 C17 0.979 . S
H48 C17 0.977 . S
H49 C19 0.948 . S
H50 C21 0.947 . S
H51 C22 0.948 . S
H52 C28 0.982 . S
H53 C28 0.979 . S
H54 C28 0.977 . S
H55 C29 0.979 . S
H56 C29 0.980 . S
H57 C29 0.983 . S
H58 C2 0.947 . S
C59 C2 1.392 . S
C59 C3 1.419 . S
C59 H41 0.948 . S
C60 C61 1.391 . S
C60 C64 1.391 . S
C60 H102 0.948 . S
C61 C60 1.391 . S
C61 C62 1.391 . S
C62 C61 1.391 . S
C62 H118 0.947 . S
C62 C119 1.392 . S
C63 C64 1.391 . S
C63 C67 1.397 . S
C63 C119 1.419 . S
C64 C60 1.391 . S
C64 C63 1.391 . S
C64 C65 1.399 . S
C65 C64 1.399 . S
C65 C68 1.396 . S
C65 C77 1.453 . S
C65 C78 1.684 . S
H66 C90 0.948 . S
C67 C63 1.397 . S
C67 C68 1.394 . S
C67 C86 1.723 . S
C68 C65 1.396 . S
C68 C67 1.394 . S
C68 C98 1.723 . S
H69 C92 0.947 . S
H70 C93 0.948 . S
H71 C99 0.982 . S
H72 C100 0.979 . S
H73 C100 0.980 . S
H74 C100 0.983 . S
H75 C99 0.979 . S
H76 C99 0.977 . S
C77 C65 1.453 . S
C77 H106 0.982 . S
C77 H107 0.979 . S
C77 H108 0.977 . S
C78 C65 1.684 . S
C78 H103 0.979 . S
C78 H104 0.980 . S
C78 H105 0.983 . S
C79 C80 1.391 . S
C79 C84 1.391 . S
C79 H109 0.948 . S
C80 C79 1.391 . S
C80 C81 1.391 . S
C81 C80 1.391 . S
C81 C82 1.392 . S
C81 H110 0.947 . S
C82 C81 1.392 . S
C82 C83 1.419 . S
C82 H111 0.948 . S
C83 C82 1.419 . S
C83 C84 1.391 . S
C83 C87 1.397 . S
C84 C79 1.391 . S
C84 C83 1.391 . S
C84 C85 1.399 . S
C85 C84 1.399 . S
C85 C86 1.396 . S
C85 C88 1.453 . S
C85 C89 1.684 . S
C86 C67 1.723 . S
C86 C85 1.396 . S
C86 C87 1.394 . S
C87 C83 1.397 . S
C87 C86 1.394 . S
C87 C97 1.723 . S
C88 C85 1.453 . S
C88 H112 0.982 . S
C88 H113 0.979 . S
C88 H114 0.977 . S
C89 C85 1.684 . S
C89 H115 0.979 . S
C89 H116 0.980 . S
C89 H117 0.983 . S
C90 H66 0.948 . S
C90 C91 1.391 . S
C90 C95 1.391 . S
C91 C90 1.391 . S
C91 C92 1.391 . S
C92 H69 0.947 . S
C92 C91 1.391 . S
C92 C93 1.392 . S
C93 H70 0.948 . S
C93 C92 1.392 . S
C93 C94 1.419 . S
C94 C93 1.419 . S
C94 C95 1.391 . S
C94 C98 1.397 . S
C95 C90 1.391 . S
C95 C94 1.391 . S
C95 C96 1.399 . S
C96 C95 1.399 . S
C96 C97 1.396 . S
C96 C99 1.453 . S
C96 C100 1.684 . S
C97 C87 1.723 . S
C97 C96 1.396 . S
C97 C98 1.394 . S
C98 C68 1.723 . S
C98 C94 1.397 . S
C98 C97 1.394 . S
C99 H71 0.982 . S
C99 H75 0.979 . S
C99 H76 0.977 . S
C99 C96 1.453 . S
C100 H72 0.979 . S
C100 H73 0.980 . S
C100 H74 0.983 . S
C100 C96 1.684 . S
H101 C119 0.948 . S
H102 C60 0.948 . S
H103 C78 0.979 . S
H104 C78 0.980 . S
H105 C78 0.983 . S
H106 C77 0.982 . S
H107 C77 0.979 . S
H108 C77 0.977 . S
H109 C79 0.948 . S
H110 C81 0.947 . S
H111 C82 0.948 . S
H112 C88 0.982 . S
H113 C88 0.979 . S
H114 C88 0.977 . S
H115 C89 0.979 . S
H116 C89 0.980 . S
H117 C89 0.983 . S
H118 C62 0.947 . S
C119 C62 1.392 . S
C119 C63 1.419 . S
C119 H101 0.948 . S
C120 C121 1.391 . S
C120 C124 1.391 . S
C120 H162 0.948 . S
C121 C120 1.391 . S
C121 C122 1.391 . S
C122 C121 1.391 . S
C122 H178 0.947 . S
C122 C179 1.392 . S
C123 C124 1.391 . S
C123 C127 1.397 . S
C123 C179 1.419 . S
C124 C120 1.391 . S
C124 C123 1.391 . S
C124 C125 1.399 . S
C125 C124 1.399 . S
C125 C128 1.396 . S
C125 C137 1.453 . S
C125 C138 1.684 . S
H126 C150 0.948 . S
C127 C123 1.397 . S
C127 C128 1.394 . S
C127 C146 1.723 . S
C128 C125 1.396 . S
C128 C127 1.394 . S
C128 C158 1.723 . S
H129 C152 0.947 . S
H130 C153 0.948 . S
H131 C159 0.982 . S
H132 C160 0.979 . S
H133 C160 0.980 . S
H134 C160 0.983 . S
H135 C159 0.979 . S
H136 C159 0.977 . S
C137 C125 1.453 . S
C137 H166 0.982 . S
C137 H167 0.979 . S
C137 H168 0.977 . S
C138 C125 1.684 . S
C138 H163 0.979 . S
C138 H164 0.980 . S
C138 H165 0.983 . S
C139 C140 1.391 . S
C139 C144 1.391 . S
C139 H169 0.948 . S
C140 C139 1.391 . S
C140 C141 1.391 . S
C141 C140 1.391 . S
C141 C142 1.392 . S
C141 H170 0.947 . S
C142 C141 1.392 . S
C142 C143 1.419 . S
C142 H171 0.948 . S
C143 C142 1.419 . S
C143 C144 1.391 . S
C143 C147 1.397 . S
C144 C139 1.391 . S
C144 C143 1.391 . S
C144 C145 1.399 . S
C145 C144 1.399 . S
C145 C146 1.396 . S
C145 C148 1.453 . S
C145 C149 1.684 . S
C146 C127 1.723 . S
C146 C145 1.396 . S
C146 C147 1.394 . S
C147 C143 1.397 . S
C147 C146 1.394 . S
C147 C157 1.723 . S
C148 C145 1.453 . S
C148 H172 0.982 . S
C148 H173 0.979 . S
C148 H174 0.977 . S
C149 C145 1.684 . S
C149 H175 0.979 . S
C149 H176 0.980 . S
C149 H177 0.983 . S
C150 H126 0.948 . S
C150 C151 1.391 . S
C150 C155 1.391 . S
C151 C150 1.391 . S
C151 C152 1.391 . S
C152 H129 0.947 . S
C152 C151 1.391 . S
C152 C153 1.392 . S
C153 H130 0.948 . S
C153 C152 1.392 . S
C153 C154 1.419 . S
C154 C153 1.419 . S
C154 C155 1.391 . S
C154 C158 1.397 . S
C155 C150 1.391 . S
C155 C154 1.391 . S
C155 C156 1.399 . S
C156 C155 1.399 . S
C156 C157 1.396 . S
C156 C159 1.453 . S
C156 C160 1.684 . S
C157 C147 1.723 . S
C157 C156 1.396 . S
C157 C158 1.394 . S
C158 C128 1.723 . S
C158 C154 1.397 . S
C158 C157 1.394 . S
C159 H131 0.982 . S
C159 H135 0.979 . S
C159 H136 0.977 . S
C159 C156 1.453 . S
C160 H132 0.979 . S
C160 H133 0.980 . S
C160 H134 0.983 . S
C160 C156 1.684 . S
H161 C179 0.948 . S
H162 C120 0.948 . S
H163 C138 0.979 . S
H164 C138 0.980 . S
H165 C138 0.983 . S
H166 C137 0.982 . S
H167 C137 0.979 . S
H168 C137 0.977 . S
H169 C139 0.948 . S
H170 C141 0.947 . S
H171 C142 0.948 . S
H172 C148 0.982 . S
H173 C148 0.979 . S
H174 C148 0.977 . S
H175 C149 0.979 . S
H176 C149 0.980 . S
H177 C149 0.983 . S
H178 C122 0.947 . S
C179 C122 1.392 . S
C179 C123 1.419 . S
C179 H161 0.948 . S
C180 C181 1.391 . S
C180 C184 1.391 . S
C180 H222 0.948 . S
C181 C180 1.391 . S
C181 C182 1.391 . S
C182 C181 1.391 . S
C182 H238 0.947 . S
C182 C239 1.392 . S
C183 C184 1.391 . S
C183 C187 1.397 . S
C183 C239 1.419 . S
C184 C180 1.391 . S
C184 C183 1.391 . S
C184 C185 1.399 . S
C185 C184 1.399 . S
C185 C188 1.396 . S
C185 C197 1.453 . S
C185 C198 1.684 . S
H186 C210 0.948 . S
C187 C183 1.397 . S
C187 C188 1.394 . S
C187 C206 1.723 . S
C188 C185 1.396 . S
C188 C187 1.394 . S
C188 C218 1.723 . S
H189 C212 0.947 . S
H190 C213 0.948 . S
H191 C219 0.982 . S
H192 C220 0.979 . S
H193 C220 0.980 . S
H194 C220 0.983 . S
H195 C219 0.979 . S
H196 C219 0.977 . S
C197 C185 1.453 . S
C197 H226 0.982 . S
C197 H227 0.979 . S
C197 H228 0.977 . S
C198 C185 1.684 . S
C198 H223 0.979 . S
C198 H224 0.980 . S
C198 H225 0.983 . S
C199 C200 1.391 . S
C199 C204 1.391 . S
C199 H229 0.948 . S
C200 C199 1.391 . S
C200 C201 1.391 . S
C201 C200 1.391 . S
C201 C202 1.392 . S
C201 H230 0.947 . S
C202 C201 1.392 . S
C202 C203 1.419 . S
C202 H231 0.948 . S
C203 C202 1.419 . S
C203 C204 1.391 . S
C203 C207 1.397 . S
C204 C199 1.391 . S
C204 C203 1.391 . S
C204 C205 1.399 . S
C205 C204 1.399 . S
C205 C206 1.396 . S
C205 C208 1.453 . S
C205 C209 1.684 . S
C206 C187 1.723 . S
C206 C205 1.396 . S
C206 C207 1.394 . S
C207 C203 1.397 . S
C207 C206 1.394 . S
C207 C217 1.723 . S
C208 C205 1.453 . S
C208 H232 0.982 . S
C208 H233 0.979 . S
C208 H234 0.977 . S
C209 C205 1.684 . S
C209 H235 0.979 . S
C209 H236 0.980 . S
C209 H237 0.983 . S
C210 H186 0.948 . S
C210 C211 1.391 . S
C210 C215 1.391 . S
C211 C210 1.391 . S
C211 C212 1.391 . S
C212 H189 0.947 . S
C212 C211 1.391 . S
C212 C213 1.392 . S
C213 H190 0.948 . S
C213 C212 1.392 . S
C213 C214 1.419 . S
C214 C213 1.419 . S
C214 C215 1.391 . S
C214 C218 1.397 . S
C215 C210 1.391 . S
C215 C214 1.391 . S
C215 C216 1.399 . S
C216 C215 1.399 . S
C216 C217 1.396 . S
C216 C219 1.453 . S
C216 C220 1.684 . S
C217 C207 1.723 . S
C217 C216 1.396 . S
C217 C218 1.394 . S
C218 C188 1.723 . S
C218 C214 1.397 . S
C218 C217 1.394 . S
C219 H191 0.982 . S
C219 H195 0.979 . S
C219 H196 0.977 . S
C219 C216 1.453 . S
C220 H192 0.979 . S
C220 H193 0.980 . S
C220 H194 0.983 . S
C220 C216 1.684 . S
H221 C239 0.948 . S
H222 C180 0.948 . S
H223 C198 0.979 . S
H224 C198 0.980 . S
H225 C198 0.983 . S
H226 C197 0.982 . S
H227 C197 0.979 . S
H228 C197 0.977 . S
H229 C199 0.948 . S
H230 C201 0.947 . S
H231 C202 0.948 . S
H232 C208 0.982 . S
H233 C208 0.979 . S
H234 C208 0.977 . S
H235 C209 0.979 . S
H236 C209 0.980 . S
H237 C209 0.983 . S
H238 C182 0.947 . S
C239 C182 1.392 . S
C239 C183 1.419 . S
C239 H221 0.948 . S
C240 C241 1.391 . S
C240 C244 1.391 . S
C240 H282 0.948 . S
C241 C240 1.391 . S
C241 C242 1.391 . S
C242 C241 1.391 . S
C242 H298 0.947 . S
C242 C299 1.392 . S
C243 C244 1.391 . S
C243 C247 1.397 . S
C243 C299 1.419 . S
C244 C240 1.391 . S
C244 C243 1.391 . S
C244 C245 1.399 . S
C245 C244 1.399 . S
C245 C248 1.396 . S
C245 C257 1.453 . S
C245 C258 1.684 . S
H246 C270 0.948 . S
C247 C243 1.397 . S
C247 C248 1.394 . S
C247 C266 1.723 . S
C248 C245 1.396 . S
C248 C247 1.394 . S
C248 C278 1.723 . S
H249 C272 0.947 . S
H250 C273 0.948 . S
H251 C279 0.982 . S
H252 C280 0.979 . S
H253 C280 0.980 . S
H254 C280 0.983 . S
H255 C279 0.979 . S
H256 C279 0.977 . S
C257 C245 1.453 . S
C257 H286 0.982 . S
C257 H287 0.979 . S
C257 H288 0.977 . S
C258 C245 1.684 . S
C258 H283 0.979 . S
C258 H284 0.980 . S
C258 H285 0.983 . S
C259 C260 1.391 . S
C259 C264 1.391 . S
C259 H289 0.948 . S
C260 C259 1.391 . S
C260 C261 1.391 . S
C261 C260 1.391 . S
C261 C262 1.392 . S
C261 H290 0.947 . S
C262 C261 1.392 . S
C262 C263 1.419 . S
C262 H291 0.948 . S
C263 C262 1.419 . S
C263 C264 1.391 . S
C263 C267 1.397 . S
C264 C259 1.391 . S
C264 C263 1.391 . S
C264 C265 1.399 . S
C265 C264 1.399 . S
C265 C266 1.396 . S
C265 C268 1.453 . S
C265 C269 1.684 . S
C266 C247 1.723 . S
C266 C265 1.396 . S
C266 C267 1.394 . S
C267 C263 1.397 . S
C267 C266 1.394 . S
C267 C277 1.723 . S
C268 C265 1.453 . S
C268 H292 0.982 . S
C268 H293 0.979 . S
C268 H294 0.977 . S
C269 C265 1.684 . S
C269 H295 0.979 . S
C269 H296 0.980 . S
C269 H297 0.983 . S
C270 H246 0.948 . S
C270 C271 1.391 . S
C270 C275 1.391 . S
C271 C270 1.391 . S
C271 C272 1.391 . S
C272 H249 0.947 . S
C272 C271 1.391 . S
C272 C273 1.392 . S
C273 H250 0.948 . S
C273 C272 1.392 . S
C273 C274 1.419 . S
C274 C273 1.419 . S
C274 C275 1.391 . S
C274 C278 1.397 . S
C275 C270 1.391 . S
C275 C274 1.391 . S
C275 C276 1.399 . S
C276 C275 1.399 . S
C276 C277 1.396 . S
C276 C279 1.453 . S
C276 C280 1.684 . S
C277 C267 1.723 . S
C277 C276 1.396 . S
C277 C278 1.394 . S
C278 C248 1.723 . S
C278 C274 1.397 . S
C278 C277 1.394 . S
C279 H251 0.982 . S
C279 H255 0.979 . S
C279 H256 0.977 . S
C279 C276 1.453 . S
C280 H252 0.979 . S
C280 H253 0.980 . S
C280 H254 0.983 . S
C280 C276 1.684 . S
H281 C299 0.948 . S
H282 C240 0.948 . S
H283 C258 0.979 . S
H284 C258 0.980 . S
H285 C258 0.983 . S
H286 C257 0.982 . S
H287 C257 0.979 . S
H288 C257 0.977 . S
H289 C259 0.948 . S
H290 C261 0.947 . S
H291 C262 0.948 . S
H292 C268 0.982 . S
H293 C268 0.979 . S
H294 C268 0.977 . S
H295 C269 0.979 . S
H296 C269 0.980 . S
H297 C269 0.983 . S
H298 C242 0.947 . S
C299 C242 1.392 . S
C299 C243 1.419 . S
C299 H281 0.948 . S
C300 C301 1.391 . S
C300 C304 1.391 . S
C300 H342 0.948 . S
C301 C300 1.391 . S
C301 C302 1.391 . S
C302 C301 1.391 . S
C302 H358 0.947 . S
C302 C359 1.392 . S
C303 C304 1.391 . S
C303 C307 1.397 . S
C303 C359 1.419 . S
C304 C300 1.391 . S
C304 C303 1.391 . S
C304 C305 1.399 . S
C305 C304 1.399 . S
C305 C308 1.396 . S
C305 C317 1.453 . S
C305 C318 1.684 . S
H306 C330 0.948 . S
C307 C303 1.397 . S
C307 C308 1.394 . S
C307 C326 1.723 . S
C308 C305 1.396 . S
C308 C307 1.394 . S
C308 C338 1.723 . S
H309 C332 0.947 . S
H310 C333 0.948 . S
H311 C339 0.982 . S
H312 C340 0.979 . S
H313 C340 0.980 . S
H314 C340 0.983 . S
H315 C339 0.979 . S
H316 C339 0.977 . S
C317 C305 1.453 . S
C317 H346 0.982 . S
C317 H347 0.979 . S
C317 H348 0.977 . S
C318 C305 1.684 . S
C318 H343 0.979 . S
C318 H344 0.980 . S
C318 H345 0.983 . S
C319 C320 1.391 . S
C319 C324 1.391 . S
C319 H349 0.948 . S
C320 C319 1.391 . S
C320 C321 1.391 . S
C321 C320 1.391 . S
C321 C322 1.392 . S
C321 H350 0.947 . S
C322 C321 1.392 . S
C322 C323 1.419 . S
C322 H351 0.948 . S
C323 C322 1.419 . S
C323 C324 1.391 . S
C323 C327 1.397 . S
C324 C319 1.391 . S
C324 C323 1.391 . S
C324 C325 1.399 . S
C325 C324 1.399 . S
C325 C326 1.396 . S
C325 C328 1.453 . S
C325 C329 1.684 . S
C326 C307 1.723 . S
C326 C325 1.396 . S
C326 C327 1.394 . S
C327 C323 1.397 . S
C327 C326 1.394 . S
C327 C337 1.723 . S
C328 C325 1.453 . S
C328 H352 0.982 . S
C328 H353 0.979 . S
C328 H354 0.977 . S
C329 C325 1.684 . S
C329 H355 0.979 . S
C329 H356 0.980 . S
C329 H357 0.983 . S
C330 H306 0.948 . S
C330 C331 1.391 . S
C330 C335 1.391 . S
C331 C330 1.391 . S
C331 C332 1.391 . S
C332 H309 0.947 . S
C332 C331 1.391 . S
C332 C333 1.392 . S
C333 H310 0.948 . S
C333 C332 1.392 . S
C333 C334 1.419 . S
C334 C333 1.419 . S
C334 C335 1.391 . S
C334 C338 1.397 . S
C335 C330 1.391 . S
C335 C334 1.391 . S
C335 C336 1.399 . S
C336 C335 1.399 . S
C336 C337 1.396 . S
C336 C339 1.453 . S
C336 C340 1.684 . S
C337 C327 1.723 . S
C337 C336 1.396 . S
C337 C338 1.394 . S
C338 C308 1.723 . S
C338 C334 1.397 . S
C338 C337 1.394 . S
C339 H311 0.982 . S
C339 H315 0.979 . S
C339 H316 0.977 . S
C339 C336 1.453 . S
C340 H312 0.979 . S
C340 H313 0.980 . S
C340 H314 0.983 . S
C340 C336 1.684 . S
H341 C359 0.948 . S
H342 C300 0.948 . S
H343 C318 0.979 . S
H344 C318 0.980 . S
H345 C318 0.983 . S
H346 C317 0.982 . S
H347 C317 0.979 . S
H348 C317 0.977 . S
H349 C319 0.948 . S
H350 C321 0.947 . S
H351 C322 0.948 . S
H352 C328 0.982 . S
H353 C328 0.979 . S
H354 C328 0.977 . S
H355 C329 0.979 . S
H356 C329 0.980 . S
H357 C329 0.983 . S
H358 C302 0.947 . S
C359 C302 1.392 . S
C359 C303 1.419 . S
C359 H341 0.948 . S
C360 C361 1.391 . S
C360 C364 1.391 . S
C360 H402 0.948 . S
C361 C360 1.391 . S
C361 C362 1.391 . S
C362 C361 1.391 . S
C362 H418 0.947 . S
C362 C419 1.392 . S
C363 C364 1.391 . S
C363 C367 1.397 . S
C363 C419 1.419 . S
C364 C360 1.391 . S
C364 C363 1.391 . S
C364 C365 1.399 . S
C365 C364 1.399 . S
C365 C368 1.396 . S
C365 C377 1.453 . S
C365 C378 1.684 . S
H366 C390 0.948 . S
C367 C363 1.397 . S
C367 C368 1.394 . S
C367 C386 1.723 . S
C368 C365 1.396 . S
C368 C367 1.394 . S
C368 C398 1.723 . S
H369 C392 0.947 . S
H370 C393 0.948 . S
H371 C399 0.982 . S
H372 C400 0.979 . S
H373 C400 0.980 . S
H374 C400 0.983 . S
H375 C399 0.979 . S
H376 C399 0.977 . S
C377 C365 1.453 . S
C377 H406 0.982 . S
C377 H407 0.979 . S
C377 H408 0.977 . S
C378 C365 1.684 . S
C378 H403 0.979 . S
C378 H404 0.980 . S
C378 H405 0.983 . S
C379 C380 1.391 . S
C379 C384 1.391 . S
C379 H409 0.948 . S
C380 C379 1.391 . S
C380 C381 1.391 . S
C381 C380 1.391 . S
C381 C382 1.392 . S
C381 H410 0.947 . S
C382 C381 1.392 . S
C382 C383 1.419 . S
C382 H411 0.948 . S
C383 C382 1.419 . S
C383 C384 1.391 . S
C383 C387 1.397 . S
C384 C379 1.391 . S
C384 C383 1.391 . S
C384 C385 1.399 . S
C385 C384 1.399 . S
C385 C386 1.396 . S
C385 C388 1.453 . S
C385 C389 1.684 . S
C386 C367 1.723 . S
C386 C385 1.396 . S
C386 C387 1.394 . S
C387 C383 1.397 . S
C387 C386 1.394 . S
C387 C397 1.723 . S
C388 C385 1.453 . S
C388 H412 0.982 . S
C388 H413 0.979 . S
C388 H414 0.977 . S
C389 C385 1.684 . S
C389 H415 0.979 . S
C389 H416 0.980 . S
C389 H417 0.983 . S
C390 H366 0.948 . S
C390 C391 1.391 . S
C390 C395 1.391 . S
C391 C390 1.391 . S
C391 C392 1.391 . S
C392 H369 0.947 . S
C392 C391 1.391 . S
C392 C393 1.392 . S
C393 H370 0.948 . S
C393 C392 1.392 . S
C393 C394 1.419 . S
C394 C393 1.419 . S
C394 C395 1.391 . S
C394 C398 1.397 . S
C395 C390 1.391 . S
C395 C394 1.391 . S
C395 C396 1.399 . S
C396 C395 1.399 . S
C396 C397 1.396 . S
C396 C399 1.453 . S
C396 C400 1.684 . S
C397 C387 1.723 . S
C397 C396 1.396 . S
C397 C398 1.394 . S
C398 C368 1.723 . S
C398 C394 1.397 . S
C398 C397 1.394 . S
C399 H371 0.982 . S
C399 H375 0.979 . S
C399 H376 0.977 . S
C399 C396 1.453 . S
C400 H372 0.979 . S
C400 H373 0.980 . S
C400 H374 0.983 . S
C400 C396 1.684 . S
H401 C419 0.948 . S
H402 C360 0.948 . S
H403 C378 0.979 . S
H404 C378 0.980 . S
H405 C378 0.983 . S
H406 C377 0.982 . S
H407 C377 0.979 . S
H408 C377 0.977 . S
H409 C379 0.948 . S
H410 C381 0.947 . S
H411 C382 0.948 . S
H412 C388 0.982 . S
H413 C388 0.979 . S
H414 C388 0.977 . S
H415 C389 0.979 . S
H416 C389 0.980 . S
H417 C389 0.983 . S
H418 C362 0.947 . S
C419 C362 1.392 . S
C419 C363 1.419 . S
C419 H401 0.948 . S
C420 C421 1.391 . S
C420 C424 1.391 . S
C420 H462 0.948 . S
C421 C420 1.391 . S
C421 C422 1.391 . S
C422 C421 1.391 . S
C422 H478 0.947 . S
C422 C479 1.392 . S
C423 C424 1.391 . S
C423 C427 1.397 . S
C423 C479 1.419 . S
C424 C420 1.391 . S
C424 C423 1.391 . S
C424 C425 1.399 . S
C425 C424 1.399 . S
C425 C428 1.396 . S
C425 C437 1.453 . S
C425 C438 1.684 . S
H426 C450 0.948 . S
C427 C423 1.397 . S
C427 C428 1.394 . S
C427 C446 1.723 . S
C428 C425 1.396 . S
C428 C427 1.394 . S
C428 C458 1.723 . S
H429 C452 0.947 . S
H430 C453 0.948 . S
H431 C459 0.982 . S
H432 C460 0.979 . S
H433 C460 0.980 . S
H434 C460 0.983 . S
H435 C459 0.979 . S
H436 C459 0.977 . S
C437 C425 1.453 . S
C437 H466 0.982 . S
C437 H467 0.979 . S
C437 H468 0.977 . S
C438 C425 1.684 . S
C438 H463 0.979 . S
C438 H464 0.980 . S
C438 H465 0.983 . S
C439 C440 1.391 . S
C439 C444 1.391 . S
C439 H469 0.948 . S
C440 C439 1.391 . S
C440 C441 1.391 . S
C441 C440 1.391 . S
C441 C442 1.392 . S
C441 H470 0.947 . S
C442 C441 1.392 . S
C442 C443 1.419 . S
C442 H471 0.948 . S
C443 C442 1.419 . S
C443 C444 1.391 . S
C443 C447 1.397 . S
C444 C439 1.391 . S
C444 C443 1.391 . S
C444 C445 1.399 . S
C445 C444 1.399 . S
C445 C446 1.396 . S
C445 C448 1.453 . S
C445 C449 1.684 . S
C446 C427 1.723 . S
C446 C445 1.396 . S
C446 C447 1.394 . S
C447 C443 1.397 . S
C447 C446 1.394 . S
C447 C457 1.723 . S
C448 C445 1.453 . S
C448 H472 0.982 . S
C448 H473 0.979 . S
C448 H474 0.977 . S
C449 C445 1.684 . S
C449 H475 0.979 . S
C449 H476 0.980 . S
C449 H477 0.983 . S
C450 H426 0.948 . S
C450 C451 1.391 . S
C450 C455 1.391 . S
C451 C450 1.391 . S
C451 C452 1.391 . S
C452 H429 0.947 . S
C452 C451 1.391 . S
C452 C453 1.392 . S
C453 H430 0.948 . S
C453 C452 1.392 . S
C453 C454 1.419 . S
C454 C453 1.419 . S
C454 C455 1.391 . S
C454 C458 1.397 . S
C455 C450 1.391 . S
C455 C454 1.391 . S
C455 C456 1.399 . S
C456 C455 1.399 . S
C456 C457 1.396 . S
C456 C459 1.453 . S
C456 C460 1.684 . S
C457 C447 1.723 . S
C457 C456 1.396 . S
C457 C458 1.394 . S
C458 C428 1.723 . S
C458 C454 1.397 . S
C458 C457 1.394 . S
C459 H431 0.982 . S
C459 H435 0.979 . S
C459 H436 0.977 . S
C459 C456 1.453 . S
C460 H432 0.979 . S
C460 H433 0.980 . S
C460 H434 0.983 . S
C460 C456 1.684 . S
H461 C479 0.948 . S
H462 C420 0.948 . S
H463 C438 0.979 . S
H464 C438 0.980 . S
H465 C438 0.983 . S
H466 C437 0.982 . S
H467 C437 0.979 . S
H468 C437 0.977 . S
H469 C439 0.948 . S
H470 C441 0.947 . S
H471 C442 0.948 . S
H472 C448 0.982 . S
H473 C448 0.979 . S
H474 C448 0.977 . S
H475 C449 0.979 . S
H476 C449 0.980 . S
H477 C449 0.983 . S
H478 C422 0.947 . S
C479 C422 1.392 . S
C479 C423 1.419 . S
C479 H461 0.948 . S
Pr480 C482 2.880 . S
Pr480 O500 2.562 . S
Pr480 O501 2.490 . S
Pr480 O502 2.695 1_665 S
Pr480 O503 2.514 1_565 S
Pr480 O505 2.437 1_655 S
Pr480 O508 2.436 . S
Pr480 O510 2.438 1_565 S
Pr481 C491 2.880 . S
Pr481 O502 2.436 . S
Pr481 O504 2.438 1_545 S
Pr481 O506 2.562 . S
Pr481 O507 2.490 . S
Pr481 O508 2.695 1_445 S
Pr481 O509 2.517 1_545 S
Pr481 O511 2.437 1_455 S
C482 Pr480 2.880 . S
C482 C483 1.491 . S
C482 O500 1.254 . S
C482 O501 1.225 . S
C483 C482 1.491 . S
C483 C484 1.392 . S
C483 C488 1.356 . S
C484 C483 1.392 . S
C484 C485 1.368 . S
C484 H512 0.929 . S
C485 C484 1.368 . S
C485 C486 1.386 . S
C485 H513 0.929 . S
C486 C485 1.386 . S
C486 C487 1.373 . S
C487 C486 1.373 . S
C487 C488 1.409 . S
C487 H514 0.931 . S
C488 C483 1.356 . S
C488 C487 1.409 . S
C488 H515 0.930 . S
C489 O502 1.270 . S
C489 O503 1.244 1_455 S
C490 O504 1.267 . S
C490 O505 1.278 . S
C491 Pr481 2.880 . S
C491 C492 1.491 . S
C491 O506 1.254 . S
C491 O507 1.225 . S
C492 C491 1.491 . S
C492 C493 1.392 . S
C492 C497 1.356 . S
C493 C492 1.392 . S
C493 C494 1.368 . S
C493 H516 0.929 . S
C494 C493 1.368 . S
C494 C495 1.386 . S
C494 H517 0.929 . S
C495 C494 1.386 . S
C495 C496 1.373 . S
C496 C495 1.373 . S
C496 C497 1.409 . S
C496 H518 0.931 . S
C497 C492 1.356 . S
C497 C496 1.409 . S
C497 H519 0.930 . S
C498 O508 1.270 . S
C498 O509 1.232 1_655 S
C499 O510 1.267 . S
C499 O511 1.278 . S
O500 Pr480 2.562 . S
O500 C482 1.254 . S
O501 Pr480 2.490 . S
O501 C482 1.225 . S
O502 Pr480 2.695 1_445 S
O502 Pr481 2.436 . S
O502 C489 1.270 . S
O503 Pr480 2.514 1_545 S
O503 C489 1.244 1_655 S
O504 Pr481 2.438 1_565 S
O504 C490 1.267 . S
O505 Pr480 2.437 1_455 S
O505 C490 1.278 . S
O506 Pr481 2.562 . S
O506 C491 1.254 . S
O507 Pr481 2.490 . S
O507 C491 1.225 . S
O508 Pr480 2.436 . S
O508 Pr481 2.695 1_665 S
O508 C498 1.270 . S
O509 Pr481 2.517 1_565 S
O509 C498 1.232 1_455 S
O510 Pr480 2.438 1_545 S
O510 C499 1.267 . S
O511 Pr481 2.437 1_655 S
O511 C499 1.278 . S
H512 C484 0.929 . S
H513 C485 0.929 . S
H514 C487 0.931 . S
H515 C488 0.930 . S
H516 C493 0.929 . S
H517 C494 0.929 . S
H518 C496 0.931 . S
H519 C497 0.930 . S
Pr520 C522 2.880 . S
Pr520 O540 2.562 . S
Pr520 O541 2.490 . S
Pr520 O542 2.695 1_554 S
Pr520 O543 2.512 1_554 S
Pr520 O545 2.437 . S
Pr520 O548 2.436 1_545 S
Pr520 O550 2.438 1_544 S
Pr521 C531 2.899 . S
Pr521 O542 2.445 1_565 S
Pr521 O544 2.420 1_566 S
Pr521 O546 2.587 . S
Pr521 O547 2.500 . S
Pr521 O548 2.678 1_556 S
Pr521 O549 2.494 1_556 S
Pr521 O551 2.447 . S
C522 Pr520 2.880 . S
C522 C523 1.491 . S
C522 O540 1.254 . S
C522 O541 1.225 . S
C523 C522 1.491 . S
C523 C524 1.392 . S
C523 C528 1.356 . S
C524 C523 1.392 . S
C524 C525 1.368 . S
C524 H552 0.929 . S
C525 C524 1.368 . S
C525 C526 1.386 . S
C525 H553 0.929 . S
C526 C525 1.386 . S
C526 C527 1.373 . S
C527 C526 1.373 . S
C527 C528 1.409 . S
C527 H554 0.931 . S
C528 C523 1.356 . S
C528 C527 1.409 . S
C528 H555 0.930 . S
C529 O542 1.270 . S
C529 O543 1.248 . S
C530 O544 1.267 . S
C530 O545 1.278 . S
C531 Pr521 2.899 . S
C531 C532 1.491 . S
C531 O546 1.254 . S
C531 O547 1.225 . S
C532 C531 1.491 . S
C532 C533 1.392 . S
C532 C537 1.356 . S
C533 C532 1.392 . S
C533 C534 1.368 . S
C533 H556 0.929 . S
C534 C533 1.368 . S
C534 C535 1.386 . S
C534 H557 0.929 . S
C535 C534 1.386 . S
C535 C536 1.373 . S
C536 C535 1.373 . S
C536 C537 1.409 . S
C536 H558 0.931 . S
C537 C532 1.356 . S
C537 C536 1.409 . S
C537 H559 0.930 . S
C538 O548 1.270 . S
C538 O549 1.248 . S
C539 O550 1.267 . S
C539 O551 1.278 . S
O540 Pr520 2.562 . S
O540 C522 1.254 . S
O541 Pr520 2.490 . S
O541 C522 1.225 . S
O542 Pr520 2.695 1_556 S
O542 Pr521 2.445 1_545 S
O542 C529 1.270 . S
O543 Pr520 2.512 1_556 S
O543 C529 1.248 . S
O544 Pr521 2.420 1_544 S
O544 C530 1.267 . S
O545 Pr520 2.437 . S
O545 C530 1.278 . S
O546 Pr521 2.587 . S
O546 C531 1.254 . S
O547 Pr521 2.500 . S
O547 C531 1.225 . S
O548 Pr520 2.436 1_565 S
O548 Pr521 2.678 1_554 S
O548 C538 1.270 . S
O549 Pr521 2.494 1_554 S
O549 C538 1.248 . S
O550 Pr520 2.438 1_566 S
O550 C539 1.267 . S
O551 Pr521 2.447 . S
O551 C539 1.278 . S
H552 C524 0.929 . S
H553 C525 0.929 . S
H554 C527 0.931 . S
H555 C528 0.930 . S
H556 C533 0.929 . S
H557 C534 0.929 . S
H558 C536 0.931 . S
H559 C537 0.930 . S
Pr560 C562 2.880 . S
Pr560 O580 2.562 . S
Pr560 O581 2.490 . S
Pr560 O582 2.695 . S
Pr560 O583 2.512 . S
Pr560 O585 2.437 . S
Pr560 O588 2.436 . S
Pr560 O590 2.438 . S
Pr561 C571 2.880 . S
Pr561 O582 2.436 . S
Pr561 O584 2.438 . S
Pr561 O586 2.562 . S
Pr561 O587 2.490 . S
Pr561 O588 2.695 . S
Pr561 O589 2.512 . S
Pr561 O591 2.437 . S
C562 Pr560 2.880 . S
C562 C563 1.491 . S
C562 O580 1.254 . S
C562 O581 1.225 . S
C563 C562 1.491 . S
C563 C564 1.392 . S
C563 C568 1.356 . S
C564 C563 1.392 . S
C564 C565 1.368 . S
C564 H592 0.929 . S
C565 C564 1.368 . S
C565 C566 1.386 . S
C565 H593 0.929 . S
C566 C565 1.386 . S
C566 C567 1.373 . S
C567 C566 1.373 . S
C567 C568 1.409 . S
C567 H594 0.931 . S
C568 C563 1.356 . S
C568 C567 1.409 . S
C568 H595 0.930 . S
C569 O582 1.270 . S
C569 O583 1.248 . S
C570 O584 1.267 . S
C570 O585 1.278 . S
C571 Pr561 2.880 . S
C571 C572 1.491 . S
C571 O586 1.254 . S
C571 O587 1.225 . S
C572 C571 1.491 . S
C572 C573 1.392 . S
C572 C577 1.356 . S
C573 C572 1.392 . S
C573 C574 1.368 . S
C573 H596 0.929 . S
C574 C573 1.368 . S
C574 C575 1.386 . S
C574 H597 0.929 . S
C575 C574 1.386 . S
C575 C576 1.373 . S
C576 C575 1.373 . S
C576 C577 1.409 . S
C576 H598 0.931 . S
C577 C572 1.356 . S
C577 C576 1.409 . S
C577 H599 0.930 . S
C578 O588 1.270 . S
C578 O589 1.248 . S
C579 O590 1.267 . S
C579 O591 1.278 . S
O580 Pr560 2.562 . S
O580 C562 1.254 . S
O581 Pr560 2.490 . S
O581 C562 1.225 . S
O582 Pr560 2.695 . S
O582 Pr561 2.436 . S
O582 C569 1.270 . S
O583 Pr560 2.512 . S
O583 C569 1.248 . S
O584 Pr561 2.438 . S
O584 C570 1.267 . S
O585 Pr560 2.437 . S
O585 C570 1.278 . S
O586 Pr561 2.562 . S
O586 C571 1.254 . S
O587 Pr561 2.490 . S
O587 C571 1.225 . S
O588 Pr560 2.436 . S
O588 Pr561 2.695 . S
O588 C578 1.270 . S
O589 Pr561 2.512 . S
O589 C578 1.248 . S
O590 Pr560 2.438 . S
O590 C579 1.267 . S
O591 Pr561 2.437 . S
O591 C579 1.278 . S
H592 C564 0.929 . S
H593 C565 0.929 . S
H594 C567 0.931 . S
H595 C568 0.930 . S
H596 C573 0.929 . S
H597 C574 0.929 . S
H598 C576 0.931 . S
H599 C577 0.930 . S
Pr600 C602 2.880 . S
Pr600 O620 2.562 . S
Pr600 O621 2.490 . S
Pr600 O622 2.695 1_656 S
Pr600 O623 2.512 1_656 S
Pr600 O625 2.437 1_556 S
Pr600 O628 2.436 . S
Pr600 O630 2.438 1_655 S
Pr601 C611 2.880 . S
Pr601 O622 2.436 . S
Pr601 O624 2.438 1_455 S
Pr601 O626 2.562 . S
Pr601 O627 2.490 . S
Pr601 O628 2.695 1_454 S
Pr601 O629 2.512 1_454 S
Pr601 O631 2.437 1_554 S
C602 Pr600 2.880 . S
C602 C603 1.491 . S
C602 O620 1.254 . S
C602 O621 1.225 . S
C603 C602 1.491 . S
C603 C604 1.392 . S
C603 C608 1.356 . S
C604 C603 1.392 . S
C604 C605 1.368 . S
C604 H632 0.929 . S
C605 C604 1.368 . S
C605 C606 1.386 . S
C605 H633 0.929 . S
C606 C605 1.386 . S
C606 C607 1.373 . S
C607 C606 1.373 . S
C607 C608 1.409 . S
C607 H634 0.931 . S
C608 C603 1.356 . S
C608 C607 1.409 . S
C608 H635 0.930 . S
C609 O622 1.270 . S
C609 O623 1.248 . S
C610 O624 1.267 . S
C610 O625 1.278 . S
C611 Pr601 2.880 . S
C611 C612 1.491 . S
C611 O626 1.254 . S
C611 O627 1.225 . S
C612 C611 1.491 . S
C612 C613 1.392 . S
C612 C617 1.356 . S
C613 C612 1.392 . S
C613 C614 1.368 . S
C613 H636 0.929 . S
C614 C613 1.368 . S
C614 C615 1.386 . S
C614 H637 0.929 . S
C615 C614 1.386 . S
C615 C616 1.373 . S
C616 C615 1.373 . S
C616 C617 1.409 . S
C616 H638 0.931 . S
C617 C612 1.356 . S
C617 C616 1.409 . S
C617 H639 0.930 . S
C618 O628 1.270 . S
C618 O629 1.248 . S
C619 O630 1.267 . S
C619 O631 1.278 . S
O620 Pr600 2.562 . S
O620 C602 1.254 . S
O621 Pr600 2.490 . S
O621 C602 1.225 . S
O622 Pr600 2.695 1_454 S
O622 Pr601 2.436 . S
O622 C609 1.270 . S
O623 Pr600 2.512 1_454 S
O623 C609 1.248 . S
O624 Pr601 2.438 1_655 S
O624 C610 1.267 . S
O625 Pr600 2.437 1_554 S
O625 C610 1.278 . S
O626 Pr601 2.562 . S
O626 C611 1.254 . S
O627 Pr601 2.490 . S
O627 C611 1.225 . S
O628 Pr600 2.436 . S
O628 Pr601 2.695 1_656 S
O628 C618 1.270 . S
O629 Pr601 2.512 1_656 S
O629 C618 1.248 . S
O630 Pr600 2.438 1_455 S
O630 C619 1.267 . S
O631 Pr601 2.437 1_556 S
O631 C619 1.278 . S
H632 C604 0.929 . S
H633 C605 0.929 . S
H634 C607 0.931 . S
H635 C608 0.930 . S
H636 C613 0.929 . S
H637 C614 0.929 . S
H638 C616 0.931 . S
H639 C617 0.930 . S
C640 C641 1.369 . S
C640 C642 1.419 . S
C640 H644 0.930 . S
C641 C640 1.369 . S
C641 C650 1.429 . S
C642 C640 1.419 . S
C642 C643 1.363 . S
C642 H645 0.929 . S
C643 C642 1.363 . S
C643 C649 1.428 . S
H644 C640 0.930 . S
H645 C642 0.929 . S
S646 N647 1.613 . S
S646 N648 1.610 . S
N647 S646 1.613 . S
N647 C650 1.350 . S
N648 S646 1.610 . S
N648 C649 1.351 . S
C649 C643 1.428 . S
C649 N648 1.351 . S
C649 C650 1.434 . S
C650 C641 1.429 . S
C650 N647 1.350 . S
C650 C649 1.434 . S
C651 C652 1.369 . S
C651 C653 1.419 . S
C651 H655 0.930 . S
C652 C651 1.369 . S
C652 C661 1.429 . S
C653 C651 1.419 . S
C653 C654 1.363 . S
C653 H656 0.929 . S
C654 C653 1.363 . S
C654 C660 1.428 . S
H655 C651 0.930 . S
H656 C653 0.929 . S
S657 N658 1.613 . S
S657 N659 1.610 . S
N658 S657 1.613 . S
N658 C661 1.350 . S
N659 S657 1.610 . S
N659 C660 1.351 . S
C660 C654 1.428 . S
C660 N659 1.351 . S
C660 C661 1.434 . S
C661 C652 1.429 . S
C661 N658 1.350 . S
C661 C660 1.434 . S
C662 C663 1.369 . S
C662 C664 1.419 . S
C662 H666 0.930 . S
C663 C662 1.369 . S
C663 C672 1.429 . S
C664 C662 1.419 . S
C664 C665 1.363 . S
C664 H667 0.929 . S
C665 C664 1.363 . S
C665 C671 1.428 . S
H666 C662 0.930 . S
H667 C664 0.929 . S
S668 N669 1.613 . S
S668 N670 1.610 . S
N669 S668 1.613 . S
N669 C672 1.350 . S
N670 S668 1.610 . S
N670 C671 1.351 . S
C671 C665 1.428 . S
C671 N670 1.351 . S
C671 C672 1.434 . S
C672 C663 1.429 . S
C672 N669 1.350 . S
C672 C671 1.434 . S
C673 C674 1.369 . S
C673 C675 1.419 . S
C673 H677 0.930 . S
C674 C673 1.369 . S
C674 C683 1.429 . S
C675 C673 1.419 . S
C675 C676 1.363 . S
C675 H678 0.929 . S
C676 C675 1.363 . S
C676 C682 1.428 . S
H677 C673 0.930 . S
H678 C675 0.929 . S
S679 N680 1.613 . S
S679 N681 1.610 . S
N680 S679 1.613 . S
N680 C683 1.350 . S
N681 S679 1.610 . S
N681 C682 1.351 . S
C682 C676 1.428 . S
C682 N681 1.351 . S
C682 C683 1.434 . S
C683 C674 1.429 . S
C683 N680 1.350 . S
C683 C682 1.434 . S
C684 C685 1.369 . S
C684 C686 1.419 . S
C684 H688 0.930 . S
C685 C684 1.369 . S
C685 C694 1.429 . S
C686 C684 1.419 . S
C686 C687 1.363 . S
C686 H689 0.929 . S
C687 C686 1.363 . S
C687 C693 1.428 . S
H688 C684 0.930 . S
H689 C686 0.929 . S
S690 N691 1.613 . S
S690 N692 1.610 . S
N691 S690 1.613 . S
N691 C694 1.350 . S
N692 S690 1.610 . S
N692 C693 1.351 . S
C693 C687 1.428 . S
C693 N692 1.351 . S
C693 C694 1.434 . S
C694 C685 1.429 . S
C694 N691 1.350 . S
C694 C693 1.434 . S
C695 C696 1.369 . S
C695 C697 1.419 . S
C695 H699 0.930 . S
C696 C695 1.369 . S
C696 C705 1.429 . S
C697 C695 1.419 . S
C697 C698 1.363 . S
C697 H700 0.929 . S
C698 C697 1.363 . S
C698 C704 1.428 . S
H699 C695 0.930 . S
H700 C697 0.929 . S
S701 N702 1.613 . S
S701 N703 1.610 . S
N702 S701 1.613 . S
N702 C705 1.350 . S
N703 S701 1.610 . S
N703 C704 1.351 . S
C704 C698 1.428 . S
C704 N703 1.351 . S
C704 C705 1.434 . S
C705 C696 1.429 . S
C705 N702 1.350 . S
C705 C704 1.434 . S
C706 C707 1.369 . S
C706 C708 1.419 . S
C706 H710 0.930 . S
C707 C706 1.369 . S
C707 C716 1.429 . S
C708 C706 1.419 . S
C708 C709 1.363 . S
C708 H711 0.929 . S
C709 C708 1.363 . S
C709 C715 1.428 . S
H710 C706 0.930 . S
H711 C708 0.929 . S
S712 N713 1.613 . S
S712 N714 1.610 . S
N713 S712 1.613 . S
N713 C716 1.350 . S
N714 S712 1.610 . S
N714 C715 1.351 . S
C715 C709 1.428 . S
C715 N714 1.351 . S
C715 C716 1.434 . S
C716 C707 1.429 . S
C716 N713 1.350 . S
C716 C715 1.434 . S
C717 C718 1.369 . S
C717 C719 1.419 . S
C717 H721 0.930 . S
C718 C717 1.369 . S
C718 C727 1.429 . S
C719 C717 1.419 . S
C719 C720 1.363 . S
C719 H722 0.929 . S
C720 C719 1.363 . S
C720 C726 1.428 . S
H721 C717 0.930 . S
H722 C719 0.929 . S
S723 N724 1.613 . S
S723 N725 1.610 . S
N724 S723 1.613 . S
N724 C727 1.350 . S
N725 S723 1.610 . S
N725 C726 1.351 . S
C726 C720 1.428 . S
C726 N725 1.351 . S
C726 C727 1.434 . S
C727 C718 1.429 . S
C727 N724 1.350 . S
C727 C726 1.434 . S
C728 C729 1.369 . S
C728 C730 1.419 . S
C728 H732 0.930 . S
C729 C728 1.369 . S
C729 C738 1.429 . S
C730 C728 1.419 . S
C730 C731 1.363 . S
C730 H733 0.929 . S
C731 C730 1.363 . S
C731 C737 1.428 . S
H732 C728 0.930 . S
H733 C730 0.929 . S
S734 N735 1.613 . S
S734 N736 1.610 . S
N735 S734 1.613 . S
N735 C738 1.350 . S
N736 S734 1.610 . S
N736 C737 1.351 . S
C737 C731 1.428 . S
C737 N736 1.351 . S
C737 C738 1.434 . S
C738 C729 1.429 . S
C738 N735 1.350 . S
C738 C737 1.434 . S
C739 C740 1.369 . S
C739 C741 1.419 . S
C739 H743 0.930 . S
C740 C739 1.369 . S
C740 C749 1.429 . S
C741 C739 1.419 . S
C741 C742 1.363 . S
C741 H744 0.929 . S
C742 C741 1.363 . S
C742 C748 1.428 . S
H743 C739 0.930 . S
H744 C741 0.929 . S
S745 N746 1.613 . S
S745 N747 1.610 . S
N746 S745 1.613 . S
N746 C749 1.350 . S
N747 S745 1.610 . S
N747 C748 1.351 . S
C748 C742 1.428 . S
C748 N747 1.351 . S
C748 C749 1.434 . S
C749 C740 1.429 . S
C749 N746 1.350 . S
C749 C748 1.434 . S
C750 C751 1.369 . S
C750 C752 1.419 . S
C750 H754 0.930 . S
C751 C750 1.369 . S
C751 C760 1.429 . S
C752 C750 1.419 . S
C752 C753 1.363 . S
C752 H755 0.929 . S
C753 C752 1.363 . S
C753 C759 1.428 . S
H754 C750 0.930 . S
H755 C752 0.929 . S
S756 N757 1.613 . S
S756 N758 1.610 . S
N757 S756 1.613 . S
N757 C760 1.350 . S
N758 S756 1.610 . S
N758 C759 1.351 . S
C759 C753 1.428 . S
C759 N758 1.351 . S
C759 C760 1.434 . S
C760 C751 1.429 . S
C760 N757 1.350 . S
C760 C759 1.434 . S
C761 C762 1.369 . S
C761 C763 1.419 . S
C761 H765 0.930 . S
C762 C761 1.369 . S
C762 C771 1.429 . S
C763 C761 1.419 . S
C763 C764 1.363 . S
C763 H766 0.929 . S
C764 C763 1.363 . S
C764 C770 1.428 . S
H765 C761 0.930 . S
H766 C763 0.929 . S
S767 N768 1.613 . S
S767 N769 1.610 . S
N768 S767 1.613 . S
N768 C771 1.350 . S
N769 S767 1.610 . S
N769 C770 1.351 . S
C770 C764 1.428 . S
C770 N769 1.351 . S
C770 C771 1.434 . S
C771 C762 1.429 . S
C771 N768 1.350 . S
C771 C770 1.434 . S
C772 C773 1.369 . S
C772 C774 1.419 . S
C772 H776 0.930 . S
C773 C772 1.369 . S
C773 C782 1.429 . S
C774 C772 1.419 . S
C774 C775 1.363 . S
C774 H777 0.929 . S
C775 C774 1.363 . S
C775 C781 1.428 . S
H776 C772 0.930 . S
H777 C774 0.929 . S
S778 N779 1.613 . S
S778 N780 1.610 . S
N779 S778 1.613 . S
N779 C782 1.350 . S
N780 S778 1.610 . S
N780 C781 1.351 . S
C781 C775 1.428 . S
C781 N780 1.351 . S
C781 C782 1.434 . S
C782 C773 1.429 . S
C782 N779 1.350 . S
C782 C781 1.434 . S
C783 C784 1.369 . S
C783 C785 1.419 . S
C783 H787 0.930 . S
C784 C783 1.369 . S
C784 C793 1.429 . S
C785 C783 1.419 . S
C785 C786 1.363 . S
C785 H788 0.929 . S
C786 C785 1.363 . S
C786 C792 1.428 . S
H787 C783 0.930 . S
H788 C785 0.929 . S
S789 N790 1.613 . S
S789 N791 1.610 . S
N790 S789 1.613 . S
N790 C793 1.350 . S
N791 S789 1.610 . S
N791 C792 1.351 . S
C792 C786 1.428 . S
C792 N791 1.351 . S
C792 C793 1.434 . S
C793 C784 1.429 . S
C793 N790 1.350 . S
C793 C792 1.434 . S
C794 C795 1.369 . S
C794 C796 1.419 . S
C794 H798 0.930 . S
C795 C794 1.369 . S
C795 C804 1.429 . S
C796 C794 1.419 . S
C796 C797 1.363 . S
C796 H799 0.929 . S
C797 C796 1.363 . S
C797 C803 1.428 . S
H798 C794 0.930 . S
H799 C796 0.929 . S
S800 N801 1.613 . S
S800 N802 1.610 . S
N801 S800 1.613 . S
N801 C804 1.350 . S
N802 S800 1.610 . S
N802 C803 1.351 . S
C803 C797 1.428 . S
C803 N802 1.351 . S
C803 C804 1.434 . S
C804 C795 1.429 . S
C804 N801 1.350 . S
C804 C803 1.434 . S
C805 C806 1.369 . S
C805 C807 1.419 . S
C805 H809 0.930 . S
C806 C805 1.369 . S
C806 C815 1.429 . S
C807 C805 1.419 . S
C807 C808 1.363 . S
C807 H810 0.929 . S
C808 C807 1.363 . S
C808 C814 1.428 . S
H809 C805 0.930 . S
H810 C807 0.929 . S
S811 N812 1.613 . S
S811 N813 1.610 . S
N812 S811 1.613 . S
N812 C815 1.350 . S
N813 S811 1.610 . S
N813 C814 1.351 . S
C814 C808 1.428 . S
C814 N813 1.351 . S
C814 C815 1.434 . S
C815 C806 1.429 . S
C815 N812 1.350 . S
C815 C814 1.434 . S
C816 C817 1.369 . S
C816 C818 1.419 . S
C816 H820 0.930 . S
C817 C816 1.369 . S
C817 C826 1.429 . S
C818 C816 1.419 . S
C818 C819 1.363 . S
C818 H821 0.929 . S
C819 C818 1.363 . S
C819 C825 1.428 . S
H820 C816 0.930 . S
H821 C818 0.929 . S
S822 N823 1.613 . S
S822 N824 1.610 . S
N823 S822 1.613 . S
N823 C826 1.350 . S
N824 S822 1.610 . S
N824 C825 1.351 . S
C825 C819 1.428 . S
C825 N824 1.351 . S
C825 C826 1.434 . S
C826 C817 1.429 . S
C826 N823 1.350 . S
C826 C825 1.434 . S
C827 C828 1.369 . S
C827 C829 1.419 . S
C827 H831 0.930 . S
C828 C827 1.369 . S
C828 C837 1.429 . S
C829 C827 1.419 . S
C829 C830 1.363 . S
C829 H832 0.929 1_655 S
C830 C829 1.363 . S
C830 C836 1.428 . S
H831 C827 0.930 . S
H832 C829 0.929 1_455 S
S833 N834 1.613 . S
S833 N835 1.610 . S
N834 S833 1.613 . S
N834 C837 1.350 . S
N835 S833 1.610 . S
N835 C836 1.351 . S
C836 C830 1.428 . S
C836 N835 1.351 . S
C836 C837 1.434 . S
C837 C828 1.429 . S
C837 N834 1.350 . S
C837 C836 1.434 . S
C838 C839 1.369 . S
C838 C840 1.419 . S
C838 H842 0.930 . S
C839 C838 1.369 . S
C839 C848 1.429 . S
C840 C838 1.419 . S
C840 C841 1.363 . S
C840 H843 0.929 . S
C841 C840 1.363 . S
C841 C847 1.428 . S
H842 C838 0.930 . S
H843 C840 0.929 . S
S844 N845 1.613 . S
S844 N846 1.610 . S
N845 S844 1.613 . S
N845 C848 1.350 . S
N846 S844 1.610 . S
N846 C847 1.351 . S
C847 C841 1.428 . S
C847 N846 1.351 . S
C847 C848 1.434 . S
C848 C839 1.429 . S
C848 N845 1.350 . S
C848 C847 1.434 . S
C849 C850 1.369 . S
C849 C851 1.419 . S
C849 H853 0.930 . S
C850 C849 1.369 . S
C850 C859 1.429 . S
C851 C849 1.419 . S
C851 C852 1.363 . S
C851 H854 0.929 . S
C852 C851 1.363 . S
C852 C858 1.428 . S
H853 C849 0.930 . S
H854 C851 0.929 . S
S855 N856 1.613 . S
S855 N857 1.610 . S
N856 S855 1.613 . S
N856 C859 1.350 . S
N857 S855 1.610 . S
N857 C858 1.351 . S
C858 C852 1.428 . S
C858 N857 1.351 . S
C858 C859 1.434 . S
C859 C850 1.429 . S
C859 N856 1.350 . S
C859 C858 1.434 . S
C860 C861 1.369 . S
C860 C862 1.419 . S
C860 H864 0.930 . S
C861 C860 1.369 . S
C861 C870 1.429 . S
C862 C860 1.419 . S
C862 C863 1.363 . S
C862 H865 0.929 . S
C863 C862 1.363 . S
C863 C869 1.428 . S
H864 C860 0.930 . S
H865 C862 0.929 . S
S866 N867 1.613 . S
S866 N868 1.610 . S
N867 S866 1.613 . S
N867 C870 1.350 . S
N868 S866 1.610 . S
N868 C869 1.351 . S
C869 C863 1.428 . S
C869 N868 1.351 . S
C869 C870 1.434 . S
C870 C861 1.429 . S
C870 N867 1.350 . S
C870 C869 1.434 . S
C871 C872 1.369 . S
C871 C873 1.419 . S
C871 H875 0.930 . S
C872 C871 1.369 . S
C872 C881 1.429 . S
C873 C871 1.419 . S
C873 C874 1.363 . S
C873 H876 0.929 . S
C874 C873 1.363 . S
C874 C880 1.428 . S
H875 C871 0.930 . S
H876 C873 0.929 . S
S877 N878 1.613 . S
S877 N879 1.610 . S
N878 S877 1.613 . S
N878 C881 1.350 . S
N879 S877 1.610 . S
N879 C880 1.351 . S
C880 C874 1.428 . S
C880 N879 1.351 . S
C880 C881 1.434 . S
C881 C872 1.429 . S
C881 N878 1.350 . S
C881 C880 1.434 . S
C882 C883 1.369 . S
C882 C884 1.419 . S
C882 H886 0.930 . S
C883 C882 1.369 . S
C883 C892 1.429 . S
C884 C882 1.419 . S
C884 C885 1.363 . S
C884 H887 0.929 . S
C885 C884 1.363 . S
C885 C891 1.428 . S
H886 C882 0.930 . S
H887 C884 0.929 . S
S888 N889 1.613 . S
S888 N890 1.610 . S
N889 S888 1.613 . S
N889 C892 1.350 . S
N890 S888 1.610 . S
N890 C891 1.351 . S
C891 C885 1.428 . S
C891 N890 1.351 . S
C891 C892 1.434 . S
C892 C883 1.429 . S
C892 N889 1.350 . S
C892 C891 1.434 . S
C893 C894 1.369 . S
C893 C895 1.419 . S
C893 H897 0.930 . S
C894 C893 1.369 . S
C894 C903 1.429 . S
C895 C893 1.419 . S
C895 C896 1.363 . S
C895 H898 0.929 . S
C896 C895 1.363 . S
C896 C902 1.428 . S
H897 C893 0.930 . S
H898 C895 0.929 . S
S899 N900 1.613 . S
S899 N901 1.610 . S
N900 S899 1.613 . S
N900 C903 1.350 . S
N901 S899 1.610 . S
N901 C902 1.351 . S
C902 C896 1.428 . S
C902 N901 1.351 . S
C902 C903 1.434 . S
C903 C894 1.429 . S
C903 N900 1.350 . S
C903 C902 1.434 . S
C641 C1 1.228 . S
C643 C495 1.436 . S
C652 C80 1.726 . S
C654 C539 1.685 . S
C665 C569 2.386 . S
C663 C140 2.251 . S
C674 C211 2.757 . S
C676 C610 2.755 . S
C687 C526 1.037 . S
C685 C31 0.913 . S
C698 C490 2.521 . S
C696 C61 2.402 . S
C709 C618 1.256 . S
C707 C151 1.220 . S
C720 C579 2.418 . S
C718 C200 2.567 . S
C729 C20 1.494 . S
C731 C615 1.646 . S
C742 C529 2.152 . S
C740 C121 2.226 . S
C751 C181 2.025 . S
C753 C498 2.041 . S
C762 C91 2.155 . S
C764 C566 2.085 . S
C775 C486 1.438 . S
C773 C260 1.319 . S
C784 C320 1.719 . S
C786 C530 1.692 . S
C795 C361 2.187 . S
C797 C578 2.386 . S
C806 C451 2.755 . S
C808 C619 2.756 . S
C817 C271 0.971 . S
C819 C535 1.031 . S
C830 C499 2.521 . S
C828 C301 2.401 . S
C841 C609 1.256 . S
C839 C380 1.171 . S
C852 C570 2.418 . S
C850 C440 2.568 . S
C861 C241 1.463 . S
C863 C606 1.647 . S
C874 C538 2.156 . S
C872 C391 2.179 . S
C885 C489 2.042 . S
C883 C421 2.022 . S
C894 C331 2.155 . S
C896 C575 2.084 . S
