# Generated by pormake.
# Topology eea, (3,6)-cn, num edge types: 1
# Building blocks:
#     Node 0, Type 0, BuildingBlock: CUQRIR_clean_linker_1, # of connection points: 3
#     Node 1, Type 0, BuildingBlock: CUQRIR_clean_linker_1, # of connection points: 3
#     Node 2, Type 0, BuildingBlock: CUQRIR_clean_linker_1, # of connection points: 3
#     Node 3, Type 0, BuildingBlock: CUQRIR_clean_linker_1, # of connection points: 3
#     Node 4, Type 0, BuildingBlock: CUQRIR_clean_linker_1, # of connection points: 3
#     Node 5, Type 0, BuildingBlock: CUQRIR_clean_linker_1, # of connection points: 3
#     Node 6, Type 0, BuildingBlock: CUQRIR_clean_linker_1, # of connection points: 3
#     Node 7, Type 0, BuildingBlock: CUQRIR_clean_linker_1, # of connection points: 3
#     Node 8, Type 0, BuildingBlock: CUQRIR_clean_linker_1, # of connection points: 3
#     Node 9, Type 0, BuildingBlock: CUQRIR_clean_linker_1, # of connection points: 3
#     Node 10, Type 0, BuildingBlock: CUQRIR_clean_linker_1, # of connection points: 3
#     Node 11, Type 0, BuildingBlock: CUQRIR_clean_linker_1, # of connection points: 3
#     Node 12, Type 0, BuildingBlock: CUQRIR_clean_linker_1, # of connection points: 3
#     Node 13, Type 0, BuildingBlock: CUQRIR_clean_linker_1, # of connection points: 3
#     Node 14, Type 0, BuildingBlock: CUQRIR_clean_linker_1, # of connection points: 3
#     Node 15, Type 0, BuildingBlock: CUQRIR_clean_linker_1, # of connection points: 3
#     Node 16, Type 0, BuildingBlock: CUQRIR_clean_linker_1, # of connection points: 3
#     Node 17, Type 0, BuildingBlock: CUQRIR_clean_linker_1, # of connection points: 3
#     Node 18, Type 1, BuildingBlock: KUMBOL_clean_sbu_0, # of connection points: 6
#     Node 19, Type 1, BuildingBlock: KUMBOL_clean_sbu_0, # of connection points: 6
#     Node 20, Type 1, BuildingBlock: KUMBOL_clean_sbu_0, # of connection points: 6
#     Node 21, Type 1, BuildingBlock: KUMBOL_clean_sbu_0, # of connection points: 6
#     Node 22, Type 1, BuildingBlock: KUMBOL_clean_sbu_0, # of connection points: 6
#     Node 23, Type 1, BuildingBlock: KUMBOL_clean_sbu_0, # of connection points: 6
#     Node 24, Type 1, BuildingBlock: KUMBOL_clean_sbu_0, # of connection points: 6
#     Node 25, Type 1, BuildingBlock: KUMBOL_clean_sbu_0, # of connection points: 6
#     Node 26, Type 1, BuildingBlock: KUMBOL_clean_sbu_0, # of connection points: 6
#     Edge 27, Type (0, 1), BuildingBlock: CIFDUS_clean_linker_0, # of connection points: 2
#     Edge 28, Type (0, 1), BuildingBlock: CIFDUS_clean_linker_0, # of connection points: 2
#     Edge 29, Type (0, 1), BuildingBlock: CIFDUS_clean_linker_0, # of connection points: 2
#     Edge 30, Type (0, 1), BuildingBlock: CIFDUS_clean_linker_0, # of connection points: 2
#     Edge 31, Type (0, 1), BuildingBlock: CIFDUS_clean_linker_0, # of connection points: 2
#     Edge 32, Type (0, 1), BuildingBlock: CIFDUS_clean_linker_0, # of connection points: 2
#     Edge 33, Type (0, 1), BuildingBlock: CIFDUS_clean_linker_0, # of connection points: 2
#     Edge 34, Type (0, 1), BuildingBlock: CIFDUS_clean_linker_0, # of connection points: 2
#     Edge 35, Type (0, 1), BuildingBlock: CIFDUS_clean_linker_0, # of connection points: 2
#     Edge 36, Type (0, 1), BuildingBlock: CIFDUS_clean_linker_0, # of connection points: 2
#     Edge 37, Type (0, 1), BuildingBlock: CIFDUS_clean_linker_0, # of connection points: 2
#     Edge 38, Type (0, 1), BuildingBlock: CIFDUS_clean_linker_0, # of connection points: 2
#     Edge 39, Type (0, 1), BuildingBlock: CIFDUS_clean_linker_0, # of connection points: 2
#     Edge 40, Type (0, 1), BuildingBlock: CIFDUS_clean_linker_0, # of connection points: 2
#     Edge 41, Type (0, 1), BuildingBlock: CIFDUS_clean_linker_0, # of connection points: 2
#     Edge 42, Type (0, 1), BuildingBlock: CIFDUS_clean_linker_0, # of connection points: 2
#     Edge 43, Type (0, 1), BuildingBlock: CIFDUS_clean_linker_0, # of connection points: 2
#     Edge 44, Type (0, 1), BuildingBlock: CIFDUS_clean_linker_0, # of connection points: 2
#     Edge 45, Type (0, 1), BuildingBlock: CIFDUS_clean_linker_0, # of connection points: 2
#     Edge 46, Type (0, 1), BuildingBlock: CIFDUS_clean_linker_0, # of connection points: 2
#     Edge 47, Type (0, 1), BuildingBlock: CIFDUS_clean_linker_0, # of connection points: 2
#     Edge 48, Type (0, 1), BuildingBlock: CIFDUS_clean_linker_0, # of connection points: 2
#     Edge 49, Type (0, 1), BuildingBlock: CIFDUS_clean_linker_0, # of connection points: 2
#     Edge 50, Type (0, 1), BuildingBlock: CIFDUS_clean_linker_0, # of connection points: 2
#     Edge 51, Type (0, 1), BuildingBlock: CIFDUS_clean_linker_0, # of connection points: 2
#     Edge 52, Type (0, 1), BuildingBlock: CIFDUS_clean_linker_0, # of connection points: 2
#     Edge 53, Type (0, 1), BuildingBlock: CIFDUS_clean_linker_0, # of connection points: 2
#     Edge 54, Type (0, 1), BuildingBlock: CIFDUS_clean_linker_0, # of connection points: 2
#     Edge 55, Type (0, 1), BuildingBlock: CIFDUS_clean_linker_0, # of connection points: 2
#     Edge 56, Type (0, 1), BuildingBlock: CIFDUS_clean_linker_0, # of connection points: 2
#     Edge 57, Type (0, 1), BuildingBlock: CIFDUS_clean_linker_0, # of connection points: 2
#     Edge 58, Type (0, 1), BuildingBlock: CIFDUS_clean_linker_0, # of connection points: 2
#     Edge 59, Type (0, 1), BuildingBlock: CIFDUS_clean_linker_0, # of connection points: 2
#     Edge 60, Type (0, 1), BuildingBlock: CIFDUS_clean_linker_0, # of connection points: 2
#     Edge 61, Type (0, 1), BuildingBlock: CIFDUS_clean_linker_0, # of connection points: 2
#     Edge 62, Type (0, 1), BuildingBlock: CIFDUS_clean_linker_0, # of connection points: 2
#     Edge 63, Type (0, 1), BuildingBlock: CIFDUS_clean_linker_0, # of connection points: 2
#     Edge 64, Type (0, 1), BuildingBlock: CIFDUS_clean_linker_0, # of connection points: 2
#     Edge 65, Type (0, 1), BuildingBlock: CIFDUS_clean_linker_0, # of connection points: 2
#     Edge 66, Type (0, 1), BuildingBlock: CIFDUS_clean_linker_0, # of connection points: 2
#     Edge 67, Type (0, 1), BuildingBlock: CIFDUS_clean_linker_0, # of connection points: 2
#     Edge 68, Type (0, 1), BuildingBlock: CIFDUS_clean_linker_0, # of connection points: 2
#     Edge 69, Type (0, 1), BuildingBlock: CIFDUS_clean_linker_0, # of connection points: 2
#     Edge 70, Type (0, 1), BuildingBlock: CIFDUS_clean_linker_0, # of connection points: 2
#     Edge 71, Type (0, 1), BuildingBlock: CIFDUS_clean_linker_0, # of connection points: 2
#     Edge 72, Type (0, 1), BuildingBlock: CIFDUS_clean_linker_0, # of connection points: 2
#     Edge 73, Type (0, 1), BuildingBlock: CIFDUS_clean_linker_0, # of connection points: 2
#     Edge 74, Type (0, 1), BuildingBlock: CIFDUS_clean_linker_0, # of connection points: 2
#     Edge 75, Type (0, 1), BuildingBlock: CIFDUS_clean_linker_0, # of connection points: 2
#     Edge 76, Type (0, 1), BuildingBlock: CIFDUS_clean_linker_0, # of connection points: 2
#     Edge 77, Type (0, 1), BuildingBlock: CIFDUS_clean_linker_0, # of connection points: 2
#     Edge 78, Type (0, 1), BuildingBlock: CIFDUS_clean_linker_0, # of connection points: 2
#     Edge 79, Type (0, 1), BuildingBlock: CIFDUS_clean_linker_0, # of connection points: 2
#     Edge 80, Type (0, 1), BuildingBlock: CIFDUS_clean_linker_0, # of connection points: 2
# Relax obj value: 0.040
# Max RMSD: 0.214
# Mean RMSD: 0.153
data_MOF--net-eea--node1-KUMBOL_clean_sbu_0--node2-CUQRIR_clean_linker_1--edge1-CIFDUS_clean_linker_0
_symmetry_space_group_name_H-M    P1
_symmetry_Int_Tables_number       1
_symmetry_cell_setting            triclinic
loop_
_symmetry_equiv_pos_as_xyz
'x, y, z'
_cell_length_a     41.057673
_cell_length_b     44.243681
_cell_length_c     56.631921
_cell_angle_alpha  83.192332
_cell_angle_beta   89.911959
_cell_angle_gamma 118.61041
loop_
_atom_site_label
_atom_site_type_symbol
_atom_site_fract_x
_atom_site_fract_y
_atom_site_fract_z
_atom_type_partial_charge
C0 C 0.21757 0.10703 0.40026 0.0
N1 N 0.22977 0.13337 0.41371 0.0
N2 N 0.22201 0.08033 0.41103 0.0
C3 C 0.19863 0.10626 0.37743 0.0
C4 C 0.23668 0.09106 0.43186 0.0
N5 N 0.24088 0.12303 0.43366 0.0
C6 C 0.2504 0.07193 0.44933 0.0
H7 H 0.17866 0.07916 0.37485 0.0
H8 H 0.21981 0.11796 0.36219 0.0
H9 H 0.1836 0.12146 0.37751 0.0
H10 H 0.25982 0.05638 0.44017 0.0
H11 H 0.22728 0.05401 0.46262 0.0
H12 H 0.27367 0.09006 0.45903 0.0
C13 C 0.91107 0.12271 0.40996 0.0
N14 N 0.9247 0.14692 0.42536 0.0
N15 N 0.87588 0.09716 0.41729 0.0
C16 C 0.93279 0.12345 0.38821 0.0
C17 C 0.86862 0.10679 0.43767 0.0
N18 N 0.8979 0.13668 0.44265 0.0
C19 C 0.83217 0.08766 0.45245 0.0
H20 H 0.94536 0.14953 0.37744 0.0
H21 H 0.9159 0.10351 0.37689 0.0
H22 H 0.95554 0.11811 0.39393 0.0
H23 H 0.83329 0.06809 0.46612 0.0
H24 H 0.80871 0.07412 0.44122 0.0
H25 H 0.82685 0.1057 0.46177 0.0
C26 C 0.9273 0.85343 0.40844 0.0
N27 N 0.93954 0.83787 0.42549 0.0
N28 N 0.90088 0.85929 0.41778 0.0
C29 C 0.9373 0.85844 0.3821 0.0
C30 C 0.89737 0.84655 0.4411 0.0
N31 N 0.92064 0.83327 0.44586 0.0
C32 C 0.86805 0.84373 0.45856 0.0
H33 H 0.96492 0.88177 0.37775 0.0
H34 H 0.917 0.86247 0.37115 0.0
H35 H 0.9391 0.83571 0.37717 0.0
H36 H 0.84146 0.82004 0.45672 0.0
H37 H 0.86337 0.86648 0.45464 0.0
H38 H 0.87616 0.84204 0.47716 0.0
C39 C 0.07566 0.1524 0.64719 0.0
N40 N 0.10679 0.1731 0.63249 0.0
N41 N 0.04799 0.15987 0.64197 0.0
C42 C 0.0696 0.12197 0.66511 0.0
C43 C 0.06223 0.18444 0.6228 0.0
N44 N 0.09754 0.1926 0.6172 0.0
C45 C 0.04348 0.20434 0.61183 0.0
H46 H 0.08917 0.11224 0.66125 0.0
H47 H 0.04067 0.10063 0.6648 0.0
H48 H 0.07276 0.12961 0.68328 0.0
H49 H 0.05255 0.22818 0.62039 0.0
H50 H 0.01279 0.18851 0.61457 0.0
H51 H 0.05146 0.21231 0.59246 0.0
C52 C 0.78815 0.90074 0.65481 0.0
N53 N 0.7806 0.87848 0.63847 0.0
N54 N 0.78643 0.92948 0.64541 0.0
C55 C 0.79343 0.89293 0.68071 0.0
C56 C 0.77709 0.92389 0.62283 0.0
N57 N 0.77309 0.89276 0.61862 0.0
C58 C 0.77498 0.95017 0.60425 0.0
H59 H 0.7793 0.86449 0.68659 0.0
H60 H 0.78227 0.90513 0.69204 0.0
H61 H 0.82354 0.90372 0.68331 0.0
H62 H 0.79458 0.97703 0.60752 0.0
H63 H 0.74641 0.9468 0.60509 0.0
H64 H 0.78154 0.94671 0.58608 0.0
C65 C 0.11329 0.90956 0.66109 0.0
N66 N 0.1013 0.8839 0.64692 0.0
N67 N 0.14341 0.93894 0.6505 0.0
C68 C 0.09841 0.90471 0.68634 0.0
C69 C 0.14915 0.93018 0.62933 0.0
N70 N 0.12388 0.89698 0.62715 0.0
C71 C 0.17938 0.95403 0.61048 0.0
H72 H 0.07631 0.91234 0.68637 0.0
H73 H 0.12067 0.92126 0.69737 0.0
H74 H 0.08633 0.87719 0.69453 0.0
H75 H 0.20418 0.95054 0.61329 0.0
H76 H 0.18728 0.98161 0.61129 0.0
H77 H 0.17027 0.9476 0.59245 0.0
C78 C 0.87429 0.43308 0.74077 0.0
N79 N 0.88283 0.45748 0.75555 0.0
N80 N 0.87869 0.40614 0.75113 0.0
C81 C 0.86204 0.43585 0.71595 0.0
C82 C 0.89026 0.41499 0.77292 0.0
N83 N 0.89259 0.44602 0.77566 0.0
C84 C 0.89689 0.39252 0.79236 0.0
H85 H 0.83132 0.42428 0.71675 0.0
H86 H 0.8702 0.42162 0.70445 0.0
H87 H 0.87431 0.46347 0.70793 0.0
H88 H 0.89909 0.37092 0.78592 0.0
H89 H 0.87334 0.38103 0.80607 0.0
H90 H 0.92258 0.40861 0.80112 0.0
C91 C 0.57049 0.45559 0.73723 0.0
N92 N 0.59035 0.47913 0.75201 0.0
N93 N 0.53782 0.43008 0.74837 0.0
C94 C 0.58271 0.45817 0.7117 0.0
C95 C 0.53907 0.43867 0.77073 0.0
N96 N 0.57085 0.46846 0.77298 0.0
C97 C 0.50906 0.41801 0.79051 0.0
H98 H 0.6015 0.48558 0.7041 0.0
H99 H 0.55839 0.44691 0.70072 0.0
H100 H 0.59815 0.44344 0.71092 0.0
H101 H 0.52123 0.41353 0.80708 0.0
H102 H 0.48859 0.39204 0.78631 0.0
H103 H 0.49459 0.43284 0.79417 0.0
C104 C 0.592 0.18155 0.74611 0.0
N105 N 0.61177 0.17321 0.7621 0.0
N106 N 0.5583 0.17293 0.75605 0.0
C107 C 0.60325 0.19275 0.71992 0.0
C108 C 0.55839 0.15942 0.77868 0.0
N109 N 0.59055 0.15858 0.78231 0.0
C110 C 0.52653 0.14712 0.79703 0.0
H111 H 0.63322 0.21214 0.71719 0.0
H112 H 0.58667 0.20404 0.71111 0.0
H113 H 0.59882 0.16982 0.71145 0.0
H114 H 0.50525 0.1202 0.79502 0.0
H115 H 0.5131 0.16375 0.79416 0.0
H116 H 0.53611 0.14771 0.81536 0.0
C117 C 0.74451 0.49745 0.99609 0.0
N118 N 0.77366 0.51454 0.97991 0.0
N119 N 0.71303 0.49381 0.98642 0.0
C120 C 0.74761 0.48883 0.02217 0.0
C121 C 0.72423 0.50906 0.96354 0.0
N122 N 0.76124 0.52169 0.95953 0.0
C123 C 0.70039 0.51728 0.94655 0.0
H124 H 0.72044 0.46817 0.03074 0.0
H125 H 0.7564 0.51249 0.03089 0.0
H126 H 0.76894 0.48032 0.02474 0.0
H127 H 0.71281 0.54587 0.94188 0.0
H128 H 0.67147 0.50648 0.95417 0.0
H129 H 0.69942 0.50617 0.92986 0.0
C130 C 0.45462 0.23427 0.99273 0.0
N131 N 0.44541 0.21042 0.97749 0.0
N132 N 0.45037 0.26154 0.98301 0.0
C133 C 0.46974 0.23172 0.01663 0.0
C134 C 0.43853 0.25359 0.96112 0.0
N135 N 0.43611 0.22276 0.95752 0.0
C136 C 0.42485 0.27376 0.94454 0.0
H137 H 0.44621 0.2172 0.0303 0.0
H138 H 0.48795 0.2579 0.02166 0.0
H139 H 0.48577 0.21744 0.01648 0.0
H140 H 0.44793 0.2925 0.9315 0.0
H141 H 0.41522 0.28849 0.95448 0.0
H142 H 0.40155 0.25622 0.93458 0.0
C143 C 0.7834 0.24529 0.98687 0.0
N144 N 0.76688 0.22106 0.97194 0.0
N145 N 0.81492 0.27316 0.97626 0.0
C146 C 0.76793 0.24198 1.01169 0.0
C147 C 0.81672 0.26503 0.95407 0.0
N148 N 0.78743 0.23368 0.95137 0.0
C149 C 0.84521 0.2887 0.93417 0.0
H150 H 0.74747 0.25167 1.01082 0.0
H151 H 0.79031 0.25742 0.02306 0.0
H152 H 0.75324 0.21434 0.01985 0.0
H153 H 0.87084 0.30904 0.94052 0.0
H154 H 0.83299 0.3019 0.92236 0.0
H155 H 0.85275 0.27335 0.92335 0.0
C156 C 0.54869 0.76849 0.08144 0.0
N157 N 0.56164 0.79549 0.09446 0.0
N158 N 0.55263 0.74175 0.09278 0.0
C159 C 0.53259 0.76819 0.05755 0.0
C160 C 0.56884 0.75342 0.11295 0.0
N161 N 0.57459 0.78605 0.11392 0.0
C162 C 0.57956 0.73312 0.13167 0.0
H163 H 0.50224 0.75833 0.06033 0.0
H164 H 0.53659 0.75085 0.04671 0.0
H165 H 0.54546 0.79473 0.04746 0.0
H166 H 0.60975 0.74213 0.12902 0.0
H167 H 0.56476 0.70488 0.13067 0.0
H168 H 0.57407 0.73763 0.14976 0.0
C169 C 0.24138 0.78846 0.06892 0.0
N170 N 0.25655 0.81094 0.08511 0.0
N171 N 0.2085 0.7607 0.07776 0.0
C172 C 0.25914 0.79351 0.04446 0.0
C173 C 0.20425 0.76714 0.10013 0.0
N174 N 0.23377 0.79737 0.10484 0.0
C175 C 0.17004 0.74455 0.11667 0.0
H176 H 0.2383 0.77841 0.03215 0.0
H177 H 0.28048 0.78491 0.04589 0.0
H178 H 0.27321 0.8213 0.03675 0.0
H179 H 0.15903 0.71677 0.11461 0.0
H180 H 0.1483 0.75189 0.11197 0.0
H181 H 0.17488 0.74726 0.13563 0.0
C182 C 0.26266 0.52296 0.07517 0.0
N183 N 0.28345 0.51457 0.09016 0.0
N184 N 0.23049 0.51608 0.0866 0.0
C185 C 0.27061 0.53175 0.04858 0.0
C186 C 0.23312 0.50412 0.10924 0.0
N187 N 0.26501 0.50244 0.11139 0.0
C188 C 0.20185 0.4889 0.12835 0.0
H189 H 0.30094 0.54476 0.04378 0.0
H190 H 0.25926 0.54885 0.04117 0.0
H191 H 0.25699 0.50738 0.0404 0.0
H192 H 0.18672 0.46019 0.12918 0.0
H193 H 0.18206 0.49901 0.12461 0.0
H194 H 0.21312 0.49514 0.14598 0.0
C195 C 0.43822 0.87243 0.31936 0.0
N196 N 0.46549 0.88161 0.30231 0.0
N197 N 0.40789 0.87149 0.3096 0.0
C198 C 0.4431 0.8691 0.34571 0.0
C199 C 0.41748 0.88001 0.28595 0.0
N200 N 0.45258 0.88604 0.28139 0.0
C201 C 0.39438 0.88696 0.26768 0.0
H202 H 0.41632 0.85847 0.35635 0.0
H203 H 0.4626 0.89509 0.35053 0.0
H204 H 0.45552 0.85191 0.35028 0.0
H205 H 0.36603 0.87894 0.27525 0.0
H206 H 0.39193 0.8726 0.25243 0.0
H207 H 0.40841 0.9151 0.26077 0.0
C208 C 0.10633 0.56548 0.31916 0.0
N209 N 0.10011 0.54172 0.3041 0.0
N210 N 0.1027 0.5926 0.30818 0.0
C211 C 0.11228 0.56055 0.34524 0.0
C212 C 0.09454 0.58478 0.28581 0.0
N213 N 0.09265 0.55391 0.28332 0.0
C214 C 0.08785 0.60714 0.26628 0.0
H215 H 0.09945 0.57228 0.3557 0.0
H216 H 0.14255 0.57364 0.34772 0.0
H217 H 0.10028 0.53257 0.35223 0.0
H218 H 0.09896 0.60623 0.2487 0.0
H219 H 0.10128 0.63467 0.26944 0.0
H220 H 0.05747 0.59721 0.26542 0.0
C221 C 0.45022 0.57838 0.3234 0.0
N222 N 0.43518 0.55329 0.30886 0.0
N223 N 0.48249 0.60574 0.31318 0.0
C224 C 0.43333 0.57601 0.34763 0.0
C225 C 0.48664 0.59631 0.2919 0.0
N226 N 0.4582 0.56438 0.28934 0.0
C227 C 0.51921 0.61779 0.27388 0.0
H228 H 0.40921 0.58067 0.3454 0.0
H229 H 0.45299 0.59556 0.35832 0.0
H230 H 0.42317 0.54961 0.35756 0.0
H231 H 0.54067 0.60961 0.27705 0.0
H232 H 0.5325 0.64586 0.27518 0.0
H233 H 0.51046 0.61397 0.25546 0.0
Gd234 Gd 0.52582 0.0238 0.0558 0.0
Gd235 Gd 0.50778 0.99444 0.99804 0.0
C236 C 0.38463 0.92326 0.98805 0.0
C237 C 0.38067 0.86635 0.99417 0.0
C238 C 0.44034 0.91849 0.99441 0.0
C239 C 0.4233 0.93895 0.99086 0.0
C240 C 0.41946 0.88214 0.9948 0.0
C241 C 0.36325 0.8869 0.99084 0.0
C242 C 0.3687 0.94452 0.98179 0.0
C243 C 0.39147 0.98033 0.97706 0.0
N244 N 0.44486 0.97413 0.98814 0.0
C245 C 0.42964 0.9947 0.97977 0.0
H246 H 0.44614 0.02225 0.97456 0.0
C247 C 0.49646 0.91638 0.99121 0.0
N248 N 0.47783 0.93441 0.99478 0.0
C249 C 0.4771 0.88034 0.99174 0.0
C250 C 0.43836 0.86297 0.99434 0.0
H251 H 0.52651 0.92951 0.98943 0.0
H252 H 0.33345 0.87448 0.98935 0.0
H253 H 0.60387 0.01435 0.06187 0.0
H254 H 0.33915 0.93348 0.97956 0.0
H255 H 0.3797 0.99696 0.97105 0.0
H256 H 0.36409 0.83841 0.99504 0.0
H257 H 0.4914 0.0779 0.06701 0.0
H258 H 0.69788 0.11473 0.05794 0.0
H259 H 0.67051 0.05092 0.06235 0.0
H260 H 0.64615 0.19131 0.05343 0.0
H261 H 0.49207 0.86604 0.99024 0.0
H262 H 0.42333 0.83503 0.99463 0.0
H263 H 0.68864 0.16682 0.05345 0.0
H264 H 0.51422 0.14046 0.06597 0.0
N265 N 0.59133 0.05644 0.05701 0.0
C266 C 0.66802 0.09867 0.0579 0.0
C267 C 0.65269 0.06271 0.06038 0.0
C268 C 0.64463 0.11348 0.05581 0.0
C269 C 0.60581 0.09143 0.05592 0.0
C270 C 0.61426 0.04191 0.05994 0.0
N271 N 0.54463 0.08336 0.05757 0.0
C272 C 0.58185 0.10529 0.05574 0.0
C273 C 0.53355 0.13106 0.06265 0.0
C274 C 0.57138 0.15423 0.05837 0.0
C275 C 0.52077 0.09557 0.06297 0.0
C276 C 0.59617 0.14142 0.05564 0.0
H277 H 0.58132 0.18176 0.05839 0.0
O278 O 0.49224 0.02147 0.08624 0.0
O279 O 0.48016 0.99228 0.0327 0.0
O280 O 0.49796 0.04022 0.99478 0.0
O281 O 0.49634 0.05008 0.03414 0.0
O282 O 0.4787 0.97017 0.06714 0.0
O283 O 0.53921 0.01194 0.09152 0.0
O284 O 0.55456 0.99489 0.97974 0.0
O285 O 0.5534 0.02607 0.02115 0.0
O286 O 0.54221 0.98169 0.0576 0.0
O287 O 0.51683 0.95647 0.02402 0.0
O288 O 0.54945 0.05042 0.98812 0.0
O289 O 0.51161 1.00067 0.95933 0.0
C290 C 0.46161 0.96544 0.0479 0.0
C291 C 0.63475 0.1635 0.05395 0.0
C292 C 0.65892 0.14955 0.05406 0.0
C293 C 0.51201 0.01415 0.10155 0.0
C294 C 0.51913 0.02969 0.12369 0.0
C295 C 0.52138 0.06205 0.12487 0.0
C296 C 0.52107 0.01014 0.14449 0.0
C297 C 0.52333 0.02183 0.16679 0.0
C298 C 0.52442 0.0743 0.14673 0.0
C299 C 0.52477 0.05422 0.16757 0.0
C300 C 0.49274 0.05666 1.01107 0.0
C301 C 0.56892 0.05406 1.0064 0.0
C302 C 0.54348 1.00066 0.95892 0.0
C303 C 0.56393 1.00419 0.93655 0.0
C304 C 0.59162 0.99416 0.93669 0.0
C305 C 0.55975 0.02222 0.91567 0.0
C306 C 0.58388 0.03122 0.89537 0.0
C307 C 0.6152 1.00257 0.91638 0.0
C308 C 0.61169 0.02138 0.89587 0.0
C309 C 0.53252 0.95667 0.0443 0.0
H310 H 0.51999 0.07753 0.10912 0.0
H311 H 0.52014 0.98552 0.14315 0.0
H312 H 0.52551 0.09907 0.14762 0.0
H313 H 0.52516 0.06389 0.18429 0.0
H314 H 0.59565 0.98058 0.95267 0.0
H315 H 0.53901 0.03077 0.91553 0.0
H316 H 0.63667 0.99499 0.91667 0.0
H317 H 0.63044 0.02801 0.88034 0.0
Gd318 Gd 0.98797 0.5078 0.05101 0.0
Gd319 Gd 0.03289 0.5367 0.98961 0.0
C320 C 0.14847 0.54895 0.97535 0.0
C321 C 0.18542 0.61116 0.96299 0.0
C322 C 0.11898 0.58513 0.97265 0.0
C323 C 0.11655 0.55284 0.97783 0.0
C324 C 0.15324 0.6146 0.96466 0.0
C325 C 0.18305 0.57839 0.96837 0.0
C326 C 0.14452 0.51552 0.97945 0.0
C327 C 0.10921 0.48698 0.985 0.0
N328 N 0.08265 0.52503 0.98436 0.0
C329 C 0.07835 0.49218 0.98704 0.0
H330 H 0.05144 0.46978 0.9915 0.0
C331 C 0.08747 0.61801 0.96697 0.0
N332 N 0.08739 0.58743 0.97442 0.0
C333 C 0.12078 0.64804 0.95901 0.0
C334 C 0.15392 0.64643 0.95811 0.0
H335 H 0.06191 0.61935 0.96791 0.0
H336 H 0.20795 0.57597 0.96657 0.0
H337 H 0.9726 0.57619 0.0525 0.0
H338 H 0.16837 0.51142 0.97786 0.0
H339 H 0.10572 0.46094 0.98781 0.0
H340 H 0.21211 0.63355 0.9571 0.0
H341 H 0.95565 0.42395 0.07114 0.0
H342 H 0.85583 0.53752 0.06414 0.0
H343 H 0.91976 0.58687 0.05733 0.0
H344 H 0.8071 0.41413 0.07905 0.0
H345 H 0.12089 0.67239 0.95362 0.0
H346 H 0.17969 0.6697 0.95188 0.0
H347 H 0.81383 0.47289 0.07164 0.0
H348 H 0.89512 0.3715 0.08341 0.0
N349 N 0.93945 0.52106 0.05645 0.0
C350 C 0.87906 0.53259 0.0622 0.0
C351 C 0.9151 0.56049 0.05846 0.0
C352 C 0.87359 0.49864 0.06426 0.0
C353 C 0.90481 0.49369 0.06158 0.0
C354 C 0.94514 0.55424 0.0557 0.0
N355 N 0.93203 0.45742 0.06458 0.0
C356 C 0.90099 0.46076 0.06584 0.0
C357 C 0.89635 0.39642 0.07842 0.0
C358 C 0.86381 0.39913 0.07865 0.0
C359 C 0.93053 0.42611 0.07162 0.0
C360 C 0.86592 0.43168 0.07271 0.0
H361 H 0.83738 0.37612 0.08401 0.0
O362 O 1.00286 0.48869 0.08412 0.0
O363 O 0.03698 0.52126 0.02743 0.0
O364 O 0.99878 0.47727 0.99815 0.0
O365 O 0.95428 0.46573 0.02857 0.0
O366 O 0.02058 0.47844 0.05249 0.0
O367 O 0.00636 0.53957 0.07953 0.0
O368 O 0.01596 0.55279 0.95615 0.0
O369 O 0.98493 0.52427 0.01343 0.0
O370 O 0.02331 0.56701 0.04376 0.0
O371 O 0.06554 0.58069 1.01119 0.0
O372 O 0.99978 0.5657 0.98782 0.0
O373 O 0.01319 0.50242 0.96249 0.0
C374 C 0.04583 0.49897 0.03604 0.0
C375 C 0.83438 0.43619 0.07407 0.0
C376 C 0.83821 0.46964 0.06983 0.0
C377 C 0.00955 0.51604 0.09402 0.0
C378 C 0.9936 0.50969 0.11841 0.0
C379 C 0.95633 0.50098 0.12259 0.0
C380 C 0.01638 0.51396 0.13759 0.0
C381 C 1.00251 0.51093 0.16106 0.0
C382 C 0.94218 0.49762 0.14567 0.0
C383 C 0.96506 0.50304 0.16469 0.0
C384 C 0.96668 0.45639 1.01072 0.0
C385 C 0.97526 0.54593 1.00481 0.0
C386 C 0.00921 0.52471 0.94721 0.0
C387 C 0.02515 0.52976 0.92291 0.0
C388 C 0.06289 0.53974 0.91926 0.0
C389 C 1.00265 0.52381 0.90336 0.0
C390 C 0.01789 0.52754 0.88012 0.0
C391 C 0.07804 0.54313 0.8965 0.0
C392 C 0.05581 0.53681 0.87715 0.0
C393 C 0.05446 0.58857 0.03047 0.0
H394 H 0.93845 0.49745 0.10798 0.0
H395 H 0.04487 0.51983 0.13402 0.0
H396 H 0.91351 0.49147 0.1488 0.0
H397 H 0.95332 0.50173 0.18213 0.0
H398 H 0.08051 0.54444 0.93406 0.0
H399 H 0.97358 0.51654 0.90629 0.0
H400 H 0.10711 0.55035 0.89386 0.0
H401 H 0.06842 0.53876 0.85985 0.0
Gd402 Gd 0.49366 0.5195 1.00095 0.0
Gd403 Gd 0.49982 0.48773 0.06441 0.0
C404 C 0.60599 0.48523 0.08521 0.0
C405 C 0.58423 0.42324 0.09452 0.0
C406 C 0.54088 0.44432 0.08303 0.0
C407 C 0.56952 0.47813 0.08031 0.0
C408 C 0.54766 0.4165 0.09079 0.0
C409 C 0.61337 0.45757 0.09168 0.0
C410 C 0.63365 0.51991 0.08419 0.0
C411 C 0.62423 0.54635 0.07942 0.0
N412 N 0.56133 0.50417 0.07413 0.0
C413 C 0.58761 0.53795 0.07472 0.0
H414 H 0.58085 0.55867 0.07076 0.0
C415 C 0.4761 0.40633 0.08466 0.0
N416 N 0.50599 0.4388 0.07921 0.0
C417 C 0.48137 0.37787 0.09246 0.0
C418 C 0.51737 0.38289 0.09518 0.0
H419 H 0.44826 0.40237 0.08239 0.0
H420 H 0.6413 0.46248 0.0952 0.0
H421 H 0.4158 0.44449 0.9959 0.0
H422 H 0.66204 0.52649 0.08775 0.0
H423 H 0.64522 0.57323 0.07913 0.0
H424 H 0.5901 0.40218 0.10019 0.0
H425 H 0.53783 0.60397 0.97984 0.0
H426 H 0.32701 0.46727 0.98207 0.0
H427 H 0.3499 0.42465 0.98923 0.0
H428 H 0.38893 0.59178 0.96864 0.0
H429 H 0.4577 0.3521 0.09627 0.0
H430 H 0.52139 0.36081 0.10122 0.0
H431 H 0.3417 0.52988 0.97503 0.0
H432 H 0.52248 0.6508 0.96655 0.0
N433 N 0.43056 0.49807 0.99286 0.0
C434 C 0.35612 0.47621 0.98491 0.0
C435 C 0.36897 0.45211 0.98882 0.0
C436 C 0.38133 0.51167 0.98368 0.0
C437 C 0.41891 0.52186 0.98751 0.0
C438 C 0.40653 0.46355 0.99258 0.0
N439 N 0.48132 0.56475 0.9861 0.0
C440 C 0.44527 0.55647 0.98398 0.0
C441 C 0.50045 0.6244 0.97155 0.0
C442 C 0.46326 0.6166 0.97066 0.0
C443 C 0.50906 0.59789 0.97896 0.0
C444 C 0.4351 0.58215 0.97645 0.0
H445 H 0.45664 0.63712 0.96479 0.0
O446 O 0.53364 0.54328 0.97017 0.0
O447 O 0.52694 0.5101 0.02825 0.0
O448 O 0.51894 0.54603 0.05885 0.0
O449 O 0.49998 0.56137 0.02223 0.0
O450 O 0.55511 0.55417 1.00409 0.0
O451 O 0.48866 0.49083 0.97134 0.0
O452 O 0.45615 0.47027 0.09246 0.0
O453 O 0.46671 0.49843 0.03741 0.0
O454 O 0.47858 0.46253 1.006 0.0
O455 O 0.49778 0.44748 0.04254 0.0
O456 O 0.43919 0.45253 0.06002 0.0
O457 O 0.51032 0.51296 0.0966 0.0
C458 C 0.55864 0.53524 0.02197 0.0
C459 C 0.39741 0.57241 0.97408 0.0
C460 C 0.37052 0.53718 0.97772 0.0
C461 C 0.51726 0.51642 0.95881 0.0
C462 C 0.51228 0.52338 0.93337 0.0
C463 C 0.48886 0.53719 0.92648 0.0
C464 C 0.53041 0.51544 0.91586 0.0
C465 C 0.52485 0.52091 0.89139 0.0
C466 C 0.48324 0.54278 0.90245 0.0
C467 C 0.50074 0.53452 0.88509 0.0
C468 C 0.51348 0.56794 0.04332 0.0
C469 C 0.43511 0.47269 0.04325 0.0
C470 C 0.47712 0.49207 0.10652 0.0
C471 C 0.47419 0.47785 0.13188 0.0
C472 C 0.46882 0.44403 0.13816 0.0
C473 C 0.47539 0.49754 0.15007 0.0
C474 C 0.47118 0.48322 0.17421 0.0
C475 C 0.46448 0.42988 0.16203 0.0
C476 C 0.46565 0.44931 0.17995 0.0
C477 C 0.486 0.4415 0.02095 0.0
H478 H 0.47464 0.54331 0.93968 0.0
H479 H 0.5488 0.50512 0.92139 0.0
H480 H 0.4648 0.55315 0.89726 0.0
H481 H 0.49455 0.53815 0.86674 0.0
H482 H 0.46759 0.42834 0.12467 0.0
H483 H 0.47984 0.5238 0.14551 0.0
H484 H 0.4603 0.40377 0.16664 0.0
H485 H 0.46267 0.43803 0.19841 0.0
Gd486 Gd 0.18859 0.36388 0.39416 0.0
Gd487 Gd 0.17245 0.33485 0.33599 0.0
C488 C 0.06929 0.2341 0.32623 0.0
C489 C 0.09593 0.19865 0.3153 0.0
C490 C 0.13628 0.25769 0.32325 0.0
C491 C 0.10538 0.26151 0.32812 0.0
C492 C 0.13185 0.22652 0.3162 0.0
C493 C 0.06473 0.20241 0.32035 0.0
C494 C 0.0389 0.23972 0.32951 0.0
C495 C 0.04499 0.27249 0.33353 0.0
N496 N 0.11062 0.29265 0.33329 0.0
C497 C 0.08129 0.29901 0.33492 0.0
H498 H 0.08559 0.32425 0.33792 0.0
C499 C 0.20165 0.28447 0.31575 0.0
N500 N 0.17069 0.28523 0.32393 0.0
C501 C 0.19864 0.25397 0.30889 0.0
C502 C 0.16364 0.2247 0.30943 0.0
H503 H 0.22872 0.30714 0.31514 0.0
H504 H 0.0372 0.18098 0.31897 0.0
H505 H 0.2671 0.35591 0.39391 0.0
H506 H 0.01074 0.21927 0.32829 0.0
H507 H 0.02177 0.27737 0.33552 0.0
H508 H 0.09196 0.17439 0.3101 0.0
H509 H 0.14914 0.41006 0.40954 0.0
H510 H 0.35893 0.45453 0.40174 0.0
H511 H 0.33391 0.39286 0.39635 0.0
H512 H 0.30201 0.52446 0.4139 0.0
H513 H 0.22327 0.2531 0.30309 0.0
H514 H 0.16137 0.20118 0.30391 0.0
H515 H 0.3468 0.50353 0.408 0.0
H516 H 0.16867 0.46961 0.41838 0.0
N517 N 0.25328 0.39599 0.39772 0.0
C518 C 0.32925 0.4383 0.40084 0.0
C519 C 0.31524 0.4035 0.39785 0.0
C520 C 0.30475 0.45157 0.40309 0.0
C521 C 0.26638 0.42944 0.40161 0.0
C522 C 0.27699 0.3825 0.39658 0.0
N523 N 0.2045 0.41912 0.40391 0.0
C524 C 0.24125 0.44138 0.4047 0.0
C525 C 0.18937 0.46206 0.41449 0.0
C526 C 0.22718 0.48588 0.41422 0.0
C527 C 0.17843 0.42843 0.40961 0.0
C528 C 0.25365 0.47554 0.40964 0.0
H529 H 0.23562 0.51194 0.41806 0.0
O530 O 0.16024 0.35744 0.42827 0.0
O531 O 0.14961 0.32326 0.37363 0.0
O532 O 0.14803 0.37137 0.33996 0.0
O533 O 0.18138 0.40355 0.36943 0.0
O534 O 0.12588 0.3416 0.39591 0.0
O535 O 0.1964 0.33455 0.42453 0.0
O536 O 0.20848 0.36885 0.30537 0.0
O537 O 0.21054 0.37564 0.3567 0.0
O538 O 0.20281 0.32025 0.39344 0.0
O539 O 0.18483 0.29583 0.35813 0.0
O540 O 0.2353 0.3582 0.33427 0.0
O541 O 0.14919 0.34154 0.30246 0.0
C542 C 0.1186 0.31831 0.38205 0.0
C543 C 0.29191 0.498 0.41036 0.0
C544 C 0.3174 0.48606 0.40705 0.0
C545 C 0.17581 0.34034 0.43892 0.0
C546 C 0.19109 0.34968 0.46171 0.0
C547 C 0.22176 0.38195 0.46393 0.0
C548 C 0.17688 0.32366 0.48111 0.0
C549 C 0.19399 0.32865 0.50273 0.0
C550 C 0.23823 0.38775 0.48569 0.0
C551 C 0.22468 0.36115 0.50501 0.0
C552 C 0.16075 0.3994 0.35098 0.0
C553 C 0.24181 0.38073 0.34869 0.0
C554 C 0.18163 0.36138 0.29128 0.0
C555 C 0.18864 0.35298 0.26821 0.0
C556 C 0.17863 0.31882 0.2649 0.0
C557 C 0.20889 0.38025 0.24993 0.0
C558 C 0.22072 0.37392 0.22859 0.0
C559 C 0.19072 0.31223 0.24408 0.0
C560 C 0.2121 0.33954 0.2262 0.0
C561 C 0.19781 0.29649 0.37956 0.0
H562 H 0.23331 0.40224 0.44891 0.0
H563 H 0.15273 0.29907 0.47906 0.0
H564 H 0.26205 0.4126 0.48742 0.0
H565 H 0.23864 0.3658 0.52145 0.0
H566 H 0.16198 0.29733 0.27842 0.0
H567 H 0.21504 0.40629 0.25248 0.0
H568 H 0.18369 0.28588 0.24185 0.0
H569 H 0.22167 0.33351 0.21051 0.0
Gd570 Gd 0.65485 0.83508 0.39287 0.0
Gd571 Gd 0.69974 0.87187 0.33178 0.0
C572 C 0.81087 0.87694 0.31436 0.0
C573 C 0.85235 0.93924 0.30626 0.0
C574 C 0.78648 0.91682 0.31611 0.0
C575 C 0.78093 0.88324 0.31854 0.0
C576 C 0.82202 0.9452 0.30925 0.0
C577 C 0.8468 0.90515 0.30889 0.0
C578 C 0.80354 0.84253 0.31497 0.0
C579 C 0.76688 0.81562 0.31855 0.0
N580 N 0.7458 0.85669 0.32353 0.0
C581 C 0.7381 0.82325 0.32245 0.0
H582 H 0.70996 0.80217 0.32545 0.0
C583 C 0.75957 0.95377 0.31356 0.0
N584 N 0.75659 0.92158 0.31907 0.0
C585 C 0.79422 0.98278 0.30665 0.0
C586 C 0.82572 0.97856 0.30486 0.0
H587 H 0.73523 0.95705 0.3151 0.0
H588 H 0.87025 0.90086 0.30589 0.0
H589 H 0.64585 0.9062 0.3963 0.0
H590 H 0.82578 0.83657 0.31194 0.0
H591 H 0.76078 0.78897 0.31848 0.0
H592 H 0.87999 0.96073 0.30127 0.0
H593 H 0.61667 0.74951 0.41019 0.0
H594 H 0.53006 0.87419 0.40647 0.0
H595 H 0.59553 0.92089 0.40043 0.0
H596 H 0.47325 0.74982 0.41921 0.0
H597 H 0.79663 1.00835 0.3028 0.0
H598 H 0.85254 1.00106 0.29948 0.0
H599 H 0.48452 0.81019 0.41325 0.0
H600 H 0.5541 0.6992 0.42126 0.0
N601 N 0.60931 0.85168 0.3993 0.0
C602 C 0.55208 0.86756 0.40469 0.0
C603 C 0.589 0.89398 0.40136 0.0
C604 C 0.54414 0.83285 0.40649 0.0
C605 C 0.57381 0.82568 0.40385 0.0
C606 C 0.61749 0.8855 0.39909 0.0
N607 N 0.59688 0.78614 0.40503 0.0
C608 C 0.5674 0.7918 0.40694 0.0
C609 C 0.55741 0.72508 0.41712 0.0
C610 C 0.52644 0.73027 0.41788 0.0
C611 C 0.59271 0.75351 0.41091 0.0
C612 C 0.53125 0.764 0.41308 0.0
H613 H 0.49911 0.70821 0.42272 0.0
O614 O 0.67483 0.81425 0.42254 0.0
O615 O 0.70258 0.84887 0.36796 0.0
O616 O 0.65865 0.81362 0.33405 0.0
O617 O 0.62088 0.7945 0.36965 0.0
O618 O 0.68179 0.80172 0.38948 0.0
O619 O 0.66669 0.85837 0.42579 0.0
O620 O 0.6807 0.89323 0.30187 0.0
O621 O 0.65176 0.85745 0.35646 0.0
O622 O 0.69641 0.89305 0.39059 0.0
O623 O 0.73527 0.91159 0.35557 0.0
O624 O 0.67202 0.90453 0.33533 0.0
O625 O 0.68508 0.84678 0.2997 0.0
C626 C 0.70765 0.82313 0.37359 0.0
C627 C 0.50132 0.77085 0.41479 0.0
C628 C 0.50774 0.80522 0.41141 0.0
C629 C 0.67586 0.83604 0.43645 0.0
C630 C 0.66069 0.82123 0.46117 0.0
C631 C 0.62576 0.7915 0.46586 0.0
C632 C 0.68138 0.8366 0.48032 0.0
C633 C 0.6668 0.82227 0.50393 0.0
C634 C 0.61171 0.7769 0.48923 0.0
C635 C 0.63202 0.7922 0.50818 0.0
C636 C 0.62928 0.7902 0.34818 0.0
C637 C 0.64522 0.88219 0.35034 0.0
C638 C 0.67769 0.87006 0.28854 0.0
C639 C 0.69279 0.88307 0.26368 0.0
C640 C 0.72713 0.91331 0.2582 0.0
C641 C 0.67277 0.86508 0.24516 0.0
C642 C 0.68746 0.87718 0.2214 0.0
C643 C 0.74132 0.92566 0.23463 0.0
C644 C 0.72172 0.90768 0.21632 0.0
C645 C 0.72673 0.91601 0.37704 0.0
H646 H 0.60924 0.77954 0.45155 0.0
H647 H 0.70811 0.85996 0.4769 0.0
H648 H 0.58479 0.75388 0.49267 0.0
H649 H 0.62032 0.78089 0.52624 0.0
H650 H 0.74306 0.92741 0.27207 0.0
H651 H 0.64645 0.8414 0.24926 0.0
H652 H 0.76779 0.94907 0.23056 0.0
H653 H 0.73346 0.91741 0.19813 0.0
Gd654 Gd 0.15832 0.84362 0.33774 0.0
Gd655 Gd 0.16777 0.81698 0.40148 0.0
C656 C 0.27222 0.81198 0.42303 0.0
C657 C 0.24806 0.75008 0.43527 0.0
C658 C 0.20645 0.77235 0.42178 0.0
C659 C 0.23606 0.80575 0.418 0.0
C660 C 0.21193 0.74422 0.431 0.0
C661 C 0.27817 0.78389 0.43122 0.0
C662 C 0.30115 0.84633 0.42018 0.0
C663 C 0.29337 0.87345 0.41334 0.0
N664 N 0.22928 0.83231 0.41027 0.0
C665 C 0.25697 0.86596 0.4088 0.0
H666 H 0.25142 0.88718 0.4034 0.0
C667 C 0.14127 0.73586 0.42366 0.0
N668 N 0.17194 0.76759 0.41746 0.0
C669 C 0.14528 0.70714 0.43281 0.0
C670 C 0.18081 0.71123 0.43622 0.0
H671 H 0.11381 0.7327 0.42095 0.0
H672 H 0.3058 0.78813 0.435 0.0
H673 H 0.07458 0.77152 0.34024 0.0
H674 H 0.32935 0.85221 0.42373 0.0
H675 H 0.31542 0.90014 0.41149 0.0
H676 H 0.25291 0.72876 0.44214 0.0
H677 H 0.20845 0.9264 0.31394 0.0
H678 H 0.99291 0.80227 0.32165 0.0
H679 H 0.00945 0.75628 0.33475 0.0
H680 H 0.06555 0.9251 0.29756 0.0
H681 H 0.12101 0.68188 0.43724 0.0
H682 H 0.18383 0.68896 0.44337 0.0
H683 H 0.01408 0.86544 0.30798 0.0
H684 H 0.19851 0.97525 0.29676 0.0
N685 N 0.09533 0.826 0.33096 0.0
C686 C 0.02172 0.80919 0.32403 0.0
C687 C 0.03095 0.78317 0.33138 0.0
C688 C 0.0499 0.84374 0.31925 0.0
C689 C 0.08691 0.85134 0.3228 0.0
C690 C 0.06812 0.79201 0.33443 0.0
N691 N 0.15076 0.89066 0.32031 0.0
C692 C 0.11561 0.88481 0.31729 0.0
C693 C 0.17491 0.94998 0.30259 0.0
C694 C 0.13875 0.94481 0.30055 0.0
C695 C 0.18046 0.92232 0.31224 0.0
C696 C 0.10851 0.91178 0.30761 0.0
H697 H 0.1345 0.96623 0.293 0.0
O698 O 0.19797 0.86091 0.30693 0.0
O699 O 0.19274 0.8343 0.36447 0.0
O700 O 0.1887 0.87504 0.39395 0.0
O701 O 0.16857 0.88886 0.35736 0.0
O702 O 0.21993 0.87752 0.33933 0.0
O703 O 0.14738 0.81225 0.3088 0.0
O704 O 0.12831 0.80028 0.43206 0.0
O705 O 0.13416 0.82774 0.37501 0.0
O706 O 0.13739 0.78504 0.34651 0.0
O707 O 0.16518 0.77596 0.38074 0.0
O708 O 0.10539 0.78533 0.40014 0.0
O709 O 0.18126 0.84719 0.43114 0.0
C710 C 0.22426 0.85903 0.35716 0.0
C711 C 0.07164 0.90467 0.30475 0.0
C712 C 0.04236 0.87071 0.31064 0.0
C713 C 0.17761 0.83452 0.29591 0.0
C714 C 0.17357 0.84254 0.27025 0.0
C715 C 0.15209 0.85855 0.26355 0.0
C716 C 0.19104 0.83432 0.25233 0.0
C717 C 0.18678 0.84194 0.22778 0.0
C718 C 0.14768 0.86609 0.23958 0.0
C719 C 0.16452 0.85771 0.22191 0.0
C720 C 0.18201 0.8961 0.37851 0.0
C721 C 0.10181 0.80523 0.38293 0.0
C722 C 0.15025 0.82561 0.44359 0.0
C723 C 0.15312 0.81583 0.46898 0.0
C724 C 0.16365 0.79042 0.47573 0.0
C725 C 0.14427 0.83115 0.48668 0.0
C726 C 0.14543 0.82068 0.51112 0.0
C727 C 0.16449 0.77968 0.49972 0.0
C728 C 0.15513 0.7943 0.51725 0.0
C729 C 0.14826 0.76613 0.36104 0.0
H730 H 0.13841 0.86497 0.27688 0.0
H731 H 0.20797 0.82226 0.25755 0.0
H732 H 0.13071 0.87817 0.23464 0.0
H733 H 0.15924 0.86301 0.20359 0.0
H734 H 0.17077 0.77853 0.46251 0.0
H735 H 0.13682 0.85127 0.48134 0.0
H736 H 0.17213 0.75965 0.50477 0.0
H737 H 0.15515 0.78451 0.53569 0.0
Gd738 Gd 0.85419 0.69134 0.7283 0.0
Gd739 Gd 0.84015 0.66283 0.67009 0.0
C740 C 0.73579 0.5654 0.65643 0.0
C741 C 0.75984 0.52567 0.65159 0.0
C742 C 0.80157 0.58461 0.65905 0.0
C743 C 0.77192 0.59127 0.6601 0.0
C744 C 0.79602 0.55202 0.65425 0.0
C745 C 0.72978 0.53234 0.6527 0.0
C746 C 0.70702 0.5739 0.65582 0.0
C747 C 0.71497 0.60786 0.65788 0.0
N748 N 0.77876 0.62364 0.66333 0.0
C749 C 0.75133 0.63268 0.66135 0.0
H750 H 0.75713 0.6588 0.66303 0.0
C751 C 0.86687 0.60693 0.65752 0.0
N752 N 0.83621 0.61071 0.66144 0.0
C753 C 0.86273 0.57496 0.65296 0.0
C754 C 0.82712 0.54724 0.6516 0.0
H755 H 0.8944 0.6283 0.65866 0.0
H756 H 0.70215 0.51203 0.65003 0.0
H757 H 0.94013 0.69939 0.7296 0.0
H758 H 0.67883 0.55473 0.65311 0.0
H759 H 0.69309 0.6149 0.65693 0.0
H760 H 0.75493 0.50033 0.64808 0.0
H761 H 0.79886 0.72258 0.74506 0.0
H762 H 0.01619 0.80258 0.74211 0.0
H763 H 0.0039 0.74437 0.73421 0.0
H764 H 0.9369 0.85129 0.75608 0.0
H765 H 0.88697 0.57172 0.65048 0.0
H766 H 0.824 0.52254 0.64793 0.0
H767 H 0.99094 0.84237 0.75012 0.0
H768 H 0.80507 0.77716 0.75607 0.0
N769 N 0.91595 0.73171 0.73427 0.0
C770 C 0.98795 0.78282 0.74015 0.0
C771 C 0.98113 0.75 0.73574 0.0
C772 C 0.95814 0.78949 0.74252 0.0
C773 C 0.92196 0.76296 0.73963 0.0
C774 C 0.94473 0.72448 0.73315 0.0
N775 N 0.85729 0.74149 0.74066 0.0
C776 C 0.89168 0.76804 0.74289 0.0
C777 C 0.82968 0.77501 0.75231 0.0
C778 C 0.86496 0.80312 0.75365 0.0
C779 C 0.82629 0.74406 0.74607 0.0
C780 C 0.89653 0.79971 0.74924 0.0
H781 H 0.86752 0.82707 0.75853 0.0
O782 O 0.81691 0.66509 0.75977 0.0
O783 O 0.81468 0.65159 0.70687 0.0
O784 O 0.81916 0.70248 0.67243 0.0
O785 O 0.84907 0.73243 0.70394 0.0
O786 O 0.79247 0.67227 0.72851 0.0
O787 O 0.87241 0.67073 0.75907 0.0
O788 O 0.87815 0.68272 0.63873 0.0
O789 O 0.87748 0.70314 0.69123 0.0
O790 O 0.87893 0.65588 0.72318 0.0
O791 O 0.84154 0.62083 0.69648 0.0
O792 O 0.90322 0.68628 0.66948 0.0
O793 O 0.82487 0.68182 0.63707 0.0
C794 C 0.78449 0.65025 0.71366 0.0
C795 C 0.93257 0.82665 0.75141 0.0
C796 C 0.96333 0.82156 0.74803 0.0
C797 C 0.84148 0.66029 0.77169 0.0
C798 C 0.84472 0.66868 0.79594 0.0
C799 C 0.8538 0.70208 0.80066 0.0
C800 C 0.83569 0.64191 0.81467 0.0
C801 C 0.83351 0.6476 0.83835 0.0
C802 C 0.85248 0.70829 0.82408 0.0
C803 C 0.84182 0.6812 0.84281 0.0
C804 C 0.83061 0.72957 0.68445 0.0
C805 C 0.90911 0.70878 0.68371 0.0
C806 C 0.85541 0.68838 0.62528 0.0
C807 C 0.85163 0.67648 0.60191 0.0
C808 C 0.83964 0.64145 0.59996 0.0
C809 C 0.86136 0.70066 0.58126 0.0
C810 C 0.85842 0.68967 0.55875 0.0
C811 C 0.83728 0.63059 0.57762 0.0
C812 C 0.84644 0.65452 0.55706 0.0
C813 C 0.86408 0.62639 0.71399 0.0
H814 H 0.8611 0.72306 0.78635 0.0
H815 H 0.82981 0.61655 0.81057 0.0
H816 H 0.85885 0.73397 0.8277 0.0
H817 H 0.83934 0.68662 0.86066 0.0
H818 H 0.83225 0.62251 0.6156 0.0
H819 H 0.87043 0.72775 0.58269 0.0
H820 H 0.8281 0.60354 0.57624 0.0
H821 H 0.84402 0.64562 0.53981 0.0
Gd822 Gd 0.32229 0.17801 0.72428 0.0
Gd823 Gd 0.36113 0.19924 0.66146 0.0
C824 C 0.47626 0.21172 0.64656 0.0
C825 C 0.51246 0.27347 0.63227 0.0
C826 C 0.4463 0.24761 0.64288 0.0
C827 C 0.44428 0.21551 0.64906 0.0
C828 C 0.48021 0.27679 0.6339 0.0
C829 C 0.51051 0.24101 0.63865 0.0
C830 C 0.47266 0.17846 0.65148 0.0
C831 C 0.43756 0.14988 0.65778 0.0
N832 N 0.41073 0.18769 0.65647 0.0
C833 C 0.40663 0.15494 0.65988 0.0
H834 H 0.37974 0.13269 0.66496 0.0
C835 C 0.41432 0.28011 0.63633 0.0
N836 N 0.4147 0.25002 0.6449 0.0
C837 C 0.4473 0.30975 0.62727 0.0
C838 C 0.48049 0.30823 0.62636 0.0
H839 H 0.3887 0.28134 0.63711 0.0
H840 H 0.53546 0.23868 0.63683 0.0
H841 H 0.31904 0.25393 0.71361 0.0
H842 H 0.49658 0.17447 0.64988 0.0
H843 H 0.43433 0.12396 0.66117 0.0
H844 H 0.53889 0.29567 0.62564 0.0
H845 H 0.27818 0.09443 0.74649 0.0
H846 H 0.21523 0.23696 0.74327 0.0
H847 H 0.27654 0.27605 0.722 0.0
H848 H 0.15278 0.11597 0.77444 0.0
H849 H 0.44711 0.33374 0.62102 0.0
H850 H 0.50599 0.33124 0.61932 0.0
H851 H 0.16927 0.17721 0.76276 0.0
H852 H 0.21767 0.0512 0.76734 0.0
N853 N 0.28298 0.20221 0.73036 0.0
C854 C 0.23404 0.22698 0.73988 0.0
C855 C 0.2686 0.24911 0.72787 0.0
C856 C 0.22397 0.19214 0.74713 0.0
C857 C 0.2494 0.18042 0.74216 0.0
C858 C 0.29287 0.23632 0.72329 0.0
N859 N 0.26441 0.13525 0.7425 0.0
C860 C 0.23959 0.14573 0.74806 0.0
C861 C 0.22334 0.07763 0.76184 0.0
C862 C 0.19679 0.08763 0.76674 0.0
C863 C 0.25741 0.10205 0.74997 0.0
C864 C 0.20487 0.12211 0.76006 0.0
H865 H 0.17045 0.0687 0.77602 0.0
O866 O 0.33761 0.15683 0.75632 0.0
O867 O 0.36767 0.18626 0.69929 0.0
O868 O 0.32584 0.14072 0.67248 0.0
O869 O 0.28518 0.13234 0.70472 0.0
O870 O 0.35088 0.14498 0.72571 0.0
O871 O 0.34645 0.20945 0.75282 0.0
O872 O 0.33322 0.20712 0.63077 0.0
O873 O 0.31395 0.18858 0.68608 0.0
O874 O 0.36437 0.23632 0.71561 0.0
O875 O 0.39855 0.24456 0.68002 0.0
O876 O 0.33044 0.22994 0.65957 0.0
O877 O 0.35282 0.1697 0.63161 0.0
C878 C 0.37538 0.16332 0.70834 0.0
C879 C 0.17965 0.13375 0.76531 0.0
C880 C 0.18912 0.16865 0.75877 0.0
C881 C 0.34846 0.18464 0.76662 0.0
C882 C 0.33554 0.17891 0.79195 0.0
C883 C 0.29769 0.16539 0.7983 0.0
C884 C 0.36087 0.18633 0.81004 0.0
C885 C 0.34817 0.18004 0.83431 0.0
C886 C 0.28494 0.15905 0.82208 0.0
C887 C 0.30986 0.16635 0.83995 0.0
C888 C 0.29498 0.12123 0.68653 0.0
C889 C 0.30509 0.21045 0.6763 0.0
C890 C 0.33721 0.18536 0.61914 0.0
C891 C 0.35003 0.19798 0.59378 0.0
C892 C 0.38415 0.22794 0.58749 0.0
C893 C 0.3266 0.18199 0.57577 0.0
C894 C 0.33638 0.19682 0.55147 0.0
C895 C 0.39391 0.24313 0.56387 0.0
C896 C 0.37006 0.22833 0.54614 0.0
C897 C 0.39299 0.25541 0.69965 0.0
H898 H 0.27791 0.1598 0.78492 0.0
H899 H 0.39019 0.19668 0.80523 0.0
H900 H 0.25559 0.1487 0.82668 0.0
H901 H 0.29908 0.16199 0.85821 0.0
H902 H 0.40291 0.24015 0.60084 0.0
H903 H 0.30092 0.15821 0.58098 0.0
H904 H 0.41987 0.26695 0.5593 0.0
H905 H 0.37833 0.24231 0.52832 0.0
Gd906 Gd 0.81995 0.17798 0.67129 0.0
Gd907 Gd 0.83514 0.14921 0.73321 0.0
C908 C 0.94134 0.14274 0.74837 0.0
C909 C 0.91756 0.08046 0.75781 0.0
C910 C 0.87533 0.10367 0.74865 0.0
C911 C 0.90487 0.13689 0.74484 0.0
C912 C 0.88113 0.07506 0.75569 0.0
C913 C 0.94764 0.11429 0.75418 0.0
C914 C 0.97009 0.17698 0.74701 0.0
C915 C 0.96185 0.20423 0.7431 0.0
N916 N 0.89757 0.16366 0.73955 0.0
C917 C 0.92527 0.19708 0.73946 0.0
H918 H 0.91973 0.21858 0.73637 0.0
C919 C 0.81017 0.06776 0.75335 0.0
N920 N 0.84061 0.09959 0.74693 0.0
C921 C 0.81444 0.0385 0.76021 0.0
C922 C 0.8501 0.04208 0.76111 0.0
H923 H 0.78254 0.06483 0.75248 0.0
H924 H 0.97551 0.11824 0.75667 0.0
H925 H 0.73382 0.11048 0.66971 0.0
H926 H 0.99847 0.18261 0.74968 0.0
H927 H 0.98372 0.23082 0.74258 0.0
H928 H 0.92265 0.05879 0.76298 0.0
H929 H 0.87547 0.26203 0.65226 0.0
H930 H 0.65801 0.15053 0.65853 0.0
H931 H 0.66999 0.10059 0.66564 0.0
H932 H 0.73825 0.27373 0.64305 0.0
H933 H 0.79025 0.01322 0.76478 0.0
H934 H 0.85336 0.01942 0.76657 0.0
H935 H 0.68373 0.2153 0.65037 0.0
H936 H 0.87006 0.31504 0.64007 0.0
N937 N 0.75817 0.16562 0.6656 0.0
C938 C 0.68622 0.15508 0.6603 0.0
C939 C 0.69289 0.12684 0.66424 0.0
C940 C 0.71619 0.18886 0.65784 0.0
C941 C 0.75232 0.1933 0.66041 0.0
C942 C 0.72928 0.13261 0.66654 0.0
N943 N 0.8171 0.22895 0.65786 0.0
C944 C 0.78282 0.22605 0.65625 0.0
C945 C 0.8453 0.29019 0.64466 0.0
C946 C 0.81016 0.28788 0.64398 0.0
C947 C 0.84829 0.2602 0.6514 0.0
C948 C 0.77833 0.25546 0.6495 0.0
H949 H 0.8079 0.31113 0.63872 0.0
O950 O 0.85324 0.19719 0.63732 0.0
O951 O 0.85513 0.16655 0.6957 0.0
O952 O 0.86076 0.20818 0.72446 0.0
O953 O 0.82753 0.2189 0.69419 0.0
O954 O 0.88331 0.20628 0.66957 0.0
O955 O 0.80696 0.14509 0.64333 0.0
O956 O 0.80099 0.13021 0.76671 0.0
O957 O 0.79817 0.15968 0.70921 0.0
O958 O 0.79431 0.11916 0.67919 0.0
O959 O 0.82682 0.10814 0.71003 0.0
O960 O 0.77301 0.1159 0.73404 0.0
O961 O 0.84601 0.18286 0.76051 0.0
C962 C 0.88734 0.18687 0.68687 0.0
C963 C 0.74234 0.25142 0.64798 0.0
C964 C 0.71131 0.21816 0.65217 0.0
C965 C 0.83304 0.16884 0.62802 0.0
C966 C 0.82184 0.17301 0.60349 0.0
C967 C 0.78913 0.17516 0.60048 0.0
C968 C 0.84269 0.17381 0.58311 0.0
C969 C 0.83047 0.17671 0.5599 0.0
C970 C 0.7765 0.17706 0.57789 0.0
C971 C 0.79661 0.17747 0.55791 0.0
C972 C 0.84902 0.22823 0.71224 0.0
C973 C 0.76707 0.13482 0.71738 0.0
C974 C 0.82025 0.15889 0.7758 0.0
C975 C 0.83179 0.15524 0.80014 0.0
C976 C 0.86059 0.14707 0.80363 0.0
C977 C 0.81481 0.16047 0.81989 0.0
C978 C 0.82674 0.15739 0.84307 0.0
C979 C 0.87291 0.14463 0.82628 0.0
C980 C 0.8564 0.14992 0.84576 0.0
C981 C 0.80524 0.09881 0.69191 0.0
H982 H 0.77292 0.1748 0.61571 0.0
H983 H 0.86828 0.17262 0.58531 0.0
H984 H 0.75082 0.17806 0.57583 0.0
H985 H 0.78534 0.17833 0.54071 0.0
H986 H 0.87384 0.14292 0.78877 0.0
H987 H 0.7923 0.16648 0.81722 0.0
H988 H 0.89552 0.13876 0.82875 0.0
H989 H 0.86726 0.14846 0.86302 0.0
H990 H 0.28499 0.87442 0.0586 0.0
H991 H 0.31383 0.80857 0.10576 0.0
H992 H 0.38014 0.84905 0.09599 0.0
H993 H 0.4298 0.90199 0.07304 0.0
H994 H 0.40264 0.97228 0.02956 0.0
H995 H 0.33596 0.93103 0.03791 0.0
C996 C 0.30598 0.86954 0.06708 0.0
C997 C 0.29467 0.83874 0.08313 0.0
C998 C 0.3442 0.89308 0.06124 0.0
C999 C 0.32197 0.83235 0.09377 0.0
C1000 C 0.3598 0.85524 0.08788 0.0
C1001 C 0.40927 0.90802 0.065 0.0
C1002 C 0.4213 0.93929 0.0494 0.0
C1003 C 0.37122 0.88533 0.07132 0.0
C1004 C 0.39428 0.94748 0.04026 0.0
C1005 C 0.35612 0.9242 0.04556 0.0
H1006 H 0.21149 0.56015 0.06252 0.0
H1007 H 0.17446 0.45184 0.08525 0.0
H1008 H 0.11417 0.43601 0.06869 0.0
H1009 H 0.0704 0.45392 0.05101 0.0
H1010 H 0.10817 0.56257 0.02847 0.0
H1011 H 0.16994 0.57746 0.04066 0.0
C1012 C 0.19015 0.53319 0.06352 0.0
C1013 C 0.19641 0.50719 0.07547 0.0
C1014 C 0.15594 0.52441 0.05379 0.0
C1015 C 0.16927 0.47216 0.07658 0.0
C1016 C 0.13512 0.46316 0.06701 0.0
C1017 C 0.09243 0.48073 0.04841 0.0
C1018 C 0.08468 0.50707 0.03884 0.0
C1019 C 0.12784 0.48917 0.05606 0.0
C1020 C 0.11331 0.54175 0.03558 0.0
C1021 C 0.14874 0.55036 0.04277 0.0
H1022 H 0.57836 0.72615 0.05501 0.0
H1023 H 0.49942 0.68138 0.11583 0.0
H1024 H 0.48121 0.62271 0.10673 0.0
H1025 H 0.48842 0.58421 0.08143 0.0
H1026 H 0.56295 0.62927 0.01832 0.0
H1027 H 0.58201 0.68779 0.0279 0.0
C1028 C 0.55677 0.70345 0.06594 0.0
C1029 C 0.54019 0.70773 0.08605 0.0
C1030 C 0.54586 0.67 0.06018 0.0
C1031 C 0.51247 0.67834 0.10032 0.0
C1032 C 0.50217 0.64496 0.09514 0.0
C1033 C 0.50891 0.60696 0.06992 0.0
C1034 C 0.52467 0.60279 0.0494 0.0
C1035 C 0.51885 0.64045 0.07519 0.0
C1036 C 0.55062 0.63217 0.03424 0.0
C1037 C 0.56151 0.66553 0.03972 0.0
H1038 H 0.8896 0.30621 0.97866 0.0
H1039 H 0.79132 0.31394 0.9939 0.0
H1040 H 0.8293 0.37016 1.00789 0.0
H1041 H 0.89102 0.4187 0.01389 0.0
H1042 H 0.98971 0.41468 0.99286 0.0
H1043 H 0.95144 0.35632 0.9822 0.0
C1044 C 0.87663 0.32052 0.98468 0.0
C1045 C 0.83766 0.30595 0.9851 0.0
C1046 C 0.89887 0.35376 0.99139 0.0
C1047 C 0.82116 0.32437 0.99362 0.0
C1048 C 0.84293 0.35667 1.00141 0.0
C1049 C 0.90412 0.40497 1.00704 0.0
C1050 C 0.94323 0.42096 1.0043 0.0
C1051 C 0.88187 0.37183 1.00014 0.0
C1052 C 0.95974 0.40303 0.9951 0.0
C1053 C 0.93784 0.36958 0.98906 0.0
H1054 H 0.71387 0.54837 1.00106 0.0
H1055 H 0.64602 0.43867 0.99975 0.0
H1056 H 0.59161 0.44091 0.01587 0.0
H1057 H 0.56296 0.47617 0.02372 0.0
H1058 H 0.62951 0.58727 0.02007 0.0
H1059 H 0.68585 0.58292 0.0127 0.0
C1060 C 0.6872 0.52502 1.00498 0.0
C1061 C 0.68315 0.49344 0.99947 0.0
C1062 C 0.65634 0.52705 0.01305 0.0
C1063 C 0.64904 0.46303 1.00408 0.0
C1064 C 0.61825 0.46446 0.01311 0.0
C1065 C 0.58979 0.49926 0.02208 0.0
C1066 C 0.5924 0.53196 0.02268 0.0
C1067 C 0.62141 0.4966 0.01677 0.0
C1068 C 0.62725 0.56189 0.01979 0.0
C1069 C 0.65923 0.55938 0.01552 0.0
H1070 H 0.48958 0.18951 0.95784 0.0
H1071 H 0.40049 0.15837 1.01085 0.0
H1072 H 0.40734 0.10793 0.02709 0.0
H1073 H 0.4418 0.07445 0.02769 0.0
H1074 H 0.52982 0.10525 0.97356 0.0
H1075 H 0.52094 0.15387 0.95661 0.0
C1076 C 0.47111 0.17102 0.97249 0.0
C1077 C 0.44433 0.17723 0.98303 0.0
C1078 C 0.47569 0.14238 0.98193 0.0
C1079 C 0.42099 0.15365 1.00237 0.0
C1080 C 0.42521 0.12509 1.01179 0.0
C1081 C 0.45896 0.09188 0.01223 0.0
C1082 C 0.48655 0.08631 1.00199 0.0
C1083 C 0.45305 0.11954 1.00208 0.0
C1084 C 0.50833 0.10891 0.98176 0.0
C1085 C 0.50324 0.13674 0.97198 0.0
H1086 H 0.74326 0.15257 0.98569 0.0
H1087 H 0.70583 0.22753 0.96762 0.0
H1088 H 0.6413 0.18283 0.97877 0.0
H1089 H 0.59545 0.12248 0.99382 0.0
H1090 H 0.63106 0.04574 1.00953 0.0
H1091 H 0.69613 0.09058 0.99944 0.0
C1092 C 0.72073 0.15871 0.9838 0.0
C1093 C 0.72896 0.19307 0.97544 0.0
C1094 C 0.68355 0.13267 0.99031 0.0
C1095 C 0.69982 0.20108 0.97358 0.0
C1096 C 0.66308 0.17563 0.98016 0.0
C1097 C 0.6176 0.11575 0.9954 0.0
C1098 C 0.6087 0.08121 1.00362 0.0
C1099 C 0.65461 0.1414 0.98871 0.0
C1100 C 0.63742 0.07248 1.00451 0.0
C1101 C 0.67455 0.09805 0.99833 0.0
H1102 H 0.81123 0.48116 0.97408 0.0
H1103 H 0.8184 0.57165 0.99949 0.0
H1104 H 0.88357 0.59151 1.00818 0.0
H1105 H 0.93863 0.58258 1.00791 0.0
H1106 H 0.92621 0.4858 0.99008 0.0
H1107 H 0.86302 0.46835 0.97917 0.0
C1108 C 0.82752 0.50532 0.98129 0.0
C1109 C 0.81165 0.52626 0.98477 0.0
C1110 C 0.86358 0.51492 0.98792 0.0
C1111 C 0.83148 0.55651 0.9954 0.0
C1112 C 0.86832 0.5675 1.00063 0.0
C1113 C 0.92159 0.55735 1.00223 0.0
C1114 C 0.93625 0.53486 1.00072 0.0
C1115 C 0.88472 0.54691 0.99687 0.0
C1116 C 0.91472 0.50276 0.99248 0.0
C1117 C 0.87879 0.49298 0.98589 0.0
H1118 H 0.48796 0.3285 0.96383 0.0
H1119 H 0.42284 0.26083 0.02657 0.0
H1120 H 0.43041 0.31096 0.04506 0.0
H1121 H 0.45332 0.37423 0.04244 0.0
H1122 H 0.51411 0.44095 0.97814 0.0
H1123 H 0.5099 0.39125 0.96092 0.0
C1124 C 0.47531 0.32485 0.98148 0.0
C1125 C 0.45517 0.29117 0.99392 0.0
C1126 C 0.47877 0.35365 0.9916 0.0
C1127 C 0.43907 0.28664 0.01687 0.0
C1128 C 0.44314 0.31525 0.02734 0.0
C1129 C 0.46597 0.37779 0.02482 0.0
C1130 C 0.484 0.41105 1.01156 0.0
C1131 C 0.46276 0.3489 0.01482 0.0
C1132 C 0.49975 0.41542 0.98854 0.0
C1133 C 0.49748 0.38707 0.97872 0.0
H1134 H 0.13391 0.7304 0.074 0.0
H1135 H 0.23065 0.72094 0.05711 0.0
H1136 H 0.19223 0.6689 0.03857 0.0
H1137 H 0.13042 0.62446 0.02856 0.0
H1138 H 0.03283 0.62931 0.05099 0.0
H1139 H 0.07184 0.68402 0.06637 0.0
C1140 C 0.14651 0.71671 0.06656 0.0
C1141 C 0.18528 0.72987 0.06679 0.0
C1142 C 0.12391 0.68575 0.05698 0.0
C1143 C 0.20109 0.71191 0.05671 0.0
C1144 C 0.17904 0.68194 0.04628 0.0
C1145 C 0.11772 0.63763 0.03665 0.0
C1146 C 0.07867 0.6229 0.0384 0.0
C1147 C 0.14035 0.66847 0.04639 0.0
C1148 C 0.06273 0.64007 0.04933 0.0
C1149 C 0.08507 0.6714 0.05816 0.0
H1150 H 0.28188 0.46098 0.07214 0.0
H1151 H 0.35456 0.5627 0.09031 0.0
H1152 H 0.40862 0.56121 0.07297 0.0
H1153 H 0.43448 0.52975 0.05414 0.0
H1154 H 0.36294 0.42433 0.04157 0.0
H1155 H 0.30831 0.42826 0.05472 0.0
C1156 C 0.30974 0.48225 0.07278 0.0
C1157 C 0.31497 0.51151 0.0829 0.0
C1158 C 0.34028 0.48076 0.06323 0.0
C1159 C 0.35065 0.53975 0.08299 0.0
C1160 C 0.3812 0.53898 0.07289 0.0
C1161 C 0.40686 0.508 0.05367 0.0
C1162 C 0.40231 0.4772 0.0461 0.0
C1163 C 0.37626 0.50959 0.06296 0.0
C1164 C 0.36665 0.44858 0.04664 0.0
C1165 C 0.33565 0.45069 0.05446 0.0
H1166 H 0.50457 0.80489 0.07954 0.0
H1167 H 0.61931 0.86035 0.09565 0.0
H1168 H 0.62029 0.9159 0.08339 0.0
H1169 H 0.58892 0.94885 0.06564 0.0
H1170 H 0.47643 0.89155 0.0452 0.0
H1171 H 0.47449 0.83685 0.06058 0.0
C1172 C 0.52996 0.82911 0.08002 0.0
C1173 C 0.56186 0.82839 0.08835 0.0
C1174 C 0.5308 0.86076 0.07179 0.0
C1175 C 0.59422 0.86012 0.08958 0.0
C1176 C 0.59487 0.8919 0.08232 0.0
C1177 C 0.56406 0.92434 0.06467 0.0
C1178 C 0.53289 0.92424 0.05417 0.0
C1179 C 0.56343 0.8926 0.07307 0.0
C1180 C 0.50091 0.8923 0.0529 0.0
C1181 C 0.49969 0.86097 0.06182 0.0
H1182 H 0.99579 0.1608 0.41407 0.0
H1183 H 0.92952 0.21002 0.42504 0.0
H1184 H 0.98329 0.26705 0.41313 0.0
H1185 H 0.04887 0.3034 0.39739 0.0
H1186 H 0.11324 0.25383 0.38187 0.0
H1187 H 0.0603 0.19682 0.39598 0.0
C1188 C 0.99288 0.1839 0.41359 0.0
C1189 C 0.95825 0.18072 0.42091 0.0
C1190 C 0.02359 0.21675 0.40511 0.0
C1191 C 0.95578 0.21137 0.4206 0.0
C1192 C 0.9865 0.24412 0.4132 0.0
C1193 C 0.05121 0.28008 0.39692 0.0
C1194 C 0.0851 0.28313 0.38829 0.0
C1195 C 0.02045 0.24718 0.40509 0.0
C1196 C 0.08756 0.25251 0.38802 0.0
C1197 C 0.05727 0.21979 0.39634 0.0
H1198 H 0.84496 0.80591 0.40214 0.0
H1199 H 0.89135 0.91514 0.40586 0.0
H1200 H 0.83664 0.91494 0.38789 0.0
H1201 H 0.77285 0.8816 0.37603 0.0
H1202 H 0.72444 0.77096 0.37613 0.0
H1203 H 0.7832 0.77347 0.38719 0.0
C1204 C 0.84302 0.82961 0.39852 0.0
C1205 C 0.8714 0.86047 0.40508 0.0
C1206 C 0.81139 0.82885 0.38894 0.0
C1207 C 0.86937 0.89128 0.40077 0.0
C1208 C 0.83827 0.89105 0.3906 0.0
C1209 C 0.77551 0.85826 0.37785 0.0
C1210 C 0.7447 0.82614 0.37514 0.0
C1211 C 0.80869 0.85974 0.38524 0.0
C1212 C 0.74808 0.79589 0.37806 0.0
C1213 C 0.78147 0.79732 0.38447 0.0
H1214 H 0.18738 0.01448 0.43301 0.0
H1215 H 0.24537 0.07753 0.36712 0.0
H1216 H 0.23583 0.02578 0.35009 0.0
H1217 H 0.21244 0.96218 0.3545 0.0
H1218 H 0.16004 0.90057 0.42208 0.0
H1219 H 0.16643 0.95182 0.43803 0.0
C1220 C 0.19815 0.01681 0.41502 0.0
C1221 C 0.21659 0.04965 0.40124 0.0
C1222 C 0.19377 0.98712 0.4057 0.0
C1223 C 0.23026 0.05238 0.37786 0.0
C1224 C 0.22511 0.02284 0.3682 0.0
C1225 C 0.2024 0.96014 0.37265 0.0
C1226 C 0.18607 0.92781 0.38715 0.0
C1227 C 0.20698 0.99001 0.38197 0.0
C1228 C 0.17325 0.92537 0.4107 0.0
C1229 C 0.17672 0.95461 0.41982 0.0
H1230 H 0.50638 0.67278 0.29547 0.0
H1231 H 0.51773 0.60711 0.35353 0.0
H1232 H 0.56298 0.65846 0.37056 0.0
H1233 H 0.60097 0.72254 0.36811 0.0
H1234 H 0.59654 0.78746 0.30657 0.0
H1235 H 0.54821 0.73625 0.29114 0.0
C1236 C 0.51917 0.66982 0.31169 0.0
C1237 C 0.50854 0.63623 0.32335 0.0
C1238 C 0.54684 0.69942 0.3205 0.0
C1239 C 0.52502 0.63271 0.34449 0.0
C1240 C 0.55112 0.66205 0.35408 0.0
C1241 C 0.58944 0.72531 0.35129 0.0
C1242 C 0.60219 0.75862 0.33845 0.0
C1243 C 0.56248 0.69558 0.34215 0.0
C1244 C 0.58735 0.76199 0.3166 0.0
C1245 C 0.55957 0.73276 0.30787 0.0
H1246 H 0.34715 0.82063 0.33409 0.0
H1247 H 0.40712 0.93091 0.31194 0.0
H1248 H 0.35688 0.93773 0.32959 0.0
H1249 H 0.29308 0.91108 0.34667 0.0
H1250 H 0.23101 0.80008 0.36599 0.0
H1251 H 0.28507 0.79448 0.35529 0.0
C1252 C 0.34901 0.846 0.33357 0.0
C1253 C 0.37983 0.87522 0.32169 0.0
C1254 C 0.31993 0.84948 0.34345 0.0
C1255 C 0.38295 0.90826 0.32093 0.0
C1256 C 0.35448 0.91209 0.33102 0.0
C1257 C 0.29183 0.88583 0.34905 0.0
C1258 C 0.2583 0.85609 0.35709 0.0
C1259 C 0.32243 0.88274 0.34172 0.0
C1260 C 0.25663 0.82339 0.36008 0.0
C1261 C 0.28745 0.82014 0.35367 0.0
H1262 H 0.16088 0.5419 0.32119 0.0
H1263 H 0.05276 0.47358 0.29887 0.0
H1264 H 0.06313 0.42395 0.30887 0.0
H1265 H 0.10182 0.39876 0.32685 0.0
H1266 H 0.2057 0.46733 0.35468 0.0
H1267 H 0.1977 0.51715 0.34054 0.0
C1268 C 0.13954 0.51611 0.31857 0.0
C1269 C 0.10641 0.51195 0.30874 0.0
C1270 C 0.14477 0.48728 0.32581 0.0
C1271 C 0.07914 0.47827 0.30539 0.0
C1272 C 0.08482 0.44952 0.3116 0.0
C1273 C 0.12274 0.42463 0.32965 0.0
C1274 C 0.15449 0.42907 0.34169 0.0
C1275 C 0.1174 0.45358 0.32213 0.0
C1276 C 0.18103 0.46286 0.34546 0.0
C1277 C 0.17654 0.49157 0.33734 0.0
H1278 H 0.36593 0.53869 0.32379 0.0
H1279 H 0.43147 0.49093 0.30704 0.0
H1280 H 0.37781 0.43314 0.31847 0.0
H1281 H 0.31195 0.39598 0.33381 0.0
H1282 H 0.24753 0.44453 0.35135 0.0
H1283 H 0.30104 0.50185 0.34025 0.0
C1284 C 0.3686 0.51564 0.323 0.0
C1285 C 0.40278 0.51918 0.31466 0.0
C1286 C 0.33784 0.48252 0.33019 0.0
C1287 C 0.40541 0.48894 0.31312 0.0
C1288 C 0.3748 0.4559 0.31987 0.0
C1289 C 0.30978 0.41914 0.33541 0.0
C1290 C 0.27571 0.41572 0.34396 0.0
C1291 C 0.34085 0.45231 0.32857 0.0
C1292 C 0.27334 0.44612 0.34544 0.0
C1293 C 0.304 0.47906 0.33884 0.0
H1294 H 0.48601 0.83383 0.31343 0.0
H1295 H 0.52466 0.94363 0.30617 0.0
H1296 H 0.58422 0.95382 0.32118 0.0
H1297 H 0.62441 0.93075 0.33797 0.0
H1298 H 0.5818 0.81985 0.35046 0.0
H1299 H 0.52398 0.81038 0.33338 0.0
C1300 C 0.50814 0.85995 0.31453 0.0
C1301 C 0.50242 0.88822 0.30693 0.0
C1302 C 0.54082 0.86513 0.32522 0.0
C1303 C 0.52988 0.92189 0.30981 0.0
C1304 C 0.56338 0.92753 0.31924 0.0
C1305 C 0.60216 0.90453 0.33727 0.0
C1306 C 0.60747 0.87611 0.34543 0.0
C1307 C 0.56898 0.89927 0.32725 0.0
C1308 C 0.57849 0.84222 0.34448 0.0
C1309 C 0.5455 0.83676 0.3344 0.0
H1310 H 0.15605 0.63516 0.33433 0.0
H1311 H 0.05191 0.61501 0.30508 0.0
H1312 H 0.05738 0.668 0.31787 0.0
H1313 H 0.09279 0.72106 0.33657 0.0
H1314 H 0.19236 0.73662 0.37089 0.0
H1315 H 0.18726 0.68414 0.35759 0.0
C1316 C 0.13427 0.64207 0.3312 0.0
C1317 C 0.10415 0.62174 0.31822 0.0
C1318 C 0.13679 0.67177 0.33955 0.0
C1319 C 0.076 0.63092 0.31433 0.0
C1320 C 0.07897 0.66106 0.32179 0.0
C1321 C 0.11325 0.71285 0.34116 0.0
C1322 C 0.1432 0.73299 0.3543 0.0
C1323 C 0.1095 0.68195 0.33416 0.0
C1324 C 0.16916 0.72171 0.3606 0.0
C1325 C 0.16631 0.69169 0.35299 0.0
H1326 H 0.83745 0.03029 0.43791 0.0
H1327 H 0.85622 0.09658 0.37156 0.0
H1328 H 0.81394 0.04625 0.35252 0.0
H1329 H 0.76936 0.98328 0.35524 0.0
H1330 H 0.74464 0.91875 0.4231 0.0
H1331 H 0.7899 0.96838 0.44129 0.0
C1332 C 0.8321 0.03374 0.41933 0.0
C1333 C 0.85094 0.06715 0.40603 0.0
C1334 C 0.80606 1.00492 0.40887 0.0
C1335 C 0.84331 0.07107 0.38198 0.0
C1336 C 0.8187 0.04231 0.37118 0.0
C1337 C 0.77416 0.98003 0.37391 0.0
C1338 C 0.75382 0.94712 0.38766 0.0
C1339 C 0.79975 1.00906 0.38445 0.0
C1340 C 0.75974 0.94371 0.41207 0.0
C1341 C 0.78581 0.9721 0.42248 0.0
H1342 H 0.00725 0.87634 0.40501 0.0
H1343 H 0.92935 0.77204 0.43572 0.0
H1344 H 0.97224 0.7516 0.42392 0.0
H1345 H 0.03205 0.76404 0.4038 0.0
H1346 H 0.10533 0.86826 0.36993 0.0
H1347 H 0.06322 0.88764 0.38241 0.0
C1348 C 0.99974 0.84912 0.409 0.0
C1349 C 0.96571 0.82586 0.42139 0.0
C1350 C 0.0232 0.83739 0.40085 0.0
C1351 C 0.95602 0.79063 0.42676 0.0
C1352 C 0.98019 0.77887 0.4196 0.0
C1353 C 0.03837 0.79081 0.39881 0.0
C1354 C 0.0721 0.81461 0.38587 0.0
C1355 C 0.01376 0.80203 0.40635 0.0
C1356 C 0.07991 0.84924 0.37969 0.0
C1357 C 0.05585 0.86055 0.38708 0.0
H1358 H 0.202 0.16656 0.43737 0.0
H1359 H 0.26459 0.17594 0.37338 0.0
H1360 H 0.25977 0.22705 0.35649 0.0
H1361 H 0.23407 0.26708 0.35885 0.0
H1362 H 0.17531 0.2606 0.42395 0.0
H1363 H 0.18228 0.2109 0.44148 0.0
C1364 C 0.21524 0.18039 0.41999 0.0
C1365 C 0.23304 0.16723 0.40642 0.0
C1366 C 0.21256 0.21007 0.41045 0.0
C1367 C 0.25017 0.18533 0.38391 0.0
C1368 C 0.24734 0.21449 0.37424 0.0
C1369 C 0.22285 0.25475 0.37685 0.0
C1370 C 0.20383 0.26725 0.38997 0.0
C1371 C 0.2278 0.22664 0.38708 0.0
C1372 C 0.19008 0.25145 0.41348 0.0
C1373 C 0.19402 0.22298 0.42353 0.0
H1374 H 0.61227 0.54538 0.73308 0.0
H1375 H 0.65294 0.47492 0.75796 0.0
H1376 H 0.71709 0.52006 0.74534 0.0
H1377 H 0.76218 0.58086 0.72786 0.0
H1378 H 0.72094 0.65238 0.70684 0.0
H1379 H 0.65701 0.60611 0.71681 0.0
C1380 C 0.63535 0.54029 0.73613 0.0
C1381 C 0.62814 0.50721 0.74696 0.0
C1382 C 0.67214 0.56655 0.72897 0.0
C1383 C 0.6581 0.50049 0.75014 0.0
C1384 C 0.69467 0.52621 0.74271 0.0
C1385 C 0.73907 0.58597 0.72492 0.0
C1386 C 0.74629 0.61983 0.7157 0.0
C1387 C 0.70217 0.55945 0.73201 0.0
C1388 C 0.71609 0.62639 0.71321 0.0
C1389 C 0.6795 0.59999 0.71915 0.0
H1390 H 0.53982 0.21972 0.73632 0.0
H1391 H 0.50479 0.11046 0.74821 0.0
H1392 H 0.44505 0.09715 0.73142 0.0
H1393 H 0.40034 0.11687 0.71791 0.0
H1394 H 0.43636 0.22631 0.70662 0.0
H1395 H 0.49805 0.23976 0.71805 0.0
C1396 C 0.51913 0.19319 0.73478 0.0
C1397 C 0.52571 0.16599 0.74366 0.0
C1398 C 0.48512 0.18591 0.72526 0.0
C1399 C 0.49937 0.13154 0.74166 0.0
C1400 C 0.46547 0.12401 0.73212 0.0
C1401 C 0.42207 0.14359 0.7175 0.0
C1402 C 0.41402 0.17072 0.71107 0.0
C1403 C 0.45757 0.15097 0.72455 0.0
C1404 C 0.44214 0.2052 0.71075 0.0
C1405 C 0.47742 0.21286 0.71764 0.0
H1406 H 0.92184 0.37636 0.74658 0.0
H1407 H 0.81241 0.36327 0.73549 0.0
H1408 H 0.7942 0.30806 0.72041 0.0
H1409 H 0.8088 0.26224 0.71194 0.0
H1410 H 0.91573 0.27198 0.72806 0.0
H1411 H 0.93533 0.32911 0.74022 0.0
C1412 C 0.89389 0.36109 0.74115 0.0
C1413 C 0.86843 0.3737 0.7422 0.0
C1414 C 0.88316 0.32865 0.73359 0.0
C1415 C 0.83253 0.35416 0.73461 0.0
C1416 C 0.82208 0.32253 0.72616 0.0
C1417 C 0.83644 0.27702 0.71803 0.0
C1418 C 0.86088 0.26304 0.71906 0.0
C1419 C 0.84708 0.30937 0.72573 0.0
C1420 C 0.89641 0.28215 0.72724 0.0
C1421 C 0.90766 0.31486 0.73412 0.0
H1422 H 0.21809 0.97339 0.65158 0.0
H1423 H 0.11896 0.97731 0.67102 0.0
H1424 H 0.15667 0.03285 0.68613 0.0
H1425 H 0.21872 0.08219 0.6919 0.0
H1426 H 0.31728 0.07971 0.66836 0.0
H1427 H 0.27929 0.02252 0.65632 0.0
C1428 C 0.20477 0.98661 0.65884 0.0
C1429 C 0.16573 0.97128 0.66003 0.0
C1430 C 0.22671 0.01905 0.66668 0.0
C1431 C 0.14891 0.98839 0.67009 0.0
C1432 C 0.17052 0.02027 0.67859 0.0
C1433 C 0.23178 0.06887 0.6844 0.0
C1434 C 0.27089 0.08522 0.68119 0.0
C1435 C 0.20955 0.03608 0.67681 0.0
C1436 C 0.28734 0.06784 0.67105 0.0
C1437 C 0.2656 0.03505 0.66413 0.0
H1438 H 0.97461 0.11924 0.64608 0.0
H1439 H 0.06554 0.20253 0.67486 0.0
H1440 H 0.02274 0.21809 0.69345 0.0
H1441 H 0.96098 0.21475 0.69405 0.0
H1442 H 0.86998 0.12993 0.66633 0.0
H1443 H 0.91085 0.10829 0.6543 0.0
C1444 C 0.9845 0.1396 0.65742 0.0
C1445 C 0.02263 0.15977 0.65929 0.0
C1446 C 0.95983 0.14863 0.6676 0.0
C1447 C 0.0359 0.1866 0.6736 0.0
C1448 C 0.0116 0.19584 0.68379 0.0
C1449 C 0.94995 0.19059 0.68655 0.0
C1450 C 0.91226 0.17282 0.68233 0.0
C1451 C 0.97372 0.1781 0.67987 0.0
C1452 C 0.89853 0.14286 0.67099 0.0
C1453 C 0.922 0.13071 0.6638 0.0
H1454 H 0.83956 0.87523 0.65477 0.0
H1455 H 0.73217 0.81291 0.62913 0.0
H1456 H 0.73901 0.76053 0.63899 0.0
H1457 H 0.77449 0.73203 0.65828 0.0
H1458 H 0.87642 0.79633 0.69005 0.0
H1459 H 0.87231 0.84778 0.67529 0.0
C1460 C 0.81751 0.85011 0.65151 0.0
C1461 C 0.78538 0.84791 0.64144 0.0
C1462 C 0.82057 0.82025 0.65869 0.0
C1463 C 0.75736 0.81534 0.6367 0.0
C1464 C 0.76115 0.78538 0.64261 0.0
C1465 C 0.79582 0.75736 0.66178 0.0
C1466 C 0.82613 0.76012 0.67495 0.0
C1467 C 0.79242 0.78738 0.65412 0.0
C1468 C 0.8531 0.79314 0.67974 0.0
C1469 C 0.8508 0.82281 0.67132 0.0
H1470 H 0.0319 0.86753 0.6619 0.0
H1471 H 0.09928 0.82179 0.64462 0.0
H1472 H 0.046 0.76365 0.65437 0.0
H1473 H 0.97974 0.72529 0.66864 0.0
H1474 H 0.91422 0.77179 0.68806 0.0
H1475 H 0.96706 0.82956 0.67786 0.0
C1476 C 0.03496 0.84481 0.66043 0.0
C1477 C 0.06955 0.84924 0.65211 0.0
C1478 C 0.00448 0.81136 0.66699 0.0
C1479 C 0.07289 0.81944 0.65016 0.0
C1480 C 0.04245 0.78604 0.65613 0.0
C1481 C 0.97717 0.7481 0.67081 0.0
C1482 C 0.9428 0.74394 0.67947 0.0
C1483 C 0.00806 0.78162 0.66466 0.0
C1484 C 0.94007 0.77391 0.68185 0.0
C1485 C 0.97042 0.80714 0.67581 0.0
H1486 H 0.13532 0.16368 0.67463 0.0
H1487 H 0.16608 0.19619 0.59921 0.0
H1488 H 0.23099 0.22006 0.60735 0.0
H1489 H 0.27889 0.2299 0.63645 0.0
H1490 H 0.24191 0.1603 0.7017 0.0
H1491 H 0.17853 0.15046 0.69795 0.0
C1492 C 0.15504 0.17388 0.6594 0.0
C1493 C 0.14461 0.1798 0.63634 0.0
C1494 C 0.19162 0.18155 0.66327 0.0
C1495 C 0.17255 0.19433 0.61751 0.0
C1496 C 0.20999 0.2071 0.62203 0.0
C1497 C 0.25711 0.21299 0.65008 0.0
C1498 C 0.26595 0.20077 0.67195 0.0
C1499 C 0.21984 0.20122 0.64506 0.0
C1500 C 0.23674 0.17544 0.68761 0.0
C1501 C 0.20024 0.16832 0.68455 0.0
H1502 H 0.74375 0.9601 0.64623 0.0
H1503 H 0.84636 0.96648 0.66944 0.0
H1504 H 0.85987 0.01807 0.68814 0.0
H1505 H 0.84363 0.0629 0.69621 0.0
H1506 H 0.74363 0.05927 0.66948 0.0
H1507 H 0.72812 1.00546 0.65351 0.0
C1508 C 0.76915 0.97303 0.65523 0.0
C1509 C 0.79397 0.95957 0.6566 0.0
C1510 C 0.77719 1.00319 0.66522 0.0
C1511 C 0.82661 0.97615 0.66857 0.0
C1512 C 0.83442 1.00573 0.67908 0.0
C1513 C 0.81823 0.05004 0.68715 0.0
C1514 C 0.79469 0.06488 0.68411 0.0
C1515 C 0.81 0.0196 0.67741 0.0
C1516 C 0.76219 0.04834 0.672 0.0
C1517 C 0.7533 0.01758 0.66285 0.0
H1518 H 0.54219 0.38391 0.72299 0.0
H1519 H 0.46496 0.41257 0.75119 0.0
H1520 H 0.4126 0.36005 0.73998 0.0
H1521 H 0.3886 0.30424 0.72339 0.0
H1522 H 0.46692 0.28276 0.68799 0.0
H1523 H 0.51857 0.33393 0.70037 0.0
C1524 C 0.51396 0.37904 0.72623 0.0
C1525 C 0.5075 0.40155 0.73866 0.0
C1526 C 0.48401 0.34973 0.71857 0.0
C1527 C 0.47063 0.39496 0.74244 0.0
C1528 C 0.44067 0.36502 0.73592 0.0
C1529 C 0.41697 0.31092 0.7183 0.0
C1530 C 0.42366 0.28891 0.70542 0.0
C1531 C 0.44695 0.34182 0.7243 0.0
C1532 C 0.46068 0.29857 0.69839 0.0
C1533 C 0.49046 0.32806 0.70538 0.0
H1534 H 0.61346 0.11726 0.7513 0.0
H1535 H 0.68154 0.22561 0.75712 0.0
H1536 H 0.73603 0.22493 0.73969 0.0
H1537 H 0.76379 0.19268 0.72365 0.0
H1538 H 0.69626 0.08326 0.71988 0.0
H1539 H 0.64122 0.08503 0.73474 0.0
C1540 C 0.64054 0.14034 0.74907 0.0
C1541 C 0.64433 0.17122 0.75578 0.0
C1542 C 0.67115 0.13968 0.73876 0.0
C1543 C 0.67884 0.20152 0.75244 0.0
C1544 C 0.70958 0.20117 0.74223 0.0
C1545 C 0.73679 0.16953 0.72544 0.0
C1546 C 0.73355 0.13804 0.72025 0.0
C1547 C 0.70596 0.17041 0.73518 0.0
C1548 C 0.69887 0.10784 0.72342 0.0
C1549 C 0.66767 0.10877 0.73219 0.0
H1550 H 0.93019 0.52693 0.75006 0.0
H1551 H 0.81478 0.4503 0.75149 0.0
H1552 H 0.79854 0.49566 0.73771 0.0
H1553 H 0.81767 0.55698 0.7233 0.0
H1554 H 0.93202 0.63475 0.72584 0.0
H1555 H 0.94834 0.58949 0.74024 0.0
C1556 C 0.90142 0.52039 0.74823 0.0
C1557 C 0.87359 0.48533 0.75205 0.0
C1558 C 0.89225 0.54684 0.74063 0.0
C1559 C 0.83651 0.47716 0.74878 0.0
C1560 C 0.8273 0.50304 0.74075 0.0
C1561 C 0.84613 0.56395 0.72709 0.0
C1562 C 0.87369 0.59905 0.72325 0.0
C1563 C 0.855 0.53792 0.7362 0.0
C1564 C 0.91035 0.60785 0.72858 0.0
C1565 C 0.91967 0.58198 0.73683 0.0
H1566 H 0.50354 0.95269 0.27221 0.0
H1567 H 0.44478 0.8591 0.24042 0.0
H1568 H 0.46387 0.893 0.20056 0.0
H1569 H 0.4887 0.95017 0.17619 0.0
H1570 H 0.55532 0.04298 0.20853 0.0
H1571 H 0.54245 1.00802 0.24722 0.0
C1572 C 0.49747 0.9394 0.25668 0.0
C1573 C 0.4739 0.90343 0.25919 0.0
C1574 C 0.50889 0.959 0.23407 0.0
C1575 C 0.46362 0.8868 0.23873 0.0
C1576 C 0.47414 0.90622 0.21604 0.0
C1577 C 0.50169 0.96298 0.19137 0.0
C1578 C 0.52175 0.99965 0.1893 0.0
C1579 C 0.49556 0.94259 0.21359 0.0
C1580 C 0.53808 0.01512 0.20956 0.0
C1581 C 0.53119 0.9951 0.23175 0.0
H1582 H 0.12159 0.56453 0.23875 0.0
H1583 H 0.02212 0.50438 0.28468 0.0
H1584 H 0.98643 0.48074 0.25068 0.0
H1585 H 0.98229 0.4823 0.20784 0.0
H1586 H 0.07864 0.55404 0.16101 0.0
H1587 H 0.1169 0.56734 0.19501 0.0
C1588 C 0.0924 0.54526 0.24117 0.0
C1589 C 0.07478 0.53447 0.26423 0.0
C1590 C 0.07143 0.53445 0.22123 0.0
C1591 C 0.03652 0.5112 0.26724 0.0
C1592 C 0.01605 0.49837 0.24775 0.0
C1593 C 0.01149 0.50127 0.20485 0.0
C1594 C 0.02699 0.51724 0.18158 0.0
C1595 C 0.03299 0.51066 0.22461 0.0
C1596 C 0.0655 0.54071 0.17845 0.0
C1597 C 0.08755 0.54871 0.19801 0.0
H1598 H 0.50844 0.5521 0.26813 0.0
H1599 H 0.3968 0.53624 0.26433 0.0
H1600 H 0.39074 0.51079 0.2272 0.0
H1601 H 0.41848 0.49415 0.19524 0.0
H1602 H 0.53233 0.51566 0.19806 0.0
H1603 H 0.53738 0.54002 0.23531 0.0
C1604 C 0.48305 0.54367 0.25893 0.0
C1605 C 0.4533 0.54647 0.26875 0.0
C1606 C 0.48065 0.53098 0.23708 0.0
C1607 C 0.41999 0.53416 0.25715 0.0
C1608 C 0.41675 0.52006 0.23579 0.0
C1609 C 0.44452 0.50493 0.20383 0.0
C1610 C 0.47522 0.50362 0.19392 0.0
C1611 C 0.44711 0.51874 0.2254 0.0
C1612 C 0.50864 0.51693 0.20532 0.0
C1613 C 0.51137 0.53046 0.2267 0.0
H1614 H 0.95598 0.50426 0.7785 0.0
H1615 H 0.85827 0.42455 0.81969 0.0
H1616 H 0.88743 0.44389 0.85676 0.0
H1617 H 0.94427 0.47914 0.877 0.0
H1618 H 0.03958 0.56266 0.83498 0.0
H1619 H 0.00759 0.54677 0.79874 0.0
C1620 C 0.94038 0.49245 0.79554 0.0
C1621 C 0.90493 0.46343 0.79644 0.0
C1622 C 0.95728 0.5039 0.81665 0.0
C1623 C 0.88556 0.44716 0.8187 0.0
C1624 C 0.90236 0.45805 0.83984 0.0
C1625 C 0.95779 0.49448 0.86004 0.0
C1626 C 0.99502 0.52131 0.85884 0.0
C1627 C 0.93879 0.48576 0.83904 0.0
C1628 C 0.01165 0.5409 0.83652 0.0
C1629 C 0.99324 0.53206 0.81569 0.0
H1630 H 0.57789 0.4512 0.81931 0.0
H1631 H 0.57356 0.5306 0.76985 0.0
H1632 H 0.56435 0.55723 0.80292 0.0
H1633 H 0.54848 0.55292 0.84534 0.0
H1634 H 0.54132 0.46694 0.89432 0.0
H1635 H 0.56366 0.44783 0.86232 0.0
C1636 C 0.57538 0.4746 0.8159 0.0
C1637 C 0.57638 0.48895 0.79216 0.0
C1638 C 0.56713 0.48809 0.83501 0.0
C1639 C 0.57375 0.51957 0.78791 0.0
C1640 C 0.56769 0.53433 0.80685 0.0
C1641 C 0.55149 0.52983 0.84915 0.0
C1642 C 0.54251 0.51129 0.87242 0.0
C1643 C 0.56277 0.51796 0.8304 0.0
C1644 C 0.54811 0.48213 0.87684 0.0
C1645 C 0.56069 0.47093 0.85842 0.0
H1646 H 0.54309 0.09362 0.80193 0.0
H1647 H 0.65297 0.17849 0.8064 0.0
H1648 H 0.66178 0.1456 0.84165 0.0
H1649 H 0.63614 0.09357 0.87244 0.0
H1650 H 0.52284 0.01299 0.87022 0.0
H1651 H 0.5163 0.0442 0.83349 0.0
C1652 C 0.5686 0.1053 0.81097 0.0
C1653 C 0.59699 0.13874 0.80204 0.0
C1654 C 0.57245 0.08718 0.83176 0.0
C1655 C 0.63073 0.15281 0.81309 0.0
C1656 C 0.63557 0.13415 0.8333 0.0
C1657 C 0.61015 0.08297 0.86376 0.0
C1658 C 0.58008 0.05097 0.87368 0.0
C1659 C 0.60635 0.1015 0.84299 0.0
C1660 C 0.54626 0.03755 0.86273 0.0
C1661 C 0.54261 0.05528 0.84175 0.0
H1662 H 0.10958 0.18884 0.57222 0.0
H1663 H 0.13603 0.25952 0.62385 0.0
H1664 H 0.16998 0.30934 0.59261 0.0
H1665 H 0.18822 0.33184 0.55018 0.0
H1666 H 0.16752 0.25972 0.49957 0.0
H1667 H 0.13518 0.21101 0.53087 0.0
C1668 C 0.1236 0.21525 0.57644 0.0
C1669 C 0.12144 0.22113 0.59991 0.0
C1670 C 0.14362 0.24315 0.55868 0.0
C1671 C 0.13856 0.25503 0.60572 0.0
C1672 C 0.15762 0.28321 0.58794 0.0
C1673 C 0.17748 0.30554 0.54608 0.0
C1674 C 0.17943 0.29952 0.52246 0.0
C1675 C 0.16 0.27753 0.5643 0.0
C1676 C 0.16521 0.26515 0.51746 0.0
C1677 C 0.14695 0.23721 0.53535 0.0
H1678 H 0.71031 0.88397 0.60022 0.0
H1679 H 0.80346 0.86662 0.58972 0.0
H1680 H 0.78006 0.84448 0.55189 0.0
H1681 H 0.73236 0.83065 0.52159 0.0
H1682 H 0.64171 0.85188 0.53243 0.0
H1683 H 0.66568 0.87365 0.56979 0.0
C1684 C 0.72551 0.87546 0.58953 0.0
C1685 C 0.75836 0.87673 0.5976 0.0
C1686 C 0.71269 0.86426 0.56765 0.0
C1687 C 0.77778 0.86534 0.58389 0.0
C1688 C 0.76462 0.85313 0.5622 0.0
C1689 C 0.71837 0.84057 0.53206 0.0
C1690 C 0.68535 0.83975 0.52445 0.0
C1691 C 0.73217 0.85272 0.55379 0.0
C1692 C 0.66713 0.85233 0.53809 0.0
C1693 C 0.68066 0.86453 0.55947 0.0
H1694 H 0.08811 0.88409 0.58651 0.0
H1695 H 0.17003 0.87078 0.62685 0.0
H1696 H 0.18522 0.84748 0.59397 0.0
H1697 H 0.17741 0.83368 0.55346 0.0
H1698 H 0.09405 0.84437 0.51248 0.0
H1699 H 0.07834 0.86743 0.54533 0.0
C1700 C 0.10852 0.87516 0.58812 0.0
C1701 C 0.12728 0.878 0.6092 0.0
C1702 C 0.11751 0.86232 0.56884 0.0
C1703 C 0.15473 0.86777 0.61096 0.0
C1704 C 0.16363 0.85489 0.5921 0.0
C1705 C 0.15518 0.84025 0.55172 0.0
C1706 C 0.13665 0.8366 0.53046 0.0
C1707 C 0.14548 0.85237 0.5709 0.0
C1708 C 0.10908 0.84694 0.52846 0.0
C1709 C 0.09975 0.85981 0.54739 0.0
H1710 H 0.6416 0.80355 0.12947 0.0
H1711 H 0.54334 0.81244 0.14147 0.0
H1712 H 0.56854 0.84045 0.17717 0.0
H1713 H 0.61893 0.86127 0.20544 0.0
H1714 H 0.7156 0.84936 0.19324 0.0
H1715 H 0.69007 0.82205 0.15779 0.0
C1716 C 0.62577 0.81154 0.14004 0.0
C1717 C 0.59081 0.80601 0.13312 0.0
C1718 C 0.63988 0.82633 0.16073 0.0
C1719 C 0.57055 0.81689 0.14652 0.0
C1720 C 0.58478 0.83246 0.167 0.0
C1721 C 0.63401 0.85228 0.19508 0.0
C1722 C 0.66908 0.85729 0.20174 0.0
C1723 C 0.61932 0.83699 0.17444 0.0
C1724 C 0.68865 0.84582 0.18825 0.0
C1725 C 0.67418 0.83041 0.16797 0.0
H1726 H 0.23346 0.77287 0.15116 0.0
H1727 H 0.23953 0.86037 0.10524 0.0
H1728 H 0.2304 0.88445 0.13994 0.0
H1729 H 0.21332 0.8771 0.18259 0.0
H1730 H 0.19873 0.7854 0.22812 0.0
H1731 H 0.21868 0.76667 0.19464 0.0
C1732 C 0.23305 0.79735 0.14888 0.0
C1733 C 0.23647 0.81457 0.12561 0.0
C1734 C 0.22571 0.81 0.16889 0.0
C1735 C 0.23691 0.84668 0.1229 0.0
C1736 C 0.23124 0.86019 0.14275 0.0
C1737 C 0.21416 0.85284 0.18534 0.0
C1738 C 0.20367 0.83253 0.20809 0.0
C1739 C 0.22426 0.84145 0.16573 0.0
C1740 C 0.20661 0.80186 0.2111 0.0
C1741 C 0.21778 0.79091 0.19181 0.0
H1742 H 0.2904 0.51153 0.15498 0.0
H1743 H 0.24092 0.43626 0.10648 0.0
H1744 H 0.22596 0.38898 0.13865 0.0
H1745 H 0.21701 0.36946 0.18103 0.0
H1746 H 0.26834 0.44376 0.23059 0.0
H1747 H 0.29138 0.49115 0.19766 0.0
C1748 C 0.27786 0.4848 0.1515 0.0
C1749 C 0.26753 0.47714 0.12847 0.0
C1750 C 0.26827 0.45769 0.17035 0.0
C1751 C 0.2503 0.44253 0.12397 0.0
C1752 C 0.24103 0.41555 0.14245 0.0
C1753 C 0.23437 0.39575 0.18483 0.0
C1754 C 0.24007 0.40267 0.20851 0.0
C1755 C 0.24851 0.42282 0.16583 0.0
C1756 C 0.26214 0.43739 0.21269 0.0
C1757 C 0.27581 0.46464 0.19382 0.0
H1758 H 0.75661 0.5118 0.91371 0.0
H1759 H 0.81257 0.5885 0.96046 0.0
H1760 H 0.84594 0.63253 0.92672 0.0
H1761 H 0.85397 0.65074 0.88407 0.0
H1762 H 0.78453 0.57795 0.83746 0.0
H1763 H 0.76194 0.53112 0.87052 0.0
C1764 C 0.77651 0.53811 0.91633 0.0
C1765 C 0.78367 0.54649 0.93956 0.0
C1766 C 0.7927 0.56417 0.89671 0.0
C1767 C 0.80872 0.58075 0.94293 0.0
C1768 C 0.827 0.60622 0.92353 0.0
C1769 C 0.83349 0.62484 0.88103 0.0
C1770 C 0.82109 0.61835 0.85815 0.0
C1771 C 0.81845 0.59841 0.90038 0.0
C1772 C 0.79542 0.58405 0.85467 0.0
C1773 C 0.78202 0.55711 0.87367 0.0
H1774 H 0.46099 0.24953 0.91203 0.0
H1775 H 0.37895 0.15828 0.95643 0.0
H1776 H 0.34691 0.13451 0.92116 0.0
H1777 H 0.33805 0.1432 0.87848 0.0
H1778 H 0.41684 0.23739 0.83453 0.0
H1779 H 0.45459 0.25638 0.8686 0.0
C1780 C 0.4365 0.22412 0.91381 0.0
C1781 C 0.42231 0.20556 0.93674 0.0
C1782 C 0.41743 0.21146 0.89353 0.0
C1783 C 0.39066 0.1727 0.93897 0.0
C1784 C 0.37211 0.1594 0.91881 0.0
C1785 C 0.36357 0.16785 0.87627 0.0
C1786 C 0.37421 0.18902 0.85393 0.0
C1787 C 0.38455 0.17909 0.89613 0.0
C1788 C 0.40793 0.22043 0.85137 0.0
C1789 C 0.42942 0.23146 0.87094 0.0
H1790 H 0.78687 0.17398 0.94659 0.0
H1791 H 0.77509 0.25753 0.9081 0.0
H1792 H 0.78316 0.23974 0.87007 0.0
H1793 H 0.80282 0.20522 0.84805 0.0
H1794 H 0.81091 0.11946 0.88719 0.0
H1795 H 0.79475 0.13292 0.92441 0.0
C1796 C 0.78463 0.18734 0.92986 0.0
C1797 C 0.78079 0.21715 0.93004 0.0
C1798 C 0.78952 0.17701 0.90811 0.0
C1799 C 0.77837 0.23464 0.90827 0.0
C1800 C 0.78322 0.22459 0.88656 0.0
C1801 C 0.80016 0.18894 0.86462 0.0
C1802 C 0.80942 0.16204 0.86473 0.0
C1803 C 0.79031 0.19657 0.88623 0.0
C1804 C 0.80539 0.14114 0.88652 0.0
C1805 C 0.79587 0.14865 0.90791 0.0
H1806 H 0.21609 0.11443 0.47908 0.0
H1807 H 0.31015 0.17617 0.4289 0.0
H1808 H 0.34868 0.20336 0.46125 0.0
H1809 H 0.35638 0.20539 0.50351 0.0
H1810 H 0.26029 0.14971 0.55392 0.0
H1811 H 0.22228 0.1227 0.52189 0.0
C1812 C 0.24475 0.13464 0.47534 0.0
C1813 C 0.26039 0.14396 0.45176 0.0
C1814 C 0.26654 0.1502 0.49407 0.0
C1815 C 0.29764 0.16942 0.44691 0.0
C1816 C 0.31963 0.18449 0.46542 0.0
C1817 C 0.32697 0.18854 0.50785 0.0
C1818 C 0.31198 0.1803 0.53171 0.0
C1819 C 0.30449 0.17464 0.4891 0.0
C1820 C 0.27365 0.15653 0.5362 0.0
C1821 C 0.25143 0.14126 0.5177 0.0
H1822 H 0.8808 0.18542 0.45305 0.0
H1823 H 0.91547 0.11278 0.48365 0.0
H1824 H 0.90029 0.11986 0.5239 0.0
H1825 H 0.86919 0.14165 0.55008 0.0
H1826 H 0.8407 0.21883 0.5183 0.0
H1827 H 0.86234 0.2159 0.4792 0.0
C1828 C 0.88734 0.17289 0.46849 0.0
C1829 C 0.90075 0.14968 0.4653 0.0
C1830 C 0.87864 0.17727 0.49155 0.0
C1831 C 0.90644 0.13172 0.48568 0.0
C1832 C 0.8972 0.1354 0.50869 0.0
C1833 C 0.86858 0.15847 0.53472 0.0
C1834 C 0.85178 0.17945 0.5373 0.0
C1835 C 0.88214 0.15738 0.51189 0.0
C1836 C 0.85189 0.2013 0.51698 0.0
C1837 C 0.86455 0.19988 0.49447 0.0
H1838 H 0.86047 0.77377 0.46094 0.0
H1839 H 0.97309 0.84017 0.47689 0.0
H1840 H 0.96409 0.80154 0.51434 0.0
H1841 H 0.92236 0.74928 0.54299 0.0
H1842 H 0.80948 0.68422 0.52591 0.0
H1843 H 0.81964 0.72248 0.4887 0.0
C1844 C 0.88284 0.77972 0.47279 0.0
C1845 C 0.91706 0.80973 0.46671 0.0
C1846 C 0.87712 0.75792 0.49409 0.0
C1847 C 0.94647 0.81712 0.48158 0.0
C1848 C 0.94119 0.79521 0.50291 0.0
C1849 C 0.90015 0.74375 0.53105 0.0
C1850 C 0.86528 0.71407 0.5369 0.0
C1851 C 0.90639 0.76571 0.50949 0.0
C1852 C 0.83656 0.70683 0.52148 0.0
C1853 C 0.84236 0.72862 0.50028 0.0
loop_
_geom_bond_atom_site_label_1
_geom_bond_atom_site_label_2
_geom_bond_distance
_geom_bond_site_symmetry_2
_ccdc_geom_bond_type
C0 N1 1.317 . S
C0 N2 1.348 . S
C0 C3 1.485 . S
N1 C0 1.317 . S
N1 N5 1.370 . S
N2 C0 1.348 . S
N2 C4 1.346 . S
C3 C0 1.485 . S
C3 H7 0.960 . S
C3 H8 0.961 . S
C3 H9 0.960 . S
C4 N2 1.346 . S
C4 N5 1.307 . S
C4 C6 1.486 . S
N5 N1 1.370 . S
N5 C4 1.307 . S
C6 C4 1.486 . S
C6 H10 0.960 . S
C6 H11 0.960 . S
C6 H12 0.959 . S
H7 C3 0.960 . S
H8 C3 0.961 . S
H9 C3 0.960 . S
H10 C6 0.960 . S
H11 C6 0.960 . S
H12 C6 0.959 . S
C13 N14 1.317 . S
C13 N15 1.348 . S
C13 C16 1.485 . S
N14 C13 1.317 . S
N14 N18 1.370 . S
N15 C13 1.348 . S
N15 C17 1.346 . S
C16 C13 1.485 . S
C16 H20 0.960 . S
C16 H21 0.961 . S
C16 H22 0.960 . S
C17 N15 1.346 . S
C17 N18 1.307 . S
C17 C19 1.486 . S
N18 N14 1.370 . S
N18 C17 1.307 . S
C19 C17 1.486 . S
C19 H23 0.960 . S
C19 H24 0.960 . S
C19 H25 0.959 . S
H20 C16 0.960 . S
H21 C16 0.961 . S
H22 C16 0.960 . S
H23 C19 0.960 . S
H24 C19 0.960 . S
H25 C19 0.959 . S
C26 N27 1.317 . S
C26 N28 1.348 . S
C26 C29 1.485 . S
N27 C26 1.317 . S
N27 N31 1.370 . S
N28 C26 1.348 . S
N28 C30 1.346 . S
C29 C26 1.485 . S
C29 H33 0.960 . S
C29 H34 0.961 . S
C29 H35 0.960 . S
C30 N28 1.346 . S
C30 N31 1.307 . S
C30 C32 1.486 . S
N31 N27 1.370 . S
N31 C30 1.307 . S
C32 C30 1.486 . S
C32 H36 0.960 . S
C32 H37 0.960 . S
C32 H38 0.959 . S
H33 C29 0.960 . S
H34 C29 0.961 . S
H35 C29 0.960 . S
H36 C32 0.960 . S
H37 C32 0.960 . S
H38 C32 0.959 . S
C39 N40 1.317 . S
C39 N41 1.348 . S
C39 C42 1.485 . S
N40 C39 1.317 . S
N40 N44 1.370 . S
N41 C39 1.348 . S
N41 C43 1.346 . S
C42 C39 1.485 . S
C42 H46 0.960 . S
C42 H47 0.961 . S
C42 H48 0.960 . S
C43 N41 1.346 . S
C43 N44 1.307 . S
C43 C45 1.486 . S
N44 N40 1.370 . S
N44 C43 1.307 . S
C45 C43 1.486 . S
C45 H49 0.960 . S
C45 H50 0.960 1_455 S
C45 H51 0.959 . S
H46 C42 0.960 . S
H47 C42 0.961 . S
H48 C42 0.960 . S
H49 C45 0.960 . S
H50 C45 0.960 1_655 S
H51 C45 0.959 . S
C52 N53 1.317 . S
C52 N54 1.348 . S
C52 C55 1.485 . S
N53 C52 1.317 . S
N53 N57 1.370 . S
N54 C52 1.348 . S
N54 C56 1.346 . S
C55 C52 1.485 . S
C55 H59 0.960 . S
C55 H60 0.961 . S
C55 H61 0.960 . S
C56 N54 1.346 . S
C56 N57 1.307 . S
C56 C58 1.486 . S
N57 N53 1.370 . S
N57 C56 1.307 . S
C58 C56 1.486 . S
C58 H62 0.960 . S
C58 H63 0.960 . S
C58 H64 0.959 . S
H59 C55 0.960 . S
H60 C55 0.961 . S
H61 C55 0.960 . S
H62 C58 0.960 . S
H63 C58 0.960 . S
H64 C58 0.959 . S
C65 N66 1.317 . S
C65 N67 1.348 . S
C65 C68 1.485 . S
N66 C65 1.317 . S
N66 N70 1.370 . S
N67 C65 1.348 . S
N67 C69 1.346 . S
C68 C65 1.485 . S
C68 H72 0.960 . S
C68 H73 0.961 . S
C68 H74 0.960 . S
C69 N67 1.346 . S
C69 N70 1.307 . S
C69 C71 1.486 . S
N70 N66 1.370 . S
N70 C69 1.307 . S
C71 C69 1.486 . S
C71 H75 0.960 . S
C71 H76 0.960 . S
C71 H77 0.959 . S
H72 C68 0.960 . S
H73 C68 0.961 . S
H74 C68 0.960 . S
H75 C71 0.960 . S
H76 C71 0.960 . S
H77 C71 0.959 . S
C78 N79 1.317 . S
C78 N80 1.348 . S
C78 C81 1.485 . S
N79 C78 1.317 . S
N79 N83 1.370 . S
N80 C78 1.348 . S
N80 C82 1.346 . S
C81 C78 1.485 . S
C81 H85 0.960 . S
C81 H86 0.961 . S
C81 H87 0.960 . S
C82 N80 1.346 . S
C82 N83 1.307 . S
C82 C84 1.486 . S
N83 N79 1.370 . S
N83 C82 1.307 . S
C84 C82 1.486 . S
C84 H88 0.960 . S
C84 H89 0.960 . S
C84 H90 0.959 . S
H85 C81 0.960 . S
H86 C81 0.961 . S
H87 C81 0.960 . S
H88 C84 0.960 . S
H89 C84 0.960 . S
H90 C84 0.959 . S
C91 N92 1.317 . S
C91 N93 1.348 . S
C91 C94 1.485 . S
N92 C91 1.317 . S
N92 N96 1.370 . S
N93 C91 1.348 . S
N93 C95 1.346 . S
C94 C91 1.485 . S
C94 H98 0.960 . S
C94 H99 0.961 . S
C94 H100 0.960 . S
C95 N93 1.346 . S
C95 N96 1.307 . S
C95 C97 1.486 . S
N96 N92 1.370 . S
N96 C95 1.307 . S
C97 C95 1.486 . S
C97 H101 0.960 . S
C97 H102 0.960 . S
C97 H103 0.959 . S
H98 C94 0.960 . S
H99 C94 0.961 . S
H100 C94 0.960 . S
H101 C97 0.960 . S
H102 C97 0.960 . S
H103 C97 0.959 . S
C104 N105 1.317 . S
C104 N106 1.348 . S
C104 C107 1.485 . S
N105 C104 1.317 . S
N105 N109 1.370 . S
N106 C104 1.348 . S
N106 C108 1.346 . S
C107 C104 1.485 . S
C107 H111 0.960 . S
C107 H112 0.961 . S
C107 H113 0.960 . S
C108 N106 1.346 . S
C108 N109 1.307 . S
C108 C110 1.486 . S
N109 N105 1.370 . S
N109 C108 1.307 . S
C110 C108 1.486 . S
C110 H114 0.960 . S
C110 H115 0.960 . S
C110 H116 0.959 . S
H111 C107 0.960 . S
H112 C107 0.961 . S
H113 C107 0.960 . S
H114 C110 0.960 . S
H115 C110 0.960 . S
H116 C110 0.959 . S
C117 N118 1.317 . S
C117 N119 1.348 . S
C117 C120 1.472 1_556 S
N118 C117 1.317 . S
N118 N122 1.370 . S
N119 C117 1.348 . S
N119 C121 1.346 . S
C120 C117 1.472 1_554 S
C120 H124 0.961 . S
C120 H125 0.970 . S
C120 H126 0.963 . S
C121 N119 1.346 . S
C121 N122 1.307 . S
C121 C123 1.486 . S
N122 N118 1.370 . S
N122 C121 1.307 . S
C123 C121 1.486 . S
C123 H127 0.960 . S
C123 H128 0.960 . S
C123 H129 0.959 . S
H124 C120 0.961 . S
H125 C120 0.970 . S
H126 C120 0.963 . S
H127 C123 0.960 . S
H128 C123 0.960 . S
H129 C123 0.959 . S
C130 N131 1.317 . S
C130 N132 1.348 . S
C130 C133 1.485 1_556 S
N131 C130 1.317 . S
N131 N135 1.370 . S
N132 C130 1.348 . S
N132 C134 1.346 . S
C133 C130 1.485 1_554 S
C133 H137 0.960 . S
C133 H138 0.961 . S
C133 H139 0.960 . S
C134 N132 1.346 . S
C134 N135 1.307 . S
C134 C136 1.486 . S
N135 N131 1.370 . S
N135 C134 1.307 . S
C136 C134 1.486 . S
C136 H140 0.960 . S
C136 H141 0.960 . S
C136 H142 0.959 . S
H137 C133 0.960 . S
H138 C133 0.961 . S
H139 C133 0.960 . S
H140 C136 0.960 . S
H141 C136 0.960 . S
H142 C136 0.959 . S
C143 N144 1.317 . S
C143 N145 1.348 . S
C143 C146 1.485 1_556 S
N144 C143 1.317 . S
N144 N148 1.370 . S
N145 C143 1.348 . S
N145 C147 1.346 . S
C146 C143 1.485 1_554 S
C146 H150 0.960 . S
C146 H151 0.961 . S
C146 H152 0.960 . S
C147 N145 1.346 . S
C147 N148 1.307 . S
C147 C149 1.486 . S
N148 N144 1.370 . S
N148 C147 1.307 . S
C149 C147 1.486 . S
C149 H153 0.960 . S
C149 H154 0.960 . S
C149 H155 0.959 . S
H150 C146 0.960 . S
H151 C146 0.961 . S
H152 C146 0.960 . S
H153 C149 0.960 . S
H154 C149 0.960 . S
H155 C149 0.959 . S
C156 N157 1.317 . S
C156 N158 1.348 . S
C156 C159 1.485 . S
N157 C156 1.317 . S
N157 N161 1.370 . S
N158 C156 1.348 . S
N158 C160 1.346 . S
C159 C156 1.485 . S
C159 H163 0.960 . S
C159 H164 0.961 . S
C159 H165 0.960 . S
C160 N158 1.346 . S
C160 N161 1.307 . S
C160 C162 1.486 . S
N161 N157 1.370 . S
N161 C160 1.307 . S
C162 C160 1.486 . S
C162 H166 0.960 . S
C162 H167 0.960 . S
C162 H168 0.959 . S
H163 C159 0.960 . S
H164 C159 0.961 . S
H165 C159 0.960 . S
H166 C162 0.960 . S
H167 C162 0.960 . S
H168 C162 0.959 . S
C169 N170 1.317 . S
C169 N171 1.348 . S
C169 C172 1.485 . S
N170 C169 1.317 . S
N170 N174 1.370 . S
N171 C169 1.348 . S
N171 C173 1.346 . S
C172 C169 1.485 . S
C172 H176 0.960 . S
C172 H177 0.961 . S
C172 H178 0.960 . S
C173 N171 1.346 . S
C173 N174 1.307 . S
C173 C175 1.486 . S
N174 N170 1.370 . S
N174 C173 1.307 . S
C175 C173 1.486 . S
C175 H179 0.960 . S
C175 H180 0.960 . S
C175 H181 0.959 . S
H176 C172 0.960 . S
H177 C172 0.961 . S
H178 C172 0.960 . S
H179 C175 0.960 . S
H180 C175 0.960 . S
H181 C175 0.959 . S
C182 N183 1.317 . S
C182 N184 1.348 . S
C182 C185 1.485 . S
N183 C182 1.317 . S
N183 N187 1.370 . S
N184 C182 1.348 . S
N184 C186 1.346 . S
C185 C182 1.485 . S
C185 H189 0.960 . S
C185 H190 0.961 . S
C185 H191 0.960 . S
C186 N184 1.346 . S
C186 N187 1.307 . S
C186 C188 1.486 . S
N187 N183 1.370 . S
N187 C186 1.307 . S
C188 C186 1.486 . S
C188 H192 0.960 . S
C188 H193 0.960 . S
C188 H194 0.959 . S
H189 C185 0.960 . S
H190 C185 0.961 . S
H191 C185 0.960 . S
H192 C188 0.960 . S
H193 C188 0.960 . S
H194 C188 0.959 . S
C195 N196 1.317 . S
C195 N197 1.348 . S
C195 C198 1.485 . S
N196 C195 1.317 . S
N196 N200 1.370 . S
N197 C195 1.348 . S
N197 C199 1.346 . S
C198 C195 1.485 . S
C198 H202 0.960 . S
C198 H203 0.961 . S
C198 H204 0.960 . S
C199 N197 1.346 . S
C199 N200 1.307 . S
C199 C201 1.486 . S
N200 N196 1.370 . S
N200 C199 1.307 . S
C201 C199 1.486 . S
C201 H205 0.960 . S
C201 H206 0.960 . S
C201 H207 0.959 . S
H202 C198 0.960 . S
H203 C198 0.961 . S
H204 C198 0.960 . S
H205 C201 0.960 . S
H206 C201 0.960 . S
H207 C201 0.959 . S
C208 N209 1.317 . S
C208 N210 1.348 . S
C208 C211 1.485 . S
N209 C208 1.317 . S
N209 N213 1.370 . S
N210 C208 1.348 . S
N210 C212 1.346 . S
C211 C208 1.485 . S
C211 H215 0.960 . S
C211 H216 0.961 . S
C211 H217 0.960 . S
C212 N210 1.346 . S
C212 N213 1.307 . S
C212 C214 1.486 . S
N213 N209 1.370 . S
N213 C212 1.307 . S
C214 C212 1.486 . S
C214 H218 0.960 . S
C214 H219 0.960 . S
C214 H220 0.959 . S
H215 C211 0.960 . S
H216 C211 0.961 . S
H217 C211 0.960 . S
H218 C214 0.960 . S
H219 C214 0.960 . S
H220 C214 0.959 . S
C221 N222 1.317 . S
C221 N223 1.348 . S
C221 C224 1.485 . S
N222 C221 1.317 . S
N222 N226 1.370 . S
N223 C221 1.348 . S
N223 C225 1.346 . S
C224 C221 1.485 . S
C224 H228 0.960 . S
C224 H229 0.961 . S
C224 H230 0.960 . S
C225 N223 1.346 . S
C225 N226 1.307 . S
C225 C227 1.486 . S
N226 N222 1.370 . S
N226 C225 1.307 . S
C227 C225 1.486 . S
C227 H231 0.960 . S
C227 H232 0.960 . S
C227 H233 0.959 . S
H228 C224 0.960 . S
H229 C224 0.961 . S
H230 C224 0.960 . S
H231 C227 0.960 . S
H232 C227 0.960 . S
H233 C227 0.959 . S
Gd234 N265 2.661 . S
Gd234 N271 2.601 . S
Gd234 O278 2.545 . S
Gd234 O279 2.606 1_545 S
Gd234 O281 2.429 . S
Gd234 O282 2.545 1_545 S
Gd234 O283 2.412 1_545 S
Gd234 O285 2.362 . S
Gd234 O286 2.324 1_545 S
Gd234 C293 2.828 1_545 S
Gd235 N244 2.661 . S
Gd235 N248 2.601 . S
Gd235 O279 2.362 1_556 S
Gd235 O280 2.324 1_565 S
Gd235 O284 2.545 . S
Gd235 O285 2.606 1_566 S
Gd235 O287 2.429 1_556 S
Gd235 O288 2.545 1_565 S
Gd235 O289 2.412 1_565 S
Gd235 C302 2.828 1_565 S
C236 C239 1.417 . S
C236 C241 1.431 . S
C236 C242 1.412 . S
C237 C240 1.437 . S
C237 C241 1.317 . S
C237 H256 0.929 . S
C238 C239 1.426 . S
C238 C240 1.413 . S
C238 N248 1.359 . S
C239 C236 1.417 . S
C239 C238 1.426 . S
C239 N244 1.350 . S
C240 C237 1.437 . S
C240 C238 1.413 . S
C240 C250 1.391 . S
C241 C236 1.431 . S
C241 C237 1.317 . S
C241 H252 0.930 . S
C242 C236 1.412 . S
C242 C243 1.355 . S
C242 H254 0.930 . S
C243 C242 1.355 . S
C243 C245 1.402 . S
C243 H255 0.930 . S
N244 Gd235 2.661 . S
N244 C239 1.350 . S
N244 C245 1.307 . S
C245 C243 1.402 . S
C245 N244 1.307 . S
C245 H246 0.930 1_565 S
H246 C245 0.930 1_545 S
C247 N248 1.334 . S
C247 C249 1.394 . S
C247 H251 0.930 . S
N248 Gd235 2.601 . S
N248 C238 1.359 . S
N248 C247 1.334 . S
C249 C247 1.394 . S
C249 C250 1.359 . S
C249 H261 0.930 . S
C250 C240 1.391 . S
C250 C249 1.359 . S
C250 H262 0.929 . S
H251 C247 0.930 . S
H252 C241 0.930 . S
H253 C270 0.930 . S
H254 C242 0.930 . S
H255 C243 0.930 . S
H256 C237 0.929 . S
H257 C275 0.930 . S
H258 C266 0.930 . S
H259 C267 0.930 . S
H260 C291 0.929 . S
H261 C249 0.930 . S
H262 C250 0.929 . S
H263 C292 0.930 . S
H264 C273 0.930 . S
N265 Gd234 2.661 . S
N265 C269 1.350 . S
N265 C270 1.307 . S
C266 H258 0.930 . S
C266 C267 1.355 . S
C266 C268 1.412 . S
C267 H259 0.930 . S
C267 C266 1.355 . S
C267 C270 1.402 . S
C268 C266 1.412 . S
C268 C269 1.417 . S
C268 C292 1.431 . S
C269 N265 1.350 . S
C269 C268 1.417 . S
C269 C272 1.426 . S
C270 H253 0.930 . S
C270 N265 1.307 . S
C270 C267 1.402 . S
N271 Gd234 2.601 . S
N271 C272 1.359 . S
N271 C275 1.334 . S
C272 C269 1.426 . S
C272 N271 1.359 . S
C272 C276 1.413 . S
C273 H264 0.930 . S
C273 C274 1.359 . S
C273 C275 1.394 . S
C274 C273 1.359 . S
C274 C276 1.391 . S
C274 H277 0.929 . S
C275 H257 0.930 . S
C275 N271 1.334 . S
C275 C273 1.394 . S
C276 C272 1.413 . S
C276 C274 1.391 . S
C276 C291 1.437 . S
H277 C274 0.929 . S
O278 Gd234 2.545 . S
O278 C293 1.258 1_545 S
O279 Gd234 2.606 1_565 S
O279 Gd235 2.362 1_554 S
O279 C290 1.284 . S
O280 Gd235 2.324 1_545 S
O280 C300 1.254 1_556 S
O281 Gd234 2.429 . S
O281 C300 1.268 . S
O282 Gd234 2.545 1_565 S
O282 C290 1.250 . S
O283 Gd234 2.412 1_565 S
O283 C293 1.252 . S
O284 Gd235 2.545 . S
O284 C302 1.258 1_565 S
O285 Gd234 2.362 . S
O285 Gd235 2.606 1_544 S
O285 C301 1.282 1_554 S
O286 Gd234 2.324 1_565 S
O286 C309 1.254 . S
O287 Gd235 2.429 1_554 S
O287 C309 1.268 . S
O288 Gd235 2.545 1_545 S
O288 C301 1.255 . S
O289 Gd235 2.412 1_545 S
O289 C302 1.252 . S
C290 O279 1.284 . S
C290 O282 1.250 . S
C291 H260 0.929 . S
C291 C276 1.437 . S
C291 C292 1.317 . S
C292 H263 0.930 . S
C292 C268 1.431 . S
C292 C291 1.317 . S
C293 Gd234 2.828 1_565 S
C293 O278 1.258 1_565 S
C293 O283 1.252 . S
C293 C294 1.497 . S
C294 C293 1.497 . S
C294 C295 1.395 . S
C294 C296 1.380 . S
C295 C294 1.395 . S
C295 C298 1.398 . S
C295 H310 0.930 1_565 S
C296 C294 1.380 . S
C296 C297 1.391 . S
C296 H311 0.930 . S
C297 C296 1.391 . S
C297 C299 1.387 . S
C298 C295 1.398 . S
C298 C299 1.380 . S
C298 H312 0.930 . S
C299 C297 1.387 . S
C299 C298 1.380 . S
C299 H313 0.930 . S
C300 O280 1.254 1_554 S
C300 O281 1.268 . S
C301 O285 1.282 1_556 S
C301 O288 1.255 . S
C302 Gd235 2.828 1_545 S
C302 O284 1.258 1_545 S
C302 O289 1.252 . S
C302 C303 1.497 . S
C303 C302 1.497 . S
C303 C304 1.395 . S
C303 C305 1.380 . S
C304 C303 1.395 . S
C304 C307 1.398 . S
C304 H314 0.930 1_545 S
C305 C303 1.380 . S
C305 C306 1.391 . S
C305 H315 0.930 . S
C306 C305 1.391 . S
C306 C308 1.387 . S
C307 C304 1.398 . S
C307 C308 1.380 . S
C307 H316 0.930 . S
C308 C306 1.387 . S
C308 C307 1.380 . S
C308 H317 0.930 . S
C309 O286 1.254 . S
C309 O287 1.268 . S
H310 C295 0.930 1_545 S
H311 C296 0.930 . S
H312 C298 0.930 . S
H313 C299 0.930 . S
H314 C304 0.930 1_565 S
H315 C305 0.930 . S
H316 C307 0.930 . S
H317 C308 0.930 . S
Gd318 N349 2.661 . S
Gd318 N355 2.601 . S
Gd318 O362 2.545 . S
Gd318 O363 2.606 1_655 S
Gd318 O365 2.429 . S
Gd318 O366 2.545 1_655 S
Gd318 O367 2.412 . S
Gd318 O369 2.362 . S
Gd318 O370 2.324 1_655 S
Gd318 C377 2.828 . S
Gd319 N328 2.661 . S
Gd319 N332 2.601 . S
Gd319 O363 2.362 1_556 S
Gd319 O364 2.324 1_455 S
Gd319 O368 2.545 . S
Gd319 O369 2.606 1_456 S
Gd319 O371 2.429 . S
Gd319 O372 2.545 1_455 S
Gd319 O373 2.412 . S
Gd319 C386 2.828 . S
C320 C323 1.417 . S
C320 C325 1.431 . S
C320 C326 1.412 . S
C321 C324 1.437 . S
C321 C325 1.317 . S
C321 H340 0.929 . S
C322 C323 1.426 . S
C322 C324 1.413 . S
C322 N332 1.359 . S
C323 C320 1.417 . S
C323 C322 1.426 . S
C323 N328 1.350 . S
C324 C321 1.437 . S
C324 C322 1.413 . S
C324 C334 1.391 . S
C325 C320 1.431 . S
C325 C321 1.317 . S
C325 H336 0.930 . S
C326 C320 1.412 . S
C326 C327 1.355 . S
C326 H338 0.930 . S
C327 C326 1.355 . S
C327 C329 1.402 . S
C327 H339 0.930 . S
N328 Gd319 2.661 . S
N328 C323 1.350 . S
N328 C329 1.307 . S
C329 C327 1.402 . S
C329 N328 1.307 . S
C329 H330 0.930 . S
H330 C329 0.930 . S
C331 N332 1.334 . S
C331 C333 1.394 . S
C331 H335 0.930 . S
N332 Gd319 2.601 . S
N332 C322 1.359 . S
N332 C331 1.334 . S
C333 C331 1.394 . S
C333 C334 1.359 . S
C333 H345 0.930 . S
C334 C324 1.391 . S
C334 C333 1.359 . S
C334 H346 0.929 . S
H335 C331 0.930 . S
H336 C325 0.930 . S
H337 C354 0.930 . S
H338 C326 0.930 . S
H339 C327 0.930 . S
H340 C321 0.929 . S
H341 C359 0.930 . S
H342 C350 0.930 . S
H343 C351 0.930 . S
H344 C375 0.929 . S
H345 C333 0.930 . S
H346 C334 0.929 . S
H347 C376 0.930 . S
H348 C357 0.930 . S
N349 Gd318 2.661 . S
N349 C353 1.350 . S
N349 C354 1.307 . S
C350 H342 0.930 . S
C350 C351 1.355 . S
C350 C352 1.412 . S
C351 H343 0.930 . S
C351 C350 1.355 . S
C351 C354 1.402 . S
C352 C350 1.412 . S
C352 C353 1.417 . S
C352 C376 1.431 . S
C353 N349 1.350 . S
C353 C352 1.417 . S
C353 C356 1.426 . S
C354 H337 0.930 . S
C354 N349 1.307 . S
C354 C351 1.402 . S
N355 Gd318 2.601 . S
N355 C356 1.359 . S
N355 C359 1.334 . S
C356 C353 1.426 . S
C356 N355 1.359 . S
C356 C360 1.413 . S
C357 H348 0.930 . S
C357 C358 1.359 . S
C357 C359 1.394 . S
C358 C357 1.359 . S
C358 C360 1.391 . S
C358 H361 0.929 . S
C359 H341 0.930 . S
C359 N355 1.334 . S
C359 C357 1.394 . S
C360 C356 1.413 . S
C360 C358 1.391 . S
C360 C375 1.437 . S
H361 C358 0.929 . S
O362 Gd318 2.545 . S
O362 C377 1.258 . S
O363 Gd318 2.606 1_455 S
O363 Gd319 2.362 1_554 S
O363 C374 1.284 . S
O364 Gd319 2.324 1_655 S
O364 C384 1.254 1_556 S
O365 Gd318 2.429 . S
O365 C384 1.268 . S
O366 Gd318 2.545 1_455 S
O366 C374 1.250 . S
O367 Gd318 2.412 . S
O367 C377 1.252 . S
O368 Gd319 2.545 . S
O368 C386 1.258 . S
O369 Gd318 2.362 . S
O369 Gd319 2.606 1_654 S
O369 C385 1.284 1_554 S
O370 Gd318 2.324 1_455 S
O370 C393 1.254 . S
O371 Gd319 2.429 . S
O371 C393 1.268 1_556 S
O372 Gd319 2.545 1_655 S
O372 C385 1.250 . S
O373 Gd319 2.412 . S
O373 C386 1.252 . S
C374 O363 1.284 . S
C374 O366 1.250 . S
C375 H344 0.929 . S
C375 C360 1.437 . S
C375 C376 1.317 . S
C376 H347 0.930 . S
C376 C352 1.431 . S
C376 C375 1.317 . S
C377 Gd318 2.828 . S
C377 O362 1.258 . S
C377 O367 1.252 . S
C377 C378 1.497 . S
C378 C377 1.497 . S
C378 C379 1.395 . S
C378 C380 1.380 1_655 S
C379 C378 1.395 . S
C379 C382 1.398 . S
C379 H394 0.930 . S
C380 C378 1.380 1_455 S
C380 C381 1.391 . S
C380 H395 0.930 . S
C381 C380 1.391 . S
C381 C383 1.387 . S
C382 C379 1.398 . S
C382 C383 1.380 1_655 S
C382 H396 0.930 . S
C383 C381 1.387 . S
C383 C382 1.380 1_455 S
C383 H397 0.930 . S
C384 O364 1.254 1_554 S
C384 O365 1.268 . S
C385 O369 1.284 1_556 S
C385 O372 1.250 . S
C386 Gd319 2.828 . S
C386 O368 1.258 . S
C386 O373 1.252 . S
C386 C387 1.497 . S
C387 C386 1.497 . S
C387 C388 1.395 . S
C387 C389 1.380 1_455 S
C388 C387 1.395 . S
C388 C391 1.398 . S
C388 H398 0.930 . S
C389 C387 1.380 1_655 S
C389 C390 1.391 . S
C389 H399 0.930 . S
C390 C389 1.391 . S
C390 C392 1.387 1_655 S
C391 C388 1.398 . S
C391 C392 1.380 . S
C391 H400 0.930 . S
C392 C390 1.387 1_455 S
C392 C391 1.380 . S
C392 H401 0.930 . S
C393 O370 1.254 . S
C393 O371 1.268 1_554 S
H394 C379 0.930 . S
H395 C380 0.930 . S
H396 C382 0.930 . S
H397 C383 0.930 . S
H398 C388 0.930 . S
H399 C389 0.930 . S
H400 C391 0.930 . S
H401 C392 0.930 . S
Gd402 N433 2.661 . S
Gd402 N439 2.601 . S
Gd402 O446 2.545 . S
Gd402 O447 2.606 1_556 S
Gd402 O449 2.429 1_556 S
Gd402 O450 2.545 . S
Gd402 O451 2.412 . S
Gd402 O453 2.362 1_556 S
Gd402 O454 2.324 1_556 S
Gd402 C461 2.828 . S
Gd403 N412 2.661 . S
Gd403 N416 2.601 . S
Gd403 O447 2.362 . S
Gd403 O448 2.324 . S
Gd403 O452 2.545 . S
Gd403 O453 2.606 . S
Gd403 O455 2.429 . S
Gd403 O456 2.545 . S
Gd403 O457 2.412 . S
Gd403 C470 2.828 . S
C404 C407 1.417 . S
C404 C409 1.431 . S
C404 C410 1.412 . S
C405 C408 1.437 . S
C405 C409 1.317 . S
C405 H424 0.929 . S
C406 C407 1.426 . S
C406 C408 1.413 . S
C406 N416 1.359 . S
C407 C404 1.417 . S
C407 C406 1.426 . S
C407 N412 1.350 . S
C408 C405 1.437 . S
C408 C406 1.413 . S
C408 C418 1.391 . S
C409 C404 1.431 . S
C409 C405 1.317 . S
C409 H420 0.930 . S
C410 C404 1.412 . S
C410 C411 1.355 . S
C410 H422 0.930 . S
C411 C410 1.355 . S
C411 C413 1.402 . S
C411 H423 0.930 . S
N412 Gd403 2.661 . S
N412 C407 1.350 . S
N412 C413 1.307 . S
C413 C411 1.402 . S
C413 N412 1.307 . S
C413 H414 0.930 . S
H414 C413 0.930 . S
C415 N416 1.334 . S
C415 C417 1.394 . S
C415 H419 0.930 . S
N416 Gd403 2.601 . S
N416 C406 1.359 . S
N416 C415 1.334 . S
C417 C415 1.394 . S
C417 C418 1.359 . S
C417 H429 0.930 . S
C418 C408 1.391 . S
C418 C417 1.359 . S
C418 H430 0.929 . S
H419 C415 0.930 . S
H420 C409 0.930 . S
H421 C438 0.930 1_554 S
H422 C410 0.930 . S
H423 C411 0.930 . S
H424 C405 0.929 . S
H425 C443 0.930 . S
H426 C434 0.930 . S
H427 C435 0.924 1_554 S
H428 C459 0.929 . S
H429 C417 0.930 . S
H430 C418 0.929 . S
H431 C460 0.930 . S
H432 C441 0.930 . S
N433 Gd402 2.661 . S
N433 C437 1.350 . S
N433 C438 1.307 . S
C434 H426 0.930 . S
C434 C435 1.355 . S
C434 C436 1.412 . S
C435 H427 0.924 1_556 S
C435 C434 1.355 . S
C435 C438 1.402 . S
C436 C434 1.412 . S
C436 C437 1.417 . S
C436 C460 1.431 . S
C437 N433 1.350 . S
C437 C436 1.417 . S
C437 C440 1.426 . S
C438 H421 0.930 1_556 S
C438 N433 1.307 . S
C438 C435 1.402 . S
N439 Gd402 2.601 . S
N439 C440 1.359 . S
N439 C443 1.334 . S
C440 C437 1.426 . S
C440 N439 1.359 . S
C440 C444 1.413 . S
C441 H432 0.930 . S
C441 C442 1.359 . S
C441 C443 1.394 . S
C442 C441 1.359 . S
C442 C444 1.391 . S
C442 H445 0.929 . S
C443 H425 0.930 . S
C443 N439 1.334 . S
C443 C441 1.394 . S
C444 C440 1.413 . S
C444 C442 1.391 . S
C444 C459 1.437 . S
H445 C442 0.929 . S
O446 Gd402 2.545 . S
O446 C461 1.258 . S
O447 Gd402 2.606 1_554 S
O447 Gd403 2.362 . S
O447 C458 1.284 . S
O448 Gd403 2.324 . S
O448 C468 1.254 . S
O449 Gd402 2.429 1_554 S
O449 C468 1.268 . S
O450 Gd402 2.545 . S
O450 C458 1.250 1_556 S
O451 Gd402 2.412 . S
O451 C461 1.252 . S
O452 Gd403 2.545 . S
O452 C470 1.258 . S
O453 Gd402 2.362 1_554 S
O453 Gd403 2.606 . S
O453 C469 1.284 . S
O454 Gd402 2.324 1_554 S
O454 C477 1.254 . S
O455 Gd403 2.429 . S
O455 C477 1.268 . S
O456 Gd403 2.545 . S
O456 C469 1.250 . S
O457 Gd403 2.412 . S
O457 C470 1.252 . S
C458 O447 1.284 . S
C458 O450 1.250 1_554 S
C459 H428 0.929 . S
C459 C444 1.437 . S
C459 C460 1.317 . S
C460 H431 0.930 . S
C460 C436 1.431 . S
C460 C459 1.317 . S
C461 Gd402 2.828 . S
C461 O446 1.258 . S
C461 O451 1.252 . S
C461 C462 1.497 . S
C462 C461 1.497 . S
C462 C463 1.395 . S
C462 C464 1.380 . S
C463 C462 1.395 . S
C463 C466 1.398 . S
C463 H478 0.930 . S
C464 C462 1.380 . S
C464 C465 1.391 . S
C464 H479 0.930 . S
C465 C464 1.391 . S
C465 C467 1.387 . S
C466 C463 1.398 . S
C466 C467 1.380 . S
C466 H480 0.930 . S
C467 C465 1.387 . S
C467 C466 1.380 . S
C467 H481 0.930 . S
C468 O448 1.254 . S
C468 O449 1.268 . S
C469 O453 1.284 . S
C469 O456 1.250 . S
C470 Gd403 2.828 . S
C470 O452 1.258 . S
C470 O457 1.252 . S
C470 C471 1.497 . S
C471 C470 1.497 . S
C471 C472 1.395 . S
C471 C473 1.380 . S
C472 C471 1.395 . S
C472 C475 1.398 . S
C472 H482 0.930 . S
C473 C471 1.380 . S
C473 C474 1.391 . S
C473 H483 0.930 . S
C474 C473 1.391 . S
C474 C476 1.387 . S
C475 C472 1.398 . S
C475 C476 1.380 . S
C475 H484 0.930 . S
C476 C474 1.387 . S
C476 C475 1.380 . S
C476 H485 0.930 . S
C477 O454 1.254 . S
C477 O455 1.268 . S
H478 C463 0.930 . S
H479 C464 0.930 . S
H480 C466 0.930 . S
H481 C467 0.930 . S
H482 C472 0.930 . S
H483 C473 0.930 . S
H484 C475 0.930 . S
H485 C476 0.930 . S
Gd486 N517 2.661 . S
Gd486 N523 2.601 . S
Gd486 O530 2.545 . S
Gd486 O531 2.606 . S
Gd486 O533 2.429 . S
Gd486 O534 2.545 . S
Gd486 O535 2.412 . S
Gd486 O537 2.362 . S
Gd486 O538 2.324 . S
Gd486 C545 2.828 . S
Gd487 N496 2.661 . S
Gd487 N500 2.601 . S
Gd487 O531 2.362 . S
Gd487 O532 2.324 . S
Gd487 O536 2.545 . S
Gd487 O537 2.606 . S
Gd487 O539 2.429 . S
Gd487 O540 2.545 . S
Gd487 O541 2.412 . S
Gd487 C554 2.828 . S
C488 C491 1.417 . S
C488 C493 1.431 . S
C488 C494 1.412 . S
C489 C492 1.437 . S
C489 C493 1.317 . S
C489 H508 0.929 . S
C490 C491 1.426 . S
C490 C492 1.413 . S
C490 N500 1.359 . S
C491 C488 1.417 . S
C491 C490 1.426 . S
C491 N496 1.350 . S
C492 C489 1.437 . S
C492 C490 1.413 . S
C492 C502 1.391 . S
C493 C488 1.431 . S
C493 C489 1.317 . S
C493 H504 0.930 . S
C494 C488 1.412 . S
C494 C495 1.355 . S
C494 H506 0.930 . S
C495 C494 1.355 . S
C495 C497 1.402 . S
C495 H507 0.930 . S
N496 Gd487 2.661 . S
N496 C491 1.350 . S
N496 C497 1.307 . S
C497 C495 1.402 . S
C497 N496 1.307 . S
C497 H498 0.930 . S
H498 C497 0.930 . S
C499 N500 1.334 . S
C499 C501 1.394 . S
C499 H503 0.930 . S
N500 Gd487 2.601 . S
N500 C490 1.359 . S
N500 C499 1.334 . S
C501 C499 1.394 . S
C501 C502 1.359 . S
C501 H513 0.930 . S
C502 C492 1.391 . S
C502 C501 1.359 . S
C502 H514 0.929 . S
H503 C499 0.930 . S
H504 C493 0.930 . S
H505 C522 0.930 . S
H506 C494 0.930 . S
H507 C495 0.930 . S
H508 C489 0.929 . S
H509 C527 0.930 . S
H510 C518 0.930 . S
H511 C519 0.930 . S
H512 C543 0.929 . S
H513 C501 0.930 . S
H514 C502 0.929 . S
H515 C544 0.930 . S
H516 C525 0.930 . S
N517 Gd486 2.661 . S
N517 C521 1.350 . S
N517 C522 1.307 . S
C518 H510 0.930 . S
C518 C519 1.355 . S
C518 C520 1.412 . S
C519 H511 0.930 . S
C519 C518 1.355 . S
C519 C522 1.402 . S
C520 C518 1.412 . S
C520 C521 1.417 . S
C520 C544 1.431 . S
C521 N517 1.350 . S
C521 C520 1.417 . S
C521 C524 1.426 . S
C522 H505 0.930 . S
C522 N517 1.307 . S
C522 C519 1.402 . S
N523 Gd486 2.601 . S
N523 C524 1.359 . S
N523 C527 1.334 . S
C524 C521 1.426 . S
C524 N523 1.359 . S
C524 C528 1.413 . S
C525 H516 0.930 . S
C525 C526 1.359 . S
C525 C527 1.394 . S
C526 C525 1.359 . S
C526 C528 1.391 . S
C526 H529 0.929 . S
C527 H509 0.930 . S
C527 N523 1.334 . S
C527 C525 1.394 . S
C528 C524 1.413 . S
C528 C526 1.391 . S
C528 C543 1.437 . S
H529 C526 0.929 . S
O530 Gd486 2.545 . S
O530 C545 1.258 . S
O531 Gd486 2.606 . S
O531 Gd487 2.362 . S
O531 C542 1.284 . S
O532 Gd487 2.324 . S
O532 C552 1.254 . S
O533 Gd486 2.429 . S
O533 C552 1.268 . S
O534 Gd486 2.545 . S
O534 C542 1.250 . S
O535 Gd486 2.412 . S
O535 C545 1.252 . S
O536 Gd487 2.545 . S
O536 C554 1.258 . S
O537 Gd486 2.362 . S
O537 Gd487 2.606 . S
O537 C553 1.284 . S
O538 Gd486 2.324 . S
O538 C561 1.254 . S
O539 Gd487 2.429 . S
O539 C561 1.268 . S
O540 Gd487 2.545 . S
O540 C553 1.250 . S
O541 Gd487 2.412 . S
O541 C554 1.252 . S
C542 O531 1.284 . S
C542 O534 1.250 . S
C543 H512 0.929 . S
C543 C528 1.437 . S
C543 C544 1.317 . S
C544 H515 0.930 . S
C544 C520 1.431 . S
C544 C543 1.317 . S
C545 Gd486 2.828 . S
C545 O530 1.258 . S
C545 O535 1.252 . S
C545 C546 1.497 . S
C546 C545 1.497 . S
C546 C547 1.395 . S
C546 C548 1.380 . S
C547 C546 1.395 . S
C547 C550 1.398 . S
C547 H562 0.930 . S
C548 C546 1.380 . S
C548 C549 1.391 . S
C548 H563 0.930 . S
C549 C548 1.391 . S
C549 C551 1.387 . S
C550 C547 1.398 . S
C550 C551 1.380 . S
C550 H564 0.930 . S
C551 C549 1.387 . S
C551 C550 1.380 . S
C551 H565 0.930 . S
C552 O532 1.254 . S
C552 O533 1.268 . S
C553 O537 1.284 . S
C553 O540 1.250 . S
C554 Gd487 2.828 . S
C554 O536 1.258 . S
C554 O541 1.252 . S
C554 C555 1.497 . S
C555 C554 1.497 . S
C555 C556 1.395 . S
C555 C557 1.380 . S
C556 C555 1.395 . S
C556 C559 1.398 . S
C556 H566 0.930 . S
C557 C555 1.380 . S
C557 C558 1.391 . S
C557 H567 0.930 . S
C558 C557 1.391 . S
C558 C560 1.387 . S
C559 C556 1.398 . S
C559 C560 1.380 . S
C559 H568 0.930 . S
C560 C558 1.387 . S
C560 C559 1.380 . S
C560 H569 0.930 . S
C561 O538 1.254 . S
C561 O539 1.268 . S
H562 C547 0.930 . S
H563 C548 0.930 . S
H564 C550 0.930 . S
H565 C551 0.930 . S
H566 C556 0.930 . S
H567 C557 0.930 . S
H568 C559 0.930 . S
H569 C560 0.930 . S
Gd570 N601 2.661 . S
Gd570 N607 2.601 . S
Gd570 O614 2.545 . S
Gd570 O615 2.606 . S
Gd570 O617 2.429 . S
Gd570 O618 2.545 . S
Gd570 O619 2.412 . S
Gd570 O621 2.362 . S
Gd570 O622 2.324 . S
Gd570 C629 2.828 . S
Gd571 N580 2.661 . S
Gd571 N584 2.601 . S
Gd571 O615 2.362 . S
Gd571 O616 2.324 . S
Gd571 O620 2.545 . S
Gd571 O621 2.606 . S
Gd571 O623 2.429 . S
Gd571 O624 2.545 . S
Gd571 O625 2.412 . S
Gd571 C638 2.828 . S
C572 C575 1.417 . S
C572 C577 1.431 . S
C572 C578 1.412 . S
C573 C576 1.437 . S
C573 C577 1.317 . S
C573 H592 0.929 . S
C574 C575 1.426 . S
C574 C576 1.413 . S
C574 N584 1.359 . S
C575 C572 1.417 . S
C575 C574 1.426 . S
C575 N580 1.350 . S
C576 C573 1.437 . S
C576 C574 1.413 . S
C576 C586 1.391 . S
C577 C572 1.431 . S
C577 C573 1.317 . S
C577 H588 0.930 . S
C578 C572 1.412 . S
C578 C579 1.355 . S
C578 H590 0.930 . S
C579 C578 1.355 . S
C579 C581 1.402 . S
C579 H591 0.930 . S
N580 Gd571 2.661 . S
N580 C575 1.350 . S
N580 C581 1.307 . S
C581 C579 1.402 . S
C581 N580 1.307 . S
C581 H582 0.930 . S
H582 C581 0.930 . S
C583 N584 1.334 . S
C583 C585 1.394 . S
C583 H587 0.930 . S
N584 Gd571 2.601 . S
N584 C574 1.359 . S
N584 C583 1.334 . S
C585 C583 1.394 . S
C585 C586 1.359 . S
C585 H597 0.930 . S
C586 C576 1.391 . S
C586 C585 1.359 . S
C586 H598 0.929 . S
H587 C583 0.930 . S
H588 C577 0.930 . S
H589 C606 0.930 . S
H590 C578 0.930 . S
H591 C579 0.930 . S
H592 C573 0.929 . S
H593 C611 0.930 . S
H594 C602 0.930 . S
H595 C603 0.930 . S
H596 C627 0.929 . S
H597 C585 0.930 . S
H598 C586 0.929 . S
H599 C628 0.930 . S
H600 C609 0.930 . S
N601 Gd570 2.661 . S
N601 C605 1.350 . S
N601 C606 1.307 . S
C602 H594 0.930 . S
C602 C603 1.355 . S
C602 C604 1.412 . S
C603 H595 0.930 . S
C603 C602 1.355 . S
C603 C606 1.402 . S
C604 C602 1.412 . S
C604 C605 1.417 . S
C604 C628 1.431 . S
C605 N601 1.350 . S
C605 C604 1.417 . S
C605 C608 1.426 . S
C606 H589 0.930 . S
C606 N601 1.307 . S
C606 C603 1.402 . S
N607 Gd570 2.601 . S
N607 C608 1.359 . S
N607 C611 1.334 . S
C608 C605 1.426 . S
C608 N607 1.359 . S
C608 C612 1.413 . S
C609 H600 0.930 . S
C609 C610 1.359 . S
C609 C611 1.394 . S
C610 C609 1.359 . S
C610 C612 1.391 . S
C610 H613 0.929 . S
C611 H593 0.930 . S
C611 N607 1.334 . S
C611 C609 1.394 . S
C612 C608 1.413 . S
C612 C610 1.391 . S
C612 C627 1.437 . S
H613 C610 0.929 . S
O614 Gd570 2.545 . S
O614 C629 1.258 . S
O615 Gd570 2.606 . S
O615 Gd571 2.362 . S
O615 C626 1.284 . S
O616 Gd571 2.324 . S
O616 C636 1.254 . S
O617 Gd570 2.429 . S
O617 C636 1.268 . S
O618 Gd570 2.545 . S
O618 C626 1.250 . S
O619 Gd570 2.412 . S
O619 C629 1.252 . S
O620 Gd571 2.545 . S
O620 C638 1.258 . S
O621 Gd570 2.362 . S
O621 Gd571 2.606 . S
O621 C637 1.284 . S
O622 Gd570 2.324 . S
O622 C645 1.254 . S
O623 Gd571 2.429 . S
O623 C645 1.268 . S
O624 Gd571 2.545 . S
O624 C637 1.250 . S
O625 Gd571 2.412 . S
O625 C638 1.252 . S
C626 O615 1.284 . S
C626 O618 1.250 . S
C627 H596 0.929 . S
C627 C612 1.437 . S
C627 C628 1.317 . S
C628 H599 0.930 . S
C628 C604 1.431 . S
C628 C627 1.317 . S
C629 Gd570 2.828 . S
C629 O614 1.258 . S
C629 O619 1.252 . S
C629 C630 1.497 . S
C630 C629 1.497 . S
C630 C631 1.395 . S
C630 C632 1.380 . S
C631 C630 1.395 . S
C631 C634 1.398 . S
C631 H646 0.930 . S
C632 C630 1.380 . S
C632 C633 1.391 . S
C632 H647 0.930 . S
C633 C632 1.391 . S
C633 C635 1.387 . S
C634 C631 1.398 . S
C634 C635 1.380 . S
C634 H648 0.930 . S
C635 C633 1.387 . S
C635 C634 1.380 . S
C635 H649 0.930 . S
C636 O616 1.254 . S
C636 O617 1.268 . S
C637 O621 1.284 . S
C637 O624 1.250 . S
C638 Gd571 2.828 . S
C638 O620 1.258 . S
C638 O625 1.252 . S
C638 C639 1.497 . S
C639 C638 1.497 . S
C639 C640 1.395 . S
C639 C641 1.380 . S
C640 C639 1.395 . S
C640 C643 1.398 . S
C640 H650 0.930 . S
C641 C639 1.380 . S
C641 C642 1.391 . S
C641 H651 0.930 . S
C642 C641 1.391 . S
C642 C644 1.387 . S
C643 C640 1.398 . S
C643 C644 1.380 . S
C643 H652 0.930 . S
C644 C642 1.387 . S
C644 C643 1.380 . S
C644 H653 0.930 . S
C645 O622 1.254 . S
C645 O623 1.268 . S
H646 C631 0.930 . S
H647 C632 0.930 . S
H648 C634 0.930 . S
H649 C635 0.930 . S
H650 C640 0.930 . S
H651 C641 0.930 . S
H652 C643 0.930 . S
H653 C644 0.930 . S
Gd654 N685 2.661 . S
Gd654 N691 2.601 . S
Gd654 O698 2.545 . S
Gd654 O699 2.606 . S
Gd654 O701 2.429 . S
Gd654 O702 2.545 . S
Gd654 O703 2.412 . S
Gd654 O705 2.362 . S
Gd654 O706 2.324 . S
Gd654 C713 2.828 . S
Gd655 N664 2.661 . S
Gd655 N668 2.601 . S
Gd655 O699 2.362 . S
Gd655 O700 2.324 . S
Gd655 O704 2.545 . S
Gd655 O705 2.606 . S
Gd655 O707 2.429 . S
Gd655 O708 2.545 . S
Gd655 O709 2.412 . S
Gd655 C722 2.828 . S
C656 C659 1.417 . S
C656 C661 1.431 . S
C656 C662 1.412 . S
C657 C660 1.437 . S
C657 C661 1.317 . S
C657 H676 0.929 . S
C658 C659 1.426 . S
C658 C660 1.413 . S
C658 N668 1.359 . S
C659 C656 1.417 . S
C659 C658 1.426 . S
C659 N664 1.350 . S
C660 C657 1.437 . S
C660 C658 1.413 . S
C660 C670 1.391 . S
C661 C656 1.431 . S
C661 C657 1.317 . S
C661 H672 0.930 . S
C662 C656 1.412 . S
C662 C663 1.355 . S
C662 H674 0.930 . S
C663 C662 1.355 . S
C663 C665 1.402 . S
C663 H675 0.930 . S
N664 Gd655 2.661 . S
N664 C659 1.350 . S
N664 C665 1.307 . S
C665 C663 1.402 . S
C665 N664 1.307 . S
C665 H666 0.930 . S
H666 C665 0.930 . S
C667 N668 1.334 . S
C667 C669 1.394 . S
C667 H671 0.930 . S
N668 Gd655 2.601 . S
N668 C658 1.359 . S
N668 C667 1.334 . S
C669 C667 1.394 . S
C669 C670 1.359 . S
C669 H681 0.930 . S
C670 C660 1.391 . S
C670 C669 1.359 . S
C670 H682 0.929 . S
H671 C667 0.930 . S
H672 C661 0.930 . S
H673 C690 0.930 . S
H674 C662 0.930 . S
H675 C663 0.930 . S
H676 C657 0.929 . S
H677 C695 0.930 . S
H678 C686 0.930 1_655 S
H679 C687 0.930 . S
H680 C711 0.929 . S
H681 C669 0.930 . S
H682 C670 0.929 . S
H683 C712 0.930 1_655 S
H684 C693 0.930 . S
N685 Gd654 2.661 . S
N685 C689 1.350 . S
N685 C690 1.307 . S
C686 H678 0.930 1_455 S
C686 C687 1.355 . S
C686 C688 1.412 . S
C687 H679 0.930 . S
C687 C686 1.355 . S
C687 C690 1.402 . S
C688 C686 1.412 . S
C688 C689 1.417 . S
C688 C712 1.431 . S
C689 N685 1.350 . S
C689 C688 1.417 . S
C689 C692 1.426 . S
C690 H673 0.930 . S
C690 N685 1.307 . S
C690 C687 1.402 . S
N691 Gd654 2.601 . S
N691 C692 1.359 . S
N691 C695 1.334 . S
C692 C689 1.426 . S
C692 N691 1.359 . S
C692 C696 1.413 . S
C693 H684 0.930 . S
C693 C694 1.359 . S
C693 C695 1.394 . S
C694 C693 1.359 . S
C694 C696 1.391 . S
C694 H697 0.929 . S
C695 H677 0.930 . S
C695 N691 1.334 . S
C695 C693 1.394 . S
C696 C692 1.413 . S
C696 C694 1.391 . S
C696 C711 1.437 . S
H697 C694 0.929 . S
O698 Gd654 2.545 . S
O698 C713 1.258 . S
O699 Gd654 2.606 . S
O699 Gd655 2.362 . S
O699 C710 1.284 . S
O700 Gd655 2.324 . S
O700 C720 1.254 . S
O701 Gd654 2.429 . S
O701 C720 1.268 . S
O702 Gd654 2.545 . S
O702 C710 1.250 . S
O703 Gd654 2.412 . S
O703 C713 1.252 . S
O704 Gd655 2.545 . S
O704 C722 1.258 . S
O705 Gd654 2.362 . S
O705 Gd655 2.606 . S
O705 C721 1.284 . S
O706 Gd654 2.324 . S
O706 C729 1.254 . S
O707 Gd655 2.429 . S
O707 C729 1.268 . S
O708 Gd655 2.545 . S
O708 C721 1.250 . S
O709 Gd655 2.412 . S
O709 C722 1.252 . S
C710 O699 1.284 . S
C710 O702 1.250 . S
C711 H680 0.929 . S
C711 C696 1.437 . S
C711 C712 1.317 . S
C712 H683 0.930 1_455 S
C712 C688 1.431 . S
C712 C711 1.317 . S
C713 Gd654 2.828 . S
C713 O698 1.258 . S
C713 O703 1.252 . S
C713 C714 1.497 . S
C714 C713 1.497 . S
C714 C715 1.395 . S
C714 C716 1.380 . S
C715 C714 1.395 . S
C715 C718 1.398 . S
C715 H730 0.930 . S
C716 C714 1.380 . S
C716 C717 1.391 . S
C716 H731 0.930 . S
C717 C716 1.391 . S
C717 C719 1.387 . S
C718 C715 1.398 . S
C718 C719 1.380 . S
C718 H732 0.930 . S
C719 C717 1.387 . S
C719 C718 1.380 . S
C719 H733 0.930 . S
C720 O700 1.254 . S
C720 O701 1.268 . S
C721 O705 1.284 . S
C721 O708 1.250 . S
C722 Gd655 2.828 . S
C722 O704 1.258 . S
C722 O709 1.252 . S
C722 C723 1.497 . S
C723 C722 1.497 . S
C723 C724 1.395 . S
C723 C725 1.380 . S
C724 C723 1.395 . S
C724 C727 1.398 . S
C724 H734 0.930 . S
C725 C723 1.380 . S
C725 C726 1.391 . S
C725 H735 0.930 . S
C726 C725 1.391 . S
C726 C728 1.387 . S
C727 C724 1.398 . S
C727 C728 1.380 . S
C727 H736 0.930 . S
C728 C726 1.387 . S
C728 C727 1.380 . S
C728 H737 0.930 . S
C729 O706 1.254 . S
C729 O707 1.268 . S
H730 C715 0.930 . S
H731 C716 0.930 . S
H732 C718 0.930 . S
H733 C719 0.930 . S
H734 C724 0.930 . S
H735 C725 0.930 . S
H736 C727 0.930 . S
H737 C728 0.930 . S
Gd738 N769 2.661 . S
Gd738 N775 2.601 . S
Gd738 O782 2.545 . S
Gd738 O783 2.606 . S
Gd738 O785 2.429 . S
Gd738 O786 2.545 . S
Gd738 O787 2.412 . S
Gd738 O789 2.362 . S
Gd738 O790 2.324 . S
Gd738 C797 2.828 . S
Gd739 N748 2.661 . S
Gd739 N752 2.601 . S
Gd739 O783 2.362 . S
Gd739 O784 2.324 . S
Gd739 O788 2.545 . S
Gd739 O789 2.606 . S
Gd739 O791 2.429 . S
Gd739 O792 2.545 . S
Gd739 O793 2.412 . S
Gd739 C806 2.828 . S
C740 C743 1.417 . S
C740 C745 1.431 . S
C740 C746 1.412 . S
C741 C744 1.437 . S
C741 C745 1.317 . S
C741 H760 0.929 . S
C742 C743 1.426 . S
C742 C744 1.413 . S
C742 N752 1.359 . S
C743 C740 1.417 . S
C743 C742 1.426 . S
C743 N748 1.350 . S
C744 C741 1.437 . S
C744 C742 1.413 . S
C744 C754 1.391 . S
C745 C740 1.431 . S
C745 C741 1.317 . S
C745 H756 0.930 . S
C746 C740 1.412 . S
C746 C747 1.355 . S
C746 H758 0.930 . S
C747 C746 1.355 . S
C747 C749 1.402 . S
C747 H759 0.930 . S
N748 Gd739 2.661 . S
N748 C743 1.350 . S
N748 C749 1.307 . S
C749 C747 1.402 . S
C749 N748 1.307 . S
C749 H750 0.930 . S
H750 C749 0.930 . S
C751 N752 1.334 . S
C751 C753 1.394 . S
C751 H755 0.930 . S
N752 Gd739 2.601 . S
N752 C742 1.359 . S
N752 C751 1.334 . S
C753 C751 1.394 . S
C753 C754 1.359 . S
C753 H765 0.930 . S
C754 C744 1.391 . S
C754 C753 1.359 . S
C754 H766 0.929 . S
H755 C751 0.930 . S
H756 C745 0.930 . S
H757 C774 0.930 . S
H758 C746 0.930 . S
H759 C747 0.930 . S
H760 C741 0.929 . S
H761 C779 0.930 . S
H762 C770 0.930 . S
H763 C771 0.930 1_455 S
H764 C795 0.929 . S
H765 C753 0.930 . S
H766 C754 0.929 . S
H767 C796 0.929 . S
H768 C777 0.930 . S
N769 Gd738 2.661 . S
N769 C773 1.350 . S
N769 C774 1.307 . S
C770 H762 0.930 . S
C770 C771 1.355 1_455 S
C770 C772 1.412 1_455 S
C771 H763 0.930 1_655 S
C771 C770 1.355 1_655 S
C771 C774 1.402 . S
C772 C770 1.412 1_655 S
C772 C773 1.417 . S
C772 C796 1.431 1_655 S
C773 N769 1.350 . S
C773 C772 1.417 . S
C773 C776 1.426 . S
C774 H757 0.930 . S
C774 N769 1.307 . S
C774 C771 1.402 . S
N775 Gd738 2.601 . S
N775 C776 1.359 . S
N775 C779 1.334 . S
C776 C773 1.426 . S
C776 N775 1.359 . S
C776 C780 1.413 . S
C777 H768 0.930 . S
C777 C778 1.359 . S
C777 C779 1.394 . S
C778 C777 1.359 . S
C778 C780 1.391 . S
C778 H781 0.929 . S
C779 H761 0.930 . S
C779 N775 1.334 . S
C779 C777 1.394 . S
C780 C776 1.413 . S
C780 C778 1.391 . S
C780 C795 1.437 . S
H781 C778 0.929 . S
O782 Gd738 2.545 . S
O782 C797 1.258 . S
O783 Gd738 2.606 . S
O783 Gd739 2.362 . S
O783 C794 1.284 . S
O784 Gd739 2.324 . S
O784 C804 1.254 . S
O785 Gd738 2.429 . S
O785 C804 1.268 . S
O786 Gd738 2.545 . S
O786 C794 1.250 . S
O787 Gd738 2.412 . S
O787 C797 1.252 . S
O788 Gd739 2.545 . S
O788 C806 1.258 . S
O789 Gd738 2.362 . S
O789 Gd739 2.606 . S
O789 C805 1.284 . S
O790 Gd738 2.324 . S
O790 C813 1.254 . S
O791 Gd739 2.429 . S
O791 C813 1.268 . S
O792 Gd739 2.545 . S
O792 C805 1.250 . S
O793 Gd739 2.412 . S
O793 C806 1.252 . S
C794 O783 1.284 . S
C794 O786 1.250 . S
C795 H764 0.929 . S
C795 C780 1.437 . S
C795 C796 1.319 1_655 S
C796 H767 0.929 . S
C796 C772 1.431 1_455 S
C796 C795 1.319 1_455 S
C797 Gd738 2.828 . S
C797 O782 1.258 . S
C797 O787 1.252 . S
C797 C798 1.497 . S
C798 C797 1.497 . S
C798 C799 1.395 . S
C798 C800 1.380 . S
C799 C798 1.395 . S
C799 C802 1.398 . S
C799 H814 0.930 . S
C800 C798 1.380 . S
C800 C801 1.391 . S
C800 H815 0.930 . S
C801 C800 1.391 . S
C801 C803 1.387 . S
C802 C799 1.398 . S
C802 C803 1.380 . S
C802 H816 0.930 . S
C803 C801 1.387 . S
C803 C802 1.380 . S
C803 H817 0.930 . S
C804 O784 1.254 . S
C804 O785 1.268 . S
C805 O789 1.284 . S
C805 O792 1.250 . S
C806 Gd739 2.828 . S
C806 O788 1.258 . S
C806 O793 1.252 . S
C806 C807 1.497 . S
C807 C806 1.497 . S
C807 C808 1.395 . S
C807 C809 1.380 . S
C808 C807 1.395 . S
C808 C811 1.398 . S
C808 H818 0.930 . S
C809 C807 1.380 . S
C809 C810 1.391 . S
C809 H819 0.930 . S
C810 C809 1.391 . S
C810 C812 1.387 . S
C811 C808 1.398 . S
C811 C812 1.380 . S
C811 H820 0.930 . S
C812 C810 1.387 . S
C812 C811 1.380 . S
C812 H821 0.930 . S
C813 O790 1.254 . S
C813 O791 1.268 . S
H814 C799 0.930 . S
H815 C800 0.930 . S
H816 C802 0.930 . S
H817 C803 0.930 . S
H818 C808 0.930 . S
H819 C809 0.930 . S
H820 C811 0.930 . S
H821 C812 0.930 . S
Gd822 N853 2.661 . S
Gd822 N859 2.601 . S
Gd822 O866 2.545 . S
Gd822 O867 2.606 . S
Gd822 O869 2.429 . S
Gd822 O870 2.545 . S
Gd822 O871 2.412 . S
Gd822 O873 2.362 . S
Gd822 O874 2.324 . S
Gd822 C881 2.828 . S
Gd823 N832 2.661 . S
Gd823 N836 2.601 . S
Gd823 O867 2.362 . S
Gd823 O868 2.324 . S
Gd823 O872 2.545 . S
Gd823 O873 2.606 . S
Gd823 O875 2.429 . S
Gd823 O876 2.545 . S
Gd823 O877 2.412 . S
Gd823 C890 2.828 . S
C824 C827 1.417 . S
C824 C829 1.431 . S
C824 C830 1.412 . S
C825 C828 1.437 . S
C825 C829 1.317 . S
C825 H844 0.929 . S
C826 C827 1.426 . S
C826 C828 1.413 . S
C826 N836 1.359 . S
C827 C824 1.417 . S
C827 C826 1.426 . S
C827 N832 1.350 . S
C828 C825 1.437 . S
C828 C826 1.413 . S
C828 C838 1.391 . S
C829 C824 1.431 . S
C829 C825 1.317 . S
C829 H840 0.930 . S
C830 C824 1.412 . S
C830 C831 1.355 . S
C830 H842 0.930 . S
C831 C830 1.355 . S
C831 C833 1.402 . S
C831 H843 0.930 . S
N832 Gd823 2.661 . S
N832 C827 1.350 . S
N832 C833 1.307 . S
C833 C831 1.402 . S
C833 N832 1.307 . S
C833 H834 0.930 . S
H834 C833 0.930 . S
C835 N836 1.334 . S
C835 C837 1.394 . S
C835 H839 0.930 . S
N836 Gd823 2.601 . S
N836 C826 1.359 . S
N836 C835 1.334 . S
C837 C835 1.394 . S
C837 C838 1.359 . S
C837 H849 0.930 . S
C838 C828 1.391 . S
C838 C837 1.359 . S
C838 H850 0.929 . S
H839 C835 0.930 . S
H840 C829 0.930 . S
H841 C858 0.930 . S
H842 C830 0.930 . S
H843 C831 0.930 . S
H844 C825 0.929 . S
H845 C863 0.930 . S
H846 C854 0.930 . S
H847 C855 0.930 . S
H848 C879 0.929 . S
H849 C837 0.930 . S
H850 C838 0.929 . S
H851 C880 0.930 . S
H852 C861 0.930 . S
N853 Gd822 2.661 . S
N853 C857 1.350 . S
N853 C858 1.307 . S
C854 H846 0.930 . S
C854 C855 1.355 . S
C854 C856 1.412 . S
C855 H847 0.930 . S
C855 C854 1.355 . S
C855 C858 1.402 . S
C856 C854 1.412 . S
C856 C857 1.417 . S
C856 C880 1.431 . S
C857 N853 1.350 . S
C857 C856 1.417 . S
C857 C860 1.426 . S
C858 H841 0.930 . S
C858 N853 1.307 . S
C858 C855 1.402 . S
N859 Gd822 2.601 . S
N859 C860 1.359 . S
N859 C863 1.334 . S
C860 C857 1.426 . S
C860 N859 1.359 . S
C860 C864 1.413 . S
C861 H852 0.930 . S
C861 C862 1.359 . S
C861 C863 1.394 . S
C862 C861 1.359 . S
C862 C864 1.391 . S
C862 H865 0.929 . S
C863 H845 0.930 . S
C863 N859 1.334 . S
C863 C861 1.394 . S
C864 C860 1.413 . S
C864 C862 1.391 . S
C864 C879 1.437 . S
H865 C862 0.929 . S
O866 Gd822 2.545 . S
O866 C881 1.258 . S
O867 Gd822 2.606 . S
O867 Gd823 2.362 . S
O867 C878 1.284 . S
O868 Gd823 2.324 . S
O868 C888 1.254 . S
O869 Gd822 2.429 . S
O869 C888 1.268 . S
O870 Gd822 2.545 . S
O870 C878 1.250 . S
O871 Gd822 2.412 . S
O871 C881 1.252 . S
O872 Gd823 2.545 . S
O872 C890 1.258 . S
O873 Gd822 2.362 . S
O873 Gd823 2.606 . S
O873 C889 1.284 . S
O874 Gd822 2.324 . S
O874 C897 1.254 . S
O875 Gd823 2.429 . S
O875 C897 1.268 . S
O876 Gd823 2.545 . S
O876 C889 1.250 . S
O877 Gd823 2.412 . S
O877 C890 1.252 . S
C878 O867 1.284 . S
C878 O870 1.250 . S
C879 H848 0.929 . S
C879 C864 1.437 . S
C879 C880 1.317 . S
C880 H851 0.930 . S
C880 C856 1.431 . S
C880 C879 1.317 . S
C881 Gd822 2.828 . S
C881 O866 1.258 . S
C881 O871 1.252 . S
C881 C882 1.497 . S
C882 C881 1.497 . S
C882 C883 1.395 . S
C882 C884 1.380 . S
C883 C882 1.395 . S
C883 C886 1.398 . S
C883 H898 0.930 . S
C884 C882 1.380 . S
C884 C885 1.391 . S
C884 H899 0.930 . S
C885 C884 1.391 . S
C885 C887 1.387 . S
C886 C883 1.398 . S
C886 C887 1.380 . S
C886 H900 0.930 . S
C887 C885 1.387 . S
C887 C886 1.380 . S
C887 H901 0.930 . S
C888 O868 1.254 . S
C888 O869 1.268 . S
C889 O873 1.284 . S
C889 O876 1.250 . S
C890 Gd823 2.828 . S
C890 O872 1.258 . S
C890 O877 1.252 . S
C890 C891 1.497 . S
C891 C890 1.497 . S
C891 C892 1.395 . S
C891 C893 1.380 . S
C892 C891 1.395 . S
C892 C895 1.398 . S
C892 H902 0.930 . S
C893 C891 1.380 . S
C893 C894 1.391 . S
C893 H903 0.930 . S
C894 C893 1.391 . S
C894 C896 1.387 . S
C895 C892 1.398 . S
C895 C896 1.380 . S
C895 H904 0.930 . S
C896 C894 1.387 . S
C896 C895 1.380 . S
C896 H905 0.930 . S
C897 O874 1.254 . S
C897 O875 1.268 . S
H898 C883 0.930 . S
H899 C884 0.930 . S
H900 C886 0.930 . S
H901 C887 0.930 . S
H902 C892 0.930 . S
H903 C893 0.930 . S
H904 C895 0.930 . S
H905 C896 0.930 . S
Gd906 N937 2.661 . S
Gd906 N943 2.601 . S
Gd906 O950 2.545 . S
Gd906 O951 2.606 . S
Gd906 O953 2.429 . S
Gd906 O954 2.545 . S
Gd906 O955 2.412 . S
Gd906 O957 2.362 . S
Gd906 O958 2.324 . S
Gd906 C965 2.828 . S
Gd907 N916 2.661 . S
Gd907 N920 2.601 . S
Gd907 O951 2.362 . S
Gd907 O952 2.324 . S
Gd907 O956 2.545 . S
Gd907 O957 2.606 . S
Gd907 O959 2.429 . S
Gd907 O960 2.545 . S
Gd907 O961 2.412 . S
Gd907 C974 2.828 . S
C908 C911 1.417 . S
C908 C913 1.431 . S
C908 C914 1.412 . S
C909 C912 1.437 . S
C909 C913 1.317 . S
C909 H928 0.929 . S
C910 C911 1.426 . S
C910 C912 1.413 . S
C910 N920 1.359 . S
C911 C908 1.417 . S
C911 C910 1.426 . S
C911 N916 1.350 . S
C912 C909 1.437 . S
C912 C910 1.413 . S
C912 C922 1.391 . S
C913 C908 1.431 . S
C913 C909 1.317 . S
C913 H924 0.930 . S
C914 C908 1.412 . S
C914 C915 1.355 . S
C914 H926 0.930 1_655 S
C915 C914 1.355 . S
C915 C917 1.402 . S
C915 H927 0.930 . S
N916 Gd907 2.661 . S
N916 C911 1.350 . S
N916 C917 1.307 . S
C917 C915 1.402 . S
C917 N916 1.307 . S
C917 H918 0.930 . S
H918 C917 0.930 . S
C919 N920 1.334 . S
C919 C921 1.394 . S
C919 H923 0.930 . S
N920 Gd907 2.601 . S
N920 C910 1.359 . S
N920 C919 1.334 . S
C921 C919 1.394 . S
C921 C922 1.359 . S
C921 H933 0.930 . S
C922 C912 1.391 . S
C922 C921 1.359 . S
C922 H934 0.929 . S
H923 C919 0.930 . S
H924 C913 0.930 . S
H925 C942 0.930 . S
H926 C914 0.930 1_455 S
H927 C915 0.930 . S
H928 C909 0.929 . S
H929 C947 0.930 . S
H930 C938 0.930 . S
H931 C939 0.930 . S
H932 C963 0.929 . S
H933 C921 0.930 . S
H934 C922 0.929 . S
H935 C964 0.930 . S
H936 C945 0.930 . S
N937 Gd906 2.661 . S
N937 C941 1.350 . S
N937 C942 1.307 . S
C938 H930 0.930 . S
C938 C939 1.355 . S
C938 C940 1.412 . S
C939 H931 0.930 . S
C939 C938 1.355 . S
C939 C942 1.402 . S
C940 C938 1.412 . S
C940 C941 1.417 . S
C940 C964 1.431 . S
C941 N937 1.350 . S
C941 C940 1.417 . S
C941 C944 1.426 . S
C942 H925 0.930 . S
C942 N937 1.307 . S
C942 C939 1.402 . S
N943 Gd906 2.601 . S
N943 C944 1.359 . S
N943 C947 1.334 . S
C944 C941 1.426 . S
C944 N943 1.359 . S
C944 C948 1.413 . S
C945 H936 0.930 . S
C945 C946 1.359 . S
C945 C947 1.394 . S
C946 C945 1.359 . S
C946 C948 1.391 . S
C946 H949 0.929 . S
C947 H929 0.930 . S
C947 N943 1.334 . S
C947 C945 1.394 . S
C948 C944 1.413 . S
C948 C946 1.391 . S
C948 C963 1.437 . S
H949 C946 0.929 . S
O950 Gd906 2.545 . S
O950 C965 1.258 . S
O951 Gd906 2.606 . S
O951 Gd907 2.362 . S
O951 C962 1.284 . S
O952 Gd907 2.324 . S
O952 C972 1.254 . S
O953 Gd906 2.429 . S
O953 C972 1.268 . S
O954 Gd906 2.545 . S
O954 C962 1.250 . S
O955 Gd906 2.412 . S
O955 C965 1.252 . S
O956 Gd907 2.545 . S
O956 C974 1.258 . S
O957 Gd906 2.362 . S
O957 Gd907 2.606 . S
O957 C973 1.284 . S
O958 Gd906 2.324 . S
O958 C981 1.254 . S
O959 Gd907 2.429 . S
O959 C981 1.268 . S
O960 Gd907 2.545 . S
O960 C973 1.250 . S
O961 Gd907 2.412 . S
O961 C974 1.252 . S
C962 O951 1.284 . S
C962 O954 1.250 . S
C963 H932 0.929 . S
C963 C948 1.437 . S
C963 C964 1.317 . S
C964 H935 0.930 . S
C964 C940 1.431 . S
C964 C963 1.317 . S
C965 Gd906 2.828 . S
C965 O950 1.258 . S
C965 O955 1.252 . S
C965 C966 1.497 . S
C966 C965 1.497 . S
C966 C967 1.395 . S
C966 C968 1.380 . S
C967 C966 1.395 . S
C967 C970 1.398 . S
C967 H982 0.930 . S
C968 C966 1.380 . S
C968 C969 1.391 . S
C968 H983 0.930 . S
C969 C968 1.391 . S
C969 C971 1.387 . S
C970 C967 1.398 . S
C970 C971 1.380 . S
C970 H984 0.930 . S
C971 C969 1.387 . S
C971 C970 1.380 . S
C971 H985 0.930 . S
C972 O952 1.254 . S
C972 O953 1.268 . S
C973 O957 1.284 . S
C973 O960 1.250 . S
C974 Gd907 2.828 . S
C974 O956 1.258 . S
C974 O961 1.252 . S
C974 C975 1.497 . S
C975 C974 1.497 . S
C975 C976 1.395 . S
C975 C977 1.380 . S
C976 C975 1.395 . S
C976 C979 1.398 . S
C976 H986 0.930 . S
C977 C975 1.380 . S
C977 C978 1.391 . S
C977 H987 0.930 . S
C978 C977 1.391 . S
C978 C980 1.387 . S
C979 C976 1.398 . S
C979 C980 1.380 . S
C979 H988 0.930 . S
C980 C978 1.387 . S
C980 C979 1.380 . S
C980 H989 0.930 . S
C981 O958 1.254 . S
C981 O959 1.268 . S
H982 C967 0.930 . S
H983 C968 0.930 . S
H984 C970 0.930 . S
H985 C971 0.930 . S
H986 C976 0.930 . S
H987 C977 0.930 . S
H988 C979 0.930 . S
H989 C980 0.930 . S
H990 C996 0.930 . S
H991 C999 0.930 . S
H992 C1000 0.930 . S
H993 C1001 0.930 . S
H994 C1004 0.930 . S
H995 C1005 0.930 . S
C996 H990 0.930 . S
C996 C997 1.355 . S
C996 C998 1.415 . S
C997 C996 1.355 . S
C997 C999 1.419 . S
C998 C996 1.415 . S
C998 C1003 1.425 . S
C998 C1005 1.409 . S
C999 H991 0.930 . S
C999 C997 1.419 . S
C999 C1000 1.362 . S
C1000 H992 0.930 . S
C1000 C999 1.362 . S
C1000 C1003 1.409 . S
C1001 H993 0.930 . S
C1001 C1002 1.355 . S
C1001 C1003 1.415 . S
C1002 C1001 1.355 . S
C1002 C1004 1.419 . S
C1003 C998 1.425 . S
C1003 C1000 1.409 . S
C1003 C1001 1.415 . S
C1004 H994 0.930 . S
C1004 C1002 1.419 . S
C1004 C1005 1.362 . S
C1005 H995 0.930 . S
C1005 C998 1.409 . S
C1005 C1004 1.362 . S
H1006 C1012 0.930 . S
H1007 C1015 0.930 . S
H1008 C1016 0.930 . S
H1009 C1017 0.930 . S
H1010 C1020 0.930 . S
H1011 C1021 0.930 . S
C1012 H1006 0.930 . S
C1012 C1013 1.355 . S
C1012 C1014 1.415 . S
C1013 C1012 1.355 . S
C1013 C1015 1.419 . S
C1014 C1012 1.415 . S
C1014 C1019 1.425 . S
C1014 C1021 1.409 . S
C1015 H1007 0.930 . S
C1015 C1013 1.419 . S
C1015 C1016 1.362 . S
C1016 H1008 0.930 . S
C1016 C1015 1.362 . S
C1016 C1019 1.409 . S
C1017 H1009 0.930 . S
C1017 C1018 1.355 . S
C1017 C1019 1.415 . S
C1018 C1017 1.355 . S
C1018 C1020 1.419 . S
C1019 C1014 1.425 . S
C1019 C1016 1.409 . S
C1019 C1017 1.415 . S
C1020 H1010 0.930 . S
C1020 C1018 1.419 . S
C1020 C1021 1.362 . S
C1021 H1011 0.930 . S
C1021 C1014 1.409 . S
C1021 C1020 1.362 . S
H1022 C1028 0.930 . S
H1023 C1031 0.930 . S
H1024 C1032 0.930 . S
H1025 C1033 0.930 . S
H1026 C1036 0.930 . S
H1027 C1037 0.930 . S
C1028 H1022 0.930 . S
C1028 C1029 1.355 . S
C1028 C1030 1.415 . S
C1029 C1028 1.355 . S
C1029 C1031 1.419 . S
C1030 C1028 1.415 . S
C1030 C1035 1.425 . S
C1030 C1037 1.409 . S
C1031 H1023 0.930 . S
C1031 C1029 1.419 . S
C1031 C1032 1.362 . S
C1032 H1024 0.930 . S
C1032 C1031 1.362 . S
C1032 C1035 1.409 . S
C1033 H1025 0.930 . S
C1033 C1034 1.355 . S
C1033 C1035 1.415 . S
C1034 C1033 1.355 . S
C1034 C1036 1.419 . S
C1035 C1030 1.425 . S
C1035 C1032 1.409 . S
C1035 C1033 1.415 . S
C1036 H1026 0.930 . S
C1036 C1034 1.419 . S
C1036 C1037 1.362 . S
C1037 H1027 0.930 . S
C1037 C1030 1.409 . S
C1037 C1036 1.362 . S
H1038 C1044 0.930 . S
H1039 C1047 0.930 . S
H1040 C1048 0.930 . S
H1041 C1049 0.930 . S
H1042 C1052 0.933 . S
H1043 C1053 0.928 1_554 S
C1044 H1038 0.930 . S
C1044 C1045 1.355 . S
C1044 C1046 1.415 . S
C1045 C1044 1.355 . S
C1045 C1047 1.419 . S
C1046 C1044 1.415 . S
C1046 C1051 1.425 . S
C1046 C1053 1.409 . S
C1047 H1039 0.930 . S
C1047 C1045 1.419 . S
C1047 C1048 1.362 . S
C1048 H1040 0.930 . S
C1048 C1047 1.362 . S
C1048 C1051 1.409 . S
C1049 H1041 0.930 . S
C1049 C1050 1.355 . S
C1049 C1051 1.415 . S
C1050 C1049 1.355 . S
C1050 C1052 1.418 1_556 S
C1051 C1046 1.425 . S
C1051 C1048 1.409 . S
C1051 C1049 1.415 . S
C1052 H1042 0.933 . S
C1052 C1050 1.418 1_554 S
C1052 C1053 1.360 1_554 S
C1053 H1043 0.928 1_556 S
C1053 C1046 1.409 . S
C1053 C1052 1.360 1_556 S
H1054 C1060 0.930 . S
H1055 C1063 0.930 1_554 S
H1056 C1064 0.930 . S
H1057 C1065 0.930 . S
H1058 C1068 0.930 . S
H1059 C1069 0.930 . S
C1060 H1054 0.930 . S
C1060 C1061 1.355 . S
C1060 C1062 1.415 . S
C1061 C1060 1.355 . S
C1061 C1063 1.419 . S
C1062 C1060 1.415 . S
C1062 C1067 1.425 1_556 S
C1062 C1069 1.409 . S
C1063 H1055 0.930 1_556 S
C1063 C1061 1.419 . S
C1063 C1064 1.362 1_556 S
C1064 H1056 0.930 . S
C1064 C1063 1.362 1_554 S
C1064 C1067 1.409 . S
C1065 H1057 0.930 . S
C1065 C1066 1.355 . S
C1065 C1067 1.415 . S
C1066 C1065 1.355 . S
C1066 C1068 1.419 1_554 S
C1067 C1062 1.425 1_554 S
C1067 C1064 1.409 . S
C1067 C1065 1.415 . S
C1068 H1058 0.930 . S
C1068 C1066 1.419 1_556 S
C1068 C1069 1.362 . S
C1069 H1059 0.930 . S
C1069 C1062 1.409 . S
C1069 C1068 1.362 . S
H1070 C1076 0.930 . S
H1071 C1079 0.930 . S
H1072 C1080 0.919 1_554 S
H1073 C1081 0.930 . S
H1074 C1084 0.930 . S
H1075 C1085 0.930 . S
C1076 H1070 0.930 . S
C1076 C1077 1.355 . S
C1076 C1078 1.415 . S
C1077 C1076 1.355 . S
C1077 C1079 1.419 . S
C1078 C1076 1.415 . S
C1078 C1083 1.425 . S
C1078 C1085 1.409 . S
C1079 H1071 0.930 . S
C1079 C1077 1.419 . S
C1079 C1080 1.362 . S
C1080 H1072 0.919 1_556 S
C1080 C1079 1.362 . S
C1080 C1083 1.409 . S
C1081 H1073 0.930 . S
C1081 C1082 1.355 1_554 S
C1081 C1083 1.415 1_554 S
C1082 C1081 1.355 1_556 S
C1082 C1084 1.419 . S
C1083 C1078 1.425 . S
C1083 C1080 1.409 . S
C1083 C1081 1.415 1_556 S
C1084 H1074 0.930 . S
C1084 C1082 1.419 . S
C1084 C1085 1.362 . S
C1085 H1075 0.930 . S
C1085 C1078 1.409 . S
C1085 C1084 1.362 . S
H1086 C1092 0.930 . S
H1087 C1095 0.930 1_554 S
H1088 C1096 0.930 . S
H1089 C1097 0.930 . S
H1090 C1100 0.930 . S
H1091 C1101 0.930 . S
C1092 H1086 0.930 . S
C1092 C1093 1.355 . S
C1092 C1094 1.415 . S
C1093 C1092 1.355 . S
C1093 C1095 1.419 . S
C1094 C1092 1.415 . S
C1094 C1099 1.425 . S
C1094 C1101 1.409 . S
C1095 H1087 0.930 1_556 S
C1095 C1093 1.419 . S
C1095 C1096 1.362 1_556 S
C1096 H1088 0.930 . S
C1096 C1095 1.362 1_554 S
C1096 C1099 1.409 1_554 S
C1097 H1089 0.930 . S
C1097 C1098 1.355 1_554 S
C1097 C1099 1.415 1_554 S
C1098 C1097 1.355 1_556 S
C1098 C1100 1.419 . S
C1099 C1094 1.425 . S
C1099 C1096 1.409 1_556 S
C1099 C1097 1.415 1_556 S
C1100 H1090 0.930 . S
C1100 C1098 1.419 . S
C1100 C1101 1.362 . S
C1101 H1091 0.930 . S
C1101 C1094 1.409 . S
C1101 C1100 1.362 . S
H1102 C1108 0.930 . S
H1103 C1111 0.930 . S
H1104 C1112 0.930 1_554 S
H1105 C1113 0.930 1_554 S
H1106 C1116 0.930 . S
H1107 C1117 0.930 . S
C1108 H1102 0.930 . S
C1108 C1109 1.355 . S
C1108 C1110 1.415 . S
C1109 C1108 1.355 . S
C1109 C1111 1.419 . S
C1110 C1108 1.415 . S
C1110 C1115 1.425 . S
C1110 C1117 1.409 . S
C1111 H1103 0.930 . S
C1111 C1109 1.419 . S
C1111 C1112 1.362 . S
C1112 H1104 0.930 1_556 S
C1112 C1111 1.362 . S
C1112 C1115 1.409 . S
C1113 H1105 0.930 1_556 S
C1113 C1114 1.355 . S
C1113 C1115 1.415 . S
C1114 C1113 1.355 . S
C1114 C1116 1.419 . S
C1115 C1110 1.425 . S
C1115 C1112 1.409 . S
C1115 C1113 1.415 . S
C1116 H1106 0.930 . S
C1116 C1114 1.419 . S
C1116 C1117 1.362 . S
C1117 H1107 0.930 . S
C1117 C1110 1.409 . S
C1117 C1116 1.362 . S
H1118 C1124 0.930 . S
H1119 C1127 0.930 . S
H1120 C1128 0.930 . S
H1121 C1129 0.930 . S
H1122 C1132 0.930 . S
H1123 C1133 0.930 . S
C1124 H1118 0.930 . S
C1124 C1125 1.355 . S
C1124 C1126 1.415 . S
C1125 C1124 1.355 . S
C1125 C1127 1.419 1_556 S
C1126 C1124 1.415 . S
C1126 C1131 1.425 1_556 S
C1126 C1133 1.409 . S
C1127 H1119 0.930 . S
C1127 C1125 1.419 1_554 S
C1127 C1128 1.362 . S
C1128 H1120 0.930 . S
C1128 C1127 1.362 . S
C1128 C1131 1.409 . S
C1129 H1121 0.930 . S
C1129 C1130 1.355 . S
C1129 C1131 1.415 . S
C1130 C1129 1.355 . S
C1130 C1132 1.419 1_554 S
C1131 C1126 1.425 1_554 S
C1131 C1128 1.409 . S
C1131 C1129 1.415 . S
C1132 H1122 0.930 . S
C1132 C1130 1.419 1_556 S
C1132 C1133 1.362 . S
C1133 H1123 0.930 . S
C1133 C1126 1.409 . S
C1133 C1132 1.362 . S
H1134 C1140 0.930 . S
H1135 C1143 0.930 . S
H1136 C1144 0.930 . S
H1137 C1145 0.930 . S
H1138 C1148 0.930 . S
H1139 C1149 0.930 . S
C1140 H1134 0.930 . S
C1140 C1141 1.355 . S
C1140 C1142 1.415 . S
C1141 C1140 1.355 . S
C1141 C1143 1.419 . S
C1142 C1140 1.415 . S
C1142 C1147 1.425 . S
C1142 C1149 1.409 . S
C1143 H1135 0.930 . S
C1143 C1141 1.419 . S
C1143 C1144 1.362 . S
C1144 H1136 0.930 . S
C1144 C1143 1.362 . S
C1144 C1147 1.409 . S
C1145 H1137 0.930 . S
C1145 C1146 1.355 . S
C1145 C1147 1.415 . S
C1146 C1145 1.355 . S
C1146 C1148 1.419 . S
C1147 C1142 1.425 . S
C1147 C1144 1.409 . S
C1147 C1145 1.415 . S
C1148 H1138 0.930 . S
C1148 C1146 1.419 . S
C1148 C1149 1.362 . S
C1149 H1139 0.930 . S
C1149 C1142 1.409 . S
C1149 C1148 1.362 . S
H1150 C1156 0.930 . S
H1151 C1159 0.930 . S
H1152 C1160 0.930 . S
H1153 C1161 0.930 . S
H1154 C1164 0.930 . S
H1155 C1165 0.930 . S
C1156 H1150 0.930 . S
C1156 C1157 1.355 . S
C1156 C1158 1.415 . S
C1157 C1156 1.355 . S
C1157 C1159 1.419 . S
C1158 C1156 1.415 . S
C1158 C1163 1.425 . S
C1158 C1165 1.409 . S
C1159 H1151 0.930 . S
C1159 C1157 1.419 . S
C1159 C1160 1.362 . S
C1160 H1152 0.930 . S
C1160 C1159 1.362 . S
C1160 C1163 1.409 . S
C1161 H1153 0.930 . S
C1161 C1162 1.355 . S
C1161 C1163 1.415 . S
C1162 C1161 1.355 . S
C1162 C1164 1.419 . S
C1163 C1158 1.425 . S
C1163 C1160 1.409 . S
C1163 C1161 1.415 . S
C1164 H1154 0.930 . S
C1164 C1162 1.419 . S
C1164 C1165 1.362 . S
C1165 H1155 0.930 . S
C1165 C1158 1.409 . S
C1165 C1164 1.362 . S
H1166 C1172 0.930 . S
H1167 C1175 0.930 . S
H1168 C1176 0.930 . S
H1169 C1177 0.930 . S
H1170 C1180 0.930 . S
H1171 C1181 0.930 . S
C1172 H1166 0.930 . S
C1172 C1173 1.355 . S
C1172 C1174 1.415 . S
C1173 C1172 1.355 . S
C1173 C1175 1.419 . S
C1174 C1172 1.415 . S
C1174 C1179 1.425 . S
C1174 C1181 1.409 . S
C1175 H1167 0.930 . S
C1175 C1173 1.419 . S
C1175 C1176 1.362 . S
C1176 H1168 0.930 . S
C1176 C1175 1.362 . S
C1176 C1179 1.409 . S
C1177 H1169 0.930 . S
C1177 C1178 1.355 . S
C1177 C1179 1.415 . S
C1178 C1177 1.355 . S
C1178 C1180 1.419 . S
C1179 C1174 1.425 . S
C1179 C1176 1.409 . S
C1179 C1177 1.415 . S
C1180 H1170 0.930 . S
C1180 C1178 1.419 . S
C1180 C1181 1.362 . S
C1181 H1171 0.930 . S
C1181 C1174 1.409 . S
C1181 C1180 1.362 . S
H1182 C1188 0.930 . S
H1183 C1191 0.930 . S
H1184 C1192 0.930 . S
H1185 C1193 0.930 . S
H1186 C1196 0.930 . S
H1187 C1197 0.930 . S
C1188 H1182 0.930 . S
C1188 C1189 1.355 . S
C1188 C1190 1.415 1_655 S
C1189 C1188 1.355 . S
C1189 C1191 1.419 . S
C1190 C1188 1.415 1_455 S
C1190 C1195 1.425 . S
C1190 C1197 1.409 . S
C1191 H1183 0.930 . S
C1191 C1189 1.419 . S
C1191 C1192 1.362 1_655 S
C1192 H1184 0.930 . S
C1192 C1191 1.362 1_455 S
C1192 C1195 1.409 . S
C1193 H1185 0.930 . S
C1193 C1194 1.355 . S
C1193 C1195 1.415 . S
C1194 C1193 1.355 . S
C1194 C1196 1.419 . S
C1195 C1190 1.425 . S
C1195 C1192 1.409 . S
C1195 C1193 1.415 . S
C1196 H1186 0.930 . S
C1196 C1194 1.419 . S
C1196 C1197 1.362 . S
C1197 H1187 0.930 . S
C1197 C1190 1.409 . S
C1197 C1196 1.362 . S
H1198 C1204 0.930 . S
H1199 C1207 0.930 . S
H1200 C1208 0.930 . S
H1201 C1209 0.930 . S
H1202 C1212 0.930 . S
H1203 C1213 0.930 . S
C1204 H1198 0.930 . S
C1204 C1205 1.355 . S
C1204 C1206 1.415 . S
C1205 C1204 1.355 . S
C1205 C1207 1.419 . S
C1206 C1204 1.415 . S
C1206 C1211 1.425 . S
C1206 C1213 1.409 . S
C1207 H1199 0.930 . S
C1207 C1205 1.419 . S
C1207 C1208 1.362 . S
C1208 H1200 0.930 . S
C1208 C1207 1.362 . S
C1208 C1211 1.409 . S
C1209 H1201 0.930 . S
C1209 C1210 1.355 . S
C1209 C1211 1.415 . S
C1210 C1209 1.355 . S
C1210 C1212 1.419 . S
C1211 C1206 1.425 . S
C1211 C1208 1.409 . S
C1211 C1209 1.415 . S
C1212 H1202 0.930 . S
C1212 C1210 1.419 . S
C1212 C1213 1.362 . S
C1213 H1203 0.930 . S
C1213 C1206 1.409 . S
C1213 C1212 1.362 . S
H1214 C1220 0.930 . S
H1215 C1223 0.930 . S
H1216 C1224 0.930 . S
H1217 C1225 0.930 . S
H1218 C1228 0.930 . S
H1219 C1229 0.930 . S
C1220 H1214 0.930 . S
C1220 C1221 1.355 . S
C1220 C1222 1.415 1_545 S
C1221 C1220 1.355 . S
C1221 C1223 1.419 . S
C1222 C1220 1.415 1_565 S
C1222 C1227 1.425 . S
C1222 C1229 1.409 . S
C1223 H1215 0.930 . S
C1223 C1221 1.419 . S
C1223 C1224 1.362 . S
C1224 H1216 0.930 . S
C1224 C1223 1.362 . S
C1224 C1227 1.409 1_545 S
C1225 H1217 0.930 . S
C1225 C1226 1.355 . S
C1225 C1227 1.415 . S
C1226 C1225 1.355 . S
C1226 C1228 1.419 . S
C1227 C1222 1.425 . S
C1227 C1224 1.409 1_565 S
C1227 C1225 1.415 . S
C1228 H1218 0.930 . S
C1228 C1226 1.419 . S
C1228 C1229 1.362 . S
C1229 H1219 0.930 . S
C1229 C1222 1.409 . S
C1229 C1228 1.362 . S
H1230 C1236 0.930 . S
H1231 C1239 0.930 . S
H1232 C1240 0.930 . S
H1233 C1241 0.930 . S
H1234 C1244 0.930 . S
H1235 C1245 0.930 . S
C1236 H1230 0.930 . S
C1236 C1237 1.355 . S
C1236 C1238 1.415 . S
C1237 C1236 1.355 . S
C1237 C1239 1.419 . S
C1238 C1236 1.415 . S
C1238 C1243 1.425 . S
C1238 C1245 1.409 . S
C1239 H1231 0.930 . S
C1239 C1237 1.419 . S
C1239 C1240 1.362 . S
C1240 H1232 0.930 . S
C1240 C1239 1.362 . S
C1240 C1243 1.409 . S
C1241 H1233 0.930 . S
C1241 C1242 1.355 . S
C1241 C1243 1.415 . S
C1242 C1241 1.355 . S
C1242 C1244 1.419 . S
C1243 C1238 1.425 . S
C1243 C1240 1.409 . S
C1243 C1241 1.415 . S
C1244 H1234 0.930 . S
C1244 C1242 1.419 . S
C1244 C1245 1.362 . S
C1245 H1235 0.930 . S
C1245 C1238 1.409 . S
C1245 C1244 1.362 . S
H1246 C1252 0.930 . S
H1247 C1255 0.930 . S
H1248 C1256 0.930 . S
H1249 C1257 0.930 . S
H1250 C1260 0.930 . S
H1251 C1261 0.930 . S
C1252 H1246 0.930 . S
C1252 C1253 1.355 . S
C1252 C1254 1.415 . S
C1253 C1252 1.355 . S
C1253 C1255 1.419 . S
C1254 C1252 1.415 . S
C1254 C1259 1.425 . S
C1254 C1261 1.409 . S
C1255 H1247 0.930 . S
C1255 C1253 1.419 . S
C1255 C1256 1.362 . S
C1256 H1248 0.930 . S
C1256 C1255 1.362 . S
C1256 C1259 1.409 . S
C1257 H1249 0.930 . S
C1257 C1258 1.355 . S
C1257 C1259 1.415 . S
C1258 C1257 1.355 . S
C1258 C1260 1.419 . S
C1259 C1254 1.425 . S
C1259 C1256 1.409 . S
C1259 C1257 1.415 . S
C1260 H1250 0.930 . S
C1260 C1258 1.419 . S
C1260 C1261 1.362 . S
C1261 H1251 0.930 . S
C1261 C1254 1.409 . S
C1261 C1260 1.362 . S
H1262 C1268 0.930 . S
H1263 C1271 0.930 . S
H1264 C1272 0.930 . S
H1265 C1273 0.930 . S
H1266 C1276 0.930 . S
H1267 C1277 0.930 . S
C1268 H1262 0.930 . S
C1268 C1269 1.355 . S
C1268 C1270 1.415 . S
C1269 C1268 1.355 . S
C1269 C1271 1.419 . S
C1270 C1268 1.415 . S
C1270 C1275 1.425 . S
C1270 C1277 1.409 . S
C1271 H1263 0.930 . S
C1271 C1269 1.419 . S
C1271 C1272 1.362 . S
C1272 H1264 0.930 . S
C1272 C1271 1.362 . S
C1272 C1275 1.409 . S
C1273 H1265 0.930 . S
C1273 C1274 1.355 . S
C1273 C1275 1.415 . S
C1274 C1273 1.355 . S
C1274 C1276 1.419 . S
C1275 C1270 1.425 . S
C1275 C1272 1.409 . S
C1275 C1273 1.415 . S
C1276 H1266 0.930 . S
C1276 C1274 1.419 . S
C1276 C1277 1.362 . S
C1277 H1267 0.930 . S
C1277 C1270 1.409 . S
C1277 C1276 1.362 . S
H1278 C1284 0.930 . S
H1279 C1287 0.930 . S
H1280 C1288 0.930 . S
H1281 C1289 0.930 . S
H1282 C1292 0.930 . S
H1283 C1293 0.930 . S
C1284 H1278 0.930 . S
C1284 C1285 1.355 . S
C1284 C1286 1.415 . S
C1285 C1284 1.355 . S
C1285 C1287 1.419 . S
C1286 C1284 1.415 . S
C1286 C1291 1.425 . S
C1286 C1293 1.409 . S
C1287 H1279 0.930 . S
C1287 C1285 1.419 . S
C1287 C1288 1.362 . S
C1288 H1280 0.930 . S
C1288 C1287 1.362 . S
C1288 C1291 1.409 . S
C1289 H1281 0.930 . S
C1289 C1290 1.355 . S
C1289 C1291 1.415 . S
C1290 C1289 1.355 . S
C1290 C1292 1.419 . S
C1291 C1286 1.425 . S
C1291 C1288 1.409 . S
C1291 C1289 1.415 . S
C1292 H1282 0.930 . S
C1292 C1290 1.419 . S
C1292 C1293 1.362 . S
C1293 H1283 0.930 . S
C1293 C1286 1.409 . S
C1293 C1292 1.362 . S
H1294 C1300 0.930 . S
H1295 C1303 0.930 . S
H1296 C1304 0.930 . S
H1297 C1305 0.930 . S
H1298 C1308 0.930 . S
H1299 C1309 0.930 . S
C1300 H1294 0.930 . S
C1300 C1301 1.355 . S
C1300 C1302 1.415 . S
C1301 C1300 1.355 . S
C1301 C1303 1.419 . S
C1302 C1300 1.415 . S
C1302 C1307 1.425 . S
C1302 C1309 1.409 . S
C1303 H1295 0.930 . S
C1303 C1301 1.419 . S
C1303 C1304 1.362 . S
C1304 H1296 0.930 . S
C1304 C1303 1.362 . S
C1304 C1307 1.409 . S
C1305 H1297 0.930 . S
C1305 C1306 1.355 . S
C1305 C1307 1.415 . S
C1306 C1305 1.355 . S
C1306 C1308 1.419 . S
C1307 C1302 1.425 . S
C1307 C1304 1.409 . S
C1307 C1305 1.415 . S
C1308 H1298 0.930 . S
C1308 C1306 1.419 . S
C1308 C1309 1.362 . S
C1309 H1299 0.930 . S
C1309 C1302 1.409 . S
C1309 C1308 1.362 . S
H1310 C1316 0.930 . S
H1311 C1319 0.930 . S
H1312 C1320 0.930 . S
H1313 C1321 0.930 . S
H1314 C1324 0.930 . S
H1315 C1325 0.930 . S
C1316 H1310 0.930 . S
C1316 C1317 1.355 . S
C1316 C1318 1.415 . S
C1317 C1316 1.355 . S
C1317 C1319 1.419 . S
C1318 C1316 1.415 . S
C1318 C1323 1.425 . S
C1318 C1325 1.409 . S
C1319 H1311 0.930 . S
C1319 C1317 1.419 . S
C1319 C1320 1.362 . S
C1320 H1312 0.930 . S
C1320 C1319 1.362 . S
C1320 C1323 1.409 . S
C1321 H1313 0.930 . S
C1321 C1322 1.355 . S
C1321 C1323 1.415 . S
C1322 C1321 1.355 . S
C1322 C1324 1.419 . S
C1323 C1318 1.425 . S
C1323 C1320 1.409 . S
C1323 C1321 1.415 . S
C1324 H1314 0.930 . S
C1324 C1322 1.419 . S
C1324 C1325 1.362 . S
C1325 H1315 0.930 . S
C1325 C1318 1.409 . S
C1325 C1324 1.362 . S
H1326 C1332 0.930 . S
H1327 C1335 0.930 . S
H1328 C1336 0.930 . S
H1329 C1337 0.930 . S
H1330 C1340 0.930 . S
H1331 C1341 0.930 . S
C1332 H1326 0.930 . S
C1332 C1333 1.355 . S
C1332 C1334 1.415 1_545 S
C1333 C1332 1.355 . S
C1333 C1335 1.419 . S
C1334 C1332 1.415 1_565 S
C1334 C1339 1.425 1_565 S
C1334 C1341 1.409 . S
C1335 H1327 0.930 . S
C1335 C1333 1.419 . S
C1335 C1336 1.362 . S
C1336 H1328 0.930 . S
C1336 C1335 1.362 . S
C1336 C1339 1.409 . S
C1337 H1329 0.930 . S
C1337 C1338 1.355 . S
C1337 C1339 1.415 1_565 S
C1338 C1337 1.355 . S
C1338 C1340 1.419 . S
C1339 C1334 1.425 1_545 S
C1339 C1336 1.409 . S
C1339 C1337 1.415 1_545 S
C1340 H1330 0.930 . S
C1340 C1338 1.419 . S
C1340 C1341 1.362 . S
C1341 H1331 0.930 . S
C1341 C1334 1.409 . S
C1341 C1340 1.362 . S
H1342 C1348 0.930 . S
H1343 C1351 0.930 . S
H1344 C1352 0.930 . S
H1345 C1353 0.930 . S
H1346 C1356 0.930 . S
H1347 C1357 0.930 . S
C1348 H1342 0.930 . S
C1348 C1349 1.355 1_455 S
C1348 C1350 1.415 . S
C1349 C1348 1.355 1_655 S
C1349 C1351 1.419 . S
C1350 C1348 1.415 . S
C1350 C1355 1.425 . S
C1350 C1357 1.409 . S
C1351 H1343 0.930 . S
C1351 C1349 1.419 . S
C1351 C1352 1.362 . S
C1352 H1344 0.930 . S
C1352 C1351 1.362 . S
C1352 C1355 1.409 1_655 S
C1353 H1345 0.930 . S
C1353 C1354 1.355 . S
C1353 C1355 1.415 . S
C1354 C1353 1.355 . S
C1354 C1356 1.419 . S
C1355 C1350 1.425 . S
C1355 C1352 1.409 1_455 S
C1355 C1353 1.415 . S
C1356 H1346 0.930 . S
C1356 C1354 1.419 . S
C1356 C1357 1.362 . S
C1357 H1347 0.930 . S
C1357 C1350 1.409 . S
C1357 C1356 1.362 . S
H1358 C1364 0.930 . S
H1359 C1367 0.930 . S
H1360 C1368 0.930 . S
H1361 C1369 0.930 . S
H1362 C1372 0.930 . S
H1363 C1373 0.930 . S
C1364 H1358 0.930 . S
C1364 C1365 1.355 . S
C1364 C1366 1.415 . S
C1365 C1364 1.355 . S
C1365 C1367 1.419 . S
C1366 C1364 1.415 . S
C1366 C1371 1.425 . S
C1366 C1373 1.409 . S
C1367 H1359 0.930 . S
C1367 C1365 1.419 . S
C1367 C1368 1.362 . S
C1368 H1360 0.930 . S
C1368 C1367 1.362 . S
C1368 C1371 1.409 . S
C1369 H1361 0.930 . S
C1369 C1370 1.355 . S
C1369 C1371 1.415 . S
C1370 C1369 1.355 . S
C1370 C1372 1.419 . S
C1371 C1366 1.425 . S
C1371 C1368 1.409 . S
C1371 C1369 1.415 . S
C1372 H1362 0.930 . S
C1372 C1370 1.419 . S
C1372 C1373 1.362 . S
C1373 H1363 0.930 . S
C1373 C1366 1.409 . S
C1373 C1372 1.362 . S
H1374 C1380 0.930 . S
H1375 C1383 0.930 . S
H1376 C1384 0.930 . S
H1377 C1385 0.930 . S
H1378 C1388 0.930 . S
H1379 C1389 0.930 . S
C1380 H1374 0.930 . S
C1380 C1381 1.355 . S
C1380 C1382 1.415 . S
C1381 C1380 1.355 . S
C1381 C1383 1.419 . S
C1382 C1380 1.415 . S
C1382 C1387 1.425 . S
C1382 C1389 1.409 . S
C1383 H1375 0.930 . S
C1383 C1381 1.419 . S
C1383 C1384 1.362 . S
C1384 H1376 0.930 . S
C1384 C1383 1.362 . S
C1384 C1387 1.409 . S
C1385 H1377 0.930 . S
C1385 C1386 1.355 . S
C1385 C1387 1.415 . S
C1386 C1385 1.355 . S
C1386 C1388 1.419 . S
C1387 C1382 1.425 . S
C1387 C1384 1.409 . S
C1387 C1385 1.415 . S
C1388 H1378 0.930 . S
C1388 C1386 1.419 . S
C1388 C1389 1.362 . S
C1389 H1379 0.930 . S
C1389 C1382 1.409 . S
C1389 C1388 1.362 . S
H1390 C1396 0.930 . S
H1391 C1399 0.930 . S
H1392 C1400 0.930 . S
H1393 C1401 0.930 . S
H1394 C1404 0.930 . S
H1395 C1405 0.930 . S
C1396 H1390 0.930 . S
C1396 C1397 1.355 . S
C1396 C1398 1.415 . S
C1397 C1396 1.355 . S
C1397 C1399 1.419 . S
C1398 C1396 1.415 . S
C1398 C1403 1.425 . S
C1398 C1405 1.409 . S
C1399 H1391 0.930 . S
C1399 C1397 1.419 . S
C1399 C1400 1.362 . S
C1400 H1392 0.930 . S
C1400 C1399 1.362 . S
C1400 C1403 1.409 . S
C1401 H1393 0.930 . S
C1401 C1402 1.355 . S
C1401 C1403 1.415 . S
C1402 C1401 1.355 . S
C1402 C1404 1.419 . S
C1403 C1398 1.425 . S
C1403 C1400 1.409 . S
C1403 C1401 1.415 . S
C1404 H1394 0.930 . S
C1404 C1402 1.419 . S
C1404 C1405 1.362 . S
C1405 H1395 0.930 . S
C1405 C1398 1.409 . S
C1405 C1404 1.362 . S
H1406 C1412 0.930 . S
H1407 C1415 0.930 . S
H1408 C1416 0.930 . S
H1409 C1417 0.930 . S
H1410 C1420 0.930 . S
H1411 C1421 0.930 . S
C1412 H1406 0.930 . S
C1412 C1413 1.355 . S
C1412 C1414 1.415 . S
C1413 C1412 1.355 . S
C1413 C1415 1.419 . S
C1414 C1412 1.415 . S
C1414 C1419 1.425 . S
C1414 C1421 1.409 . S
C1415 H1407 0.930 . S
C1415 C1413 1.419 . S
C1415 C1416 1.362 . S
C1416 H1408 0.930 . S
C1416 C1415 1.362 . S
C1416 C1419 1.409 . S
C1417 H1409 0.930 . S
C1417 C1418 1.355 . S
C1417 C1419 1.415 . S
C1418 C1417 1.355 . S
C1418 C1420 1.419 . S
C1419 C1414 1.425 . S
C1419 C1416 1.409 . S
C1419 C1417 1.415 . S
C1420 H1410 0.930 . S
C1420 C1418 1.419 . S
C1420 C1421 1.362 . S
C1421 H1411 0.930 . S
C1421 C1414 1.409 . S
C1421 C1420 1.362 . S
H1422 C1428 0.930 . S
H1423 C1431 0.930 . S
H1424 C1432 0.930 . S
H1425 C1433 0.930 . S
H1426 C1436 0.930 . S
H1427 C1437 0.930 . S
C1428 H1422 0.930 . S
C1428 C1429 1.355 . S
C1428 C1430 1.415 1_565 S
C1429 C1428 1.355 . S
C1429 C1431 1.419 . S
C1430 C1428 1.415 1_545 S
C1430 C1435 1.425 . S
C1430 C1437 1.409 . S
C1431 H1423 0.930 . S
C1431 C1429 1.419 . S
C1431 C1432 1.362 1_565 S
C1432 H1424 0.930 . S
C1432 C1431 1.362 1_545 S
C1432 C1435 1.409 . S
C1433 H1425 0.930 . S
C1433 C1434 1.355 . S
C1433 C1435 1.415 . S
C1434 C1433 1.355 . S
C1434 C1436 1.419 . S
C1435 C1430 1.425 . S
C1435 C1432 1.409 . S
C1435 C1433 1.415 . S
C1436 H1426 0.930 . S
C1436 C1434 1.419 . S
C1436 C1437 1.362 . S
C1437 H1427 0.930 . S
C1437 C1430 1.409 . S
C1437 C1436 1.362 . S
H1438 C1444 0.930 . S
H1439 C1447 0.930 . S
H1440 C1448 0.930 . S
H1441 C1449 0.930 . S
H1442 C1452 0.930 . S
H1443 C1453 0.930 . S
C1444 H1438 0.930 . S
C1444 C1445 1.355 1_655 S
C1444 C1446 1.415 . S
C1445 C1444 1.355 1_455 S
C1445 C1447 1.419 . S
C1446 C1444 1.415 . S
C1446 C1451 1.425 . S
C1446 C1453 1.409 . S
C1447 H1439 0.930 . S
C1447 C1445 1.419 . S
C1447 C1448 1.366 . S
C1448 H1440 0.930 . S
C1448 C1447 1.366 . S
C1448 C1451 1.405 1_455 S
C1449 H1441 0.930 . S
C1449 C1450 1.355 . S
C1449 C1451 1.415 . S
C1450 C1449 1.355 . S
C1450 C1452 1.419 . S
C1451 C1446 1.425 . S
C1451 C1448 1.405 1_655 S
C1451 C1449 1.415 . S
C1452 H1442 0.930 . S
C1452 C1450 1.419 . S
C1452 C1453 1.362 . S
C1453 H1443 0.930 . S
C1453 C1446 1.409 . S
C1453 C1452 1.362 . S
H1454 C1460 0.930 . S
H1455 C1463 0.930 . S
H1456 C1464 0.930 . S
H1457 C1465 0.930 . S
H1458 C1468 0.930 . S
H1459 C1469 0.930 . S
C1460 H1454 0.930 . S
C1460 C1461 1.355 . S
C1460 C1462 1.415 . S
C1461 C1460 1.355 . S
C1461 C1463 1.419 . S
C1462 C1460 1.415 . S
C1462 C1467 1.425 . S
C1462 C1469 1.409 . S
C1463 H1455 0.930 . S
C1463 C1461 1.419 . S
C1463 C1464 1.362 . S
C1464 H1456 0.930 . S
C1464 C1463 1.362 . S
C1464 C1467 1.409 . S
C1465 H1457 0.930 . S
C1465 C1466 1.355 . S
C1465 C1467 1.415 . S
C1466 C1465 1.355 . S
C1466 C1468 1.419 . S
C1467 C1462 1.425 . S
C1467 C1464 1.409 . S
C1467 C1465 1.415 . S
C1468 H1458 0.930 . S
C1468 C1466 1.419 . S
C1468 C1469 1.362 . S
C1469 H1459 0.930 . S
C1469 C1462 1.409 . S
C1469 C1468 1.362 . S
H1470 C1476 0.930 . S
H1471 C1479 0.930 . S
H1472 C1480 0.930 . S
H1473 C1481 0.930 . S
H1474 C1484 0.930 . S
H1475 C1485 0.930 . S
C1476 H1470 0.930 . S
C1476 C1477 1.355 . S
C1476 C1478 1.415 . S
C1477 C1476 1.355 . S
C1477 C1479 1.419 . S
C1478 C1476 1.415 . S
C1478 C1483 1.425 . S
C1478 C1485 1.409 1_455 S
C1479 H1471 0.930 . S
C1479 C1477 1.419 . S
C1479 C1480 1.362 . S
C1480 H1472 0.930 . S
C1480 C1479 1.362 . S
C1480 C1483 1.409 . S
C1481 H1473 0.930 . S
C1481 C1482 1.355 . S
C1481 C1483 1.415 1_655 S
C1482 C1481 1.355 . S
C1482 C1484 1.419 . S
C1483 C1478 1.425 . S
C1483 C1480 1.409 . S
C1483 C1481 1.415 1_455 S
C1484 H1474 0.930 . S
C1484 C1482 1.419 . S
C1484 C1485 1.362 . S
C1485 H1475 0.930 . S
C1485 C1478 1.409 1_655 S
C1485 C1484 1.362 . S
H1486 C1492 0.930 . S
H1487 C1495 0.930 . S
H1488 C1496 0.930 . S
H1489 C1497 0.930 . S
H1490 C1500 0.930 . S
H1491 C1501 0.930 . S
C1492 H1486 0.930 . S
C1492 C1493 1.355 . S
C1492 C1494 1.415 . S
C1493 C1492 1.355 . S
C1493 C1495 1.419 . S
C1494 C1492 1.415 . S
C1494 C1499 1.425 . S
C1494 C1501 1.409 . S
C1495 H1487 0.930 . S
C1495 C1493 1.419 . S
C1495 C1496 1.362 . S
C1496 H1488 0.930 . S
C1496 C1495 1.362 . S
C1496 C1499 1.409 . S
C1497 H1489 0.930 . S
C1497 C1498 1.355 . S
C1497 C1499 1.415 . S
C1498 C1497 1.355 . S
C1498 C1500 1.419 . S
C1499 C1494 1.425 . S
C1499 C1496 1.409 . S
C1499 C1497 1.415 . S
C1500 H1490 0.930 . S
C1500 C1498 1.419 . S
C1500 C1501 1.362 . S
C1501 H1491 0.930 . S
C1501 C1494 1.409 . S
C1501 C1500 1.362 . S
H1502 C1508 0.930 . S
H1503 C1511 0.930 . S
H1504 C1512 0.930 . S
H1505 C1513 0.930 . S
H1506 C1516 0.930 . S
H1507 C1517 0.930 . S
C1508 H1502 0.930 . S
C1508 C1509 1.355 . S
C1508 C1510 1.415 . S
C1509 C1508 1.355 . S
C1509 C1511 1.419 . S
C1510 C1508 1.415 . S
C1510 C1515 1.425 1_565 S
C1510 C1517 1.409 1_565 S
C1511 H1503 0.930 . S
C1511 C1509 1.419 . S
C1511 C1512 1.362 . S
C1512 H1504 0.930 . S
C1512 C1511 1.362 . S
C1512 C1515 1.409 1_565 S
C1513 H1505 0.930 . S
C1513 C1514 1.355 . S
C1513 C1515 1.415 . S
C1514 C1513 1.355 . S
C1514 C1516 1.419 . S
C1515 C1510 1.425 1_545 S
C1515 C1512 1.409 1_545 S
C1515 C1513 1.415 . S
C1516 H1506 0.930 . S
C1516 C1514 1.419 . S
C1516 C1517 1.362 . S
C1517 H1507 0.930 . S
C1517 C1510 1.409 1_545 S
C1517 C1516 1.362 . S
H1518 C1524 0.930 . S
H1519 C1527 0.930 . S
H1520 C1528 0.930 . S
H1521 C1529 0.930 . S
H1522 C1532 0.930 . S
H1523 C1533 0.930 . S
C1524 H1518 0.930 . S
C1524 C1525 1.355 . S
C1524 C1526 1.415 . S
C1525 C1524 1.355 . S
C1525 C1527 1.419 . S
C1526 C1524 1.415 . S
C1526 C1531 1.425 . S
C1526 C1533 1.409 . S
C1527 H1519 0.930 . S
C1527 C1525 1.419 . S
C1527 C1528 1.362 . S
C1528 H1520 0.930 . S
C1528 C1527 1.362 . S
C1528 C1531 1.409 . S
C1529 H1521 0.930 . S
C1529 C1530 1.355 . S
C1529 C1531 1.415 . S
C1530 C1529 1.355 . S
C1530 C1532 1.419 . S
C1531 C1526 1.425 . S
C1531 C1528 1.409 . S
C1531 C1529 1.415 . S
C1532 H1522 0.930 . S
C1532 C1530 1.419 . S
C1532 C1533 1.362 . S
C1533 H1523 0.930 . S
C1533 C1526 1.409 . S
C1533 C1532 1.362 . S
H1534 C1540 0.930 . S
H1535 C1543 0.930 . S
H1536 C1544 0.930 . S
H1537 C1545 0.930 . S
H1538 C1548 0.930 . S
H1539 C1549 0.930 . S
C1540 H1534 0.930 . S
C1540 C1541 1.355 . S
C1540 C1542 1.415 . S
C1541 C1540 1.355 . S
C1541 C1543 1.419 . S
C1542 C1540 1.415 . S
C1542 C1547 1.425 . S
C1542 C1549 1.409 . S
C1543 H1535 0.930 . S
C1543 C1541 1.419 . S
C1543 C1544 1.362 . S
C1544 H1536 0.930 . S
C1544 C1543 1.362 . S
C1544 C1547 1.409 . S
C1545 H1537 0.930 . S
C1545 C1546 1.355 . S
C1545 C1547 1.415 . S
C1546 C1545 1.355 . S
C1546 C1548 1.419 . S
C1547 C1542 1.425 . S
C1547 C1544 1.409 . S
C1547 C1545 1.415 . S
C1548 H1538 0.930 . S
C1548 C1546 1.419 . S
C1548 C1549 1.362 . S
C1549 H1539 0.930 . S
C1549 C1542 1.409 . S
C1549 C1548 1.362 . S
H1550 C1556 0.930 . S
H1551 C1559 0.930 . S
H1552 C1560 0.930 . S
H1553 C1561 0.930 . S
H1554 C1564 0.930 . S
H1555 C1565 0.930 . S
C1556 H1550 0.930 . S
C1556 C1557 1.355 . S
C1556 C1558 1.415 . S
C1557 C1556 1.355 . S
C1557 C1559 1.419 . S
C1558 C1556 1.415 . S
C1558 C1563 1.425 . S
C1558 C1565 1.409 . S
C1559 H1551 0.930 . S
C1559 C1557 1.419 . S
C1559 C1560 1.362 . S
C1560 H1552 0.930 . S
C1560 C1559 1.362 . S
C1560 C1563 1.409 . S
C1561 H1553 0.930 . S
C1561 C1562 1.355 . S
C1561 C1563 1.415 . S
C1562 C1561 1.355 . S
C1562 C1564 1.419 . S
C1563 C1558 1.425 . S
C1563 C1560 1.409 . S
C1563 C1561 1.415 . S
C1564 H1554 0.930 . S
C1564 C1562 1.419 . S
C1564 C1565 1.362 . S
C1565 H1555 0.930 . S
C1565 C1558 1.409 . S
C1565 C1564 1.362 . S
H1566 C1572 0.930 . S
H1567 C1575 0.930 . S
H1568 C1576 0.930 . S
H1569 C1577 0.930 . S
H1570 C1580 0.930 . S
H1571 C1581 0.930 . S
C1572 H1566 0.930 . S
C1572 C1573 1.355 . S
C1572 C1574 1.415 . S
C1573 C1572 1.355 . S
C1573 C1575 1.419 . S
C1574 C1572 1.415 . S
C1574 C1579 1.425 . S
C1574 C1581 1.409 . S
C1575 H1567 0.930 . S
C1575 C1573 1.419 . S
C1575 C1576 1.362 . S
C1576 H1568 0.930 . S
C1576 C1575 1.362 . S
C1576 C1579 1.409 . S
C1577 H1569 0.930 . S
C1577 C1578 1.355 . S
C1577 C1579 1.415 . S
C1578 C1577 1.355 . S
C1578 C1580 1.419 . S
C1579 C1574 1.425 . S
C1579 C1576 1.409 . S
C1579 C1577 1.415 . S
C1580 H1570 0.930 . S
C1580 C1578 1.419 . S
C1580 C1581 1.362 . S
C1581 H1571 0.930 . S
C1581 C1574 1.409 . S
C1581 C1580 1.362 . S
H1582 C1588 0.930 . S
H1583 C1591 0.930 . S
H1584 C1592 0.930 . S
H1585 C1593 0.930 . S
H1586 C1596 0.930 . S
H1587 C1597 0.930 . S
C1588 H1582 0.930 . S
C1588 C1589 1.355 . S
C1588 C1590 1.415 . S
C1589 C1588 1.355 . S
C1589 C1591 1.419 . S
C1590 C1588 1.415 . S
C1590 C1595 1.425 . S
C1590 C1597 1.409 . S
C1591 H1583 0.930 . S
C1591 C1589 1.419 . S
C1591 C1592 1.362 . S
C1592 H1584 0.930 . S
C1592 C1591 1.362 . S
C1592 C1595 1.409 . S
C1593 H1585 0.930 . S
C1593 C1594 1.355 . S
C1593 C1595 1.415 . S
C1594 C1593 1.355 . S
C1594 C1596 1.419 . S
C1595 C1590 1.425 . S
C1595 C1592 1.409 . S
C1595 C1593 1.415 . S
C1596 H1586 0.930 . S
C1596 C1594 1.419 . S
C1596 C1597 1.362 . S
C1597 H1587 0.930 . S
C1597 C1590 1.409 . S
C1597 C1596 1.362 . S
H1598 C1604 0.930 . S
H1599 C1607 0.930 . S
H1600 C1608 0.930 . S
H1601 C1609 0.930 . S
H1602 C1612 0.930 . S
H1603 C1613 0.930 . S
C1604 H1598 0.930 . S
C1604 C1605 1.355 . S
C1604 C1606 1.415 . S
C1605 C1604 1.355 . S
C1605 C1607 1.419 . S
C1606 C1604 1.415 . S
C1606 C1611 1.425 . S
C1606 C1613 1.409 . S
C1607 H1599 0.930 . S
C1607 C1605 1.419 . S
C1607 C1608 1.362 . S
C1608 H1600 0.930 . S
C1608 C1607 1.362 . S
C1608 C1611 1.409 . S
C1609 H1601 0.930 . S
C1609 C1610 1.355 . S
C1609 C1611 1.415 . S
C1610 C1609 1.355 . S
C1610 C1612 1.419 . S
C1611 C1606 1.425 . S
C1611 C1608 1.409 . S
C1611 C1609 1.415 . S
C1612 H1602 0.930 . S
C1612 C1610 1.419 . S
C1612 C1613 1.362 . S
C1613 H1603 0.930 . S
C1613 C1606 1.409 . S
C1613 C1612 1.362 . S
H1614 C1620 0.930 . S
H1615 C1623 0.930 . S
H1616 C1624 0.930 . S
H1617 C1625 0.930 . S
H1618 C1628 0.929 1_455 S
H1619 C1629 0.930 . S
C1620 H1614 0.930 . S
C1620 C1621 1.355 . S
C1620 C1622 1.415 . S
C1621 C1620 1.355 . S
C1621 C1623 1.419 . S
C1622 C1620 1.415 . S
C1622 C1627 1.425 . S
C1622 C1629 1.409 . S
C1623 H1615 0.930 . S
C1623 C1621 1.419 . S
C1623 C1624 1.362 . S
C1624 H1616 0.930 . S
C1624 C1623 1.362 . S
C1624 C1627 1.409 . S
C1625 H1617 0.930 . S
C1625 C1626 1.355 . S
C1625 C1627 1.415 . S
C1626 C1625 1.355 . S
C1626 C1628 1.419 . S
C1627 C1622 1.425 . S
C1627 C1624 1.409 . S
C1627 C1625 1.415 . S
C1628 H1618 0.929 1_655 S
C1628 C1626 1.419 . S
C1628 C1629 1.362 . S
C1629 H1619 0.930 . S
C1629 C1622 1.409 . S
C1629 C1628 1.362 . S
H1630 C1636 0.930 . S
H1631 C1639 0.930 . S
H1632 C1640 0.930 . S
H1633 C1641 0.930 . S
H1634 C1644 0.930 . S
H1635 C1645 0.930 . S
C1636 H1630 0.930 . S
C1636 C1637 1.355 . S
C1636 C1638 1.415 . S
C1637 C1636 1.355 . S
C1637 C1639 1.419 . S
C1638 C1636 1.415 . S
C1638 C1643 1.425 . S
C1638 C1645 1.409 . S
C1639 H1631 0.930 . S
C1639 C1637 1.419 . S
C1639 C1640 1.362 . S
C1640 H1632 0.930 . S
C1640 C1639 1.362 . S
C1640 C1643 1.409 . S
C1641 H1633 0.930 . S
C1641 C1642 1.355 . S
C1641 C1643 1.415 . S
C1642 C1641 1.355 . S
C1642 C1644 1.419 . S
C1643 C1638 1.425 . S
C1643 C1640 1.409 . S
C1643 C1641 1.415 . S
C1644 H1634 0.930 . S
C1644 C1642 1.419 . S
C1644 C1645 1.362 . S
C1645 H1635 0.930 . S
C1645 C1638 1.409 . S
C1645 C1644 1.362 . S
H1646 C1652 0.930 . S
H1647 C1655 0.930 . S
H1648 C1656 0.930 . S
H1649 C1657 0.930 . S
H1650 C1660 0.930 . S
H1651 C1661 0.930 . S
C1652 H1646 0.930 . S
C1652 C1653 1.355 . S
C1652 C1654 1.415 . S
C1653 C1652 1.355 . S
C1653 C1655 1.419 . S
C1654 C1652 1.415 . S
C1654 C1659 1.425 . S
C1654 C1661 1.409 . S
C1655 H1647 0.930 . S
C1655 C1653 1.419 . S
C1655 C1656 1.362 . S
C1656 H1648 0.930 . S
C1656 C1655 1.362 . S
C1656 C1659 1.409 . S
C1657 H1649 0.930 . S
C1657 C1658 1.355 . S
C1657 C1659 1.415 . S
C1658 C1657 1.355 . S
C1658 C1660 1.419 . S
C1659 C1654 1.425 . S
C1659 C1656 1.409 . S
C1659 C1657 1.415 . S
C1660 H1650 0.930 . S
C1660 C1658 1.419 . S
C1660 C1661 1.362 . S
C1661 H1651 0.930 . S
C1661 C1654 1.409 . S
C1661 C1660 1.362 . S
H1662 C1668 0.930 . S
H1663 C1671 0.930 . S
H1664 C1672 0.930 . S
H1665 C1673 0.930 . S
H1666 C1676 0.930 . S
H1667 C1677 0.930 . S
C1668 H1662 0.930 . S
C1668 C1669 1.355 . S
C1668 C1670 1.415 . S
C1669 C1668 1.355 . S
C1669 C1671 1.419 . S
C1670 C1668 1.415 . S
C1670 C1675 1.425 . S
C1670 C1677 1.409 . S
C1671 H1663 0.930 . S
C1671 C1669 1.419 . S
C1671 C1672 1.362 . S
C1672 H1664 0.930 . S
C1672 C1671 1.362 . S
C1672 C1675 1.409 . S
C1673 H1665 0.930 . S
C1673 C1674 1.355 . S
C1673 C1675 1.415 . S
C1674 C1673 1.355 . S
C1674 C1676 1.419 . S
C1675 C1670 1.425 . S
C1675 C1672 1.409 . S
C1675 C1673 1.415 . S
C1676 H1666 0.930 . S
C1676 C1674 1.419 . S
C1676 C1677 1.362 . S
C1677 H1667 0.930 . S
C1677 C1670 1.409 . S
C1677 C1676 1.362 . S
H1678 C1684 0.930 . S
H1679 C1687 0.930 . S
H1680 C1688 0.930 . S
H1681 C1689 0.930 . S
H1682 C1692 0.930 . S
H1683 C1693 0.930 . S
C1684 H1678 0.930 . S
C1684 C1685 1.355 . S
C1684 C1686 1.415 . S
C1685 C1684 1.355 . S
C1685 C1687 1.419 . S
C1686 C1684 1.415 . S
C1686 C1691 1.425 . S
C1686 C1693 1.409 . S
C1687 H1679 0.930 . S
C1687 C1685 1.419 . S
C1687 C1688 1.362 . S
C1688 H1680 0.930 . S
C1688 C1687 1.362 . S
C1688 C1691 1.409 . S
C1689 H1681 0.930 . S
C1689 C1690 1.355 . S
C1689 C1691 1.415 . S
C1690 C1689 1.355 . S
C1690 C1692 1.419 . S
C1691 C1686 1.425 . S
C1691 C1688 1.409 . S
C1691 C1689 1.415 . S
C1692 H1682 0.930 . S
C1692 C1690 1.419 . S
C1692 C1693 1.362 . S
C1693 H1683 0.930 . S
C1693 C1686 1.409 . S
C1693 C1692 1.362 . S
H1694 C1700 0.930 . S
H1695 C1703 0.930 . S
H1696 C1704 0.930 . S
H1697 C1705 0.930 . S
H1698 C1708 0.930 . S
H1699 C1709 0.930 . S
C1700 H1694 0.930 . S
C1700 C1701 1.355 . S
C1700 C1702 1.415 . S
C1701 C1700 1.355 . S
C1701 C1703 1.419 . S
C1702 C1700 1.415 . S
C1702 C1707 1.425 . S
C1702 C1709 1.409 . S
C1703 H1695 0.930 . S
C1703 C1701 1.419 . S
C1703 C1704 1.362 . S
C1704 H1696 0.930 . S
C1704 C1703 1.362 . S
C1704 C1707 1.409 . S
C1705 H1697 0.930 . S
C1705 C1706 1.355 . S
C1705 C1707 1.415 . S
C1706 C1705 1.355 . S
C1706 C1708 1.419 . S
C1707 C1702 1.425 . S
C1707 C1704 1.409 . S
C1707 C1705 1.415 . S
C1708 H1698 0.930 . S
C1708 C1706 1.419 . S
C1708 C1709 1.362 . S
C1709 H1699 0.930 . S
C1709 C1702 1.409 . S
C1709 C1708 1.362 . S
H1710 C1716 0.930 . S
H1711 C1719 0.930 . S
H1712 C1720 0.930 . S
H1713 C1721 0.930 . S
H1714 C1724 0.930 . S
H1715 C1725 0.930 . S
C1716 H1710 0.930 . S
C1716 C1717 1.355 . S
C1716 C1718 1.415 . S
C1717 C1716 1.355 . S
C1717 C1719 1.419 . S
C1718 C1716 1.415 . S
C1718 C1723 1.425 . S
C1718 C1725 1.409 . S
C1719 H1711 0.930 . S
C1719 C1717 1.419 . S
C1719 C1720 1.362 . S
C1720 H1712 0.930 . S
C1720 C1719 1.362 . S
C1720 C1723 1.409 . S
C1721 H1713 0.930 . S
C1721 C1722 1.355 . S
C1721 C1723 1.415 . S
C1722 C1721 1.355 . S
C1722 C1724 1.419 . S
C1723 C1718 1.425 . S
C1723 C1720 1.409 . S
C1723 C1721 1.415 . S
C1724 H1714 0.930 . S
C1724 C1722 1.419 . S
C1724 C1725 1.362 . S
C1725 H1715 0.930 . S
C1725 C1718 1.409 . S
C1725 C1724 1.362 . S
H1726 C1732 0.930 . S
H1727 C1735 0.930 . S
H1728 C1736 0.930 . S
H1729 C1737 0.930 . S
H1730 C1740 0.930 . S
H1731 C1741 0.930 . S
C1732 H1726 0.930 . S
C1732 C1733 1.355 . S
C1732 C1734 1.415 . S
C1733 C1732 1.355 . S
C1733 C1735 1.419 . S
C1734 C1732 1.415 . S
C1734 C1739 1.425 . S
C1734 C1741 1.409 . S
C1735 H1727 0.930 . S
C1735 C1733 1.419 . S
C1735 C1736 1.362 . S
C1736 H1728 0.930 . S
C1736 C1735 1.362 . S
C1736 C1739 1.409 . S
C1737 H1729 0.930 . S
C1737 C1738 1.355 . S
C1737 C1739 1.415 . S
C1738 C1737 1.355 . S
C1738 C1740 1.419 . S
C1739 C1734 1.425 . S
C1739 C1736 1.409 . S
C1739 C1737 1.415 . S
C1740 H1730 0.930 . S
C1740 C1738 1.419 . S
C1740 C1741 1.362 . S
C1741 H1731 0.930 . S
C1741 C1734 1.409 . S
C1741 C1740 1.362 . S
H1742 C1748 0.930 . S
H1743 C1751 0.930 . S
H1744 C1752 0.930 . S
H1745 C1753 0.930 . S
H1746 C1756 0.930 . S
H1747 C1757 0.930 . S
C1748 H1742 0.930 . S
C1748 C1749 1.355 . S
C1748 C1750 1.415 . S
C1749 C1748 1.355 . S
C1749 C1751 1.419 . S
C1750 C1748 1.415 . S
C1750 C1755 1.425 . S
C1750 C1757 1.409 . S
C1751 H1743 0.930 . S
C1751 C1749 1.419 . S
C1751 C1752 1.362 . S
C1752 H1744 0.930 . S
C1752 C1751 1.362 . S
C1752 C1755 1.409 . S
C1753 H1745 0.930 . S
C1753 C1754 1.355 . S
C1753 C1755 1.415 . S
C1754 C1753 1.355 . S
C1754 C1756 1.419 . S
C1755 C1750 1.425 . S
C1755 C1752 1.409 . S
C1755 C1753 1.415 . S
C1756 H1746 0.930 . S
C1756 C1754 1.419 . S
C1756 C1757 1.362 . S
C1757 H1747 0.930 . S
C1757 C1750 1.409 . S
C1757 C1756 1.362 . S
H1758 C1764 0.930 . S
H1759 C1767 0.930 . S
H1760 C1768 0.930 . S
H1761 C1769 0.930 . S
H1762 C1772 0.930 . S
H1763 C1773 0.930 . S
C1764 H1758 0.930 . S
C1764 C1765 1.355 . S
C1764 C1766 1.415 . S
C1765 C1764 1.355 . S
C1765 C1767 1.419 . S
C1766 C1764 1.415 . S
C1766 C1771 1.425 . S
C1766 C1773 1.409 . S
C1767 H1759 0.930 . S
C1767 C1765 1.419 . S
C1767 C1768 1.362 . S
C1768 H1760 0.930 . S
C1768 C1767 1.362 . S
C1768 C1771 1.409 . S
C1769 H1761 0.930 . S
C1769 C1770 1.355 . S
C1769 C1771 1.415 . S
C1770 C1769 1.355 . S
C1770 C1772 1.419 . S
C1771 C1766 1.425 . S
C1771 C1768 1.409 . S
C1771 C1769 1.415 . S
C1772 H1762 0.930 . S
C1772 C1770 1.419 . S
C1772 C1773 1.362 . S
C1773 H1763 0.930 . S
C1773 C1766 1.409 . S
C1773 C1772 1.362 . S
H1774 C1780 0.930 . S
H1775 C1783 0.930 . S
H1776 C1784 0.930 . S
H1777 C1785 0.930 . S
H1778 C1788 0.930 . S
H1779 C1789 0.930 . S
C1780 H1774 0.930 . S
C1780 C1781 1.355 . S
C1780 C1782 1.415 . S
C1781 C1780 1.355 . S
C1781 C1783 1.419 . S
C1782 C1780 1.415 . S
C1782 C1787 1.425 . S
C1782 C1789 1.409 . S
C1783 H1775 0.930 . S
C1783 C1781 1.419 . S
C1783 C1784 1.362 . S
C1784 H1776 0.930 . S
C1784 C1783 1.362 . S
C1784 C1787 1.409 . S
C1785 H1777 0.930 . S
C1785 C1786 1.355 . S
C1785 C1787 1.415 . S
C1786 C1785 1.355 . S
C1786 C1788 1.419 . S
C1787 C1782 1.425 . S
C1787 C1784 1.409 . S
C1787 C1785 1.415 . S
C1788 H1778 0.930 . S
C1788 C1786 1.419 . S
C1788 C1789 1.362 . S
C1789 H1779 0.930 . S
C1789 C1782 1.409 . S
C1789 C1788 1.362 . S
H1790 C1796 0.930 . S
H1791 C1799 0.930 . S
H1792 C1800 0.930 . S
H1793 C1801 0.930 . S
H1794 C1804 0.930 . S
H1795 C1805 0.930 . S
C1796 H1790 0.930 . S
C1796 C1797 1.355 . S
C1796 C1798 1.415 . S
C1797 C1796 1.355 . S
C1797 C1799 1.419 . S
C1798 C1796 1.415 . S
C1798 C1803 1.425 . S
C1798 C1805 1.409 . S
C1799 H1791 0.930 . S
C1799 C1797 1.419 . S
C1799 C1800 1.362 . S
C1800 H1792 0.930 . S
C1800 C1799 1.362 . S
C1800 C1803 1.409 . S
C1801 H1793 0.930 . S
C1801 C1802 1.355 . S
C1801 C1803 1.415 . S
C1802 C1801 1.355 . S
C1802 C1804 1.419 . S
C1803 C1798 1.425 . S
C1803 C1800 1.409 . S
C1803 C1801 1.415 . S
C1804 H1794 0.930 . S
C1804 C1802 1.419 . S
C1804 C1805 1.362 . S
C1805 H1795 0.930 . S
C1805 C1798 1.409 . S
C1805 C1804 1.362 . S
H1806 C1812 0.930 . S
H1807 C1815 0.930 . S
H1808 C1816 0.930 . S
H1809 C1817 0.930 . S
H1810 C1820 0.930 . S
H1811 C1821 0.930 . S
C1812 H1806 0.930 . S
C1812 C1813 1.355 . S
C1812 C1814 1.415 . S
C1813 C1812 1.355 . S
C1813 C1815 1.419 . S
C1814 C1812 1.415 . S
C1814 C1819 1.425 . S
C1814 C1821 1.409 . S
C1815 H1807 0.930 . S
C1815 C1813 1.419 . S
C1815 C1816 1.362 . S
C1816 H1808 0.930 . S
C1816 C1815 1.362 . S
C1816 C1819 1.409 . S
C1817 H1809 0.930 . S
C1817 C1818 1.355 . S
C1817 C1819 1.415 . S
C1818 C1817 1.355 . S
C1818 C1820 1.419 . S
C1819 C1814 1.425 . S
C1819 C1816 1.409 . S
C1819 C1817 1.415 . S
C1820 H1810 0.930 . S
C1820 C1818 1.419 . S
C1820 C1821 1.362 . S
C1821 H1811 0.930 . S
C1821 C1814 1.409 . S
C1821 C1820 1.362 . S
H1822 C1828 0.930 . S
H1823 C1831 0.930 . S
H1824 C1832 0.930 . S
H1825 C1833 0.930 . S
H1826 C1836 0.930 . S
H1827 C1837 0.930 . S
C1828 H1822 0.930 . S
C1828 C1829 1.355 . S
C1828 C1830 1.415 . S
C1829 C1828 1.355 . S
C1829 C1831 1.419 . S
C1830 C1828 1.415 . S
C1830 C1835 1.425 . S
C1830 C1837 1.409 . S
C1831 H1823 0.930 . S
C1831 C1829 1.419 . S
C1831 C1832 1.362 . S
C1832 H1824 0.930 . S
C1832 C1831 1.362 . S
C1832 C1835 1.409 . S
C1833 H1825 0.930 . S
C1833 C1834 1.355 . S
C1833 C1835 1.415 . S
C1834 C1833 1.355 . S
C1834 C1836 1.419 . S
C1835 C1830 1.425 . S
C1835 C1832 1.409 . S
C1835 C1833 1.415 . S
C1836 H1826 0.930 . S
C1836 C1834 1.419 . S
C1836 C1837 1.362 . S
C1837 H1827 0.930 . S
C1837 C1830 1.409 . S
C1837 C1836 1.362 . S
H1838 C1844 0.930 . S
H1839 C1847 0.930 . S
H1840 C1848 0.930 . S
H1841 C1849 0.930 . S
H1842 C1852 0.930 . S
H1843 C1853 0.930 . S
C1844 H1838 0.930 . S
C1844 C1845 1.355 . S
C1844 C1846 1.415 . S
C1845 C1844 1.355 . S
C1845 C1847 1.419 . S
C1846 C1844 1.415 . S
C1846 C1851 1.425 . S
C1846 C1853 1.409 . S
C1847 H1839 0.930 . S
C1847 C1845 1.419 . S
C1847 C1848 1.362 . S
C1848 H1840 0.930 . S
C1848 C1847 1.362 . S
C1848 C1851 1.409 . S
C1849 H1841 0.930 . S
C1849 C1850 1.355 . S
C1849 C1851 1.415 . S
C1850 C1849 1.355 . S
C1850 C1852 1.419 . S
C1851 C1846 1.425 . S
C1851 C1848 1.409 . S
C1851 C1849 1.415 . S
C1852 H1842 0.930 . S
C1852 C1850 1.419 . S
C1852 C1853 1.362 . S
C1853 H1843 0.930 . S
C1853 C1846 1.409 . S
C1853 C1852 1.362 . S
C997 N170 1.915 . S
C1002 C290 1.851 . S
C1013 N184 0.993 . S
C1018 C374 1.046 . S
C1029 N158 1.539 . S
C1034 C468 1.498 . S
C1045 N145 1.527 . S
C1050 C384 1.482 1_556 S
C1066 C458 0.889 . S
C1061 N119 0.994 . S
C1077 N131 1.910 . S
C1082 C300 1.879 1_556 S
C1098 C301 1.535 . S
C1093 N144 1.622 . S
C1114 C385 1.334 . S
C1109 N118 1.370 . S
C1125 N132 1.441 . S
C1130 C477 1.426 . S
C1141 N171 1.425 . S
C1146 C393 1.409 . S
C1157 N183 1.350 . S
C1162 C469 1.299 . S
C1178 C309 1.579 . S
C1173 N157 1.601 . S
C1194 C542 1.878 . S
C1189 N14 1.930 . S
C1205 N28 1.035 . S
C1210 C626 1.023 . S
C1221 N2 1.563 . S
C1226 C720 1.548 . S
C1237 N223 1.540 . S
C1242 C636 1.529 . S
C1253 N197 0.949 . S
C1258 C710 1.005 . S
C1269 N209 1.910 . S
C1274 C552 1.872 . S
C1285 N222 1.639 . S
C1290 C553 1.588 . S
C1301 N196 1.373 . S
C1306 C637 1.334 . S
C1322 C729 1.453 . S
C1317 N210 1.451 . S
C1333 N15 1.433 . S
C1338 C645 1.419 . S
C1354 C721 1.330 . S
C1349 N27 1.321 . S
C1365 N1 1.593 . S
C1370 C561 1.579 . S
C1386 C794 1.850 . S
C1381 N92 1.915 . S
C1397 N106 1.012 . S
C1402 C878 0.957 . S
C1418 C972 1.502 . S
C1413 N80 1.547 . S
C1434 C888 1.477 . S
C1429 N67 1.524 . S
C1450 C962 0.946 . S
C1445 N41 0.950 . S
C1461 N53 1.911 . S
C1466 C804 1.879 . S
C1477 N66 1.633 . S
C1482 C805 1.553 . S
C1493 N40 1.389 . S
C1498 C889 1.400 . S
C1514 C981 1.417 . S
C1509 N54 1.431 . S
C1525 N93 1.442 . S
C1530 C897 1.439 . S
C1541 N105 1.337 . S
C1546 C973 1.289 . S
C1557 N79 1.582 . S
C1562 C813 1.539 . S
C1573 N200 1.261 . S
C1578 C297 1.191 . S
C1594 C381 1.608 . S
C1589 N213 1.754 . S
C1605 N226 1.505 . S
C1610 C474 1.347 . S
C1621 N83 1.518 . S
C1626 C390 1.362 . S
C1637 N96 1.729 . S
C1642 C465 1.596 . S
C1658 C306 1.162 . S
C1653 N109 1.326 . S
C1669 N44 1.262 . S
C1674 C549 1.240 . S
C1685 N57 1.742 . S
C1690 C633 1.533 . S
C1701 N70 1.492 . S
C1706 C726 1.373 . S
C1717 N161 1.531 . S
C1722 C642 1.366 . S
C1738 C717 1.586 . S
C1733 N174 1.739 . S
C1749 N187 1.289 . S
C1754 C558 1.265 . S
C1765 N122 1.289 . S
C1770 C801 1.203 . S
C1781 N135 1.757 . S
C1786 C885 1.596 . S
C1802 C978 1.350 . S
C1797 N148 1.490 . S
C1813 N5 1.544 . S
C1818 C894 1.449 . S
C1829 N18 1.698 . S
C1834 C969 1.489 . S
C1845 N31 1.328 . S
C1850 C810 1.167 . S
