# Generated by pormake.
# Topology anh, (6,3)-cn, num edge types: 1
# Building blocks:
#     Node 0, Type 0, BuildingBlock: BETGAK_clean_sbu_0, # of connection points: 6
#     Node 1, Type 0, BuildingBlock: BETGAK_clean_sbu_0, # of connection points: 6
#     Node 2, Type 0, BuildingBlock: BETGAK_clean_sbu_0, # of connection points: 6
#     Node 3, Type 1, BuildingBlock: BETDAH_clean_linker_0, # of connection points: 3
#     Node 4, Type 1, BuildingBlock: BETDAH_clean_linker_0, # of connection points: 3
#     Node 5, Type 1, BuildingBlock: BETDAH_clean_linker_0, # of connection points: 3
#     Node 6, Type 1, BuildingBlock: BETDAH_clean_linker_0, # of connection points: 3
#     Node 7, Type 1, BuildingBlock: BETDAH_clean_linker_0, # of connection points: 3
#     Node 8, Type 1, BuildingBlock: BETDAH_clean_linker_0, # of connection points: 3
#     Edge 9, Type (0, 1), BuildingBlock: XIVTED_clean_linker_0, # of connection points: 2
#     Edge 10, Type (0, 1), BuildingBlock: XIVTED_clean_linker_0, # of connection points: 2
#     Edge 11, Type (0, 1), BuildingBlock: XIVTED_clean_linker_0, # of connection points: 2
#     Edge 12, Type (0, 1), BuildingBlock: XIVTED_clean_linker_0, # of connection points: 2
#     Edge 13, Type (0, 1), BuildingBlock: XIVTED_clean_linker_0, # of connection points: 2
#     Edge 14, Type (0, 1), BuildingBlock: XIVTED_clean_linker_0, # of connection points: 2
#     Edge 15, Type (0, 1), BuildingBlock: XIVTED_clean_linker_0, # of connection points: 2
#     Edge 16, Type (0, 1), BuildingBlock: XIVTED_clean_linker_0, # of connection points: 2
#     Edge 17, Type (0, 1), BuildingBlock: XIVTED_clean_linker_0, # of connection points: 2
#     Edge 18, Type (0, 1), BuildingBlock: XIVTED_clean_linker_0, # of connection points: 2
#     Edge 19, Type (0, 1), BuildingBlock: XIVTED_clean_linker_0, # of connection points: 2
#     Edge 20, Type (0, 1), BuildingBlock: XIVTED_clean_linker_0, # of connection points: 2
#     Edge 21, Type (0, 1), BuildingBlock: XIVTED_clean_linker_0, # of connection points: 2
#     Edge 22, Type (0, 1), BuildingBlock: XIVTED_clean_linker_0, # of connection points: 2
#     Edge 23, Type (0, 1), BuildingBlock: XIVTED_clean_linker_0, # of connection points: 2
#     Edge 24, Type (0, 1), BuildingBlock: XIVTED_clean_linker_0, # of connection points: 2
#     Edge 25, Type (0, 1), BuildingBlock: XIVTED_clean_linker_0, # of connection points: 2
#     Edge 26, Type (0, 1), BuildingBlock: XIVTED_clean_linker_0, # of connection points: 2
# Relax obj value: 0.152
# Max RMSD: 0.181
# Mean RMSD: 0.111
data_MOF--net-anh--node1-BETGAK_clean_sbu_0--node2-BETDAH_clean_linker_0--edge1-XIVTED_clean_linker_0
_symmetry_space_group_name_H-M    P1
_symmetry_Int_Tables_number       1
_symmetry_cell_setting            triclinic
loop_
_symmetry_equiv_pos_as_xyz
'x, y, z'
_cell_length_a     31.261329
_cell_length_b     38.325286
_cell_length_c     49.540539
_cell_angle_alpha  94.058735
_cell_angle_beta   90.891191
_cell_angle_gamma 129.66404
loop_
_atom_site_label
_atom_site_type_symbol
_atom_site_fract_x
_atom_site_fract_y
_atom_site_fract_z
_atom_type_partial_charge
La0 La 0.17418 0.56407 0.14615 0.0
La1 La 0.10457 0.58689 0.16742 0.0
C2 C 0.23336 0.55408 0.11858 0.0
C3 C 0.22889 0.51484 0.10872 0.0
C4 C 0.18623 0.47143 0.11646 0.0
C5 C 0.18304 0.4344 0.10747 0.0
C6 C 0.22251 0.44023 0.09057 0.0
C7 C 0.26464 0.48378 0.08255 0.0
C8 C 0.26774 0.52076 0.09156 0.0
C9 C 0.16644 0.56447 0.1989 0.0
C10 C 0.22765 0.66837 0.16049 0.0
C11 C 1.03833 0.58939 0.19396 0.0
C12 C 0.97737 0.55726 0.19322 0.0
C13 C 0.94673 0.52027 0.17304 0.0
C14 C 0.88875 0.48997 0.17161 0.0
C15 C 0.86016 0.4963 0.1902 0.0
C16 C 0.89103 0.5331 0.21071 0.0
C17 C 0.94939 0.5633 0.21227 0.0
C18 C 0.11012 0.58491 0.11432 0.0
C19 C 1.05147 0.48178 0.15544 0.0
O20 O 0.19558 0.55499 0.10791 0.0
O21 O 0.24144 0.56437 0.14492 0.0
O22 O 0.16976 0.53681 0.18445 0.0
O23 O 0.17126 0.59204 0.18417 0.0
O24 O 0.2284 0.63888 0.14519 0.0
O25 O 0.18533 0.65419 0.17524 0.0
O26 O 1.05878 0.60939 0.17184 0.0
O27 O 1.06271 0.57416 0.20285 0.0
O28 O 0.10593 0.61192 0.12881 0.0
O29 O 0.10652 0.55807 0.12928 0.0
O30 O 1.04788 0.51217 0.16669 0.0
O31 O 0.09612 0.49424 0.14335 0.0
H32 H 0.15574 0.4663 0.12966 0.0
H33 H 0.14979 0.40125 0.11378 0.0
H34 H 0.2962 0.48961 0.06991 0.0
H35 H 0.30091 0.5541 0.08541 0.0
H36 H 0.96763 0.51537 0.15797 0.0
H37 H 0.86634 0.46267 0.15519 0.0
H38 H 0.87006 0.53878 0.22528 0.0
H39 H 0.97259 0.59169 0.22803 0.0
La40 La 0.7049 0.07815 0.47781 0.0
La41 La 0.6295 0.0988 0.46676 0.0
C42 C 0.75096 0.04894 0.49684 0.0
C43 C 0.7331 1.00527 0.50454 0.0
C44 C 0.68088 0.96403 0.49494 0.0
C45 C 0.66527 0.92263 0.50156 0.0
C46 C 0.70199 0.92161 0.51759 0.0
C47 C 0.75408 0.96324 0.52746 0.0
C48 C 0.76934 1.00465 0.52105 0.0
C49 C 0.6953 0.0898 0.42698 0.0
C50 C 0.57372 0.99734 0.46529 0.0
C51 C 0.58242 0.12872 0.45076 0.0
C52 C 0.5895 0.17018 0.45854 0.0
C53 C 0.54491 0.16583 0.46883 0.0
C54 C 0.55216 0.20438 0.47903 0.0
C55 C 0.60427 0.24819 0.47917 0.0
C56 C 0.64836 0.25258 0.46791 0.0
C57 C 0.64099 0.21397 0.45764 0.0
C58 C 0.63991 0.08788 0.51766 0.0
C59 C 0.76248 0.18061 0.4764 0.0
O60 O 0.74444 0.05057 0.47094 0.0
O61 O 0.73566 0.06819 0.51189 0.0
O62 O 0.74062 0.10167 0.43896 0.0
O63 O 0.65667 0.06934 0.44266 0.0
O64 O 0.62022 0.01182 0.47884 0.0
O65 O 0.57175 0.02624 0.45353 0.0
O66 O 0.56412 0.10071 0.46942 0.0
O67 O 0.62259 0.1337 0.43847 0.0
O68 O 0.59459 0.07564 0.50569 0.0
O69 O 0.67832 0.10841 0.50192 0.0
O70 O 0.71265 0.16677 0.46836 0.0
O71 O 0.76911 0.15186 0.4841 0.0
H72 H 0.65257 0.96376 0.48193 0.0
H73 H 0.62451 0.89144 0.49392 0.0
H74 H 0.78384 0.96388 0.53948 0.0
H75 H 0.80997 0.0362 0.52854 0.0
H76 H 0.50467 0.13244 0.46956 0.0
H77 H 0.51699 0.1998 0.48701 0.0
H78 H 0.68912 0.28574 0.4678 0.0
H79 H 0.67593 0.2184 0.44956 0.0
La80 La 0.63918 0.59689 0.84898 0.0
La81 La 0.55795 0.4957 0.84104 0.0
C82 C 0.69675 0.68034 0.84273 0.0
C83 C 0.68944 0.71242 0.83452 0.0
C84 C 0.73654 0.75824 0.83402 0.0
C85 C 0.73116 0.78943 0.82571 0.0
C86 C 0.67837 0.77538 0.81782 0.0
C87 C 0.63114 0.72917 0.81826 0.0
C88 C 0.63669 0.69793 0.82647 0.0
C89 C 0.61381 0.55603 0.89344 0.0
C90 C 0.50586 0.54407 0.84665 0.0
C91 C 0.50741 0.4127 0.84497 0.0
C92 C 0.52042 0.38297 0.83673 0.0
C93 C 0.55653 0.39403 0.81625 0.0
C94 C 0.56858 0.3656 0.80831 0.0
C95 C 0.54514 0.3257 0.82088 0.0
C96 C 0.50976 0.3153 0.84179 0.0
C97 C 0.49746 0.34367 0.84959 0.0
C98 C 0.58198 0.53539 0.79608 0.0
C99 C 0.69202 0.54864 0.84655 0.0
O100 O 0.67788 0.66362 0.86587 0.0
O101 O 0.68499 0.64927 0.8237 0.0
O102 O 0.66333 0.59331 0.89002 0.0
O103 O 0.58125 0.54493 0.87328 0.0
O104 O 0.55711 0.58199 0.8428 0.0
O105 O 0.4977 0.50618 0.8503 0.0
O106 O 0.49668 0.42752 0.82512 0.0
O107 O 0.54089 0.44507 0.86452 0.0
O108 O 0.53351 0.49785 0.80016 0.0
O109 O 0.61574 0.54744 0.81605 0.0
O110 O 0.63952 0.50948 0.84443 0.0
O111 O 0.7022 0.58806 0.84731 0.0
H112 H 0.77767 0.76989 0.83991 0.0
H113 H 0.76853 0.82448 0.82517 0.0
H114 H 0.58981 0.71721 0.81262 0.0
H115 H 0.59992 0.66257 0.8265 0.0
H116 H 0.57509 0.42452 0.80621 0.0
H117 H 0.59541 0.3745 0.79195 0.0
H118 H 0.4918 0.28538 0.85229 0.0
H119 H 0.47005 0.33493 0.86567 0.0
H120 H 0.55569 0.99393 0.23241 0.0
H121 H 0.70137 0.1251 0.21327 0.0
H122 H 0.59128 0.01792 0.14917 0.0
C123 C 0.58139 0.01682 0.21745 0.0
C124 C 0.56688 1.00056 0.18981 0.0
C125 C 0.62972 0.06152 0.22616 0.0
C126 C 0.66417 0.09056 0.2067 0.0
C127 C 0.65024 0.07491 0.17881 0.0
C128 C 0.60194 0.02984 0.17062 0.0
N129 N 0.6835 0.10321 0.1584 0.0
C130 C 0.7302 0.14934 0.1629 0.0
H131 H 0.65304 0.50856 0.60549 0.0
H132 H 0.64707 0.61466 0.59019 0.0
H133 H 0.64417 0.53508 0.5235 0.0
C134 C 0.6516 0.52813 0.5913 0.0
C135 C 0.64922 0.51762 0.56328 0.0
C136 C 0.65067 0.56298 0.60118 0.0
C137 C 0.64805 0.58794 0.5827 0.0
C138 C 0.6466 0.57814 0.55462 0.0
C139 C 0.64701 0.5431 0.54521 0.0
N140 N 0.64355 0.6018 0.53495 0.0
C141 C 0.64477 0.63848 0.54043 0.0
H142 H 1.01285 0.563 0.91328 0.0
H143 H 0.14251 0.55484 0.90156 0.0
H144 H 1.04311 0.53871 0.8324 0.0
C145 C 1.03628 0.5587 0.89961 0.0
C146 C 1.02192 0.55098 0.87156 0.0
C147 C 1.07894 0.55964 0.91054 0.0
C148 C 0.10929 0.55349 0.89306 0.0
C149 C 0.09759 0.54636 0.86476 0.0
C150 C 1.05289 0.54441 0.85414 0.0
N151 N 0.12969 0.54125 0.84668 0.0
C152 C 0.17652 0.54408 0.85309 0.0
H153 H 0.24517 0.67047 0.3945 0.0
H154 H 0.12172 0.53282 0.41378 0.0
H155 H 0.23031 0.64134 0.4776 0.0
C156 C 0.22431 0.64639 0.40953 0.0
C157 C 0.24262 0.66192 0.43704 0.0
C158 C 0.18091 0.6001 0.40093 0.0
C159 C 0.15529 0.56854 0.42033 0.0
C160 C 0.1729 0.58341 0.44813 0.0
C161 C 0.21691 0.62998 0.45623 0.0
N162 N 0.1476 0.55288 0.46856 0.0
C163 C 0.10065 0.50675 0.46438 0.0
H164 H 0.64257 0.14133 0.71455 0.0
H165 H 0.6345 0.02695 0.72618 0.0
H166 H 0.59775 0.08322 0.7906 0.0
C167 C 0.6366 0.1172 0.7276 0.0
C168 C 0.62021 0.11663 0.75389 0.0
C169 C 0.64132 0.08469 0.71733 0.0
C170 C 0.6314 0.05231 0.73404 0.0
C171 C 0.61614 0.05219 0.76064 0.0
C172 C 0.61013 0.08395 0.77018 0.0
N173 N 0.60437 0.0198 0.7782 0.0
C174 C 0.61902 0.99245 0.7747 0.0
H175 H 0.56603 0.39763 0.06589 0.0
H176 H 0.40439 0.29741 0.023 0.0
H177 H 0.44151 0.27194 0.09932 0.0
C178 C 0.52467 0.36456 0.06417 0.0
C179 C 0.50842 0.33635 0.08507 0.0
C180 C 0.48798 0.35085 0.0414 0.0
C181 C 0.43381 0.30857 0.04016 0.0
C182 C 0.41706 0.28019 0.06103 0.0
C183 C 0.45491 0.29357 0.08304 0.0
N184 N 0.3607 0.24044 0.06137 0.0
C185 C 0.31955 0.2442 0.05915 0.0
H186 H 0.24223 0.41785 0.04113 0.0
H187 H 0.25566 0.23523 0.09849 0.0
H188 H 0.20149 0.37514 0.12166 0.0
H189 H 0.31253 0.28779 0.02137 0.0
H190 H 0.21759 0.27465 0.10354 0.0
H191 H 0.25154 0.35991 0.03009 0.0
C192 C 0.23492 0.39611 0.05644 0.0
C193 C 0.22181 0.40181 0.08248 0.0
C194 C 0.23735 0.27686 0.08524 0.0
C195 C 0.23198 0.33519 0.06991 0.0
C196 C 0.2586 0.2541 0.0823 0.0
C197 C 0.28659 0.25829 0.05944 0.0
C198 C 0.24502 0.30433 0.06526 0.0
C199 C 0.2906 0.28364 0.03918 0.0
C200 C 0.23994 0.36288 0.05007 0.0
C201 C 0.2115 0.37195 0.1013 0.0
N202 N 0.27053 0.3062 0.04268 0.0
N203 N 0.21741 0.34028 0.09474 0.0
H204 H 0.7658 0.25246 0.46831 0.0
H205 H 0.09958 0.43672 0.47074 0.0
H206 H 0.87336 0.22057 0.48266 0.0
H207 H 0.992 0.46878 0.45805 0.0
H208 H 1.01724 0.35695 0.47407 0.0
H209 H 0.84768 0.33131 0.46411 0.0
C210 C 0.80656 0.26193 0.47061 0.0
C211 C 0.81234 0.22948 0.47574 0.0
C212 C 1.01147 0.38128 0.4704 0.0
C213 C 0.90697 0.32032 0.47091 0.0
C214 C 1.05842 0.42668 0.46836 0.0
C215 C 1.05218 0.45894 0.46391 0.0
C216 C 0.95791 0.36817 0.46808 0.0
C217 C 0.99828 0.44464 0.46129 0.0
C218 C 0.85347 0.30714 0.46821 0.0
C219 C 0.86663 0.24424 0.47878 0.0
N220 N 0.95318 0.40031 0.46345 0.0
N221 N 0.91169 0.28842 0.47623 0.0
H222 H 0.73603 0.86382 0.83961 0.0
H223 H 0.56358 0.9077 0.74892 0.0
H224 H 0.60799 0.76383 0.77712 0.0
H225 H 0.70433 0.01068 0.80495 0.0
H226 H 0.58085 0.85498 0.75729 0.0
H227 H 0.72649 0.91848 0.82597 0.0
C228 C 0.70621 0.85339 0.82284 0.0
C229 C 0.67281 0.809 0.8095 0.0
C230 C 0.60842 0.88928 0.76749 0.0
C231 C 0.66103 0.87159 0.79399 0.0
C232 C 0.59871 0.9193 0.7626 0.0
C233 C 0.63295 0.96331 0.77618 0.0
C234 C 0.65228 0.90353 0.78632 0.0
C235 C 0.67739 0.97691 0.79399 0.0
C236 C 0.70061 0.88467 0.81512 0.0
C237 C 0.63409 0.79739 0.78826 0.0
N238 N 0.68561 0.94701 0.79871 0.0
N239 N 0.62915 0.82843 0.78122 0.0
H240 H 0.79723 0.5229 0.19277 0.0
H241 H 0.53943 0.29226 0.1087 0.0
H242 H 0.78337 0.40363 0.17754 0.0
H243 H 0.56628 0.41785 0.11604 0.0
H244 H 0.61575 0.32566 0.14386 0.0
H245 H 0.70003 0.4778 0.17564 0.0
C246 C 0.77333 0.48692 0.1865 0.0
C247 C 0.79873 0.4672 0.18602 0.0
C248 C 0.6043 0.34562 0.13809 0.0
C249 C 0.68788 0.41566 0.16577 0.0
C250 C 0.56074 0.32653 0.11812 0.0
C251 C 0.54762 0.35279 0.10914 0.0
C252 C 0.63458 0.39115 0.14908 0.0
C253 C 0.57617 0.39693 0.122 0.0
C254 C 0.71791 0.46124 0.17649 0.0
C255 C 0.76571 0.42042 0.17757 0.0
N256 N 0.61877 0.41493 0.14107 0.0
N257 N 0.71223 0.3964 0.16731 0.0
H258 H 0.47557 0.9544 0.43454 0.0
H259 H 0.33467 0.70323 0.47326 0.0
H260 H 0.55679 0.92783 0.49041 0.0
H261 H 0.25627 0.73391 0.41876 0.0
H262 H 0.41449 0.78515 0.48196 0.0
H263 H 0.39372 0.87374 0.43016 0.0
C264 C 0.47634 0.93165 0.4459 0.0
C265 C 0.52364 0.9481 0.46266 0.0
C266 C 0.37964 0.77392 0.46822 0.0
C267 C 0.42931 0.85503 0.45775 0.0
C268 C 0.33389 0.72718 0.4634 0.0
C269 C 0.28887 0.71155 0.44504 0.0
C270 C 0.38028 0.80528 0.45465 0.0
C271 C 0.29041 0.74422 0.43269 0.0
C272 C 0.42939 0.88543 0.44339 0.0
C273 C 0.52175 0.91672 0.47693 0.0
N274 N 0.3353 0.78927 0.4376 0.0
N275 N 0.4755 0.87174 0.47409 0.0
H276 H 0.47329 0.23211 0.81635 0.0
H277 H 0.68658 0.20866 0.75016 0.0
H278 H 0.64318 0.34828 0.80447 0.0
H279 H 0.53209 0.09697 0.78029 0.0
H280 H 0.6693 0.26016 0.76688 0.0
H281 H 0.49237 0.18182 0.80071 0.0
C282 C 0.51479 0.24717 0.81071 0.0
C283 C 0.55667 0.29468 0.81183 0.0
C284 C 0.63932 0.2244 0.7699 0.0
C285 C 0.57845 0.23695 0.79328 0.0
C286 C 0.64901 0.195 0.76024 0.0
C287 C 0.61083 0.14853 0.76395 0.0
C288 C 0.59077 0.20707 0.78306 0.0
C289 C 0.56299 0.13266 0.77731 0.0
C290 C 0.52553 0.21833 0.8016 0.0
C291 C 0.60928 0.31193 0.8036 0.0
N292 N 0.55424 0.16181 0.78628 0.0
N293 N 0.6186 0.2831 0.79461 0.0
H294 H 0.64445 0.84274 0.48306 0.0
H295 H 0.70021 0.71308 0.57758 0.0
H296 H 0.72632 0.89931 0.5639 0.0
H297 H 0.59365 0.65078 0.50334 0.0
H298 H 0.70933 0.78133 0.57401 0.0
H299 H 0.62413 0.77177 0.49096 0.0
C300 C 0.65757 0.84017 0.50264 0.0
C301 C 0.68722 0.87735 0.52283 0.0
C302 C 0.68342 0.75252 0.55868 0.0
C303 C 0.66504 0.79592 0.5318 0.0
C304 C 0.67819 0.71372 0.56078 0.0
C305 C 0.64606 0.67673 0.54074 0.0
C306 C 0.65675 0.75409 0.53621 0.0
C307 C 0.61864 0.67885 0.51921 0.0
C308 C 0.64622 0.79956 0.50708 0.0
C309 C 0.70416 0.87194 0.54755 0.0
N310 N 0.62489 0.71704 0.51739 0.0
N311 N 0.69313 0.83212 0.55128 0.0
H312 H 0.80448 0.62166 0.85842 0.0
H313 H 0.91831 0.48154 0.84328 0.0
H314 H 0.69337 0.47604 0.83835 0.0
H315 H 1.0161 0.61955 0.88034 0.0
H316 H 0.83829 0.47975 0.8361 0.0
H317 H 0.88321 0.62221 0.86169 0.0
C318 C 0.79626 0.58963 0.85456 0.0
C319 C 0.74111 0.54874 0.84809 0.0
C320 C 0.87745 0.51066 0.8455 0.0
C321 C 0.83337 0.54924 0.85171 0.0
C322 C 0.92362 0.51188 0.84931 0.0
C323 C 0.9751 0.55105 0.8621 0.0
C324 C 0.88221 0.54902 0.85429 0.0
C325 C 0.978 0.58871 0.87011 0.0
C326 C 0.84174 0.59001 0.8565 0.0
C327 C 0.73453 0.50858 0.84346 0.0
N328 N 0.93294 0.58676 0.86607 0.0
N329 N 0.77961 0.50989 0.84526 0.0
H330 H 0.2393 0.7379 0.1893 0.0
H331 H 0.55221 0.93618 0.1524 0.0
H332 H 0.32655 0.71242 0.13596 0.0
H333 H 0.46378 0.9559 0.2087 0.0
H334 H 0.46844 0.85565 0.14285 0.0
H335 H 0.31954 0.81887 0.19368 0.0
C336 C 0.2753 0.74926 0.17842 0.0
C337 C 0.27607 0.71801 0.16235 0.0
C338 C 0.46735 0.87771 0.15717 0.0
C339 C 0.36887 0.81148 0.16733 0.0
C340 C 0.51502 0.92373 0.16249 0.0
C341 C 0.51523 0.95278 0.18157 0.0
C342 C 0.41946 0.86069 0.17093 0.0
C343 C 0.46592 0.93466 0.19418 0.0
C344 C 0.32128 0.79571 0.18094 0.0
C345 C 0.32406 0.73515 0.14866 0.0
N346 N 0.42034 0.88994 0.18873 0.0
N347 N 0.36861 0.78068 0.15155 0.0
H348 H 0.66493 0.33326 0.4614 0.0
H349 H 0.58984 0.43305 0.58139 0.0
H350 H 0.56385 0.25621 0.52585 0.0
H351 H 0.70145 0.51342 0.52065 0.0
H352 H 0.58104 0.36826 0.56176 0.0
H353 H 0.67932 0.39978 0.48291 0.0
C354 C 0.64595 0.33034 0.48013 0.0
C355 C 0.61294 0.28892 0.49174 0.0
C356 C 0.60766 0.40013 0.55278 0.0
C357 C 0.62892 0.36497 0.51641 0.0
C358 C 0.61306 0.43729 0.56413 0.0
C359 C 0.64636 0.47881 0.55264 0.0
C360 C 0.63563 0.40436 0.52971 0.0
C361 C 0.67466 0.48192 0.52996 0.0
C362 C 0.65402 0.36832 0.49236 0.0
C363 C 0.58882 0.28711 0.51587 0.0
N364 N 0.66849 0.44519 0.51919 0.0
N365 N 0.59725 0.32452 0.52736 0.0
H366 H 0.39492 0.47302 0.85443 0.0
H367 H 0.28685 0.61704 0.84833 0.0
H368 H 0.50363 0.61545 0.8423 0.0
H369 H 0.1791 0.47457 0.85973 0.0
H370 H 0.36636 0.61783 0.84702 0.0
H371 H 0.31688 0.47346 0.85702 0.0
C372 C 0.40277 0.50455 0.85226 0.0
C373 C 0.45703 0.54425 0.84805 0.0
C374 C 0.3255 0.58636 0.84998 0.0
C375 C 0.36579 0.54496 0.85114 0.0
C376 C 0.27984 0.58594 0.85086 0.0
C377 C 0.2257 0.54579 0.85446 0.0
C378 C 0.31771 0.54619 0.85258 0.0
C379 C 0.2198 0.50652 0.85719 0.0
C380 C 0.35771 0.50473 0.85379 0.0
C381 C 0.46321 0.5838 0.84549 0.0
N382 N 0.2647 0.50773 0.85619 0.0
N383 N 0.41872 0.58309 0.84706 0.0
H384 H 0.95202 0.44342 0.17756 0.0
H385 H 0.83007 0.18532 0.14418 0.0
H386 H 1.04192 0.40744 0.13661 0.0
H387 H 0.73939 0.2217 0.18312 0.0
H388 H 0.90944 0.26654 0.14256 0.0
H389 H 0.87496 0.36281 0.18059 0.0
C390 C 0.95564 0.41864 0.1691 0.0
C391 C 1.00377 0.43251 0.15671 0.0
C392 C 0.87239 0.2569 0.15161 0.0
C393 C 0.91515 0.33954 0.16035 0.0
C394 C 0.82728 0.21061 0.15263 0.0
C395 C 0.77865 0.1972 0.16395 0.0
C396 C 0.86861 0.28994 0.16191 0.0
C397 C 0.77653 0.23094 0.17439 0.0
C398 C 0.91147 0.37246 0.17092 0.0
C399 C 1.00573 0.39852 0.14627 0.0
N400 N 0.82084 0.27579 0.17308 0.0
N401 N 0.96216 0.35371 0.14835 0.0
H402 H 0.09901 0.51992 0.07948 0.0
H403 H 0.09184 0.62384 0.94643 0.0
H404 H 0.12099 0.64316 0.08108 0.0
H405 H 0.09284 0.51162 0.94296 0.0
H406 H 0.10341 0.63138 -0.0041 0.0
H407 H 0.09742 0.51594 0.02973 0.0
C408 C 0.10402 0.54634 0.06937 0.0
C409 C 0.11039 0.58205 0.08439 0.0
C410 C 0.10145 0.60523 0.9844 0.0
C411 C 0.10784 0.57742 0.02757 0.0
C412 C 0.09468 0.60084 0.95612 0.0
C413 C 0.091 0.56686 0.94054 0.0
C414 C 0.10413 0.57516 -0.00261 0.0
C415 C 0.09572 0.53841 0.9542 0.0
C416 C 0.10296 0.544 0.04098 0.0
C417 C 0.11589 0.61501 0.07028 0.0
N418 N 0.10154 0.54293 0.98185 0.0
N419 N 0.11428 0.61181 0.04272 0.0
H420 H 0.60058 0.06114 0.3986 0.0
H421 H 0.73142 0.10818 0.25473 0.0
H422 H 0.7729 0.1252 0.38955 0.0
H423 H 0.56063 0.04788 0.26504 0.0
H424 H 0.75038 0.12204 0.30421 0.0
H425 H 0.58752 0.06225 0.34997 0.0
C426 C 0.63574 0.07568 0.38636 0.0
C427 C 0.68775 0.09275 0.398 0.0
C428 C 0.70889 0.10619 0.29563 0.0
C429 C 0.67322 0.09404 0.3423 0.0
C430 C 0.69818 0.09859 0.26739 0.0
C431 C 0.6442 0.07634 0.25576 0.0
C432 C 0.6653 0.09142 0.31233 0.0
C433 C 0.6026 0.06435 0.27316 0.0
C434 C 0.62834 0.07636 0.35859 0.0
C435 C 0.73201 0.11141 0.38128 0.0
N436 N 0.61389 0.07165 0.30051 0.0
N437 N 0.72366 0.11125 0.35422 0.0
H438 H 0.51423 0.52232 0.75454 0.0
H439 H 0.71933 0.57514 0.64262 0.0
H440 H 0.68473 0.58298 0.77582 0.0
H441 H 0.57767 0.56789 0.62688 0.0
H442 H 0.70839 0.57836 0.69141 0.0
H443 H 0.53672 0.539 0.70766 0.0
C444 C 0.55662 0.53969 0.74934 0.0
C445 C 0.59763 0.55106 0.76891 0.0
C446 C 0.68025 0.57679 0.67732 0.0
C447 C 0.62347 0.5695 0.7153 0.0
C448 C 0.68634 0.57477 0.64951 0.0
C449 C 0.64915 0.57101 0.63075 0.0
C450 C 0.63595 0.57408 0.68637 0.0
C451 C 0.60732 0.57093 0.64069 0.0
C452 C 0.56947 0.54929 0.72262 0.0
C453 C 0.65194 0.57364 0.76124 0.0
N454 N 0.6013 0.57169 0.6678 0.0
N455 N 0.66314 0.58145 0.73487 0.0
H456 H 0.55836 0.02479 0.54761 0.0
H457 H 0.72306 0.15384 0.68903 0.0
H458 H 0.73431 0.13962 0.55279 0.0
H459 H 0.58053 0.01044 0.67958 0.0
H460 H 0.7289 0.15131 0.63965 0.0
H461 H 0.56513 0.02017 0.59625 0.0
C462 C 0.59855 0.04883 0.55904 0.0
C463 C 0.64578 0.08282 0.54636 0.0
C464 C 0.69703 0.12025 0.64846 0.0
C465 C 0.65372 0.07824 0.60203 0.0
C466 C 0.6936 0.1217 0.67656 0.0
C467 C 0.65116 0.0823 0.68832 0.0
C468 C 0.6569 0.07936 0.63201 0.0
C469 C 0.61405 0.0415 0.67132 0.0
C470 C 0.60245 0.04605 0.58674 0.0
C471 C 0.69695 0.11297 0.56195 0.0
N472 N 0.61717 0.04125 0.64398 0.0
N473 N 0.69945 0.11051 0.58917 0.0
H474 H 0.68127 0.56053 0.93214 0.0
H475 H 0.42685 0.36624 0.01218 0.0
H476 H 0.50884 0.4891 0.90672 0.0
H477 H 0.59066 0.40557 0.02075 0.0
H478 H 0.45814 0.41741 0.97684 0.0
H479 H 0.65105 0.51098 0.9688 0.0
C480 C 0.63715 0.53466 0.93445 0.0
C481 C 0.59742 0.5287 0.91649 0.0
C482 C 0.48718 0.41477 0.98647 0.0
C483 C 0.56267 0.47231 0.95809 0.0
C484 C 0.46923 0.38528 0.00653 0.0
C485 C 0.50606 0.38136 0.01952 0.0
C486 C 0.54251 0.44094 0.97944 0.0
C487 C 0.56096 0.40789 0.01166 0.0
C488 C 0.61993 0.5063 0.95521 0.0
C489 C 0.54076 0.49464 0.92016 0.0
N490 N 0.57754 0.43661 0.99221 0.0
N491 N 0.52506 0.46777 0.94057 0.0
H492 H 0.16649 0.62486 0.23132 0.0
H493 H 0.16551 0.52982 0.37004 0.0
H494 H 0.15417 0.50644 0.23354 0.0
H495 H 0.16011 0.63878 0.36463 0.0
H496 H 0.15423 0.51617 0.32024 0.0
H497 H 0.159 0.62722 0.28021 0.0
C498 C 0.16186 0.59915 0.24213 0.0
C499 C 0.16092 0.5654 0.22842 0.0
C500 C 0.15484 0.54269 0.32999 0.0
C501 C 0.15289 0.56809 0.28458 0.0
C502 C 0.16085 0.55024 0.35839 0.0
C503 C 0.16444 0.58585 0.37142 0.0
C504 C 0.15249 0.57103 0.31465 0.0
C505 C 0.15852 0.61149 0.35537 0.0
C506 C 0.15756 0.60047 0.27008 0.0
C507 C 0.15523 0.53312 0.24343 0.0
N508 N 0.15342 0.60388 0.3279 0.0
N509 N 0.15176 0.53539 0.27078 0.0
loop_
_geom_bond_atom_site_label_1
_geom_bond_atom_site_label_2
_geom_bond_distance
_geom_bond_site_symmetry_2
_ccdc_geom_bond_type
La0 C2 2.928 . S
La0 O20 2.521 . S
La0 O21 2.628 . S
La0 O22 2.554 . S
La0 O23 2.757 . S
La0 O24 2.470 . S
La0 O29 2.482 . S
La0 O31 2.503 1_455 S
La1 C11 2.928 1_455 S
La1 O23 2.482 . S
La1 O25 2.503 . S
La1 O26 2.521 1_455 S
La1 O27 2.628 1_455 S
La1 O28 2.554 . S
La1 O29 2.757 . S
La1 O30 2.470 1_455 S
C2 La0 2.928 . S
C2 C3 1.503 . S
C2 O20 1.261 . S
C2 O21 1.243 . S
C3 C2 1.503 . S
C3 C4 1.394 . S
C3 C8 1.373 . S
C4 C3 1.394 . S
C4 C5 1.380 . S
C4 H32 0.930 . S
C5 C4 1.380 . S
C5 C6 1.376 . S
C5 H33 0.930 . S
C6 C5 1.376 . S
C6 C7 1.370 . S
C7 C6 1.370 . S
C7 C8 1.396 . S
C7 H34 0.929 . S
C8 C3 1.373 . S
C8 C7 1.396 . S
C8 H35 0.929 . S
C9 O22 1.240 . S
C9 O23 1.289 . S
C10 O24 1.258 . S
C10 O25 1.256 . S
C11 La1 2.928 1_655 S
C11 C12 1.503 . S
C11 O26 1.261 . S
C11 O27 1.243 . S
C12 C11 1.503 . S
C12 C13 1.394 . S
C12 C17 1.373 . S
C13 C12 1.394 . S
C13 C14 1.380 . S
C13 H36 0.930 . S
C14 C13 1.380 . S
C14 C15 1.376 . S
C14 H37 0.930 . S
C15 C14 1.376 . S
C15 C16 1.370 . S
C16 C15 1.370 . S
C16 C17 1.396 . S
C16 H38 0.929 . S
C17 C12 1.373 . S
C17 C16 1.396 . S
C17 H39 0.929 . S
C18 O28 1.240 . S
C18 O29 1.289 . S
C19 O30 1.258 . S
C19 O31 1.256 . S
O20 La0 2.521 . S
O20 C2 1.261 . S
O21 La0 2.628 . S
O21 C2 1.243 . S
O22 La0 2.554 . S
O22 C9 1.240 . S
O23 La0 2.757 . S
O23 La1 2.482 . S
O23 C9 1.289 . S
O24 La0 2.470 . S
O24 C10 1.258 . S
O25 La1 2.503 . S
O25 C10 1.256 . S
O26 La1 2.521 1_655 S
O26 C11 1.261 . S
O27 La1 2.628 1_655 S
O27 C11 1.243 . S
O28 La1 2.554 . S
O28 C18 1.240 . S
O29 La0 2.482 . S
O29 La1 2.757 . S
O29 C18 1.289 . S
O30 La1 2.470 1_655 S
O30 C19 1.258 . S
O31 La0 2.503 1_655 S
O31 C19 1.256 . S
H32 C4 0.930 . S
H33 C5 0.930 . S
H34 C7 0.929 . S
H35 C8 0.929 . S
H36 C13 0.930 . S
H37 C14 0.930 . S
H38 C16 0.929 . S
H39 C17 0.929 . S
La40 C42 2.928 1_545 S
La40 O60 2.521 1_545 S
La40 O61 2.628 1_545 S
La40 O62 2.554 . S
La40 O63 2.757 . S
La40 O64 2.470 1_545 S
La40 O69 2.482 . S
La40 O71 2.503 . S
La41 C51 2.928 . S
La41 O63 2.482 . S
La41 O65 2.503 1_545 S
La41 O66 2.521 . S
La41 O67 2.628 . S
La41 O68 2.554 . S
La41 O69 2.757 . S
La41 O70 2.470 . S
C42 La40 2.928 1_565 S
C42 C43 1.503 . S
C42 O60 1.261 . S
C42 O61 1.243 . S
C43 C42 1.503 . S
C43 C44 1.394 . S
C43 C48 1.373 . S
C44 C43 1.394 . S
C44 C45 1.380 . S
C44 H72 0.930 . S
C45 C44 1.380 . S
C45 C46 1.376 . S
C45 H73 0.930 . S
C46 C45 1.376 . S
C46 C47 1.370 . S
C47 C46 1.370 . S
C47 C48 1.396 . S
C47 H74 0.929 . S
C48 C43 1.373 . S
C48 C47 1.396 . S
C48 H75 0.929 . S
C49 O62 1.240 . S
C49 O63 1.289 . S
C50 O64 1.258 . S
C50 O65 1.256 . S
C51 La41 2.928 . S
C51 C52 1.503 . S
C51 O66 1.261 . S
C51 O67 1.243 . S
C52 C51 1.503 . S
C52 C53 1.394 . S
C52 C57 1.373 . S
C53 C52 1.394 . S
C53 C54 1.380 . S
C53 H76 0.930 . S
C54 C53 1.380 . S
C54 C55 1.376 . S
C54 H77 0.930 . S
C55 C54 1.376 . S
C55 C56 1.370 . S
C56 C55 1.370 . S
C56 C57 1.396 . S
C56 H78 0.929 . S
C57 C52 1.373 . S
C57 C56 1.396 . S
C57 H79 0.929 . S
C58 O68 1.240 . S
C58 O69 1.289 . S
C59 O70 1.258 . S
C59 O71 1.256 . S
O60 La40 2.521 1_565 S
O60 C42 1.261 . S
O61 La40 2.628 1_565 S
O61 C42 1.243 . S
O62 La40 2.554 . S
O62 C49 1.240 . S
O63 La40 2.757 . S
O63 La41 2.482 . S
O63 C49 1.289 . S
O64 La40 2.470 1_565 S
O64 C50 1.258 . S
O65 La41 2.503 1_565 S
O65 C50 1.256 . S
O66 La41 2.521 . S
O66 C51 1.261 . S
O67 La41 2.628 . S
O67 C51 1.243 . S
O68 La41 2.554 . S
O68 C58 1.240 . S
O69 La40 2.482 . S
O69 La41 2.757 . S
O69 C58 1.289 . S
O70 La41 2.470 . S
O70 C59 1.258 . S
O71 La40 2.503 . S
O71 C59 1.256 . S
H72 C44 0.930 . S
H73 C45 0.930 . S
H74 C47 0.929 . S
H75 C48 0.929 . S
H76 C53 0.930 . S
H77 C54 0.930 . S
H78 C56 0.929 . S
H79 C57 0.929 . S
La80 C82 2.928 . S
La80 O100 2.521 . S
La80 O101 2.628 . S
La80 O102 2.554 . S
La80 O103 2.757 . S
La80 O104 2.470 . S
La80 O109 2.482 . S
La80 O111 2.503 . S
La81 C91 2.928 . S
La81 O103 2.482 . S
La81 O105 2.503 . S
La81 O106 2.521 . S
La81 O107 2.628 . S
La81 O108 2.554 . S
La81 O109 2.757 . S
La81 O110 2.470 . S
C82 La80 2.928 . S
C82 C83 1.503 . S
C82 O100 1.261 . S
C82 O101 1.243 . S
C83 C82 1.503 . S
C83 C84 1.394 . S
C83 C88 1.373 . S
C84 C83 1.394 . S
C84 C85 1.380 . S
C84 H112 0.930 . S
C85 C84 1.380 . S
C85 C86 1.376 . S
C85 H113 0.930 . S
C86 C85 1.376 . S
C86 C87 1.370 . S
C87 C86 1.370 . S
C87 C88 1.396 . S
C87 H114 0.929 . S
C88 C83 1.373 . S
C88 C87 1.396 . S
C88 H115 0.929 . S
C89 O102 1.240 . S
C89 O103 1.289 . S
C90 O104 1.258 . S
C90 O105 1.256 . S
C91 La81 2.928 . S
C91 C92 1.503 . S
C91 O106 1.261 . S
C91 O107 1.243 . S
C92 C91 1.503 . S
C92 C93 1.394 . S
C92 C97 1.373 . S
C93 C92 1.394 . S
C93 C94 1.380 . S
C93 H116 0.930 . S
C94 C93 1.380 . S
C94 C95 1.376 . S
C94 H117 0.930 . S
C95 C94 1.376 . S
C95 C96 1.370 . S
C96 C95 1.370 . S
C96 C97 1.396 . S
C96 H118 0.929 . S
C97 C92 1.373 . S
C97 C96 1.396 . S
C97 H119 0.929 . S
C98 O108 1.240 . S
C98 O109 1.289 . S
C99 O110 1.258 . S
C99 O111 1.256 . S
O100 La80 2.521 . S
O100 C82 1.261 . S
O101 La80 2.628 . S
O101 C82 1.243 . S
O102 La80 2.554 . S
O102 C89 1.240 . S
O103 La80 2.757 . S
O103 La81 2.482 . S
O103 C89 1.289 . S
O104 La80 2.470 . S
O104 C90 1.258 . S
O105 La81 2.503 . S
O105 C90 1.256 . S
O106 La81 2.521 . S
O106 C91 1.261 . S
O107 La81 2.628 . S
O107 C91 1.243 . S
O108 La81 2.554 . S
O108 C98 1.240 . S
O109 La80 2.482 . S
O109 La81 2.757 . S
O109 C98 1.289 . S
O110 La81 2.470 . S
O110 C99 1.258 . S
O111 La80 2.503 . S
O111 C99 1.256 . S
H112 C84 0.930 . S
H113 C85 0.930 . S
H114 C87 0.929 . S
H115 C88 0.929 . S
H116 C93 0.930 . S
H117 C94 0.930 . S
H118 C96 0.929 . S
H119 C97 0.929 . S
H120 C123 0.929 . S
H121 C126 0.929 . S
H122 C128 0.930 . S
C123 H120 0.929 . S
C123 C124 1.398 . S
C123 C125 1.396 1_565 S
C124 C123 1.398 . S
C124 C128 1.407 1_565 S
C125 C123 1.396 1_545 S
C125 C126 1.394 . S
C126 H121 0.929 . S
C126 C125 1.394 . S
C126 C127 1.382 . S
C127 C126 1.382 . S
C127 C128 1.392 . S
C127 N129 1.420 . S
C128 H122 0.930 . S
C128 C124 1.407 1_545 S
C128 C127 1.392 . S
N129 C127 1.420 . S
N129 C130 1.244 . S
C130 N129 1.244 . S
H131 C134 0.929 . S
H132 C137 0.929 . S
H133 C139 0.930 . S
C134 H131 0.929 . S
C134 C135 1.398 . S
C134 C136 1.396 . S
C135 C134 1.398 . S
C135 C139 1.407 . S
C136 C134 1.396 . S
C136 C137 1.394 . S
C137 H132 0.929 . S
C137 C136 1.394 . S
C137 C138 1.382 . S
C138 C137 1.382 . S
C138 C139 1.392 . S
C138 N140 1.420 . S
C139 H133 0.930 . S
C139 C135 1.407 . S
C139 C138 1.392 . S
N140 C138 1.420 . S
N140 C141 1.244 . S
C141 N140 1.244 . S
H142 C145 0.929 . S
H143 C148 0.929 . S
H144 C150 0.930 . S
C145 H142 0.929 . S
C145 C146 1.398 . S
C145 C147 1.396 . S
C146 C145 1.398 . S
C146 C150 1.407 . S
C147 C145 1.396 . S
C147 C148 1.394 . S
C148 H143 0.929 . S
C148 C147 1.394 . S
C148 C149 1.382 . S
C149 C148 1.382 . S
C149 C150 1.392 . S
C149 N151 1.420 . S
C150 H144 0.930 . S
C150 C146 1.407 . S
C150 C149 1.392 . S
N151 C149 1.420 . S
N151 C152 1.244 . S
C152 N151 1.244 . S
H153 C156 0.929 . S
H154 C159 0.929 . S
H155 C161 0.930 . S
C156 H153 0.929 . S
C156 C157 1.398 . S
C156 C158 1.396 . S
C157 C156 1.398 . S
C157 C161 1.407 . S
C158 C156 1.396 . S
C158 C159 1.394 1_455 S
C159 H154 0.929 . S
C159 C158 1.394 1_655 S
C159 C160 1.382 . S
C160 C159 1.382 . S
C160 C161 1.392 1_655 S
C160 N162 1.420 . S
C161 H155 0.930 . S
C161 C157 1.407 . S
C161 C160 1.392 1_455 S
N162 C160 1.420 . S
N162 C163 1.244 . S
C163 N162 1.244 . S
H164 C167 0.929 . S
H165 C170 0.929 1_565 S
H166 C172 0.930 . S
C167 H164 0.929 . S
C167 C168 1.398 . S
C167 C169 1.396 . S
C168 C167 1.398 . S
C168 C172 1.407 . S
C169 C167 1.396 . S
C169 C170 1.394 . S
C170 H165 0.929 1_545 S
C170 C169 1.394 . S
C170 C171 1.382 . S
C171 C170 1.382 . S
C171 C172 1.392 . S
C171 N173 1.420 . S
C172 H166 0.930 . S
C172 C168 1.407 . S
C172 C171 1.392 . S
N173 C171 1.420 . S
N173 C174 1.244 1_545 S
C174 N173 1.244 1_565 S
H175 C178 0.929 . S
H176 C181 0.929 . S
H177 C183 0.930 . S
C178 H175 0.929 . S
C178 C179 1.398 . S
C178 C180 1.396 . S
C179 C178 1.398 . S
C179 C183 1.407 . S
C180 C178 1.396 . S
C180 C181 1.394 . S
C181 H176 0.929 . S
C181 C180 1.394 . S
C181 C182 1.382 . S
C182 C181 1.382 . S
C182 C183 1.392 . S
C182 N184 1.420 . S
C183 H177 0.930 . S
C183 C179 1.407 . S
C183 C182 1.392 . S
N184 C182 1.420 . S
N184 C185 1.244 . S
C185 N184 1.244 . S
H186 C192 0.930 . S
H187 C196 0.930 . S
H188 C201 0.929 . S
H189 C199 0.929 . S
H190 C194 0.929 . S
H191 C200 0.929 . S
C192 H186 0.930 . S
C192 C193 1.367 . S
C192 C200 1.378 . S
C193 C192 1.367 . S
C193 C201 1.433 . S
C194 H190 0.929 . S
C194 C196 1.378 . S
C194 C198 1.350 . S
C195 C198 1.463 . S
C195 C200 1.350 . S
C195 N203 1.427 . S
C196 H187 0.930 . S
C196 C194 1.378 . S
C196 C197 1.367 . S
C197 C196 1.367 . S
C197 C199 1.433 . S
C198 C194 1.350 . S
C198 C195 1.463 . S
C198 N202 1.427 . S
C199 H189 0.929 . S
C199 C197 1.433 . S
C199 N202 1.384 . S
C200 H191 0.929 . S
C200 C192 1.378 . S
C200 C195 1.350 . S
C201 H188 0.929 . S
C201 C193 1.433 . S
C201 N203 1.384 . S
N202 C198 1.427 . S
N202 C199 1.384 . S
N203 C195 1.427 . S
N203 C201 1.384 . S
H204 C210 0.930 . S
H205 C214 0.930 . S
H206 C219 0.929 . S
H207 C217 0.929 . S
H208 C212 0.929 . S
H209 C218 0.929 . S
C210 H204 0.930 . S
C210 C211 1.367 . S
C210 C218 1.378 . S
C211 C210 1.367 . S
C211 C219 1.433 . S
C212 H208 0.929 . S
C212 C214 1.378 . S
C212 C216 1.350 . S
C213 C216 1.463 . S
C213 C218 1.350 . S
C213 N221 1.427 . S
C214 H205 0.930 . S
C214 C212 1.378 . S
C214 C215 1.367 . S
C215 C214 1.367 . S
C215 C217 1.433 . S
C216 C212 1.350 . S
C216 C213 1.463 . S
C216 N220 1.427 . S
C217 H207 0.929 . S
C217 C215 1.433 . S
C217 N220 1.384 . S
C218 H209 0.929 . S
C218 C210 1.378 . S
C218 C213 1.350 . S
C219 H206 0.929 . S
C219 C211 1.433 . S
C219 N221 1.384 . S
N220 C216 1.427 . S
N220 C217 1.384 . S
N221 C213 1.427 . S
N221 C219 1.384 . S
H222 C228 0.930 . S
H223 C232 0.930 . S
H224 C237 0.929 . S
H225 C235 0.929 . S
H226 C230 0.929 . S
H227 C236 0.929 . S
C228 H222 0.930 . S
C228 C229 1.367 . S
C228 C236 1.378 . S
C229 C228 1.367 . S
C229 C237 1.433 . S
C230 H226 0.929 . S
C230 C232 1.378 . S
C230 C234 1.350 . S
C231 C234 1.463 . S
C231 C236 1.350 . S
C231 N239 1.427 . S
C232 H223 0.930 . S
C232 C230 1.378 . S
C232 C233 1.367 . S
C233 C232 1.367 . S
C233 C235 1.433 . S
C234 C230 1.350 . S
C234 C231 1.463 . S
C234 N238 1.427 . S
C235 H225 0.929 . S
C235 C233 1.433 . S
C235 N238 1.384 . S
C236 H227 0.929 . S
C236 C228 1.378 . S
C236 C231 1.350 . S
C237 H224 0.929 . S
C237 C229 1.433 . S
C237 N239 1.384 . S
N238 C234 1.427 . S
N238 C235 1.384 . S
N239 C231 1.427 . S
N239 C237 1.384 . S
H240 C246 0.930 . S
H241 C250 0.930 . S
H242 C255 0.929 . S
H243 C253 0.929 . S
H244 C248 0.929 . S
H245 C254 0.929 . S
C246 H240 0.930 . S
C246 C247 1.367 . S
C246 C254 1.378 . S
C247 C246 1.367 . S
C247 C255 1.433 . S
C248 H244 0.929 . S
C248 C250 1.378 . S
C248 C252 1.350 . S
C249 C252 1.463 . S
C249 C254 1.350 . S
C249 N257 1.427 . S
C250 H241 0.930 . S
C250 C248 1.378 . S
C250 C251 1.367 . S
C251 C250 1.367 . S
C251 C253 1.433 . S
C252 C248 1.350 . S
C252 C249 1.463 . S
C252 N256 1.427 . S
C253 H243 0.929 . S
C253 C251 1.433 . S
C253 N256 1.384 . S
C254 H245 0.929 . S
C254 C246 1.378 . S
C254 C249 1.350 . S
C255 H242 0.929 . S
C255 C247 1.433 . S
C255 N257 1.384 . S
N256 C252 1.427 . S
N256 C253 1.384 . S
N257 C249 1.427 . S
N257 C255 1.384 . S
H258 C264 0.930 . S
H259 C268 0.930 . S
H260 C273 0.929 . S
H261 C271 0.929 . S
H262 C266 0.929 . S
H263 C272 0.929 . S
C264 H258 0.930 . S
C264 C265 1.367 . S
C264 C272 1.378 . S
C265 C264 1.367 . S
C265 C273 1.433 . S
C266 H262 0.929 . S
C266 C268 1.378 . S
C266 C270 1.350 . S
C267 C270 1.463 . S
C267 C272 1.350 . S
C267 N275 1.427 . S
C268 H259 0.930 . S
C268 C266 1.378 . S
C268 C269 1.367 . S
C269 C268 1.367 . S
C269 C271 1.433 . S
C270 C266 1.350 . S
C270 C267 1.463 . S
C270 N274 1.427 . S
C271 H261 0.929 . S
C271 C269 1.433 . S
C271 N274 1.384 . S
C272 H263 0.929 . S
C272 C264 1.378 . S
C272 C267 1.350 . S
C273 H260 0.929 . S
C273 C265 1.433 . S
C273 N275 1.384 . S
N274 C270 1.427 . S
N274 C271 1.384 . S
N275 C267 1.427 . S
N275 C273 1.384 . S
H276 C282 0.930 . S
H277 C286 0.930 . S
H278 C291 0.929 . S
H279 C289 0.929 . S
H280 C284 0.929 . S
H281 C290 0.929 . S
C282 H276 0.930 . S
C282 C283 1.367 . S
C282 C290 1.378 . S
C283 C282 1.367 . S
C283 C291 1.433 . S
C284 H280 0.929 . S
C284 C286 1.378 . S
C284 C288 1.350 . S
C285 C288 1.463 . S
C285 C290 1.350 . S
C285 N293 1.427 . S
C286 H277 0.930 . S
C286 C284 1.378 . S
C286 C287 1.367 . S
C287 C286 1.367 . S
C287 C289 1.433 . S
C288 C284 1.350 . S
C288 C285 1.463 . S
C288 N292 1.427 . S
C289 H279 0.929 . S
C289 C287 1.433 . S
C289 N292 1.384 . S
C290 H281 0.929 . S
C290 C282 1.378 . S
C290 C285 1.350 . S
C291 H278 0.929 . S
C291 C283 1.433 . S
C291 N293 1.384 . S
N292 C288 1.427 . S
N292 C289 1.384 . S
N293 C285 1.427 . S
N293 C291 1.384 . S
H294 C300 0.930 . S
H295 C304 0.930 . S
H296 C309 0.929 . S
H297 C307 0.929 . S
H298 C302 0.929 . S
H299 C308 0.929 . S
C300 H294 0.930 . S
C300 C301 1.367 . S
C300 C308 1.378 . S
C301 C300 1.367 . S
C301 C309 1.433 . S
C302 H298 0.929 . S
C302 C304 1.378 . S
C302 C306 1.350 . S
C303 C306 1.463 . S
C303 C308 1.350 . S
C303 N311 1.427 . S
C304 H295 0.930 . S
C304 C302 1.378 . S
C304 C305 1.367 . S
C305 C304 1.367 . S
C305 C307 1.433 . S
C306 C302 1.350 . S
C306 C303 1.463 . S
C306 N310 1.427 . S
C307 H297 0.929 . S
C307 C305 1.433 . S
C307 N310 1.384 . S
C308 H299 0.929 . S
C308 C300 1.378 . S
C308 C303 1.350 . S
C309 H296 0.929 . S
C309 C301 1.433 . S
C309 N311 1.384 . S
N310 C306 1.427 . S
N310 C307 1.384 . S
N311 C303 1.427 . S
N311 C309 1.384 . S
H312 C318 0.930 . S
H313 C322 0.930 . S
H314 C327 0.929 . S
H315 C325 0.929 . S
H316 C320 0.929 . S
H317 C326 0.929 . S
C318 H312 0.930 . S
C318 C319 1.367 . S
C318 C326 1.378 . S
C319 C318 1.367 . S
C319 C327 1.433 . S
C320 H316 0.929 . S
C320 C322 1.378 . S
C320 C324 1.350 . S
C321 C324 1.463 . S
C321 C326 1.350 . S
C321 N329 1.427 . S
C322 H313 0.930 . S
C322 C320 1.378 . S
C322 C323 1.367 . S
C323 C322 1.367 . S
C323 C325 1.433 . S
C324 C320 1.350 . S
C324 C321 1.463 . S
C324 N328 1.427 . S
C325 H315 0.929 . S
C325 C323 1.433 . S
C325 N328 1.384 . S
C326 H317 0.929 . S
C326 C318 1.378 . S
C326 C321 1.350 . S
C327 H314 0.929 . S
C327 C319 1.433 . S
C327 N329 1.384 . S
N328 C324 1.427 . S
N328 C325 1.384 . S
N329 C321 1.427 . S
N329 C327 1.384 . S
H330 C336 0.930 . S
H331 C340 0.930 . S
H332 C345 0.929 . S
H333 C343 0.929 . S
H334 C338 0.929 . S
H335 C344 0.929 . S
C336 H330 0.930 . S
C336 C337 1.367 . S
C336 C344 1.378 . S
C337 C336 1.367 . S
C337 C345 1.433 . S
C338 H334 0.929 . S
C338 C340 1.378 . S
C338 C342 1.350 . S
C339 C342 1.463 . S
C339 C344 1.350 . S
C339 N347 1.427 . S
C340 H331 0.930 . S
C340 C338 1.378 . S
C340 C341 1.367 . S
C341 C340 1.367 . S
C341 C343 1.433 . S
C342 C338 1.350 . S
C342 C339 1.463 . S
C342 N346 1.427 . S
C343 H333 0.929 . S
C343 C341 1.433 . S
C343 N346 1.384 . S
C344 H335 0.929 . S
C344 C336 1.378 . S
C344 C339 1.350 . S
C345 H332 0.929 . S
C345 C337 1.433 . S
C345 N347 1.384 . S
N346 C342 1.427 . S
N346 C343 1.384 . S
N347 C339 1.427 . S
N347 C345 1.384 . S
H348 C354 0.930 . S
H349 C358 0.930 . S
H350 C363 0.929 . S
H351 C361 0.929 . S
H352 C356 0.929 . S
H353 C362 0.929 . S
C354 H348 0.930 . S
C354 C355 1.367 . S
C354 C362 1.378 . S
C355 C354 1.367 . S
C355 C363 1.433 . S
C356 H352 0.929 . S
C356 C358 1.378 . S
C356 C360 1.350 . S
C357 C360 1.463 . S
C357 C362 1.350 . S
C357 N365 1.427 . S
C358 H349 0.930 . S
C358 C356 1.378 . S
C358 C359 1.367 . S
C359 C358 1.367 . S
C359 C361 1.433 . S
C360 C356 1.350 . S
C360 C357 1.463 . S
C360 N364 1.427 . S
C361 H351 0.929 . S
C361 C359 1.433 . S
C361 N364 1.384 . S
C362 H353 0.929 . S
C362 C354 1.378 . S
C362 C357 1.350 . S
C363 H350 0.929 . S
C363 C355 1.433 . S
C363 N365 1.384 . S
N364 C360 1.427 . S
N364 C361 1.384 . S
N365 C357 1.427 . S
N365 C363 1.384 . S
H366 C372 0.930 . S
H367 C376 0.930 . S
H368 C381 0.929 . S
H369 C379 0.929 . S
H370 C374 0.929 . S
H371 C380 0.929 . S
C372 H366 0.930 . S
C372 C373 1.367 . S
C372 C380 1.378 . S
C373 C372 1.367 . S
C373 C381 1.433 . S
C374 H370 0.929 . S
C374 C376 1.378 . S
C374 C378 1.350 . S
C375 C378 1.463 . S
C375 C380 1.350 . S
C375 N383 1.427 . S
C376 H367 0.930 . S
C376 C374 1.378 . S
C376 C377 1.367 . S
C377 C376 1.367 . S
C377 C379 1.433 . S
C378 C374 1.350 . S
C378 C375 1.463 . S
C378 N382 1.427 . S
C379 H369 0.929 . S
C379 C377 1.433 . S
C379 N382 1.384 . S
C380 H371 0.929 . S
C380 C372 1.378 . S
C380 C375 1.350 . S
C381 H368 0.929 . S
C381 C373 1.433 . S
C381 N383 1.384 . S
N382 C378 1.427 . S
N382 C379 1.384 . S
N383 C375 1.427 . S
N383 C381 1.384 . S
H384 C390 0.930 . S
H385 C394 0.930 . S
H386 C399 0.929 . S
H387 C397 0.929 . S
H388 C392 0.929 . S
H389 C398 0.929 . S
C390 H384 0.930 . S
C390 C391 1.367 . S
C390 C398 1.378 . S
C391 C390 1.367 . S
C391 C399 1.433 . S
C392 H388 0.929 . S
C392 C394 1.378 . S
C392 C396 1.350 . S
C393 C396 1.463 . S
C393 C398 1.350 . S
C393 N401 1.427 . S
C394 H385 0.930 . S
C394 C392 1.378 . S
C394 C395 1.367 . S
C395 C394 1.367 . S
C395 C397 1.433 . S
C396 C392 1.350 . S
C396 C393 1.463 . S
C396 N400 1.427 . S
C397 H387 0.929 . S
C397 C395 1.433 . S
C397 N400 1.384 . S
C398 H389 0.929 . S
C398 C390 1.378 . S
C398 C393 1.350 . S
C399 H386 0.929 . S
C399 C391 1.433 . S
C399 N401 1.384 . S
N400 C396 1.427 . S
N400 C397 1.384 . S
N401 C393 1.427 . S
N401 C399 1.384 . S
H402 C408 0.930 1_655 S
H403 C412 0.930 . S
H404 C417 0.929 . S
H405 C415 0.929 1_655 S
H406 C410 0.929 . S
H407 C416 0.929 1_655 S
C408 H402 0.930 1_455 S
C408 C409 1.367 . S
C408 C416 1.378 . S
C409 C408 1.367 . S
C409 C417 1.433 . S
C410 H406 0.929 . S
C410 C412 1.378 . S
C410 C414 1.350 . S
C411 C414 1.463 1_554 S
C411 C416 1.350 . S
C411 N419 1.427 . S
C412 H403 0.930 . S
C412 C410 1.378 . S
C412 C413 1.367 . S
C413 C412 1.367 . S
C413 C415 1.433 . S
C414 C410 1.350 . S
C414 C411 1.463 1_556 S
C414 N418 1.427 . S
C415 H405 0.929 1_455 S
C415 C413 1.433 . S
C415 N418 1.384 . S
C416 H407 0.929 1_455 S
C416 C408 1.378 . S
C416 C411 1.350 . S
C417 H404 0.929 . S
C417 C409 1.433 . S
C417 N419 1.384 . S
N418 C414 1.427 . S
N418 C415 1.384 . S
N419 C411 1.427 . S
N419 C417 1.384 . S
H420 C426 0.930 . S
H421 C430 0.930 . S
H422 C435 0.929 . S
H423 C433 0.929 1_565 S
H424 C428 0.929 . S
H425 C434 0.929 1_565 S
C426 H420 0.930 . S
C426 C427 1.367 1_565 S
C426 C434 1.378 1_565 S
C427 C426 1.367 1_545 S
C427 C435 1.433 . S
C428 H424 0.929 . S
C428 C430 1.378 . S
C428 C432 1.350 . S
C429 C432 1.463 . S
C429 C434 1.350 . S
C429 N437 1.427 . S
C430 H421 0.930 . S
C430 C428 1.378 . S
C430 C431 1.367 . S
C431 C430 1.367 . S
C431 C433 1.433 . S
C432 C428 1.350 . S
C432 C429 1.463 . S
C432 N436 1.427 . S
C433 H423 0.929 1_545 S
C433 C431 1.433 . S
C433 N436 1.384 . S
C434 H425 0.929 1_545 S
C434 C426 1.378 1_545 S
C434 C429 1.350 . S
C435 H422 0.929 . S
C435 C427 1.433 . S
C435 N437 1.384 . S
N436 C432 1.427 . S
N436 C433 1.384 . S
N437 C429 1.427 . S
N437 C435 1.384 . S
H438 C444 0.930 . S
H439 C448 0.930 . S
H440 C453 0.929 . S
H441 C451 0.929 . S
H442 C446 0.929 . S
H443 C452 0.929 . S
C444 H438 0.930 . S
C444 C445 1.367 . S
C444 C452 1.378 . S
C445 C444 1.367 . S
C445 C453 1.433 . S
C446 H442 0.929 . S
C446 C448 1.378 . S
C446 C450 1.350 . S
C447 C450 1.463 . S
C447 C452 1.350 . S
C447 N455 1.427 . S
C448 H439 0.930 . S
C448 C446 1.378 . S
C448 C449 1.367 . S
C449 C448 1.367 . S
C449 C451 1.433 . S
C450 C446 1.350 . S
C450 C447 1.463 . S
C450 N454 1.427 . S
C451 H441 0.929 . S
C451 C449 1.433 . S
C451 N454 1.384 . S
C452 H443 0.929 . S
C452 C444 1.378 . S
C452 C447 1.350 . S
C453 H440 0.929 . S
C453 C445 1.433 . S
C453 N455 1.384 . S
N454 C450 1.427 . S
N454 C451 1.384 . S
N455 C447 1.427 . S
N455 C453 1.384 . S
H456 C462 0.930 1_565 S
H457 C466 0.930 . S
H458 C471 0.929 . S
H459 C469 0.929 . S
H460 C464 0.929 . S
H461 C470 0.907 1_565 S
C462 H456 0.930 1_545 S
C462 C463 1.367 . S
C462 C470 1.383 . S
C463 C462 1.367 . S
C463 C471 1.433 . S
C464 H460 0.929 . S
C464 C466 1.378 . S
C464 C468 1.350 . S
C465 C468 1.463 . S
C465 C470 1.367 . S
C465 N473 1.427 . S
C466 H457 0.930 . S
C466 C464 1.378 . S
C466 C467 1.367 . S
C467 C466 1.367 . S
C467 C469 1.433 1_545 S
C468 C464 1.350 . S
C468 C465 1.463 . S
C468 N472 1.395 1_545 S
C469 H459 0.929 . S
C469 C467 1.433 1_565 S
C469 N472 1.392 . S
C470 H461 0.907 1_545 S
C470 C462 1.383 . S
C470 C465 1.367 . S
C471 H458 0.929 . S
C471 C463 1.433 . S
C471 N473 1.384 . S
N472 C468 1.395 1_565 S
N472 C469 1.392 . S
N473 C465 1.427 . S
N473 C471 1.384 . S
H474 C480 0.930 . S
H475 C484 0.930 . S
H476 C489 0.929 . S
H477 C487 0.929 . S
H478 C482 0.929 1_556 S
H479 C488 0.929 . S
C480 H474 0.930 . S
C480 C481 1.367 . S
C480 C488 1.378 . S
C481 C480 1.367 . S
C481 C489 1.433 . S
C482 H478 0.929 1_554 S
C482 C484 1.378 . S
C482 C486 1.350 1_554 S
C483 C486 1.463 . S
C483 C488 1.350 . S
C483 N491 1.427 . S
C484 H475 0.930 . S
C484 C482 1.378 . S
C484 C485 1.367 . S
C485 C484 1.367 . S
C485 C487 1.433 . S
C486 C482 1.350 1_556 S
C486 C483 1.463 . S
C486 N490 1.427 1_556 S
C487 H477 0.929 . S
C487 C485 1.433 . S
C487 N490 1.384 . S
C488 H479 0.929 . S
C488 C480 1.378 . S
C488 C483 1.350 . S
C489 H476 0.929 . S
C489 C481 1.433 . S
C489 N491 1.384 . S
N490 C486 1.427 1_554 S
N490 C487 1.384 . S
N491 C483 1.427 . S
N491 C489 1.384 . S
H492 C498 0.930 . S
H493 C502 0.930 . S
H494 C507 0.929 . S
H495 C505 0.929 . S
H496 C500 0.929 . S
H497 C506 0.929 . S
C498 H492 0.930 . S
C498 C499 1.367 . S
C498 C506 1.378 . S
C499 C498 1.367 . S
C499 C507 1.433 . S
C500 H496 0.929 . S
C500 C502 1.378 . S
C500 C504 1.350 . S
C501 C504 1.463 . S
C501 C506 1.350 . S
C501 N509 1.427 . S
C502 H493 0.930 . S
C502 C500 1.378 . S
C502 C503 1.367 . S
C503 C502 1.367 . S
C503 C505 1.433 . S
C504 C500 1.350 . S
C504 C501 1.463 . S
C504 N508 1.427 . S
C505 H495 0.929 . S
C505 C503 1.433 . S
C505 N508 1.384 . S
C506 H497 0.929 . S
C506 C498 1.378 . S
C506 C501 1.350 . S
C507 H494 0.929 . S
C507 C499 1.433 . S
C507 N509 1.384 . S
N508 C504 1.427 . S
N508 C505 1.384 . S
N509 C501 1.427 . S
N509 C507 1.384 . S
C193 C6 0.707 . S
C197 C185 0.717 . S
C211 C59 1.942 . S
C215 C163 1.897 . S
C229 C86 1.285 . S
C233 C174 1.281 . S
C247 C15 0.333 . S
C251 C179 0.205 . S
C269 C157 1.836 . S
C265 C50 1.865 . S
C287 C168 1.157 . S
C283 C95 1.166 . S
C301 C46 1.297 . S
C305 C141 1.289 . S
C319 C99 3.046 . S
C323 C146 3.010 1_655 S
C337 C10 1.879 . S
C341 C124 1.866 . S
C359 C135 1.147 . S
C355 C55 1.152 . S
C377 C152 3.025 . S
C373 C90 3.057 . S
C391 C19 1.948 . S
C395 C130 1.916 . S
C413 C147 1.735 . S
C409 C18 1.695 . S
C427 C49 1.406 . S
C431 C125 1.472 . S
C445 C98 1.497 . S
C449 C136 1.544 . S
C467 C169 1.515 . S
C463 C58 1.506 . S
C485 C180 1.256 . S
C481 C89 1.238 . S
C499 C9 1.391 . S
C503 C158 1.436 . S
