# Generated by pormake.
# Topology eea, (3,6)-cn, num edge types: 1
# Building blocks:
#     Node 0, Type 0, BuildingBlock: PAMTOO_clean_linker_0, # of connection points: 3
#     Node 1, Type 0, BuildingBlock: PAMTOO_clean_linker_0, # of connection points: 3
#     Node 2, Type 0, BuildingBlock: PAMTOO_clean_linker_0, # of connection points: 3
#     Node 3, Type 0, BuildingBlock: PAMTOO_clean_linker_0, # of connection points: 3
#     Node 4, Type 0, BuildingBlock: PAMTOO_clean_linker_0, # of connection points: 3
#     Node 5, Type 0, BuildingBlock: PAMTOO_clean_linker_0, # of connection points: 3
#     Node 6, Type 0, BuildingBlock: PAMTOO_clean_linker_0, # of connection points: 3
#     Node 7, Type 0, BuildingBlock: PAMTOO_clean_linker_0, # of connection points: 3
#     Node 8, Type 0, BuildingBlock: PAMTOO_clean_linker_0, # of connection points: 3
#     Node 9, Type 0, BuildingBlock: PAMTOO_clean_linker_0, # of connection points: 3
#     Node 10, Type 0, BuildingBlock: PAMTOO_clean_linker_0, # of connection points: 3
#     Node 11, Type 0, BuildingBlock: PAMTOO_clean_linker_0, # of connection points: 3
#     Node 12, Type 0, BuildingBlock: PAMTOO_clean_linker_0, # of connection points: 3
#     Node 13, Type 0, BuildingBlock: PAMTOO_clean_linker_0, # of connection points: 3
#     Node 14, Type 0, BuildingBlock: PAMTOO_clean_linker_0, # of connection points: 3
#     Node 15, Type 0, BuildingBlock: PAMTOO_clean_linker_0, # of connection points: 3
#     Node 16, Type 0, BuildingBlock: PAMTOO_clean_linker_0, # of connection points: 3
#     Node 17, Type 0, BuildingBlock: PAMTOO_clean_linker_0, # of connection points: 3
#     Node 18, Type 1, BuildingBlock: KUMJIN_clean_sbu_0, # of connection points: 6
#     Node 19, Type 1, BuildingBlock: KUMJIN_clean_sbu_0, # of connection points: 6
#     Node 20, Type 1, BuildingBlock: KUMJIN_clean_sbu_0, # of connection points: 6
#     Node 21, Type 1, BuildingBlock: KUMJIN_clean_sbu_0, # of connection points: 6
#     Node 22, Type 1, BuildingBlock: KUMJIN_clean_sbu_0, # of connection points: 6
#     Node 23, Type 1, BuildingBlock: KUMJIN_clean_sbu_0, # of connection points: 6
#     Node 24, Type 1, BuildingBlock: KUMJIN_clean_sbu_0, # of connection points: 6
#     Node 25, Type 1, BuildingBlock: KUMJIN_clean_sbu_0, # of connection points: 6
#     Node 26, Type 1, BuildingBlock: KUMJIN_clean_sbu_0, # of connection points: 6
#     Edge 27, Type (0, 1), BuildingBlock: KIFKEQ_clean_linker_1, # of connection points: 2
#     Edge 28, Type (0, 1), BuildingBlock: KIFKEQ_clean_linker_1, # of connection points: 2
#     Edge 29, Type (0, 1), BuildingBlock: KIFKEQ_clean_linker_1, # of connection points: 2
#     Edge 30, Type (0, 1), BuildingBlock: KIFKEQ_clean_linker_1, # of connection points: 2
#     Edge 31, Type (0, 1), BuildingBlock: KIFKEQ_clean_linker_1, # of connection points: 2
#     Edge 32, Type (0, 1), BuildingBlock: KIFKEQ_clean_linker_1, # of connection points: 2
#     Edge 33, Type (0, 1), BuildingBlock: KIFKEQ_clean_linker_1, # of connection points: 2
#     Edge 34, Type (0, 1), BuildingBlock: KIFKEQ_clean_linker_1, # of connection points: 2
#     Edge 35, Type (0, 1), BuildingBlock: KIFKEQ_clean_linker_1, # of connection points: 2
#     Edge 36, Type (0, 1), BuildingBlock: KIFKEQ_clean_linker_1, # of connection points: 2
#     Edge 37, Type (0, 1), BuildingBlock: KIFKEQ_clean_linker_1, # of connection points: 2
#     Edge 38, Type (0, 1), BuildingBlock: KIFKEQ_clean_linker_1, # of connection points: 2
#     Edge 39, Type (0, 1), BuildingBlock: KIFKEQ_clean_linker_1, # of connection points: 2
#     Edge 40, Type (0, 1), BuildingBlock: KIFKEQ_clean_linker_1, # of connection points: 2
#     Edge 41, Type (0, 1), BuildingBlock: KIFKEQ_clean_linker_1, # of connection points: 2
#     Edge 42, Type (0, 1), BuildingBlock: KIFKEQ_clean_linker_1, # of connection points: 2
#     Edge 43, Type (0, 1), BuildingBlock: KIFKEQ_clean_linker_1, # of connection points: 2
#     Edge 44, Type (0, 1), BuildingBlock: KIFKEQ_clean_linker_1, # of connection points: 2
#     Edge 45, Type (0, 1), BuildingBlock: KIFKEQ_clean_linker_1, # of connection points: 2
#     Edge 46, Type (0, 1), BuildingBlock: KIFKEQ_clean_linker_1, # of connection points: 2
#     Edge 47, Type (0, 1), BuildingBlock: KIFKEQ_clean_linker_1, # of connection points: 2
#     Edge 48, Type (0, 1), BuildingBlock: KIFKEQ_clean_linker_1, # of connection points: 2
#     Edge 49, Type (0, 1), BuildingBlock: KIFKEQ_clean_linker_1, # of connection points: 2
#     Edge 50, Type (0, 1), BuildingBlock: KIFKEQ_clean_linker_1, # of connection points: 2
#     Edge 51, Type (0, 1), BuildingBlock: KIFKEQ_clean_linker_1, # of connection points: 2
#     Edge 52, Type (0, 1), BuildingBlock: KIFKEQ_clean_linker_1, # of connection points: 2
#     Edge 53, Type (0, 1), BuildingBlock: KIFKEQ_clean_linker_1, # of connection points: 2
#     Edge 54, Type (0, 1), BuildingBlock: KIFKEQ_clean_linker_1, # of connection points: 2
#     Edge 55, Type (0, 1), BuildingBlock: KIFKEQ_clean_linker_1, # of connection points: 2
#     Edge 56, Type (0, 1), BuildingBlock: KIFKEQ_clean_linker_1, # of connection points: 2
#     Edge 57, Type (0, 1), BuildingBlock: KIFKEQ_clean_linker_1, # of connection points: 2
#     Edge 58, Type (0, 1), BuildingBlock: KIFKEQ_clean_linker_1, # of connection points: 2
#     Edge 59, Type (0, 1), BuildingBlock: KIFKEQ_clean_linker_1, # of connection points: 2
#     Edge 60, Type (0, 1), BuildingBlock: KIFKEQ_clean_linker_1, # of connection points: 2
#     Edge 61, Type (0, 1), BuildingBlock: KIFKEQ_clean_linker_1, # of connection points: 2
#     Edge 62, Type (0, 1), BuildingBlock: KIFKEQ_clean_linker_1, # of connection points: 2
#     Edge 63, Type (0, 1), BuildingBlock: KIFKEQ_clean_linker_1, # of connection points: 2
#     Edge 64, Type (0, 1), BuildingBlock: KIFKEQ_clean_linker_1, # of connection points: 2
#     Edge 65, Type (0, 1), BuildingBlock: KIFKEQ_clean_linker_1, # of connection points: 2
#     Edge 66, Type (0, 1), BuildingBlock: KIFKEQ_clean_linker_1, # of connection points: 2
#     Edge 67, Type (0, 1), BuildingBlock: KIFKEQ_clean_linker_1, # of connection points: 2
#     Edge 68, Type (0, 1), BuildingBlock: KIFKEQ_clean_linker_1, # of connection points: 2
#     Edge 69, Type (0, 1), BuildingBlock: KIFKEQ_clean_linker_1, # of connection points: 2
#     Edge 70, Type (0, 1), BuildingBlock: KIFKEQ_clean_linker_1, # of connection points: 2
#     Edge 71, Type (0, 1), BuildingBlock: KIFKEQ_clean_linker_1, # of connection points: 2
#     Edge 72, Type (0, 1), BuildingBlock: KIFKEQ_clean_linker_1, # of connection points: 2
#     Edge 73, Type (0, 1), BuildingBlock: KIFKEQ_clean_linker_1, # of connection points: 2
#     Edge 74, Type (0, 1), BuildingBlock: KIFKEQ_clean_linker_1, # of connection points: 2
#     Edge 75, Type (0, 1), BuildingBlock: KIFKEQ_clean_linker_1, # of connection points: 2
#     Edge 76, Type (0, 1), BuildingBlock: KIFKEQ_clean_linker_1, # of connection points: 2
#     Edge 77, Type (0, 1), BuildingBlock: KIFKEQ_clean_linker_1, # of connection points: 2
#     Edge 78, Type (0, 1), BuildingBlock: KIFKEQ_clean_linker_1, # of connection points: 2
#     Edge 79, Type (0, 1), BuildingBlock: KIFKEQ_clean_linker_1, # of connection points: 2
#     Edge 80, Type (0, 1), BuildingBlock: KIFKEQ_clean_linker_1, # of connection points: 2
# Relax obj value: 0.023
# Max RMSD: 0.164
# Mean RMSD: 0.119
data_MOF--net-eea--node1-KUMJIN_clean_sbu_0--node2-PAMTOO_clean_linker_0--edge1-KIFKEQ_clean_linker_1
_symmetry_space_group_name_H-M    P1
_symmetry_Int_Tables_number       1
_symmetry_cell_setting            triclinic
loop_
_symmetry_equiv_pos_as_xyz
'x, y, z'
_cell_length_a     54.961801
_cell_length_b     56.651982
_cell_length_c     66.950638
_cell_angle_alpha  89.9103
_cell_angle_beta   89.890904
_cell_angle_gamma 119.98636
loop_
_atom_site_label
_atom_site_type_symbol
_atom_site_fract_x
_atom_site_fract_y
_atom_site_fract_z
_atom_type_partial_charge
H0 H 0.26497 0.0825 0.43354 0.0
H1 H 0.26295 0.15734 0.43102 0.0
H2 H 0.22196 0.09712 0.38547 0.0
H3 H 0.24768 0.15104 0.36844 0.0
C4 C 0.25087 0.16306 0.38227 0.0
O5 O 0.23482 0.14581 0.39754 0.0
H6 H 0.27353 0.17327 0.38635 0.0
C7 C 0.25826 0.09531 0.42615 0.0
C8 C 0.24233 0.08628 0.40851 0.0
C9 C 0.26552 0.12069 0.43454 0.0
C10 C 0.2573 0.13758 0.42486 0.0
C11 C 0.24213 0.1292 0.40699 0.0
C12 C 0.23434 0.10352 0.39901 0.0
H13 H 0.95174 0.18073 0.43651 0.0
H14 H 0.8819 0.09852 0.43373 0.0
H15 H 0.93662 0.13242 0.38341 0.0
H16 H 0.87776 0.09662 0.37098 0.0
C17 C 0.86948 0.08615 0.38555 0.0
O18 O 0.89166 0.08978 0.39736 0.0
H19 H 0.85796 0.09547 0.39269 0.0
C20 C 0.93951 0.16183 0.42849 0.0
C21 C 0.94771 0.15938 0.40895 0.0
C22 C 0.91561 0.14022 0.43771 0.0
C23 C 0.90005 0.11576 0.42705 0.0
C24 C 0.90758 0.11316 0.40756 0.0
C25 C 0.93136 0.13478 0.3986 0.0
H26 H 0.84627 0.77775 0.43374 0.0
H27 H 0.92964 0.78813 0.43504 0.0
H28 H 0.90369 0.81803 0.38521 0.0
H29 H 0.94136 0.79825 0.3717 0.0
C30 C 0.94935 0.79637 0.38652 0.0
O31 O 0.94481 0.81208 0.40023 0.0
H32 H 0.9373 0.77446 0.39088 0.0
C33 C 0.86686 0.78521 0.42712 0.0
C34 C 0.87258 0.79848 0.40853 0.0
C35 C 0.88726 0.78151 0.43714 0.0
C36 C 0.91346 0.79056 0.42773 0.0
C37 C 0.91936 0.80344 0.40896 0.0
C38 C 0.89902 0.80779 0.39955 0.0
H39 H 0.0787 0.23816 0.6034 0.0
H40 H 0.1534 0.23139 0.60591 0.0
H41 H 0.09314 0.19929 0.65372 0.0
H42 H 0.15039 0.2158 0.66958 0.0
C43 C 0.16098 0.22128 0.65477 0.0
O44 O 0.14155 0.20605 0.6402 0.0
H45 H 0.16898 0.24341 0.65219 0.0
C46 C 0.09157 0.23138 0.61094 0.0
C47 C 0.08285 0.21823 0.62959 0.0
C48 C 0.11703 0.2363 0.60218 0.0
C49 C 0.13382 0.22794 0.61242 0.0
C50 C 0.12528 0.21453 0.63089 0.0
C51 C 0.09967 0.20954 0.6394 0.0
H52 H 0.78024 0.84299 0.59911 0.0
H53 H 0.7833 0.92016 0.60619 0.0
H54 H 0.8158 0.89103 0.65206 0.0
H55 H 0.78856 0.92136 0.66838 0.0
C56 C 0.78859 0.93168 0.65422 0.0
O57 O 0.80726 0.9306 0.64097 0.0
H58 H 0.76685 0.9208 0.64809 0.0
C59 C 0.78553 0.86105 0.60779 0.0
C60 C 0.79841 0.86441 0.62653 0.0
C61 C 0.78017 0.88114 0.60003 0.0
C62 C 0.78777 0.90464 0.61145 0.0
C63 C 0.80054 0.90809 0.6301 0.0
C64 C 0.80609 0.88819 0.63753 0.0
H65 H 0.18223 0.93807 0.60241 0.0
H66 H 0.10225 0.86421 0.60485 0.0
H67 H 0.12345 0.92558 0.64966 0.0
H68 H 0.08841 0.8727 0.66791 0.0
C69 C 0.0833 0.86038 0.65404 0.0
O70 O 0.08549 0.87662 0.63788 0.0
H71 H 0.09871 0.85316 0.65244 0.0
C72 C 0.16207 0.92576 0.60966 0.0
C73 C 0.15541 0.93547 0.62698 0.0
C74 C 0.14301 0.90036 0.60139 0.0
C75 C 0.11707 0.88399 0.61092 0.0
C76 C 0.11032 0.89289 0.62852 0.0
C77 C 0.12927 0.91871 0.63634 0.0
H78 H 0.92157 0.40655 0.77071 0.0
H79 H 0.91419 0.47881 0.77315 0.0
H80 H 0.88402 0.42645 0.72204 0.0
H81 H 0.91332 0.48404 0.71129 0.0
C82 C 0.9108 0.49287 0.72545 0.0
O83 O 0.89199 0.47213 0.73773 0.0
H84 H 0.93178 0.50408 0.73271 0.0
C85 C 0.91488 0.4199 0.76418 0.0
C86 C 0.90203 0.41352 0.74534 0.0
C87 C 0.91918 0.44322 0.7746 0.0
C88 C 0.91105 0.46063 0.76556 0.0
C89 C 0.89867 0.45468 0.74659 0.0
C90 C 0.89368 0.43091 0.73668 0.0
H91 H 0.62213 0.51132 0.77142 0.0
H92 H 0.54747 0.43302 0.76467 0.0
H93 H 0.60439 0.46787 0.71556 0.0
H94 H 0.54379 0.43215 0.70256 0.0
C95 C 0.53598 0.42176 0.71721 0.0
O96 O 0.55851 0.42503 0.72845 0.0
H97 H 0.52508 0.43141 0.72477 0.0
C98 C 0.60858 0.49401 0.76219 0.0
C99 C 0.61647 0.49291 0.74227 0.0
C100 C 0.58359 0.47279 0.77052 0.0
C101 C 0.56695 0.44961 0.75884 0.0
C102 C 0.5747 0.4478 0.73924 0.0
C103 C 0.59921 0.46942 0.73093 0.0
H104 H 0.51166 0.11265 0.767 0.0
H105 H 0.59368 0.11979 0.76762 0.0
H106 H 0.5686 0.15053 0.71783 0.0
H107 H 0.60619 0.13167 0.70358 0.0
C108 C 0.61235 0.1274 0.71836 0.0
O109 O 0.60899 0.14322 0.73268 0.0
H110 H 0.59821 0.1054 0.72184 0.0
C111 C 0.53201 0.11935 0.76022 0.0
C112 C 0.5378 0.1323 0.7415 0.0
C113 C 0.55195 0.11477 0.77007 0.0
C114 C 0.57782 0.12282 0.76043 0.0
C115 C 0.58383 0.13551 0.7416 0.0
C116 C 0.56389 0.14054 0.73228 0.0
H117 H 0.74948 0.57198 0.93662 0.0
H118 H 0.82366 0.56408 0.93957 0.0
H119 H 0.76349 0.53368 0.98735 0.0
H120 H 0.82223 0.55253 1.00237 0.0
C121 C 0.83204 0.55485 0.98742 0.0
O122 O 0.81129 0.53903 0.97381 0.0
H123 H 0.84212 0.57682 0.98329 0.0
C124 C 0.76261 0.56566 0.94433 0.0
C125 C 0.75376 0.55286 0.96308 0.0
C126 C 0.78765 0.56964 0.93534 0.0
C127 C 0.80398 0.56079 0.94575 0.0
C128 C 0.79539 0.54787 0.9644 0.0
C129 C 0.77013 0.5437 0.97296 0.0
H130 H 0.44517 0.17531 0.93276 0.0
H131 H 0.45902 0.25732 0.93645 0.0
H132 H 0.489 0.22649 0.98272 0.0
H133 H 0.46591 0.25831 0.99946 0.0
C134 C 0.46489 0.26846 0.9855 0.0
O135 O 0.48241 0.26701 0.97136 0.0
H136 H 0.44269 0.25759 0.98026 0.0
C137 C 0.45372 0.19478 0.94022 0.0
C138 C 0.46817 0.19862 0.95833 0.0
C139 C 0.45028 0.2158 0.93185 0.0
C140 C 0.46101 0.24056 0.94234 0.0
C141 C 0.47439 0.24406 0.96073 0.0
C142 C 0.47852 0.22343 0.96847 0.0
H143 H 0.85107 0.27027 0.9397 0.0
H144 H 0.76965 0.19763 0.93935 0.0
H145 H 0.79199 0.25538 0.9871 0.0
H146 H 0.7557 0.20241 1.00299 0.0
C147 C 0.75021 0.1908 0.98877 0.0
O148 O 0.75291 0.20809 0.9732 0.0
H149 H 0.7651 0.18305 0.98655 0.0
C150 C 0.83076 0.25742 0.94664 0.0
C151 C 0.82413 0.2658 0.96459 0.0
C152 C 0.81121 0.23311 0.9372 0.0
C153 C 0.78481 0.2167 0.94619 0.0
C154 C 0.77799 0.2246 0.96425 0.0
C155 C 0.79742 0.24941 0.97317 0.0
H156 H 0.58925 0.73985 0.10224 0.0
H157 H 0.58058 0.81137 0.10517 0.0
H158 H 0.54954 0.75854 0.05437 0.0
H159 H 0.57351 0.81395 0.04191 0.0
C160 C 0.5748 0.82371 0.05656 0.0
O161 O 0.55731 0.80408 0.0701 0.0
H162 H 0.59695 0.83354 0.06187 0.0
C163 C 0.58206 0.75291 0.09591 0.0
C164 C 0.56873 0.74629 0.07724 0.0
C165 C 0.58619 0.77612 0.1064 0.0
C166 C 0.57754 0.79325 0.09755 0.0
C167 C 0.56456 0.78696 0.07879 0.0
C168 C 0.55961 0.76322 0.06887 0.0
H169 H 0.28812 0.84448 0.10535 0.0
H170 H 0.21391 0.76573 0.09909 0.0
H171 H 0.27128 0.79972 0.05016 0.0
H172 H 0.2117 0.76361 0.03684 0.0
C173 C 0.20344 0.75326 0.05145 0.0
O174 O 0.22564 0.75694 0.06326 0.0
H175 H 0.19197 0.76265 0.05854 0.0
C176 C 0.27474 0.82693 0.09628 0.0
C177 C 0.28288 0.82543 0.0765 0.0
C178 C 0.24974 0.8058 0.10467 0.0
C179 C 0.23338 0.78228 0.09322 0.0
C180 C 0.24145 0.78006 0.0738 0.0
C181 C 0.26592 0.8016 0.06541 0.0
H182 H 0.1761 0.43081 0.09843 0.0
H183 H 0.26002 0.44293 0.09895 0.0
H184 H 0.23573 0.48031 0.05314 0.0
H185 H 0.27547 0.46403 0.03699 0.0
C186 C 0.28247 0.45973 0.05143 0.0
O187 O 0.27678 0.47294 0.06657 0.0
H188 H 0.27029 0.43725 0.05377 0.0
C189 C 0.19687 0.43949 0.09184 0.0
C190 C 0.2033 0.45601 0.07472 0.0
C191 C 0.21724 0.43497 0.10097 0.0
C192 C 0.24419 0.44654 0.09233 0.0
C193 C 0.2508 0.46249 0.07493 0.0
C194 C 0.23049 0.46769 0.0664 0.0
H195 H 0.41636 0.9078 0.26991 0.0
H196 H 0.48945 0.89841 0.27304 0.0
H197 H 0.42782 0.86654 0.32001 0.0
H198 H 0.48411 0.88103 0.33674 0.0
C199 C 0.49516 0.88708 0.32211 0.0
O200 O 0.47617 0.87249 0.30713 0.0
H201 H 0.50327 0.90931 0.32001 0.0
C202 C 0.42859 0.90033 0.27753 0.0
C203 C 0.41904 0.88678 0.29598 0.0
C204 C 0.45392 0.90458 0.269 0.0
C205 C 0.46991 0.89539 0.27935 0.0
C206 C 0.46059 0.88164 0.29765 0.0
C207 C 0.43497 0.87709 0.30584 0.0
H208 H 0.11086 0.51037 0.26762 0.0
H209 H 0.11648 0.58853 0.27424 0.0
H210 H 0.14915 0.55932 0.31997 0.0
H211 H 0.12877 0.59387 0.33753 0.0
C212 C 0.12547 0.60167 0.32314 0.0
O213 O 0.14205 0.5995 0.30857 0.0
H214 H 0.10285 0.58919 0.31907 0.0
C215 C 0.11728 0.52875 0.2762 0.0
C216 C 0.1306 0.53212 0.29479 0.0
C217 C 0.11189 0.54888 0.26868 0.0
C218 C 0.12023 0.57266 0.27983 0.0
C219 C 0.13381 0.57637 0.29814 0.0
C220 C 0.13906 0.55626 0.30557 0.0
H221 H 0.51891 0.60465 0.27165 0.0
H222 H 0.4375 0.53202 0.27032 0.0
H223 H 0.45917 0.58867 0.31876 0.0
H224 H 0.42617 0.534 0.33306 0.0
C225 C 0.4171 0.52312 0.31879 0.0
O226 O 0.4203 0.54184 0.30426 0.0
H227 H 0.42882 0.51254 0.31453 0.0
C228 C 0.49851 0.59161 0.2784 0.0
C229 C 0.49157 0.59961 0.29639 0.0
C230 C 0.47913 0.56748 0.26868 0.0
C231 C 0.45256 0.55093 0.2774 0.0
C232 C 0.44551 0.55843 0.29555 0.0
C233 C 0.4648 0.583 0.30478 0.0
Eu234 Eu 0.49907 0.99317 0.99333 0.0
C235 C 0.55825 0.08501 0.05784 0.0
C236 C 0.60721 0.09727 0.0568 0.0
C237 C 0.59447 0.1311 0.06625 0.0
C238 C 0.57853 0.078 0.05407 0.0
C239 C 0.56591 0.11146 0.06441 0.0
C240 C 0.61509 0.12402 0.06244 0.0
C241 C 0.51656 0.0964 0.0685 0.0
N242 N 0.5309 0.06549 0.05611 0.0
C243 C 0.51004 0.07045 0.06199 0.0
C244 C 0.54462 0.11711 0.06948 0.0
Eu245 Eu 0.52121 0.02229 0.04434 0.0
N246 N 0.57015 0.05191 0.04882 0.0
C247 C 0.58927 0.04326 0.04751 0.0
C248 C 0.62702 0.08888 0.05431 0.0
C249 C 0.61795 0.06165 0.04993 0.0
H250 H 0.48831 0.05452 0.06111 0.0
H251 H 0.63306 0.05482 0.04834 0.0
H252 H 0.63703 0.13918 0.06439 0.0
H253 H 0.49996 0.10042 0.07272 0.0
H254 H 0.5827 0.02235 0.04406 0.0
H255 H 0.38685 0.95903 0.99051 0.0
H256 H 0.64925 0.10307 0.05618 0.0
H257 H 0.5323 0.96163 0.97569 0.0
H258 H 0.43728 0.9923 0.9936 0.0
H259 H 0.52102 0.9156 0.96464 0.0
H260 H 0.6008 0.15161 0.0711 0.0
H261 H 0.3711 0.9105 0.98409 0.0
H262 H 0.38383 0.87457 0.97641 0.0
H263 H 0.54964 0.13718 0.07459 0.0
H264 H 0.42039 0.86277 0.96913 0.0
N265 N 0.45018 0.96289 0.98957 0.0
C266 C 0.43083 0.97125 0.99074 0.0
C267 C 0.39333 0.92503 0.98545 0.0
C268 C 0.41338 0.91694 0.98294 0.0
C269 C 0.40214 0.95242 0.989 0.0
C270 C 0.44203 0.93667 0.98494 0.0
H271 H 0.4716 0.87807 0.96427 0.0
N272 N 0.48978 0.95 0.98177 0.0
C273 C 0.50437 0.91935 0.96923 0.0
C274 C 0.46251 0.93003 0.98083 0.0
C275 C 0.51068 0.94537 0.97542 0.0
C276 C 0.47645 0.8982 0.96911 0.0
C277 C 0.45505 0.90348 0.97465 0.0
O278 O 0.52012 1.00341 0.96417 0.0
O279 O 0.53269 0.02538 0.01208 0.0
O280 O 0.51715 0.0532 0.02523 0.0
O281 O 0.48615 0.02471 1.00081 0.0
O282 O 0.54596 0.00914 0.98993 0.0
O283 O 0.48645 0.01173 0.96992 0.0
O284 O 0.49985 0.01246 0.0734 0.0
O285 O 0.4876 0.99013 0.02556 0.0
O286 O 0.50348 0.96242 0.01224 0.0
O287 O 0.53423 0.99073 0.03686 0.0
O288 O 0.47439 0.0069 0.04727 0.0
O289 O 0.53231 1.00243 0.06771 0.0
C290 C 0.5542 0.02706 1.00393 0.0
C291 C 0.49253 1.00195 0.93661 0.0
C292 C 0.49171 0.01014 0.90075 0.0
C293 C 0.50362 0.01922 0.91982 0.0
C294 C 0.46894 0.98348 0.89873 0.0
C295 C 0.46994 0.97541 0.93415 0.0
C296 C 0.45829 0.96624 0.9153 0.0
C297 C 0.49921 0.04827 0.01046 0.0
C298 C 0.50402 0.01196 0.95668 0.0
C299 C 0.42655 0.88337 0.97364 0.0
C300 C 0.40574 0.89008 0.9778 0.0
C301 C 0.46609 0.98877 0.03342 0.0
C302 C 0.52671 0.01258 0.10104 0.0
C303 C 0.51431 0.99583 0.11793 0.0
C304 C 0.52638 0.00448 0.13702 0.0
C305 C 0.55064 0.03021 0.13896 0.0
C306 C 0.55076 0.03823 0.10344 0.0
C307 C 0.56258 0.04698 0.1223 0.0
C308 C 0.52154 0.96738 0.0269 0.0
C309 C 0.51509 1.00294 0.08092 0.0
H310 H 0.52099 0.03981 0.92167 0.0
H311 H 0.4595 0.97589 0.88425 0.0
H312 H 0.46116 0.96185 0.94682 0.0
H313 H 0.44081 0.94574 0.91353 0.0
H314 H 0.49578 0.97593 0.11617 0.0
H315 H 0.56023 0.03745 0.15344 0.0
H316 H 0.56056 0.0514 0.09073 0.0
H317 H 0.58119 0.06678 0.12399 0.0
Eu318 Eu 0.03407 0.50408 0.9965 0.0
C319 C 0.93647 0.47307 0.0579 0.0
C320 C 0.92283 0.50734 0.05377 0.0
C321 C 0.88834 0.46171 0.06474 0.0
C322 C 0.94324 0.49922 0.05255 0.0
C323 C 0.90911 0.45417 0.06447 0.0
C324 C 0.8952 0.48826 0.05939 0.0
C325 C 0.92545 0.42259 0.07166 0.0
N326 N 0.95707 0.46654 0.05766 0.0
C327 C 0.95228 0.44208 0.06508 0.0
C328 C 0.90366 0.42853 0.07111 0.0
Eu329 Eu 1.00175 0.50015 0.0458 0.0
N330 N 0.97019 0.51719 0.04732 0.0
C331 C 0.9786 0.54411 0.04461 0.0
C332 C 0.93102 0.53458 0.04986 0.0
C333 C 0.95912 0.55312 0.04556 0.0
H334 H 0.96904 0.43735 0.06539 0.0
H335 H 0.96579 0.57435 0.04288 0.0
H336 H 0.87917 0.49404 0.06016 0.0
H337 H 0.92159 0.40301 0.0771 0.0
H338 H 1.00019 0.55869 0.0412 0.0
H339 H 0.06878 0.42898 1.00002 0.0
H340 H 0.91598 0.54162 0.05057 0.0
H341 H 0.06756 0.56695 0.97709 0.0
H342 H 0.03478 0.44515 1.00142 0.0
H343 H 0.1153 0.60099 0.96562 0.0
H344 H 0.86712 0.4474 0.06955 0.0
H345 H 0.1187 0.46123 0.99225 0.0
H346 H 0.15591 0.50859 0.98251 0.0
H347 H 0.88291 0.41343 0.07628 0.0
H348 H 0.1686 0.55542 0.97315 0.0
N349 N 0.06515 0.48649 0.99512 0.0
C350 C 0.05644 0.45954 0.998 0.0
C351 C 0.10384 0.4685 0.99286 0.0
C352 C 0.11234 0.49579 0.98882 0.0
C353 C 0.07568 0.45023 0.99721 0.0
C354 C 0.09219 0.50423 0.98994 0.0
H355 H 0.15352 0.58993 0.96653 0.0
N356 N 0.079 0.5374 0.98485 0.0
C357 C 0.11113 0.58129 0.97101 0.0
C358 C 0.09933 0.53052 0.98465 0.0
C359 C 0.08415 0.56199 0.97745 0.0
C360 C 0.13266 0.57499 0.9716 0.0
C361 C 0.12682 0.54919 0.97817 0.0
O362 O 0.02501 0.51237 0.96633 0.0
O363 O 0.99944 0.50529 0.01301 0.0
O364 O 0.97056 0.4637 0.0277 0.0
O365 O 1.00099 0.46036 1.00507 0.0
O366 O 0.01733 0.53293 0.99001 0.0
O367 O 0.01685 0.4719 0.97412 0.0
O368 O 1.01077 0.49231 0.07614 0.0
O369 O 0.03645 0.49895 0.02931 0.0
O370 O 0.06493 0.54058 0.01454 0.0
O371 O 0.03434 0.54402 0.03696 0.0
O372 O 0.01841 0.47127 0.05222 0.0
O373 O 0.01956 0.5328 0.0678 0.0
C374 C 0.9979 0.5237 1.00345 0.0
C375 C 0.02925 0.48618 0.94066 0.0
C376 C 0.0245 0.47975 0.90457 0.0
C377 C 0.01392 0.48242 0.92306 0.0
C378 C 0.05082 0.48128 0.9039 0.0
C379 C 0.05552 0.48775 0.93969 0.0
C380 C 0.06625 0.48539 0.92137 0.0
C381 C 0.9762 0.4501 0.01412 0.0
C382 C 0.01734 0.48793 0.9599 0.0
C383 C 0.1473 0.54129 0.97791 0.0
C384 C 0.14007 0.51463 0.98323 0.0
C385 C 0.03791 0.48047 0.03884 0.0
C386 C 1.00699 0.51937 0.10138 0.0
C387 C 0.02167 0.52216 0.11918 0.0
C388 C 1.01128 0.52556 0.13753 0.0
C389 C 0.98579 0.52574 0.13786 0.0
C390 C 0.98154 0.51949 0.10204 0.0
C391 C 0.97099 0.52259 0.12021 0.0
C392 C 0.05898 0.55444 0.02767 0.0
C393 C 0.01878 0.51696 0.08226 0.0
H394 H 0.99349 0.48095 0.92383 0.0
H395 H 0.05952 0.47946 0.88983 0.0
H396 H 0.06761 0.49057 0.95304 0.0
H397 H 0.08652 0.48659 0.92072 0.0
H398 H 0.04147 0.5223 0.11867 0.0
H399 H 0.9772 0.5281 0.1518 0.0
H400 H 0.96995 0.51744 0.08855 0.0
H401 H 0.95135 0.52268 0.1206 0.0
Eu402 Eu 0.53715 0.51238 0.0443 0.0
C403 C 0.47424 0.5421 0.97967 0.0
C404 C 0.42526 0.50749 0.98297 0.0
C405 C 0.4378 0.55284 0.97133 0.0
C406 C 0.45402 0.51591 0.9849 0.0
C407 C 0.46639 0.56071 0.97241 0.0
C408 C 0.41726 0.52627 0.97662 0.0
C409 C 0.51551 0.59272 0.96632 0.0
N410 N 0.50161 0.54897 0.98077 0.0
C411 C 0.52222 0.57351 0.97359 0.0
C412 C 0.48749 0.58642 0.96596 0.0
Eu413 Eu 0.51159 0.51591 0.99385 0.0
N414 N 0.46248 0.49825 0.99086 0.0
C415 C 0.44325 0.47132 0.99367 0.0
C416 C 0.40541 0.48026 0.98698 0.0
C417 C 0.41449 0.46202 0.99207 0.0
H418 H 0.54393 0.57852 0.97399 0.0
H419 H 0.39934 0.4408 0.99484 0.0
H420 H 0.39527 0.52026 0.97528 0.0
H421 H 0.53195 0.61236 0.96106 0.0
H422 H 0.44985 0.45695 0.99769 0.0
H423 H 0.64935 0.58745 0.04198 0.0
H424 H 0.38312 0.47301 0.98577 0.0
H425 H 0.50521 0.44956 0.06385 0.0
H426 H 0.59875 0.57136 0.04 0.0
H427 H 0.5175 0.41553 0.0759 0.0
H428 H 0.43135 0.56693 0.96597 0.0
H429 H 0.66575 0.55517 0.05038 0.0
H430 H 0.65384 0.50786 0.06054 0.0
H431 H 0.48233 0.60131 0.96029 0.0
H432 H 0.61799 0.4611 0.06983 0.0
N433 N 0.5863 0.53005 0.04663 0.0
C434 C 0.60546 0.55697 0.04371 0.0
C435 C 0.64343 0.54794 0.04952 0.0
C436 C 0.62368 0.5207 0.0536 0.0
C437 C 0.63426 0.56623 0.04482 0.0
C438 C 0.59488 0.51231 0.05215 0.0
H439 H 0.56714 0.42661 0.07588 0.0
N440 N 0.54736 0.47917 0.05671 0.0
C441 C 0.5338 0.43525 0.07066 0.0
C442 C 0.57478 0.48605 0.05737 0.0
C443 C 0.52693 0.45455 0.0639 0.0
C444 C 0.56184 0.44156 0.07058 0.0
C445 C 0.58279 0.46736 0.06417 0.0
O446 O 0.51785 0.50401 0.07401 0.0
O447 O 0.50207 0.51088 0.0265 0.0
O448 O 0.51689 0.55235 0.01135 0.0
O449 O 0.54948 0.55581 0.03511 0.0
O450 O 0.49046 0.48318 0.04955 0.0
O451 O 0.55184 0.54441 0.06683 0.0
O452 O 0.53087 0.52391 0.96413 0.0
O453 O 0.5467 0.51755 0.01166 0.0
O454 O 0.53209 0.47635 0.02662 0.0
O455 O 0.49884 0.47234 1.00328 0.0
O456 O 0.55824 0.54528 0.98872 0.0
O457 O 0.49783 0.48327 0.97193 0.0
C458 C 0.48114 0.4923 0.03566 0.0
C459 C 0.5477 0.52981 0.1004 0.0
C460 C 0.54817 0.53574 0.13661 0.0
C461 C 0.53562 0.53352 0.11783 0.0
C462 C 0.57261 0.53369 0.13768 0.0
C463 C 0.57205 0.52781 0.10189 0.0
C464 C 0.58435 0.52966 0.12044 0.0
C465 C 0.53585 0.566 0.02527 0.0
C466 C 0.53501 0.52835 0.08075 0.0
C467 C 0.61141 0.47524 0.06482 0.0
C468 C 0.63182 0.50187 0.05954 0.0
C469 C 0.56767 0.53615 1.00253 0.0
C470 C 0.50178 0.4963 0.93799 0.0
C471 C 0.51527 0.49357 0.921 0.0
C472 C 0.50285 0.48964 0.902 0.0
C473 C 0.47696 0.48888 0.90025 0.0
C474 C 0.47608 0.49566 0.93587 0.0
C475 C 0.4638 0.49201 0.91707 0.0
C476 C 0.51273 0.46238 0.01306 0.0
C477 C 0.51442 0.49914 0.95785 0.0
H478 H 0.5169 0.53526 0.11672 0.0
H479 H 0.58255 0.53501 0.15192 0.0
H480 H 0.58167 0.52499 0.08873 0.0
H481 H 0.60314 0.52807 0.12145 0.0
H482 H 0.53507 0.49392 0.92262 0.0
H483 H 0.46705 0.48613 0.88581 0.0
H484 H 0.46539 0.49775 0.94872 0.0
H485 H 0.44394 0.4915 0.91555 0.0
Eu486 Eu 0.16685 0.32856 0.32424 0.0
C487 C 0.22831 0.41317 0.38927 0.0
C488 C 0.27501 0.41926 0.38609 0.0
C489 C 0.26916 0.457 0.39707 0.0
C490 C 0.24559 0.40286 0.38433 0.0
C491 C 0.23985 0.44005 0.39642 0.0
C492 C 0.28672 0.44662 0.39188 0.0
C493 C 0.19276 0.43018 0.40433 0.0
N494 N 0.20015 0.39614 0.38876 0.0
C495 C 0.18238 0.40369 0.39713 0.0
C496 C 0.2216 0.44864 0.40358 0.0
Eu497 Eu 0.18395 0.3516 0.37642 0.0
N498 N 0.23356 0.3763 0.3789 0.0
C499 C 0.24961 0.36435 0.37636 0.0
C500 C 0.29168 0.40744 0.38256 0.0
C501 C 0.27887 0.37973 0.37802 0.0
H502 H 0.16003 0.38944 0.39761 0.0
H503 H 0.29152 0.37024 0.37568 0.0
H504 H 0.30929 0.45966 0.39301 0.0
H505 H 0.17852 0.43635 0.41039 0.0
H506 H 0.24002 0.34301 0.37296 0.0
H507 H 0.06221 0.31614 0.31083 0.0
H508 H 0.31434 0.41934 0.38376 0.0
H509 H 0.18364 0.27876 0.31487 0.0
H510 H 0.1134 0.34072 0.31179 0.0
H511 H 0.16101 0.22906 0.31667 0.0
H512 H 0.27844 0.47784 0.40224 0.0
H513 H 0.03565 0.26638 0.31645 0.0
H514 H 0.03626 0.22302 0.32195 0.0
H515 H 0.22962 0.46912 0.40924 0.0
H516 H 0.06328 0.19926 0.3241 0.0
N517 N 0.11691 0.30608 0.31993 0.0
C518 C 0.1026 0.31934 0.31518 0.0
C519 C 0.05838 0.27723 0.31724 0.0
C520 C 0.07306 0.26334 0.32042 0.0
C521 C 0.07328 0.30529 0.31416 0.0
C522 C 0.10273 0.27845 0.32133 0.0
H523 H 0.10972 0.20127 0.32192 0.0
N524 N 0.14634 0.28009 0.3218 0.0
C525 C 0.14862 0.23889 0.31878 0.0
C526 C 0.1179 0.26509 0.32263 0.0
C527 C 0.16147 0.26728 0.31822 0.0
C528 C 0.11971 0.2233 0.32171 0.0
C529 C 0.10383 0.23629 0.32294 0.0
O530 O 0.18548 0.32105 0.29772 0.0
O531 O 0.20173 0.35428 0.34579 0.0
O532 O 0.17692 0.38308 0.35998 0.0
O533 O 0.15385 0.36005 0.33082 0.0
O534 O 0.20153 0.37174 0.31854 0.0
O535 O 0.16399 0.34408 0.29504 0.0
O536 O 0.16167 0.34282 0.40515 0.0
O537 O 0.15166 0.32044 0.35599 0.0
O538 O 0.19614 0.31501 0.33734 0.0
O539 O 0.18559 0.31287 0.37103 0.0
O540 O 0.13794 0.33897 0.37631 0.0
O541 O 0.19429 0.33285 0.40106 0.0
C542 C 0.21443 0.37568 0.33524 0.0
C543 C 0.16495 0.32076 0.26632 0.0
C544 C 0.1615 0.32529 0.23017 0.0
C545 C 0.17433 0.33642 0.24866 0.0
C546 C 0.13946 0.29807 0.22963 0.0
C547 C 0.14295 0.2937 0.26541 0.0
C548 C 0.13041 0.28241 0.2471 0.0
C549 C 0.16283 0.38086 0.34333 0.0
C550 C 0.17711 0.33364 0.28562 0.0
C551 C 0.07437 0.22133 0.32348 0.0
C552 C 0.059 0.23484 0.32219 0.0
C553 C 0.13012 0.32042 0.36274 0.0
C554 C 0.18744 0.34379 0.4338 0.0
C555 C 0.17505 0.32709 0.45073 0.0
C556 C 0.1867 0.33613 0.46988 0.0
C557 C 0.21042 0.36222 0.47186 0.0
C558 C 0.21106 0.36973 0.43624 0.0
C559 C 0.22235 0.37891 0.45517 0.0
C560 C 0.19438 0.30491 0.35546 0.0
C561 C 0.17658 0.33361 0.4136 0.0
H562 H 0.191 0.35751 0.24943 0.0
H563 H 0.12931 0.28884 0.21564 0.0
H564 H 0.13527 0.28144 0.27884 0.0
H565 H 0.1134 0.26151 0.24647 0.0
H566 H 0.15696 0.3069 0.44894 0.0
H567 H 0.21968 0.36975 0.48639 0.0
H568 H 0.22103 0.38274 0.42349 0.0
H569 H 0.24063 0.39895 0.45688 0.0
Eu570 Eu 0.69926 0.83839 0.32866 0.0
C571 C 0.60184 0.80646 0.39072 0.0
C572 C 0.58785 0.84056 0.38722 0.0
C573 C 0.55378 0.79478 0.3982 0.0
C574 C 0.60835 0.83261 0.38559 0.0
C575 C 0.57464 0.78739 0.39749 0.0
C576 C 0.56038 0.82133 0.39308 0.0
C577 C 0.59137 0.75595 0.40399 0.0
N578 N 0.62254 0.80008 0.39009 0.0
C579 C 0.61804 0.7756 0.39726 0.0
C580 C 0.56947 0.76173 0.40388 0.0
Eu581 Eu 0.66697 0.83404 0.37812 0.0
N582 N 0.63516 0.85073 0.38014 0.0
C583 C 0.64334 0.87762 0.37758 0.0
C584 C 0.59578 0.86778 0.38348 0.0
C585 C 0.62375 0.88646 0.37892 0.0
H586 H 0.63489 0.77101 0.39726 0.0
H587 H 0.63023 0.90767 0.37635 0.0
H588 H 0.54428 0.82698 0.3942 0.0
H589 H 0.58772 0.73636 0.40923 0.0
H590 H 0.66484 0.89232 0.374 0.0
H591 H 0.73513 0.76417 0.33232 0.0
H592 H 0.58065 0.87468 0.38449 0.0
H593 H 0.73231 0.90131 0.30932 0.0
H594 H 0.70067 0.7798 0.33348 0.0
H595 H 0.78005 0.9358 0.29815 0.0
H596 H 0.53269 0.78035 0.40318 0.0
H597 H 0.78505 0.7969 0.32496 0.0
H598 H 0.822 0.84449 0.31547 0.0
H599 H 0.54885 0.74652 0.40917 0.0
H600 H 0.83425 0.89121 0.30614 0.0
N601 N 0.73077 0.82129 0.3274 0.0
C602 C 0.72232 0.79438 0.33021 0.0
C603 C 0.76999 0.80393 0.32545 0.0
C604 C 0.77823 0.83117 0.32146 0.0
C605 C 0.74183 0.78538 0.32957 0.0
C606 C 0.75781 0.83929 0.32241 0.0
H607 H 0.81867 0.92532 0.29935 0.0
N608 N 0.74413 0.87207 0.31717 0.0
C609 C 0.77605 0.91615 0.30353 0.0
C610 C 0.76471 0.8655 0.31713 0.0
C611 C 0.74908 0.8966 0.30979 0.0
C612 C 0.79781 0.91018 0.30428 0.0
C613 C 0.7922 0.88445 0.31083 0.0
O614 O 0.69024 0.84655 0.29845 0.0
O615 O 0.6646 0.83934 0.34533 0.0
O616 O 0.63592 0.79764 0.35993 0.0
O617 O 0.66652 0.79462 0.33729 0.0
O618 O 0.68215 0.86692 0.32223 0.0
O619 O 0.68228 0.80618 0.30631 0.0
O620 O 0.67652 0.82619 0.40829 0.0
O621 O 0.70164 0.83322 0.36142 0.0
O622 O 0.72989 0.87482 0.34679 0.0
O623 O 0.69923 0.87801 0.36929 0.0
O624 O 0.68423 0.80556 0.38437 0.0
O625 O 0.68472 0.86658 0.4002 0.0
C626 C 0.66289 0.85767 0.33578 0.0
C627 C 0.69505 0.82052 0.27291 0.0
C628 C 0.69081 0.81398 0.23682 0.0
C629 C 0.67987 0.81652 0.25519 0.0
C630 C 0.71732 0.81589 0.23638 0.0
C631 C 0.72149 0.82247 0.27217 0.0
C632 C 0.73258 0.82024 0.25397 0.0
C633 C 0.64174 0.78417 0.34635 0.0
C634 C 0.68281 0.82215 0.29204 0.0
C635 C 0.81294 0.87687 0.31075 0.0
C636 C 0.80596 0.85027 0.31606 0.0
C637 C 0.70359 0.81497 0.37088 0.0
C638 C 0.67289 0.85294 0.43384 0.0
C639 C 0.68783 0.85539 0.45144 0.0
C640 C 0.67779 0.85858 0.47001 0.0
C641 C 0.65239 0.85891 0.47076 0.0
C642 C 0.64752 0.85319 0.43491 0.0
C643 C 0.63732 0.85609 0.4533 0.0
C644 C 0.7239 0.88851 0.36003 0.0
C645 C 0.68437 0.85075 0.41452 0.0
H646 H 0.6593 0.81475 0.25578 0.0
H647 H 0.7263 0.8142 0.22241 0.0
H648 H 0.73347 0.82548 0.28561 0.0
H649 H 0.75299 0.82174 0.25351 0.0
H650 H 0.70756 0.85544 0.45061 0.0
H651 H 0.64409 0.86113 0.48487 0.0
H652 H 0.63572 0.85138 0.42157 0.0
H653 H 0.61775 0.85629 0.45401 0.0
Eu654 Eu 0.20342 0.84828 0.37763 0.0
C655 C 0.14114 0.87907 0.31318 0.0
C656 C 0.09206 0.8447 0.31637 0.0
C657 C 0.10499 0.89022 0.3049 0.0
C658 C 0.12077 0.8529 0.31831 0.0
C659 C 0.13352 0.89788 0.30599 0.0
C660 C 0.08429 0.86368 0.3101 0.0
C661 C 0.18273 0.92963 0.29998 0.0
N662 N 0.16846 0.88573 0.31428 0.0
C663 C 0.18921 0.91024 0.30717 0.0
C664 C 0.15477 0.92356 0.29962 0.0
Eu665 Eu 0.17806 0.85236 0.32724 0.0
N666 N 0.12902 0.83505 0.3242 0.0
C667 C 0.10962 0.80814 0.3269 0.0
C668 C 0.07205 0.8175 0.32028 0.0
C669 C 0.0809 0.79906 0.32527 0.0
H670 H 0.21087 0.91508 0.30757 0.0
H671 H 0.06562 0.77785 0.32796 0.0
H672 H 0.06234 0.85784 0.30875 0.0
H673 H 0.19928 0.94925 0.29477 0.0
H674 H 0.11604 0.79362 0.33084 0.0
H675 H 0.31587 0.92243 0.37493 0.0
H676 H 0.04979 0.81041 0.31905 0.0
H677 H 0.17105 0.7859 0.39785 0.0
H678 H 0.26536 0.90684 0.3731 0.0
H679 H 0.1829 0.75175 0.41034 0.0
H680 H 0.09871 0.90447 0.2996 0.0
H681 H 0.3318 0.88981 0.38337 0.0
H682 H 0.31941 0.84245 0.3938 0.0
H683 H 0.14978 0.93858 0.294 0.0
H684 H 0.28324 0.79601 0.40353 0.0
N685 N 0.2525 0.86546 0.3798 0.0
C686 C 0.27187 0.89231 0.37681 0.0
C687 C 0.30952 0.88279 0.38256 0.0
C688 C 0.28957 0.85566 0.38677 0.0
C689 C 0.30061 0.90127 0.37784 0.0
C690 C 0.26083 0.84755 0.38537 0.0
H691 H 0.23232 0.76216 0.41008 0.0
N692 N 0.21323 0.81491 0.39024 0.0
C693 C 0.19931 0.77123 0.40481 0.0
C694 C 0.24055 0.82146 0.39081 0.0
C695 C 0.19268 0.7906 0.39779 0.0
C696 C 0.22722 0.77716 0.40458 0.0
C697 C 0.24832 0.80268 0.39781 0.0
O698 O 0.18379 0.84016 0.40723 0.0
O699 O 0.16852 0.84723 0.35988 0.0
O700 O 0.18367 0.88886 0.34489 0.0
O701 O 0.21611 0.89186 0.3686 0.0
O702 O 0.15671 0.81933 0.38284 0.0
O703 O 0.21868 0.88016 0.4003 0.0
O704 O 0.19746 0.86048 0.29755 0.0
O705 O 0.21294 0.8534 0.34498 0.0
O706 O 0.19746 0.81178 0.36014 0.0
O707 O 0.1649 0.80859 0.33644 0.0
O708 O 0.22474 0.8815 0.32225 0.0
O709 O 0.16416 0.81989 0.30517 0.0
C710 C 0.14752 0.82864 0.36899 0.0
C711 C 0.2139 0.86496 0.43376 0.0
C712 C 0.2136 0.8692 0.4701 0.0
C713 C 0.20141 0.86778 0.4513 0.0
C714 C 0.23809 0.86723 0.47107 0.0
C715 C 0.23832 0.86306 0.43515 0.0
C716 C 0.25025 0.86408 0.45371 0.0
C717 C 0.20262 0.90228 0.35888 0.0
C718 C 0.2015 0.86423 0.41412 0.0
C719 C 0.27685 0.81024 0.39837 0.0
C720 C 0.29744 0.83668 0.39284 0.0
C721 C 0.23399 0.872 0.33592 0.0
C722 C 0.16846 0.83314 0.27127 0.0
C723 C 0.18174 0.82993 0.25435 0.0
C724 C 0.16942 0.82611 0.23532 0.0
C725 C 0.14386 0.82595 0.23346 0.0
C726 C 0.14308 0.83312 0.26904 0.0
C727 C 0.13091 0.82959 0.25021 0.0
C728 C 0.17816 0.79813 0.34645 0.0
C729 C 0.18091 0.83579 0.29117 0.0
H730 H 0.18265 0.86946 0.45028 0.0
H731 H 0.24776 0.86795 0.48531 0.0
H732 H 0.24828 0.86095 0.4219 0.0
H733 H 0.26909 0.86257 0.45464 0.0
H734 H 0.20129 0.8298 0.25606 0.0
H735 H 0.13403 0.82329 0.21899 0.0
H736 H 0.13256 0.8356 0.28184 0.0
H737 H 0.11129 0.82955 0.2486 0.0
Eu738 Eu 0.83371 0.66064 0.66044 0.0
C739 C 0.89245 0.75241 0.72522 0.0
C740 C 0.94147 0.76495 0.72399 0.0
C741 C 0.92852 0.7985 0.7338 0.0
C742 C 0.91282 0.74558 0.72129 0.0
C743 C 0.89999 0.77877 0.73196 0.0
C744 C 0.94923 0.79161 0.7298 0.0
C745 C 0.8506 0.76343 0.73618 0.0
N746 N 0.86513 0.73281 0.72347 0.0
C747 C 0.8442 0.73759 0.72948 0.0
C748 C 0.87862 0.78423 0.73718 0.0
Eu749 Eu 0.85563 0.68979 0.71142 0.0
N750 N 0.90455 0.71957 0.71588 0.0
C751 C 0.92378 0.71108 0.71439 0.0
C752 C 0.96139 0.75673 0.72131 0.0
C753 C 0.95245 0.72957 0.71678 0.0
H754 H 0.8225 0.7216 0.72858 0.0
H755 H 0.96763 0.72286 0.71504 0.0
H756 H 0.97115 0.80684 0.73175 0.0
H757 H 0.83394 0.7673 0.74052 0.0
H758 H 0.91732 0.69024 0.71082 0.0
H759 H 0.72164 0.62705 0.65701 0.0
H760 H 0.98361 0.771 0.72315 0.0
H761 H 0.8668 0.62851 0.64363 0.0
H762 H 0.7721 0.66016 0.66022 0.0
H763 H 0.85532 0.58218 0.63321 0.0
H764 H 0.93476 0.81894 0.73877 0.0
H765 H 0.70569 0.57841 0.65093 0.0
H766 H 0.7182 0.54219 0.64381 0.0
H767 H 0.88354 0.80422 0.74243 0.0
H768 H 0.7546 0.52999 0.63712 0.0
N769 N 0.78482 0.63056 0.65653 0.0
C770 C 0.76556 0.63906 0.6575 0.0
C771 C 0.72793 0.59287 0.65232 0.0
C772 C 0.74789 0.58461 0.65007 0.0
C773 C 0.73686 0.62032 0.65569 0.0
C774 C 0.77656 0.60426 0.65211 0.0
H775 H 0.80579 0.54488 0.63275 0.0
N776 N 0.82428 0.61724 0.64932 0.0
C777 C 0.8387 0.58615 0.63749 0.0
C778 C 0.79696 0.59738 0.64833 0.0
C779 C 0.84513 0.61234 0.64331 0.0
C780 C 0.81073 0.56514 0.63731 0.0
C781 C 0.78939 0.57069 0.64247 0.0
O782 O 0.85492 0.67041 0.63136 0.0
O783 O 0.86721 0.69305 0.67917 0.0
O784 O 0.85123 0.72069 0.69245 0.0
O785 O 0.82093 0.69238 0.66762 0.0
O786 O 0.88063 0.67666 0.65723 0.0
O787 O 0.82128 0.67893 0.63671 0.0
O788 O 0.83425 0.67968 0.74048 0.0
O789 O 0.82206 0.65767 0.69261 0.0
O790 O 0.83767 0.62987 0.67962 0.0
O791 O 0.86887 0.65837 0.7039 0.0
O792 O 0.80877 0.67437 0.7143 0.0
O793 O 0.86673 0.66973 0.73463 0.0
C794 C 0.88878 0.69476 0.6711 0.0
C795 C 0.82757 0.6687 0.60357 0.0
C796 C 0.82694 0.67657 0.56765 0.0
C797 C 0.83867 0.68586 0.58674 0.0
C798 C 0.80434 0.64981 0.56567 0.0
C799 C 0.80515 0.64206 0.60116 0.0
C800 C 0.79368 0.63268 0.58229 0.0
C801 C 0.83363 0.71583 0.67745 0.0
C802 C 0.83892 0.67893 0.62364 0.0
C803 C 0.76086 0.55069 0.6414 0.0
C804 C 0.74013 0.55764 0.64521 0.0
C805 C 0.80051 0.6563 0.70041 0.0
C806 C 0.86098 0.67936 0.76807 0.0
C807 C 0.84829 0.6624 0.78482 0.0
C808 C 0.86025 0.67062 0.80398 0.0
C809 C 0.8847 0.69615 0.80613 0.0
C810 C 0.88523 0.70481 0.77068 0.0
C811 C 0.89695 0.71314 0.78961 0.0
C812 C 0.85594 0.63489 0.69412 0.0
C813 C 0.84947 0.67006 0.74788 0.0
H814 H 0.85589 0.70653 0.58856 0.0
H815 H 0.79504 0.64205 0.55118 0.0
H816 H 0.79638 0.62859 0.61387 0.0
H817 H 0.77633 0.6121 0.58056 0.0
H818 H 0.82962 0.64265 0.78289 0.0
H819 H 0.89422 0.70307 0.82068 0.0
H820 H 0.89526 0.71813 0.75807 0.0
H821 H 0.91571 0.73279 0.79147 0.0
Eu822 Eu 0.36631 0.17447 0.66015 0.0
C823 C 0.26746 0.13872 0.72101 0.0
C824 C 0.25271 0.17236 0.71829 0.0
C825 C 0.21894 0.12587 0.72797 0.0
C826 C 0.27366 0.16502 0.71663 0.0
C827 C 0.24022 0.11904 0.72727 0.0
C828 C 0.22517 0.15248 0.72347 0.0
C829 C 0.2578 0.08825 0.73373 0.0
N830 N 0.28861 0.13293 0.72053 0.0
C831 C 0.2845 0.1085 0.72751 0.0
C832 C 0.23546 0.0934 0.73334 0.0
Eu833 Eu 0.33311 0.16808 0.70955 0.0
N834 N 0.30056 0.18382 0.71189 0.0
C835 C 0.3083 0.21068 0.70997 0.0
C836 C 0.26024 0.19963 0.71527 0.0
C837 C 0.28824 0.21893 0.71136 0.0
H838 H 0.30169 0.1044 0.72777 0.0
H839 H 0.29438 0.24015 0.70932 0.0
H840 H 0.20872 0.15767 0.72459 0.0
H841 H 0.25447 0.06871 0.7388 0.0
H842 H 0.32984 0.2258 0.70686 0.0
H843 H 0.4 0.09856 0.66292 0.0
H844 H 0.24475 0.20608 0.71633 0.0
H845 H 0.40106 0.23792 0.64185 0.0
H846 H 0.36616 0.11497 0.66368 0.0
H847 H 0.44957 0.27229 0.63202 0.0
H848 H 0.1978 0.11094 0.73254 0.0
H849 H 0.45049 0.13102 0.6573 0.0
H850 H 0.48855 0.17881 0.64943 0.0
H851 H 0.21483 0.07773 0.73826 0.0
H852 H 0.50207 0.22612 0.64097 0.0
N853 N 0.39714 0.15658 0.65908 0.0
C854 C 0.38806 0.12943 0.66116 0.0
C855 C 0.43571 0.13839 0.65761 0.0
C856 C 0.44464 0.16593 0.6543 0.0
C857 C 0.40722 0.12 0.66073 0.0
C858 C 0.42455 0.17447 0.65498 0.0
H859 H 0.48759 0.26104 0.63409 0.0
N860 N 0.4119 0.20801 0.64981 0.0
C861 C 0.44498 0.25236 0.63718 0.0
C862 C 0.43216 0.20103 0.65019 0.0
C863 C 0.41759 0.23289 0.64267 0.0
C864 C 0.46641 0.24596 0.63843 0.0
C865 C 0.46006 0.21988 0.64467 0.0
O866 O 0.35935 0.1847 0.62997 0.0
O867 O 0.33155 0.17497 0.67692 0.0
O868 O 0.30214 0.13249 0.69076 0.0
O869 O 0.33247 0.13037 0.66732 0.0
O870 O 0.34933 0.20327 0.6543 0.0
O871 O 0.34969 0.14354 0.63683 0.0
O872 O 0.34582 0.16015 0.73851 0.0
O873 O 0.36835 0.16828 0.6928 0.0
O874 O 0.39638 0.2104 0.67897 0.0
O875 O 0.36553 0.21255 0.7019 0.0
O876 O 0.34996 0.13908 0.71475 0.0
O877 O 0.34582 0.19791 0.7337 0.0
C878 C 0.32992 0.1936 0.66776 0.0
C879 C 0.36494 0.1596 0.60405 0.0
C880 C 0.36314 0.15466 0.56778 0.0
C881 C 0.35103 0.15657 0.58583 0.0
C882 C 0.38951 0.15628 0.5682 0.0
C883 C 0.39124 0.1612 0.60411 0.0
C884 C 0.40348 0.15964 0.58626 0.0
C885 C 0.30774 0.11964 0.67655 0.0
C886 C 0.35163 0.16054 0.62289 0.0
C887 C 0.48045 0.21186 0.64496 0.0
C888 C 0.47276 0.18493 0.64978 0.0
C889 C 0.36985 0.14937 0.70165 0.0
C890 C 0.33604 0.1792 0.76635 0.0
C891 C 0.35265 0.18608 0.78362 0.0
C892 C 0.34021 0.18088 0.80279 0.0
C893 C 0.31074 0.16874 0.80415 0.0
C894 C 0.30692 0.16784 0.76818 0.0
C895 C 0.29436 0.1626 0.78698 0.0
C896 C 0.39021 0.22354 0.69257 0.0
C897 C 0.34914 0.18246 0.7466 0.0
H898 H 0.33058 0.15507 0.58576 0.0
H899 H 0.39941 0.1551 0.55452 0.0
H900 H 0.40222 0.16342 0.61791 0.0
H901 H 0.42378 0.16089 0.58645 0.0
H902 H 0.37521 0.19546 0.78198 0.0
H903 H 0.30011 0.16351 0.81846 0.0
H904 H 0.29385 0.16271 0.75512 0.0
H905 H 0.27178 0.15341 0.78824 0.0
Eu906 Eu 0.86618 0.17666 0.71218 0.0
C907 C 0.80731 0.2115 0.648 0.0
C908 C 0.75785 0.17776 0.65002 0.0
C909 C 0.77223 0.22401 0.6395 0.0
C910 C 0.78631 0.18526 0.65241 0.0
C911 C 0.80054 0.23099 0.641 0.0
C912 C 0.75092 0.19745 0.64402 0.0
C913 C 0.8501 0.26197 0.63566 0.0
N914 N 0.83442 0.21747 0.64936 0.0
C915 C 0.85575 0.24191 0.64261 0.0
C916 C 0.8224 0.25663 0.63511 0.0
Eu917 Eu 0.84241 0.18275 0.6617 0.0
N918 N 0.79374 0.16667 0.65795 0.0
C919 C 0.7738 0.13982 0.65998 0.0
C920 C 0.73724 0.15054 0.65319 0.0
C921 C 0.74529 0.13142 0.65791 0.0
H922 H 0.87721 0.24617 0.64308 0.0
H923 H 0.72955 0.11023 0.66006 0.0
H924 H 0.72917 0.19214 0.64232 0.0
H925 H 0.8671 0.28152 0.63076 0.0
H926 H 0.77969 0.12483 0.66371 0.0
H927 H 0.97844 0.25166 0.71139 0.0
H928 H 0.71514 0.14399 0.6516 0.0
H929 H 0.83394 0.11329 0.73073 0.0
H930 H 0.92788 0.23577 0.70936 0.0
H931 H 0.84597 0.07869 0.74186 0.0
H932 H 0.7666 0.23879 0.63435 0.0
H933 H 0.99465 0.21891 0.71857 0.0
H934 H 0.9825 0.17111 0.72743 0.0
H935 H 0.81806 0.27216 0.62964 0.0
H936 H 0.94646 0.12405 0.73581 0.0
N937 N 0.91528 0.19415 0.71476 0.0
C938 C 0.93451 0.22119 0.71255 0.0
C939 C 0.97235 0.21177 0.71768 0.0
C940 C 0.95251 0.18437 0.72111 0.0
C941 C 0.96328 0.23032 0.71368 0.0
C942 C 0.92374 0.17611 0.71966 0.0
H943 H 0.89553 0.08952 0.74155 0.0
N944 N 0.87616 0.14296 0.72384 0.0
C945 C 0.86236 0.09854 0.73691 0.0
C946 C 0.90354 0.14969 0.72437 0.0
C947 C 0.85563 0.11816 0.73068 0.0
C948 C 0.89035 0.10471 0.73666 0.0
C949 C 0.91141 0.13068 0.73064 0.0
O950 O 0.84651 0.16698 0.74178 0.0
O951 O 0.83178 0.17607 0.69416 0.0
O952 O 0.84725 0.21849 0.67984 0.0
O953 O 0.87868 0.22057 0.70412 0.0
O954 O 0.81934 0.14757 0.71674 0.0
O955 O 0.88023 0.2078 0.73536 0.0
O956 O 0.86543 0.19055 0.63358 0.0
O957 O 0.87662 0.18279 0.67971 0.0
O958 O 0.86066 0.14092 0.69386 0.0
O959 O 0.82864 0.13851 0.66999 0.0
O960 O 0.88922 0.21221 0.65784 0.0
O961 O 0.82622 0.15288 0.63747 0.0
C962 C 0.81053 0.15725 0.7029 0.0
C963 C 0.8759 0.19206 0.7686 0.0
C964 C 0.87689 0.19818 0.80481 0.0
C965 C 0.86433 0.19631 0.78609 0.0
C966 C 0.90081 0.19524 0.80577 0.0
C967 C 0.89972 0.18915 0.76998 0.0
C968 C 0.91202 0.19066 0.78847 0.0
C969 C 0.86563 0.23137 0.69426 0.0
C970 C 0.86334 0.19113 0.74899 0.0
C971 C 0.93999 0.13843 0.73122 0.0
C972 C 0.96051 0.16522 0.72645 0.0
C973 C 0.89798 0.20194 0.67129 0.0
C974 C 0.83845 0.17127 0.60476 0.0
C975 C 0.85077 0.16589 0.58824 0.0
C976 C 0.845 0.17093 0.56873 0.0
C977 C 0.82667 0.18115 0.56587 0.0
C978 C 0.81983 0.18106 0.6016 0.0
C979 C 0.81399 0.18596 0.58225 0.0
C980 C 0.84162 0.12769 0.67992 0.0
C981 C 0.84648 0.16819 0.62514 0.0
H982 H 0.84602 0.19875 0.78507 0.0
H983 H 0.91074 0.1963 0.81996 0.0
H984 H 0.90892 0.1859 0.75677 0.0
H985 H 0.93041 0.18838 0.78939 0.0
H986 H 0.86526 0.1584 0.59055 0.0
H987 H 0.82201 0.18517 0.55096 0.0
H988 H 0.81001 0.18514 0.61406 0.0
H989 H 0.79974 0.19368 0.57994 0.0
H990 H 0.31999 0.82454 0.04883 0.0
H991 H 0.30467 0.88015 0.0835 0.0
H992 H 0.36184 0.86298 0.03462 0.0
H993 H 0.34768 0.91799 0.07104 0.0
H994 H 0.41636 0.98672 0.0385 0.0
H995 H 0.37078 0.94692 0.04542 0.0
H996 H 0.408 0.89547 0.04071 0.0
H997 H 0.45304 0.93535 0.03237 0.0
C998 C 0.32543 0.84488 0.05348 0.0
C999 C 0.30874 0.84893 0.06754 0.0
C1000 C 0.34984 0.86704 0.04552 0.0
C1001 C 0.35856 0.89392 0.05159 0.0
C1002 C 0.34171 0.89787 0.06554 0.0
C1003 C 0.31711 0.87586 0.07314 0.0
C1004 C 0.41451 0.96676 0.03856 0.0
C1005 C 0.43808 0.96406 0.03473 0.0
C1006 C 0.38845 0.94387 0.04279 0.0
C1007 C 0.38548 0.91772 0.04417 0.0
C1008 C 0.40909 0.91503 0.03966 0.0
C1009 C 0.43505 0.93794 0.03491 0.0
H1010 H 0.15337 0.41846 0.0586 0.0
H1011 H 0.20315 0.50415 0.07148 0.0
H1012 H 0.11499 0.42489 0.04721 0.0
H1013 H 0.16417 0.51068 0.06137 0.0
H1014 H 0.09372 0.5186 0.0324 0.0
H1015 H 0.13463 0.51323 0.03799 0.0
H1016 H 0.07967 0.43102 0.05913 0.0
H1017 H 0.03917 0.43607 0.05215 0.0
C1018 C 0.15604 0.43875 0.05893 0.0
C1019 C 0.18124 0.4608 0.06589 0.0
C1020 C 0.13387 0.44247 0.05264 0.0
C1021 C 0.13588 0.46828 0.05363 0.0
C1022 C 0.1616 0.49052 0.06009 0.0
C1023 C 0.18404 0.48683 0.06599 0.0
C1024 C 0.09048 0.4992 0.03775 0.0
C1025 C 0.06314 0.47744 0.04119 0.0
C1026 C 0.11401 0.49619 0.04132 0.0
C1027 C 0.11087 0.47154 0.04893 0.0
C1028 C 0.08334 0.45006 0.0527 0.0
C1029 C 0.05993 0.45298 0.04888 0.0
H1030 H 0.60841 0.73267 0.06847 0.0
H1031 H 0.52003 0.70469 0.06215 0.0
H1032 H 0.6016 0.6907 0.05335 0.0
H1033 H 0.51272 0.662 0.04778 0.0
H1034 H 0.51063 0.594 0.01095 0.0
H1035 H 0.51989 0.63915 0.02072 0.0
H1036 H 0.5823 0.64493 0.06271 0.0
H1037 H 0.57427 0.60078 0.05217 0.0
C1038 C 0.5875 0.71742 0.06383 0.0
C1039 C 0.56471 0.72173 0.06659 0.0
C1040 C 0.58351 0.6933 0.05527 0.0
C1041 C 0.55652 0.67269 0.04958 0.0
C1042 C 0.53385 0.67747 0.05177 0.0
C1043 C 0.53795 0.70185 0.06008 0.0
C1044 C 0.52673 0.60515 0.02196 0.0
C1045 C 0.5419 0.5938 0.03058 0.0
C1046 C 0.5318 0.63094 0.02776 0.0
C1047 C 0.55191 0.64584 0.04249 0.0
C1048 C 0.56709 0.63443 0.05102 0.0
C1049 C 0.56227 0.60887 0.04507 0.0
H1050 H 0.81762 0.3079 0.9783 0.0
H1051 H 0.87886 0.28193 0.97242 0.0
H1052 H 0.85395 0.35188 0.99116 0.0
H1053 H 0.91494 0.32521 0.98599 0.0
H1054 H 0.97962 0.41519 0.98752 0.0
H1055 H 0.94258 0.3708 0.97682 0.0
H1056 H 0.88458 0.37678 0.01735 0.0
H1057 H 0.92136 0.42205 0.02716 0.0
C1058 C 0.83877 0.31146 0.98011 0.0
C1059 C 0.84545 0.29159 0.97419 0.0
C1060 C 0.85965 0.33666 0.98755 0.0
C1061 C 0.88765 0.34243 0.98948 0.0
C1062 C 0.89392 0.32198 0.98425 0.0
C1063 C 0.87317 0.29702 0.97658 0.0
C1064 C 0.95901 0.4071 0.99422 0.0
C1065 C 0.95369 0.42226 1.00841 0.0
C1066 C 0.93769 0.38138 0.98818 0.0
C1067 C 0.91042 0.36984 0.99628 0.0
C1068 C 0.90515 0.38496 0.01058 0.0
C1069 C 0.92644 0.41087 0.01646 0.0
H1070 H 0.74563 0.59196 0.98 0.0
H1071 H 0.70263 0.50634 0.96619 0.0
H1072 H 0.70192 0.58771 0.99266 0.0
H1073 H 0.65828 0.502 0.97774 0.0
H1074 H 0.58301 0.49727 0.00951 0.0
H1075 H 0.62862 0.50105 1.00308 0.0
H1076 H 0.66028 0.58337 0.98159 0.0
H1077 H 0.61537 0.57989 0.98926 0.0
C1078 C 0.72669 0.57218 0.97975 0.0
C1079 C 0.72747 0.54948 0.97219 0.0
C1080 C 0.70147 0.5697 0.9868 0.0
C1081 C 0.67609 0.54454 0.98608 0.0
C1082 C 0.6772 0.52167 0.97888 0.0
C1083 C 0.7026 0.52411 0.97212 0.0
C1084 C 0.60001 0.51638 1.00395 0.0
C1085 C 0.59579 0.53855 1.00042 0.0
C1086 C 0.62614 0.51846 0.9999 0.0
C1087 C 0.64858 0.54258 0.99177 0.0
C1088 C 0.64408 0.56465 0.98827 0.0
C1089 C 0.61814 0.56264 0.99253 0.0
H1090 H 0.51666 0.20265 0.97223 0.0
H1091 H 0.42863 0.14512 0.96364 0.0
H1092 H 0.52363 0.16638 0.98555 0.0
H1093 H 0.43517 0.10892 0.97764 0.0
H1094 H 0.52363 0.10088 0.02413 0.0
H1095 H 0.51489 0.13684 0.01294 0.0
H1096 H 0.45511 0.08176 0.96979 0.0
H1097 H 0.46255 0.04549 0.98178 0.0
C1098 C 0.49875 0.18224 0.97343 0.0
C1099 C 0.47215 0.17662 0.96681 0.0
C1100 C 0.50266 0.16146 0.98117 0.0
C1101 C 0.47998 0.13462 0.9827 0.0
C1102 C 0.45326 0.12918 0.97634 0.0
C1103 C 0.44944 0.14991 0.96837 0.0
C1104 C 0.50822 0.09627 0.01254 0.0
C1105 C 0.49358 0.07014 1.00406 0.0
C1106 C 0.50348 0.11705 1.0059 0.0
C1107 C 0.48429 0.1123 0.99041 0.0
C1108 C 0.46965 0.08612 0.98199 0.0
C1109 C 0.47412 0.0653 0.98878 0.0
H1110 H 0.73435 0.14136 1.00523 0.0
H1111 H 0.69931 0.18677 0.97798 0.0
H1112 H 0.68725 0.10275 0.01039 0.0
H1113 H 0.65201 0.14772 0.98245 0.0
H1114 H 0.56931 0.0807 0.00968 0.0
H1115 H 0.61633 0.12062 1.00667 0.0
H1116 H 0.64961 0.06795 0.99186 0.0
H1117 H 0.60286 0.02826 0.99565 0.0
C1118 C 0.71652 0.14286 1.00001 0.0
C1119 C 0.72064 0.16677 0.9906 0.0
C1120 C 0.68949 0.12071 1.00293 0.0
C1121 C 0.66569 0.12184 0.9966 0.0
C1122 C 0.66977 0.14607 0.9876 0.0
C1123 C 0.69692 0.16836 0.98478 0.0
C1124 C 0.58683 0.07773 1.00619 0.0
C1125 C 0.58264 0.05136 1.00349 0.0
C1126 C 0.61373 0.10062 1.00414 0.0
C1127 C 0.63695 0.09763 0.99909 0.0
C1128 C 0.63247 0.07113 0.99618 0.0
C1129 C 0.60565 0.04834 0.99825 0.0
H1130 H 0.83809 0.52184 0.01492 0.0
H1131 H 0.87673 0.56982 0.96211 0.0
H1132 H 0.87725 0.51307 0.01848 0.0
H1133 H 0.91576 0.56086 0.96538 0.0
H1134 H 0.99657 0.56892 0.99211 0.0
H1135 H 0.95565 0.57448 0.98729 0.0
H1136 H 0.90112 0.49032 1.00405 0.0
H1137 H 0.94228 0.48496 0.0089 0.0
C1138 C 0.85483 0.53021 1.00392 0.0
C1139 C 0.85454 0.5468 0.98836 0.0
C1140 C 0.87725 0.52514 1.00591 0.0
C1141 C 0.89995 0.5365 0.99236 0.0
C1142 C 0.899 0.55221 0.97634 0.0
C1143 C 0.87654 0.55719 0.97434 0.0
C1144 C 0.97581 0.55166 0.99483 0.0
C1145 C 0.97269 0.52675 1.00142 0.0
C1146 C 0.95231 0.55475 0.99192 0.0
C1147 C 0.92494 0.53286 0.99527 0.0
C1148 C 0.92182 0.50774 1.00156 0.0
C1149 C 0.94541 0.50466 1.00443 0.0
H1150 H 0.46216 0.30424 0.95965 0.0
H1151 H 0.48662 0.29816 0.01976 0.0
H1152 H 0.47456 0.35155 0.96577 0.0
H1153 H 0.49837 0.34512 0.02618 0.0
H1154 H 0.54259 0.43786 0.02425 0.0
H1155 H 0.53203 0.3916 0.0172 0.0
H1156 H 0.45775 0.37686 0.98489 0.0
H1157 H 0.46849 0.42331 0.99173 0.0
C1158 C 0.4702 0.31315 0.97416 0.0
C1159 C 0.4734 0.29771 0.98925 0.0
C1160 C 0.4771 0.34009 0.97774 0.0
C1161 C 0.48734 0.35208 0.9965 0.0
C1162 C 0.49085 0.33662 0.0115 0.0
C1163 C 0.48399 0.30971 1.00789 0.0
C1164 C 0.52388 0.42472 0.01577 0.0
C1165 C 0.50623 0.43423 0.00873 0.0
C1166 C 0.51783 0.39816 0.01174 0.0
C1167 C 0.49401 0.38048 1.00053 0.0
C1168 C 0.47647 0.39006 0.99336 0.0
C1169 C 0.48254 0.41666 0.99738 0.0
H1170 H 0.16483 0.71715 0.07799 0.0
H1171 H 0.19697 0.72185 0.01845 0.0
H1172 H 0.13072 0.66879 0.07303 0.0
H1173 H 0.16261 0.67375 0.01319 0.0
H1174 H 0.11457 0.58087 0.01688 0.0
H1175 H 0.15003 0.6281 0.02314 0.0
H1176 H 0.08838 0.64036 0.05437 0.0
H1177 H 0.05293 0.59304 0.04824 0.0
C1178 C 0.16449 0.70774 0.06384 0.0
C1179 C 0.18322 0.72322 0.04852 0.0
C1180 C 0.14489 0.68014 0.06092 0.0
C1181 C 0.1437 0.66734 0.04264 0.0
C1182 C 0.16302 0.6828 0.02751 0.0
C1183 C 0.1826 0.71039 0.03045 0.0
C1184 C 0.10847 0.59365 0.02496 0.0
C1185 C 0.08073 0.58314 0.03184 0.0
C1186 C 0.12886 0.62081 0.02855 0.0
C1187 C 0.12213 0.63818 0.03921 0.0
C1188 C 0.09446 0.62754 0.04632 0.0
C1189 C 0.07405 0.60038 0.0427 0.0
H1190 H 0.32202 0.49235 0.02338 0.0
H1191 H 0.31264 0.44633 0.077 0.0
H1192 H 0.37024 0.50135 0.01945 0.0
H1193 H 0.361 0.4556 0.07337 0.0
H1194 H 0.43321 0.44711 0.04699 0.0
H1195 H 0.38646 0.44137 0.05155 0.0
H1196 H 0.41801 0.52482 0.03312 0.0
H1197 H 0.46488 0.5304 0.02857 0.0
C1198 C 0.33047 0.48455 0.03452 0.0
C1199 C 0.31349 0.46849 0.05046 0.0
C1200 C 0.35815 0.48975 0.0323 0.0
C1201 C 0.36957 0.47898 0.04596 0.0
C1202 C 0.35283 0.46381 0.06233 0.0
C1203 C 0.32521 0.45869 0.06456 0.0
C1204 C 0.43008 0.46417 0.0438 0.0
C1205 C 0.45257 0.48898 0.03696 0.0
C1206 C 0.40333 0.46098 0.04658 0.0
C1207 C 0.39831 0.48264 0.04281 0.0
C1208 C 0.42093 0.50758 0.036 0.0
C1209 C 0.4478 0.51078 0.03329 0.0
H1210 H 0.6088 0.87884 0.05296 0.0
H1211 H 0.52154 0.816 0.05259 0.0
H1212 H 0.59545 0.91314 0.04618 0.0
H1213 H 0.5079 0.85037 0.04655 0.0
H1214 H 0.49623 0.9147 0.01355 0.0
H1215 H 0.50896 0.88027 0.02103 0.0
H1216 H 0.57381 0.9364 0.06092 0.0
H1217 H 0.56205 0.9713 0.05263 0.0
C1218 C 0.58671 0.87248 0.05178 0.0
C1219 C 0.56617 0.84489 0.05375 0.0
C1220 C 0.57902 0.89212 0.04798 0.0
C1221 C 0.55057 0.88459 0.04596 0.0
C1222 C 0.53001 0.85689 0.04785 0.0
C1223 C 0.53776 0.83723 0.05153 0.0
C1224 C 0.51347 0.91986 0.02369 0.0
C1225 C 0.52848 0.94601 0.03213 0.0
C1226 C 0.52051 0.89994 0.02823 0.0
C1227 C 0.54252 0.90555 0.04153 0.0
C1228 C 0.5571 0.93151 0.05032 0.0
C1229 C 0.5502 0.9515 0.04566 0.0
H1230 H 0.96704 0.21432 0.4123 0.0
H1231 H 0.98632 0.15718 0.38382 0.0
H1232 H 1.01004 0.2519 0.39903 0.0
H1233 H 0.02837 0.19496 0.36915 0.0
H1234 H 0.11889 0.26841 0.36894 0.0
H1235 H 0.07386 0.22901 0.37805 0.0
H1236 H 0.03383 0.27767 0.37107 0.0
H1237 H 0.07933 0.31727 0.36293 0.0
C1238 C 0.98035 0.20968 0.40314 0.0
C1239 C 0.97319 0.18252 0.39945 0.0
C1240 C 1.00491 0.23138 0.39515 0.0
C1241 C 0.02292 0.22667 0.38294 0.0
C1242 C 0.01535 0.1995 0.37873 0.0
C1243 C 0.99092 0.17775 0.38695 0.0
C1244 C 0.1003 0.27043 0.36902 0.0
C1245 C 0.10237 0.29568 0.36491 0.0
C1246 C 0.07441 0.24784 0.37421 0.0
C1247 C 0.04999 0.25 0.37547 0.0
C1248 C 0.05214 0.27523 0.37071 0.0
C1249 C 0.07811 0.29788 0.3658 0.0
H1250 H 0.86907 0.8448 0.40719 0.0
H1251 H 0.82577 0.76063 0.38922 0.0
H1252 H 0.82912 0.84933 0.3963 0.0
H1253 H 0.78625 0.76514 0.37735 0.0
H1254 H 0.70674 0.77117 0.38345 0.0
H1255 H 0.7485 0.768 0.39035 0.0
H1256 H 0.80082 0.8515 0.37097 0.0
H1257 H 0.75876 0.85483 0.36515 0.0
C1258 C 0.85123 0.82748 0.40037 0.0
C1259 C 0.8505 0.80242 0.39892 0.0
C1260 C 0.82827 0.83002 0.39406 0.0
C1261 C 0.80405 0.80754 0.38604 0.0
C1262 C 0.80408 0.78278 0.38384 0.0
C1263 C 0.82686 0.78021 0.39039 0.0
C1264 C 0.7272 0.78876 0.38053 0.0
C1265 C 0.7294 0.813 0.37327 0.0
C1266 C 0.75127 0.78693 0.38432 0.0
C1267 C 0.77837 0.80939 0.38108 0.0
C1268 C 0.78049 0.83377 0.37386 0.0
C1269 C 0.75632 0.83562 0.37021 0.0
H1270 H 0.22612 0.03891 0.42914 0.0
H1271 H 0.23991 0.07142 0.36909 0.0
H1272 H 0.21667 0.99511 0.41601 0.0
H1273 H 0.22927 0.02696 0.35597 0.0
H1274 H 0.17836 0.93118 0.34443 0.0
H1275 H 0.18716 0.976 0.35528 0.0
H1276 H 0.24827 0.98026 0.39766 0.0
H1277 H 0.24025 0.9361 0.38661 0.0
C1278 C 0.22722 0.0368 0.41314 0.0
C1279 C 0.23426 0.05893 0.40022 0.0
C1280 C 0.22164 0.01163 0.40564 0.0
C1281 C 0.22251 0.00778 0.38501 0.0
C1282 C 0.22838 0.02942 0.37195 0.0
C1283 C 0.23437 0.05482 0.37948 0.0
C1284 C 0.19405 0.94186 0.35579 0.0
C1285 C 0.20869 0.93 0.36453 0.0
C1286 C 0.19899 0.96748 0.36202 0.0
C1287 C 0.21824 0.98144 0.37738 0.0
C1288 C 0.23308 0.96977 0.38594 0.0
C1289 C 0.22849 0.94446 0.37952 0.0
H1290 H 0.48439 0.64126 0.31011 0.0
H1291 H 0.54623 0.61598 0.30466 0.0
H1292 H 0.52027 0.68526 0.32323 0.0
H1293 H 0.58188 0.6593 0.3185 0.0
H1294 H 0.64572 0.74953 0.31984 0.0
H1295 H 0.60909 0.70495 0.30918 0.0
H1296 H 0.55056 0.71015 0.34964 0.0
H1297 H 0.58694 0.75563 0.35943 0.0
C1298 C 0.50558 0.64498 0.31208 0.0
C1299 C 0.51259 0.62532 0.3062 0.0
C1300 C 0.52619 0.67017 0.31967 0.0
C1301 C 0.55422 0.67614 0.32179 0.0
C1302 C 0.5608 0.65588 0.31662 0.0
C1303 C 0.54032 0.63092 0.3088 0.0
C1304 C 0.62509 0.74123 0.32654 0.0
C1305 C 0.61948 0.75624 0.34068 0.0
C1306 C 0.60402 0.7154 0.32053 0.0
C1307 C 0.57673 0.70361 0.32862 0.0
C1308 C 0.57117 0.71855 0.34289 0.0
C1309 C 0.59221 0.74458 0.34874 0.0
H1310 H 0.41134 0.92611 0.31289 0.0
H1311 H 0.36764 0.84052 0.29896 0.0
H1312 H 0.36785 0.92225 0.32563 0.0
H1313 H 0.32348 0.83657 0.31057 0.0
H1314 H 0.24873 0.83266 0.34271 0.0
H1315 H 0.29407 0.83591 0.33606 0.0
H1316 H 0.32641 0.91834 0.31457 0.0
H1317 H 0.28181 0.91539 0.32246 0.0
C1318 C 0.39228 0.90642 0.3126 0.0
C1319 C 0.39279 0.88363 0.30498 0.0
C1320 C 0.36719 0.90417 0.31971 0.0
C1321 C 0.34168 0.87914 0.31897 0.0
C1322 C 0.34251 0.85615 0.31171 0.0
C1323 C 0.36779 0.85837 0.30491 0.0
C1324 C 0.26583 0.85167 0.33708 0.0
C1325 C 0.26191 0.87403 0.33362 0.0
C1326 C 0.2918 0.85345 0.33292 0.0
C1327 C 0.31434 0.87745 0.32473 0.0
C1328 C 0.31012 0.89971 0.32129 0.0
C1329 C 0.28436 0.898 0.32567 0.0
H1330 H 0.09428 0.47716 0.29422 0.0
H1331 H 0.17693 0.53754 0.31444 0.0
H1332 H 0.10179 0.44111 0.30717 0.0
H1333 H 0.1843 0.50133 0.3276 0.0
H1334 H 0.17534 0.42772 0.36404 0.0
H1335 H 0.16709 0.46444 0.35358 0.0
H1336 H 0.13244 0.4226 0.29801 0.0
H1337 H 0.14076 0.38638 0.30825 0.0
C1338 C 0.11414 0.48275 0.30131 0.0
C1339 C 0.13511 0.51024 0.3031 0.0
C1340 C 0.11839 0.46209 0.3088 0.0
C1341 C 0.14368 0.46838 0.31833 0.0
C1342 C 0.16446 0.49586 0.32053 0.0
C1343 C 0.16024 0.51658 0.31296 0.0
C1344 C 0.1656 0.42611 0.34977 0.0
C1345 C 0.15779 0.40338 0.33742 0.0
C1346 C 0.1611 0.44731 0.34368 0.0
C1347 C 0.14868 0.44619 0.3251 0.0
C1348 C 0.14133 0.42373 0.31265 0.0
C1349 C 0.14599 0.40277 0.31865 0.0
H1350 H 0.37998 0.52267 0.34664 0.0
H1351 H 0.38531 0.47675 0.29722 0.0
H1352 H 0.33112 0.48709 0.35255 0.0
H1353 H 0.33645 0.44136 0.30281 0.0
H1354 H 0.25994 0.36981 0.33077 0.0
H1355 H 0.30894 0.40602 0.32741 0.0
H1356 H 0.284 0.46632 0.33735 0.0
H1357 H 0.23497 0.42979 0.34085 0.0
C1358 C 0.37057 0.505 0.33698 0.0
C1359 C 0.38645 0.50219 0.32166 0.0
C1360 C 0.34261 0.48468 0.34031 0.0
C1361 C 0.32994 0.46119 0.32832 0.0
C1362 C 0.34571 0.45887 0.31262 0.0
C1363 C 0.37359 0.47919 0.30928 0.0
C1364 C 0.26517 0.39081 0.33274 0.0
C1365 C 0.24404 0.39711 0.3368 0.0
C1366 C 0.29311 0.41157 0.33052 0.0
C1367 C 0.30044 0.43913 0.33203 0.0
C1368 C 0.27917 0.44534 0.33634 0.0
C1369 C 0.25116 0.42451 0.33839 0.0
H1370 H 0.49735 0.84045 0.31188 0.0
H1371 H 0.54805 0.92151 0.33542 0.0
H1372 H 0.53724 0.83269 0.31496 0.0
H1373 H 0.58748 0.91363 0.3392 0.0
H1374 H 0.66212 0.90323 0.32485 0.0
H1375 H 0.62167 0.90949 0.3205 0.0
H1376 H 0.56643 0.82575 0.33808 0.0
H1377 H 0.60716 0.81943 0.34168 0.0
C1378 C 0.51711 0.85671 0.31751 0.0
C1379 C 0.51982 0.88197 0.32274 0.0
C1380 C 0.53992 0.85217 0.31953 0.0
C1381 C 0.5659 0.87263 0.32712 0.0
C1382 C 0.56822 0.89761 0.33277 0.0
C1383 C 0.54555 0.90215 0.33065 0.0
C1384 C 0.64131 0.88622 0.32786 0.0
C1385 C 0.63789 0.86112 0.33421 0.0
C1386 C 0.61805 0.8898 0.32548 0.0
C1387 C 0.59058 0.86826 0.32917 0.0
C1388 C 0.58714 0.84282 0.33498 0.0
C1389 C 0.61052 0.83926 0.33735 0.0
H1390 H 0.09052 0.62282 0.32753 0.0
H1391 H 0.17824 0.64636 0.32545 0.0
H1392 H 0.1033 0.67023 0.33297 0.0
H1393 H 0.19122 0.69395 0.33006 0.0
H1394 H 0.2045 0.7712 0.36017 0.0
H1395 H 0.19137 0.72399 0.35471 0.0
H1396 H 0.12316 0.7136 0.31677 0.0
H1397 H 0.13538 0.76056 0.32315 0.0
C1398 C 0.11255 0.63825 0.32796 0.0
C1399 C 0.13341 0.63106 0.3257 0.0
C1400 C 0.1199 0.66543 0.33097 0.0
C1401 C 0.14831 0.686 0.33184 0.0
C1402 C 0.16915 0.67866 0.32968 0.0
C1403 C 0.16177 0.65146 0.32684 0.0
C1404 C 0.18643 0.75879 0.3509 0.0
C1405 C 0.17069 0.7696 0.34242 0.0
C1406 C 0.17914 0.73175 0.34751 0.0
C1407 C 0.15615 0.71489 0.33531 0.0
C1408 C 0.14068 0.72584 0.32653 0.0
C1409 C 0.14784 0.75286 0.33008 0.0
H1410 H 0.83078 0.04986 0.41194 0.0
H1411 H 0.86306 0.05514 0.35237 0.0
H1412 H 0.79631 1.00169 0.4066 0.0
H1413 H 0.82837 0.00726 0.34673 0.0
H1414 H 0.77954 0.9145 0.34962 0.0
H1415 H 0.81535 0.96139 0.35641 0.0
H1416 H 0.75393 0.97409 0.38755 0.0
H1417 H 0.71807 0.92704 0.38089 0.0
C1418 C 0.83042 0.04061 0.39771 0.0
C1419 C 0.84927 0.05618 0.38249 0.0
C1420 C 0.81062 0.01313 0.39458 0.0
C1421 C 0.80937 1.00059 0.37617 0.0
C1422 C 0.82884 0.01612 0.36114 0.0
C1423 C 0.84862 0.04359 0.3643 0.0
C1424 C 0.77355 0.92731 0.35778 0.0
C1425 C 0.74577 0.91702 0.36448 0.0
C1426 C 0.79415 0.95426 0.36169 0.0
C1427 C 0.78757 0.97163 0.37247 0.0
C1428 C 0.75986 0.96122 0.37941 0.0
C1429 C 0.73923 0.93425 0.37548 0.0
H1430 H 0.98019 0.78332 0.41167 0.0
H1431 H 0.98806 0.82854 0.35788 0.0
H1432 H 0.02843 0.79257 0.4074 0.0
H1433 H 0.03626 0.83757 0.35334 0.0
H1434 H 0.13137 0.86686 0.36204 0.0
H1435 H 0.08452 0.86132 0.3668 0.0
H1436 H 0.05295 0.77776 0.38492 0.0
H1437 H 0.09961 0.78342 0.38011 0.0
C1438 C 0.99239 0.79545 0.39903 0.0
C1439 C 0.98027 0.80496 0.38503 0.0
C1440 C 0.01995 0.80058 0.39645 0.0
C1441 C 0.03623 0.81552 0.37985 0.0
C1442 C 0.02447 0.82609 0.36632 0.0
C1443 C 0.99683 0.82087 0.36889 0.0
C1444 C 0.11427 0.84722 0.36672 0.0
C1445 C 0.119 0.82536 0.37026 0.0
C1446 C 0.08743 0.84405 0.36955 0.0
C1447 C 0.06485 0.81911 0.37638 0.0
C1448 C 0.06981 0.79737 0.37995 0.0
C1449 C 0.09651 0.80052 0.37704 0.0
H1450 H 0.28481 0.2168 0.37247 0.0
H1451 H 0.19771 0.15632 0.38171 0.0
H1452 H 0.27127 0.25102 0.36518 0.0
H1453 H 0.18413 0.1905 0.37451 0.0
H1454 H 0.17681 0.2672 0.38517 0.0
H1455 H 0.19036 0.23287 0.39108 0.0
H1456 H 0.2446 0.26138 0.33929 0.0
H1457 H 0.23114 0.29603 0.33342 0.0
C1458 C 0.2628 0.21092 0.37308 0.0
C1459 C 0.24238 0.18415 0.37823 0.0
C1460 C 0.25503 0.23041 0.36874 0.0
C1461 C 0.22667 0.22348 0.36944 0.0
C1462 C 0.2062 0.19654 0.37419 0.0
C1463 C 0.21395 0.177 0.37834 0.0
C1464 C 0.19171 0.26622 0.37506 0.0
C1465 C 0.20292 0.28428 0.35881 0.0
C1466 C 0.19927 0.2464 0.37836 0.0
C1467 C 0.21846 0.24438 0.36562 0.0
C1468 C 0.22987 0.26257 0.34942 0.0
C1469 C 0.22206 0.28227 0.34599 0.0
H1470 H 0.65341 0.49223 0.71435 0.0
H1471 H 0.63864 0.54752 0.74988 0.0
H1472 H 0.69561 0.53077 0.70052 0.0
H1473 H 0.68187 0.58542 0.73769 0.0
H1474 H 0.75083 0.65441 0.70539 0.0
H1475 H 0.7051 0.61466 0.71208 0.0
H1476 H 0.74197 0.56294 0.70721 0.0
H1477 H 0.78721 0.6028 0.69922 0.0
C1478 C 0.65904 0.51252 0.71927 0.0
C1479 C 0.64243 0.51646 0.73345 0.0
C1480 C 0.68362 0.53472 0.71152 0.0
C1481 C 0.69254 0.56152 0.71791 0.0
C1482 C 0.67574 0.56536 0.73196 0.0
C1483 C 0.65101 0.54332 0.73939 0.0
C1484 C 0.74889 0.63441 0.70537 0.0
C1485 C 0.77242 0.63164 0.70159 0.0
C1486 C 0.72274 0.61156 0.70946 0.0
C1487 C 0.71962 0.58533 0.71069 0.0
C1488 C 0.74319 0.58257 0.70626 0.0
C1489 C 0.76926 0.60546 0.7017 0.0
H1490 H 0.49397 0.0969 0.71842 0.0
H1491 H 0.53205 0.17729 0.74389 0.0
H1492 H 0.45471 0.10179 0.70627 0.0
H1493 H 0.49253 0.18218 0.73232 0.0
H1494 H 0.4251 0.19013 0.69826 0.0
H1495 H 0.46717 0.18704 0.70498 0.0
H1496 H 0.41477 0.10186 0.72002 0.0
H1497 H 0.373 0.10496 0.71264 0.0
C1498 C 0.49405 0.11578 0.72115 0.0
C1499 C 0.5161 0.13682 0.73189 0.0
C1500 C 0.47142 0.11853 0.7144 0.0
C1501 C 0.47013 0.14232 0.71842 0.0
C1502 C 0.4928 0.1637 0.72868 0.0
C1503 C 0.51547 0.16094 0.73537 0.0
C1504 C 0.42266 0.17065 0.70262 0.0
C1505 C 0.39574 0.14759 0.7044 0.0
C1506 C 0.44679 0.16892 0.70673 0.0
C1507 C 0.44459 0.14414 0.71299 0.0
C1508 C 0.41752 0.12116 0.71484 0.0
C1509 C 0.39349 0.12293 0.71074 0.0
H1510 H 0.85316 0.3727 0.72982 0.0
H1511 H 0.94078 0.39827 0.7376 0.0
H1512 H 0.84482 0.32935 0.71607 0.0
H1513 H 0.93297 0.35562 0.72311 0.0
H1514 H 0.90345 0.26522 0.72192 0.0
H1515 H 0.9123 0.3097 0.73245 0.0
H1516 H 0.85165 0.30572 0.68955 0.0
H1517 H 0.84152 0.26032 0.67986 0.0
C1518 C 0.87072 0.36919 0.72818 0.0
C1519 C 0.89753 0.38862 0.73491 0.0
C1520 C 0.86602 0.34442 0.72024 0.0
C1521 C 0.88816 0.33875 0.71865 0.0
C1522 C 0.91525 0.35888 0.72457 0.0
C1523 C 0.91982 0.38342 0.73276 0.0
C1524 C 0.89199 0.27377 0.71465 0.0
C1525 C 0.87192 0.25917 0.69987 0.0
C1526 C 0.89729 0.29952 0.72059 0.0
C1527 C 0.88289 0.31156 0.71177 0.0
C1528 C 0.86298 0.29705 0.69683 0.0
C1529 C 0.85743 0.2711 0.69106 0.0
H1530 H 0.16768 0.95165 0.66633 0.0
H1531 H 0.19005 0.98205 0.60589 0.0
H1532 H 0.2038 0.99598 0.67901 0.0
H1533 H 0.22666 0.02563 0.6186 0.0
H1534 H 0.31061 0.08579 0.64856 0.0
H1535 H 0.27296 0.04162 0.6373 0.0
H1536 H 0.21577 0.04663 0.67899 0.0
H1537 H 0.25309 0.09123 0.68988 0.0
C1538 C 0.18004 0.96773 0.65573 0.0
C1539 C 0.17606 0.96297 0.63503 0.0
C1540 C 0.20084 0.99309 0.66302 0.0
C1541 C 0.21833 0.01413 0.64978 0.0
C1542 C 0.21391 0.00963 0.62917 0.0
C1543 C 0.19294 0.98453 0.6219 0.0
C1544 C 0.29008 0.07755 0.65541 0.0
C1545 C 0.2851 0.09211 0.67033 0.0
C1546 C 0.26847 0.05223 0.64889 0.0
C1547 C 0.24141 0.04064 0.65727 0.0
C1548 C 0.23647 0.0549 0.67241 0.0
C1549 C 0.25797 0.08045 0.6787 0.0
H1550 H 0.07581 0.25544 0.65053 0.0
H1551 H 0.03066 0.17284 0.62914 0.0
H1552 H 0.03214 0.25094 0.66371 0.0
H1553 H 0.98654 0.16832 0.64157 0.0
H1554 H 0.91207 0.16183 0.67621 0.0
H1555 H 0.95735 0.16508 0.669 0.0
H1556 H 0.99126 0.24938 0.6518 0.0
H1557 H 0.94652 0.24622 0.65985 0.0
C1558 C 0.05644 0.23625 0.64877 0.0
C1559 C 0.05654 0.21448 0.63889 0.0
C1560 C 0.03131 0.23366 0.65615 0.0
C1561 C 1.00548 0.20931 0.65361 0.0
C1562 C 1.00587 0.18729 0.6441 0.0
C1563 C 0.03111 0.18985 0.63686 0.0
C1564 C 0.92946 0.18119 0.67136 0.0
C1565 C 0.9259 0.20396 0.66903 0.0
C1566 C 0.95537 0.183 0.66693 0.0
C1567 C 0.97827 0.20753 0.65977 0.0
C1568 C 0.97454 0.23028 0.65764 0.0
C1569 C 0.94876 0.22847 0.66213 0.0
H1570 H 0.76097 0.81009 0.62943 0.0
H1571 H 0.84695 0.87024 0.64223 0.0
H1572 H 0.76873 0.77448 0.64299 0.0
H1573 H 0.85533 0.83456 0.65502 0.0
H1574 H 0.79868 0.71352 0.64758 0.0
H1575 H 0.79072 0.74946 0.63571 0.0
H1576 H 0.84665 0.80347 0.68108 0.0
H1577 H 0.85609 0.7679 0.69211 0.0
C1578 C 0.78164 0.81559 0.63497 0.0
C1579 C 0.80338 0.84286 0.63472 0.0
C1580 C 0.78618 0.79519 0.64268 0.0
C1581 C 0.81275 0.80148 0.65004 0.0
C1582 C 0.83447 0.8289 0.64982 0.0
C1583 C 0.82977 0.84936 0.64238 0.0
C1584 C 0.80932 0.73302 0.65509 0.0
C1585 C 0.82786 0.73762 0.67099 0.0
C1586 C 0.80453 0.75367 0.64836 0.0
C1587 C 0.81783 0.77946 0.65747 0.0
C1588 C 0.83623 0.78402 0.6735 0.0
C1589 C 0.84135 0.76343 0.68005 0.0
H1590 H 0.06868 0.81104 0.67039 0.0
H1591 H 0.0318 0.85533 0.64406 0.0
H1592 H 0.02202 0.77196 0.67604 0.0
H1593 H 0.98492 0.81583 0.64902 0.0
H1594 H 0.90338 0.74826 0.67696 0.0
H1595 H 0.95007 0.78854 0.67356 0.0
H1596 H 0.98408 0.73669 0.65809 0.0
H1597 H 0.93767 0.69664 0.66229 0.0
C1598 C 0.05054 0.8122 0.66547 0.0
C1599 C 0.05401 0.83594 0.65617 0.0
C1600 C 0.02375 0.78977 0.66868 0.0
C1601 C 0.99955 0.79046 0.66276 0.0
C1602 C 1.00299 0.81451 0.65386 0.0
C1603 C 0.02989 0.83707 0.65075 0.0
C1604 C 0.92099 0.74554 0.67324 0.0
C1605 C 0.91709 0.71929 0.67044 0.0
C1606 C 0.9477 0.76864 0.67097 0.0
C1607 C 0.97103 0.766 0.66559 0.0
C1608 C 0.96686 0.73962 0.66264 0.0
C1609 C 0.94023 0.71662 0.66494 0.0
H1610 H 0.1641 0.17542 0.6433 0.0
H1611 H 0.21328 0.25532 0.66909 0.0
H1612 H 0.20432 0.16817 0.6461 0.0
H1613 H 0.25304 0.24789 0.67261 0.0
H1614 H 0.3288 0.23941 0.65808 0.0
H1615 H 0.28807 0.24529 0.65385 0.0
H1616 H 0.23323 0.16047 0.66888 0.0
H1617 H 0.27423 0.15459 0.67236 0.0
C1618 C 0.18358 0.19155 0.64939 0.0
C1619 C 0.18578 0.21637 0.65534 0.0
C1620 C 0.2066 0.18728 0.65124 0.0
C1621 C 0.23226 0.20756 0.65937 0.0
C1622 C 0.23405 0.23205 0.66575 0.0
C1623 C 0.21118 0.23633 0.66379 0.0
C1624 C 0.30802 0.22208 0.66055 0.0
C1625 C 0.30477 0.19679 0.66618 0.0
C1626 C 0.2846 0.22543 0.65824 0.0
C1627 C 0.25714 0.20347 0.66127 0.0
C1628 C 0.25391 0.17787 0.66631 0.0
C1629 C 0.27744 0.17454 0.66862 0.0
H1630 H 0.78503 0.967 0.6283 0.0
H1631 H 0.81095 0.96199 0.68817 0.0
H1632 H 0.79836 0.01467 0.63388 0.0
H1633 H 0.82364 0.00933 0.69406 0.0
H1634 H 0.87039 0.10195 0.69073 0.0
H1635 H 0.85798 0.05504 0.68425 0.0
H1636 H 0.78381 0.04203 0.65265 0.0
H1637 H 0.79641 0.08918 0.65895 0.0
C1638 C 0.79345 0.97617 0.64268 0.0
C1639 C 0.7968 0.96092 0.65785 0.0
C1640 C 0.80094 1.00334 0.64594 0.0
C1641 C 0.81199 0.01582 0.66445 0.0
C1642 C 0.8155 1.00048 0.67956 0.0
C1643 C 0.80807 0.97334 0.67627 0.0
C1644 C 0.85131 0.08907 0.68252 0.0
C1645 C 0.83422 0.09926 0.67555 0.0
C1646 C 0.84418 0.06212 0.67882 0.0
C1647 C 0.8198 0.04468 0.66803 0.0
C1648 C 0.80289 0.05498 0.66083 0.0
C1649 C 0.81005 0.08199 0.66452 0.0
H1650 H 0.52951 0.38999 0.68448 0.0
H1651 H 0.49633 0.3862 0.74353 0.0
H1652 H 0.49463 0.34208 0.6792 0.0
H1653 H 0.46164 0.33799 0.73855 0.0
H1654 H 0.38384 0.26212 0.71305 0.0
H1655 H 0.41947 0.3094 0.71953 0.0
H1656 H 0.4816 0.29659 0.68959 0.0
H1657 H 0.44609 0.24956 0.68302 0.0
C1658 C 0.51479 0.37878 0.69637 0.0
C1659 C 0.51529 0.39183 0.7143 0.0
C1660 C 0.49489 0.35128 0.69342 0.0
C1661 C 0.47514 0.3361 0.7084 0.0
C1662 C 0.47615 0.34911 0.72654 0.0
C1663 C 0.49609 0.37664 0.72948 0.0
C1664 C 0.40512 0.26937 0.7079 0.0
C1665 C 0.41194 0.25208 0.69724 0.0
C1666 C 0.42561 0.29648 0.7117 0.0
C1667 C 0.45345 0.30696 0.70498 0.0
C1668 C 0.46031 0.28946 0.69465 0.0
C1669 C 0.43987 0.26241 0.69087 0.0
H1670 H 0.66299 0.17427 0.72815 0.0
H1671 H 0.62965 0.09367 0.70357 0.0
H1672 H 0.71082 0.18217 0.72391 0.0
H1673 H 0.6771 0.10171 0.69865 0.0
H1674 H 0.76237 0.11143 0.71256 0.0
H1675 H 0.71551 0.10524 0.7168 0.0
H1676 H 0.7471 0.18943 0.7003 0.0
H1677 H 0.79439 0.19567 0.6968 0.0
C1678 C 0.66584 0.15815 0.72201 0.0
C1679 C 0.64241 0.13294 0.71685 0.0
C1680 C 0.69332 0.16278 0.71932 0.0
C1681 C 0.69805 0.14247 0.71115 0.0
C1682 C 0.6745 0.11761 0.70551 0.0
C1683 C 0.6472 0.11298 0.70829 0.0
C1684 C 0.75923 0.12854 0.7097 0.0
C1685 C 0.78191 0.15379 0.70381 0.0
C1686 C 0.73228 0.12501 0.71203 0.0
C1687 C 0.72718 0.14673 0.70872 0.0
C1688 C 0.75009 0.17223 0.70312 0.0
C1689 C 0.77717 0.17575 0.70081 0.0
H1690 H 0.889 0.50016 0.69063 0.0
H1691 H 0.90948 0.52959 0.75109 0.0
H1692 H 0.87487 0.53392 0.68355 0.0
H1693 H 0.89473 0.56306 0.74429 0.0
H1694 H 0.89909 0.63969 0.71739 0.0
H1695 H 0.91087 0.60465 0.7253 0.0
H1696 H 0.83953 0.54615 0.69109 0.0
H1697 H 0.82788 0.58125 0.68302 0.0
C1698 C 0.89025 0.51378 0.70243 0.0
C1699 C 0.90061 0.51259 0.72133 0.0
C1700 C 0.882 0.533 0.69845 0.0
C1701 C 0.88381 0.55133 0.71332 0.0
C1702 C 0.89354 0.54959 0.73239 0.0
C1703 C 0.90181 0.53038 0.73635 0.0
C1704 C 0.88586 0.61936 0.71157 0.0
C1705 C 0.86274 0.61342 0.69934 0.0
C1706 C 0.89254 0.5992 0.71621 0.0
C1707 C 0.87619 0.57257 0.7088 0.0
C1708 C 0.85285 0.56654 0.69678 0.0
C1709 C 0.84618 0.58671 0.69214 0.0
H1710 H 0.42374 0.89474 0.23444 0.0
H1711 H 0.50623 0.94605 0.25907 0.0
H1712 H 0.44023 0.91666 0.20192 0.0
H1713 H 0.52257 0.96888 0.22697 0.0
H1714 H 0.55352 0.98979 0.16389 0.0
H1715 H 0.53542 0.96445 0.19492 0.0
H1716 H 0.45411 0.95576 0.18261 0.0
H1717 H 0.47221 0.98007 0.15099 0.0
C1718 C 0.44534 0.91096 0.23293 0.0
C1719 C 0.46371 0.91858 0.24931 0.0
C1720 C 0.45484 0.92365 0.21428 0.0
C1721 C 0.48289 0.94458 0.21156 0.0
C1722 C 0.50105 0.95242 0.22815 0.0
C1723 C 0.49166 0.93946 0.24668 0.0
C1724 C 0.53171 0.98223 0.16778 0.0
C1725 C 0.51431 0.98698 0.15506 0.0
C1726 C 0.52132 0.96788 0.1857 0.0
C1727 C 0.4933 0.95829 0.19166 0.0
C1728 C 0.47569 0.9625 0.17859 0.0
C1729 C 0.48603 0.97651 0.16044 0.0
H1730 H 0.12326 0.53272 0.23309 0.0
H1731 H 0.06757 0.55625 0.26067 0.0
H1732 H 0.09995 0.52759 0.20106 0.0
H1733 H 0.04356 0.55024 0.22896 0.0
H1734 H 0.02418 0.56427 0.16603 0.0
H1735 H 0.04919 0.57012 0.19725 0.0
H1736 H 0.05817 0.50042 0.18296 0.0
H1737 H 0.03396 0.49533 0.15134 0.0
C1738 C 0.10581 0.5365 0.23231 0.0
C1739 C 0.0973 0.54501 0.24931 0.0
C1740 C 0.09236 0.53347 0.21398 0.0
C1741 C 0.06988 0.5386 0.21232 0.0
C1742 C 0.06117 0.54672 0.22949 0.0
C1743 C 0.07483 0.55005 0.24772 0.0
C1744 C 0.03151 0.55021 0.16961 0.0
C1745 C 0.02705 0.52929 0.15632 0.0
C1746 C 0.04574 0.55345 0.18756 0.0
C1747 C 0.05556 0.53561 0.19281 0.0
C1748 C 0.05128 0.51479 0.17936 0.0
C1749 C 0.03733 0.51178 0.16126 0.0
H1750 H 0.52717 0.56671 0.26011 0.0
H1751 H 0.44907 0.55152 0.23381 0.0
H1752 H 0.54229 0.55817 0.22809 0.0
H1753 H 0.46449 0.54375 0.20139 0.0
H1754 H 0.49338 0.50915 0.14961 0.0
H1755 H 0.47518 0.51498 0.18152 0.0
H1756 H 0.55833 0.57978 0.19695 0.0
H1757 H 0.57639 0.5733 0.16551 0.0
C1758 C 0.51326 0.5616 0.24741 0.0
C1759 C 0.48704 0.55998 0.24943 0.0
C1760 C 0.52198 0.55687 0.22898 0.0
C1761 C 0.50487 0.55072 0.21195 0.0
C1762 C 0.47819 0.54826 0.21414 0.0
C1763 C 0.46933 0.55273 0.23271 0.0
C1764 C 0.50763 0.52475 0.15982 0.0
C1765 C 0.53636 0.54057 0.15516 0.0
C1766 C 0.49723 0.52814 0.1781 0.0
C1767 C 0.51532 0.54759 0.19205 0.0
C1768 C 0.54386 0.56403 0.18694 0.0
C1769 C 0.55424 0.56046 0.16883 0.0
H1770 H 0.91075 0.40717 0.80475 0.0
H1771 H 0.95769 0.493 0.79013 0.0
H1772 H 0.93534 0.41636 0.83652 0.0
H1773 H 0.98163 0.50217 0.82232 0.0
H1774 H 0.01321 0.44109 0.87636 0.0
H1775 H 0.98629 0.43281 0.84562 0.0
H1776 H 0.9713 0.49869 0.86018 0.0
H1777 H 0.99834 0.50701 0.89106 0.0
C1778 C 0.92632 0.428 0.80827 0.0
C1779 C 0.93249 0.44929 0.79471 0.0
C1780 C 0.9403 0.43325 0.82652 0.0
C1781 C 0.96053 0.45993 0.83179 0.0
C1782 C 0.96599 0.48141 0.81866 0.0
C1783 C 0.95221 0.47614 0.80026 0.0
C1784 C 1.00422 0.45384 0.87296 0.0
C1785 C 1.00789 0.47472 0.88604 0.0
C1786 C 0.98865 0.44897 0.85547 0.0
C1787 C 0.97666 0.46507 0.85057 0.0
C1788 C 0.98042 0.48606 0.86358 0.0
C1789 C 0.9957 0.4907 0.88126 0.0
H1790 H 0.58954 0.51865 0.78908 0.0
H1791 H 0.5565 0.43241 0.79877 0.0
H1792 H 0.57236 0.52216 0.82188 0.0
H1793 H 0.53843 0.43594 0.83127 0.0
H1794 H 0.55754 0.52107 0.88989 0.0
H1795 H 0.57914 0.51679 0.85904 0.0
H1796 H 0.50051 0.4462 0.84259 0.0
H1797 H 0.479 0.45051 0.87332 0.0
C1798 C 0.579 0.50048 0.79825 0.0
C1799 C 0.5744 0.4752 0.7911 0.0
C1800 C 0.56906 0.50253 0.81706 0.0
C1801 C 0.55395 0.47932 0.82912 0.0
C1802 C 0.54972 0.45413 0.8222 0.0
C1803 C 0.55997 0.45213 0.8035 0.0
C1804 C 0.54501 0.5045 0.87976 0.0
C1805 C 0.51657 0.48619 0.88396 0.0
C1806 C 0.5573 0.50215 0.86206 0.0
C1807 C 0.5415 0.48117 0.84839 0.0
C1808 C 0.51328 0.46244 0.85289 0.0
C1809 C 0.50091 0.46503 0.8704 0.0
H1810 H 0.56731 0.07892 0.7857 0.0
H1811 H 0.5222 0.12086 0.80078 0.0
H1812 H 0.55502 0.0563 0.81826 0.0
H1813 H 0.50912 0.09738 0.83285 0.0
H1814 H 0.54599 0.03979 0.88707 0.0
H1815 H 0.56252 0.06674 0.85613 0.0
H1816 H 0.47777 0.04793 0.84328 0.0
H1817 H 0.46135 0.02095 0.87394 0.0
C1818 C 0.55505 0.0836 0.79594 0.0
C1819 C 0.54556 0.10163 0.79034 0.0
C1820 C 0.54796 0.07054 0.81462 0.0
C1821 C 0.53093 0.0749 0.82808 0.0
C1822 C 0.52192 0.09328 0.82269 0.0
C1823 C 0.52931 0.1066 0.80419 0.0
C1824 C 0.53102 0.04169 0.87769 0.0
C1825 C 0.50238 0.02824 0.88288 0.0
C1826 C 0.54042 0.05691 0.85993 0.0
C1827 C 0.52144 0.05944 0.84725 0.0
C1828 C 0.49295 0.04655 0.85278 0.0
C1829 C 0.48352 0.03099 0.87028 0.0
H1830 H 0.08629 0.22558 0.56777 0.0
H1831 H 0.16863 0.27867 0.59199 0.0
H1832 H 0.10205 0.24748 0.53515 0.0
H1833 H 0.18421 0.30143 0.55982 0.0
H1834 H 0.21464 0.32242 0.49672 0.0
H1835 H 0.19712 0.29706 0.52779 0.0
H1836 H 0.11492 0.28629 0.51561 0.0
H1837 H 0.13248 0.31063 0.48391 0.0
C1838 C 0.10769 0.24218 0.56615 0.0
C1839 C 0.12626 0.25028 0.58243 0.0
C1840 C 0.11677 0.25485 0.54744 0.0
C1841 C 0.14458 0.27624 0.54458 0.0
C1842 C 0.16289 0.2846 0.56109 0.0
C1843 C 0.15394 0.27167 0.57967 0.0
C1844 C 0.19276 0.31439 0.50064 0.0
C1845 C 0.17496 0.31858 0.48794 0.0
C1846 C 0.1827 0.30004 0.51859 0.0
C1847 C 0.1546 0.28988 0.52461 0.0
C1848 C 0.13658 0.2935 0.51155 0.0
C1849 C 0.14661 0.30751 0.49336 0.0
H1850 H 0.7381 0.83398 0.58344 0.0
H1851 H 0.79097 0.92014 0.57157 0.0
H1852 H 0.71482 0.82853 0.5514 0.0
H1853 H 0.7669 0.91468 0.53991 0.0
H1854 H 0.70048 0.82794 0.4829 0.0
H1855 H 0.72634 0.83324 0.51391 0.0
H1856 H 0.7172 0.90223 0.52987 0.0
H1857 H 0.69142 0.89694 0.49894 0.0
C1858 C 0.745 0.85172 0.57397 0.0
C1859 C 0.7664 0.87754 0.58021 0.0
C1860 C 0.73156 0.84857 0.55563 0.0
C1861 C 0.73898 0.8712 0.54323 0.0
C1862 C 0.76051 0.89694 0.54931 0.0
C1863 C 0.77419 0.90005 0.56751 0.0
C1864 C 0.70416 0.8443 0.49301 0.0
C1865 C 0.69391 0.86199 0.48856 0.0
C1866 C 0.71877 0.84721 0.51078 0.0
C1867 C 0.72377 0.86815 0.52427 0.0
C1868 C 0.71383 0.88604 0.51967 0.0
C1869 C 0.6989 0.88289 0.50207 0.0
H1870 H 0.19043 0.89816 0.59375 0.0
H1871 H 0.11291 0.8833 0.56669 0.0
H1872 H 0.20578 0.889 0.56203 0.0
H1873 H 0.1286 0.87508 0.53452 0.0
H1874 H 0.15859 0.84195 0.4826 0.0
H1875 H 0.13972 0.84675 0.51455 0.0
H1876 H 0.22252 0.91114 0.53118 0.0
H1877 H 0.24122 0.90566 0.49972 0.0
C1878 C 0.17665 0.89284 0.58095 0.0
C1879 C 0.15057 0.89159 0.58263 0.0
C1880 C 0.18552 0.88782 0.56269 0.0
C1881 C 0.16872 0.88181 0.5455 0.0
C1882 C 0.14207 0.87949 0.5474 0.0
C1883 C 0.13304 0.88421 0.56581 0.0
C1884 C 0.17262 0.8572 0.4931 0.0
C1885 C 0.20143 0.87323 0.48876 0.0
C1886 C 0.16184 0.86 0.51141 0.0
C1887 C 0.17962 0.87906 0.52568 0.0
C1888 C 0.20827 0.89565 0.52092 0.0
C1889 C 0.21902 0.89266 0.50279 0.0
H1890 H 0.57862 0.74017 0.1364 0.0
H1891 H 0.62428 0.82609 0.12192 0.0
H1892 H 0.60314 0.74966 0.16821 0.0
H1893 H 0.64816 0.83554 0.15414 0.0
H1894 H 0.66411 0.84054 0.22295 0.0
H1895 H 0.63742 0.83185 0.19188 0.0
H1896 H 0.65402 0.76688 0.17772 0.0
H1897 H 0.68055 0.77551 0.20867 0.0
C1898 C 0.59392 0.76108 0.13995 0.0
C1899 C 0.59972 0.78232 0.12643 0.0
C1900 C 0.60786 0.76649 0.15822 0.0
C1901 C 0.62767 0.7933 0.16356 0.0
C1902 C 0.63282 0.81469 0.15044 0.0
C1903 C 0.61908 0.80926 0.13201 0.0
C1904 C 0.6619 0.82434 0.21321 0.0
C1905 C 0.67441 0.80872 0.21817 0.0
C1906 C 0.64682 0.81951 0.19541 0.0
C1907 C 0.64363 0.79867 0.18244 0.0
C1908 C 0.65595 0.78292 0.18752 0.0
C1909 C 0.67131 0.78799 0.20514 0.0
H1910 H 0.25554 0.85207 0.12245 0.0
H1911 H 0.22223 0.76602 0.1333 0.0
H1912 H 0.23836 0.85639 0.15502 0.0
H1913 H 0.20408 0.77036 0.16554 0.0
H1914 H 0.22416 0.85671 0.22312 0.0
H1915 H 0.24545 0.85157 0.1924 0.0
H1916 H 0.16625 0.7814 0.17637 0.0
H1917 H 0.14502 0.78662 0.20695 0.0
C1918 C 0.24493 0.83411 0.13182 0.0
C1919 C 0.2403 0.80865 0.12506 0.0
C1920 C 0.23498 0.83663 0.15049 0.0
C1921 C 0.2198 0.81371 0.1628 0.0
C1922 C 0.21545 0.78833 0.15626 0.0
C1923 C 0.22574 0.78586 0.1377 0.0
C1924 C 0.21143 0.84006 0.2131 0.0
C1925 C 0.18292 0.82213 0.21737 0.0
C1926 C 0.22354 0.83722 0.19549 0.0
C1927 C 0.2075 0.8161 0.18198 0.0
C1928 C 0.1792 0.79775 0.18655 0.0
C1929 C 0.167 0.80085 0.20397 0.0
H1930 H 0.24749 0.44747 0.13567 0.0
H1931 H 0.17114 0.38524 0.10857 0.0
H1932 H 0.23459 0.42182 0.16697 0.0
H1933 H 0.15865 0.35889 0.13943 0.0
H1934 H 0.12816 0.33032 0.20232 0.0
H1935 H 0.14217 0.35687 0.17158 0.0
H1936 H 0.22924 0.38397 0.18466 0.0
H1937 H 0.21501 0.35818 0.21592 0.0
C1938 C 0.22813 0.42806 0.13634 0.0
C1939 C 0.21027 0.41846 0.11968 0.0
C1940 C 0.22072 0.41323 0.15429 0.0
C1941 C 0.19538 0.38818 0.15599 0.0
C1942 C 0.17794 0.37835 0.13904 0.0
C1943 C 0.18517 0.39337 0.12123 0.0
C1944 C 0.1503 0.34194 0.19859 0.0
C1945 C 0.17045 0.34204 0.21153 0.0
C1946 C 0.1584 0.3571 0.18085 0.0
C1947 C 0.18693 0.37253 0.17531 0.0
C1948 C 0.20712 0.37274 0.1884 0.0
C1949 C 0.19898 0.35785 0.20634 0.0
H1950 H 0.81514 0.55861 0.90547 0.0
H1951 H 0.78076 0.61077 0.91904 0.0
H1952 H 0.83138 0.5812 0.87323 0.0
H1953 H 0.79597 0.63235 0.88634 0.0
H1954 H 0.80587 0.64637 0.81752 0.0
H1955 H 0.78684 0.62059 0.8487 0.0
H1956 H 0.86778 0.62934 0.86189 0.0
H1957 H 0.88676 0.65527 0.83098 0.0
C1958 C 0.81108 0.57492 0.90172 0.0
C1959 C 0.79672 0.58286 0.91516 0.0
C1960 C 0.82025 0.58772 0.88311 0.0
C1961 C 0.81492 0.60853 0.87721 0.0
C1962 C 0.80008 0.61614 0.89034 0.0
C1963 C 0.79128 0.60364 0.90911 0.0
C1964 C 0.81943 0.64248 0.82701 0.0
C1965 C 0.8478 0.65285 0.82185 0.0
C1966 C 0.80863 0.62793 0.8449 0.0
C1967 C 0.82583 0.62299 0.85778 0.0
C1968 C 0.85395 0.63265 0.85225 0.0
C1969 C 0.86484 0.64759 0.8346 0.0
H1970 H 0.44824 0.18465 0.89956 0.0
H1971 H 0.41785 0.23779 0.91978 0.0
H1972 H 0.42178 0.17625 0.86904 0.0
H1973 H 0.39442 0.23218 0.88826 0.0
H1974 H 0.3304 0.19648 0.83947 0.0
H1975 H 0.35637 0.20393 0.87001 0.0
H1976 H 0.41783 0.19149 0.83847 0.0
H1977 H 0.38985 0.1806 0.80846 0.0
C1978 C 0.43607 0.1947 0.89756 0.0
C1979 C 0.4352 0.21178 0.91247 0.0
C1980 C 0.42127 0.19033 0.8797 0.0
C1981 C 0.40575 0.20348 0.87591 0.0
C1982 C 0.4055 0.2211 0.89061 0.0
C1983 C 0.4196 0.22485 0.90869 0.0
C1984 C 0.34909 0.19468 0.83904 0.0
C1985 C 0.35762 0.18754 0.8213 0.0
C1986 C 0.36449 0.19962 0.85662 0.0
C1987 C 0.38948 0.19846 0.85696 0.0
C1988 C 0.39847 0.19209 0.83909 0.0
C1989 C 0.38261 0.18637 0.82161 0.0
H1990 H 0.78058 0.21691 0.90262 0.0
H1991 H 0.85892 0.23185 0.92832 0.0
H1992 H 0.79526 0.2085 0.87013 0.0
H1993 H 0.87327 0.22257 0.89625 0.0
H1994 H 0.90616 0.23587 0.83338 0.0
H1995 H 0.88899 0.24325 0.86491 0.0
H1996 H 0.80503 0.17932 0.85027 0.0
H1997 H 0.82235 0.17268 0.81825 0.0
C1998 C 0.80074 0.21793 0.90137 0.0
C1999 C 0.81872 0.22528 0.91794 0.0
C2000 C 0.80917 0.21308 0.88276 0.0
C2001 C 0.83569 0.21521 0.88038 0.0
C2002 C 0.85309 0.2215 0.89727 0.0
C2003 C 0.8448 0.22664 0.91573 0.0
C2004 C 0.88402 0.22343 0.8369 0.0
C2005 C 0.86565 0.20356 0.82342 0.0
C2006 C 0.87415 0.2275 0.85506 0.0
C2007 C 0.84564 0.21157 0.86042 0.0
C2008 C 0.82708 0.19211 0.84667 0.0
C2009 C 0.83697 0.18825 0.82832 0.0
H2010 H 0.2524 0.13871 0.46848 0.0
H2011 H 0.31399 0.12114 0.44347 0.0
H2012 H 0.27568 0.14758 0.50092 0.0
H2013 H 0.33799 0.13099 0.47552 0.0
H2014 H 0.35448 0.11721 0.53923 0.0
H2015 H 0.33134 0.11064 0.50714 0.0
H2016 H 0.31571 0.1766 0.52041 0.0
H2017 H 0.33815 0.18241 0.55296 0.0
C2018 C 0.27126 0.13728 0.46988 0.0
C2019 C 0.28131 0.12904 0.45357 0.0
C2020 C 0.28466 0.1424 0.48844 0.0
C2021 C 0.30857 0.13968 0.49098 0.0
C2022 C 0.31921 0.13256 0.47433 0.0
C2023 C 0.30562 0.12711 0.4559 0.0
C2024 C 0.34613 0.13032 0.53525 0.0
C2025 C 0.34824 0.15041 0.54852 0.0
C2026 C 0.33299 0.1267 0.51678 0.0
C2027 C 0.32193 0.14333 0.51097 0.0
C2028 C 0.32374 0.16324 0.52441 0.0
C2029 C 0.33663 0.16664 0.54304 0.0
H2030 H 0.94857 0.16949 0.46971 0.0
H2031 H 0.86172 0.11839 0.45234 0.0
H2032 H 0.93314 0.17668 0.50221 0.0
H2033 H 0.84676 0.12435 0.48526 0.0
H2034 H 0.83505 0.12196 0.55444 0.0
H2035 H 0.85327 0.11337 0.52337 0.0
H2036 H 0.90257 0.2 0.51268 0.0
H2037 H 0.88372 0.20845 0.54342 0.0
C2038 C 0.92625 0.15976 0.47269 0.0
C2039 C 0.90648 0.14343 0.45814 0.0
C2040 C 0.91748 0.16373 0.49142 0.0
C2041 C 0.8888 0.15097 0.49623 0.0
C2042 C 0.86903 0.13414 0.482 0.0
C2043 C 0.87772 0.13063 0.46314 0.0
C2044 C 0.85001 0.13908 0.5455 0.0
C2045 C 0.8581 0.16583 0.5512 0.0
C2046 C 0.86031 0.1342 0.52776 0.0
C2047 C 0.87931 0.15604 0.51569 0.0
C2048 C 0.88811 0.18284 0.5218 0.0
C2049 C 0.87734 0.18767 0.5393 0.0
H2050 H 0.85658 0.78665 0.46756 0.0
H2051 H 0.90385 0.74671 0.453 0.0
H2052 H 0.84352 0.76303 0.49957 0.0
H2053 H 0.89149 0.72387 0.48551 0.0
H2054 H 0.88135 0.70691 0.55433 0.0
H2055 H 0.89797 0.73394 0.52343 0.0
H2056 H 0.81295 0.71352 0.50975 0.0
H2057 H 0.79645 0.68652 0.54038 0.0
C2058 C 0.86416 0.77279 0.47108 0.0
C2059 C 0.88098 0.76837 0.45739 0.0
C2060 C 0.85678 0.75938 0.48955 0.0
C2061 C 0.86633 0.74147 0.49504 0.0
C2062 C 0.88397 0.73772 0.48177 0.0
C2063 C 0.89109 0.75089 0.46312 0.0
C2064 C 0.86633 0.70846 0.54477 0.0
C2065 C 0.8376 0.69457 0.54974 0.0
C2066 C 0.87579 0.72372 0.52704 0.0
C2067 C 0.85676 0.72584 0.51414 0.0
C2068 C 0.82816 0.71247 0.51942 0.0
C2069 C 0.81869 0.69689 0.5369 0.0
loop_
_geom_bond_atom_site_label_1
_geom_bond_atom_site_label_2
_geom_bond_distance
_geom_bond_site_symmetry_2
_ccdc_geom_bond_type
H0 C7 0.929 . S
H1 C10 0.930 . S
H2 C12 0.929 . S
H3 C4 0.969 . S
C4 H3 0.969 . S
C4 O5 1.550 . S
C4 H6 0.973 . S
O5 C4 1.550 . S
O5 C11 1.412 . S
H6 C4 0.973 . S
C7 H0 0.929 . S
C7 C8 1.400 . S
C7 C9 1.364 . S
C8 C7 1.400 . S
C8 C12 1.377 . S
C9 C7 1.364 . S
C9 C10 1.374 . S
C10 H1 0.930 . S
C10 C9 1.374 . S
C10 C11 1.383 . S
C11 O5 1.412 . S
C11 C10 1.383 . S
C11 C12 1.394 . S
C12 H2 0.929 . S
C12 C8 1.377 . S
C12 C11 1.394 . S
H13 C20 0.929 . S
H14 C23 0.930 . S
H15 C25 0.929 . S
H16 C17 0.969 . S
C17 H16 0.969 . S
C17 O18 1.550 . S
C17 H19 0.973 . S
O18 C17 1.550 . S
O18 C24 1.412 . S
H19 C17 0.973 . S
C20 H13 0.929 . S
C20 C21 1.400 . S
C20 C22 1.364 . S
C21 C20 1.400 . S
C21 C25 1.377 . S
C22 C20 1.364 . S
C22 C23 1.374 . S
C23 H14 0.930 . S
C23 C22 1.374 . S
C23 C24 1.383 . S
C24 O18 1.412 . S
C24 C23 1.383 . S
C24 C25 1.394 . S
C25 H15 0.929 . S
C25 C21 1.377 . S
C25 C24 1.394 . S
H26 C33 0.929 . S
H27 C36 0.930 . S
H28 C38 0.929 . S
H29 C30 0.969 . S
C30 H29 0.969 . S
C30 O31 1.550 . S
C30 H32 0.973 . S
O31 C30 1.550 . S
O31 C37 1.412 . S
H32 C30 0.973 . S
C33 H26 0.929 . S
C33 C34 1.400 . S
C33 C35 1.364 . S
C34 C33 1.400 . S
C34 C38 1.377 . S
C35 C33 1.364 . S
C35 C36 1.374 . S
C36 H27 0.930 . S
C36 C35 1.374 . S
C36 C37 1.383 . S
C37 O31 1.412 . S
C37 C36 1.383 . S
C37 C38 1.394 . S
C38 H28 0.929 . S
C38 C34 1.377 . S
C38 C37 1.394 . S
H39 C46 0.929 . S
H40 C49 0.930 . S
H41 C51 0.929 . S
H42 C43 0.969 . S
C43 H42 0.969 . S
C43 O44 1.550 . S
C43 H45 0.973 . S
O44 C43 1.550 . S
O44 C50 1.412 . S
H45 C43 0.973 . S
C46 H39 0.929 . S
C46 C47 1.400 . S
C46 C48 1.364 . S
C47 C46 1.400 . S
C47 C51 1.377 . S
C48 C46 1.364 . S
C48 C49 1.374 . S
C49 H40 0.930 . S
C49 C48 1.374 . S
C49 C50 1.383 . S
C50 O44 1.412 . S
C50 C49 1.383 . S
C50 C51 1.394 . S
C51 H41 0.929 . S
C51 C47 1.377 . S
C51 C50 1.394 . S
H52 C59 0.929 . S
H53 C62 0.930 . S
H54 C64 0.929 . S
H55 C56 0.969 . S
C56 H55 0.969 . S
C56 O57 1.550 . S
C56 H58 0.973 . S
O57 C56 1.550 . S
O57 C63 1.412 . S
H58 C56 0.973 . S
C59 H52 0.929 . S
C59 C60 1.400 . S
C59 C61 1.364 . S
C60 C59 1.400 . S
C60 C64 1.377 . S
C61 C59 1.364 . S
C61 C62 1.374 . S
C62 H53 0.930 . S
C62 C61 1.374 . S
C62 C63 1.383 . S
C63 O57 1.412 . S
C63 C62 1.383 . S
C63 C64 1.394 . S
C64 H54 0.929 . S
C64 C60 1.377 . S
C64 C63 1.394 . S
H65 C72 0.929 . S
H66 C75 0.930 . S
H67 C77 0.929 . S
H68 C69 0.969 . S
C69 H68 0.969 . S
C69 O70 1.550 . S
C69 H71 0.973 . S
O70 C69 1.550 . S
O70 C76 1.412 . S
H71 C69 0.973 . S
C72 H65 0.929 . S
C72 C73 1.400 . S
C72 C74 1.364 . S
C73 C72 1.400 . S
C73 C77 1.377 . S
C74 C72 1.364 . S
C74 C75 1.374 . S
C75 H66 0.930 . S
C75 C74 1.374 . S
C75 C76 1.383 . S
C76 O70 1.412 . S
C76 C75 1.383 . S
C76 C77 1.394 . S
C77 H67 0.929 . S
C77 C73 1.377 . S
C77 C76 1.394 . S
H78 C85 0.929 . S
H79 C88 0.930 . S
H80 C90 0.929 . S
H81 C82 0.969 . S
C82 H81 0.969 . S
C82 O83 1.550 . S
C82 H84 0.973 . S
O83 C82 1.550 . S
O83 C89 1.412 . S
H84 C82 0.973 . S
C85 H78 0.929 . S
C85 C86 1.400 . S
C85 C87 1.364 . S
C86 C85 1.400 . S
C86 C90 1.377 . S
C87 C85 1.364 . S
C87 C88 1.374 . S
C88 H79 0.930 . S
C88 C87 1.374 . S
C88 C89 1.383 . S
C89 O83 1.412 . S
C89 C88 1.383 . S
C89 C90 1.394 . S
C90 H80 0.929 . S
C90 C86 1.377 . S
C90 C89 1.394 . S
H91 C98 0.929 . S
H92 C101 0.930 . S
H93 C103 0.929 . S
H94 C95 0.969 . S
C95 H94 0.969 . S
C95 O96 1.550 . S
C95 H97 0.973 . S
O96 C95 1.550 . S
O96 C102 1.412 . S
H97 C95 0.973 . S
C98 H91 0.929 . S
C98 C99 1.400 . S
C98 C100 1.364 . S
C99 C98 1.400 . S
C99 C103 1.377 . S
C100 C98 1.364 . S
C100 C101 1.374 . S
C101 H92 0.930 . S
C101 C100 1.374 . S
C101 C102 1.383 . S
C102 O96 1.412 . S
C102 C101 1.383 . S
C102 C103 1.394 . S
C103 H93 0.929 . S
C103 C99 1.377 . S
C103 C102 1.394 . S
H104 C111 0.929 . S
H105 C114 0.930 . S
H106 C116 0.929 . S
H107 C108 0.969 . S
C108 H107 0.969 . S
C108 O109 1.550 . S
C108 H110 0.973 . S
O109 C108 1.550 . S
O109 C115 1.412 . S
H110 C108 0.973 . S
C111 H104 0.929 . S
C111 C112 1.400 . S
C111 C113 1.364 . S
C112 C111 1.400 . S
C112 C116 1.377 . S
C113 C111 1.364 . S
C113 C114 1.374 . S
C114 H105 0.930 . S
C114 C113 1.374 . S
C114 C115 1.383 . S
C115 O109 1.412 . S
C115 C114 1.383 . S
C115 C116 1.394 . S
C116 H106 0.929 . S
C116 C112 1.377 . S
C116 C115 1.394 . S
H117 C124 0.929 . S
H118 C127 0.930 . S
H119 C129 0.929 . S
H120 C121 0.969 . S
C121 H120 0.969 . S
C121 O122 1.550 . S
C121 H123 0.973 . S
O122 C121 1.550 . S
O122 C128 1.412 . S
H123 C121 0.973 . S
C124 H117 0.929 . S
C124 C125 1.400 . S
C124 C126 1.364 . S
C125 C124 1.400 . S
C125 C129 1.377 . S
C126 C124 1.364 . S
C126 C127 1.374 . S
C127 H118 0.930 . S
C127 C126 1.374 . S
C127 C128 1.383 . S
C128 O122 1.412 . S
C128 C127 1.383 . S
C128 C129 1.394 . S
C129 H119 0.929 . S
C129 C125 1.377 . S
C129 C128 1.394 . S
H130 C137 0.929 . S
H131 C140 0.930 . S
H132 C142 0.929 . S
H133 C134 0.969 . S
C134 H133 0.969 . S
C134 O135 1.550 . S
C134 H136 0.973 . S
O135 C134 1.550 . S
O135 C141 1.412 . S
H136 C134 0.973 . S
C137 H130 0.929 . S
C137 C138 1.400 . S
C137 C139 1.364 . S
C138 C137 1.400 . S
C138 C142 1.377 . S
C139 C137 1.364 . S
C139 C140 1.374 . S
C140 H131 0.930 . S
C140 C139 1.374 . S
C140 C141 1.383 . S
C141 O135 1.412 . S
C141 C140 1.383 . S
C141 C142 1.394 . S
C142 H132 0.929 . S
C142 C138 1.377 . S
C142 C141 1.394 . S
H143 C150 0.929 . S
H144 C153 0.930 . S
H145 C155 0.929 . S
H146 C147 0.969 . S
C147 H146 0.969 . S
C147 O148 1.550 . S
C147 H149 0.973 . S
O148 C147 1.550 . S
O148 C154 1.412 . S
H149 C147 0.973 . S
C150 H143 0.929 . S
C150 C151 1.400 . S
C150 C152 1.364 . S
C151 C150 1.400 . S
C151 C155 1.377 . S
C152 C150 1.364 . S
C152 C153 1.374 . S
C153 H144 0.930 . S
C153 C152 1.374 . S
C153 C154 1.383 . S
C154 O148 1.412 . S
C154 C153 1.383 . S
C154 C155 1.394 . S
C155 H145 0.929 . S
C155 C151 1.377 . S
C155 C154 1.394 . S
H156 C163 0.929 . S
H157 C166 0.930 . S
H158 C168 0.929 . S
H159 C160 0.969 . S
C160 H159 0.969 . S
C160 O161 1.550 . S
C160 H162 0.973 . S
O161 C160 1.550 . S
O161 C167 1.412 . S
H162 C160 0.973 . S
C163 H156 0.929 . S
C163 C164 1.400 . S
C163 C165 1.364 . S
C164 C163 1.400 . S
C164 C168 1.377 . S
C165 C163 1.364 . S
C165 C166 1.374 . S
C166 H157 0.930 . S
C166 C165 1.374 . S
C166 C167 1.383 . S
C167 O161 1.412 . S
C167 C166 1.383 . S
C167 C168 1.394 . S
C168 H158 0.929 . S
C168 C164 1.377 . S
C168 C167 1.394 . S
H169 C176 0.929 . S
H170 C179 0.930 . S
H171 C181 0.929 . S
H172 C173 0.969 . S
C173 H172 0.969 . S
C173 O174 1.550 . S
C173 H175 0.973 . S
O174 C173 1.550 . S
O174 C180 1.412 . S
H175 C173 0.973 . S
C176 H169 0.929 . S
C176 C177 1.400 . S
C176 C178 1.364 . S
C177 C176 1.400 . S
C177 C181 1.377 . S
C178 C176 1.364 . S
C178 C179 1.374 . S
C179 H170 0.930 . S
C179 C178 1.374 . S
C179 C180 1.383 . S
C180 O174 1.412 . S
C180 C179 1.383 . S
C180 C181 1.394 . S
C181 H171 0.929 . S
C181 C177 1.377 . S
C181 C180 1.394 . S
H182 C189 0.929 . S
H183 C192 0.930 . S
H184 C194 0.929 . S
H185 C186 0.969 . S
C186 H185 0.969 . S
C186 O187 1.550 . S
C186 H188 0.973 . S
O187 C186 1.550 . S
O187 C193 1.412 . S
H188 C186 0.973 . S
C189 H182 0.929 . S
C189 C190 1.400 . S
C189 C191 1.364 . S
C190 C189 1.400 . S
C190 C194 1.377 . S
C191 C189 1.364 . S
C191 C192 1.374 . S
C192 H183 0.930 . S
C192 C191 1.374 . S
C192 C193 1.383 . S
C193 O187 1.412 . S
C193 C192 1.383 . S
C193 C194 1.394 . S
C194 H184 0.929 . S
C194 C190 1.377 . S
C194 C193 1.394 . S
H195 C202 0.929 . S
H196 C205 0.930 . S
H197 C207 0.929 . S
H198 C199 0.969 . S
C199 H198 0.969 . S
C199 O200 1.550 . S
C199 H201 0.973 . S
O200 C199 1.550 . S
O200 C206 1.412 . S
H201 C199 0.973 . S
C202 H195 0.929 . S
C202 C203 1.400 . S
C202 C204 1.364 . S
C203 C202 1.400 . S
C203 C207 1.377 . S
C204 C202 1.364 . S
C204 C205 1.374 . S
C205 H196 0.930 . S
C205 C204 1.374 . S
C205 C206 1.383 . S
C206 O200 1.412 . S
C206 C205 1.383 . S
C206 C207 1.394 . S
C207 H197 0.929 . S
C207 C203 1.377 . S
C207 C206 1.394 . S
H208 C215 0.929 . S
H209 C218 0.930 . S
H210 C220 0.929 . S
H211 C212 0.969 . S
C212 H211 0.969 . S
C212 O213 1.550 . S
C212 H214 0.973 . S
O213 C212 1.550 . S
O213 C219 1.412 . S
H214 C212 0.973 . S
C215 H208 0.929 . S
C215 C216 1.400 . S
C215 C217 1.364 . S
C216 C215 1.400 . S
C216 C220 1.377 . S
C217 C215 1.364 . S
C217 C218 1.374 . S
C218 H209 0.930 . S
C218 C217 1.374 . S
C218 C219 1.383 . S
C219 O213 1.412 . S
C219 C218 1.383 . S
C219 C220 1.394 . S
C220 H210 0.929 . S
C220 C216 1.377 . S
C220 C219 1.394 . S
H221 C228 0.929 . S
H222 C231 0.930 . S
H223 C233 0.929 . S
H224 C225 0.969 . S
C225 H224 0.969 . S
C225 O226 1.550 . S
C225 H227 0.973 . S
O226 C225 1.550 . S
O226 C232 1.412 . S
H227 C225 0.973 . S
C228 H221 0.929 . S
C228 C229 1.400 . S
C228 C230 1.364 . S
C229 C228 1.400 . S
C229 C233 1.377 . S
C230 C228 1.364 . S
C230 C231 1.374 . S
C231 H222 0.930 . S
C231 C230 1.374 . S
C231 C232 1.383 . S
C232 O226 1.412 . S
C232 C231 1.383 . S
C232 C233 1.394 . S
C233 H223 0.929 . S
C233 C229 1.377 . S
C233 C232 1.394 . S
Eu234 N265 2.657 . S
Eu234 N272 2.609 . S
Eu234 O278 2.558 . S
Eu234 O279 2.612 1_566 S
Eu234 O281 2.339 1_565 S
Eu234 O282 2.563 1_565 S
Eu234 O283 2.419 1_565 S
Eu234 O285 2.380 1_556 S
Eu234 O286 2.430 . S
Eu234 C298 2.845 1_565 S
C235 C238 1.429 . S
C235 C239 1.411 . S
C235 N242 1.377 . S
C236 C238 1.420 . S
C236 C240 1.423 . S
C236 C248 1.392 . S
C237 C239 1.420 . S
C237 C240 1.351 . S
C237 H260 0.931 . S
C238 C235 1.429 . S
C238 C236 1.420 . S
C238 N246 1.362 . S
C239 C235 1.411 . S
C239 C237 1.420 . S
C239 C244 1.395 . S
C240 C236 1.423 . S
C240 C237 1.351 . S
C240 H252 0.930 . S
C241 C243 1.400 . S
C241 C244 1.386 . S
C241 H253 0.930 . S
N242 C235 1.377 . S
N242 C243 1.321 . S
N242 Eu245 2.609 . S
C243 C241 1.400 . S
C243 N242 1.321 . S
C243 H250 0.930 . S
C244 C239 1.395 . S
C244 C241 1.386 . S
C244 H263 0.930 . S
Eu245 N242 2.609 . S
Eu245 N246 2.657 . S
Eu245 O279 2.380 . S
Eu245 O280 2.432 . S
Eu245 O284 2.558 . S
Eu245 O285 2.612 1_545 S
Eu245 O287 2.339 1_545 S
Eu245 O288 2.563 1_545 S
Eu245 O289 2.419 1_545 S
Eu245 C309 2.848 . S
N246 C238 1.362 . S
N246 Eu245 2.657 . S
N246 C247 1.334 . S
C247 N246 1.334 . S
C247 C249 1.413 . S
C247 H254 0.929 . S
C248 C236 1.392 . S
C248 C249 1.367 . S
C248 H256 0.930 . S
C249 C247 1.413 . S
C249 C248 1.367 . S
C249 H251 0.930 . S
H250 C243 0.930 . S
H251 C249 0.930 . S
H252 C240 0.930 . S
H253 C241 0.930 . S
H254 C247 0.929 . S
H255 C269 0.930 . S
H256 C248 0.930 . S
H257 C275 0.930 . S
H258 C266 0.958 . S
H259 C273 0.930 . S
H260 C237 0.931 . S
H261 C267 0.930 . S
H262 C300 0.930 . S
H263 C244 0.930 . S
H264 C299 0.931 . S
N265 Eu234 2.657 . S
N265 C266 1.334 . S
N265 C270 1.362 . S
C266 H258 0.958 . S
C266 N265 1.334 . S
C266 C269 1.413 . S
C267 H261 0.930 . S
C267 C268 1.392 . S
C267 C269 1.367 . S
C268 C267 1.392 . S
C268 C270 1.420 . S
C268 C300 1.423 . S
C269 H255 0.930 . S
C269 C266 1.413 . S
C269 C267 1.367 . S
C270 N265 1.362 . S
C270 C268 1.420 . S
C270 C274 1.429 . S
H271 C276 0.930 . S
N272 Eu234 2.609 . S
N272 C274 1.377 . S
N272 C275 1.321 . S
C273 H259 0.930 . S
C273 C275 1.400 . S
C273 C276 1.386 . S
C274 C270 1.429 . S
C274 N272 1.377 . S
C274 C277 1.411 . S
C275 H257 0.930 . S
C275 N272 1.321 . S
C275 C273 1.400 . S
C276 H271 0.930 . S
C276 C273 1.386 . S
C276 C277 1.395 . S
C277 C274 1.411 . S
C277 C276 1.395 . S
C277 C299 1.420 . S
O278 Eu234 2.558 . S
O278 C298 1.222 1_565 S
O279 Eu234 2.612 1_544 S
O279 Eu245 2.380 . S
O279 C290 1.276 1_554 S
O280 Eu245 2.432 . S
O280 C297 1.264 . S
O281 Eu234 2.339 1_545 S
O281 C297 1.254 1_556 S
O282 Eu234 2.563 1_545 S
O282 C290 1.235 . S
O283 Eu234 2.419 1_545 S
O283 C298 1.279 . S
O284 Eu245 2.558 . S
O284 C309 1.257 . S
O285 Eu234 2.380 1_554 S
O285 Eu245 2.612 1_565 S
O285 C301 1.276 . S
O286 Eu234 2.430 . S
O286 C308 1.269 1_556 S
O287 Eu245 2.339 1_565 S
O287 C308 1.254 . S
O288 Eu245 2.563 1_565 S
O288 C301 1.235 . S
O289 Eu245 2.419 1_565 S
O289 C309 1.249 1_565 S
C290 O279 1.276 1_556 S
C290 O282 1.235 . S
C291 C293 1.393 . S
C291 C295 1.395 1_545 S
C291 C298 1.498 . S
C292 C293 1.392 . S
C292 C294 1.386 . S
C293 C291 1.393 . S
C293 C292 1.392 . S
C293 H310 0.930 . S
C294 C292 1.386 . S
C294 C296 1.395 1_545 S
C294 H311 0.930 . S
C295 C291 1.395 1_565 S
C295 C296 1.379 . S
C295 H312 0.930 . S
C296 C294 1.395 1_565 S
C296 C295 1.379 . S
C296 H313 0.930 . S
C297 O280 1.264 . S
C297 O281 1.254 1_554 S
C298 Eu234 2.845 1_545 S
C298 O278 1.222 1_545 S
C298 O283 1.279 . S
C298 C291 1.498 . S
C299 H264 0.931 . S
C299 C277 1.420 . S
C299 C300 1.351 . S
C300 H262 0.930 . S
C300 C268 1.423 . S
C300 C299 1.351 . S
C301 O285 1.276 . S
C301 O288 1.235 . S
C302 C303 1.346 1_545 S
C302 C306 1.434 . S
C302 C309 1.499 . S
C303 C302 1.346 1_565 S
C303 C304 1.392 . S
C303 H314 0.930 . S
C304 C303 1.392 . S
C304 C305 1.386 . S
C305 C304 1.386 . S
C305 C307 1.395 1_565 S
C305 H315 0.930 . S
C306 C302 1.434 . S
C306 C307 1.379 . S
C306 H316 0.930 . S
C307 C305 1.395 1_545 S
C307 C306 1.379 . S
C307 H317 0.930 . S
C308 O286 1.269 1_554 S
C308 O287 1.254 . S
C309 Eu245 2.848 . S
C309 O284 1.257 . S
C309 O289 1.249 1_545 S
C309 C302 1.499 . S
H310 C293 0.930 . S
H311 C294 0.930 . S
H312 C295 0.930 . S
H313 C296 0.930 . S
H314 C303 0.930 . S
H315 C305 0.930 . S
H316 C306 0.930 . S
H317 C307 0.930 . S
Eu318 N349 2.657 . S
Eu318 N356 2.609 . S
Eu318 O362 2.558 . S
Eu318 O363 2.612 1_456 S
Eu318 O365 2.339 1_455 S
Eu318 O366 2.563 1_455 S
Eu318 O367 2.418 1_455 S
Eu318 O369 2.380 1_556 S
Eu318 O370 2.404 1_556 S
Eu318 C382 2.848 . S
C319 C322 1.429 . S
C319 C323 1.411 . S
C319 N326 1.377 . S
C320 C322 1.420 . S
C320 C324 1.423 . S
C320 C332 1.392 . S
C321 C323 1.420 . S
C321 C324 1.351 . S
C321 H344 0.931 . S
C322 C319 1.429 . S
C322 C320 1.420 . S
C322 N330 1.362 . S
C323 C319 1.411 . S
C323 C321 1.420 . S
C323 C328 1.395 . S
C324 C320 1.423 . S
C324 C321 1.351 . S
C324 H336 0.930 . S
C325 C327 1.400 . S
C325 C328 1.386 . S
C325 H337 0.930 . S
N326 C319 1.377 . S
N326 C327 1.321 . S
N326 Eu329 2.609 . S
C327 C325 1.400 . S
C327 N326 1.321 . S
C327 H334 0.930 . S
C328 C323 1.395 . S
C328 C325 1.386 . S
C328 H347 0.930 . S
Eu329 N326 2.609 . S
Eu329 N330 2.657 . S
Eu329 O363 2.380 . S
Eu329 O364 2.432 . S
Eu329 O368 2.558 . S
Eu329 O369 2.612 1_655 S
Eu329 O371 2.339 1_655 S
Eu329 O372 2.563 1_655 S
Eu329 O373 2.419 1_655 S
Eu329 C393 2.848 . S
N330 C322 1.362 . S
N330 Eu329 2.657 . S
N330 C331 1.334 . S
C331 N330 1.334 . S
C331 C333 1.413 . S
C331 H338 0.929 . S
C332 C320 1.392 . S
C332 C333 1.367 . S
C332 H340 0.930 . S
C333 C331 1.413 . S
C333 C332 1.367 . S
C333 H335 0.930 . S
H334 C327 0.930 . S
H335 C333 0.930 . S
H336 C324 0.930 . S
H337 C325 0.930 . S
H338 C331 0.929 . S
H339 C353 0.930 . S
H340 C332 0.930 . S
H341 C359 0.930 . S
H342 C350 0.929 . S
H343 C357 0.930 . S
H344 C321 0.931 . S
H345 C351 0.930 . S
H346 C384 0.930 . S
H347 C328 0.930 . S
H348 C383 0.931 . S
N349 Eu318 2.657 . S
N349 C350 1.334 . S
N349 C354 1.362 . S
C350 H342 0.929 . S
C350 N349 1.334 . S
C350 C353 1.413 . S
C351 H345 0.930 . S
C351 C352 1.392 . S
C351 C353 1.367 . S
C352 C351 1.392 . S
C352 C354 1.420 . S
C352 C384 1.423 . S
C353 H339 0.930 . S
C353 C350 1.413 . S
C353 C351 1.367 . S
C354 N349 1.362 . S
C354 C352 1.420 . S
C354 C358 1.429 . S
H355 C360 0.930 . S
N356 Eu318 2.609 . S
N356 C358 1.377 . S
N356 C359 1.321 . S
C357 H343 0.930 . S
C357 C359 1.400 . S
C357 C360 1.386 . S
C358 C354 1.429 . S
C358 N356 1.377 . S
C358 C361 1.411 . S
C359 H341 0.930 . S
C359 N356 1.321 . S
C359 C357 1.400 . S
C360 H355 0.930 . S
C360 C357 1.386 . S
C360 C361 1.395 . S
C361 C358 1.411 . S
C361 C360 1.395 . S
C361 C383 1.420 . S
O362 Eu318 2.558 . S
O362 C382 1.257 . S
O363 Eu318 2.612 1_654 S
O363 Eu329 2.380 . S
O363 C374 1.276 1_554 S
O364 Eu329 2.432 . S
O364 C381 1.264 . S
O365 Eu318 2.339 1_655 S
O365 C381 1.254 1_556 S
O366 Eu318 2.563 1_655 S
O366 C374 1.235 . S
O367 Eu318 2.418 1_655 S
O367 C382 1.249 1_655 S
O368 Eu329 2.558 . S
O368 C393 1.257 . S
O369 Eu318 2.380 1_554 S
O369 Eu329 2.612 1_455 S
O369 C385 1.276 . S
O370 Eu318 2.404 1_554 S
O370 C392 1.320 . S
O371 Eu329 2.339 1_455 S
O371 C392 1.254 . S
O372 Eu329 2.563 1_455 S
O372 C385 1.235 . S
O373 Eu329 2.419 1_455 S
O373 C393 1.249 1_455 S
C374 O363 1.276 1_556 S
C374 O366 1.235 . S
C375 C377 1.393 1_455 S
C375 C379 1.395 . S
C375 C382 1.492 . S
C376 C377 1.392 . S
C376 C378 1.386 . S
C377 C375 1.393 1_655 S
C377 C376 1.392 . S
C377 H394 0.930 . S
C378 C376 1.386 . S
C378 C380 1.395 1_655 S
C378 H395 0.930 . S
C379 C375 1.395 . S
C379 C380 1.379 . S
C379 H396 0.930 . S
C380 C378 1.395 1_455 S
C380 C379 1.379 . S
C380 H397 0.930 . S
C381 O364 1.264 . S
C381 O365 1.254 1_554 S
C382 Eu318 2.848 . S
C382 O362 1.257 . S
C382 O367 1.249 1_455 S
C382 C375 1.492 . S
C383 H348 0.931 . S
C383 C361 1.420 . S
C383 C384 1.351 . S
C384 H346 0.930 . S
C384 C352 1.423 . S
C384 C383 1.351 . S
C385 O369 1.276 . S
C385 O372 1.235 . S
C386 C387 1.393 . S
C386 C390 1.395 1_455 S
C386 C393 1.492 1_455 S
C387 C386 1.393 . S
C387 C388 1.392 . S
C387 H398 0.930 . S
C388 C387 1.392 . S
C388 C389 1.386 . S
C389 C388 1.386 . S
C389 C391 1.395 1_455 S
C389 H399 0.930 . S
C390 C386 1.395 1_655 S
C390 C391 1.379 . S
C390 H400 0.930 . S
C391 C389 1.395 1_655 S
C391 C390 1.379 . S
C391 H401 0.930 . S
C392 O370 1.320 . S
C392 O371 1.254 . S
C393 Eu329 2.848 . S
C393 O368 1.257 . S
C393 O373 1.249 1_655 S
C393 C386 1.492 1_655 S
H394 C377 0.930 . S
H395 C378 0.930 . S
H396 C379 0.930 . S
H397 C380 0.930 . S
H398 C387 0.930 . S
H399 C389 0.930 . S
H400 C390 0.930 . S
H401 C391 0.930 . S
Eu402 N433 2.657 . S
Eu402 N440 2.609 . S
Eu402 O446 2.558 . S
Eu402 O447 2.612 . S
Eu402 O449 2.339 . S
Eu402 O450 2.563 . S
Eu402 O451 2.419 . S
Eu402 O453 2.380 . S
Eu402 O454 2.432 . S
Eu402 C466 2.848 . S
C403 C406 1.429 . S
C403 C407 1.411 . S
C403 N410 1.377 . S
C404 C406 1.420 . S
C404 C408 1.423 . S
C404 C416 1.392 . S
C405 C407 1.420 . S
C405 C408 1.351 . S
C405 H428 0.931 . S
C406 C403 1.429 . S
C406 C404 1.420 . S
C406 N414 1.362 . S
C407 C403 1.411 . S
C407 C405 1.420 . S
C407 C412 1.395 . S
C408 C404 1.423 . S
C408 C405 1.351 . S
C408 H420 0.930 . S
C409 C411 1.400 . S
C409 C412 1.386 . S
C409 H421 0.930 . S
N410 C403 1.377 . S
N410 C411 1.321 . S
N410 Eu413 2.609 . S
C411 C409 1.400 . S
C411 N410 1.321 . S
C411 H418 0.930 . S
C412 C407 1.395 . S
C412 C409 1.386 . S
C412 H431 0.930 . S
Eu413 N410 2.609 . S
Eu413 N414 2.657 . S
Eu413 O447 2.380 1_556 S
Eu413 O448 2.432 1_556 S
Eu413 O452 2.558 . S
Eu413 O453 2.612 1_556 S
Eu413 O455 2.339 . S
Eu413 O456 2.563 . S
Eu413 O457 2.419 . S
Eu413 C477 2.848 . S
N414 C406 1.362 . S
N414 Eu413 2.657 . S
N414 C415 1.334 . S
C415 N414 1.334 . S
C415 C417 1.413 . S
C415 H422 0.929 . S
C416 C404 1.392 . S
C416 C417 1.367 . S
C416 H424 0.930 . S
C417 C415 1.413 . S
C417 C416 1.367 . S
C417 H419 0.930 . S
H418 C411 0.930 . S
H419 C417 0.930 . S
H420 C408 0.930 . S
H421 C409 0.930 . S
H422 C415 0.929 . S
H423 C437 0.930 . S
H424 C416 0.930 . S
H425 C443 0.930 . S
H426 C434 0.929 . S
H427 C441 0.930 . S
H428 C405 0.931 . S
H429 C435 0.930 . S
H430 C468 0.930 . S
H431 C412 0.930 . S
H432 C467 0.931 . S
N433 Eu402 2.657 . S
N433 C434 1.334 . S
N433 C438 1.362 . S
C434 H426 0.929 . S
C434 N433 1.334 . S
C434 C437 1.413 . S
C435 H429 0.930 . S
C435 C436 1.392 . S
C435 C437 1.367 . S
C436 C435 1.392 . S
C436 C438 1.420 . S
C436 C468 1.423 . S
C437 H423 0.930 . S
C437 C434 1.413 . S
C437 C435 1.367 . S
C438 N433 1.362 . S
C438 C436 1.420 . S
C438 C442 1.429 . S
H439 C444 0.930 . S
N440 Eu402 2.609 . S
N440 C442 1.377 . S
N440 C443 1.321 . S
C441 H427 0.930 . S
C441 C443 1.400 . S
C441 C444 1.386 . S
C442 C438 1.429 . S
C442 N440 1.377 . S
C442 C445 1.411 . S
C443 H425 0.930 . S
C443 N440 1.321 . S
C443 C441 1.400 . S
C444 H439 0.930 . S
C444 C441 1.386 . S
C444 C445 1.395 . S
C445 C442 1.411 . S
C445 C444 1.395 . S
C445 C467 1.420 . S
O446 Eu402 2.558 . S
O446 C466 1.257 . S
O447 Eu402 2.612 . S
O447 Eu413 2.380 1_554 S
O447 C458 1.276 . S
O448 Eu413 2.432 1_554 S
O448 C465 1.264 . S
O449 Eu402 2.339 . S
O449 C465 1.254 . S
O450 Eu402 2.563 . S
O450 C458 1.235 . S
O451 Eu402 2.419 . S
O451 C466 1.249 . S
O452 Eu413 2.558 . S
O452 C477 1.257 . S
O453 Eu402 2.380 . S
O453 Eu413 2.612 1_554 S
O453 C469 1.276 1_554 S
O454 Eu402 2.432 . S
O454 C476 1.264 . S
O455 Eu413 2.339 . S
O455 C476 1.254 1_556 S
O456 Eu413 2.563 . S
O456 C469 1.235 . S
O457 Eu413 2.419 . S
O457 C477 1.249 . S
C458 O447 1.276 . S
C458 O450 1.235 . S
C459 C461 1.393 . S
C459 C463 1.395 . S
C459 C466 1.492 . S
C460 C461 1.392 . S
C460 C462 1.386 . S
C461 C459 1.393 . S
C461 C460 1.392 . S
C461 H478 0.930 . S
C462 C460 1.386 . S
C462 C464 1.395 . S
C462 H479 0.930 . S
C463 C459 1.395 . S
C463 C464 1.379 . S
C463 H480 0.930 . S
C464 C462 1.395 . S
C464 C463 1.379 . S
C464 H481 0.930 . S
C465 O448 1.264 . S
C465 O449 1.254 . S
C466 Eu402 2.848 . S
C466 O446 1.257 . S
C466 O451 1.249 . S
C466 C459 1.492 . S
C467 H432 0.931 . S
C467 C445 1.420 . S
C467 C468 1.351 . S
C468 H430 0.930 . S
C468 C436 1.423 . S
C468 C467 1.351 . S
C469 O453 1.276 1_556 S
C469 O456 1.235 . S
C470 C471 1.393 . S
C470 C474 1.395 . S
C470 C477 1.492 . S
C471 C470 1.393 . S
C471 C472 1.392 . S
C471 H482 0.930 . S
C472 C471 1.392 . S
C472 C473 1.386 . S
C473 C472 1.386 . S
C473 C475 1.395 . S
C473 H483 0.930 . S
C474 C470 1.395 . S
C474 C475 1.379 . S
C474 H484 0.930 . S
C475 C473 1.395 . S
C475 C474 1.379 . S
C475 H485 0.930 . S
C476 O454 1.264 . S
C476 O455 1.254 1_554 S
C477 Eu413 2.848 . S
C477 O452 1.257 . S
C477 O457 1.249 . S
C477 C470 1.492 . S
H478 C461 0.930 . S
H479 C462 0.930 . S
H480 C463 0.930 . S
H481 C464 0.930 . S
H482 C471 0.930 . S
H483 C473 0.930 . S
H484 C474 0.930 . S
H485 C475 0.930 . S
Eu486 N517 2.657 . S
Eu486 N524 2.609 . S
Eu486 O530 2.558 . S
Eu486 O531 2.612 . S
Eu486 O533 2.339 . S
Eu486 O534 2.563 . S
Eu486 O535 2.419 . S
Eu486 O537 2.380 . S
Eu486 O538 2.432 . S
Eu486 C550 2.848 . S
C487 C490 1.429 . S
C487 C491 1.411 . S
C487 N494 1.377 . S
C488 C490 1.420 . S
C488 C492 1.423 . S
C488 C500 1.392 . S
C489 C491 1.420 . S
C489 C492 1.351 . S
C489 H512 0.931 . S
C490 C487 1.429 . S
C490 C488 1.420 . S
C490 N498 1.362 . S
C491 C487 1.411 . S
C491 C489 1.420 . S
C491 C496 1.395 . S
C492 C488 1.423 . S
C492 C489 1.351 . S
C492 H504 0.930 . S
C493 C495 1.400 . S
C493 C496 1.386 . S
C493 H505 0.930 . S
N494 C487 1.377 . S
N494 C495 1.321 . S
N494 Eu497 2.609 . S
C495 C493 1.400 . S
C495 N494 1.321 . S
C495 H502 0.930 . S
C496 C491 1.395 . S
C496 C493 1.386 . S
C496 H515 0.930 . S
Eu497 N494 2.609 . S
Eu497 N498 2.657 . S
Eu497 O531 2.380 . S
Eu497 O532 2.432 . S
Eu497 O536 2.558 . S
Eu497 O537 2.612 . S
Eu497 O539 2.339 . S
Eu497 O540 2.563 . S
Eu497 O541 2.419 . S
Eu497 C561 2.848 . S
N498 C490 1.362 . S
N498 Eu497 2.657 . S
N498 C499 1.334 . S
C499 N498 1.334 . S
C499 C501 1.413 . S
C499 H506 0.929 . S
C500 C488 1.392 . S
C500 C501 1.367 . S
C500 H508 0.930 . S
C501 C499 1.413 . S
C501 C500 1.367 . S
C501 H503 0.930 . S
H502 C495 0.930 . S
H503 C501 0.930 . S
H504 C492 0.930 . S
H505 C493 0.930 . S
H506 C499 0.929 . S
H507 C521 0.930 . S
H508 C500 0.930 . S
H509 C527 0.930 . S
H510 C518 0.929 . S
H511 C525 0.930 . S
H512 C489 0.931 . S
H513 C519 0.930 . S
H514 C552 0.930 . S
H515 C496 0.930 . S
H516 C551 0.931 . S
N517 Eu486 2.657 . S
N517 C518 1.334 . S
N517 C522 1.362 . S
C518 H510 0.929 . S
C518 N517 1.334 . S
C518 C521 1.413 . S
C519 H513 0.930 . S
C519 C520 1.392 . S
C519 C521 1.367 . S
C520 C519 1.392 . S
C520 C522 1.420 . S
C520 C552 1.423 . S
C521 H507 0.930 . S
C521 C518 1.413 . S
C521 C519 1.367 . S
C522 N517 1.362 . S
C522 C520 1.420 . S
C522 C526 1.429 . S
H523 C528 0.930 . S
N524 Eu486 2.609 . S
N524 C526 1.377 . S
N524 C527 1.321 . S
C525 H511 0.930 . S
C525 C527 1.400 . S
C525 C528 1.386 . S
C526 C522 1.429 . S
C526 N524 1.377 . S
C526 C529 1.411 . S
C527 H509 0.930 . S
C527 N524 1.321 . S
C527 C525 1.400 . S
C528 H523 0.930 . S
C528 C525 1.386 . S
C528 C529 1.395 . S
C529 C526 1.411 . S
C529 C528 1.395 . S
C529 C551 1.420 . S
O530 Eu486 2.558 . S
O530 C550 1.257 . S
O531 Eu486 2.612 . S
O531 Eu497 2.380 . S
O531 C542 1.276 . S
O532 Eu497 2.432 . S
O532 C549 1.264 . S
O533 Eu486 2.339 . S
O533 C549 1.254 . S
O534 Eu486 2.563 . S
O534 C542 1.235 . S
O535 Eu486 2.419 . S
O535 C550 1.249 . S
O536 Eu497 2.558 . S
O536 C561 1.257 . S
O537 Eu486 2.380 . S
O537 Eu497 2.612 . S
O537 C553 1.276 . S
O538 Eu486 2.432 . S
O538 C560 1.264 . S
O539 Eu497 2.339 . S
O539 C560 1.254 . S
O540 Eu497 2.563 . S
O540 C553 1.235 . S
O541 Eu497 2.419 . S
O541 C561 1.249 . S
C542 O531 1.276 . S
C542 O534 1.235 . S
C543 C545 1.393 . S
C543 C547 1.395 . S
C543 C550 1.492 . S
C544 C545 1.392 . S
C544 C546 1.386 . S
C545 C543 1.393 . S
C545 C544 1.392 . S
C545 H562 0.930 . S
C546 C544 1.386 . S
C546 C548 1.395 . S
C546 H563 0.930 . S
C547 C543 1.395 . S
C547 C548 1.379 . S
C547 H564 0.930 . S
C548 C546 1.395 . S
C548 C547 1.379 . S
C548 H565 0.930 . S
C549 O532 1.264 . S
C549 O533 1.254 . S
C550 Eu486 2.848 . S
C550 O530 1.257 . S
C550 O535 1.249 . S
C550 C543 1.492 . S
C551 H516 0.931 . S
C551 C529 1.420 . S
C551 C552 1.351 . S
C552 H514 0.930 . S
C552 C520 1.423 . S
C552 C551 1.351 . S
C553 O537 1.276 . S
C553 O540 1.235 . S
C554 C555 1.393 . S
C554 C558 1.395 . S
C554 C561 1.492 . S
C555 C554 1.393 . S
C555 C556 1.392 . S
C555 H566 0.930 . S
C556 C555 1.392 . S
C556 C557 1.386 . S
C557 C556 1.386 . S
C557 C559 1.395 . S
C557 H567 0.930 . S
C558 C554 1.395 . S
C558 C559 1.379 . S
C558 H568 0.930 . S
C559 C557 1.395 . S
C559 C558 1.379 . S
C559 H569 0.930 . S
C560 O538 1.264 . S
C560 O539 1.254 . S
C561 Eu497 2.848 . S
C561 O536 1.257 . S
C561 O541 1.249 . S
C561 C554 1.492 . S
H562 C545 0.930 . S
H563 C546 0.930 . S
H564 C547 0.930 . S
H565 C548 0.930 . S
H566 C555 0.930 . S
H567 C557 0.930 . S
H568 C558 0.930 . S
H569 C559 0.930 . S
Eu570 N601 2.657 . S
Eu570 N608 2.609 . S
Eu570 O614 2.558 . S
Eu570 O615 2.612 . S
Eu570 O617 2.339 . S
Eu570 O618 2.563 . S
Eu570 O619 2.419 . S
Eu570 O621 2.380 . S
Eu570 O622 2.432 . S
Eu570 C634 2.848 . S
C571 C574 1.429 . S
C571 C575 1.411 . S
C571 N578 1.377 . S
C572 C574 1.420 . S
C572 C576 1.423 . S
C572 C584 1.392 . S
C573 C575 1.420 . S
C573 C576 1.351 . S
C573 H596 0.931 . S
C574 C571 1.429 . S
C574 C572 1.420 . S
C574 N582 1.362 . S
C575 C571 1.411 . S
C575 C573 1.420 . S
C575 C580 1.395 . S
C576 C572 1.423 . S
C576 C573 1.351 . S
C576 H588 0.930 . S
C577 C579 1.400 . S
C577 C580 1.386 . S
C577 H589 0.930 . S
N578 C571 1.377 . S
N578 C579 1.321 . S
N578 Eu581 2.609 . S
C579 C577 1.400 . S
C579 N578 1.321 . S
C579 H586 0.930 . S
C580 C575 1.395 . S
C580 C577 1.386 . S
C580 H599 0.930 . S
Eu581 N578 2.609 . S
Eu581 N582 2.657 . S
Eu581 O615 2.380 . S
Eu581 O616 2.432 . S
Eu581 O620 2.558 . S
Eu581 O621 2.612 . S
Eu581 O623 2.339 . S
Eu581 O624 2.563 . S
Eu581 O625 2.419 . S
Eu581 C645 2.848 . S
N582 C574 1.362 . S
N582 Eu581 2.657 . S
N582 C583 1.334 . S
C583 N582 1.334 . S
C583 C585 1.413 . S
C583 H590 0.929 . S
C584 C572 1.392 . S
C584 C585 1.367 . S
C584 H592 0.930 . S
C585 C583 1.413 . S
C585 C584 1.367 . S
C585 H587 0.930 . S
H586 C579 0.930 . S
H587 C585 0.930 . S
H588 C576 0.930 . S
H589 C577 0.930 . S
H590 C583 0.929 . S
H591 C605 0.930 . S
H592 C584 0.930 . S
H593 C611 0.930 . S
H594 C602 0.929 . S
H595 C609 0.930 . S
H596 C573 0.931 . S
H597 C603 0.930 . S
H598 C636 0.930 . S
H599 C580 0.930 . S
H600 C635 0.931 . S
N601 Eu570 2.657 . S
N601 C602 1.334 . S
N601 C606 1.362 . S
C602 H594 0.929 . S
C602 N601 1.334 . S
C602 C605 1.413 . S
C603 H597 0.930 . S
C603 C604 1.392 . S
C603 C605 1.367 . S
C604 C603 1.392 . S
C604 C606 1.420 . S
C604 C636 1.423 . S
C605 H591 0.930 . S
C605 C602 1.413 . S
C605 C603 1.367 . S
C606 N601 1.362 . S
C606 C604 1.420 . S
C606 C610 1.429 . S
H607 C612 0.930 . S
N608 Eu570 2.609 . S
N608 C610 1.377 . S
N608 C611 1.321 . S
C609 H595 0.930 . S
C609 C611 1.400 . S
C609 C612 1.386 . S
C610 C606 1.429 . S
C610 N608 1.377 . S
C610 C613 1.411 . S
C611 H593 0.930 . S
C611 N608 1.321 . S
C611 C609 1.400 . S
C612 H607 0.930 . S
C612 C609 1.386 . S
C612 C613 1.395 . S
C613 C610 1.411 . S
C613 C612 1.395 . S
C613 C635 1.420 . S
O614 Eu570 2.558 . S
O614 C634 1.257 . S
O615 Eu570 2.612 . S
O615 Eu581 2.380 . S
O615 C626 1.276 . S
O616 Eu581 2.432 . S
O616 C633 1.264 . S
O617 Eu570 2.339 . S
O617 C633 1.254 . S
O618 Eu570 2.563 . S
O618 C626 1.235 . S
O619 Eu570 2.419 . S
O619 C634 1.249 . S
O620 Eu581 2.558 . S
O620 C645 1.257 . S
O621 Eu570 2.380 . S
O621 Eu581 2.612 . S
O621 C637 1.276 . S
O622 Eu570 2.432 . S
O622 C644 1.264 . S
O623 Eu581 2.339 . S
O623 C644 1.254 . S
O624 Eu581 2.563 . S
O624 C637 1.235 . S
O625 Eu581 2.419 . S
O625 C645 1.249 . S
C626 O615 1.276 . S
C626 O618 1.235 . S
C627 C629 1.393 . S
C627 C631 1.395 . S
C627 C634 1.492 . S
C628 C629 1.392 . S
C628 C630 1.386 . S
C629 C627 1.393 . S
C629 C628 1.392 . S
C629 H646 0.930 . S
C630 C628 1.386 . S
C630 C632 1.395 . S
C630 H647 0.930 . S
C631 C627 1.395 . S
C631 C632 1.379 . S
C631 H648 0.930 . S
C632 C630 1.395 . S
C632 C631 1.379 . S
C632 H649 0.930 . S
C633 O616 1.264 . S
C633 O617 1.254 . S
C634 Eu570 2.848 . S
C634 O614 1.257 . S
C634 O619 1.249 . S
C634 C627 1.492 . S
C635 H600 0.931 . S
C635 C613 1.420 . S
C635 C636 1.351 . S
C636 H598 0.930 . S
C636 C604 1.423 . S
C636 C635 1.351 . S
C637 O621 1.276 . S
C637 O624 1.235 . S
C638 C639 1.393 . S
C638 C642 1.395 . S
C638 C645 1.492 . S
C639 C638 1.393 . S
C639 C640 1.392 . S
C639 H650 0.930 . S
C640 C639 1.392 . S
C640 C641 1.386 . S
C641 C640 1.386 . S
C641 C643 1.395 . S
C641 H651 0.930 . S
C642 C638 1.395 . S
C642 C643 1.379 . S
C642 H652 0.930 . S
C643 C641 1.395 . S
C643 C642 1.379 . S
C643 H653 0.930 . S
C644 O622 1.264 . S
C644 O623 1.254 . S
C645 Eu581 2.848 . S
C645 O620 1.257 . S
C645 O625 1.249 . S
C645 C638 1.492 . S
H646 C629 0.930 . S
H647 C630 0.930 . S
H648 C631 0.930 . S
H649 C632 0.930 . S
H650 C639 0.930 . S
H651 C641 0.930 . S
H652 C642 0.930 . S
H653 C643 0.930 . S
Eu654 N685 2.657 . S
Eu654 N692 2.609 . S
Eu654 O698 2.558 . S
Eu654 O699 2.612 . S
Eu654 O701 2.339 . S
Eu654 O702 2.563 . S
Eu654 O703 2.419 . S
Eu654 O705 2.380 . S
Eu654 O706 2.432 . S
Eu654 C718 2.848 . S
C655 C658 1.429 . S
C655 C659 1.411 . S
C655 N662 1.377 . S
C656 C658 1.420 . S
C656 C660 1.423 . S
C656 C668 1.392 . S
C657 C659 1.420 . S
C657 C660 1.351 . S
C657 H680 0.931 . S
C658 C655 1.429 . S
C658 C656 1.420 . S
C658 N666 1.362 . S
C659 C655 1.411 . S
C659 C657 1.420 . S
C659 C664 1.395 . S
C660 C656 1.423 . S
C660 C657 1.351 . S
C660 H672 0.930 . S
C661 C663 1.400 . S
C661 C664 1.386 . S
C661 H673 0.930 . S
N662 C655 1.377 . S
N662 C663 1.321 . S
N662 Eu665 2.609 . S
C663 C661 1.400 . S
C663 N662 1.321 . S
C663 H670 0.930 . S
C664 C659 1.395 . S
C664 C661 1.386 . S
C664 H683 0.930 . S
Eu665 N662 2.609 . S
Eu665 N666 2.657 . S
Eu665 O699 2.380 . S
Eu665 O700 2.432 . S
Eu665 O704 2.558 . S
Eu665 O705 2.612 . S
Eu665 O707 2.339 . S
Eu665 O708 2.563 . S
Eu665 O709 2.419 . S
Eu665 C729 2.848 . S
N666 C658 1.362 . S
N666 Eu665 2.657 . S
N666 C667 1.334 . S
C667 N666 1.334 . S
C667 C669 1.413 . S
C667 H674 0.929 . S
C668 C656 1.392 . S
C668 C669 1.367 . S
C668 H676 0.930 . S
C669 C667 1.413 . S
C669 C668 1.367 . S
C669 H671 0.930 . S
H670 C663 0.930 . S
H671 C669 0.930 . S
H672 C660 0.930 . S
H673 C661 0.930 . S
H674 C667 0.929 . S
H675 C689 0.930 . S
H676 C668 0.930 . S
H677 C695 0.930 . S
H678 C686 0.929 . S
H679 C693 0.930 . S
H680 C657 0.931 . S
H681 C687 0.930 . S
H682 C720 0.930 . S
H683 C664 0.930 . S
H684 C719 0.931 . S
N685 Eu654 2.657 . S
N685 C686 1.334 . S
N685 C690 1.362 . S
C686 H678 0.929 . S
C686 N685 1.334 . S
C686 C689 1.413 . S
C687 H681 0.930 . S
C687 C688 1.392 . S
C687 C689 1.367 . S
C688 C687 1.392 . S
C688 C690 1.420 . S
C688 C720 1.423 . S
C689 H675 0.930 . S
C689 C686 1.413 . S
C689 C687 1.367 . S
C690 N685 1.362 . S
C690 C688 1.420 . S
C690 C694 1.429 . S
H691 C696 0.930 . S
N692 Eu654 2.609 . S
N692 C694 1.377 . S
N692 C695 1.321 . S
C693 H679 0.930 . S
C693 C695 1.400 . S
C693 C696 1.386 . S
C694 C690 1.429 . S
C694 N692 1.377 . S
C694 C697 1.411 . S
C695 H677 0.930 . S
C695 N692 1.321 . S
C695 C693 1.400 . S
C696 H691 0.930 . S
C696 C693 1.386 . S
C696 C697 1.395 . S
C697 C694 1.411 . S
C697 C696 1.395 . S
C697 C719 1.420 . S
O698 Eu654 2.558 . S
O698 C718 1.257 . S
O699 Eu654 2.612 . S
O699 Eu665 2.380 . S
O699 C710 1.276 . S
O700 Eu665 2.432 . S
O700 C717 1.264 . S
O701 Eu654 2.339 . S
O701 C717 1.254 . S
O702 Eu654 2.563 . S
O702 C710 1.235 . S
O703 Eu654 2.419 . S
O703 C718 1.249 . S
O704 Eu665 2.558 . S
O704 C729 1.257 . S
O705 Eu654 2.380 . S
O705 Eu665 2.612 . S
O705 C721 1.276 . S
O706 Eu654 2.432 . S
O706 C728 1.264 . S
O707 Eu665 2.339 . S
O707 C728 1.254 . S
O708 Eu665 2.563 . S
O708 C721 1.235 . S
O709 Eu665 2.419 . S
O709 C729 1.249 . S
C710 O699 1.276 . S
C710 O702 1.235 . S
C711 C713 1.393 . S
C711 C715 1.395 . S
C711 C718 1.492 . S
C712 C713 1.392 . S
C712 C714 1.386 . S
C713 C711 1.393 . S
C713 C712 1.392 . S
C713 H730 0.930 . S
C714 C712 1.386 . S
C714 C716 1.395 . S
C714 H731 0.930 . S
C715 C711 1.395 . S
C715 C716 1.379 . S
C715 H732 0.930 . S
C716 C714 1.395 . S
C716 C715 1.379 . S
C716 H733 0.930 . S
C717 O700 1.264 . S
C717 O701 1.254 . S
C718 Eu654 2.848 . S
C718 O698 1.257 . S
C718 O703 1.249 . S
C718 C711 1.492 . S
C719 H684 0.931 . S
C719 C697 1.420 . S
C719 C720 1.351 . S
C720 H682 0.930 . S
C720 C688 1.423 . S
C720 C719 1.351 . S
C721 O705 1.276 . S
C721 O708 1.235 . S
C722 C723 1.393 . S
C722 C726 1.395 . S
C722 C729 1.492 . S
C723 C722 1.393 . S
C723 C724 1.392 . S
C723 H734 0.930 . S
C724 C723 1.392 . S
C724 C725 1.386 . S
C725 C724 1.386 . S
C725 C727 1.395 . S
C725 H735 0.930 . S
C726 C722 1.395 . S
C726 C727 1.379 . S
C726 H736 0.930 . S
C727 C725 1.395 . S
C727 C726 1.379 . S
C727 H737 0.930 . S
C728 O706 1.264 . S
C728 O707 1.254 . S
C729 Eu665 2.848 . S
C729 O704 1.257 . S
C729 O709 1.249 . S
C729 C722 1.492 . S
H730 C713 0.930 . S
H731 C714 0.930 . S
H732 C715 0.930 . S
H733 C716 0.930 . S
H734 C723 0.930 . S
H735 C725 0.930 . S
H736 C726 0.930 . S
H737 C727 0.930 . S
Eu738 N769 2.657 . S
Eu738 N776 2.609 . S
Eu738 O782 2.558 . S
Eu738 O783 2.612 . S
Eu738 O785 2.339 . S
Eu738 O786 2.563 . S
Eu738 O787 2.419 . S
Eu738 O789 2.380 . S
Eu738 O790 2.432 . S
Eu738 C802 2.848 . S
C739 C742 1.429 . S
C739 C743 1.411 . S
C739 N746 1.377 . S
C740 C742 1.420 . S
C740 C744 1.423 . S
C740 C752 1.392 . S
C741 C743 1.420 . S
C741 C744 1.351 . S
C741 H764 0.931 . S
C742 C739 1.429 . S
C742 C740 1.420 . S
C742 N750 1.362 . S
C743 C739 1.411 . S
C743 C741 1.420 . S
C743 C748 1.395 . S
C744 C740 1.423 . S
C744 C741 1.351 . S
C744 H756 0.930 . S
C745 C747 1.400 . S
C745 C748 1.386 . S
C745 H757 0.930 . S
N746 C739 1.377 . S
N746 C747 1.321 . S
N746 Eu749 2.609 . S
C747 C745 1.400 . S
C747 N746 1.321 . S
C747 H754 0.930 . S
C748 C743 1.395 . S
C748 C745 1.386 . S
C748 H767 0.930 . S
Eu749 N746 2.609 . S
Eu749 N750 2.657 . S
Eu749 O783 2.380 . S
Eu749 O784 2.432 . S
Eu749 O788 2.558 . S
Eu749 O789 2.612 . S
Eu749 O791 2.339 . S
Eu749 O792 2.563 . S
Eu749 O793 2.419 . S
Eu749 C813 2.848 . S
N750 C742 1.362 . S
N750 Eu749 2.657 . S
N750 C751 1.334 . S
C751 N750 1.334 . S
C751 C753 1.413 . S
C751 H758 0.929 . S
C752 C740 1.392 . S
C752 C753 1.367 . S
C752 H760 0.930 . S
C753 C751 1.413 . S
C753 C752 1.367 . S
C753 H755 0.930 . S
H754 C747 0.930 . S
H755 C753 0.930 . S
H756 C744 0.930 . S
H757 C745 0.930 . S
H758 C751 0.929 . S
H759 C773 0.930 . S
H760 C752 0.930 . S
H761 C779 0.930 . S
H762 C770 0.929 . S
H763 C777 0.930 . S
H764 C741 0.931 . S
H765 C771 0.930 . S
H766 C804 0.930 . S
H767 C748 0.930 . S
H768 C803 0.931 . S
N769 Eu738 2.657 . S
N769 C770 1.334 . S
N769 C774 1.362 . S
C770 H762 0.929 . S
C770 N769 1.334 . S
C770 C773 1.413 . S
C771 H765 0.930 . S
C771 C772 1.392 . S
C771 C773 1.367 . S
C772 C771 1.392 . S
C772 C774 1.420 . S
C772 C804 1.423 . S
C773 H759 0.930 . S
C773 C770 1.413 . S
C773 C771 1.367 . S
C774 N769 1.362 . S
C774 C772 1.420 . S
C774 C778 1.429 . S
H775 C780 0.930 . S
N776 Eu738 2.609 . S
N776 C778 1.377 . S
N776 C779 1.321 . S
C777 H763 0.930 . S
C777 C779 1.400 . S
C777 C780 1.386 . S
C778 C774 1.429 . S
C778 N776 1.377 . S
C778 C781 1.411 . S
C779 H761 0.930 . S
C779 N776 1.321 . S
C779 C777 1.400 . S
C780 H775 0.930 . S
C780 C777 1.386 . S
C780 C781 1.395 . S
C781 C778 1.411 . S
C781 C780 1.395 . S
C781 C803 1.420 . S
O782 Eu738 2.558 . S
O782 C802 1.257 . S
O783 Eu738 2.612 . S
O783 Eu749 2.380 . S
O783 C794 1.276 . S
O784 Eu749 2.432 . S
O784 C801 1.264 . S
O785 Eu738 2.339 . S
O785 C801 1.254 . S
O786 Eu738 2.563 . S
O786 C794 1.235 . S
O787 Eu738 2.419 . S
O787 C802 1.249 . S
O788 Eu749 2.558 . S
O788 C813 1.257 . S
O789 Eu738 2.380 . S
O789 Eu749 2.612 . S
O789 C805 1.276 . S
O790 Eu738 2.432 . S
O790 C812 1.264 . S
O791 Eu749 2.339 . S
O791 C812 1.254 . S
O792 Eu749 2.563 . S
O792 C805 1.235 . S
O793 Eu749 2.419 . S
O793 C813 1.249 . S
C794 O783 1.276 . S
C794 O786 1.235 . S
C795 C797 1.393 . S
C795 C799 1.395 . S
C795 C802 1.492 . S
C796 C797 1.392 . S
C796 C798 1.386 . S
C797 C795 1.393 . S
C797 C796 1.392 . S
C797 H814 0.930 . S
C798 C796 1.386 . S
C798 C800 1.395 . S
C798 H815 0.930 . S
C799 C795 1.395 . S
C799 C800 1.379 . S
C799 H816 0.930 . S
C800 C798 1.395 . S
C800 C799 1.379 . S
C800 H817 0.930 . S
C801 O784 1.264 . S
C801 O785 1.254 . S
C802 Eu738 2.848 . S
C802 O782 1.257 . S
C802 O787 1.249 . S
C802 C795 1.492 . S
C803 H768 0.931 . S
C803 C781 1.420 . S
C803 C804 1.351 . S
C804 H766 0.930 . S
C804 C772 1.423 . S
C804 C803 1.351 . S
C805 O789 1.276 . S
C805 O792 1.235 . S
C806 C807 1.393 . S
C806 C810 1.395 . S
C806 C813 1.492 . S
C807 C806 1.393 . S
C807 C808 1.392 . S
C807 H818 0.930 . S
C808 C807 1.392 . S
C808 C809 1.386 . S
C809 C808 1.386 . S
C809 C811 1.395 . S
C809 H819 0.930 . S
C810 C806 1.395 . S
C810 C811 1.379 . S
C810 H820 0.930 . S
C811 C809 1.395 . S
C811 C810 1.379 . S
C811 H821 0.930 . S
C812 O790 1.264 . S
C812 O791 1.254 . S
C813 Eu749 2.848 . S
C813 O788 1.257 . S
C813 O793 1.249 . S
C813 C806 1.492 . S
H814 C797 0.930 . S
H815 C798 0.930 . S
H816 C799 0.930 . S
H817 C800 0.930 . S
H818 C807 0.930 . S
H819 C809 0.930 . S
H820 C810 0.930 . S
H821 C811 0.930 . S
Eu822 N853 2.657 . S
Eu822 N860 2.609 . S
Eu822 O866 2.558 . S
Eu822 O867 2.612 . S
Eu822 O869 2.339 . S
Eu822 O870 2.563 . S
Eu822 O871 2.419 . S
Eu822 O873 2.380 . S
Eu822 O874 2.432 . S
Eu822 C886 2.848 . S
C823 C826 1.429 . S
C823 C827 1.411 . S
C823 N830 1.377 . S
C824 C826 1.420 . S
C824 C828 1.423 . S
C824 C836 1.392 . S
C825 C827 1.420 . S
C825 C828 1.351 . S
C825 H848 0.931 . S
C826 C823 1.429 . S
C826 C824 1.420 . S
C826 N834 1.362 . S
C827 C823 1.411 . S
C827 C825 1.420 . S
C827 C832 1.395 . S
C828 C824 1.423 . S
C828 C825 1.351 . S
C828 H840 0.930 . S
C829 C831 1.400 . S
C829 C832 1.386 . S
C829 H841 0.930 . S
N830 C823 1.377 . S
N830 C831 1.321 . S
N830 Eu833 2.609 . S
C831 C829 1.400 . S
C831 N830 1.321 . S
C831 H838 0.930 . S
C832 C827 1.395 . S
C832 C829 1.386 . S
C832 H851 0.930 . S
Eu833 N830 2.609 . S
Eu833 N834 2.657 . S
Eu833 O867 2.380 . S
Eu833 O868 2.432 . S
Eu833 O872 2.558 . S
Eu833 O873 2.612 . S
Eu833 O875 2.339 . S
Eu833 O876 2.563 . S
Eu833 O877 2.419 . S
Eu833 C897 2.848 . S
N834 C826 1.362 . S
N834 Eu833 2.657 . S
N834 C835 1.334 . S
C835 N834 1.334 . S
C835 C837 1.413 . S
C835 H842 0.929 . S
C836 C824 1.392 . S
C836 C837 1.367 . S
C836 H844 0.930 . S
C837 C835 1.413 . S
C837 C836 1.367 . S
C837 H839 0.930 . S
H838 C831 0.930 . S
H839 C837 0.930 . S
H840 C828 0.930 . S
H841 C829 0.930 . S
H842 C835 0.929 . S
H843 C857 0.930 . S
H844 C836 0.930 . S
H845 C863 0.930 . S
H846 C854 0.929 . S
H847 C861 0.930 . S
H848 C825 0.931 . S
H849 C855 0.930 . S
H850 C888 0.930 . S
H851 C832 0.930 . S
H852 C887 0.931 . S
N853 Eu822 2.657 . S
N853 C854 1.334 . S
N853 C858 1.362 . S
C854 H846 0.929 . S
C854 N853 1.334 . S
C854 C857 1.413 . S
C855 H849 0.930 . S
C855 C856 1.392 . S
C855 C857 1.367 . S
C856 C855 1.392 . S
C856 C858 1.420 . S
C856 C888 1.423 . S
C857 H843 0.930 . S
C857 C854 1.413 . S
C857 C855 1.367 . S
C858 N853 1.362 . S
C858 C856 1.420 . S
C858 C862 1.429 . S
H859 C864 0.930 . S
N860 Eu822 2.609 . S
N860 C862 1.377 . S
N860 C863 1.321 . S
C861 H847 0.930 . S
C861 C863 1.400 . S
C861 C864 1.386 . S
C862 C858 1.429 . S
C862 N860 1.377 . S
C862 C865 1.411 . S
C863 H845 0.930 . S
C863 N860 1.321 . S
C863 C861 1.400 . S
C864 H859 0.930 . S
C864 C861 1.386 . S
C864 C865 1.395 . S
C865 C862 1.411 . S
C865 C864 1.395 . S
C865 C887 1.420 . S
O866 Eu822 2.558 . S
O866 C886 1.257 . S
O867 Eu822 2.612 . S
O867 Eu833 2.380 . S
O867 C878 1.276 . S
O868 Eu833 2.432 . S
O868 C885 1.264 . S
O869 Eu822 2.339 . S
O869 C885 1.254 . S
O870 Eu822 2.563 . S
O870 C878 1.235 . S
O871 Eu822 2.419 . S
O871 C886 1.249 . S
O872 Eu833 2.558 . S
O872 C897 1.257 . S
O873 Eu822 2.380 . S
O873 Eu833 2.612 . S
O873 C889 1.276 . S
O874 Eu822 2.432 . S
O874 C896 1.264 . S
O875 Eu833 2.339 . S
O875 C896 1.254 . S
O876 Eu833 2.563 . S
O876 C889 1.235 . S
O877 Eu833 2.419 . S
O877 C897 1.249 . S
C878 O867 1.276 . S
C878 O870 1.235 . S
C879 C881 1.393 . S
C879 C883 1.395 . S
C879 C886 1.492 . S
C880 C881 1.392 . S
C880 C882 1.386 . S
C881 C879 1.393 . S
C881 C880 1.392 . S
C881 H898 0.930 . S
C882 C880 1.386 . S
C882 C884 1.395 . S
C882 H899 0.930 . S
C883 C879 1.395 . S
C883 C884 1.379 . S
C883 H900 0.930 . S
C884 C882 1.395 . S
C884 C883 1.379 . S
C884 H901 0.930 . S
C885 O868 1.264 . S
C885 O869 1.254 . S
C886 Eu822 2.848 . S
C886 O866 1.257 . S
C886 O871 1.249 . S
C886 C879 1.492 . S
C887 H852 0.931 . S
C887 C865 1.420 . S
C887 C888 1.351 . S
C888 H850 0.930 . S
C888 C856 1.423 . S
C888 C887 1.351 . S
C889 O873 1.276 . S
C889 O876 1.235 . S
C890 C891 1.393 . S
C890 C894 1.395 . S
C890 C897 1.492 . S
C891 C890 1.393 . S
C891 C892 1.392 . S
C891 H902 0.930 . S
C892 C891 1.392 . S
C892 C893 1.386 . S
C893 C892 1.386 . S
C893 C895 1.395 . S
C893 H903 0.930 . S
C894 C890 1.395 . S
C894 C895 1.379 . S
C894 H904 0.930 . S
C895 C893 1.395 . S
C895 C894 1.379 . S
C895 H905 0.930 . S
C896 O874 1.264 . S
C896 O875 1.254 . S
C897 Eu833 2.848 . S
C897 O872 1.257 . S
C897 O877 1.249 . S
C897 C890 1.492 . S
H898 C881 0.930 . S
H899 C882 0.930 . S
H900 C883 0.930 . S
H901 C884 0.930 . S
H902 C891 0.930 . S
H903 C893 0.930 . S
H904 C894 0.930 . S
H905 C895 0.930 . S
Eu906 N937 2.657 . S
Eu906 N944 2.609 . S
Eu906 O950 2.558 . S
Eu906 O951 2.612 . S
Eu906 O953 2.339 . S
Eu906 O954 2.563 . S
Eu906 O955 2.419 . S
Eu906 O957 2.380 . S
Eu906 O958 2.432 . S
Eu906 C970 2.848 . S
C907 C910 1.429 . S
C907 C911 1.411 . S
C907 N914 1.377 . S
C908 C910 1.420 . S
C908 C912 1.423 . S
C908 C920 1.392 . S
C909 C911 1.420 . S
C909 C912 1.351 . S
C909 H932 0.931 . S
C910 C907 1.429 . S
C910 C908 1.420 . S
C910 N918 1.362 . S
C911 C907 1.411 . S
C911 C909 1.420 . S
C911 C916 1.395 . S
C912 C908 1.423 . S
C912 C909 1.351 . S
C912 H924 0.930 . S
C913 C915 1.400 . S
C913 C916 1.386 . S
C913 H925 0.930 . S
N914 C907 1.377 . S
N914 C915 1.321 . S
N914 Eu917 2.609 . S
C915 C913 1.400 . S
C915 N914 1.321 . S
C915 H922 0.930 . S
C916 C911 1.395 . S
C916 C913 1.386 . S
C916 H935 0.930 . S
Eu917 N914 2.609 . S
Eu917 N918 2.657 . S
Eu917 O951 2.380 . S
Eu917 O952 2.432 . S
Eu917 O956 2.558 . S
Eu917 O957 2.612 . S
Eu917 O959 2.339 . S
Eu917 O960 2.563 . S
Eu917 O961 2.419 . S
Eu917 C981 2.848 . S
N918 C910 1.362 . S
N918 Eu917 2.657 . S
N918 C919 1.334 . S
C919 N918 1.334 . S
C919 C921 1.413 . S
C919 H926 0.929 . S
C920 C908 1.392 . S
C920 C921 1.367 . S
C920 H928 0.930 . S
C921 C919 1.413 . S
C921 C920 1.367 . S
C921 H923 0.930 . S
H922 C915 0.930 . S
H923 C921 0.930 . S
H924 C912 0.930 . S
H925 C913 0.930 . S
H926 C919 0.929 . S
H927 C941 0.930 . S
H928 C920 0.930 . S
H929 C947 0.930 . S
H930 C938 0.929 . S
H931 C945 0.930 . S
H932 C909 0.931 . S
H933 C939 0.930 1_455 S
H934 C972 0.930 1_455 S
H935 C916 0.930 . S
H936 C971 0.931 . S
N937 Eu906 2.657 . S
N937 C938 1.334 . S
N937 C942 1.362 . S
C938 H930 0.929 . S
C938 N937 1.334 . S
C938 C941 1.413 . S
C939 H933 0.930 1_655 S
C939 C940 1.392 . S
C939 C941 1.367 . S
C940 C939 1.392 . S
C940 C942 1.420 . S
C940 C972 1.423 . S
C941 H927 0.930 . S
C941 C938 1.413 . S
C941 C939 1.367 . S
C942 N937 1.362 . S
C942 C940 1.420 . S
C942 C946 1.429 . S
H943 C948 0.930 . S
N944 Eu906 2.609 . S
N944 C946 1.377 . S
N944 C947 1.321 . S
C945 H931 0.930 . S
C945 C947 1.400 . S
C945 C948 1.386 . S
C946 C942 1.429 . S
C946 N944 1.377 . S
C946 C949 1.411 . S
C947 H929 0.930 . S
C947 N944 1.321 . S
C947 C945 1.400 . S
C948 H943 0.930 . S
C948 C945 1.386 . S
C948 C949 1.395 . S
C949 C946 1.411 . S
C949 C948 1.395 . S
C949 C971 1.420 . S
O950 Eu906 2.558 . S
O950 C970 1.257 . S
O951 Eu906 2.612 . S
O951 Eu917 2.380 . S
O951 C962 1.276 . S
O952 Eu917 2.432 . S
O952 C969 1.264 . S
O953 Eu906 2.339 . S
O953 C969 1.254 . S
O954 Eu906 2.563 . S
O954 C962 1.235 . S
O955 Eu906 2.419 . S
O955 C970 1.249 . S
O956 Eu917 2.558 . S
O956 C981 1.257 . S
O957 Eu906 2.380 . S
O957 Eu917 2.612 . S
O957 C973 1.276 . S
O958 Eu906 2.432 . S
O958 C980 1.264 . S
O959 Eu917 2.339 . S
O959 C980 1.254 . S
O960 Eu917 2.563 . S
O960 C973 1.235 . S
O961 Eu917 2.419 . S
O961 C981 1.249 . S
C962 O951 1.276 . S
C962 O954 1.235 . S
C963 C965 1.393 . S
C963 C967 1.395 . S
C963 C970 1.492 . S
C964 C965 1.392 . S
C964 C966 1.386 . S
C965 C963 1.393 . S
C965 C964 1.392 . S
C965 H982 0.930 . S
C966 C964 1.386 . S
C966 C968 1.395 . S
C966 H983 0.930 . S
C967 C963 1.395 . S
C967 C968 1.379 . S
C967 H984 0.930 . S
C968 C966 1.395 . S
C968 C967 1.379 . S
C968 H985 0.930 . S
C969 O952 1.264 . S
C969 O953 1.254 . S
C970 Eu906 2.848 . S
C970 O950 1.257 . S
C970 O955 1.249 . S
C970 C963 1.492 . S
C971 H936 0.931 . S
C971 C949 1.420 . S
C971 C972 1.351 . S
C972 H934 0.930 1_655 S
C972 C940 1.423 . S
C972 C971 1.351 . S
C973 O957 1.276 . S
C973 O960 1.235 . S
C974 C975 1.393 . S
C974 C978 1.395 . S
C974 C981 1.492 . S
C975 C974 1.393 . S
C975 C976 1.392 . S
C975 H986 0.930 . S
C976 C975 1.392 . S
C976 C977 1.386 . S
C977 C976 1.386 . S
C977 C979 1.395 . S
C977 H987 0.930 . S
C978 C974 1.395 . S
C978 C979 1.379 . S
C978 H988 0.930 . S
C979 C977 1.395 . S
C979 C978 1.379 . S
C979 H989 0.930 . S
C980 O958 1.264 . S
C980 O959 1.254 . S
C981 Eu917 2.848 . S
C981 O956 1.257 . S
C981 O961 1.249 . S
C981 C974 1.492 . S
H982 C965 0.930 . S
H983 C966 0.930 . S
H984 C967 0.930 . S
H985 C968 0.930 . S
H986 C975 0.930 . S
H987 C977 0.930 . S
H988 C978 0.930 . S
H989 C979 0.930 . S
H990 C998 0.950 . S
H991 C1003 0.950 . S
H992 C1000 0.950 . S
H993 C1002 0.950 . S
H994 C1004 0.950 . S
H995 C1006 0.950 . S
H996 C1008 0.950 . S
H997 C1009 0.950 . S
C998 H990 0.950 . S
C998 C999 1.386 . S
C998 C1000 1.391 . S
C999 C998 1.386 . S
C999 C1003 1.393 . S
C1000 H992 0.950 . S
C1000 C998 1.391 . S
C1000 C1001 1.400 . S
C1001 C1000 1.400 . S
C1001 C1002 1.398 . S
C1001 C1007 1.491 . S
C1002 H993 0.950 . S
C1002 C1001 1.398 . S
C1002 C1003 1.391 . S
C1003 H991 0.950 . S
C1003 C999 1.393 . S
C1003 C1002 1.391 . S
C1004 H994 0.950 . S
C1004 C1005 1.386 . S
C1004 C1006 1.391 . S
C1005 C1004 1.386 . S
C1005 C1009 1.393 . S
C1006 H995 0.950 . S
C1006 C1004 1.391 . S
C1006 C1007 1.400 . S
C1007 C1001 1.491 . S
C1007 C1006 1.400 . S
C1007 C1008 1.398 . S
C1008 H996 0.950 . S
C1008 C1007 1.398 . S
C1008 C1009 1.391 . S
C1009 H997 0.950 . S
C1009 C1005 1.393 . S
C1009 C1008 1.391 . S
H1010 C1018 0.950 . S
H1011 C1023 0.950 . S
H1012 C1020 0.950 . S
H1013 C1022 0.950 . S
H1014 C1024 0.950 . S
H1015 C1026 0.950 . S
H1016 C1028 0.950 . S
H1017 C1029 0.950 . S
C1018 H1010 0.950 . S
C1018 C1019 1.386 . S
C1018 C1020 1.391 . S
C1019 C1018 1.386 . S
C1019 C1023 1.393 . S
C1020 H1012 0.950 . S
C1020 C1018 1.391 . S
C1020 C1021 1.400 . S
C1021 C1020 1.400 . S
C1021 C1022 1.398 . S
C1021 C1027 1.491 . S
C1022 H1013 0.950 . S
C1022 C1021 1.398 . S
C1022 C1023 1.391 . S
C1023 H1011 0.950 . S
C1023 C1019 1.393 . S
C1023 C1022 1.391 . S
C1024 H1014 0.950 . S
C1024 C1025 1.386 . S
C1024 C1026 1.391 . S
C1025 C1024 1.386 . S
C1025 C1029 1.393 . S
C1026 H1015 0.950 . S
C1026 C1024 1.391 . S
C1026 C1027 1.400 . S
C1027 C1021 1.491 . S
C1027 C1026 1.400 . S
C1027 C1028 1.398 . S
C1028 H1016 0.950 . S
C1028 C1027 1.398 . S
C1028 C1029 1.391 . S
C1029 H1017 0.950 . S
C1029 C1025 1.393 . S
C1029 C1028 1.391 . S
H1030 C1038 0.950 . S
H1031 C1043 0.950 . S
H1032 C1040 0.950 . S
H1033 C1042 0.950 . S
H1034 C1044 0.950 . S
H1035 C1046 0.950 . S
H1036 C1048 0.950 . S
H1037 C1049 0.950 . S
C1038 H1030 0.950 . S
C1038 C1039 1.386 . S
C1038 C1040 1.391 . S
C1039 C1038 1.386 . S
C1039 C1043 1.393 . S
C1040 H1032 0.950 . S
C1040 C1038 1.391 . S
C1040 C1041 1.400 . S
C1041 C1040 1.400 . S
C1041 C1042 1.398 . S
C1041 C1047 1.491 . S
C1042 H1033 0.950 . S
C1042 C1041 1.398 . S
C1042 C1043 1.391 . S
C1043 H1031 0.950 . S
C1043 C1039 1.393 . S
C1043 C1042 1.391 . S
C1044 H1034 0.950 . S
C1044 C1045 1.386 . S
C1044 C1046 1.391 . S
C1045 C1044 1.386 . S
C1045 C1049 1.393 . S
C1046 H1035 0.950 . S
C1046 C1044 1.391 . S
C1046 C1047 1.400 . S
C1047 C1041 1.491 . S
C1047 C1046 1.400 . S
C1047 C1048 1.398 . S
C1048 H1036 0.950 . S
C1048 C1047 1.398 . S
C1048 C1049 1.391 . S
C1049 H1037 0.950 . S
C1049 C1045 1.393 . S
C1049 C1048 1.391 . S
H1050 C1058 0.950 . S
H1051 C1063 0.950 . S
H1052 C1060 0.950 . S
H1053 C1062 0.950 . S
H1054 C1064 0.950 . S
H1055 C1066 0.950 . S
H1056 C1068 0.950 1_554 S
H1057 C1069 0.950 . S
C1058 H1050 0.950 . S
C1058 C1059 1.386 . S
C1058 C1060 1.391 . S
C1059 C1058 1.386 . S
C1059 C1063 1.393 . S
C1060 H1052 0.950 . S
C1060 C1058 1.391 . S
C1060 C1061 1.400 . S
C1061 C1060 1.400 . S
C1061 C1062 1.398 . S
C1061 C1067 1.491 . S
C1062 H1053 0.950 . S
C1062 C1061 1.398 . S
C1062 C1063 1.391 . S
C1063 H1051 0.950 . S
C1063 C1059 1.393 . S
C1063 C1062 1.391 . S
C1064 H1054 0.950 . S
C1064 C1065 1.386 . S
C1064 C1066 1.391 . S
C1065 C1064 1.386 . S
C1065 C1069 1.393 1_556 S
C1066 H1055 0.950 . S
C1066 C1064 1.391 . S
C1066 C1067 1.400 . S
C1067 C1061 1.491 . S
C1067 C1066 1.400 . S
C1067 C1068 1.398 . S
C1068 H1056 0.950 1_556 S
C1068 C1067 1.398 . S
C1068 C1069 1.391 1_556 S
C1069 H1057 0.950 . S
C1069 C1065 1.393 1_554 S
C1069 C1068 1.391 1_554 S
H1070 C1078 0.950 . S
H1071 C1083 0.950 . S
H1072 C1080 0.950 . S
H1073 C1082 0.950 . S
H1074 C1084 0.950 . S
H1075 C1086 0.950 . S
H1076 C1088 0.967 . S
H1077 C1089 0.950 . S
C1078 H1070 0.950 . S
C1078 C1079 1.386 . S
C1078 C1080 1.391 . S
C1079 C1078 1.386 . S
C1079 C1083 1.393 . S
C1080 H1072 0.950 . S
C1080 C1078 1.391 . S
C1080 C1081 1.400 . S
C1081 C1080 1.400 . S
C1081 C1082 1.398 . S
C1081 C1087 1.491 . S
C1082 H1073 0.950 . S
C1082 C1081 1.398 . S
C1082 C1083 1.391 . S
C1083 H1071 0.950 . S
C1083 C1079 1.393 . S
C1083 C1082 1.391 . S
C1084 H1074 0.950 . S
C1084 C1085 1.386 . S
C1084 C1086 1.391 . S
C1085 C1084 1.386 . S
C1085 C1089 1.393 1_556 S
C1086 H1075 0.950 . S
C1086 C1084 1.391 . S
C1086 C1087 1.400 . S
C1087 C1081 1.491 . S
C1087 C1086 1.400 . S
C1087 C1088 1.373 1_556 S
C1088 H1076 0.967 . S
C1088 C1087 1.373 1_554 S
C1088 C1089 1.400 . S
C1089 H1077 0.950 . S
C1089 C1085 1.393 1_554 S
C1089 C1088 1.400 . S
H1090 C1098 0.950 . S
H1091 C1103 0.950 . S
H1092 C1100 0.950 . S
H1093 C1102 0.950 . S
H1094 C1104 0.952 1_554 S
H1095 C1106 0.950 . S
H1096 C1108 0.950 . S
H1097 C1109 0.950 . S
C1098 H1090 0.950 . S
C1098 C1099 1.386 . S
C1098 C1100 1.391 . S
C1099 C1098 1.386 . S
C1099 C1103 1.393 . S
C1100 H1092 0.950 . S
C1100 C1098 1.391 . S
C1100 C1101 1.400 . S
C1101 C1100 1.400 . S
C1101 C1102 1.398 . S
C1101 C1107 1.491 . S
C1102 H1093 0.950 . S
C1102 C1101 1.398 . S
C1102 C1103 1.391 . S
C1103 H1091 0.950 . S
C1103 C1099 1.393 . S
C1103 C1102 1.391 . S
C1104 H1094 0.952 1_556 S
C1104 C1105 1.384 . S
C1104 C1106 1.390 . S
C1105 C1104 1.384 . S
C1105 C1109 1.393 . S
C1106 H1095 0.950 . S
C1106 C1104 1.390 . S
C1106 C1107 1.400 . S
C1107 C1101 1.491 . S
C1107 C1106 1.400 . S
C1107 C1108 1.398 . S
C1108 H1096 0.950 . S
C1108 C1107 1.398 . S
C1108 C1109 1.391 . S
C1109 H1097 0.950 . S
C1109 C1105 1.393 . S
C1109 C1108 1.391 . S
H1110 C1118 0.950 . S
H1111 C1123 0.950 . S
H1112 C1120 0.950 . S
H1113 C1122 0.950 . S
H1114 C1124 0.950 . S
H1115 C1126 0.950 . S
H1116 C1128 0.950 1_554 S
H1117 C1129 0.950 . S
C1118 H1110 0.950 . S
C1118 C1119 1.386 . S
C1118 C1120 1.391 . S
C1119 C1118 1.386 . S
C1119 C1123 1.393 . S
C1120 H1112 0.950 . S
C1120 C1118 1.391 . S
C1120 C1121 1.400 . S
C1121 C1120 1.400 . S
C1121 C1122 1.398 . S
C1121 C1127 1.491 . S
C1122 H1113 0.950 . S
C1122 C1121 1.398 . S
C1122 C1123 1.391 . S
C1123 H1111 0.950 . S
C1123 C1119 1.393 . S
C1123 C1122 1.391 . S
C1124 H1114 0.950 . S
C1124 C1125 1.386 . S
C1124 C1126 1.391 . S
C1125 C1124 1.386 . S
C1125 C1129 1.393 1_556 S
C1126 H1115 0.950 . S
C1126 C1124 1.391 . S
C1126 C1127 1.400 . S
C1127 C1121 1.491 . S
C1127 C1126 1.400 . S
C1127 C1128 1.398 . S
C1128 H1116 0.950 1_556 S
C1128 C1127 1.398 . S
C1128 C1129 1.391 1_556 S
C1129 H1117 0.950 . S
C1129 C1125 1.393 1_554 S
C1129 C1128 1.391 1_554 S
H1130 C1138 0.950 . S
H1131 C1143 0.950 . S
H1132 C1140 0.950 . S
H1133 C1142 0.950 . S
H1134 C1144 0.950 . S
H1135 C1146 0.950 . S
H1136 C1148 0.950 . S
H1137 C1149 0.950 1_554 S
C1138 H1130 0.950 . S
C1138 C1139 1.386 . S
C1138 C1140 1.391 . S
C1139 C1138 1.386 . S
C1139 C1143 1.393 . S
C1140 H1132 0.950 . S
C1140 C1138 1.391 . S
C1140 C1141 1.400 . S
C1141 C1140 1.400 . S
C1141 C1142 1.398 . S
C1141 C1147 1.491 . S
C1142 H1133 0.950 . S
C1142 C1141 1.398 . S
C1142 C1143 1.391 . S
C1143 H1131 0.950 . S
C1143 C1139 1.393 . S
C1143 C1142 1.391 . S
C1144 H1134 0.950 . S
C1144 C1145 1.386 . S
C1144 C1146 1.391 . S
C1145 C1144 1.386 . S
C1145 C1149 1.393 . S
C1146 H1135 0.950 . S
C1146 C1144 1.391 . S
C1146 C1147 1.400 . S
C1147 C1141 1.491 . S
C1147 C1146 1.400 . S
C1147 C1148 1.398 . S
C1148 H1136 0.950 . S
C1148 C1147 1.398 . S
C1148 C1149 1.391 . S
C1149 H1137 0.950 1_556 S
C1149 C1145 1.393 . S
C1149 C1148 1.391 . S
H1150 C1158 0.950 . S
H1151 C1163 0.950 . S
H1152 C1160 0.950 . S
H1153 C1162 0.950 . S
H1154 C1164 0.950 1_554 S
H1155 C1166 0.950 . S
H1156 C1168 0.950 . S
H1157 C1169 0.950 . S
C1158 H1150 0.950 . S
C1158 C1159 1.386 . S
C1158 C1160 1.391 . S
C1159 C1158 1.386 . S
C1159 C1163 1.393 . S
C1160 H1152 0.950 . S
C1160 C1158 1.391 . S
C1160 C1161 1.400 . S
C1161 C1160 1.400 . S
C1161 C1162 1.398 . S
C1161 C1167 1.491 . S
C1162 H1153 0.950 . S
C1162 C1161 1.398 . S
C1162 C1163 1.391 . S
C1163 H1151 0.950 . S
C1163 C1159 1.393 . S
C1163 C1162 1.391 . S
C1164 H1154 0.950 1_556 S
C1164 C1165 1.386 . S
C1164 C1166 1.391 . S
C1165 C1164 1.386 . S
C1165 C1169 1.393 . S
C1166 H1155 0.950 . S
C1166 C1164 1.391 . S
C1166 C1167 1.400 . S
C1167 C1161 1.491 . S
C1167 C1166 1.400 . S
C1167 C1168 1.398 . S
C1168 H1156 0.950 . S
C1168 C1167 1.398 . S
C1168 C1169 1.391 . S
C1169 H1157 0.950 . S
C1169 C1165 1.393 . S
C1169 C1168 1.391 . S
H1170 C1178 0.950 . S
H1171 C1183 0.950 . S
H1172 C1180 0.950 . S
H1173 C1182 0.950 . S
H1174 C1184 0.950 . S
H1175 C1186 0.950 . S
H1176 C1188 0.950 . S
H1177 C1189 0.950 . S
C1178 H1170 0.950 . S
C1178 C1179 1.386 . S
C1178 C1180 1.391 . S
C1179 C1178 1.386 . S
C1179 C1183 1.393 . S
C1180 H1172 0.950 . S
C1180 C1178 1.391 . S
C1180 C1181 1.400 . S
C1181 C1180 1.400 . S
C1181 C1182 1.398 . S
C1181 C1187 1.491 . S
C1182 H1173 0.950 . S
C1182 C1181 1.398 . S
C1182 C1183 1.391 . S
C1183 H1171 0.950 . S
C1183 C1179 1.393 . S
C1183 C1182 1.391 . S
C1184 H1174 0.950 . S
C1184 C1185 1.386 . S
C1184 C1186 1.391 . S
C1185 C1184 1.386 . S
C1185 C1189 1.393 . S
C1186 H1175 0.950 . S
C1186 C1184 1.391 . S
C1186 C1187 1.400 . S
C1187 C1181 1.491 . S
C1187 C1186 1.400 . S
C1187 C1188 1.398 . S
C1188 H1176 0.950 . S
C1188 C1187 1.398 . S
C1188 C1189 1.391 . S
C1189 H1177 0.950 . S
C1189 C1185 1.393 . S
C1189 C1188 1.391 . S
H1190 C1198 0.950 . S
H1191 C1203 0.950 . S
H1192 C1200 0.950 . S
H1193 C1202 0.950 . S
H1194 C1204 0.950 . S
H1195 C1206 0.950 . S
H1196 C1208 0.950 . S
H1197 C1209 0.950 . S
C1198 H1190 0.950 . S
C1198 C1199 1.386 . S
C1198 C1200 1.391 . S
C1199 C1198 1.386 . S
C1199 C1203 1.393 . S
C1200 H1192 0.950 . S
C1200 C1198 1.391 . S
C1200 C1201 1.400 . S
C1201 C1200 1.400 . S
C1201 C1202 1.398 . S
C1201 C1207 1.491 . S
C1202 H1193 0.950 . S
C1202 C1201 1.398 . S
C1202 C1203 1.391 . S
C1203 H1191 0.950 . S
C1203 C1199 1.393 . S
C1203 C1202 1.391 . S
C1204 H1194 0.950 . S
C1204 C1205 1.386 . S
C1204 C1206 1.391 . S
C1205 C1204 1.386 . S
C1205 C1209 1.393 . S
C1206 H1195 0.950 . S
C1206 C1204 1.391 . S
C1206 C1207 1.400 . S
C1207 C1201 1.491 . S
C1207 C1206 1.400 . S
C1207 C1208 1.398 . S
C1208 H1196 0.950 . S
C1208 C1207 1.398 . S
C1208 C1209 1.391 . S
C1209 H1197 0.950 . S
C1209 C1205 1.393 . S
C1209 C1208 1.391 . S
H1210 C1218 0.950 . S
H1211 C1223 0.950 . S
H1212 C1220 0.950 . S
H1213 C1222 0.950 . S
H1214 C1224 0.950 . S
H1215 C1226 0.950 . S
H1216 C1228 0.950 . S
H1217 C1229 0.950 . S
C1218 H1210 0.950 . S
C1218 C1219 1.386 . S
C1218 C1220 1.391 . S
C1219 C1218 1.386 . S
C1219 C1223 1.393 . S
C1220 H1212 0.950 . S
C1220 C1218 1.391 . S
C1220 C1221 1.400 . S
C1221 C1220 1.400 . S
C1221 C1222 1.398 . S
C1221 C1227 1.491 . S
C1222 H1213 0.950 . S
C1222 C1221 1.398 . S
C1222 C1223 1.391 . S
C1223 H1211 0.950 . S
C1223 C1219 1.393 . S
C1223 C1222 1.391 . S
C1224 H1214 0.950 . S
C1224 C1225 1.386 . S
C1224 C1226 1.391 . S
C1225 C1224 1.386 . S
C1225 C1229 1.393 . S
C1226 H1215 0.950 . S
C1226 C1224 1.391 . S
C1226 C1227 1.400 . S
C1227 C1221 1.491 . S
C1227 C1226 1.400 . S
C1227 C1228 1.398 . S
C1228 H1216 0.950 . S
C1228 C1227 1.398 . S
C1228 C1229 1.391 . S
C1229 H1217 0.950 . S
C1229 C1225 1.393 . S
C1229 C1228 1.391 . S
H1230 C1238 0.950 . S
H1231 C1243 0.950 . S
H1232 C1240 0.950 . S
H1233 C1242 0.950 1_455 S
H1234 C1244 0.950 . S
H1235 C1246 0.950 . S
H1236 C1248 0.950 . S
H1237 C1249 0.950 . S
C1238 H1230 0.950 . S
C1238 C1239 1.386 . S
C1238 C1240 1.391 . S
C1239 C1238 1.386 . S
C1239 C1243 1.393 . S
C1240 H1232 0.950 . S
C1240 C1238 1.391 . S
C1240 C1241 1.400 . S
C1241 C1240 1.400 . S
C1241 C1242 1.398 . S
C1241 C1247 1.491 1_655 S
C1242 H1233 0.950 1_655 S
C1242 C1241 1.398 . S
C1242 C1243 1.391 . S
C1243 H1231 0.950 . S
C1243 C1239 1.393 . S
C1243 C1242 1.391 . S
C1244 H1234 0.950 . S
C1244 C1245 1.386 . S
C1244 C1246 1.391 . S
C1245 C1244 1.386 . S
C1245 C1249 1.393 . S
C1246 H1235 0.950 . S
C1246 C1244 1.391 . S
C1246 C1247 1.400 . S
C1247 C1241 1.491 1_455 S
C1247 C1246 1.400 . S
C1247 C1248 1.398 . S
C1248 H1236 0.950 . S
C1248 C1247 1.398 . S
C1248 C1249 1.391 . S
C1249 H1237 0.950 . S
C1249 C1245 1.393 . S
C1249 C1248 1.391 . S
H1250 C1258 0.950 . S
H1251 C1263 0.950 . S
H1252 C1260 0.950 . S
H1253 C1262 0.950 . S
H1254 C1264 0.950 . S
H1255 C1266 0.950 . S
H1256 C1268 0.950 . S
H1257 C1269 0.950 . S
C1258 H1250 0.950 . S
C1258 C1259 1.386 . S
C1258 C1260 1.391 . S
C1259 C1258 1.386 . S
C1259 C1263 1.393 . S
C1260 H1252 0.950 . S
C1260 C1258 1.391 . S
C1260 C1261 1.400 . S
C1261 C1260 1.400 . S
C1261 C1262 1.398 . S
C1261 C1267 1.491 . S
C1262 H1253 0.950 . S
C1262 C1261 1.398 . S
C1262 C1263 1.391 . S
C1263 H1251 0.950 . S
C1263 C1259 1.393 . S
C1263 C1262 1.391 . S
C1264 H1254 0.950 . S
C1264 C1265 1.386 . S
C1264 C1266 1.391 . S
C1265 C1264 1.386 . S
C1265 C1269 1.393 . S
C1266 H1255 0.950 . S
C1266 C1264 1.391 . S
C1266 C1267 1.400 . S
C1267 C1261 1.491 . S
C1267 C1266 1.400 . S
C1267 C1268 1.398 . S
C1268 H1256 0.950 . S
C1268 C1267 1.398 . S
C1268 C1269 1.391 . S
C1269 H1257 0.950 . S
C1269 C1265 1.393 . S
C1269 C1268 1.391 . S
H1270 C1278 0.950 . S
H1271 C1283 0.950 . S
H1272 C1280 0.950 . S
H1273 C1282 0.950 . S
H1274 C1284 0.950 . S
H1275 C1286 0.950 . S
H1276 C1288 0.950 . S
H1277 C1289 0.950 . S
C1278 H1270 0.950 . S
C1278 C1279 1.386 . S
C1278 C1280 1.391 . S
C1279 C1278 1.386 . S
C1279 C1283 1.393 . S
C1280 H1272 0.950 . S
C1280 C1278 1.391 . S
C1280 C1281 1.400 . S
C1281 C1280 1.400 . S
C1281 C1282 1.398 . S
C1281 C1287 1.491 1_545 S
C1282 H1273 0.950 . S
C1282 C1281 1.398 . S
C1282 C1283 1.391 . S
C1283 H1271 0.950 . S
C1283 C1279 1.393 . S
C1283 C1282 1.391 . S
C1284 H1274 0.950 . S
C1284 C1285 1.386 . S
C1284 C1286 1.391 . S
C1285 C1284 1.386 . S
C1285 C1289 1.393 . S
C1286 H1275 0.950 . S
C1286 C1284 1.391 . S
C1286 C1287 1.400 . S
C1287 C1281 1.491 1_565 S
C1287 C1286 1.400 . S
C1287 C1288 1.398 . S
C1288 H1276 0.950 . S
C1288 C1287 1.398 . S
C1288 C1289 1.391 . S
C1289 H1277 0.950 . S
C1289 C1285 1.393 . S
C1289 C1288 1.391 . S
H1290 C1298 0.950 . S
H1291 C1303 0.950 . S
H1292 C1300 0.950 . S
H1293 C1302 0.950 . S
H1294 C1304 0.950 . S
H1295 C1306 0.950 . S
H1296 C1308 0.950 . S
H1297 C1309 0.950 . S
C1298 H1290 0.950 . S
C1298 C1299 1.386 . S
C1298 C1300 1.391 . S
C1299 C1298 1.386 . S
C1299 C1303 1.393 . S
C1300 H1292 0.950 . S
C1300 C1298 1.391 . S
C1300 C1301 1.400 . S
C1301 C1300 1.400 . S
C1301 C1302 1.398 . S
C1301 C1307 1.491 . S
C1302 H1293 0.950 . S
C1302 C1301 1.398 . S
C1302 C1303 1.391 . S
C1303 H1291 0.950 . S
C1303 C1299 1.393 . S
C1303 C1302 1.391 . S
C1304 H1294 0.950 . S
C1304 C1305 1.386 . S
C1304 C1306 1.391 . S
C1305 C1304 1.386 . S
C1305 C1309 1.393 . S
C1306 H1295 0.950 . S
C1306 C1304 1.391 . S
C1306 C1307 1.400 . S
C1307 C1301 1.491 . S
C1307 C1306 1.400 . S
C1307 C1308 1.398 . S
C1308 H1296 0.950 . S
C1308 C1307 1.398 . S
C1308 C1309 1.391 . S
C1309 H1297 0.950 . S
C1309 C1305 1.393 . S
C1309 C1308 1.391 . S
H1310 C1318 0.950 . S
H1311 C1323 0.950 . S
H1312 C1320 0.950 . S
H1313 C1322 0.950 . S
H1314 C1324 0.950 . S
H1315 C1326 0.950 . S
H1316 C1328 0.950 . S
H1317 C1329 0.950 . S
C1318 H1310 0.950 . S
C1318 C1319 1.386 . S
C1318 C1320 1.391 . S
C1319 C1318 1.386 . S
C1319 C1323 1.393 . S
C1320 H1312 0.950 . S
C1320 C1318 1.391 . S
C1320 C1321 1.400 . S
C1321 C1320 1.400 . S
C1321 C1322 1.398 . S
C1321 C1327 1.491 . S
C1322 H1313 0.950 . S
C1322 C1321 1.398 . S
C1322 C1323 1.391 . S
C1323 H1311 0.950 . S
C1323 C1319 1.393 . S
C1323 C1322 1.391 . S
C1324 H1314 0.950 . S
C1324 C1325 1.386 . S
C1324 C1326 1.391 . S
C1325 C1324 1.386 . S
C1325 C1329 1.393 . S
C1326 H1315 0.950 . S
C1326 C1324 1.391 . S
C1326 C1327 1.400 . S
C1327 C1321 1.491 . S
C1327 C1326 1.400 . S
C1327 C1328 1.398 . S
C1328 H1316 0.950 . S
C1328 C1327 1.398 . S
C1328 C1329 1.391 . S
C1329 H1317 0.950 . S
C1329 C1325 1.393 . S
C1329 C1328 1.391 . S
H1330 C1338 0.950 . S
H1331 C1343 0.950 . S
H1332 C1340 0.950 . S
H1333 C1342 0.950 . S
H1334 C1344 0.950 . S
H1335 C1346 0.950 . S
H1336 C1348 0.950 . S
H1337 C1349 0.950 . S
C1338 H1330 0.950 . S
C1338 C1339 1.386 . S
C1338 C1340 1.391 . S
C1339 C1338 1.386 . S
C1339 C1343 1.393 . S
C1340 H1332 0.950 . S
C1340 C1338 1.391 . S
C1340 C1341 1.400 . S
C1341 C1340 1.400 . S
C1341 C1342 1.398 . S
C1341 C1347 1.491 . S
C1342 H1333 0.950 . S
C1342 C1341 1.398 . S
C1342 C1343 1.391 . S
C1343 H1331 0.950 . S
C1343 C1339 1.393 . S
C1343 C1342 1.391 . S
C1344 H1334 0.950 . S
C1344 C1345 1.386 . S
C1344 C1346 1.391 . S
C1345 C1344 1.386 . S
C1345 C1349 1.393 . S
C1346 H1335 0.950 . S
C1346 C1344 1.391 . S
C1346 C1347 1.400 . S
C1347 C1341 1.491 . S
C1347 C1346 1.400 . S
C1347 C1348 1.398 . S
C1348 H1336 0.950 . S
C1348 C1347 1.398 . S
C1348 C1349 1.391 . S
C1349 H1337 0.950 . S
C1349 C1345 1.393 . S
C1349 C1348 1.391 . S
H1350 C1358 0.950 . S
H1351 C1363 0.950 . S
H1352 C1360 0.950 . S
H1353 C1362 0.950 . S
H1354 C1364 0.950 . S
H1355 C1366 0.950 . S
H1356 C1368 0.950 . S
H1357 C1369 0.950 . S
C1358 H1350 0.950 . S
C1358 C1359 1.386 . S
C1358 C1360 1.391 . S
C1359 C1358 1.386 . S
C1359 C1363 1.393 . S
C1360 H1352 0.950 . S
C1360 C1358 1.391 . S
C1360 C1361 1.400 . S
C1361 C1360 1.400 . S
C1361 C1362 1.398 . S
C1361 C1367 1.491 . S
C1362 H1353 0.950 . S
C1362 C1361 1.398 . S
C1362 C1363 1.391 . S
C1363 H1351 0.950 . S
C1363 C1359 1.393 . S
C1363 C1362 1.391 . S
C1364 H1354 0.950 . S
C1364 C1365 1.386 . S
C1364 C1366 1.391 . S
C1365 C1364 1.386 . S
C1365 C1369 1.393 . S
C1366 H1355 0.950 . S
C1366 C1364 1.391 . S
C1366 C1367 1.400 . S
C1367 C1361 1.491 . S
C1367 C1366 1.400 . S
C1367 C1368 1.398 . S
C1368 H1356 0.950 . S
C1368 C1367 1.398 . S
C1368 C1369 1.391 . S
C1369 H1357 0.950 . S
C1369 C1365 1.393 . S
C1369 C1368 1.391 . S
H1370 C1378 0.950 . S
H1371 C1383 0.950 . S
H1372 C1380 0.950 . S
H1373 C1382 0.950 . S
H1374 C1384 0.950 . S
H1375 C1386 0.950 . S
H1376 C1388 0.950 . S
H1377 C1389 0.950 . S
C1378 H1370 0.950 . S
C1378 C1379 1.386 . S
C1378 C1380 1.391 . S
C1379 C1378 1.386 . S
C1379 C1383 1.393 . S
C1380 H1372 0.950 . S
C1380 C1378 1.391 . S
C1380 C1381 1.400 . S
C1381 C1380 1.400 . S
C1381 C1382 1.398 . S
C1381 C1387 1.491 . S
C1382 H1373 0.950 . S
C1382 C1381 1.398 . S
C1382 C1383 1.391 . S
C1383 H1371 0.950 . S
C1383 C1379 1.393 . S
C1383 C1382 1.391 . S
C1384 H1374 0.950 . S
C1384 C1385 1.386 . S
C1384 C1386 1.391 . S
C1385 C1384 1.386 . S
C1385 C1389 1.393 . S
C1386 H1375 0.950 . S
C1386 C1384 1.391 . S
C1386 C1387 1.400 . S
C1387 C1381 1.491 . S
C1387 C1386 1.400 . S
C1387 C1388 1.398 . S
C1388 H1376 0.950 . S
C1388 C1387 1.398 . S
C1388 C1389 1.391 . S
C1389 H1377 0.950 . S
C1389 C1385 1.393 . S
C1389 C1388 1.391 . S
H1390 C1398 0.950 . S
H1391 C1403 0.950 . S
H1392 C1400 0.950 . S
H1393 C1402 0.950 . S
H1394 C1404 0.950 . S
H1395 C1406 0.950 . S
H1396 C1408 0.950 . S
H1397 C1409 0.950 . S
C1398 H1390 0.950 . S
C1398 C1399 1.386 . S
C1398 C1400 1.391 . S
C1399 C1398 1.386 . S
C1399 C1403 1.393 . S
C1400 H1392 0.950 . S
C1400 C1398 1.391 . S
C1400 C1401 1.400 . S
C1401 C1400 1.400 . S
C1401 C1402 1.398 . S
C1401 C1407 1.491 . S
C1402 H1393 0.950 . S
C1402 C1401 1.398 . S
C1402 C1403 1.391 . S
C1403 H1391 0.950 . S
C1403 C1399 1.393 . S
C1403 C1402 1.391 . S
C1404 H1394 0.950 . S
C1404 C1405 1.386 . S
C1404 C1406 1.391 . S
C1405 C1404 1.386 . S
C1405 C1409 1.393 . S
C1406 H1395 0.950 . S
C1406 C1404 1.391 . S
C1406 C1407 1.400 . S
C1407 C1401 1.491 . S
C1407 C1406 1.400 . S
C1407 C1408 1.398 . S
C1408 H1396 0.950 . S
C1408 C1407 1.398 . S
C1408 C1409 1.391 . S
C1409 H1397 0.950 . S
C1409 C1405 1.393 . S
C1409 C1408 1.391 . S
H1410 C1418 0.948 . S
H1411 C1423 0.950 . S
H1412 C1420 0.950 . S
H1413 C1422 0.950 . S
H1414 C1424 0.950 . S
H1415 C1426 0.950 . S
H1416 C1428 0.950 . S
H1417 C1429 0.950 . S
C1418 H1410 0.948 . S
C1418 C1419 1.411 . S
C1418 C1420 1.369 1_545 S
C1419 C1418 1.411 . S
C1419 C1423 1.393 . S
C1420 H1412 0.950 . S
C1420 C1418 1.369 1_565 S
C1420 C1421 1.400 . S
C1421 C1420 1.400 . S
C1421 C1422 1.398 . S
C1421 C1427 1.491 . S
C1422 H1413 0.950 . S
C1422 C1421 1.398 . S
C1422 C1423 1.391 1_565 S
C1423 H1411 0.950 . S
C1423 C1419 1.393 . S
C1423 C1422 1.391 1_545 S
C1424 H1414 0.950 . S
C1424 C1425 1.386 . S
C1424 C1426 1.391 . S
C1425 C1424 1.386 . S
C1425 C1429 1.393 . S
C1426 H1415 0.950 . S
C1426 C1424 1.391 . S
C1426 C1427 1.400 . S
C1427 C1421 1.491 . S
C1427 C1426 1.400 . S
C1427 C1428 1.398 . S
C1428 H1416 0.950 . S
C1428 C1427 1.398 . S
C1428 C1429 1.391 . S
C1429 H1417 0.950 . S
C1429 C1425 1.393 . S
C1429 C1428 1.391 . S
H1430 C1438 0.950 1_655 S
H1431 C1443 0.960 . S
H1432 C1440 0.950 . S
H1433 C1442 0.950 . S
H1434 C1444 0.950 . S
H1435 C1446 0.950 . S
H1436 C1448 0.950 . S
H1437 C1449 0.950 . S
C1438 H1430 0.950 1_455 S
C1438 C1439 1.386 1_455 S
C1438 C1440 1.391 . S
C1439 C1438 1.386 1_655 S
C1439 C1443 1.393 1_655 S
C1440 H1432 0.950 . S
C1440 C1438 1.391 . S
C1440 C1441 1.400 . S
C1441 C1440 1.400 . S
C1441 C1442 1.398 . S
C1441 C1447 1.491 . S
C1442 H1433 0.950 . S
C1442 C1441 1.398 . S
C1442 C1443 1.391 . S
C1443 H1431 0.960 . S
C1443 C1439 1.393 1_455 S
C1443 C1442 1.391 . S
C1444 H1434 0.950 . S
C1444 C1445 1.386 . S
C1444 C1446 1.391 . S
C1445 C1444 1.386 . S
C1445 C1449 1.393 . S
C1446 H1435 0.950 . S
C1446 C1444 1.391 . S
C1446 C1447 1.400 . S
C1447 C1441 1.491 . S
C1447 C1446 1.400 . S
C1447 C1448 1.398 . S
C1448 H1436 0.950 . S
C1448 C1447 1.398 . S
C1448 C1449 1.391 . S
C1449 H1437 0.950 . S
C1449 C1445 1.393 . S
C1449 C1448 1.391 . S
H1450 C1458 0.950 . S
H1451 C1463 0.950 . S
H1452 C1460 0.950 . S
H1453 C1462 0.950 . S
H1454 C1464 0.950 . S
H1455 C1466 0.950 . S
H1456 C1468 0.950 . S
H1457 C1469 0.950 . S
C1458 H1450 0.950 . S
C1458 C1459 1.386 . S
C1458 C1460 1.391 . S
C1459 C1458 1.386 . S
C1459 C1463 1.393 . S
C1460 H1452 0.950 . S
C1460 C1458 1.391 . S
C1460 C1461 1.400 . S
C1461 C1460 1.400 . S
C1461 C1462 1.398 . S
C1461 C1467 1.491 . S
C1462 H1453 0.950 . S
C1462 C1461 1.398 . S
C1462 C1463 1.391 . S
C1463 H1451 0.950 . S
C1463 C1459 1.393 . S
C1463 C1462 1.391 . S
C1464 H1454 0.950 . S
C1464 C1465 1.386 . S
C1464 C1466 1.391 . S
C1465 C1464 1.386 . S
C1465 C1469 1.393 . S
C1466 H1455 0.950 . S
C1466 C1464 1.391 . S
C1466 C1467 1.400 . S
C1467 C1461 1.491 . S
C1467 C1466 1.400 . S
C1467 C1468 1.398 . S
C1468 H1456 0.950 . S
C1468 C1467 1.398 . S
C1468 C1469 1.391 . S
C1469 H1457 0.950 . S
C1469 C1465 1.393 . S
C1469 C1468 1.391 . S
H1470 C1478 0.950 . S
H1471 C1483 0.950 . S
H1472 C1480 0.950 . S
H1473 C1482 0.950 . S
H1474 C1484 0.950 . S
H1475 C1486 0.950 . S
H1476 C1488 0.950 . S
H1477 C1489 0.950 . S
C1478 H1470 0.950 . S
C1478 C1479 1.386 . S
C1478 C1480 1.391 . S
C1479 C1478 1.386 . S
C1479 C1483 1.393 . S
C1480 H1472 0.950 . S
C1480 C1478 1.391 . S
C1480 C1481 1.400 . S
C1481 C1480 1.400 . S
C1481 C1482 1.398 . S
C1481 C1487 1.491 . S
C1482 H1473 0.950 . S
C1482 C1481 1.398 . S
C1482 C1483 1.391 . S
C1483 H1471 0.950 . S
C1483 C1479 1.393 . S
C1483 C1482 1.391 . S
C1484 H1474 0.950 . S
C1484 C1485 1.386 . S
C1484 C1486 1.391 . S
C1485 C1484 1.386 . S
C1485 C1489 1.393 . S
C1486 H1475 0.950 . S
C1486 C1484 1.391 . S
C1486 C1487 1.400 . S
C1487 C1481 1.491 . S
C1487 C1486 1.400 . S
C1487 C1488 1.398 . S
C1488 H1476 0.950 . S
C1488 C1487 1.398 . S
C1488 C1489 1.391 . S
C1489 H1477 0.950 . S
C1489 C1485 1.393 . S
C1489 C1488 1.391 . S
H1490 C1498 0.950 . S
H1491 C1503 0.950 . S
H1492 C1500 0.950 . S
H1493 C1502 0.950 . S
H1494 C1504 0.950 . S
H1495 C1506 0.950 . S
H1496 C1508 0.950 . S
H1497 C1509 0.950 . S
C1498 H1490 0.950 . S
C1498 C1499 1.386 . S
C1498 C1500 1.391 . S
C1499 C1498 1.386 . S
C1499 C1503 1.393 . S
C1500 H1492 0.950 . S
C1500 C1498 1.391 . S
C1500 C1501 1.400 . S
C1501 C1500 1.400 . S
C1501 C1502 1.398 . S
C1501 C1507 1.491 . S
C1502 H1493 0.950 . S
C1502 C1501 1.398 . S
C1502 C1503 1.391 . S
C1503 H1491 0.950 . S
C1503 C1499 1.393 . S
C1503 C1502 1.391 . S
C1504 H1494 0.950 . S
C1504 C1505 1.386 . S
C1504 C1506 1.391 . S
C1505 C1504 1.386 . S
C1505 C1509 1.393 . S
C1506 H1495 0.950 . S
C1506 C1504 1.391 . S
C1506 C1507 1.400 . S
C1507 C1501 1.491 . S
C1507 C1506 1.400 . S
C1507 C1508 1.398 . S
C1508 H1496 0.950 . S
C1508 C1507 1.398 . S
C1508 C1509 1.391 . S
C1509 H1497 0.950 . S
C1509 C1505 1.393 . S
C1509 C1508 1.391 . S
H1510 C1518 0.950 . S
H1511 C1523 0.950 . S
H1512 C1520 0.950 . S
H1513 C1522 0.950 . S
H1514 C1524 0.950 . S
H1515 C1526 0.950 . S
H1516 C1528 0.950 . S
H1517 C1529 0.950 . S
C1518 H1510 0.950 . S
C1518 C1519 1.386 . S
C1518 C1520 1.391 . S
C1519 C1518 1.386 . S
C1519 C1523 1.393 . S
C1520 H1512 0.950 . S
C1520 C1518 1.391 . S
C1520 C1521 1.400 . S
C1521 C1520 1.400 . S
C1521 C1522 1.398 . S
C1521 C1527 1.491 . S
C1522 H1513 0.950 . S
C1522 C1521 1.398 . S
C1522 C1523 1.391 . S
C1523 H1511 0.950 . S
C1523 C1519 1.393 . S
C1523 C1522 1.391 . S
C1524 H1514 0.950 . S
C1524 C1525 1.386 . S
C1524 C1526 1.391 . S
C1525 C1524 1.386 . S
C1525 C1529 1.393 . S
C1526 H1515 0.950 . S
C1526 C1524 1.391 . S
C1526 C1527 1.400 . S
C1527 C1521 1.491 . S
C1527 C1526 1.400 . S
C1527 C1528 1.398 . S
C1528 H1516 0.950 . S
C1528 C1527 1.398 . S
C1528 C1529 1.391 . S
C1529 H1517 0.950 . S
C1529 C1525 1.393 . S
C1529 C1528 1.391 . S
H1530 C1538 0.950 . S
H1531 C1543 0.950 . S
H1532 C1540 0.950 . S
H1533 C1542 0.950 1_545 S
H1534 C1544 0.950 . S
H1535 C1546 0.950 . S
H1536 C1548 0.950 . S
H1537 C1549 0.950 . S
C1538 H1530 0.950 . S
C1538 C1539 1.386 . S
C1538 C1540 1.391 . S
C1539 C1538 1.386 . S
C1539 C1543 1.393 . S
C1540 H1532 0.950 . S
C1540 C1538 1.391 . S
C1540 C1541 1.400 . S
C1541 C1540 1.400 . S
C1541 C1542 1.398 . S
C1541 C1547 1.491 1_565 S
C1542 H1533 0.950 1_565 S
C1542 C1541 1.398 . S
C1542 C1543 1.391 . S
C1543 H1531 0.950 . S
C1543 C1539 1.393 . S
C1543 C1542 1.391 . S
C1544 H1534 0.950 . S
C1544 C1545 1.386 . S
C1544 C1546 1.391 . S
C1545 C1544 1.386 . S
C1545 C1549 1.393 . S
C1546 H1535 0.950 . S
C1546 C1544 1.391 . S
C1546 C1547 1.400 . S
C1547 C1541 1.491 1_545 S
C1547 C1546 1.400 . S
C1547 C1548 1.398 . S
C1548 H1536 0.950 . S
C1548 C1547 1.398 . S
C1548 C1549 1.391 . S
C1549 H1537 0.950 . S
C1549 C1545 1.393 . S
C1549 C1548 1.391 . S
H1550 C1558 0.950 . S
H1551 C1563 0.950 . S
H1552 C1560 0.950 . S
H1553 C1562 0.950 1_655 S
H1554 C1564 0.950 . S
H1555 C1566 0.950 . S
H1556 C1568 0.950 . S
H1557 C1569 0.950 . S
C1558 H1550 0.950 . S
C1558 C1559 1.386 . S
C1558 C1560 1.391 . S
C1559 C1558 1.386 . S
C1559 C1563 1.393 . S
C1560 H1552 0.950 . S
C1560 C1558 1.391 . S
C1560 C1561 1.400 . S
C1561 C1560 1.400 . S
C1561 C1562 1.398 . S
C1561 C1567 1.491 1_455 S
C1562 H1553 0.950 1_455 S
C1562 C1561 1.398 . S
C1562 C1563 1.391 . S
C1563 H1551 0.950 . S
C1563 C1559 1.393 . S
C1563 C1562 1.391 . S
C1564 H1554 0.950 . S
C1564 C1565 1.386 . S
C1564 C1566 1.391 . S
C1565 C1564 1.386 . S
C1565 C1569 1.393 . S
C1566 H1555 0.950 . S
C1566 C1564 1.391 . S
C1566 C1567 1.400 . S
C1567 C1561 1.491 1_655 S
C1567 C1566 1.400 . S
C1567 C1568 1.398 . S
C1568 H1556 0.950 . S
C1568 C1567 1.398 . S
C1568 C1569 1.391 . S
C1569 H1557 0.950 . S
C1569 C1565 1.393 . S
C1569 C1568 1.391 . S
H1570 C1578 0.950 . S
H1571 C1583 0.950 . S
H1572 C1580 0.950 . S
H1573 C1582 0.950 . S
H1574 C1584 0.950 . S
H1575 C1586 0.950 . S
H1576 C1588 0.950 . S
H1577 C1589 0.950 . S
C1578 H1570 0.950 . S
C1578 C1579 1.386 . S
C1578 C1580 1.391 . S
C1579 C1578 1.386 . S
C1579 C1583 1.393 . S
C1580 H1572 0.950 . S
C1580 C1578 1.391 . S
C1580 C1581 1.400 . S
C1581 C1580 1.400 . S
C1581 C1582 1.398 . S
C1581 C1587 1.491 . S
C1582 H1573 0.950 . S
C1582 C1581 1.398 . S
C1582 C1583 1.391 . S
C1583 H1571 0.950 . S
C1583 C1579 1.393 . S
C1583 C1582 1.391 . S
C1584 H1574 0.950 . S
C1584 C1585 1.386 . S
C1584 C1586 1.391 . S
C1585 C1584 1.386 . S
C1585 C1589 1.393 . S
C1586 H1575 0.950 . S
C1586 C1584 1.391 . S
C1586 C1587 1.400 . S
C1587 C1581 1.491 . S
C1587 C1586 1.400 . S
C1587 C1588 1.398 . S
C1588 H1576 0.950 . S
C1588 C1587 1.398 . S
C1588 C1589 1.391 . S
C1589 H1577 0.950 . S
C1589 C1585 1.393 . S
C1589 C1588 1.391 . S
H1590 C1598 0.950 . S
H1591 C1603 0.950 1_455 S
H1592 C1600 0.950 . S
H1593 C1602 0.950 . S
H1594 C1604 0.950 . S
H1595 C1606 0.950 . S
H1596 C1608 0.950 . S
H1597 C1609 0.950 . S
C1598 H1590 0.950 . S
C1598 C1599 1.386 . S
C1598 C1600 1.391 1_455 S
C1599 C1598 1.386 . S
C1599 C1603 1.393 1_455 S
C1600 H1592 0.950 . S
C1600 C1598 1.391 1_655 S
C1600 C1601 1.400 . S
C1601 C1600 1.400 . S
C1601 C1602 1.398 . S
C1601 C1607 1.491 . S
C1602 H1593 0.950 . S
C1602 C1601 1.398 . S
C1602 C1603 1.391 . S
C1603 H1591 0.950 1_655 S
C1603 C1599 1.393 1_655 S
C1603 C1602 1.391 . S
C1604 H1594 0.950 . S
C1604 C1605 1.386 . S
C1604 C1606 1.391 . S
C1605 C1604 1.386 . S
C1605 C1609 1.393 . S
C1606 H1595 0.950 . S
C1606 C1604 1.391 . S
C1606 C1607 1.400 . S
C1607 C1601 1.491 . S
C1607 C1606 1.400 . S
C1607 C1608 1.398 . S
C1608 H1596 0.950 . S
C1608 C1607 1.398 . S
C1608 C1609 1.391 . S
C1609 H1597 0.950 . S
C1609 C1605 1.393 . S
C1609 C1608 1.391 . S
H1610 C1618 0.950 . S
H1611 C1623 0.950 . S
H1612 C1620 0.950 . S
H1613 C1622 0.950 . S
H1614 C1624 0.950 . S
H1615 C1626 0.950 . S
H1616 C1628 0.950 . S
H1617 C1629 0.950 . S
C1618 H1610 0.950 . S
C1618 C1619 1.386 . S
C1618 C1620 1.391 . S
C1619 C1618 1.386 . S
C1619 C1623 1.393 . S
C1620 H1612 0.950 . S
C1620 C1618 1.391 . S
C1620 C1621 1.400 . S
C1621 C1620 1.400 . S
C1621 C1622 1.398 . S
C1621 C1627 1.491 . S
C1622 H1613 0.950 . S
C1622 C1621 1.398 . S
C1622 C1623 1.391 . S
C1623 H1611 0.950 . S
C1623 C1619 1.393 . S
C1623 C1622 1.391 . S
C1624 H1614 0.950 . S
C1624 C1625 1.386 . S
C1624 C1626 1.391 . S
C1625 C1624 1.386 . S
C1625 C1629 1.393 . S
C1626 H1615 0.950 . S
C1626 C1624 1.391 . S
C1626 C1627 1.400 . S
C1627 C1621 1.491 . S
C1627 C1626 1.400 . S
C1627 C1628 1.398 . S
C1628 H1616 0.950 . S
C1628 C1627 1.398 . S
C1628 C1629 1.391 . S
C1629 H1617 0.950 . S
C1629 C1625 1.393 . S
C1629 C1628 1.391 . S
H1630 C1638 0.947 1_565 S
H1631 C1643 0.950 . S
H1632 C1640 0.950 . S
H1633 C1642 0.950 . S
H1634 C1644 0.950 . S
H1635 C1646 0.950 . S
H1636 C1648 0.950 . S
H1637 C1649 0.950 . S
C1638 H1630 0.947 1_545 S
C1638 C1639 1.386 1_545 S
C1638 C1640 1.391 . S
C1639 C1638 1.386 1_565 S
C1639 C1643 1.393 . S
C1640 H1632 0.950 . S
C1640 C1638 1.391 . S
C1640 C1641 1.400 . S
C1641 C1640 1.400 . S
C1641 C1642 1.398 . S
C1641 C1647 1.491 . S
C1642 H1633 0.950 . S
C1642 C1641 1.398 . S
C1642 C1643 1.391 1_545 S
C1643 H1631 0.950 . S
C1643 C1639 1.393 . S
C1643 C1642 1.391 1_565 S
C1644 H1634 0.950 . S
C1644 C1645 1.386 . S
C1644 C1646 1.391 . S
C1645 C1644 1.386 . S
C1645 C1649 1.393 . S
C1646 H1635 0.950 . S
C1646 C1644 1.391 . S
C1646 C1647 1.400 . S
C1647 C1641 1.491 . S
C1647 C1646 1.400 . S
C1647 C1648 1.398 . S
C1648 H1636 0.950 . S
C1648 C1647 1.398 . S
C1648 C1649 1.391 . S
C1649 H1637 0.950 . S
C1649 C1645 1.393 . S
C1649 C1648 1.391 . S
H1650 C1658 0.950 . S
H1651 C1663 0.950 . S
H1652 C1660 0.950 . S
H1653 C1662 0.950 . S
H1654 C1664 0.950 . S
H1655 C1666 0.950 . S
H1656 C1668 0.950 . S
H1657 C1669 0.950 . S
C1658 H1650 0.950 . S
C1658 C1659 1.386 . S
C1658 C1660 1.391 . S
C1659 C1658 1.386 . S
C1659 C1663 1.393 . S
C1660 H1652 0.950 . S
C1660 C1658 1.391 . S
C1660 C1661 1.400 . S
C1661 C1660 1.400 . S
C1661 C1662 1.398 . S
C1661 C1667 1.491 . S
C1662 H1653 0.950 . S
C1662 C1661 1.398 . S
C1662 C1663 1.391 . S
C1663 H1651 0.950 . S
C1663 C1659 1.393 . S
C1663 C1662 1.391 . S
C1664 H1654 0.950 . S
C1664 C1665 1.386 . S
C1664 C1666 1.391 . S
C1665 C1664 1.386 . S
C1665 C1669 1.393 . S
C1666 H1655 0.950 . S
C1666 C1664 1.391 . S
C1666 C1667 1.400 . S
C1667 C1661 1.491 . S
C1667 C1666 1.400 . S
C1667 C1668 1.398 . S
C1668 H1656 0.950 . S
C1668 C1667 1.398 . S
C1668 C1669 1.391 . S
C1669 H1657 0.950 . S
C1669 C1665 1.393 . S
C1669 C1668 1.391 . S
H1670 C1678 0.950 . S
H1671 C1683 0.950 . S
H1672 C1680 0.950 . S
H1673 C1682 0.950 . S
H1674 C1684 0.950 . S
H1675 C1686 0.950 . S
H1676 C1688 0.950 . S
H1677 C1689 0.950 . S
C1678 H1670 0.950 . S
C1678 C1679 1.386 . S
C1678 C1680 1.391 . S
C1679 C1678 1.386 . S
C1679 C1683 1.393 . S
C1680 H1672 0.950 . S
C1680 C1678 1.391 . S
C1680 C1681 1.400 . S
C1681 C1680 1.400 . S
C1681 C1682 1.398 . S
C1681 C1687 1.491 . S
C1682 H1673 0.950 . S
C1682 C1681 1.398 . S
C1682 C1683 1.391 . S
C1683 H1671 0.950 . S
C1683 C1679 1.393 . S
C1683 C1682 1.391 . S
C1684 H1674 0.950 . S
C1684 C1685 1.386 . S
C1684 C1686 1.391 . S
C1685 C1684 1.386 . S
C1685 C1689 1.393 . S
C1686 H1675 0.950 . S
C1686 C1684 1.391 . S
C1686 C1687 1.400 . S
C1687 C1681 1.491 . S
C1687 C1686 1.400 . S
C1687 C1688 1.398 . S
C1688 H1676 0.950 . S
C1688 C1687 1.398 . S
C1688 C1689 1.391 . S
C1689 H1677 0.950 . S
C1689 C1685 1.393 . S
C1689 C1688 1.391 . S
H1690 C1698 0.950 . S
H1691 C1703 0.950 . S
H1692 C1700 0.950 . S
H1693 C1702 0.950 . S
H1694 C1704 0.950 . S
H1695 C1706 0.950 . S
H1696 C1708 0.950 . S
H1697 C1709 0.950 . S
C1698 H1690 0.950 . S
C1698 C1699 1.386 . S
C1698 C1700 1.391 . S
C1699 C1698 1.386 . S
C1699 C1703 1.393 . S
C1700 H1692 0.950 . S
C1700 C1698 1.391 . S
C1700 C1701 1.400 . S
C1701 C1700 1.400 . S
C1701 C1702 1.398 . S
C1701 C1707 1.491 . S
C1702 H1693 0.950 . S
C1702 C1701 1.398 . S
C1702 C1703 1.391 . S
C1703 H1691 0.950 . S
C1703 C1699 1.393 . S
C1703 C1702 1.391 . S
C1704 H1694 0.950 . S
C1704 C1705 1.386 . S
C1704 C1706 1.391 . S
C1705 C1704 1.386 . S
C1705 C1709 1.393 . S
C1706 H1695 0.950 . S
C1706 C1704 1.391 . S
C1706 C1707 1.400 . S
C1707 C1701 1.491 . S
C1707 C1706 1.400 . S
C1707 C1708 1.398 . S
C1708 H1696 0.950 . S
C1708 C1707 1.398 . S
C1708 C1709 1.391 . S
C1709 H1697 0.950 . S
C1709 C1705 1.393 . S
C1709 C1708 1.391 . S
H1710 C1718 0.950 . S
H1711 C1723 0.950 . S
H1712 C1720 0.950 . S
H1713 C1722 0.950 . S
H1714 C1724 0.950 . S
H1715 C1726 0.950 . S
H1716 C1728 0.950 . S
H1717 C1729 0.950 . S
C1718 H1710 0.950 . S
C1718 C1719 1.386 . S
C1718 C1720 1.391 . S
C1719 C1718 1.386 . S
C1719 C1723 1.393 . S
C1720 H1712 0.950 . S
C1720 C1718 1.391 . S
C1720 C1721 1.400 . S
C1721 C1720 1.400 . S
C1721 C1722 1.398 . S
C1721 C1727 1.491 . S
C1722 H1713 0.950 . S
C1722 C1721 1.398 . S
C1722 C1723 1.391 . S
C1723 H1711 0.950 . S
C1723 C1719 1.393 . S
C1723 C1722 1.391 . S
C1724 H1714 0.950 . S
C1724 C1725 1.386 . S
C1724 C1726 1.391 . S
C1725 C1724 1.386 . S
C1725 C1729 1.393 . S
C1726 H1715 0.950 . S
C1726 C1724 1.391 . S
C1726 C1727 1.400 . S
C1727 C1721 1.491 . S
C1727 C1726 1.400 . S
C1727 C1728 1.398 . S
C1728 H1716 0.950 . S
C1728 C1727 1.398 . S
C1728 C1729 1.391 . S
C1729 H1717 0.950 . S
C1729 C1725 1.393 . S
C1729 C1728 1.391 . S
H1730 C1738 0.950 . S
H1731 C1743 0.950 . S
H1732 C1740 0.950 . S
H1733 C1742 0.950 . S
H1734 C1744 0.950 . S
H1735 C1746 0.950 . S
H1736 C1748 0.950 . S
H1737 C1749 0.950 . S
C1738 H1730 0.950 . S
C1738 C1739 1.386 . S
C1738 C1740 1.391 . S
C1739 C1738 1.386 . S
C1739 C1743 1.393 . S
C1740 H1732 0.950 . S
C1740 C1738 1.391 . S
C1740 C1741 1.400 . S
C1741 C1740 1.400 . S
C1741 C1742 1.398 . S
C1741 C1747 1.491 . S
C1742 H1733 0.950 . S
C1742 C1741 1.398 . S
C1742 C1743 1.391 . S
C1743 H1731 0.950 . S
C1743 C1739 1.393 . S
C1743 C1742 1.391 . S
C1744 H1734 0.950 . S
C1744 C1745 1.386 . S
C1744 C1746 1.391 . S
C1745 C1744 1.386 . S
C1745 C1749 1.393 . S
C1746 H1735 0.950 . S
C1746 C1744 1.391 . S
C1746 C1747 1.400 . S
C1747 C1741 1.491 . S
C1747 C1746 1.400 . S
C1747 C1748 1.398 . S
C1748 H1736 0.950 . S
C1748 C1747 1.398 . S
C1748 C1749 1.391 . S
C1749 H1737 0.950 . S
C1749 C1745 1.393 . S
C1749 C1748 1.391 . S
H1750 C1758 0.950 . S
H1751 C1763 0.950 . S
H1752 C1760 0.950 . S
H1753 C1762 0.950 . S
H1754 C1764 0.950 . S
H1755 C1766 0.950 . S
H1756 C1768 0.950 . S
H1757 C1769 0.950 . S
C1758 H1750 0.950 . S
C1758 C1759 1.386 . S
C1758 C1760 1.391 . S
C1759 C1758 1.386 . S
C1759 C1763 1.393 . S
C1760 H1752 0.950 . S
C1760 C1758 1.391 . S
C1760 C1761 1.400 . S
C1761 C1760 1.400 . S
C1761 C1762 1.398 . S
C1761 C1767 1.491 . S
C1762 H1753 0.950 . S
C1762 C1761 1.398 . S
C1762 C1763 1.391 . S
C1763 H1751 0.950 . S
C1763 C1759 1.393 . S
C1763 C1762 1.391 . S
C1764 H1754 0.950 . S
C1764 C1765 1.386 . S
C1764 C1766 1.391 . S
C1765 C1764 1.386 . S
C1765 C1769 1.393 . S
C1766 H1755 0.950 . S
C1766 C1764 1.391 . S
C1766 C1767 1.400 . S
C1767 C1761 1.491 . S
C1767 C1766 1.400 . S
C1767 C1768 1.398 . S
C1768 H1756 0.950 . S
C1768 C1767 1.398 . S
C1768 C1769 1.391 . S
C1769 H1757 0.950 . S
C1769 C1765 1.393 . S
C1769 C1768 1.391 . S
H1770 C1778 0.950 . S
H1771 C1783 0.950 . S
H1772 C1780 0.950 . S
H1773 C1782 0.950 . S
H1774 C1784 0.950 . S
H1775 C1786 0.950 . S
H1776 C1788 0.950 . S
H1777 C1789 0.950 . S
C1778 H1770 0.950 . S
C1778 C1779 1.386 . S
C1778 C1780 1.391 . S
C1779 C1778 1.386 . S
C1779 C1783 1.393 . S
C1780 H1772 0.950 . S
C1780 C1778 1.391 . S
C1780 C1781 1.400 . S
C1781 C1780 1.400 . S
C1781 C1782 1.398 . S
C1781 C1787 1.491 . S
C1782 H1773 0.950 . S
C1782 C1781 1.398 . S
C1782 C1783 1.391 . S
C1783 H1771 0.950 . S
C1783 C1779 1.393 . S
C1783 C1782 1.391 . S
C1784 H1774 0.950 . S
C1784 C1785 1.386 . S
C1784 C1786 1.391 . S
C1785 C1784 1.386 . S
C1785 C1789 1.393 . S
C1786 H1775 0.950 . S
C1786 C1784 1.391 . S
C1786 C1787 1.400 . S
C1787 C1781 1.491 . S
C1787 C1786 1.400 . S
C1787 C1788 1.398 . S
C1788 H1776 0.950 . S
C1788 C1787 1.398 . S
C1788 C1789 1.391 . S
C1789 H1777 0.950 . S
C1789 C1785 1.393 . S
C1789 C1788 1.391 . S
H1790 C1798 0.950 . S
H1791 C1803 0.950 . S
H1792 C1800 0.950 . S
H1793 C1802 0.950 . S
H1794 C1804 0.950 . S
H1795 C1806 0.950 . S
H1796 C1808 0.950 . S
H1797 C1809 0.950 . S
C1798 H1790 0.950 . S
C1798 C1799 1.386 . S
C1798 C1800 1.391 . S
C1799 C1798 1.386 . S
C1799 C1803 1.393 . S
C1800 H1792 0.950 . S
C1800 C1798 1.391 . S
C1800 C1801 1.400 . S
C1801 C1800 1.400 . S
C1801 C1802 1.398 . S
C1801 C1807 1.491 . S
C1802 H1793 0.950 . S
C1802 C1801 1.398 . S
C1802 C1803 1.391 . S
C1803 H1791 0.950 . S
C1803 C1799 1.393 . S
C1803 C1802 1.391 . S
C1804 H1794 0.950 . S
C1804 C1805 1.386 . S
C1804 C1806 1.391 . S
C1805 C1804 1.386 . S
C1805 C1809 1.393 . S
C1806 H1795 0.950 . S
C1806 C1804 1.391 . S
C1806 C1807 1.400 . S
C1807 C1801 1.491 . S
C1807 C1806 1.400 . S
C1807 C1808 1.398 . S
C1808 H1796 0.950 . S
C1808 C1807 1.398 . S
C1808 C1809 1.391 . S
C1809 H1797 0.950 . S
C1809 C1805 1.393 . S
C1809 C1808 1.391 . S
H1810 C1818 0.950 . S
H1811 C1823 0.950 . S
H1812 C1820 0.950 . S
H1813 C1822 0.950 . S
H1814 C1824 0.950 . S
H1815 C1826 0.950 . S
H1816 C1828 0.950 . S
H1817 C1829 0.950 . S
C1818 H1810 0.950 . S
C1818 C1819 1.386 . S
C1818 C1820 1.391 . S
C1819 C1818 1.386 . S
C1819 C1823 1.393 . S
C1820 H1812 0.950 . S
C1820 C1818 1.391 . S
C1820 C1821 1.400 . S
C1821 C1820 1.400 . S
C1821 C1822 1.398 . S
C1821 C1827 1.491 . S
C1822 H1813 0.950 . S
C1822 C1821 1.398 . S
C1822 C1823 1.391 . S
C1823 H1811 0.950 . S
C1823 C1819 1.393 . S
C1823 C1822 1.391 . S
C1824 H1814 0.950 . S
C1824 C1825 1.386 . S
C1824 C1826 1.391 . S
C1825 C1824 1.386 . S
C1825 C1829 1.393 . S
C1826 H1815 0.950 . S
C1826 C1824 1.391 . S
C1826 C1827 1.400 . S
C1827 C1821 1.491 . S
C1827 C1826 1.400 . S
C1827 C1828 1.398 . S
C1828 H1816 0.950 . S
C1828 C1827 1.398 . S
C1828 C1829 1.391 . S
C1829 H1817 0.950 . S
C1829 C1825 1.393 . S
C1829 C1828 1.391 . S
H1830 C1838 0.950 . S
H1831 C1843 0.950 . S
H1832 C1840 0.950 . S
H1833 C1842 0.950 . S
H1834 C1844 0.950 . S
H1835 C1846 0.950 . S
H1836 C1848 0.950 . S
H1837 C1849 0.950 . S
C1838 H1830 0.950 . S
C1838 C1839 1.386 . S
C1838 C1840 1.391 . S
C1839 C1838 1.386 . S
C1839 C1843 1.393 . S
C1840 H1832 0.950 . S
C1840 C1838 1.391 . S
C1840 C1841 1.400 . S
C1841 C1840 1.400 . S
C1841 C1842 1.398 . S
C1841 C1847 1.491 . S
C1842 H1833 0.950 . S
C1842 C1841 1.398 . S
C1842 C1843 1.391 . S
C1843 H1831 0.950 . S
C1843 C1839 1.393 . S
C1843 C1842 1.391 . S
C1844 H1834 0.950 . S
C1844 C1845 1.386 . S
C1844 C1846 1.391 . S
C1845 C1844 1.386 . S
C1845 C1849 1.393 . S
C1846 H1835 0.950 . S
C1846 C1844 1.391 . S
C1846 C1847 1.400 . S
C1847 C1841 1.491 . S
C1847 C1846 1.400 . S
C1847 C1848 1.398 . S
C1848 H1836 0.950 . S
C1848 C1847 1.398 . S
C1848 C1849 1.391 . S
C1849 H1837 0.950 . S
C1849 C1845 1.393 . S
C1849 C1848 1.391 . S
H1850 C1858 0.950 . S
H1851 C1863 0.950 . S
H1852 C1860 0.950 . S
H1853 C1862 0.950 . S
H1854 C1864 0.950 . S
H1855 C1866 0.950 . S
H1856 C1868 0.950 . S
H1857 C1869 0.950 . S
C1858 H1850 0.950 . S
C1858 C1859 1.386 . S
C1858 C1860 1.391 . S
C1859 C1858 1.386 . S
C1859 C1863 1.393 . S
C1860 H1852 0.950 . S
C1860 C1858 1.391 . S
C1860 C1861 1.400 . S
C1861 C1860 1.400 . S
C1861 C1862 1.398 . S
C1861 C1867 1.491 . S
C1862 H1853 0.950 . S
C1862 C1861 1.398 . S
C1862 C1863 1.391 . S
C1863 H1851 0.950 . S
C1863 C1859 1.393 . S
C1863 C1862 1.391 . S
C1864 H1854 0.950 . S
C1864 C1865 1.386 . S
C1864 C1866 1.391 . S
C1865 C1864 1.386 . S
C1865 C1869 1.393 . S
C1866 H1855 0.950 . S
C1866 C1864 1.391 . S
C1866 C1867 1.400 . S
C1867 C1861 1.491 . S
C1867 C1866 1.400 . S
C1867 C1868 1.398 . S
C1868 H1856 0.950 . S
C1868 C1867 1.398 . S
C1868 C1869 1.391 . S
C1869 H1857 0.950 . S
C1869 C1865 1.393 . S
C1869 C1868 1.391 . S
H1870 C1878 0.950 . S
H1871 C1883 0.950 . S
H1872 C1880 0.950 . S
H1873 C1882 0.950 . S
H1874 C1884 0.950 . S
H1875 C1886 0.950 . S
H1876 C1888 0.950 . S
H1877 C1889 0.950 . S
C1878 H1870 0.950 . S
C1878 C1879 1.386 . S
C1878 C1880 1.391 . S
C1879 C1878 1.386 . S
C1879 C1883 1.393 . S
C1880 H1872 0.950 . S
C1880 C1878 1.391 . S
C1880 C1881 1.400 . S
C1881 C1880 1.400 . S
C1881 C1882 1.398 . S
C1881 C1887 1.491 . S
C1882 H1873 0.950 . S
C1882 C1881 1.398 . S
C1882 C1883 1.391 . S
C1883 H1871 0.950 . S
C1883 C1879 1.393 . S
C1883 C1882 1.391 . S
C1884 H1874 0.950 . S
C1884 C1885 1.386 . S
C1884 C1886 1.391 . S
C1885 C1884 1.386 . S
C1885 C1889 1.393 . S
C1886 H1875 0.950 . S
C1886 C1884 1.391 . S
C1886 C1887 1.400 . S
C1887 C1881 1.491 . S
C1887 C1886 1.400 . S
C1887 C1888 1.398 . S
C1888 H1876 0.950 . S
C1888 C1887 1.398 . S
C1888 C1889 1.391 . S
C1889 H1877 0.950 . S
C1889 C1885 1.393 . S
C1889 C1888 1.391 . S
H1890 C1898 0.950 . S
H1891 C1903 0.950 . S
H1892 C1900 0.950 . S
H1893 C1902 0.950 . S
H1894 C1904 0.950 . S
H1895 C1906 0.950 . S
H1896 C1908 0.950 . S
H1897 C1909 0.950 . S
C1898 H1890 0.950 . S
C1898 C1899 1.386 . S
C1898 C1900 1.391 . S
C1899 C1898 1.386 . S
C1899 C1903 1.393 . S
C1900 H1892 0.950 . S
C1900 C1898 1.391 . S
C1900 C1901 1.400 . S
C1901 C1900 1.400 . S
C1901 C1902 1.398 . S
C1901 C1907 1.491 . S
C1902 H1893 0.950 . S
C1902 C1901 1.398 . S
C1902 C1903 1.391 . S
C1903 H1891 0.950 . S
C1903 C1899 1.393 . S
C1903 C1902 1.391 . S
C1904 H1894 0.950 . S
C1904 C1905 1.386 . S
C1904 C1906 1.391 . S
C1905 C1904 1.386 . S
C1905 C1909 1.393 . S
C1906 H1895 0.950 . S
C1906 C1904 1.391 . S
C1906 C1907 1.400 . S
C1907 C1901 1.491 . S
C1907 C1906 1.400 . S
C1907 C1908 1.398 . S
C1908 H1896 0.950 . S
C1908 C1907 1.398 . S
C1908 C1909 1.391 . S
C1909 H1897 0.950 . S
C1909 C1905 1.393 . S
C1909 C1908 1.391 . S
H1910 C1918 0.950 . S
H1911 C1923 0.950 . S
H1912 C1920 0.950 . S
H1913 C1922 0.950 . S
H1914 C1924 0.950 . S
H1915 C1926 0.950 . S
H1916 C1928 0.950 . S
H1917 C1929 0.950 . S
C1918 H1910 0.950 . S
C1918 C1919 1.386 . S
C1918 C1920 1.391 . S
C1919 C1918 1.386 . S
C1919 C1923 1.393 . S
C1920 H1912 0.950 . S
C1920 C1918 1.391 . S
C1920 C1921 1.400 . S
C1921 C1920 1.400 . S
C1921 C1922 1.398 . S
C1921 C1927 1.491 . S
C1922 H1913 0.950 . S
C1922 C1921 1.398 . S
C1922 C1923 1.391 . S
C1923 H1911 0.950 . S
C1923 C1919 1.393 . S
C1923 C1922 1.391 . S
C1924 H1914 0.950 . S
C1924 C1925 1.386 . S
C1924 C1926 1.391 . S
C1925 C1924 1.386 . S
C1925 C1929 1.393 . S
C1926 H1915 0.950 . S
C1926 C1924 1.391 . S
C1926 C1927 1.400 . S
C1927 C1921 1.491 . S
C1927 C1926 1.400 . S
C1927 C1928 1.398 . S
C1928 H1916 0.950 . S
C1928 C1927 1.398 . S
C1928 C1929 1.391 . S
C1929 H1917 0.950 . S
C1929 C1925 1.393 . S
C1929 C1928 1.391 . S
H1930 C1938 0.950 . S
H1931 C1943 0.950 . S
H1932 C1940 0.950 . S
H1933 C1942 0.950 . S
H1934 C1944 0.950 . S
H1935 C1946 0.950 . S
H1936 C1948 0.950 . S
H1937 C1949 0.950 . S
C1938 H1930 0.950 . S
C1938 C1939 1.386 . S
C1938 C1940 1.391 . S
C1939 C1938 1.386 . S
C1939 C1943 1.393 . S
C1940 H1932 0.950 . S
C1940 C1938 1.391 . S
C1940 C1941 1.400 . S
C1941 C1940 1.400 . S
C1941 C1942 1.398 . S
C1941 C1947 1.491 . S
C1942 H1933 0.950 . S
C1942 C1941 1.398 . S
C1942 C1943 1.391 . S
C1943 H1931 0.950 . S
C1943 C1939 1.393 . S
C1943 C1942 1.391 . S
C1944 H1934 0.950 . S
C1944 C1945 1.386 . S
C1944 C1946 1.391 . S
C1945 C1944 1.386 . S
C1945 C1949 1.393 . S
C1946 H1935 0.950 . S
C1946 C1944 1.391 . S
C1946 C1947 1.400 . S
C1947 C1941 1.491 . S
C1947 C1946 1.400 . S
C1947 C1948 1.398 . S
C1948 H1936 0.950 . S
C1948 C1947 1.398 . S
C1948 C1949 1.391 . S
C1949 H1937 0.950 . S
C1949 C1945 1.393 . S
C1949 C1948 1.391 . S
H1950 C1958 0.950 . S
H1951 C1963 0.950 . S
H1952 C1960 0.950 . S
H1953 C1962 0.950 . S
H1954 C1964 0.950 . S
H1955 C1966 0.950 . S
H1956 C1968 0.950 . S
H1957 C1969 0.950 . S
C1958 H1950 0.950 . S
C1958 C1959 1.386 . S
C1958 C1960 1.391 . S
C1959 C1958 1.386 . S
C1959 C1963 1.393 . S
C1960 H1952 0.950 . S
C1960 C1958 1.391 . S
C1960 C1961 1.400 . S
C1961 C1960 1.400 . S
C1961 C1962 1.398 . S
C1961 C1967 1.491 . S
C1962 H1953 0.950 . S
C1962 C1961 1.398 . S
C1962 C1963 1.391 . S
C1963 H1951 0.950 . S
C1963 C1959 1.393 . S
C1963 C1962 1.391 . S
C1964 H1954 0.950 . S
C1964 C1965 1.386 . S
C1964 C1966 1.391 . S
C1965 C1964 1.386 . S
C1965 C1969 1.393 . S
C1966 H1955 0.950 . S
C1966 C1964 1.391 . S
C1966 C1967 1.400 . S
C1967 C1961 1.491 . S
C1967 C1966 1.400 . S
C1967 C1968 1.398 . S
C1968 H1956 0.950 . S
C1968 C1967 1.398 . S
C1968 C1969 1.391 . S
C1969 H1957 0.950 . S
C1969 C1965 1.393 . S
C1969 C1968 1.391 . S
H1970 C1978 0.950 . S
H1971 C1983 0.950 . S
H1972 C1980 0.950 . S
H1973 C1982 0.950 . S
H1974 C1984 0.950 . S
H1975 C1986 0.950 . S
H1976 C1988 0.950 . S
H1977 C1989 0.950 . S
C1978 H1970 0.950 . S
C1978 C1979 1.386 . S
C1978 C1980 1.391 . S
C1979 C1978 1.386 . S
C1979 C1983 1.393 . S
C1980 H1972 0.950 . S
C1980 C1978 1.391 . S
C1980 C1981 1.400 . S
C1981 C1980 1.400 . S
C1981 C1982 1.398 . S
C1981 C1987 1.491 . S
C1982 H1973 0.950 . S
C1982 C1981 1.398 . S
C1982 C1983 1.391 . S
C1983 H1971 0.950 . S
C1983 C1979 1.393 . S
C1983 C1982 1.391 . S
C1984 H1974 0.950 . S
C1984 C1985 1.386 . S
C1984 C1986 1.391 . S
C1985 C1984 1.386 . S
C1985 C1989 1.393 . S
C1986 H1975 0.950 . S
C1986 C1984 1.391 . S
C1986 C1987 1.400 . S
C1987 C1981 1.491 . S
C1987 C1986 1.400 . S
C1987 C1988 1.398 . S
C1988 H1976 0.950 . S
C1988 C1987 1.398 . S
C1988 C1989 1.391 . S
C1989 H1977 0.950 . S
C1989 C1985 1.393 . S
C1989 C1988 1.391 . S
H1990 C1998 0.950 . S
H1991 C2003 0.950 . S
H1992 C2000 0.950 . S
H1993 C2002 0.950 . S
H1994 C2004 0.950 . S
H1995 C2006 0.950 . S
H1996 C2008 0.950 . S
H1997 C2009 0.950 . S
C1998 H1990 0.950 . S
C1998 C1999 1.386 . S
C1998 C2000 1.391 . S
C1999 C1998 1.386 . S
C1999 C2003 1.393 . S
C2000 H1992 0.950 . S
C2000 C1998 1.391 . S
C2000 C2001 1.400 . S
C2001 C2000 1.400 . S
C2001 C2002 1.398 . S
C2001 C2007 1.491 . S
C2002 H1993 0.950 . S
C2002 C2001 1.398 . S
C2002 C2003 1.391 . S
C2003 H1991 0.950 . S
C2003 C1999 1.393 . S
C2003 C2002 1.391 . S
C2004 H1994 0.950 . S
C2004 C2005 1.386 . S
C2004 C2006 1.391 . S
C2005 C2004 1.386 . S
C2005 C2009 1.393 . S
C2006 H1995 0.950 . S
C2006 C2004 1.391 . S
C2006 C2007 1.400 . S
C2007 C2001 1.491 . S
C2007 C2006 1.400 . S
C2007 C2008 1.398 . S
C2008 H1996 0.950 . S
C2008 C2007 1.398 . S
C2008 C2009 1.391 . S
C2009 H1997 0.950 . S
C2009 C2005 1.393 . S
C2009 C2008 1.391 . S
H2010 C2018 0.950 . S
H2011 C2023 0.950 . S
H2012 C2020 0.950 . S
H2013 C2022 0.950 . S
H2014 C2024 0.950 . S
H2015 C2026 0.950 . S
H2016 C2028 0.950 . S
H2017 C2029 0.950 . S
C2018 H2010 0.950 . S
C2018 C2019 1.386 . S
C2018 C2020 1.391 . S
C2019 C2018 1.386 . S
C2019 C2023 1.393 . S
C2020 H2012 0.950 . S
C2020 C2018 1.391 . S
C2020 C2021 1.400 . S
C2021 C2020 1.400 . S
C2021 C2022 1.398 . S
C2021 C2027 1.491 . S
C2022 H2013 0.950 . S
C2022 C2021 1.398 . S
C2022 C2023 1.391 . S
C2023 H2011 0.950 . S
C2023 C2019 1.393 . S
C2023 C2022 1.391 . S
C2024 H2014 0.950 . S
C2024 C2025 1.386 . S
C2024 C2026 1.391 . S
C2025 C2024 1.386 . S
C2025 C2029 1.393 . S
C2026 H2015 0.950 . S
C2026 C2024 1.391 . S
C2026 C2027 1.400 . S
C2027 C2021 1.491 . S
C2027 C2026 1.400 . S
C2027 C2028 1.398 . S
C2028 H2016 0.950 . S
C2028 C2027 1.398 . S
C2028 C2029 1.391 . S
C2029 H2017 0.950 . S
C2029 C2025 1.393 . S
C2029 C2028 1.391 . S
H2030 C2038 0.950 . S
H2031 C2043 0.950 . S
H2032 C2040 0.950 . S
H2033 C2042 0.950 . S
H2034 C2044 0.950 . S
H2035 C2046 0.950 . S
H2036 C2048 0.950 . S
H2037 C2049 0.950 . S
C2038 H2030 0.950 . S
C2038 C2039 1.386 . S
C2038 C2040 1.391 . S
C2039 C2038 1.386 . S
C2039 C2043 1.393 . S
C2040 H2032 0.950 . S
C2040 C2038 1.391 . S
C2040 C2041 1.400 . S
C2041 C2040 1.400 . S
C2041 C2042 1.398 . S
C2041 C2047 1.491 . S
C2042 H2033 0.950 . S
C2042 C2041 1.398 . S
C2042 C2043 1.391 . S
C2043 H2031 0.950 . S
C2043 C2039 1.393 . S
C2043 C2042 1.391 . S
C2044 H2034 0.950 . S
C2044 C2045 1.386 . S
C2044 C2046 1.391 . S
C2045 C2044 1.386 . S
C2045 C2049 1.393 . S
C2046 H2035 0.950 . S
C2046 C2044 1.391 . S
C2046 C2047 1.400 . S
C2047 C2041 1.491 . S
C2047 C2046 1.400 . S
C2047 C2048 1.398 . S
C2048 H2036 0.950 . S
C2048 C2047 1.398 . S
C2048 C2049 1.391 . S
C2049 H2037 0.950 . S
C2049 C2045 1.393 . S
C2049 C2048 1.391 . S
H2050 C2058 0.950 . S
H2051 C2063 0.950 . S
H2052 C2060 0.950 . S
H2053 C2062 0.950 . S
H2054 C2064 0.950 . S
H2055 C2066 0.950 . S
H2056 C2068 0.950 . S
H2057 C2069 0.950 . S
C2058 H2050 0.950 . S
C2058 C2059 1.386 . S
C2058 C2060 1.391 . S
C2059 C2058 1.386 . S
C2059 C2063 1.393 . S
C2060 H2052 0.950 . S
C2060 C2058 1.391 . S
C2060 C2061 1.400 . S
C2061 C2060 1.400 . S
C2061 C2062 1.398 . S
C2061 C2067 1.491 . S
C2062 H2053 0.950 . S
C2062 C2061 1.398 . S
C2062 C2063 1.391 . S
C2063 H2051 0.950 . S
C2063 C2059 1.393 . S
C2063 C2062 1.391 . S
C2064 H2054 0.950 . S
C2064 C2065 1.386 . S
C2064 C2066 1.391 . S
C2065 C2064 1.386 . S
C2065 C2069 1.393 . S
C2066 H2055 0.950 . S
C2066 C2064 1.391 . S
C2066 C2067 1.400 . S
C2067 C2061 1.491 . S
C2067 C2066 1.400 . S
C2067 C2068 1.398 . S
C2068 H2056 0.950 . S
C2068 C2067 1.398 . S
C2068 C2069 1.391 . S
C2069 H2057 0.950 . S
C2069 C2065 1.393 . S
C2069 C2068 1.391 . S
C999 C177 1.456 . S
C1005 C301 1.385 . S
C1019 C190 1.474 . S
C1025 C385 1.438 . S
C1039 C164 1.445 . S
C1045 C465 1.435 . S
C1059 C151 1.430 . S
C1065 C381 1.430 1_556 S
C1085 C469 1.389 . S
C1079 C125 1.433 . S
C1099 C138 1.411 . S
C1105 C297 1.400 1_556 S
C1125 C290 1.430 . S
C1119 C147 1.465 . S
C1145 C374 1.480 . S
C1139 C121 1.459 . S
C1159 C134 1.454 . S
C1165 C476 1.481 1_556 S
C1179 C173 1.423 . S
C1185 C392 1.456 . S
C1199 C186 1.418 . S
C1205 C458 1.425 . S
C1225 C308 1.446 . S
C1219 C160 1.424 . S
C1245 C553 1.411 . S
C1239 C21 1.450 . S
C1259 C34 1.482 . S
C1265 C637 1.414 . S
C1279 C8 1.450 . S
C1285 C717 1.436 . S
C1299 C229 1.432 . S
C1305 C633 1.429 . S
C1319 C203 1.433 . S
C1325 C721 1.388 . S
C1339 C216 1.404 . S
C1345 C549 1.393 . S
C1359 C225 1.445 . S
C1365 C542 1.452 . S
C1379 C199 1.453 . S
C1385 C626 1.484 . S
C1405 C728 1.482 . S
C1399 C212 1.481 . S
C1419 C17 1.424 . S
C1425 C644 1.463 . S
C1445 C710 1.411 . S
C1439 C30 1.427 . S
C1459 C4 1.434 . S
C1465 C560 1.423 . S
C1485 C805 1.386 . S
C1479 C99 1.456 . S
C1499 C112 1.475 . S
C1505 C889 1.438 . S
C1525 C969 1.448 . S
C1519 C86 1.448 . S
C1545 C885 1.429 . S
C1539 C73 1.426 . S
C1565 C973 1.388 . S
C1559 C47 1.433 . S
C1579 C60 1.402 . S
C1585 C801 1.400 . S
C1599 C69 1.461 . S
C1605 C794 1.434 . S
C1619 C43 1.455 . S
C1625 C878 1.484 . S
C1645 C980 1.481 . S
C1639 C56 1.455 . S
C1659 C95 1.450 . S
C1665 C896 1.445 . S
C1679 C108 1.408 . S
C1685 C962 1.433 . S
C1699 C82 1.436 . S
C1705 C812 1.427 . S
C1719 C204 1.553 . S
C1725 C304 1.454 . S
C1745 C388 1.495 . S
C1739 C217 1.618 . S
C1759 C230 1.572 . S
C1765 C460 1.401 . S
C1779 C87 1.584 . S
C1785 C376 1.395 . S
C1799 C100 1.585 . S
C1805 C472 1.432 . S
C1825 C292 1.367 . S
C1819 C113 1.535 . S
C1839 C48 1.554 . S
C1845 C556 1.457 . S
C1859 C61 1.625 . S
C1865 C640 1.473 . S
C1879 C74 1.572 . S
C1885 C712 1.399 . S
C1899 C165 1.587 . S
C1905 C628 1.409 . S
C1925 C724 1.441 . S
C1919 C178 1.585 . S
C1939 C191 1.523 . S
C1945 C544 1.346 . S
C1959 C126 1.557 . S
C1965 C808 1.423 . S
C1979 C139 1.621 . S
C1985 C892 1.493 . S
C2005 C964 1.367 . S
C1999 C152 1.560 . S
C2019 C9 1.583 . S
C2025 C880 1.382 . S
C2039 C22 1.577 . S
C2045 C976 1.463 . S
C2059 C35 1.523 . S
C2065 C796 1.371 . S
