# Generated by pormake.
# Topology llj, (12,3)-cn, num edge types: 1
# Building blocks:
#     Node 0, Type 0, BuildingBlock: QEWDON_clean_sbu_0, # of connection points: 12
#     Node 1, Type 0, BuildingBlock: QEWDON_clean_sbu_0, # of connection points: 12
#     Node 2, Type 1, BuildingBlock: PAMTOO_clean_linker_0, # of connection points: 3
#     Node 3, Type 1, BuildingBlock: PAMTOO_clean_linker_0, # of connection points: 3
#     Node 4, Type 1, BuildingBlock: PAMTOO_clean_linker_0, # of connection points: 3
#     Node 5, Type 1, BuildingBlock: PAMTOO_clean_linker_0, # of connection points: 3
#     Node 6, Type 1, BuildingBlock: PAMTOO_clean_linker_0, # of connection points: 3
#     Node 7, Type 1, BuildingBlock: PAMTOO_clean_linker_0, # of connection points: 3
#     Node 8, Type 1, BuildingBlock: PAMTOO_clean_linker_0, # of connection points: 3
#     Node 9, Type 1, BuildingBlock: PAMTOO_clean_linker_0, # of connection points: 3
#     Edge 10, Type (0, 1), BuildingBlock: TEMPAE_clean_linker_10, # of connection points: 2
#     Edge 11, Type (0, 1), BuildingBlock: TEMPAE_clean_linker_10, # of connection points: 2
#     Edge 12, Type (0, 1), BuildingBlock: TEMPAE_clean_linker_10, # of connection points: 2
#     Edge 13, Type (0, 1), BuildingBlock: TEMPAE_clean_linker_10, # of connection points: 2
#     Edge 14, Type (0, 1), BuildingBlock: TEMPAE_clean_linker_10, # of connection points: 2
#     Edge 15, Type (0, 1), BuildingBlock: TEMPAE_clean_linker_10, # of connection points: 2
#     Edge 16, Type (0, 1), BuildingBlock: TEMPAE_clean_linker_10, # of connection points: 2
#     Edge 17, Type (0, 1), BuildingBlock: TEMPAE_clean_linker_10, # of connection points: 2
#     Edge 18, Type (0, 1), BuildingBlock: TEMPAE_clean_linker_10, # of connection points: 2
#     Edge 19, Type (0, 1), BuildingBlock: TEMPAE_clean_linker_10, # of connection points: 2
#     Edge 20, Type (0, 1), BuildingBlock: TEMPAE_clean_linker_10, # of connection points: 2
#     Edge 21, Type (0, 1), BuildingBlock: TEMPAE_clean_linker_10, # of connection points: 2
#     Edge 22, Type (0, 1), BuildingBlock: TEMPAE_clean_linker_10, # of connection points: 2
#     Edge 23, Type (0, 1), BuildingBlock: TEMPAE_clean_linker_10, # of connection points: 2
#     Edge 24, Type (0, 1), BuildingBlock: TEMPAE_clean_linker_10, # of connection points: 2
#     Edge 25, Type (0, 1), BuildingBlock: TEMPAE_clean_linker_10, # of connection points: 2
#     Edge 26, Type (0, 1), BuildingBlock: TEMPAE_clean_linker_10, # of connection points: 2
#     Edge 27, Type (0, 1), BuildingBlock: TEMPAE_clean_linker_10, # of connection points: 2
#     Edge 28, Type (0, 1), BuildingBlock: TEMPAE_clean_linker_10, # of connection points: 2
#     Edge 29, Type (0, 1), BuildingBlock: TEMPAE_clean_linker_10, # of connection points: 2
#     Edge 30, Type (0, 1), BuildingBlock: TEMPAE_clean_linker_10, # of connection points: 2
#     Edge 31, Type (0, 1), BuildingBlock: TEMPAE_clean_linker_10, # of connection points: 2
#     Edge 32, Type (0, 1), BuildingBlock: TEMPAE_clean_linker_10, # of connection points: 2
#     Edge 33, Type (0, 1), BuildingBlock: TEMPAE_clean_linker_10, # of connection points: 2
# Relax obj value: 0.010
# Max RMSD: 0.103
# Mean RMSD: 0.087
data_MOF--net-llj--node1-QEWDON_clean_sbu_0--node2-PAMTOO_clean_linker_0--edge1-TEMPAE_clean_linker_10
_symmetry_space_group_name_H-M    P1
_symmetry_Int_Tables_number       1
_symmetry_cell_setting            triclinic
loop_
_symmetry_equiv_pos_as_xyz
'x, y, z'
_cell_length_a     39.83485
_cell_length_b     39.831117
_cell_length_c     24.88372
_cell_angle_alpha  91.383358
_cell_angle_beta   90.365532
_cell_angle_gamma 90.020969
loop_
_atom_site_label
_atom_site_type_symbol
_atom_site_fract_x
_atom_site_fract_y
_atom_site_fract_z
_atom_type_partial_charge
Zn0 Zn 0.94614 0.08295 0.93972 0.0
Zn1 Zn 0.94054 0.06576 0.06408 0.0
O2 O 0.97041 0.06111 0.00099 0.0
H3 H 0.98697 0.04363 -0.0039 0.0
C4 C 0.9135 0.99889 0.87109 0.0
O5 O 0.91793 0.0132 0.91872 0.0
Zn6 Zn 0.0525 0.92996 0.06707 0.0
Zn7 Zn 0.06008 0.93668 0.94286 0.0
O8 O 0.02493 0.93356 0.00078 0.0
H9 H 0.00289 0.92421 -0.00606 0.0
Zn10 Zn 0.92917 0.9416 0.93437 0.0
O11 O 0.94419 0.97059 -0.0015 0.0
Zn12 Zn 0.93537 0.94345 0.06249 0.0
H13 H 0.96174 0.98726 -0.00321 0.0
Zn14 Zn 0.07026 0.04113 0.94601 0.0
O15 O 0.05105 0.01797 0.00938 0.0
H16 H 0.03335 0.00143 0.0064 0.0
Zn17 Zn 0.05849 0.04949 0.07138 0.0
C18 C 0.10255 0.9897 0.88344 0.0
O19 O 0.11948 0.98772 0.92875 0.0
O20 O 0.90355 0.10926 0.96005 0.0
O21 O 0.89958 0.09474 0.04556 0.0
O22 O 0.10394 0.91153 0.96139 0.0
O23 O 0.09562 0.90457 0.04873 0.0
O24 O 0.90062 0.90023 0.95329 0.0
O25 O 0.90556 0.90354 0.04223 0.0
C26 C 0.99831 0.0827 0.1284 0.0
O27 O 0.10056 0.08169 0.9637 0.0
O28 O 0.08995 0.08809 0.05081 0.0
O29 O 0.03826 0.92807 0.86881 0.0
C30 C 0.88836 0.11039 0.00497 0.0
O31 O 0.97307 0.09238 0.87112 0.0
C32 C 0.99384 0.91157 0.12521 0.0
O33 O 0.91695 0.96727 0.86589 0.0
C34 C 0.11327 0.90005 0.0065 0.0
O35 O 0.07959 0.01155 0.87954 0.0
C36 C 0.91372 0.00365 0.1211 0.0
O37 O 0.96674 0.08704 0.12651 0.0
O38 O 0.01193 0.06629 0.08988 0.0
C39 C 0.89397 0.88918 -0.00033 0.0
O40 O 0.02545 0.90736 0.12521 0.0
O41 O 0.98106 0.92808 0.0871 0.0
C42 C 0.07754 0.99188 0.13198 0.0
O43 O 0.91297 0.97176 0.12072 0.0
O44 O 0.92811 0.01797 0.08226 0.0
C45 C 0.10472 0.09746 0.00831 0.0
O46 O 0.07877 0.02378 0.13327 0.0
O47 O 0.06341 0.97753 0.09157 0.0
C48 C 0.02264 0.90032 0.86537 0.0
O49 O 0.02434 0.87982 0.90589 0.0
C50 C 0.0047 0.08982 0.87608 0.0
O51 O 0.01742 0.08287 0.92333 0.0
Zn52 Zn 0.44822 0.55456 0.45708 0.0
Zn53 Zn 0.45104 0.56476 0.58251 0.0
O54 O 0.48043 0.55381 0.52023 0.0
H55 H 0.49916 0.53844 0.52051 0.0
C56 C 0.40476 0.50019 0.38749 0.0
O57 O 0.39079 0.50737 0.43406 0.0
Zn58 Zn 0.54799 0.4374 0.57852 0.0
Zn59 Zn 0.54809 0.43754 0.45039 0.0
O60 O 0.51912 0.44808 0.51565 0.0
H61 H 0.50216 0.4654 0.51616 0.0
Zn62 Zn 0.42744 0.44803 0.45282 0.0
O63 O 0.43414 0.47909 0.51667 0.0
Zn64 Zn 0.42804 0.45015 0.57947 0.0
H65 H 0.44876 0.49829 0.51453 0.0
Zn66 Zn 0.55803 0.55958 0.46032 0.0
O67 O 0.56477 0.52415 0.51626 0.0
H68 H 0.57562 0.50297 0.50799 0.0
Zn69 Zn 0.57054 0.55305 0.58154 0.0
C70 C 0.59529 0.52782 0.37955 0.0
O71 O 0.61756 0.53455 0.4175 0.0
O72 O 0.40745 0.58515 0.47038 0.0
O73 O 0.41229 0.59449 0.55863 0.0
O74 O 0.58681 0.40496 0.46603 0.0
O75 O 0.58474 0.40444 0.55526 0.0
O76 O 0.39672 0.40801 0.46873 0.0
O77 O 0.39715 0.41102 0.55807 0.0
C78 C 0.5104 0.58352 0.64273 0.0
O79 O 0.5856 0.60262 0.47699 0.0
O80 O 0.59906 0.59363 0.56225 0.0
O81 O 0.52217 0.42943 0.37912 0.0
C82 C 0.39746 0.59931 0.51385 0.0
O83 O 0.47268 0.55959 0.38557 0.0
C84 C 0.48851 0.4204 0.63846 0.0
O85 O 0.42214 0.47361 0.38254 0.0
C86 C 0.59749 0.39426 0.51085 0.0
O87 O 0.5653 0.53768 0.38617 0.0
C88 C 0.41503 0.5088 0.64314 0.0
O89 O 0.47863 0.5866 0.64289 0.0
O90 O 0.52372 0.56771 0.60326 0.0
C91 C 0.38732 0.39716 0.51393 0.0
O92 O 0.52027 0.4175 0.63854 0.0
O93 O 0.47484 0.43502 0.59905 0.0
C94 C 0.58535 0.49429 0.64065 0.0
O95 O 0.4085 0.47759 0.6416 0.0
O96 O 0.43253 0.52033 0.60529 0.0
C97 C 0.60136 0.61105 0.52001 0.0
O98 O 0.59161 0.52559 0.64083 0.0
O99 O 0.56737 0.48223 0.60245 0.0
C100 C 0.49353 0.41592 0.38416 0.0
O101 O 0.48323 0.40844 0.43248 0.0
C102 C 0.49355 0.58366 0.38751 0.0
O103 O 0.49579 0.60219 0.43182 0.0
H104 H 0.39072 0.3775 0.01164 0.0
H105 H 0.32134 0.31503 0.09502 0.0
H106 H 0.31963 0.31594 0.92252 0.0
H107 H 0.25152 0.31673 0.98064 0.0
C108 C 0.25879 0.29998 0.01395 0.0
O109 O 0.292 0.29078 0.00796 0.0
H110 H 0.25545 0.31384 0.05289 0.0
C111 C 0.3696 0.36029 0.0105 0.0
C112 C 0.35677 0.34845 0.96091 0.0
C113 C 0.35697 0.34844 0.05884 0.0
C114 C 0.33097 0.32472 0.05781 0.0
C115 C 0.31711 0.31359 0.00868 0.0
C116 C 0.3301 0.32526 0.96032 0.0
H117 H 0.63033 0.4092 0.00878 0.0
H118 H 0.68727 0.34244 0.10774 0.0
H119 H 0.68079 0.32381 0.93746 0.0
H120 H 0.67258 0.26416 0.01327 0.0
C121 C 0.69339 0.2714 0.04133 0.0
O122 O 0.70548 0.30262 0.02828 0.0
H123 H 0.68357 0.27227 0.08306 0.0
C124 C 0.64561 0.38689 0.01294 0.0
C125 C 0.65397 0.36769 0.96699 0.0
C126 C 0.65748 0.37825 0.06394 0.0
C127 C 0.67738 0.34937 0.06889 0.0
C128 C 0.68536 0.32964 0.02338 0.0
C129 C 0.6739 0.33889 0.9725 0.0
H130 H 0.60314 0.61669 0.01948 0.0
H131 H 0.68257 0.67349 0.94792 0.0
H132 H 0.67871 0.66387 0.11934 0.0
H133 H 0.69861 0.72869 0.09491 0.0
C134 C 0.70489 0.72555 0.0516 0.0
O135 O 0.71012 0.69189 0.03981 0.0
H136 H 0.68341 0.73498 0.02731 0.0
C137 C 0.6263 0.63093 0.0232 0.0
C138 C 0.63941 0.63828 0.07439 0.0
C139 C 0.64184 0.64302 0.97714 0.0
C140 C 0.67068 0.66314 0.98289 0.0
C141 C 0.68403 0.67043 0.03412 0.0
C142 C 0.66882 0.65736 0.07977 0.0
H143 H 0.38143 0.6079 0.01917 0.0
H144 H 0.33213 0.68479 0.11333 0.0
H145 H 0.32736 0.68694 0.94101 0.0
H146 H 0.33251 0.7524 0.9927 0.0
C147 C 0.31671 0.74861 0.02878 0.0
O148 O 0.3067 0.7155 0.03047 0.0
H149 H 0.33169 0.75503 0.06548 0.0
C150 C 0.36743 0.63125 0.0211 0.0
C151 C 0.35654 0.64621 0.9736 0.0
C152 C 0.35898 0.6451 0.07139 0.0
C153 C 0.33969 0.67449 0.07455 0.0
C154 C 0.32828 0.68943 0.02743 0.0
C155 C 0.33669 0.67535 0.97711 0.0
H156 H 0.90637 0.86743 0.4957 0.0
H157 H 0.83518 0.81445 0.59157 0.0
H158 H 0.8243 0.81393 0.41974 0.0
H159 H 0.76135 0.81794 0.47391 0.0
C160 C 0.76686 0.80388 0.51103 0.0
O161 O 0.79944 0.79212 0.5096 0.0
H162 H 0.76384 0.8211 0.54657 0.0
C163 C 0.88374 0.85244 0.4986 0.0
C164 C 0.86642 0.84256 0.45164 0.0
C165 C 0.87296 0.84231 0.54919 0.0
C166 C 0.8437 0.82285 0.55286 0.0
C167 C 0.82623 0.8127 0.50615 0.0
C168 C 0.83775 0.82226 0.45562 0.0
H169 H 0.1367 0.89874 0.50283 0.0
H170 H 0.1925 0.82075 0.57977 0.0
H171 H 0.18661 0.8223 0.40751 0.0
H172 H 0.18496 0.7519 0.45942 0.0
C173 C 0.20073 0.75886 0.49505 0.0
O174 O 0.2119 0.79142 0.49012 0.0
H175 H 0.18539 0.75674 0.53203 0.0
C176 C 0.15162 0.876 0.50001 0.0
C177 C 0.15981 0.8622 0.44941 0.0
C178 C 0.16315 0.86114 0.54712 0.0
C179 C 0.18294 0.83213 0.54362 0.0
C180 C 0.19125 0.81817 0.49328 0.0
C181 C 0.17974 0.83314 0.44626 0.0
H182 H 0.10435 0.11377 0.50711 0.0
H183 H 0.17211 0.17576 0.41872 0.0
H184 H 0.18479 0.16648 0.58874 0.0
H185 H 0.18742 0.23276 0.55589 0.0
C186 C 0.19774 0.2301 0.51457 0.0
O187 O 0.2055 0.19688 0.50349 0.0
H188 H 0.17834 0.23853 0.4854 0.0
C189 C 0.12677 0.12916 0.50566 0.0
C190 C 0.14388 0.13753 0.55358 0.0
C191 C 0.13667 0.14263 0.4566 0.0
C192 C 0.16427 0.1646 0.45588 0.0
C193 C 0.18136 0.17315 0.50354 0.0
C194 C 0.17163 0.15917 0.55203 0.0
H195 H 0.86597 0.09516 0.50124 0.0
H196 H 0.80504 0.16724 0.41887 0.0
H197 H 0.80762 0.16756 0.59128 0.0
H198 H 0.74092 0.17467 0.54093 0.0
C199 C 0.74775 0.19043 0.50628 0.0
O200 O 0.78195 0.19594 0.50672 0.0
H201 H 0.74044 0.17691 0.46833 0.0
C202 C 0.84935 0.11672 0.50219 0.0
C203 C 0.8389 0.13016 0.55188 0.0
C204 C 0.83722 0.12967 0.45385 0.0
C205 C 0.81462 0.15674 0.45569 0.0
C206 C 0.80404 0.17027 0.50522 0.0
C207 C 0.8161 0.157 0.55319 0.0
C208 C 0.12942 0.14757 0.05728 0.0
C209 C 0.12722 0.12715 0.01062 0.0
C210 C 0.15049 0.17588 0.05949 0.0
C211 C 0.17007 0.18376 0.01415 0.0
C212 C 0.16809 0.16315 0.96709 0.0
C213 C 0.1466 0.13524 0.96581 0.0
C214 C 0.15161 0.19748 0.11018 0.0
C215 C 0.18876 0.17051 0.91808 0.0
C216 C 0.20277 0.27245 -0.0033 0.0
C217 C 0.23625 0.26947 0.01357 0.0
C218 C 0.18079 0.24491 -0.00253 0.0
C219 C 0.1926 0.2136 0.01561 0.0
C220 C 0.22621 0.2106 0.03377 0.0
C221 C 0.2475 0.2387 0.03327 0.0
C222 C 0.14498 0.24926 0.97864 0.0
C223 C 0.23978 0.1776 0.05316 0.0
H224 H 0.11447 0.14162 0.09204 0.0
H225 H 0.14517 0.11961 0.92958 0.0
H226 H 0.17764 0.19872 0.12623 0.0
H227 H 0.14393 0.22351 0.10107 0.0
H228 H 0.13492 0.18785 0.14194 0.0
H229 H 0.18456 0.15181 0.88485 0.0
H230 H 0.18251 0.19581 0.90325 0.0
H231 H 0.21585 0.17064 0.9288 0.0
H232 H 0.1938 0.29646 0.98286 0.0
H233 H 0.27306 0.23648 0.04793 0.0
H234 H 0.12739 0.24184 0.01065 0.0
H235 H 0.14 0.23259 0.94313 0.0
H236 H 0.13942 0.27555 0.9676 0.0
H237 H 0.22461 0.16878 0.08729 0.0
H238 H 0.26644 0.17949 0.06628 0.0
H239 H 0.2378 0.1582 0.02052 0.0
C240 C 0.84785 0.15247 0.96925 0.0
C241 C 0.85782 0.13138 0.01081 0.0
C242 C 0.8202 0.17397 0.97522 0.0
C243 C 0.80179 0.17419 0.0237 0.0
C244 C 0.81113 0.15236 0.06531 0.0
C245 C 0.83913 0.13131 0.05846 0.0
C246 C 0.81119 0.19708 0.93008 0.0
C247 C 0.79187 0.15157 0.11734 0.0
C248 C 0.75345 0.25392 0.05757 0.0
C249 C 0.72127 0.24586 0.03808 0.0
C250 C 0.7798 0.23065 0.05378 0.0
C251 C 0.77356 0.19823 0.03129 0.0
C252 C 0.74075 0.18944 0.01384 0.0
C253 C 0.71497 0.21341 0.01741 0.0
C254 C 0.81447 0.24104 0.07262 0.0
C255 C 0.73302 0.15491 0.99059 0.0
H256 H 0.86208 0.15273 0.93228 0.0
H257 H 0.84651 0.11498 0.0907 0.0
H258 H 0.78474 0.19297 0.91738 0.0
H259 H 0.81343 0.22361 0.94429 0.0
H260 H 0.82758 0.19328 0.89449 0.0
H261 H 0.80144 0.13206 0.14468 0.0
H262 H 0.7936 0.17636 0.13846 0.0
H263 H 0.76489 0.14668 0.10896 0.0
H264 H 0.75815 0.27872 0.07492 0.0
H265 H 0.68989 0.20689 0.00358 0.0
H266 H 0.83211 0.23989 0.03828 0.0
H267 H 0.82392 0.22341 0.10305 0.0
H268 H 0.81493 0.26689 0.0904 0.0
H269 H 0.7471 0.15078 0.95268 0.0
H270 H 0.70583 0.1514 0.98198 0.0
H271 H 0.7413 0.13539 0.01883 0.0
C272 C 0.86363 0.84782 0.0558 0.0
C273 C 0.87064 0.86046 0.00489 0.0
C274 C 0.83894 0.8232 0.06238 0.0
C275 C 0.82082 0.81086 0.01695 0.0
C276 C 0.82893 0.82222 0.96513 0.0
C277 C 0.85376 0.8469 0.9597 0.0
C278 C 0.83115 0.81168 0.11834 0.0
C279 C 0.81032 0.80944 0.91569 0.0
C280 C 0.76735 0.73257 0.03235 0.0
C281 C 0.73538 0.74663 0.04025 0.0
C282 C 0.79542 0.75312 0.02384 0.0
C283 C 0.79144 0.78845 0.02424 0.0
C284 C 0.7593 0.80269 0.03268 0.0
C285 C 0.73172 0.78159 0.0406 0.0
C286 C 0.82933 0.73711 0.01492 0.0
C287 C 0.75407 0.84027 0.03395 0.0
H288 H 0.87679 0.85782 0.09093 0.0
H289 H 0.85913 0.85632 0.92017 0.0
H290 H 0.80621 0.82143 0.13068 0.0
H291 H 0.82994 0.78388 0.11917 0.0
H292 H 0.85012 0.82059 0.14835 0.0
H293 H 0.82183 0.81823 0.87799 0.0
H294 H 0.80974 0.78159 0.91452 0.0
H295 H 0.78392 0.81828 0.91711 0.0
H296 H 0.77057 0.70558 0.03295 0.0
H297 H 0.70712 0.79244 0.04756 0.0
H298 H 0.84694 0.74532 0.04737 0.0
H299 H 0.84003 0.74543 0.97639 0.0
H300 H 0.82803 0.70925 0.01408 0.0
H301 H 0.76949 0.85202 0.06659 0.0
H302 H 0.72739 0.84727 0.04049 0.0
H303 H 0.76245 0.85101 -0.00445 0.0
C304 C 0.15693 0.87012 0.06004 0.0
C305 C 0.14482 0.88045 0.00998 0.0
C306 C 0.18583 0.85019 0.06388 0.0
C307 C 0.203 0.84018 0.0165 0.0
C308 C 0.19139 0.85114 0.96595 0.0
C309 C 0.16253 0.87128 0.9633 0.0
C310 C 0.1975 0.83917 0.11857 0.0
C311 C 0.20906 0.84103 0.91454 0.0
C312 C 0.29206 0.80667 0.02889 0.0
C313 C 0.28675 0.77188 0.02597 0.0
C314 C 0.2651 0.82928 0.02574 0.0
C315 C 0.232 0.81675 0.01958 0.0
C316 C 0.22645 0.78166 0.01639 0.0
C317 C 0.25384 0.75965 0.01929 0.0
C318 C 0.27201 0.86655 0.02901 0.0
C319 C 0.19149 0.76733 0.00986 0.0
H320 H 0.14363 0.87732 0.0964 0.0
H321 H 0.1535 0.87927 0.92446 0.0
H322 H 0.19546 0.81146 0.12091 0.0
H323 H 0.22429 0.84583 0.12495 0.0
H324 H 0.18255 0.85078 0.15168 0.0
H325 H 0.19656 0.85127 0.87844 0.0
H326 H 0.23541 0.85002 0.91596 0.0
H327 H 0.20982 0.81325 0.91012 0.0
H328 H 0.31746 0.81614 0.03357 0.0
H329 H 0.24928 0.73286 0.01637 0.0
H330 H 0.25843 0.87809 0.06357 0.0
H331 H 0.26256 0.87864 0.99218 0.0
H332 H 0.2992 0.87221 0.03364 0.0
H333 H 0.17554 0.77597 0.04385 0.0
H334 H 0.19141 0.73943 0.0082 0.0
H335 H 0.17978 0.77654 0.97243 0.0
C336 C 0.64192 0.65021 0.56683 0.0
C337 C 0.62362 0.64093 0.52039 0.0
C338 C 0.66444 0.67732 0.56686 0.0
C339 C 0.6687 0.69572 0.5194 0.0
C340 C 0.64973 0.68703 0.4728 0.0
C341 C 0.62748 0.65972 0.47383 0.0
C342 C 0.68425 0.68577 0.61733 0.0
C343 C 0.65339 0.70619 0.42152 0.0
C344 C 0.70901 0.7822 0.53025 0.0
C345 C 0.74205 0.77528 0.51444 0.0
C346 C 0.68483 0.75659 0.53212 0.0
C347 C 0.69395 0.72322 0.51783 0.0
C348 C 0.72722 0.71609 0.50143 0.0
C349 C 0.75075 0.74224 0.49923 0.0
C350 C 0.64947 0.76527 0.54896 0.0
C351 C 0.73794 0.68079 0.48606 0.0
H352 H 0.63905 0.63596 0.60309 0.0
H353 H 0.61343 0.65285 0.43778 0.0
H354 H 0.71144 0.68224 0.6096 0.0
H355 H 0.6805 0.71252 0.62924 0.0
H356 H 0.677 0.66991 0.65151 0.0
H357 H 0.63581 0.69714 0.3895 0.0
H358 H 0.64876 0.73332 0.42942 0.0
H359 H 0.67941 0.70368 0.40636 0.0
H360 H 0.70209 0.80782 0.54091 0.0
H361 H 0.77597 0.73668 0.48566 0.0
H362 H 0.64246 0.75074 0.58467 0.0
H363 H 0.63158 0.7582 0.51625 0.0
H364 H 0.64644 0.79245 0.55879 0.0
H365 H 0.73324 0.66376 0.51985 0.0
H366 H 0.76495 0.67931 0.47541 0.0
H367 H 0.72287 0.67135 0.45123 0.0
C368 C 0.35826 0.6362 0.46361 0.0
C369 C 0.3681 0.6219 0.51218 0.0
C370 C 0.33084 0.65817 0.46142 0.0
C371 C 0.31234 0.66536 0.5087 0.0
C372 C 0.3218 0.65056 0.5577 0.0
C373 C 0.34983 0.62926 0.55898 0.0
C374 C 0.32186 0.67388 0.40859 0.0
C375 C 0.30235 0.65722 0.60875 0.0
C376 C 0.26211 0.74618 0.51445 0.0
C377 C 0.22997 0.73493 0.49895 0.0
C378 C 0.28911 0.72376 0.51777 0.0
C379 C 0.28366 0.68913 0.507 0.0
C380 C 0.25108 0.67745 0.49331 0.0
C381 C 0.22462 0.70054 0.48935 0.0
C382 C 0.32361 0.73721 0.53186 0.0
C383 C 0.24422 0.6406 0.48264 0.0
H384 H 0.37242 0.63072 0.42737 0.0
H385 H 0.35719 0.61804 0.59654 0.0
H386 H 0.29708 0.6644 0.39446 0.0
H387 H 0.31978 0.70155 0.41377 0.0
H388 H 0.34069 0.66824 0.37691 0.0
H389 H 0.31233 0.64284 0.64307 0.0
H390 H 0.30327 0.68437 0.6197 0.0
H391 H 0.27557 0.65047 0.6024 0.0
H392 H 0.26638 0.77259 0.52343 0.0
H393 H 0.19964 0.69177 0.47862 0.0
H394 H 0.34128 0.73113 0.49871 0.0
H395 H 0.33336 0.72502 0.56839 0.0
H396 H 0.32362 0.76484 0.5391 0.0
H397 H 0.25873 0.6316 0.44724 0.0
H398 H 0.21718 0.63543 0.47497 0.0
H399 H 0.25259 0.62579 0.51746 0.0
C400 C 0.34541 0.36245 0.56212 0.0
C401 C 0.36323 0.36896 0.51509 0.0
C402 C 0.32024 0.33786 0.56242 0.0
C403 C 0.31302 0.31911 0.51467 0.0
C404 C 0.33199 0.32447 0.46776 0.0
C405 C 0.35679 0.34946 0.46846 0.0
C406 C 0.30038 0.33303 0.61317 0.0
C407 C 0.32538 0.30458 0.41635 0.0
C408 C 0.26009 0.24041 0.52705 0.0
C409 C 0.22836 0.25206 0.51134 0.0
C410 C 0.28814 0.26175 0.52718 0.0
C411 C 0.28406 0.29567 0.51278 0.0
C412 C 0.25199 0.30762 0.49761 0.0
C413 C 0.22453 0.28564 0.49716 0.0
C414 C 0.32202 0.24815 0.5433 0.0
C415 C 0.24656 0.34378 0.48276 0.0
H416 H 0.35028 0.37737 0.59832 0.0
H417 H 0.37082 0.35402 0.43219 0.0
H418 H 0.27397 0.34083 0.60649 0.0
H419 H 0.30002 0.30615 0.62374 0.0
H420 H 0.31074 0.34788 0.64784 0.0
H421 H 0.34409 0.30996 0.38477 0.0
H422 H 0.32578 0.27727 0.42419 0.0
H423 H 0.30002 0.31066 0.40068 0.0
H424 H 0.26296 0.21468 0.5395 0.0
H425 H 0.19983 0.29483 0.48635 0.0
H426 H 0.33113 0.26147 0.58024 0.0
H427 H 0.34061 0.25271 0.51126 0.0
H428 H 0.32122 0.2208 0.55095 0.0
H429 H 0.25371 0.36065 0.51708 0.0
H430 H 0.22005 0.34897 0.47157 0.0
H431 H 0.26283 0.35018 0.44847 0.0
C432 C 0.63748 0.35709 0.55984 0.0
C433 C 0.62364 0.36782 0.51117 0.0
C434 C 0.65995 0.32998 0.56095 0.0
C435 C 0.66856 0.31307 0.51227 0.0
C436 C 0.65562 0.32452 0.46288 0.0
C437 C 0.63344 0.35183 0.46291 0.0
C438 C 0.67359 0.31877 0.61435 0.0
C439 C 0.66413 0.30709 0.41012 0.0
C440 C 0.74372 0.25442 0.50538 0.0
C441 C 0.72827 0.2229 0.50999 0.0
C442 C 0.72468 0.2841 0.50728 0.0
C443 C 0.68942 0.28215 0.51307 0.0
C444 C 0.67376 0.25046 0.51775 0.0
C445 C 0.6934 0.22126 0.51617 0.0
C446 C 0.74223 0.31749 0.50239 0.0
C447 C 0.63617 0.24733 0.5235 0.0
H448 H 0.6303 0.36948 0.5973 0.0
H449 H 0.62295 0.35994 0.42507 0.0
H450 H 0.66367 0.29346 0.62311 0.0
H451 H 0.70135 0.31677 0.61286 0.0
H452 H 0.66665 0.33625 0.64795 0.0
H453 H 0.65362 0.32035 0.37503 0.0
H454 H 0.69174 0.30522 0.40547 0.0
H455 H 0.65405 0.28111 0.40961 0.0
H456 H 0.77063 0.25605 0.50001 0.0
H457 H 0.68147 0.19691 0.51923 0.0
H458 H 0.73578 0.33428 0.53702 0.0
H459 H 0.73353 0.33001 0.46547 0.0
H460 H 0.76996 0.31481 0.50068 0.0
H461 H 0.62761 0.26209 0.5592 0.0
H462 H 0.62801 0.22085 0.52769 0.0
H463 H 0.62345 0.25779 0.48781 0.0
C464 C 0.00162 0.10667 0.22234 0.0
C465 C 0.01794 0.0952 0.17555 0.0
C466 C 0.02008 0.11686 0.26818 0.0
C467 C 0.05556 0.11501 0.26727 0.0
C468 C 0.07209 0.10445 0.21978 0.0
C469 C 0.05302 0.09509 0.17455 0.0
C470 C 0.00158 0.1286 0.31793 0.0
C471 C 0.10992 0.10214 0.21706 0.0
C472 C 0.10852 0.16136 0.37214 0.0
C473 C 0.11654 0.13549 0.40729 0.0
C474 C 0.08825 0.1552 0.3267 0.0
C475 C 0.07559 0.12247 0.31648 0.0
C476 C 0.08341 0.0963 0.3519 0.0
C477 C 0.10396 0.10309 0.39672 0.0
C478 C 0.08028 0.18368 0.28974 0.0
C479 C 0.07002 0.06115 0.34245 0.0
H480 H 0.97442 0.10716 0.22356 0.0
H481 H 0.06581 0.08741 0.13865 0.0
H482 H 0.01371 0.15121 0.33631 0.0
H483 H 0.9749 0.13458 0.30913 0.0
H484 H 0.00238 0.10857 0.34812 0.0
H485 H 0.12137 0.12678 0.22798 0.0
H486 H 0.11915 0.08374 0.2465 0.0
H487 H 0.11885 0.09425 0.17646 0.0
H488 H 0.11757 0.1866 0.38068 0.0
H489 H 0.11029 0.08294 0.42349 0.0
H490 H 0.05268 0.18674 0.28599 0.0
H491 H 0.09001 0.17783 0.24889 0.0
H492 H 0.09132 0.20789 0.30422 0.0
H493 H 0.04219 0.06148 0.34362 0.0
H494 H 0.07929 0.04341 0.37294 0.0
H495 H 0.07732 0.05158 0.30197 0.0
C496 C 0.89754 0.0578 0.16775 0.0
C497 C 0.8996 0.02275 0.16765 0.0
C498 C 0.88604 0.07614 0.21262 0.0
C499 C 0.87552 0.05885 0.25846 0.0
C500 C 0.8761 0.02331 0.25818 0.0
C501 C 0.88839 0.00569 0.21294 0.0
C502 C 0.88608 0.11405 0.21144 0.0
C503 C 0.86465 0.00388 0.30611 0.0
C504 C 0.88075 0.1042 0.39367 0.0
C505 C 0.84726 0.11367 0.40204 0.0
C506 C 0.89026 0.08643 0.34698 0.0
C507 C 0.86567 0.07806 0.30763 0.0
C508 C 0.83193 0.08811 0.31524 0.0
C509 C 0.8231 0.10588 0.36244 0.0
C510 C 0.92649 0.07609 0.34023 0.0
C511 C 0.80505 0.07934 0.27418 0.0
H512 H 0.90516 0.07114 0.13311 0.0
H513 H 0.8896 0.9785 0.21347 0.0
H514 H 0.86059 0.12392 0.22009 0.0
H515 H 0.9032 0.12429 0.24316 0.0
H516 H 0.89427 0.1236 0.17203 0.0
H517 H 0.86127 0.97675 0.29616 0.0
H518 H 0.88362 0.00643 0.33879 0.0
H519 H 0.84061 0.01403 0.32182 0.0
H520 H 0.89955 0.11049 0.42398 0.0
H521 H 0.79711 0.11274 0.36911 0.0
H522 H 0.93602 0.08414 0.30077 0.0
H523 H 0.92846 0.04833 0.3408 0.0
H524 H 0.94291 0.08683 0.37254 0.0
H525 H 0.81185 0.08936 0.23449 0.0
H526 H 0.78008 0.08945 0.2858 0.0
H527 H 0.8031 0.05165 0.26921 0.0
C528 C 0.98895 0.8851 0.215 0.0
C529 C 0.9733 0.89852 0.16962 0.0
C530 C 0.97 0.87449 0.25882 0.0
C531 C 0.93458 0.87748 0.25722 0.0
C532 C 0.91863 0.89028 0.2112 0.0
C533 C 0.93822 0.90047 0.16806 0.0
C534 C 0.98796 0.86108 0.30743 0.0
C535 C 0.88094 0.89422 0.20816 0.0
C536 C 0.88463 0.82806 0.35786 0.0
C537 C 0.87991 0.85227 0.39892 0.0
C538 C 0.90177 0.83608 0.31075 0.0
C539 C 0.91436 0.86903 0.30485 0.0
C540 C 0.9083 0.89392 0.34513 0.0
C541 C 0.89111 0.88522 0.39168 0.0
C542 C 0.90755 0.80904 0.26826 0.0
C543 C 0.92108 0.92942 0.34009 0.0
H544 H 0.0161 0.88349 0.21688 0.0
H545 H 0.92588 0.91036 0.13355 0.0
H546 H 0.98513 0.87907 0.34184 0.0
H547 H 0.97668 0.83691 0.31929 0.0
H548 H 0.01518 0.85715 0.30013 0.0
H549 H 0.87238 0.90348 0.16861 0.0
H550 H 0.86848 0.86986 0.21546 0.0
H551 H 0.87245 0.91221 0.23998 0.0
H552 H 0.87624 0.80251 0.36358 0.0
H553 H 0.88711 0.90407 0.42316 0.0
H554 H 0.93483 0.80385 0.26491 0.0
H555 H 0.89878 0.81762 0.22847 0.0
H556 H 0.89442 0.78527 0.27747 0.0
H557 H 0.94888 0.92953 0.3431 0.0
H558 H 0.911 0.94658 0.37194 0.0
H559 H 0.91429 0.93949 0.3003 0.0
C560 C 0.10408 0.98946 0.22348 0.0
C561 C 0.09174 0.97265 0.17718 0.0
C562 C 0.11677 0.97152 0.26707 0.0
C563 C 0.11662 0.93597 0.26455 0.0
C564 C 0.10482 0.91894 0.21776 0.0
C565 C 0.09299 0.93754 0.17466 0.0
C566 C 0.12973 0.99058 0.31611 0.0
C567 C 0.10405 0.88102 0.21349 0.0
C568 C 0.17145 0.8871 0.36025 0.0
C569 C 0.14845 0.87924 0.4004 0.0
C570 C 0.1615 0.90576 0.31579 0.0
C571 C 0.12771 0.91642 0.31138 0.0
C572 C 0.10421 0.90783 0.35119 0.0
C573 C 0.11494 0.88948 0.39544 0.0
C574 C 0.18719 0.91454 0.27402 0.0
C575 C 0.06781 0.91821 0.34724 0.0
H576 H 0.10364 0.01666 0.22589 0.0
H577 H 0.08463 0.92431 0.13923 0.0
H578 H 0.15448 0.98059 0.32875 0.0
H579 H 0.13241 0.01787 0.30891 0.0
H580 H 0.11214 0.98726 0.34995 0.0
H581 H 0.09445 0.87169 0.17385 0.0
H582 H 0.1296 0.87072 0.21975 0.0
H583 H 0.08778 0.87097 0.24537 0.0
H584 H 0.19745 0.8795 0.36445 0.0
H585 H 0.09711 0.88315 0.42635 0.0
H586 H 0.18898 0.94223 0.2709 0.0
H587 H 0.17929 0.9044 0.234 0.0
H588 H 0.21249 0.9045 0.2836 0.0
H589 H 0.06594 0.946 0.34898 0.0
H590 H 0.0524 0.90793 0.38006 0.0
H591 H 0.05696 0.90956 0.30812 0.0
C592 C 0.08893 0.96603 0.7923 0.0
C593 C 0.1103 0.9672 0.83731 0.0
C594 C 0.09657 0.94583 0.74724 0.0
C595 C 0.12668 0.92699 0.74683 0.0
C596 C 0.14793 0.9274 0.79265 0.0
C597 C 0.13929 0.9473 0.83766 0.0
C598 C 0.07287 0.94537 0.69957 0.0
C599 C 0.18043 0.90789 0.79334 0.0
C600 C 0.13822 0.85924 0.63872 0.0
C601 C 0.15542 0.87703 0.59964 0.0
C602 C 0.12869 0.87511 0.68723 0.0
C603 C 0.13729 0.90924 0.69681 0.0
C604 C 0.15547 0.92697 0.65787 0.0
C605 C 0.16407 0.91068 0.60948 0.0
C606 C 0.10865 0.85576 0.72744 0.0
C607 C 0.16538 0.96331 0.66696 0.0
H608 H 0.06624 0.98105 0.79213 0.0
H609 H 0.15577 0.94798 0.8725 0.0
H610 H 0.08549 0.95613 0.6643 0.0
H611 H 0.06582 0.91913 0.68855 0.0
H612 H 0.04958 0.95993 0.70764 0.0
H613 H 0.19351 0.91 0.83284 0.0
H614 H 0.17561 0.88097 0.78383 0.0
H615 H 0.19743 0.91732 0.76192 0.0
H616 H 0.13136 0.83325 0.63058 0.0
H617 H 0.17755 0.92424 0.5791 0.0
H618 H 0.08362 0.86757 0.7328 0.0
H619 H 0.12137 0.8566 0.76723 0.0
H620 H 0.10502 0.82908 0.71467 0.0
H621 H 0.14257 0.97916 0.67056 0.0
H622 H 0.18095 0.97289 0.63375 0.0
H623 H 0.17969 0.9663 0.70518 0.0
C624 C 0.0615 0.0881 0.83479 0.0
C625 C 0.02701 0.09426 0.82965 0.0
C626 C 0.08331 0.09236 0.79166 0.0
C627 C 0.0703 0.10363 0.74235 0.0
C628 C 0.03543 0.10975 0.73661 0.0
C629 C 0.01411 0.10467 0.78028 0.0
C630 C 0.1203 0.0854 0.79925 0.0
C631 C 0.02066 0.12188 0.68451 0.0
C632 C 0.12492 0.15117 0.64673 0.0
C633 C 0.1298 0.12714 0.60548 0.0
C634 C 0.10677 0.14335 0.69273 0.0
C635 C 0.09324 0.11071 0.69746 0.0
C636 C 0.09972 0.08575 0.65746 0.0
C637 C 0.11789 0.09432 0.61171 0.0
C638 C 0.10036 0.1706 0.73471 0.0
C639 C 0.08622 0.05048 0.66184 0.0
H640 H 0.07159 0.07999 0.87264 0.0
H641 H 0.98743 0.10934 0.77594 0.0
H642 H 0.1294 0.06797 0.7671 0.0
H643 H 0.13471 0.10911 0.79621 0.0
H644 H 0.12589 0.07431 0.83887 0.0
H645 H 0.99398 0.12948 0.68882 0.0
H646 H 0.03503 0.14365 0.66981 0.0
H647 H 0.02224 0.10155 0.65336 0.0
H648 H 0.1337 0.17667 0.64175 0.0
H649 H 0.12199 0.07563 0.58003 0.0
H650 H 0.10716 0.16174 0.77527 0.0
H651 H 0.07321 0.17684 0.73521 0.0
H652 H 0.11474 0.19387 0.72697 0.0
H653 H 0.09233 0.04025 0.70182 0.0
H654 H 0.09645 0.03321 0.63027 0.0
H655 H 0.05846 0.05086 0.65793 0.0
C656 C 0.8968 0.00394 0.77462 0.0
C657 C 0.90388 0.01929 0.8247 0.0
C658 C 0.8866 0.02307 0.73088 0.0
C659 C 0.884 0.05841 0.73727 0.0
C660 C 0.89177 0.07409 0.7874 0.0
C661 C 0.90126 0.05428 0.83066 0.0
C662 C 0.87824 0.00543 0.67806 0.0
C663 C 0.88999 0.11176 0.79541 0.0
C664 C 0.88498 0.10822 0.60955 0.0
C665 C 0.85072 0.11468 0.60192 0.0
C666 C 0.8963 0.09063 0.65425 0.0
C667 C 0.87268 0.0789 0.69164 0.0
C668 C 0.83811 0.08599 0.68472 0.0
C669 C 0.82755 0.10405 0.64 0.0
C670 C 0.9334 0.08397 0.66084 0.0
C671 C 0.81219 0.07353 0.72354 0.0
H672 H 0.8988 0.97691 0.76973 0.0
H673 H 0.90652 0.06628 0.86925 0.0
H674 H 0.85214 0.01146 0.66581 0.0
H675 H 0.89508 0.01442 0.64613 0.0
H676 H 0.88076 0.97771 0.68022 0.0
H677 H 0.89765 0.12004 0.83666 0.0
H678 H 0.90652 0.12415 0.76613 0.0
H679 H 0.86402 0.12062 0.78787 0.0
H680 H 0.90288 0.11665 0.58012 0.0
H681 H 0.80102 0.10873 0.63367 0.0
H682 H 0.93831 0.05662 0.6568 0.0
H683 H 0.94195 0.09215 0.70161 0.0
H684 H 0.94864 0.09705 0.63053 0.0
H685 H 0.81263 0.04568 0.7238 0.0
H686 H 0.7864 0.08183 0.71302 0.0
H687 H 0.8182 0.08267 0.76496 0.0
C688 C 0.99393 0.91652 0.78017 0.0
C689 C 0.00056 0.89237 0.81892 0.0
C690 C 0.97174 0.90961 0.73732 0.0
C691 C 0.9562 0.87767 0.73294 0.0
C692 C 0.96277 0.85325 0.77197 0.0
C693 C 0.98483 0.86092 0.81456 0.0
C694 C 0.96514 0.93635 0.69657 0.0
C695 C 0.9468 0.81885 0.76843 0.0
C696 C 0.87927 0.86474 0.64374 0.0
C697 C 0.89371 0.85073 0.59719 0.0
C698 C 0.89936 0.87415 0.68822 0.0
C699 C 0.93452 0.86899 0.68596 0.0
C700 C 0.94911 0.85456 0.6392 0.0
C701 C 0.92851 0.84558 0.59543 0.0
C702 C 0.88306 0.88964 0.73748 0.0
C703 C 0.98648 0.84844 0.63546 0.0
H704 H 0.0058 0.94098 0.78358 0.0
H705 H 0.98978 0.84217 0.84445 0.0
H706 H 0.97458 0.92783 0.65667 0.0
H707 H 0.93775 0.94066 0.69228 0.0
H708 H 0.97743 0.96059 0.70778 0.0
H709 H 0.95381 0.80306 0.80294 0.0
H710 H 0.91906 0.8212 0.76707 0.0
H711 H 0.95459 0.80568 0.73074 0.0
H712 H 0.85239 0.86893 0.64493 0.0
H713 H 0.93965 0.83431 0.55968 0.0
H714 H 0.89479 0.91427 0.74755 0.0
H715 H 0.88713 0.87332 0.77243 0.0
H716 H 0.85563 0.89336 0.73189 0.0
H717 H 0.00033 0.87236 0.64217 0.0
H718 H 0.99386 0.83743 0.59583 0.0
H719 H 0.99457 0.83113 0.66732 0.0
C720 C 0.51475 0.60885 0.73567 0.0
C721 C 0.53061 0.59669 0.68888 0.0
C722 C 0.53361 0.61928 0.78093 0.0
C723 C 0.56907 0.61707 0.77947 0.0
C724 C 0.58518 0.60604 0.73189 0.0
C725 C 0.5657 0.59631 0.68727 0.0
C726 C 0.51552 0.63133 0.83089 0.0
C727 C 0.62296 0.60327 0.72866 0.0
C728 C 0.62044 0.66204 0.88815 0.0
C729 C 0.62621 0.63601 0.92396 0.0
C730 C 0.60205 0.65625 0.84053 0.0
C731 C 0.58927 0.62371 0.82877 0.0
C732 C 0.59589 0.59716 0.86405 0.0
C733 C 0.61437 0.60363 0.91115 0.0
C734 C 0.59546 0.68508 0.80361 0.0
C735 C 0.5828 0.56207 0.85267 0.0
H736 H 0.48758 0.60955 0.73748 0.0
H737 H 0.57821 0.58791 0.65156 0.0
H738 H 0.51629 0.61136 0.86119 0.0
H739 H 0.52796 0.65387 0.84893 0.0
H740 H 0.48884 0.63754 0.82245 0.0
H741 H 0.63159 0.59573 0.68775 0.0
H742 H 0.63481 0.62761 0.74024 0.0
H743 H 0.63205 0.58437 0.75738 0.0
H744 H 0.62922 0.68718 0.89832 0.0
H745 H 0.61913 0.58341 0.93859 0.0
H746 H 0.56805 0.68975 0.80081 0.0
H747 H 0.60432 0.67866 0.76246 0.0
H748 H 0.60804 0.70861 0.81773 0.0
H749 H 0.55495 0.56228 0.85279 0.0
H750 H 0.59168 0.5439 0.8828 0.0
H751 H 0.59076 0.55309 0.81218 0.0
C752 C 0.40607 0.56531 0.68714 0.0
C753 C 0.40312 0.53033 0.68851 0.0
C754 C 0.39704 0.5858 0.73117 0.0
C755 C 0.38419 0.5709 0.7777 0.0
C756 C 0.37972 0.53566 0.77879 0.0
C757 C 0.38941 0.51575 0.73425 0.0
C758 C 0.40231 0.62329 0.72846 0.0
C759 C 0.36582 0.51881 0.8276 0.0
C760 C 0.39631 0.61629 0.91179 0.0
C761 C 0.36427 0.62974 0.92107 0.0
C762 C 0.40317 0.59738 0.86499 0.0
C763 C 0.37742 0.59199 0.82634 0.0
C764 C 0.34532 0.60639 0.83453 0.0
C765 C 0.33909 0.6251 0.88193 0.0
C766 C 0.4377 0.58233 0.8577 0.0
C767 C 0.31731 0.60109 0.79404 0.0
H768 H 0.41574 0.57687 0.65197 0.0
H769 H 0.38684 0.48869 0.73577 0.0
H770 H 0.37875 0.6368 0.73854 0.0
H771 H 0.42155 0.63134 0.75856 0.0
H772 H 0.4107 0.63106 0.68811 0.0
H773 H 0.35847 0.49234 0.81867 0.0
H774 H 0.38515 0.51902 0.8599 0.0
H775 H 0.3436 0.53256 0.84332 0.0
H776 H 0.41595 0.62015 0.94167 0.0
H777 H 0.31417 0.63506 0.88922 0.0
H778 H 0.44783 0.58845 0.81769 0.0
H779 H 0.43604 0.55457 0.85937 0.0
H780 H 0.45568 0.59131 0.88917 0.0
H781 H 0.32539 0.60927 0.75382 0.0
H782 H 0.29418 0.61505 0.80544 0.0
H783 H 0.31118 0.57395 0.79033 0.0
C784 C 0.43363 0.40754 0.68243 0.0
C785 C 0.46873 0.40829 0.68456 0.0
C786 C 0.41453 0.39758 0.72623 0.0
C787 C 0.43101 0.38702 0.7733 0.0
C788 C 0.46655 0.38655 0.77555 0.0
C789 C 0.485 0.39748 0.7313 0.0
C790 C 0.37667 0.39863 0.72218 0.0
C791 C 0.48514 0.37529 0.82498 0.0
C792 C 0.38298 0.39228 0.90424 0.0
C793 C 0.37312 0.35879 0.91052 0.0
C794 C 0.40181 0.4018 0.85972 0.0
C795 C 0.41089 0.37724 0.82044 0.0
C796 C 0.40031 0.34356 0.82578 0.0
C797 C 0.38151 0.33472 0.87081 0.0
C798 C 0.41251 0.438 0.8552 0.0
C799 C 0.40964 0.31673 0.78466 0.0
H800 H 0.42084 0.41477 0.64664 0.0
H801 H 0.51219 0.39776 0.73359 0.0
H802 H 0.36636 0.37285 0.72474 0.0
H803 H 0.36617 0.41371 0.75618 0.0
H804 H 0.36783 0.40963 0.684 0.0
H805 H 0.512 0.37001 0.81654 0.0
H806 H 0.48378 0.39533 0.85664 0.0
H807 H 0.47358 0.35236 0.84128 0.0
H808 H 0.37628 0.41104 0.9346 0.0
H809 H 0.37441 0.30873 0.87588 0.0
H810 H 0.40519 0.44769 0.81538 0.0
H811 H 0.44025 0.43977 0.85836 0.0
H812 H 0.40133 0.45443 0.88705 0.0
H813 H 0.40039 0.3237 0.7443 0.0
H814 H 0.39915 0.29177 0.79442 0.0
H815 H 0.43737 0.31461 0.78227 0.0
C816 C 0.61268 0.48829 0.73071 0.0
C817 C 0.59785 0.47325 0.68484 0.0
C818 C 0.62307 0.46888 0.77409 0.0
C819 C 0.61835 0.43363 0.77158 0.0
C820 C 0.6042 0.41825 0.72501 0.0
C821 C 0.59435 0.43827 0.68224 0.0
C822 C 0.6382 0.4862 0.82317 0.0
C823 C 0.5986 0.38075 0.72087 0.0
C824 C 0.66719 0.38272 0.87249 0.0
C825 C 0.64354 0.37966 0.91354 0.0
C826 C 0.65904 0.39933 0.82505 0.0
C827 C 0.62654 0.41313 0.81884 0.0
C828 C 0.60206 0.40853 0.85895 0.0
C829 C 0.61085 0.39176 0.90578 0.0
C830 C 0.68564 0.40355 0.7828 0.0
C831 C 0.56706 0.42274 0.85365 0.0
H832 H 0.61565 0.51534 0.73321 0.0
H833 H 0.58363 0.42635 0.6471 0.0
H834 H 0.62078 0.48412 0.85754 0.0
H835 H 0.66206 0.47385 0.83466 0.0
H836 H 0.64326 0.51323 0.81664 0.0
H837 H 0.62258 0.36728 0.72753 0.0
H838 H 0.58096 0.37297 0.75259 0.0
H839 H 0.58813 0.37264 0.68114 0.0
H840 H 0.69255 0.37365 0.87859 0.0
H841 H 0.59241 0.38904 0.93725 0.0
H842 H 0.69218 0.43053 0.77994 0.0
H843 H 0.676 0.39506 0.74281 0.0
H844 H 0.70886 0.3893 0.79197 0.0
H845 H 0.56816 0.45053 0.85746 0.0
H846 H 0.5499 0.41336 0.88496 0.0
H847 H 0.55625 0.41637 0.81351 0.0
C848 C 0.63788 0.49681 0.32501 0.0
C849 C 0.60445 0.50674 0.33243 0.0
C850 C 0.64691 0.4756 0.28183 0.0
C851 C 0.6219 0.46415 0.24521 0.0
C852 C 0.5881 0.47421 0.25226 0.0
C853 C 0.57976 0.49544 0.29586 0.0
C854 C 0.6832 0.46531 0.27554 0.0
C855 C 0.56083 0.46273 0.21361 0.0
C856 C 0.65043 0.43516 0.10705 0.0
C857 C 0.64948 0.40007 0.11128 0.0
C858 C 0.64118 0.45629 0.1502 0.0
C859 C 0.63129 0.442 0.19907 0.0
C860 C 0.63082 0.40667 0.20408 0.0
C861 C 0.63986 0.38607 0.15998 0.0
C862 C 0.64182 0.4939 0.14341 0.0
C863 C 0.62041 0.39067 0.25581 0.0
H864 H 0.65707 0.50548 0.35313 0.0
H865 H 0.55384 0.50294 0.3015 0.0
H866 H 0.68533 0.43754 0.27585 0.0
H867 H 0.6928 0.4736 0.23626 0.0
H868 H 0.6995 0.47612 0.30796 0.0
H869 H 0.53538 0.46978 0.22797 0.0
H870 H 0.56488 0.47418 0.17398 0.0
H871 H 0.5618 0.43509 0.20735 0.0
H872 H 0.65847 0.44616 0.06984 0.0
H873 H 0.63875 0.35901 0.16327 0.0
H874 H 0.65898 0.5058 0.17355 0.0
H875 H 0.61643 0.5045 0.15053 0.0
H876 H 0.6501 0.50097 0.10266 0.0
H877 H 0.63663 0.39991 0.28944 0.0
H878 H 0.62198 0.36282 0.25344 0.0
H879 H 0.59423 0.39792 0.26569 0.0
C880 C 0.53988 0.61577 0.34609 0.0
C881 C 0.51609 0.58989 0.34205 0.0
C882 C 0.56178 0.622 0.30374 0.0
C883 C 0.56003 0.60164 0.25646 0.0
C884 C 0.53665 0.57492 0.25258 0.0
C885 C 0.51472 0.5695 0.29535 0.0
C886 C 0.58647 0.6507 0.30931 0.0
C887 C 0.53443 0.55247 0.20293 0.0
C888 C 0.58731 0.6416 0.12777 0.0
C889 C 0.61991 0.62905 0.12181 0.0
C890 C 0.56755 0.63267 0.17138 0.0
C891 C 0.58068 0.6103 0.2095 0.0
C892 C 0.61363 0.59737 0.20349 0.0
C893 C 0.63304 0.60713 0.15963 0.0
C894 C 0.53276 0.64744 0.17695 0.0
C895 C 0.62799 0.57255 0.24229 0.0
H896 H 0.54135 0.63138 0.38232 0.0
H897 H 0.49658 0.54924 0.29221 0.0
H898 H 0.61249 0.64089 0.30673 0.0
H899 H 0.58294 0.66836 0.27591 0.0
H900 H 0.58371 0.66491 0.34798 0.0
H901 H 0.51721 0.5309 0.20839 0.0
H902 H 0.52522 0.56714 0.1685 0.0
H903 H 0.55965 0.54268 0.19224 0.0
H904 H 0.57739 0.65866 0.09827 0.0
H905 H 0.65815 0.59715 0.15423 0.0
H906 H 0.53087 0.66188 0.21552 0.0
H907 H 0.51376 0.62709 0.1778 0.0
H908 H 0.52634 0.66438 0.14359 0.0
H909 H 0.6233 0.58068 0.28453 0.0
H910 H 0.65541 0.56887 0.23678 0.0
H911 H 0.61539 0.54799 0.23552 0.0
C912 C 0.37877 0.55048 0.34669 0.0
C913 C 0.40082 0.52315 0.34225 0.0
C914 C 0.37397 0.5721 0.3038 0.0
C915 C 0.392 0.56649 0.25561 0.0
C916 C 0.41518 0.53962 0.2515 0.0
C917 C 0.41917 0.51809 0.29484 0.0
C918 C 0.34882 0.60032 0.30948 0.0
C919 C 0.43519 0.53316 0.20096 0.0
C920 C 0.35045 0.5958 0.12805 0.0
C921 C 0.36701 0.62617 0.1198 0.0
C922 C 0.35857 0.57607 0.17201 0.0
C923 C 0.38421 0.5869 0.20808 0.0
C924 C 0.40132 0.61749 0.19957 0.0
C925 C 0.39227 0.63703 0.15548 0.0
C926 C 0.33961 0.54372 0.17996 0.0
C927 C 0.42927 0.62933 0.23668 0.0
H928 H 0.36469 0.55466 0.38337 0.0
H929 H 0.43656 0.49722 0.29146 0.0
H930 H 0.36131 0.62474 0.30281 0.0
H931 H 0.32881 0.59729 0.2785 0.0
H932 H 0.33686 0.60124 0.3497 0.0
H933 H 0.45332 0.51219 0.20529 0.0
H934 H 0.41797 0.52693 0.16694 0.0
H935 H 0.44922 0.55611 0.19034 0.0
H936 H 0.33107 0.58753 0.09989 0.0
H937 H 0.40528 0.66039 0.14824 0.0
H938 H 0.32675 0.54463 0.2194 0.0
H939 H 0.35733 0.52224 0.18038 0.0
H940 H 0.32053 0.53885 0.14794 0.0
H941 H 0.41962 0.6329 0.27814 0.0
H942 H 0.44056 0.65331 0.22375 0.0
H943 H 0.44931 0.61002 0.23823 0.0
C944 C 0.48518 0.40961 0.28463 0.0
C945 C 0.47215 0.40829 0.33672 0.0
C946 C 0.46522 0.40089 0.23974 0.0
C947 C 0.43122 0.39174 0.24724 0.0
C948 C 0.41767 0.39158 0.29957 0.0
C949 C 0.43855 0.39907 0.34366 0.0
C950 C 0.48067 0.40077 0.18448 0.0
C951 C 0.38136 0.38278 0.30939 0.0
C952 C 0.37455 0.39347 0.12436 0.0
C953 C 0.37303 0.3593 0.10983 0.0
C954 C 0.39267 0.40441 0.17003 0.0
C955 C 0.41035 0.3806 0.20061 0.0
C956 C 0.40849 0.346 0.18632 0.0
C957 C 0.38948 0.33572 0.14131 0.0
C958 C 0.39312 0.44136 0.18532 0.0
C959 C 0.4275 0.31998 0.21749 0.0
H960 H 0.51121 0.41655 0.279 0.0
H961 H 0.42843 0.39774 0.38368 0.0
H962 H 0.47648 0.37611 0.16379 0.0
H963 H 0.46847 0.42015 0.15977 0.0
H964 H 0.50807 0.40583 0.18596 0.0
H965 H 0.37309 0.39118 0.35009 0.0
H966 H 0.36465 0.39432 0.27914 0.0
H967 H 0.37811 0.35515 0.30594 0.0
H968 H 0.36173 0.41159 0.09969 0.0
H969 H 0.38855 0.30937 0.12937 0.0
H970 H 0.41903 0.45133 0.18252 0.0
H971 H 0.38505 0.44507 0.22768 0.0
H972 H 0.37647 0.45632 0.15911 0.0
H973 H 0.45474 0.32591 0.2175 0.0
H974 H 0.42386 0.29419 0.20047 0.0
H975 H 0.41922 0.32044 0.25996 0.0
loop_
_geom_bond_atom_site_label_1
_geom_bond_atom_site_label_2
_geom_bond_distance
_geom_bond_site_symmetry_2
_ccdc_geom_bond_type
Zn0 O2 1.933 1_556 S
Zn0 O20 1.985 . S
Zn0 O31 1.955 . S
Zn1 O2 1.911 . S
Zn1 O21 1.970 . S
Zn1 O37 1.945 . S
Zn1 O44 1.981 . S
O2 Zn0 1.933 1_554 S
O2 Zn1 1.911 . S
O2 H3 0.841 1_655 S
H3 O2 0.841 1_455 S
C4 O5 1.246 . S
C4 O33 1.276 1_545 S
O5 C4 1.246 . S
Zn6 O8 1.911 . S
Zn6 O23 1.970 . S
Zn6 O40 1.945 . S
Zn6 O47 1.981 . S
Zn7 O8 1.933 1_556 S
Zn7 O22 1.985 . S
Zn7 O29 1.955 . S
O8 Zn6 1.911 . S
O8 Zn7 1.933 1_554 S
O8 H9 0.841 1_455 S
H9 O8 0.841 1_655 S
Zn10 O11 1.933 1_556 S
Zn10 O24 1.985 . S
Zn10 O33 1.955 . S
O11 Zn10 1.933 1_554 S
O11 Zn12 1.911 . S
O11 H13 0.841 1_565 S
Zn12 O11 1.911 . S
Zn12 O25 1.970 . S
Zn12 O41 1.981 . S
Zn12 O43 1.945 . S
H13 O11 0.841 1_545 S
Zn14 O15 1.933 1_556 S
Zn14 O27 1.985 . S
Zn14 O35 1.955 . S
O15 Zn14 1.933 1_554 S
O15 H16 0.841 1_545 S
O15 Zn17 1.911 . S
H16 O15 0.841 1_565 S
Zn17 O15 1.911 . S
Zn17 O28 1.970 . S
Zn17 O38 1.981 . S
Zn17 O46 1.945 . S
C18 O19 1.246 . S
C18 O35 1.276 1_565 S
O19 C18 1.246 . S
O20 Zn0 1.985 . S
O20 C30 1.245 1_556 S
O21 Zn1 1.970 . S
O21 C30 1.263 . S
O22 Zn7 1.985 . S
O22 C34 1.245 1_556 S
O23 Zn6 1.970 . S
O23 C34 1.263 . S
O24 Zn10 1.985 . S
O24 C39 1.245 1_556 S
O25 Zn12 1.970 . S
O25 C39 1.263 . S
C26 O37 1.262 1_455 S
C26 O38 1.245 . S
O27 Zn14 1.985 . S
O27 C45 1.245 1_556 S
O28 Zn17 1.970 . S
O28 C45 1.263 . S
O29 Zn7 1.955 . S
O29 C48 1.276 1_455 S
C30 O20 1.245 1_554 S
C30 O21 1.263 . S
O31 Zn0 1.955 . S
O31 C50 1.276 1_655 S
C32 O40 1.262 1_655 S
C32 O41 1.245 . S
O33 C4 1.276 1_565 S
O33 Zn10 1.955 . S
C34 O22 1.245 1_554 S
C34 O23 1.263 . S
O35 Zn14 1.955 . S
O35 C18 1.276 1_545 S
C36 O43 1.262 1_545 S
C36 O44 1.245 . S
O37 Zn1 1.945 . S
O37 C26 1.262 1_655 S
O38 Zn17 1.981 . S
O38 C26 1.245 . S
C39 O24 1.245 1_554 S
C39 O25 1.263 . S
O40 Zn6 1.945 . S
O40 C32 1.262 1_455 S
O41 Zn12 1.981 . S
O41 C32 1.245 . S
C42 O46 1.262 1_565 S
C42 O47 1.245 . S
O43 Zn12 1.945 . S
O43 C36 1.262 1_565 S
O44 Zn1 1.981 . S
O44 C36 1.245 . S
C45 O27 1.245 1_554 S
C45 O28 1.263 . S
O46 Zn17 1.945 . S
O46 C42 1.262 1_545 S
O47 Zn6 1.981 . S
O47 C42 1.245 . S
C48 O29 1.276 1_655 S
C48 O49 1.246 . S
O49 C48 1.246 . S
C50 O31 1.276 1_455 S
C50 O51 1.246 . S
O51 C50 1.246 . S
Zn52 O54 1.933 . S
Zn52 O72 1.985 . S
Zn52 O83 1.955 . S
Zn53 O54 1.911 . S
Zn53 O73 1.970 . S
Zn53 O89 1.945 . S
Zn53 O96 1.981 . S
O54 Zn52 1.933 . S
O54 Zn53 1.911 . S
O54 H55 0.841 . S
H55 O54 0.841 . S
C56 O57 1.246 . S
C56 O85 1.276 . S
O57 C56 1.246 . S
Zn58 O60 1.911 . S
Zn58 O75 1.970 . S
Zn58 O92 1.945 . S
Zn58 O99 1.981 . S
Zn59 O60 1.933 . S
Zn59 O74 1.985 . S
Zn59 O81 1.955 . S
O60 Zn58 1.911 . S
O60 Zn59 1.933 . S
O60 H61 0.841 . S
H61 O60 0.841 . S
Zn62 O63 1.933 . S
Zn62 O76 1.985 . S
Zn62 O85 1.955 . S
O63 Zn62 1.933 . S
O63 Zn64 1.911 . S
O63 H65 0.841 . S
Zn64 O63 1.911 . S
Zn64 O77 1.970 . S
Zn64 O93 1.981 . S
Zn64 O95 1.945 . S
H65 O63 0.841 . S
Zn66 O67 1.933 . S
Zn66 O79 1.985 . S
Zn66 O87 1.955 . S
O67 Zn66 1.933 . S
O67 H68 0.841 . S
O67 Zn69 1.911 . S
H68 O67 0.841 . S
Zn69 O67 1.911 . S
Zn69 O80 1.970 . S
Zn69 O90 1.981 . S
Zn69 O98 1.945 . S
C70 O71 1.246 . S
C70 O87 1.276 . S
O71 C70 1.246 . S
O72 Zn52 1.985 . S
O72 C82 1.245 . S
O73 Zn53 1.970 . S
O73 C82 1.263 . S
O74 Zn59 1.985 . S
O74 C86 1.245 . S
O75 Zn58 1.970 . S
O75 C86 1.263 . S
O76 Zn62 1.985 . S
O76 C91 1.245 . S
O77 Zn64 1.970 . S
O77 C91 1.263 . S
C78 O89 1.262 . S
C78 O90 1.245 . S
O79 Zn66 1.985 . S
O79 C97 1.245 . S
O80 Zn69 1.970 . S
O80 C97 1.263 . S
O81 Zn59 1.955 . S
O81 C100 1.276 . S
C82 O72 1.245 . S
C82 O73 1.263 . S
O83 Zn52 1.955 . S
O83 C102 1.276 . S
C84 O92 1.262 . S
C84 O93 1.245 . S
O85 C56 1.276 . S
O85 Zn62 1.955 . S
C86 O74 1.245 . S
C86 O75 1.263 . S
O87 Zn66 1.955 . S
O87 C70 1.276 . S
C88 O95 1.262 . S
C88 O96 1.245 . S
O89 Zn53 1.945 . S
O89 C78 1.262 . S
O90 Zn69 1.981 . S
O90 C78 1.245 . S
C91 O76 1.245 . S
C91 O77 1.263 . S
O92 Zn58 1.945 . S
O92 C84 1.262 . S
O93 Zn64 1.981 . S
O93 C84 1.245 . S
C94 O98 1.262 . S
C94 O99 1.245 . S
O95 Zn64 1.945 . S
O95 C88 1.262 . S
O96 Zn53 1.981 . S
O96 C88 1.245 . S
C97 O79 1.245 . S
C97 O80 1.263 . S
O98 Zn69 1.945 . S
O98 C94 1.262 . S
O99 Zn58 1.981 . S
O99 C94 1.245 . S
C100 O81 1.276 . S
C100 O101 1.246 . S
O101 C100 1.246 . S
C102 O83 1.276 . S
C102 O103 1.246 . S
O103 C102 1.246 . S
H104 C111 0.929 . S
H105 C114 0.930 . S
H106 C116 0.929 . S
H107 C108 0.969 . S
C108 H107 0.969 . S
C108 O109 1.550 1_554 S
C108 H110 0.973 . S
O109 C108 1.550 1_556 S
O109 C115 1.414 . S
H110 C108 0.973 . S
C111 H104 0.929 . S
C111 C112 1.400 1_554 S
C111 C113 1.364 . S
C112 C111 1.400 1_556 S
C112 C116 1.377 . S
C113 C111 1.364 . S
C113 C114 1.374 . S
C114 H105 0.930 . S
C114 C113 1.374 . S
C114 C115 1.373 1_554 S
C115 O109 1.414 . S
C115 C114 1.373 1_556 S
C115 C116 1.403 . S
C116 H106 0.929 . S
C116 C112 1.377 . S
C116 C115 1.403 . S
H117 C124 0.929 . S
H118 C127 0.930 . S
H119 C129 0.929 . S
H120 C121 0.969 . S
C121 H120 0.969 . S
C121 O122 1.550 1_554 S
C121 H123 0.973 . S
O122 C121 1.550 1_556 S
O122 C128 1.412 1_556 S
H123 C121 0.973 . S
C124 H117 0.929 . S
C124 C125 1.400 1_554 S
C124 C126 1.364 . S
C125 C124 1.400 1_556 S
C125 C129 1.377 . S
C126 C124 1.364 . S
C126 C127 1.374 . S
C127 H118 0.930 . S
C127 C126 1.374 . S
C127 C128 1.383 . S
C128 O122 1.412 1_554 S
C128 C127 1.383 . S
C128 C129 1.394 1_554 S
C129 H119 0.929 . S
C129 C125 1.377 . S
C129 C128 1.394 1_556 S
H130 C137 0.929 . S
H131 C140 0.930 . S
H132 C142 0.929 . S
H133 C134 0.969 . S
C134 H133 0.969 . S
C134 O135 1.550 1_556 S
C134 H136 0.973 . S
O135 C134 1.550 1_554 S
O135 C141 1.412 . S
H136 C134 0.973 . S
C137 H130 0.929 . S
C137 C138 1.400 . S
C137 C139 1.364 1_554 S
C138 C137 1.400 . S
C138 C142 1.377 . S
C139 C137 1.364 1_556 S
C139 C140 1.374 . S
C140 H131 0.930 . S
C140 C139 1.374 . S
C140 C141 1.383 1_556 S
C141 O135 1.412 . S
C141 C140 1.383 1_554 S
C141 C142 1.394 . S
C142 H132 0.929 . S
C142 C138 1.377 . S
C142 C141 1.394 . S
H143 C150 0.929 . S
H144 C153 0.930 . S
H145 C155 0.929 . S
H146 C147 0.969 . S
C147 H146 0.969 . S
C147 O148 1.550 1_554 S
C147 H149 0.973 . S
O148 C147 1.550 1_556 S
O148 C154 1.412 1_556 S
H149 C147 0.973 . S
C150 H143 0.929 . S
C150 C151 1.400 1_554 S
C150 C152 1.364 . S
C151 C150 1.400 1_556 S
C151 C155 1.377 . S
C152 C150 1.364 . S
C152 C153 1.374 . S
C153 H144 0.930 . S
C153 C152 1.374 . S
C153 C154 1.383 . S
C154 O148 1.412 1_554 S
C154 C153 1.383 . S
C154 C155 1.394 1_554 S
C155 H145 0.929 . S
C155 C151 1.377 . S
C155 C154 1.394 1_556 S
H156 C163 0.929 . S
H157 C166 0.930 . S
H158 C168 0.929 . S
H159 C160 0.969 . S
C160 H159 0.969 . S
C160 O161 1.550 . S
C160 H162 0.973 . S
O161 C160 1.550 . S
O161 C167 1.412 . S
H162 C160 0.973 . S
C163 H156 0.929 . S
C163 C164 1.400 . S
C163 C165 1.364 . S
C164 C163 1.400 . S
C164 C168 1.377 . S
C165 C163 1.364 . S
C165 C166 1.374 . S
C166 H157 0.930 . S
C166 C165 1.374 . S
C166 C167 1.383 . S
C167 O161 1.412 . S
C167 C166 1.383 . S
C167 C168 1.394 . S
C168 H158 0.929 . S
C168 C164 1.377 . S
C168 C167 1.394 . S
H169 C176 0.929 . S
H170 C179 0.930 . S
H171 C181 0.929 . S
H172 C173 0.969 . S
C173 H172 0.969 . S
C173 O174 1.550 . S
C173 H175 0.973 . S
O174 C173 1.550 . S
O174 C180 1.412 . S
H175 C173 0.973 . S
C176 H169 0.929 . S
C176 C177 1.400 . S
C176 C178 1.364 . S
C177 C176 1.400 . S
C177 C181 1.377 . S
C178 C176 1.364 . S
C178 C179 1.374 . S
C179 H170 0.930 . S
C179 C178 1.374 . S
C179 C180 1.383 . S
C180 O174 1.412 . S
C180 C179 1.383 . S
C180 C181 1.394 . S
C181 H171 0.929 . S
C181 C177 1.377 . S
C181 C180 1.394 . S
H182 C189 0.929 . S
H183 C192 0.930 . S
H184 C194 0.929 . S
H185 C186 0.969 . S
C186 H185 0.969 . S
C186 O187 1.550 . S
C186 H188 0.973 . S
O187 C186 1.550 . S
O187 C193 1.412 . S
H188 C186 0.973 . S
C189 H182 0.929 . S
C189 C190 1.400 . S
C189 C191 1.364 . S
C190 C189 1.400 . S
C190 C194 1.377 . S
C191 C189 1.364 . S
C191 C192 1.374 . S
C192 H183 0.930 . S
C192 C191 1.374 . S
C192 C193 1.383 . S
C193 O187 1.412 . S
C193 C192 1.383 . S
C193 C194 1.394 . S
C194 H184 0.929 . S
C194 C190 1.377 . S
C194 C193 1.394 . S
H195 C202 0.929 . S
H196 C205 0.930 . S
H197 C207 0.929 . S
H198 C199 0.969 . S
C199 H198 0.969 . S
C199 O200 1.550 . S
C199 H201 0.973 . S
O200 C199 1.550 . S
O200 C206 1.412 . S
H201 C199 0.973 . S
C202 H195 0.929 . S
C202 C203 1.400 . S
C202 C204 1.364 . S
C203 C202 1.400 . S
C203 C207 1.377 . S
C204 C202 1.364 . S
C204 C205 1.374 . S
C205 H196 0.930 . S
C205 C204 1.374 . S
C205 C206 1.383 . S
C206 O200 1.412 . S
C206 C205 1.383 . S
C206 C207 1.394 . S
C207 H197 0.929 . S
C207 C203 1.377 . S
C207 C206 1.394 . S
C208 C209 1.391 . S
C208 C210 1.394 . S
C208 H224 0.931 . S
C209 C208 1.391 . S
C209 C213 1.376 . S
C210 C208 1.394 . S
C210 C211 1.369 . S
C210 C214 1.531 . S
C211 C210 1.369 . S
C211 C212 1.410 . S
C211 C219 1.503 . S
C212 C211 1.410 . S
C212 C213 1.392 . S
C212 C215 1.511 . S
C213 C209 1.376 . S
C213 C212 1.392 . S
C213 H225 0.929 . S
C214 C210 1.531 . S
C214 H226 0.960 . S
C214 H227 0.962 . S
C214 H228 0.960 . S
C215 C212 1.511 . S
C215 H229 0.961 1_554 S
C215 H230 0.961 1_554 S
C215 H231 0.961 . S
C216 C217 1.370 1_556 S
C216 C218 1.363 . S
C216 H232 0.931 . S
C217 C216 1.370 1_554 S
C217 C221 1.408 . S
C218 C216 1.363 . S
C218 C219 1.370 1_556 S
C218 C222 1.524 . S
C219 C211 1.503 . S
C219 C218 1.370 1_554 S
C219 C220 1.403 . S
C220 C219 1.403 . S
C220 C221 1.404 . S
C220 C223 1.539 . S
C221 C217 1.408 . S
C221 C220 1.404 . S
C221 H233 0.930 . S
C222 C218 1.524 . S
C222 H234 0.956 . S
C222 H235 0.961 . S
C222 H236 0.961 . S
C223 C220 1.539 . S
C223 H237 0.958 . S
C223 H238 0.961 . S
C223 H239 0.960 . S
H224 C208 0.931 . S
H225 C213 0.929 . S
H226 C214 0.960 . S
H227 C214 0.962 . S
H228 C214 0.960 . S
H229 C215 0.961 1_556 S
H230 C215 0.961 1_556 S
H231 C215 0.961 . S
H232 C216 0.931 . S
H233 C221 0.930 . S
H234 C222 0.956 . S
H235 C222 0.961 . S
H236 C222 0.961 . S
H237 C223 0.958 . S
H238 C223 0.961 . S
H239 C223 0.960 . S
C240 C241 1.397 . S
C240 C242 1.393 1_554 S
C240 H256 0.926 1_554 S
C241 C240 1.397 . S
C241 C245 1.376 . S
C242 C240 1.393 1_556 S
C242 C243 1.369 1_556 S
C242 C246 1.531 . S
C243 C242 1.369 1_554 S
C243 C244 1.410 . S
C243 C251 1.503 . S
C244 C243 1.410 . S
C244 C245 1.392 . S
C244 C247 1.511 . S
C245 C241 1.376 . S
C245 C244 1.392 . S
C245 H257 0.929 . S
C246 C242 1.531 . S
C246 H258 0.960 . S
C246 H259 0.962 1_556 S
C246 H260 0.960 . S
C247 C244 1.511 . S
C247 H261 0.961 . S
C247 H262 0.961 . S
C247 H263 0.961 . S
C248 C249 1.370 . S
C248 C250 1.363 . S
C248 H264 0.931 . S
C249 C248 1.370 . S
C249 C253 1.408 1_554 S
C250 C248 1.363 . S
C250 C251 1.370 . S
C250 C254 1.524 . S
C251 C243 1.503 . S
C251 C250 1.370 . S
C251 C252 1.403 1_554 S
C252 C251 1.403 1_556 S
C252 C253 1.404 . S
C252 C255 1.539 . S
C253 C249 1.408 1_556 S
C253 C252 1.404 . S
C253 H265 0.930 . S
C254 C250 1.524 . S
C254 H266 0.956 . S
C254 H267 0.961 . S
C254 H268 0.961 . S
C255 C252 1.539 . S
C255 H269 0.958 . S
C255 H270 0.961 . S
C255 H271 0.960 . S
H256 C240 0.926 1_556 S
H257 C245 0.929 . S
H258 C246 0.960 . S
H259 C246 0.962 1_554 S
H260 C246 0.960 . S
H261 C247 0.961 . S
H262 C247 0.961 . S
H263 C247 0.961 . S
H264 C248 0.931 . S
H265 C253 0.930 . S
H266 C254 0.956 . S
H267 C254 0.961 . S
H268 C254 0.961 . S
H269 C255 0.958 . S
H270 C255 0.961 . S
H271 C255 0.960 . S
C272 C273 1.391 . S
C272 C274 1.394 . S
C272 H288 0.931 . S
C273 C272 1.391 . S
C273 C277 1.376 1_554 S
C274 C272 1.394 . S
C274 C275 1.369 . S
C274 C278 1.531 . S
C275 C274 1.369 . S
C275 C276 1.410 1_554 S
C275 C283 1.503 . S
C276 C275 1.410 1_556 S
C276 C277 1.392 . S
C276 C279 1.511 . S
C277 C273 1.376 1_556 S
C277 C276 1.392 . S
C277 H289 0.929 . S
C278 C274 1.531 . S
C278 H290 0.960 . S
C278 H291 0.962 . S
C278 H292 0.960 . S
C279 C276 1.511 . S
C279 H293 0.961 . S
C279 H294 0.961 . S
C279 H295 0.961 . S
C280 C281 1.370 1_556 S
C280 C282 1.363 . S
C280 H296 0.931 . S
C281 C280 1.370 1_554 S
C281 C285 1.408 . S
C282 C280 1.363 . S
C282 C283 1.370 1_556 S
C282 C286 1.524 . S
C283 C275 1.503 . S
C283 C282 1.370 1_554 S
C283 C284 1.403 . S
C284 C283 1.403 . S
C284 C285 1.404 . S
C284 C287 1.539 . S
C285 C281 1.408 . S
C285 C284 1.404 . S
C285 H297 0.930 . S
C286 C282 1.524 . S
C286 H298 0.956 . S
C286 H299 0.961 . S
C286 H300 0.961 . S
C287 C284 1.539 . S
C287 H301 0.958 . S
C287 H302 0.961 . S
C287 H303 0.960 . S
H288 C272 0.931 . S
H289 C277 0.929 . S
H290 C278 0.960 . S
H291 C278 0.962 . S
H292 C278 0.960 . S
H293 C279 0.961 . S
H294 C279 0.961 . S
H295 C279 0.961 . S
H296 C280 0.931 . S
H297 C285 0.930 . S
H298 C286 0.956 . S
H299 C286 0.961 . S
H300 C286 0.961 . S
H301 C287 0.958 . S
H302 C287 0.961 . S
H303 C287 0.960 . S
C304 C305 1.391 . S
C304 C306 1.394 . S
C304 H320 0.931 . S
C305 C304 1.391 . S
C305 C309 1.376 1_554 S
C306 C304 1.394 . S
C306 C307 1.369 . S
C306 C310 1.531 . S
C307 C306 1.369 . S
C307 C308 1.410 1_554 S
C307 C315 1.503 . S
C308 C307 1.410 1_556 S
C308 C309 1.392 . S
C308 C311 1.511 . S
C309 C305 1.376 1_556 S
C309 C308 1.392 . S
C309 H321 0.929 . S
C310 C306 1.531 . S
C310 H322 0.960 . S
C310 H323 0.962 . S
C310 H324 0.960 . S
C311 C308 1.511 . S
C311 H325 0.961 . S
C311 H326 0.961 . S
C311 H327 0.961 . S
C312 C313 1.370 1_556 S
C312 C314 1.363 . S
C312 H328 0.931 . S
C313 C312 1.370 1_554 S
C313 C317 1.408 . S
C314 C312 1.363 . S
C314 C315 1.370 1_556 S
C314 C318 1.524 . S
C315 C307 1.503 . S
C315 C314 1.370 1_554 S
C315 C316 1.403 . S
C316 C315 1.403 . S
C316 C317 1.404 . S
C316 C319 1.539 . S
C317 C313 1.408 . S
C317 C316 1.404 . S
C317 H329 0.930 . S
C318 C314 1.524 . S
C318 H330 0.956 . S
C318 H331 0.961 . S
C318 H332 0.961 . S
C319 C316 1.539 . S
C319 H333 0.958 . S
C319 H334 0.961 . S
C319 H335 0.960 . S
H320 C304 0.931 . S
H321 C309 0.929 . S
H322 C310 0.960 . S
H323 C310 0.962 . S
H324 C310 0.960 . S
H325 C311 0.961 . S
H326 C311 0.961 . S
H327 C311 0.961 . S
H328 C312 0.931 . S
H329 C317 0.930 . S
H330 C318 0.956 . S
H331 C318 0.961 . S
H332 C318 0.961 . S
H333 C319 0.958 . S
H334 C319 0.961 . S
H335 C319 0.960 . S
C336 C337 1.391 . S
C336 C338 1.394 . S
C336 H352 0.931 . S
C337 C336 1.391 . S
C337 C341 1.376 . S
C338 C336 1.394 . S
C338 C339 1.369 . S
C338 C342 1.531 . S
C339 C338 1.369 . S
C339 C340 1.410 . S
C339 C347 1.503 . S
C340 C339 1.410 . S
C340 C341 1.392 . S
C340 C343 1.511 . S
C341 C337 1.376 . S
C341 C340 1.392 . S
C341 H353 0.929 . S
C342 C338 1.531 . S
C342 H354 0.960 . S
C342 H355 0.962 . S
C342 H356 0.960 . S
C343 C340 1.511 . S
C343 H357 0.961 . S
C343 H358 0.961 . S
C343 H359 0.961 . S
C344 C345 1.370 . S
C344 C346 1.363 . S
C344 H360 0.931 . S
C345 C344 1.370 . S
C345 C349 1.408 . S
C346 C344 1.363 . S
C346 C347 1.370 . S
C346 C350 1.524 . S
C347 C339 1.503 . S
C347 C346 1.370 . S
C347 C348 1.403 . S
C348 C347 1.403 . S
C348 C349 1.404 . S
C348 C351 1.539 . S
C349 C345 1.408 . S
C349 C348 1.404 . S
C349 H361 0.930 . S
C350 C346 1.524 . S
C350 H362 0.956 . S
C350 H363 0.961 . S
C350 H364 0.961 . S
C351 C348 1.539 . S
C351 H365 0.958 . S
C351 H366 0.961 . S
C351 H367 0.960 . S
H352 C336 0.931 . S
H353 C341 0.929 . S
H354 C342 0.960 . S
H355 C342 0.962 . S
H356 C342 0.960 . S
H357 C343 0.961 . S
H358 C343 0.961 . S
H359 C343 0.961 . S
H360 C344 0.931 . S
H361 C349 0.930 . S
H362 C350 0.956 . S
H363 C350 0.961 . S
H364 C350 0.961 . S
H365 C351 0.958 . S
H366 C351 0.961 . S
H367 C351 0.960 . S
C368 C369 1.391 . S
C368 C370 1.394 . S
C368 H384 0.931 . S
C369 C368 1.391 . S
C369 C373 1.376 . S
C370 C368 1.394 . S
C370 C371 1.369 . S
C370 C374 1.531 . S
C371 C370 1.369 . S
C371 C372 1.410 . S
C371 C379 1.503 . S
C372 C371 1.410 . S
C372 C373 1.392 . S
C372 C375 1.511 . S
C373 C369 1.376 . S
C373 C372 1.392 . S
C373 H385 0.929 . S
C374 C370 1.531 . S
C374 H386 0.960 . S
C374 H387 0.962 . S
C374 H388 0.960 . S
C375 C372 1.511 . S
C375 H389 0.961 . S
C375 H390 0.961 . S
C375 H391 0.961 . S
C376 C377 1.370 . S
C376 C378 1.363 . S
C376 H392 0.931 . S
C377 C376 1.370 . S
C377 C381 1.408 . S
C378 C376 1.363 . S
C378 C379 1.370 . S
C378 C382 1.524 . S
C379 C371 1.503 . S
C379 C378 1.370 . S
C379 C380 1.403 . S
C380 C379 1.403 . S
C380 C381 1.404 . S
C380 C383 1.539 . S
C381 C377 1.408 . S
C381 C380 1.404 . S
C381 H393 0.930 . S
C382 C378 1.524 . S
C382 H394 0.956 . S
C382 H395 0.961 . S
C382 H396 0.961 . S
C383 C380 1.539 . S
C383 H397 0.958 . S
C383 H398 0.961 . S
C383 H399 0.960 . S
H384 C368 0.931 . S
H385 C373 0.929 . S
H386 C374 0.960 . S
H387 C374 0.962 . S
H388 C374 0.960 . S
H389 C375 0.961 . S
H390 C375 0.961 . S
H391 C375 0.961 . S
H392 C376 0.931 . S
H393 C381 0.930 . S
H394 C382 0.956 . S
H395 C382 0.961 . S
H396 C382 0.961 . S
H397 C383 0.958 . S
H398 C383 0.961 . S
H399 C383 0.960 . S
C400 C401 1.391 . S
C400 C402 1.394 . S
C400 H416 0.931 . S
C401 C400 1.391 . S
C401 C405 1.376 . S
C402 C400 1.394 . S
C402 C403 1.369 . S
C402 C406 1.531 . S
C403 C402 1.369 . S
C403 C404 1.410 . S
C403 C411 1.503 . S
C404 C403 1.410 . S
C404 C405 1.392 . S
C404 C407 1.511 . S
C405 C401 1.376 . S
C405 C404 1.392 . S
C405 H417 0.929 . S
C406 C402 1.531 . S
C406 H418 0.960 . S
C406 H419 0.962 . S
C406 H420 0.960 . S
C407 C404 1.511 . S
C407 H421 0.961 . S
C407 H422 0.961 . S
C407 H423 0.961 . S
C408 C409 1.370 . S
C408 C410 1.363 . S
C408 H424 0.931 . S
C409 C408 1.370 . S
C409 C413 1.408 . S
C410 C408 1.363 . S
C410 C411 1.370 . S
C410 C414 1.524 . S
C411 C403 1.503 . S
C411 C410 1.370 . S
C411 C412 1.403 . S
C412 C411 1.403 . S
C412 C413 1.404 . S
C412 C415 1.539 . S
C413 C409 1.408 . S
C413 C412 1.404 . S
C413 H425 0.930 . S
C414 C410 1.524 . S
C414 H426 0.956 . S
C414 H427 0.961 . S
C414 H428 0.961 . S
C415 C412 1.539 . S
C415 H429 0.958 . S
C415 H430 0.961 . S
C415 H431 0.960 . S
H416 C400 0.931 . S
H417 C405 0.929 . S
H418 C406 0.960 . S
H419 C406 0.962 . S
H420 C406 0.960 . S
H421 C407 0.961 . S
H422 C407 0.961 . S
H423 C407 0.961 . S
H424 C408 0.931 . S
H425 C413 0.930 . S
H426 C414 0.956 . S
H427 C414 0.961 . S
H428 C414 0.961 . S
H429 C415 0.958 . S
H430 C415 0.961 . S
H431 C415 0.960 . S
C432 C433 1.391 . S
C432 C434 1.394 . S
C432 H448 0.931 . S
C433 C432 1.391 . S
C433 C437 1.376 . S
C434 C432 1.394 . S
C434 C435 1.369 . S
C434 C438 1.531 . S
C435 C434 1.369 . S
C435 C436 1.410 . S
C435 C443 1.503 . S
C436 C435 1.410 . S
C436 C437 1.392 . S
C436 C439 1.511 . S
C437 C433 1.376 . S
C437 C436 1.392 . S
C437 H449 0.929 . S
C438 C434 1.531 . S
C438 H450 0.960 . S
C438 H451 0.962 . S
C438 H452 0.960 . S
C439 C436 1.511 . S
C439 H453 0.961 . S
C439 H454 0.961 . S
C439 H455 0.961 . S
C440 C441 1.370 . S
C440 C442 1.363 . S
C440 H456 0.931 . S
C441 C440 1.370 . S
C441 C445 1.408 . S
C442 C440 1.363 . S
C442 C443 1.370 . S
C442 C446 1.524 . S
C443 C435 1.503 . S
C443 C442 1.370 . S
C443 C444 1.403 . S
C444 C443 1.403 . S
C444 C445 1.404 . S
C444 C447 1.539 . S
C445 C441 1.408 . S
C445 C444 1.404 . S
C445 H457 0.930 . S
C446 C442 1.524 . S
C446 H458 0.956 . S
C446 H459 0.961 . S
C446 H460 0.961 . S
C447 C444 1.539 . S
C447 H461 0.958 . S
C447 H462 0.961 . S
C447 H463 0.960 . S
H448 C432 0.931 . S
H449 C437 0.929 . S
H450 C438 0.960 . S
H451 C438 0.962 . S
H452 C438 0.960 . S
H453 C439 0.961 . S
H454 C439 0.961 . S
H455 C439 0.961 . S
H456 C440 0.931 . S
H457 C445 0.930 . S
H458 C446 0.956 . S
H459 C446 0.961 . S
H460 C446 0.961 . S
H461 C447 0.958 . S
H462 C447 0.961 . S
H463 C447 0.960 . S
C464 C465 1.391 . S
C464 C466 1.394 . S
C464 H480 0.931 . S
C465 C464 1.391 . S
C465 C469 1.376 . S
C466 C464 1.394 . S
C466 C467 1.369 . S
C466 C470 1.531 . S
C467 C466 1.369 . S
C467 C468 1.410 . S
C467 C475 1.503 . S
C468 C467 1.410 . S
C468 C469 1.392 . S
C468 C471 1.511 . S
C469 C465 1.376 . S
C469 C468 1.392 . S
C469 H481 0.929 . S
C470 C466 1.531 . S
C470 H482 0.960 . S
C470 H483 0.962 . S
C470 H484 0.960 . S
C471 C468 1.511 . S
C471 H485 0.961 . S
C471 H486 0.961 . S
C471 H487 0.961 . S
C472 C473 1.370 . S
C472 C474 1.363 . S
C472 H488 0.931 . S
C473 C472 1.370 . S
C473 C477 1.408 . S
C474 C472 1.363 . S
C474 C475 1.370 . S
C474 C478 1.524 . S
C475 C467 1.503 . S
C475 C474 1.370 . S
C475 C476 1.403 . S
C476 C475 1.403 . S
C476 C477 1.404 . S
C476 C479 1.539 . S
C477 C473 1.408 . S
C477 C476 1.404 . S
C477 H489 0.930 . S
C478 C474 1.524 . S
C478 H490 0.956 . S
C478 H491 0.961 . S
C478 H492 0.961 . S
C479 C476 1.539 . S
C479 H493 0.958 . S
C479 H494 0.961 . S
C479 H495 0.960 . S
H480 C464 0.931 . S
H481 C469 0.929 . S
H482 C470 0.960 . S
H483 C470 0.962 . S
H484 C470 0.960 . S
H485 C471 0.961 . S
H486 C471 0.961 . S
H487 C471 0.961 . S
H488 C472 0.931 . S
H489 C477 0.930 . S
H490 C478 0.956 . S
H491 C478 0.961 . S
H492 C478 0.961 . S
H493 C479 0.958 . S
H494 C479 0.961 . S
H495 C479 0.960 . S
C496 C497 1.391 . S
C496 C498 1.394 . S
C496 H512 0.931 . S
C497 C496 1.391 . S
C497 C501 1.376 . S
C498 C496 1.394 . S
C498 C499 1.369 . S
C498 C502 1.531 . S
C499 C498 1.369 . S
C499 C500 1.410 . S
C499 C507 1.503 . S
C500 C499 1.410 . S
C500 C501 1.392 . S
C500 C503 1.511 . S
C501 C497 1.376 . S
C501 C500 1.392 . S
C501 H513 0.929 . S
C502 C498 1.531 . S
C502 H514 0.960 . S
C502 H515 0.962 . S
C502 H516 0.960 . S
C503 C500 1.511 . S
C503 H517 0.961 1_545 S
C503 H518 0.961 . S
C503 H519 0.961 . S
C504 C505 1.370 . S
C504 C506 1.363 . S
C504 H520 0.931 . S
C505 C504 1.370 . S
C505 C509 1.408 . S
C506 C504 1.363 . S
C506 C507 1.370 . S
C506 C510 1.524 . S
C507 C499 1.503 . S
C507 C506 1.370 . S
C507 C508 1.403 . S
C508 C507 1.403 . S
C508 C509 1.404 . S
C508 C511 1.539 . S
C509 C505 1.408 . S
C509 C508 1.404 . S
C509 H521 0.930 . S
C510 C506 1.524 . S
C510 H522 0.956 . S
C510 H523 0.961 . S
C510 H524 0.961 . S
C511 C508 1.539 . S
C511 H525 0.958 . S
C511 H526 0.961 . S
C511 H527 0.960 . S
H512 C496 0.931 . S
H513 C501 0.929 . S
H514 C502 0.960 . S
H515 C502 0.962 . S
H516 C502 0.960 . S
H517 C503 0.961 1_565 S
H518 C503 0.961 . S
H519 C503 0.961 . S
H520 C504 0.931 . S
H521 C509 0.930 . S
H522 C510 0.956 . S
H523 C510 0.961 . S
H524 C510 0.961 . S
H525 C511 0.958 . S
H526 C511 0.961 . S
H527 C511 0.960 . S
C528 C529 1.391 . S
C528 C530 1.394 . S
C528 H544 0.931 1_655 S
C529 C528 1.391 . S
C529 C533 1.376 . S
C530 C528 1.394 . S
C530 C531 1.369 . S
C530 C534 1.531 1_655 S
C531 C530 1.369 . S
C531 C532 1.410 . S
C531 C539 1.503 . S
C532 C531 1.410 . S
C532 C533 1.392 . S
C532 C535 1.511 . S
C533 C529 1.376 . S
C533 C532 1.392 . S
C533 H545 0.929 . S
C534 C530 1.531 1_455 S
C534 H546 0.960 1_455 S
C534 H547 0.962 . S
C534 H548 0.960 . S
C535 C532 1.511 . S
C535 H549 0.961 . S
C535 H550 0.961 . S
C535 H551 0.961 . S
C536 C537 1.370 . S
C536 C538 1.363 . S
C536 H552 0.931 . S
C537 C536 1.370 . S
C537 C541 1.408 . S
C538 C536 1.363 . S
C538 C539 1.370 . S
C538 C542 1.524 . S
C539 C531 1.503 . S
C539 C538 1.370 . S
C539 C540 1.403 . S
C540 C539 1.403 . S
C540 C541 1.404 . S
C540 C543 1.539 . S
C541 C537 1.408 . S
C541 C540 1.404 . S
C541 H553 0.930 . S
C542 C538 1.524 . S
C542 H554 0.956 . S
C542 H555 0.961 . S
C542 H556 0.961 . S
C543 C540 1.539 . S
C543 H557 0.958 . S
C543 H558 0.961 . S
C543 H559 0.960 . S
H544 C528 0.931 1_455 S
H545 C533 0.929 . S
H546 C534 0.960 1_655 S
H547 C534 0.962 . S
H548 C534 0.960 . S
H549 C535 0.961 . S
H550 C535 0.961 . S
H551 C535 0.961 . S
H552 C536 0.931 . S
H553 C541 0.930 . S
H554 C542 0.956 . S
H555 C542 0.961 . S
H556 C542 0.961 . S
H557 C543 0.958 . S
H558 C543 0.961 . S
H559 C543 0.960 . S
C560 C561 1.391 . S
C560 C562 1.394 . S
C560 H576 0.931 1_565 S
C561 C560 1.391 . S
C561 C565 1.376 . S
C562 C560 1.394 . S
C562 C563 1.369 . S
C562 C566 1.531 1_565 S
C563 C562 1.369 . S
C563 C564 1.410 . S
C563 C571 1.503 . S
C564 C563 1.410 . S
C564 C565 1.392 . S
C564 C567 1.511 . S
C565 C561 1.376 . S
C565 C564 1.392 . S
C565 H577 0.929 . S
C566 C562 1.531 1_545 S
C566 H578 0.960 1_545 S
C566 H579 0.962 . S
C566 H580 0.960 . S
C567 C564 1.511 . S
C567 H581 0.961 . S
C567 H582 0.961 . S
C567 H583 0.961 . S
C568 C569 1.370 . S
C568 C570 1.363 . S
C568 H584 0.931 . S
C569 C568 1.370 . S
C569 C573 1.408 . S
C570 C568 1.363 . S
C570 C571 1.370 . S
C570 C574 1.524 . S
C571 C563 1.503 . S
C571 C570 1.370 . S
C571 C572 1.403 . S
C572 C571 1.403 . S
C572 C573 1.404 . S
C572 C575 1.539 . S
C573 C569 1.408 . S
C573 C572 1.404 . S
C573 H585 0.930 . S
C574 C570 1.524 . S
C574 H586 0.956 . S
C574 H587 0.961 . S
C574 H588 0.961 . S
C575 C572 1.539 . S
C575 H589 0.958 . S
C575 H590 0.961 . S
C575 H591 0.960 . S
H576 C560 0.931 1_545 S
H577 C565 0.929 . S
H578 C566 0.960 1_565 S
H579 C566 0.962 . S
H580 C566 0.960 . S
H581 C567 0.961 . S
H582 C567 0.961 . S
H583 C567 0.961 . S
H584 C568 0.931 . S
H585 C573 0.930 . S
H586 C574 0.956 . S
H587 C574 0.961 . S
H588 C574 0.961 . S
H589 C575 0.958 . S
H590 C575 0.961 . S
H591 C575 0.960 . S
C592 C593 1.391 . S
C592 C594 1.394 . S
C592 H608 0.931 . S
C593 C592 1.391 . S
C593 C597 1.376 . S
C594 C592 1.394 . S
C594 C595 1.369 . S
C594 C598 1.531 . S
C595 C594 1.369 . S
C595 C596 1.410 . S
C595 C603 1.503 . S
C596 C595 1.410 . S
C596 C597 1.392 . S
C596 C599 1.511 . S
C597 C593 1.376 . S
C597 C596 1.392 . S
C597 H609 0.929 . S
C598 C594 1.531 . S
C598 H610 0.960 . S
C598 H611 0.962 . S
C598 H612 0.960 . S
C599 C596 1.511 . S
C599 H613 0.961 1_565 S
C599 H614 0.961 . S
C599 H615 0.961 1_565 S
C600 C601 1.370 . S
C600 C602 1.363 . S
C600 H616 0.931 . S
C601 C600 1.370 . S
C601 C605 1.408 . S
C602 C600 1.363 . S
C602 C603 1.370 . S
C602 C606 1.524 . S
C603 C595 1.503 . S
C603 C602 1.370 . S
C603 C604 1.403 . S
C604 C603 1.403 . S
C604 C605 1.404 . S
C604 C607 1.539 . S
C605 C601 1.408 . S
C605 C604 1.404 . S
C605 H617 0.930 . S
C606 C602 1.524 . S
C606 H618 0.956 . S
C606 H619 0.961 . S
C606 H620 0.961 . S
C607 C604 1.539 . S
C607 H621 0.958 . S
C607 H622 0.961 . S
C607 H623 0.960 . S
H608 C592 0.931 . S
H609 C597 0.929 . S
H610 C598 0.960 . S
H611 C598 0.962 . S
H612 C598 0.960 . S
H613 C599 0.961 1_545 S
H614 C599 0.961 . S
H615 C599 0.961 1_545 S
H616 C600 0.931 . S
H617 C605 0.930 . S
H618 C606 0.956 . S
H619 C606 0.961 . S
H620 C606 0.961 . S
H621 C607 0.958 . S
H622 C607 0.961 . S
H623 C607 0.960 . S
C624 C625 1.391 . S
C624 C626 1.394 . S
C624 H640 0.931 . S
C625 C624 1.391 . S
C625 C629 1.376 . S
C626 C624 1.394 . S
C626 C627 1.369 . S
C626 C630 1.531 . S
C627 C626 1.369 . S
C627 C628 1.410 . S
C627 C635 1.503 . S
C628 C627 1.410 . S
C628 C629 1.392 . S
C628 C631 1.510 1_455 S
C629 C625 1.376 . S
C629 C628 1.392 . S
C629 H641 0.910 1_455 S
C630 C626 1.531 . S
C630 H642 0.960 . S
C630 H643 0.962 . S
C630 H644 0.960 . S
C631 C628 1.510 1_655 S
C631 H645 0.961 . S
C631 H646 0.960 1_655 S
C631 H647 0.961 . S
C632 C633 1.370 . S
C632 C634 1.363 . S
C632 H648 0.931 . S
C633 C632 1.370 . S
C633 C637 1.408 . S
C634 C632 1.363 . S
C634 C635 1.370 . S
C634 C638 1.524 . S
C635 C627 1.503 . S
C635 C634 1.370 . S
C635 C636 1.403 . S
C636 C635 1.403 . S
C636 C637 1.404 . S
C636 C639 1.539 . S
C637 C633 1.408 . S
C637 C636 1.404 . S
C637 H649 0.930 . S
C638 C634 1.524 . S
C638 H650 0.956 . S
C638 H651 0.961 . S
C638 H652 0.961 . S
C639 C636 1.539 . S
C639 H653 0.958 . S
C639 H654 0.961 . S
C639 H655 0.960 . S
H640 C624 0.931 . S
H641 C629 0.910 1_655 S
H642 C630 0.960 . S
H643 C630 0.962 . S
H644 C630 0.960 . S
H645 C631 0.961 . S
H646 C631 0.960 1_455 S
H647 C631 0.961 . S
H648 C632 0.931 . S
H649 C637 0.930 . S
H650 C638 0.956 . S
H651 C638 0.961 . S
H652 C638 0.961 . S
H653 C639 0.958 . S
H654 C639 0.961 . S
H655 C639 0.960 . S
C656 C657 1.391 . S
C656 C658 1.394 . S
C656 H672 0.931 . S
C657 C656 1.391 . S
C657 C661 1.376 . S
C658 C656 1.394 . S
C658 C659 1.369 . S
C658 C662 1.531 . S
C659 C658 1.369 . S
C659 C660 1.410 . S
C659 C667 1.503 . S
C660 C659 1.410 . S
C660 C661 1.392 . S
C660 C663 1.511 . S
C661 C657 1.376 . S
C661 C660 1.392 . S
C661 H673 0.929 . S
C662 C658 1.531 . S
C662 H674 0.960 . S
C662 H675 0.962 . S
C662 H676 0.960 1_545 S
C663 C660 1.511 . S
C663 H677 0.961 . S
C663 H678 0.961 . S
C663 H679 0.961 . S
C664 C665 1.370 . S
C664 C666 1.363 . S
C664 H680 0.931 . S
C665 C664 1.370 . S
C665 C669 1.408 . S
C666 C664 1.363 . S
C666 C667 1.370 . S
C666 C670 1.524 . S
C667 C659 1.503 . S
C667 C666 1.370 . S
C667 C668 1.403 . S
C668 C667 1.403 . S
C668 C669 1.404 . S
C668 C671 1.539 . S
C669 C665 1.408 . S
C669 C668 1.404 . S
C669 H681 0.930 . S
C670 C666 1.524 . S
C670 H682 0.956 . S
C670 H683 0.961 . S
C670 H684 0.961 . S
C671 C668 1.539 . S
C671 H685 0.958 1_545 S
C671 H686 0.961 . S
C671 H687 0.960 . S
H672 C656 0.931 . S
H673 C661 0.929 . S
H674 C662 0.960 . S
H675 C662 0.962 . S
H676 C662 0.960 1_565 S
H677 C663 0.961 . S
H678 C663 0.961 . S
H679 C663 0.961 . S
H680 C664 0.931 . S
H681 C669 0.930 . S
H682 C670 0.956 . S
H683 C670 0.961 . S
H684 C670 0.961 . S
H685 C671 0.958 1_565 S
H686 C671 0.961 . S
H687 C671 0.960 . S
C688 C689 1.391 . S
C688 C690 1.394 . S
C688 H704 0.931 . S
C689 C688 1.391 . S
C689 C693 1.376 . S
C690 C688 1.394 . S
C690 C691 1.369 . S
C690 C694 1.531 . S
C691 C690 1.369 . S
C691 C692 1.410 . S
C691 C699 1.503 . S
C692 C691 1.410 . S
C692 C693 1.392 . S
C692 C695 1.511 . S
C693 C689 1.376 . S
C693 C692 1.392 . S
C693 H705 0.929 . S
C694 C690 1.531 . S
C694 H706 0.960 . S
C694 H707 0.962 . S
C694 H708 0.960 . S
C695 C692 1.511 . S
C695 H709 0.961 . S
C695 H710 0.961 . S
C695 H711 0.961 . S
C696 C697 1.370 . S
C696 C698 1.363 . S
C696 H712 0.931 . S
C697 C696 1.370 . S
C697 C701 1.408 . S
C698 C696 1.363 . S
C698 C699 1.370 . S
C698 C702 1.524 . S
C699 C691 1.503 . S
C699 C698 1.370 . S
C699 C700 1.403 . S
C700 C699 1.403 . S
C700 C701 1.404 . S
C700 C703 1.540 . S
C701 C697 1.408 . S
C701 C700 1.404 . S
C701 H713 0.930 . S
C702 C698 1.524 . S
C702 H714 0.956 . S
C702 H715 0.961 . S
C702 H716 0.961 . S
C703 C700 1.540 . S
C703 H717 0.958 1_655 S
C703 H718 0.961 1_655 S
C703 H719 0.959 1_655 S
H704 C688 0.931 . S
H705 C693 0.929 . S
H706 C694 0.960 . S
H707 C694 0.962 . S
H708 C694 0.960 . S
H709 C695 0.961 . S
H710 C695 0.961 . S
H711 C695 0.961 . S
H712 C696 0.931 . S
H713 C701 0.930 . S
H714 C702 0.956 . S
H715 C702 0.961 . S
H716 C702 0.961 . S
H717 C703 0.958 1_455 S
H718 C703 0.961 1_455 S
H719 C703 0.959 1_455 S
C720 C721 1.391 . S
C720 C722 1.394 . S
C720 H736 0.931 . S
C721 C720 1.391 . S
C721 C725 1.376 . S
C722 C720 1.394 . S
C722 C723 1.369 . S
C722 C726 1.531 . S
C723 C722 1.369 . S
C723 C724 1.410 . S
C723 C731 1.503 . S
C724 C723 1.410 . S
C724 C725 1.392 . S
C724 C727 1.511 . S
C725 C721 1.376 . S
C725 C724 1.392 . S
C725 H737 0.929 . S
C726 C722 1.531 . S
C726 H738 0.960 . S
C726 H739 0.962 . S
C726 H740 0.960 . S
C727 C724 1.511 . S
C727 H741 0.961 . S
C727 H742 0.961 . S
C727 H743 0.961 . S
C728 C729 1.370 . S
C728 C730 1.363 . S
C728 H744 0.931 . S
C729 C728 1.370 . S
C729 C733 1.408 . S
C730 C728 1.363 . S
C730 C731 1.370 . S
C730 C734 1.524 . S
C731 C723 1.503 . S
C731 C730 1.370 . S
C731 C732 1.403 . S
C732 C731 1.403 . S
C732 C733 1.404 . S
C732 C735 1.539 . S
C733 C729 1.408 . S
C733 C732 1.404 . S
C733 H745 0.930 . S
C734 C730 1.524 . S
C734 H746 0.956 . S
C734 H747 0.961 . S
C734 H748 0.961 . S
C735 C732 1.539 . S
C735 H749 0.958 . S
C735 H750 0.961 . S
C735 H751 0.960 . S
H736 C720 0.931 . S
H737 C725 0.929 . S
H738 C726 0.960 . S
H739 C726 0.962 . S
H740 C726 0.960 . S
H741 C727 0.961 . S
H742 C727 0.961 . S
H743 C727 0.961 . S
H744 C728 0.931 . S
H745 C733 0.930 . S
H746 C734 0.956 . S
H747 C734 0.961 . S
H748 C734 0.961 . S
H749 C735 0.958 . S
H750 C735 0.961 . S
H751 C735 0.960 . S
C752 C753 1.391 . S
C752 C754 1.394 . S
C752 H768 0.931 . S
C753 C752 1.391 . S
C753 C757 1.376 . S
C754 C752 1.394 . S
C754 C755 1.369 . S
C754 C758 1.531 . S
C755 C754 1.369 . S
C755 C756 1.410 . S
C755 C763 1.503 . S
C756 C755 1.410 . S
C756 C757 1.392 . S
C756 C759 1.511 . S
C757 C753 1.376 . S
C757 C756 1.392 . S
C757 H769 0.929 . S
C758 C754 1.531 . S
C758 H770 0.960 . S
C758 H771 0.962 . S
C758 H772 0.960 . S
C759 C756 1.511 . S
C759 H773 0.961 . S
C759 H774 0.961 . S
C759 H775 0.961 . S
C760 C761 1.370 . S
C760 C762 1.363 . S
C760 H776 0.931 . S
C761 C760 1.370 . S
C761 C765 1.408 . S
C762 C760 1.363 . S
C762 C763 1.370 . S
C762 C766 1.524 . S
C763 C755 1.503 . S
C763 C762 1.370 . S
C763 C764 1.403 . S
C764 C763 1.403 . S
C764 C765 1.404 . S
C764 C767 1.539 . S
C765 C761 1.408 . S
C765 C764 1.404 . S
C765 H777 0.930 . S
C766 C762 1.524 . S
C766 H778 0.956 . S
C766 H779 0.961 . S
C766 H780 0.961 . S
C767 C764 1.539 . S
C767 H781 0.958 . S
C767 H782 0.961 . S
C767 H783 0.960 . S
H768 C752 0.931 . S
H769 C757 0.929 . S
H770 C758 0.960 . S
H771 C758 0.962 . S
H772 C758 0.960 . S
H773 C759 0.961 . S
H774 C759 0.961 . S
H775 C759 0.961 . S
H776 C760 0.931 . S
H777 C765 0.930 . S
H778 C766 0.956 . S
H779 C766 0.961 . S
H780 C766 0.961 . S
H781 C767 0.958 . S
H782 C767 0.961 . S
H783 C767 0.960 . S
C784 C785 1.391 . S
C784 C786 1.394 . S
C784 H800 0.931 . S
C785 C784 1.391 . S
C785 C789 1.376 . S
C786 C784 1.394 . S
C786 C787 1.369 . S
C786 C790 1.531 . S
C787 C786 1.369 . S
C787 C788 1.410 . S
C787 C795 1.503 . S
C788 C787 1.410 . S
C788 C789 1.392 . S
C788 C791 1.511 . S
C789 C785 1.376 . S
C789 C788 1.392 . S
C789 H801 0.929 . S
C790 C786 1.531 . S
C790 H802 0.960 . S
C790 H803 0.962 . S
C790 H804 0.960 . S
C791 C788 1.511 . S
C791 H805 0.961 . S
C791 H806 0.961 . S
C791 H807 0.961 . S
C792 C793 1.370 . S
C792 C794 1.363 . S
C792 H808 0.931 . S
C793 C792 1.370 . S
C793 C797 1.408 . S
C794 C792 1.363 . S
C794 C795 1.370 . S
C794 C798 1.524 . S
C795 C787 1.503 . S
C795 C794 1.370 . S
C795 C796 1.403 . S
C796 C795 1.403 . S
C796 C797 1.404 . S
C796 C799 1.539 . S
C797 C793 1.408 . S
C797 C796 1.404 . S
C797 H809 0.930 . S
C798 C794 1.524 . S
C798 H810 0.956 . S
C798 H811 0.961 . S
C798 H812 0.961 . S
C799 C796 1.539 . S
C799 H813 0.958 . S
C799 H814 0.961 . S
C799 H815 0.960 . S
H800 C784 0.931 . S
H801 C789 0.929 . S
H802 C790 0.960 . S
H803 C790 0.962 . S
H804 C790 0.960 . S
H805 C791 0.961 . S
H806 C791 0.961 . S
H807 C791 0.961 . S
H808 C792 0.931 . S
H809 C797 0.930 . S
H810 C798 0.956 . S
H811 C798 0.961 . S
H812 C798 0.961 . S
H813 C799 0.958 . S
H814 C799 0.961 . S
H815 C799 0.960 . S
C816 C817 1.391 . S
C816 C818 1.394 . S
C816 H832 0.931 . S
C817 C816 1.391 . S
C817 C821 1.376 . S
C818 C816 1.394 . S
C818 C819 1.369 . S
C818 C822 1.531 . S
C819 C818 1.369 . S
C819 C820 1.410 . S
C819 C827 1.503 . S
C820 C819 1.410 . S
C820 C821 1.392 . S
C820 C823 1.511 . S
C821 C817 1.376 . S
C821 C820 1.392 . S
C821 H833 0.929 . S
C822 C818 1.531 . S
C822 H834 0.960 . S
C822 H835 0.962 . S
C822 H836 0.960 . S
C823 C820 1.511 . S
C823 H837 0.961 . S
C823 H838 0.961 . S
C823 H839 0.961 . S
C824 C825 1.370 . S
C824 C826 1.363 . S
C824 H840 0.931 . S
C825 C824 1.370 . S
C825 C829 1.408 . S
C826 C824 1.363 . S
C826 C827 1.370 . S
C826 C830 1.524 . S
C827 C819 1.503 . S
C827 C826 1.370 . S
C827 C828 1.403 . S
C828 C827 1.403 . S
C828 C829 1.404 . S
C828 C831 1.539 . S
C829 C825 1.408 . S
C829 C828 1.404 . S
C829 H841 0.930 . S
C830 C826 1.524 . S
C830 H842 0.956 . S
C830 H843 0.961 . S
C830 H844 0.961 . S
C831 C828 1.539 . S
C831 H845 0.958 . S
C831 H846 0.961 . S
C831 H847 0.960 . S
H832 C816 0.931 . S
H833 C821 0.929 . S
H834 C822 0.960 . S
H835 C822 0.962 . S
H836 C822 0.960 . S
H837 C823 0.961 . S
H838 C823 0.961 . S
H839 C823 0.961 . S
H840 C824 0.931 . S
H841 C829 0.930 . S
H842 C830 0.956 . S
H843 C830 0.961 . S
H844 C830 0.961 . S
H845 C831 0.958 . S
H846 C831 0.961 . S
H847 C831 0.960 . S
C848 C849 1.391 . S
C848 C850 1.394 . S
C848 H864 0.931 . S
C849 C848 1.391 . S
C849 C853 1.376 . S
C850 C848 1.394 . S
C850 C851 1.369 . S
C850 C854 1.531 . S
C851 C850 1.369 . S
C851 C852 1.410 . S
C851 C859 1.503 . S
C852 C851 1.410 . S
C852 C853 1.392 . S
C852 C855 1.511 . S
C853 C849 1.376 . S
C853 C852 1.392 . S
C853 H865 0.929 . S
C854 C850 1.531 . S
C854 H866 0.960 . S
C854 H867 0.962 . S
C854 H868 0.960 . S
C855 C852 1.511 . S
C855 H869 0.961 . S
C855 H870 0.961 . S
C855 H871 0.961 . S
C856 C857 1.370 . S
C856 C858 1.363 . S
C856 H872 0.931 . S
C857 C856 1.370 . S
C857 C861 1.408 . S
C858 C856 1.363 . S
C858 C859 1.370 . S
C858 C862 1.524 . S
C859 C851 1.503 . S
C859 C858 1.370 . S
C859 C860 1.403 . S
C860 C859 1.403 . S
C860 C861 1.404 . S
C860 C863 1.539 . S
C861 C857 1.408 . S
C861 C860 1.404 . S
C861 H873 0.930 . S
C862 C858 1.524 . S
C862 H874 0.956 . S
C862 H875 0.961 . S
C862 H876 0.961 . S
C863 C860 1.539 . S
C863 H877 0.958 . S
C863 H878 0.961 . S
C863 H879 0.960 . S
H864 C848 0.931 . S
H865 C853 0.929 . S
H866 C854 0.960 . S
H867 C854 0.962 . S
H868 C854 0.960 . S
H869 C855 0.961 . S
H870 C855 0.961 . S
H871 C855 0.961 . S
H872 C856 0.931 . S
H873 C861 0.930 . S
H874 C862 0.956 . S
H875 C862 0.961 . S
H876 C862 0.961 . S
H877 C863 0.958 . S
H878 C863 0.961 . S
H879 C863 0.960 . S
C880 C881 1.391 . S
C880 C882 1.394 . S
C880 H896 0.931 . S
C881 C880 1.391 . S
C881 C885 1.376 . S
C882 C880 1.394 . S
C882 C883 1.369 . S
C882 C886 1.531 . S
C883 C882 1.369 . S
C883 C884 1.410 . S
C883 C891 1.503 . S
C884 C883 1.410 . S
C884 C885 1.392 . S
C884 C887 1.511 . S
C885 C881 1.376 . S
C885 C884 1.392 . S
C885 H897 0.929 . S
C886 C882 1.531 . S
C886 H898 0.960 . S
C886 H899 0.962 . S
C886 H900 0.960 . S
C887 C884 1.511 . S
C887 H901 0.961 . S
C887 H902 0.961 . S
C887 H903 0.961 . S
C888 C889 1.370 . S
C888 C890 1.363 . S
C888 H904 0.931 . S
C889 C888 1.370 . S
C889 C893 1.408 . S
C890 C888 1.363 . S
C890 C891 1.370 . S
C890 C894 1.524 . S
C891 C883 1.503 . S
C891 C890 1.370 . S
C891 C892 1.403 . S
C892 C891 1.403 . S
C892 C893 1.404 . S
C892 C895 1.539 . S
C893 C889 1.408 . S
C893 C892 1.404 . S
C893 H905 0.930 . S
C894 C890 1.524 . S
C894 H906 0.956 . S
C894 H907 0.961 . S
C894 H908 0.961 . S
C895 C892 1.539 . S
C895 H909 0.958 . S
C895 H910 0.961 . S
C895 H911 0.960 . S
H896 C880 0.931 . S
H897 C885 0.929 . S
H898 C886 0.960 . S
H899 C886 0.962 . S
H900 C886 0.960 . S
H901 C887 0.961 . S
H902 C887 0.961 . S
H903 C887 0.961 . S
H904 C888 0.931 . S
H905 C893 0.930 . S
H906 C894 0.956 . S
H907 C894 0.961 . S
H908 C894 0.961 . S
H909 C895 0.958 . S
H910 C895 0.961 . S
H911 C895 0.960 . S
C912 C913 1.391 . S
C912 C914 1.394 . S
C912 H928 0.931 . S
C913 C912 1.391 . S
C913 C917 1.376 . S
C914 C912 1.394 . S
C914 C915 1.369 . S
C914 C918 1.531 . S
C915 C914 1.369 . S
C915 C916 1.410 . S
C915 C923 1.503 . S
C916 C915 1.410 . S
C916 C917 1.392 . S
C916 C919 1.511 . S
C917 C913 1.376 . S
C917 C916 1.392 . S
C917 H929 0.929 . S
C918 C914 1.531 . S
C918 H930 0.960 . S
C918 H931 0.962 . S
C918 H932 0.960 . S
C919 C916 1.511 . S
C919 H933 0.961 . S
C919 H934 0.961 . S
C919 H935 0.961 . S
C920 C921 1.370 . S
C920 C922 1.363 . S
C920 H936 0.931 . S
C921 C920 1.370 . S
C921 C925 1.408 . S
C922 C920 1.363 . S
C922 C923 1.370 . S
C922 C926 1.524 . S
C923 C915 1.503 . S
C923 C922 1.370 . S
C923 C924 1.403 . S
C924 C923 1.403 . S
C924 C925 1.404 . S
C924 C927 1.539 . S
C925 C921 1.408 . S
C925 C924 1.404 . S
C925 H937 0.930 . S
C926 C922 1.524 . S
C926 H938 0.956 . S
C926 H939 0.961 . S
C926 H940 0.961 . S
C927 C924 1.539 . S
C927 H941 0.958 . S
C927 H942 0.961 . S
C927 H943 0.960 . S
H928 C912 0.931 . S
H929 C917 0.929 . S
H930 C918 0.960 . S
H931 C918 0.962 . S
H932 C918 0.960 . S
H933 C919 0.961 . S
H934 C919 0.961 . S
H935 C919 0.961 . S
H936 C920 0.931 . S
H937 C925 0.930 . S
H938 C926 0.956 . S
H939 C926 0.961 . S
H940 C926 0.961 . S
H941 C927 0.958 . S
H942 C927 0.961 . S
H943 C927 0.960 . S
C944 C945 1.391 . S
C944 C946 1.394 . S
C944 H960 0.931 . S
C945 C944 1.391 . S
C945 C949 1.376 . S
C946 C944 1.394 . S
C946 C947 1.369 . S
C946 C950 1.531 . S
C947 C946 1.369 . S
C947 C948 1.410 . S
C947 C955 1.503 . S
C948 C947 1.410 . S
C948 C949 1.392 . S
C948 C951 1.511 . S
C949 C945 1.376 . S
C949 C948 1.392 . S
C949 H961 0.929 . S
C950 C946 1.531 . S
C950 H962 0.960 . S
C950 H963 0.962 . S
C950 H964 0.960 . S
C951 C948 1.511 . S
C951 H965 0.961 . S
C951 H966 0.961 . S
C951 H967 0.961 . S
C952 C953 1.370 . S
C952 C954 1.363 . S
C952 H968 0.931 . S
C953 C952 1.370 . S
C953 C957 1.408 . S
C954 C952 1.363 . S
C954 C955 1.370 . S
C954 C958 1.524 . S
C955 C947 1.503 . S
C955 C954 1.370 . S
C955 C956 1.403 . S
C956 C955 1.403 . S
C956 C957 1.404 . S
C956 C959 1.539 . S
C957 C953 1.408 . S
C957 C956 1.404 . S
C957 H969 0.930 . S
C958 C954 1.524 . S
C958 H970 0.956 . S
C958 H971 0.961 . S
C958 H972 0.961 . S
C959 C956 1.539 . S
C959 H973 0.958 . S
C959 H974 0.961 . S
C959 H975 0.960 . S
H960 C944 0.931 . S
H961 C949 0.929 . S
H962 C950 0.960 . S
H963 C950 0.962 . S
H964 C950 0.960 . S
H965 C951 0.961 . S
H966 C951 0.961 . S
H967 C951 0.961 . S
H968 C952 0.931 . S
H969 C957 0.930 . S
H970 C958 0.956 . S
H971 C958 0.961 . S
H972 C958 0.961 . S
H973 C959 0.958 . S
H974 C959 0.961 . S
H975 C959 0.960 . S
C209 C45 1.556 . S
C217 C108 1.487 . S
C241 C30 1.564 . S
C249 C121 1.495 . S
C273 C39 1.549 . S
C281 C134 1.558 1_554 S
C313 C147 1.505 . S
C305 C34 1.548 . S
C337 C97 1.541 . S
C345 C160 1.508 . S
C377 C173 1.490 . S
C369 C82 1.575 . S
C409 C186 1.540 . S
C401 C91 1.556 . S
C441 C199 1.549 . S
C433 C86 1.541 . S
C473 C191 1.527 . S
C465 C26 1.520 . S
C505 C204 1.562 . S
C497 C36 1.498 . S
C537 C164 1.515 . S
C529 C32 1.502 . S
C569 C177 1.491 . S
C561 C42 1.485 . S
C593 C18 1.614 . S
C601 C178 1.654 . S
C633 C190 1.631 . S
C625 C50 1.574 . S
C657 C4 1.509 . S
C665 C203 1.613 . S
C689 C48 1.565 . S
C697 C165 1.635 . S
C729 C139 1.547 . S
C721 C78 1.546 . S
C753 C88 1.390 . S
C761 C151 1.468 . S
C793 C112 1.559 . S
C785 C84 1.474 . S
C825 C125 1.504 . S
C817 C94 1.499 . S
C857 C126 1.647 . S
C849 C70 1.588 . S
C889 C138 1.607 . S
C881 C102 1.539 . S
C913 C56 1.668 . S
C921 C152 1.685 . S
C945 C100 1.531 . S
C953 C113 1.608 . S
