# Generated by pormake.
# Topology llj, (12,3)-cn, num edge types: 1
# Building blocks:
#     Node 0, Type 0, BuildingBlock: QEWDON_clean_sbu_0, # of connection points: 12
#     Node 1, Type 0, BuildingBlock: QEWDON_clean_sbu_0, # of connection points: 12
#     Node 2, Type 1, BuildingBlock: BETDIP_clean_linker_0, # of connection points: 3
#     Node 3, Type 1, BuildingBlock: BETDIP_clean_linker_0, # of connection points: 3
#     Node 4, Type 1, BuildingBlock: BETDIP_clean_linker_0, # of connection points: 3
#     Node 5, Type 1, BuildingBlock: BETDIP_clean_linker_0, # of connection points: 3
#     Node 6, Type 1, BuildingBlock: BETDIP_clean_linker_0, # of connection points: 3
#     Node 7, Type 1, BuildingBlock: BETDIP_clean_linker_0, # of connection points: 3
#     Node 8, Type 1, BuildingBlock: BETDIP_clean_linker_0, # of connection points: 3
#     Node 9, Type 1, BuildingBlock: BETDIP_clean_linker_0, # of connection points: 3
#     Edge 10, Type (0, 1), BuildingBlock: AJUNOK_clean_linker_0, # of connection points: 2
#     Edge 11, Type (0, 1), BuildingBlock: AJUNOK_clean_linker_0, # of connection points: 2
#     Edge 12, Type (0, 1), BuildingBlock: AJUNOK_clean_linker_0, # of connection points: 2
#     Edge 13, Type (0, 1), BuildingBlock: AJUNOK_clean_linker_0, # of connection points: 2
#     Edge 14, Type (0, 1), BuildingBlock: AJUNOK_clean_linker_0, # of connection points: 2
#     Edge 15, Type (0, 1), BuildingBlock: AJUNOK_clean_linker_0, # of connection points: 2
#     Edge 16, Type (0, 1), BuildingBlock: AJUNOK_clean_linker_0, # of connection points: 2
#     Edge 17, Type (0, 1), BuildingBlock: AJUNOK_clean_linker_0, # of connection points: 2
#     Edge 18, Type (0, 1), BuildingBlock: AJUNOK_clean_linker_0, # of connection points: 2
#     Edge 19, Type (0, 1), BuildingBlock: AJUNOK_clean_linker_0, # of connection points: 2
#     Edge 20, Type (0, 1), BuildingBlock: AJUNOK_clean_linker_0, # of connection points: 2
#     Edge 21, Type (0, 1), BuildingBlock: AJUNOK_clean_linker_0, # of connection points: 2
#     Edge 22, Type (0, 1), BuildingBlock: AJUNOK_clean_linker_0, # of connection points: 2
#     Edge 23, Type (0, 1), BuildingBlock: AJUNOK_clean_linker_0, # of connection points: 2
#     Edge 24, Type (0, 1), BuildingBlock: AJUNOK_clean_linker_0, # of connection points: 2
#     Edge 25, Type (0, 1), BuildingBlock: AJUNOK_clean_linker_0, # of connection points: 2
#     Edge 26, Type (0, 1), BuildingBlock: AJUNOK_clean_linker_0, # of connection points: 2
#     Edge 27, Type (0, 1), BuildingBlock: AJUNOK_clean_linker_0, # of connection points: 2
#     Edge 28, Type (0, 1), BuildingBlock: AJUNOK_clean_linker_0, # of connection points: 2
#     Edge 29, Type (0, 1), BuildingBlock: AJUNOK_clean_linker_0, # of connection points: 2
#     Edge 30, Type (0, 1), BuildingBlock: AJUNOK_clean_linker_0, # of connection points: 2
#     Edge 31, Type (0, 1), BuildingBlock: AJUNOK_clean_linker_0, # of connection points: 2
#     Edge 32, Type (0, 1), BuildingBlock: AJUNOK_clean_linker_0, # of connection points: 2
#     Edge 33, Type (0, 1), BuildingBlock: AJUNOK_clean_linker_0, # of connection points: 2
# Relax obj value: 0.010
# Max RMSD: 0.094
# Mean RMSD: 0.081
data_MOF--net-llj--node1-QEWDON_clean_sbu_0--node2-BETDIP_clean_linker_0--edge1-AJUNOK_clean_linker_0
_symmetry_space_group_name_H-M    P1
_symmetry_Int_Tables_number       1
_symmetry_cell_setting            triclinic
loop_
_symmetry_equiv_pos_as_xyz
'x, y, z'
_cell_length_a     30.491824
_cell_length_b     30.493842
_cell_length_c     18.540809
_cell_angle_alpha  90.866291
_cell_angle_beta   91.400256
_cell_angle_gamma 90.132284
loop_
_atom_site_label
_atom_site_type_symbol
_atom_site_fract_x
_atom_site_fract_y
_atom_site_fract_z
_atom_type_partial_charge
Zn0 Zn 0.93273 0.09817 0.9379 0.0
Zn1 Zn 0.93502 0.09439 0.10523 0.0
O2 O 0.97519 0.09425 0.02246 0.0
H3 H 0.00455 0.10617 0.02134 0.0
C4 C 0.89869 0.00761 0.83373 0.0
O5 O 0.87366 0.01506 0.88929 0.0
Zn6 Zn 0.0569 0.89121 0.11288 0.0
Zn7 Zn 0.06097 0.88996 0.95286 0.0
O8 O 0.01631 0.88417 0.02911 0.0
H9 H 0.99085 0.86524 0.02626 0.0
Zn10 Zn 0.92773 0.93871 0.92949 0.0
O11 O 0.94255 0.97015 0.02366 0.0
Zn12 Zn 0.91721 0.93451 0.10227 0.0
H13 H 0.96562 0.99174 0.02972 0.0
Zn14 Zn 0.07734 0.06124 0.93458 0.0
O15 O 0.05627 0.02507 0.01831 0.0
H16 H 0.04203 0.99683 0.01354 0.0
Zn17 Zn 0.07624 0.05661 0.1089 0.0
C18 C 0.10764 0.99035 0.84276 0.0
O19 O 0.11558 0.97375 0.90672 0.0
O20 O 0.87608 0.13179 0.963 0.0
O21 O 0.88111 0.12998 0.08271 0.0
O22 O 0.11913 0.85751 0.97899 0.0
O23 O 0.11298 0.85692 0.09797 0.0
O24 O 0.88066 0.89083 0.94039 0.0
O25 O 0.87086 0.89122 0.05899 0.0
C26 C 0.00681 0.11053 0.19997 0.0
O27 O 0.12202 0.10868 0.9663 0.0
O28 O 0.12439 0.10058 0.08544 0.0
O29 O 0.02961 0.885 0.85349 0.0
C30 C 0.8613 0.14185 0.02486 0.0
O31 O 0.96474 0.11178 0.84422 0.0
C32 C 0.98416 0.87991 0.19875 0.0
O33 O 0.9257 0.97599 0.83654 0.0
C34 C 0.13392 0.84688 0.04129 0.0
O35 O 0.09055 0.02823 0.83882 0.0
C36 C 0.90027 0.01656 0.1766 0.0
O37 O 0.96626 0.11928 0.19315 0.0
O38 O 0.02363 0.08755 0.14985 0.0
C39 C 0.86109 0.87665 -0.00459 0.0
O40 O 0.02458 0.86984 0.19817 0.0
O41 O 0.96915 0.90232 0.14628 0.0
C42 C 0.08853 0.97248 0.17994 0.0
O43 O 0.89384 0.97552 0.17977 0.0
O44 O 0.91781 0.03214 0.12128 0.0
C45 C 0.13789 0.11891 0.02849 0.0
O46 O 0.0959 0.01339 0.18373 0.0
O47 O 0.07108 0.9555 0.12337 0.0
C48 C 0.00423 0.85215 0.8459 0.0
O49 O 0.00274 0.82353 0.89802 0.0
C50 C 0.99092 0.14428 0.84725 0.0
O51 O 0.99382 0.16804 0.90687 0.0
Zn52 Zn 0.42853 0.59572 0.41007 0.0
Zn53 Zn 0.42543 0.59967 0.57984 0.0
O54 O 0.46732 0.59538 0.49942 0.0
H55 H 0.49564 0.58133 0.50061 0.0
C56 C 0.38222 0.51515 0.31965 0.0
O57 O 0.35142 0.51755 0.36791 0.0
Zn58 Zn 0.56988 0.40363 0.59985 0.0
Zn59 Zn 0.5705 0.37662 0.43251 0.0
O60 O 0.53522 0.40726 0.50836 0.0
H61 H 0.51167 0.42764 0.49926 0.0
Zn62 Zn 0.41521 0.45139 0.42242 0.0
O63 O 0.44208 0.47734 0.51368 0.0
Zn64 Zn 0.42124 0.44092 0.59475 0.0
H65 H 0.46595 0.49825 0.5161 0.0
Zn66 Zn 0.59446 0.56178 0.44212 0.0
O67 O 0.56479 0.52885 0.52096 0.0
H68 H 0.54493 0.50432 0.51426 0.0
Zn69 Zn 0.57277 0.56649 0.60878 0.0
C70 C 0.61453 0.4861 0.3494 0.0
O71 O 0.60463 0.46418 0.40729 0.0
O72 O 0.36927 0.62492 0.42826 0.0
O73 O 0.37041 0.6326 0.54779 0.0
O74 O 0.62742 0.34798 0.47018 0.0
O75 O 0.62691 0.36866 0.58574 0.0
O76 O 0.36677 0.40571 0.43948 0.0
O77 O 0.37202 0.39896 0.55874 0.0
C78 C 0.4962 0.61905 0.67632 0.0
O79 O 0.63106 0.61536 0.47546 0.0
O80 O 0.61646 0.6157 0.59211 0.0
O81 O 0.53794 0.35349 0.34032 0.0
C82 C 0.35195 0.63875 0.48609 0.0
O83 O 0.4595 0.61606 0.31912 0.0
C84 C 0.49131 0.38118 0.6753 0.0
O85 O 0.41389 0.48887 0.33001 0.0
C86 C 0.64498 0.34846 0.53332 0.0
O87 O 0.6124 0.52768 0.35104 0.0
C88 C 0.40231 0.52318 0.66635 0.0
O89 O 0.456 0.62854 0.66577 0.0
O90 O 0.51366 0.59298 0.63107 0.0
C91 C 0.35431 0.38835 0.49768 0.0
O92 O 0.53202 0.37296 0.6716 0.0
O93 O 0.47498 0.40762 0.62942 0.0
C94 C 0.59601 0.48725 0.68852 0.0
O95 O 0.402 0.48202 0.67531 0.0
O96 O 0.41162 0.53791 0.60503 0.0
C97 C 0.6362 0.63176 0.5387 0.0
O98 O 0.5952 0.52891 0.68938 0.0
O99 O 0.58133 0.46699 0.63226 0.0
C100 C 0.50148 0.37117 0.32369 0.0
O101 O 0.48657 0.40276 0.36521 0.0
C102 C 0.50086 0.61303 0.31479 0.0
O103 O 0.52328 0.59449 0.36736 0.0
H104 H 0.34937 0.28256 0.87977 0.0
H105 H 0.3554 0.28542 0.1122 0.0
H106 H 0.45743 0.34571 0.99352 0.0
H107 H 0.30855 0.23197 0.10395 0.0
C108 C 0.29015 0.23368 0.05329 0.0
C109 C 0.36591 0.29216 0.93 0.0
C110 C 0.40558 0.31556 0.92889 0.0
C111 C 0.34776 0.28026 -0.0044 0.0
C112 C 0.36914 0.2931 0.06075 0.0
C113 C 0.40882 0.31643 0.06007 0.0
C114 C 0.42706 0.32712 0.99409 0.0
N115 N 0.30798 0.25579 0.99371 0.0
H116 H 0.68146 0.34223 0.89612 0.0
H117 H 0.68696 0.33965 0.12767 0.0
H118 H 0.61428 0.44051 0.01983 0.0
H119 H 0.70498 0.2695 0.11252 0.0
C120 C 0.71863 0.26534 0.05936 0.0
C121 C 0.67155 0.35595 0.94744 0.0
C122 C 0.64758 0.39508 0.94995 0.0
C123 C 0.68395 0.3345 0.01076 0.0
C124 C 0.67463 0.35385 0.07813 0.0
C125 C 0.65097 0.39328 0.08136 0.0
C126 C 0.63525 0.41192 0.01717 0.0
N127 N 0.70822 0.29515 0.00362 0.0
H128 H 0.64569 0.70926 0.12087 0.0
H129 H 0.64418 0.71552 0.88854 0.0
H130 H 0.54341 0.64515 0.99506 0.0
H131 H 0.71497 0.73176 0.90416 0.0
C132 C 0.71895 0.74889 0.95558 0.0
C133 C 0.63098 0.70038 0.06885 0.0
C134 C 0.59168 0.67632 0.06529 0.0
C135 C 0.65103 0.71397 0.00557 0.0
C136 C 0.63076 0.7037 0.938 0.0
C137 C 0.59149 0.67949 0.93444 0.0
C138 C 0.57299 0.66503 -0.00198 0.0
N139 N 0.69002 0.73969 0.01246 0.0
H140 H 0.34294 0.68419 0.88264 0.0
H141 H 0.33305 0.67227 0.11228 0.0
H142 H 0.38737 0.56698 0.98847 0.0
H143 H 0.31229 0.74094 0.11085 0.0
C144 C 0.29581 0.74554 0.05904 0.0
C145 C 0.34833 0.6653 0.93103 0.0
C146 C 0.36732 0.62334 0.92692 0.0
C147 C 0.33511 0.68305 -0.00284 0.0
C148 C 0.34302 0.65934 0.06068 0.0
C149 C 0.36318 0.61802 0.05816 0.0
C150 C 0.37453 0.60005 0.99104 0.0
N151 N 0.31061 0.72276 -0.0033 0.0
H152 H 0.83196 0.80968 0.40754 0.0
H153 H 0.83589 0.80861 0.63885 0.0
H154 H 0.94239 0.86534 0.52607 0.0
H155 H 0.76627 0.79084 0.62951 0.0
C156 C 0.76067 0.77548 0.57696 0.0
C157 C 0.848 0.81948 0.45801 0.0
C158 C 0.88909 0.84039 0.45846 0.0
C159 C 0.82781 0.80912 0.52244 0.0
C160 C 0.84995 0.81796 0.58848 0.0
C161 C 0.89171 0.83741 0.58974 0.0
C162 C 0.91032 0.84988 0.52487 0.0
N163 N 0.78705 0.78657 0.51788 0.0
H164 H 0.18814 0.84611 0.62426 0.0
H165 H 0.16248 0.82801 0.39787 0.0
H166 H 0.10707 0.93822 0.50939 0.0
H167 H 0.18529 0.76072 0.41462 0.0
C168 C 0.20641 0.76041 0.4625 0.0
C169 C 0.17081 0.8563 0.57574 0.0
C170 C 0.14397 0.89374 0.57633 0.0
C171 C 0.17621 0.83144 0.51279 0.0
C172 C 0.1573 0.84595 0.44762 0.0
C173 C 0.13293 0.88497 0.44563 0.0
C174 C 0.12586 0.90822 0.51044 0.0
N175 N 0.20252 0.79316 0.51719 0.0
H176 H 0.14849 0.21539 0.64573 0.0
H177 H 0.14904 0.20619 0.41392 0.0
H178 H 0.04564 0.14543 0.52952 0.0
H179 H 0.18799 0.26733 0.42421 0.0
C180 C 0.20696 0.26622 0.47443 0.0
C181 C 0.13345 0.20393 0.59531 0.0
C182 C 0.09436 0.17944 0.59555 0.0
C183 C 0.15299 0.21467 0.53026 0.0
C184 C 0.13417 0.19887 0.46469 0.0
C185 C 0.09558 0.17354 0.46429 0.0
C186 C 0.07587 0.16425 0.52981 0.0
N187 N 0.19118 0.24165 0.53307 0.0
H188 H 0.84019 0.17243 0.39672 0.0
H189 H 0.84499 0.1669 0.62828 0.0
H190 H 0.88971 0.0575 0.50163 0.0
H191 H 0.81038 0.22932 0.6276 0.0
C192 C 0.79844 0.23684 0.5737 0.0
C193 C 0.84846 0.1549 0.44559 0.0
C194 C 0.86738 0.11306 0.44126 0.0
C195 C 0.83906 0.1742 0.51248 0.0
C196 C 0.85096 0.15211 0.57622 0.0
C197 C 0.87036 0.11022 0.57316 0.0
C198 C 0.87756 0.09079 0.50522 0.0
N199 N 0.8152 0.21431 0.51247 0.0
C200 C 0.20135 0.15241 0.09723 0.0
C201 C 0.17452 0.15094 0.03444 0.0
C202 C 0.23804 0.17998 0.10268 0.0
C203 C 0.24952 0.20714 0.04559 0.0
H204 H 0.19477 0.13124 0.14199 0.0
H205 H 0.25815 0.17932 0.15167 0.0
S206 S 0.18792 0.21883 0.8716 0.0
N207 N 0.16038 0.18141 0.91541 0.0
N208 N 0.22953 0.23313 0.92565 0.0
C209 C 0.22231 0.20718 0.98316 0.0
C210 C 0.1848 0.17907 0.97759 0.0
C211 C 0.80637 0.18147 0.0995 0.0
C212 C 0.82185 0.16996 0.03074 0.0
C213 C 0.77184 0.21111 0.10766 0.0
C214 C 0.75169 0.23074 0.04756 0.0
H215 H 0.82168 0.16839 0.14788 0.0
H216 H 0.76184 0.21985 0.16169 0.0
S217 S 0.77606 0.20823 0.85512 0.0
N218 N 0.8115 0.17793 0.90085 0.0
N219 N 0.74675 0.23382 0.91637 0.0
C220 C 0.7653 0.21817 0.97822 0.0
C221 C 0.80034 0.18772 0.9698 0.0
C222 C 0.79845 0.83219 0.04222 0.0
C223 C 0.82575 0.84305 0.98482 0.0
C224 C 0.76408 0.80169 0.03292 0.0
C225 C 0.75574 0.78061 0.96589 0.0
H226 H 0.80324 0.84773 0.09473 0.0
H227 H 0.74388 0.79481 0.07866 0.0
S228 S 0.81783 0.79586 0.79869 0.0
N229 N 0.84221 0.82898 0.85846 0.0
N230 N 0.77777 0.77193 0.84167 0.0
C231 C 0.78295 0.79062 0.90838 0.0
C232 C 0.81786 0.82171 0.9176 0.0
C233 C 0.19706 0.80777 0.98477 0.0
C234 C 0.1759 0.82216 0.04758 0.0
C235 C 0.23604 0.78352 0.98859 0.0
C236 C 0.2557 0.77292 0.05543 0.0
H237 H 0.18327 0.81483 0.93188 0.0
H238 H 0.25066 0.77293 0.93863 0.0
S239 S 0.21468 0.8029 0.23623 0.0
N240 N 0.1784 0.82407 0.17918 0.0
N241 N 0.25177 0.77881 0.18585 0.0
C242 C 0.23548 0.78749 0.11866 0.0
C243 C 0.19559 0.81197 0.11492 0.0
C244 C 0.686 0.689 0.4904 0.0
C245 C 0.66629 0.66974 0.55016 0.0
C246 C 0.71584 0.72369 0.4992 0.0
C247 C 0.72709 0.74066 0.56812 0.0
H248 H 0.67873 0.677 0.43612 0.0
H249 H 0.73035 0.73696 0.45144 0.0
S250 S 0.68481 0.70306 0.74224 0.0
N251 N 0.66013 0.67107 0.68107 0.0
N252 N 0.7161 0.73659 0.69694 0.0
C253 C 0.7072 0.72254 0.62821 0.0
C254 C 0.67687 0.68701 0.61946 0.0
C255 C 0.29844 0.69084 0.54077 0.0
C256 C 0.31167 0.66584 0.4807 0.0
C257 C 0.26377 0.72071 0.53506 0.0
C258 C 0.24074 0.72646 0.46922 0.0
H259 H 0.31587 0.68851 0.59217 0.0
H260 H 0.25552 0.73985 0.58248 0.0
S261 S 0.25973 0.66698 0.29708 0.0
N262 N 0.29698 0.64728 0.35392 0.0
N263 N 0.23169 0.70333 0.34392 0.0
C264 C 0.25225 0.70051 0.40958 0.0
C265 C 0.28774 0.67024 0.41509 0.0
C266 C 0.28991 0.35414 0.43204 0.0
C267 C 0.31779 0.35592 0.4937 0.0
C268 C 0.25462 0.3247 0.42674 0.0
C269 C 0.2456 0.29576 0.48276 0.0
H270 H 0.29492 0.3761 0.38759 0.0
H271 H 0.2339 0.32495 0.37843 0.0
S272 S 0.3106 0.28445 0.65351 0.0
N273 N 0.33547 0.324 0.61031 0.0
N274 N 0.26877 0.26905 0.60075 0.0
C275 C 0.27362 0.2964 0.54429 0.0
C276 C 0.30975 0.3264 0.54964 0.0
C277 C 0.70785 0.30472 0.48629 0.0
C278 C 0.68621 0.32322 0.54575 0.0
C279 C 0.74469 0.27787 0.49555 0.0
C280 C 0.76159 0.26826 0.56475 0.0
H281 H 0.6959 0.31038 0.43173 0.0
H282 H 0.75943 0.264 0.44783 0.0
S283 S 0.71905 0.30985 0.73857 0.0
N284 N 0.68592 0.33119 0.67674 0.0
N285 N 0.75523 0.2806 0.69381 0.0
C286 C 0.7413 0.28746 0.62471 0.0
C287 C 0.70367 0.31496 0.61536 0.0
C288 C 0.00838 0.14899 0.31985 0.0
C289 C 0.03149 0.12644 0.26575 0.0
C290 C 0.02941 0.16435 0.38322 0.0
C291 C 0.07454 0.15782 0.39561 0.0
H292 H 0.97347 0.15486 0.31366 0.0
H293 H 0.01012 0.18166 0.4228 0.0
S294 S 0.15032 0.09996 0.27379 0.0
N295 N 0.10251 0.09872 0.2301 0.0
N296 N 0.14165 0.12626 0.35047 0.0
C297 C 0.09819 0.13535 0.3427 0.0
C298 C 0.07678 0.11995 0.27763 0.0
C299 C 0.92439 0.04768 0.29511 0.0
C300 C 0.89216 0.04445 0.23999 0.0
C301 C 0.91647 0.071 0.35911 0.0
C302 C 0.87587 0.09165 0.37036 0.0
H303 H 0.95576 0.03164 0.28895 0.0
H304 H 0.94219 0.0725 0.40046 0.0
S305 S 0.78078 0.09219 0.24129 0.0
N306 N 0.81871 0.06372 0.19915 0.0
N307 N 0.80304 0.10702 0.32011 0.0
C308 C 0.84361 0.08912 0.31466 0.0
C309 C 0.85191 0.0655 0.24933 0.0
C310 C 0.97931 0.85011 0.32249 0.0
C311 C 0.95772 0.86781 0.26162 0.0
C312 C 0.95676 0.84099 0.38514 0.0
C313 C 0.91161 0.84951 0.39014 0.0
H314 H 0.01427 0.84384 0.3226 0.0
H315 H 0.97506 0.82708 0.43004 0.0
S316 S 0.83848 0.89074 0.24358 0.0
N317 N 0.8874 0.88799 0.20769 0.0
N318 N 0.84556 0.87484 0.32765 0.0
C319 C 0.88923 0.86594 0.32915 0.0
C320 C 0.91213 0.8741 0.26445 0.0
C321 C 0.13671 0.92374 0.25218 0.0
C322 C 0.09697 0.94611 0.24379 0.0
C323 C 0.14736 0.90291 0.317 0.0
C324 C 0.11831 0.90334 0.37516 0.0
H325 H 0.16035 0.92377 0.20947 0.0
H326 H 0.17941 0.88794 0.32248 0.0
S327 S 0.00839 0.95574 0.37605 0.0
N328 N 0.02789 0.96714 0.29613 0.0
N329 N 0.04636 0.92579 0.41684 0.0
C330 C 0.07748 0.92431 0.3656 0.0
C331 C 0.0672 0.94626 0.30011 0.0
C332 C 0.12218 0.9871 0.71044 0.0
C333 C 0.11807 0.96528 0.77622 0.0
C334 C 0.13138 0.96401 0.64662 0.0
C335 C 0.13518 0.91789 0.64528 0.0
H336 H 0.11895 0.02244 0.70829 0.0
H337 H 0.13582 0.98274 0.59821 0.0
S338 S 0.12503 0.84511 0.80304 0.0
N339 N 0.12012 0.89519 0.8367 0.0
N340 N 0.13113 0.85127 0.71575 0.0
C341 C 0.13008 0.8957 0.71071 0.0
C342 C 0.12309 0.91947 0.77626 0.0
C343 C 0.02895 0.12033 0.73599 0.0
C344 C 0.01912 0.15389 0.78573 0.0
C345 C 0.05462 0.12852 0.67611 0.0
C346 C 0.07135 0.1707 0.66352 0.0
H347 H 0.01687 0.08738 0.74362 0.0
H348 H 0.0611 0.10166 0.63899 0.0
S349 S 0.05556 0.26987 0.77834 0.0
N350 N 0.029 0.23069 0.81972 0.0
N351 N 0.0765 0.24641 0.70617 0.0
C352 C 0.06259 0.20439 0.71376 0.0
C353 C 0.03665 0.19592 0.77509 0.0
C354 C 0.85722 0.0623 0.75997 0.0
C355 C 0.8938 0.0346 0.76802 0.0
C356 C 0.85036 0.08687 0.69753 0.0
C357 C 0.88018 0.08551 0.6407 0.0
H358 H 0.83292 0.06433 0.80154 0.0
H359 H 0.82069 0.1062 0.69322 0.0
S360 S 0.98326 0.0206 0.63721 0.0
N361 N 0.96117 0.00824 0.71476 0.0
N362 N 0.94958 0.05619 0.59906 0.0
C363 C 0.9178 0.05902 0.64909 0.0
C364 C 0.92431 0.03323 0.71223 0.0
C365 C 0.96779 0.88391 0.73657 0.0
C366 C 0.97488 0.84772 0.78161 0.0
C367 C 0.93974 0.88079 0.67582 0.0
C368 C 0.91798 0.8413 0.65769 0.0
H369 H 0.9839 0.915 0.74835 0.0
H370 H 0.93528 0.9094 0.64247 0.0
S371 S 0.927 0.73638 0.75562 0.0
N372 N 0.9583 0.77096 0.8031 0.0
N373 N 0.90664 0.76483 0.68765 0.0
C374 C 0.92485 0.80486 0.70203 0.0
C375 C 0.95307 0.80812 0.76426 0.0
C376 C 0.56592 0.6287 0.75071 0.0
C377 C 0.52105 0.63795 0.73964 0.0
C378 C 0.58925 0.64398 0.81219 0.0
C379 C 0.5685 0.66914 0.8651 0.0
H380 H 0.58322 0.6088 0.71269 0.0
H381 H 0.62328 0.63461 0.81971 0.0
S382 S 0.45244 0.70511 0.86212 0.0
N383 N 0.45732 0.67594 0.78705 0.0
N384 N 0.50136 0.70462 0.90215 0.0
C385 C 0.52409 0.67989 0.85429 0.0
C386 C 0.50032 0.66437 0.79176 0.0
C387 C 0.4245 0.55211 0.78779 0.0
C388 C 0.39535 0.55286 0.72814 0.0
C389 C 0.41629 0.57687 0.85027 0.0
C390 C 0.37792 0.60231 0.85619 0.0
H391 H 0.45365 0.53187 0.78635 0.0
H392 H 0.43979 0.5753 0.89492 0.0
S393 S 0.2914 0.6147 0.7131 0.0
N394 N 0.32789 0.58181 0.67649 0.0
N395 N 0.31065 0.62652 0.79515 0.0
C396 C 0.34901 0.60394 0.79563 0.0
C397 C 0.35811 0.57951 0.73138 0.0
C398 C 0.48916 0.33549 0.78567 0.0
C399 C 0.46634 0.36187 0.73535 0.0
C400 C 0.46887 0.3195 0.84677 0.0
C401 C 0.42479 0.32892 0.86015 0.0
H402 H 0.52352 0.32783 0.7791 0.0
H403 H 0.48807 0.30021 0.88459 0.0
S404 S 0.34946 0.39498 0.74641 0.0
N405 N 0.39618 0.39481 0.70323 0.0
N406 N 0.35842 0.36541 0.819 0.0
C407 C 0.40102 0.35394 0.80997 0.0
C408 C 0.4217 0.37026 0.74743 0.0
C409 C 0.61234 0.41815 0.75638 0.0
C410 C 0.61192 0.46415 0.75407 0.0
C411 C 0.62351 0.39603 0.81971 0.0
C412 C 0.63663 0.4191 0.88282 0.0
H413 H 0.60411 0.39879 0.70927 0.0
H414 H 0.62139 0.36057 0.81914 0.0
S415 S 0.65057 0.53989 0.90177 0.0
N416 N 0.63056 0.53212 0.81913 0.0
N417 N 0.6552 0.49047 0.93597 0.0
C418 C 0.63971 0.46511 0.87995 0.0
C419 C 0.6268 0.48765 0.81616 0.0
C420 C 0.62092 0.41692 0.27585 0.0
C421 C 0.62649 0.46269 0.28215 0.0
C422 C 0.6294 0.39438 0.21121 0.0
C423 C 0.64442 0.41679 0.1509 0.0
H424 H 0.6093 0.39838 0.32079 0.0
H425 H 0.62328 0.35939 0.20801 0.0
S426 S 0.67059 0.53562 0.14235 0.0
N427 N 0.65147 0.52901 0.22396 0.0
N428 N 0.66926 0.48645 0.104 0.0
C429 C 0.65234 0.46219 0.15768 0.0
C430 C 0.64299 0.48519 0.22289 0.0
C431 C 0.56897 0.62367 0.24443 0.0
C432 C 0.52368 0.63096 0.25211 0.0
C433 C 0.59124 0.63961 0.18498 0.0
C434 C 0.56896 0.6633 0.13117 0.0
H435 H 0.58738 0.60506 0.2841 0.0
H436 H 0.62582 0.63237 0.18011 0.0
S437 S 0.45142 0.69452 0.12801 0.0
N438 N 0.45799 0.66574 0.20215 0.0
N439 N 0.50005 0.69578 0.09099 0.0
C440 C 0.52406 0.67192 0.13906 0.0
C441 C 0.50136 0.65573 0.19935 0.0
C442 C 0.34021 0.56484 0.23749 0.0
C443 C 0.37908 0.54176 0.25336 0.0
C444 C 0.33556 0.58951 0.17472 0.0
C445 C 0.36969 0.59242 0.12529 0.0
H446 H 0.3127 0.5634 0.27326 0.0
H447 H 0.30456 0.60578 0.16424 0.0
S448 S 0.47934 0.5405 0.14329 0.0
N449 N 0.45305 0.52452 0.21519 0.0
N450 N 0.44457 0.57184 0.09807 0.0
C451 C 0.40909 0.57016 0.14093 0.0
C452 C 0.41374 0.54468 0.20471 0.0
C453 C 0.498 0.33244 0.20399 0.0
C454 C 0.4768 0.35707 0.25762 0.0
C455 C 0.47573 0.31937 0.14029 0.0
C456 C 0.43138 0.33008 0.12824 0.0
H457 H 0.53222 0.32358 0.21074 0.0
H458 H 0.49328 0.30056 0.10026 0.0
S459 S 0.36082 0.39416 0.25074 0.0
N460 N 0.40869 0.39156 0.294 0.0
N461 N 0.36713 0.36717 0.17387 0.0
C462 C 0.40971 0.35453 0.1812 0.0
C463 C 0.43238 0.36804 0.24594 0.0
loop_
_geom_bond_atom_site_label_1
_geom_bond_atom_site_label_2
_geom_bond_distance
_geom_bond_site_symmetry_2
_ccdc_geom_bond_type
Zn0 O2 1.933 1_556 S
Zn0 O20 1.985 . S
Zn0 O31 1.955 . S
Zn1 O2 1.911 . S
Zn1 O21 1.970 . S
Zn1 O37 1.945 . S
Zn1 O44 1.981 . S
O2 Zn0 1.933 1_554 S
O2 Zn1 1.911 . S
O2 H3 0.841 1_655 S
H3 O2 0.841 1_455 S
C4 O5 1.246 . S
C4 O33 1.276 1_545 S
O5 C4 1.246 . S
Zn6 O8 1.911 . S
Zn6 O23 1.970 . S
Zn6 O40 1.945 . S
Zn6 O47 1.981 . S
Zn7 O8 1.933 1_556 S
Zn7 O22 1.985 . S
Zn7 O29 1.955 . S
O8 Zn6 1.911 . S
O8 Zn7 1.933 1_554 S
O8 H9 0.841 1_455 S
H9 O8 0.841 1_655 S
Zn10 O11 1.933 1_556 S
Zn10 O24 1.985 . S
Zn10 O33 1.955 . S
O11 Zn10 1.933 1_554 S
O11 Zn12 1.911 . S
O11 H13 0.841 1_565 S
Zn12 O11 1.911 . S
Zn12 O25 1.970 . S
Zn12 O41 1.981 . S
Zn12 O43 1.945 . S
H13 O11 0.841 1_545 S
Zn14 O15 1.933 1_556 S
Zn14 O27 1.985 . S
Zn14 O35 1.955 . S
O15 Zn14 1.933 1_554 S
O15 H16 0.841 1_545 S
O15 Zn17 1.911 . S
H16 O15 0.841 1_565 S
Zn17 O15 1.911 . S
Zn17 O28 1.970 . S
Zn17 O38 1.981 . S
Zn17 O46 1.945 . S
C18 O19 1.246 . S
C18 O35 1.276 1_565 S
O19 C18 1.246 . S
O20 Zn0 1.985 . S
O20 C30 1.245 1_556 S
O21 Zn1 1.970 . S
O21 C30 1.263 . S
O22 Zn7 1.985 . S
O22 C34 1.245 1_556 S
O23 Zn6 1.970 . S
O23 C34 1.263 . S
O24 Zn10 1.985 . S
O24 C39 1.245 1_556 S
O25 Zn12 1.970 . S
O25 C39 1.263 . S
C26 O37 1.262 1_455 S
C26 O38 1.245 . S
O27 Zn14 1.985 . S
O27 C45 1.245 1_556 S
O28 Zn17 1.970 . S
O28 C45 1.263 . S
O29 Zn7 1.955 . S
O29 C48 1.276 1_455 S
C30 O20 1.245 1_554 S
C30 O21 1.263 . S
O31 Zn0 1.955 . S
O31 C50 1.276 1_655 S
C32 O40 1.262 1_655 S
C32 O41 1.245 . S
O33 C4 1.276 1_565 S
O33 Zn10 1.955 . S
C34 O22 1.245 1_554 S
C34 O23 1.263 . S
O35 Zn14 1.955 . S
O35 C18 1.276 1_545 S
C36 O43 1.262 1_545 S
C36 O44 1.245 . S
O37 Zn1 1.945 . S
O37 C26 1.262 1_655 S
O38 Zn17 1.981 . S
O38 C26 1.245 . S
C39 O24 1.245 1_554 S
C39 O25 1.263 . S
O40 Zn6 1.945 . S
O40 C32 1.262 1_455 S
O41 Zn12 1.981 . S
O41 C32 1.245 . S
C42 O46 1.262 1_565 S
C42 O47 1.245 . S
O43 Zn12 1.945 . S
O43 C36 1.262 1_565 S
O44 Zn1 1.981 . S
O44 C36 1.245 . S
C45 O27 1.245 1_554 S
C45 O28 1.263 . S
O46 Zn17 1.945 . S
O46 C42 1.262 1_545 S
O47 Zn6 1.981 . S
O47 C42 1.245 . S
C48 O29 1.276 1_655 S
C48 O49 1.246 . S
O49 C48 1.246 . S
C50 O31 1.276 1_455 S
C50 O51 1.246 . S
O51 C50 1.246 . S
Zn52 O54 1.933 . S
Zn52 O72 1.985 . S
Zn52 O83 1.955 . S
Zn53 O54 1.911 . S
Zn53 O73 1.970 . S
Zn53 O89 1.945 . S
Zn53 O96 1.981 . S
O54 Zn52 1.933 . S
O54 Zn53 1.911 . S
O54 H55 0.841 . S
H55 O54 0.841 . S
C56 O57 1.246 . S
C56 O85 1.276 . S
O57 C56 1.246 . S
Zn58 O60 1.911 . S
Zn58 O75 1.970 . S
Zn58 O92 1.945 . S
Zn58 O99 1.981 . S
Zn59 O60 1.933 . S
Zn59 O74 1.985 . S
Zn59 O81 1.955 . S
O60 Zn58 1.911 . S
O60 Zn59 1.933 . S
O60 H61 0.841 . S
H61 O60 0.841 . S
Zn62 O63 1.933 . S
Zn62 O76 1.985 . S
Zn62 O85 1.955 . S
O63 Zn62 1.933 . S
O63 Zn64 1.911 . S
O63 H65 0.841 . S
Zn64 O63 1.911 . S
Zn64 O77 1.970 . S
Zn64 O93 1.981 . S
Zn64 O95 1.945 . S
H65 O63 0.841 . S
Zn66 O67 1.933 . S
Zn66 O79 1.985 . S
Zn66 O87 1.955 . S
O67 Zn66 1.933 . S
O67 H68 0.841 . S
O67 Zn69 1.911 . S
H68 O67 0.841 . S
Zn69 O67 1.911 . S
Zn69 O80 1.970 . S
Zn69 O90 1.981 . S
Zn69 O98 1.945 . S
C70 O71 1.246 . S
C70 O87 1.276 . S
O71 C70 1.246 . S
O72 Zn52 1.985 . S
O72 C82 1.245 . S
O73 Zn53 1.970 . S
O73 C82 1.263 . S
O74 Zn59 1.985 . S
O74 C86 1.245 . S
O75 Zn58 1.970 . S
O75 C86 1.263 . S
O76 Zn62 1.985 . S
O76 C91 1.245 . S
O77 Zn64 1.970 . S
O77 C91 1.263 . S
C78 O89 1.262 . S
C78 O90 1.245 . S
O79 Zn66 1.985 . S
O79 C97 1.245 . S
O80 Zn69 1.970 . S
O80 C97 1.263 . S
O81 Zn59 1.955 . S
O81 C100 1.276 . S
C82 O72 1.245 . S
C82 O73 1.263 . S
O83 Zn52 1.955 . S
O83 C102 1.276 . S
C84 O92 1.262 . S
C84 O93 1.245 . S
O85 C56 1.276 . S
O85 Zn62 1.955 . S
C86 O74 1.245 . S
C86 O75 1.263 . S
O87 Zn66 1.955 . S
O87 C70 1.276 . S
C88 O95 1.262 . S
C88 O96 1.245 . S
O89 Zn53 1.945 . S
O89 C78 1.262 . S
O90 Zn69 1.981 . S
O90 C78 1.245 . S
C91 O76 1.245 . S
C91 O77 1.263 . S
O92 Zn58 1.945 . S
O92 C84 1.262 . S
O93 Zn64 1.981 . S
O93 C84 1.245 . S
C94 O98 1.262 . S
C94 O99 1.245 . S
O95 Zn64 1.945 . S
O95 C88 1.262 . S
O96 Zn53 1.981 . S
O96 C88 1.245 . S
C97 O79 1.245 . S
C97 O80 1.263 . S
O98 Zn69 1.945 . S
O98 C94 1.262 . S
O99 Zn58 1.981 . S
O99 C94 1.245 . S
C100 O81 1.276 . S
C100 O101 1.246 . S
O101 C100 1.246 . S
C102 O83 1.276 . S
C102 O103 1.246 . S
O103 C102 1.246 . S
H104 C109 0.930 . S
H105 C112 0.930 . S
H106 C114 0.930 . S
H107 C108 1.016 . S
C108 H107 1.016 . S
C108 N115 1.286 1_554 S
C109 H104 0.930 . S
C109 C110 1.397 . S
C109 C111 1.361 1_556 S
C110 C109 1.397 . S
C110 C114 1.390 1_556 S
C111 C109 1.361 1_554 S
C111 C112 1.393 . S
C111 N115 1.413 1_554 S
C112 H105 0.930 . S
C112 C111 1.393 . S
C112 C113 1.399 . S
C113 C112 1.399 . S
C113 C114 1.381 . S
C114 H106 0.930 . S
C114 C110 1.390 1_554 S
C114 C113 1.381 . S
N115 C108 1.286 1_556 S
N115 C111 1.413 1_556 S
H116 C121 0.930 . S
H117 C124 0.930 . S
H118 C126 0.930 . S
H119 C120 1.016 . S
C120 H119 1.016 . S
C120 N127 1.286 1_554 S
C121 H116 0.930 . S
C121 C122 1.397 . S
C121 C123 1.361 1_556 S
C122 C121 1.397 . S
C122 C126 1.390 1_556 S
C123 C121 1.361 1_554 S
C123 C124 1.393 . S
C123 N127 1.413 1_554 S
C124 H117 0.930 . S
C124 C123 1.393 . S
C124 C125 1.399 . S
C125 C124 1.399 . S
C125 C126 1.381 . S
C126 H118 0.930 . S
C126 C122 1.390 1_554 S
C126 C125 1.381 . S
N127 C120 1.286 1_556 S
N127 C123 1.413 1_556 S
H128 C133 0.930 . S
H129 C136 0.930 . S
H130 C138 0.930 . S
H131 C132 1.009 1_556 S
C132 H131 1.009 1_554 S
C132 N139 1.291 . S
C133 H128 0.930 . S
C133 C134 1.397 . S
C133 C135 1.361 . S
C134 C133 1.397 . S
C134 C138 1.390 . S
C135 C133 1.361 . S
C135 C136 1.393 1_554 S
C135 N139 1.413 . S
C136 H129 0.930 . S
C136 C135 1.393 1_556 S
C136 C137 1.399 . S
C137 C136 1.399 . S
C137 C138 1.381 1_556 S
C138 H130 0.930 . S
C138 C134 1.390 . S
C138 C137 1.381 1_554 S
N139 C132 1.291 . S
N139 C135 1.413 . S
H140 C145 0.930 . S
H141 C148 0.930 . S
H142 C150 0.930 . S
H143 C144 1.016 . S
C144 H143 1.016 . S
C144 N151 1.286 1_554 S
C145 H140 0.930 . S
C145 C146 1.397 . S
C145 C147 1.363 . S
C146 C145 1.397 . S
C146 C150 1.390 1_556 S
C147 C145 1.363 . S
C147 C148 1.391 1_556 S
C147 N151 1.413 . S
C148 H141 0.930 . S
C148 C147 1.391 1_554 S
C148 C149 1.399 . S
C149 C148 1.399 . S
C149 C150 1.381 . S
C150 H142 0.930 . S
C150 C146 1.390 1_554 S
C150 C149 1.381 . S
N151 C144 1.286 1_556 S
N151 C147 1.413 . S
H152 C157 0.930 . S
H153 C160 0.930 . S
H154 C162 0.930 . S
H155 C156 1.016 . S
C156 H155 1.016 . S
C156 N163 1.286 . S
C157 H152 0.930 . S
C157 C158 1.397 . S
C157 C159 1.361 . S
C158 C157 1.397 . S
C158 C162 1.390 . S
C159 C157 1.361 . S
C159 C160 1.393 . S
C159 N163 1.413 . S
C160 H153 0.930 . S
C160 C159 1.393 . S
C160 C161 1.399 . S
C161 C160 1.399 . S
C161 C162 1.381 . S
C162 H154 0.930 . S
C162 C158 1.390 . S
C162 C161 1.381 . S
N163 C156 1.286 . S
N163 C159 1.413 . S
H164 C169 0.930 . S
H165 C172 0.930 . S
H166 C174 0.930 . S
H167 C168 1.016 . S
C168 H167 1.016 . S
C168 N175 1.286 . S
C169 H164 0.930 . S
C169 C170 1.397 . S
C169 C171 1.361 . S
C170 C169 1.397 . S
C170 C174 1.390 . S
C171 C169 1.361 . S
C171 C172 1.393 . S
C171 N175 1.413 . S
C172 H165 0.930 . S
C172 C171 1.393 . S
C172 C173 1.399 . S
C173 C172 1.399 . S
C173 C174 1.381 . S
C174 H166 0.930 . S
C174 C170 1.390 . S
C174 C173 1.381 . S
N175 C168 1.286 . S
N175 C171 1.413 . S
H176 C181 0.930 . S
H177 C184 0.930 . S
H178 C186 0.930 . S
H179 C180 1.016 . S
C180 H179 1.016 . S
C180 N187 1.286 . S
C181 H176 0.930 . S
C181 C182 1.397 . S
C181 C183 1.361 . S
C182 C181 1.397 . S
C182 C186 1.390 . S
C183 C181 1.361 . S
C183 C184 1.393 . S
C183 N187 1.413 . S
C184 H177 0.930 . S
C184 C183 1.393 . S
C184 C185 1.399 . S
C185 C184 1.399 . S
C185 C186 1.381 . S
C186 H178 0.930 . S
C186 C182 1.390 . S
C186 C185 1.381 . S
N187 C180 1.286 . S
N187 C183 1.413 . S
H188 C193 0.930 . S
H189 C196 0.930 . S
H190 C198 0.930 . S
H191 C192 1.016 . S
C192 H191 1.016 . S
C192 N199 1.286 . S
C193 H188 0.930 . S
C193 C194 1.397 . S
C193 C195 1.361 . S
C194 C193 1.397 . S
C194 C198 1.390 . S
C195 C193 1.361 . S
C195 C196 1.393 . S
C195 N199 1.413 . S
C196 H189 0.930 . S
C196 C195 1.393 . S
C196 C197 1.399 . S
C197 C196 1.399 . S
C197 C198 1.381 . S
C198 H190 0.930 . S
C198 C194 1.390 . S
C198 C197 1.381 . S
N199 C192 1.286 . S
N199 C195 1.413 . S
C200 C201 1.369 . S
C200 C202 1.419 . S
C200 H204 0.930 . S
C201 C200 1.369 . S
C201 C210 1.429 1_554 S
C202 C200 1.419 . S
C202 C203 1.363 . S
C202 H205 0.929 . S
C203 C202 1.363 . S
C203 C209 1.428 1_554 S
H204 C200 0.930 . S
H205 C202 0.929 . S
S206 N207 1.613 . S
S206 N208 1.610 . S
N207 S206 1.613 . S
N207 C210 1.350 . S
N208 S206 1.610 . S
N208 C209 1.351 . S
C209 C203 1.428 1_556 S
C209 N208 1.351 . S
C209 C210 1.434 . S
C210 C201 1.429 1_556 S
C210 N207 1.350 . S
C210 C209 1.434 . S
C211 C212 1.369 . S
C211 C213 1.419 . S
C211 H215 0.930 . S
C212 C211 1.369 . S
C212 C221 1.429 1_554 S
C213 C211 1.419 . S
C213 C214 1.363 . S
C213 H216 0.929 . S
C214 C213 1.363 . S
C214 C220 1.428 1_554 S
H215 C211 0.930 . S
H216 C213 0.929 . S
S217 N218 1.613 . S
S217 N219 1.610 . S
N218 S217 1.613 . S
N218 C221 1.350 . S
N219 S217 1.610 . S
N219 C220 1.351 . S
C220 C214 1.428 1_556 S
C220 N219 1.351 . S
C220 C221 1.434 . S
C221 C212 1.429 1_556 S
C221 N218 1.350 . S
C221 C220 1.434 . S
C222 C223 1.369 . S
C222 C224 1.419 . S
C222 H226 0.930 . S
C223 C222 1.369 . S
C223 C232 1.429 . S
C224 C222 1.419 . S
C224 C225 1.363 . S
C224 H227 0.929 . S
C225 C224 1.363 . S
C225 C231 1.428 . S
H226 C222 0.930 . S
H227 C224 0.929 . S
S228 N229 1.614 . S
S228 N230 1.610 . S
N229 S228 1.614 . S
N229 C232 1.350 . S
N230 S228 1.610 . S
N230 C231 1.351 . S
C231 C225 1.428 . S
C231 N230 1.351 . S
C231 C232 1.434 . S
C232 C223 1.429 . S
C232 N229 1.350 . S
C232 C231 1.434 . S
C233 C234 1.369 . S
C233 C235 1.419 . S
C233 H237 0.930 . S
C234 C233 1.369 . S
C234 C243 1.429 . S
C235 C233 1.419 . S
C235 C236 1.363 . S
C235 H238 0.929 . S
C236 C235 1.363 . S
C236 C242 1.428 . S
H237 C233 0.930 . S
H238 C235 0.929 . S
S239 N240 1.613 . S
S239 N241 1.610 . S
N240 S239 1.613 . S
N240 C243 1.350 . S
N241 S239 1.610 . S
N241 C242 1.351 . S
C242 C236 1.428 . S
C242 N241 1.351 . S
C242 C243 1.434 . S
C243 C234 1.429 . S
C243 N240 1.350 . S
C243 C242 1.434 . S
C244 C245 1.369 . S
C244 C246 1.419 . S
C244 H248 0.930 . S
C245 C244 1.369 . S
C245 C254 1.429 . S
C246 C244 1.419 . S
C246 C247 1.363 . S
C246 H249 0.929 . S
C247 C246 1.363 . S
C247 C253 1.428 . S
H248 C244 0.930 . S
H249 C246 0.929 . S
S250 N251 1.613 . S
S250 N252 1.610 . S
N251 S250 1.613 . S
N251 C254 1.350 . S
N252 S250 1.610 . S
N252 C253 1.351 . S
C253 C247 1.428 . S
C253 N252 1.351 . S
C253 C254 1.434 . S
C254 C245 1.429 . S
C254 N251 1.350 . S
C254 C253 1.434 . S
C255 C256 1.369 . S
C255 C257 1.419 . S
C255 H259 0.930 . S
C256 C255 1.369 . S
C256 C265 1.429 . S
C257 C255 1.419 . S
C257 C258 1.363 . S
C257 H260 0.929 . S
C258 C257 1.363 . S
C258 C264 1.428 . S
H259 C255 0.930 . S
H260 C257 0.929 . S
S261 N262 1.613 . S
S261 N263 1.610 . S
N262 S261 1.613 . S
N262 C265 1.350 . S
N263 S261 1.610 . S
N263 C264 1.351 . S
C264 C258 1.428 . S
C264 N263 1.351 . S
C264 C265 1.434 . S
C265 C256 1.429 . S
C265 N262 1.350 . S
C265 C264 1.434 . S
C266 C267 1.369 . S
C266 C268 1.419 . S
C266 H270 0.930 . S
C267 C266 1.369 . S
C267 C276 1.429 . S
C268 C266 1.419 . S
C268 C269 1.363 . S
C268 H271 0.929 . S
C269 C268 1.363 . S
C269 C275 1.428 . S
H270 C266 0.930 . S
H271 C268 0.929 . S
S272 N273 1.613 . S
S272 N274 1.610 . S
N273 S272 1.613 . S
N273 C276 1.350 . S
N274 S272 1.610 . S
N274 C275 1.351 . S
C275 C269 1.428 . S
C275 N274 1.351 . S
C275 C276 1.434 . S
C276 C267 1.429 . S
C276 N273 1.350 . S
C276 C275 1.434 . S
C277 C278 1.369 . S
C277 C279 1.419 . S
C277 H281 0.930 . S
C278 C277 1.369 . S
C278 C287 1.429 . S
C279 C277 1.419 . S
C279 C280 1.363 . S
C279 H282 0.929 . S
C280 C279 1.363 . S
C280 C286 1.428 . S
H281 C277 0.930 . S
H282 C279 0.929 . S
S283 N284 1.613 . S
S283 N285 1.610 . S
N284 S283 1.613 . S
N284 C287 1.350 . S
N285 S283 1.610 . S
N285 C286 1.351 . S
C286 C280 1.428 . S
C286 N285 1.351 . S
C286 C287 1.434 . S
C287 C278 1.429 . S
C287 N284 1.350 . S
C287 C286 1.434 . S
C288 C289 1.369 . S
C288 C290 1.419 . S
C288 H292 0.930 1_455 S
C289 C288 1.369 . S
C289 C298 1.429 . S
C290 C288 1.419 . S
C290 C291 1.363 . S
C290 H293 0.929 . S
C291 C290 1.363 . S
C291 C297 1.428 . S
H292 C288 0.930 1_655 S
H293 C290 0.929 . S
S294 N295 1.613 . S
S294 N296 1.610 . S
N295 S294 1.613 . S
N295 C298 1.350 . S
N296 S294 1.610 . S
N296 C297 1.351 . S
C297 C291 1.428 . S
C297 N296 1.351 . S
C297 C298 1.434 . S
C298 C289 1.429 . S
C298 N295 1.350 . S
C298 C297 1.434 . S
C299 C300 1.369 . S
C299 C301 1.419 . S
C299 H303 0.930 . S
C300 C299 1.369 . S
C300 C309 1.429 . S
C301 C299 1.419 . S
C301 C302 1.363 . S
C301 H304 0.929 . S
C302 C301 1.363 . S
C302 C308 1.428 . S
H303 C299 0.930 . S
H304 C301 0.929 . S
S305 N306 1.613 . S
S305 N307 1.610 . S
N306 S305 1.613 . S
N306 C309 1.350 . S
N307 S305 1.610 . S
N307 C308 1.351 . S
C308 C302 1.428 . S
C308 N307 1.351 . S
C308 C309 1.434 . S
C309 C300 1.429 . S
C309 N306 1.350 . S
C309 C308 1.434 . S
C310 C311 1.369 . S
C310 C312 1.419 . S
C310 H314 0.930 1_655 S
C311 C310 1.369 . S
C311 C320 1.429 . S
C312 C310 1.419 . S
C312 C313 1.363 . S
C312 H315 0.929 . S
C313 C312 1.363 . S
C313 C319 1.428 . S
H314 C310 0.930 1_455 S
H315 C312 0.929 . S
S316 N317 1.613 . S
S316 N318 1.610 . S
N317 S316 1.613 . S
N317 C320 1.350 . S
N318 S316 1.610 . S
N318 C319 1.351 . S
C319 C313 1.428 . S
C319 N318 1.351 . S
C319 C320 1.434 . S
C320 C311 1.429 . S
C320 N317 1.350 . S
C320 C319 1.434 . S
C321 C322 1.369 . S
C321 C323 1.419 . S
C321 H325 0.930 . S
C322 C321 1.369 . S
C322 C331 1.429 . S
C323 C321 1.419 . S
C323 C324 1.363 . S
C323 H326 0.929 . S
C324 C323 1.363 . S
C324 C330 1.428 . S
H325 C321 0.930 . S
H326 C323 0.929 . S
S327 N328 1.613 . S
S327 N329 1.610 . S
N328 S327 1.613 . S
N328 C331 1.350 . S
N329 S327 1.610 . S
N329 C330 1.351 . S
C330 C324 1.428 . S
C330 N329 1.351 . S
C330 C331 1.434 . S
C331 C322 1.429 . S
C331 N328 1.350 . S
C331 C330 1.434 . S
C332 C333 1.369 . S
C332 C334 1.419 . S
C332 H336 0.930 1_565 S
C333 C332 1.369 . S
C333 C342 1.429 . S
C334 C332 1.419 . S
C334 C335 1.363 . S
C334 H337 0.929 . S
C335 C334 1.363 . S
C335 C341 1.428 . S
H336 C332 0.930 1_545 S
H337 C334 0.929 . S
S338 N339 1.613 . S
S338 N340 1.610 . S
N339 S338 1.613 . S
N339 C342 1.350 . S
N340 S338 1.610 . S
N340 C341 1.351 . S
C341 C335 1.428 . S
C341 N340 1.351 . S
C341 C342 1.434 . S
C342 C333 1.429 . S
C342 N339 1.350 . S
C342 C341 1.434 . S
C343 C344 1.369 . S
C343 C345 1.419 . S
C343 H347 0.930 . S
C344 C343 1.369 . S
C344 C353 1.429 . S
C345 C343 1.419 . S
C345 C346 1.363 . S
C345 H348 0.929 . S
C346 C345 1.363 . S
C346 C352 1.428 . S
H347 C343 0.930 . S
H348 C345 0.929 . S
S349 N350 1.613 . S
S349 N351 1.610 . S
N350 S349 1.613 . S
N350 C353 1.350 . S
N351 S349 1.610 . S
N351 C352 1.351 . S
C352 C346 1.428 . S
C352 N351 1.351 . S
C352 C353 1.434 . S
C353 C344 1.429 . S
C353 N350 1.350 . S
C353 C352 1.434 . S
C354 C355 1.369 . S
C354 C356 1.419 . S
C354 H358 0.930 . S
C355 C354 1.369 . S
C355 C364 1.429 . S
C356 C354 1.419 . S
C356 C357 1.363 . S
C356 H359 0.929 . S
C357 C356 1.363 . S
C357 C363 1.428 . S
H358 C354 0.930 . S
H359 C356 0.929 . S
S360 N361 1.613 . S
S360 N362 1.610 . S
N361 S360 1.613 . S
N361 C364 1.350 . S
N362 S360 1.610 . S
N362 C363 1.351 . S
C363 C357 1.428 . S
C363 N362 1.351 . S
C363 C364 1.434 . S
C364 C355 1.429 . S
C364 N361 1.350 . S
C364 C363 1.434 . S
C365 C366 1.369 . S
C365 C367 1.419 . S
C365 H369 0.930 . S
C366 C365 1.369 . S
C366 C375 1.429 . S
C367 C365 1.419 . S
C367 C368 1.363 . S
C367 H370 0.929 . S
C368 C367 1.363 . S
C368 C374 1.428 . S
H369 C365 0.930 . S
H370 C367 0.929 . S
S371 N372 1.613 . S
S371 N373 1.610 . S
N372 S371 1.613 . S
N372 C375 1.350 . S
N373 S371 1.610 . S
N373 C374 1.351 . S
C374 C368 1.428 . S
C374 N373 1.351 . S
C374 C375 1.434 . S
C375 C366 1.429 . S
C375 N372 1.350 . S
C375 C374 1.434 . S
C376 C377 1.369 . S
C376 C378 1.419 . S
C376 H380 0.930 . S
C377 C376 1.369 . S
C377 C386 1.429 . S
C378 C376 1.419 . S
C378 C379 1.363 . S
C378 H381 0.929 . S
C379 C378 1.363 . S
C379 C385 1.428 . S
H380 C376 0.930 . S
H381 C378 0.929 . S
S382 N383 1.613 . S
S382 N384 1.610 . S
N383 S382 1.613 . S
N383 C386 1.350 . S
N384 S382 1.610 . S
N384 C385 1.351 . S
C385 C379 1.428 . S
C385 N384 1.351 . S
C385 C386 1.434 . S
C386 C377 1.429 . S
C386 N383 1.350 . S
C386 C385 1.434 . S
C387 C388 1.369 . S
C387 C389 1.419 . S
C387 H391 0.930 . S
C388 C387 1.369 . S
C388 C397 1.429 . S
C389 C387 1.419 . S
C389 C390 1.363 . S
C389 H392 0.929 . S
C390 C389 1.363 . S
C390 C396 1.428 . S
H391 C387 0.930 . S
H392 C389 0.929 . S
S393 N394 1.613 . S
S393 N395 1.610 . S
N394 S393 1.613 . S
N394 C397 1.350 . S
N395 S393 1.610 . S
N395 C396 1.351 . S
C396 C390 1.428 . S
C396 N395 1.351 . S
C396 C397 1.434 . S
C397 C388 1.429 . S
C397 N394 1.350 . S
C397 C396 1.434 . S
C398 C399 1.369 . S
C398 C400 1.419 . S
C398 H402 0.930 . S
C399 C398 1.369 . S
C399 C408 1.429 . S
C400 C398 1.419 . S
C400 C401 1.363 . S
C400 H403 0.929 . S
C401 C400 1.363 . S
C401 C407 1.428 . S
H402 C398 0.930 . S
H403 C400 0.929 . S
S404 N405 1.613 . S
S404 N406 1.610 . S
N405 S404 1.613 . S
N405 C408 1.350 . S
N406 S404 1.610 . S
N406 C407 1.351 . S
C407 C401 1.428 . S
C407 N406 1.351 . S
C407 C408 1.434 . S
C408 C399 1.429 . S
C408 N405 1.350 . S
C408 C407 1.434 . S
C409 C410 1.369 . S
C409 C411 1.419 . S
C409 H413 0.930 . S
C410 C409 1.369 . S
C410 C419 1.429 . S
C411 C409 1.419 . S
C411 C412 1.363 . S
C411 H414 0.929 . S
C412 C411 1.363 . S
C412 C418 1.428 . S
H413 C409 0.930 . S
H414 C411 0.929 . S
S415 N416 1.613 . S
S415 N417 1.610 . S
N416 S415 1.613 . S
N416 C419 1.350 . S
N417 S415 1.610 . S
N417 C418 1.351 . S
C418 C412 1.428 . S
C418 N417 1.351 . S
C418 C419 1.434 . S
C419 C410 1.429 . S
C419 N416 1.350 . S
C419 C418 1.434 . S
C420 C421 1.369 . S
C420 C422 1.419 . S
C420 H424 0.930 . S
C421 C420 1.369 . S
C421 C430 1.429 . S
C422 C420 1.419 . S
C422 C423 1.363 . S
C422 H425 0.929 . S
C423 C422 1.363 . S
C423 C429 1.428 . S
H424 C420 0.930 . S
H425 C422 0.929 . S
S426 N427 1.613 . S
S426 N428 1.610 . S
N427 S426 1.613 . S
N427 C430 1.350 . S
N428 S426 1.610 . S
N428 C429 1.351 . S
C429 C423 1.428 . S
C429 N428 1.351 . S
C429 C430 1.434 . S
C430 C421 1.429 . S
C430 N427 1.350 . S
C430 C429 1.434 . S
C431 C432 1.369 . S
C431 C433 1.419 . S
C431 H435 0.930 . S
C432 C431 1.369 . S
C432 C441 1.429 . S
C433 C431 1.419 . S
C433 C434 1.363 . S
C433 H436 0.929 . S
C434 C433 1.363 . S
C434 C440 1.428 . S
H435 C431 0.930 . S
H436 C433 0.929 . S
S437 N438 1.613 . S
S437 N439 1.610 . S
N438 S437 1.613 . S
N438 C441 1.350 . S
N439 S437 1.610 . S
N439 C440 1.351 . S
C440 C434 1.428 . S
C440 N439 1.351 . S
C440 C441 1.434 . S
C441 C432 1.429 . S
C441 N438 1.350 . S
C441 C440 1.434 . S
C442 C443 1.369 . S
C442 C444 1.419 . S
C442 H446 0.930 . S
C443 C442 1.369 . S
C443 C452 1.429 . S
C444 C442 1.419 . S
C444 C445 1.363 . S
C444 H447 0.929 . S
C445 C444 1.363 . S
C445 C451 1.428 . S
H446 C442 0.930 . S
H447 C444 0.929 . S
S448 N449 1.613 . S
S448 N450 1.610 . S
N449 S448 1.613 . S
N449 C452 1.350 . S
N450 S448 1.610 . S
N450 C451 1.351 . S
C451 C445 1.428 . S
C451 N450 1.351 . S
C451 C452 1.434 . S
C452 C443 1.429 . S
C452 N449 1.350 . S
C452 C451 1.434 . S
C453 C454 1.369 . S
C453 C455 1.419 . S
C453 H457 0.930 . S
C454 C453 1.369 . S
C454 C463 1.429 . S
C455 C453 1.419 . S
C455 C456 1.363 . S
C455 H458 0.929 . S
C456 C455 1.363 . S
C456 C462 1.428 . S
H457 C453 0.930 . S
H458 C455 0.929 . S
S459 N460 1.613 . S
S459 N461 1.610 . S
N460 S459 1.613 . S
N460 C463 1.350 . S
N461 S459 1.610 . S
N461 C462 1.351 . S
C462 C456 1.428 . S
C462 N461 1.351 . S
C462 C463 1.434 . S
C463 C454 1.429 . S
C463 N460 1.350 . S
C463 C462 1.434 . S
C201 C45 1.551 . S
C203 C108 1.559 . S
C212 C30 1.553 . S
C214 C120 1.567 . S
C223 C39 1.548 . S
C225 C132 1.553 . S
C236 C144 1.563 . S
C234 C34 1.548 . S
C245 C97 1.552 . S
C247 C156 1.560 . S
C258 C168 1.549 . S
C256 C82 1.552 . S
C269 C180 1.546 . S
C267 C91 1.553 . S
C280 C192 1.563 . S
C278 C86 1.553 . S
C291 C185 1.530 . S
C289 C26 1.487 . S
C302 C194 1.501 . S
C300 C36 1.458 . S
C313 C158 1.516 . S
C311 C32 1.487 . S
C324 C173 1.547 . S
C322 C42 1.509 . S
C333 C18 1.528 . S
C335 C170 1.609 . S
C346 C182 1.625 . S
C344 C50 1.543 . S
C355 C4 1.579 . S
C357 C197 1.620 . S
C366 C48 1.549 . S
C368 C161 1.610 . S
C379 C137 1.555 . S
C377 C78 1.505 . S
C388 C88 1.471 . S
C390 C146 1.507 . S
C401 C110 1.532 . S
C399 C84 1.502 . S
C412 C122 1.476 . S
C410 C94 1.436 . S
C423 C125 1.654 . S
C421 C70 1.597 . S
C434 C134 1.602 . S
C432 C102 1.528 . S
C443 C56 1.571 . S
C445 C149 1.612 . S
C454 C100 1.537 . S
C456 C113 1.591 . S
