# Generated by pormake.
# Topology rtl, (3,6)-cn, num edge types: 1
# Building blocks:
#     Node 0, Type 0, BuildingBlock: INOVEN_clean_linker_0, # of connection points: 3
#     Node 1, Type 0, BuildingBlock: INOVEN_clean_linker_0, # of connection points: 3
#     Node 2, Type 0, BuildingBlock: INOVEN_clean_linker_0, # of connection points: 3
#     Node 3, Type 0, BuildingBlock: INOVEN_clean_linker_0, # of connection points: 3
#     Node 4, Type 1, BuildingBlock: CIFDUS_clean_sbu_1, # of connection points: 6
#     Node 5, Type 1, BuildingBlock: CIFDUS_clean_sbu_1, # of connection points: 6
#     Edge 6, Type (0, 1), BuildingBlock: CIFDUS_clean_linker_0, # of connection points: 2
#     Edge 7, Type (0, 1), BuildingBlock: CIFDUS_clean_linker_0, # of connection points: 2
#     Edge 8, Type (0, 1), BuildingBlock: CIFDUS_clean_linker_0, # of connection points: 2
#     Edge 9, Type (0, 1), BuildingBlock: CIFDUS_clean_linker_0, # of connection points: 2
#     Edge 10, Type (0, 1), BuildingBlock: CIFDUS_clean_linker_0, # of connection points: 2
#     Edge 11, Type (0, 1), BuildingBlock: CIFDUS_clean_linker_0, # of connection points: 2
#     Edge 12, Type (0, 1), BuildingBlock: CIFDUS_clean_linker_0, # of connection points: 2
#     Edge 13, Type (0, 1), BuildingBlock: CIFDUS_clean_linker_0, # of connection points: 2
#     Edge 14, Type (0, 1), BuildingBlock: CIFDUS_clean_linker_0, # of connection points: 2
#     Edge 15, Type (0, 1), BuildingBlock: CIFDUS_clean_linker_0, # of connection points: 2
#     Edge 16, Type (0, 1), BuildingBlock: CIFDUS_clean_linker_0, # of connection points: 2
#     Edge 17, Type (0, 1), BuildingBlock: CIFDUS_clean_linker_0, # of connection points: 2
# Relax obj value: 0.016
# Max RMSD: 0.111
# Mean RMSD: 0.081
data_MOF--net-rtl--node1-CIFDUS_clean_sbu_1--node2-INOVEN_clean_linker_0--edge1-CIFDUS_clean_linker_0
_symmetry_space_group_name_H-M    P1
_symmetry_Int_Tables_number       1
_symmetry_cell_setting            triclinic
loop_
_symmetry_equiv_pos_as_xyz
'x, y, z'
_cell_length_a     30.627297
_cell_length_b     30.525135
_cell_length_c     18.919507
_cell_angle_alpha  90.743487
_cell_angle_beta   101.2412
_cell_angle_gamma 90.895611
loop_
_atom_site_label
_atom_site_type_symbol
_atom_site_fract_x
_atom_site_fract_y
_atom_site_fract_z
_atom_type_partial_charge
H0 H 0.21795 0.84234 1.00886 0.0
H1 H 0.17303 0.93793 0.14673 0.0
H2 H 0.25954 0.83533 0.2386 0.0
N3 N 0.26516 0.79625 0.11232 0.0
N4 N 0.29782 0.7827 0.15642 0.0
C5 C 0.21855 0.85653 0.06182 0.0
C6 C 0.19295 0.89362 0.06959 0.0
C7 C 0.2437 0.83622 0.12236 0.0
C8 C 0.24228 0.85244 0.19182 0.0
C9 C 0.21592 0.88865 0.20101 0.0
C10 C 0.19302 0.90987 0.13963 0.0
H11 H 0.70811 0.7625 0.73975 0.0
H12 H 0.62289 0.68357 0.57662 0.0
H13 H 0.70519 0.78624 0.51573 0.0
N14 N 0.74402 0.81128 0.64894 0.0
N15 N 0.74424 0.84436 0.61082 0.0
C16 C 0.69507 0.75433 0.68363 0.0
C17 C 0.66214 0.72108 0.66494 0.0
C18 C 0.71006 0.77839 0.62993 0.0
C19 C 0.69301 0.76807 0.55697 0.0
C20 C 0.66203 0.73347 0.53682 0.0
C21 C 0.6463 0.71068 0.59133 0.0
H22 H 0.78619 0.23488 0.88432 0.0
H23 H 0.86092 0.12509 0.9803 0.0
H24 H 0.80697 0.21674 0.1133 0.0
N25 N 0.77264 0.2703 1.00885 0.0
N26 N 0.74263 0.2859 0.96199 0.0
C27 C 0.79898 0.2154 0.93102 0.0
C28 C 0.82412 0.17795 0.92345 0.0
C29 C 0.79282 0.22954 0.99943 0.0
C30 C 0.81123 0.20546 0.06056 0.0
C31 C 0.83437 0.16668 0.05372 0.0
C32 C 0.84072 0.15342 0.98501 0.0
H33 H 0.32745 0.32761 0.36721 0.0
H34 H 0.42304 0.39238 0.53459 0.0
H35 H 0.3302 0.29684 0.58838 0.0
N36 N 0.28547 0.28304 0.45413 0.0
N37 N 0.27897 0.24851 0.48559 0.0
C38 C 0.34243 0.33231 0.42365 0.0
C39 C 0.37913 0.36123 0.44429 0.0
C40 C 0.32526 0.30859 0.47537 0.0
C41 C 0.34431 0.31465 0.54877 0.0
C42 C 0.37905 0.34561 0.57144 0.0
C43 C 0.39684 0.36795 0.51838 0.0
O44 O 0.98592 0.06196 0.46656 0.0
Mn45 Mn 0.02089 0.03349 0.56128 0.0
O46 O 0.96078 1.0053 0.39128 0.0
Mn47 Mn 0.98599 0.96041 0.4504 0.0
O48 O 0.05595 1.00467 0.65475 0.0
O49 O 0.05822 0.089 0.585 0.0
Mn50 Mn 0.05585 0.10551 0.67402 0.0
O51 O 0.97133 0.05556 0.61672 0.0
O52 O 0.08003 0.06009 0.7334 0.0
O53 O 0.07026 1.01151 0.50594 0.0
O54 O 0.04468 0.94851 0.44944 0.0
O55 O 0.09232 0.146 0.6423 0.0
O56 O 0.99741 0.11806 0.67435 0.0
C57 C 0.95713 0.94483 0.54112 0.0
C58 C 0.96402 0.04637 0.40597 0.0
C59 C 0.07694 0.0194 0.71623 0.0
C60 C 0.08544 0.12189 0.5843 0.0
C61 C 0.966 0.09045 0.65296 0.0
C62 C 0.07583 0.97652 0.47024 0.0
O63 O 0.98396 0.97779 0.53881 0.0
O64 O 0.94991 0.92016 0.48377 0.0
O65 O 0.54188 0.58897 0.13276 0.0
Mn66 Mn 0.52291 0.53777 0.05446 0.0
O67 O 0.6129 0.57914 0.18068 0.0
Mn68 Mn 0.60446 0.52028 0.16352 0.0
O69 O 0.50372 0.48656 0.97608 0.0
O70 O 0.46145 0.56686 0.03843 0.0
Mn71 Mn 0.44098 0.55546 0.9459 0.0
O72 O 0.54191 0.5772 0.97403 0.0
O73 O 0.43259 0.4966 0.92881 0.0
O74 O 0.50384 0.49849 0.13468 0.0
O75 O 0.56758 0.49134 0.21533 0.0
O76 O 0.3963 0.58491 0.97254 0.0
O77 O 0.47785 0.5843 0.89409 0.0
C78 C 0.62251 0.48841 0.07591 0.0
C79 C 0.5787 0.60244 0.17263 0.0
C80 C 0.46671 0.47318 0.93658 0.0
C81 C 0.42346 0.58688 0.03437 0.0
C82 C 0.51964 0.5915 0.91395 0.0
C83 C 0.52583 0.48415 0.19488 0.0
O84 O 0.58441 0.50845 0.07084 0.0
O85 O 0.64945 0.49093 0.13792 0.0
H86 H 0.26479 0.16373 0.50429 0.0
H87 H 0.19829 0.2844 0.4412 0.0
H88 H 0.12667 0.25044 0.44923 0.0
H89 H 0.08647 0.19135 0.49883 0.0
H90 H 0.15213 0.07019 0.56039 0.0
H91 H 0.22002 0.0983 0.5254 0.0
C92 C 0.2343 0.18195 0.49005 0.0
C93 C 0.23679 0.22645 0.47286 0.0
C94 C 0.19311 0.16202 0.49449 0.0
C95 C 0.19722 0.25003 0.45438 0.0
C96 C 0.15626 0.23067 0.45938 0.0
C97 C 0.1149 0.17031 0.50073 0.0
C98 C 0.11434 0.12872 0.53161 0.0
C99 C 0.15414 0.1873 0.48249 0.0
C100 C 0.15157 0.102 0.53546 0.0
C101 C 0.19071 0.11847 0.51685 0.0
H102 H 0.38388 0.76095 0.18355 0.0
H103 H 0.25079 0.70982 0.10827 0.0
H104 H 0.2802 0.63876 0.08256 0.0
H105 H 0.3429 0.59504 0.06489 0.0
H106 H 0.47627 0.64831 0.12053 0.0
H107 H 0.44853 0.71344 0.17401 0.0
C108 C 0.36161 0.73391 0.16228 0.0
C109 C 0.31535 0.74064 0.14646 0.0
C110 C 0.37901 0.69338 0.14502 0.0
C111 C 0.28651 0.70555 0.11925 0.0
C112 C 0.30332 0.6649 0.10504 0.0
C113 C 0.36609 0.62029 0.09101 0.0
C114 C 0.41165 0.61656 0.08985 0.0
C115 C 0.34941 0.65891 0.11555 0.0
C116 C 0.44131 0.64967 0.12289 0.0
C117 C 0.42517 0.68747 0.15172 0.0
H118 H 0.83028 0.83343 0.67773 0.0
H119 H 0.73836 0.92484 0.56175 0.0
H120 H 0.8001 0.97405 0.54906 0.0
H121 H 0.87959 0.98227 0.54687 0.0
H122 H 0.97141 0.8867 0.64979 0.0
H123 H 0.91132 0.84889 0.69435 0.0
C124 C 0.82384 0.86483 0.652 0.0
C125 C 0.77985 0.87575 0.62046 0.0
C126 C 0.85981 0.89213 0.64237 0.0
C127 C 0.77199 0.91609 0.58631 0.0
C128 C 0.80729 0.94406 0.57881 0.0
C129 C 0.88673 0.95459 0.58248 0.0
C130 C 0.92986 0.93761 0.59602 0.0
C131 C 0.85138 0.9314 0.60344 0.0
C132 C 0.93861 0.90089 0.64011 0.0
C133 C 0.904 0.87874 0.66428 0.0
H134 H 0.6577 0.31126 0.93057 0.0
H135 H 0.79202 0.35668 1.01332 0.0
H136 H 0.76515 0.42926 0.03715 0.0
H137 H 0.70378 0.47608 0.05032 0.0
H138 H 0.56861 0.42834 0.98814 0.0
H139 H 0.59468 0.36164 0.93676 0.0
C140 C 0.68081 0.33739 0.95311 0.0
C141 C 0.72664 0.32867 0.97144 0.0
C142 C 0.66479 0.37876 0.96935 0.0
C143 C 0.75659 0.36255 1.00034 0.0
C144 C 0.74124 0.40404 1.01346 0.0
C145 C 0.67989 0.45165 0.02337 0.0
C146 C 0.63426 0.45747 0.02199 0.0
C147 C 0.69544 0.41208 1.00024 0.0
C148 C 0.6037 0.42542 0.98774 0.0
C149 C 0.61884 0.38671 0.96013 0.0
H150 H 0.20907 0.97003 0.26108 0.0
H151 H 0.19683 0.83188 0.30104 0.0
H152 H 0.15959 0.84828 0.40041 0.0
H153 H 0.11724 0.90037 0.45857 0.0
H154 H 0.12509 0.03819 0.41536 0.0
H155 H 0.17765 0.02367 0.33581 0.0
C156 C 0.19911 0.94359 0.29262 0.0
C157 C 0.20518 0.89973 0.27265 0.0
C158 C 0.17633 0.95321 0.34864 0.0
C159 C 0.19286 0.86591 0.31503 0.0
C160 C 0.17101 0.87523 0.37153 0.0
C161 C 0.13161 0.92735 0.43345 0.0
C162 C 0.11714 0.97021 0.44224 0.0
C163 C 0.16064 0.91854 0.38632 0.0
C164 C 0.13606 1.00498 0.40992 0.0
C165 C 0.16564 0.99655 0.36361 0.0
H166 H 0.57571 0.70023 0.66294 0.0
H167 H 0.70658 0.68891 0.79467 0.0
H168 H 0.67491 0.64851 0.88473 0.0
H169 H 0.60912 0.61454 0.9247 0.0
H170 H 0.47927 0.62755 0.78816 0.0
H171 H 0.51159 0.66828 0.70214 0.0
C172 C 0.59749 0.68864 0.71103 0.0
C173 C 0.6435 0.69735 0.72146 0.0
C174 C 0.57916 0.66541 0.76218 0.0
C175 C 0.67096 0.68291 0.78518 0.0
C176 C 0.65286 0.65957 0.83662 0.0
C177 C 0.58795 0.62637 0.87625 0.0
C178 C 0.54164 0.61745 0.86365 0.0
C179 C 0.60686 0.65037 0.82562 0.0
C180 C 0.51494 0.63336 0.80016 0.0
C181 C 0.53336 0.6569 0.75034 0.0
H182 H 0.88416 0.19373 0.18478 0.0
H183 H 0.82597 0.07876 0.06544 0.0
H184 H 0.85992 0.03225 0.16407 0.0
H185 H 0.90785 0.02354 0.28112 0.0
H186 H 0.96797 0.13696 0.40305 0.0
H187 H 0.93133 0.18471 0.3068 0.0
C188 C 0.87856 0.15855 0.18093 0.0
C189 C 0.85272 0.13972 0.1175 0.0
C190 C 0.89871 0.13169 0.23803 0.0
C191 C 0.84607 0.09403 0.11314 0.0
C192 C 0.86543 0.0674 0.16959 0.0
C193 C 0.91315 0.05871 0.28717 0.0
C194 C 0.94105 0.07642 0.34949 0.0
C195 C 0.89223 0.08578 0.23177 0.0
C196 C 0.94684 0.12223 0.35586 0.0
C197 C 0.92588 0.14959 0.30071 0.0
H198 H 0.46268 0.36956 0.64836 0.0
H199 H 0.32591 0.35163 0.67158 0.0
H200 H 0.34451 0.37998 0.79407 0.0
H201 H 0.39596 0.42017 0.88796 0.0
H202 H 0.5307 0.44612 0.86286 0.0
H203 H 0.51699 0.40362 0.74971 0.0
C204 C 0.43698 0.37157 0.6803 0.0
C205 C 0.39279 0.35829 0.64968 0.0
C206 C 0.4476 0.38938 0.75104 0.0
C207 C 0.3603 0.36065 0.69301 0.0
C208 C 0.37081 0.37734 0.76338 0.0
C209 C 0.4228 0.41533 0.85887 0.0
C210 C 0.46436 0.43611 0.88423 0.0
C211 C 0.41391 0.393 0.7921 0.0
C212 C 0.49871 0.42973 0.84571 0.0
C213 C 0.49053 0.40615 0.78003 0.0
H214 H 0.57982 0.70564 0.46061 0.0
H215 H 0.71624 0.72742 0.43879 0.0
H216 H 0.69917 0.69744 0.31681 0.0
H217 H 0.64887 0.65602 0.22269 0.0
H218 H 0.51408 0.62816 0.2457 0.0
H219 H 0.52659 0.67052 0.35891 0.0
C220 C 0.60572 0.70409 0.42897 0.0
C221 C 0.64938 0.7188 0.45957 0.0
C222 C 0.59586 0.68589 0.35848 0.0
C223 C 0.68227 0.71701 0.41701 0.0
C224 C 0.67261 0.69955 0.34706 0.0
C225 C 0.62177 0.66041 0.25135 0.0
C226 C 0.58051 0.6392 0.22534 0.0
C227 C 0.62993 0.68288 0.318 0.0
C228 C 0.54581 0.64495 0.26333 0.0
C229 C 0.55331 0.66843 0.32904 0.0
H230 H 0.83116 0.09727 0.86038 0.0
H231 H 0.85104 0.23579 0.83135 0.0
H232 H 0.88893 0.22 0.73269 0.0
H233 H 0.928 0.1676 0.67008 0.0
H234 H 0.91309 0.02908 0.70202 0.0
H235 H 0.86116 0.04395 0.78279 0.0
C236 C 0.84322 0.12399 0.83173 0.0
C237 C 0.83861 0.16771 0.85422 0.0
C238 C 0.86623 0.11465 0.77579 0.0
C239 C 0.85368 0.20189 0.81537 0.0
C240 C 0.87582 0.19289 0.75915 0.0
C241 C 0.91234 0.14059 0.69312 0.0
C242 C 0.92471 0.09738 0.68092 0.0
C243 C 0.88387 0.1495 0.74104 0.0
C244 C 0.90396 0.06263 0.7104 0.0
C245 C 0.87475 0.07121 0.75737 0.0
H246 H 0.46662 0.3738 0.44173 0.0
H247 H 0.33568 0.40189 0.32182 0.0
H248 H 0.36865 0.44123 0.23237 0.0
H249 H 0.43561 0.46937 0.18951 0.0
H250 H 0.56578 0.43993 0.31298 0.0
H251 H 0.53218 0.40007 0.39895 0.0
C252 C 0.44521 0.38879 0.39633 0.0
C253 C 0.39875 0.38499 0.38894 0.0
C254 C 0.46434 0.41135 0.34529 0.0
C255 C 0.3716 0.40396 0.32879 0.0
C256 C 0.39046 0.42667 0.27768 0.0
C257 C 0.45657 0.45404 0.23498 0.0
C258 C 0.50332 0.45818 0.24432 0.0
C259 C 0.43693 0.43075 0.2854 0.0
C260 C 0.52977 0.43792 0.30397 0.0
C261 C 0.51061 0.41489 0.3536 0.0
H262 H 0.20868 0.90407 0.93192 0.0
H263 H 0.10994 0.92799 0.06221 0.0
H264 H 0.06538 0.96785 0.96455 0.0
H265 H 0.05581 0.99996 0.84409 0.0
H266 H 0.14976 0.97113 0.70861 0.0
H267 H 0.1941 0.92839 0.80523 0.0
C268 C 0.17713 0.91736 0.93878 0.0
C269 C 0.16385 0.91408 1.00595 0.0
C270 C 0.15056 0.93937 0.88111 0.0
C271 C 0.12245 0.93147 1.01283 0.0
C272 C 0.09644 0.95396 0.9565 0.0
C273 C 0.08564 0.98365 0.8356 0.0
C274 C 0.09969 0.98849 0.76983 0.0
C275 C 0.11051 0.95883 0.89093 0.0
C276 C 0.13829 0.96741 0.75892 0.0
C277 C 0.16372 0.94326 0.81427 0.0
loop_
_geom_bond_atom_site_label_1
_geom_bond_atom_site_label_2
_geom_bond_distance
_geom_bond_site_symmetry_2
_ccdc_geom_bond_type
H0 C5 0.929 1_556 S
H1 C10 0.931 . S
H2 C8 0.930 . S
N3 N4 1.234 . S
N3 C7 1.453 . S
N4 N3 1.234 . S
C5 H0 0.929 1_554 S
C5 C6 1.373 . S
C5 C7 1.368 . S
C6 C5 1.373 . S
C6 C10 1.397 . S
C7 N3 1.453 . S
C7 C5 1.368 . S
C7 C8 1.373 . S
C8 H2 0.930 . S
C8 C7 1.373 . S
C8 C9 1.371 . S
C9 C8 1.371 . S
C9 C10 1.383 . S
C10 H1 0.931 . S
C10 C6 1.397 . S
C10 C9 1.383 . S
H11 C16 0.929 . S
H12 C21 0.931 . S
H13 C19 0.930 . S
N14 N15 1.234 . S
N14 C18 1.453 . S
N15 N14 1.234 . S
C16 H11 0.929 . S
C16 C17 1.373 . S
C16 C18 1.368 . S
C17 C16 1.373 . S
C17 C21 1.397 . S
C18 N14 1.453 . S
C18 C16 1.368 . S
C18 C19 1.373 . S
C19 H13 0.930 . S
C19 C18 1.373 . S
C19 C20 1.371 . S
C20 C19 1.371 . S
C20 C21 1.383 . S
C21 H12 0.931 . S
C21 C17 1.397 . S
C21 C20 1.383 . S
H22 C27 0.929 . S
H23 C32 0.931 . S
H24 C30 0.930 . S
N25 N26 1.234 1_556 S
N25 C29 1.453 . S
N26 N25 1.234 1_554 S
C27 H22 0.929 . S
C27 C28 1.373 . S
C27 C29 1.368 . S
C28 C27 1.373 . S
C28 C32 1.397 1_556 S
C29 N25 1.453 . S
C29 C27 1.368 . S
C29 C30 1.373 1_556 S
C30 H24 0.930 . S
C30 C29 1.373 1_554 S
C30 C31 1.371 . S
C31 C30 1.371 . S
C31 C32 1.383 . S
C32 H23 0.931 . S
C32 C28 1.397 1_554 S
C32 C31 1.383 . S
H33 C38 0.929 . S
H34 C43 0.931 . S
H35 C41 0.930 . S
N36 N37 1.234 . S
N36 C40 1.453 . S
N37 N36 1.234 . S
C38 H33 0.929 . S
C38 C39 1.373 . S
C38 C40 1.368 . S
C39 C38 1.373 . S
C39 C43 1.397 . S
C40 N36 1.453 . S
C40 C38 1.368 . S
C40 C41 1.373 . S
C41 H35 0.930 . S
C41 C40 1.373 . S
C41 C42 1.371 . S
C42 C41 1.371 . S
C42 C43 1.383 . S
C43 H34 0.931 . S
C43 C39 1.397 . S
C43 C42 1.383 . S
O44 Mn45 2.163 1_655 S
O44 C58 1.244 . S
Mn45 O44 2.163 1_455 S
Mn45 O48 2.160 1_545 S
Mn45 O49 2.221 . S
Mn45 O51 2.163 1_455 S
Mn45 O53 2.160 1_545 S
Mn45 O63 2.221 1_445 S
O46 Mn47 2.087 1_545 S
O46 C58 1.256 . S
Mn47 O46 2.087 1_565 S
Mn47 O54 2.089 1_655 S
Mn47 O63 2.290 . S
Mn47 O64 2.251 . S
O48 Mn45 2.160 1_565 S
O48 C59 1.239 . S
O49 Mn45 2.221 . S
O49 Mn50 2.290 . S
O49 C60 1.278 . S
Mn50 O49 2.290 . S
Mn50 O52 2.089 . S
Mn50 O55 2.251 . S
Mn50 O56 2.087 . S
O51 Mn45 2.163 1_655 S
O51 C61 1.244 . S
O52 Mn50 2.089 . S
O52 C59 1.256 1_545 S
O53 Mn45 2.160 1_565 S
O53 C62 1.239 . S
O54 Mn47 2.089 1_455 S
O54 C62 1.256 . S
O55 Mn50 2.251 . S
O55 C60 1.241 . S
O56 Mn50 2.087 . S
O56 C61 1.256 1_455 S
C57 O63 1.278 . S
C57 O64 1.241 . S
C58 O44 1.244 . S
C58 O46 1.256 . S
C59 O48 1.239 . S
C59 O52 1.256 1_565 S
C60 O49 1.278 . S
C60 O55 1.241 . S
C61 O51 1.244 . S
C61 O56 1.256 1_655 S
C62 O53 1.239 . S
C62 O54 1.256 . S
O63 Mn45 2.221 1_665 S
O63 Mn47 2.290 . S
O63 C57 1.278 . S
O64 Mn47 2.251 . S
O64 C57 1.241 . S
O65 Mn66 2.163 . S
O65 C79 1.244 . S
Mn66 O65 2.163 . S
Mn66 O69 2.160 1_554 S
Mn66 O70 2.221 . S
Mn66 O72 2.163 1_554 S
Mn66 O74 2.160 . S
Mn66 O84 2.221 . S
O67 Mn68 2.087 . S
O67 C79 1.256 . S
Mn68 O67 2.087 . S
Mn68 O75 2.089 . S
Mn68 O84 2.290 . S
Mn68 O85 2.251 . S
O69 Mn66 2.160 1_556 S
O69 C80 1.239 . S
O70 Mn66 2.221 . S
O70 Mn71 2.290 1_554 S
O70 C81 1.278 . S
Mn71 O70 2.290 1_556 S
Mn71 O73 2.089 . S
Mn71 O76 2.251 . S
Mn71 O77 2.087 . S
O72 Mn66 2.163 1_556 S
O72 C82 1.244 . S
O73 Mn71 2.089 . S
O73 C80 1.256 . S
O74 Mn66 2.160 . S
O74 C83 1.239 . S
O75 Mn68 2.089 . S
O75 C83 1.256 . S
O76 Mn71 2.251 . S
O76 C81 1.241 1_556 S
O77 Mn71 2.087 . S
O77 C82 1.256 . S
C78 O84 1.278 . S
C78 O85 1.241 . S
C79 O65 1.244 . S
C79 O67 1.256 . S
C80 O69 1.239 . S
C80 O73 1.256 . S
C81 O70 1.278 . S
C81 O76 1.241 1_554 S
C82 O72 1.244 . S
C82 O77 1.256 . S
C83 O74 1.239 . S
C83 O75 1.256 . S
O84 Mn66 2.221 . S
O84 Mn68 2.290 . S
O84 C78 1.278 . S
O85 Mn68 2.251 . S
O85 C78 1.241 . S
H86 C92 0.930 . S
H87 C95 0.930 . S
H88 C96 0.930 . S
H89 C97 0.930 . S
H90 C100 0.930 . S
H91 C101 0.930 . S
C92 H86 0.930 . S
C92 C93 1.355 . S
C92 C94 1.415 . S
C93 C92 1.355 . S
C93 C95 1.419 . S
C94 C92 1.415 . S
C94 C99 1.425 . S
C94 C101 1.409 . S
C95 H87 0.930 . S
C95 C93 1.419 . S
C95 C96 1.362 . S
C96 H88 0.930 . S
C96 C95 1.362 . S
C96 C99 1.409 . S
C97 H89 0.930 . S
C97 C98 1.355 . S
C97 C99 1.415 . S
C98 C97 1.355 . S
C98 C100 1.419 . S
C99 C94 1.425 . S
C99 C96 1.409 . S
C99 C97 1.415 . S
C100 H90 0.930 . S
C100 C98 1.419 . S
C100 C101 1.362 . S
C101 H91 0.930 . S
C101 C94 1.409 . S
C101 C100 1.362 . S
H102 C108 0.930 . S
H103 C111 0.930 . S
H104 C112 0.930 . S
H105 C113 0.930 . S
H106 C116 0.930 . S
H107 C117 0.930 . S
C108 H102 0.930 . S
C108 C109 1.355 . S
C108 C110 1.415 . S
C109 C108 1.355 . S
C109 C111 1.419 . S
C110 C108 1.415 . S
C110 C115 1.425 . S
C110 C117 1.409 . S
C111 H103 0.930 . S
C111 C109 1.419 . S
C111 C112 1.362 . S
C112 H104 0.930 . S
C112 C111 1.362 . S
C112 C115 1.409 . S
C113 H105 0.930 . S
C113 C114 1.355 . S
C113 C115 1.415 . S
C114 C113 1.355 . S
C114 C116 1.419 . S
C115 C110 1.425 . S
C115 C112 1.409 . S
C115 C113 1.415 . S
C116 H106 0.930 . S
C116 C114 1.419 . S
C116 C117 1.362 . S
C117 H107 0.930 . S
C117 C110 1.409 . S
C117 C116 1.362 . S
H118 C124 0.930 . S
H119 C127 0.930 . S
H120 C128 0.930 . S
H121 C129 0.930 . S
H122 C132 0.930 . S
H123 C133 0.930 . S
C124 H118 0.930 . S
C124 C125 1.355 . S
C124 C126 1.415 . S
C125 C124 1.355 . S
C125 C127 1.419 . S
C126 C124 1.415 . S
C126 C131 1.425 . S
C126 C133 1.409 . S
C127 H119 0.930 . S
C127 C125 1.419 . S
C127 C128 1.362 . S
C128 H120 0.930 . S
C128 C127 1.362 . S
C128 C131 1.409 . S
C129 H121 0.930 . S
C129 C130 1.355 . S
C129 C131 1.415 . S
C130 C129 1.355 . S
C130 C132 1.419 . S
C131 C126 1.425 . S
C131 C128 1.409 . S
C131 C129 1.415 . S
C132 H122 0.930 . S
C132 C130 1.419 . S
C132 C133 1.362 . S
C133 H123 0.930 . S
C133 C126 1.409 . S
C133 C132 1.362 . S
H134 C140 0.930 . S
H135 C143 0.930 . S
H136 C144 0.930 . S
H137 C145 0.930 . S
H138 C148 0.930 . S
H139 C149 0.930 . S
C140 H134 0.930 . S
C140 C141 1.355 . S
C140 C142 1.415 . S
C141 C140 1.355 . S
C141 C143 1.419 1_554 S
C142 C140 1.415 . S
C142 C147 1.425 . S
C142 C149 1.409 . S
C143 H135 0.930 . S
C143 C141 1.419 1_556 S
C143 C144 1.362 . S
C144 H136 0.930 . S
C144 C143 1.362 . S
C144 C147 1.409 1_556 S
C145 H137 0.930 . S
C145 C146 1.355 . S
C145 C147 1.415 . S
C146 C145 1.355 . S
C146 C148 1.419 . S
C147 C142 1.425 . S
C147 C144 1.409 1_554 S
C147 C145 1.415 . S
C148 H138 0.930 . S
C148 C146 1.419 . S
C148 C149 1.362 . S
C149 H139 0.930 . S
C149 C142 1.409 . S
C149 C148 1.362 . S
H150 C156 0.930 . S
H151 C159 0.930 . S
H152 C160 0.930 . S
H153 C161 0.930 . S
H154 C164 0.930 1_545 S
H155 C165 0.947 . S
C156 H150 0.930 . S
C156 C157 1.355 . S
C156 C158 1.415 . S
C157 C156 1.355 . S
C157 C159 1.419 . S
C158 C156 1.415 . S
C158 C163 1.425 . S
C158 C165 1.409 . S
C159 H151 0.930 . S
C159 C157 1.419 . S
C159 C160 1.362 . S
C160 H152 0.930 . S
C160 C159 1.362 . S
C160 C163 1.409 . S
C161 H153 0.930 . S
C161 C162 1.355 . S
C161 C163 1.415 . S
C162 C161 1.355 . S
C162 C164 1.419 . S
C163 C158 1.425 . S
C163 C160 1.409 . S
C163 C161 1.415 . S
C164 H154 0.930 1_565 S
C164 C162 1.419 . S
C164 C165 1.362 . S
C165 H155 0.947 . S
C165 C158 1.409 . S
C165 C164 1.362 . S
H166 C172 0.930 . S
H167 C175 0.930 . S
H168 C176 0.930 . S
H169 C177 0.930 . S
H170 C180 0.930 . S
H171 C181 0.930 . S
C172 H166 0.930 . S
C172 C173 1.355 . S
C172 C174 1.415 . S
C173 C172 1.355 . S
C173 C175 1.419 . S
C174 C172 1.415 . S
C174 C179 1.425 . S
C174 C181 1.409 . S
C175 H167 0.930 . S
C175 C173 1.419 . S
C175 C176 1.362 . S
C176 H168 0.930 . S
C176 C175 1.362 . S
C176 C179 1.409 . S
C177 H169 0.930 . S
C177 C178 1.355 . S
C177 C179 1.415 . S
C178 C177 1.355 . S
C178 C180 1.419 . S
C179 C174 1.425 . S
C179 C176 1.409 . S
C179 C177 1.415 . S
C180 H170 0.930 . S
C180 C178 1.419 . S
C180 C181 1.362 . S
C181 H171 0.930 . S
C181 C174 1.409 . S
C181 C180 1.362 . S
H182 C188 0.930 . S
H183 C191 0.930 . S
H184 C192 0.930 . S
H185 C193 0.930 . S
H186 C196 0.930 . S
H187 C197 0.930 . S
C188 H182 0.930 . S
C188 C189 1.355 . S
C188 C190 1.415 . S
C189 C188 1.355 . S
C189 C191 1.419 . S
C190 C188 1.415 . S
C190 C195 1.425 . S
C190 C197 1.409 . S
C191 H183 0.930 . S
C191 C189 1.419 . S
C191 C192 1.362 . S
C192 H184 0.930 . S
C192 C191 1.362 . S
C192 C195 1.409 . S
C193 H185 0.930 . S
C193 C194 1.355 . S
C193 C195 1.415 . S
C194 C193 1.355 . S
C194 C196 1.419 . S
C195 C190 1.425 . S
C195 C192 1.409 . S
C195 C193 1.415 . S
C196 H186 0.930 . S
C196 C194 1.419 . S
C196 C197 1.362 . S
C197 H187 0.930 . S
C197 C190 1.409 . S
C197 C196 1.362 . S
H198 C204 0.930 . S
H199 C207 0.930 . S
H200 C208 0.930 . S
H201 C209 0.930 . S
H202 C212 0.930 . S
H203 C213 0.930 . S
C204 H198 0.930 . S
C204 C205 1.355 . S
C204 C206 1.415 . S
C205 C204 1.355 . S
C205 C207 1.419 . S
C206 C204 1.415 . S
C206 C211 1.425 . S
C206 C213 1.409 . S
C207 H199 0.930 . S
C207 C205 1.419 . S
C207 C208 1.362 . S
C208 H200 0.930 . S
C208 C207 1.362 . S
C208 C211 1.409 . S
C209 H201 0.930 . S
C209 C210 1.355 . S
C209 C211 1.415 . S
C210 C209 1.355 . S
C210 C212 1.419 . S
C211 C206 1.425 . S
C211 C208 1.409 . S
C211 C209 1.415 . S
C212 H202 0.930 . S
C212 C210 1.419 . S
C212 C213 1.362 . S
C213 H203 0.930 . S
C213 C206 1.409 . S
C213 C212 1.362 . S
H214 C220 0.930 . S
H215 C223 0.930 . S
H216 C224 0.930 . S
H217 C225 0.930 . S
H218 C228 0.930 . S
H219 C229 0.930 . S
C220 H214 0.930 . S
C220 C221 1.355 . S
C220 C222 1.415 . S
C221 C220 1.355 . S
C221 C223 1.419 . S
C222 C220 1.415 . S
C222 C227 1.425 . S
C222 C229 1.409 . S
C223 H215 0.930 . S
C223 C221 1.419 . S
C223 C224 1.362 . S
C224 H216 0.930 . S
C224 C223 1.362 . S
C224 C227 1.409 . S
C225 H217 0.930 . S
C225 C226 1.355 . S
C225 C227 1.415 . S
C226 C225 1.355 . S
C226 C228 1.419 . S
C227 C222 1.425 . S
C227 C224 1.409 . S
C227 C225 1.415 . S
C228 H218 0.930 . S
C228 C226 1.419 . S
C228 C229 1.362 . S
C229 H219 0.930 . S
C229 C222 1.409 . S
C229 C228 1.362 . S
H230 C236 0.930 . S
H231 C239 0.930 . S
H232 C240 0.930 . S
H233 C241 0.930 . S
H234 C244 0.930 . S
H235 C245 0.930 . S
C236 H230 0.930 . S
C236 C237 1.355 . S
C236 C238 1.415 . S
C237 C236 1.355 . S
C237 C239 1.419 . S
C238 C236 1.415 . S
C238 C243 1.425 . S
C238 C245 1.409 . S
C239 H231 0.930 . S
C239 C237 1.419 . S
C239 C240 1.362 . S
C240 H232 0.930 . S
C240 C239 1.362 . S
C240 C243 1.409 . S
C241 H233 0.930 . S
C241 C242 1.355 . S
C241 C243 1.415 . S
C242 C241 1.355 . S
C242 C244 1.419 . S
C243 C238 1.425 . S
C243 C240 1.409 . S
C243 C241 1.415 . S
C244 H234 0.930 . S
C244 C242 1.419 . S
C244 C245 1.362 . S
C245 H235 0.930 . S
C245 C238 1.409 . S
C245 C244 1.362 . S
H246 C252 0.930 . S
H247 C255 0.930 . S
H248 C256 0.930 . S
H249 C257 0.930 . S
H250 C260 0.930 . S
H251 C261 0.930 . S
C252 H246 0.930 . S
C252 C253 1.355 . S
C252 C254 1.415 . S
C253 C252 1.355 . S
C253 C255 1.419 . S
C254 C252 1.415 . S
C254 C259 1.425 . S
C254 C261 1.409 . S
C255 H247 0.930 . S
C255 C253 1.419 . S
C255 C256 1.362 . S
C256 H248 0.930 . S
C256 C255 1.362 . S
C256 C259 1.409 . S
C257 H249 0.930 . S
C257 C258 1.355 . S
C257 C259 1.415 . S
C258 C257 1.355 . S
C258 C260 1.419 . S
C259 C254 1.425 . S
C259 C256 1.409 . S
C259 C257 1.415 . S
C260 H250 0.930 . S
C260 C258 1.419 . S
C260 C261 1.362 . S
C261 H251 0.930 . S
C261 C254 1.409 . S
C261 C260 1.362 . S
H262 C268 0.930 . S
H263 C271 0.930 . S
H264 C272 0.930 . S
H265 C273 0.930 . S
H266 C276 0.930 1_545 S
H267 C277 0.930 . S
C268 H262 0.930 . S
C268 C269 1.355 . S
C268 C270 1.415 . S
C269 C268 1.355 . S
C269 C271 1.419 . S
C270 C268 1.415 . S
C270 C275 1.425 . S
C270 C277 1.409 . S
C271 H263 0.930 . S
C271 C269 1.419 . S
C271 C272 1.362 . S
C272 H264 0.930 . S
C272 C271 1.362 . S
C272 C275 1.409 . S
C273 H265 0.930 . S
C273 C274 1.355 . S
C273 C275 1.415 . S
C274 C273 1.355 . S
C274 C276 1.419 . S
C275 C270 1.425 . S
C275 C272 1.409 . S
C275 C273 1.415 . S
C276 H266 0.930 1_565 S
C276 C274 1.419 . S
C276 C277 1.362 . S
C277 H267 0.930 . S
C277 C270 1.409 . S
C277 C276 1.362 . S
C98 C60 1.202 . S
C93 N37 1.446 . S
C109 N4 1.469 . S
C114 C81 1.304 . S
C125 N15 1.570 . S
C130 C57 1.413 . S
C141 N26 1.586 . S
C146 C78 1.331 . S
C162 C62 1.498 . S
C157 C9 1.520 . S
C178 C82 1.499 . S
C173 C17 1.601 . S
C189 C31 1.593 . S
C194 C58 1.554 . S
C205 C42 1.517 . S
C210 C80 1.482 . S
C226 C79 1.492 . S
C221 C20 1.509 . S
C242 C61 1.492 . S
C237 C28 1.510 . S
C258 C83 1.384 . S
C253 C39 1.447 . S
C269 C6 1.436 1_556 S
C274 C59 1.370 . S
