# Generated by pormake.
# Topology pts, (4,4)-cn, num edge types: 1
# Building blocks:
#     Node 0, Type 0, BuildingBlock: NAHDIM_clean_linker_0, # of connection points: 4
#     Node 1, Type 0, BuildingBlock: NAHDIM_clean_linker_0, # of connection points: 4
#     Node 2, Type 1, BuildingBlock: AZAVOO_clean_sbu_0, # of connection points: 4
#     Node 3, Type 1, BuildingBlock: AZAVOO_clean_sbu_0, # of connection points: 4
#     Edge 4, Type (0, 1), BuildingBlock: EZIPEK_clean_linker_0, # of connection points: 2
#     Edge 5, Type (0, 1), BuildingBlock: EZIPEK_clean_linker_0, # of connection points: 2
#     Edge 6, Type (0, 1), BuildingBlock: EZIPEK_clean_linker_0, # of connection points: 2
#     Edge 7, Type (0, 1), BuildingBlock: EZIPEK_clean_linker_0, # of connection points: 2
#     Edge 8, Type (0, 1), BuildingBlock: EZIPEK_clean_linker_0, # of connection points: 2
#     Edge 9, Type (0, 1), BuildingBlock: EZIPEK_clean_linker_0, # of connection points: 2
#     Edge 10, Type (0, 1), BuildingBlock: EZIPEK_clean_linker_0, # of connection points: 2
#     Edge 11, Type (0, 1), BuildingBlock: EZIPEK_clean_linker_0, # of connection points: 2
# Relax obj value: 0.017
# Max RMSD: 0.067
# Mean RMSD: 0.061
data_MOF--net-pts--node1-AZAVOO_clean_sbu_0--node2-NAHDIM_clean_linker_0--edge1-EZIPEK_clean_linker_0
_symmetry_space_group_name_H-M    P1
_symmetry_Int_Tables_number       1
_symmetry_cell_setting            triclinic
loop_
_symmetry_equiv_pos_as_xyz
'x, y, z'
_cell_length_a     25.6278
_cell_length_b     26.204457
_cell_length_c     42.830128
_cell_angle_alpha  90.551747
_cell_angle_beta   95.755093
_cell_angle_gamma 89.876153
loop_
_atom_site_label
_atom_site_type_symbol
_atom_site_fract_x
_atom_site_fract_y
_atom_site_fract_z
_atom_type_partial_charge
C0 C 0.83175 0.17629 0.16671 0.0
C1 C 0.81829 0.11912 0.16799 0.0
C2 C 0.75746 0.08614 0.12526 0.0
C3 C 0.75094 0.04056 0.10821 0.0
C4 C 0.70133 0.02541 0.09447 0.0
C5 C 0.65771 0.05815 0.09656 0.0
C6 C 0.66423 0.1046 0.11367 0.0
C7 C 0.714 0.11783 0.12814 0.0
C8 C 0.69582 0.97468 0.07748 0.0
C9 C 0.61882 0.14066 0.11625 0.0
C10 C 0.35738 0.90456 0.20745 0.0
C11 C 0.35095 0.94823 0.18379 0.0
C12 C 0.40195 0.9521 0.13837 0.0
C13 C 0.40748 0.005 0.13558 0.0
C14 C 0.4454 0.02536 0.11772 0.0
C15 C 0.47813 0.99196 0.10227 0.0
C16 C 0.47212 0.93854 0.10481 0.0
C17 C 0.43355 0.91934 0.12254 0.0
C18 C 0.44994 0.08248 0.11488 0.0
C19 C 0.50618 0.90176 0.0886 0.0
C20 C 0.32267 0.99354 0.90635 0.0
C21 C 0.33406 0.04357 0.91713 0.0
C22 C 0.38445 0.0565 0.9308 0.0
C23 C 0.42404 0.0187 0.93401 0.0
C24 C 0.41303 0.96865 0.92272 0.0
C25 C 0.36255 0.95691 0.90882 0.0
C26 C 0.39537 0.11052 0.94214 0.0
C27 C 0.4543 0.92737 0.92593 0.0
C28 C 0.82351 0.15497 0.89892 0.0
C29 C 0.78698 0.10933 0.89111 0.0
C30 C 0.69304 0.10853 0.89725 0.0
C31 C 0.65404 0.14325 0.9037 0.0
C32 C 0.61103 0.1278 0.91916 0.0
C33 C 0.60675 0.07611 0.92778 0.0
C34 C 0.64438 0.04017 0.91941 0.0
C35 C 0.68715 0.0568 0.90415 0.0
C36 C 0.57123 0.16695 0.92732 0.0
C37 C 0.64009 0.98446 0.92735 0.0
C38 C 0.60589 0.04492 0.07972 0.0
C39 C 0.56686 0.02606 0.0971 0.0
C40 C 0.5174 0.01276 0.08255 0.0
C41 C 0.50641 0.01802 0.04971 0.0
C42 C 0.45702 0.00525 0.03435 0.0
C43 C 0.44691 0.00963 0.00197 0.0
C44 C 0.48581 0.02691 0.98366 0.0
C45 C 0.47611 0.03095 0.95068 0.0
C46 C 0.51601 0.04707 0.93306 0.0
C47 C 0.56543 0.06036 0.94764 0.0
C48 C 0.57535 0.05806 0.9807 0.0
C49 C 0.62396 0.07301 0.99621 0.0
C50 C 0.63369 0.06972 0.02865 0.0
C51 C 0.59558 0.05043 0.04684 0.0
C52 C 0.54586 0.03638 0.03178 0.0
C53 C 0.53564 0.04051 0.99869 0.0
C54 C 0.19407 0.97428 0.91653 0.0
C55 C 0.2262 0.00167 0.8933 0.0
O56 O 0.80624 0.09892 0.13816 0.0
O57 O 0.73576 0.12624 0.88444 0.0
O58 O 0.27483 0.97853 0.8928 0.0
O59 O 0.36529 0.93128 0.15511 0.0
H60 H 0.78339 0.11892 0.18145 0.0
H61 H 0.79523 0.19896 0.16191 0.0
H62 H 0.85669 0.18527 0.14785 0.0
H63 H 0.85151 0.18956 0.18962 0.0
H64 H 0.78482 0.01636 0.10621 0.0
H65 H 0.71911 0.15348 0.14102 0.0
H66 H 0.66005 0.95446 0.0833 0.0
H67 H 0.7304 0.94969 0.0834 0.0
H68 H 0.69193 0.98109 0.05178 0.0
H69 H 0.63145 0.17751 0.1276 0.0
H70 H 0.58995 0.12265 0.13035 0.0
H71 H 0.5986 0.14843 0.09261 0.0
H72 H 0.38019 0.97632 0.19377 0.0
H73 H 0.34719 0.91798 0.23078 0.0
H74 H 0.39883 0.8914 0.21008 0.0
H75 H 0.33227 0.87137 0.19995 0.0
H76 H 0.38133 0.0303 0.14658 0.0
H77 H 0.42829 0.87851 0.12448 0.0
H78 H 0.44445 0.09332 0.08976 0.0
H79 H 0.48984 0.09487 0.12437 0.0
H80 H 0.42068 0.10327 0.12767 0.0
H81 H 0.49928 0.86146 0.09487 0.0
H82 H 0.54821 0.911 0.09489 0.0
H83 H 0.498 0.90566 0.06279 0.0
H84 H 0.2295 0.04032 0.90354 0.0
H85 H 0.30461 0.07309 0.9149 0.0
H86 H 0.35364 0.91856 0.90021 0.0
H87 H 0.4055 0.11076 0.96796 0.0
H88 H 0.36129 0.13625 0.93647 0.0
H89 H 0.42961 0.12591 0.93134 0.0
H90 H 0.43973 0.89048 0.91547 0.0
H91 H 0.46742 0.92148 0.95114 0.0
H92 H 0.48906 0.93938 0.91432 0.0
H93 H 0.78969 0.08874 0.91355 0.0
H94 H 0.86395 0.14127 0.90619 0.0
H95 H 0.80982 0.17728 0.91874 0.0
H96 H 0.82511 0.18098 0.87881 0.0
H97 H 0.65846 0.18296 0.89765 0.0
H98 H 0.71584 0.02947 0.8976 0.0
H99 H 0.57072 0.16913 0.9532 0.0
H100 H 0.53147 0.15517 0.91717 0.0
H101 H 0.5797 0.20551 0.91854 0.0
H102 H 0.66959 0.96064 0.91662 0.0
H103 H 0.60025 0.97008 0.91921 0.0
H104 H 0.64593 0.97991 0.95321 0.0
H105 H 0.57516 0.02146 0.12226 0.0
H106 H 0.42559 0.99157 0.04716 0.0
H107 H 0.40823 -0.00104 0.99147 0.0
H108 H 0.50848 0.04938 0.90773 0.0
H109 H 0.65509 0.08753 0.98347 0.0
H110 H 0.67175 0.08208 0.03921 0.0
H111 H 0.15429 0.99144 0.91591 0.0
H112 H 0.21371 0.97891 0.94072 0.0
H113 H 0.18991 0.93284 0.91174 0.0
C114 C 0.08648 0.32404 0.69436 0.0
C115 C 0.03956 0.30842 0.67091 0.0
C116 C 0.0486 0.35071 0.62143 0.0
C117 C 0.99795 0.37005 0.6137 0.0
C118 C 0.98916 0.41029 0.59248 0.0
C119 C 0.03219 0.43265 0.57943 0.0
C120 C 0.08348 0.41341 0.5874 0.0
C121 C 0.09073 0.37161 0.60767 0.0
C122 C 0.93382 0.42916 0.58428 0.0
C123 C 0.13073 0.43743 0.57508 0.0
C124 C 0.02372 0.81916 0.66399 0.0
C125 C 0.03959 0.77537 0.6448 0.0
C126 C 0.0016 0.71083 0.60803 0.0
C127 C 0.04965 0.68812 0.60259 0.0
C128 C 0.05109 0.64244 0.58547 0.0
C129 C 0.00355 0.61823 0.57416 0.0
C130 C 0.95507 0.64059 0.57984 0.0
C131 C 0.95478 0.6872 0.59628 0.0
C132 C 0.10356 0.61991 0.57958 0.0
C133 C 0.90374 0.61507 0.56876 0.0
C134 C 0.93828 0.67296 0.35807 0.0
C135 C 0.9914 0.67376 0.36973 0.0
C136 C 0.01139 0.63852 0.39232 0.0
C137 C 0.97724 0.6024 0.4037 0.0
C138 C 0.92304 0.60358 0.39334 0.0
C139 C 0.90419 0.63932 0.37078 0.0
C140 C 0.06908 0.63915 0.40357 0.0
C141 C 0.88543 0.56586 0.40523 0.0
C142 C 0.2128 0.29982 0.34298 0.0
C143 C 0.16169 0.29375 0.35847 0.0
C144 C 0.10509 0.36322 0.37178 0.0
C145 C 0.13558 0.39107 0.39488 0.0
C146 C 0.1121 0.42588 0.41429 0.0
C147 C 0.05675 0.43166 0.41093 0.0
C148 C 0.02588 0.40172 0.38842 0.0
C149 C 0.05067 0.36858 0.36866 0.0
C150 C 0.14676 0.45825 0.43717 0.0
C151 C 0.96686 0.40592 0.38443 0.0
C152 C 0.02353 0.47816 0.55917 0.0
C153 C 0.01504 0.52481 0.57393 0.0
C154 C 0.00529 0.56931 0.55665 0.0
C155 C 0.00232 0.56735 0.52356 0.0
C156 C 0.99005 0.61098 0.50536 0.0
C157 C 0.98736 0.60862 0.47279 0.0
C158 C 0.99933 0.5632 0.45735 0.0
C159 C 0.99842 0.5607 0.42439 0.0
C160 C 0.0164 0.51693 0.41008 0.0
C161 C 0.03223 0.47392 0.42761 0.0
C162 C 0.02771 0.47365 0.46023 0.0
C163 C 0.03743 0.42935 0.47812 0.0
C164 C 0.03433 0.43019 0.51043 0.0
C165 C 0.02361 0.47587 0.52614 0.0
C166 C 0.01271 0.5207 0.50834 0.0
C167 C 0.01306 0.51912 0.47528 0.0
C168 C 0.90321 0.7184 0.27933 0.0
C169 C 0.94357 0.71601 0.30829 0.0
O170 O 0.05751 0.31105 0.64145 0.0
O171 O 0.12771 0.33377 0.35081 0.0
O172 O 0.91871 0.70382 0.33449 0.0
O173 O 0.99891 0.7549 0.6248 0.0
H174 H 0.00729 0.33624 0.67307 0.0
H175 H 0.1033 0.36051 0.68692 0.0
H176 H 0.11765 0.29439 0.69505 0.0
H177 H 0.07555 0.33052 0.71843 0.0
H178 H 0.96508 0.35314 0.62383 0.0
H179 H 0.12964 0.35611 0.61369 0.0
H180 H 0.9291 0.46701 0.59552 0.0
H181 H 0.90421 0.40277 0.59238 0.0
H182 H 0.92575 0.43396 0.55851 0.0
H183 H 0.16808 0.42366 0.58763 0.0
H184 H 0.12912 0.47965 0.57738 0.0
H185 H 0.13099 0.42794 0.5498 0.0
H186 H 0.07551 0.78268 0.63283 0.0
H187 H 0.03487 0.79217 0.70926 0.0
H188 H 0.9844 0.83244 0.65286 0.0
H189 H 0.04592 0.85288 0.65605 0.0
H190 H 0.0863 0.70586 0.61142 0.0
H191 H 0.91792 0.70485 0.6007 0.0
H192 H 0.10455 0.61161 0.55417 0.0
H193 H 0.1094 0.58328 0.59227 0.0
H194 H 0.13673 0.6457 0.5875 0.0
H195 H 0.86962 0.63541 0.57712 0.0
H196 H 0.90395 0.5751 0.57716 0.0
H197 H 0.89874 0.61369 0.54273 0.0
H198 H 0.96774 0.68302 0.30258 0.0
H199 H 0.01723 0.70185 0.36135 0.0
H200 H 0.86301 0.63981 0.36204 0.0
H201 H 0.07452 0.64056 0.42961 0.0
H202 H 0.08966 0.67215 0.39428 0.0
H203 H 0.08764 0.60341 0.39595 0.0
H204 H 0.84426 0.57262 0.39537 0.0
H205 H 0.88752 0.56829 0.43122 0.0
H206 H 0.89688 0.52648 0.39892 0.0
H207 H 0.17577 0.29555 0.38377 0.0
H208 H 0.23987 0.26779 0.34993 0.0
H209 H 0.23237 0.336 0.3512 0.0
H210 H 0.2069 0.30074 0.31706 0.0
H211 H 0.17788 0.38729 0.39665 0.0
H212 H 0.02767 0.34685 0.35054 0.0
H213 H 0.14063 0.44754 0.46152 0.0
H214 H 0.13645 0.49924 0.43427 0.0
H215 H 0.18903 0.45337 0.43412 0.0
H216 H 0.94847 0.37236 0.37168 0.0
H217 H 0.95534 0.4406 0.37072 0.0
H218 H 0.95111 0.40954 0.40758 0.0
H219 H 0.01693 0.52669 0.59935 0.0
H220 H 0.98178 0.64731 0.51607 0.0
H221 H 0.97713 0.64315 0.45987 0.0
H222 H 0.01833 0.51646 0.38487 0.0
H223 H 0.04714 0.39356 0.46724 0.0
H224 H 0.04167 0.39489 0.52304 0.0
H225 H 0.92314 0.72728 0.25815 0.0
H226 H 0.87239 0.74746 0.28176 0.0
H227 H 0.88353 0.68079 0.27547 0.0
Mg228 Mg 0.09791 0.98803 0.28077 0.0
O229 O 0.02372 0.01335 0.25019 0.0
O230 O 0.96205 0.0266 0.28285 0.0
Mg231 Mg 0.99354 -0.00065 0.33228 0.0
C232 C 0.97777 0.02785 0.25547 0.0
C233 C 0.14789 0.98449 0.2171 0.0
O234 O 0.11445 0.94652 0.21312 0.0
O235 O 0.10677 0.06749 0.30213 0.0
O236 O 0.04666 0.07015 0.33657 0.0
O237 O 0.07814 0.90698 0.27107 0.0
O238 O 0.05208 0.95036 0.31129 0.0
C239 C 0.08453 0.09 0.32375 0.0
C240 C 0.05138 0.90836 0.29514 0.0
O241 O 0.1498 0.00952 0.24275 0.0
Mg242 Mg 0.96929 0.00078 0.74136 0.0
O243 O 0.04237 0.0051 0.77675 0.0
O244 O 0.1126 0.00186 0.74954 0.0
Mg245 Mg 0.08417 0.98683 0.69777 0.0
C246 C 0.09184 0.00597 0.77529 0.0
C247 C 0.89041 0.0061 0.79276 0.0
O248 O 0.88738 0.95695 0.78658 0.0
O249 O 0.98508 0.08036 0.72388 0.0
O250 O 0.0525 0.06894 0.69516 0.0
O251 O 0.96605 0.9164 0.74686 0.0
O252 O 0.01011 0.9546 0.71194 0.0
C253 C 0.01799 0.09736 0.70609 0.0
C254 C 0.9969 0.91289 0.72483 0.0
O255 O 0.92001 0.03405 0.77807 0.0
C256 C 0.2511 0.93714 0.16865 0.0
C257 C 0.29415 0.96872 0.18113 0.0
C258 C 0.23056 0.02696 0.20277 0.0
C259 C 0.19161 0.98925 0.19653 0.0
N260 N 0.15681 0.93092 0.15637 0.0
N261 N 0.32165 0.05113 0.20392 0.0
C262 C 0.1992 0.95133 0.17393 0.0
C263 C 0.28277 0.01648 0.19573 0.0
N264 N 0.25903 0.89194 0.15361 0.0
N265 N 0.21629 0.07392 0.21319 0.0
H266 H 0.3576 0.05108 0.19466 0.0
H267 H 0.31806 0.08108 0.21968 0.0
H268 H 0.17714 0.08322 0.21524 0.0
H269 H 0.24129 0.10518 0.21618 0.0
H270 H 0.22941 0.86504 0.14858 0.0
H271 H 0.29503 0.87887 0.14773 0.0
H272 H 0.15987 0.90615 0.13746 0.0
H273 H 0.11894 0.94486 0.15782 0.0
C274 C 0.01129 0.24229 0.7094 0.0
C275 C 0.0192 0.25458 0.67803 0.0
C276 C 0.00728 0.16359 0.66393 0.0
C277 C 0.01457 0.15152 0.69638 0.0
N278 N 0.02609 0.18017 0.75049 0.0
N279 N 1.00029 0.22861 0.62382 0.0
C280 C 0.0165 0.19101 0.71929 0.0
C281 C 0.01011 0.21563 0.6546 0.0
N282 N 0.9962 0.27922 0.72933 0.0
N283 N 0.99484 0.12552 0.64235 0.0
H284 H 0.98668 0.26471 0.61719 0.0
H285 H 0.00184 0.20345 0.60502 0.0
H286 H 0.989 0.08776 0.64861 0.0
H287 H 0.98717 0.13094 0.61834 0.0
H288 H 0.98573 0.27132 0.75168 0.0
H289 H 0.98794 0.31647 0.72199 0.0
H290 H 0.03322 0.20844 0.76768 0.0
H291 H 0.03183 0.14324 0.75899 0.0
C292 C 0.84827 0.04644 0.20548 0.0
C293 C 0.86145 0.08655 0.18552 0.0
C294 C 0.95334 0.08108 0.20697 0.0
C295 C 0.93978 0.04416 0.22883 0.0
N296 N 0.87995 0.97717 0.23942 0.0
N297 N 0.93023 0.11535 0.15535 0.0
C298 C 0.88873 0.0225 0.22536 0.0
C299 C 0.91521 0.09576 0.18243 0.0
N300 N 0.7975 0.0304 0.20509 0.0
N301 N 0.00153 0.10374 0.20995 0.0
H302 H 0.90384 0.11977 0.13539 0.0
H303 H 0.96943 0.11955 0.1513 0.0
H304 H 0.03105 0.0948 0.22752 0.0
H305 H 0.01048 0.13461 0.19626 0.0
H306 H 0.78436 0.00746 0.22241 0.0
H307 H 0.7682 0.04019 0.18752 0.0
H308 H 0.8449 0.95696 0.23583 0.0
H309 H 0.91006 0.95653 0.25161 0.0
C310 C 0.97904 0.75393 0.68621 0.0
C311 C 0.04667 0.75002 0.67387 0.0
C312 C 0.08164 0.85033 0.70872 0.0
C313 C 0.01279 0.86269 0.71337 0.0
N314 N 0.91192 0.82421 0.70855 0.0
N315 N 0.15158 0.77982 0.68736 0.0
C316 C 0.96224 0.81452 0.70359 0.0
C317 C 0.10123 0.79094 0.6913 0.0
N318 N 0.9437 0.71643 0.67919 0.0
N319 N 0.11852 0.88378 0.72031 0.0
H320 H 0.16045 0.74627 0.67566 0.0
H321 H 0.18208 0.80402 0.69583 0.0
H322 H 0.10784 0.91492 0.73333 0.0
H323 H 0.15819 0.87752 0.71823 0.0
H324 H 0.90531 0.71965 0.68501 0.0
H325 H 0.95495 0.68307 0.66816 0.0
H326 H 0.88265 0.79723 0.70279 0.0
H327 H 0.90086 0.85917 0.71761 0.0
C328 C 0.17848 0.95637 0.8451 0.0
C329 C 0.19779 0.00255 0.85987 0.0
C330 C 0.15291 0.05106 0.81577 0.0
C331 C 0.12702 0.00574 0.80474 0.0
N332 N 0.11097 0.91573 0.80998 0.0
N333 N 0.21263 0.09335 0.8551 0.0
C334 C 0.13858 0.95861 0.81974 0.0
C335 C 0.18782 0.04983 0.8439 0.0
N336 N 0.20027 0.91036 0.85384 0.0
N337 N 0.14508 0.09486 0.79876 0.0
H338 H 0.24692 0.09299 0.87033 0.0
H339 H 0.20054 0.12998 0.84858 0.0
H340 H 0.11851 0.09721 0.77871 0.0
H341 H 0.16616 0.1284 0.80336 0.0
H342 H 0.1914 0.87653 0.84149 0.0
H343 H 0.23171 0.90621 0.87095 0.0
H344 H 0.11324 0.88179 0.82252 0.0
H345 H 0.08246 0.91507 0.7908 0.0
C346 C 0.11487 0.23125 0.31773 0.0
C347 C 0.13379 0.24312 0.34955 0.0
C348 C 0.11913 0.15449 0.3642 0.0
C349 C 0.10054 0.14272 0.33275 0.0
N350 N 0.06523 0.17276 0.282 0.0
N351 N 0.12728 0.22053 0.40384 0.0
C352 C 0.09402 0.18191 0.31015 0.0
C353 C 0.1281 0.20616 0.37313 0.0
N354 N 0.11611 0.26672 0.29462 0.0
N355 N 0.12928 0.11641 0.38552 0.0
H356 H 0.12565 0.25852 0.4111 0.0
H357 H 0.11961 0.19504 0.42134 0.0
H358 H 0.12358 0.07788 0.37987 0.0
H359 H 0.14797 0.12296 0.40796 0.0
H360 H 0.11116 0.25742 0.27081 0.0
H361 H 0.12373 0.30526 0.29874 0.0
H362 H 0.05395 0.20109 0.26582 0.0
H363 H 0.0477 0.13764 0.27617 0.0
C364 C 0.80142 0.09685 0.83247 0.0
C365 C 0.80559 0.07747 0.86386 0.0
C366 C 0.86667 0.01163 0.8481 0.0
C367 C 0.85963 0.02901 0.81682 0.0
N368 N 0.80915 0.07858 0.77753 0.0
N369 N 0.82862 0.00362 0.89684 0.0
C370 C 0.82352 0.06863 0.80849 0.0
C371 C 0.83391 0.03097 0.8703 0.0
N372 N 0.77836 0.14296 0.82526 0.0
N373 N 0.90612 0.97807 0.85714 0.0
H374 H 0.8024 0.01233 0.91309 0.0
H375 H 0.84514 0.96755 0.9006 0.0
H376 H 0.93165 0.96341 0.84181 0.0
H377 H 0.91681 0.96889 0.88055 0.0
H378 H 0.78146 0.16115 0.804 0.0
H379 H 0.75953 0.16561 0.84069 0.0
H380 H 0.77845 0.10305 0.76996 0.0
H381 H 0.82411 0.0584 0.75929 0.0
C382 C 0.9478 0.81357 0.31649 0.0
C383 C 0.97471 0.76626 0.31292 0.0
C384 C 0.05543 0.81563 0.30815 0.0
C385 C 0.02546 0.86103 0.30472 0.0
N386 N 0.94191 0.90305 0.30599 0.0
N387 N 0.05804 0.72397 0.30613 0.0
C388 C 0.97164 0.85996 0.30934 0.0
C389 C 0.02971 0.76772 0.30925 0.0
N390 N 0.8985 0.81639 0.32569 0.0
N391 N 0.10901 0.81847 0.31204 0.0
H392 H 0.04632 0.68772 0.31208 0.0
H393 H 0.09446 0.72378 0.29728 0.0
H394 H 0.1293 0.85301 0.31269 0.0
H395 H 0.13314 0.78739 0.31824 0.0
H396 H 0.87694 0.78558 0.3326 0.0
H397 H 0.87694 0.78558 0.3326 0.0
H398 H 0.90199 0.90387 0.30902 0.0
H399 H 0.95658 0.93694 0.2983 0.0
loop_
_geom_bond_atom_site_label_1
_geom_bond_atom_site_label_2
_geom_bond_distance
_geom_bond_site_symmetry_2
_ccdc_geom_bond_type
C0 C1 1.560 . S
C0 H61 0.959 . S
C0 H62 0.959 . S
C0 H63 0.960 . S
C1 C0 1.560 . S
C1 O56 1.426 . S
C1 H60 0.980 . S
C2 C3 1.407 1_545 S
C2 C7 1.418 . S
C2 O56 1.334 . S
C3 C2 1.407 1_565 S
C3 C4 1.360 . S
C3 H64 0.929 . S
C4 C3 1.360 . S
C4 C5 1.401 1_565 S
C4 C8 1.527 . S
C5 C4 1.401 1_545 S
C5 C6 1.405 . S
C5 C38 1.587 1_545 S
C6 C5 1.405 . S
C6 C7 1.332 . S
C6 C9 1.496 . S
C7 C2 1.418 . S
C7 C6 1.332 . S
C7 H65 0.929 . S
C8 C4 1.527 . S
C8 H66 0.959 . S
C8 H67 0.961 . S
C8 H68 0.961 . S
C9 C6 1.496 . S
C9 H69 0.960 . S
C9 H70 0.960 . S
C9 H71 0.961 . S
C10 C11 1.517 . S
C10 H73 0.961 1_565 S
C10 H74 0.960 . S
C10 H75 0.959 . S
C11 C10 1.517 . S
C11 O59 1.468 . S
C11 H72 0.980 1_565 S
C12 C13 1.349 1_565 S
C12 C17 1.367 . S
C12 O59 1.408 . S
C13 C12 1.349 1_545 S
C13 C14 1.407 . S
C13 H76 0.930 . S
C14 C13 1.407 . S
C14 C15 1.449 1_545 S
C14 C18 1.535 . S
C15 C14 1.449 1_565 S
C15 C16 1.384 . S
C15 C40 1.553 . S
C16 C15 1.384 . S
C16 C17 1.364 . S
C16 C19 1.450 . S
C17 C12 1.367 . S
C17 C16 1.364 . S
C17 H77 0.931 . S
C18 C14 1.535 . S
C18 H78 0.959 . S
C18 H79 0.961 . S
C18 H80 0.959 . S
C19 C16 1.450 . S
C19 H81 0.960 . S
C19 H82 0.960 . S
C19 H83 0.960 . S
C20 C21 1.309 1_565 S
C20 C25 1.304 . S
C20 O58 1.435 . S
C21 C20 1.309 1_545 S
C21 C22 1.476 . S
C21 H85 0.930 . S
C22 C21 1.476 . S
C22 C23 1.400 1_545 S
C22 C26 1.567 . S
C23 C22 1.400 1_565 S
C23 C24 1.373 . S
C23 C45 1.432 . S
C24 C23 1.373 . S
C24 C25 1.339 . S
C24 C27 1.530 . S
C25 C20 1.304 . S
C25 C24 1.339 . S
C25 H86 0.930 . S
C26 C22 1.567 . S
C26 H87 0.961 . S
C26 H88 0.960 . S
C26 H89 0.958 . S
C27 C24 1.530 . S
C27 H90 0.961 . S
C27 H91 0.960 . S
C27 H92 0.960 . S
C28 C29 1.530 . S
C28 H94 0.961 . S
C28 H95 0.961 . S
C28 H96 0.959 . S
C29 C28 1.530 . S
C29 O57 1.412 . S
C29 H93 0.980 . S
C30 C31 1.288 . S
C30 C35 1.377 1_545 S
C30 O57 1.393 . S
C31 C30 1.288 . S
C31 C32 1.369 . S
C31 H97 0.932 . S
C32 C31 1.369 . S
C32 C33 1.398 . S
C32 C36 1.527 . S
C33 C32 1.398 . S
C33 C34 1.380 1_545 S
C33 C47 1.497 . S
C34 C33 1.380 1_565 S
C34 C35 1.383 . S
C34 C37 1.603 . S
C35 C30 1.377 1_565 S
C35 C34 1.383 . S
C35 H98 0.929 . S
C36 C32 1.527 . S
C36 H99 0.961 . S
C36 H100 0.959 . S
C36 H101 0.959 . S
C37 C34 1.603 . S
C37 H102 0.960 . S
C37 H103 0.962 . S
C37 H104 0.961 . S
C38 C5 1.587 1_565 S
C38 C39 1.360 . S
C38 C51 1.412 . S
C39 C38 1.360 . S
C39 C40 1.365 . S
C39 H105 0.929 . S
C40 C15 1.553 . S
C40 C39 1.365 . S
C40 C41 1.404 . S
C41 C40 1.404 . S
C41 C42 1.395 . S
C41 C52 1.451 . S
C42 C41 1.395 . S
C42 C43 1.322 1_554 S
C42 H106 0.930 . S
C43 C42 1.322 1_556 S
C43 C44 1.459 . S
C43 H107 0.929 . S
C44 C43 1.459 . S
C44 C45 1.445 . S
C44 C53 1.395 . S
C45 C23 1.432 . S
C45 C44 1.445 . S
C45 C46 1.370 . S
C46 C45 1.370 . S
C46 C47 1.438 1_565 S
C46 H108 0.930 . S
C47 C33 1.497 . S
C47 C46 1.438 1_545 S
C47 C48 1.360 1_545 S
C48 C47 1.360 1_565 S
C48 C49 1.401 1_565 S
C48 C53 1.446 . S
C49 C48 1.401 1_545 S
C49 C50 1.347 1_556 S
C49 H109 0.929 . S
C50 C49 1.347 1_554 S
C50 C51 1.455 1_545 S
C50 H110 0.930 . S
C51 C38 1.412 . S
C51 C50 1.455 1_565 S
C51 C52 1.331 . S
C52 C41 1.451 . S
C52 C51 1.331 . S
C52 C53 1.497 1_554 S
C53 C44 1.395 . S
C53 C48 1.446 . S
C53 C52 1.497 1_556 S
C54 C55 1.572 1_565 S
C54 H111 0.962 . S
C54 H112 0.959 . S
C54 H113 0.958 . S
C55 C54 1.572 1_545 S
C55 O58 1.443 1_545 S
C55 H84 0.986 . S
O56 C1 1.426 . S
O56 C2 1.334 . S
O57 C29 1.412 . S
O57 C30 1.393 . S
O58 C20 1.435 . S
O58 C55 1.443 1_565 S
O59 C11 1.468 . S
O59 C12 1.408 . S
H60 C1 0.980 . S
H61 C0 0.959 . S
H62 C0 0.959 . S
H63 C0 0.960 . S
H64 C3 0.929 . S
H65 C7 0.929 . S
H66 C8 0.959 . S
H67 C8 0.961 . S
H68 C8 0.961 . S
H69 C9 0.960 . S
H70 C9 0.960 . S
H71 C9 0.961 . S
H72 C11 0.980 1_545 S
H73 C10 0.961 1_545 S
H74 C10 0.960 . S
H75 C10 0.959 . S
H76 C13 0.930 . S
H77 C17 0.931 . S
H78 C18 0.959 . S
H79 C18 0.961 . S
H80 C18 0.959 . S
H81 C19 0.960 . S
H82 C19 0.960 . S
H83 C19 0.960 . S
H84 C55 0.986 . S
H85 C21 0.930 . S
H86 C25 0.930 . S
H87 C26 0.961 . S
H88 C26 0.960 . S
H89 C26 0.958 . S
H90 C27 0.961 . S
H91 C27 0.960 . S
H92 C27 0.960 . S
H93 C29 0.980 . S
H94 C28 0.961 . S
H95 C28 0.961 . S
H96 C28 0.959 . S
H97 C31 0.932 . S
H98 C35 0.929 . S
H99 C36 0.961 . S
H100 C36 0.959 . S
H101 C36 0.959 . S
H102 C37 0.960 . S
H103 C37 0.962 . S
H104 C37 0.961 . S
H105 C39 0.929 . S
H106 C42 0.930 . S
H107 C43 0.929 . S
H108 C46 0.930 . S
H109 C49 0.929 . S
H110 C50 0.930 . S
H111 C54 0.962 . S
H112 C54 0.959 . S
H113 C54 0.958 . S
C114 C115 1.560 . S
C114 H175 0.959 . S
C114 H176 0.959 . S
C114 H177 0.960 . S
C115 C114 1.560 . S
C115 O170 1.426 . S
C115 H174 0.980 . S
C116 C117 1.407 . S
C116 C121 1.418 . S
C116 O170 1.334 . S
C117 C116 1.407 . S
C117 C118 1.360 1_455 S
C117 H178 0.929 1_455 S
C118 C117 1.360 1_655 S
C118 C119 1.401 1_655 S
C118 C122 1.527 . S
C119 C118 1.401 1_455 S
C119 C120 1.405 . S
C119 C152 1.587 . S
C120 C119 1.405 . S
C120 C121 1.332 . S
C120 C123 1.496 . S
C121 C116 1.418 . S
C121 C120 1.332 . S
C121 H179 0.929 . S
C122 C118 1.527 . S
C122 H180 0.959 . S
C122 H181 0.961 . S
C122 H182 0.961 . S
C123 C120 1.496 . S
C123 H183 0.960 . S
C123 H184 0.960 . S
C123 H185 0.961 . S
C124 C125 1.517 . S
C124 H187 0.961 1_655 S
C124 H188 0.960 . S
C124 H189 0.959 . S
C125 C124 1.517 . S
C125 O173 1.468 . S
C125 H186 0.980 1_655 S
C126 C127 1.349 1_655 S
C126 C131 1.367 . S
C126 O173 1.408 . S
C127 C126 1.349 1_455 S
C127 C128 1.407 . S
C127 H190 0.930 . S
C128 C127 1.407 . S
C128 C129 1.449 1_455 S
C128 C132 1.535 . S
C129 C128 1.449 1_655 S
C129 C130 1.384 . S
C129 C154 1.553 . S
C130 C129 1.384 . S
C130 C131 1.364 . S
C130 C133 1.450 . S
C131 C126 1.367 . S
C131 C130 1.364 . S
C131 H191 0.931 . S
C132 C128 1.535 . S
C132 H192 0.959 . S
C132 H193 0.961 . S
C132 H194 0.959 . S
C133 C130 1.450 . S
C133 H195 0.960 . S
C133 H196 0.960 . S
C133 H197 0.960 . S
C134 C135 1.309 . S
C134 C139 1.304 1_455 S
C134 O172 1.435 . S
C135 C134 1.309 . S
C135 C136 1.476 . S
C135 H199 0.930 . S
C136 C135 1.476 . S
C136 C137 1.400 . S
C136 C140 1.567 . S
C137 C136 1.400 . S
C137 C138 1.373 1_455 S
C137 C159 1.432 . S
C138 C137 1.373 1_655 S
C138 C139 1.339 . S
C138 C141 1.530 . S
C139 C134 1.304 1_655 S
C139 C138 1.339 . S
C139 H200 0.930 . S
C140 C136 1.567 . S
C140 H201 0.961 . S
C140 H202 0.960 . S
C140 H203 0.958 . S
C141 C138 1.530 . S
C141 H204 0.961 . S
C141 H205 0.960 . S
C141 H206 0.960 . S
C142 C143 1.530 . S
C142 H208 0.961 . S
C142 H209 0.961 . S
C142 H210 0.959 . S
C143 C142 1.530 . S
C143 O171 1.412 . S
C143 H207 0.980 . S
C144 C145 1.288 . S
C144 C149 1.377 . S
C144 O171 1.393 . S
C145 C144 1.288 . S
C145 C146 1.369 . S
C145 H211 0.932 . S
C146 C145 1.369 . S
C146 C147 1.398 . S
C146 C150 1.527 . S
C147 C146 1.398 . S
C147 C148 1.380 . S
C147 C161 1.497 . S
C148 C147 1.380 . S
C148 C149 1.383 . S
C148 C151 1.603 1_455 S
C149 C144 1.377 . S
C149 C148 1.383 . S
C149 H212 0.929 . S
C150 C146 1.527 . S
C150 H213 0.961 . S
C150 H214 0.959 . S
C150 H215 0.959 . S
C151 C148 1.603 1_655 S
C151 H216 0.960 . S
C151 H217 0.962 . S
C151 H218 0.961 . S
C152 C119 1.587 . S
C152 C153 1.360 1_455 S
C152 C165 1.412 . S
C153 C152 1.360 1_655 S
C153 C154 1.365 . S
C153 H219 0.929 . S
C154 C129 1.553 . S
C154 C153 1.365 . S
C154 C155 1.404 . S
C155 C154 1.404 . S
C155 C156 1.395 . S
C155 C166 1.451 1_655 S
C156 C155 1.395 . S
C156 C157 1.320 1_655 S
C156 H220 0.930 . S
C157 C156 1.320 1_455 S
C157 C158 1.461 . S
C157 H221 0.929 1_455 S
C158 C157 1.461 . S
C158 C159 1.445 . S
C158 C167 1.395 . S
C159 C137 1.432 . S
C159 C158 1.445 . S
C159 C160 1.370 . S
C160 C159 1.370 . S
C160 C161 1.438 . S
C160 H222 0.930 . S
C161 C147 1.497 . S
C161 C160 1.438 . S
C161 C162 1.360 . S
C162 C161 1.360 . S
C162 C163 1.401 . S
C162 C167 1.446 . S
C163 C162 1.401 . S
C163 C164 1.347 . S
C163 H223 0.929 . S
C164 C163 1.347 . S
C164 C165 1.455 . S
C164 H224 0.930 . S
C165 C152 1.412 . S
C165 C164 1.455 . S
C165 C166 1.331 . S
C166 C155 1.451 1_455 S
C166 C165 1.331 . S
C166 C167 1.497 . S
C167 C158 1.395 . S
C167 C162 1.446 . S
C167 C166 1.497 . S
C168 C169 1.582 . S
C168 H225 0.962 . S
C168 H226 0.959 . S
C168 H227 0.958 1_455 S
C169 C168 1.582 . S
C169 O172 1.458 . S
C169 H198 0.980 . S
O170 C115 1.426 . S
O170 C116 1.334 . S
O171 C143 1.412 . S
O171 C144 1.393 . S
O172 C134 1.435 . S
O172 C169 1.458 . S
O173 C125 1.468 . S
O173 C126 1.408 . S
H174 C115 0.980 . S
H175 C114 0.959 . S
H176 C114 0.959 . S
H177 C114 0.960 . S
H178 C117 0.929 1_655 S
H179 C121 0.929 . S
H180 C122 0.959 . S
H181 C122 0.961 . S
H182 C122 0.961 . S
H183 C123 0.960 . S
H184 C123 0.960 . S
H185 C123 0.961 . S
H186 C125 0.980 1_455 S
H187 C124 0.961 1_455 S
H188 C124 0.960 . S
H189 C124 0.959 . S
H190 C127 0.930 . S
H191 C131 0.931 . S
H192 C132 0.959 . S
H193 C132 0.961 . S
H194 C132 0.959 . S
H195 C133 0.960 . S
H196 C133 0.960 . S
H197 C133 0.960 . S
H198 C169 0.980 . S
H199 C135 0.930 . S
H200 C139 0.930 . S
H201 C140 0.961 . S
H202 C140 0.960 . S
H203 C140 0.958 . S
H204 C141 0.961 . S
H205 C141 0.960 . S
H206 C141 0.960 . S
H207 C143 0.980 . S
H208 C142 0.961 . S
H209 C142 0.961 . S
H210 C142 0.959 . S
H211 C145 0.932 . S
H212 C149 0.929 . S
H213 C150 0.961 . S
H214 C150 0.959 . S
H215 C150 0.959 . S
H216 C151 0.960 . S
H217 C151 0.962 . S
H218 C151 0.961 . S
H219 C153 0.929 . S
H220 C156 0.930 . S
H221 C157 0.929 1_655 S
H222 C160 0.930 . S
H223 C163 0.929 . S
H224 C164 0.930 . S
H225 C168 0.962 . S
H226 C168 0.959 . S
H227 C168 0.958 1_655 S
Mg228 O229 2.028 . S
Mg228 O235 1.986 . S
Mg228 O237 2.114 1_545 S
Mg228 O238 2.251 1_545 S
Mg228 O241 2.010 . S
O229 Mg228 2.028 . S
O229 C232 1.250 1_455 S
O230 Mg231 2.028 . S
O230 C232 1.248 . S
Mg231 O230 2.028 . S
Mg231 O236 2.032 1_655 S
Mg231 O238 2.079 1_645 S
C232 O229 1.250 1_655 S
C232 O230 1.248 . S
C233 O234 1.264 . S
C233 O241 1.249 . S
O234 C233 1.264 . S
O235 Mg228 1.986 . S
O235 C239 1.246 . S
O236 Mg231 2.032 1_455 S
O236 C239 1.259 . S
O237 Mg228 2.114 1_565 S
O237 C240 1.252 . S
O238 Mg228 2.251 1_565 S
O238 Mg231 2.079 1_465 S
O238 C240 1.273 . S
C239 O235 1.246 . S
C239 O236 1.259 . S
C240 O237 1.252 . S
C240 O238 1.273 . S
O241 Mg228 2.010 . S
O241 C233 1.249 . S
Mg242 O243 2.028 1_655 S
Mg242 O249 1.986 . S
Mg242 O251 2.114 1_545 S
Mg242 O252 2.251 1_645 S
Mg242 O255 2.010 . S
O243 Mg242 2.028 1_455 S
O243 C246 1.250 . S
O244 Mg245 2.028 . S
O244 C246 1.248 . S
Mg245 O244 2.028 . S
Mg245 O250 2.032 . S
Mg245 O252 2.079 1_545 S
C246 O243 1.250 . S
C246 O244 1.248 . S
C247 O248 1.264 . S
C247 O255 1.249 . S
O248 C247 1.264 . S
O249 Mg242 1.986 . S
O249 C253 1.246 1_655 S
O250 Mg245 2.032 . S
O250 C253 1.259 . S
O251 Mg242 2.114 1_565 S
O251 C254 1.252 1_655 S
O252 Mg242 2.251 1_465 S
O252 Mg245 2.079 1_565 S
O252 C254 1.273 . S
C253 O249 1.246 1_455 S
C253 O250 1.259 . S
C254 O251 1.252 1_455 S
C254 O252 1.273 . S
O255 Mg242 2.010 . S
O255 C247 1.249 . S
C256 C257 1.363 1_565 S
C256 C262 1.379 . S
C256 N264 1.356 . S
C257 C256 1.363 1_545 S
C257 C263 1.363 . S
C258 C259 1.363 . S
C258 C263 1.379 . S
C258 N265 1.356 . S
C259 C258 1.363 . S
C259 C262 1.363 1_545 S
N260 C262 1.356 . S
N260 H272 0.984 . S
N260 H273 0.985 . S
N261 C263 1.356 . S
N261 H266 0.984 . S
N261 H267 0.985 . S
C262 C256 1.379 . S
C262 C259 1.363 1_565 S
C262 N260 1.356 . S
C263 C257 1.363 . S
C263 C258 1.379 . S
C263 N261 1.356 . S
N264 C256 1.356 . S
N264 H270 0.984 . S
N264 H271 0.984 . S
N265 C258 1.356 . S
N265 H268 0.984 . S
N265 H269 0.985 . S
H266 N261 0.984 . S
H267 N261 0.985 . S
H268 N265 0.984 . S
H269 N265 0.985 . S
H270 N264 0.984 . S
H271 N264 0.984 . S
H272 N260 0.984 . S
H273 N260 0.985 . S
C274 C275 1.363 . S
C274 C280 1.379 . S
C274 N282 1.356 . S
C275 C274 1.363 . S
C275 C281 1.363 . S
C276 C277 1.363 1_655 S
C276 C281 1.379 1_655 S
C276 N283 1.356 . S
C277 C276 1.363 1_455 S
C277 C280 1.363 . S
N278 C280 1.356 . S
N278 H290 0.984 . S
N278 H291 0.985 . S
N279 C281 1.356 1_655 S
N279 H284 0.984 1_655 S
N279 H285 0.985 . S
C280 C274 1.379 . S
C280 C277 1.363 . S
C280 N278 1.356 . S
C281 C275 1.363 . S
C281 C276 1.379 1_455 S
C281 N279 1.356 1_455 S
N282 C274 1.356 . S
N282 H288 0.984 . S
N282 H289 0.984 . S
N283 C276 1.356 . S
N283 H286 0.984 . S
N283 H287 0.985 . S
H284 N279 0.984 1_455 S
H285 N279 0.985 . S
H286 N283 0.984 . S
H287 N283 0.985 . S
H288 N282 0.984 . S
H289 N282 0.984 . S
H290 N278 0.984 . S
H291 N278 0.985 . S
C292 C293 1.363 1_565 S
C292 C298 1.379 . S
C292 N300 1.356 . S
C293 C292 1.363 1_545 S
C293 C299 1.363 . S
C294 C295 1.363 . S
C294 C299 1.379 . S
C294 N301 1.356 . S
C295 C294 1.363 . S
C295 C298 1.363 1_545 S
N296 C298 1.356 . S
N296 H308 0.984 . S
N296 H309 0.985 . S
N297 C299 1.356 . S
N297 H302 0.984 . S
N297 H303 0.985 . S
C298 C292 1.379 . S
C298 C295 1.363 1_565 S
C298 N296 1.356 . S
C299 C293 1.363 . S
C299 C294 1.379 . S
C299 N297 1.356 . S
N300 C292 1.356 . S
N300 H306 0.984 . S
N300 H307 0.984 . S
N301 C294 1.356 . S
N301 H304 0.984 1_655 S
N301 H305 0.985 . S
H302 N297 0.984 . S
H303 N297 0.985 . S
H304 N301 0.984 1_455 S
H305 N301 0.985 . S
H306 N300 0.984 . S
H307 N300 0.984 . S
H308 N296 0.984 . S
H309 N296 0.985 . S
C310 C311 1.363 1_655 S
C310 C316 1.379 . S
C310 N318 1.356 . S
C311 C310 1.363 1_455 S
C311 C317 1.363 . S
C312 C313 1.363 . S
C312 C317 1.379 . S
C312 N319 1.356 . S
C313 C312 1.363 . S
C313 C316 1.363 1_455 S
N314 C316 1.356 . S
N314 H326 0.984 . S
N314 H327 0.985 . S
N315 C317 1.356 . S
N315 H320 0.984 . S
N315 H321 0.985 . S
C316 C310 1.379 . S
C316 C313 1.363 1_655 S
C316 N314 1.356 . S
C317 C311 1.363 . S
C317 C312 1.379 . S
C317 N315 1.356 . S
N318 C310 1.356 . S
N318 H324 0.984 . S
N318 H325 0.984 . S
N319 C312 1.356 . S
N319 H322 0.984 . S
N319 H323 0.985 . S
H320 N315 0.984 . S
H321 N315 0.985 . S
H322 N319 0.984 . S
H323 N319 0.985 . S
H324 N318 0.984 . S
H325 N318 0.984 . S
H326 N314 0.984 . S
H327 N314 0.985 . S
C328 C329 1.363 1_565 S
C328 C334 1.379 . S
C328 N336 1.356 . S
C329 C328 1.363 1_545 S
C329 C335 1.363 . S
C330 C331 1.363 . S
C330 C335 1.379 . S
C330 N337 1.356 . S
C331 C330 1.363 . S
C331 C334 1.363 1_545 S
N332 C334 1.356 . S
N332 H344 0.984 . S
N332 H345 0.985 . S
N333 C335 1.356 . S
N333 H338 0.984 . S
N333 H339 0.985 . S
C334 C328 1.379 . S
C334 C331 1.363 1_565 S
C334 N332 1.356 . S
C335 C329 1.363 . S
C335 C330 1.379 . S
C335 N333 1.356 . S
N336 C328 1.356 . S
N336 H342 0.984 . S
N336 H343 0.984 . S
N337 C330 1.356 . S
N337 H340 0.984 . S
N337 H341 0.985 . S
H338 N333 0.984 . S
H339 N333 0.985 . S
H340 N337 0.984 . S
H341 N337 0.985 . S
H342 N336 0.984 . S
H343 N336 0.984 . S
H344 N332 0.984 . S
H345 N332 0.985 . S
C346 C347 1.363 . S
C346 C352 1.379 . S
C346 N354 1.356 . S
C347 C346 1.363 . S
C347 C353 1.363 . S
C348 C349 1.363 . S
C348 C353 1.379 . S
C348 N355 1.356 . S
C349 C348 1.363 . S
C349 C352 1.363 . S
N350 C352 1.356 . S
N350 H362 0.984 . S
N350 H363 0.985 . S
N351 C353 1.356 . S
N351 H356 0.984 . S
N351 H357 0.985 . S
C352 C346 1.379 . S
C352 C349 1.363 . S
C352 N350 1.356 . S
C353 C347 1.363 . S
C353 C348 1.379 . S
C353 N351 1.356 . S
N354 C346 1.356 . S
N354 H360 0.984 . S
N354 H361 0.984 . S
N355 C348 1.356 . S
N355 H358 0.984 . S
N355 H359 0.985 . S
H356 N351 0.984 . S
H357 N351 0.985 . S
H358 N355 0.984 . S
H359 N355 0.985 . S
H360 N354 0.984 . S
H361 N354 0.984 . S
H362 N350 0.984 . S
H363 N350 0.985 . S
C364 C365 1.363 . S
C364 C370 1.379 . S
C364 N372 1.356 . S
C365 C364 1.363 . S
C365 C371 1.363 1_545 S
C366 C367 1.363 1_565 S
C366 C371 1.379 . S
C366 N373 1.356 . S
C367 C366 1.363 1_545 S
C367 C370 1.363 . S
N368 C370 1.356 . S
N368 H380 0.984 . S
N368 H381 0.985 . S
N369 C371 1.356 . S
N369 H374 0.984 . S
N369 H375 0.985 . S
C370 C364 1.379 . S
C370 C367 1.363 . S
C370 N368 1.356 . S
C371 C365 1.363 1_565 S
C371 C366 1.379 . S
C371 N369 1.356 . S
N372 C364 1.356 . S
N372 H378 0.984 . S
N372 H379 0.984 . S
N373 C366 1.356 . S
N373 H376 0.984 . S
N373 H377 0.985 . S
H374 N369 0.984 . S
H375 N369 0.985 . S
H376 N373 0.984 . S
H377 N373 0.985 . S
H378 N372 0.984 . S
H379 N372 0.984 . S
H380 N368 0.984 . S
H381 N368 0.985 . S
C382 C383 1.363 . S
C382 C388 1.379 . S
C382 N390 1.363 . S
C383 C382 1.363 . S
C383 C389 1.363 . S
C384 C385 1.363 . S
C384 C389 1.379 . S
C384 N391 1.356 . S
C385 C384 1.363 . S
C385 C388 1.363 . S
N386 C388 1.356 1_655 S
N386 H398 0.984 . S
N386 H399 0.985 1_655 S
N387 C389 1.356 . S
N387 H392 0.984 . S
N387 H393 0.985 . S
C388 C382 1.379 . S
C388 C385 1.363 . S
C388 N386 1.356 1_455 S
C389 C383 1.363 . S
C389 C384 1.379 . S
C389 N387 1.356 . S
N390 C382 1.363 . S
N390 H396 0.975 1_455 S
N390 H397 0.987 . S
N391 C384 1.356 . S
N391 H394 0.984 . S
N391 H395 0.985 . S
H392 N387 0.984 . S
H393 N387 0.985 . S
H394 N391 0.984 . S
H395 N391 0.985 . S
H396 N390 0.975 1_655 S
H397 N390 0.987 . S
H398 N386 0.984 . S
H399 N386 0.985 1_455 S
C259 C233 1.311 . S
C257 C11 0.955 1_545 S
C277 C253 1.346 . S
C275 C115 1.138 . S
C295 C232 1.336 . S
C293 C1 1.112 . S
C313 C254 1.502 . S
C311 C125 0.922 1_455 S
C331 C246 1.542 . S
C329 C55 1.176 . S
C349 C239 1.438 . S
C347 C143 1.116 . S
C367 C247 1.206 . S
C365 C29 1.101 . S
C383 C169 1.130 . S
C385 C240 1.584 . S
