# Generated by pormake.
# Topology anh, (6,3)-cn, num edge types: 1
# Building blocks:
#     Node 0, Type 0, BuildingBlock: PAMTOO_clean_sbu_0, # of connection points: 6
#     Node 1, Type 0, BuildingBlock: PAMTOO_clean_sbu_0, # of connection points: 6
#     Node 2, Type 0, BuildingBlock: PAMTOO_clean_sbu_0, # of connection points: 6
#     Node 3, Type 1, BuildingBlock: BETDAH_clean_linker_0, # of connection points: 3
#     Node 4, Type 1, BuildingBlock: BETDAH_clean_linker_0, # of connection points: 3
#     Node 5, Type 1, BuildingBlock: BETDAH_clean_linker_0, # of connection points: 3
#     Node 6, Type 1, BuildingBlock: BETDAH_clean_linker_0, # of connection points: 3
#     Node 7, Type 1, BuildingBlock: BETDAH_clean_linker_0, # of connection points: 3
#     Node 8, Type 1, BuildingBlock: BETDAH_clean_linker_0, # of connection points: 3
#     Edge 9, Type (0, 1), BuildingBlock: EZIPEK_clean_linker_0, # of connection points: 2
#     Edge 10, Type (0, 1), BuildingBlock: EZIPEK_clean_linker_0, # of connection points: 2
#     Edge 11, Type (0, 1), BuildingBlock: EZIPEK_clean_linker_0, # of connection points: 2
#     Edge 12, Type (0, 1), BuildingBlock: EZIPEK_clean_linker_0, # of connection points: 2
#     Edge 13, Type (0, 1), BuildingBlock: EZIPEK_clean_linker_0, # of connection points: 2
#     Edge 14, Type (0, 1), BuildingBlock: EZIPEK_clean_linker_0, # of connection points: 2
#     Edge 15, Type (0, 1), BuildingBlock: EZIPEK_clean_linker_0, # of connection points: 2
#     Edge 16, Type (0, 1), BuildingBlock: EZIPEK_clean_linker_0, # of connection points: 2
#     Edge 17, Type (0, 1), BuildingBlock: EZIPEK_clean_linker_0, # of connection points: 2
#     Edge 18, Type (0, 1), BuildingBlock: EZIPEK_clean_linker_0, # of connection points: 2
#     Edge 19, Type (0, 1), BuildingBlock: EZIPEK_clean_linker_0, # of connection points: 2
#     Edge 20, Type (0, 1), BuildingBlock: EZIPEK_clean_linker_0, # of connection points: 2
#     Edge 21, Type (0, 1), BuildingBlock: EZIPEK_clean_linker_0, # of connection points: 2
#     Edge 22, Type (0, 1), BuildingBlock: EZIPEK_clean_linker_0, # of connection points: 2
#     Edge 23, Type (0, 1), BuildingBlock: EZIPEK_clean_linker_0, # of connection points: 2
#     Edge 24, Type (0, 1), BuildingBlock: EZIPEK_clean_linker_0, # of connection points: 2
#     Edge 25, Type (0, 1), BuildingBlock: EZIPEK_clean_linker_0, # of connection points: 2
#     Edge 26, Type (0, 1), BuildingBlock: EZIPEK_clean_linker_0, # of connection points: 2
# Relax obj value: 0.213
# Max RMSD: 0.184
# Mean RMSD: 0.116
data_MOF--net-anh--node1-PAMTOO_clean_sbu_0--node2-BETDAH_clean_linker_0--edge1-EZIPEK_clean_linker_0
_symmetry_space_group_name_H-M    P1
_symmetry_Int_Tables_number       1
_symmetry_cell_setting            triclinic
loop_
_symmetry_equiv_pos_as_xyz
'x, y, z'
_cell_length_a     22.716599
_cell_length_b     21.850268
_cell_length_c     36.995265
_cell_angle_alpha  92.673577
_cell_angle_beta   98.145663
_cell_angle_gamma 96.521552
loop_
_atom_site_label
_atom_site_type_symbol
_atom_site_fract_x
_atom_site_fract_y
_atom_site_fract_z
_atom_type_partial_charge
Dy0 Dy 1.10023 0.63826 0.14217 0.0
Dy1 Dy 1.07225 0.49738 0.10597 0.0
C2 C 1.08131 0.61407 0.05555 0.0
O3 O 0.99825 0.62651 0.13567 0.0
O4 O 0.98015 0.52637 0.11107 0.0
O5 O 0.10582 0.7377 0.14168 0.0
O6 O 0.14263 0.69495 0.19011 0.0
O7 O 1.09218 0.4912 0.16655 0.0
O8 O 1.06741 0.58322 0.18579 0.0
O9 O 0.17271 0.51117 0.10593 0.0
O10 O 0.19151 0.61032 0.13158 0.0
O11 O 1.08532 0.401 0.10686 0.0
O12 O 1.01327 0.4292 0.06928 0.0
C13 C 0.96023 0.57743 0.12243 0.0
O14 O 1.07589 0.65092 0.08341 0.0
O15 O 1.08777 0.55514 0.05845 0.0
C16 C 0.19589 0.78637 0.17603 0.0
C17 C 0.31049 0.85397 0.18595 0.0
C18 C 0.29388 0.80849 0.15712 0.0
C19 C 0.23695 0.77473 0.15225 0.0
C20 C 0.21195 0.8329 0.20423 0.0
C21 C 0.26894 0.86659 0.20916 0.0
C22 C 0.13888 0.74626 0.17378 0.0
C23 C 1.07547 0.52618 0.19183 0.0
C24 C 0.21104 0.56058 0.11758 0.0
C25 C 0.99147 0.3412 0.10164 0.0
C26 C 0.90664 0.26374 0.13262 0.0
C27 C 0.93404 0.3192 0.15138 0.0
C28 C 0.97587 0.35772 0.13594 0.0
C29 C 0.96425 0.28562 0.0829 0.0
C30 C 0.92199 0.24712 0.09829 0.0
C31 C 1.03491 0.38321 0.08557 0.0
H32 H 0.32555 0.79808 0.13908 0.0
H33 H 0.22553 0.7385 0.13055 0.0
H34 H 0.18102 0.84198 0.22303 0.0
H35 H 0.28122 0.90143 0.2316 0.0
H36 H 0.92253 0.33292 0.17776 0.0
H37 H 0.99588 0.40068 0.15074 0.0
H38 H 0.97538 0.27223 0.05637 0.0
H39 H 0.90108 0.20451 0.08342 0.0
Dy40 Dy 0.5859 0.01258 0.49204 0.0
Dy41 Dy 0.73274 0.03502 0.50786 0.0
C42 C 0.6572 0.02276 0.57301 0.0
O43 O 0.60883 0.11386 0.48747 0.0
O44 O 0.70314 0.12701 0.5208 0.0
O45 O 0.50105 0.98092 0.50893 0.0
O46 O 0.50357 0.02176 0.4568 0.0
O47 O 0.70258 0.06039 0.45101 0.0
O48 O 0.62042 0.98882 0.44017 0.0
O49 O 0.71131 0.93192 0.49788 0.0
O50 O 0.61079 0.91875 0.50321 0.0
O51 O 0.81643 0.01939 0.49002 0.0
O52 O 0.81626 0.07798 0.53894 0.0
C53 C 0.65497 0.14952 0.50564 0.0
O54 O 0.61266 0.04165 0.55145 0.0
O55 O 0.70407 1.00522 0.56021 0.0
C56 C 0.42993 0.93741 0.45974 0.0
C57 C 0.35677 0.82906 0.43068 0.0
C58 C 0.34162 0.86389 0.46009 0.0
C59 C 0.37792 0.91785 0.47446 0.0
C60 C 0.44472 0.90292 0.42998 0.0
C61 C 0.40801 0.84936 0.41532 0.0
C62 C 0.47071 0.99068 0.47754 0.0
C63 C 0.66191 0.0256 0.4281 0.0
C64 C 0.66153 0.89649 0.50098 0.0
C65 C 0.88461 0.11009 0.4996 0.0
C66 C 0.95156 0.21088 0.47413 0.0
C67 C 0.89635 0.18576 0.45419 0.0
C68 C 0.86292 0.13587 0.46693 0.0
C69 C 0.94025 0.13474 0.51926 0.0
C70 C 0.97357 0.18498 0.5066 0.0
C71 C 0.84754 0.06031 0.51425 0.0
H72 H 0.3022 0.84872 0.47223 0.0
H73 H 0.36619 0.94354 0.49762 0.0
H74 H 0.48519 0.91664 0.41854 0.0
H75 H 0.42027 0.82289 0.39264 0.0
H76 H 0.8787 0.20558 0.42921 0.0
H77 H 0.81971 0.11808 0.45155 0.0
H78 H 0.95737 0.11583 0.54465 0.0
H79 H 1.0161 0.2042 0.52231 0.0
Dy80 Dy 0.6842 0.5045 0.81713 0.0
Dy81 Dy 0.53837 0.49797 0.80118 0.0
C82 C 0.61496 0.50281 0.73645 0.0
O83 O 0.66873 0.60408 0.8229 0.0
O84 O 0.57101 0.5969 0.7945 0.0
O85 O 0.77006 0.53339 0.85 0.0
O86 O 0.76408 0.47594 0.7999 0.0
O87 O 0.57027 0.53342 0.85918 0.0
O88 O 0.65144 0.48144 0.86976 0.0
O89 O 0.55377 0.3994 0.80923 0.0
O90 O 0.65244 0.40543 0.80067 0.0
O91 O 0.45278 0.46721 0.81742 0.0
O92 O 0.45702 0.52424 0.77133 0.0
C93 C 0.62196 0.62977 0.8084 0.0
O94 O 0.65925 0.53125 0.76004 0.0
O95 O 0.56708 0.47423 0.74732 0.0
C96 C 0.84558 0.55308 0.81379 0.0
C97 C 0.93002 0.64874 0.79896 0.0
C98 C 0.8732 0.63887 0.77763 0.0
C99 C 0.83103 0.59127 0.78511 0.0
C100 C 0.90341 0.56027 0.83337 0.0
C101 C 0.94541 0.60776 0.826 0.0
C102 C 0.79928 0.51009 0.82581 0.0
C103 C 0.60951 0.50955 0.88195 0.0
C104 C 0.60119 0.37311 0.80346 0.0
C105 C 0.39763 0.55181 0.81471 0.0
C106 C 0.35699 0.6551 0.84697 0.0
C107 C 0.40964 0.63347 0.86291 0.0
C108 C 0.42921 0.58193 0.84725 0.0
C109 C 0.34441 0.57275 0.79878 0.0
C110 C 0.32372 0.62383 0.81512 0.0
C111 C 0.42512 0.50404 0.79596 0.0
H112 H 0.86051 0.66991 0.75669 0.0
H113 H 0.78633 0.58602 0.76968 0.0
H114 H 0.91515 0.53122 0.85559 0.0
H115 H 0.98878 0.615 0.84311 0.0
H116 H 0.43572 0.65668 0.88755 0.0
H117 H 0.4701 0.56669 0.86025 0.0
H118 H 0.31975 0.55056 0.77346 0.0
H119 H 0.28274 0.63989 0.80253 0.0
H120 H 0.54299 0.98048 0.27916 0.0
H121 H 0.71266 0.06319 0.25398 0.0
H122 H 0.57143 0.99013 0.16726 0.0
C123 C 0.57148 0.99513 0.2592 0.0
C124 C 0.55023 0.98309 0.22192 0.0
C125 C 0.62998 0.02356 0.27102 0.0
C126 C 0.66713 0.04207 0.24497 0.0
C127 C 0.64554 0.03062 0.20729 0.0
C128 C 0.58753 1.00038 0.19616 0.0
N129 N 0.68161 0.04449 0.17968 0.0
C130 C 0.72746 0.09302 0.18154 0.0
H131 H 0.63872 0.39085 0.58929 0.0
H132 H 0.64625 0.58351 0.56875 0.0
H133 H 0.65675 0.44859 0.48159 0.0
C134 C 0.64233 0.4273 0.5705 0.0
C135 C 0.64824 0.41234 0.53411 0.0
C136 C 0.64106 0.48859 0.58304 0.0
C137 C 0.64643 0.53611 0.55884 0.0
C138 C 0.65214 0.52182 0.522 0.0
C139 C 0.65265 0.45982 0.50989 0.0
N140 N 0.6578 0.56792 0.49629 0.0
C141 C 0.65691 0.63116 0.50311 0.0
H142 H 1.03727 0.73076 0.89743 0.0
H143 H 0.18353 0.82542 0.97315 0.0
H144 H 0.14924 0.88276 0.86337 0.0
C145 C 1.07296 0.76873 0.90412 0.0
C146 C 1.0876 0.80805 0.87698 0.0
C147 C 0.10654 0.77533 0.93905 0.0
C148 C 0.15479 0.82248 0.94695 0.0
C149 C 0.16994 0.86171 0.91982 0.0
C150 C 0.13554 0.85502 0.88496 0.0
N151 N 0.22769 0.89502 0.92424 0.0
C152 C 0.27159 0.86404 0.91187 0.0
H153 H 0.18836 0.60901 0.32905 0.0
H154 H 1.09382 0.44865 0.36749 0.0
H155 H 0.2128 0.57759 0.44368 0.0
C156 C 0.17863 0.58073 0.35131 0.0
C157 C 0.20496 0.59963 0.38718 0.0
C158 C 0.13844 0.52646 0.34418 0.0
C159 C 0.12519 0.49031 0.37315 0.0
C160 C 0.15274 0.50861 0.4092 0.0
C161 C 0.19228 0.56313 0.41586 0.0
N162 N 0.14203 0.4741 0.43964 0.0
C163 C 1.09925 0.42316 0.43868 0.0
H164 H 0.62473 0.13516 0.71949 0.0
H165 H 0.64089 0.94589 0.74198 0.0
H166 H 0.60899 0.07459 0.82699 0.0
C167 C 0.62454 0.09881 0.73849 0.0
C168 C 0.6158 0.11225 0.77462 0.0
C169 C 0.63317 0.03901 0.72657 0.0
C170 C 0.63356 0.99181 0.75121 0.0
C171 C 0.62488 1.00448 0.78764 0.0
C172 C 0.61571 0.06467 0.79899 0.0
N173 N 0.62601 0.95869 0.81385 0.0
C174 C 0.62762 0.89562 0.80665 0.0
H175 H 0.71309 0.55148 0.03876 0.0
H176 H 0.52547 0.54744 0.04687 0.0
H177 H 0.65791 0.57889 0.14434 0.0
C178 C 0.67811 0.55478 0.05567 0.0
C179 C 0.69417 0.56585 0.09357 0.0
C180 C 0.61805 0.54792 0.03892 0.0
C181 C 0.5715 0.55236 0.06022 0.0
C182 C 0.5847 0.56364 0.09852 0.0
C183 C 0.64671 0.57014 0.11498 0.0
N184 N 0.53804 0.56879 0.12126 0.0
C185 C 0.47446 0.56582 0.11196 0.0
C186 C 0.30103 0.53084 0.08543 0.0
C187 C 0.27915 0.56072 0.11552 0.0
C188 C 0.38602 0.60057 0.1395 0.0
C189 C 0.40771 0.5656 0.1118 0.0
N190 N 0.38427 0.48921 0.06151 0.0
N191 N 0.30695 0.60996 0.17645 0.0
C192 C 0.36462 0.52832 0.08579 0.0
C193 C 0.32347 0.59205 0.14383 0.0
N194 N 0.26181 0.50707 0.0553 0.0
N195 N 0.42525 0.64269 0.162 0.0
H196 H 0.26378 0.59947 0.18265 0.0
H197 H 0.33761 0.62787 0.19915 0.0
H198 H 0.47098 0.64957 0.16034 0.0
H199 H 0.41153 0.67466 0.17985 0.0
H200 H 0.27546 0.49194 0.03105 0.0
H201 H 0.21577 0.50765 0.05279 0.0
H202 H 0.35594 0.45522 0.04477 0.0
H203 H 0.42966 0.48744 0.06029 0.0
C204 C 0.97414 0.32565 0.47358 0.0
C205 C 0.98555 0.26598 0.46174 0.0
C206 C 1.06304 0.31178 0.42781 0.0
C207 C 1.05652 0.37066 0.4433 0.0
N208 N 1.00836 0.43545 0.48155 0.0
N209 N 1.04125 0.2005 0.4289 0.0
C210 C 1.01233 0.37822 0.46608 0.0
C211 C 1.02985 0.25853 0.43894 0.0
N212 N 0.92638 0.33188 0.49165 0.0
N213 N 1.10047 0.3071 0.40219 0.0
H214 H 1.0164 0.16054 0.43553 0.0
H215 H 1.07726 0.19157 0.41579 0.0
H216 H 0.12565 0.3454 0.39382 0.0
H217 H 1.10326 0.26636 0.38715 0.0
H218 H 0.91152 0.37403 0.49754 0.0
H219 H 0.89855 0.29431 0.49862 0.0
H220 H 0.98237 0.44327 0.50193 0.0
H221 H 1.0337 0.47541 0.47532 0.0
C222 C 0.6694 0.73343 0.79128 0.0
C223 C 0.6254 0.69861 0.80837 0.0
C224 C 0.57901 0.79293 0.81919 0.0
C225 C 0.62593 0.82841 0.80527 0.0
N226 N 0.72044 0.83452 0.78249 0.0
N227 N 0.54695 0.69838 0.84605 0.0
C228 C 0.67262 0.79927 0.79266 0.0
C229 C 0.58242 0.72923 0.82425 0.0
N230 N 0.70629 0.70362 0.7723 0.0
N231 N 0.53053 0.81987 0.82722 0.0
H232 H 0.54941 0.65239 0.85161 0.0
H233 H 0.51999 0.72017 0.86184 0.0
H234 H 0.52661 0.86657 0.82429 0.0
H235 H 0.49195 0.79487 0.83364 0.0
H236 H 0.73521 0.72587 0.75628 0.0
H237 H 0.70444 0.65572 0.76995 0.0
H238 H 0.75918 0.81684 0.77705 0.0
H239 H 0.72307 0.88247 0.78199 0.0
C240 C 0.85456 0.52761 0.13124 0.0
C241 C 0.89181 0.57837 0.11985 0.0
C242 C 0.79874 0.62751 0.10199 0.0
C243 C 0.76155 0.57336 0.10861 0.0
N244 N 0.75558 0.46864 0.12626 0.0
N245 N 0.89542 0.67345 0.08894 0.0
C246 C 0.79007 0.52274 0.12255 0.0
C247 C 0.86277 0.62782 0.1042 0.0
N248 N 0.88062 0.48466 0.15165 0.0
N249 N 0.77259 0.67933 0.09357 0.0
H250 H 0.94135 0.6753 0.08876 0.0
H251 H 0.87619 0.7064 0.07326 0.0
H252 H 0.72645 0.68054 0.09162 0.0
H253 H 0.79683 0.72234 0.09214 0.0
H254 H 0.85643 0.45012 0.16388 0.0
H255 H 0.92673 0.4871 0.15959 0.0
H256 H 0.77318 0.42747 0.13162 0.0
H257 H 0.70887 0.46401 0.12156 0.0
C258 C 0.26021 0.77163 0.39877 0.0
C259 C 0.31947 0.77032 0.41672 0.0
C260 C 0.30662 0.65752 0.40838 0.0
C261 C 0.24504 0.65863 0.39521 0.0
N262 N 0.16063 0.71647 0.38284 0.0
N263 N 0.39675 0.71187 0.4437 0.0
C264 C 0.22106 0.71564 0.39154 0.0
C265 C 0.34227 0.71321 0.42278 0.0
N266 N 0.24179 0.82622 0.38795 0.0
N267 N 0.33126 0.60345 0.40642 0.0
H268 H 0.42407 0.75153 0.45526 0.0
H269 H 0.41256 0.67123 0.45229 0.0
H270 H 0.30652 0.56183 0.39563 0.0
H271 H 0.37714 0.601 0.41219 0.0
H272 H 0.20114 0.82908 0.37148 0.0
H273 H 0.26955 0.86812 0.39248 0.0
H274 H 0.14018 0.75672 0.38377 0.0
H275 H 0.13013 0.67654 0.37779 0.0
C276 C 0.64281 0.27535 0.82155 0.0
C277 C 0.59833 0.30435 0.80006 0.0
C278 C 0.55661 0.20326 0.76947 0.0
C279 C 0.6071 0.17682 0.78631 0.0
N280 N 0.70318 0.1908 0.82509 0.0
N281 N 0.5169 0.29645 0.7497 0.0
C282 C 0.65136 0.21354 0.81174 0.0
C283 C 0.55576 0.26839 0.77322 0.0
N284 N 0.67609 0.30649 0.85192 0.0
N285 N 0.50905 0.16597 0.7502 0.0
H286 H 0.51547 0.34397 0.75071 0.0
H287 H 0.4897 0.27315 0.72705 0.0
H288 H 0.50785 0.11808 0.74737 0.0
H289 H 0.46863 0.18178 0.74029 0.0
H290 H 0.7052 0.28577 0.87056 0.0
H291 H 0.66972 0.35106 0.8606 0.0
H292 H 0.73968 0.21795 0.84045 0.0
H293 H 0.71202 0.14632 0.81816 0.0
C294 C 0.69987 0.80239 0.52913 0.0
C295 C 0.66156 0.82817 0.50159 0.0
C296 C 0.61412 0.7237 0.47946 0.0
C297 C 0.65649 0.69807 0.5044 0.0
N298 N 0.74406 0.71186 0.55035 0.0
N299 N 0.58921 0.81285 0.44649 0.0
C300 C 0.70069 0.73711 0.52848 0.0
C301 C 0.62036 0.78864 0.47572 0.0
N302 N 0.73329 0.83991 0.55699 0.0
N303 N 0.56733 0.68601 0.45962 0.0
H304 H 0.59404 0.85977 0.44197 0.0
H305 H 0.563 0.78602 0.42478 0.0
H306 H 0.5617 0.63823 0.46138 0.0
H307 H 0.53139 0.70242 0.44391 0.0
H308 H 0.75695 0.82341 0.57996 0.0
H309 H 0.73331 0.88764 0.55887 0.0
H310 H 0.7816 0.73786 0.56535 0.0
H311 H 0.74457 0.6643 0.55161 0.0
C312 C 1.03161 0.70253 0.79646 0.0
C313 C 0.9706 0.70673 0.79857 0.0
C314 C 0.99707 0.80738 0.83176 0.0
C315 C 1.05624 0.79278 0.83939 0.0
N316 N 0.13487 0.73711 0.82303 0.0
N317 N 0.89286 0.76591 0.81004 0.0
C318 C 1.07554 0.74488 0.81861 0.0
C319 C 0.95266 0.76191 0.81243 0.0
N320 N 1.04634 0.65571 0.7751 0.0
N321 N 0.98397 0.86253 0.84535 0.0
H322 H 0.87421 0.80228 0.82146 0.0
H323 H 0.87421 0.80228 0.82146 0.0
H324 H 1.01735 0.89467 0.86008 0.0
H325 H 0.9424 0.87846 0.83975 0.0
H326 H 1.08992 0.65044 0.77103 0.0
H327 H 1.01332 0.62453 0.75927 0.0
H328 H 0.15185 0.69963 0.81165 0.0
H329 H 0.16735 0.76892 0.83873 0.0
C330 C 0.41994 0.85475 0.20915 0.0
C331 C 0.37251 0.88635 0.19312 0.0
C332 C 0.44145 0.982 0.19623 0.0
C333 C 0.48946 0.94941 0.21017 0.0
N334 N 0.5272 0.8528 0.22326 0.0
N335 N 0.33925 0.97634 0.16522 0.0
C336 C 0.47951 0.8851 0.21461 0.0
C337 C 0.38362 0.94897 0.18481 0.0
N338 N 0.40776 0.7966 0.22054 0.0
N339 N 0.45067 0.04478 0.19516 0.0
H340 H 0.29634 0.9535 0.1565 0.0
H341 H 0.34621 0.01971 0.15495 0.0
H342 H 0.49254 0.07046 0.20289 0.0
H343 H 0.41618 0.07197 0.18924 0.0
H344 H 0.43942 0.77394 0.23611 0.0
H345 H 0.36475 0.77262 0.21705 0.0
H346 H 0.52333 0.80484 0.22302 0.0
H347 H 0.57152 0.87353 0.22753 0.0
C348 C 0.60132 0.23937 0.52262 0.0
C349 C 0.65186 0.21727 0.51009 0.0
C350 C 0.70082 0.32403 0.51244 0.0
C351 C 0.64821 0.34606 0.52199 0.0
N352 N 0.54316 0.325 0.52667 0.0
N353 N 0.74327 0.24017 0.48435 0.0
C354 C 0.59674 0.30372 0.52393 0.0
C355 C 0.69978 0.2601 0.50238 0.0
N356 N 0.55941 0.19966 0.53556 0.0
N357 N 0.75258 0.36339 0.51449 0.0
H358 H 0.74283 0.19422 0.47522 0.0
H359 H 0.77613 0.27007 0.47504 0.0
H360 H 0.75551 0.41033 0.52202 0.0
H361 H 0.79377 0.34842 0.51176 0.0
H362 H 0.52515 0.21451 0.54843 0.0
H363 H 0.56237 0.15262 0.53724 0.0
H364 H 0.50295 0.29601 0.52466 0.0
H365 H 0.53791 0.37185 0.52706 0.0
C366 C 0.32513 0.71042 0.90061 0.0
C367 C 0.33767 0.71092 0.86404 0.0
C368 C 0.31309 0.817 0.86037 0.0
C369 C 0.30322 0.81705 0.89727 0.0
N370 N 0.31225 0.77064 0.95518 0.0
N371 N 0.35887 0.76969 0.81265 0.0
C372 C 0.31378 0.76598 0.91834 0.0
C373 C 0.33609 0.7657 0.84486 0.0
N374 N 0.32158 0.65626 0.91776 0.0
N375 N 0.29898 0.86516 0.83986 0.0
H376 H 0.37777 0.73378 0.80089 0.0
H377 H 0.3644 0.81057 0.79944 0.0
H378 H 0.28456 0.90471 0.85087 0.0
H379 H 0.29822 0.86423 0.81162 0.0
H380 H 0.31036 0.65214 0.94388 0.0
H381 H 0.3253 0.61378 0.90478 0.0
H382 H 0.32462 0.73701 0.9728 0.0
H383 H 0.30366 0.81092 0.96874 0.0
C384 C 0.87849 0.17462 0.17021 0.0
C385 C 0.8609 0.2235 0.14869 0.0
C386 C 0.75526 0.191 0.15339 0.0
C387 C 0.7729 0.14196 0.17464 0.0
N388 N 0.85005 0.09357 0.20965 0.0
N389 N 0.78483 0.28586 0.12533 0.0
C390 C 0.83428 0.13592 0.18512 0.0
C391 C 0.79989 0.23413 0.14209 0.0
N392 N 0.93726 0.16429 0.17549 0.0
N393 N 0.69564 0.19492 0.14291 0.0
H394 H 0.816 0.31735 0.11563 0.0
H395 H 0.74237 0.30012 0.12319 0.0
H396 H 0.66185 0.16614 0.15223 0.0
H397 H 0.67933 0.22451 0.12371 0.0
H398 H 0.95242 0.12567 0.1874 0.0
H399 H 0.97102 0.19295 0.16608 0.0
H400 H 0.89397 0.09011 0.22117 0.0
H401 H 0.81841 0.0648 0.22087 0.0
C402 C 1.0341 0.67453 0.00631 0.0
C403 C 1.08304 0.64332 0.02033 0.0
C404 C 0.14002 0.68715 0.97438 0.0
C405 C 1.09621 0.7275 0.96553 0.0
N406 N 1.00211 0.76253 0.97472 0.0
N407 N 0.18683 0.62792 0.02124 0.0
C408 C 1.04294 0.72162 -0.01834 0.0
C409 C 0.13698 0.65102 0.00503 0.0
N410 N 0.97918 0.65864 0.0165 0.0
N411 N 0.18389 0.68227 0.9531 0.0
H412 H 0.18726 0.60373 0.04479 0.0
H413 H 0.22895 0.63801 0.01332 0.0
H414 H 0.18713 0.7072 0.92994 0.0
H415 H 0.21249 0.64825 0.95621 0.0
H416 H 0.94044 0.67603 0.00501 0.0
H417 H 0.9715 0.62311 0.0338 0.0
H418 H 0.96553 0.76438 -0.01135 0.0
H419 H 1.00734 0.79797 0.95709 0.0
C420 C 0.67417 0.97556 0.36771 0.0
C421 C 0.66252 0.02826 0.38813 0.0
C422 C 0.64846 0.0839 0.33184 0.0
C423 C 0.65186 0.02857 0.31108 0.0
N424 N 0.66814 0.92152 0.3082 0.0
N425 N 0.63627 0.1322 0.39033 0.0
C426 C 0.66547 0.97449 0.3288 0.0
C427 C 0.65004 0.08278 0.37047 0.0
N428 N 0.69506 0.92723 0.38567 0.0
N429 N 0.64323 0.1373 0.31447 0.0
H430 H 0.63713 0.13336 0.41859 0.0
H431 H 0.6201 0.17062 0.37875 0.0
H432 H 0.6405 0.13911 0.28617 0.0
H433 H 0.64644 0.1806 0.32806 0.0
H434 H 0.71006 0.88989 0.37277 0.0
H435 H 0.70208 0.92666 0.41414 0.0
H436 H 0.66979 0.8784 0.31885 0.0
H437 H 0.66616 0.9202 0.27982 0.0
C438 C 0.67325 0.48141 0.68555 0.0
C439 C 0.62116 0.5016 0.69698 0.0
C440 C 0.58191 0.51668 0.6331 0.0
C441 C 0.63627 0.5013 0.62234 0.0
N442 N 0.73915 0.48418 0.63951 0.0
N443 N 0.53189 0.5514 0.68263 0.0
C444 C 0.68378 0.48879 0.64905 0.0
C445 C 0.57709 0.52303 0.67104 0.0
N446 N 0.71087 0.45156 0.70883 0.0
N447 N 0.53411 0.52282 0.60718 0.0
H448 H 0.52759 0.5581 0.71018 0.0
H449 H 0.50207 0.57343 0.66522 0.0
H450 H 0.536 0.5191 0.57917 0.0
H451 H 0.49138 0.527 0.61341 0.0
H452 H 0.74643 0.43083 0.70078 0.0
H453 H 0.70247 0.44114 0.73496 0.0
H454 H 0.77691 0.48094 0.65859 0.0
H455 H 0.74853 0.49006 0.61299 0.0
C456 C 0.60478 0.98703 0.62496 0.0
C457 C 0.65418 0.02168 0.61281 0.0
C458 C 0.69612 0.05413 0.67649 0.0
C459 C 0.64257 0.02724 0.68797 0.0
N460 N 0.54242 0.97394 0.67268 0.0
N461 N 0.74317 0.09545 0.62659 0.0
C462 C 0.59601 0.99487 0.66212 0.0
C463 C 0.69927 0.05678 0.63847 0.0
N464 N 0.56726 0.94518 0.60124 0.0
N465 N 0.74421 0.07655 0.70201 0.0
H466 H 0.74631 0.10015 0.599 0.0
H467 H 0.77325 0.12711 0.64394 0.0
H468 H 0.74345 0.07497 0.7301 0.0
H469 H 0.78641 0.09113 0.69539 0.0
H470 H 0.53407 0.91421 0.60939 0.0
H471 H 0.57311 0.93709 0.57404 0.0
H472 H 0.50458 0.95647 0.65424 0.0
H473 H 0.53423 0.97839 0.69965 0.0
C474 C 0.59869 0.46695 0.94328 0.0
C475 C 0.6085 0.51868 0.92205 0.0
C476 C 0.60854 0.58841 0.97626 0.0
C477 C 0.60589 0.53702 -0.00176 0.0
N478 N 0.60295 0.42738 0.00378 0.0
N479 N 0.63179 0.62876 0.91934 0.0
C480 C 0.60192 0.4762 -0.018 0.0
C481 C 0.61526 0.57953 0.93874 0.0
N482 N 0.58432 0.40918 0.92628 0.0
N483 N 0.60475 0.64587 -0.00863 0.0
H484 H 0.63965 0.6241 0.89233 0.0
H485 H 0.6434 0.67364 0.93088 0.0
H486 H 0.60088 0.65405 0.01889 0.0
H487 H 0.60003 0.68432 0.9761 0.0
H488 H 0.57047 0.37036 0.9396 0.0
H489 H 0.58148 0.40065 0.89807 0.0
H490 H 0.60775 0.38281 -0.00559 0.0
H491 H 0.60232 0.43214 0.03191 0.0
C492 C 1.04137 0.53792 0.25322 0.0
C493 C 1.0737 0.5059 0.2299 0.0
C494 C 0.13305 0.46904 0.28315 0.0
C495 C 0.1086 0.51017 0.30608 0.0
N496 N 1.03544 0.57907 0.31458 0.0
N497 N 0.12298 0.41445 0.22369 0.0
C498 C 1.06048 0.54217 0.29165 0.0
C499 C 0.11129 0.463 0.24501 0.0
N500 N 0.99091 0.56169 0.23842 0.0
N501 N 0.17912 0.4382 0.2975 0.0
H502 H 1.10053 0.40328 0.19726 0.0
H503 H 0.14717 0.37967 0.23386 0.0
H504 H 0.19481 0.43989 0.32548 0.0
H505 H 0.20404 0.41395 0.28151 0.0
H506 H 0.96234 0.58191 0.25371 0.0
H507 H 0.97416 0.55515 0.2106 0.0
H508 H 1.00555 0.60982 0.30566 0.0
H509 H 1.04641 0.58053 0.34299 0.0
loop_
_geom_bond_atom_site_label_1
_geom_bond_atom_site_label_2
_geom_bond_distance
_geom_bond_site_symmetry_2
_ccdc_geom_bond_type
Dy0 O3 2.307 1_455 S
Dy0 O5 2.395 . S
Dy0 O6 2.379 . S
Dy0 O8 2.339 . S
Dy0 O10 2.298 . S
Dy0 O14 2.275 . S
Dy0 C22 2.738 . S
Dy1 O4 2.298 . S
Dy1 O7 2.275 1_655 S
Dy1 O9 2.307 1_655 S
Dy1 O11 2.395 . S
Dy1 O12 2.379 . S
Dy1 O15 2.339 . S
Dy1 C31 2.738 . S
C2 O14 1.254 . S
C2 O15 1.257 1_455 S
O3 Dy0 2.307 1_655 S
O3 C13 1.266 . S
O4 Dy1 2.298 . S
O4 C13 1.236 . S
O5 Dy0 2.395 . S
O5 C22 1.255 . S
O6 Dy0 2.379 . S
O6 C22 1.249 . S
O7 Dy1 2.275 1_455 S
O7 C23 1.254 . S
O8 Dy0 2.339 . S
O8 C23 1.257 . S
O9 Dy1 2.307 1_455 S
O9 C24 1.266 . S
O10 Dy0 2.298 . S
O10 C24 1.236 . S
O11 Dy1 2.395 . S
O11 C31 1.255 . S
O12 Dy1 2.379 . S
O12 C31 1.249 . S
C13 O3 1.266 . S
C13 O4 1.236 . S
O14 Dy0 2.275 . S
O14 C2 1.254 . S
O15 Dy1 2.339 . S
O15 C2 1.257 1_655 S
C16 C19 1.344 . S
C16 C20 1.328 . S
C16 C22 1.516 . S
C17 C18 1.304 . S
C17 C21 1.323 . S
C18 C17 1.304 . S
C18 C19 1.371 . S
C18 H32 0.930 . S
C19 C16 1.344 . S
C19 C18 1.371 . S
C19 H33 0.931 . S
C20 C16 1.328 . S
C20 C21 1.433 . S
C20 H34 0.931 . S
C21 C17 1.323 . S
C21 C20 1.433 . S
C21 H35 0.933 . S
C22 Dy0 2.738 . S
C22 O5 1.255 . S
C22 O6 1.249 . S
C22 C16 1.516 . S
C23 O7 1.254 . S
C23 O8 1.257 . S
C24 O9 1.266 . S
C24 O10 1.236 . S
C25 C28 1.344 . S
C25 C29 1.328 . S
C25 C31 1.516 . S
C26 C27 1.304 . S
C26 C30 1.323 . S
C27 C26 1.304 . S
C27 C28 1.371 . S
C27 H36 0.930 . S
C28 C25 1.344 . S
C28 C27 1.371 . S
C28 H37 0.931 . S
C29 C25 1.328 . S
C29 C30 1.433 . S
C29 H38 0.931 . S
C30 C26 1.323 . S
C30 C29 1.433 . S
C30 H39 0.933 . S
C31 Dy1 2.738 . S
C31 O11 1.255 . S
C31 O12 1.249 . S
C31 C25 1.516 . S
H32 C18 0.930 . S
H33 C19 0.931 . S
H34 C20 0.931 . S
H35 C21 0.933 . S
H36 C27 0.930 . S
H37 C28 0.931 . S
H38 C29 0.931 . S
H39 C30 0.933 . S
Dy40 O43 2.307 . S
Dy40 O45 2.395 1_545 S
Dy40 O46 2.379 1_545 S
Dy40 O48 2.339 . S
Dy40 O50 2.298 1_545 S
Dy40 O54 2.275 . S
Dy40 C62 2.738 1_545 S
Dy41 O44 2.298 . S
Dy41 O47 2.275 . S
Dy41 O49 2.307 1_545 S
Dy41 O51 2.395 . S
Dy41 O52 2.379 . S
Dy41 O55 2.339 . S
Dy41 C71 2.738 . S
C42 O54 1.254 . S
C42 O55 1.257 . S
O43 Dy40 2.307 . S
O43 C53 1.266 . S
O44 Dy41 2.298 . S
O44 C53 1.236 . S
O45 Dy40 2.395 1_565 S
O45 C62 1.255 . S
O46 Dy40 2.379 1_565 S
O46 C62 1.249 . S
O47 Dy41 2.275 . S
O47 C63 1.254 . S
O48 Dy40 2.339 . S
O48 C63 1.257 . S
O49 Dy41 2.307 1_565 S
O49 C64 1.266 . S
O50 Dy40 2.298 1_565 S
O50 C64 1.236 . S
O51 Dy41 2.395 . S
O51 C71 1.255 . S
O52 Dy41 2.379 . S
O52 C71 1.249 . S
C53 O43 1.266 . S
C53 O44 1.236 . S
O54 Dy40 2.275 . S
O54 C42 1.254 . S
O55 Dy41 2.339 . S
O55 C42 1.257 . S
C56 C59 1.344 . S
C56 C60 1.328 . S
C56 C62 1.516 . S
C57 C58 1.304 . S
C57 C61 1.323 . S
C58 C57 1.304 . S
C58 C59 1.371 . S
C58 H72 0.930 . S
C59 C56 1.344 . S
C59 C58 1.371 . S
C59 H73 0.931 . S
C60 C56 1.328 . S
C60 C61 1.433 . S
C60 H74 0.931 . S
C61 C57 1.323 . S
C61 C60 1.433 . S
C61 H75 0.933 . S
C62 Dy40 2.738 1_565 S
C62 O45 1.255 . S
C62 O46 1.249 . S
C62 C56 1.516 . S
C63 O47 1.254 . S
C63 O48 1.257 . S
C64 O49 1.266 . S
C64 O50 1.236 . S
C65 C68 1.344 . S
C65 C69 1.328 . S
C65 C71 1.516 . S
C66 C67 1.304 . S
C66 C70 1.323 . S
C67 C66 1.304 . S
C67 C68 1.371 . S
C67 H76 0.930 . S
C68 C65 1.344 . S
C68 C67 1.371 . S
C68 H77 0.931 . S
C69 C65 1.328 . S
C69 C70 1.433 . S
C69 H78 0.931 . S
C70 C66 1.323 . S
C70 C69 1.433 . S
C70 H79 0.933 . S
C71 Dy41 2.738 . S
C71 O51 1.255 . S
C71 O52 1.249 . S
C71 C65 1.516 . S
H72 C58 0.930 . S
H73 C59 0.931 . S
H74 C60 0.931 . S
H75 C61 0.933 . S
H76 C67 0.930 . S
H77 C68 0.931 . S
H78 C69 0.931 . S
H79 C70 0.933 . S
Dy80 O83 2.307 . S
Dy80 O85 2.395 . S
Dy80 O86 2.379 . S
Dy80 O88 2.339 . S
Dy80 O90 2.298 . S
Dy80 O94 2.275 . S
Dy80 C102 2.738 . S
Dy81 O84 2.298 . S
Dy81 O87 2.275 . S
Dy81 O89 2.307 . S
Dy81 O91 2.395 . S
Dy81 O92 2.379 . S
Dy81 O95 2.339 . S
Dy81 C111 2.738 . S
C82 O94 1.254 . S
C82 O95 1.257 . S
O83 Dy80 2.307 . S
O83 C93 1.266 . S
O84 Dy81 2.298 . S
O84 C93 1.236 . S
O85 Dy80 2.395 . S
O85 C102 1.255 . S
O86 Dy80 2.379 . S
O86 C102 1.249 . S
O87 Dy81 2.275 . S
O87 C103 1.254 . S
O88 Dy80 2.339 . S
O88 C103 1.257 . S
O89 Dy81 2.307 . S
O89 C104 1.266 . S
O90 Dy80 2.298 . S
O90 C104 1.236 . S
O91 Dy81 2.395 . S
O91 C111 1.255 . S
O92 Dy81 2.379 . S
O92 C111 1.249 . S
C93 O83 1.266 . S
C93 O84 1.236 . S
O94 Dy80 2.275 . S
O94 C82 1.254 . S
O95 Dy81 2.339 . S
O95 C82 1.257 . S
C96 C99 1.344 . S
C96 C100 1.328 . S
C96 C102 1.516 . S
C97 C98 1.304 . S
C97 C101 1.323 . S
C98 C97 1.304 . S
C98 C99 1.371 . S
C98 H112 0.930 . S
C99 C96 1.344 . S
C99 C98 1.371 . S
C99 H113 0.931 . S
C100 C96 1.328 . S
C100 C101 1.433 . S
C100 H114 0.931 . S
C101 C97 1.323 . S
C101 C100 1.433 . S
C101 H115 0.933 . S
C102 Dy80 2.738 . S
C102 O85 1.255 . S
C102 O86 1.249 . S
C102 C96 1.516 . S
C103 O87 1.254 . S
C103 O88 1.257 . S
C104 O89 1.266 . S
C104 O90 1.236 . S
C105 C108 1.344 . S
C105 C109 1.328 . S
C105 C111 1.516 . S
C106 C107 1.304 . S
C106 C110 1.323 . S
C107 C106 1.304 . S
C107 C108 1.371 . S
C107 H116 0.930 . S
C108 C105 1.344 . S
C108 C107 1.371 . S
C108 H117 0.931 . S
C109 C105 1.328 . S
C109 C110 1.433 . S
C109 H118 0.931 . S
C110 C106 1.323 . S
C110 C109 1.433 . S
C110 H119 0.933 . S
C111 Dy81 2.738 . S
C111 O91 1.255 . S
C111 O92 1.249 . S
C111 C105 1.516 . S
H112 C98 0.930 . S
H113 C99 0.931 . S
H114 C100 0.931 . S
H115 C101 0.933 . S
H116 C107 0.930 . S
H117 C108 0.931 . S
H118 C109 0.931 . S
H119 C110 0.933 . S
H120 C123 0.929 . S
H121 C126 0.929 . S
H122 C128 0.930 . S
C123 H120 0.929 . S
C123 C124 1.398 . S
C123 C125 1.396 . S
C124 C123 1.398 . S
C124 C128 1.407 . S
C125 C123 1.396 . S
C125 C126 1.394 . S
C126 H121 0.929 . S
C126 C125 1.394 . S
C126 C127 1.382 . S
C127 C126 1.382 . S
C127 C128 1.392 . S
C127 N129 1.420 . S
C128 H122 0.930 . S
C128 C124 1.407 . S
C128 C127 1.392 . S
N129 C127 1.420 . S
N129 C130 1.244 . S
C130 N129 1.244 . S
H131 C134 0.929 . S
H132 C137 0.929 . S
H133 C139 0.930 . S
C134 H131 0.929 . S
C134 C135 1.398 . S
C134 C136 1.396 . S
C135 C134 1.398 . S
C135 C139 1.407 . S
C136 C134 1.396 . S
C136 C137 1.394 . S
C137 H132 0.929 . S
C137 C136 1.394 . S
C137 C138 1.382 . S
C138 C137 1.382 . S
C138 C139 1.392 . S
C138 N140 1.420 . S
C139 H133 0.930 . S
C139 C135 1.407 . S
C139 C138 1.392 . S
N140 C138 1.420 . S
N140 C141 1.244 . S
C141 N140 1.244 . S
H142 C145 0.929 . S
H143 C148 0.929 . S
H144 C150 0.930 1_655 S
C145 H142 0.929 . S
C145 C146 1.398 . S
C145 C147 1.396 1_655 S
C146 C145 1.398 . S
C146 C150 1.407 1_655 S
C147 C145 1.396 1_455 S
C147 C148 1.394 . S
C148 H143 0.929 . S
C148 C147 1.394 . S
C148 C149 1.382 . S
C149 C148 1.382 . S
C149 C150 1.392 . S
C149 N151 1.420 . S
C150 H144 0.930 1_455 S
C150 C146 1.407 1_455 S
C150 C149 1.392 . S
N151 C149 1.420 . S
N151 C152 1.244 . S
C152 N151 1.244 . S
H153 C156 0.929 . S
H154 C159 0.929 . S
H155 C161 0.930 . S
C156 H153 0.929 . S
C156 C157 1.398 . S
C156 C158 1.396 . S
C157 C156 1.398 . S
C157 C161 1.407 . S
C158 C156 1.396 . S
C158 C159 1.394 1_455 S
C159 H154 0.929 . S
C159 C158 1.394 1_655 S
C159 C160 1.382 1_655 S
C160 C159 1.382 1_455 S
C160 C161 1.392 . S
C160 N162 1.420 1_455 S
C161 H155 0.930 . S
C161 C157 1.407 . S
C161 C160 1.392 . S
N162 C160 1.420 1_655 S
N162 C163 1.244 . S
C163 N162 1.244 . S
H164 C167 0.929 . S
H165 C170 0.929 . S
H166 C172 0.930 . S
C167 H164 0.929 . S
C167 C168 1.398 . S
C167 C169 1.396 . S
C168 C167 1.398 . S
C168 C172 1.407 . S
C169 C167 1.396 . S
C169 C170 1.394 1_545 S
C170 H165 0.929 . S
C170 C169 1.394 1_565 S
C170 C171 1.382 . S
C171 C170 1.382 . S
C171 C172 1.392 1_565 S
C171 N173 1.420 . S
C172 H166 0.930 . S
C172 C168 1.407 . S
C172 C171 1.392 1_545 S
N173 C171 1.420 . S
N173 C174 1.244 . S
C174 N173 1.244 . S
H175 C178 0.929 . S
H176 C181 0.929 . S
H177 C183 0.930 . S
C178 H175 0.929 . S
C178 C179 1.398 . S
C178 C180 1.396 . S
C179 C178 1.398 . S
C179 C183 1.407 . S
C180 C178 1.396 . S
C180 C181 1.394 . S
C181 H176 0.929 . S
C181 C180 1.394 . S
C181 C182 1.382 . S
C182 C181 1.382 . S
C182 C183 1.392 . S
C182 N184 1.420 . S
C183 H177 0.930 . S
C183 C179 1.407 . S
C183 C182 1.392 . S
N184 C182 1.420 . S
N184 C185 1.244 . S
C185 N184 1.244 . S
C186 C187 1.363 . S
C186 C192 1.379 . S
C186 N194 1.356 . S
C187 C186 1.363 . S
C187 C193 1.363 . S
C188 C189 1.363 . S
C188 C193 1.379 . S
C188 N195 1.356 . S
C189 C188 1.363 . S
C189 C192 1.363 . S
N190 C192 1.356 . S
N190 H202 0.984 . S
N190 H203 0.985 . S
N191 C193 1.356 . S
N191 H196 0.984 . S
N191 H197 0.985 . S
C192 C186 1.379 . S
C192 C189 1.363 . S
C192 N190 1.356 . S
C193 C187 1.363 . S
C193 C188 1.379 . S
C193 N191 1.356 . S
N194 C186 1.356 . S
N194 H200 0.984 . S
N194 H201 0.984 . S
N195 C188 1.356 . S
N195 H198 0.984 . S
N195 H199 0.985 . S
H196 N191 0.984 . S
H197 N191 0.985 . S
H198 N195 0.984 . S
H199 N195 0.985 . S
H200 N194 0.984 . S
H201 N194 0.984 . S
H202 N190 0.984 . S
H203 N190 0.985 . S
C204 C205 1.363 . S
C204 C210 1.379 . S
C204 N212 1.356 . S
C205 C204 1.363 . S
C205 C211 1.363 . S
C206 C207 1.363 . S
C206 C211 1.379 . S
C206 N213 1.356 . S
C207 C206 1.363 . S
C207 C210 1.363 . S
N208 C210 1.356 . S
N208 H220 0.984 . S
N208 H221 0.985 . S
N209 C211 1.356 . S
N209 H214 0.984 . S
N209 H215 0.985 . S
C210 C204 1.379 . S
C210 C207 1.363 . S
C210 N208 1.356 . S
C211 C205 1.363 . S
C211 C206 1.379 . S
C211 N209 1.356 . S
N212 C204 1.356 . S
N212 H218 0.984 . S
N212 H219 0.984 . S
N213 C206 1.356 . S
N213 H216 0.984 . S
N213 H217 0.985 . S
H214 N209 0.984 . S
H215 N209 0.985 . S
H216 N213 0.984 . S
H217 N213 0.985 . S
H218 N212 0.984 . S
H219 N212 0.984 . S
H220 N208 0.984 . S
H221 N208 0.985 . S
C222 C223 1.363 . S
C222 C228 1.379 . S
C222 N230 1.356 . S
C223 C222 1.363 . S
C223 C229 1.363 . S
C224 C225 1.363 . S
C224 C229 1.379 . S
C224 N231 1.356 . S
C225 C224 1.363 . S
C225 C228 1.363 . S
N226 C228 1.356 . S
N226 H238 0.984 . S
N226 H239 0.985 . S
N227 C229 1.356 . S
N227 H232 0.984 . S
N227 H233 0.985 . S
C228 C222 1.379 . S
C228 C225 1.363 . S
C228 N226 1.356 . S
C229 C223 1.363 . S
C229 C224 1.379 . S
C229 N227 1.356 . S
N230 C222 1.356 . S
N230 H236 0.984 . S
N230 H237 0.984 . S
N231 C224 1.356 . S
N231 H234 0.984 . S
N231 H235 0.985 . S
H232 N227 0.984 . S
H233 N227 0.985 . S
H234 N231 0.984 . S
H235 N231 0.985 . S
H236 N230 0.984 . S
H237 N230 0.984 . S
H238 N226 0.984 . S
H239 N226 0.985 . S
C240 C241 1.363 . S
C240 C246 1.379 . S
C240 N248 1.356 . S
C241 C240 1.363 . S
C241 C247 1.363 . S
C242 C243 1.363 . S
C242 C247 1.379 . S
C242 N249 1.356 . S
C243 C242 1.363 . S
C243 C246 1.363 . S
N244 C246 1.356 . S
N244 H256 0.984 . S
N244 H257 0.985 . S
N245 C247 1.356 . S
N245 H250 0.984 . S
N245 H251 0.985 . S
C246 C240 1.379 . S
C246 C243 1.363 . S
C246 N244 1.356 . S
C247 C241 1.363 . S
C247 C242 1.379 . S
C247 N245 1.356 . S
N248 C240 1.356 . S
N248 H254 0.984 . S
N248 H255 0.984 . S
N249 C242 1.356 . S
N249 H252 0.984 . S
N249 H253 0.985 . S
H250 N245 0.984 . S
H251 N245 0.985 . S
H252 N249 0.984 . S
H253 N249 0.985 . S
H254 N248 0.984 . S
H255 N248 0.984 . S
H256 N244 0.984 . S
H257 N244 0.985 . S
C258 C259 1.363 . S
C258 C264 1.379 . S
C258 N266 1.356 . S
C259 C258 1.363 . S
C259 C265 1.363 . S
C260 C261 1.363 . S
C260 C265 1.379 . S
C260 N267 1.356 . S
C261 C260 1.363 . S
C261 C264 1.363 . S
N262 C264 1.356 . S
N262 H274 0.984 . S
N262 H275 0.985 . S
N263 C265 1.356 . S
N263 H268 0.984 . S
N263 H269 0.985 . S
C264 C258 1.379 . S
C264 C261 1.363 . S
C264 N262 1.356 . S
C265 C259 1.363 . S
C265 C260 1.379 . S
C265 N263 1.356 . S
N266 C258 1.356 . S
N266 H272 0.984 . S
N266 H273 0.984 . S
N267 C260 1.356 . S
N267 H270 0.984 . S
N267 H271 0.985 . S
H268 N263 0.984 . S
H269 N263 0.985 . S
H270 N267 0.984 . S
H271 N267 0.985 . S
H272 N266 0.984 . S
H273 N266 0.984 . S
H274 N262 0.984 . S
H275 N262 0.985 . S
C276 C277 1.363 . S
C276 C282 1.379 . S
C276 N284 1.356 . S
C277 C276 1.363 . S
C277 C283 1.363 . S
C278 C279 1.363 . S
C278 C283 1.379 . S
C278 N285 1.356 . S
C279 C278 1.363 . S
C279 C282 1.363 . S
N280 C282 1.356 . S
N280 H292 0.984 . S
N280 H293 0.985 . S
N281 C283 1.356 . S
N281 H286 0.984 . S
N281 H287 0.985 . S
C282 C276 1.379 . S
C282 C279 1.363 . S
C282 N280 1.356 . S
C283 C277 1.363 . S
C283 C278 1.379 . S
C283 N281 1.356 . S
N284 C276 1.356 . S
N284 H290 0.984 . S
N284 H291 0.984 . S
N285 C278 1.356 . S
N285 H288 0.984 . S
N285 H289 0.985 . S
H286 N281 0.984 . S
H287 N281 0.985 . S
H288 N285 0.984 . S
H289 N285 0.985 . S
H290 N284 0.984 . S
H291 N284 0.984 . S
H292 N280 0.984 . S
H293 N280 0.985 . S
C294 C295 1.363 . S
C294 C300 1.379 . S
C294 N302 1.356 . S
C295 C294 1.363 . S
C295 C301 1.363 . S
C296 C297 1.363 . S
C296 C301 1.379 . S
C296 N303 1.356 . S
C297 C296 1.363 . S
C297 C300 1.363 . S
N298 C300 1.356 . S
N298 H310 0.984 . S
N298 H311 0.985 . S
N299 C301 1.356 . S
N299 H304 0.984 . S
N299 H305 0.985 . S
C300 C294 1.379 . S
C300 C297 1.363 . S
C300 N298 1.356 . S
C301 C295 1.363 . S
C301 C296 1.379 . S
C301 N299 1.356 . S
N302 C294 1.356 . S
N302 H308 0.984 . S
N302 H309 0.984 . S
N303 C296 1.356 . S
N303 H306 0.984 . S
N303 H307 0.985 . S
H304 N299 0.984 . S
H305 N299 0.985 . S
H306 N303 0.984 . S
H307 N303 0.985 . S
H308 N302 0.984 . S
H309 N302 0.984 . S
H310 N298 0.984 . S
H311 N298 0.985 . S
C312 C313 1.363 . S
C312 C318 1.379 . S
C312 N320 1.356 . S
C313 C312 1.363 . S
C313 C319 1.363 . S
C314 C315 1.363 . S
C314 C319 1.379 . S
C314 N321 1.356 . S
C315 C314 1.363 . S
C315 C318 1.363 . S
N316 C318 1.356 . S
N316 H328 0.984 1_655 S
N316 H329 0.985 1_655 S
N317 C319 1.356 . S
N317 H322 0.984 . S
N317 H323 0.985 . S
C318 C312 1.379 . S
C318 C315 1.363 . S
C318 N316 1.356 . S
C319 C313 1.363 . S
C319 C314 1.379 . S
C319 N317 1.356 . S
N320 C312 1.356 . S
N320 H326 0.984 . S
N320 H327 0.984 . S
N321 C314 1.356 . S
N321 H324 0.984 . S
N321 H325 0.985 . S
H322 N317 0.984 . S
H323 N317 0.985 . S
H324 N321 0.984 . S
H325 N321 0.985 . S
H326 N320 0.984 . S
H327 N320 0.984 . S
H328 N316 0.984 1_455 S
H329 N316 0.985 1_455 S
C330 C331 1.363 . S
C330 C336 1.379 . S
C330 N338 1.356 . S
C331 C330 1.363 . S
C331 C337 1.363 . S
C332 C333 1.363 1_545 S
C332 C337 1.379 1_545 S
C332 N339 1.356 . S
C333 C332 1.363 1_565 S
C333 C336 1.363 . S
N334 C336 1.356 . S
N334 H346 0.984 . S
N334 H347 0.985 . S
N335 C337 1.356 1_545 S
N335 H340 0.984 1_545 S
N335 H341 0.985 . S
C336 C330 1.379 . S
C336 C333 1.363 . S
C336 N334 1.356 . S
C337 C331 1.363 . S
C337 C332 1.379 1_565 S
C337 N335 1.356 1_565 S
N338 C330 1.356 . S
N338 H344 0.984 . S
N338 H345 0.984 . S
N339 C332 1.356 . S
N339 H342 0.984 . S
N339 H343 0.985 . S
H340 N335 0.984 1_565 S
H341 N335 0.985 . S
H342 N339 0.984 . S
H343 N339 0.985 . S
H344 N338 0.984 . S
H345 N338 0.984 . S
H346 N334 0.984 . S
H347 N334 0.985 . S
C348 C349 1.363 . S
C348 C354 1.379 . S
C348 N356 1.356 . S
C349 C348 1.363 . S
C349 C355 1.363 . S
C350 C351 1.363 . S
C350 C355 1.379 . S
C350 N357 1.356 . S
C351 C350 1.363 . S
C351 C354 1.363 . S
N352 C354 1.356 . S
N352 H364 0.984 . S
N352 H365 0.985 . S
N353 C355 1.356 . S
N353 H358 0.984 . S
N353 H359 0.985 . S
C354 C348 1.379 . S
C354 C351 1.363 . S
C354 N352 1.356 . S
C355 C349 1.363 . S
C355 C350 1.379 . S
C355 N353 1.356 . S
N356 C348 1.356 . S
N356 H362 0.984 . S
N356 H363 0.984 . S
N357 C350 1.356 . S
N357 H360 0.984 . S
N357 H361 0.985 . S
H358 N353 0.984 . S
H359 N353 0.985 . S
H360 N357 0.984 . S
H361 N357 0.985 . S
H362 N356 0.984 . S
H363 N356 0.984 . S
H364 N352 0.984 . S
H365 N352 0.985 . S
C366 C367 1.363 . S
C366 C372 1.379 . S
C366 N374 1.356 . S
C367 C366 1.363 . S
C367 C373 1.363 . S
C368 C369 1.363 . S
C368 C373 1.379 . S
C368 N375 1.356 . S
C369 C368 1.363 . S
C369 C372 1.363 . S
N370 C372 1.356 . S
N370 H382 0.984 . S
N370 H383 0.985 . S
N371 C373 1.356 . S
N371 H376 0.984 . S
N371 H377 0.985 . S
C372 C366 1.379 . S
C372 C369 1.363 . S
C372 N370 1.356 . S
C373 C367 1.363 . S
C373 C368 1.379 . S
C373 N371 1.356 . S
N374 C366 1.356 . S
N374 H380 0.984 . S
N374 H381 0.984 . S
N375 C368 1.356 . S
N375 H378 0.984 . S
N375 H379 0.985 . S
H376 N371 0.984 . S
H377 N371 0.985 . S
H378 N375 0.984 . S
H379 N375 0.985 . S
H380 N374 0.984 . S
H381 N374 0.984 . S
H382 N370 0.984 . S
H383 N370 0.985 . S
C384 C385 1.363 . S
C384 C390 1.379 . S
C384 N392 1.356 . S
C385 C384 1.363 . S
C385 C391 1.363 . S
C386 C387 1.363 . S
C386 C391 1.379 . S
C386 N393 1.356 . S
C387 C386 1.363 . S
C387 C390 1.363 . S
N388 C390 1.356 . S
N388 H400 0.984 . S
N388 H401 0.985 . S
N389 C391 1.356 . S
N389 H394 0.984 . S
N389 H395 0.985 . S
C390 C384 1.379 . S
C390 C387 1.363 . S
C390 N388 1.356 . S
C391 C385 1.363 . S
C391 C386 1.379 . S
C391 N389 1.356 . S
N392 C384 1.356 . S
N392 H398 0.984 . S
N392 H399 0.984 . S
N393 C386 1.356 . S
N393 H396 0.984 . S
N393 H397 0.985 . S
H394 N389 0.984 . S
H395 N389 0.985 . S
H396 N393 0.984 . S
H397 N393 0.985 . S
H398 N392 0.984 . S
H399 N392 0.984 . S
H400 N388 0.984 . S
H401 N388 0.985 . S
C402 C403 1.363 . S
C402 C408 1.379 1_554 S
C402 N410 1.356 . S
C403 C402 1.363 . S
C403 C409 1.363 . S
C404 C405 1.363 1_554 S
C404 C409 1.379 . S
C404 N411 1.356 1_554 S
C405 C404 1.363 1_556 S
C405 C408 1.363 . S
N406 C408 1.356 . S
N406 H418 0.984 . S
N406 H419 0.985 . S
N407 C409 1.356 . S
N407 H412 0.984 . S
N407 H413 0.985 . S
C408 C402 1.379 1_556 S
C408 C405 1.363 . S
C408 N406 1.356 . S
C409 C403 1.363 . S
C409 C404 1.379 . S
C409 N407 1.356 . S
N410 C402 1.356 . S
N410 H416 0.980 1_455 S
N410 H417 0.984 . S
N411 C404 1.356 1_556 S
N411 H414 0.984 . S
N411 H415 0.985 . S
H412 N407 0.984 . S
H413 N407 0.985 . S
H414 N411 0.984 . S
H415 N411 0.985 . S
H416 N410 0.980 1_655 S
H417 N410 0.984 . S
H418 N406 0.984 . S
H419 N406 0.985 . S
C420 C421 1.363 . S
C420 C426 1.379 . S
C420 N428 1.356 1_545 S
C421 C420 1.363 . S
C421 C427 1.363 . S
C422 C423 1.363 . S
C422 C427 1.379 . S
C422 N429 1.356 . S
C423 C422 1.363 . S
C423 C426 1.363 . S
N424 C426 1.356 1_565 S
N424 H436 0.984 . S
N424 H437 0.985 . S
N425 C427 1.356 . S
N425 H430 0.984 . S
N425 H431 0.985 . S
C426 C420 1.379 . S
C426 C423 1.363 . S
C426 N424 1.356 1_545 S
C427 C421 1.363 . S
C427 C422 1.379 . S
C427 N425 1.356 . S
N428 C420 1.356 1_565 S
N428 H434 0.984 . S
N428 H435 0.984 . S
N429 C422 1.356 . S
N429 H432 0.984 . S
N429 H433 0.985 . S
H430 N425 0.984 . S
H431 N425 0.985 . S
H432 N429 0.984 . S
H433 N429 0.985 . S
H434 N428 0.984 . S
H435 N428 0.984 . S
H436 N424 0.984 . S
H437 N424 0.985 . S
C438 C439 1.363 . S
C438 C444 1.379 . S
C438 N446 1.356 . S
C439 C438 1.363 . S
C439 C445 1.363 . S
C440 C441 1.363 . S
C440 C445 1.379 . S
C440 N447 1.356 . S
C441 C440 1.363 . S
C441 C444 1.363 . S
N442 C444 1.356 . S
N442 H454 0.984 . S
N442 H455 0.985 . S
N443 C445 1.356 . S
N443 H448 0.984 . S
N443 H449 0.985 . S
C444 C438 1.379 . S
C444 C441 1.363 . S
C444 N442 1.356 . S
C445 C439 1.363 . S
C445 C440 1.379 . S
C445 N443 1.356 . S
N446 C438 1.356 . S
N446 H452 0.984 . S
N446 H453 0.984 . S
N447 C440 1.356 . S
N447 H450 0.984 . S
N447 H451 0.985 . S
H448 N443 0.984 . S
H449 N443 0.985 . S
H450 N447 0.984 . S
H451 N447 0.985 . S
H452 N446 0.984 . S
H453 N446 0.984 . S
H454 N442 0.984 . S
H455 N442 0.985 . S
C456 C457 1.363 1_565 S
C456 C462 1.379 . S
C456 N464 1.356 . S
C457 C456 1.363 1_545 S
C457 C463 1.363 . S
C458 C459 1.363 . S
C458 C463 1.379 . S
C458 N465 1.356 . S
C459 C458 1.363 . S
C459 C462 1.363 1_545 S
N460 C462 1.356 . S
N460 H472 0.984 . S
N460 H473 0.985 . S
N461 C463 1.356 . S
N461 H466 0.984 . S
N461 H467 0.985 . S
C462 C456 1.379 . S
C462 C459 1.363 1_565 S
C462 N460 1.356 . S
C463 C457 1.363 . S
C463 C458 1.379 . S
C463 N461 1.356 . S
N464 C456 1.356 . S
N464 H470 0.984 . S
N464 H471 0.984 . S
N465 C458 1.356 . S
N465 H468 0.984 . S
N465 H469 0.985 . S
H466 N461 0.984 . S
H467 N461 0.985 . S
H468 N465 0.984 . S
H469 N465 0.985 . S
H470 N464 0.984 . S
H471 N464 0.984 . S
H472 N460 0.984 . S
H473 N460 0.985 . S
C474 C475 1.363 . S
C474 C480 1.379 . S
C474 N482 1.356 . S
C475 C474 1.363 . S
C475 C481 1.363 . S
C476 C477 1.379 . S
C476 C481 1.352 1_554 S
C476 N483 1.374 . S
C477 C476 1.379 . S
C477 C480 1.363 1_554 S
N478 C480 1.356 1_554 S
N478 H490 0.984 . S
N478 H491 0.985 . S
N479 C481 1.356 . S
N479 H484 0.984 . S
N479 H485 0.985 . S
C480 C474 1.379 . S
C480 C477 1.363 1_556 S
C480 N478 1.356 1_556 S
C481 C475 1.363 . S
C481 C476 1.352 1_556 S
C481 N479 1.356 . S
N482 C474 1.356 . S
N482 H488 0.984 . S
N482 H489 0.984 . S
N483 C476 1.374 . S
N483 H486 0.984 . S
N483 H487 0.985 . S
H484 N479 0.984 . S
H485 N479 0.985 . S
H486 N483 0.984 . S
H487 N483 0.985 . S
H488 N482 0.984 . S
H489 N482 0.984 . S
H490 N478 0.984 . S
H491 N478 0.985 . S
C492 C493 1.363 . S
C492 C498 1.379 . S
C492 N500 1.356 . S
C493 C492 1.363 . S
C493 C499 1.363 1_455 S
C494 C495 1.363 1_655 S
C494 C499 1.379 . S
C494 N501 1.356 . S
C495 C494 1.363 1_455 S
C495 C498 1.363 . S
N496 C498 1.356 . S
N496 H508 0.984 . S
N496 H509 0.985 . S
N497 C499 1.356 . S
N497 H502 0.984 . S
N497 H503 0.985 . S
C498 C492 1.379 . S
C498 C495 1.363 . S
C498 N496 1.356 . S
C499 C493 1.363 1_655 S
C499 C494 1.379 . S
C499 N497 1.356 . S
N500 C492 1.356 . S
N500 H506 0.984 . S
N500 H507 0.984 . S
N501 C494 1.356 . S
N501 H504 0.984 . S
N501 H505 0.985 . S
H502 N497 0.984 . S
H503 N497 0.985 . S
H504 N501 0.984 . S
H505 N501 0.985 . S
H506 N500 0.984 . S
H507 N500 0.984 . S
H508 N496 0.984 . S
H509 N496 0.985 . S
C187 C24 3.096 . S
C189 C185 3.032 . S
C205 C66 1.288 . S
C207 C163 1.355 . S
C223 C93 1.913 . S
C225 C174 1.855 . S
C241 C13 3.072 . S
C243 C179 3.039 . S
C261 C157 1.221 . S
C259 C57 1.203 . S
C279 C168 1.867 . S
C277 C104 1.910 . S
C295 C64 2.000 . S
C297 C141 1.917 . S
C313 C97 0.822 . S
C315 C146 0.848 . S
C331 C17 1.404 . S
C333 C124 1.482 1_565 S
C351 C135 1.776 . S
C349 C53 1.813 . S
C369 C152 0.609 . S
C367 C106 0.680 . S
C385 C26 1.329 . S
C387 C130 1.403 . S
C405 C147 1.122 . S
C403 C2 1.099 . S
C421 C63 1.471 . S
C423 C125 1.479 . S
C439 C82 1.416 . S
C441 C136 1.445 . S
C459 C169 1.438 . S
C457 C42 1.412 . S
C477 C180 1.771 . S
C475 C103 1.748 . S
C493 C23 1.535 . S
C495 C158 1.537 . S
