# Generated by pormake.
# Topology nom, (4,4)-cn, num edge types: 1
# Building blocks:
#     Node 0, Type 0, BuildingBlock: KUFVIS_clean_linker_0, # of connection points: 4
#     Node 1, Type 0, BuildingBlock: KUFVIS_clean_linker_0, # of connection points: 4
#     Node 2, Type 0, BuildingBlock: KUFVIS_clean_linker_0, # of connection points: 4
#     Node 3, Type 0, BuildingBlock: KUFVIS_clean_linker_0, # of connection points: 4
#     Node 4, Type 0, BuildingBlock: KUFVIS_clean_linker_0, # of connection points: 4
#     Node 5, Type 0, BuildingBlock: KUFVIS_clean_linker_0, # of connection points: 4
#     Node 6, Type 1, BuildingBlock: CEKHIL_clean_sbu_0, # of connection points: 4
#     Node 7, Type 1, BuildingBlock: CEKHIL_clean_sbu_0, # of connection points: 4
#     Node 8, Type 1, BuildingBlock: CEKHIL_clean_sbu_0, # of connection points: 4
#     Node 9, Type 1, BuildingBlock: CEKHIL_clean_sbu_0, # of connection points: 4
#     Node 10, Type 1, BuildingBlock: CEKHIL_clean_sbu_0, # of connection points: 4
#     Node 11, Type 1, BuildingBlock: CEKHIL_clean_sbu_0, # of connection points: 4
#     Edge 12, Type (0, 1), BuildingBlock: AJUNOK_clean_linker_0, # of connection points: 2
#     Edge 13, Type (0, 1), BuildingBlock: AJUNOK_clean_linker_0, # of connection points: 2
#     Edge 14, Type (0, 1), BuildingBlock: AJUNOK_clean_linker_0, # of connection points: 2
#     Edge 15, Type (0, 1), BuildingBlock: AJUNOK_clean_linker_0, # of connection points: 2
#     Edge 16, Type (0, 1), BuildingBlock: AJUNOK_clean_linker_0, # of connection points: 2
#     Edge 17, Type (0, 1), BuildingBlock: AJUNOK_clean_linker_0, # of connection points: 2
#     Edge 18, Type (0, 1), BuildingBlock: AJUNOK_clean_linker_0, # of connection points: 2
#     Edge 19, Type (0, 1), BuildingBlock: AJUNOK_clean_linker_0, # of connection points: 2
#     Edge 20, Type (0, 1), BuildingBlock: AJUNOK_clean_linker_0, # of connection points: 2
#     Edge 21, Type (0, 1), BuildingBlock: AJUNOK_clean_linker_0, # of connection points: 2
#     Edge 22, Type (0, 1), BuildingBlock: AJUNOK_clean_linker_0, # of connection points: 2
#     Edge 23, Type (0, 1), BuildingBlock: AJUNOK_clean_linker_0, # of connection points: 2
#     Edge 24, Type (0, 1), BuildingBlock: AJUNOK_clean_linker_0, # of connection points: 2
#     Edge 25, Type (0, 1), BuildingBlock: AJUNOK_clean_linker_0, # of connection points: 2
#     Edge 26, Type (0, 1), BuildingBlock: AJUNOK_clean_linker_0, # of connection points: 2
#     Edge 27, Type (0, 1), BuildingBlock: AJUNOK_clean_linker_0, # of connection points: 2
#     Edge 28, Type (0, 1), BuildingBlock: AJUNOK_clean_linker_0, # of connection points: 2
#     Edge 29, Type (0, 1), BuildingBlock: AJUNOK_clean_linker_0, # of connection points: 2
#     Edge 30, Type (0, 1), BuildingBlock: AJUNOK_clean_linker_0, # of connection points: 2
#     Edge 31, Type (0, 1), BuildingBlock: AJUNOK_clean_linker_0, # of connection points: 2
#     Edge 32, Type (0, 1), BuildingBlock: AJUNOK_clean_linker_0, # of connection points: 2
#     Edge 33, Type (0, 1), BuildingBlock: AJUNOK_clean_linker_0, # of connection points: 2
#     Edge 34, Type (0, 1), BuildingBlock: AJUNOK_clean_linker_0, # of connection points: 2
#     Edge 35, Type (0, 1), BuildingBlock: AJUNOK_clean_linker_0, # of connection points: 2
# Relax obj value: 0.005
# Max RMSD: 0.052
# Mean RMSD: 0.042
data_MOF--net-nom--node1-CEKHIL_clean_sbu_0--node2-KUFVIS_clean_linker_0--edge1-AJUNOK_clean_linker_0
_symmetry_space_group_name_H-M    P1
_symmetry_Int_Tables_number       1
_symmetry_cell_setting            triclinic
loop_
_symmetry_equiv_pos_as_xyz
'x, y, z'
_cell_length_a     33.634387
_cell_length_b     33.128285
_cell_length_c     34.872727
_cell_angle_alpha  89.991537
_cell_angle_beta   89.967339
_cell_angle_gamma 121.52181
loop_
_atom_site_label
_atom_site_type_symbol
_atom_site_fract_x
_atom_site_fract_y
_atom_site_fract_z
_atom_type_partial_charge
H0 H 0.19626 0.64154 0.36854 0.0
H1 H 0.10182 0.61784 0.27744 0.0
H2 H 0.05195 0.57795 0.39484 0.0
H3 H 0.98726 0.56961 0.37687 0.0
H4 H 0.89027 0.51931 0.28424 0.0
H5 H 1.03232 0.56664 0.26043 0.0
C6 C 0.16085 0.62791 0.35864 0.0
C7 C 0.12487 0.60998 0.38535 0.0
C8 C 0.1526 0.62968 0.31976 0.0
C9 C 0.10683 0.61425 0.30752 0.0
C10 C 0.0686 0.59431 0.33393 0.0
C11 C 0.07893 0.59289 0.37326 0.0
C12 C 1.01862 0.57432 0.32046 0.0
C13 C 0.98141 0.5635 0.34644 0.0
C14 C 0.93519 0.54323 0.33317 0.0
C15 C 0.92611 0.53608 0.29409 0.0
C16 C 0.96116 0.54512 0.26801 0.0
C17 C 1.00687 0.56316 0.28117 0.0
H18 H 0.568 0.18209 0.52439 0.0
H19 H 0.50994 0.08287 0.43265 0.0
H20 H 0.51298 0.03632 0.54889 0.0
H21 H 0.46046 0.9662 0.5323 0.0
H22 H 0.42722 0.8688 0.44032 0.0
H23 H 0.49658 1.01586 0.41427 0.0
C24 C 0.54949 0.14555 0.51468 0.0
C25 C 0.53866 0.10962 0.54092 0.0
C26 C 0.54115 0.13613 0.4757 0.0
C27 C 0.51735 0.08882 0.46291 0.0
C28 C 0.50519 0.05073 0.48897 0.0
C29 C 0.5178 0.06265 0.52809 0.0
C30 C 0.48225 0.99959 0.4755 0.0
C31 C 0.46206 0.96084 0.50195 0.0
C32 C 0.44389 0.91398 0.48929 0.0
C33 C 0.44282 0.90508 0.45024 0.0
C34 C 0.46131 0.94164 0.4236 0.0
C35 C 0.48126 0.98864 0.43594 0.0
H36 H 0.57479 0.40235 0.60591 0.0
H37 H 0.50948 0.43092 0.69817 0.0
H38 H 0.4994 0.47004 0.58088 0.0
H39 H 0.44251 0.47701 0.59965 0.0
H40 H 0.40971 0.5409 0.69052 0.0
H41 H 0.49805 0.48718 0.71431 0.0
C42 C 0.55428 0.41692 0.61597 0.0
C43 C 0.53697 0.43535 0.58953 0.0
C44 C 0.54536 0.41619 0.655 0.0
C45 C 0.51716 0.43343 0.66788 0.0
C46 C 0.49989 0.45394 0.64167 0.0
C47 C 0.51041 0.45426 0.60218 0.0
C48 C 0.4728 0.47639 0.6553 0.0
C49 C 0.44594 0.48644 0.62962 0.0
C50 C 0.42382 0.51025 0.64243 0.0
C51 C 0.42601 0.52168 0.68104 0.0
C52 C 0.45234 0.51313 0.70686 0.0
C53 C 0.47603 0.49107 0.69402 0.0
H54 H 0.20104 0.54069 0.78383 0.0
H55 H 0.10358 0.49014 0.87631 0.0
H56 H 0.05931 0.49467 0.75999 0.0
H57 H 0.98981 0.44177 0.77664 0.0
H58 H 0.89444 0.41738 0.8672 0.0
H59 H 0.03883 0.48227 0.89406 0.0
C60 C 0.16516 0.52398 0.79364 0.0
C61 C 0.13035 0.51564 0.76758 0.0
C62 C 0.15589 0.5165 0.83271 0.0
C63 C 0.10963 0.49643 0.8459 0.0
C64 C 0.07262 0.48599 0.81987 0.0
C65 C 0.08461 0.4977 0.78068 0.0
C66 C 1.02255 0.46577 0.83319 0.0
C67 C 0.98453 0.44545 0.80667 0.0
C68 C 0.93863 0.42968 0.81873 0.0
C69 C 0.93003 0.43148 0.85754 0.0
C70 C 0.96579 0.44954 0.88446 0.0
C71 C 1.01192 0.46712 0.87245 0.0
H72 H 0.52069 0.87594 0.02334 0.0
H73 H 0.58105 0.97574 0.9322 0.0
H74 H 0.57791 1.0221 0.04842 0.0
H75 H 0.63041 0.09219 0.03171 0.0
H76 H 0.66324 0.18956 0.93964 0.0
H77 H 0.594 0.04252 0.91385 0.0
C78 C 0.53994 0.91262 0.01394 0.0
C79 C 0.55047 0.94843 0.04025 0.0
C80 C 0.54921 0.92235 0.97508 0.0
C81 C 0.57331 0.9697 0.96241 0.0
C82 C 0.58541 1.00769 0.9885 0.0
C83 C 0.57255 0.99564 0.02757 0.0
C84 C 0.60829 0.05884 0.97502 0.0
C85 C 0.6286 0.0976 0.0014 0.0
C86 C 0.64677 0.14451 0.98873 0.0
C87 C 0.64736 0.15329 0.94966 0.0
C88 C 0.6292 0.11674 0.92301 0.0
C89 C 0.60922 0.06976 0.93548 0.0
H90 H 0.5135 0.65221 0.10448 0.0
H91 H 0.5794 0.62484 0.19691 0.0
H92 H 0.59054 0.58634 0.07961 0.0
H93 H 0.64673 0.57871 0.09808 0.0
H94 H 0.68524 0.52093 0.18977 0.0
H95 H 0.59398 0.57106 0.21357 0.0
C96 C 0.53414 0.63784 0.11465 0.0
C97 C 0.55196 0.6199 0.08826 0.0
C98 C 0.54294 0.63869 0.1537 0.0
C99 C 0.57169 0.6221 0.16663 0.0
C100 C 0.58957 0.60207 0.14046 0.0
C101 C 0.579 0.60158 0.10096 0.0
C102 C 0.6178 0.5808 0.1541 0.0
C103 C 0.64452 0.57064 0.12827 0.0
C104 C 0.66819 0.54847 0.14126 0.0
C105 C 0.66783 0.53898 0.18011 0.0
C106 C 0.64181 0.54778 0.20612 0.0
C107 C 0.61614 0.56762 0.1931 0.0
Co108 Co 0.66738 0.40172 0.39624 0.0
O109 O 0.71869 0.40691 0.36676 0.0
O110 O 0.72589 0.45782 0.41125 0.0
C111 C 0.63304 0.32339 0.41003 0.0
O112 O 0.62502 0.40835 0.43424 0.0
Co113 Co 0.56382 0.33838 0.37282 0.0
O114 O 0.54941 0.35606 0.42276 0.0
C115 C 0.62241 0.43087 0.33481 0.0
C116 C 0.74588 0.44513 0.38621 0.0
C117 C 0.58152 0.38921 0.44271 0.0
O118 O 0.65674 0.43988 0.35693 0.0
O119 O 0.58357 0.39122 0.33517 0.0
O120 O 0.66871 0.35516 0.42953 0.0
O121 O 0.62139 0.33926 0.38098 0.0
Co122 Co 0.3021 0.64991 0.57263 0.0
O123 O 0.34862 0.64593 0.60221 0.0
O124 O 0.30177 0.59257 0.55982 0.0
C125 C 0.34895 0.72733 0.55627 0.0
O126 O 0.25163 0.64156 0.53525 0.0
Co127 Co 0.26612 0.71628 0.59372 0.0
O128 O 0.23048 0.69464 0.54527 0.0
C129 C 0.22977 0.62575 0.63532 0.0
C130 C 0.3355 0.60646 0.58438 0.0
C131 C 0.22731 0.66005 0.52661 0.0
O132 O 0.25345 0.6147 0.61342 0.0
O133 O 0.23253 0.66575 0.6335 0.0
O134 O 0.35064 0.69431 0.53757 0.0
O135 O 0.32152 0.71315 0.58567 0.0
Co136 Co 0.6803 0.2907 0.72983 0.0
O137 O 0.6786 0.33808 0.69858 0.0
O138 O 0.62544 0.29375 0.74179 0.0
C139 C 0.75688 0.33584 0.74639 0.0
O140 O 0.66998 0.24012 0.76877 0.0
Co141 Co 0.74144 0.24897 0.71025 0.0
O142 O 0.71969 0.21512 0.75969 0.0
C143 C 0.65222 0.21321 0.66964 0.0
C144 C 0.64017 0.32711 0.71623 0.0
C145 C 0.68669 0.21428 0.77824 0.0
O146 O 0.64368 0.24005 0.69027 0.0
O147 O 0.69056 0.21389 0.6717 0.0
O148 O 0.72525 0.34017 0.76404 0.0
O149 O 0.7421 0.30743 0.71732 0.0
Co150 Co 0.42374 0.65749 0.89538 0.0
O151 O 0.37295 0.65244 0.86535 0.0
O152 O 0.36504 0.60074 0.90937 0.0
C153 C 0.4564 0.73538 0.90985 0.0
O154 O 0.46569 0.6507 0.9337 0.0
Co155 Co 0.52821 0.72385 0.87414 0.0
O156 O 0.54139 0.7044 0.92378 0.0
C157 C 0.47212 0.63135 0.83491 0.0
C158 C 0.34541 0.61411 0.88456 0.0
C159 C 0.50905 0.67012 0.94277 0.0
O160 O 0.43641 0.6209 0.85591 0.0
O161 O 0.51027 0.67161 0.83624 0.0
O162 O 0.42074 0.70295 0.92898 0.0
O163 O 0.46934 0.72037 0.88111 0.0
Co164 Co 0.79061 0.40876 0.07285 0.0
O165 O 0.74372 0.41262 0.10207 0.0
O166 O 0.79037 0.46566 0.05938 0.0
C167 C 0.74449 0.331 0.0569 0.0
O168 O 0.84139 0.41701 0.03566 0.0
Co169 Co 0.82736 0.34369 0.09559 0.0
O170 O 0.86263 0.36422 0.04694 0.0
C171 C 0.86294 0.43455 0.13593 0.0
C172 C 0.75659 0.45185 0.08392 0.0
C173 C 0.86574 0.39832 0.0276 0.0
O174 O 0.8391 0.44493 0.11359 0.0
O175 O 0.86053 0.39472 0.13482 0.0
O176 O 0.74239 0.36365 0.03796 0.0
O177 O 0.77153 0.34569 0.08652 0.0
Co178 Co 0.41059 0.76727 0.22905 0.0
O179 O 0.41178 0.72015 0.19699 0.0
O180 O 0.46543 0.76376 0.23999 0.0
C181 C 0.33409 0.72183 0.24623 0.0
O182 O 0.42168 0.81727 0.26879 0.0
Co183 Co 0.3489 0.8093 0.21268 0.0
O184 O 0.37186 0.84251 0.26223 0.0
C185 C 0.4372 0.84567 0.17007 0.0
C186 C 0.45019 0.7305 0.21435 0.0
C187 C 0.40534 0.84295 0.27963 0.0
O188 O 0.44662 0.81862 0.18958 0.0
O189 O 0.39869 0.84441 0.17333 0.0
O190 O 0.36592 0.71726 0.26322 0.0
O191 O 0.34866 0.75087 0.21758 0.0
C192 C 0.22366 0.63064 0.29751 0.0
C193 C 0.19356 0.64806 0.29349 0.0
C194 C 0.26835 0.65415 0.28127 0.0
C195 C 0.28473 0.69563 0.25954 0.0
H196 H 0.21344 0.59981 0.31521 0.0
H197 H 0.29066 0.6402 0.2866 0.0
S198 S 0.21792 0.75322 0.23681 0.0
N199 N 0.18217 0.70767 0.2641 0.0
N200 N 0.26555 0.7509 0.23199 0.0
C201 C 0.2538 0.7116 0.25287 0.0
C202 C 0.20833 0.68797 0.2701 0.0
C203 C 0.61217 0.20859 0.45211 0.0
C204 C 0.56346 0.17784 0.44969 0.0
C205 C 0.63424 0.25498 0.43808 0.0
C206 C 0.60872 0.27239 0.42029 0.0
H207 H 0.63304 0.19762 0.46737 0.0
H208 H 0.67152 0.27785 0.44224 0.0
S209 S 0.48089 0.20473 0.40343 0.0
N210 N 0.49064 0.16701 0.42627 0.0
N211 N 0.53235 0.25385 0.39819 0.0
C212 C 0.56041 0.24097 0.41509 0.0
C213 C 0.53772 0.19373 0.43016 0.0
C214 C 0.42878 0.57988 0.61119 0.0
C215 C 0.40354 0.53045 0.6165 0.0
C216 C 0.40667 0.60385 0.59944 0.0
C217 C 0.35854 0.5793 0.59185 0.0
H218 H 0.46531 0.60059 0.61908 0.0
H219 H 0.42718 0.64214 0.59759 0.0
S220 S 0.27714 0.44944 0.59913 0.0
N221 N 0.32814 0.45762 0.61203 0.0
N222 N 0.28675 0.50239 0.58821 0.0
C223 C 0.3334 0.52955 0.59455 0.0
C224 C 0.35585 0.50519 0.60732 0.0
C225 C 0.86807 0.42874 0.79545 0.0
C226 C 0.89784 0.41085 0.79233 0.0
C227 C 0.82325 0.40483 0.77951 0.0
C228 C 0.80643 0.36241 0.75904 0.0
H229 H 0.8786 0.46025 0.81231 0.0
H230 H 0.80115 0.41917 0.78417 0.0
S231 S 0.8721 0.30294 0.73923 0.0
N232 N 0.9084 0.34961 0.76522 0.0
N233 N 0.82466 0.30547 0.73375 0.0
C234 C 0.83698 0.34582 0.75325 0.0
C235 C 0.88261 0.36991 0.77016 0.0
C236 C 0.55217 0.86213 0.93325 0.0
C237 C 0.52671 0.88099 0.94885 0.0
C238 C 0.52918 0.81555 0.91866 0.0
C239 C 0.48019 0.78615 0.92034 0.0
H240 H 0.58992 0.88235 0.93449 0.0
H241 H 0.54994 0.80157 0.90821 0.0
S242 S 0.39792 0.82086 0.95465 0.0
N243 N 0.45007 0.8684 0.96157 0.0
N244 N 0.40716 0.78087 0.93552 0.0
C245 C 0.45453 0.80562 0.93395 0.0
C246 C 0.47773 0.85307 0.9478 0.0
C247 C 0.66318 0.47842 0.11076 0.0
C248 C 0.6883 0.52793 0.11547 0.0
C249 C 0.68534 0.4544 0.09918 0.0
C250 C 0.7334 0.47896 0.09119 0.0
H251 H 0.62675 0.45773 0.11897 0.0
H252 H 0.66493 0.41608 0.09778 0.0
S253 S 0.81453 0.60897 0.09715 0.0
N254 N 0.76357 0.60081 0.11019 0.0
N255 N 0.80501 0.55594 0.08673 0.0
C256 C 0.75842 0.52874 0.09339 0.0
C257 C 0.73593 0.55315 0.10598 0.0
C258 C 0.38399 0.85482 0.53522 0.0
C259 C 0.42627 0.87243 0.51526 0.0
C260 C 0.35995 0.80836 0.55012 0.0
C261 C 0.37698 0.77786 0.54472 0.0
H262 H 0.36798 0.87587 0.53715 0.0
H263 H 0.32658 0.79541 0.56397 0.0
S264 S 0.48926 0.80956 0.49905 0.0
N265 N 0.48667 0.85778 0.49491 0.0
N266 N 0.4411 0.77055 0.52169 0.0
C267 C 0.42056 0.79622 0.52692 0.0
C268 C 0.44534 0.84351 0.5126 0.0
C269 C 0.61691 0.4209 0.67988 0.0
C270 C 0.56792 0.39799 0.68063 0.0
C271 C 0.63986 0.39821 0.69269 0.0
C272 C 0.61488 0.35179 0.70728 0.0
H273 H 0.6375 0.45557 0.6668 0.0
H274 H 0.67746 0.4167 0.68996 0.0
S275 S 0.48625 0.2773 0.71776 0.0
N276 N 0.49526 0.32706 0.69862 0.0
N277 N 0.53838 0.2847 0.72394 0.0
C278 C 0.56604 0.32952 0.71052 0.0
C279 C 0.54258 0.35256 0.69693 0.0
C280 C 0.22044 0.5136 0.86593 0.0
C281 C 0.19742 0.53803 0.85814 0.0
C282 C 0.26782 0.5381 0.87685 0.0
C283 C 0.29407 0.58792 0.8789 0.0
H284 H 0.20265 0.47579 0.86099 0.0
H285 H 0.28476 0.51821 0.88111 0.0
S286 S 0.24899 0.66777 0.86444 0.0
N287 N 0.20348 0.61424 0.85644 0.0
N288 N 0.29243 0.66025 0.87554 0.0
C289 C 0.27075 0.61234 0.87318 0.0
C290 C 0.22246 0.58739 0.8632 0.0
C291 C 0.65003 0.21789 0.01015 0.0
C292 C 0.66592 0.18634 0.01465 0.0
C293 C 0.67512 0.26401 0.02483 0.0
C294 C 0.71671 0.28036 0.04539 0.0
H295 H 0.61933 0.20773 -0.00701 0.0
H296 H 0.66239 0.28745 0.01912 0.0
S297 S 0.77089 0.21029 0.06862 0.0
N298 N 0.7243 0.17367 0.04316 0.0
N299 N 0.77063 0.25987 0.07236 0.0
C300 C 0.73122 0.2481 0.05263 0.0
C301 C 0.70596 0.20116 0.03698 0.0
C302 C 0.47145 0.63572 0.17682 0.0
C303 C 0.52024 0.65703 0.17914 0.0
C304 C 0.4492 0.65923 0.18936 0.0
C305 C 0.47462 0.70487 0.20534 0.0
H306 H 0.45063 0.60177 0.16269 0.0
H307 H 0.41185 0.64198 0.18536 0.0
S308 S 0.60264 0.77459 0.22119 0.0
N309 N 0.59298 0.72527 0.20069 0.0
N310 N 0.55108 0.76905 0.22565 0.0
C311 C 0.52304 0.72529 0.21041 0.0
C312 C 0.54585 0.70145 0.19705 0.0
C313 C 0.86755 0.47236 0.36216 0.0
C314 C 0.89358 0.52201 0.35854 0.0
C315 C 0.82018 0.44797 0.37237 0.0
C316 C 0.79715 0.47231 0.38011 0.0
H317 H 0.88296 0.45194 0.35394 0.0
H318 H 0.80103 0.40961 0.37292 0.0
S319 S 0.85015 0.60247 0.37688 0.0
N320 N 0.8932 0.59472 0.36464 0.0
N321 N 0.80466 0.54911 0.38571 0.0
C322 C 0.82348 0.52213 0.37913 0.0
C323 C 0.87158 0.54693 0.36787 0.0
C324 C 0.14212 0.64857 0.44918 0.0
C325 C 0.13815 0.61207 0.42598 0.0
C326 C 0.16958 0.66258 0.48246 0.0
C327 C 0.19433 0.64077 0.49362 0.0
H328 H 0.12679 0.66874 0.44004 0.0
H329 H 0.17308 0.69228 0.49847 0.0
S330 S 0.18986 0.53894 0.4444 0.0
N331 N 0.157 0.55129 0.41778 0.0
N332 N 0.20833 0.57692 0.48036 0.0
C333 C 0.18766 0.60179 0.4719 0.0
C334 C 0.15962 0.58761 0.43812 0.0
C335 C 0.59409 0.11932 0.59218 0.0
C336 C 0.55712 0.12437 0.58023 0.0
C337 C 0.62332 0.1467 0.62231 0.0
C338 C 0.61669 0.18022 0.64161 0.0
H339 H 0.60278 0.09691 0.5762 0.0
H340 H 0.65265 0.14301 0.62923 0.0
S341 S 0.51971 0.20094 0.62456 0.0
N342 N 0.51166 0.16068 0.59247 0.0
N343 N 0.5663 0.21222 0.64925 0.0
C344 C 0.57722 0.18248 0.63195 0.0
C345 C 0.5475 0.1545 0.60126 0.0
C346 C 0.42032 0.52657 0.76675 0.0
C347 C 0.45936 0.53434 0.74554 0.0
C348 C 0.42494 0.55666 0.79692 0.0
C349 C 0.4688 0.59583 0.80691 0.0
H350 H 0.38559 0.49888 0.75823 0.0
H351 H 0.39355 0.5506 0.81099 0.0
S352 S 0.58268 0.62679 0.76401 0.0
N353 N 0.54359 0.58052 0.73916 0.0
N354 N 0.55285 0.6366 0.79637 0.0
C355 C 0.50855 0.60143 0.788 0.0
C356 C 0.5037 0.57071 0.75726 0.0
C357 C 0.92572 0.46615 0.93652 0.0
C358 C 0.95217 0.44647 0.92522 0.0
C359 C 0.89944 0.4518 0.9704 0.0
C360 C 0.89832 0.4169 -0.00573 0.0
H361 H 0.92295 0.49061 0.9177 0.0
H362 H 0.8782 0.46668 0.97688 0.0
S363 S 0.9666 0.35887 0.97935 0.0
N364 N 0.9793 0.39385 0.94177 0.0
N365 N 0.93058 0.3669 0.00583 0.0
C366 C 0.9275 0.39953 0.98454 0.0
C367 C 0.95434 0.41439 0.94999 0.0
C368 C 0.53809 0.90085 0.09941 0.0
C369 C 0.531 0.9335 0.07941 0.0
C370 C 0.5091 0.87421 0.12998 0.0
C371 C 0.47177 0.87913 0.14162 0.0
H372 H 0.56428 0.89353 0.08961 0.0
H373 H 0.51451 0.84781 0.14307 0.0
S374 S 0.44347 0.96566 0.10236 0.0
N375 N 0.48755 0.97316 0.07593 0.0
N376 N 0.43367 0.92431 0.13393 0.0
C377 C 0.46702 0.91478 0.12394 0.0
C378 C 0.49657 0.94178 0.09278 0.0
C379 C 0.59248 0.49065 0.25676 0.0
C380 C 0.6364 0.52813 0.24521 0.0
C381 C 0.58821 0.4608 0.287 0.0
C382 C 0.62773 0.4673 0.30685 0.0
H383 H 0.56162 0.48206 0.24045 0.0
H384 H 0.55373 0.43109 0.29362 0.0
S385 S 0.75001 0.56538 0.29098 0.0
N386 N 0.7195 0.57395 0.25844 0.0
N387 N 0.71181 0.51802 0.31538 0.0
C388 C 0.67148 0.50726 0.29758 0.0
C389 C 0.6757 0.53762 0.26676 0.0
C390 C 0.42382 0.92908 0.35983 0.0
C391 C 0.45752 0.92819 0.38282 0.0
C392 C 0.4084 0.90273 0.32579 0.0
C393 C 0.42601 0.87437 0.31364 0.0
H394 H 0.40692 0.94751 0.36956 0.0
H395 H 0.38098 0.90312 0.30985 0.0
S396 S 0.51937 0.86527 0.36231 0.0
N397 N 0.51128 0.90077 0.39 0.0
N398 N 0.48291 0.85138 0.32605 0.0
C399 C 0.46223 0.87603 0.33531 0.0
C400 C 0.47785 0.90294 0.36986 0.0
C401 C 0.59312 0.45262 0.53655 0.0
C402 C 0.54665 0.4326 0.54858 0.0
C403 C 0.60391 0.43978 0.50161 0.0
C404 C 0.56859 0.40606 0.4774 0.0
H405 H 0.62144 0.47636 0.55538 0.0
H406 H 0.64036 0.45498 0.49446 0.0
S407 S 0.4409 0.34735 0.49447 0.0
N408 N 0.46497 0.38072 0.53275 0.0
N409 N 0.48465 0.35647 0.4667 0.0
C410 C 0.52173 0.38816 0.48811 0.0
C411 C 0.51091 0.40153 0.52375 0.0
C412 C 0.14083 0.57181 0.7158 0.0
C413 C 0.1452 0.53403 0.7282 0.0
C414 C 0.16684 0.59993 0.68464 0.0
C415 C 0.1982 0.59132 0.66469 0.0
H416 H 0.11987 0.58191 0.732 0.0
H417 H 0.1637 0.62991 0.67728 0.0
S418 S 0.21655 0.49169 0.68287 0.0
N419 N 0.17869 0.48576 0.71594 0.0
N420 N 0.22769 0.53838 0.65723 0.0
C421 C 0.1999 0.55112 0.67501 0.0
C422 C 0.17336 0.52255 0.70679 0.0
C423 C 0.61719 0.15849 0.86925 0.0
C424 C 0.63431 0.13018 0.88208 0.0
C425 C 0.633 0.18406 0.83496 0.0
C426 C 0.66686 0.18259 0.81221 0.0
H427 H 0.59351 0.16316 0.88712 0.0
H428 H 0.62 0.20676 0.82722 0.0
S429 S 0.71836 0.10883 0.83146 0.0
N430 N 0.68347 0.09858 0.86831 0.0
N431 N 0.7132 0.14604 0.80345 0.0
C432 C 0.68176 0.15162 0.82355 0.0
C433 C 0.66539 0.12548 0.85852 0.0
C434 C 0.49645 0.60341 0.03498 0.0
C435 C 0.5428 0.62322 0.04728 0.0
C436 C 0.48603 0.61741 0.00045 0.0
C437 C 0.5216 0.6521 0.97693 0.0
H438 H 0.46793 0.57903 0.05342 0.0
H439 H 0.44966 0.60239 -0.00685 0.0
S440 S 0.64911 0.71037 -0.00541 0.0
N441 N 0.62463 0.67574 0.03221 0.0
N442 N 0.60565 0.70209 0.96689 0.0
C443 C 0.56835 0.66967 0.98776 0.0
C444 C 0.57879 0.65514 0.02298 0.0
C445 C 0.95252 0.49051 0.21552 0.0
C446 C 0.94662 0.52712 0.22849 0.0
C447 C 0.92684 0.46225 0.18437 0.0
C448 C 0.89429 0.46954 0.16499 0.0
H449 H 0.9744 0.48128 0.23132 0.0
H450 H 0.93116 0.4331 0.1766 0.0
S451 S 0.87183 0.56613 0.1845 0.0
N452 N 0.91055 0.57323 0.21713 0.0
N453 N 0.86206 0.52017 0.15847 0.0
C454 C 0.89112 0.50874 0.17573 0.0
C455 C 0.91735 0.53751 0.2075 0.0
loop_
_geom_bond_atom_site_label_1
_geom_bond_atom_site_label_2
_geom_bond_distance
_geom_bond_site_symmetry_2
_ccdc_geom_bond_type
H0 C6 0.930 . S
H1 C9 0.931 . S
H2 C11 0.931 . S
H3 C13 0.930 . S
H4 C15 0.930 . S
H5 C17 0.931 . S
C6 H0 0.930 . S
C6 C7 1.380 . S
C6 C8 1.394 . S
C7 C6 1.380 . S
C7 C11 1.382 . S
C8 C6 1.394 . S
C8 C9 1.400 . S
C9 H1 0.931 . S
C9 C8 1.400 . S
C9 C10 1.375 . S
C10 C9 1.375 . S
C10 C11 1.415 . S
C10 C12 1.501 1_455 S
C11 H2 0.931 . S
C11 C7 1.382 . S
C11 C10 1.415 . S
C12 C10 1.501 1_655 S
C12 C13 1.384 . S
C12 C17 1.408 . S
C13 H3 0.930 . S
C13 C12 1.384 . S
C13 C14 1.389 . S
C14 C13 1.389 . S
C14 C15 1.405 . S
C15 H4 0.930 . S
C15 C14 1.405 . S
C15 C16 1.364 . S
C16 C15 1.364 . S
C16 C17 1.400 . S
C17 H5 0.931 . S
C17 C12 1.408 . S
C17 C16 1.400 . S
H18 C24 0.930 . S
H19 C27 0.931 . S
H20 C29 0.931 . S
H21 C31 0.930 . S
H22 C33 0.930 . S
H23 C35 0.931 . S
C24 H18 0.930 . S
C24 C25 1.380 . S
C24 C26 1.394 . S
C25 C24 1.380 . S
C25 C29 1.382 . S
C26 C24 1.394 . S
C26 C27 1.400 . S
C27 H19 0.931 . S
C27 C26 1.400 . S
C27 C28 1.375 . S
C28 C27 1.375 . S
C28 C29 1.415 . S
C28 C30 1.501 1_545 S
C29 H20 0.931 . S
C29 C25 1.382 . S
C29 C28 1.415 . S
C30 C28 1.501 1_565 S
C30 C31 1.384 . S
C30 C35 1.408 . S
C31 H21 0.930 . S
C31 C30 1.384 . S
C31 C32 1.389 . S
C32 C31 1.389 . S
C32 C33 1.405 . S
C33 H22 0.930 . S
C33 C32 1.405 . S
C33 C34 1.364 . S
C34 C33 1.364 . S
C34 C35 1.400 . S
C35 H23 0.931 . S
C35 C30 1.408 . S
C35 C34 1.400 . S
H36 C42 0.930 . S
H37 C45 0.931 . S
H38 C47 0.931 . S
H39 C49 0.930 . S
H40 C51 0.930 . S
H41 C53 0.931 . S
C42 H36 0.930 . S
C42 C43 1.380 . S
C42 C44 1.394 . S
C43 C42 1.380 . S
C43 C47 1.382 . S
C44 C42 1.394 . S
C44 C45 1.400 . S
C45 H37 0.931 . S
C45 C44 1.400 . S
C45 C46 1.375 . S
C46 C45 1.375 . S
C46 C47 1.415 . S
C46 C48 1.501 . S
C47 H38 0.931 . S
C47 C43 1.382 . S
C47 C46 1.415 . S
C48 C46 1.501 . S
C48 C49 1.384 . S
C48 C53 1.408 . S
C49 H39 0.930 . S
C49 C48 1.384 . S
C49 C50 1.389 . S
C50 C49 1.389 . S
C50 C51 1.405 . S
C51 H40 0.930 . S
C51 C50 1.405 . S
C51 C52 1.364 . S
C52 C51 1.364 . S
C52 C53 1.400 . S
C53 H41 0.931 . S
C53 C48 1.408 . S
C53 C52 1.400 . S
H54 C60 0.930 . S
H55 C63 0.931 . S
H56 C65 0.931 . S
H57 C67 0.930 . S
H58 C69 0.930 . S
H59 C71 0.931 . S
C60 H54 0.930 . S
C60 C61 1.380 . S
C60 C62 1.394 . S
C61 C60 1.380 . S
C61 C65 1.382 . S
C62 C60 1.394 . S
C62 C63 1.400 . S
C63 H55 0.931 . S
C63 C62 1.400 . S
C63 C64 1.375 . S
C64 C63 1.375 . S
C64 C65 1.415 . S
C64 C66 1.501 1_455 S
C65 H56 0.931 . S
C65 C61 1.382 . S
C65 C64 1.415 . S
C66 C64 1.501 1_655 S
C66 C67 1.384 . S
C66 C71 1.408 . S
C67 H57 0.930 . S
C67 C66 1.384 . S
C67 C68 1.389 . S
C68 C67 1.389 . S
C68 C69 1.405 . S
C69 H58 0.930 . S
C69 C68 1.405 . S
C69 C70 1.364 . S
C70 C69 1.364 . S
C70 C71 1.400 . S
C71 H59 0.931 . S
C71 C66 1.408 . S
C71 C70 1.400 . S
H72 C78 0.930 . S
H73 C81 0.931 . S
H74 C83 0.931 . S
H75 C85 0.930 . S
H76 C87 0.930 . S
H77 C89 0.931 . S
C78 H72 0.930 . S
C78 C79 1.380 . S
C78 C80 1.394 1_554 S
C79 C78 1.380 . S
C79 C83 1.382 . S
C80 C78 1.394 1_556 S
C80 C81 1.400 . S
C81 H73 0.931 . S
C81 C80 1.400 . S
C81 C82 1.375 . S
C82 C81 1.375 . S
C82 C83 1.415 1_556 S
C82 C84 1.501 1_565 S
C83 H74 0.931 . S
C83 C79 1.382 . S
C83 C82 1.415 1_554 S
C84 C82 1.501 1_545 S
C84 C85 1.384 1_556 S
C84 C89 1.408 . S
C85 H75 0.930 . S
C85 C84 1.384 1_554 S
C85 C86 1.389 . S
C86 C85 1.389 . S
C86 C87 1.405 1_554 S
C87 H76 0.930 . S
C87 C86 1.405 1_556 S
C87 C88 1.364 . S
C88 C87 1.364 . S
C88 C89 1.400 . S
C89 H77 0.931 . S
C89 C84 1.408 . S
C89 C88 1.400 . S
H90 C96 0.930 . S
H91 C99 0.931 . S
H92 C101 0.931 . S
H93 C103 0.930 . S
H94 C105 0.930 . S
H95 C107 0.931 . S
C96 H90 0.930 . S
C96 C97 1.380 . S
C96 C98 1.394 . S
C97 C96 1.380 . S
C97 C101 1.382 . S
C98 C96 1.394 . S
C98 C99 1.400 . S
C99 H91 0.931 . S
C99 C98 1.400 . S
C99 C100 1.375 . S
C100 C99 1.375 . S
C100 C101 1.415 . S
C100 C102 1.501 . S
C101 H92 0.931 . S
C101 C97 1.382 . S
C101 C100 1.415 . S
C102 C100 1.501 . S
C102 C103 1.384 . S
C102 C107 1.408 . S
C103 H93 0.930 . S
C103 C102 1.384 . S
C103 C104 1.389 . S
C104 C103 1.389 . S
C104 C105 1.405 . S
C105 H94 0.930 . S
C105 C104 1.405 . S
C105 C106 1.364 . S
C106 C105 1.364 . S
C106 C107 1.400 . S
C107 H95 0.931 . S
C107 C102 1.408 . S
C107 C106 1.400 . S
Co108 O109 2.216 . S
Co108 O110 2.091 . S
Co108 O112 2.004 . S
Co108 O118 2.021 . S
Co108 O120 2.137 . S
Co108 O121 2.244 . S
O109 Co108 2.216 . S
O109 C116 1.247 . S
O110 Co108 2.091 . S
O110 C116 1.261 . S
C111 O120 1.247 . S
C111 O121 1.272 . S
O112 Co108 2.004 . S
O112 C117 1.259 . S
Co113 O114 2.061 . S
Co113 O119 2.052 . S
Co113 O121 2.135 . S
O114 Co113 2.061 . S
O114 C117 1.235 . S
C115 O118 1.238 . S
C115 O119 1.241 . S
C116 O109 1.247 . S
C116 O110 1.261 . S
C117 O112 1.259 . S
C117 O114 1.235 . S
O118 Co108 2.021 . S
O118 C115 1.238 . S
O119 Co113 2.052 . S
O119 C115 1.241 . S
O120 Co108 2.137 . S
O120 C111 1.247 . S
O121 Co108 2.244 . S
O121 C111 1.272 . S
O121 Co113 2.135 . S
Co122 O123 2.216 . S
Co122 O124 2.091 . S
Co122 O126 2.004 . S
Co122 O132 2.021 . S
Co122 O134 2.137 . S
Co122 O135 2.244 . S
O123 Co122 2.216 . S
O123 C130 1.247 . S
O124 Co122 2.091 . S
O124 C130 1.261 . S
C125 O134 1.247 . S
C125 O135 1.272 . S
O126 Co122 2.004 . S
O126 C131 1.259 . S
Co127 O128 2.061 . S
Co127 O133 2.052 . S
Co127 O135 2.135 . S
O128 Co127 2.061 . S
O128 C131 1.235 . S
C129 O132 1.238 . S
C129 O133 1.241 . S
C130 O123 1.247 . S
C130 O124 1.261 . S
C131 O126 1.259 . S
C131 O128 1.235 . S
O132 Co122 2.021 . S
O132 C129 1.238 . S
O133 Co127 2.052 . S
O133 C129 1.241 . S
O134 Co122 2.137 . S
O134 C125 1.247 . S
O135 Co122 2.244 . S
O135 C125 1.272 . S
O135 Co127 2.135 . S
Co136 O137 2.216 . S
Co136 O138 2.091 . S
Co136 O140 2.004 . S
Co136 O146 2.021 . S
Co136 O148 2.137 . S
Co136 O149 2.244 . S
O137 Co136 2.216 . S
O137 C144 1.247 . S
O138 Co136 2.091 . S
O138 C144 1.261 . S
C139 O148 1.247 . S
C139 O149 1.272 . S
O140 Co136 2.004 . S
O140 C145 1.259 . S
Co141 O142 2.061 . S
Co141 O147 2.052 . S
Co141 O149 2.135 . S
O142 Co141 2.061 . S
O142 C145 1.235 . S
C143 O146 1.238 . S
C143 O147 1.241 . S
C144 O137 1.247 . S
C144 O138 1.261 . S
C145 O140 1.259 . S
C145 O142 1.235 . S
O146 Co136 2.021 . S
O146 C143 1.238 . S
O147 Co141 2.052 . S
O147 C143 1.241 . S
O148 Co136 2.137 . S
O148 C139 1.247 . S
O149 Co136 2.244 . S
O149 C139 1.272 . S
O149 Co141 2.135 . S
Co150 O151 2.216 . S
Co150 O152 2.091 . S
Co150 O154 2.004 . S
Co150 O160 2.021 . S
Co150 O162 2.137 . S
Co150 O163 2.244 . S
O151 Co150 2.216 . S
O151 C158 1.247 . S
O152 Co150 2.091 . S
O152 C158 1.261 . S
C153 O162 1.247 . S
C153 O163 1.272 . S
O154 Co150 2.004 . S
O154 C159 1.259 . S
Co155 O156 2.061 . S
Co155 O161 2.052 . S
Co155 O163 2.135 . S
O156 Co155 2.061 . S
O156 C159 1.235 . S
C157 O160 1.238 . S
C157 O161 1.241 . S
C158 O151 1.247 . S
C158 O152 1.261 . S
C159 O154 1.259 . S
C159 O156 1.235 . S
O160 Co150 2.021 . S
O160 C157 1.238 . S
O161 Co155 2.052 . S
O161 C157 1.241 . S
O162 Co150 2.137 . S
O162 C153 1.247 . S
O163 Co150 2.244 . S
O163 C153 1.272 . S
O163 Co155 2.135 . S
Co164 O165 2.216 . S
Co164 O166 2.091 . S
Co164 O168 2.004 . S
Co164 O174 2.021 . S
Co164 O176 2.137 . S
Co164 O177 2.244 . S
O165 Co164 2.216 . S
O165 C172 1.247 . S
O166 Co164 2.091 . S
O166 C172 1.261 . S
C167 O176 1.247 . S
C167 O177 1.272 . S
O168 Co164 2.004 . S
O168 C173 1.259 . S
Co169 O170 2.061 . S
Co169 O175 2.052 . S
Co169 O177 2.135 . S
O170 Co169 2.061 . S
O170 C173 1.235 . S
C171 O174 1.238 . S
C171 O175 1.241 . S
C172 O165 1.247 . S
C172 O166 1.261 . S
C173 O168 1.259 . S
C173 O170 1.235 . S
O174 Co164 2.021 . S
O174 C171 1.238 . S
O175 Co169 2.052 . S
O175 C171 1.241 . S
O176 Co164 2.137 . S
O176 C167 1.247 . S
O177 Co164 2.244 . S
O177 C167 1.272 . S
O177 Co169 2.135 . S
Co178 O179 2.216 . S
Co178 O180 2.091 . S
Co178 O182 2.004 . S
Co178 O188 2.021 . S
Co178 O190 2.137 . S
Co178 O191 2.244 . S
O179 Co178 2.216 . S
O179 C186 1.247 . S
O180 Co178 2.091 . S
O180 C186 1.261 . S
C181 O190 1.247 . S
C181 O191 1.272 . S
O182 Co178 2.004 . S
O182 C187 1.259 . S
Co183 O184 2.061 . S
Co183 O189 2.052 . S
Co183 O191 2.135 . S
O184 Co183 2.061 . S
O184 C187 1.235 . S
C185 O188 1.238 . S
C185 O189 1.241 . S
C186 O179 1.247 . S
C186 O180 1.261 . S
C187 O182 1.259 . S
C187 O184 1.235 . S
O188 Co178 2.021 . S
O188 C185 1.238 . S
O189 Co183 2.052 . S
O189 C185 1.241 . S
O190 Co178 2.137 . S
O190 C181 1.247 . S
O191 Co178 2.244 . S
O191 C181 1.272 . S
O191 Co183 2.135 . S
C192 C193 1.369 . S
C192 C194 1.419 . S
C192 H196 0.930 . S
C193 C192 1.369 . S
C193 C202 1.429 . S
C194 C192 1.419 . S
C194 C195 1.363 . S
C194 H197 0.929 . S
C195 C194 1.363 . S
C195 C201 1.428 . S
H196 C192 0.930 . S
H197 C194 0.929 . S
S198 N199 1.613 . S
S198 N200 1.610 . S
N199 S198 1.613 . S
N199 C202 1.350 . S
N200 S198 1.610 . S
N200 C201 1.351 . S
C201 C195 1.428 . S
C201 N200 1.351 . S
C201 C202 1.434 . S
C202 C193 1.429 . S
C202 N199 1.350 . S
C202 C201 1.434 . S
C203 C204 1.369 . S
C203 C205 1.419 . S
C203 H207 0.930 . S
C204 C203 1.369 . S
C204 C213 1.429 . S
C205 C203 1.419 . S
C205 C206 1.363 . S
C205 H208 0.929 . S
C206 C205 1.363 . S
C206 C212 1.428 . S
H207 C203 0.930 . S
H208 C205 0.929 . S
S209 N210 1.613 . S
S209 N211 1.610 . S
N210 S209 1.613 . S
N210 C213 1.350 . S
N211 S209 1.610 . S
N211 C212 1.351 . S
C212 C206 1.428 . S
C212 N211 1.351 . S
C212 C213 1.434 . S
C213 C204 1.429 . S
C213 N210 1.350 . S
C213 C212 1.434 . S
C214 C215 1.369 . S
C214 C216 1.419 . S
C214 H218 0.930 . S
C215 C214 1.369 . S
C215 C224 1.429 . S
C216 C214 1.419 . S
C216 C217 1.363 . S
C216 H219 0.929 . S
C217 C216 1.363 . S
C217 C223 1.428 . S
H218 C214 0.930 . S
H219 C216 0.929 . S
S220 N221 1.613 . S
S220 N222 1.610 . S
N221 S220 1.613 . S
N221 C224 1.350 . S
N222 S220 1.610 . S
N222 C223 1.351 . S
C223 C217 1.428 . S
C223 N222 1.351 . S
C223 C224 1.434 . S
C224 C215 1.429 . S
C224 N221 1.350 . S
C224 C223 1.434 . S
C225 C226 1.369 . S
C225 C227 1.419 . S
C225 H229 0.930 . S
C226 C225 1.369 . S
C226 C235 1.429 . S
C227 C225 1.419 . S
C227 C228 1.363 . S
C227 H230 0.929 . S
C228 C227 1.363 . S
C228 C234 1.428 . S
H229 C225 0.930 . S
H230 C227 0.929 . S
S231 N232 1.613 . S
S231 N233 1.610 . S
N232 S231 1.613 . S
N232 C235 1.350 . S
N233 S231 1.610 . S
N233 C234 1.351 . S
C234 C228 1.428 . S
C234 N233 1.351 . S
C234 C235 1.434 . S
C235 C226 1.429 . S
C235 N232 1.350 . S
C235 C234 1.434 . S
C236 C237 1.369 . S
C236 C238 1.419 . S
C236 H240 0.930 . S
C237 C236 1.369 . S
C237 C246 1.429 . S
C238 C236 1.419 . S
C238 C239 1.363 . S
C238 H241 0.929 . S
C239 C238 1.363 . S
C239 C245 1.428 . S
H240 C236 0.930 . S
H241 C238 0.929 . S
S242 N243 1.613 . S
S242 N244 1.610 . S
N243 S242 1.613 . S
N243 C246 1.350 1_554 S
N244 S242 1.610 . S
N244 C245 1.351 1_554 S
C245 C239 1.428 . S
C245 N244 1.351 1_556 S
C245 C246 1.434 . S
C246 C237 1.429 . S
C246 N243 1.350 1_556 S
C246 C245 1.434 . S
C247 C248 1.369 . S
C247 C249 1.419 . S
C247 H251 0.930 . S
C248 C247 1.369 . S
C248 C257 1.429 . S
C249 C247 1.419 . S
C249 C250 1.363 . S
C249 H252 0.929 . S
C250 C249 1.363 . S
C250 C256 1.428 . S
H251 C247 0.930 . S
H252 C249 0.929 . S
S253 N254 1.613 . S
S253 N255 1.610 . S
N254 S253 1.613 . S
N254 C257 1.350 . S
N255 S253 1.610 . S
N255 C256 1.351 . S
C256 C250 1.428 . S
C256 N255 1.351 . S
C256 C257 1.434 . S
C257 C248 1.429 . S
C257 N254 1.350 . S
C257 C256 1.434 . S
C258 C259 1.369 . S
C258 C260 1.419 . S
C258 H262 0.930 . S
C259 C258 1.369 . S
C259 C268 1.429 . S
C260 C258 1.419 . S
C260 C261 1.363 . S
C260 H263 0.929 . S
C261 C260 1.363 . S
C261 C267 1.428 . S
H262 C258 0.930 . S
H263 C260 0.929 . S
S264 N265 1.613 . S
S264 N266 1.610 . S
N265 S264 1.613 . S
N265 C268 1.350 . S
N266 S264 1.610 . S
N266 C267 1.351 . S
C267 C261 1.428 . S
C267 N266 1.351 . S
C267 C268 1.434 . S
C268 C259 1.429 . S
C268 N265 1.350 . S
C268 C267 1.434 . S
C269 C270 1.369 . S
C269 C271 1.419 . S
C269 H273 0.930 . S
C270 C269 1.369 . S
C270 C279 1.429 . S
C271 C269 1.419 . S
C271 C272 1.363 . S
C271 H274 0.929 . S
C272 C271 1.363 . S
C272 C278 1.428 . S
H273 C269 0.930 . S
H274 C271 0.929 . S
S275 N276 1.613 . S
S275 N277 1.610 . S
N276 S275 1.613 . S
N276 C279 1.350 . S
N277 S275 1.610 . S
N277 C278 1.351 . S
C278 C272 1.428 . S
C278 N277 1.351 . S
C278 C279 1.434 . S
C279 C270 1.429 . S
C279 N276 1.350 . S
C279 C278 1.434 . S
C280 C281 1.369 . S
C280 C282 1.419 . S
C280 H284 0.930 . S
C281 C280 1.369 . S
C281 C290 1.429 . S
C282 C280 1.419 . S
C282 C283 1.363 . S
C282 H285 0.929 . S
C283 C282 1.363 . S
C283 C289 1.428 . S
H284 C280 0.930 . S
H285 C282 0.929 . S
S286 N287 1.613 . S
S286 N288 1.610 . S
N287 S286 1.613 . S
N287 C290 1.350 . S
N288 S286 1.610 . S
N288 C289 1.351 . S
C289 C283 1.428 . S
C289 N288 1.351 . S
C289 C290 1.434 . S
C290 C281 1.429 . S
C290 N287 1.350 . S
C290 C289 1.434 . S
C291 C292 1.369 . S
C291 C293 1.419 . S
C291 H295 0.930 . S
C292 C291 1.369 . S
C292 C301 1.429 1_554 S
C293 C291 1.419 . S
C293 C294 1.363 . S
C293 H296 0.929 . S
C294 C293 1.363 . S
C294 C300 1.428 . S
H295 C291 0.930 . S
H296 C293 0.929 . S
S297 N298 1.613 . S
S297 N299 1.610 . S
N298 S297 1.613 . S
N298 C301 1.350 . S
N299 S297 1.610 . S
N299 C300 1.351 1_556 S
C300 C294 1.428 . S
C300 N299 1.351 1_554 S
C300 C301 1.434 1_554 S
C301 C292 1.429 1_556 S
C301 N298 1.350 . S
C301 C300 1.434 1_556 S
C302 C303 1.369 . S
C302 C304 1.419 . S
C302 H306 0.930 . S
C303 C302 1.369 . S
C303 C312 1.429 . S
C304 C302 1.419 . S
C304 C305 1.363 . S
C304 H307 0.929 . S
C305 C304 1.363 . S
C305 C311 1.428 . S
H306 C302 0.930 . S
H307 C304 0.929 . S
S308 N309 1.613 . S
S308 N310 1.610 . S
N309 S308 1.613 . S
N309 C312 1.350 . S
N310 S308 1.610 . S
N310 C311 1.351 . S
C311 C305 1.428 . S
C311 N310 1.351 . S
C311 C312 1.434 . S
C312 C303 1.429 . S
C312 N309 1.350 . S
C312 C311 1.434 . S
C313 C314 1.369 . S
C313 C315 1.419 . S
C313 H317 0.930 . S
C314 C313 1.369 . S
C314 C323 1.429 . S
C315 C313 1.419 . S
C315 C316 1.363 . S
C315 H318 0.929 . S
C316 C315 1.363 . S
C316 C322 1.428 . S
H317 C313 0.930 . S
H318 C315 0.929 . S
S319 N320 1.613 . S
S319 N321 1.610 . S
N320 S319 1.613 . S
N320 C323 1.350 . S
N321 S319 1.610 . S
N321 C322 1.351 . S
C322 C316 1.428 . S
C322 N321 1.351 . S
C322 C323 1.434 . S
C323 C314 1.429 . S
C323 N320 1.350 . S
C323 C322 1.434 . S
C324 C325 1.369 . S
C324 C326 1.419 . S
C324 H328 0.930 . S
C325 C324 1.369 . S
C325 C334 1.429 . S
C326 C324 1.419 . S
C326 C327 1.363 . S
C326 H329 0.929 . S
C327 C326 1.363 . S
C327 C333 1.428 . S
H328 C324 0.930 . S
H329 C326 0.929 . S
S330 N331 1.613 . S
S330 N332 1.610 . S
N331 S330 1.613 . S
N331 C334 1.350 . S
N332 S330 1.610 . S
N332 C333 1.351 . S
C333 C327 1.428 . S
C333 N332 1.351 . S
C333 C334 1.434 . S
C334 C325 1.429 . S
C334 N331 1.350 . S
C334 C333 1.434 . S
C335 C336 1.369 . S
C335 C337 1.419 . S
C335 H339 0.930 . S
C336 C335 1.369 . S
C336 C345 1.429 . S
C337 C335 1.419 . S
C337 C338 1.363 . S
C337 H340 0.929 . S
C338 C337 1.363 . S
C338 C344 1.428 . S
H339 C335 0.930 . S
H340 C337 0.929 . S
S341 N342 1.613 . S
S341 N343 1.610 . S
N342 S341 1.613 . S
N342 C345 1.350 . S
N343 S341 1.610 . S
N343 C344 1.351 . S
C344 C338 1.428 . S
C344 N343 1.351 . S
C344 C345 1.434 . S
C345 C336 1.429 . S
C345 N342 1.350 . S
C345 C344 1.434 . S
C346 C347 1.369 . S
C346 C348 1.419 . S
C346 H350 0.930 . S
C347 C346 1.369 . S
C347 C356 1.429 . S
C348 C346 1.419 . S
C348 C349 1.363 . S
C348 H351 0.929 . S
C349 C348 1.363 . S
C349 C355 1.428 . S
H350 C346 0.930 . S
H351 C348 0.929 . S
S352 N353 1.613 . S
S352 N354 1.610 . S
N353 S352 1.613 . S
N353 C356 1.350 . S
N354 S352 1.610 . S
N354 C355 1.351 . S
C355 C349 1.428 . S
C355 N354 1.351 . S
C355 C356 1.434 . S
C356 C347 1.429 . S
C356 N353 1.350 . S
C356 C355 1.434 . S
C357 C358 1.369 . S
C357 C359 1.419 . S
C357 H361 0.930 . S
C358 C357 1.369 . S
C358 C367 1.429 . S
C359 C357 1.419 . S
C359 C360 1.363 . S
C359 H362 0.929 . S
C360 C359 1.363 . S
C360 C366 1.428 . S
H361 C357 0.930 . S
H362 C359 0.929 . S
S363 N364 1.613 . S
S363 N365 1.610 . S
N364 S363 1.613 . S
N364 C367 1.350 . S
N365 S363 1.610 . S
N365 C366 1.351 . S
C366 C360 1.428 . S
C366 N365 1.351 . S
C366 C367 1.434 . S
C367 C358 1.429 . S
C367 N364 1.350 . S
C367 C366 1.434 . S
C368 C369 1.369 . S
C368 C370 1.419 . S
C368 H372 0.930 . S
C369 C368 1.369 . S
C369 C378 1.429 . S
C370 C368 1.419 . S
C370 C371 1.363 . S
C370 H373 0.929 . S
C371 C370 1.363 . S
C371 C377 1.428 . S
H372 C368 0.930 . S
H373 C370 0.929 . S
S374 N375 1.613 . S
S374 N376 1.610 . S
N375 S374 1.613 . S
N375 C378 1.350 . S
N376 S374 1.610 . S
N376 C377 1.351 . S
C377 C371 1.428 . S
C377 N376 1.351 . S
C377 C378 1.434 . S
C378 C369 1.429 . S
C378 N375 1.350 . S
C378 C377 1.434 . S
C379 C380 1.369 . S
C379 C381 1.419 . S
C379 H383 0.930 . S
C380 C379 1.369 . S
C380 C389 1.429 . S
C381 C379 1.419 . S
C381 C382 1.363 . S
C381 H384 0.929 . S
C382 C381 1.363 . S
C382 C388 1.428 . S
H383 C379 0.930 . S
H384 C381 0.929 . S
S385 N386 1.613 . S
S385 N387 1.610 . S
N386 S385 1.613 . S
N386 C389 1.350 . S
N387 S385 1.610 . S
N387 C388 1.351 . S
C388 C382 1.428 . S
C388 N387 1.351 . S
C388 C389 1.434 . S
C389 C380 1.429 . S
C389 N386 1.350 . S
C389 C388 1.434 . S
C390 C391 1.369 . S
C390 C392 1.419 . S
C390 H394 0.930 . S
C391 C390 1.369 . S
C391 C400 1.429 . S
C392 C390 1.419 . S
C392 C393 1.363 . S
C392 H395 0.929 . S
C393 C392 1.363 . S
C393 C399 1.428 . S
H394 C390 0.930 . S
H395 C392 0.929 . S
S396 N397 1.613 . S
S396 N398 1.610 . S
N397 S396 1.613 . S
N397 C400 1.350 . S
N398 S396 1.610 . S
N398 C399 1.351 . S
C399 C393 1.428 . S
C399 N398 1.351 . S
C399 C400 1.434 . S
C400 C391 1.429 . S
C400 N397 1.350 . S
C400 C399 1.434 . S
C401 C402 1.369 . S
C401 C403 1.419 . S
C401 H405 0.930 . S
C402 C401 1.369 . S
C402 C411 1.429 . S
C403 C401 1.419 . S
C403 C404 1.363 . S
C403 H406 0.929 . S
C404 C403 1.363 . S
C404 C410 1.428 . S
H405 C401 0.930 . S
H406 C403 0.929 . S
S407 N408 1.613 . S
S407 N409 1.610 . S
N408 S407 1.613 . S
N408 C411 1.350 . S
N409 S407 1.610 . S
N409 C410 1.351 . S
C410 C404 1.428 . S
C410 N409 1.351 . S
C410 C411 1.434 . S
C411 C402 1.429 . S
C411 N408 1.350 . S
C411 C410 1.434 . S
C412 C413 1.369 . S
C412 C414 1.419 . S
C412 H416 0.930 . S
C413 C412 1.369 . S
C413 C422 1.429 . S
C414 C412 1.419 . S
C414 C415 1.363 . S
C414 H417 0.929 . S
C415 C414 1.363 . S
C415 C421 1.428 . S
H416 C412 0.930 . S
H417 C414 0.929 . S
S418 N419 1.613 . S
S418 N420 1.610 . S
N419 S418 1.613 . S
N419 C422 1.350 . S
N420 S418 1.610 . S
N420 C421 1.351 . S
C421 C415 1.428 . S
C421 N420 1.351 . S
C421 C422 1.434 . S
C422 C413 1.429 . S
C422 N419 1.350 . S
C422 C421 1.434 . S
C423 C424 1.369 . S
C423 C425 1.419 . S
C423 H427 0.930 . S
C424 C423 1.369 . S
C424 C433 1.429 . S
C425 C423 1.419 . S
C425 C426 1.363 . S
C425 H428 0.929 . S
C426 C425 1.363 . S
C426 C432 1.428 . S
H427 C423 0.930 . S
H428 C425 0.929 . S
S429 N430 1.613 . S
S429 N431 1.610 . S
N430 S429 1.613 . S
N430 C433 1.350 . S
N431 S429 1.610 . S
N431 C432 1.351 . S
C432 C426 1.428 . S
C432 N431 1.351 . S
C432 C433 1.434 . S
C433 C424 1.429 . S
C433 N430 1.350 . S
C433 C432 1.434 . S
C434 C435 1.369 . S
C434 C436 1.419 . S
C434 H438 0.930 . S
C435 C434 1.369 . S
C435 C444 1.429 . S
C436 C434 1.419 . S
C436 C437 1.390 . S
C436 H439 0.929 . S
C437 C436 1.390 . S
C437 C443 1.425 1_554 S
H438 C434 0.930 . S
H439 C436 0.929 . S
S440 N441 1.613 1_556 S
S440 N442 1.610 . S
N441 S440 1.613 1_554 S
N441 C444 1.350 . S
N442 S440 1.610 . S
N442 C443 1.351 . S
C443 C437 1.425 1_556 S
C443 N442 1.351 . S
C443 C444 1.434 1_556 S
C444 C435 1.429 . S
C444 N441 1.350 . S
C444 C443 1.434 1_554 S
C445 C446 1.369 . S
C445 C447 1.419 . S
C445 H449 0.930 . S
C446 C445 1.369 . S
C446 C455 1.429 . S
C447 C445 1.419 . S
C447 C448 1.363 . S
C447 H450 0.929 . S
C448 C447 1.363 . S
C448 C454 1.428 . S
H449 C445 0.930 . S
H450 C447 0.929 . S
S451 N452 1.613 . S
S451 N453 1.610 . S
N452 S451 1.613 . S
N452 C455 1.350 . S
N453 S451 1.610 . S
N453 C454 1.351 . S
C454 C448 1.428 . S
C454 N453 1.351 . S
C454 C455 1.434 . S
C455 C446 1.429 . S
C455 N452 1.350 . S
C455 C454 1.434 . S
C195 C181 1.571 . S
C193 C8 1.517 . S
C204 C26 1.530 . S
C206 C111 1.572 . S
C215 C50 1.527 . S
C217 C130 1.585 . S
C226 C68 1.521 . S
C228 C139 1.575 . S
C239 C153 1.570 . S
C237 C80 1.522 . S
C248 C104 1.524 . S
C250 C172 1.580 . S
C259 C32 1.510 . S
C261 C125 1.566 . S
C270 C44 1.518 . S
C272 C144 1.566 . S
C281 C62 1.518 . S
C283 C158 1.563 . S
C294 C167 1.562 . S
C292 C86 1.505 . S
C305 C186 1.565 . S
C303 C98 1.517 . S
C316 C116 1.566 . S
C314 C14 1.521 . S
C325 C7 1.471 . S
C327 C131 1.507 . S
C336 C25 1.471 . S
C338 C143 1.485 . S
C349 C157 1.477 . S
C347 C52 1.469 . S
C358 C70 1.467 . S
C360 C173 1.504 1_556 S
C371 C185 1.482 . S
C369 C79 1.470 . S
C382 C115 1.479 . S
C380 C106 1.468 . S
C393 C187 1.509 . S
C391 C34 1.473 . S
C402 C43 1.468 . S
C404 C117 1.517 . S
C415 C129 1.491 . S
C413 C61 1.466 . S
C424 C88 1.471 . S
C426 C145 1.508 . S
C435 C97 1.471 . S
C437 C159 1.493 1_554 S
C446 C16 1.470 . S
C448 C171 1.491 . S
