# Generated by pormake.
# Topology anh, (6,3)-cn, num edge types: 1
# Building blocks:
#     Node 0, Type 0, BuildingBlock: BETDEL_clean_sbu_0, # of connection points: 6
#     Node 1, Type 0, BuildingBlock: BETDEL_clean_sbu_0, # of connection points: 6
#     Node 2, Type 0, BuildingBlock: BETDEL_clean_sbu_0, # of connection points: 6
#     Node 3, Type 1, BuildingBlock: CUQRIR_clean_linker_1, # of connection points: 3
#     Node 4, Type 1, BuildingBlock: CUQRIR_clean_linker_1, # of connection points: 3
#     Node 5, Type 1, BuildingBlock: CUQRIR_clean_linker_1, # of connection points: 3
#     Node 6, Type 1, BuildingBlock: CUQRIR_clean_linker_1, # of connection points: 3
#     Node 7, Type 1, BuildingBlock: CUQRIR_clean_linker_1, # of connection points: 3
#     Node 8, Type 1, BuildingBlock: CUQRIR_clean_linker_1, # of connection points: 3
#     Edge 9, Type (0, 1), BuildingBlock: KIFKEQ_clean_linker_1, # of connection points: 2
#     Edge 10, Type (0, 1), BuildingBlock: KIFKEQ_clean_linker_1, # of connection points: 2
#     Edge 11, Type (0, 1), BuildingBlock: KIFKEQ_clean_linker_1, # of connection points: 2
#     Edge 12, Type (0, 1), BuildingBlock: KIFKEQ_clean_linker_1, # of connection points: 2
#     Edge 13, Type (0, 1), BuildingBlock: KIFKEQ_clean_linker_1, # of connection points: 2
#     Edge 14, Type (0, 1), BuildingBlock: KIFKEQ_clean_linker_1, # of connection points: 2
#     Edge 15, Type (0, 1), BuildingBlock: KIFKEQ_clean_linker_1, # of connection points: 2
#     Edge 16, Type (0, 1), BuildingBlock: KIFKEQ_clean_linker_1, # of connection points: 2
#     Edge 17, Type (0, 1), BuildingBlock: KIFKEQ_clean_linker_1, # of connection points: 2
#     Edge 18, Type (0, 1), BuildingBlock: KIFKEQ_clean_linker_1, # of connection points: 2
#     Edge 19, Type (0, 1), BuildingBlock: KIFKEQ_clean_linker_1, # of connection points: 2
#     Edge 20, Type (0, 1), BuildingBlock: KIFKEQ_clean_linker_1, # of connection points: 2
#     Edge 21, Type (0, 1), BuildingBlock: KIFKEQ_clean_linker_1, # of connection points: 2
#     Edge 22, Type (0, 1), BuildingBlock: KIFKEQ_clean_linker_1, # of connection points: 2
#     Edge 23, Type (0, 1), BuildingBlock: KIFKEQ_clean_linker_1, # of connection points: 2
#     Edge 24, Type (0, 1), BuildingBlock: KIFKEQ_clean_linker_1, # of connection points: 2
#     Edge 25, Type (0, 1), BuildingBlock: KIFKEQ_clean_linker_1, # of connection points: 2
#     Edge 26, Type (0, 1), BuildingBlock: KIFKEQ_clean_linker_1, # of connection points: 2
# Relax obj value: 0.126
# Max RMSD: 0.199
# Mean RMSD: 0.139
data_MOF--net-anh--node1-BETDEL_clean_sbu_0--node2-CUQRIR_clean_linker_1--edge1-KIFKEQ_clean_linker_1
_symmetry_space_group_name_H-M    P1
_symmetry_Int_Tables_number       1
_symmetry_cell_setting            triclinic
loop_
_symmetry_equiv_pos_as_xyz
'x, y, z'
_cell_length_a     27.937123
_cell_length_b     27.787448
_cell_length_c     45.728262
_cell_angle_alpha  85.678124
_cell_angle_beta   89.710251
_cell_angle_gamma 120.05083
loop_
_atom_site_label
_atom_site_type_symbol
_atom_site_fract_x
_atom_site_fract_y
_atom_site_fract_z
_atom_type_partial_charge
Dy0 Dy 0.03548 0.46731 0.17675 0.0
C1 C 0.90595 0.57544 0.18847 0.0
C2 C 0.10284 0.42609 0.1662 0.0
Dy3 Dy 0.9718 0.53448 0.17353 0.0
O4 O 0.09636 0.44182 0.19123 0.0
O5 O 0.07224 0.4328 0.14686 0.0
O6 O 0.99657 0.42972 0.22177 0.0
O7 O 1.01256 0.51014 0.20699 0.0
C8 C 0.99013 0.4714 0.22743 0.0
C9 C 0.99835 0.52085 0.11897 0.0
O10 O 0.05723 0.60351 0.18199 0.0
O11 O 0.10588 0.55709 0.17407 0.0
O12 O 0.95026 0.60245 0.17114 0.0
O13 O 0.89884 0.52696 0.19802 0.0
O14 O 0.97084 0.54601 0.12377 0.0
O15 O 1.00709 0.50393 0.14343 0.0
O16 O 0.95009 0.39774 0.16933 0.0
O17 O 0.903 0.44431 0.17984 0.0
C18 C 0.1045 0.60327 0.17859 0.0
C19 C 0.90351 0.39788 0.17516 0.0
Dy20 Dy 0.55513 0.0627 0.49585 0.0
C21 C 0.7806 0.19806 0.5198 0.0
C22 C 0.4549 0.99725 0.47352 0.0
Dy23 Dy 0.67582 0.12246 0.50538 0.0
O24 O 0.46323 0.0277 0.49516 0.0
O25 O 0.50128 1.00258 0.46399 0.0
O26 O 0.53439 0.08216 0.53867 0.0
O27 O 0.60318 0.07055 0.53486 0.0
C28 C 0.57745 0.08572 0.55122 0.0
C29 C 0.64976 0.10108 0.44948 0.0
O30 O 0.66056 0.03685 0.52006 0.0
O31 O 0.57285 0.99094 0.50189 0.0
O32 O 0.76837 0.16642 0.49838 0.0
O33 O 0.7353 0.18581 0.5343 0.0
O34 O 0.69113 0.09997 0.46148 0.0
O35 O 0.62689 0.11703 0.46707 0.0
O36 O 0.57109 0.15033 0.48574 0.0
O37 O 0.656 0.19169 0.50666 0.0
C38 C 0.61639 0.99023 0.5132 0.0
C39 C 0.61326 0.19442 0.4961 0.0
Dy40 Dy 0.63629 0.68717 0.83601 0.0
C41 C 0.53911 0.45558 0.86855 0.0
C42 C 0.67283 0.79357 0.81255 0.0
Dy43 Dy 0.57483 0.56412 0.84899 0.0
O44 O 0.67961 0.77955 0.83923 0.0
O45 O 0.64618 0.74933 0.79849 0.0
O46 O 0.68206 0.6991 0.87685 0.0
O47 O 0.59946 0.63241 0.87655 0.0
C48 C 0.64256 0.6545 0.89121 0.0
C49 C 0.57632 0.59914 0.79217 0.0
O50 O 0.50646 0.57799 0.86387 0.0
O51 O 0.54688 0.66833 0.84203 0.0
O52 O 0.51948 0.47193 0.84684 0.0
O53 O 0.5778 0.49876 0.87996 0.0
O54 O 0.53455 0.55568 0.80581 0.0
O55 O 0.61619 0.61934 0.80887 0.0
O56 O 0.70816 0.6736 0.82726 0.0
O57 O 0.66324 0.58196 0.84761 0.0
C58 C 0.50333 0.62292 0.85526 0.0
C59 C 0.70909 0.62779 0.83704 0.0
C60 C 0.50554 0.99686 0.20057 0.0
N61 N 0.54514 0.02966 0.21871 0.0
N62 N 0.46398 0.95071 0.21597 0.0
C63 C 0.50689 1.0104 0.16804 0.0
C64 C 0.48001 0.95647 0.24401 0.0
N65 N 0.52916 1.00398 0.24566 0.0
C66 C 0.44615 0.91679 0.26999 0.0
H67 H 0.48949 0.03833 0.16397 0.0
H68 H 0.48171 0.97228 0.15668 0.0
H69 H 0.55011 0.03244 0.15867 0.0
H70 H 0.41925 0.87402 0.26338 0.0
H71 H 0.41942 0.93143 0.27929 0.0
H72 H 0.47274 0.9152 0.28746 0.0
C73 C 0.60556 0.58546 0.53007 0.0
N74 N 0.60708 0.61929 0.55066 0.0
N75 N 0.60548 0.53961 0.54287 0.0
C76 C 0.60601 0.59772 0.49749 0.0
C77 C 0.6077 0.54698 0.57184 0.0
N78 N 0.60917 0.59525 0.57659 0.0
C79 C 0.60869 0.50706 0.59568 0.0
H80 H 0.56277 0.58108 0.49085 0.0
H81 H 0.62441 0.57723 0.48542 0.0
H82 H 0.62953 0.64337 0.49124 0.0
H83 H 0.65187 0.52361 0.60241 0.0
H84 H 0.59378 0.46503 0.58824 0.0
H85 H 0.58296 0.50343 0.61522 0.0
C86 C 0.10625 0.62269 0.86713 0.0
N87 N 0.13348 0.60934 0.88817 0.0
N88 N 0.05735 0.61499 0.87826 0.0
C89 C 0.12517 0.63987 0.83535 0.0
C90 C 0.05528 0.59599 0.90654 0.0
N91 N 0.10068 0.59203 0.91256 0.0
C92 C 1.00818 0.58046 0.92844 0.0
H93 H 0.15192 0.68594 0.83226 0.0
H94 H 0.08927 0.62782 0.82132 0.0
H95 H 0.14923 0.62055 0.82825 0.0
H96 H 0.9809 0.53441 0.93057 0.0
H97 H 0.98306 0.59963 0.92146 0.0
H98 H 1.02409 0.59348 0.95036 0.0
C99 C 0.06303 0.6346 0.45935 0.0
N100 N 1.02349 0.58874 0.4477 0.0
N101 N 0.08163 0.68008 0.4398 0.0
C102 C 0.08674 0.63465 0.48886 0.0
C103 C 0.0514 0.66008 0.41601 0.0
N104 N 1.01582 0.60445 0.42081 0.0
C105 C 0.06014 0.69389 0.3871 0.0
H106 H 0.083 0.66452 0.5021 0.0
H107 H 0.13146 0.64889 0.48579 0.0
H108 H 0.06538 0.59304 0.50138 0.0
H109 H 0.07914 0.68041 0.37056 0.0
H110 H 0.087 0.73925 0.38901 0.0
H111 H 1.01985 0.68652 0.37911 0.0
C112 C 0.62499 0.14105 0.81182 0.0
N113 N 0.63154 0.12279 0.78629 0.0
N114 N 0.59793 0.16973 0.80749 0.0
C115 C 0.64086 0.12711 0.84127 0.0
C116 C 0.58848 0.16862 0.77852 0.0
N117 N 0.60852 0.13967 0.76567 0.0
C118 C 0.56183 0.19788 0.76267 0.0
H119 H 0.61909 0.1339 0.85947 0.0
H120 H 0.68614 0.15425 0.84308 0.0
H121 H 0.63124 0.08307 0.84346 0.0
H122 H 0.5694 0.23521 0.77363 0.0
H123 H 0.51646 0.16887 0.76303 0.0
H124 H 0.57774 0.21071 0.73946 0.0
C125 C 0.53037 0.57977 0.1398 0.0
N126 N 0.57955 0.59413 0.12613 0.0
N127 N 0.4897 0.5622 0.12058 0.0
C128 C 0.52199 0.58645 0.17147 0.0
C129 C 0.51527 0.56695 0.09461 0.0
N130 N 0.56974 0.58613 0.09792 0.0
C131 C 0.48607 0.55083 0.06628 0.0
H132 H 0.50584 0.54575 0.18466 0.0
H133 H 0.49072 0.59964 0.17357 0.0
H134 H 0.56133 0.61771 0.18041 0.0
H135 H 0.4716 0.58037 0.05946 0.0
H136 H 0.449 0.50849 0.0698 0.0
H137 H 0.51286 0.55157 0.04814 0.0
H138 H 0.13937 0.42134 0.11194 0.0
H139 H 0.17192 0.4154 0.20402 0.0
H140 H 0.23279 0.44111 0.09911 0.0
H141 H 0.26525 0.43562 0.19123 0.0
H142 H 0.43275 0.46859 0.15648 0.0
H143 H 0.33194 0.41449 0.1658 0.0
H144 H 0.31568 0.53465 0.1073 0.0
H145 H 0.41621 0.58849 0.09854 0.0
C146 C 0.16576 0.42211 0.1294 0.0
C147 C 0.14937 0.41828 0.15891 0.0
C148 C 0.21919 0.43374 0.12207 0.0
C149 C 0.25635 0.44127 0.14421 0.0
C150 C 0.23738 0.43019 0.17376 0.0
C151 C 0.18406 0.41879 0.18108 0.0
C152 C 0.4072 0.48328 0.14598 0.0
C153 C 0.43134 0.53256 0.12711 0.0
C154 C 0.34991 0.45222 0.15097 0.0
C155 C 0.31622 0.46998 0.13687 0.0
C156 C 0.34068 0.51926 0.11783 0.0
C157 C 0.39789 0.55036 0.11305 0.0
H158 H 0.87509 0.23586 0.48589 0.0
H159 H 0.79911 0.28475 0.55102 0.0
H160 H 0.94264 0.33394 0.47203 0.0
H161 H 0.86645 0.3827 0.53705 0.0
H162 H 0.06812 0.52448 0.46261 0.0
H163 H 1.0194 0.42896 0.48706 0.0
H164 H 0.86661 0.43268 0.48742 0.0
H165 H 0.91565 0.52758 0.46285 0.0
C166 C 0.87425 0.26745 0.49804 0.0
C167 C 0.83147 0.25288 0.5192 0.0
C168 C 0.9128 0.32357 0.49005 0.0
C169 C 0.90876 0.36572 0.50301 0.0
C170 C 0.86971 0.35087 0.52638 0.0
C171 C 0.83156 0.29481 0.53456 0.0
C172 C 1.02416 0.50441 0.46811 0.0
C173 C 0.99517 0.5326 0.46125 0.0
C174 C 0.99644 0.45022 0.48204 0.0
C175 C 0.93954 0.42397 0.48958 0.0
C176 C 0.91075 0.45245 0.48246 0.0
C177 C 0.93835 0.5062 0.46821 0.0
H178 H 0.72173 0.88646 0.84189 0.0
H179 H 0.64899 0.82683 0.7597 0.0
H180 H 0.72302 0.97366 0.82927 0.0
H181 H 0.65151 0.91505 0.74657 0.0
H182 H 0.57052 1.0218 0.76702 0.0
H183 H 0.59426 0.9486 0.76664 0.0
H184 H 0.75508 0.06007 0.79849 0.0
H185 H 0.73027 0.13322 0.79891 0.0
C186 C 0.70748 0.89275 0.82072 0.0
C187 C 0.68441 0.84978 0.80196 0.0
C188 C 0.70858 0.94291 0.81337 0.0
C189 C 0.6867 0.951 0.78707 0.0
C190 C 0.66777 0.90959 0.76722 0.0
C191 C 0.66657 0.85928 0.77464 0.0
C192 C 0.61136 0.03079 0.77319 0.0
C193 C 0.64862 0.08254 0.78309 0.0
C194 C 0.62519 0.98914 0.77287 0.0
C195 C 0.67662 0.99851 0.78255 0.0
C196 C 0.71495 0.05145 0.79118 0.0
C197 C 0.70095 0.09316 0.79148 0.0
H198 H 0.79951 0.50498 0.20579 0.0
H199 H 0.91223 0.67546 0.17236 0.0
H200 H 0.72212 0.51664 0.19469 0.0
H201 H 0.834 0.69 0.16381 0.0
H202 H 0.68749 0.66973 0.11017 0.0
H203 H 0.76843 0.67254 0.13104 0.0
H204 H 0.66239 0.54495 0.19922 0.0
H205 H 0.58252 0.53472 0.17466 0.0
C206 C 0.80764 0.54595 0.1972 0.0
C207 C 0.86165 0.58907 0.18951 0.0
C208 C 0.76288 0.55307 0.19095 0.0
C209 C 0.77095 0.60434 0.17784 0.0
C210 C 0.82567 0.64932 0.17291 0.0
C211 C 0.87066 0.64144 0.17826 0.0
C212 C 0.68168 0.64126 0.12906 0.0
C213 C 0.62839 0.60143 0.14039 0.0
C214 C 0.72834 0.6439 0.14172 0.0
C215 C 0.72268 0.60822 0.16679 0.0
C216 C 0.66917 0.57164 0.17932 0.0
C217 C 0.62287 0.56683 0.16568 0.0
H218 H 0.35856 0.99715 0.48216 0.0
H219 H 0.42832 0.90768 0.44334 0.0
H220 H 0.26622 0.92629 0.46975 0.0
H221 H 0.33629 0.83483 0.43273 0.0
H222 H 0.17022 0.72154 0.40221 0.0
H223 H 0.25929 0.80578 0.40552 0.0
H224 H 0.19866 0.83588 0.48548 0.0
H225 H 0.10793 0.75453 0.48 0.0
C226 C 0.35392 0.96223 0.4709 0.0
C227 C 0.40016 0.95753 0.46371 0.0
C228 C 0.30105 0.92134 0.46402 0.0
C229 C 0.29337 0.8743 0.45046 0.0
C230 C 0.34029 0.87075 0.44264 0.0
C231 C 0.39317 0.91231 0.4489 0.0
C232 C 0.17578 0.74734 0.41993 0.0
C233 C 0.13257 0.73196 0.44085 0.0
C234 C 0.22705 0.79507 0.42219 0.0
C235 C 0.2368 0.82752 0.44602 0.0
C236 C 0.1928 0.81257 0.4666 0.0
C237 C 0.14103 0.76552 0.46382 0.0
H238 H 0.59311 0.41904 0.90541 0.0
H239 H 0.46731 0.36503 0.84149 0.0
H240 H 0.5982 0.33438 0.90193 0.0
H241 H 0.47351 0.28202 0.83711 0.0
H242 H 0.49452 0.14103 0.82482 0.0
H243 H 0.46751 0.19635 0.85265 0.0
H244 H 0.64058 0.31449 0.86295 0.0
H245 H 0.66631 0.25725 0.83632 0.0
C246 C 0.56538 0.38823 0.8913 0.0
C247 C 0.53063 0.39886 0.87325 0.0
C248 C 0.56859 0.33999 0.88911 0.0
C249 C 0.53731 0.30199 0.86872 0.0
C250 C 0.49815 0.31002 0.85315 0.0
C251 C 0.49476 0.35794 0.85549 0.0
C252 C 0.52624 0.17798 0.83398 0.0
C253 C 0.58226 0.19571 0.82846 0.0
C254 C 0.51105 0.20977 0.84974 0.0
C255 C 0.55184 0.26044 0.85965 0.0
C256 C 0.60791 0.2755 0.856 0.0
C257 C 0.6229 0.24317 0.8406 0.0
H258 H 0.70258 0.97195 0.52531 0.0
H259 H 0.52632 0.88418 0.51463 0.0
H260 H 0.70031 0.88329 0.534 0.0
H261 H 0.52325 0.79539 0.52477 0.0
H262 H 0.53883 0.64126 0.51743 0.0
H263 H 0.54191 0.73028 0.50779 0.0
H264 H 0.67747 0.80536 0.56559 0.0
H265 H 0.67673 0.71714 0.57308 0.0
C266 C 0.66313 0.93369 0.52511 0.0
C267 C 0.61468 0.93559 0.51917 0.0
C268 C 0.66167 0.88244 0.53035 0.0
C269 C 0.61154 0.83117 0.53023 0.0
C270 C 0.563 0.83334 0.52453 0.0
C271 C 0.56463 0.88461 0.51889 0.0
C272 C 0.5698 0.67708 0.52767 0.0
C273 C 0.60778 0.67203 0.54584 0.0
C274 C 0.57111 0.72826 0.52256 0.0
C275 C 0.60997 0.77603 0.53583 0.0
C276 C 0.64745 0.77042 0.55441 0.0
C277 C 0.64655 0.71938 0.55917 0.0
H278 H 0.72499 0.54021 0.85393 0.0
H279 H 0.81566 0.7148 0.82243 0.0
H280 H 0.8113 0.5401 0.85929 0.0
H281 H 0.90278 0.71444 0.82719 0.0
H282 H 0.04539 0.70557 0.87677 0.0
H283 H 0.96302 0.7105 0.86318 0.0
H284 H 0.88853 0.54331 0.83599 0.0
H285 H 0.9707 0.5388 0.85046 0.0
C286 C 0.76333 0.5786 0.84772 0.0
C287 C 0.7628 0.62755 0.83771 0.0
C288 C 0.81327 0.57843 0.85063 0.0
C289 C 0.86479 0.62721 0.84365 0.0
C290 C 0.86429 0.67607 0.83313 0.0
C291 C 0.81411 0.67622 0.83016 0.0
C292 C 1.01192 0.67072 0.86703 0.0
C293 C 1.01477 0.62224 0.86411 0.0
C294 C 0.96447 0.67329 0.8593 0.0
C295 C 0.91824 0.62714 0.84862 0.0
C296 C 0.92249 0.57947 0.84457 0.0
C297 C 0.96992 0.57701 0.85237 0.0
H298 H 0.12119 0.70902 0.18157 0.0
H299 H 0.20964 0.6186 0.18131 0.0
H300 H 0.20768 0.79512 0.1869 0.0
H301 H 0.29597 0.70434 0.18767 0.0
H302 H 0.45262 0.87448 0.17895 0.0
H303 H 0.36619 0.7925 0.16689 0.0
H304 H 0.2739 0.84208 0.22109 0.0
H305 H 0.36026 0.92477 0.23174 0.0
C306 C 0.15903 0.70733 0.18274 0.0
C307 C 0.15799 0.65642 0.18108 0.0
C308 C 0.2089 0.75693 0.18599 0.0
C309 C 0.25944 0.7573 0.18792 0.0
C310 C 0.25841 0.7064 0.18586 0.0
C311 C 0.20855 0.65684 0.1824 0.0
C312 C 0.41356 0.86828 0.18756 0.0
C313 C 0.41295 0.90623 0.20594 0.0
C314 C 0.36396 0.82085 0.18109 0.0
C315 C 0.31242 0.8099 0.19307 0.0
C316 C 0.31219 0.84898 0.21097 0.0
C317 C 0.36171 0.89641 0.21725 0.0
H318 H 0.69529 0.29365 0.51343 0.0
H319 H 0.52919 0.2164 0.48281 0.0
H320 H 0.69213 0.37768 0.5206 0.0
H321 H 0.52645 0.30163 0.48939 0.0
H322 H 0.51871 0.43522 0.54255 0.0
H323 H 0.52006 0.35305 0.52752 0.0
H324 H 0.69223 0.45784 0.49869 0.0
H325 H 0.69031 0.53928 0.51461 0.0
C326 C 0.6582 0.29472 0.50779 0.0
C327 C 0.61241 0.24772 0.49755 0.0
C328 C 0.65654 0.34345 0.51175 0.0
C329 C 0.60903 0.34709 0.50563 0.0
C330 C 0.5636 0.3005 0.49472 0.0
C331 C 0.5653 0.25158 0.49071 0.0
C332 C 0.55633 0.44047 0.53241 0.0
C333 C 0.60427 0.49343 0.5295 0.0
C334 C 0.55728 0.39347 0.52374 0.0
C335 C 0.60639 0.3982 0.51198 0.0
C336 C 0.65382 0.452 0.50806 0.0
C337 C 0.65275 0.49891 0.5168 0.0
H338 H 0.39908 0.53192 0.86571 0.0
H339 H 0.48529 0.71177 0.85726 0.0
H340 H 0.31171 0.52917 0.87358 0.0
H341 H 0.39838 0.70965 0.86706 0.0
H342 H 0.22867 0.69444 0.86123 0.0
H343 H 0.31619 0.69762 0.85267 0.0
H344 H 0.25007 0.53654 0.90211 0.0
H345 H 0.16104 0.5316 0.90783 0.0
C346 C 0.39955 0.57111 0.86592 0.0
C347 C 0.44971 0.62207 0.86077 0.0
C348 C 0.34899 0.56962 0.87075 0.0
C349 C 0.34651 0.61914 0.87125 0.0
C350 C 0.39716 0.67024 0.86636 0.0
C351 C 0.44764 0.67164 0.86092 0.0
C352 C 0.23255 0.65927 0.86981 0.0
C353 C 0.18712 0.61252 0.88497 0.0
C354 C 0.28354 0.66141 0.86537 0.0
C355 C 0.29168 0.61732 0.8765 0.0
C356 C 0.24631 0.57114 0.89243 0.0
C357 C 0.19497 0.56861 0.89633 0.0
H358 H 0.79923 0.38007 0.18775 0.0
H359 H 0.88584 0.29175 0.17122 0.0
H360 H 0.71318 0.2915 0.19732 0.0
H361 H 0.79937 0.20306 0.18026 0.0
H362 H 0.64892 0.05472 0.23147 0.0
H363 H 0.73495 0.14337 0.21976 0.0
H364 H 0.64235 0.21144 0.17593 0.0
H365 H 0.55637 0.1231 0.18875 0.0
C366 C 0.79998 0.34184 0.1858 0.0
C367 C 0.84995 0.3435 0.17868 0.0
C368 C 0.75029 0.29079 0.1912 0.0
C369 C 0.74889 0.23964 0.18972 0.0
C370 C 0.7987 0.24134 0.18209 0.0
C371 C 0.84842 0.29244 0.17663 0.0
C372 C 0.64716 0.08883 0.21944 0.0
C373 C 0.59601 0.08193 0.21093 0.0
C374 C 0.69651 0.13954 0.21242 0.0
C375 C 0.69608 0.18497 0.19671 0.0
C376 C 0.6446 0.17783 0.18822 0.0
C377 C 0.59527 0.127 0.19525 0.0
H378 H 0.95102 0.51763 0.06747 0.0
H379 H 0.09549 0.52354 0.10438 0.0
H380 H 0.98997 0.52696 0.01801 0.0
H381 H 0.13565 0.53489 0.05433 0.0
H382 H 0.16693 0.65563 0.95317 0.0
H383 H 0.15043 0.62908 0.00638 0.0
H384 H 0.03179 0.46021 0.98972 0.0
H385 H 0.04936 0.48679 0.93679 0.0
C386 C 0.99081 0.52012 0.06496 0.0
C387 C 1.01997 0.51929 0.08968 0.0
C388 C 1.01307 0.52548 0.0367 0.0
C389 C 0.06566 0.5315 0.03246 0.0
C390 C 0.09488 0.53 0.05712 0.0
C391 C 0.0718 0.52314 0.08563 0.0
C392 C 0.14022 0.61219 0.96101 0.0
C393 C 0.10983 0.57303 0.94104 0.0
C394 C 0.13038 0.59704 0.99137 0.0
C395 C 0.08975 0.54262 0.00205 0.0
C396 C 0.06367 0.50224 0.98205 0.0
C397 C 0.07403 0.51726 0.95182 0.0
H398 H 0.56523 0.10346 0.42077 0.0
H399 H 0.70374 0.07773 0.40819 0.0
H400 H 0.54176 0.08543 0.36978 0.0
H401 H 0.68146 0.06125 0.35709 0.0
H402 H 0.57967 0.96348 0.28091 0.0
H403 H 0.61238 0.99088 0.32977 0.0
H404 H 0.57112 0.12162 0.31901 0.0
H405 H 0.53713 0.09242 0.27032 0.0
C406 C 0.5909 0.09439 0.407 0.0
C407 C 0.63614 0.09173 0.41845 0.0
C408 C 0.57778 0.08451 0.37771 0.0
C409 C 0.60973 0.07189 0.35923 0.0
C410 C 0.65548 0.07008 0.37073 0.0
C411 C 0.66842 0.07976 0.4 0.0
C412 C 0.57851 0.99851 0.28904 0.0
C413 C 0.55583 0.02578 0.27227 0.0
C414 C 0.59732 1.01444 0.3169 0.0
C415 C 0.594 0.05825 0.32853 0.0
C416 C 0.57341 0.08711 0.311 0.0
C417 C 0.55456 0.071 0.28308 0.0
H418 H 0.66748 0.67694 0.75824 0.0
H419 H 0.49669 0.54885 0.75306 0.0
H420 H 0.67774 0.69017 0.70458 0.0
H421 H 0.507 0.56095 0.69965 0.0
H422 H 0.52863 0.6059 0.60274 0.0
H423 H 0.52132 0.61908 0.65478 0.0
H424 H 0.68273 0.63705 0.6667 0.0
H425 H 0.68976 0.62527 0.61476 0.0
C426 C 0.63202 0.65199 0.74562 0.0
C427 C 0.58145 0.61146 0.75983 0.0
C428 C 0.63791 0.65936 0.71487 0.0
C429 C 0.59331 0.62641 0.69766 0.0
C430 C 0.54209 0.58761 0.71205 0.0
C431 C 0.53626 0.58028 0.74273 0.0
C432 C 0.56297 0.61442 0.61648 0.0
C433 C 0.60964 0.6145 0.60504 0.0
C434 C 0.55869 0.6213 0.64628 0.0
C435 C 0.60116 0.62845 0.66513 0.0
C436 C 0.64939 0.63215 0.65296 0.0
C437 C 0.65348 0.6252 0.62327 0.0
H438 H 0.64852 0.06983 0.58663 0.0
H439 H 0.52772 0.1235 0.58596 0.0
H440 H 0.65759 0.08029 0.63951 0.0
H441 H 0.53757 0.13521 0.63803 0.0
H442 H 0.51681 0.08998 0.73519 0.0
H443 H 0.51183 0.07524 0.68304 0.0
H444 H 0.68989 0.15006 0.67583 0.0
H445 H 0.69401 0.16363 0.72842 0.0
C446 C 0.62434 0.08424 0.59775 0.0
C447 C 0.58691 0.09517 0.58241 0.0
C448 C 0.6296 0.09039 0.62792 0.0
C449 C 0.59759 0.1077 0.64304 0.0
C450 C 0.56169 0.12035 0.62725 0.0
C451 C 0.55631 0.11399 0.59735 0.0
C452 C 0.55465 0.10322 0.72229 0.0
C453 C 0.60579 0.12871 0.73534 0.0
C454 C 0.552 0.09495 0.69253 0.0
C455 C 0.60061 0.11233 0.67518 0.0
C456 C 0.65174 0.13606 0.6886 0.0
C457 C 0.65423 0.14407 0.71852 0.0
H458 H 0.72853 0.70833 0.92603 0.0
H459 H 0.56406 0.56476 0.92629 0.0
H460 H 0.73085 0.68929 0.97883 0.0
H461 H 0.56669 0.54543 0.97923 0.0
H462 H 0.63435 0.68491 0.06847 0.0
H463 H 0.66829 0.6979 0.01761 0.0
H464 H 0.6189 0.52328 0.02121 0.0
H465 H 0.58672 0.51139 0.07276 0.0
C466 C 0.69322 0.67215 0.93731 0.0
C467 C 0.64562 0.63854 0.92228 0.0
C468 C 0.6948 0.66117 0.96745 0.0
C469 C 0.6491 0.61592 0.98301 0.0
C470 C 0.60283 0.58018 0.96763 0.0
C471 C 0.601 0.59154 0.93747 0.0
C472 C 0.63434 0.65043 0.05889 0.0
C473 C 0.60888 0.5975 0.07434 0.0
C474 C 0.65316 0.65753 0.02975 0.0
C475 C 0.64546 0.61134 0.01545 0.0
C476 C 0.62509 0.55944 0.03179 0.0
C477 C 0.60746 0.55275 0.06126 0.0
H478 H 0.98384 0.56017 0.24415 0.0
H479 H 0.96075 0.39966 0.27685 0.0
H480 H 0.9722 0.57918 0.29413 0.0
H481 H 0.9488 0.41852 0.32692 0.0
H482 H 0.04371 0.53163 0.40335 0.0
H483 H 1.01982 0.48674 0.35766 0.0
H484 H 0.91128 0.55312 0.33967 0.0
H485 H 0.93481 0.59707 0.38612 0.0
C486 C 0.97506 0.52848 0.26199 0.0
C487 C 0.97405 0.47886 0.25676 0.0
C488 C 0.96796 0.53914 0.29059 0.0
C489 C 0.95997 0.50046 0.31448 0.0
C490 C 0.95546 0.4493 0.30896 0.0
C491 C 0.96223 0.43851 0.28033 0.0
C492 C 1.01294 0.53445 0.39021 0.0
C493 C 0.99117 0.56775 0.39798 0.0
C494 C 0.99934 0.509 0.36399 0.0
C495 C 0.96408 0.5169 0.3449 0.0
C496 C 0.93908 0.5469 0.35379 0.0
C497 C 0.95233 0.57186 0.38026 0.0
loop_
_geom_bond_atom_site_label_1
_geom_bond_atom_site_label_2
_geom_bond_distance
_geom_bond_site_symmetry_2
_ccdc_geom_bond_type
Dy0 O4 2.398 . S
Dy0 O5 2.491 . S
Dy0 O6 2.403 . S
Dy0 O7 2.664 1_455 S
Dy0 O11 2.326 . S
Dy0 O15 2.310 . S
Dy0 O16 2.351 1_455 S
C1 O12 1.185 . S
C1 O13 1.355 . S
C2 O4 1.185 . S
C2 O5 1.355 . S
Dy3 O7 2.310 . S
Dy3 O10 2.351 1_655 S
Dy3 O12 2.398 . S
Dy3 O13 2.491 . S
Dy3 O14 2.403 . S
Dy3 O15 2.664 1_655 S
Dy3 O17 2.326 . S
O4 Dy0 2.398 . S
O4 C2 1.185 . S
O5 Dy0 2.491 . S
O5 C2 1.355 . S
O6 Dy0 2.403 . S
O6 C8 1.254 . S
O7 Dy0 2.664 1_655 S
O7 Dy3 2.310 . S
O7 C8 1.268 1_655 S
C8 O6 1.254 . S
C8 O7 1.268 1_455 S
C9 O14 1.254 1_455 S
C9 O15 1.268 . S
O10 Dy3 2.351 1_455 S
O10 C18 1.249 . S
O11 Dy0 2.326 . S
O11 C18 1.267 . S
O12 C1 1.185 . S
O12 Dy3 2.398 . S
O13 C1 1.355 . S
O13 Dy3 2.491 . S
O14 Dy3 2.403 . S
O14 C9 1.254 1_655 S
O15 Dy0 2.310 . S
O15 Dy3 2.664 1_455 S
O15 C9 1.268 . S
O16 Dy0 2.351 1_655 S
O16 C19 1.249 . S
O17 Dy3 2.326 . S
O17 C19 1.267 . S
C18 O10 1.249 . S
C18 O11 1.267 . S
C19 O16 1.249 . S
C19 O17 1.267 . S
Dy20 O24 2.398 1_545 S
Dy20 O25 2.491 1_545 S
Dy20 O26 2.403 . S
Dy20 O27 2.664 . S
Dy20 O31 2.326 1_545 S
Dy20 O35 2.310 . S
Dy20 O36 2.351 . S
C21 O32 1.185 . S
C21 O33 1.355 . S
C22 O24 1.185 . S
C22 O25 1.355 . S
Dy23 O27 2.310 . S
Dy23 O30 2.351 . S
Dy23 O32 2.398 . S
Dy23 O33 2.491 . S
Dy23 O34 2.403 . S
Dy23 O35 2.664 . S
Dy23 O37 2.326 . S
O24 Dy20 2.398 1_565 S
O24 C22 1.185 . S
O25 Dy20 2.491 1_565 S
O25 C22 1.355 . S
O26 Dy20 2.403 . S
O26 C28 1.254 . S
O27 Dy20 2.664 . S
O27 Dy23 2.310 . S
O27 C28 1.268 . S
C28 O26 1.254 . S
C28 O27 1.268 . S
C29 O34 1.254 . S
C29 O35 1.268 . S
O30 Dy23 2.351 . S
O30 C38 1.249 1_545 S
O31 Dy20 2.326 1_565 S
O31 C38 1.267 . S
O32 C21 1.185 . S
O32 Dy23 2.398 . S
O33 C21 1.355 . S
O33 Dy23 2.491 . S
O34 Dy23 2.403 . S
O34 C29 1.254 . S
O35 Dy20 2.310 . S
O35 Dy23 2.664 . S
O35 C29 1.268 . S
O36 Dy20 2.351 . S
O36 C39 1.249 . S
O37 Dy23 2.326 . S
O37 C39 1.267 . S
C38 O30 1.249 1_565 S
C38 O31 1.267 . S
C39 O36 1.249 . S
C39 O37 1.267 . S
Dy40 O44 2.398 . S
Dy40 O45 2.491 . S
Dy40 O46 2.403 . S
Dy40 O47 2.664 . S
Dy40 O51 2.326 . S
Dy40 O55 2.310 . S
Dy40 O56 2.351 . S
C41 O52 1.185 . S
C41 O53 1.355 . S
C42 O44 1.185 . S
C42 O45 1.355 . S
Dy43 O47 2.310 . S
Dy43 O50 2.351 . S
Dy43 O52 2.398 . S
Dy43 O53 2.491 . S
Dy43 O54 2.403 . S
Dy43 O55 2.664 . S
Dy43 O57 2.326 . S
O44 Dy40 2.398 . S
O44 C42 1.185 . S
O45 Dy40 2.491 . S
O45 C42 1.355 . S
O46 Dy40 2.403 . S
O46 C48 1.254 . S
O47 Dy40 2.664 . S
O47 Dy43 2.310 . S
O47 C48 1.268 . S
C48 O46 1.254 . S
C48 O47 1.268 . S
C49 O54 1.254 . S
C49 O55 1.268 . S
O50 Dy43 2.351 . S
O50 C58 1.249 . S
O51 Dy40 2.326 . S
O51 C58 1.267 . S
O52 C41 1.185 . S
O52 Dy43 2.398 . S
O53 C41 1.355 . S
O53 Dy43 2.491 . S
O54 Dy43 2.403 . S
O54 C49 1.254 . S
O55 Dy40 2.310 . S
O55 Dy43 2.664 . S
O55 C49 1.268 . S
O56 Dy40 2.351 . S
O56 C59 1.249 . S
O57 Dy43 2.326 . S
O57 C59 1.267 . S
C58 O50 1.249 . S
C58 O51 1.267 . S
C59 O56 1.249 . S
C59 O57 1.267 . S
C60 N61 1.317 . S
C60 N62 1.348 1_545 S
C60 C63 1.485 . S
N61 C60 1.317 . S
N61 N65 1.370 . S
N62 C60 1.348 1_565 S
N62 C64 1.346 . S
C63 C60 1.485 . S
C63 H67 0.960 . S
C63 H68 0.961 1_545 S
C63 H69 0.960 . S
C64 N62 1.346 . S
C64 N65 1.307 1_565 S
C64 C66 1.486 . S
N65 N61 1.370 . S
N65 C64 1.307 1_545 S
C66 C64 1.486 . S
C66 H70 0.960 . S
C66 H71 0.960 . S
C66 H72 0.959 . S
H67 C63 0.960 . S
H68 C63 0.961 1_565 S
H69 C63 0.960 . S
H70 C66 0.960 . S
H71 C66 0.960 . S
H72 C66 0.959 . S
C73 N74 1.317 . S
C73 N75 1.348 . S
C73 C76 1.485 . S
N74 C73 1.317 . S
N74 N78 1.370 . S
N75 C73 1.348 . S
N75 C77 1.346 . S
C76 C73 1.485 . S
C76 H80 0.960 . S
C76 H81 0.961 . S
C76 H82 0.960 . S
C77 N75 1.346 . S
C77 N78 1.307 . S
C77 C79 1.486 . S
N78 N74 1.370 . S
N78 C77 1.307 . S
C79 C77 1.486 . S
C79 H83 0.960 . S
C79 H84 0.960 . S
C79 H85 0.959 . S
H80 C76 0.960 . S
H81 C76 0.961 . S
H82 C76 0.960 . S
H83 C79 0.960 . S
H84 C79 0.960 . S
H85 C79 0.959 . S
C86 N87 1.317 . S
C86 N88 1.348 . S
C86 C89 1.485 . S
N87 C86 1.317 . S
N87 N91 1.370 . S
N88 C86 1.348 . S
N88 C90 1.346 . S
C89 C86 1.485 . S
C89 H93 0.960 . S
C89 H94 0.961 . S
C89 H95 0.960 . S
C90 N88 1.346 . S
C90 N91 1.307 . S
C90 C92 1.486 1_455 S
N91 N87 1.370 . S
N91 C90 1.307 . S
C92 C90 1.486 1_655 S
C92 H96 0.960 . S
C92 H97 0.960 . S
C92 H98 0.959 . S
H93 C89 0.960 . S
H94 C89 0.961 . S
H95 C89 0.960 . S
H96 C92 0.960 . S
H97 C92 0.960 . S
H98 C92 0.959 . S
C99 N100 1.317 . S
C99 N101 1.348 . S
C99 C102 1.485 . S
N100 C99 1.317 . S
N100 N104 1.370 . S
N101 C99 1.348 . S
N101 C103 1.346 . S
C102 C99 1.485 . S
C102 H106 0.960 . S
C102 H107 0.961 . S
C102 H108 0.960 . S
C103 N101 1.346 . S
C103 N104 1.307 . S
C103 C105 1.486 . S
N104 N100 1.370 . S
N104 C103 1.307 . S
C105 C103 1.486 . S
C105 H109 0.960 . S
C105 H110 0.960 . S
C105 H111 0.959 . S
H106 C102 0.960 . S
H107 C102 0.961 . S
H108 C102 0.960 . S
H109 C105 0.960 . S
H110 C105 0.960 . S
H111 C105 0.959 . S
C112 N113 1.317 . S
C112 N114 1.348 . S
C112 C115 1.485 . S
N113 C112 1.317 . S
N113 N117 1.370 . S
N114 C112 1.348 . S
N114 C116 1.346 . S
C115 C112 1.485 . S
C115 H119 0.960 . S
C115 H120 0.961 . S
C115 H121 0.960 . S
C116 N114 1.346 . S
C116 N117 1.307 . S
C116 C118 1.486 . S
N117 N113 1.370 . S
N117 C116 1.307 . S
C118 C116 1.486 . S
C118 H122 0.960 . S
C118 H123 0.960 . S
C118 H124 0.959 . S
H119 C115 0.960 . S
H120 C115 0.961 . S
H121 C115 0.960 . S
H122 C118 0.960 . S
H123 C118 0.960 . S
H124 C118 0.959 . S
C125 N126 1.317 . S
C125 N127 1.348 . S
C125 C128 1.485 . S
N126 C125 1.317 . S
N126 N130 1.370 . S
N127 C125 1.348 . S
N127 C129 1.346 . S
C128 C125 1.485 . S
C128 H132 0.960 . S
C128 H133 0.961 . S
C128 H134 0.960 . S
C129 N127 1.346 . S
C129 N130 1.307 . S
C129 C131 1.486 . S
N130 N126 1.370 . S
N130 C129 1.307 . S
C131 C129 1.486 . S
C131 H135 0.960 . S
C131 H136 0.960 . S
C131 H137 0.959 . S
H132 C128 0.960 . S
H133 C128 0.961 . S
H134 C128 0.960 . S
H135 C131 0.960 . S
H136 C131 0.960 . S
H137 C131 0.959 . S
H138 C146 0.950 . S
H139 C151 0.950 . S
H140 C148 0.950 . S
H141 C150 0.950 . S
H142 C152 0.950 . S
H143 C154 0.950 . S
H144 C156 0.950 . S
H145 C157 0.950 . S
C146 H138 0.950 . S
C146 C147 1.386 . S
C146 C148 1.391 . S
C147 C146 1.386 . S
C147 C151 1.393 . S
C148 H140 0.950 . S
C148 C146 1.391 . S
C148 C149 1.400 . S
C149 C148 1.400 . S
C149 C150 1.398 . S
C149 C155 1.491 . S
C150 H141 0.950 . S
C150 C149 1.398 . S
C150 C151 1.391 . S
C151 H139 0.950 . S
C151 C147 1.393 . S
C151 C150 1.391 . S
C152 H142 0.950 . S
C152 C153 1.386 . S
C152 C154 1.391 . S
C153 C152 1.386 . S
C153 C157 1.393 . S
C154 H143 0.950 . S
C154 C152 1.391 . S
C154 C155 1.400 . S
C155 C149 1.491 . S
C155 C154 1.400 . S
C155 C156 1.398 . S
C156 H144 0.950 . S
C156 C155 1.398 . S
C156 C157 1.391 . S
C157 H145 0.950 . S
C157 C153 1.393 . S
C157 C156 1.391 . S
H158 C166 0.950 . S
H159 C171 0.950 . S
H160 C168 0.950 . S
H161 C170 0.950 . S
H162 C172 0.950 . S
H163 C174 0.950 . S
H164 C176 0.950 . S
H165 C177 0.950 . S
C166 H158 0.950 . S
C166 C167 1.386 . S
C166 C168 1.391 . S
C167 C166 1.386 . S
C167 C171 1.393 . S
C168 H160 0.950 . S
C168 C166 1.391 . S
C168 C169 1.400 . S
C169 C168 1.400 . S
C169 C170 1.398 . S
C169 C175 1.491 . S
C170 H161 0.950 . S
C170 C169 1.398 . S
C170 C171 1.391 . S
C171 H159 0.950 . S
C171 C167 1.393 . S
C171 C170 1.391 . S
C172 H162 0.950 . S
C172 C173 1.386 . S
C172 C174 1.391 . S
C173 C172 1.386 . S
C173 C177 1.393 . S
C174 H163 0.950 . S
C174 C172 1.391 . S
C174 C175 1.400 . S
C175 C169 1.491 . S
C175 C174 1.400 . S
C175 C176 1.398 . S
C176 H164 0.950 . S
C176 C175 1.398 . S
C176 C177 1.391 . S
C177 H165 0.950 . S
C177 C173 1.393 . S
C177 C176 1.391 . S
H178 C186 0.950 . S
H179 C191 0.950 . S
H180 C188 0.950 . S
H181 C190 0.950 . S
H182 C192 0.957 . S
H183 C194 0.950 . S
H184 C196 0.950 . S
H185 C197 0.950 . S
C186 H178 0.950 . S
C186 C187 1.386 . S
C186 C188 1.391 . S
C187 C186 1.386 . S
C187 C191 1.393 . S
C188 H180 0.950 . S
C188 C186 1.391 . S
C188 C189 1.400 . S
C189 C188 1.400 . S
C189 C190 1.398 . S
C189 C195 1.491 . S
C190 H181 0.950 . S
C190 C189 1.398 . S
C190 C191 1.391 . S
C191 H179 0.950 . S
C191 C187 1.393 . S
C191 C190 1.391 . S
C192 H182 0.957 . S
C192 C193 1.399 . S
C192 C194 1.370 1_545 S
C193 C192 1.399 . S
C193 C197 1.393 . S
C194 H183 0.950 . S
C194 C192 1.370 1_565 S
C194 C195 1.400 . S
C195 C189 1.491 . S
C195 C194 1.400 . S
C195 C196 1.398 . S
C196 H184 0.950 . S
C196 C195 1.398 . S
C196 C197 1.391 1_565 S
C197 H185 0.950 . S
C197 C193 1.393 . S
C197 C196 1.391 1_545 S
H198 C206 0.950 . S
H199 C211 0.950 . S
H200 C208 0.950 . S
H201 C210 0.950 . S
H202 C212 0.950 . S
H203 C214 0.950 . S
H204 C216 0.950 . S
H205 C217 0.950 . S
C206 H198 0.950 . S
C206 C207 1.386 . S
C206 C208 1.391 . S
C207 C206 1.386 . S
C207 C211 1.393 . S
C208 H200 0.950 . S
C208 C206 1.391 . S
C208 C209 1.400 . S
C209 C208 1.400 . S
C209 C210 1.398 . S
C209 C215 1.491 . S
C210 H201 0.950 . S
C210 C209 1.398 . S
C210 C211 1.391 . S
C211 H199 0.950 . S
C211 C207 1.393 . S
C211 C210 1.391 . S
C212 H202 0.950 . S
C212 C213 1.386 . S
C212 C214 1.391 . S
C213 C212 1.386 . S
C213 C217 1.393 . S
C214 H203 0.950 . S
C214 C212 1.391 . S
C214 C215 1.400 . S
C215 C209 1.491 . S
C215 C214 1.400 . S
C215 C216 1.398 . S
C216 H204 0.950 . S
C216 C215 1.398 . S
C216 C217 1.391 . S
C217 H205 0.950 . S
C217 C213 1.393 . S
C217 C216 1.391 . S
H218 C226 0.950 . S
H219 C231 0.950 . S
H220 C228 0.950 . S
H221 C230 0.950 . S
H222 C232 0.950 . S
H223 C234 0.950 . S
H224 C236 0.950 . S
H225 C237 0.950 . S
C226 H218 0.950 . S
C226 C227 1.386 . S
C226 C228 1.391 . S
C227 C226 1.386 . S
C227 C231 1.393 . S
C228 H220 0.950 . S
C228 C226 1.391 . S
C228 C229 1.400 . S
C229 C228 1.400 . S
C229 C230 1.398 . S
C229 C235 1.491 . S
C230 H221 0.950 . S
C230 C229 1.398 . S
C230 C231 1.391 . S
C231 H219 0.950 . S
C231 C227 1.393 . S
C231 C230 1.391 . S
C232 H222 0.950 . S
C232 C233 1.386 . S
C232 C234 1.391 . S
C233 C232 1.386 . S
C233 C237 1.393 . S
C234 H223 0.950 . S
C234 C232 1.391 . S
C234 C235 1.400 . S
C235 C229 1.491 . S
C235 C234 1.400 . S
C235 C236 1.398 . S
C236 H224 0.950 . S
C236 C235 1.398 . S
C236 C237 1.391 . S
C237 H225 0.950 . S
C237 C233 1.393 . S
C237 C236 1.391 . S
H238 C246 0.950 . S
H239 C251 0.950 . S
H240 C248 0.950 . S
H241 C250 0.950 . S
H242 C252 0.950 . S
H243 C254 0.950 . S
H244 C256 0.950 . S
H245 C257 0.950 . S
C246 H238 0.950 . S
C246 C247 1.386 . S
C246 C248 1.391 . S
C247 C246 1.386 . S
C247 C251 1.393 . S
C248 H240 0.950 . S
C248 C246 1.391 . S
C248 C249 1.400 . S
C249 C248 1.400 . S
C249 C250 1.398 . S
C249 C255 1.491 . S
C250 H241 0.950 . S
C250 C249 1.398 . S
C250 C251 1.391 . S
C251 H239 0.950 . S
C251 C247 1.393 . S
C251 C250 1.391 . S
C252 H242 0.950 . S
C252 C253 1.386 . S
C252 C254 1.391 . S
C253 C252 1.386 . S
C253 C257 1.393 . S
C254 H243 0.950 . S
C254 C252 1.391 . S
C254 C255 1.400 . S
C255 C249 1.491 . S
C255 C254 1.400 . S
C255 C256 1.398 . S
C256 H244 0.950 . S
C256 C255 1.398 . S
C256 C257 1.391 . S
C257 H245 0.950 . S
C257 C253 1.393 . S
C257 C256 1.391 . S
H258 C266 0.950 . S
H259 C271 0.950 . S
H260 C268 0.950 . S
H261 C270 0.950 . S
H262 C272 0.950 . S
H263 C274 0.950 . S
H264 C276 0.950 . S
H265 C277 0.950 . S
C266 H258 0.950 . S
C266 C267 1.386 . S
C266 C268 1.391 . S
C267 C266 1.386 . S
C267 C271 1.393 . S
C268 H260 0.950 . S
C268 C266 1.391 . S
C268 C269 1.400 . S
C269 C268 1.400 . S
C269 C270 1.398 . S
C269 C275 1.491 . S
C270 H261 0.950 . S
C270 C269 1.398 . S
C270 C271 1.391 . S
C271 H259 0.950 . S
C271 C267 1.393 . S
C271 C270 1.391 . S
C272 H262 0.950 . S
C272 C273 1.386 . S
C272 C274 1.391 . S
C273 C272 1.386 . S
C273 C277 1.393 . S
C274 H263 0.950 . S
C274 C272 1.391 . S
C274 C275 1.400 . S
C275 C269 1.491 . S
C275 C274 1.400 . S
C275 C276 1.398 . S
C276 H264 0.950 . S
C276 C275 1.398 . S
C276 C277 1.391 . S
C277 H265 0.950 . S
C277 C273 1.393 . S
C277 C276 1.391 . S
H278 C286 0.950 . S
H279 C291 0.950 . S
H280 C288 0.950 . S
H281 C290 0.950 . S
H282 C292 0.950 . S
H283 C294 0.950 . S
H284 C296 0.950 . S
H285 C297 0.950 . S
C286 H278 0.950 . S
C286 C287 1.386 . S
C286 C288 1.391 . S
C287 C286 1.386 . S
C287 C291 1.393 . S
C288 H280 0.950 . S
C288 C286 1.391 . S
C288 C289 1.400 . S
C289 C288 1.400 . S
C289 C290 1.398 . S
C289 C295 1.491 . S
C290 H281 0.950 . S
C290 C289 1.398 . S
C290 C291 1.391 . S
C291 H279 0.950 . S
C291 C287 1.393 . S
C291 C290 1.391 . S
C292 H282 0.950 . S
C292 C293 1.386 . S
C292 C294 1.391 . S
C293 C292 1.386 . S
C293 C297 1.393 . S
C294 H283 0.950 . S
C294 C292 1.391 . S
C294 C295 1.400 . S
C295 C289 1.491 . S
C295 C294 1.400 . S
C295 C296 1.398 . S
C296 H284 0.950 . S
C296 C295 1.398 . S
C296 C297 1.391 . S
C297 H285 0.950 . S
C297 C293 1.393 . S
C297 C296 1.391 . S
H298 C306 0.950 . S
H299 C311 0.950 . S
H300 C308 0.950 . S
H301 C310 0.950 . S
H302 C312 0.950 . S
H303 C314 0.950 . S
H304 C316 0.950 . S
H305 C317 0.950 . S
C306 H298 0.950 . S
C306 C307 1.386 . S
C306 C308 1.391 . S
C307 C306 1.386 . S
C307 C311 1.393 . S
C308 H300 0.950 . S
C308 C306 1.391 . S
C308 C309 1.400 . S
C309 C308 1.400 . S
C309 C310 1.398 . S
C309 C315 1.491 . S
C310 H301 0.950 . S
C310 C309 1.398 . S
C310 C311 1.391 . S
C311 H299 0.950 . S
C311 C307 1.393 . S
C311 C310 1.391 . S
C312 H302 0.950 . S
C312 C313 1.386 . S
C312 C314 1.391 . S
C313 C312 1.386 . S
C313 C317 1.393 . S
C314 H303 0.950 . S
C314 C312 1.391 . S
C314 C315 1.400 . S
C315 C309 1.491 . S
C315 C314 1.400 . S
C315 C316 1.398 . S
C316 H304 0.950 . S
C316 C315 1.398 . S
C316 C317 1.391 . S
C317 H305 0.950 . S
C317 C313 1.393 . S
C317 C316 1.391 . S
H318 C326 0.950 . S
H319 C331 0.950 . S
H320 C328 0.950 . S
H321 C330 0.950 . S
H322 C332 0.950 . S
H323 C334 0.950 . S
H324 C336 0.950 . S
H325 C337 0.950 . S
C326 H318 0.950 . S
C326 C327 1.386 . S
C326 C328 1.391 . S
C327 C326 1.386 . S
C327 C331 1.393 . S
C328 H320 0.950 . S
C328 C326 1.391 . S
C328 C329 1.400 . S
C329 C328 1.400 . S
C329 C330 1.398 . S
C329 C335 1.491 . S
C330 H321 0.950 . S
C330 C329 1.398 . S
C330 C331 1.391 . S
C331 H319 0.950 . S
C331 C327 1.393 . S
C331 C330 1.391 . S
C332 H322 0.950 . S
C332 C333 1.386 . S
C332 C334 1.391 . S
C333 C332 1.386 . S
C333 C337 1.393 . S
C334 H323 0.950 . S
C334 C332 1.391 . S
C334 C335 1.400 . S
C335 C329 1.491 . S
C335 C334 1.400 . S
C335 C336 1.398 . S
C336 H324 0.950 . S
C336 C335 1.398 . S
C336 C337 1.391 . S
C337 H325 0.950 . S
C337 C333 1.393 . S
C337 C336 1.391 . S
H338 C346 0.950 . S
H339 C351 0.950 . S
H340 C348 0.950 . S
H341 C350 0.950 . S
H342 C352 0.950 . S
H343 C354 0.950 . S
H344 C356 0.950 . S
H345 C357 0.950 . S
C346 H338 0.950 . S
C346 C347 1.386 . S
C346 C348 1.391 . S
C347 C346 1.386 . S
C347 C351 1.393 . S
C348 H340 0.950 . S
C348 C346 1.391 . S
C348 C349 1.400 . S
C349 C348 1.400 . S
C349 C350 1.398 . S
C349 C355 1.491 . S
C350 H341 0.950 . S
C350 C349 1.398 . S
C350 C351 1.391 . S
C351 H339 0.950 . S
C351 C347 1.393 . S
C351 C350 1.391 . S
C352 H342 0.950 . S
C352 C353 1.386 . S
C352 C354 1.391 . S
C353 C352 1.386 . S
C353 C357 1.393 . S
C354 H343 0.950 . S
C354 C352 1.391 . S
C354 C355 1.400 . S
C355 C349 1.491 . S
C355 C354 1.400 . S
C355 C356 1.398 . S
C356 H344 0.950 . S
C356 C355 1.398 . S
C356 C357 1.391 . S
C357 H345 0.950 . S
C357 C353 1.393 . S
C357 C356 1.391 . S
H358 C366 0.950 . S
H359 C371 0.950 . S
H360 C368 0.950 . S
H361 C370 0.950 . S
H362 C372 0.950 . S
H363 C374 0.950 . S
H364 C376 0.950 . S
H365 C377 0.950 . S
C366 H358 0.950 . S
C366 C367 1.386 . S
C366 C368 1.391 . S
C367 C366 1.386 . S
C367 C371 1.393 . S
C368 H360 0.950 . S
C368 C366 1.391 . S
C368 C369 1.400 . S
C369 C368 1.400 . S
C369 C370 1.398 . S
C369 C375 1.491 . S
C370 H361 0.950 . S
C370 C369 1.398 . S
C370 C371 1.391 . S
C371 H359 0.950 . S
C371 C367 1.393 . S
C371 C370 1.391 . S
C372 H362 0.950 . S
C372 C373 1.386 . S
C372 C374 1.391 . S
C373 C372 1.386 . S
C373 C377 1.393 . S
C374 H363 0.950 . S
C374 C372 1.391 . S
C374 C375 1.400 . S
C375 C369 1.491 . S
C375 C374 1.400 . S
C375 C376 1.398 . S
C376 H364 0.950 . S
C376 C375 1.398 . S
C376 C377 1.391 . S
C377 H365 0.950 . S
C377 C373 1.393 . S
C377 C376 1.391 . S
H378 C386 0.950 . S
H379 C391 0.950 . S
H380 C388 0.950 . S
H381 C390 0.950 . S
H382 C392 0.950 . S
H383 C394 0.950 . S
H384 C396 0.950 . S
H385 C397 0.950 1_655 S
C386 H378 0.950 . S
C386 C387 1.386 1_655 S
C386 C388 1.391 . S
C387 C386 1.386 1_455 S
C387 C391 1.393 . S
C388 H380 0.950 . S
C388 C386 1.391 . S
C388 C389 1.400 1_655 S
C389 C388 1.400 1_455 S
C389 C390 1.398 . S
C389 C395 1.491 1_554 S
C390 H381 0.950 . S
C390 C389 1.398 . S
C390 C391 1.391 . S
C391 H379 0.950 . S
C391 C387 1.393 . S
C391 C390 1.391 . S
C392 H382 0.950 . S
C392 C393 1.386 . S
C392 C394 1.391 . S
C393 C392 1.386 . S
C393 C397 1.393 . S
C394 H383 0.950 . S
C394 C392 1.391 . S
C394 C395 1.400 . S
C395 C389 1.491 1_556 S
C395 C394 1.400 . S
C395 C396 1.398 1_455 S
C396 H384 0.950 . S
C396 C395 1.398 1_655 S
C396 C397 1.391 1_655 S
C397 H385 0.950 1_455 S
C397 C393 1.393 . S
C397 C396 1.391 1_455 S
H398 C406 0.950 . S
H399 C411 0.950 . S
H400 C408 0.950 . S
H401 C410 0.950 . S
H402 C412 0.950 1_565 S
H403 C414 0.948 1_565 S
H404 C416 0.950 . S
H405 C417 0.950 . S
C406 H398 0.950 . S
C406 C407 1.386 . S
C406 C408 1.391 . S
C407 C406 1.386 . S
C407 C411 1.393 . S
C408 H400 0.950 . S
C408 C406 1.391 . S
C408 C409 1.400 . S
C409 C408 1.400 . S
C409 C410 1.398 . S
C409 C415 1.491 . S
C410 H401 0.950 . S
C410 C409 1.398 . S
C410 C411 1.391 . S
C411 H399 0.950 . S
C411 C407 1.393 . S
C411 C410 1.391 . S
C412 H402 0.950 1_545 S
C412 C413 1.386 . S
C412 C414 1.391 . S
C413 C412 1.386 . S
C413 C417 1.393 . S
C414 H403 0.948 1_545 S
C414 C412 1.391 . S
C414 C415 1.400 . S
C415 C409 1.491 . S
C415 C414 1.400 . S
C415 C416 1.398 . S
C416 H404 0.950 . S
C416 C415 1.398 . S
C416 C417 1.391 . S
C417 H405 0.950 . S
C417 C413 1.393 . S
C417 C416 1.391 . S
H418 C426 0.950 . S
H419 C431 0.950 . S
H420 C428 0.950 . S
H421 C430 0.950 . S
H422 C432 0.950 . S
H423 C434 0.950 . S
H424 C436 0.950 . S
H425 C437 0.950 . S
C426 H418 0.950 . S
C426 C427 1.386 . S
C426 C428 1.391 . S
C427 C426 1.386 . S
C427 C431 1.393 . S
C428 H420 0.950 . S
C428 C426 1.391 . S
C428 C429 1.400 . S
C429 C428 1.400 . S
C429 C430 1.398 . S
C429 C435 1.491 . S
C430 H421 0.950 . S
C430 C429 1.398 . S
C430 C431 1.391 . S
C431 H419 0.950 . S
C431 C427 1.393 . S
C431 C430 1.391 . S
C432 H422 0.950 . S
C432 C433 1.386 . S
C432 C434 1.391 . S
C433 C432 1.386 . S
C433 C437 1.393 . S
C434 H423 0.950 . S
C434 C432 1.391 . S
C434 C435 1.400 . S
C435 C429 1.491 . S
C435 C434 1.400 . S
C435 C436 1.398 . S
C436 H424 0.950 . S
C436 C435 1.398 . S
C436 C437 1.391 . S
C437 H425 0.950 . S
C437 C433 1.393 . S
C437 C436 1.391 . S
H438 C446 0.950 . S
H439 C451 0.950 . S
H440 C448 0.950 . S
H441 C450 0.950 . S
H442 C452 0.950 . S
H443 C454 0.950 . S
H444 C456 0.950 . S
H445 C457 0.950 . S
C446 H438 0.950 . S
C446 C447 1.386 . S
C446 C448 1.391 . S
C447 C446 1.386 . S
C447 C451 1.393 . S
C448 H440 0.950 . S
C448 C446 1.391 . S
C448 C449 1.400 . S
C449 C448 1.400 . S
C449 C450 1.398 . S
C449 C455 1.491 . S
C450 H441 0.950 . S
C450 C449 1.398 . S
C450 C451 1.391 . S
C451 H439 0.950 . S
C451 C447 1.393 . S
C451 C450 1.391 . S
C452 H442 0.950 . S
C452 C453 1.386 . S
C452 C454 1.391 . S
C453 C452 1.386 . S
C453 C457 1.393 . S
C454 H443 0.950 . S
C454 C452 1.391 . S
C454 C455 1.400 . S
C455 C449 1.491 . S
C455 C454 1.400 . S
C455 C456 1.398 . S
C456 H444 0.950 . S
C456 C455 1.398 . S
C456 C457 1.391 . S
C457 H445 0.950 . S
C457 C453 1.393 . S
C457 C456 1.391 . S
H458 C466 0.950 . S
H459 C471 0.950 . S
H460 C468 0.950 . S
H461 C470 0.950 . S
H462 C472 0.950 . S
H463 C474 0.950 . S
H464 C476 0.950 . S
H465 C477 0.950 . S
C466 H458 0.950 . S
C466 C467 1.386 . S
C466 C468 1.391 . S
C467 C466 1.386 . S
C467 C471 1.393 . S
C468 H460 0.950 . S
C468 C466 1.391 . S
C468 C469 1.400 . S
C469 C468 1.400 . S
C469 C470 1.398 . S
C469 C475 1.491 1_556 S
C470 H461 0.950 . S
C470 C469 1.398 . S
C470 C471 1.391 . S
C471 H459 0.950 . S
C471 C467 1.393 . S
C471 C470 1.391 . S
C472 H462 0.950 . S
C472 C473 1.386 . S
C472 C474 1.391 . S
C473 C472 1.386 . S
C473 C477 1.393 . S
C474 H463 0.950 . S
C474 C472 1.391 . S
C474 C475 1.400 . S
C475 C469 1.491 1_554 S
C475 C474 1.400 . S
C475 C476 1.398 . S
C476 H464 0.950 . S
C476 C475 1.398 . S
C476 C477 1.391 . S
C477 H465 0.950 . S
C477 C473 1.393 . S
C477 C476 1.391 . S
H478 C486 0.950 . S
H479 C491 0.950 . S
H480 C488 0.950 . S
H481 C490 0.950 . S
H482 C492 0.951 1_655 S
H483 C494 0.950 . S
H484 C496 0.950 . S
H485 C497 0.950 . S
C486 H478 0.950 . S
C486 C487 1.386 1_455 S
C486 C488 1.391 . S
C487 C486 1.386 1_655 S
C487 C491 1.393 . S
C488 H480 0.950 . S
C488 C486 1.391 . S
C488 C489 1.400 . S
C489 C488 1.400 . S
C489 C490 1.398 1_455 S
C489 C495 1.491 . S
C490 H481 0.950 . S
C490 C489 1.398 1_655 S
C490 C491 1.391 . S
C491 H479 0.950 . S
C491 C487 1.393 . S
C491 C490 1.391 . S
C492 H482 0.951 1_455 S
C492 C493 1.384 . S
C492 C494 1.391 1_455 S
C493 C492 1.384 . S
C493 C497 1.393 . S
C494 H483 0.950 . S
C494 C492 1.391 1_655 S
C494 C495 1.400 1_655 S
C495 C489 1.491 . S
C495 C494 1.400 1_455 S
C495 C496 1.398 . S
C496 H484 0.950 . S
C496 C495 1.398 . S
C496 C497 1.391 . S
C497 H485 0.950 . S
C497 C493 1.393 . S
C497 C496 1.391 . S
C147 C2 0.812 . S
C153 N127 0.795 . S
C167 C21 0.927 . S
C173 N100 0.912 1_655 S
C187 C42 0.967 . S
C193 N113 0.981 . S
C207 C1 1.244 . S
C213 N126 1.273 . S
C233 N101 1.151 . S
C227 C22 1.130 . S
C253 N114 1.051 . S
C247 C41 1.042 . S
C267 C38 1.752 . S
C273 N74 1.765 . S
C287 C59 1.670 . S
C293 N88 1.634 1_655 S
C307 C18 1.897 . S
C313 N62 1.906 . S
C333 N75 1.962 . S
C327 C39 1.988 . S
C353 N87 2.134 . S
C347 C58 2.095 . S
C367 C19 1.829 . S
C373 N61 1.832 . S
C393 N91 1.591 . S
C387 C9 1.548 . S
C407 C29 1.545 . S
C413 N65 1.557 . S
C427 C49 1.507 . S
C433 N78 1.614 . S
C453 N117 1.445 . S
C447 C28 1.404 . S
C473 N130 1.459 . S
C467 C48 1.458 . S
C487 C8 1.477 1_655 S
C493 N104 1.477 . S
