# Generated by pormake.
# Topology zzz, (3,6)-cn, num edge types: 1
# Building blocks:
#     Node 0, Type 0, BuildingBlock: BETDIP_clean_linker_0, # of connection points: 3
#     Node 1, Type 0, BuildingBlock: BETDIP_clean_linker_0, # of connection points: 3
#     Node 2, Type 0, BuildingBlock: BETDIP_clean_linker_0, # of connection points: 3
#     Node 3, Type 0, BuildingBlock: BETDIP_clean_linker_0, # of connection points: 3
#     Node 4, Type 0, BuildingBlock: BETDIP_clean_linker_0, # of connection points: 3
#     Node 5, Type 0, BuildingBlock: BETDIP_clean_linker_0, # of connection points: 3
#     Node 6, Type 0, BuildingBlock: BETDIP_clean_linker_0, # of connection points: 3
#     Node 7, Type 0, BuildingBlock: BETDIP_clean_linker_0, # of connection points: 3
#     Node 8, Type 1, BuildingBlock: PAMTOO_clean_sbu_0, # of connection points: 6
#     Node 9, Type 1, BuildingBlock: PAMTOO_clean_sbu_0, # of connection points: 6
#     Node 10, Type 1, BuildingBlock: PAMTOO_clean_sbu_0, # of connection points: 6
#     Node 11, Type 1, BuildingBlock: PAMTOO_clean_sbu_0, # of connection points: 6
#     Edge 12, Type (0, 1), BuildingBlock: XIVTED_clean_linker_0, # of connection points: 2
#     Edge 13, Type (0, 1), BuildingBlock: XIVTED_clean_linker_0, # of connection points: 2
#     Edge 14, Type (0, 1), BuildingBlock: XIVTED_clean_linker_0, # of connection points: 2
#     Edge 15, Type (0, 1), BuildingBlock: XIVTED_clean_linker_0, # of connection points: 2
#     Edge 16, Type (0, 1), BuildingBlock: XIVTED_clean_linker_0, # of connection points: 2
#     Edge 17, Type (0, 1), BuildingBlock: XIVTED_clean_linker_0, # of connection points: 2
#     Edge 18, Type (0, 1), BuildingBlock: XIVTED_clean_linker_0, # of connection points: 2
#     Edge 19, Type (0, 1), BuildingBlock: XIVTED_clean_linker_0, # of connection points: 2
#     Edge 20, Type (0, 1), BuildingBlock: XIVTED_clean_linker_0, # of connection points: 2
#     Edge 21, Type (0, 1), BuildingBlock: XIVTED_clean_linker_0, # of connection points: 2
#     Edge 22, Type (0, 1), BuildingBlock: XIVTED_clean_linker_0, # of connection points: 2
#     Edge 23, Type (0, 1), BuildingBlock: XIVTED_clean_linker_0, # of connection points: 2
#     Edge 24, Type (0, 1), BuildingBlock: XIVTED_clean_linker_0, # of connection points: 2
#     Edge 25, Type (0, 1), BuildingBlock: XIVTED_clean_linker_0, # of connection points: 2
#     Edge 26, Type (0, 1), BuildingBlock: XIVTED_clean_linker_0, # of connection points: 2
#     Edge 27, Type (0, 1), BuildingBlock: XIVTED_clean_linker_0, # of connection points: 2
#     Edge 28, Type (0, 1), BuildingBlock: XIVTED_clean_linker_0, # of connection points: 2
#     Edge 29, Type (0, 1), BuildingBlock: XIVTED_clean_linker_0, # of connection points: 2
#     Edge 30, Type (0, 1), BuildingBlock: XIVTED_clean_linker_0, # of connection points: 2
#     Edge 31, Type (0, 1), BuildingBlock: XIVTED_clean_linker_0, # of connection points: 2
#     Edge 32, Type (0, 1), BuildingBlock: XIVTED_clean_linker_0, # of connection points: 2
#     Edge 33, Type (0, 1), BuildingBlock: XIVTED_clean_linker_0, # of connection points: 2
#     Edge 34, Type (0, 1), BuildingBlock: XIVTED_clean_linker_0, # of connection points: 2
#     Edge 35, Type (0, 1), BuildingBlock: XIVTED_clean_linker_0, # of connection points: 2
# Relax obj value: 0.221
# Max RMSD: 0.239
# Mean RMSD: 0.125
data_MOF--net-zzz--node1-PAMTOO_clean_sbu_0--node2-BETDIP_clean_linker_0--edge1-XIVTED_clean_linker_0
_symmetry_space_group_name_H-M    P1
_symmetry_Int_Tables_number       1
_symmetry_cell_setting            triclinic
loop_
_symmetry_equiv_pos_as_xyz
'x, y, z'
_cell_length_a     57.022408
_cell_length_b     49.45029
_cell_length_c     15.595596
_cell_angle_alpha  92.373415
_cell_angle_beta   80.058781
_cell_angle_gamma 86.150354
loop_
_atom_site_label
_atom_site_type_symbol
_atom_site_fract_x
_atom_site_fract_y
_atom_site_fract_z
_atom_type_partial_charge
H0 H 0.79074 0.522 0.67908 0.0
H1 H 0.76935 0.52911 0.42858 0.0
H2 H 0.84358 0.52386 0.44598 0.0
H3 H 0.73615 0.56687 0.58998 0.0
C4 C 0.73508 0.54549 0.57322 0.0
C5 C 0.7954 0.52397 0.60941 0.0
C6 C 0.81967 0.52302 0.56907 0.0
C7 C 0.77712 0.52698 0.55879 0.0
C8 C 0.78321 0.5283 0.46818 0.0
C9 C 0.80707 0.52686 0.42752 0.0
C10 C 0.82508 0.52513 0.47827 0.0
N11 N 0.75264 0.5269 0.59753 0.0
H12 H 1.00621 0.73691 0.59442 0.0
H13 H 1.009 0.70888 0.32699 0.0
H14 H 0.99846 0.79397 0.39834 0.0
H15 H 0.97661 0.67476 0.50365 0.0
C16 C 0.99487 0.67248 0.46842 0.0
C17 C 1.00503 0.74117 0.52766 0.0
C18 C 1.00106 0.76819 0.50468 0.0
C19 C 1.00686 0.71958 0.46399 0.0
C20 C 1.00627 0.7252 0.37694 0.0
C21 C 1.00339 0.75197 0.35338 0.0
C22 C 1.00012 0.77317 0.41753 0.0
N23 N 1.01066 0.69226 0.48584 0.0
H24 H 0.76802 0.98471 0.43261 0.0
H25 H 0.7778 0.03671 0.21528 0.0
H26 H 0.7109 0.0413 0.39133 0.0
H27 H 0.79665 0.99144 0.15781 0.0
C28 C 0.8093 0.99288 0.20237 0.0
C29 C 0.76142 1.00095 0.39656 0.0
C30 C 0.73776 0.01263 0.42212 0.0
C31 C 0.77615 0.00971 0.32171 0.0
C32 C 0.7669 0.03005 0.27341 0.0
C33 C 0.74353 0.04167 0.29876 0.0
C34 C 0.72936 0.03319 0.37375 0.0
N35 N 0.79991 0.99771 0.29314 0.0
H36 H 0.54233 0.74862 0.41344 0.0
H37 H 0.52088 0.73888 0.16224 0.0
H38 H 0.51149 0.67573 0.34252 0.0
H39 H 0.55839 0.76172 0.13314 0.0
C40 C 0.55049 0.77869 0.17772 0.0
C41 C 0.53437 0.73688 0.36734 0.0
C42 C 0.52684 0.711 0.38768 0.0
C43 C 0.53225 0.74716 0.28574 0.0
C44 C 0.52248 0.73134 0.22538 0.0
C45 C 0.51463 0.70578 0.24617 0.0
C46 C 0.51666 0.69597 0.32754 0.0
N47 N 0.54 0.77324 0.26436 0.0
H48 H 0.2531 0.46229 0.95404 0.0
H49 H 0.26917 0.49303 0.1985 0.0
H50 H 0.19637 0.48652 0.16972 0.0
H51 H 0.29931 0.51434 0.0426 0.0
C52 C 0.30444 0.49367 0.05697 0.0
C53 C 0.24716 0.46987 0.02098 0.0
C54 C 0.22247 0.4734 0.05573 0.0
C55 C 0.26414 0.47683 0.07279 0.0
C56 C 0.25631 0.48745 0.15846 0.0
C57 C 0.23203 0.49053 0.19359 0.0
C58 C 0.21525 0.4832 0.14272 0.0
N59 N 0.28908 0.47332 0.03968 0.0
H60 H 0.02733 0.28368 0.99559 0.0
H61 H 0.05802 0.29957 0.22453 0.0
H62 H 0.06453 0.21897 0.10487 0.0
H63 H 1.00056 0.31745 0.20165 0.0
C64 C 1.01462 0.3311 0.18447 0.0
C65 C 0.03828 0.27681 0.04187 0.0
C66 C 0.04637 0.2492 0.04066 0.0
C67 C 0.04316 0.29515 0.10724 0.0
C68 C 0.05561 0.28573 0.17151 0.0
C69 C 0.06363 0.25835 0.17063 0.0
C70 C 0.05959 0.24051 0.10335 0.0
N71 N 0.03358 0.32253 0.115 0.0
H72 H 0.27842 0.01842 0.11496 0.0
H73 H 0.2609 0.9964 0.38301 0.0
H74 H 0.33339 0.0066 0.27093 0.0
H75 H 0.23657 0.96818 0.29809 0.0
C76 C 0.22749 0.98745 0.28715 0.0
C77 C 0.2838 0.01373 0.17627 0.0
C78 C 0.30821 0.01351 0.18451 0.0
C79 C 0.26646 0.00727 0.24806 0.0
C80 C 0.27382 1.00104 0.32702 0.0
C81 C 0.29776 1.00087 0.33458 0.0
C82 C 0.31473 0.00716 0.26409 0.0
N83 N 0.24172 0.00696 0.24229 0.0
H84 H 0.50918 0.25151 0.18834 0.0
H85 H 0.51853 0.26795 0.45429 0.0
H86 H 0.50489 0.33364 0.29464 0.0
H87 H 0.54789 0.23004 0.39884 0.0
C88 C 0.5339 0.21739 0.38562 0.0
C89 C 0.50935 0.26573 0.24293 0.0
C90 C 0.50597 0.29386 0.23305 0.0
C91 C 0.51385 0.25613 0.32309 0.0
C92 C 0.51501 0.27495 0.39251 0.0
C93 C 0.51142 0.30285 0.38281 0.0
C94 C 0.50665 0.31198 0.30354 0.0
N95 N 0.51745 0.22772 0.33365 0.0
Dy96 Dy 1.01016 0.01814 0.7002 0.0
Dy97 Dy 0.03486 0.99964 0.86196 0.0
C98 C 0.06666 0.009 0.67836 0.0
O99 O 1.00156 0.97485 0.71088 0.0
O100 O 0.03184 0.96144 0.78276 0.0
O101 O 1.00653 0.01575 0.56428 0.0
O102 O 0.98613 0.04715 0.65285 0.0
O103 O 0.99619 0.99264 0.90607 0.0
O104 O 0.98005 0.0205 0.81395 0.0
O105 O 0.02547 0.0443 0.88874 0.0
O106 O 0.02761 0.05398 0.7462 0.0
O107 O 0.03598 0.99561 0.99885 0.0
O108 O 0.06612 0.98038 0.90094 0.0
C109 C 1.01502 0.95562 0.73846 0.0
O110 O 0.04802 1.00413 0.64291 0.0
O111 O 0.06427 0.01388 0.76295 0.0
C112 C 1.00711 0.06106 0.52358 0.0
C113 C 0.03035 0.10814 0.47716 0.0
C114 C 0.0435 0.08455 0.49382 0.0
C115 C 0.03199 0.06131 0.51686 0.0
C116 C 0.99401 0.08414 0.5031 0.0
C117 C 1.00557 0.10751 0.47966 0.0
C118 C 0.99492 0.03969 0.5719 0.0
C119 C 0.97769 0.00596 0.88322 0.0
C120 C 0.02701 0.06195 0.82779 0.0
C121 C 0.05353 0.9514 0.01169 0.0
C122 C 0.04641 0.89591 0.02886 0.0
C123 C 0.02807 0.91587 0.06285 0.0
C124 C 0.03156 0.94329 0.05428 0.0
C125 C 0.07243 0.93155 0.98343 0.0
C126 C 0.06889 0.90402 0.99168 0.0
C127 C 0.05533 0.97919 0.98132 0.0
H128 H 0.06252 0.0844 0.49341 0.0
H129 H 0.04243 0.0441 0.53493 0.0
H130 H 0.97476 0.08458 0.50978 0.0
H131 H 0.99502 0.12528 0.46554 0.0
H132 H 1.01078 0.91028 0.09471 0.0
H133 H 1.0166 0.95799 0.07724 0.0
H134 H 0.08955 0.93723 0.9502 0.0
H135 H 0.08343 0.88911 0.96559 0.0
Dy136 Dy 0.52087 0.98586 0.73822 0.0
Dy137 Dy 0.53087 0.02206 0.90388 0.0
C138 C 0.52505 0.04902 0.7286 0.0
O139 O 0.55997 0.99093 0.70071 0.0
O140 O 0.56771 0.00776 0.83245 0.0
O141 O 0.51753 0.98087 0.60254 0.0
O142 O 0.50878 0.94869 0.68978 0.0
O143 O 0.52344 0.98049 0.94916 0.0
O144 O 0.5387 0.95782 0.81962 0.0
O145 O 0.49108 0.02822 0.91039 0.0
O146 O 0.48688 0.98867 0.83621 0.0
O147 O 0.54459 0.02487 0.02411 0.0
O148 O 0.52801 0.06064 0.97655 0.0
C149 C 0.57501 0.99825 0.75119 0.0
O150 O 0.51143 0.0295 0.71516 0.0
O151 O 0.53871 0.04686 0.78772 0.0
C152 C 0.48129 0.96144 0.60298 0.0
C153 C 0.43218 0.9649 0.59687 0.0
C154 C 0.44166 0.98363 0.64908 0.0
C155 C 0.46594 0.98216 0.65087 0.0
C156 C 0.47211 0.94235 0.55158 0.0
C157 C 0.44768 0.94422 0.54781 0.0
C158 C 0.5061 0.959 0.6162 0.0
C159 C 0.53269 0.95804 0.90467 0.0
C160 C 0.47746 0.00981 0.88706 0.0
C161 C 0.56225 0.06554 0.03922 0.0
C162 C 0.60697 0.08419 0.05477 0.0
C163 C 0.60109 0.07898 0.97203 0.0
C164 C 0.57894 0.06963 0.96434 0.0
C165 C 0.56745 0.07214 0.1216 0.0
C166 C 0.58962 0.08144 0.12942 0.0
C167 C 0.54096 0.05125 0.03158 0.0
H168 H 0.43034 0.99944 0.68929 0.0
H169 H 0.47269 0.99707 0.69119 0.0
H170 H 0.48372 0.92605 0.51498 0.0
H171 H 0.44103 0.92969 0.5058 0.0
H172 H 0.61394 0.0811 0.91331 0.0
H173 H 0.57524 0.06445 0.90005 0.0
H174 H 0.55484 0.06882 0.17996 0.0
H175 H 0.59364 0.0848 0.1942 0.0
Dy176 Dy 0.55055 0.50479 0.85301 0.0
Dy177 Dy 0.50097 0.49824 0.75484 0.0
C178 C 0.51924 0.45211 0.88115 0.0
O179 O 0.55971 0.46896 0.75852 0.0
O180 O 0.53699 0.4896 0.67361 0.0
O181 O 0.58866 0.5076 0.8531 0.0
O182 O 0.5624 0.51682 0.97161 0.0
O183 O 0.51005 0.54077 0.73461 0.0
O184 O 0.54891 0.53899 0.76138 0.0
O185 O 0.49013 0.53232 0.85484 0.0
O186 O 0.51624 0.51779 0.94171 0.0
O187 O 0.49173 0.49005 0.62778 0.0
O188 O 0.46362 0.49513 0.74434 0.0
C189 C 0.55077 0.4686 0.68683 0.0
O190 O 0.53884 0.46401 0.88988 0.0
O191 O 0.50257 0.46262 0.84016 0.0
C192 C 0.60307 0.50904 0.99112 0.0
C193 C 0.63498 0.5084 0.11233 0.0
C194 C 0.61337 0.49576 0.13004 0.0
C195 C 0.59749 0.49624 0.07029 0.0
C196 C 0.62528 0.52009 0.97125 0.0
C197 C 0.64101 0.51983 0.03101 0.0
C198 C 0.58491 0.51545 0.93576 0.0
C199 C 0.5306 0.5515 0.7337 0.0
C200 C 0.49979 0.53556 0.9246 0.0
C201 C 0.45077 0.48646 0.60365 0.0
C202 C 0.41712 0.48322 0.48961 0.0
C203 C 0.44078 0.47214 0.46338 0.0
C204 C 0.45745 0.47392 0.51952 0.0
C205 C 0.42691 0.49655 0.6312 0.0
C206 C 0.41032 0.4951 0.57471 0.0
C207 C 0.46894 0.49089 0.65956 0.0
H208 H 0.60812 0.48687 0.19211 0.0
H209 H 0.58041 0.48774 0.08782 0.0
H210 H 0.62996 0.53029 0.91116 0.0
H211 H 0.65762 0.5294 0.01465 0.0
H212 H 0.44667 0.46302 0.3982 0.0
H213 H 0.47572 0.46594 0.49637 0.0
H214 H 0.42123 0.50639 0.69549 0.0
H215 H 0.39219 0.50357 0.59735 0.0
Dy216 Dy 0.03055 0.52594 0.75191 0.0
Dy217 Dy 1.01147 0.47826 0.87869 0.0
C218 C 0.02268 0.468 0.67188 0.0
O219 O 0.99335 0.52081 0.72962 0.0
O220 O 0.97883 0.50448 0.8619 0.0
O221 O 0.04932 0.53979 0.63155 0.0
O222 O 0.03172 0.56898 0.73291 0.0
O223 O 1.02086 0.50992 0.97 0.0
O224 O 1.01681 0.54588 0.88468 0.0
O225 O 0.05142 0.47049 0.85678 0.0
O226 O 0.06229 0.51213 0.81001 0.0
O227 O 0.99257 0.46502 0.99971 0.0
O228 O 1.0069 0.43551 0.894 0.0
C229 C 0.97531 0.51482 0.78842 0.0
O230 O 0.0375 0.48731 0.66707 0.0
O231 O 1.00755 0.46533 0.74373 0.0
C232 C 0.06973 0.57744 0.65767 0.0
C233 C 0.11907 0.58268 0.63063 0.0
C234 C 0.10569 0.58958 0.56568 0.0
C235 C 0.08115 0.58682 0.57906 0.0
C236 C 0.08242 0.57405 0.72657 0.0
C237 C 0.10695 0.57677 0.71322 0.0
C238 C 0.04701 0.56507 0.6604 0.0
C239 C 1.01842 0.53611 0.96067 0.0
C240 C 0.06756 0.4883 0.83925 0.0
C241 C 0.96727 0.43315 0.96538 0.0
C242 C 0.91739 0.44024 0.98633 0.0
C243 C 0.92833 0.42896 0.05233 0.0
C244 C 0.95321 0.42564 0.04212 0.0
C245 C 0.95625 0.44103 0.89535 0.0
C246 C 0.93146 0.44469 0.90591 0.0
C247 C 0.99169 0.44053 0.9666 0.0
H248 H 0.11446 0.59403 0.50106 0.0
H249 H 0.07163 0.58939 0.52517 0.0
H250 H 0.07386 0.56678 0.78794 0.0
H251 H 0.11677 0.57161 0.76463 0.0
H252 H 0.91785 0.42566 0.11536 0.0
H253 H 0.96138 0.4199 0.09714 0.0
H254 H 0.96675 0.44719 0.8357 0.0
H255 H 0.92343 0.45347 0.85433 0.0
H256 H 0.18928 0.02184 0.25904 0.0
H257 H 0.11065 1.00417 0.72757 0.0
H258 H 0.21248 0.96911 0.44614 0.0
H259 H 0.07762 0.01312 0.50042 0.0
H260 H 0.14997 1.00193 0.63324 0.0
H261 H 0.14979 0.02945 0.3551 0.0
C262 C 0.18616 0.0122 0.32066 0.0
C263 C 0.20409 0.99478 0.34478 0.0
C264 C 0.13407 1.0046 0.60429 0.0
C265 C 0.15944 1.00368 0.45488 0.0
C266 C 0.11161 0.00594 0.65808 0.0
C267 C 0.09068 0.00877 0.62212 0.0
C268 C 0.13577 0.0067 0.51385 0.0
C269 C 0.09318 0.01089 0.53124 0.0
C270 C 0.16367 0.0164 0.37506 0.0
C271 C 0.19909 0.9826 0.42501 0.0
N272 N 0.11527 0.00994 0.48033 0.0
N273 N 0.17738 0.9874 0.47729 0.0
H274 H 0.50065 0.17882 0.38041 0.0
H275 H 0.55365 0.09089 0.73391 0.0
H276 H 0.56243 0.19686 0.49115 0.0
H277 H 0.49807 0.06318 0.60348 0.0
H278 H 0.55539 0.13073 0.64777 0.0
H279 H 0.49793 0.13713 0.46203 0.0
C280 C 0.51369 0.17394 0.42141 0.0
C281 C 0.53183 0.19129 0.42912 0.0
C282 C 0.54279 0.116 0.63758 0.0
C283 C 0.52871 0.14398 0.52283 0.0
C284 C 0.54173 0.09315 0.68715 0.0
C285 C 0.52568 0.07351 0.67616 0.0
C286 C 0.52763 0.11957 0.57618 0.0
C287 C 0.51074 0.07776 0.61417 0.0
C288 C 0.51212 0.1502 0.468 0.0
C289 C 0.54819 0.18406 0.48328 0.0
N290 N 0.51204 0.10036 0.56657 0.0
N291 N 0.54619 0.16112 0.52805 0.0
H292 H 0.32368 0.44619 0.11549 0.0
H293 H 0.38674 0.5257 0.46033 0.0
H294 H 0.32405 0.53332 0.13858 0.0
H295 H 0.40856 0.44229 0.37542 0.0
H296 H 0.35955 0.5272 0.35524 0.0
H297 H 0.3512 0.44268 0.2212 0.0
C298 C 0.32958 0.46453 0.14261 0.0
C299 C 0.32162 0.49011 0.11821 0.0
C300 C 0.37025 0.50852 0.35954 0.0
C301 C 0.35266 0.48627 0.23968 0.0
C302 C 0.38566 0.50759 0.42012 0.0
C303 C 0.39996 0.48381 0.42708 0.0
C304 C 0.36877 0.48543 0.30567 0.0
C305 C 0.39799 0.46111 0.37197 0.0
C306 C 0.34527 0.46252 0.20277 0.0
C307 C 0.3298 0.5132 0.1554 0.0
N308 N 0.38261 0.46241 0.31393 0.0
N309 N 0.34467 0.51076 0.21447 0.0
H310 H 0.05075 0.36601 0.18718 0.0
H311 H 0.98867 0.43312 0.65451 0.0
H312 H 0.98182 0.34814 0.32556 0.0
H313 H 0.05398 0.46063 0.51381 0.0
H314 H 0.98662 0.40213 0.53207 0.0
H315 H 0.05287 0.40109 0.30191 0.0
C316 C 0.03597 0.36966 0.24112 0.0
C317 C 1.01605 0.35414 0.24707 0.0
C318 C 1.00143 0.41491 0.52734 0.0
C319 C 1.01846 0.39391 0.37847 0.0
C320 C 1.00268 0.43267 0.59777 0.0
C321 C 1.02163 0.44953 0.59504 0.0
C322 C 1.01932 0.41361 0.45282 0.0
C323 C 0.03907 0.448 0.5189 0.0
C324 C 0.03722 0.38961 0.30664 0.0
C325 C 0.9975 0.35961 0.31847 0.0
N326 N 0.03757 0.43024 0.4509 0.0
N327 N 0.99921 0.37886 0.38128 0.0
H328 H 0.84968 0.99341 0.28197 0.0
H329 H 0.93499 0.02037 0.83469 0.0
H330 H 0.82725 0.99458 0.03188 0.0
H331 H 0.96435 0.98735 0.04873 0.0
H332 H 0.89495 0.01689 0.9161 0.0
H333 H 0.8914 0.99621 0.20761 0.0
C334 C 0.85351 0.99422 0.2117 0.0
C335 C 0.83496 0.99379 0.16293 0.0
C336 C 0.9101 0.01037 0.94553 0.0
C337 C 0.88233 0.99737 0.07809 0.0
C338 C 0.93308 0.01246 0.89906 0.0
C339 C 0.95323 1.00409 0.9345 0.0
C340 C 0.90694 1.00014 0.02913 0.0
C341 C 0.94937 0.99393 0.0185 0.0
C342 C 0.87728 0.99576 0.16935 0.0
C343 C 0.84095 0.99485 0.07207 0.0
N344 N 0.92669 0.99235 0.06318 0.0
N345 N 0.86393 0.99678 0.03295 0.0
H346 H 0.56894 0.79214 0.01558 0.0
H347 H 0.51913 0.94866 0.07872 0.0
H348 H 0.52926 0.8274 0.25956 0.0
H349 H 0.55387 0.90907 0.83343 0.0
H350 H 0.52434 0.90576 0.14947 0.0
H351 H 0.56556 0.83609 0.95159 0.0
C352 C 0.55962 0.80926 0.05586 0.0
C353 C 0.54936 0.80611 0.14286 0.0
C354 C 0.53084 0.90653 0.08023 0.0
C355 C 0.54522 0.85671 0.06982 0.0
C356 C 0.5279 0.93102 0.03974 0.0
C357 C 0.53602 0.93253 0.94979 0.0
C358 C 0.54207 0.8834 0.0305 0.0
C359 C 0.54724 0.90897 0.90277 0.0
C360 C 0.55763 0.83437 0.01923 0.0
C361 C 0.53745 0.82896 0.19215 0.0
N362 N 0.5499 0.88549 0.94358 0.0
N363 N 0.53564 0.85332 0.15483 0.0
H364 H 0.70914 0.58049 0.4921 0.0
H365 H 0.64938 0.47084 0.22357 0.0
H366 H 0.72653 0.49476 0.50513 0.0
H367 H 0.65492 0.55432 0.15816 0.0
H368 H 0.67381 0.47844 0.33711 0.0
H369 H 0.68508 0.57064 0.38117 0.0
C370 C 0.7078 0.55952 0.47171 0.0
C371 C 0.71991 0.53846 0.50783 0.0
C372 C 0.66973 0.49499 0.29747 0.0
C373 C 0.69217 0.52689 0.38024 0.0
C374 C 0.65572 0.49072 0.23296 0.0
C375 C 0.6502 0.51192 0.18059 0.0
C376 C 0.67786 0.5208 0.31092 0.0
C377 C 0.65897 0.53724 0.19574 0.0
C378 C 0.69412 0.55389 0.40803 0.0
C379 C 0.71751 0.51163 0.47889 0.0
N380 N 0.67216 0.54097 0.25947 0.0
N381 N 0.70384 0.50658 0.41689 0.0
H382 H 0.03409 0.66683 0.33457 0.0
H383 H 1.00133 0.52695 0.13114 0.0
H384 H 0.97024 0.62898 0.44094 0.0
H385 H 0.0316 0.58836 0.96661 0.0
H386 H 0.99742 0.55911 0.25794 0.0
H387 H 0.04111 0.63293 0.21103 0.0
C388 C 1.02168 0.65128 0.33243 0.0
C389 C 1.00137 0.65086 0.39759 0.0
C390 C 1.00502 0.56544 0.19404 0.0
C391 C 1.00965 0.61182 0.25808 0.0
C392 C 1.00732 0.54712 0.1218 0.0
C393 C 1.01666 0.55507 0.03815 0.0
C394 C 1.01269 0.59166 0.18301 0.0
C395 C 0.02409 0.58151 0.02986 0.0
C396 C 0.02567 0.63204 0.26189 0.0
C397 C 0.98602 0.63009 0.39178 0.0
N398 N 0.0221 0.59883 0.10146 0.0
N399 N 0.99051 0.61134 0.32353 0.0
H400 H 0.04138 0.26732 0.33944 0.0
H401 H 0.07421 0.11366 0.3779 0.0
H402 H 0.1011 0.22136 0.17881 0.0
H403 H 1.01442 0.16011 0.53743 0.0
H404 H 0.09208 0.15577 0.33829 0.0
H405 H 0.04076 0.2333 0.44791 0.0
C406 C 0.05512 0.25071 0.32876 0.0
C407 C 0.07073 0.2465 0.24862 0.0
C408 C 0.07524 0.15679 0.38312 0.0
C409 C 0.06944 0.20698 0.37043 0.0
C410 C 0.06498 0.13271 0.40565 0.0
C411 C 0.04242 0.13341 0.45897 0.0
C412 C 0.0627 0.18176 0.41304 0.0
C413 C 0.0314 0.15868 0.49337 0.0
C414 C 0.05455 0.23103 0.39034 0.0
C415 C 0.08826 0.22478 0.23876 0.0
N416 N 0.04144 0.18188 0.46858 0.0
N417 N 0.08664 0.20525 0.2976 0.0
H418 H 0.30507 0.0346 0.46675 0.0
H419 H 0.40143 0.92505 0.57924 0.0
H420 H 0.31058 0.95037 0.37874 0.0
H421 H 0.40411 0.0122 0.60031 0.0
H422 H 0.36039 0.93168 0.55247 0.0
H423 H 0.33196 0.02362 0.56893 0.0
C424 C 0.31124 0.01362 0.47185 0.0
C425 C 0.30598 0.99331 0.41473 0.0
C426 C 0.36991 0.94925 0.56492 0.0
C427 C 0.3373 0.98077 0.52738 0.0
C428 C 0.3934 0.94552 0.57908 0.0
C429 C 0.40648 0.96807 0.59054 0.0
C430 C 0.35949 0.97569 0.56253 0.0
C431 C 0.39486 0.99411 0.59237 0.0
C432 C 0.32671 0.00735 0.52931 0.0
C433 C 0.31446 0.96646 0.42223 0.0
N434 N 0.37217 0.99716 0.57754 0.0
N435 N 0.33024 0.96098 0.47626 0.0
H436 H 0.48152 0.34682 0.44771 0.0
H437 H 0.53321 0.46137 0.53726 0.0
H438 H 0.54927 0.30577 0.46912 0.0
H439 H 0.56311 0.41661 0.73003 0.0
H440 H 0.52187 0.41905 0.47659 0.0
H441 H 0.49206 0.38665 0.52677 0.0
C442 C 0.49841 0.34605 0.47079 0.0
C443 C 0.51475 0.32328 0.45072 0.0
C444 C 0.53087 0.41853 0.53231 0.0
C445 C 0.5271 0.36878 0.53885 0.0
C446 C 0.53759 0.44261 0.56642 0.0
C447 C 0.54871 0.44259 0.63983 0.0
C448 C 0.53549 0.39414 0.57124 0.0
C449 C 0.5544 0.41753 0.67369 0.0
C450 C 0.5045 0.36879 0.51489 0.0
C451 C 0.53627 0.32307 0.48312 0.0
N452 N 0.54764 0.39414 0.6391 0.0
N453 N 0.54203 0.34576 0.52492 0.0
H454 H 0.20471 0.46941 0.33144 0.0
H455 H 0.15349 0.60891 0.52657 0.0
H456 H 0.24063 0.54069 0.25342 0.0
H457 H 0.14303 0.53678 0.6709 0.0
H458 H 0.18995 0.58625 0.44057 0.0
H459 H 0.18579 0.49379 0.46804 0.0
C460 C 0.2089 0.49008 0.34424 0.0
C461 C 0.22388 0.5033 0.2815 0.0
C462 C 0.18013 0.57575 0.49321 0.0
C463 C 0.20211 0.53149 0.43589 0.0
C464 C 0.15933 0.5887 0.54231 0.0
C465 C 0.14486 0.57447 0.60421 0.0
C466 C 0.18605 0.54829 0.50527 0.0
C467 C 0.15344 0.54848 0.62307 0.0
C468 C 0.19827 0.50397 0.42221 0.0
C469 C 0.22899 0.52999 0.30058 0.0
N470 N 0.17309 0.53589 0.57186 0.0
N471 N 0.21763 0.54352 0.37541 0.0
H472 H 0.04472 0.74248 0.23837 0.0
H473 H 1.00663 0.87168 0.99855 0.0
H474 H 0.97295 0.77901 0.26391 0.0
H475 H 0.07587 0.85372 0.06806 0.0
H476 H 0.9961 0.82597 0.03579 0.0
H477 H 0.057 0.77029 0.11445 0.0
C478 C 0.03132 0.75536 0.2149 0.0
C479 C 1.00792 0.75894 0.26157 0.0
C480 C 1.01379 0.83187 0.04076 0.0
C481 C 0.02181 0.7909 0.12216 0.0
C482 C 1.01974 0.858 0.02055 0.0
C483 C 0.04182 0.86683 0.0336 0.0
C484 C 0.03007 0.81449 0.07398 0.0
C485 C 0.0585 0.84793 0.0585 0.0
C486 C 0.03837 0.77138 0.14489 0.0
C487 C 0.99121 0.77601 0.22965 0.0
N488 N 0.05209 0.82277 0.07964 0.0
N489 N 0.9986 0.79186 0.16279 0.0
H490 H 0.71694 0.0899 0.34289 0.0
H491 H 0.64841 0.05996 0.95883 0.0
H492 H 0.74338 0.03305 0.12513 0.0
H493 H 0.62251 0.11844 0.17321 0.0
H494 H 0.68812 0.05975 0.99594 0.0
H495 H 0.68821 0.11031 0.26044 0.0
C496 C 0.71715 0.08229 0.27659 0.0
C497 C 0.73215 0.05945 0.24127 0.0
C498 C 0.6739 0.07309 0.03385 0.0
C499 C 0.69902 0.08214 0.14746 0.0
C500 C 0.65116 0.07338 0.01229 0.0
C501 C 0.63189 0.08879 0.06428 0.0
C502 C 0.67737 0.08802 0.10863 0.0
C503 C 0.63667 0.10561 0.13298 0.0
C504 C 0.7007 0.09385 0.2296 0.0
C505 C 0.73197 0.05052 0.15492 0.0
N506 N 0.65881 0.10435 0.15426 0.0
N507 N 0.7152 0.06145 0.11167 0.0
H508 H 0.53867 0.69114 0.08314 0.0
H509 H 0.4598 0.56962 0.9895 0.0
H510 H 0.47436 0.67788 0.26193 0.0
H511 H 0.53674 0.56407 0.94836 0.0
H512 H 0.45953 0.61627 0.05408 0.0
H513 H 0.53174 0.65208 0.99142 0.0
C514 C 0.52267 0.68056 0.10144 0.0
C515 C 0.50717 0.68744 0.18037 0.0
C516 C 0.47637 0.60468 0.03046 0.0
C517 C 0.49932 0.64288 0.07678 0.0
C518 C 0.47653 0.57821 0.99444 0.0
C519 C 0.4983 0.56291 0.96646 0.0
C520 C 0.49816 0.61592 0.03463 0.0
C521 C 0.51958 0.57495 0.97196 0.0
C522 C 0.51885 0.6582 0.04966 0.0
C523 C 0.48681 0.67291 0.20176 0.0
N524 N 0.51898 0.60077 0.00505 0.0
N525 N 0.48356 0.65101 0.15066 0.0
H526 H 0.83891 0.55281 0.31351 0.0
H527 H 0.87638 0.41869 0.06389 0.0
H528 H 0.7908 0.48889 0.3264 0.0
H529 H 0.90393 0.49273 0.96732 0.0
H530 H 0.84056 0.44501 0.14148 0.0
H531 H 0.8585 0.53442 0.16915 0.0
C532 C 0.83201 0.53543 0.28445 0.0
C533 C 0.81362 0.52197 0.33215 0.0
C534 C 0.85403 0.45543 0.10062 0.0
C535 C 0.83622 0.50036 0.16901 0.0
C536 C 0.87444 0.44037 0.05652 0.0
C537 C 0.89308 0.45365 0.0098 0.0
C538 C 0.8528 0.48393 0.10011 0.0
C539 C 0.88983 0.48177 1.00223 0.0
C540 C 0.84313 0.52491 0.20208 0.0
C541 C 0.80512 0.49967 0.29178 0.0
N542 N 0.87039 0.49613 0.04902 0.0
N543 N 0.81698 0.48901 0.21346 0.0
H544 H 1.0064 0.22279 0.08256 0.0
H545 H 0.04471 0.10129 0.72072 0.0
H546 H 0.06898 0.2246 0.8847 0.0
H547 H 1.01181 0.08959 0.98584 0.0
H548 H 0.04634 0.14973 0.75965 0.0
H549 H 0.99973 0.17767 0.02403 0.0
C550 C 1.01811 0.21415 0.02428 0.0
C551 C 0.03796 0.22763 0.98713 0.0
C552 C 0.03872 0.13651 0.80902 0.0
C553 C 0.0309 0.17574 0.9215 0.0
C554 C 0.03778 0.10889 0.78704 0.0
C555 C 0.02831 0.09126 0.85043 0.0
C556 C 0.02955 0.14675 0.89439 0.0
C557 C 1.01951 0.10231 0.93516 0.0
C558 C 1.01456 0.18824 0.99194 0.0
C559 C 0.05317 0.21511 0.91378 0.0
N560 N 1.02022 0.12933 0.9545 0.0
N561 N 0.04939 0.18977 0.88344 0.0
H562 H 0.33427 0.0577 0.16841 0.0
H563 H 0.44406 0.97521 0.8521 0.0
H564 H 0.3293 0.97915 0.04642 0.0
H565 H 0.45013 0.05047 0.99388 0.0
H566 H 0.40103 0.97914 0.9062 0.0
H567 H 0.37483 0.05886 0.08576 0.0
C568 C 0.34138 0.04119 0.12126 0.0
C569 C 0.32813 0.01857 0.11288 0.0
C570 C 0.41172 0.99486 0.92532 0.0
C571 C 0.3752 0.01908 0.02073 0.0
C572 C 0.43641 0.99263 0.89454 0.0
C573 C 0.45102 0.01243 0.91888 0.0
C574 C 0.40127 0.01709 0.9812 0.0
C575 C 0.43979 0.03458 0.97365 0.0
C576 C 0.36473 0.04162 0.07517 0.0
C577 C 0.33861 0.99727 0.05326 0.0
N578 N 0.41571 0.03622 0.0031 0.0
N579 N 0.36156 0.9979 0.01033 0.0
H580 H 0.46745 0.32021 0.18301 0.0
H581 H 0.5543 0.4158 0.91507 0.0
H582 H 0.54249 0.29836 0.09915 0.0
H583 H 0.47809 0.42572 0.92547 0.0
H584 H 0.54985 0.37142 0.97597 0.0
H585 H 0.46982 0.35613 0.07879 0.0
C586 C 0.48417 0.32213 0.1394 0.0
C587 C 0.50474 0.30606 0.14868 0.0
C588 C 0.53408 0.38314 0.96435 0.0
C589 C 0.50795 0.34808 0.03297 0.0
C590 C 0.53658 0.40868 0.93031 0.0
C591 C 0.51649 0.42477 0.91626 0.0
C592 C 0.51126 0.37363 0.98621 0.0
C593 C 0.49405 0.41412 0.93579 0.0
C594 C 0.48562 0.34292 0.08089 0.0
C595 C 0.52615 0.30999 0.09286 0.0
N596 N 0.492 0.38941 0.97095 0.0
N597 N 0.52733 0.33097 0.03883 0.0
H598 H 0.2154 0.49815 0.90709 0.0
H599 H 0.08421 0.4457 0.92614 0.0
H600 H 0.18555 0.44066 0.08741 0.0
H601 H 0.10737 0.51669 0.7935 0.0
H602 H 0.12393 0.43795 0.96418 0.0
H603 H 0.17899 0.49903 0.84212 0.0
C604 C 0.20149 0.4851 0.93119 0.0
C605 C 0.20354 0.4692 1.00244 0.0
C606 C 0.12037 0.45512 0.92622 0.0
C607 C 0.16165 0.47045 0.92972 0.0
C608 C 0.09766 0.45954 0.90424 0.0
C609 C 0.09222 0.48204 0.85705 0.0
C610 C 0.138 0.47317 0.90044 0.0
C611 C 0.11056 0.49921 0.83059 0.0
C612 C 0.18059 0.48585 0.89488 0.0
C613 C 0.18472 0.45312 0.03238 0.0
N614 N 0.13252 0.49448 0.85283 0.0
N615 N 0.16458 0.45426 0.99633 0.0
H616 H 0.96524 0.80824 0.54022 0.0
H617 H 0.04144 0.90993 0.77334 0.0
H618 H 0.03355 0.78347 0.60572 0.0
H619 H 0.98026 0.93485 0.6588 0.0
H620 H 0.03582 0.86248 0.73545 0.0
H621 H 0.96692 0.853 0.61029 0.0
C622 C 0.98034 0.81206 0.57153 0.0
C623 C 0.99929 0.79212 0.56716 0.0
C624 C 0.0236 0.87835 0.71893 0.0
C625 C 1.00169 0.84373 0.64571 0.0
C626 C 0.0268 0.9055 0.74039 0.0
C627 C 1.01147 0.9266 0.71831 0.0
C628 C 1.00482 0.87213 0.67565 0.0
C629 C 0.99269 0.91943 0.67642 0.0
C630 C 0.98141 0.83772 0.61077 0.0
C631 C 1.01849 0.7982 0.6083 0.0
N632 N 0.98997 0.8929 0.65636 0.0
N633 N 1.01936 0.8236 0.64492 0.0
H634 H 0.71303 0.96779 0.41251 0.0
H635 H 0.61106 0.02197 0.8166 0.0
H636 H 0.71977 0.03631 0.58345 0.0
H637 H 0.5987 0.97019 0.6018 0.0
H638 H 0.65343 0.02055 0.75059 0.0
H639 H 0.6743 0.96069 0.50213 0.0
C640 C 0.70684 0.98056 0.47128 0.0
C641 C 0.71987 1.0023 0.49166 0.0
C642 C 0.64147 0.00933 0.7183 0.0
C643 C 0.67509 0.99505 0.59277 0.0
C644 C 0.61724 0.01008 0.75603 0.0
C645 C 0.60111 0.99632 0.71456 0.0
C646 C 0.64985 0.99444 0.63888 0.0
C647 C 0.61032 0.98132 0.63595 0.0
C648 C 0.68453 0.97684 0.52153 0.0
C649 C 0.71054 0.01895 0.56663 0.0
N650 N 0.63397 0.98082 0.60078 0.0
N651 N 0.68868 0.01513 0.61399 0.0
H652 H 0.49384 0.70401 0.5309 0.0
H653 H 0.57114 0.57612 0.66311 0.0
H654 H 0.56783 0.68486 0.41909 0.0
H655 H 0.49454 0.59014 0.73082 0.0
H656 H 0.57269 0.62082 0.59926 0.0
H657 H 0.49662 0.66848 0.63405 0.0
C658 C 0.51095 0.69303 0.53072 0.0
C659 C 0.53072 0.69756 0.46753 0.0
C660 C 0.5556 0.61415 0.62893 0.0
C661 C 0.53383 0.65589 0.58215 0.0
C662 C 0.55471 0.58867 0.66534 0.0
C663 C 0.53264 0.57914 0.70083 0.0
C664 C 0.53429 0.63031 0.62927 0.0
C665 C 0.51192 0.59635 0.70248 0.0
C666 C 0.51247 0.67244 0.58859 0.0
C667 C 0.55232 0.68223 0.46804 0.0
N668 N 0.51326 0.62092 0.66693 0.0
N669 N 0.55323 0.66175 0.5235 0.0
H670 H 0.85846 0.48683 0.52384 0.0
H671 H 0.93161 0.52705 0.89601 0.0
H672 H 0.82754 0.54807 0.7237 0.0
H673 H 0.96367 0.50527 0.62904 0.0
H674 H 0.89172 0.52758 0.85343 0.0
H675 H 0.89515 0.48448 0.58414 0.0
C676 C 0.8593 0.49968 0.58103 0.0
C677 C 0.83999 0.51818 0.61735 0.0
C678 C 0.90756 0.52276 0.80451 0.0
C679 C 0.88223 0.51527 0.68772 0.0
C680 C 0.93025 0.52241 0.82865 0.0
C681 C 0.95098 0.51634 0.76579 0.0
C682 C 0.90568 0.5161 0.71756 0.0
C683 C 0.94823 0.51042 0.67948 0.0
C684 C 0.88032 0.49833 0.61533 0.0
C685 C 0.84201 0.53367 0.69318 0.0
N686 N 0.9261 0.5102 0.65825 0.0
N687 N 0.86287 0.53206 0.72558 0.0
loop_
_geom_bond_atom_site_label_1
_geom_bond_atom_site_label_2
_geom_bond_distance
_geom_bond_site_symmetry_2
_ccdc_geom_bond_type
H0 C5 0.930 . S
H1 C8 0.930 . S
H2 C10 0.930 . S
H3 C4 1.016 . S
C4 H3 1.016 . S
C4 N11 1.286 . S
C5 H0 0.930 . S
C5 C6 1.397 . S
C5 C7 1.361 . S
C6 C5 1.397 . S
C6 C10 1.390 . S
C7 C5 1.361 . S
C7 C8 1.393 . S
C7 N11 1.413 . S
C8 H1 0.930 . S
C8 C7 1.393 . S
C8 C9 1.399 . S
C9 C8 1.399 . S
C9 C10 1.381 . S
C10 H2 0.930 . S
C10 C6 1.390 . S
C10 C9 1.381 . S
N11 C4 1.286 . S
N11 C7 1.413 . S
H12 C17 0.922 1_455 S
H13 C20 0.927 . S
H14 C22 0.930 . S
H15 C16 1.016 . S
C16 H15 1.016 . S
C16 N23 1.286 1_655 S
C17 H12 0.922 1_655 S
C17 C18 1.400 . S
C17 C19 1.369 1_655 S
C18 C17 1.400 . S
C18 C22 1.390 . S
C19 C17 1.369 1_455 S
C19 C20 1.392 1_455 S
C19 N23 1.413 . S
C20 H13 0.927 . S
C20 C19 1.392 1_655 S
C20 C21 1.399 . S
C21 C20 1.399 . S
C21 C22 1.381 . S
C22 H14 0.930 . S
C22 C18 1.390 . S
C22 C21 1.381 . S
N23 C16 1.286 1_455 S
N23 C19 1.413 . S
H24 C29 0.930 . S
H25 C32 0.930 . S
H26 C34 0.930 . S
H27 C28 1.029 . S
C28 H27 1.029 . S
C28 N35 1.271 1_565 S
C29 H24 0.930 . S
C29 C30 1.397 . S
C29 C31 1.361 . S
C30 C29 1.397 . S
C30 C34 1.390 1_545 S
C31 C29 1.361 . S
C31 C32 1.393 . S
C31 N35 1.413 . S
C32 H25 0.930 . S
C32 C31 1.393 . S
C32 C33 1.404 . S
C33 C32 1.404 . S
C33 C34 1.377 1_545 S
C34 H26 0.930 . S
C34 C30 1.390 1_565 S
C34 C33 1.377 1_565 S
N35 C28 1.271 1_545 S
N35 C31 1.413 . S
H36 C41 0.930 . S
H37 C44 0.930 . S
H38 C46 0.930 . S
H39 C40 1.016 . S
C40 H39 1.016 . S
C40 N47 1.286 . S
C41 H36 0.930 . S
C41 C42 1.397 . S
C41 C43 1.361 . S
C42 C41 1.397 . S
C42 C46 1.390 . S
C43 C41 1.361 . S
C43 C44 1.393 . S
C43 N47 1.413 . S
C44 H37 0.930 . S
C44 C43 1.393 . S
C44 C45 1.399 . S
C45 C44 1.399 . S
C45 C46 1.381 . S
C46 H38 0.930 . S
C46 C42 1.390 . S
C46 C45 1.381 . S
N47 C40 1.286 . S
N47 C43 1.413 . S
H48 C53 0.930 . S
H49 C56 0.930 . S
H50 C58 0.930 . S
H51 C52 1.016 . S
C52 H51 1.016 . S
C52 N59 1.286 1_554 S
C53 H48 0.930 . S
C53 C54 1.397 . S
C53 C55 1.361 . S
C54 C53 1.397 . S
C54 C58 1.390 . S
C55 C53 1.361 . S
C55 C56 1.393 1_556 S
C55 N59 1.413 . S
C56 H49 0.930 . S
C56 C55 1.393 1_554 S
C56 C57 1.399 . S
C57 C56 1.399 . S
C57 C58 1.381 1_554 S
C58 H50 0.930 . S
C58 C54 1.390 . S
C58 C57 1.381 1_556 S
N59 C52 1.286 1_556 S
N59 C55 1.413 . S
H60 C65 0.930 1_556 S
H61 C68 0.930 . S
H62 C70 0.930 . S
H63 C64 1.016 . S
C64 H63 1.016 . S
C64 N71 1.286 . S
C65 H60 0.930 1_554 S
C65 C66 1.397 . S
C65 C67 1.361 . S
C66 C65 1.397 . S
C66 C70 1.390 . S
C67 C65 1.361 . S
C67 C68 1.393 . S
C67 N71 1.413 . S
C68 H61 0.930 . S
C68 C67 1.393 . S
C68 C69 1.399 . S
C69 C68 1.399 . S
C69 C70 1.381 . S
C70 H62 0.930 . S
C70 C66 1.390 . S
C70 C69 1.381 . S
N71 C64 1.286 . S
N71 C67 1.413 . S
H72 C77 0.930 . S
H73 C80 0.930 . S
H74 C82 0.930 . S
H75 C76 1.027 . S
C76 H75 1.027 . S
C76 N83 1.270 1_565 S
C77 H72 0.930 . S
C77 C78 1.397 . S
C77 C79 1.361 . S
C78 C77 1.397 . S
C78 C82 1.390 1_545 S
C79 C77 1.361 . S
C79 C80 1.393 . S
C79 N83 1.413 . S
C80 H73 0.930 . S
C80 C79 1.393 . S
C80 C81 1.402 . S
C81 C80 1.402 . S
C81 C82 1.380 1_545 S
C82 H74 0.930 . S
C82 C78 1.390 1_565 S
C82 C81 1.380 1_565 S
N83 C76 1.270 1_545 S
N83 C79 1.413 . S
H84 C89 0.930 . S
H85 C92 0.930 . S
H86 C94 0.930 . S
H87 C88 1.016 . S
C88 H87 1.016 . S
C88 N95 1.286 . S
C89 H84 0.930 . S
C89 C90 1.397 . S
C89 C91 1.361 . S
C90 C89 1.397 . S
C90 C94 1.390 . S
C91 C89 1.361 . S
C91 C92 1.393 . S
C91 N95 1.413 . S
C92 H85 0.930 . S
C92 C91 1.393 . S
C92 C93 1.399 . S
C93 C92 1.399 . S
C93 C94 1.381 . S
C94 H86 0.930 . S
C94 C90 1.390 . S
C94 C93 1.381 . S
N95 C88 1.286 . S
N95 C91 1.413 . S
Dy96 O99 2.307 1_545 S
Dy96 O101 2.395 1_655 S
Dy96 O102 2.379 . S
Dy96 O104 2.339 . S
Dy96 O106 2.298 . S
Dy96 O110 2.275 1_655 S
Dy96 C118 2.738 . S
Dy97 O100 2.298 . S
Dy97 O103 2.275 1_455 S
Dy97 O105 2.307 1_565 S
Dy97 O107 2.395 1_455 S
Dy97 O108 2.379 . S
Dy97 O111 2.339 . S
Dy97 C127 2.738 . S
C98 O110 1.254 1_565 S
C98 O111 1.257 . S
O99 Dy96 2.307 1_565 S
O99 C109 1.266 . S
O100 Dy97 2.298 . S
O100 C109 1.236 1_455 S
O101 Dy96 2.395 1_455 S
O101 C118 1.255 1_455 S
O102 Dy96 2.379 . S
O102 C118 1.249 . S
O103 Dy97 2.275 1_655 S
O103 C119 1.254 1_565 S
O104 Dy96 2.339 . S
O104 C119 1.257 . S
O105 Dy97 2.307 1_545 S
O105 C120 1.266 . S
O106 Dy96 2.298 . S
O106 C120 1.236 1_655 S
O107 Dy97 2.395 1_655 S
O107 C127 1.255 1_655 S
O108 Dy97 2.379 . S
O108 C127 1.249 . S
C109 O99 1.266 . S
C109 O100 1.236 1_655 S
O110 Dy96 2.275 1_455 S
O110 C98 1.254 1_545 S
O111 Dy97 2.339 . S
O111 C98 1.257 . S
C112 C115 1.344 1_655 S
C112 C116 1.328 . S
C112 C118 1.516 . S
C113 C114 1.304 1_655 S
C113 C117 1.323 . S
C114 C113 1.304 1_455 S
C114 C115 1.371 . S
C114 H128 0.930 . S
C115 C112 1.344 1_455 S
C115 C114 1.371 . S
C115 H129 0.931 . S
C116 C112 1.328 . S
C116 C117 1.433 . S
C116 H130 0.931 . S
C117 C113 1.323 . S
C117 C116 1.433 . S
C117 H131 0.933 . S
C118 Dy96 2.738 . S
C118 O101 1.255 1_655 S
C118 O102 1.249 . S
C118 C112 1.516 . S
C119 O103 1.254 1_545 S
C119 O104 1.257 . S
C120 O105 1.266 . S
C120 O106 1.236 1_455 S
C121 C124 1.344 1_455 S
C121 C125 1.328 . S
C121 C127 1.516 1_554 S
C122 C123 1.304 1_455 S
C122 C126 1.323 . S
C123 C122 1.304 1_655 S
C123 C124 1.371 . S
C123 H132 0.930 . S
C124 C121 1.344 1_655 S
C124 C123 1.371 . S
C124 H133 0.931 . S
C125 C121 1.328 . S
C125 C126 1.433 . S
C125 H134 0.931 . S
C126 C122 1.323 . S
C126 C125 1.433 . S
C126 H135 0.933 . S
C127 Dy97 2.738 . S
C127 O107 1.255 1_455 S
C127 O108 1.249 . S
C127 C121 1.516 1_556 S
H128 C114 0.930 . S
H129 C115 0.931 . S
H130 C116 0.931 . S
H131 C117 0.933 . S
H132 C123 0.930 . S
H133 C124 0.931 . S
H134 C125 0.931 . S
H135 C126 0.933 . S
Dy136 O139 2.307 . S
Dy136 O141 2.395 1_565 S
Dy136 O142 2.379 . S
Dy136 O144 2.339 . S
Dy136 O146 2.298 . S
Dy136 O150 2.275 1_565 S
Dy136 C158 2.738 . S
Dy137 O140 2.298 . S
Dy137 O143 2.275 1_545 S
Dy137 O145 2.307 . S
Dy137 O147 2.395 1_545 S
Dy137 O148 2.379 . S
Dy137 O151 2.339 . S
Dy137 C167 2.738 . S
C138 O150 1.254 . S
C138 O151 1.257 . S
O139 Dy136 2.307 . S
O139 C149 1.266 . S
O140 Dy137 2.298 . S
O140 C149 1.236 1_545 S
O141 Dy136 2.395 1_545 S
O141 C158 1.255 1_545 S
O142 Dy136 2.379 . S
O142 C158 1.249 . S
O143 Dy137 2.275 1_565 S
O143 C159 1.254 . S
O144 Dy136 2.339 . S
O144 C159 1.257 . S
O145 Dy137 2.307 . S
O145 C160 1.266 . S
O146 Dy136 2.298 . S
O146 C160 1.236 1_565 S
O147 Dy137 2.395 1_565 S
O147 C167 1.255 1_565 S
O148 Dy137 2.379 . S
O148 C167 1.249 . S
C149 O139 1.266 . S
C149 O140 1.236 1_565 S
O150 Dy136 2.275 1_545 S
O150 C138 1.254 . S
O151 Dy137 2.339 . S
O151 C138 1.257 . S
C152 C155 1.344 1_565 S
C152 C156 1.328 . S
C152 C158 1.516 . S
C153 C154 1.304 1_565 S
C153 C157 1.323 . S
C154 C153 1.304 1_545 S
C154 C155 1.371 . S
C154 H168 0.930 . S
C155 C152 1.344 1_545 S
C155 C154 1.371 . S
C155 H169 0.931 . S
C156 C152 1.328 . S
C156 C157 1.433 . S
C156 H170 0.931 . S
C157 C153 1.323 . S
C157 C156 1.433 . S
C157 H171 0.933 . S
C158 Dy136 2.738 . S
C158 O141 1.255 1_565 S
C158 O142 1.249 . S
C158 C152 1.516 . S
C159 O143 1.254 . S
C159 O144 1.257 . S
C160 O145 1.266 . S
C160 O146 1.236 1_545 S
C161 C164 1.344 1_545 S
C161 C165 1.328 . S
C161 C167 1.516 1_554 S
C162 C163 1.304 1_545 S
C162 C166 1.323 . S
C163 C162 1.304 1_565 S
C163 C164 1.371 . S
C163 H172 0.930 . S
C164 C161 1.344 1_565 S
C164 C163 1.371 . S
C164 H173 0.931 1_554 S
C165 C161 1.328 . S
C165 C166 1.433 . S
C165 H174 0.931 . S
C166 C162 1.323 . S
C166 C165 1.433 . S
C166 H175 0.933 . S
C167 Dy137 2.738 . S
C167 O147 1.255 1_545 S
C167 O148 1.249 . S
C167 C161 1.516 1_556 S
H168 C154 0.930 . S
H169 C155 0.931 . S
H170 C156 0.931 . S
H171 C157 0.933 . S
H172 C163 0.930 . S
H173 C164 0.931 1_556 S
H174 C165 0.931 . S
H175 C166 0.933 . S
Dy176 O179 2.307 . S
Dy176 O181 2.395 . S
Dy176 O182 2.379 . S
Dy176 O184 2.339 . S
Dy176 O186 2.298 . S
Dy176 O190 2.275 . S
Dy176 C198 2.738 . S
Dy177 O180 2.298 . S
Dy177 O183 2.275 . S
Dy177 O185 2.307 . S
Dy177 O187 2.395 . S
Dy177 O188 2.379 . S
Dy177 O191 2.339 . S
Dy177 C207 2.738 . S
C178 O190 1.254 . S
C178 O191 1.257 . S
O179 Dy176 2.307 . S
O179 C189 1.266 . S
O180 Dy177 2.298 . S
O180 C189 1.236 . S
O181 Dy176 2.395 . S
O181 C198 1.255 . S
O182 Dy176 2.379 . S
O182 C198 1.249 . S
O183 Dy177 2.275 . S
O183 C199 1.254 . S
O184 Dy176 2.339 . S
O184 C199 1.257 . S
O185 Dy177 2.307 . S
O185 C200 1.266 . S
O186 Dy176 2.298 . S
O186 C200 1.236 . S
O187 Dy177 2.395 . S
O187 C207 1.255 . S
O188 Dy177 2.379 . S
O188 C207 1.249 . S
C189 O179 1.266 . S
C189 O180 1.236 . S
O190 Dy176 2.275 . S
O190 C178 1.254 . S
O191 Dy177 2.339 . S
O191 C178 1.257 . S
C192 C195 1.344 1_556 S
C192 C196 1.328 . S
C192 C198 1.516 . S
C193 C194 1.304 . S
C193 C197 1.323 1_554 S
C194 C193 1.304 . S
C194 C195 1.371 . S
C194 H208 0.930 . S
C195 C192 1.344 1_554 S
C195 C194 1.371 . S
C195 H209 0.931 . S
C196 C192 1.328 . S
C196 C197 1.433 . S
C196 H210 0.931 . S
C197 C193 1.323 1_556 S
C197 C196 1.433 . S
C197 H211 0.933 . S
C198 Dy176 2.738 . S
C198 O181 1.255 . S
C198 O182 1.249 . S
C198 C192 1.516 . S
C199 O183 1.254 . S
C199 O184 1.257 . S
C200 O185 1.266 . S
C200 O186 1.236 . S
C201 C204 1.344 . S
C201 C205 1.328 . S
C201 C207 1.516 . S
C202 C203 1.304 . S
C202 C206 1.323 . S
C203 C202 1.304 . S
C203 C204 1.371 . S
C203 H212 0.930 . S
C204 C201 1.344 . S
C204 C203 1.371 . S
C204 H213 0.931 . S
C205 C201 1.328 . S
C205 C206 1.433 . S
C205 H214 0.931 . S
C206 C202 1.323 . S
C206 C205 1.433 . S
C206 H215 0.933 . S
C207 Dy177 2.738 . S
C207 O187 1.255 . S
C207 O188 1.249 . S
C207 C201 1.516 . S
H208 C194 0.930 . S
H209 C195 0.931 . S
H210 C196 0.931 . S
H211 C197 0.933 . S
H212 C203 0.930 . S
H213 C204 0.931 . S
H214 C205 0.931 . S
H215 C206 0.933 . S
Dy216 O219 2.307 1_455 S
Dy216 O221 2.395 . S
Dy216 O222 2.379 . S
Dy216 O224 2.339 . S
Dy216 O226 2.298 . S
Dy216 O230 2.275 . S
Dy216 C238 2.738 . S
Dy217 O220 2.298 . S
Dy217 O223 2.275 . S
Dy217 O225 2.307 1_655 S
Dy217 O227 2.395 1_556 S
Dy217 O228 2.379 . S
Dy217 O231 2.339 . S
Dy217 C247 2.738 1_556 S
C218 O230 1.262 . S
C218 O231 1.247 1_455 S
O219 Dy216 2.307 1_655 S
O219 C229 1.266 . S
O220 Dy217 2.298 . S
O220 C229 1.236 . S
O221 Dy216 2.395 . S
O221 C238 1.255 . S
O222 Dy216 2.379 . S
O222 C238 1.249 . S
O223 Dy217 2.275 . S
O223 C239 1.254 1_655 S
O224 Dy216 2.339 . S
O224 C239 1.257 . S
O225 Dy217 2.307 1_455 S
O225 C240 1.266 . S
O226 Dy216 2.298 . S
O226 C240 1.236 . S
O227 Dy217 2.395 1_554 S
O227 C247 1.255 . S
O228 Dy217 2.379 . S
O228 C247 1.249 1_556 S
C229 O219 1.266 . S
C229 O220 1.236 . S
O230 Dy216 2.275 . S
O230 C218 1.262 . S
O231 Dy217 2.339 . S
O231 C218 1.247 1_655 S
C232 C235 1.344 . S
C232 C236 1.328 . S
C232 C238 1.516 . S
C233 C234 1.304 . S
C233 C237 1.323 . S
C234 C233 1.304 . S
C234 C235 1.371 . S
C234 H248 0.930 . S
C235 C232 1.344 . S
C235 C234 1.371 . S
C235 H249 0.931 . S
C236 C232 1.328 . S
C236 C237 1.433 . S
C236 H250 0.931 . S
C237 C233 1.323 . S
C237 C236 1.433 . S
C237 H251 0.933 . S
C238 Dy216 2.738 . S
C238 O221 1.255 . S
C238 O222 1.249 . S
C238 C232 1.516 . S
C239 O223 1.254 1_455 S
C239 O224 1.257 . S
C240 O225 1.266 . S
C240 O226 1.236 . S
C241 C244 1.344 . S
C241 C245 1.328 . S
C241 C247 1.516 . S
C242 C243 1.304 . S
C242 C246 1.323 . S
C243 C242 1.304 . S
C243 C244 1.371 . S
C243 H252 0.930 . S
C244 C241 1.344 . S
C244 C243 1.371 . S
C244 H253 0.931 . S
C245 C241 1.328 . S
C245 C246 1.433 . S
C245 H254 0.931 . S
C246 C242 1.323 . S
C246 C245 1.433 . S
C246 H255 0.933 . S
C247 Dy217 2.738 1_554 S
C247 O227 1.255 . S
C247 O228 1.249 1_554 S
C247 C241 1.516 . S
H248 C234 0.930 . S
H249 C235 0.931 . S
H250 C236 0.931 . S
H251 C237 0.933 . S
H252 C243 0.930 . S
H253 C244 0.931 . S
H254 C245 0.931 . S
H255 C246 0.933 . S
H256 C262 0.930 . S
H257 C266 0.930 . S
H258 C271 0.929 . S
H259 C269 0.929 . S
H260 C264 0.929 . S
H261 C270 0.929 . S
C262 H256 0.930 . S
C262 C263 1.388 . S
C262 C270 1.378 . S
C263 C262 1.388 . S
C263 C271 1.410 1_545 S
C264 H260 0.929 . S
C264 C266 1.378 . S
C264 C268 1.353 1_565 S
C265 C268 1.462 . S
C265 C270 1.350 . S
C265 N273 1.427 1_545 S
C266 H257 0.930 . S
C266 C264 1.378 . S
C266 C267 1.351 1_565 S
C267 C266 1.351 1_545 S
C267 C269 1.451 . S
C268 C264 1.353 1_545 S
C268 C265 1.462 . S
C268 N272 1.425 . S
C269 H259 0.929 . S
C269 C267 1.451 . S
C269 N272 1.384 . S
C270 H261 0.929 . S
C270 C262 1.378 . S
C270 C265 1.350 . S
C271 H258 0.929 . S
C271 C263 1.410 1_565 S
C271 N273 1.384 . S
N272 C268 1.425 . S
N272 C269 1.384 . S
N273 C265 1.427 1_565 S
N273 C271 1.384 . S
H274 C280 0.930 . S
H275 C284 0.930 . S
H276 C289 0.929 . S
H277 C287 0.929 . S
H278 C282 0.929 . S
H279 C288 0.929 . S
C280 H274 0.930 . S
C280 C281 1.367 . S
C280 C288 1.378 . S
C281 C280 1.367 . S
C281 C289 1.433 . S
C282 H278 0.929 . S
C282 C284 1.378 . S
C282 C286 1.350 . S
C283 C286 1.463 . S
C283 C288 1.350 . S
C283 N291 1.427 . S
C284 H275 0.930 . S
C284 C282 1.378 . S
C284 C285 1.367 . S
C285 C284 1.367 . S
C285 C287 1.433 . S
C286 C282 1.350 . S
C286 C283 1.463 . S
C286 N290 1.427 . S
C287 H277 0.929 . S
C287 C285 1.433 . S
C287 N290 1.384 . S
C288 H279 0.929 . S
C288 C280 1.378 . S
C288 C283 1.350 . S
C289 H276 0.929 . S
C289 C281 1.433 . S
C289 N291 1.384 . S
N290 C286 1.427 . S
N290 C287 1.384 . S
N291 C283 1.427 . S
N291 C289 1.384 . S
H292 C298 0.930 . S
H293 C302 0.930 . S
H294 C307 0.929 . S
H295 C305 0.929 . S
H296 C300 0.929 . S
H297 C306 0.929 . S
C298 H292 0.930 . S
C298 C299 1.367 . S
C298 C306 1.378 . S
C299 C298 1.367 . S
C299 C307 1.433 . S
C300 H296 0.929 . S
C300 C302 1.378 . S
C300 C304 1.350 . S
C301 C304 1.463 . S
C301 C306 1.350 . S
C301 N309 1.427 . S
C302 H293 0.930 . S
C302 C300 1.378 . S
C302 C303 1.367 . S
C303 C302 1.367 . S
C303 C305 1.433 . S
C304 C300 1.350 . S
C304 C301 1.463 . S
C304 N308 1.427 . S
C305 H295 0.929 . S
C305 C303 1.433 . S
C305 N308 1.384 . S
C306 H297 0.929 . S
C306 C298 1.378 . S
C306 C301 1.350 . S
C307 H294 0.929 . S
C307 C299 1.433 . S
C307 N309 1.384 . S
N308 C304 1.427 . S
N308 C305 1.384 . S
N309 C301 1.427 . S
N309 C307 1.384 . S
H310 C316 0.930 . S
H311 C320 0.930 . S
H312 C325 0.929 . S
H313 C323 0.929 . S
H314 C318 0.929 . S
H315 C324 0.929 . S
C316 H310 0.930 . S
C316 C317 1.367 . S
C316 C324 1.378 . S
C317 C316 1.367 . S
C317 C325 1.433 1_455 S
C318 H314 0.929 . S
C318 C320 1.378 . S
C318 C322 1.350 1_655 S
C319 C322 1.463 . S
C319 C324 1.350 . S
C319 N327 1.427 1_455 S
C320 H311 0.930 . S
C320 C318 1.378 . S
C320 C321 1.367 1_655 S
C321 C320 1.367 1_455 S
C321 C323 1.433 . S
C322 C318 1.350 1_455 S
C322 C319 1.463 . S
C322 N326 1.427 . S
C323 H313 0.929 . S
C323 C321 1.433 . S
C323 N326 1.384 . S
C324 H315 0.929 . S
C324 C316 1.378 . S
C324 C319 1.350 . S
C325 H312 0.929 . S
C325 C317 1.433 1_655 S
C325 N327 1.384 . S
N326 C322 1.427 . S
N326 C323 1.384 . S
N327 C319 1.427 1_655 S
N327 C325 1.384 . S
H328 C334 0.930 . S
H329 C338 0.930 . S
H330 C343 0.929 . S
H331 C341 0.929 . S
H332 C336 0.929 . S
H333 C342 0.929 . S
C334 H328 0.930 . S
C334 C335 1.374 . S
C334 C342 1.378 . S
C335 C334 1.374 . S
C335 C343 1.424 1_565 S
C336 H332 0.929 . S
C336 C338 1.378 . S
C336 C340 1.347 1_556 S
C337 C340 1.459 1_565 S
C337 C342 1.373 . S
C337 N345 1.408 1_565 S
C338 H329 0.930 . S
C338 C336 1.378 . S
C338 C339 1.358 1_545 S
C339 C338 1.358 1_565 S
C339 C341 1.444 1_556 S
C340 C336 1.347 1_554 S
C340 C337 1.459 1_545 S
C340 N344 1.430 1_545 S
C341 H331 0.929 . S
C341 C339 1.444 1_554 S
C341 N344 1.384 . S
C342 H333 0.929 . S
C342 C334 1.378 . S
C342 C337 1.373 . S
C343 H330 0.929 . S
C343 C335 1.424 1_545 S
C343 N345 1.384 . S
N344 C340 1.430 1_565 S
N344 C341 1.384 . S
N345 C337 1.408 1_545 S
N345 C343 1.384 . S
H346 C352 0.930 . S
H347 C356 0.930 . S
H348 C361 0.929 . S
H349 C359 0.929 . S
H350 C354 0.929 1_554 S
H351 C360 0.929 . S
C352 H346 0.930 . S
C352 C353 1.367 . S
C352 C360 1.378 1_554 S
C353 C352 1.367 . S
C353 C361 1.433 . S
C354 H350 0.929 1_556 S
C354 C356 1.378 . S
C354 C358 1.350 . S
C355 C358 1.463 1_554 S
C355 C360 1.350 1_554 S
C355 N363 1.427 . S
C356 H347 0.930 . S
C356 C354 1.378 . S
C356 C357 1.367 . S
C357 C356 1.367 . S
C357 C359 1.433 . S
C358 C354 1.350 . S
C358 C355 1.463 1_556 S
C358 N362 1.427 . S
C359 H349 0.929 . S
C359 C357 1.433 . S
C359 N362 1.384 . S
C360 H351 0.929 . S
C360 C352 1.378 1_556 S
C360 C355 1.350 1_556 S
C361 H348 0.929 . S
C361 C353 1.433 . S
C361 N363 1.384 . S
N362 C358 1.427 . S
N362 C359 1.384 . S
N363 C355 1.427 . S
N363 C361 1.384 . S
H364 C370 0.930 . S
H365 C374 0.930 . S
H366 C379 0.929 . S
H367 C377 0.929 . S
H368 C372 0.929 . S
H369 C378 0.929 . S
C370 H364 0.930 . S
C370 C371 1.367 . S
C370 C378 1.378 . S
C371 C370 1.367 . S
C371 C379 1.433 . S
C372 H368 0.929 . S
C372 C374 1.378 . S
C372 C376 1.350 . S
C373 C376 1.463 . S
C373 C378 1.350 . S
C373 N381 1.427 . S
C374 H365 0.930 . S
C374 C372 1.378 . S
C374 C375 1.367 . S
C375 C374 1.367 . S
C375 C377 1.433 . S
C376 C372 1.350 . S
C376 C373 1.463 . S
C376 N380 1.427 . S
C377 H367 0.929 . S
C377 C375 1.433 . S
C377 N380 1.384 . S
C378 H369 0.929 . S
C378 C370 1.378 . S
C378 C373 1.350 . S
C379 H366 0.929 . S
C379 C371 1.433 . S
C379 N381 1.384 . S
N380 C376 1.427 . S
N380 C377 1.384 . S
N381 C373 1.427 . S
N381 C379 1.384 . S
H382 C388 0.930 . S
H383 C392 0.930 . S
H384 C397 0.929 . S
H385 C395 0.929 . S
H386 C390 0.929 . S
H387 C396 0.929 . S
C388 H382 0.930 . S
C388 C389 1.367 1_455 S
C388 C396 1.378 . S
C389 C388 1.367 1_655 S
C389 C397 1.433 . S
C390 H386 0.929 . S
C390 C392 1.378 . S
C390 C394 1.350 . S
C391 C394 1.463 . S
C391 C396 1.350 1_655 S
C391 N399 1.427 . S
C392 H383 0.930 . S
C392 C390 1.378 . S
C392 C393 1.367 1_554 S
C393 C392 1.367 1_556 S
C393 C395 1.433 1_655 S
C394 C390 1.350 . S
C394 C391 1.463 . S
C394 N398 1.427 1_655 S
C395 H385 0.929 . S
C395 C393 1.433 1_455 S
C395 N398 1.384 1_556 S
C396 H387 0.929 . S
C396 C388 1.378 . S
C396 C391 1.350 1_455 S
C397 H384 0.929 . S
C397 C389 1.433 . S
C397 N399 1.384 . S
N398 C394 1.427 1_455 S
N398 C395 1.384 1_554 S
N399 C391 1.427 . S
N399 C397 1.384 . S
H400 C406 0.930 . S
H401 C410 0.930 . S
H402 C415 0.929 . S
H403 C413 0.929 . S
H404 C408 0.929 . S
H405 C414 0.929 . S
C406 H400 0.930 . S
C406 C407 1.367 1_655 S
C406 C414 1.378 . S
C407 C406 1.367 1_455 S
C407 C415 1.433 . S
C408 H404 0.929 . S
C408 C410 1.378 . S
C408 C412 1.350 1_455 S
C409 C412 1.466 . S
C409 C414 1.366 . S
C409 N417 1.408 1_655 S
C410 H401 0.930 . S
C410 C408 1.378 . S
C410 C411 1.367 1_455 S
C411 C410 1.367 1_655 S
C411 C413 1.433 . S
C412 C408 1.350 1_655 S
C412 C409 1.466 . S
C412 N416 1.427 . S
C413 H403 0.929 . S
C413 C411 1.433 . S
C413 N416 1.384 . S
C414 H405 0.929 . S
C414 C406 1.378 . S
C414 C409 1.366 . S
C415 H402 0.929 . S
C415 C407 1.433 . S
C415 N417 1.384 . S
N416 C412 1.427 . S
N416 C413 1.384 . S
N417 C409 1.408 1_455 S
N417 C415 1.384 . S
H418 C424 0.930 . S
H419 C428 0.930 . S
H420 C433 0.929 . S
H421 C431 0.929 . S
H422 C426 0.929 . S
H423 C432 0.929 . S
C424 H418 0.930 . S
C424 C425 1.374 . S
C424 C432 1.378 . S
C425 C424 1.374 . S
C425 C433 1.423 1_545 S
C426 H422 0.929 . S
C426 C428 1.378 . S
C426 C430 1.350 . S
C427 C430 1.463 . S
C427 C432 1.350 1_565 S
C427 N435 1.427 . S
C428 H419 0.930 . S
C428 C426 1.378 . S
C428 C429 1.367 . S
C429 C428 1.367 . S
C429 C431 1.433 . S
C430 C426 1.350 . S
C430 C427 1.463 . S
C430 N434 1.427 . S
C431 H421 0.929 . S
C431 C429 1.433 . S
C431 N434 1.384 . S
C432 H423 0.929 . S
C432 C424 1.378 . S
C432 C427 1.350 1_545 S
C433 H420 0.929 . S
C433 C425 1.423 1_565 S
C433 N435 1.384 . S
N434 C430 1.427 . S
N434 C431 1.384 . S
N435 C427 1.427 . S
N435 C433 1.384 . S
H436 C442 0.930 . S
H437 C446 0.930 . S
H438 C451 0.929 . S
H439 C449 0.929 . S
H440 C444 0.929 . S
H441 C450 0.929 . S
C442 H436 0.930 . S
C442 C443 1.367 . S
C442 C450 1.378 . S
C443 C442 1.367 . S
C443 C451 1.433 . S
C444 H440 0.929 . S
C444 C446 1.378 . S
C444 C448 1.350 . S
C445 C448 1.463 . S
C445 C450 1.350 . S
C445 N453 1.427 . S
C446 H437 0.930 . S
C446 C444 1.378 . S
C446 C447 1.367 . S
C447 C446 1.367 . S
C447 C449 1.433 . S
C448 C444 1.350 . S
C448 C445 1.463 . S
C448 N452 1.427 . S
C449 H439 0.929 . S
C449 C447 1.433 . S
C449 N452 1.384 . S
C450 H441 0.929 . S
C450 C442 1.378 . S
C450 C445 1.350 . S
C451 H438 0.929 . S
C451 C443 1.433 . S
C451 N453 1.384 . S
N452 C448 1.427 . S
N452 C449 1.384 . S
N453 C445 1.427 . S
N453 C451 1.384 . S
H454 C460 0.930 . S
H455 C464 0.930 . S
H456 C469 0.929 . S
H457 C467 0.929 . S
H458 C462 0.929 . S
H459 C468 0.929 . S
C460 H454 0.930 . S
C460 C461 1.367 . S
C460 C468 1.378 . S
C461 C460 1.367 . S
C461 C469 1.433 . S
C462 H458 0.929 . S
C462 C464 1.378 . S
C462 C466 1.350 . S
C463 C466 1.463 . S
C463 C468 1.350 . S
C463 N471 1.427 . S
C464 H455 0.930 . S
C464 C462 1.378 . S
C464 C465 1.367 . S
C465 C464 1.367 . S
C465 C467 1.433 . S
C466 C462 1.350 . S
C466 C463 1.463 . S
C466 N470 1.427 . S
C467 H457 0.929 . S
C467 C465 1.433 . S
C467 N470 1.384 . S
C468 H459 0.929 . S
C468 C460 1.378 . S
C468 C463 1.350 . S
C469 H456 0.929 . S
C469 C461 1.433 . S
C469 N471 1.384 . S
N470 C466 1.427 . S
N470 C467 1.384 . S
N471 C463 1.427 . S
N471 C469 1.384 . S
H472 C478 0.930 . S
H473 C482 0.930 . S
H474 C487 0.929 . S
H475 C485 0.929 . S
H476 C480 0.929 1_655 S
H477 C486 0.929 . S
C478 H472 0.930 . S
C478 C479 1.367 1_455 S
C478 C486 1.378 . S
C479 C478 1.367 1_655 S
C479 C487 1.433 . S
C480 H476 0.929 1_455 S
C480 C482 1.378 . S
C480 C484 1.350 . S
C481 C484 1.463 . S
C481 C486 1.350 . S
C481 N489 1.427 1_455 S
C482 H473 0.930 . S
C482 C480 1.378 . S
C482 C483 1.367 . S
C483 C482 1.367 . S
C483 C485 1.433 . S
C484 C480 1.350 . S
C484 C481 1.463 . S
C484 N488 1.427 . S
C485 H475 0.929 . S
C485 C483 1.433 . S
C485 N488 1.384 . S
C486 H477 0.929 . S
C486 C478 1.378 . S
C486 C481 1.350 . S
C487 H474 0.929 . S
C487 C479 1.433 . S
C487 N489 1.384 . S
N488 C484 1.427 . S
N488 C485 1.384 . S
N489 C481 1.427 1_655 S
N489 C487 1.384 . S
H490 C496 0.930 . S
H491 C500 0.959 . S
H492 C505 0.929 . S
H493 C503 0.929 . S
H494 C498 0.929 . S
H495 C504 0.929 . S
C496 H490 0.930 . S
C496 C497 1.385 . S
C496 C504 1.378 . S
C497 C496 1.385 . S
C497 C505 1.417 1_545 S
C498 H494 0.929 . S
C498 C500 1.383 . S
C498 C502 1.350 1_565 S
C499 C502 1.463 . S
C499 C504 1.350 . S
C499 N507 1.427 1_545 S
C500 H491 0.959 . S
C500 C498 1.383 . S
C500 C501 1.334 1_565 S
C501 C500 1.334 1_545 S
C501 C503 1.433 . S
C502 C498 1.350 1_545 S
C502 C499 1.463 . S
C502 N506 1.427 . S
C503 H493 0.929 . S
C503 C501 1.433 . S
C503 N506 1.384 . S
C504 H495 0.929 . S
C504 C496 1.378 . S
C504 C499 1.350 . S
C505 H492 0.929 . S
C505 C497 1.417 1_565 S
C505 N507 1.384 . S
N506 C502 1.427 . S
N506 C503 1.384 . S
N507 C499 1.427 1_565 S
N507 C505 1.384 . S
H508 C514 0.930 . S
H509 C518 0.930 . S
H510 C523 0.929 . S
H511 C521 0.929 . S
H512 C516 0.929 . S
H513 C522 0.929 1_556 S
C514 H508 0.930 . S
C514 C515 1.367 . S
C514 C522 1.378 . S
C515 C514 1.367 . S
C515 C523 1.433 . S
C516 H512 0.929 . S
C516 C518 1.378 . S
C516 C520 1.350 . S
C517 C520 1.463 . S
C517 C522 1.350 . S
C517 N525 1.427 . S
C518 H509 0.930 . S
C518 C516 1.378 . S
C518 C519 1.367 1_554 S
C519 C518 1.367 1_556 S
C519 C521 1.433 . S
C520 C516 1.350 . S
C520 C517 1.463 . S
C520 N524 1.427 1_554 S
C521 H511 0.929 . S
C521 C519 1.433 . S
C521 N524 1.384 . S
C522 H513 0.929 1_554 S
C522 C514 1.378 . S
C522 C517 1.350 . S
C523 H510 0.929 . S
C523 C515 1.433 . S
C523 N525 1.384 . S
N524 C520 1.427 1_556 S
N524 C521 1.384 . S
N525 C517 1.427 . S
N525 C523 1.384 . S
H526 C532 0.930 . S
H527 C536 0.930 . S
H528 C541 0.929 . S
H529 C539 0.929 . S
H530 C534 0.929 . S
H531 C540 0.929 . S
C532 H526 0.930 . S
C532 C533 1.367 . S
C532 C540 1.378 . S
C533 C532 1.367 . S
C533 C541 1.433 . S
C534 H530 0.929 . S
C534 C536 1.378 . S
C534 C538 1.350 . S
C535 C538 1.463 . S
C535 C540 1.350 . S
C535 N543 1.427 . S
C536 H527 0.930 . S
C536 C534 1.378 . S
C536 C537 1.367 . S
C537 C536 1.367 . S
C537 C539 1.433 . S
C538 C534 1.350 . S
C538 C535 1.463 . S
C538 N542 1.427 . S
C539 H529 0.929 . S
C539 C537 1.433 . S
C539 N542 1.384 . S
C540 H531 0.929 . S
C540 C532 1.378 . S
C540 C535 1.350 . S
C541 H528 0.929 . S
C541 C533 1.433 . S
C541 N543 1.384 . S
N542 C538 1.427 . S
N542 C539 1.384 . S
N543 C535 1.427 . S
N543 C541 1.384 . S
H544 C550 0.924 1_655 S
H545 C554 0.930 . S
H546 C559 0.929 . S
H547 C557 0.929 1_654 S
H548 C552 0.929 . S
H549 C558 0.929 1_655 S
C550 H544 0.924 1_455 S
C550 C551 1.380 1_554 S
C550 C558 1.374 . S
C551 C550 1.380 1_556 S
C551 C559 1.433 . S
C552 H548 0.929 . S
C552 C554 1.378 . S
C552 C556 1.350 . S
C553 C556 1.463 . S
C553 C558 1.350 1_556 S
C553 N561 1.427 . S
C554 H545 0.930 . S
C554 C552 1.378 . S
C554 C555 1.367 . S
C555 C554 1.367 . S
C555 C557 1.433 . S
C556 C552 1.350 . S
C556 C553 1.463 . S
C556 N560 1.427 . S
C557 H547 0.929 1_456 S
C557 C555 1.433 . S
C557 N560 1.384 . S
C558 H549 0.929 1_455 S
C558 C550 1.374 . S
C558 C553 1.350 1_554 S
C559 H546 0.929 . S
C559 C551 1.433 . S
C559 N561 1.384 . S
N560 C556 1.427 . S
N560 C557 1.384 . S
N561 C553 1.427 . S
N561 C559 1.384 . S
H562 C568 0.930 . S
H563 C572 0.930 . S
H564 C577 0.929 . S
H565 C575 0.929 . S
H566 C570 0.929 . S
H567 C576 0.929 . S
C568 H562 0.930 . S
C568 C569 1.367 . S
C568 C576 1.378 . S
C569 C568 1.367 . S
C569 C577 1.433 1_545 S
C570 H566 0.929 . S
C570 C572 1.378 . S
C570 C574 1.350 1_565 S
C571 C574 1.463 1_554 S
C571 C576 1.350 . S
C571 N579 1.427 1_545 S
C572 H563 0.930 . S
C572 C570 1.378 . S
C572 C573 1.367 1_565 S
C573 C572 1.367 1_545 S
C573 C575 1.433 . S
C574 C570 1.350 1_545 S
C574 C571 1.463 1_556 S
C574 N578 1.427 . S
C575 H565 0.929 . S
C575 C573 1.433 . S
C575 N578 1.384 . S
C576 H567 0.929 . S
C576 C568 1.378 . S
C576 C571 1.350 . S
C577 H564 0.929 . S
C577 C569 1.433 1_565 S
C577 N579 1.384 . S
N578 C574 1.427 . S
N578 C575 1.384 . S
N579 C571 1.427 1_565 S
N579 C577 1.384 . S
H580 C586 0.930 . S
H581 C590 0.930 . S
H582 C595 0.929 . S
H583 C593 0.929 . S
H584 C588 0.929 . S
H585 C594 0.929 . S
C586 H580 0.930 . S
C586 C587 1.367 . S
C586 C594 1.378 . S
C587 C586 1.367 . S
C587 C595 1.433 . S
C588 H584 0.929 . S
C588 C590 1.378 . S
C588 C592 1.350 . S
C589 C592 1.463 . S
C589 C594 1.350 . S
C589 N597 1.427 . S
C590 H581 0.930 . S
C590 C588 1.378 . S
C590 C591 1.368 . S
C591 C590 1.368 . S
C591 C593 1.433 1_554 S
C592 C588 1.350 . S
C592 C589 1.463 . S
C592 N596 1.427 . S
C593 H583 0.929 . S
C593 C591 1.433 1_556 S
C593 N596 1.384 1_556 S
C594 H585 0.929 . S
C594 C586 1.378 . S
C594 C589 1.350 . S
C595 H582 0.929 . S
C595 C587 1.433 . S
C595 N597 1.384 . S
N596 C592 1.427 . S
N596 C593 1.384 1_554 S
N597 C589 1.427 . S
N597 C595 1.384 . S
H598 C604 0.930 . S
H599 C608 0.930 . S
H600 C613 0.929 . S
H601 C611 0.929 . S
H602 C606 0.929 . S
H603 C612 0.929 . S
C604 H598 0.930 . S
C604 C605 1.367 . S
C604 C612 1.378 . S
C605 C604 1.367 . S
C605 C613 1.433 . S
C606 H602 0.929 . S
C606 C608 1.378 . S
C606 C610 1.350 . S
C607 C610 1.463 . S
C607 C612 1.350 . S
C607 N615 1.427 . S
C608 H599 0.930 . S
C608 C606 1.378 . S
C608 C609 1.367 . S
C609 C608 1.367 . S
C609 C611 1.433 . S
C610 C606 1.350 . S
C610 C607 1.463 . S
C610 N614 1.427 . S
C611 H601 0.929 . S
C611 C609 1.433 . S
C611 N614 1.384 . S
C612 H603 0.929 . S
C612 C604 1.378 . S
C612 C607 1.350 . S
C613 H600 0.929 . S
C613 C605 1.433 . S
C613 N615 1.384 . S
N614 C610 1.427 . S
N614 C611 1.384 . S
N615 C607 1.427 . S
N615 C613 1.384 . S
H616 C622 0.930 . S
H617 C626 0.930 . S
H618 C631 0.929 . S
H619 C629 0.929 . S
H620 C624 0.929 . S
H621 C630 0.929 . S
C622 H616 0.930 . S
C622 C623 1.367 . S
C622 C630 1.378 . S
C623 C622 1.367 . S
C623 C631 1.433 1_655 S
C624 H620 0.929 . S
C624 C626 1.378 . S
C624 C628 1.350 1_455 S
C625 C628 1.463 . S
C625 C630 1.350 . S
C625 N633 1.427 1_655 S
C626 H617 0.930 . S
C626 C624 1.378 . S
C626 C627 1.367 1_455 S
C627 C626 1.367 1_655 S
C627 C629 1.433 . S
C628 C624 1.350 1_655 S
C628 C625 1.463 . S
C628 N632 1.427 . S
C629 H619 0.929 . S
C629 C627 1.433 . S
C629 N632 1.384 . S
C630 H621 0.929 . S
C630 C622 1.378 . S
C630 C625 1.350 . S
C631 H618 0.929 . S
C631 C623 1.433 1_455 S
C631 N633 1.384 . S
N632 C628 1.427 . S
N632 C629 1.384 . S
N633 C625 1.427 1_455 S
N633 C631 1.384 . S
H634 C640 0.930 . S
H635 C644 0.930 . S
H636 C649 0.929 . S
H637 C647 0.929 . S
H638 C642 0.929 . S
H639 C648 0.929 . S
C640 H634 0.930 . S
C640 C641 1.367 . S
C640 C648 1.378 . S
C641 C640 1.367 . S
C641 C649 1.433 1_565 S
C642 H638 0.929 . S
C642 C644 1.378 . S
C642 C646 1.350 1_545 S
C643 C646 1.463 . S
C643 C648 1.350 . S
C643 N651 1.427 1_565 S
C644 H635 0.930 . S
C644 C642 1.378 . S
C644 C645 1.367 1_545 S
C645 C644 1.367 1_565 S
C645 C647 1.433 . S
C646 C642 1.350 1_565 S
C646 C643 1.463 . S
C646 N650 1.427 . S
C647 H637 0.929 . S
C647 C645 1.433 . S
C647 N650 1.384 . S
C648 H639 0.929 . S
C648 C640 1.378 . S
C648 C643 1.350 . S
C649 H636 0.929 . S
C649 C641 1.433 1_545 S
C649 N651 1.384 . S
N650 C646 1.427 . S
N650 C647 1.384 . S
N651 C643 1.427 1_545 S
N651 C649 1.384 . S
H652 C658 0.930 . S
H653 C662 0.930 . S
H654 C667 0.929 . S
H655 C665 0.929 . S
H656 C660 0.929 . S
H657 C666 0.929 . S
C658 H652 0.930 . S
C658 C659 1.367 . S
C658 C666 1.378 . S
C659 C658 1.367 . S
C659 C667 1.433 . S
C660 H656 0.929 . S
C660 C662 1.378 . S
C660 C664 1.350 . S
C661 C664 1.463 . S
C661 C666 1.350 . S
C661 N669 1.427 . S
C662 H653 0.930 . S
C662 C660 1.378 . S
C662 C663 1.367 . S
C663 C662 1.367 . S
C663 C665 1.433 . S
C664 C660 1.350 . S
C664 C661 1.463 . S
C664 N668 1.427 . S
C665 H655 0.929 . S
C665 C663 1.433 . S
C665 N668 1.384 . S
C666 H657 0.929 . S
C666 C658 1.378 . S
C666 C661 1.350 . S
C667 H654 0.929 . S
C667 C659 1.433 . S
C667 N669 1.384 . S
N668 C664 1.427 . S
N668 C665 1.384 . S
N669 C661 1.427 . S
N669 C667 1.384 . S
H670 C676 0.930 . S
H671 C680 0.930 . S
H672 C685 0.929 . S
H673 C683 0.929 . S
H674 C678 0.929 . S
H675 C684 0.929 . S
C676 H670 0.930 . S
C676 C677 1.367 . S
C676 C684 1.378 . S
C677 C676 1.367 . S
C677 C685 1.433 . S
C678 H674 0.929 . S
C678 C680 1.378 . S
C678 C682 1.350 . S
C679 C682 1.463 . S
C679 C684 1.350 . S
C679 N687 1.427 . S
C680 H671 0.930 . S
C680 C678 1.378 . S
C680 C681 1.367 . S
C681 C680 1.367 . S
C681 C683 1.433 . S
C682 C678 1.350 . S
C682 C679 1.463 . S
C682 N686 1.427 . S
C683 H673 0.929 . S
C683 C681 1.433 . S
C683 N686 1.384 . S
C684 H675 0.929 . S
C684 C676 1.378 . S
C684 C679 1.350 . S
C685 H672 0.929 . S
C685 C677 1.433 . S
C685 N687 1.384 . S
N686 C682 1.427 . S
N686 C683 1.384 . S
N687 C679 1.427 . S
N687 C685 1.384 . S
C263 C76 1.988 1_545 S
C267 C98 2.051 1_545 S
C285 C138 2.053 . S
C281 C88 2.008 . S
C303 C202 1.906 . S
C299 C52 1.774 . S
C321 C218 1.655 . S
C317 C64 1.488 . S
C339 C119 2.053 1_565 S
C335 C28 1.983 . S
C353 C40 2.012 . S
C357 C159 2.062 . S
C371 C4 1.769 . S
C375 C193 1.898 . S
C389 C16 1.475 . S
C393 C239 1.660 1_655 S
C411 C113 0.416 . S
C407 C69 0.415 . S
C429 C153 0.721 . S
C425 C81 0.710 . S
C447 C189 0.740 . S
C443 C93 0.740 . S
C461 C57 0.588 . S
C465 C233 0.625 . S
C479 C21 0.413 . S
C483 C122 0.423 . S
C501 C162 0.711 . S
C497 C33 0.721 . S
C519 C200 0.738 . S
C515 C45 0.739 . S
C533 C9 0.597 . S
C537 C242 0.618 . S
C551 C66 1.817 1_556 S
C555 C120 2.026 . S
C569 C78 1.887 . S
C573 C160 2.050 . S
C591 C178 1.638 1_554 S
C587 C90 1.626 . S
C609 C240 2.437 . S
C605 C54 2.193 . S
C623 C18 1.821 . S
C627 C109 2.033 . S
C645 C149 2.050 . S
C641 C30 1.893 1_565 S
C663 C199 1.636 . S
C659 C42 1.615 . S
C677 C6 2.176 . S
C681 C229 2.433 . S
