# Generated by pormake.
# Topology ptr, (4,4)-cn, num edge types: 1
# Building blocks:
#     Node 0, Type 0, BuildingBlock: NAHDIM_clean_sbu_0, # of connection points: 4
#     Node 1, Type 0, BuildingBlock: NAHDIM_clean_sbu_0, # of connection points: 4
#     Node 2, Type 0, BuildingBlock: NAHDIM_clean_sbu_0, # of connection points: 4
#     Node 3, Type 0, BuildingBlock: NAHDIM_clean_sbu_0, # of connection points: 4
#     Node 4, Type 0, BuildingBlock: NAHDIM_clean_sbu_0, # of connection points: 4
#     Node 5, Type 0, BuildingBlock: NAHDIM_clean_sbu_0, # of connection points: 4
#     Node 6, Type 0, BuildingBlock: NAHDIM_clean_sbu_0, # of connection points: 4
#     Node 7, Type 0, BuildingBlock: NAHDIM_clean_sbu_0, # of connection points: 4
#     Node 8, Type 0, BuildingBlock: NAHDIM_clean_sbu_0, # of connection points: 4
#     Node 9, Type 0, BuildingBlock: NAHDIM_clean_sbu_0, # of connection points: 4
#     Node 10, Type 0, BuildingBlock: NAHDIM_clean_sbu_0, # of connection points: 4
#     Node 11, Type 0, BuildingBlock: NAHDIM_clean_sbu_0, # of connection points: 4
#     Node 12, Type 0, BuildingBlock: NAHDIM_clean_sbu_0, # of connection points: 4
#     Node 13, Type 0, BuildingBlock: NAHDIM_clean_sbu_0, # of connection points: 4
#     Node 14, Type 0, BuildingBlock: NAHDIM_clean_sbu_0, # of connection points: 4
#     Node 15, Type 0, BuildingBlock: NAHDIM_clean_sbu_0, # of connection points: 4
#     Node 16, Type 0, BuildingBlock: NAHDIM_clean_sbu_0, # of connection points: 4
#     Node 17, Type 0, BuildingBlock: NAHDIM_clean_sbu_0, # of connection points: 4
#     Node 18, Type 1, BuildingBlock: AZAVOO_clean_linker_0, # of connection points: 4
#     Node 19, Type 1, BuildingBlock: AZAVOO_clean_linker_0, # of connection points: 4
#     Node 20, Type 1, BuildingBlock: AZAVOO_clean_linker_0, # of connection points: 4
#     Node 21, Type 1, BuildingBlock: AZAVOO_clean_linker_0, # of connection points: 4
#     Node 22, Type 1, BuildingBlock: AZAVOO_clean_linker_0, # of connection points: 4
#     Node 23, Type 1, BuildingBlock: AZAVOO_clean_linker_0, # of connection points: 4
#     Node 24, Type 1, BuildingBlock: AZAVOO_clean_linker_0, # of connection points: 4
#     Node 25, Type 1, BuildingBlock: AZAVOO_clean_linker_0, # of connection points: 4
#     Node 26, Type 1, BuildingBlock: AZAVOO_clean_linker_0, # of connection points: 4
#     Node 27, Type 1, BuildingBlock: AZAVOO_clean_linker_0, # of connection points: 4
#     Node 28, Type 1, BuildingBlock: AZAVOO_clean_linker_0, # of connection points: 4
#     Node 29, Type 1, BuildingBlock: AZAVOO_clean_linker_0, # of connection points: 4
#     Node 30, Type 1, BuildingBlock: AZAVOO_clean_linker_0, # of connection points: 4
#     Node 31, Type 1, BuildingBlock: AZAVOO_clean_linker_0, # of connection points: 4
#     Node 32, Type 1, BuildingBlock: AZAVOO_clean_linker_0, # of connection points: 4
#     Node 33, Type 1, BuildingBlock: AZAVOO_clean_linker_0, # of connection points: 4
#     Node 34, Type 1, BuildingBlock: AZAVOO_clean_linker_0, # of connection points: 4
#     Node 35, Type 1, BuildingBlock: AZAVOO_clean_linker_0, # of connection points: 4
#     Edge 36, Type (0, 1), BuildingBlock: ZUJKAS_clean_linker_0, # of connection points: 2
#     Edge 37, Type (0, 1), BuildingBlock: ZUJKAS_clean_linker_0, # of connection points: 2
#     Edge 38, Type (0, 1), BuildingBlock: ZUJKAS_clean_linker_0, # of connection points: 2
#     Edge 39, Type (0, 1), BuildingBlock: ZUJKAS_clean_linker_0, # of connection points: 2
#     Edge 40, Type (0, 1), BuildingBlock: ZUJKAS_clean_linker_0, # of connection points: 2
#     Edge 41, Type (0, 1), BuildingBlock: ZUJKAS_clean_linker_0, # of connection points: 2
#     Edge 42, Type (0, 1), BuildingBlock: ZUJKAS_clean_linker_0, # of connection points: 2
#     Edge 43, Type (0, 1), BuildingBlock: ZUJKAS_clean_linker_0, # of connection points: 2
#     Edge 44, Type (0, 1), BuildingBlock: ZUJKAS_clean_linker_0, # of connection points: 2
#     Edge 45, Type (0, 1), BuildingBlock: ZUJKAS_clean_linker_0, # of connection points: 2
#     Edge 46, Type (0, 1), BuildingBlock: ZUJKAS_clean_linker_0, # of connection points: 2
#     Edge 47, Type (0, 1), BuildingBlock: ZUJKAS_clean_linker_0, # of connection points: 2
#     Edge 48, Type (0, 1), BuildingBlock: ZUJKAS_clean_linker_0, # of connection points: 2
#     Edge 49, Type (0, 1), BuildingBlock: ZUJKAS_clean_linker_0, # of connection points: 2
#     Edge 50, Type (0, 1), BuildingBlock: ZUJKAS_clean_linker_0, # of connection points: 2
#     Edge 51, Type (0, 1), BuildingBlock: ZUJKAS_clean_linker_0, # of connection points: 2
#     Edge 52, Type (0, 1), BuildingBlock: ZUJKAS_clean_linker_0, # of connection points: 2
#     Edge 53, Type (0, 1), BuildingBlock: ZUJKAS_clean_linker_0, # of connection points: 2
#     Edge 54, Type (0, 1), BuildingBlock: ZUJKAS_clean_linker_0, # of connection points: 2
#     Edge 55, Type (0, 1), BuildingBlock: ZUJKAS_clean_linker_0, # of connection points: 2
#     Edge 56, Type (0, 1), BuildingBlock: ZUJKAS_clean_linker_0, # of connection points: 2
#     Edge 57, Type (0, 1), BuildingBlock: ZUJKAS_clean_linker_0, # of connection points: 2
#     Edge 58, Type (0, 1), BuildingBlock: ZUJKAS_clean_linker_0, # of connection points: 2
#     Edge 59, Type (0, 1), BuildingBlock: ZUJKAS_clean_linker_0, # of connection points: 2
#     Edge 60, Type (0, 1), BuildingBlock: ZUJKAS_clean_linker_0, # of connection points: 2
#     Edge 61, Type (0, 1), BuildingBlock: ZUJKAS_clean_linker_0, # of connection points: 2
#     Edge 62, Type (0, 1), BuildingBlock: ZUJKAS_clean_linker_0, # of connection points: 2
#     Edge 63, Type (0, 1), BuildingBlock: ZUJKAS_clean_linker_0, # of connection points: 2
#     Edge 64, Type (0, 1), BuildingBlock: ZUJKAS_clean_linker_0, # of connection points: 2
#     Edge 65, Type (0, 1), BuildingBlock: ZUJKAS_clean_linker_0, # of connection points: 2
#     Edge 66, Type (0, 1), BuildingBlock: ZUJKAS_clean_linker_0, # of connection points: 2
#     Edge 67, Type (0, 1), BuildingBlock: ZUJKAS_clean_linker_0, # of connection points: 2
#     Edge 68, Type (0, 1), BuildingBlock: ZUJKAS_clean_linker_0, # of connection points: 2
#     Edge 69, Type (0, 1), BuildingBlock: ZUJKAS_clean_linker_0, # of connection points: 2
#     Edge 70, Type (0, 1), BuildingBlock: ZUJKAS_clean_linker_0, # of connection points: 2
#     Edge 71, Type (0, 1), BuildingBlock: ZUJKAS_clean_linker_0, # of connection points: 2
#     Edge 72, Type (0, 1), BuildingBlock: ZUJKAS_clean_linker_0, # of connection points: 2
#     Edge 73, Type (0, 1), BuildingBlock: ZUJKAS_clean_linker_0, # of connection points: 2
#     Edge 74, Type (0, 1), BuildingBlock: ZUJKAS_clean_linker_0, # of connection points: 2
#     Edge 75, Type (0, 1), BuildingBlock: ZUJKAS_clean_linker_0, # of connection points: 2
#     Edge 76, Type (0, 1), BuildingBlock: ZUJKAS_clean_linker_0, # of connection points: 2
#     Edge 77, Type (0, 1), BuildingBlock: ZUJKAS_clean_linker_0, # of connection points: 2
#     Edge 78, Type (0, 1), BuildingBlock: ZUJKAS_clean_linker_0, # of connection points: 2
#     Edge 79, Type (0, 1), BuildingBlock: ZUJKAS_clean_linker_0, # of connection points: 2
#     Edge 80, Type (0, 1), BuildingBlock: ZUJKAS_clean_linker_0, # of connection points: 2
#     Edge 81, Type (0, 1), BuildingBlock: ZUJKAS_clean_linker_0, # of connection points: 2
#     Edge 82, Type (0, 1), BuildingBlock: ZUJKAS_clean_linker_0, # of connection points: 2
#     Edge 83, Type (0, 1), BuildingBlock: ZUJKAS_clean_linker_0, # of connection points: 2
#     Edge 84, Type (0, 1), BuildingBlock: ZUJKAS_clean_linker_0, # of connection points: 2
#     Edge 85, Type (0, 1), BuildingBlock: ZUJKAS_clean_linker_0, # of connection points: 2
#     Edge 86, Type (0, 1), BuildingBlock: ZUJKAS_clean_linker_0, # of connection points: 2
#     Edge 87, Type (0, 1), BuildingBlock: ZUJKAS_clean_linker_0, # of connection points: 2
#     Edge 88, Type (0, 1), BuildingBlock: ZUJKAS_clean_linker_0, # of connection points: 2
#     Edge 89, Type (0, 1), BuildingBlock: ZUJKAS_clean_linker_0, # of connection points: 2
#     Edge 90, Type (0, 1), BuildingBlock: ZUJKAS_clean_linker_0, # of connection points: 2
#     Edge 91, Type (0, 1), BuildingBlock: ZUJKAS_clean_linker_0, # of connection points: 2
#     Edge 92, Type (0, 1), BuildingBlock: ZUJKAS_clean_linker_0, # of connection points: 2
#     Edge 93, Type (0, 1), BuildingBlock: ZUJKAS_clean_linker_0, # of connection points: 2
#     Edge 94, Type (0, 1), BuildingBlock: ZUJKAS_clean_linker_0, # of connection points: 2
#     Edge 95, Type (0, 1), BuildingBlock: ZUJKAS_clean_linker_0, # of connection points: 2
#     Edge 96, Type (0, 1), BuildingBlock: ZUJKAS_clean_linker_0, # of connection points: 2
#     Edge 97, Type (0, 1), BuildingBlock: ZUJKAS_clean_linker_0, # of connection points: 2
#     Edge 98, Type (0, 1), BuildingBlock: ZUJKAS_clean_linker_0, # of connection points: 2
#     Edge 99, Type (0, 1), BuildingBlock: ZUJKAS_clean_linker_0, # of connection points: 2
#     Edge 100, Type (0, 1), BuildingBlock: ZUJKAS_clean_linker_0, # of connection points: 2
#     Edge 101, Type (0, 1), BuildingBlock: ZUJKAS_clean_linker_0, # of connection points: 2
#     Edge 102, Type (0, 1), BuildingBlock: ZUJKAS_clean_linker_0, # of connection points: 2
#     Edge 103, Type (0, 1), BuildingBlock: ZUJKAS_clean_linker_0, # of connection points: 2
#     Edge 104, Type (0, 1), BuildingBlock: ZUJKAS_clean_linker_0, # of connection points: 2
#     Edge 105, Type (0, 1), BuildingBlock: ZUJKAS_clean_linker_0, # of connection points: 2
#     Edge 106, Type (0, 1), BuildingBlock: ZUJKAS_clean_linker_0, # of connection points: 2
#     Edge 107, Type (0, 1), BuildingBlock: ZUJKAS_clean_linker_0, # of connection points: 2
# Relax obj value: 0.097
# Max RMSD: 0.290
# Mean RMSD: 0.174
data_MOF--net-ptr--node1-NAHDIM_clean_sbu_0--node2-AZAVOO_clean_linker_0--edge1-ZUJKAS_clean_linker_0
_symmetry_space_group_name_H-M    P1
_symmetry_Int_Tables_number       1
_symmetry_cell_setting            triclinic
loop_
_symmetry_equiv_pos_as_xyz
'x, y, z'
_cell_length_a     103.60072
_cell_length_b     100.36332
_cell_length_c     85.024009
_cell_angle_alpha  93.890868
_cell_angle_beta   91.531283
_cell_angle_gamma 122.08703
loop_
_atom_site_label
_atom_site_type_symbol
_atom_site_fract_x
_atom_site_fract_y
_atom_site_fract_z
_atom_type_partial_charge
C0 C 0.02426 0.35224 0.03844 0.0
O1 O 0.00954 0.34463 0.04034 0.0
O2 O 0.99754 0.34316 0.00708 0.0
Zn3 Zn 0.01375 0.36485 0.01714 0.0
O4 O 0.00558 0.37348 0.03339 0.0
C5 C 0.01382 0.37724 0.98796 0.0
O6 O 0.00014 0.36429 0.98636 0.0
O7 O 0.02963 0.3625 0.02851 0.0
C8 C 0.99605 0.37742 0.03028 0.0
O9 O 0.99042 0.37527 0.01564 0.0
C10 C 0.98382 0.33502 0.01082 0.0
O11 O 0.97922 0.34074 0.02215 0.0
O12 O 0.02241 0.38008 0.00032 0.0
C13 C 0.66188 0.63912 0.04246 0.0
O14 O 0.65337 0.64388 0.03641 0.0
O15 O 0.64122 0.64621 0.07238 0.0
Zn16 Zn 0.6369 0.62577 0.06109 0.0
O17 O 0.62198 0.61878 0.04203 0.0
C18 C 0.61983 0.60908 0.0863 0.0
O19 O 0.61705 0.62043 0.08675 0.0
O20 O 0.65698 0.63022 0.05362 0.0
C21 C 0.60894 0.61712 0.04217 0.0
O22 O 0.60442 0.62005 0.05552 0.0
C23 C 0.6394 0.65622 0.06595 0.0
O24 O 0.6338 0.65311 0.05119 0.0
O25 O 0.62849 0.60882 0.07613 0.0
C26 C 0.36546 0.02102 0.00645 0.0
O27 O 0.35859 0.00636 4e-05 0.0
O28 O 0.36174 0.9914 0.02771 0.0
Zn29 Zn 0.38124 0.0094 0.02068 0.0
O30 O 0.38696 0.00296 0.00047 0.0
C31 C 0.39693 0.02104 0.05174 0.0
O32 O 0.38472 0.02129 0.05495 0.0
O33 O 0.37683 0.02611 0.01642 0.0
C34 C 0.39316 0.99492 -2e-05 0.0
O35 O 0.39557 0.99012 0.01311 0.0
C36 C 0.36087 0.98196 0.03746 0.0
O37 O 0.37341 0.98304 0.04291 0.0
O38 O 0.39816 0.01689 0.03769 0.0
C39 C 0.97783 0.64854 0.02053 0.0
O40 O 0.99218 0.65424 0.01774 0.0
O41 O 0.00364 0.65895 0.05441 0.0
Zn42 Zn 0.98776 0.63746 0.04407 0.0
O43 O 0.99733 0.62982 0.02851 0.0
C44 C 0.97961 0.62613 0.07507 0.0
O45 O 0.9857 0.64116 0.07974 0.0
O46 O 0.97239 0.64 0.03191 0.0
C47 C 0.00062 0.61966 0.03147 0.0
O48 O 0.99821 0.6142 0.0454 0.0
C49 C 0.01592 0.66216 0.0618 0.0
O50 O 0.01876 0.65095 0.06288 0.0
O51 O 0.9785 0.62188 0.06042 0.0
C52 C 0.34024 0.36752 0.01994 0.0
O53 O 0.34751 0.36024 0.02205 0.0
O54 O 0.3581 0.36121 0.9893 0.0
Zn55 Zn 0.36443 0.38206 0.00113 0.0
O56 O 0.38071 0.38794 0.01853 0.0
C57 C 0.38198 0.39891 0.97682 0.0
O58 O 0.38618 0.38878 0.9784 0.0
O59 O 0.34567 0.3787 0.01104 0.0
C60 C 0.39188 0.40206 0.02192 0.0
O61 O 0.3931 0.41324 0.0137 0.0
C62 C 0.36495 0.35394 0.99099 0.0
O63 O 0.37728 0.36037 0.00069 0.0
O64 O 0.37217 0.3986 0.9857 0.0
C65 C 0.62001 0.96685 0.05346 0.0
O66 O 0.61034 0.9672 0.06291 0.0
O67 O 0.64303 0.01311 0.03798 0.0
Zn68 Zn 0.62232 0.99463 0.04175 0.0
O69 O 0.61505 0.99867 0.06213 0.0
C70 C 0.60996 0.98813 0.0095 0.0
O71 O 0.62284 0.98907 0.00681 0.0
O72 O 0.62561 0.97675 0.04323 0.0
C73 C 0.61545 0.01137 0.06588 0.0
O74 O 0.62101 0.02251 0.0562 0.0
C75 C 0.64582 0.0239 0.02912 0.0
O76 O 0.63442 0.0242 0.02241 0.0
O77 O 0.60711 0.98988 0.02367 0.0
C78 C 0.68748 0.69541 0.37635 0.0
O79 O 0.67596 0.69465 0.38329 0.0
O80 O 0.65858 0.68257 0.33896 0.0
Zn81 Zn 0.67482 0.70318 0.35083 0.0
O82 O 0.66583 0.71127 0.36668 0.0
C83 C 0.67637 0.72095 0.32592 0.0
O84 O 0.66153 0.71194 0.32686 0.0
O85 O 0.68972 0.69938 0.36231 0.0
C86 C 0.6521 0.7078 0.36603 0.0
O87 O 0.6425 0.69814 0.35423 0.0
C88 C 0.64967 0.6706 0.34608 0.0
O89 O 0.65068 0.67183 0.36161 0.0
O90 O 0.68515 0.71937 0.33525 0.0
C91 C 0.3184 0.96124 0.3745 0.0
O92 O 0.3093 0.96466 0.36729 0.0
O93 O 0.30731 0.97935 0.40983 0.0
Zn94 Zn 0.29909 0.95753 0.39929 0.0
O95 O 0.28205 0.95171 0.3829 0.0
C96 C 0.27826 0.93822 0.42074 0.0
O97 O 0.27119 0.94486 0.41541 0.0
O98 O 0.3162 0.95751 0.38861 0.0
C99 C 0.27462 0.93784 0.37586 0.0
O100 O 0.27795 0.92752 0.37982 0.0
C101 C 0.30775 0.98995 0.40207 0.0
O102 O 0.30244 0.98635 0.38718 0.0
O103 O 0.29102 0.9419 0.41555 0.0
C104 C 0.04814 0.35774 0.3384 0.0
O105 O 0.04008 0.34298 0.3322 0.0
O106 O 0.04111 0.32895 0.36522 0.0
Zn107 Zn 0.06066 0.344 0.3557 0.0
O108 O 0.06391 0.33385 0.33631 0.0
C109 C 0.07925 0.36123 0.38393 0.0
O110 O 0.06935 0.36561 0.38461 0.0
O111 O 0.0586 0.36169 0.34919 0.0
C112 C 0.06795 0.32392 0.33642 0.0
O113 O 0.07007 0.31956 0.34999 0.0
C114 C 0.03015 0.31607 0.35822 0.0
O115 O 0.03158 0.3114 0.34392 0.0
O116 O 0.0781 0.35205 0.37218 0.0
C117 C 0.64461 0.96725 0.35268 0.0
O118 O 0.65718 0.96968 0.34675 0.0
O119 O 0.67355 0.98348 0.3898 0.0
Zn120 Zn 0.65798 0.96179 0.37928 0.0
O121 O 0.66763 0.95359 0.36449 0.0
C122 C 0.65725 0.94788 0.40746 0.0
O123 O 0.67178 0.95918 0.40821 0.0
O124 O 0.64208 0.96334 0.36672 0.0
C125 C 0.68113 0.95648 0.36641 0.0
O126 O 0.68994 0.96554 0.37891 0.0
C127 C 0.68378 0.99431 0.38233 0.0
O128 O 0.68452 0.99133 0.36722 0.0
O129 O 0.6485 0.94662 0.39591 0.0
C130 C 0.00789 0.69954 0.35532 0.0
O131 O 0.01468 0.69161 0.35584 0.0
O132 O 0.03367 0.70109 0.33027 0.0
Zn133 Zn 0.03572 0.71987 0.34286 0.0
O134 O 0.05012 0.72604 0.36212 0.0
C135 C 0.03826 0.7358 0.31521 0.0
O136 O 0.02699 0.72162 0.30961 0.0
O137 O 0.0149 0.71302 0.35002 0.0
C138 C 0.06448 0.73281 0.36138 0.0
O139 O 0.07026 0.73596 0.34757 0.0
C140 C 0.04268 0.70133 0.32029 0.0
O141 O 0.05483 0.71488 0.3176 0.0
O142 O 0.04357 0.73802 0.32944 0.0
C143 C 0.29153 0.31943 0.39744 0.0
O144 O 0.29223 0.33027 0.40763 0.0
O145 O 0.30082 0.35037 0.36552 0.0
Zn146 Zn 0.28232 0.3342 0.37568 0.0
O147 O 0.2775 0.34421 0.39403 0.0
C148 C 0.2645 0.31558 0.3472 0.0
O149 O 0.27621 0.314 0.34552 0.0
O150 O 0.28709 0.31849 0.38309 0.0
C151 C 0.26529 0.33538 0.40061 0.0
O152 O 0.25643 0.32049 0.39497 0.0
C153 C 0.31388 0.35782 0.37307 0.0
O154 O 0.31497 0.35565 0.38799 0.0
O155 O 0.26447 0.32357 0.35943 0.0
C156 C 0.35534 0.02993 0.70457 0.0
O157 O 0.34101 0.02325 0.70793 0.0
O158 O 0.32868 0.01689 0.66884 0.0
Zn159 Zn 0.3437 0.03869 0.67952 0.0
O160 O 0.33292 0.04567 0.694 0.0
C161 C 0.35242 0.05013 0.64869 0.0
O162 O 0.34573 0.03502 0.64397 0.0
O163 O 0.35964 0.0377 0.69254 0.0
C164 C 0.33976 0.05993 0.69997 0.0
O165 O 0.35379 0.06992 0.69639 0.0
C166 C 0.31596 0.00768 0.67444 0.0
O167 O 0.31238 0.01256 0.68735 0.0
O168 O 0.35322 0.05437 0.6633 0.0
C169 C 0.0009 0.2972 0.72208 0.0
O170 O 6e-05 0.30311 0.73601 0.0
O171 O 0.97126 0.30316 0.73044 0.0
Zn172 Zn 0.96828 0.28298 0.72022 0.0
O173 O 0.95387 0.27556 0.70075 0.0
C174 C 0.95091 0.26693 0.74547 0.0
O175 O 0.94764 0.27788 0.74487 0.0
O176 O 0.98865 0.28767 0.71357 0.0
C177 C 0.94255 0.27722 0.69978 0.0
O178 O 0.93982 0.28381 0.71204 0.0
C179 C 0.9788 0.31607 0.72417 0.0
O180 O 0.98443 0.31613 0.71048 0.0
O181 O 0.95981 0.2665 0.73574 0.0
C182 C 0.70687 0.68709 0.6702 0.0
O183 O 0.70018 0.67249 0.66366 0.0
O184 O 0.70348 0.65823 0.69327 0.0
Zn185 Zn 0.72272 0.67582 0.68541 0.0
O186 O 0.72787 0.66838 0.66543 0.0
C187 C 0.73955 0.69185 0.71491 0.0
O188 O 0.72834 0.69429 0.71618 0.0
O189 O 0.71804 0.69215 0.68042 0.0
C190 C 0.73192 0.65843 0.66476 0.0
O191 O 0.73287 0.6525 0.67774 0.0
C192 C 0.70303 0.64983 0.70401 0.0
O193 O 0.71583 0.65184 0.71003 0.0
O194 O 0.73986 0.68442 0.70237 0.0
C195 C 0.3157 0.31301 0.68608 0.0
O196 O 0.33005 0.31892 0.68314 0.0
O197 O 0.34126 0.32402 0.7205 0.0
Zn198 Zn 0.32576 0.30222 0.71018 0.0
O199 O 0.33564 0.2945 0.69511 0.0
C200 C 0.3224 0.28919 0.74009 0.0
O201 O 0.33568 0.30239 0.74358 0.0
O202 O 0.31049 0.30452 0.69753 0.0
C203 C 0.34135 0.28663 0.69916 0.0
O204 O 0.3412 0.2835 0.71394 0.0
C205 C 0.3554 0.32939 0.7232 0.0
O206 O 0.36066 0.32032 0.71942 0.0
O207 O 0.31565 0.28662 0.72649 0.0
C208 C 0.68364 0.041 0.68776 0.0
O209 O 0.69145 0.0356 0.69415 0.0
O210 O 0.69771 0.0266 0.65381 0.0
Zn211 Zn 0.70547 0.04803 0.66519 0.0
O212 O 0.72156 0.0531 0.6825 0.0
C213 C 0.72359 0.06363 0.64036 0.0
O214 O 0.72687 0.05276 0.64178 0.0
O215 O 0.6877 0.04747 0.67495 0.0
C216 C 0.73272 0.06715 0.68629 0.0
O217 O 0.73408 0.07859 0.67841 0.0
C218 C 0.69662 0.01528 0.6608 0.0
O219 O 0.70107 0.01766 0.67588 0.0
O220 O 0.7143 0.06416 0.64943 0.0
C221 C 0.95123 0.64752 0.72833 0.0
O222 O 0.95863 0.66183 0.73572 0.0
O223 O 0.96558 0.6779 0.70166 0.0
Zn224 Zn 0.94404 0.66351 0.70732 0.0
O225 O 0.93859 0.67398 0.72459 0.0
C226 C 0.92263 0.66318 0.68447 0.0
O227 O 0.9254 0.67571 0.69349 0.0
O228 O 0.94338 0.64491 0.71546 0.0
C229 C 0.92586 0.66541 0.73042 0.0
O230 O 0.91693 0.65059 0.72458 0.0
C231 C 0.96979 0.68824 0.69189 0.0
O232 O 0.95965 0.69051 0.68514 0.0
O233 O 0.92931 0.65613 0.68809 0.0
H234 H 0.16456 0.33221 0.05306 0.0
H235 H 0.22551 0.2658 0.16703 0.0
H236 H 0.15337 0.32561 0.1367 0.0
H237 H 0.13611 0.33282 0.12594 0.0
H238 H 0.09851 0.28423 0.12494 0.0
H239 H 0.11614 0.27704 0.13524 0.0
H240 H 0.17721 0.32568 0.11859 0.0
H241 H 0.17578 0.33282 0.09194 0.0
H242 H 0.13488 0.28672 0.07985 0.0
H243 H 0.13657 0.27967 0.1065 0.0
H244 H 0.19858 0.32031 0.14072 0.0
H245 H 0.21957 0.32857 0.12362 0.0
H246 H 0.19014 0.28822 0.09004 0.0
H247 H 0.16906 0.28004 0.10735 0.0
H248 H 0.19419 0.30921 0.1725 0.0
H249 H 0.21422 0.30474 0.18102 0.0
H250 H 0.19381 0.26261 0.14824 0.0
H251 H 0.17373 0.26711 0.13998 0.0
H252 H 0.16728 0.30977 0.18765 0.0
H253 H 0.17375 0.30666 0.21439 0.0
H254 H 0.16224 0.25942 0.19901 0.0
H255 H 0.1556 0.2626 0.17218 0.0
H256 H 0.14588 0.31657 0.1695 0.0
H257 H 0.13031 0.3163 0.19069 0.0
H258 H 0.11033 0.26608 0.19165 0.0
H259 H 0.12593 0.26645 0.17027 0.0
O260 O 0.16495 0.32912 0.06351 0.0
O261 O 0.1439 0.3053 0.05793 0.0
O262 O 0.22773 0.28956 0.1806 0.0
O263 O 0.21773 0.26785 0.16388 0.0
C264 C 0.14708 0.29641 0.1413 0.0
C265 C 0.15787 0.29778 0.13062 0.0
C266 C 0.16958 0.29541 0.13549 0.0
C267 C 0.1701 0.29094 0.15076 0.0
C268 C 0.15919 0.28933 0.16139 0.0
C269 C 0.14769 0.29213 0.15667 0.0
C270 C 0.13602 0.30079 0.13661 0.0
C271 C 0.14138 0.31655 0.13427 0.0
C272 C 0.13145 0.32066 0.12824 0.0
C273 C 0.11591 0.3091 0.12453 0.0
C274 C 0.11046 0.29338 0.12746 0.0
C275 C 0.12045 0.28926 0.13347 0.0
C276 C 0.15707 0.30211 0.11441 0.0
C277 C 0.16803 0.3171 0.11012 0.0
C278 C 0.16714 0.32117 0.09491 0.0
C279 C 0.15523 0.31033 0.08375 0.0
C280 C 0.14422 0.29534 0.08815 0.0
C281 C 0.14515 0.29128 0.10335 0.0
C282 C 0.18236 0.29952 0.12532 0.0
C283 C 0.19673 0.31312 0.12978 0.0
C284 C 0.2087 0.3178 0.12 0.0
C285 C 0.20652 0.30901 0.10551 0.0
C286 C 0.19211 0.29529 0.10109 0.0
C287 C 0.18012 0.29056 0.11096 0.0
C288 C 0.18244 0.2884 0.15574 0.0
C289 C 0.19402 0.29898 0.16725 0.0
C290 C 0.20547 0.29642 0.17205 0.0
C291 C 0.2056 0.28329 0.16534 0.0
C292 C 0.19404 0.27281 0.15368 0.0
C293 C 0.18257 0.27536 0.14892 0.0
C294 C 0.16093 0.2864 0.17798 0.0
C295 C 0.16573 0.29858 0.19014 0.0
C296 C 0.16943 0.29678 0.20541 0.0
C297 C 0.16853 0.2828 0.20879 0.0
C298 C 0.16315 0.27037 0.19671 0.0
C299 C 0.1593 0.27213 0.18144 0.0
C300 C 0.13694 0.29151 0.16825 0.0
C301 C 0.13786 0.30544 0.174 0.0
C302 C 0.12897 0.30526 0.18612 0.0
C303 C 0.1191 0.29116 0.19283 0.0
C304 C 0.11793 0.27713 0.18679 0.0
C305 C 0.12674 0.27731 0.17455 0.0
C306 C 0.1543 0.3147 0.06761 0.0
C307 C 0.21771 0.28048 0.17044 0.0
H308 H 0.67567 0.83991 0.06838 0.0
H309 H 0.74227 0.97172 0.20126 0.0
H310 H 0.68112 0.83354 0.15186 0.0
H311 H 0.67333 0.80725 0.14001 0.0
H312 H 0.71954 0.81847 0.14831 0.0
H313 H 0.72733 0.84499 0.16006 0.0
H314 H 0.68192 0.85891 0.1361 0.0
H315 H 0.67511 0.8504 0.10786 0.0
H316 H 0.71894 0.85555 0.10288 0.0
H317 H 0.72568 0.86424 0.13111 0.0
H318 H 0.68818 0.88731 0.16194 0.0
H319 H 0.68029 0.90042 0.14448 0.0
H320 H 0.71712 0.90997 0.11514 0.0
H321 H 0.72534 0.89718 0.13308 0.0
H322 H 0.69786 0.893 0.19449 0.0
H323 H 0.70302 0.91867 0.2055 0.0
H324 H 0.74442 0.94196 0.18095 0.0
H325 H 0.73923 0.91618 0.17021 0.0
H326 H 0.69509 0.86378 0.20668 0.0
H327 H 0.69669 0.87365 0.23405 0.0
H328 H 0.74402 0.91025 0.23053 0.0
H329 H 0.74212 0.90038 0.20285 0.0
H330 H 0.68911 0.83439 0.18686 0.0
H331 H 0.68905 0.81681 0.20542 0.0
H332 H 0.73788 0.84825 0.21503 0.0
H333 H 0.73781 0.86581 0.19636 0.0
O334 O 0.67862 0.84335 0.07951 0.0
O335 O 0.70126 0.84609 0.07761 0.0
O336 O 0.71865 0.94885 0.20958 0.0
O337 O 0.73996 0.96141 0.19707 0.0
C338 C 0.70943 0.85741 0.16295 0.0
C339 C 0.70851 0.86749 0.15277 0.0
C340 C 0.71113 0.88221 0.15899 0.0
C341 C 0.71532 0.88714 0.17527 0.0
C342 C 0.71631 0.87708 0.18545 0.0
C343 C 0.71333 0.86219 0.17929 0.0
C344 C 0.70482 0.84122 0.15661 0.0
C345 C 0.68958 0.83035 0.15107 0.0
C346 C 0.68516 0.81537 0.14429 0.0
C347 C 0.69588 0.8109 0.14309 0.0
C348 C 0.71106 0.82162 0.14912 0.0
C349 C 0.71552 0.83673 0.15579 0.0
C350 C 0.70435 0.86233 0.13561 0.0
C351 C 0.69007 0.85831 0.12886 0.0
C352 C 0.68619 0.85339 0.11274 0.0
C353 C 0.69649 0.85232 0.1031 0.0
C354 C 0.71076 0.85627 0.10995 0.0
C355 C 0.71464 0.86123 0.12607 0.0
C356 C 0.70744 0.89145 0.1489 0.0
C357 C 0.69481 0.89258 0.15199 0.0
C358 C 0.69028 0.90002 0.14198 0.0
C359 C 0.69814 0.90623 0.12851 0.0
C360 C 0.71087 0.90522 0.12544 0.0
C361 C 0.71559 0.898 0.13567 0.0
C362 C 0.71827 0.90274 0.18171 0.0
C363 C 0.70809 0.90366 0.19161 0.0
C364 C 0.71104 0.91833 0.19783 0.0
C365 C 0.72416 0.93237 0.19414 0.0
C366 C 0.73423 0.93138 0.18406 0.0
C367 C 0.73129 0.91669 0.17789 0.0
C368 C 0.71847 0.88137 0.20279 0.0
C369 C 0.70593 0.87364 0.21195 0.0
C370 C 0.7069 0.87932 0.22764 0.0
C371 C 0.72047 0.89283 0.23451 0.0
C372 C 0.73333 0.89997 0.22554 0.0
C373 C 0.73232 0.89429 0.20978 0.0
C374 C 0.71348 0.85129 0.19016 0.0
C375 C 0.69982 0.83736 0.19281 0.0
C376 C 0.69982 0.82733 0.20339 0.0
C377 C 0.71348 0.83111 0.21163 0.0
C378 C 0.72717 0.84508 0.20893 0.0
C379 C 0.72716 0.85508 0.19825 0.0
C380 C 0.69233 0.84707 0.08598 0.0
C381 C 0.72737 0.948 0.20076 0.0
H382 H 0.15287 0.85226 0.05641 0.0
H383 H 0.27224 0.95289 0.19004 0.0
H384 H 0.13705 0.85693 0.13729 0.0
H385 H 0.11469 0.8314 0.12658 0.0
H386 H 0.13233 0.80734 0.15111 0.0
H387 H 0.1545 0.83277 0.16167 0.0
H388 H 0.16786 0.88407 0.1205 0.0
H389 H 0.16152 0.87457 0.0924 0.0
H390 H 0.16245 0.83328 0.10188 0.0
H391 H 0.16896 0.84301 0.12991 0.0
H392 H 0.20059 0.91251 0.13818 0.0
H393 H 0.22241 0.9243 0.12168 0.0
H394 H 0.22214 0.88098 0.11904 0.0
H395 H 0.20071 0.86953 0.13579 0.0
H396 H 0.1968 0.91817 0.1766 0.0
H397 H 0.22172 0.94163 0.18568 0.0
H398 H 0.24306 0.91514 0.17575 0.0
H399 H 0.21806 0.89175 0.16689 0.0
H400 H 0.16945 0.89493 0.19737 0.0
H401 H 0.17676 0.90242 0.22584 0.0
H402 H 0.2073 0.88548 0.22252 0.0
H403 H 0.19981 0.87791 0.19431 0.0
H404 H 0.13817 0.86468 0.17674 0.0
H405 H 0.11981 0.84897 0.19571 0.0
H406 H 0.14996 0.83439 0.21186 0.0
H407 H 0.16801 0.84981 0.19271 0.0
O408 O 0.15546 0.85583 0.06756 0.0
O409 O 0.15602 0.83479 0.07306 0.0
O410 O 0.25069 0.95684 0.19156 0.0
O411 O 0.26224 0.94378 0.18656 0.0
C412 C 0.16168 0.86193 0.15545 0.0
C413 C 0.17244 0.86998 0.14429 0.0
C414 C 0.18694 0.8834 0.14938 0.0
C415 C 0.19048 0.88915 0.16555 0.0
C416 C 0.17971 0.88112 0.17669 0.0
C417 C 0.16533 0.86749 0.17165 0.0
C418 C 0.14732 0.84668 0.15033 0.0
C419 C 0.13592 0.84612 0.1405 0.0
C420 C 0.12323 0.83156 0.13435 0.0
C421 C 0.12175 0.81736 0.13801 0.0
C422 C 0.13299 0.81803 0.14827 0.0
C423 C 0.14567 0.83256 0.15432 0.0
C424 C 0.16873 0.86416 0.12724 0.0
C425 C 0.16671 0.87299 0.11646 0.0
C426 C 0.16307 0.86752 0.10043 0.0
C427 C 0.16143 0.85313 0.0949 0.0
C428 C 0.16358 0.84438 0.10575 0.0
C429 C 0.16725 0.84988 0.12177 0.0
C430 C 0.19908 0.89018 0.13814 0.0
C431 C 0.20519 0.90557 0.13389 0.0
C432 C 0.21758 0.91223 0.12444 0.0
C433 C 0.22405 0.90359 0.11917 0.0
C434 C 0.21756 0.88801 0.12311 0.0
C435 C 0.20522 0.88139 0.13253 0.0
C436 C 0.20566 0.90333 0.17097 0.0
C437 C 0.20688 0.91748 0.17641 0.0
C438 C 0.22112 0.93085 0.18157 0.0
C439 C 0.2344 0.93027 0.18139 0.0
C440 C 0.23309 0.91601 0.176 0.0
C441 C 0.21883 0.90265 0.17088 0.0
C442 C 0.18417 0.88597 0.19382 0.0
C443 C 0.17771 0.89288 0.20285 0.0
C444 C 0.18192 0.89716 0.21905 0.0
C445 C 0.19253 0.89444 0.22641 0.0
C446 C 0.19893 0.8875 0.21725 0.0
C447 C 0.19479 0.88332 0.20112 0.0
C448 C 0.15443 0.85844 0.18345 0.0
C449 C 0.14078 0.85811 0.18443 0.0
C450 C 0.13037 0.84921 0.19529 0.0
C451 C 0.13343 0.84042 0.20524 0.0
C452 C 0.14719 0.84088 0.20422 0.0
C453 C 0.15757 0.84979 0.19342 0.0
C454 C 0.15748 0.84732 0.07787 0.0
C455 C 0.24956 0.94446 0.18682 0.0
H456 H 0.29276 0.16388 0.99662 0.0
H457 H 0.30663 0.05689 0.87359 0.0
H458 H 0.27691 0.16019 0.91319 0.0
H459 H 0.28395 0.18685 0.92354 0.0
H460 H 0.3276 0.20634 0.90343 0.0
H461 H 0.32065 0.17978 0.89351 0.0
H462 H 0.27552 0.13148 0.93269 0.0
H463 H 0.27848 0.14154 0.96045 0.0
H464 H 0.32449 0.17962 0.95396 0.0
H465 H 0.32144 0.16931 0.9263 0.0
H466 H 0.2767 0.10075 0.91758 0.0
H467 H 0.28337 0.08765 0.93663 0.0
H468 H 0.32964 0.12833 0.94232 0.0
H469 H 0.32284 0.14126 0.92347 0.0
H470 H 0.26998 0.09505 0.87858 0.0
H471 H 0.26962 0.0708 0.87147 0.0
H472 H 0.31774 0.09524 0.88629 0.0
H473 H 0.31796 0.11944 0.89317 0.0
H474 H 0.26958 0.11735 0.85552 0.0
H475 H 0.27055 0.1083 0.82818 0.0
H476 H 0.31864 0.12664 0.83746 0.0
H477 H 0.31756 0.13564 0.86451 0.0
H478 H 0.27017 0.14971 0.87367 0.0
H479 H 0.27007 0.16659 0.85414 0.0
H480 H 0.31596 0.18049 0.84381 0.0
H481 H 0.316 0.16371 0.86339 0.0
O482 O 0.29186 0.16007 0.98564 0.0
O483 O 0.31541 0.17946 0.98166 0.0
O484 O 0.28175 0.05432 0.8687 0.0
O485 O 0.30645 0.06632 0.87626 0.0
C486 C 0.29528 0.15206 0.89849 0.0
C487 C 0.29626 0.1436 0.91061 0.0
C488 C 0.29586 0.12948 0.90671 0.0
C489 C 0.29409 0.12361 0.8907 0.0
C490 C 0.29307 0.13206 0.8786 0.0
C491 C 0.29354 0.14621 0.88249 0.0
C492 C 0.29825 0.1681 0.90257 0.0
C493 C 0.28785 0.17028 0.91079 0.0
C494 C 0.29188 0.18547 0.91665 0.0
C495 C 0.30638 0.19862 0.9144 0.0
C496 C 0.31644 0.1964 0.90551 0.0
C497 C 0.31242 0.18127 0.89968 0.0
C498 C 0.29821 0.14975 0.92747 0.0
C499 C 0.28623 0.14198 0.93731 0.0
C500 C 0.28795 0.14776 0.95314 0.0
C501 C 0.3017 0.16142 0.95941 0.0
C502 C 0.31373 0.16911 0.9495 0.0
C503 C 0.312 0.16329 0.93369 0.0
C504 C 0.29927 0.12196 0.91923 0.0
C505 C 0.2882 0.10686 0.92313 0.0
C506 C 0.29206 0.0994 0.93394 0.0
C507 C 0.30704 0.10697 0.94101 0.0
C508 C 0.31795 0.12228 0.93734 0.0
C509 C 0.3141 0.12968 0.92653 0.0
C510 C 0.29396 0.10893 0.8865 0.0
C511 C 0.28042 0.09512 0.88027 0.0
C512 C 0.28025 0.0813 0.87623 0.0
C513 C 0.29365 0.08107 0.87836 0.0
C514 C 0.30722 0.09499 0.88455 0.0
C515 C 0.30737 0.10881 0.88854 0.0
C516 C 0.2935 0.12709 0.86192 0.0
C517 C 0.28031 0.11947 0.85153 0.0
C518 C 0.28088 0.11428 0.83601 0.0
C519 C 0.29469 0.11684 0.83068 0.0
C520 C 0.3079 0.12472 0.84113 0.0
C521 C 0.30728 0.12976 0.8566 0.0
C522 C 0.29305 0.15544 0.86984 0.0
C523 C 0.28011 0.15628 0.86704 0.0
C524 C 0.28006 0.16586 0.85588 0.0
C525 C 0.29303 0.17488 0.84751 0.0
C526 C 0.30587 0.17379 0.8502 0.0
C527 C 0.30587 0.16412 0.86125 0.0
C528 C 0.30347 0.16757 0.97622 0.0
C529 C 0.29353 0.06641 0.87413 0.0
H530 H 0.82763 0.15314 0.00469 0.0
H531 H 0.74955 0.02432 0.87016 0.0
H532 H 0.83758 0.16094 0.92134 0.0
H533 H 0.85802 0.18689 0.93308 0.0
H534 H 0.89092 0.17367 0.92455 0.0
H535 H 0.87014 0.14736 0.91334 0.0
H536 H 0.812 0.1358 0.9367 0.0
H537 H 0.81505 0.14383 0.96505 0.0
H538 H 0.85242 0.13647 0.97006 0.0
H539 H 0.84911 0.12827 0.94171 0.0
H540 H 0.78741 0.10825 0.91086 0.0
H541 H 0.76671 0.09544 0.92831 0.0
H542 H 0.79376 0.08349 0.95656 0.0
H543 H 0.81442 0.09608 0.9387 0.0
H544 H 0.79008 0.1032 0.87759 0.0
H545 H 0.76758 0.07819 0.86635 0.0
H546 H 0.78372 0.0527 0.89069 0.0
H547 H 0.80626 0.0778 0.9017 0.0
H548 H 0.81864 0.13296 0.86647 0.0
H549 H 0.81207 0.12628 0.8381 0.0
H550 H 0.81739 0.08654 0.84028 0.0
H551 H 0.82411 0.09344 0.86887 0.0
H552 H 0.84333 0.16013 0.88601 0.0
H553 H 0.86083 0.17698 0.86716 0.0
H554 H 0.87504 0.14391 0.85812 0.0
H555 H 0.85766 0.12724 0.87727 0.0
O556 O 0.8266 0.14988 0.99351 0.0
O557 O 0.8458 0.14602 0.99543 0.0
O558 O 0.7506 0.04805 0.86209 0.0
O559 O 0.75836 0.03439 0.87442 0.0
C560 C 0.83963 0.13635 0.91005 0.0
C561 C 0.82839 0.12641 0.91997 0.0
C562 C 0.81525 0.11208 0.91345 0.0
C563 C 0.81361 0.10747 0.89708 0.0
C564 C 0.82483 0.11744 0.88714 0.0
C565 C 0.8379 0.13183 0.89366 0.0
C566 C 0.85237 0.15224 0.91664 0.0
C567 C 0.8492 0.16363 0.92208 0.0
C568 C 0.86093 0.17851 0.92862 0.0
C569 C 0.87614 0.18239 0.92971 0.0
C570 C 0.87931 0.17099 0.92405 0.0
C571 C 0.8675 0.15602 0.91756 0.0
C572 C 0.83024 0.13131 0.9372 0.0
C573 C 0.82076 0.13582 0.94397 0.0
C574 C 0.82257 0.14045 0.96015 0.0
C575 C 0.83396 0.14076 0.96983 0.0
C576 C 0.84351 0.13634 0.96295 0.0
C577 C 0.84166 0.13166 0.94677 0.0
C578 C 0.80236 0.10297 0.92342 0.0
C579 C 0.78874 0.10254 0.92058 0.0
C580 C 0.77696 0.09527 0.93058 0.0
C581 C 0.77865 0.08847 0.94376 0.0
C582 C 0.79223 0.08873 0.94652 0.0
C583 C 0.80397 0.09583 0.93633 0.0
C584 C 0.79987 0.0923 0.89032 0.0
C585 C 0.78879 0.0922 0.88038 0.0
C586 C 0.77592 0.0779 0.87403 0.0
C587 C 0.77387 0.06343 0.8776 0.0
C588 C 0.78496 0.06361 0.88768 0.0
C589 C 0.79784 0.07792 0.89399 0.0
C590 C 0.82198 0.11377 0.8697 0.0
C591 C 0.8187 0.123 0.86078 0.0
C592 C 0.81497 0.11918 0.84456 0.0
C593 C 0.81429 0.10593 0.83693 0.0
C594 C 0.81776 0.09677 0.84586 0.0
C595 C 0.82164 0.10071 0.86214 0.0
C596 C 0.84932 0.14254 0.88307 0.0
C597 C 0.8504 0.15666 0.88015 0.0
C598 C 0.86028 0.16617 0.86927 0.0
C599 C 0.86923 0.16171 0.8611 0.0
C600 C 0.86837 0.14771 0.86433 0.0
C601 C 0.85844 0.13817 0.8752 0.0
C602 C 0.83586 0.1457 0.98702 0.0
C603 C 0.76023 0.04821 0.87087 0.0
H604 H 0.87894 0.71751 0.022 0.0
H605 H 0.75204 0.69762 0.91045 0.0
H606 H 0.88423 0.72922 0.94029 0.0
H607 H 0.9036 0.72392 0.94925 0.0
H608 H 0.87702 0.67701 0.92474 0.0
H609 H 0.85779 0.68243 0.91583 0.0
H610 H 0.85967 0.73051 0.96271 0.0
H611 H 0.86878 0.72947 0.98918 0.0
H612 H 0.85713 0.68177 0.97587 0.0
H613 H 0.84786 0.6829 0.94953 0.0
H614 H 0.82792 0.72842 0.95038 0.0
H615 H 0.80917 0.72251 0.97012 0.0
H616 H 0.80025 0.67525 0.96986 0.0
H617 H 0.81885 0.68121 0.95018 0.0
H618 H 0.82799 0.7339 0.91274 0.0
H619 H 0.80494 0.73466 0.90848 0.0
H620 H 0.77725 0.68576 0.91813 0.0
H621 H 0.80037 0.68511 0.92217 0.0
H622 H 0.85077 0.73319 0.88794 0.0
H623 H 0.84068 0.73324 0.86151 0.0
H624 H 0.80283 0.68535 0.86414 0.0
H625 H 0.81286 0.68555 0.89053 0.0
H626 H 0.87995 0.73059 0.90159 0.0
H627 H 0.89251 0.72904 0.87804 0.0
H628 H 0.8529 0.68277 0.8632 0.0
H629 H 0.84055 0.68439 0.8867 0.0
O630 O 0.87515 0.71761 0.01151 0.0
O631 O 0.86906 0.69316 0.00403 0.0
O632 O 0.77609 0.72272 0.90704 0.0
O633 O 0.76135 0.69763 0.91203 0.0
C634 C 0.85643 0.70805 0.92497 0.0
C635 C 0.8481 0.70774 0.93801 0.0
C636 C 0.83468 0.70796 0.93566 0.0
C637 C 0.82988 0.70911 0.92038 0.0
C638 C 0.83821 0.70944 0.90735 0.0
C639 C 0.85138 0.7087 0.90961 0.0
C640 C 0.86961 0.7062 0.92744 0.0
C641 C 0.88282 0.71796 0.93653 0.0
C642 C 0.89378 0.71486 0.94174 0.0
C643 C 0.89174 0.69998 0.93785 0.0
C644 C 0.879 0.68862 0.92783 0.0
C645 C 0.86801 0.69171 0.92269 0.0
C646 C 0.85323 0.70684 0.95418 0.0
C647 C 0.85904 0.71983 0.96557 0.0
C648 C 0.86426 0.71921 0.98066 0.0
C649 C 0.86374 0.70556 0.98462 0.0
C650 C 0.85774 0.69249 0.97319 0.0
C651 C 0.85248 0.69311 0.95813 0.0
C652 C 0.82474 0.70524 0.94888 0.0
C653 C 0.82204 0.71688 0.95477 0.0
C654 C 0.81132 0.71347 0.96597 0.0
C655 C 0.80325 0.69841 0.97152 0.0
C656 C 0.80645 0.68702 0.96601 0.0
C657 C 0.81705 0.69039 0.95475 0.0
C658 C 0.81584 0.70949 0.91786 0.0
C659 C 0.81693 0.72337 0.91391 0.0
C660 C 0.80375 0.72377 0.9115 0.0
C661 C 0.78924 0.71027 0.913 0.0
C662 C 0.78822 0.69637 0.91692 0.0
C663 C 0.80141 0.69597 0.91928 0.0
C664 C 0.83245 0.70943 0.89117 0.0
C665 C 0.84031 0.72274 0.88275 0.0
C666 C 0.83457 0.7227 0.86765 0.0
C667 C 0.82088 0.70934 0.86077 0.0
C668 C 0.81322 0.69595 0.86921 0.0
C669 C 0.81895 0.69601 0.88425 0.0
C670 C 0.8593 0.70767 0.89574 0.0
C671 C 0.87406 0.72012 0.89326 0.0
C672 C 0.8812 0.7192 0.87985 0.0
C673 C 0.87361 0.70586 0.86871 0.0
C674 C 0.85891 0.69333 0.87141 0.0
C675 C 0.85186 0.69421 0.88483 0.0
C676 C 0.86945 0.705 0.00061 0.0
C677 C 0.77521 0.71065 0.9105 0.0
H678 H 0.81961 0.65753 0.37402 0.0
H679 H 0.89404 0.6101 0.49494 0.0
H680 H 0.81671 0.66142 0.46033 0.0
H681 H 0.79926 0.66855 0.44977 0.0
H682 H 0.76133 0.62062 0.45176 0.0
H683 H 0.77903 0.61353 0.46234 0.0
H684 H 0.8377 0.65924 0.44025 0.0
H685 H 0.83391 0.663 0.41277 0.0
H686 H 0.79387 0.61558 0.40623 0.0
H687 H 0.79791 0.61193 0.4337 0.0
H688 H 0.86057 0.65817 0.46162 0.0
H689 H 0.88069 0.6646 0.44368 0.0
H690 H 0.85192 0.61901 0.41711 0.0
H691 H 0.83173 0.61261 0.43531 0.0
H692 H 0.85996 0.65087 0.4952 0.0
H693 H 0.88146 0.64876 0.50388 0.0
H694 H 0.86013 0.60286 0.47733 0.0
H695 H 0.83861 0.60506 0.46889 0.0
H696 H 0.83363 0.65227 0.5107 0.0
H697 H 0.84242 0.65349 0.53798 0.0
H698 H 0.83226 0.6058 0.5294 0.0
H699 H 0.82292 0.60449 0.50217 0.0
H700 H 0.80974 0.65469 0.49428 0.0
H701 H 0.79494 0.65505 0.51603 0.0
H702 H 0.77653 0.60538 0.51939 0.0
H703 H 0.79151 0.6052 0.49766 0.0
O704 O 0.82096 0.65576 0.38483 0.0
O705 O 0.80044 0.63132 0.3821 0.0
O706 O 0.89613 0.63485 0.50521 0.0
O707 O 0.88568 0.61124 0.49169 0.0
C708 C 0.81025 0.63267 0.4667 0.0
C709 C 0.82033 0.633 0.45563 0.0
C710 C 0.83264 0.63161 0.46058 0.0
C711 C 0.83453 0.62924 0.47642 0.0
C712 C 0.82427 0.62857 0.48744 0.0
C713 C 0.81203 0.63017 0.48255 0.0
C714 C 0.79913 0.63694 0.46194 0.0
C715 C 0.80462 0.65248 0.45857 0.0
C716 C 0.79466 0.6565 0.45248 0.0
C717 C 0.77898 0.64508 0.44974 0.0
C718 C 0.77337 0.62965 0.45378 0.0
C719 C 0.78342 0.62558 0.4598 0.0
C720 C 0.81818 0.63525 0.43889 0.0
C721 C 0.82822 0.64963 0.43281 0.0
C722 C 0.82597 0.65176 0.41713 0.0
C723 C 0.8136 0.63957 0.40729 0.0
C724 C 0.80353 0.6252 0.41348 0.0
C725 C 0.80581 0.62307 0.42915 0.0
C726 C 0.84477 0.63492 0.44977 0.0
C727 C 0.85864 0.64955 0.45197 0.0
C728 C 0.87004 0.65325 0.44164 0.0
C729 C 0.8678 0.64235 0.42894 0.0
C730 C 0.85393 0.62759 0.42684 0.0
C731 C 0.84243 0.62393 0.43716 0.0
C732 C 0.84768 0.62805 0.48155 0.0
C733 C 0.85992 0.64034 0.49136 0.0
C734 C 0.8722 0.63912 0.49625 0.0
C735 C 0.8725 0.62562 0.49133 0.0
C736 C 0.86026 0.6134 0.48137 0.0
C737 C 0.84796 0.61462 0.47651 0.0
C738 C 0.8276 0.62828 0.50447 0.0
C739 C 0.83292 0.64194 0.51483 0.0
C740 C 0.83811 0.64268 0.53035 0.0
C741 C 0.83822 0.62982 0.53579 0.0
C742 C 0.83223 0.61587 0.52559 0.0
C743 C 0.82696 0.61511 0.51004 0.0
C744 C 0.8016 0.6299 0.49433 0.0
C745 C 0.80223 0.64381 0.49946 0.0
C746 C 0.79377 0.64398 0.5119 0.0
C747 C 0.78459 0.63024 0.51947 0.0
C748 C 0.78363 0.61619 0.51393 0.0
C749 C 0.79208 0.61603 0.50147 0.0
C750 C 0.81122 0.6419 0.39065 0.0
C751 C 0.8855 0.62424 0.49652 0.0
H752 H 0.34695 0.1811 0.39684 0.0
H753 H 0.39027 0.29811 0.53939 0.0
H754 H 0.34642 0.16734 0.47848 0.0
H755 H 0.34108 0.14213 0.46602 0.0
H756 H 0.3874 0.15576 0.47904 0.0
H757 H 0.39281 0.18132 0.49128 0.0
H758 H 0.34563 0.19218 0.46503 0.0
H759 H 0.3418 0.18649 0.43627 0.0
H760 H 0.38819 0.19767 0.43467 0.0
H761 H 0.39193 0.2035 0.46344 0.0
H762 H 0.34581 0.21462 0.4931 0.0
H763 H 0.33705 0.22867 0.47828 0.0
H764 H 0.37803 0.24904 0.45304 0.0
H765 H 0.38689 0.23495 0.46821 0.0
H766 H 0.35432 0.21964 0.52638 0.0
H767 H 0.35557 0.24299 0.53895 0.0
H768 H 0.39799 0.27296 0.5178 0.0
H769 H 0.39671 0.24949 0.50549 0.0
H770 H 0.35513 0.19091 0.53686 0.0
H771 H 0.35427 0.19817 0.56462 0.0
H772 H 0.39898 0.2406 0.56389 0.0
H773 H 0.4 0.23285 0.53624 0.0
H774 H 0.35224 0.16486 0.51348 0.0
H775 H 0.35257 0.14616 0.5302 0.0
H776 H 0.39971 0.18071 0.54577 0.0
H777 H 0.39937 0.19933 0.52874 0.0
O778 O 0.34874 0.18348 0.4082 0.0
O779 O 0.37266 0.18931 0.40803 0.0
O780 O 0.36775 0.27274 0.54531 0.0
O781 O 0.38951 0.28867 0.5346 0.0
C782 C 0.37294 0.19147 0.49313 0.0
C783 C 0.37149 0.20181 0.48378 0.0
C784 C 0.37193 0.21511 0.49111 0.0
C785 C 0.37487 0.21869 0.50765 0.0
C786 C 0.37659 0.20853 0.51702 0.0
C787 C 0.37543 0.19479 0.50977 0.0
C788 C 0.37006 0.17627 0.48556 0.0
C789 C 0.3555 0.16502 0.47843 0.0
C790 C 0.35247 0.15063 0.47134 0.0
C791 C 0.36388 0.14708 0.47145 0.0
C792 C 0.37842 0.15823 0.47882 0.0
C793 C 0.38152 0.17279 0.48576 0.0
C794 C 0.36912 0.19843 0.46629 0.0
C795 C 0.355 0.19354 0.45843 0.0
C796 C 0.35282 0.19023 0.44201 0.0
C797 C 0.3647 0.19166 0.43316 0.0
C798 C 0.37881 0.19648 0.44112 0.0
C799 C 0.38098 0.19982 0.45754 0.0
C800 C 0.36707 0.22394 0.48187 0.0
C801 C 0.353 0.22226 0.4845 0.0
C802 C 0.34802 0.23028 0.47604 0.0
C803 C 0.35694 0.24006 0.46463 0.0
C804 C 0.37094 0.24156 0.46177 0.0
C805 C 0.37602 0.23359 0.47042 0.0
C806 C 0.37552 0.23288 0.51519 0.0
C807 C 0.36393 0.23126 0.52459 0.0
C808 C 0.36464 0.24462 0.5317 0.0
C809 C 0.37691 0.25986 0.52941 0.0
C810 C 0.38841 0.26141 0.51984 0.0
C811 C 0.38771 0.24803 0.51278 0.0
C812 C 0.37761 0.21137 0.53452 0.0
C813 C 0.36497 0.20148 0.54284 0.0
C814 C 0.36442 0.20576 0.55864 0.0
C815 C 0.37644 0.22011 0.56637 0.0
C816 C 0.38956 0.22944 0.55831 0.0
C817 C 0.39016 0.22507 0.54251 0.0
C818 C 0.37584 0.18339 0.51973 0.0
C819 C 0.36272 0.16831 0.5203 0.0
C820 C 0.36292 0.15765 0.52985 0.0
C821 C 0.3762 0.16196 0.53921 0.0
C822 C 0.38931 0.17711 0.53872 0.0
C823 C 0.38915 0.18772 0.52899 0.0
C824 C 0.36234 0.1881 0.41572 0.0
C825 C 0.37772 0.27409 0.53694 0.0
H826 H 0.81972 0.18574 0.37678 0.0
H827 H 0.94093 0.29112 0.50685 0.0
H828 H 0.80622 0.18728 0.45889 0.0
H829 H 0.78501 0.16098 0.44826 0.0
H830 H 0.80671 0.13988 0.47108 0.0
H831 H 0.828 0.16613 0.48116 0.0
H832 H 0.83507 0.21642 0.44138 0.0
H833 H 0.82813 0.20718 0.41327 0.0
H834 H 0.8333 0.16799 0.42068 0.0
H835 H 0.84041 0.17748 0.44871 0.0
H836 H 0.86774 0.24682 0.45899 0.0
H837 H 0.88808 0.26022 0.44097 0.0
H838 H 0.89093 0.2188 0.4346 0.0
H839 H 0.87089 0.20567 0.45268 0.0
H840 H 0.86477 0.25098 0.49733 0.0
H841 H 0.88904 0.27552 0.50582 0.0
H842 H 0.91328 0.25273 0.49259 0.0
H843 H 0.88893 0.22823 0.48431 0.0
H844 H 0.83893 0.22599 0.51816 0.0
H845 H 0.84709 0.23395 0.54644 0.0
H846 H 0.88101 0.2217 0.54105 0.0
H847 H 0.87268 0.21362 0.51302 0.0
H848 H 0.80818 0.19384 0.49793 0.0
H849 H 0.79118 0.17663 0.51701 0.0
H850 H 0.82556 0.16718 0.53191 0.0
H851 H 0.8422 0.18397 0.51253 0.0
O852 O 0.82253 0.1892 0.38793 0.0
O853 O 0.82528 0.16923 0.39238 0.0
O854 O 0.91815 0.2927 0.51031 0.0
O855 O 0.93116 0.28156 0.50361 0.0
C856 C 0.83238 0.19444 0.47566 0.0
C857 C 0.84228 0.20326 0.46415 0.0
C858 C 0.85639 0.21738 0.46887 0.0
C859 C 0.86032 0.22303 0.48505 0.0
C860 C 0.85037 0.21427 0.49654 0.0
C861 C 0.83643 0.19995 0.49185 0.0
C862 C 0.81862 0.17859 0.4708 0.0
C863 C 0.80626 0.17694 0.46172 0.0
C864 C 0.79415 0.16193 0.45572 0.0
C865 C 0.79426 0.14837 0.45874 0.0
C866 C 0.80641 0.1501 0.46835 0.0
C867 C 0.81849 0.16507 0.47427 0.0
C868 C 0.8381 0.19754 0.4471 0.0
C869 C 0.8347 0.20585 0.43689 0.0
C870 C 0.83073 0.20054 0.42085 0.0
C871 C 0.83011 0.18681 0.41473 0.0
C872 C 0.83362 0.17857 0.42501 0.0
C873 C 0.83762 0.18393 0.44104 0.0
C874 C 0.86779 0.22524 0.45706 0.0
C875 C 0.8727 0.24064 0.45358 0.0
C876 C 0.88431 0.24826 0.44335 0.0
C877 C 0.89103 0.24051 0.43633 0.0
C878 C 0.8858 0.22497 0.4396 0.0
C879 C 0.87436 0.21745 0.44993 0.0
C880 C 0.87511 0.23789 0.49011 0.0
C881 C 0.87534 0.25133 0.49629 0.0
C882 C 0.88922 0.26532 0.50111 0.0
C883 C 0.90312 0.2661 0.49984 0.0
C884 C 0.90281 0.25255 0.49369 0.0
C885 C 0.88892 0.23856 0.48891 0.0
C886 C 0.85528 0.21931 0.51358 0.0
C887 C 0.84811 0.22505 0.52315 0.0
C888 C 0.85281 0.22962 0.53923 0.0
C889 C 0.86464 0.22838 0.54595 0.0
C890 C 0.87173 0.22259 0.53627 0.0
C891 C 0.8671 0.21811 0.52024 0.0
C892 C 0.82644 0.19021 0.50394 0.0
C893 C 0.81202 0.18808 0.50539 0.0
C894 C 0.80238 0.17833 0.51633 0.0
C895 C 0.80702 0.17051 0.52594 0.0
C896 C 0.82157 0.17286 0.52454 0.0
C897 C 0.83116 0.18258 0.51361 0.0
C898 C 0.82584 0.18117 0.39769 0.0
C899 C 0.91789 0.28094 0.50492 0.0
H900 H 0.00487 0.52023 0.33003 0.0
H901 H 0.00361 0.40833 0.20159 0.0
H902 H 0.97769 0.51117 0.24953 0.0
H903 H 0.98241 0.53717 0.25879 0.0
H904 H 0.02249 0.55945 0.23219 0.0
H905 H 0.01772 0.53348 0.22308 0.0
H906 H 0.98043 0.48546 0.26752 0.0
H907 H 0.98665 0.49652 0.2952 0.0
H908 H 0.03051 0.53479 0.28308 0.0
H909 H 0.02421 0.5235 0.25548 0.0
H910 H 0.97719 0.45463 0.24961 0.0
H911 H 0.9832 0.44022 0.26751 0.0
H912 H 0.03072 0.47826 0.27116 0.0
H913 H 0.02453 0.49262 0.25346 0.0
H914 H 0.96868 0.44791 0.21153 0.0
H915 H 0.96739 0.42331 0.20357 0.0
H916 H 0.01611 0.447 0.21464 0.0
H917 H 0.01726 0.47156 0.22235 0.0
H918 H 0.96549 0.47106 0.19069 0.0
H919 H 0.96177 0.45906 0.1635 0.0
H920 H 0.00886 0.47199 0.16621 0.0
H921 H 0.01254 0.48442 0.19293 0.0
H922 H 0.96715 0.5011 0.21183 0.0
H923 H 0.96245 0.51567 0.19294 0.0
H924 H 0.00538 0.52949 0.17312 0.0
H925 H 0.00976 0.51457 0.19184 0.0
O926 O 0.00267 0.51604 0.31904 0.0
O927 O 0.02505 0.5355 0.31218 0.0
O928 O 0.9788 0.40631 0.19898 0.0
O929 O 0.0038 0.4179 0.20463 0.0
C930 C 0.99538 0.50491 0.23113 0.0
C931 C 0.99798 0.49697 0.24272 0.0
C932 C 0.99708 0.48268 0.23829 0.0
C933 C 0.99377 0.47642 0.22228 0.0
C934 C 0.99133 0.48445 0.21067 0.0
C935 C 0.99184 0.49853 0.21514 0.0
C936 C 0.99736 0.52047 0.23564 0.0
C937 C 0.9874 0.52168 0.24562 0.0
C938 C 0.99015 0.53651 0.25093 0.0
C939 C 0.00285 0.55033 0.24624 0.0
C940 C 0.01252 0.54901 0.23585 0.0
C941 C 0.00983 0.5342 0.23065 0.0
C942 C 0.00185 0.50371 0.25951 0.0
C943 C 0.99139 0.49621 0.27089 0.0
C944 C 0.99496 0.50257 0.28668 0.0
C945 C 0.00907 0.51656 0.29135 0.0
C946 C 0.01954 0.52401 0.27988 0.0
C947 C 0.01597 0.51762 0.26411 0.0
C948 C 0.00043 0.47463 0.25026 0.0
C949 C 0.98885 0.4599 0.25446 0.0
C950 C 0.99232 0.45167 0.26459 0.0
C951 C 0.00746 0.45807 0.27068 0.0
C952 C 0.01893 0.47309 0.26684 0.0
C953 C 0.01544 0.4813 0.2567 0.0
C954 C 0.99304 0.46148 0.21758 0.0
C955 C 0.97905 0.44775 0.2122 0.0
C956 C 0.97835 0.43372 0.20768 0.0
C957 C 0.99165 0.43318 0.2085 0.0
C958 C 0.00565 0.44699 0.21389 0.0
C959 C 0.00634 0.46102 0.21836 0.0
C960 C 0.98926 0.47853 0.19376 0.0
C961 C 0.97503 0.47152 0.18524 0.0
C962 C 0.97291 0.46457 0.16978 0.0
C963 C 0.985 0.46451 0.16266 0.0
C964 C 0.99936 0.47202 0.17116 0.0
C965 C 0.00147 0.47903 0.1865 0.0
C966 C 0.98875 0.50674 0.20313 0.0
C967 C 0.97546 0.50718 0.2033 0.0
C968 C 0.97286 0.5156 0.19258 0.0
C969 C 0.98356 0.52379 0.18153 0.0
C970 C 0.99679 0.52313 0.1813 0.0
C971 C 0.99935 0.51466 0.192 0.0
C972 C 0.0128 0.52331 0.30812 0.0
C973 C 0.99096 0.4183 0.20374 0.0
H974 H 0.4919 0.49184 0.33858 0.0
H975 H 0.4088 0.36558 0.20252 0.0
H976 H 0.50239 0.49976 0.25438 0.0
H977 H 0.5235 0.52565 0.26554 0.0
H978 H 0.5548 0.50995 0.25928 0.0
H979 H 0.53338 0.4838 0.24835 0.0
H980 H 0.47647 0.4755 0.27048 0.0
H981 H 0.47963 0.48339 0.29887 0.0
H982 H 0.51489 0.4729 0.30398 0.0
H983 H 0.51148 0.46486 0.27558 0.0
H984 H 0.45156 0.44956 0.24583 0.0
H985 H 0.43074 0.43693 0.26317 0.0
H986 H 0.45519 0.41995 0.28835 0.0
H987 H 0.47612 0.43282 0.2709 0.0
H988 H 0.45388 0.44426 0.2115 0.0
H989 H 0.43047 0.42032 0.19992 0.0
H990 H 0.44354 0.39183 0.22332 0.0
H991 H 0.46701 0.41588 0.23467 0.0
H992 H 0.48397 0.47255 0.19986 0.0
H993 H 0.47695 0.4656 0.17156 0.0
H994 H 0.4784 0.42358 0.1745 0.0
H995 H 0.48557 0.43074 0.20298 0.0
H996 H 0.50953 0.49911 0.22031 0.0
H997 H 0.52854 0.51563 0.20244 0.0
H998 H 0.53907 0.47968 0.19309 0.0
H999 H 0.52001 0.46321 0.21112 0.0
O1000 O 0.49081 0.48861 0.32739 0.0
O1001 O 0.50892 0.48312 0.32937 0.0
O1002 O 0.41183 0.39041 0.19508 0.0
O1003 O 0.41799 0.37524 0.20692 0.0
C1004 C 0.50329 0.47428 0.24396 0.0
C1005 C 0.49174 0.46467 0.25378 0.0
C1006 C 0.47825 0.4508 0.24712 0.0
C1007 C 0.47648 0.44631 0.23072 0.0
C1008 C 0.4881 0.45586 0.2209 0.0
C1009 C 0.50156 0.4698 0.22755 0.0
C1010 C 0.51636 0.48991 0.25067 0.0
C1011 C 0.51379 0.50189 0.25549 0.0
C1012 C 0.52589 0.51671 0.2617 0.0
C1013 C 0.54083 0.51986 0.26319 0.0
C1014 C 0.54339 0.50781 0.25836 0.0
C1015 C 0.53123 0.49294 0.25208 0.0
C1016 C 0.49364 0.46947 0.27102 0.0
C1017 C 0.48478 0.4748 0.27778 0.0
C1018 C 0.48665 0.47936 0.29399 0.0
C1019 C 0.49749 0.47874 0.30371 0.0
C1020 C 0.50642 0.47348 0.29684 0.0
C1021 C 0.50451 0.4689 0.28064 0.0
C1022 C 0.46527 0.442 0.25705 0.0
C1023 C 0.4523 0.4429 0.25493 0.0
C1024 C 0.44043 0.43566 0.26484 0.0
C1025 C 0.4413 0.42739 0.27711 0.0
C1026 C 0.45426 0.42635 0.2791 0.0
C1027 C 0.46615 0.43359 0.26911 0.0
C1028 C 0.46219 0.43178 0.2238 0.0
C1029 C 0.45171 0.43283 0.21402 0.0
C1030 C 0.43832 0.41914 0.20747 0.0
C1031 C 0.43514 0.40415 0.21067 0.0
C1032 C 0.44564 0.40318 0.22059 0.0
C1033 C 0.45904 0.41688 0.2271 0.0
C1034 C 0.48536 0.45221 0.20346 0.0
C1035 C 0.48312 0.46204 0.19434 0.0
C1036 C 0.47913 0.45805 0.17816 0.0
C1037 C 0.47715 0.44405 0.17079 0.0
C1038 C 0.47974 0.43438 0.17989 0.0
C1039 C 0.48388 0.43847 0.1961 0.0
C1040 C 0.51353 0.48005 0.21715 0.0
C1041 C 0.51612 0.49491 0.21461 0.0
C1042 C 0.52698 0.50433 0.20441 0.0
C1043 C 0.53535 0.49898 0.19643 0.0
C1044 C 0.53273 0.48407 0.19901 0.0
C1045 C 0.52192 0.47469 0.20932 0.0
C1046 C 0.49946 0.48361 0.32092 0.0
C1047 C 0.42094 0.38957 0.20373 0.0
H1048 H 0.51074 0.99386 0.34743 0.0
H1049 H 0.40093 0.98662 0.22075 0.0
H1050 H 0.52956 0.02062 0.26973 0.0
H1051 H 0.5498 0.01713 0.27985 0.0
H1052 H 0.53023 0.9734 0.24968 0.0
H1053 H 0.5098 0.97682 0.23994 0.0
H1054 H 0.50174 0.01628 0.28887 0.0
H1055 H 0.50634 0.01108 0.31549 0.0
H1056 H 0.49724 0.96548 0.29682 0.0
H1057 H 0.49249 0.97076 0.2703 0.0
H1058 H 0.47537 0.01831 0.27294 0.0
H1059 H 0.45542 0.01254 0.29107 0.0
H1060 H 0.44138 0.9634 0.28679 0.0
H1061 H 0.46126 0.96927 0.26852 0.0
H1062 H 0.47645 0.02568 0.23685 0.0
H1063 H 0.45355 0.02588 0.22953 0.0
H1064 H 0.42597 0.97521 0.231 0.0
H1065 H 0.44899 0.97517 0.23814 0.0
H1066 H 0.5018 0.03031 0.21679 0.0
H1067 H 0.49359 0.03467 0.19138 0.0
H1068 H 0.45988 0.9846 0.18279 0.0
H1069 H 0.46789 0.98051 0.20837 0.0
H1070 H 0.53062 0.02794 0.23257 0.0
H1071 H 0.54829 0.03168 0.2122 0.0
H1072 H 0.5146 0.98579 0.1887 0.0
H1073 H 0.49719 0.98207 0.20925 0.0
O1074 O 0.50881 0.99564 0.33681 0.0
O1075 O 0.5041 0.97235 0.3266 0.0
O1076 O 0.42486 0.01292 0.22298 0.0
O1077 O 0.41017 0.98688 0.22364 0.0
C1078 C 0.50469 -0.00021 0.25001 0.0
C1079 C 0.49418 0.99719 0.26152 0.0
C1080 C 0.48102 0.99747 0.25761 0.0
C1081 C 0.47831 0.00032 0.24221 0.0
C1082 C 0.48872 0.00277 0.23067 0.0
C1083 C 0.50192 0.00252 0.23455 0.0
C1084 C 0.51823 0.99896 0.25414 0.0
C1085 C 0.52982 0.01044 0.26512 0.0
C1086 C 0.54139 0.00844 0.27084 0.0
C1087 C 0.54155 0.99492 0.26564 0.0
C1088 C 0.53029 0.98382 0.25407 0.0
C1089 C 0.51872 0.98583 0.24837 0.0
C1090 C 0.49683 0.99392 0.27768 0.0
C1091 C 0.50069 0.00516 0.29058 0.0
C1092 C 0.50334 0.00217 0.30576 0.0
C1093 C 0.50218 0.98787 0.30829 0.0
C1094 C 0.49825 0.97661 0.29529 0.0
C1095 C 0.49556 0.97961 0.28013 0.0
C1096 C 0.4697 0.9942 0.26945 0.0
C1097 C 0.46806 0.00634 0.27605 0.0
C1098 C 0.45673 0.00304 0.28644 0.0
C1099 C 0.44684 0.98751 0.29031 0.0
C1100 C 0.44875 0.97544 0.2839 0.0
C1101 C 0.46012 0.97877 0.27357 0.0
C1102 C 0.46435 0.00042 0.23804 0.0
C1103 C 0.46545 0.01465 0.23556 0.0
C1104 C 0.45235 0.01472 0.2314 0.0
C1105 C 0.43792 0.00055 0.22968 0.0
C1106 C 0.43689 0.98633 0.23223 0.0
C1107 C 0.45001 0.98627 0.23635 0.0
C1108 C 0.48537 0.00512 0.21439 0.0
C1109 C 0.49281 0.02029 0.20926 0.0
C1110 C 0.48812 0.02274 0.19474 0.0
C1111 C 0.47594 0.01001 0.18513 0.0
C1112 C 0.46906 0.99471 0.19005 0.0
C1113 C 0.4737 0.99231 0.20457 0.0
C1114 C 0.51264 0.00477 0.22232 0.0
C1115 C 0.52712 0.01871 0.22303 0.0
C1116 C 0.53713 0.02085 0.21136 0.0
C1117 C 0.53283 0.00902 0.19885 0.0
C1118 C 0.51832 0.99503 0.19828 0.0
C1119 C 0.50832 0.99293 0.20992 0.0
C1120 C 0.50507 0.98476 0.32442 0.0
C1121 C 0.42397 0.00056 0.22524 0.0
H1122 H 0.50815 0.03676 0.72267 0.0
H1123 H 0.58162 0.97883 0.83272 0.0
H1124 H 0.49914 0.02863 0.80692 0.0
H1125 H 0.4797 0.03305 0.79632 0.0
H1126 H 0.44634 0.98283 0.7933 0.0
H1127 H 0.46592 0.97856 0.80413 0.0
H1128 H 0.52447 0.03117 0.78722 0.0
H1129 H 0.52136 0.03803 0.76091 0.0
H1130 H 0.48226 0.99058 0.74935 0.0
H1131 H 0.48562 0.98385 0.77565 0.0
H1132 H 0.54815 0.0276 0.80559 0.0
H1133 H 0.56841 0.03373 0.78788 0.0
H1134 H 0.53801 0.98988 0.75903 0.0
H1135 H 0.5177 0.98401 0.77674 0.0
H1136 H 0.54575 0.01771 0.83923 0.0
H1137 H 0.56741 0.01545 0.84685 0.0
H1138 H 0.54789 0.97241 0.81553 0.0
H1139 H 0.52619 0.97471 0.80819 0.0
H1140 H 0.51892 0.01508 0.85656 0.0
H1141 H 0.52731 0.01199 0.88251 0.0
H1142 H 0.5163 0.96533 0.86533 0.0
H1143 H 0.5077 0.96843 0.83948 0.0
H1144 H 0.49343 0.01879 0.83996 0.0
H1145 H 0.47633 0.01549 0.86071 0.0
H1146 H 0.46047 0.96591 0.85894 0.0
H1147 H 0.47763 0.96934 0.83815 0.0
O1148 O 0.50924 0.03376 0.73298 0.0
O1149 O 0.48918 0.00924 0.72765 0.0
O1150 O 0.5827 0.00214 0.84592 0.0
O1151 O 0.57319 0.98001 0.82993 0.0
C1152 C 0.49631 0.00063 0.81048 0.0
C1153 C 0.50706 0.00294 0.79936 0.0
C1154 C 0.51955 0.0016 0.8036 0.0
C1155 C 0.52113 0.99759 0.8188 0.0
C1156 C 0.51027 0.99505 0.82986 0.0
C1157 C 0.49783 0.99656 0.82571 0.0
C1158 C 0.48393 0.00328 0.8062 0.0
C1159 C 0.48757 0.01862 0.80419 0.0
C1160 C 0.47649 0.0211 0.79803 0.0
C1161 C 0.46154 0.00827 0.79378 0.0
C1162 C 0.45774 0.99296 0.79654 0.0
C1163 C 0.46888 0.99049 0.80271 0.0
C1164 C 0.50532 0.007 0.78329 0.0
C1165 C 0.51532 0.02225 0.77894 0.0
C1166 C 0.51347 0.02614 0.76392 0.0
C1167 C 0.50155 0.01485 0.75302 0.0
C1168 C 0.49156 -0.00044 0.75746 0.0
C1169 C 0.49345 0.99568 0.77246 0.0
C1170 C 0.53154 0.00534 0.79247 0.0
C1171 C 0.54589 0.01935 0.79542 0.0
C1172 C 0.55744 0.02278 0.78533 0.0
C1173 C 0.55485 0.01224 0.77211 0.0
C1174 C 0.54032 0.99831 0.76903 0.0
C1175 C 0.52875 0.9949 0.77915 0.0
C1176 C 0.53438 0.99632 0.82324 0.0
C1177 C 0.54615 0.00777 0.83409 0.0
C1178 C 0.55852 0.00647 0.83839 0.0
C1179 C 0.55937 0.99373 0.83181 0.0
C1180 C 0.54758 0.98235 0.82083 0.0
C1181 C 0.5352 0.98365 0.81659 0.0
C1182 C 0.51274 0.99199 0.84616 0.0
C1183 C 0.51796 0.00404 0.85854 0.0
C1184 C 0.52287 0.00232 0.87328 0.0
C1185 C 0.52261 0.98849 0.87589 0.0
C1186 C 0.51654 0.97607 0.86371 0.0
C1187 C 0.51166 0.97783 0.84895 0.0
C1188 C 0.48671 0.99429 0.83751 0.0
C1189 C 0.48608 0.00717 0.84388 0.0
C1190 C 0.4763 0.00525 0.85572 0.0
C1191 C 0.46705 0.99043 0.86146 0.0
C1192 C 0.46757 0.9775 0.85487 0.0
C1193 C 0.47729 0.97942 0.84297 0.0
C1194 C 0.49957 0.01905 0.73711 0.0
C1195 C 0.57247 0.99227 0.83635 0.0
H1196 H 0.96742 0.46908 0.73613 0.0
H1197 H 0.01983 0.60722 0.85981 0.0
H1198 H 0.98216 0.47081 0.82055 0.0
H1199 H 0.98056 0.44694 0.809 0.0
H1200 H 0.02986 0.47171 0.81236 0.0
H1201 H 0.03133 0.49565 0.82379 0.0
H1202 H 0.97513 0.49239 0.8028 0.0
H1203 H 0.96743 0.4812 0.77521 0.0
H1204 H 0.01414 0.49589 0.7677 0.0
H1205 H 0.0217 0.50718 0.79527 0.0
H1206 H 0.97721 0.52019 0.82389 0.0
H1207 H 0.96859 0.53342 0.80742 0.0
H1208 H 0.00897 0.5506 0.78145 0.0
H1209 H 0.01769 0.5376 0.79834 0.0
H1210 H 0.98906 0.52944 0.85877 0.0
H1211 H 0.98941 0.55319 0.86832 0.0
H1212 H 0.02792 0.58112 0.84092 0.0
H1213 H 0.02758 0.5573 0.83165 0.0
H1214 H 0.99596 0.50732 0.87487 0.0
H1215 H 0.00017 0.52052 0.90145 0.0
H1216 H 0.04251 0.56051 0.88864 0.0
H1217 H 0.03815 0.54721 0.86203 0.0
H1218 H 0.99188 0.47746 0.85458 0.0
H1219 H 0.99673 0.46322 0.87366 0.0
H1220 H 0.04422 0.50127 0.8798 0.0
H1221 H 0.03931 0.51522 0.86021 0.0
O1222 O 0.97073 0.47366 0.74697 0.0
O1223 O 0.9949 0.48142 0.74374 0.0
O1224 O -0.00022 0.58278 0.87027 0.0
O1225 O 0.01945 0.59764 0.85623 0.0
C1226 C 0.00768 0.49968 0.8285 0.0
C1227 C 0.00359 0.50723 0.81779 0.0
C1228 C 0.00364 0.52086 0.82315 0.0
C1229 C 0.00829 0.52728 0.83905 0.0
C1230 C 0.01257 0.51984 0.84972 0.0
C1231 C 0.01205 0.50589 0.8445 0.0
C1232 C 0.00685 0.48492 0.82293 0.0
C1233 C 0.99259 0.47101 0.81893 0.0
C1234 C 0.99171 0.45739 0.81243 0.0
C1235 C 0.00509 0.45749 0.80976 0.0
C1236 C 0.01937 0.47136 0.81415 0.0
C1237 C 0.02024 0.48497 0.82076 0.0
C1238 C 0.99898 0.50064 0.80099 0.0
C1239 C 0.98369 0.49326 0.79514 0.0
C1240 C 0.97932 0.48684 0.77939 0.0
C1241 C 0.99017 0.48765 0.76924 0.0
C1242 C 0.00549 0.49507 0.77519 0.0
C1243 C 0.00985 0.50152 0.79092 0.0
C1244 C 0.9981 0.52805 0.81234 0.0
C1245 C 0.98414 0.52676 0.81459 0.0
C1246 C 0.97918 0.5342 0.80508 0.0
C1247 C 0.9881 0.54305 0.79312 0.0
C1248 C 0.00194 0.544 0.79067 0.0
C1249 C 0.00689 0.53653 0.80021 0.0
C1250 C 0.00835 0.54168 0.8446 0.0
C1251 C 0.9976 0.54071 0.85491 0.0
C1252 C 0.9978 0.55429 0.86031 0.0
C1253 C 0.00871 0.56907 0.8554 0.0
C1254 C 0.01938 0.56994 0.84495 0.0
C1255 C 0.0192 0.55636 0.83961 0.0
C1256 C 0.01672 0.52635 0.86654 0.0
C1257 C 0.00637 0.51872 0.87797 0.0
C1258 C 0.0088 0.52628 0.89314 0.0
C1259 C 0.0216 0.54163 0.89708 0.0
C1260 C 0.03244 0.54879 0.88588 0.0
C1261 C 0.03003 0.54118 0.87074 0.0
C1262 C 0.01526 0.49731 0.85597 0.0
C1263 C 0.00336 0.48264 0.85995 0.0
C1264 C 0.00613 0.47461 0.87097 0.0
C1265 C 0.02085 0.48115 0.87833 0.0
C1266 C 0.03279 0.49585 0.87424 0.0
C1267 C 0.03 0.50387 0.86314 0.0
C1268 C 0.98547 0.48075 0.75255 0.0
C1269 C 0.00899 0.58353 0.86111 0.0
H1270 H 0.49532 0.51804 0.71935 0.0
H1271 H 0.61131 0.61951 0.85542 0.0
H1272 H 0.47707 0.52384 0.80049 0.0
H1273 H 0.45444 0.49864 0.78965 0.0
H1274 H 0.47193 0.47366 0.81272 0.0
H1275 H 0.49417 0.49882 0.82373 0.0
H1276 H 0.50846 0.55002 0.78319 0.0
H1277 H 0.50288 0.54041 0.7551 0.0
H1278 H 0.50401 0.49947 0.76564 0.0
H1279 H 0.50977 0.50932 0.79366 0.0
H1280 H 0.54068 0.57847 0.80121 0.0
H1281 H 0.5628 0.59021 0.78511 0.0
H1282 H 0.56326 0.54735 0.78419 0.0
H1283 H 0.54146 0.53591 0.80049 0.0
H1284 H 0.5361 0.58447 0.83947 0.0
H1285 H 0.56079 0.60802 0.84902 0.0
H1286 H 0.58254 0.58169 0.84081 0.0
H1287 H 0.55777 0.5582 0.83148 0.0
H1288 H 0.50725 0.56066 0.85921 0.0
H1289 H 0.5139 0.56926 0.88757 0.0
H1290 H 0.5463 0.55457 0.88698 0.0
H1291 H 0.53928 0.54567 0.8589 0.0
H1292 H 0.47709 0.53036 0.83823 0.0
H1293 H 0.45792 0.51391 0.85618 0.0
H1294 H 0.4883 0.50049 0.87454 0.0
H1295 H 0.50716 0.5166 0.85633 0.0
O1296 O 0.4976 0.52166 0.7305 0.0
O1297 O 0.49826 0.5008 0.73655 0.0
O1298 O 0.58965 0.62335 0.85581 0.0
O1299 O 0.60139 0.61036 0.85173 0.0
C1300 C 0.50155 0.52822 0.81835 0.0
C1301 C 0.51266 0.53619 0.80748 0.0
C1302 C 0.52706 0.54958 0.81287 0.0
C1303 C 0.53013 0.55543 0.829 0.0
C1304 C 0.51901 0.54747 0.83987 0.0
C1305 C 0.50475 0.53382 0.83455 0.0
C1306 C 0.48718 0.51311 0.81293 0.0
C1307 C 0.47583 0.51288 0.80335 0.0
C1308 C 0.463 0.49849 0.7971 0.0
C1309 C 0.46137 0.4841 0.80028 0.0
C1310 C 0.47264 0.48446 0.81023 0.0
C1311 C 0.4854 0.49883 0.81651 0.0
C1312 C 0.50938 0.5303 0.79045 0.0
C1313 C 0.50751 0.53899 0.77939 0.0
C1314 C 0.50431 0.53346 0.76336 0.0
C1315 C 0.50294 0.51914 0.75813 0.0
C1316 C 0.50494 0.51052 0.76927 0.0
C1317 C 0.50817 0.51608 0.78529 0.0
C1318 C 0.5395 0.55635 0.80198 0.0
C1319 C 0.54551 0.57161 0.79739 0.0
C1320 C 0.55807 0.57825 0.78816 0.0
C1321 C 0.5648 0.56971 0.78348 0.0
C1322 C 0.55845 0.55428 0.7878 0.0
C1323 C 0.54593 0.54768 0.79697 0.0
C1324 C 0.54518 0.56969 0.83467 0.0
C1325 C 0.54622 0.58383 0.83975 0.0
C1326 C 0.56033 0.59725 0.84518 0.0
C1327 C 0.57365 0.59675 0.84563 0.0
C1328 C 0.57253 0.58251 0.84058 0.0
C1329 C 0.5584 0.56908 0.83518 0.0
C1330 C 0.52286 0.55265 0.85702 0.0
C1331 C 0.51572 0.55927 0.86528 0.0
C1332 C 0.51959 0.56422 0.88142 0.0
C1333 C 0.5306 0.56255 0.88953 0.0
C1334 C 0.53761 0.5558 0.88116 0.0
C1335 C 0.53374 0.55087 0.86509 0.0
C1336 C 0.49351 0.5247 0.84605 0.0
C1337 C 0.47959 0.52392 0.84621 0.0
C1338 C 0.46871 0.51459 0.8565 0.0
C1339 C 0.47158 0.50586 0.86672 0.0
C1340 C 0.48567 0.50691 0.86666 0.0
C1341 C 0.49651 0.51621 0.85639 0.0
C1342 C 0.49947 0.51326 0.7411 0.0
C1343 C 0.58868 0.61098 0.85137 0.0
H1344 H 0.62806 0.82946 0.66886 0.0
H1345 H 0.64039 0.71927 0.5495 0.0
H1346 H 0.609 0.82066 0.58613 0.0
H1347 H 0.61353 0.84669 0.59499 0.0
H1348 H 0.65602 0.86906 0.57236 0.0
H1349 H 0.65161 0.84313 0.56388 0.0
H1350 H 0.61005 0.79453 0.60611 0.0
H1351 H 0.61347 0.80555 0.63357 0.0
H1352 H 0.65813 0.84488 0.62489 0.0
H1353 H 0.65464 0.83363 0.59752 0.0
H1354 H 0.61089 0.76422 0.59129 0.0
H1355 H 0.61819 0.75128 0.60988 0.0
H1356 H 0.66432 0.79224 0.61471 0.0
H1357 H 0.65687 0.80504 0.59634 0.0
H1358 H 0.60364 0.75737 0.55243 0.0
H1359 H 0.60331 0.73301 0.54623 0.0
H1360 H 0.65148 0.75786 0.56091 0.0
H1361 H 0.65169 0.78217 0.56685 0.0
H1362 H 0.60261 0.78044 0.52868 0.0
H1363 H 0.60189 0.76872 0.50205 0.0
H1364 H 0.64913 0.78329 0.51066 0.0
H1365 H 0.64971 0.79486 0.53708 0.0
H1366 H 0.60388 0.81296 0.5464 0.0
H1367 H 0.60418 0.82981 0.52662 0.0
H1368 H 0.64866 0.84028 0.51438 0.0
H1369 H 0.64838 0.82373 0.53435 0.0
O1370 O 0.62697 0.82528 0.65798 0.0
O1371 O 0.64982 0.8453 0.65288 0.0
O1372 O 0.61548 0.71653 0.54426 0.0
O1373 O 0.6402 0.72874 0.55181 0.0
C1374 C 0.6283 0.81448 0.57067 0.0
C1375 C 0.62982 0.80663 0.58312 0.0
C1376 C 0.6297 0.79261 0.57969 0.0
C1377 C 0.62776 0.78624 0.56385 0.0
C1378 C 0.62641 0.79416 0.55139 0.0
C1379 C 0.62663 0.80825 0.55478 0.0
C1380 C 0.62994 0.83001 0.57431 0.0
C1381 C 0.61917 0.83119 0.58292 0.0
C1382 C 0.62179 0.84602 0.588 0.0
C1383 C 0.63512 0.85986 0.58434 0.0
C1384 C 0.64556 0.85859 0.57516 0.0
C1385 C 0.64304 0.8438 0.57029 0.0
C1386 C 0.63204 0.81334 0.59981 0.0
C1387 C 0.62057 0.80551 0.61018 0.0
C1388 C 0.62255 0.81184 0.62585 0.0
C1389 C 0.63606 0.82612 0.63142 0.0
C1390 C 0.64758 0.83388 0.62098 0.0
C1391 C 0.64559 0.82751 0.60534 0.0
C1392 C 0.63335 0.78555 0.59251 0.0
C1393 C 0.62248 0.77046 0.59663 0.0
C1394 C 0.6267 0.76308 0.60716 0.0
C1395 C 0.64186 0.77071 0.61373 0.0
C1396 C 0.65251 0.78612 0.61007 0.0
C1397 C 0.64829 0.79345 0.59955 0.0
C1398 C 0.62764 0.77148 0.5602 0.0
C1399 C 0.6141 0.75751 0.55429 0.0
C1400 C 0.61394 0.74362 0.55077 0.0
C1401 C 0.62737 0.74348 0.55312 0.0
C1402 C 0.64094 0.75755 0.55901 0.0
C1403 C 0.64108 0.77143 0.56247 0.0
C1404 C 0.62616 0.78832 0.53482 0.0
C1405 C 0.61281 0.78121 0.52469 0.0
C1406 C 0.61244 0.77457 0.50953 0.0
C1407 C 0.6254 0.77491 0.50438 0.0
C1408 C 0.63888 0.78256 0.51441 0.0
C1409 C 0.63926 0.78923 0.52946 0.0
C1410 C 0.62608 0.81708 0.54174 0.0
C1411 C 0.61359 0.81876 0.53929 0.0
C1412 C 0.61377 0.82833 0.52798 0.0
C1413 C 0.62649 0.83643 0.51902 0.0
C1414 C 0.63879 0.83435 0.52124 0.0
C1415 C 0.63858 0.82478 0.53251 0.0
C1416 C 0.63809 0.83286 0.64805 0.0
C1417 C 0.62726 0.72875 0.54945 0.0
H1418 H 0.15716 0.81615 0.68091 0.0
H1419 H 0.08297 0.6925 0.54158 0.0
H1420 H 0.16889 0.82782 0.59875 0.0
H1421 H 0.18932 0.8539 0.61032 0.0
H1422 H 0.2225 0.84135 0.60067 0.0
H1423 H 0.20184 0.81512 0.58904 0.0
H1424 H 0.1429 0.80165 0.61253 0.0
H1425 H 0.14533 0.80843 0.64109 0.0
H1426 H 0.18291 0.80134 0.64563 0.0
H1427 H 0.18023 0.79441 0.61705 0.0
H1428 H 0.11918 0.77546 0.58519 0.0
H1429 H 0.09749 0.76093 0.60106 0.0
H1430 H 0.12343 0.7474 0.62894 0.0
H1431 H 0.14515 0.76178 0.61264 0.0
H1432 H 0.12244 0.7713 0.5521 0.0
H1433 H 0.10038 0.74647 0.53987 0.0
H1434 H 0.11658 0.72053 0.56323 0.0
H1435 H 0.13869 0.74546 0.57522 0.0
H1436 H 0.15095 0.80181 0.54216 0.0
H1437 H 0.14474 0.79582 0.51368 0.0
H1438 H 0.15084 0.7565 0.51474 0.0
H1439 H 0.15722 0.76271 0.54341 0.0
H1440 H 0.1749 0.82885 0.56412 0.0
H1441 H 0.19202 0.84703 0.54592 0.0
H1442 H 0.2066 0.81488 0.53295 0.0
H1443 H 0.1898 0.797 0.5517 0.0
O1444 O 0.15636 0.81338 0.66964 0.0
O1445 O 0.17566 0.80966 0.67132 0.0
O1446 O 0.08382 0.71639 0.53443 0.0
O1447 O 0.09161 0.70249 0.54623 0.0
C1448 C 0.17127 0.80385 0.58597 0.0
C1449 C 0.15985 0.79331 0.59541 0.0
C1450 C 0.14691 0.77917 0.58826 0.0
C1451 C 0.14572 0.77524 0.57178 0.0
C1452 C 0.15709 0.78582 0.56233 0.0
C1453 C 0.16987 0.80013 0.56944 0.0
C1454 C 0.18387 0.81953 0.59323 0.0
C1455 C 0.18055 0.83063 0.59931 0.0
C1456 C 0.19223 0.84551 0.60592 0.0
C1457 C 0.20751 0.84964 0.60652 0.0
C1458 C 0.21084 0.83853 0.6003 0.0
C1459 C 0.19909 0.82356 0.59373 0.0
C1460 C 0.16129 0.7974 0.61276 0.0
C1461 C 0.15157 0.80145 0.61974 0.0
C1462 C 0.15302 0.80538 0.63604 0.0
C1463 C 0.1643 0.8054 0.64565 0.0
C1464 C 0.17409 0.80141 0.63858 0.0
C1465 C 0.17259 0.79746 0.62227 0.0
C1466 C 0.13368 0.76953 0.59764 0.0
C1467 C 0.1201 0.76911 0.59451 0.0
C1468 C 0.10774 0.76083 0.6036 0.0
C1469 C 0.10877 0.75297 0.61616 0.0
C1470 C 0.12238 0.7534 0.61934 0.0
C1471 C 0.13473 0.76154 0.61005 0.0
C1472 C 0.13225 0.76018 0.56441 0.0
C1473 C 0.12126 0.76025 0.55446 0.0
C1474 C 0.10865 0.74605 0.54754 0.0
C1475 C 0.10674 0.73151 0.55054 0.0
C1476 C 0.11772 0.73151 0.56064 0.0
C1477 C 0.13035 0.74572 0.56751 0.0
C1478 C 0.15465 0.78277 0.54483 0.0
C1479 C 0.15129 0.79212 0.5362 0.0
C1480 C 0.14776 0.78868 0.51993 0.0
C1481 C 0.14736 0.77572 0.51196 0.0
C1482 C 0.15099 0.76651 0.52059 0.0
C1483 C 0.15468 0.77006 0.53691 0.0
C1484 C 0.1812 0.81167 0.55931 0.0
C1485 C 0.18203 0.8259 0.5576 0.0
C1486 C 0.19168 0.83617 0.54705 0.0
C1487 C 0.20058 0.83234 0.5379 0.0
C1488 C 0.2 0.81824 0.53994 0.0
C1489 C 0.19038 0.80799 0.55057 0.0
C1490 C 0.16583 0.8096 0.66297 0.0
C1491 C 0.09335 0.71638 0.54322 0.0
H1492 H 0.20842 0.37419 0.69183 0.0
H1493 H 0.09052 0.36749 0.5768 0.0
H1494 H 0.21945 0.39316 0.6115 0.0
H1495 H 0.23855 0.38742 0.62029 0.0
H1496 H 0.21302 0.34188 0.59291 0.0
H1497 H 0.19406 0.34776 0.58417 0.0
H1498 H 0.19373 0.39269 0.63348 0.0
H1499 H 0.20093 0.38927 0.65985 0.0
H1500 H 0.18933 0.34225 0.64312 0.0
H1501 H 0.18196 0.34575 0.61687 0.0
H1502 H 0.1632 0.39186 0.62134 0.0
H1503 H 0.14311 0.38402 0.63989 0.0
H1504 H 0.13294 0.33618 0.63419 0.0
H1505 H 0.1527 0.34401 0.61553 0.0
H1506 H 0.16619 0.40104 0.58351 0.0
H1507 H 0.14401 0.40324 0.57873 0.0
H1508 H 0.11403 0.35356 0.58447 0.0
H1509 H 0.13629 0.35149 0.58904 0.0
H1510 H 0.1892 0.40018 0.55804 0.0
H1511 H 0.18 0.40145 0.53157 0.0
H1512 H 0.14066 0.35417 0.53276 0.0
H1513 H 0.14991 0.35302 0.55904 0.0
H1514 H 0.21724 0.39672 0.57279 0.0
H1515 H 0.23073 0.3961 0.5497 0.0
H1516 H 0.19123 0.35068 0.5322 0.0
H1517 H 0.17792 0.3514 0.55521 0.0
O1518 O 0.20541 0.37525 0.68133 0.0
O1519 O 0.1994 0.35121 0.67211 0.0
O1520 O 0.11539 0.39243 0.57574 0.0
O1521 O 0.09948 0.36696 0.57865 0.0
C1522 C 0.19236 0.37294 0.59452 0.0
C1523 C 0.18337 0.37183 0.6072 0.0
C1524 C 0.17022 0.37247 0.60459 0.0
C1525 C 0.16638 0.37492 0.58945 0.0
C1526 C 0.17522 0.37581 0.57672 0.0
C1527 C 0.18812 0.37464 0.5792 0.0
C1528 C 0.20538 0.37087 0.59721 0.0
C1529 C 0.21821 0.38212 0.60711 0.0
C1530 C 0.22902 0.37876 0.61221 0.0
C1531 C 0.22719 0.36412 0.60743 0.0
C1532 C 0.21482 0.35331 0.5967 0.0
C1533 C 0.20399 0.35665 0.59166 0.0
C1534 C 0.18746 0.36953 0.62325 0.0
C1535 C 0.19272 0.38165 0.63556 0.0
C1536 C 0.19685 0.37967 0.6506 0.0
C1537 C 0.19577 0.36551 0.65358 0.0
C1538 C 0.19035 0.35332 0.64121 0.0
C1539 C 0.18618 0.3553 0.6262 0.0
C1540 C 0.15938 0.36849 0.61712 0.0
C1541 C 0.15673 0.37975 0.62428 0.0
C1542 C 0.14532 0.37527 0.63488 0.0
C1543 C 0.13639 0.35946 0.63837 0.0
C1544 C 0.13949 0.34839 0.63156 0.0
C1545 C 0.15086 0.35286 0.62103 0.0
C1546 C 0.15284 0.37616 0.58676 0.0
C1547 C 0.15481 0.39066 0.58375 0.0
C1548 C 0.14213 0.39188 0.58102 0.0
C1549 C 0.12724 0.37858 0.58126 0.0
C1550 C 0.12533 0.36404 0.58425 0.0
C1551 C 0.13802 0.36284 0.58693 0.0
C1552 C 0.17011 0.37659 0.56051 0.0
C1553 C 0.17863 0.39011 0.55251 0.0
C1554 C 0.1734 0.39079 0.53742 0.0
C1555 C 0.15952 0.37798 0.53019 0.0
C1556 C 0.15123 0.36435 0.53816 0.0
C1557 C 0.15649 0.36365 0.55314 0.0
C1558 C 0.19656 0.37418 0.56557 0.0
C1559 C 0.21156 0.38664 0.56397 0.0
C1560 C 0.21924 0.38625 0.55082 0.0
C1561 C 0.21198 0.37341 0.53907 0.0
C1562 C 0.19702 0.36087 0.54088 0.0
C1563 C 0.18942 0.36123 0.55403 0.0
C1564 C 0.20028 0.36349 0.66953 0.0
C1565 C 0.11373 0.3798 0.57838 0.0
H1566 H 0.97351 0.38397 0.02907 0.0
H1567 H 0.96752 0.39741 0.05004 0.0
H1568 H 0.0037 0.40198 0.08086 0.0
H1569 H 0.00941 0.38817 0.06025 0.0
H1570 H 0.97846 0.3928 0.09608 0.0
H1571 H 0.99181 0.44426 0.06339 0.0
H1572 H 0.97724 0.42544 0.05367 0.0
H1573 H 0.9965 0.43004 0.05654 0.0
C1574 C 0.98016 0.38782 0.04033 0.0
C1575 C 0.99198 0.38507 0.04297 0.0
C1576 C 0.97679 0.39558 0.05226 0.0
C1577 C 0.98535 0.40096 0.06692 0.0
C1578 C 0.99697 0.39797 0.06963 0.0
H1579 H 0.00461 0.47323 0.13899 0.0
H1580 H 0.0024 0.45707 0.11509 0.0
C1581 C 0.00023 0.39008 0.05782 0.0
C1582 C 0.98237 0.4097 0.07958 0.0
H1583 H 0.98326 0.44384 0.08888 0.0
C1584 C 0.9794 0.40391 0.09449 0.0
C1585 C 0.98373 0.42425 0.07749 0.0
C1586 C 0.98762 0.43148 0.06196 0.0
C1587 C 0.97824 0.41249 0.1075 0.0
C1588 C 0.97958 0.42704 0.10542 0.0
C1589 C 0.9821 0.43261 0.0904 0.0
C1590 C 0.97992 0.43735 0.11899 0.0
C1591 C 0.97641 0.40625 0.1235 0.0
C1592 C 0.96778 0.43189 0.12884 0.0
C1593 C 0.96914 0.44098 0.14273 0.0
C1594 C 0.98259 0.45582 0.14688 0.0
C1595 C 0.99426 0.4617 0.13637 0.0
C1596 C 0.99295 0.45253 0.12261 0.0
H1597 H 0.97924 0.39702 0.1237 0.0
H1598 H 0.98383 0.41591 0.13284 0.0
H1599 H 0.96436 0.40087 0.12645 0.0
H1600 H 0.95744 0.42037 0.12606 0.0
H1601 H 0.95994 0.43605 0.15055 0.0
H1602 H 0.62435 0.58486 0.0901 0.0
H1603 H 0.61152 0.56385 0.10776 0.0
H1604 H 0.58607 0.58404 0.12457 0.0
H1605 H 0.59875 0.605 0.10709 0.0
H1606 H 0.6102 0.56749 0.14245 0.0
H1607 H 0.55346 0.53667 0.10899 0.0
H1608 H 0.57096 0.55025 0.10036 0.0
H1609 H 0.56213 0.55763 0.11312 0.0
C1610 C 0.61603 0.58482 0.09757 0.0
C1611 C 0.61251 0.59656 0.09714 0.0
C1612 C 0.60874 0.57284 0.10764 0.0
C1613 C 0.59774 0.57234 0.11728 0.0
C1614 C 0.59439 0.58414 0.11704 0.0
H1615 H 0.5564 0.53075 0.20014 0.0
H1616 H 0.57283 0.54724 0.18044 0.0
C1617 C 0.6017 0.59614 0.10708 0.0
C1618 C 0.58971 0.55959 0.12773 0.0
H1619 H 0.55406 0.52988 0.13523 0.0
C1620 C 0.59796 0.5591 0.14079 0.0
C1621 C 0.5738 0.54856 0.12537 0.0
C1622 C 0.56455 0.54815 0.11113 0.0
C1623 C 0.59053 0.54833 0.15204 0.0
C1624 C 0.57447 0.53796 0.15019 0.0
C1625 C 0.56636 0.53793 0.13669 0.0
C1626 C 0.56566 0.52775 0.16255 0.0
C1627 C 0.59989 0.54828 0.16591 0.0
C1628 C 0.55609 0.51134 0.15896 0.0
C1629 C 0.54658 0.5019 0.17016 0.0
C1630 C 0.54638 0.50876 0.18506 0.0
C1631 C 0.55623 0.52516 0.18871 0.0
C1632 C 0.56575 0.53457 0.17754 0.0
H1633 H 0.61197 0.55327 0.16321 0.0
H1634 H 0.59979 0.55568 0.17615 0.0
H1635 H 0.5951 0.53613 0.16937 0.0
H1636 H 0.55575 0.50589 0.14739 0.0
H1637 H 0.53899 0.48933 0.16694 0.0
H1638 H 0.39679 0.02818 0.08334 0.0
H1639 H 0.41368 0.02941 0.10478 0.0
H1640 H 0.4393 0.02088 0.07083 0.0
H1641 H 0.42237 0.01946 0.04929 0.0
H1642 H 0.42954 0.00043 0.09409 0.0
H1643 H 0.45794 0.06234 0.12076 0.0
H1644 H 0.43751 0.05243 0.1184 0.0
H1645 H 0.44824 0.05596 0.10122 0.0
C1646 C 0.40617 0.02683 0.0804 0.0
C1647 C 0.40819 0.02367 0.0646 0.0
C1648 C 0.41588 0.02764 0.09268 0.0
C1649 C 0.42785 0.02542 0.08939 0.0
C1650 C 0.43018 0.02272 0.07361 0.0
H1651 H 0.49198 0.03016 0.1628 0.0
H1652 H 0.48155 0.03458 0.13885 0.0
C1653 C 0.42049 0.02192 0.06132 0.0
C1654 C 0.43695 0.02436 0.10243 0.0
H1655 H 0.45923 0.04407 0.13654 0.0
C1656 C 0.43619 0.01005 0.10326 0.0
C1657 C 0.44573 0.03696 0.1143 0.0
C1658 C 0.44756 0.05285 0.11358 0.0
C1659 C 0.44347 0.00777 0.116 0.0
C1660 C 0.45156 0.02007 0.12828 0.0
C1661 C 0.45288 0.03462 0.12715 0.0
C1662 C 0.45797 0.01767 0.14279 0.0
C1663 C 0.44228 0.99214 0.11632 0.0
C1664 C 0.44813 0.00689 0.15299 0.0
C1665 C 0.454 0.00444 0.16667 0.0
C1666 C 0.46986 0.0127 0.17045 0.0
C1667 C 0.47971 0.02366 0.16028 0.0
C1668 C 0.47379 0.02616 0.14658 0.0
H1669 H 0.43913 0.98558 0.10438 0.0
H1670 H 0.45324 0.99388 0.12099 0.0
H1671 H 0.43331 0.98474 0.1242 0.0
H1672 H 0.43586 0.00045 0.1504 0.0
H1673 H 0.44606 0.99622 0.17443 0.0
H1674 H 0.40842 0.97975 0.9949 0.0
H1675 H 0.41927 0.97716 0.97048 0.0
H1676 H 0.40112 0.00103 0.94675 0.0
H1677 H 0.39033 0.00379 0.97105 0.0
H1678 H 0.40489 0.96326 0.93878 0.0
H1679 H 0.44783 0.0278 0.94187 0.0
H1680 H 0.43748 0.01829 0.95859 0.0
H1681 H 0.42838 0.02244 0.94308 0.0
C1682 C 0.40665 0.98436 0.98446 0.0
C1683 C 0.39865 0.99212 0.98497 0.0
C1684 C 0.41283 0.98284 0.97053 0.0
C1685 C 0.41117 0.98912 0.95693 0.0
C1686 C 0.40272 0.99634 0.95722 0.0
H1687 H 0.44903 0.00258 0.86547 0.0
H1688 H 0.43441 0.00107 0.88817 0.0
C1689 C 0.39653 0.99785 0.97111 0.0
C1690 C 0.41872 0.98865 0.94257 0.0
H1691 H 0.44634 0.01234 0.91885 0.0
C1692 C 0.41397 0.97396 0.93441 0.0
C1693 C 0.43056 0.00265 0.93695 0.0
C1694 C 0.4365 0.0187 0.94562 0.0
C1695 C 0.4206 0.97293 0.92054 0.0
C1696 C 0.43246 0.98695 0.91493 0.0
C1697 C 0.4372 0.00162 0.92314 0.0
C1698 C 0.44035 0.98678 0.90072 0.0
C1699 C 0.41465 0.95689 0.91186 0.0
C1700 C 0.44853 0.97925 0.90026 0.0
C1701 C 0.4569 0.98011 0.88733 0.0
C1702 C 0.45736 0.98865 0.87468 0.0
C1703 C 0.44901 0.99603 0.8751 0.0
C1704 C 0.44061 0.99512 0.88801 0.0
H1705 H 0.403 0.94801 0.9151 0.0
H1706 H 0.41433 0.95742 0.89887 0.0
H1707 H 0.42233 0.95277 0.91504 0.0
H1708 H 0.44881 0.97309 0.91012 0.0
H1709 H 0.46342 0.97453 0.88748 0.0
H1710 H 0.04027 0.40649 0.98848 0.0
H1711 H 0.04647 0.42643 0.96994 0.0
H1712 H 0.00381 0.39439 0.94264 0.0
H1713 H 0.99766 0.37441 0.96081 0.0
H1714 H 0.0282 0.41044 0.92402 0.0
H1715 H 0.02545 0.45139 0.96938 0.0
H1716 H 0.03878 0.44569 0.97404 0.0
H1717 H 0.01864 0.43114 0.97247 0.0
C1718 C 0.03229 0.40366 0.97844 0.0
C1719 C 0.0184 0.38891 0.9762 0.0
C1720 C 0.03581 0.41509 0.96791 0.0
C1721 C 0.02548 0.41196 0.95507 0.0
C1722 C 0.01192 0.39706 0.9525 0.0
H1723 H 0.00269 0.4655 0.90174 0.0
H1724 H 0.00625 0.45008 0.92038 0.0
C1725 C 0.00841 0.38566 0.96295 0.0
C1726 C 0.02827 0.42427 0.94453 0.0
H1727 H 0.02949 0.45887 0.94353 0.0
C1728 C 0.0287 0.42115 0.92828 0.0
C1729 C 0.02876 0.43814 0.95016 0.0
C1730 C 0.02778 0.44181 0.96744 0.0
C1731 C 0.02908 0.43124 0.9174 0.0
C1732 C 0.02929 0.44497 0.923 0.0
C1733 C 0.02941 0.44838 0.93931 0.0
C1734 C 0.0278 0.45504 0.91207 0.0
C1735 C 0.0284 0.42669 0.89997 0.0
C1736 C 0.03887 0.46316 0.90137 0.0
C1737 C 0.03677 0.47187 0.89054 0.0
C1738 C 0.0236 0.47264 0.8903 0.0
C1739 C 0.0128 0.46489 0.90139 0.0
C1740 C 0.01489 0.45618 0.91215 0.0
H1741 H 0.02529 0.41428 0.89753 0.0
H1742 H 0.01996 0.42817 0.89327 0.0
H1743 H 0.03977 0.43451 0.89548 0.0
H1744 H 0.04905 0.46264 0.9013 0.0
H1745 H 0.04528 0.47767 0.88213 0.0
H1746 H 0.61476 0.60954 0.0129 0.0
H1747 H 0.59881 0.60172 0.98827 0.0
H1748 H 0.56517 0.60612 0.01283 0.0
H1749 H 0.581 0.61375 0.03771 0.0
H1750 H 0.55245 0.57863 0.99277 0.0
H1751 H 0.59236 0.63018 0.9616 0.0
H1752 H 0.60131 0.62059 0.96934 0.0
H1753 H 0.5945 0.62983 0.98269 0.0
C1754 C 0.60399 0.6089 0.0131 0.0
C1755 C 0.59918 0.61234 0.02727 0.0
C1756 C 0.59494 0.60454 0.99898 0.0
C1757 C 0.58096 0.60366 0.99867 0.0
C1758 C 0.57599 0.60687 0.01281 0.0
H1759 H 0.53581 0.58999 0.90506 0.0
H1760 H 0.54552 0.60016 0.93261 0.0
C1761 C 0.58505 0.61122 0.02699 0.0
C1762 C 0.57139 0.59886 0.98362 0.0
H1763 H 0.57279 0.60731 0.94529 0.0
C1764 C 0.55679 0.58502 0.98244 0.0
C1765 C 0.57693 0.60738 0.97024 0.0
C1766 C 0.59207 0.62291 0.97105 0.0
C1767 C 0.54793 0.57897 0.96796 0.0
C1768 C 0.55399 0.58684 0.95431 0.0
C1769 C 0.56822 0.60117 0.95571 0.0
C1770 C 0.54636 0.57992 0.93827 0.0
C1771 C 0.53225 0.56414 0.96742 0.0
C1772 C 0.5435 0.56513 0.93236 0.0
C1773 C 0.53785 0.55925 0.9167 0.0
C1774 C 0.53513 0.56814 0.90656 0.0
C1775 C 0.53763 0.58278 0.91262 0.0
C1776 C 0.54325 0.58865 0.92832 0.0
H1777 H 0.52732 0.56278 0.97909 0.0
H1778 H 0.52429 0.56412 0.95839 0.0
H1779 H 0.53312 0.55373 0.96439 0.0
H1780 H 0.54612 0.55833 0.93969 0.0
H1781 H 0.53589 0.54785 0.91245 0.0
H1782 H 0.00424 0.59461 0.03211 0.0
H1783 H 0.01054 0.58234 0.01034 0.0
H1784 H 0.01525 0.61765 0.98066 0.0
H1785 H 0.00864 0.62979 0.00223 0.0
H1786 H 0.99647 0.58775 0.96677 0.0
H1787 H 0.05042 0.5951 0.99092 0.0
H1788 H 0.03496 0.58581 0.00352 0.0
H1789 H 0.04258 0.60597 -0.00037 0.0
C1790 C 0.00683 0.59991 0.02102 0.0
C1791 C 0.00589 0.61315 0.01888 0.0
C1792 C 0.01053 0.59293 0.00862 0.0
C1793 C 0.01355 0.5992 0.99394 0.0
C1794 C 0.01301 0.61266 0.99192 0.0
H1795 H 0.02924 0.57219 0.90127 0.0
H1796 H 0.02839 0.58638 0.92533 0.0
C1797 C 0.00923 0.61958 0.00426 0.0
C1798 C 0.01599 0.59101 0.98029 0.0
H1799 H 0.0387 0.57804 0.96713 0.0
C1800 C 0.00577 0.58573 0.96682 0.0
C1801 C 0.02807 0.58828 0.98043 0.0
C1802 C 0.03973 0.59421 0.99434 0.0
C1803 C 0.00722 0.5777 0.95353 0.0
C1804 C 0.01929 0.57502 0.95366 0.0
C1805 C 0.02947 0.58015 0.96713 0.0
C1806 C 0.02151 0.56703 0.93973 0.0
C1807 C 0.99571 0.57197 0.93949 0.0
C1808 C 0.01839 0.55164 0.94006 0.0
C1809 C 0.01894 0.5435 0.92633 0.0
C1810 C 0.02274 0.55071 0.91212 0.0
C1811 C 0.02648 0.56638 0.91206 0.0
C1812 C 0.02588 0.57447 0.92575 0.0
H1813 H 0.98542 0.57213 0.94248 0.0
H1814 H 0.00103 0.57975 0.9299 0.0
H1815 H 0.99208 0.55976 0.93488 0.0
H1816 H 0.01503 0.54576 0.95079 0.0
H1817 H 0.01612 0.53148 0.92675 0.0
H1818 H 0.40116 0.40055 0.95472 0.0
H1819 H 0.41303 0.41995 0.93557 0.0
H1820 H 0.39026 0.44299 0.95286 0.0
H1821 H 0.37827 0.42355 0.97222 0.0
H1822 H 0.3975 0.42753 0.91158 0.0
H1823 H 0.4371 0.47833 0.95542 0.0
H1824 H 0.42816 0.45811 0.96003 0.0
H1825 H 0.41712 0.46702 0.95888 0.0
C1826 C 0.39864 0.40972 0.95449 0.0
C1827 C 0.38882 0.41055 0.96504 0.0
C1828 C 0.40541 0.42077 0.9435 0.0
C1829 C 0.40259 0.43293 0.94291 0.0
C1830 C 0.39267 0.43375 0.95327 0.0
H1831 H 0.45345 0.512 0.88478 0.0
H1832 H 0.43452 0.49463 0.90246 0.0
C1833 C 0.38581 0.42262 0.96427 0.0
C1834 C 0.41027 0.44472 0.93143 0.0
H1835 H 0.43993 0.48244 0.92855 0.0
C1836 C 0.40664 0.43961 0.91526 0.0
C1837 C 0.42208 0.46046 0.93632 0.0
C1838 C 0.42648 0.4664 0.95359 0.0
C1839 C 0.4149 0.44971 0.90381 0.0
C1840 C 0.42731 0.46518 0.90871 0.0
C1841 C 0.43043 0.47055 0.92486 0.0
C1842 C 0.43805 0.47542 0.89742 0.0
C1843 C 0.41043 0.44363 0.88657 0.0
C1844 C 0.44635 0.4704 0.88886 0.0
C1845 C 0.45708 0.48022 0.87878 0.0
C1846 C 0.45984 0.49535 0.87715 0.0
C1847 C 0.45146 0.50035 0.88568 0.0
C1848 C 0.44071 0.49049 0.89582 0.0
H1849 H 0.39818 0.434 0.88468 0.0
H1850 H 0.41255 0.45322 0.87919 0.0
H1851 H 0.41731 0.43874 0.88248 0.0
H1852 H 0.4447 0.45894 0.89017 0.0
H1853 H 0.46322 0.47596 0.87224 0.0
H1854 H 0.61473 0.98886 0.97803 0.0
H1855 H 0.59802 0.98747 0.95627 0.0
H1856 H 0.56454 0.98129 0.98897 0.0
H1857 H 0.58134 0.98306 0.01087 0.0
H1858 H 0.56899 0.9645 0.94488 0.0
H1859 H 0.57119 0.019 0.96726 0.0
H1860 H 0.58385 0.01357 0.97534 0.0
H1861 H 0.56453 0.00424 0.98098 0.0
C1862 C 0.60379 0.98716 0.9806 0.0
C1863 C 0.59942 0.98622 0.9962 0.0
C1864 C 0.59425 0.98635 0.96815 0.0
C1865 C 0.58016 0.98456 0.97104 0.0
C1866 C 0.57552 0.98305 0.98652 0.0
H1867 H 0.51176 0.96367 0.89417 0.0
H1868 H 0.52467 0.96195 0.91784 0.0
C1869 C 0.58511 0.98398 0.99901 0.0
C1870 C 0.57048 0.98451 0.95785 0.0
H1871 H 0.55458 0.00438 0.94458 0.0
C1872 C 0.56579 0.97318 0.94481 0.0
C1873 C 0.56649 0.99598 0.95773 0.0
C1874 C 0.57188 0.00899 0.97099 0.0
C1875 C 0.55729 0.97306 0.9316 0.0
C1876 C 0.55309 0.98437 0.9316 0.0
C1877 C 0.55769 0.99562 0.94469 0.0
C1878 C 0.54481 0.98543 0.91773 0.0
C1879 C 0.55337 0.96119 0.91755 0.0
C1880 C 0.55161 0.99937 0.91015 0.0
C1881 C 0.54421 0.00043 0.89679 0.0
C1882 C 0.52984 0.98757 0.89072 0.0
C1883 C 0.5229 0.9737 0.89849 0.0
C1884 C 0.53028 0.97269 0.91196 0.0
H1885 H 0.56054 0.95601 0.91791 0.0
H1886 H 0.54125 0.95142 0.91757 0.0
H1887 H 0.55486 0.9667 0.9063 0.0
H1888 H 0.56282 0.00934 0.9144 0.0
H1889 H 0.54996 0.01119 0.89093 0.0
H1890 H 0.61406 0.0367 0.07741 0.0
H1891 H 0.60272 0.03917 0.10148 0.0
H1892 H 0.59099 0.99265 0.11164 0.0
H1893 H 0.60247 0.99016 0.08783 0.0
H1894 H 0.5727 0.02004 0.10837 0.0
H1895 H 0.61116 0.0186 0.15379 0.0
H1896 H 0.616 0.02216 0.13361 0.0
H1897 H 0.60346 0.00233 0.13874 0.0
C1898 C 0.60921 0.02707 0.08486 0.0
C1899 C 0.60919 0.01325 0.08072 0.0
C1900 C 0.60274 0.0285 0.0986 0.0
C1901 C 0.59624 0.0162 0.10847 0.0
C1902 C 0.59627 0.00244 0.1044 0.0
H1903 H 0.53896 0.98756 0.18566 0.0
H1904 H 0.55522 0.9908 0.16404 0.0
C1905 C 0.60274 0.001 0.09071 0.0
C1906 C 0.58853 0.01725 0.12249 0.0
H1907 H 0.58726 0.01381 0.16218 0.0
C1908 C 0.57601 0.01891 0.12019 0.0
C1909 C 0.59288 0.01577 0.13787 0.0
C1910 C 0.60671 0.01477 0.14121 0.0
C1911 C 0.56731 0.01846 0.13275 0.0
C1912 C 0.5714 0.01651 0.14803 0.0
C1913 C 0.58415 0.01525 0.15042 0.0
C1914 C 0.56212 0.01497 0.16151 0.0
C1915 C 0.55347 0.01945 0.12947 0.0
C1916 C 0.56085 0.02759 0.16739 0.0
C1917 C 0.55151 0.02576 0.17969 0.0
C1918 C 0.54332 0.01127 0.18632 0.0
C1919 C 0.54494 0.99878 0.18063 0.0
C1920 C 0.55429 0.00064 0.16837 0.0
H1921 H 0.55019 0.01784 0.11661 0.0
H1922 H 0.54357 0.01037 0.1354 0.0
H1923 H 0.556 0.03123 0.13423 0.0
H1924 H 0.56697 0.03881 0.16236 0.0
H1925 H 0.55044 0.03557 0.18376 0.0
H1926 H 0.98544 0.63215 0.10718 0.0
H1927 H 0.98372 0.61392 0.12595 0.0
H1928 H 0.96516 0.57613 0.08836 0.0
H1929 H 0.96685 0.59423 0.06945 0.0
H1930 H 0.95088 0.56875 0.11987 0.0
H1931 H 0.01409 0.59757 0.12232 0.0
H1932 H 0.00692 0.61034 0.12537 0.0
H1933 H 0.00351 0.59957 0.10641 0.0
C1934 C 0.98075 0.6199 0.10293 0.0
C1935 C 0.97641 0.61468 0.08678 0.0
C1936 C 0.97982 0.60953 0.11366 0.0
C1937 C 0.97448 0.59377 0.10846 0.0
C1938 C 0.96934 0.58828 0.09255 0.0
H1939 H 0.98955 0.52664 0.15031 0.0
H1940 H 0.98656 0.54322 0.13264 0.0
C1941 C 0.97034 0.59865 0.08178 0.0
C1942 C 0.97531 0.58332 0.11932 0.0
H1943 H 0.00064 0.57709 0.13869 0.0
C1944 C 0.96173 0.57056 0.12405 0.0
C1945 C 0.9895 0.58567 0.12454 0.0
C1946 C 0.00438 0.59895 0.11936 0.0
C1947 C 0.96201 0.56013 0.13406 0.0
C1948 C 0.97622 0.5626 0.13943 0.0
C1949 C 0.98978 0.57529 0.13457 0.0
C1950 C 0.97735 0.55209 0.14999 0.0
C1951 C 0.94713 0.54638 0.13862 0.0
C1952 C 0.97324 0.55169 0.16561 0.0
C1953 C 0.9751 0.54237 0.1758 0.0
C1954 C 0.98111 0.53329 0.17054 0.0
C1955 C 0.98508 0.53364 0.15481 0.0
C1956 C 0.98329 0.54302 0.14466 0.0
H1957 H 0.93721 0.54433 0.13106 0.0
H1958 H 0.94735 0.53541 0.13776 0.0
H1959 H 0.94546 0.54883 0.15108 0.0
H1960 H 0.9689 0.55885 0.17001 0.0
H1961 H 0.97218 0.54261 0.1879 0.0
H1962 H 0.41742 0.43079 0.03184 0.0
H1963 H 0.43463 0.43764 0.05538 0.0
H1964 H 0.40825 0.38932 0.06667 0.0
H1965 H 0.39115 0.38229 0.04302 0.0
H1966 H 0.42622 0.43504 0.0857 0.0
H1967 H 0.45165 0.39926 0.07266 0.0
H1968 H 0.4416 0.40295 0.05761 0.0
H1969 H 0.43115 0.38793 0.07068 0.0
C1970 C 0.41538 0.42157 0.03921 0.0
C1971 C 0.40289 0.406 0.03556 0.0
C1972 C 0.42524 0.4255 0.05265 0.0
C1973 C 0.42284 0.41395 0.06266 0.0
C1974 C 0.41053 0.39835 0.05892 0.0
H1975 H 0.45492 0.41469 0.15743 0.0
H1976 H 0.44307 0.40752 0.13039 0.0
C1977 C 0.40069 0.39438 0.04545 0.0
C1978 C 0.43242 0.4185 0.07768 0.0
H1979 H 0.45528 0.41043 0.09938 0.0
C1980 C 0.43271 0.42979 0.08862 0.0
C1981 C 0.44081 0.41156 0.08148 0.0
C1982 C 0.44143 0.39986 0.06993 0.0
C1983 C 0.44085 0.43406 0.10342 0.0
C1984 C 0.44911 0.42702 0.10728 0.0
C1985 C 0.44894 0.41581 0.09633 0.0
C1986 C 0.4576 0.43089 0.12288 0.0
C1987 C 0.44018 0.44573 0.11499 0.0
C1988 C 0.47002 0.44625 0.12739 0.0
C1989 C 0.47684 0.45038 0.14279 0.0
C1990 C 0.47138 0.43917 0.15392 0.0
C1991 C 0.45947 0.42355 0.1491 0.0
C1992 C 0.45264 0.41945 0.13368 0.0
H1993 H 0.43077 0.44744 0.11153 0.0
H1994 H 0.43858 0.44176 0.12706 0.0
H1995 H 0.4511 0.45734 0.11545 0.0
H1996 H 0.47416 0.45517 0.11911 0.0
H1997 H 0.48617 0.46243 0.14609 0.0
H1998 H 0.66932 0.72844 0.39155 0.0
H1999 H 0.66098 0.73908 0.41278 0.0
H2000 H 0.61522 0.71327 0.39048 0.0
H2001 H 0.62343 0.70239 0.36912 0.0
H2002 H 0.64699 0.75704 0.41078 0.0
H2003 H 0.61021 0.69983 0.43618 0.0
H2004 H 0.6243 0.70265 0.42252 0.0
H2005 H 0.60666 0.70029 0.41546 0.0
C2006 C 0.65747 0.725 0.39111 0.0
C2007 C 0.64702 0.71449 0.37867 0.0
C2008 C 0.65275 0.73114 0.40324 0.0
C2009 C 0.63748 0.72686 0.40325 0.0
C2010 C 0.62702 0.71656 0.39076 0.0
H2011 H 0.61319 0.77572 0.47566 0.0
H2012 H 0.61372 0.76341 0.44989 0.0
C2013 C 0.63175 0.7104 0.37856 0.0
C2014 C 0.63266 0.7331 0.41656 0.0
H2015 H 0.61272 0.72245 0.44956 0.0
C2016 C 0.63932 0.74949 0.41916 0.0
C2017 C 0.62273 0.72317 0.42747 0.0
C2018 C 0.6156 0.70551 0.42542 0.0
C2019 C 0.63672 0.7563 0.43269 0.0
C2020 C 0.62708 0.7464 0.4438 0.0
C2021 C 0.62001 0.72996 0.44093 0.0
C2022 C 0.62562 0.75298 0.45927 0.0
C2023 C 0.64492 0.77406 0.43544 0.0
C2024 C 0.63175 0.7508 0.47303 0.0
C2025 C 0.63142 0.75772 0.48767 0.0
C2026 C 0.6249 0.76693 0.48884 0.0
C2027 C 0.61829 0.76868 0.4751 0.0
C2028 C 0.61867 0.76176 0.46039 0.0
H2029 H 0.65375 0.78007 0.42691 0.0
H2030 H 0.63653 0.77765 0.43413 0.0
H2031 H 0.65049 0.77825 0.44762 0.0
H2032 H 0.6371 0.74399 0.47241 0.0
H2033 H 0.63634 0.75591 0.49809 0.0
H2034 H 0.29069 0.92396 0.43602 0.0
H2035 H 0.27894 0.90457 0.45542 0.0
H2036 H 0.23857 0.90682 0.45138 0.0
H2037 H 0.25013 0.9261 0.43203 0.0
H2038 H 0.26753 0.90856 0.485 0.0
H2039 H 0.22246 0.85896 0.44407 0.0
H2040 H 0.23925 0.87569 0.43726 0.0
H2041 H 0.22351 0.87732 0.44293 0.0
C2042 C 0.27929 0.92028 0.43922 0.0
C2043 C 0.27132 0.92653 0.43246 0.0
C2044 C 0.27262 0.90923 0.4503 0.0
C2045 C 0.25783 0.90414 0.45463 0.0
C2046 C 0.2499 0.91042 0.44797 0.0
H2047 H 0.19247 0.84691 0.51746 0.0
H2048 H 0.20762 0.86404 0.49755 0.0
C2049 C 0.25657 0.9215 0.43698 0.0
C2050 C 0.25074 0.8926 0.46644 0.0
H2051 H 0.21945 0.85654 0.47165 0.0
C2052 C 0.25714 0.89708 0.4821 0.0
C2053 C 0.23722 0.87767 0.46253 0.0
C2054 C 0.23025 0.87202 0.44576 0.0
C2055 C 0.24991 0.88729 0.49415 0.0
C2056 C 0.23609 0.87257 0.49031 0.0
C2057 C 0.23001 0.86788 0.47455 0.0
C2058 C 0.22721 0.86227 0.50258 0.0
C2059 C 0.25671 0.89309 0.51096 0.0
C2060 C 0.23319 0.85552 0.51195 0.0
C2061 C 0.2246 0.84583 0.52349 0.0
C2062 C 0.20987 0.84269 0.52578 0.0
C2063 C 0.20389 0.84935 0.51622 0.0
C2064 C 0.21247 0.85902 0.50474 0.0
H2065 H 0.26557 0.90593 0.51232 0.0
H2066 H 0.24771 0.89078 0.51914 0.0
H2067 H 0.26214 0.88665 0.51457 0.0
H2068 H 0.24446 0.85769 0.51028 0.0
H2069 H 0.22953 0.84091 0.53069 0.0
H2070 H 0.10069 0.35331 0.38684 0.0
H2071 H 0.11767 0.35857 0.41017 0.0
H2072 H 0.10041 0.38429 0.43473 0.0
H2073 H 0.08356 0.37929 0.41144 0.0
H2074 H 0.13267 0.39851 0.43982 0.0
H2075 H 0.09962 0.33469 0.44941 0.0
H2076 H 0.10712 0.33924 0.43035 0.0
H2077 H 0.09267 0.34301 0.43593 0.0
C2078 C 0.10062 0.36023 0.39714 0.0
C2079 C 0.09063 0.36572 0.39736 0.0
C2080 C 0.1103 0.36319 0.41046 0.0
C2081 C 0.1101 0.3716 0.42423 0.0
C2082 C 0.10069 0.37773 0.42422 0.0
H2083 H 0.13026 0.36869 0.52128 0.0
H2084 H 0.11972 0.36823 0.49508 0.0
C2085 C 0.09103 0.37481 0.41091 0.0
C2086 C 0.11888 0.37314 0.43899 0.0
H2087 H 0.12061 0.35168 0.4675 0.0
C2088 C 0.13015 0.38829 0.44584 0.0
C2089 C 0.1154 0.35976 0.44686 0.0
C2090 C 0.10297 0.34325 0.44038 0.0
C2091 C 0.13794 0.39042 0.46049 0.0
C2092 C 0.13441 0.37704 0.46835 0.0
C2093 C 0.12332 0.3619 0.46137 0.0
C2094 C 0.14128 0.37839 0.48433 0.0
C2095 C 0.14947 0.40696 0.46772 0.0
C2096 C 0.15694 0.38437 0.48697 0.0
C2097 C 0.16301 0.3846 0.50198 0.0
C2098 C 0.15347 0.37874 0.51449 0.0
C2099 C 0.13786 0.37305 0.51182 0.0
C2100 C 0.13183 0.37285 0.49688 0.0
H2101 H 0.1488 0.41602 0.46158 0.0
H2102 H 0.14776 0.40833 0.48042 0.0
H2103 H 0.16114 0.40925 0.46688 0.0
H2104 H 0.16438 0.38847 0.47736 0.0
H2105 H 0.17506 0.38891 0.50367 0.0
H2106 H 0.079 0.30452 0.33221 0.0
H2107 H 0.08572 0.2966 0.30737 0.0
H2108 H 0.07033 0.32198 0.28194 0.0
H2109 H 0.0637 0.33004 0.30659 0.0
H2110 H 0.06747 0.28027 0.27764 0.0
H2111 H 0.11557 0.34154 0.27185 0.0
H2112 H 0.10667 0.33539 0.29017 0.0
H2113 H 0.09754 0.33957 0.27471 0.0
C2114 C 0.07696 0.30833 0.32132 0.0
C2115 C 0.07099 0.31807 0.32141 0.0
C2116 C 0.08078 0.30377 0.30715 0.0
C2117 C 0.07872 0.30892 0.29291 0.0
C2118 C 0.07223 0.31811 0.29287 0.0
H2119 H 0.10374 0.30624 0.19722 0.0
H2120 H 0.09257 0.309 0.22127 0.0
C2121 C 0.06843 0.32268 0.30698 0.0
C2122 C 0.08389 0.30525 0.27811 0.0
H2123 H 0.1091 0.32266 0.25001 0.0
C2124 C 0.07661 0.28949 0.2716 0.0
C2125 C 0.09583 0.31734 0.27033 0.0
C2126 C 0.10448 0.3344 0.27716 0.0
C2127 C 0.08073 0.28554 0.25722 0.0
C2128 C 0.09258 0.29767 0.24936 0.0
C2129 C 0.09993 0.3134 0.256 0.0
C2130 C 0.09779 0.29445 0.23434 0.0
C2131 C 0.07214 0.2685 0.25037 0.0
C2132 C 0.10429 0.28524 0.23368 0.0
C2133 C 0.11069 0.28365 0.21995 0.0
C2134 C 0.11082 0.29139 0.20671 0.0
C2135 C 0.10393 0.30026 0.20728 0.0
C2136 C 0.0975 0.3018 0.22098 0.0
H2137 H 0.06096 0.2614 0.25552 0.0
H2138 H 0.07015 0.26753 0.23733 0.0
H2139 H 0.07901 0.2633 0.25304 0.0
H2140 H 0.10496 0.27978 0.24397 0.0
H2141 H 0.11613 0.27695 0.21995 0.0
H2142 H 0.70639 0.74128 0.32022 0.0
H2143 H 0.71638 0.76171 0.3017 0.0
H2144 H 0.67045 0.74821 0.28732 0.0
H2145 H 0.66038 0.7279 0.30571 0.0
H2146 H 0.70928 0.75818 0.26784 0.0
H2147 H 0.69336 0.79644 0.30063 0.0
H2148 H 0.69452 0.78124 0.30955 0.0
H2149 H 0.67798 0.77613 0.29699 0.0
C2150 C 0.69843 0.74267 0.3131 0.0
C2151 C 0.68259 0.73303 0.3145 0.0
C2152 C 0.70415 0.75432 0.30254 0.0
C2153 C 0.69414 0.75659 0.29335 0.0
C2154 C 0.67836 0.74681 0.29452 0.0
H2155 H 0.69801 0.79884 0.20872 0.0
H2156 H 0.69576 0.78169 0.22895 0.0
C2157 C 0.67263 0.73516 0.305 0.0
C2158 C 0.70003 0.76907 0.28239 0.0
H2159 H 0.69951 0.80153 0.27394 0.0
C2160 C 0.70735 0.76779 0.26925 0.0
C2161 C 0.69768 0.78171 0.28441 0.0
C2162 C 0.69059 0.7841 0.29873 0.0
C2163 C 0.7117 0.77842 0.25763 0.0
C2164 C 0.70848 0.79048 0.25917 0.0
C2165 C 0.70185 0.7922 0.27271 0.0
C2166 C 0.71103 0.80088 0.2465 0.0
C2167 C 0.71958 0.77657 0.24375 0.0
C2168 C 0.72023 0.81736 0.24971 0.0
C2169 C 0.72141 0.8272 0.23822 0.0
C2170 C 0.71327 0.82071 0.22336 0.0
C2171 C 0.70431 0.80419 0.22009 0.0
C2172 C 0.70317 0.79437 0.23157 0.0
H2173 H 0.7253 0.77022 0.24664 0.0
H2174 H 0.71096 0.76957 0.23371 0.0
H2175 H 0.7282 0.78823 0.23988 0.0
H2176 H 0.72627 0.82261 0.26122 0.0
H2177 H 0.72825 0.83988 0.24116 0.0
H2178 H 0.25796 0.90981 0.35737 0.0
H2179 H 0.24096 0.90385 0.33392 0.0
H2180 H 0.24841 0.95047 0.34072 0.0
H2181 H 0.26565 0.95666 0.36411 0.0
H2182 H 0.21403 0.90453 0.32935 0.0
H2183 H 0.26147 0.94816 0.29587 0.0
H2184 H 0.26485 0.94188 0.31408 0.0
H2185 H 0.25893 0.95578 0.31448 0.0
C2186 C 0.25592 0.91878 0.35396 0.0
C2187 C 0.26329 0.93377 0.36251 0.0
C2188 C 0.24617 0.91534 0.34058 0.0
C2189 C 0.24362 0.9268 0.33547 0.0
C2190 C 0.25045 0.94156 0.34433 0.0
H2191 H 0.20017 0.92206 0.24356 0.0
H2192 H 0.21037 0.93043 0.27125 0.0
C2193 C 0.26024 0.94504 0.35771 0.0
C2194 C 0.23436 0.92344 0.32048 0.0
H2195 H 0.23708 0.93329 0.28255 0.0
C2196 C 0.21901 0.9109 0.31914 0.0
C2197 C 0.24089 0.93182 0.30722 0.0
C2198 C 0.25746 0.94509 0.30786 0.0
C2199 C 0.21009 0.9063 0.30477 0.0
C2200 C 0.2168 0.9143 0.29137 0.0
C2201 C 0.23196 0.92722 0.29287 0.0
C2202 C 0.20885 0.90861 0.27535 0.0
C2203 C 0.19362 0.89284 0.30403 0.0
C2204 C 0.20453 0.89355 0.26856 0.0
C2205 C 0.19871 0.88876 0.25282 0.0
C2206 C 0.1972 0.89898 0.24353 0.0
C2207 C 0.20108 0.91388 0.25048 0.0
C2208 C 0.20696 0.9187 0.26625 0.0
H2209 H 0.18896 0.89148 0.31584 0.0
H2210 H 0.18639 0.8946 0.29561 0.0
H2211 H 0.19283 0.88166 0.29998 0.0
H2212 H 0.20618 0.8857 0.27525 0.0
H2213 H 0.19568 0.87715 0.24782 0.0
H2214 H 0.66475 0.93448 0.34151 0.0
H2215 H 0.67419 0.92425 0.32107 0.0
H2216 H 0.71993 0.95372 0.34317 0.0
H2217 H 0.71048 0.96377 0.36397 0.0
H2218 H 0.6945 0.94076 0.30019 0.0
H2219 H 0.71599 0.91128 0.33597 0.0
H2220 H 0.70383 0.91764 0.3436 0.0
H2221 H 0.72389 0.93172 0.34253 0.0
C2222 C 0.67681 0.93871 0.34213 0.0
C2223 C 0.68687 0.94994 0.35437 0.0
C2224 C 0.68218 0.93284 0.33043 0.0
C2225 C 0.69774 0.93808 0.33068 0.0
C2226 C 0.70783 0.94925 0.34292 0.0
H2227 H 0.73428 0.92437 0.24405 0.0
H2228 H 0.73117 0.93633 0.26842 0.0
C2229 C 0.70243 0.95505 0.35474 0.0
C2230 C 0.70334 0.93243 0.31759 0.0
H2231 H 0.72121 0.91267 0.30892 0.0
C2232 C 0.70037 0.93464 0.3021 0.0
C2233 C 0.71088 0.92434 0.32012 0.0
C2234 C 0.71373 0.92095 0.33643 0.0
C2235 C 0.70454 0.92884 0.28904 0.0
C2236 C 0.71234 0.92101 0.29156 0.0
C2237 C 0.71542 0.91887 0.30705 0.0
C2238 C 0.71647 0.91412 0.27814 0.0
C2239 C 0.70002 0.93065 0.27266 0.0
C2240 C 0.71009 0.89775 0.27601 0.0
C2241 C 0.71215 0.89088 0.26224 0.0
C2242 C 0.72057 0.90025 0.2503 0.0
C2243 C 0.72779 0.91677 0.25299 0.0
C2244 C 0.72585 0.92363 0.26684 0.0
H2245 H 0.69084 0.93324 0.27278 0.0
H2246 H 0.71007 0.94063 0.26779 0.0
H2247 H 0.69599 0.91979 0.2646 0.0
H2248 H 0.70294 0.8902 0.28467 0.0
H2249 H 0.70671 0.87816 0.26071 0.0
H2250 H 0.0608 0.7667 0.32326 0.0
H2251 H 0.0753 0.7869 0.30541 0.0
H2252 H 0.048 0.75373 0.26539 0.0
H2253 H 0.03321 0.73359 0.28315 0.0
H2254 H 0.09266 0.78491 0.28382 0.0
H2255 H 0.04949 0.79288 0.25381 0.0
H2256 H 0.04605 0.78301 0.27163 0.0
H2257 H 0.04379 0.77253 0.2527 0.0
C2258 C 0.05768 0.76379 0.31067 0.0
C2259 C 0.04587 0.74852 0.30461 0.0
C2260 C 0.06599 0.77535 0.30049 0.0
C2261 C 0.06263 0.77189 0.28407 0.0
C2262 C 0.05056 0.7568 0.27803 0.0
H2263 H 0.1243 0.8104 0.21122 0.0
H2264 H 0.10703 0.79472 0.23078 0.0
C2265 C 0.04218 0.74525 0.2882 0.0
C2266 C 0.07275 0.78345 0.27324 0.0
H2267 H 0.07287 0.80211 0.24106 0.0
C2268 C 0.08835 0.78882 0.2746 0.0
C2269 C 0.06717 0.78869 0.26132 0.0
C2270 C 0.05073 0.78411 0.25987 0.0
C2271 C 0.0984 0.79881 0.26402 0.0
C2272 C 0.09265 0.80329 0.25153 0.0
C2273 C 0.07719 0.79846 0.25052 0.0
C2274 C 0.10248 0.81258 0.23919 0.0
C2275 C 0.11511 0.80445 0.26628 0.0
C2276 C 0.10523 0.82759 0.23707 0.0
C2277 C 0.1151 0.83659 0.22585 0.0
C2278 C 0.12234 0.83067 0.21658 0.0
C2279 C 0.11916 0.81542 0.21842 0.0
C2280 C 0.10929 0.80644 0.22958 0.0
H2281 H 0.11835 0.80377 0.27863 0.0
H2282 H 0.11743 0.79683 0.25836 0.0
H2283 H 0.12247 0.81682 0.26331 0.0
H2284 H 0.1 0.83248 0.24433 0.0
H2285 H 0.11737 0.84832 0.22473 0.0
H2286 H 0.26197 0.29961 0.31873 0.0
H2287 H 0.24252 0.29107 0.29691 0.0
H2288 H 0.2194 0.30828 0.32508 0.0
H2289 H 0.23886 0.31702 0.34691 0.0
H2290 H 0.20972 0.27044 0.295 0.0
H2291 H 0.22913 0.33244 0.28523 0.0
H2292 H 0.24042 0.32751 0.29713 0.0
H2293 H 0.22436 0.32723 0.30498 0.0
C2294 C 0.25269 0.30148 0.32034 0.0
C2295 C 0.25206 0.30916 0.3345 0.0
C2296 C 0.24157 0.29656 0.30787 0.0
C2297 C 0.22968 0.29926 0.30933 0.0
C2298 C 0.22865 0.30632 0.32365 0.0
H2299 H 0.16389 0.29214 0.23797 0.0
H2300 H 0.1768 0.29413 0.26338 0.0
C2301 C 0.23976 0.31127 0.33612 0.0
C2302 C 0.21879 0.29539 0.29559 0.0
H2303 H 0.20779 0.31232 0.26925 0.0
C2304 C 0.20923 0.27956 0.28938 0.0
C2305 C 0.21821 0.30734 0.28832 0.0
C2306 C 0.22865 0.3246 0.29413 0.0
C2307 C 0.19904 0.27536 0.27605 0.0
C2308 C 0.19864 0.28735 0.26864 0.0
C2309 C 0.20805 0.30314 0.27502 0.0
C2310 C 0.18923 0.28404 0.25375 0.0
C2311 C 0.18873 0.25814 0.27011 0.0
C2312 C 0.19178 0.27751 0.23997 0.0
C2313 C 0.18443 0.27637 0.22546 0.0
C2314 C 0.17451 0.28189 0.22446 0.0
C2315 C 0.17156 0.28791 0.23837 0.0
C2316 C 0.17888 0.28899 0.25288 0.0
H2317 H 0.18703 0.25036 0.27957 0.0
H2318 H 0.1774 0.25545 0.26544 0.0
H2319 H 0.19405 0.25524 0.2604 0.0
H2320 H 0.20001 0.27398 0.24028 0.0
H2321 H 0.18715 0.27194 0.21491 0.0
H2322 H 0.2812 0.3654 0.41565 0.0
H2323 H 0.27513 0.37497 0.43991 0.0
H2324 H 0.23476 0.32875 0.44208 0.0
H2325 H 0.24072 0.31906 0.41799 0.0
H2326 H 0.2483 0.37504 0.44614 0.0
H2327 H 0.25768 0.33898 0.48597 0.0
H2328 H 0.26465 0.34229 0.46648 0.0
H2329 H 0.24498 0.32765 0.46886 0.0
C2330 C 0.27102 0.35728 0.42129 0.0
C2331 C 0.26148 0.34144 0.41493 0.0
C2332 C 0.26759 0.36276 0.43513 0.0
C2333 C 0.25465 0.35248 0.44289 0.0
C2334 C 0.24497 0.33678 0.43642 0.0
H2335 H 0.20025 0.3647 0.50837 0.0
H2336 H 0.21252 0.36188 0.48536 0.0
C2337 C 0.24836 0.33129 0.4226 0.0
C2338 C 0.25102 0.35812 0.45764 0.0
H2339 H 0.24413 0.35055 0.49605 0.0
C2340 C 0.24756 0.36985 0.45712 0.0
C2341 C 0.25033 0.35151 0.472 0.0
C2342 C 0.25475 0.33952 0.47346 0.0
C2343 C 0.24268 0.37457 0.47041 0.0
C2344 C 0.24106 0.36723 0.48448 0.0
C2345 C 0.24525 0.35607 0.48521 0.0
C2346 C 0.23416 0.37016 0.49826 0.0
C2347 C 0.23918 0.38728 0.46925 0.0
C2348 C 0.24219 0.37556 0.51319 0.0
C2349 C 0.23514 0.37704 0.52643 0.0
C2350 C 0.21988 0.37295 0.52494 0.0
C2351 C 0.21197 0.36779 0.50991 0.0
C2352 C 0.21903 0.36636 0.49671 0.0
H2353 H 0.24533 0.39493 0.45978 0.0
H2354 H 0.22675 0.38167 0.46631 0.0
H2355 H 0.24231 0.3948 0.48061 0.0
H2356 H 0.25384 0.37841 0.51464 0.0
H2357 H 0.24147 0.3809 0.53788 0.0
H2358 H 0.67318 0.94773 0.43342 0.0
H2359 H 0.66426 0.92796 0.45237 0.0
H2360 H 0.61943 0.90224 0.42784 0.0
H2361 H 0.62832 0.92194 0.40862 0.0
H2362 H 0.63993 0.91769 0.47246 0.0
H2363 H 0.63148 0.86916 0.42897 0.0
H2364 H 0.64223 0.88962 0.42496 0.0
H2365 H 0.62174 0.87888 0.42394 0.0
C2366 C 0.6614 0.93791 0.43204 0.0
C2367 C 0.65149 0.93635 0.41943 0.0
C2368 C 0.65632 0.92664 0.44291 0.0
C2369 C 0.64126 0.91355 0.44137 0.0
C2370 C 0.63118 0.91214 0.42906 0.0
H2371 H 0.60404 0.83205 0.49752 0.0
H2372 H 0.60566 0.85056 0.47903 0.0
C2373 C 0.63626 0.92344 0.41815 0.0
C2374 C 0.63636 0.90133 0.45257 0.0
H2375 H 0.62658 0.86332 0.45528 0.0
C2376 C 0.63687 0.90576 0.4687 0.0
C2377 C 0.63232 0.88576 0.4476 0.0
C2378 C 0.63199 0.88052 0.43045 0.0
C2379 C 0.63378 0.89512 0.48005 0.0
C2380 C 0.63035 0.87976 0.47514 0.0
C2381 C 0.62924 0.87512 0.45897 0.0
C2382 C 0.62904 0.86877 0.48666 0.0
C2383 C 0.63437 0.90046 0.49722 0.0
C2384 C 0.64169 0.87284 0.49692 0.0
C2385 C 0.64081 0.86235 0.50743 0.0
C2386 C 0.62726 0.84752 0.50784 0.0
C2387 C 0.61457 0.84345 0.49756 0.0
C2388 C 0.6155 0.85397 0.48697 0.0
H2389 H 0.63262 0.91047 0.49855 0.0
H2390 H 0.62559 0.89064 0.50354 0.0
H2391 H 0.64578 0.90452 0.50297 0.0
H2392 H 0.65234 0.8841 0.49667 0.0
H2393 H 0.65072 0.86589 0.51532 0.0
H2394 H 0.05613 0.72877 0.39174 0.0
H2395 H 0.07275 0.73673 0.41594 0.0
H2396 H 0.11215 0.75497 0.38852 0.0
H2397 H 0.09558 0.74696 0.36414 0.0
H2398 H 0.11135 0.73608 0.41298 0.0
H2399 H 0.10157 0.78315 0.43488 0.0
H2400 H 0.08437 0.76426 0.42955 0.0
H2401 H 0.09697 0.77462 0.41458 0.0
C2402 C 0.06832 0.73447 0.39081 0.0
C2403 C 0.07454 0.73733 0.37601 0.0
C2404 C 0.0778 0.73905 0.40467 0.0
C2405 C 0.09367 0.74662 0.404 0.0
C2406 C 0.09992 0.74921 0.38926 0.0
H2407 H 0.15548 0.79532 0.48834 0.0
H2408 H 0.14431 0.7885 0.46104 0.0
C2409 C 0.09044 0.74465 0.37536 0.0
C2410 C 0.10367 0.75186 0.41876 0.0
H2411 H 0.11384 0.77573 0.45321 0.0
C2412 C 0.11203 0.74484 0.42175 0.0
C2413 C 0.10468 0.76346 0.43003 0.0
C2414 C 0.09654 0.77194 0.42708 0.0
C2415 C 0.12096 0.74873 0.43602 0.0
C2416 C 0.12138 0.75978 0.4476 0.0
C2417 C 0.11343 0.76718 0.44435 0.0
C2418 C 0.12949 0.76351 0.46342 0.0
C2419 C 0.12988 0.741 0.43857 0.0
C2420 C 0.125 0.75169 0.47374 0.0
C2421 C 0.13133 0.75555 0.48933 0.0
C2422 C 0.14218 0.77134 0.49492 0.0
C2423 C 0.14703 0.78307 0.4844 0.0
C2424 C 0.14071 0.7792 0.46881 0.0
H2425 H 0.13192 0.73656 0.42718 0.0
H2426 H 0.14105 0.74936 0.44523 0.0
H2427 H 0.12326 0.73078 0.44554 0.0
H2428 H 0.1161 0.73957 0.46993 0.0
H2429 H 0.12718 0.74629 0.49722 0.0
H2430 H 0.35147 0.08933 0.71526 0.0
H2431 H 0.33963 0.09742 0.73504 0.0
H2432 H 0.29926 0.05043 0.72991 0.0
H2433 H 0.31107 0.04214 0.71024 0.0
H2434 H 0.31151 0.09638 0.73326 0.0
H2435 H 0.31266 0.05848 0.77747 0.0
H2436 H 0.32352 0.06281 0.76023 0.0
H2437 H 0.3033 0.04859 0.7584 0.0
C2438 C 0.34005 0.08071 0.71829 0.0
C2439 C 0.33227 0.06505 0.71129 0.0
C2440 C 0.33329 0.08538 0.72955 0.0
C2441 C 0.31866 0.07447 0.73406 0.0
C2442 C 0.31066 0.05895 0.72676 0.0
H2443 H 0.27482 0.08771 0.81507 0.0
H2444 H 0.27796 0.07678 0.78983 0.0
C2445 C 0.31742 0.05426 0.7155 0.0
C2446 C 0.3121 0.07931 0.74679 0.0
H2447 H 0.3026 0.07392 0.78497 0.0
C2448 C 0.30943 0.09139 0.74453 0.0
C2449 C 0.30934 0.07271 0.76144 0.0
C2450 C 0.31244 0.06001 0.76466 0.0
C2451 C 0.30434 0.09728 0.75667 0.0
C2452 C 0.30212 0.09108 0.7715 0.0
C2453 C 0.30426 0.07861 0.77356 0.0
C2454 C 0.29897 0.09825 0.78549 0.0
C2455 C 0.30147 0.11015 0.75355 0.0
C2456 C 0.30963 0.11397 0.7913 0.0
C2457 C 0.30785 0.12022 0.80564 0.0
C2458 C 0.29542 0.11083 0.81452 0.0
C2459 C 0.28443 0.09526 0.80841 0.0
C2460 C 0.28624 0.08899 0.79404 0.0
H2461 H 0.29882 0.10992 0.74074 0.0
H2462 H 0.2919 0.10903 0.76016 0.0
H2463 H 0.31191 0.12181 0.75741 0.0
H2464 H 0.3197 0.12123 0.78507 0.0
H2465 H 0.31644 0.1323 0.81001 0.0
H2466 H 0.95336 0.24132 0.7488 0.0
H2467 H 0.94175 0.22204 0.76834 0.0
H2468 H 0.92183 0.24709 0.78833 0.0
H2469 H 0.93335 0.26636 0.769 0.0
H2470 H 0.93716 0.23843 0.81085 0.0
H2471 H 0.89476 0.1884 0.76791 0.0
H2472 H 0.91449 0.1987 0.76343 0.0
H2473 H 0.90439 0.2087 0.76338 0.0
C2474 C 0.94652 0.24272 0.75737 0.0
C2475 C 0.94421 0.25533 0.75731 0.0
C2476 C 0.93987 0.23168 0.76848 0.0
C2477 C 0.93086 0.23312 0.77966 0.0
C2478 C 0.92875 0.2458 0.77977 0.0
H2479 H 0.86183 0.17469 0.83816 0.0
H2480 H 0.87809 0.19128 0.81843 0.0
C2481 C 0.93531 0.25677 0.76867 0.0
C2482 C 0.9234 0.22139 0.79125 0.0
H2483 H 0.89366 0.18384 0.79475 0.0
C2484 C 0.92778 0.22641 0.80736 0.0
C2485 C 0.91112 0.20581 0.78658 0.0
C2486 C 0.90577 0.2 0.7694 0.0
C2487 C 0.91992 0.21635 0.81901 0.0
C2488 C 0.90744 0.20087 0.81435 0.0
C2489 C 0.90331 0.19571 0.79822 0.0
C2490 C 0.89768 0.19038 0.82604 0.0
C2491 C 0.92456 0.22255 0.83621 0.0
C2492 C 0.90331 0.18427 0.83673 0.0
C2493 C 0.89404 0.17483 0.84808 0.0
C2494 C 0.87905 0.17141 0.84891 0.0
C2495 C 0.87341 0.17735 0.83799 0.0
C2496 C 0.88263 0.18671 0.82663 0.0
H2497 H 0.93296 0.23551 0.83778 0.0
H2498 H 0.9144 0.21987 0.84268 0.0
H2499 H 0.92981 0.21663 0.84166 0.0
H2500 H 0.91486 0.18688 0.83634 0.0
H2501 H 0.89869 0.17044 0.85638 0.0
H2502 H 0.74193 0.70764 0.74339 0.0
H2503 H 0.75904 0.713 0.76655 0.0
H2504 H 0.77975 0.6917 0.7404 0.0
H2505 H 0.76258 0.68615 0.71717 0.0
H2506 H 0.77006 0.67964 0.76912 0.0
H2507 H 0.80483 0.74511 0.77687 0.0
H2508 H 0.78463 0.73704 0.7749 0.0
H2509 H 0.79385 0.73407 0.75862 0.0
C2510 C 0.75027 0.70429 0.74247 0.0
C2511 C 0.75086 0.69643 0.72844 0.0
C2512 C 0.76012 0.70747 0.7557 0.0
C2513 C 0.77079 0.70293 0.75513 0.0
C2514 C 0.77165 0.6954 0.74104 0.0
H2515 H 0.83616 0.72136 0.83432 0.0
H2516 H 0.82512 0.72035 0.80804 0.0
C2517 C 0.76183 0.69224 0.72779 0.0
C2518 C 0.78005 0.70477 0.76963 0.0
H2519 H 0.80523 0.73182 0.79913 0.0
C2520 C 0.77789 0.69107 0.77558 0.0
C2521 C 0.79037 0.71969 0.77795 0.0
C2522 C 0.7937 0.73484 0.7717 0.0
C2523 C 0.78529 0.69184 0.78997 0.0
C2524 C 0.79497 0.70668 0.79869 0.0
C2525 C 0.79766 0.72045 0.79245 0.0
C2526 C 0.80179 0.70796 0.81465 0.0
C2527 C 0.78257 0.67676 0.79583 0.0
C2528 C 0.79234 0.70163 0.82707 0.0
C2529 C 0.79858 0.70229 0.84206 0.0
C2530 C 0.81443 0.7093 0.84493 0.0
C2531 C 0.82393 0.71598 0.83253 0.0
C2532 C 0.81765 0.71535 0.81751 0.0
H2533 H 0.778 0.66703 0.78614 0.0
H2534 H 0.7933 0.67857 0.80136 0.0
H2535 H 0.77411 0.673 0.80492 0.0
H2536 H 0.78009 0.69613 0.82515 0.0
H2537 H 0.79097 0.69736 0.85143 0.0
H2538 H 0.7429 0.63913 0.6592 0.0
H2539 H 0.7505 0.6329 0.63407 0.0
H2540 H 0.73727 0.66117 0.61082 0.0
H2541 H 0.72984 0.66762 0.63581 0.0
H2542 H 0.73344 0.6186 0.60447 0.0
H2543 H 0.78188 0.68005 0.60049 0.0
H2544 H 0.77255 0.67346 0.61851 0.0
H2545 H 0.76391 0.67829 0.60312 0.0
C2546 C 0.74159 0.644 0.64873 0.0
C2547 C 0.73591 0.654 0.64954 0.0
C2548 C 0.74592 0.64041 0.6344 0.0
C2549 C 0.74468 0.6468 0.62068 0.0
C2550 C 0.7386 0.65639 0.62135 0.0
H2551 H 0.76929 0.6454 0.5243 0.0
H2552 H 0.75849 0.64825 0.54863 0.0
C2553 C 0.73431 0.66001 0.63565 0.0
C2554 C 0.74991 0.64363 0.60566 0.0
H2555 H 0.77531 0.66187 0.5779 0.0
C2556 C 0.74263 0.62803 0.59867 0.0
C2557 C 0.76192 0.65598 0.59817 0.0
C2558 C 0.77063 0.67287 0.6055 0.0
C2559 C 0.74684 0.62448 0.58416 0.0
C2560 C 0.75877 0.63685 0.57662 0.0
C2561 C 0.76609 0.65243 0.58367 0.0
C2562 C 0.76414 0.63396 0.56157 0.0
C2563 C 0.73831 0.60759 0.57686 0.0
C2564 C 0.77084 0.62495 0.56081 0.0
C2565 C 0.77708 0.62337 0.54697 0.0
C2566 C 0.77681 0.63085 0.53367 0.0
C2567 C 0.76982 0.63963 0.53439 0.0
C2568 C 0.76358 0.6412 0.54824 0.0
H2569 H 0.72713 0.60028 0.58196 0.0
H2570 H 0.73631 0.60697 0.56386 0.0
H2571 H 0.74523 0.60237 0.57915 0.0
H2572 H 0.7717 0.61957 0.57108 0.0
H2573 H 0.78264 0.61677 0.54691 0.0
H2574 H 0.34922 0.04471 0.61646 0.0
H2575 H 0.35582 0.06406 0.59725 0.0
H2576 H 0.37382 0.1015 0.63517 0.0
H2577 H 0.36731 0.08228 0.6545 0.0
H2578 H 0.34385 0.08411 0.59717 0.0
H2579 H 0.40733 0.11849 0.60297 0.0
H2580 H 0.39588 0.09893 0.60939 0.0
H2581 H 0.39821 0.11568 0.62121 0.0
C2582 C 0.35479 0.05709 0.62072 0.0
C2583 C 0.3577 0.06195 0.63702 0.0
C2584 C 0.35854 0.06811 0.60972 0.0
C2585 C 0.36543 0.0842 0.6148 0.0
C2586 C 0.36874 0.08916 0.63101 0.0
H2587 H 0.38708 0.16802 0.57018 0.0
H2588 H 0.385 0.14899 0.58814 0.0
C2589 C 0.36492 0.07814 0.64204 0.0
C2590 C 0.36797 0.09558 0.60323 0.0
H2591 H 0.39556 0.12873 0.58778 0.0
C2592 C 0.35515 0.0938 0.595 0.0
C2593 C 0.38272 0.10827 0.60059 0.0
C2594 C 0.39687 0.11046 0.6089 0.0
C2595 C 0.35665 0.10457 0.5844 0.0
C2596 C 0.37142 0.11722 0.58165 0.0
C2597 C 0.38426 0.11899 0.58986 0.0
C2598 C 0.37368 0.12888 0.57048 0.0
C2599 C 0.34236 0.10255 0.57664 0.0
C2600 C 0.36839 0.12395 0.55451 0.0
C2601 C 0.36949 0.13476 0.54427 0.0
C2602 C 0.3761 0.15075 0.54977 0.0
C2603 C 0.382 0.15579 0.5656 0.0
C2604 C 0.38079 0.14493 0.57587 0.0
H2605 H 0.33216 0.09506 0.58317 0.0
H2606 H 0.34356 0.11416 0.57584 0.0
H2607 H 0.34027 0.09671 0.56448 0.0
H2608 H 0.36322 0.11169 0.55001 0.0
H2609 H 0.36509 0.13061 0.53206 0.0
H2610 H 0.91704 0.27835 0.69368 0.0
H2611 H 0.90154 0.27061 0.66857 0.0
H2612 H 0.93063 0.25711 0.64698 0.0
H2613 H 0.94621 0.26484 0.67191 0.0
H2614 H 0.92476 0.27723 0.62966 0.0
H2615 H 0.87175 0.22472 0.64746 0.0
H2616 H 0.87966 0.24282 0.66012 0.0
H2617 H 0.89005 0.23316 0.65836 0.0
C2618 C 0.9201 0.27366 0.68361 0.0
C2619 C 0.93285 0.27219 0.6848 0.0
C2620 C 0.91119 0.2692 0.6693 0.0
C2621 C 0.91489 0.26318 0.656 0.0
C2622 C 0.92759 0.2617 0.65715 0.0
H2623 H 0.87086 0.21269 0.56682 0.0
H2624 H 0.88185 0.2219 0.5941 0.0
C2625 C 0.93646 0.2661 0.67142 0.0
C2626 C 0.90584 0.25876 0.64067 0.0
H2627 H 0.87139 0.23122 0.62138 0.0
C2628 C 0.91304 0.26727 0.62785 0.0
C2629 C 0.8906 0.2457 0.63841 0.0
C2630 C 0.88252 0.23595 0.65175 0.0
C2631 C 0.9055 0.26289 0.6127 0.0
C2632 C 0.89031 0.24974 0.61039 0.0
C2633 C 0.883 0.24138 0.62327 0.0
C2634 C 0.88234 0.24373 0.59443 0.0
C2635 C 0.91405 0.27196 0.59916 0.0
C2636 C 0.87865 0.25281 0.58574 0.0
C2637 C 0.87242 0.2476 0.5701 0.0
C2638 C 0.86983 0.23325 0.56295 0.0
C2639 C 0.87297 0.22392 0.57194 0.0
C2640 C 0.87914 0.2291 0.58754 0.0
H2641 H 0.92649 0.27999 0.60243 0.0
H2642 H 0.91242 0.26373 0.58879 0.0
H2643 H 0.9095 0.27921 0.59555 0.0
H2644 H 0.88089 0.26407 0.59093 0.0
H2645 H 0.87015 0.25506 0.56345 0.0
H2646 H 0.34236 0.29009 0.66755 0.0
H2647 H 0.35121 0.27878 0.64753 0.0
H2648 H 0.3635 0.25835 0.6835 0.0
H2649 H 0.35443 0.26943 0.70366 0.0
H2650 H 0.37981 0.28247 0.64447 0.0
H2651 H 0.33449 0.22024 0.65182 0.0
H2652 H 0.33371 0.23683 0.66004 0.0
H2653 H 0.34617 0.23188 0.66941 0.0
C2654 C 0.34698 0.28324 0.67125 0.0
C2655 C 0.34755 0.28054 0.68719 0.0
C2656 C 0.35208 0.27682 0.65978 0.0
C2657 C 0.35782 0.26756 0.66401 0.0
C2658 C 0.35886 0.26523 0.67997 0.0
H2659 H 0.39768 0.23532 0.59181 0.0
H2660 H 0.39466 0.24667 0.6169 0.0
C2661 C 0.35372 0.27163 0.69147 0.0
C2662 C 0.36226 0.26004 0.65154 0.0
H2663 H 0.35179 0.22425 0.63258 0.0
C2664 C 0.37383 0.26974 0.64195 0.0
C2665 C 0.35431 0.24342 0.64825 0.0
C2666 C 0.34139 0.23244 0.65781 0.0
C2667 C 0.3774 0.26329 0.62888 0.0
C2668 C 0.36931 0.24669 0.62548 0.0
C2669 C 0.35804 0.23697 0.63533 0.0
C2670 C 0.3712 0.23923 0.61084 0.0
C2671 C 0.38926 0.27428 0.61837 0.0
C2672 C 0.35891 0.23099 0.59935 0.0
C2673 C 0.36058 0.22451 0.58511 0.0
C2674 C 0.37457 0.22606 0.58207 0.0
C2675 C 0.38681 0.23405 0.59375 0.0
C2676 C 0.38511 0.24054 0.60806 0.0
H2677 H 0.39251 0.28671 0.62107 0.0
H2678 H 0.39969 0.27386 0.62008 0.0
H2679 H 0.385 0.27054 0.60573 0.0
H2680 H 0.3481 0.2299 0.60125 0.0
H2681 H 0.35102 0.21873 0.57627 0.0
H2682 H 0.74255 0.06438 0.6183 0.0
H2683 H 0.75458 0.08335 0.59873 0.0
H2684 H 0.73284 0.10761 0.61564 0.0
H2685 H 0.72076 0.0887 0.63539 0.0
H2686 H 0.73947 0.09053 0.57461 0.0
H2687 H 0.77919 0.14259 0.617 0.0
H2688 H 0.76997 0.12258 0.62233 0.0
H2689 H 0.7593 0.13188 0.62081 0.0
C2690 C 0.74033 0.07376 0.61791 0.0
C2691 C 0.73074 0.07507 0.62844 0.0
C2692 C 0.74719 0.08456 0.60669 0.0
C2693 C 0.7447 0.09693 0.60587 0.0
C2694 C 0.73505 0.09824 0.61625 0.0
H2695 H 0.78879 0.17487 0.54568 0.0
H2696 H 0.772 0.15698 0.56446 0.0
C2697 C 0.72812 0.0874 0.62747 0.0
C2698 C 0.75221 0.10834 0.594 0.0
H2699 H 0.78036 0.14648 0.58996 0.0
C2700 C 0.74834 0.10279 0.57794 0.0
C2701 C 0.76367 0.12434 0.59844 0.0
C2702 C 0.76841 0.13077 0.61557 0.0
C2703 C 0.75585 0.11278 0.56614 0.0
C2704 C 0.76775 0.12862 0.57056 0.0
C2705 C 0.77125 0.13431 0.58663 0.0
C2706 C 0.77734 0.13917 0.55878 0.0
C2707 C 0.751 0.10626 0.54904 0.0
C2708 C 0.78597 0.13512 0.5495 0.0
C2709 C 0.79546 0.14523 0.53875 0.0
C2710 C 0.79664 0.15969 0.53718 0.0
C2711 C 0.78799 0.16373 0.5465 0.0
C2712 C 0.77846 0.15358 0.55727 0.0
H2713 H 0.73904 0.09592 0.54761 0.0
H2714 H 0.75196 0.11538 0.5416 0.0
H2715 H 0.7585 0.10227 0.54461 0.0
H2716 H 0.7855 0.1242 0.5507 0.0
H2717 H 0.80186 0.14169 0.53163 0.0
H2718 H 0.90805 0.67666 0.67218 0.0
H2719 H 0.89171 0.66799 0.64767 0.0
H2720 H 0.8971 0.62838 0.63954 0.0
H2721 H 0.91368 0.6371 0.66391 0.0
H2722 H 0.90217 0.64452 0.61364 0.0
H2723 H 0.84779 0.63145 0.63745 0.0
H2724 H 0.86355 0.65094 0.64411 0.0
H2725 H 0.86356 0.634 0.64979 0.0
C2726 C 0.90566 0.66602 0.66526 0.0
C2727 C 0.91218 0.65758 0.67 0.0
C2728 C 0.89621 0.66102 0.65131 0.0
C2729 C 0.89298 0.64739 0.64192 0.0
C2730 C 0.89937 0.63887 0.64668 0.0
H2731 H 0.8282 0.60819 0.5578 0.0
H2732 H 0.84105 0.61094 0.5836 0.0
C2733 C 0.90885 0.64389 0.6606 0.0
C2734 C 0.88379 0.64267 0.62662 0.0
H2735 H 0.84965 0.63409 0.60963 0.0
C2736 C 0.89062 0.64207 0.61278 0.0
C2737 C 0.86865 0.63924 0.62552 0.0
C2738 C 0.86039 0.63877 0.64002 0.0
C2739 C 0.88295 0.63876 0.59783 0.0
C2740 C 0.86817 0.63626 0.5967 0.0
C2741 C 0.86106 0.63619 0.61054 0.0
C2742 C 0.86026 0.63451 0.58124 0.0
C2743 C 0.89078 0.63807 0.58337 0.0
C2744 C 0.86671 0.64693 0.57155 0.0
C2745 C 0.85947 0.64539 0.55687 0.0
C2746 C 0.84554 0.63142 0.55163 0.0
C2747 C 0.83898 0.61904 0.56146 0.0
C2748 C 0.84625 0.62061 0.5762 0.0
H2749 H 0.89983 0.63566 0.5863 0.0
H2750 H 0.88247 0.6288 0.57417 0.0
H2751 H 0.89627 0.64962 0.57834 0.0
H2752 H 0.8774 0.65785 0.57533 0.0
H2753 H 0.86494 0.65507 0.54951 0.0
H2754 H 0.89972 0.64982 0.74571 0.0
H2755 H 0.89289 0.65967 0.76903 0.0
H2756 H 0.93516 0.70483 0.76961 0.0
H2757 H 0.94208 0.69512 0.74614 0.0
H2758 H 0.91014 0.67128 0.79869 0.0
H2759 H 0.90201 0.71601 0.77279 0.0
H2760 H 0.90213 0.70053 0.76077 0.0
H2761 H 0.91974 0.71737 0.76953 0.0
C2762 C 0.90753 0.6619 0.75069 0.0
C2763 C 0.92145 0.67169 0.74406 0.0
C2764 C 0.90361 0.66749 0.76403 0.0
C2765 C 0.91346 0.683 0.77094 0.0
C2766 C 0.9273 0.6929 0.76429 0.0
H2767 H 0.90303 0.71342 0.86638 0.0
H2768 H 0.91433 0.70974 0.84277 0.0
C2769 C 0.93126 0.6873 0.75093 0.0
C2770 C 0.90942 0.68847 0.7855 0.0
H2771 H 0.89924 0.71387 0.80016 0.0
C2772 C 0.90785 0.68066 0.79907 0.0
C2773 C 0.90639 0.70065 0.78587 0.0
C2774 C 0.90752 0.7091 0.77146 0.0
C2775 C 0.9031 0.68456 0.81297 0.0
C2776 C 0.90002 0.69671 0.81334 0.0
C2777 C 0.90176 0.70466 0.79984 0.0
C2778 C 0.89387 0.70045 0.82728 0.0
C2779 C 0.90088 0.67527 0.82699 0.0
C2780 C 0.87882 0.6969 0.82621 0.0
C2781 C 0.87237 0.69902 0.83961 0.0
C2782 C 0.8809 0.70482 0.8543 0.0
C2783 C 0.8962 0.70897 0.85521 0.0
C2784 C 0.90263 0.70679 0.84178 0.0
H2785 H 0.9011 0.66447 0.82382 0.0
H2786 H 0.91019 0.68278 0.83631 0.0
H2787 H 0.88985 0.67175 0.83204 0.0
H2788 H 0.87191 0.69206 0.81509 0.0
H2789 H 0.86064 0.69597 0.83851 0.0
H2790 H 0.33542 0.29035 0.76884 0.0
H2791 H 0.3264 0.26948 0.78651 0.0
H2792 H 0.28626 0.23953 0.75483 0.0
H2793 H 0.2954 0.26031 0.7368 0.0
H2794 H 0.30007 0.25399 0.80217 0.0
H2795 H 0.30408 0.21214 0.75924 0.0
H2796 H 0.31233 0.23266 0.75619 0.0
H2797 H 0.2921 0.21888 0.75257 0.0
C2798 C 0.32463 0.27936 0.76562 0.0
C2799 C 0.3162 0.27694 0.75133 0.0
C2800 C 0.31948 0.26744 0.77576 0.0
C2801 C 0.30579 0.25286 0.77186 0.0
C2802 C 0.29703 0.25058 0.7579 0.0
H2803 H 0.27107 0.16913 0.82463 0.0
H2804 H 0.27207 0.18746 0.80623 0.0
C2805 C 0.30222 0.2625 0.74767 0.0
C2806 C 0.30106 0.24006 0.78236 0.0
H2807 H 0.29612 0.20376 0.78433 0.0
C2808 C 0.29907 0.24295 0.79823 0.0
C2809 C 0.29974 0.22565 0.77718 0.0
C2810 C 0.30228 0.22212 0.76041 0.0
C2811 C 0.29619 0.23198 0.80915 0.0
C2812 C 0.29539 0.21784 0.80409 0.0
C2813 C 0.29674 0.21464 0.78811 0.0
C2814 C 0.29444 0.20687 0.81543 0.0
C2815 C 0.29425 0.23568 0.82609 0.0
C2816 C 0.30675 0.21173 0.82652 0.0
C2817 C 0.30625 0.20132 0.83692 0.0
C2818 C 0.29341 0.18585 0.83643 0.0
C2819 C 0.28105 0.18102 0.82534 0.0
C2820 C 0.28161 0.19143 0.81482 0.0
H2821 H 0.2913 0.24483 0.82723 0.0
H2822 H 0.28521 0.22489 0.83106 0.0
H2823 H 0.30513 0.24022 0.83328 0.0
H2824 H 0.31682 0.22355 0.82701 0.0
H2825 H 0.31588 0.20542 0.84543 0.0
H2826 H 0.73111 0.04688 0.70727 0.0
H2827 H 0.74741 0.05345 0.73152 0.0
H2828 H 0.77474 0.10193 0.72094 0.0
H2829 H 0.75837 0.09556 0.69681 0.0
H2830 H 0.77908 0.06694 0.73742 0.0
H2831 H 0.76034 0.10525 0.76458 0.0
H2832 H 0.75063 0.09192 0.747 0.0
H2833 H 0.76812 0.11057 0.74576 0.0
C2834 C 0.74065 0.05893 0.71003 0.0
C2835 C 0.74334 0.07075 0.7002 0.0
C2836 C 0.74996 0.06264 0.72389 0.0
C2837 C 0.7621 0.07822 0.72815 0.0
C2838 C 0.76523 0.0899 0.71801 0.0
H2839 H 0.82263 0.12514 0.81297 0.0
H2840 H 0.81132 0.11809 0.78574 0.0
C2841 C 0.75589 0.08622 0.7042 0.0
C2842 C 0.77108 0.08238 0.7435 0.0
H2843 H 0.77998 0.1048 0.77878 0.0
C2844 C 0.7793 0.07521 0.74648 0.0
C2845 C 0.77125 0.09312 0.75531 0.0
C2846 C 0.76201 0.10057 0.75312 0.0
C2847 C 0.78789 0.07869 0.76092 0.0
C2848 C 0.78808 0.08946 0.77268 0.0
C2849 C 0.77989 0.09664 0.76967 0.0
C2850 C 0.7963 0.09321 0.78844 0.0
C2851 C 0.79684 0.07099 0.76342 0.0
C2852 C 0.79174 0.0815 0.7989 0.0
C2853 C 0.79813 0.0855 0.81449 0.0
C2854 C 0.8091 0.10131 0.8199 0.0
C2855 C 0.81406 0.11289 0.8092 0.0
C2856 C 0.80768 0.10888 0.79363 0.0
H2857 H 0.79863 0.06627 0.75205 0.0
H2858 H 0.80814 0.07949 0.76978 0.0
H2859 H 0.79044 0.06099 0.77072 0.0
H2860 H 0.78275 0.06938 0.79522 0.0
H2861 H 0.79391 0.07635 0.82251 0.0
H2862 H 0.01536 0.32868 0.0577 0.0
H2863 H 0.03146 0.32247 0.0729 0.0
H2864 H 0.07165 0.36146 0.05563 0.0
H2865 H 0.05553 0.36757 0.04 0.0
H2866 H 0.07248 0.3348 0.05419 0.0
H2867 H 0.05727 0.3456 0.11357 0.0
H2868 H 0.04079 0.3317 0.10073 0.0
H2869 H 0.05255 0.35183 0.09606 0.0
C2870 C 0.02763 0.33601 0.05716 0.0
C2871 C 0.03418 0.34869 0.0477 0.0
C2872 C 0.03682 0.33249 0.06596 0.0
C2873 C 0.05277 0.3417 0.06567 0.0
C2874 C 0.05937 0.35428 0.05611 0.0
H2875 H 0.11518 0.3358 0.13115 0.0
H2876 H 0.10029 0.34405 0.1167 0.0
C2877 C 0.05015 0.35776 0.0472 0.0
C2878 C 0.06244 0.33779 0.07493 0.0
H2879 H 0.06995 0.33146 0.11209 0.0
C2880 C 0.07203 0.33419 0.06687 0.0
C2881 C 0.062 0.33722 0.09151 0.0
C2882 C 0.05272 0.34196 0.101 0.0
C2883 C 0.08088 0.32963 0.07487 0.0
C2884 C 0.07982 0.32825 0.09132 0.0
C2885 C 0.07056 0.33227 0.09944 0.0
C2886 C 0.08842 0.32291 0.10035 0.0
C2887 C 0.09144 0.32654 0.06566 0.0
C2888 C 0.08639 0.3081 0.09622 0.0
C2889 C 0.09503 0.30343 0.10433 0.0
C2890 C 0.10573 0.31341 0.11686 0.0
C2891 C 0.10725 0.32796 0.12137 0.0
C2892 C 0.09868 0.33266 0.11319 0.0
H2893 H 0.09421 0.33246 0.05456 0.0
H2894 H 0.10227 0.3307 0.07279 0.0
H2895 H 0.08576 0.31365 0.06239 0.0
H2896 H 0.07825 0.30022 0.0866 0.0
H2897 H 0.09363 0.2922 0.10046 0.0
H2898 H 0.65403 0.66745 0.09549 0.0
H2899 H 0.66361 0.69351 0.10942 0.0
H2900 H 0.64624 0.70603 0.0702 0.0
H2901 H 0.63657 0.68 0.05615 0.0
H2902 H 0.68496 0.72357 0.09768 0.0
H2903 H 0.62932 0.7165 0.10989 0.0
H2904 H 0.63125 0.69988 0.105 0.0
H2905 H 0.63104 0.7113 0.08974 0.0
C2906 C 0.65212 0.67569 0.08987 0.0
C2907 C 0.64451 0.67165 0.07472 0.0
C2908 C 0.65764 0.69057 0.09783 0.0
C2909 C 0.6555 0.70158 0.09087 0.0
C2910 C 0.64781 0.69757 0.07583 0.0
H2911 H 0.67883 0.79677 0.11523 0.0
H2912 H 0.66984 0.7703 0.10286 0.0
C2913 C 0.64234 0.68272 0.06782 0.0
C2914 C 0.66176 0.71748 0.09911 0.0
H2915 H 0.65141 0.74222 0.11519 0.0
C2916 C 0.67766 0.72766 0.10162 0.0
C2917 C 0.65216 0.7227 0.10418 0.0
C2918 C 0.63498 0.71201 0.10221 0.0
C2919 C 0.68428 0.74316 0.10869 0.0
C2920 C 0.67467 0.74843 0.11367 0.0
C2921 C 0.65875 0.73815 0.11133 0.0
C2922 C 0.68083 0.7647 0.12096 0.0
C2923 C 0.70146 0.75389 0.11031 0.0
C2924 C 0.69003 0.77034 0.13523 0.0
C2925 C 0.69524 0.78551 0.1423 0.0
C2926 C 0.69113 0.79516 0.13531 0.0
C2927 C 0.68202 0.78951 0.12097 0.0
C2928 C 0.67691 0.77442 0.11387 0.0
H2929 H 0.70697 0.74944 0.10234 0.0
H2930 H 0.70512 0.76604 0.10765 0.0
H2931 H 0.70567 0.75451 0.12264 0.0
H2932 H 0.69291 0.7629 0.14106 0.0
H2933 H 0.70211 0.78952 0.15344 0.0
H2934 H 0.35503 0.96205 0.0605 0.0
H2935 H 0.33107 0.94663 0.07312 0.0
H2936 H 0.30954 0.96282 0.0423 0.0
H2937 H 0.33326 0.978 0.02946 0.0
H2938 H 0.31667 0.95939 0.08907 0.0
H2939 H 0.27779 0.91572 0.03994 0.0
H2940 H 0.29831 0.92703 0.03927 0.0
H2941 H 0.28745 0.93577 0.03503 0.0
C2942 C 0.34512 0.96209 0.05621 0.0
C2943 C 0.34607 0.97126 0.04398 0.0
C2944 C 0.33145 0.95331 0.06345 0.0
C2945 C 0.31849 0.95345 0.05853 0.0
C2946 C 0.3193 0.96226 0.04606 0.0
H2947 H 0.23013 0.92197 0.09462 0.0
H2948 H 0.25322 0.93414 0.07997 0.0
C2949 C 0.33292 0.97102 0.03881 0.0
C2950 C 0.30451 0.94548 0.06724 0.0
H2951 H 0.26608 0.9184 0.06274 0.0
C2952 C 0.30563 0.95032 0.08336 0.0
C2953 C 0.29012 0.93374 0.0597 0.0
C2954 C 0.28832 0.92764 0.04256 0.0
C2955 C 0.29269 0.94395 0.0921 0.0
C2956 C 0.2783 0.9323 0.08455 0.0
C2957 C 0.27715 0.9274 0.06845 0.0
C2958 C 0.26434 0.92489 0.09328 0.0
C2959 C 0.29445 0.94999 0.10926 0.0
C2960 C 0.26296 0.91558 0.10546 0.0
C2961 C 0.24987 0.90869 0.11384 0.0
C2962 C 0.23787 0.91092 0.11013 0.0
C2963 C 0.23925 0.92018 0.09783 0.0
C2964 C 0.25236 0.92704 0.08941 0.0
H2965 H 0.30545 0.96142 0.11224 0.0
H2966 H 0.28493 0.95157 0.11222 0.0
H2967 H 0.29418 0.94126 0.1168 0.0
H2968 H 0.27202 0.91364 0.10849 0.0
H2969 H 0.24923 0.90176 0.12336 0.0
H2970 H 0.3762 0.0517 0.01786 0.0
H2971 H 0.36595 0.06785 0.01096 0.0
H2972 H 0.33153 0.02922 0.97875 0.0
H2973 H 0.34149 0.01303 0.98563 0.0
H2974 H 0.36311 0.0766 0.98124 0.0
H2975 H 0.3064 0.04153 0.00501 0.0
H2976 H 0.3221 0.03932 0.0104 0.0
H2977 H 0.31063 0.02964 0.99213 0.0
C2978 C 0.36641 0.04664 0.00937 0.0
C2979 C 0.35962 0.03106 0.00234 0.0
C2980 C 0.36056 0.05587 0.00547 0.0
C2981 C 0.34778 0.0496 0.99461 0.0
C2982 C 0.34114 0.03414 0.98748 0.0
H2983 H 0.29909 0.07622 0.93676 0.0
H2984 H 0.3089 0.0633 0.9521 0.0
C2985 C 0.34695 0.02494 0.99134 0.0
C2986 C 0.34176 0.05935 0.98997 0.0
H2987 H 0.30878 0.05912 0.98581 0.0
C2988 C 0.35132 0.07298 0.98249 0.0
C2989 C 0.32638 0.05458 0.99167 0.0
C2990 C 0.31583 0.04055 0.00039 0.0
C2991 C 0.34564 0.08147 0.97586 0.0
C2992 C 0.33008 0.07626 0.97693 0.0
C2993 C 0.32069 0.06301 0.98496 0.0
C2994 C 0.32313 0.08376 0.96879 0.0
C2995 C 0.35613 0.09547 0.96706 0.0
C2996 C 0.32756 0.09938 0.97342 0.0
C2997 C 0.32189 0.10676 0.96475 0.0
C2998 C 0.31168 0.09863 0.95132 0.0
C2999 C 0.30679 0.08276 0.94714 0.0
C3000 C 0.31245 0.07538 0.95583 0.0
H3001 H 0.3671 0.09634 0.96508 0.0
H3002 H 0.35052 0.09473 0.95544 0.0
H3003 H 0.35873 0.10649 0.97401 0.0
H3004 H 0.33562 0.10593 0.98356 0.0
H3005 H 0.32568 0.11892 0.96841 0.0
H3006 H 0.99069 0.31818 0.98992 0.0
H3007 H 0.97315 0.29218 0.97588 0.0
H3008 H 0.93539 0.29021 0.99831 0.0
H3009 H 0.95293 0.31609 0.01274 0.0
H3010 H 0.9344 0.26264 0.99857 0.0
H3011 H 0.94374 0.28232 0.93824 0.0
H3012 H 0.96102 0.28744 0.9493 0.0
H3013 H 0.95037 0.29601 0.95581 0.0
C3014 C 0.97865 0.31225 0.99185 0.0
C3015 C 0.97318 0.31924 0.00238 0.0
C3016 C 0.96863 0.29742 0.98374 0.0
C3017 C 0.95293 0.2894 0.98581 0.0
C3018 C 0.94746 0.29625 0.99647 0.0
H3019 H 0.87962 0.211 0.92617 0.0
H3020 H 0.89857 0.23664 0.93997 0.0
C3021 C 0.9575 0.31104 0.00469 0.0
C3022 C 0.94224 0.27375 0.97708 0.0
H3023 H 0.92936 0.2546 0.93998 0.0
C3024 C 0.93326 0.26087 0.98576 0.0
C3025 C 0.94067 0.27153 0.96036 0.0
C3026 C 0.94934 0.28508 0.95037 0.0
C3027 C 0.92279 0.24579 0.97818 0.0
C3028 C 0.92156 0.24347 0.96146 0.0
C3029 C 0.93048 0.25637 0.95279 0.0
C3030 C 0.91052 0.22793 0.95273 0.0
C3031 C 0.91287 0.2326 0.98814 0.0
C3032 C 0.91116 0.21457 0.95505 0.0
C3033 C 0.90019 0.19981 0.94733 0.0
C3034 C 0.88848 0.1982 0.93704 0.0
C3035 C 0.88828 0.21175 0.93428 0.0
C3036 C 0.89917 0.22645 0.94206 0.0
H3037 H 0.91239 0.2372 0.00022 0.0
H3038 H 0.90105 0.22505 0.98258 0.0
H3039 H 0.91768 0.2251 0.9893 0.0
H3040 H 0.92003 0.21551 0.96296 0.0
H3041 H 0.90065 0.18961 0.94978 0.0
H3042 H 0.683 0.63236 0.05261 0.0
H3043 H 0.70883 0.6431 0.04387 0.0
H3044 H 0.70115 0.66955 0.01106 0.0
H3045 H 0.67551 0.65903 0.01969 0.0
H3046 H 0.71746 0.64103 0.01245 0.0
H3047 H 0.74145 0.7031 0.03657 0.0
H3048 H 0.72409 0.68674 0.04297 0.0
H3049 H 0.72377 0.69467 0.02472 0.0
C3050 C 0.68682 0.64046 0.04353 0.0
C3051 C 0.67723 0.64491 0.0369 0.0
C3052 C 0.70157 0.64659 0.03858 0.0
C3053 C 0.70695 0.65734 0.02706 0.0
C3054 C 0.69731 0.66154 0.02022 0.0
H3055 H 0.78099 0.70508 0.96925 0.0
H3056 H 0.75866 0.69541 0.98472 0.0
C3057 C 0.68261 0.65542 0.02511 0.0
C3058 C 0.72249 0.66392 0.02171 0.0
H3059 H 0.75567 0.69877 0.01743 0.0
C3060 C 0.72594 0.65362 0.01374 0.0
C3061 C 0.73347 0.68035 0.02344 0.0
C3062 C 0.7306 0.69186 0.03252 0.0
C3063 C 0.73983 0.65941 0.00671 0.0
C3064 C 0.75061 0.6759 0.00799 0.0
C3065 C 0.74736 0.68614 0.01645 0.0
C3066 C 0.76486 0.6828 -0.00027 0.0
C3067 C 0.74253 0.6479 0.99732 0.0
C3068 C 0.77596 0.67931 0.00339 0.0
C3069 C 0.78876 0.68485 0.99459 0.0
C3070 C 0.79071 0.69408 0.98207 0.0
C3071 C 0.7799 0.69814 0.97892 0.0
C3072 C 0.7671 0.69256 0.98769 0.0
H3073 H 0.73187 0.63608 0.99478 0.0
H3074 H 0.74733 0.6524 0.98595 0.0
H3075 H 0.75089 0.64644 0.00417 0.0
H3076 H 0.77459 0.67207 0.01287 0.0
H3077 H 0.79702 0.68173 0.99743 0.0
H3078 H 0.94875 0.64149 0.02472 0.0
H3079 H 0.93429 0.64991 0.00957 0.0
H3080 H 0.97154 0.6734 0.97963 0.0
H3081 H 0.98612 0.66528 0.99478 0.0
H3082 H 0.96124 0.69223 0.99081 0.0
H3083 H 0.91292 0.63364 0.9651 0.0
H3084 H 0.916 0.63537 0.98622 0.0
H3085 H 0.93032 0.63643 0.97396 0.0
C3086 C 0.95379 0.64832 0.01482 0.0
C3087 C 0.96858 0.65272 0.01096 0.0
C3088 C 0.94549 0.65306 0.00613 0.0
C3089 C 0.95179 0.66213 0.99337 0.0
C3090 C 0.96646 0.66638 0.98941 0.0
H3091 H 0.90347 0.68351 0.92409 0.0
H3092 H 0.91878 0.67485 0.9372 0.0
C3093 C 0.97477 0.6617 0.99809 0.0
C3094 C 0.94344 0.66787 0.98456 0.0
H3095 H 0.91062 0.65569 0.96201 0.0
C3096 C 0.95019 0.68425 0.98445 0.0
C3097 C 0.92914 0.65742 0.97613 0.0
C3098 C 0.9217 0.63973 0.97519 0.0
C3099 C 0.9429 0.69047 0.97636 0.0
C3100 C 0.92837 0.68004 0.96838 0.0
C3101 C 0.92173 0.66366 0.96823 0.0
C3102 C 0.91972 0.68587 0.96033 0.0
C3103 C 0.95091 0.70816 0.97627 0.0
C3104 C 0.91519 0.6949 0.96902 0.0
C3105 C 0.90649 0.69986 0.96159 0.0
C3106 C 0.90205 0.69578 0.94534 0.0
C3107 C 0.90668 0.6868 0.93664 0.0
C3108 C 0.91542 0.68186 0.94409 0.0
H3109 H 0.96342 0.71415 0.97906 0.0
H3110 H 0.94891 0.71138 0.96461 0.0
H3111 H 0.94637 0.71274 0.98537 0.0
H3112 H 0.91808 0.69781 0.98164 0.0
H3113 H 0.90279 0.70643 0.9687 0.0
H3114 H 0.37723 0.3356 0.99063 0.0
H3115 H 0.3664 0.30918 0.97698 0.0
H3116 H 0.3275 0.30994 0.95898 0.0
H3117 H 0.33833 0.33641 0.97229 0.0
H3118 H 0.33872 0.282 0.98112 0.0
H3119 H 0.34089 0.29714 0.91921 0.0
H3120 H 0.3512 0.31192 0.93568 0.0
H3121 H 0.33108 0.30356 0.93162 0.0
C3122 C 0.36643 0.3302 0.98366 0.0
C3123 C 0.35868 0.33814 0.98248 0.0
C3124 C 0.36025 0.31511 0.9759 0.0
C3125 C 0.34626 0.30772 0.96679 0.0
C3126 C 0.33847 0.31557 0.96565 0.0
H3127 H 0.29071 0.21367 0.91565 0.0
H3128 H 0.29953 0.23999 0.92881 0.0
C3129 C 0.34466 0.33068 0.97335 0.0
C3130 C 0.33957 0.29155 0.95896 0.0
H3131 H 0.3277 0.26987 0.92297 0.0
C3132 C 0.33634 0.27935 0.9684 0.0
C3133 C 0.3364 0.28814 0.94238 0.0
C3134 C 0.34019 0.30089 0.93159 0.0
C3135 C 0.33002 0.26379 0.9617 0.0
C3136 C 0.32699 0.26042 0.94513 0.0
C3137 C 0.32999 0.27254 0.93569 0.0
C3138 C 0.32151 0.24454 0.93733 0.0
C3139 C 0.32654 0.25104 0.97238 0.0
C3140 C 0.33104 0.23857 0.93769 0.0
C3141 C 0.32608 0.22367 0.9302 0.0
C3142 C 0.3115 0.21448 0.92218 0.0
C3143 C 0.30195 0.22048 0.92182 0.0
C3144 C 0.30698 0.23548 0.92926 0.0
H3145 H 0.32607 0.25474 0.98485 0.0
H3146 H 0.3155 0.23999 0.96839 0.0
H3147 H 0.33566 0.24839 0.97196 0.0
H3148 H 0.34235 0.24548 0.94372 0.0
H3149 H 0.3336 0.21926 0.93085 0.0
H3150 H 0.67169 0.02594 0.04076 0.0
H3151 H 0.69672 0.03939 0.03 0.0
H3152 H 0.68062 0.05812 0.99578 0.0
H3153 H 0.65552 0.04478 0.00652 0.0
H3154 H 0.70017 0.03219 0.99886 0.0
H3155 H 0.72328 0.09625 0.01121 0.0
H3156 H 0.70805 0.08145 0.02175 0.0
H3157 H 0.70405 0.08506 0.00233 0.0
C3158 C 0.67354 0.03319 0.03116 0.0
C3159 C 0.66156 0.03419 0.0244 0.0
C3160 C 0.68786 0.04087 0.02504 0.0
C3161 C 0.69053 0.04979 0.01216 0.0
C3162 C 0.67886 0.05149 0.0059 0.0
H3163 H 0.74812 0.06827 0.93641 0.0
H3164 H 0.72763 0.05875 0.95446 0.0
C3165 C 0.6645 0.0438 0.01201 0.0
C3166 C 0.70483 0.05572 0.00412 0.0
H3167 H 0.7352 0.08893 0.99163 0.0
C3168 C 0.70794 0.04462 0.99745 0.0
C3169 C 0.71498 0.07194 0.00241 0.0
C3170 C 0.71254 0.0844 0.00993 0.0
C3171 C 0.72061 0.04924 0.98857 0.0
C3172 C 0.73033 0.06535 0.98621 0.0
C3173 C 0.72762 0.07655 0.9934 0.0
C3174 C 0.74284 0.07063 0.97555 0.0
C3175 C 0.72342 0.03685 0.98158 0.0
C3176 C 0.75813 0.08046 0.98148 0.0
C3177 C 0.76986 0.08587 0.9712 0.0
C3178 C 0.76641 0.08168 0.95482 0.0
C3179 C 0.75107 0.07171 0.94897 0.0
C3180 C 0.73939 0.06622 0.95925 0.0
H3181 H 0.71721 0.0258 0.98753 0.0
H3182 H 0.71937 0.03394 0.96887 0.0
H3183 H 0.7358 0.0413 0.98249 0.0
H3184 H 0.76096 0.08403 0.99404 0.0
H3185 H 0.78157 0.0937 0.97598 0.0
H3186 H 0.64196 0.96541 0.0377 0.0
H3187 H 0.65551 0.95277 0.0454 0.0
H3188 H 0.62656 0.93391 0.08385 0.0
H3189 H 0.61287 0.94643 0.0762 0.0
H3190 H 0.67147 0.96067 0.07475 0.0
H3191 H 0.62871 0.89632 0.06539 0.0
H3192 H 0.62641 0.91063 0.05602 0.0
H3193 H 0.62188 0.90708 0.07618 0.0
C3194 C 0.63823 0.95828 0.04758 0.0
C3195 C 0.6264 0.95703 0.05642 0.0
C3196 C 0.646 0.95107 0.05196 0.0
C3197 C 0.64198 0.94234 0.06512 0.0
C3198 C 0.62968 0.94038 0.07348 0.0
H3199 H 0.6906 0.92795 0.13583 0.0
H3200 H 0.6785 0.93709 0.11815 0.0
C3201 C 0.62191 0.94762 0.06914 0.0
C3202 C 0.65174 0.93691 0.07129 0.0
H3203 H 0.65065 0.90456 0.08321 0.0
C3204 C 0.667 0.94836 0.07635 0.0
C3205 C 0.64593 0.92085 0.07322 0.0
C3206 C 0.62988 0.90798 0.06727 0.0
C3207 C 0.67635 0.94428 0.08409 0.0
C3208 C 0.67023 0.92838 0.08693 0.0
C3209 C 0.65526 0.91678 0.0811 0.0
C3210 C 0.67871 0.92378 0.09715 0.0
C3211 C 0.6926 0.95706 0.08951 0.0
C3212 C 0.68284 0.91329 0.09115 0.0
C3213 C 0.68982 0.9081 0.10123 0.0
C3214 C 0.69251 0.91313 0.11748 0.0
C3215 C 0.68861 0.92387 0.12336 0.0
C3216 C 0.68179 0.92915 0.11328 0.0
H3217 H 0.69677 0.96757 0.08281 0.0
H3218 H 0.69316 0.96087 0.10221 0.0
H3219 H 0.70036 0.95265 0.08817 0.0
H3220 H 0.68044 0.90895 0.07874 0.0
H3221 H 0.69255 0.89967 0.09646 0.0
H3222 H 0.01312 0.68771 0.06164 0.0
H3223 H 0.03061 0.71435 0.07438 0.0
H3224 H 0.06021 0.69988 0.09223 0.0
H3225 H 0.04285 0.67316 0.07936 0.0
H3226 H 0.03993 0.72383 0.10648 0.0
H3227 H 0.08909 0.73951 0.07031 0.0
H3228 H 0.07005 0.72283 0.06459 0.0
H3229 H 0.08187 0.72145 0.07941 0.0
C3230 C 0.02338 0.69018 0.06821 0.0
C3231 C 0.02663 0.67832 0.06943 0.0
C3232 C 0.03334 0.70541 0.0755 0.0
C3233 C 0.04677 0.70911 0.08407 0.0
C3234 C 0.05003 0.69731 0.08542 0.0
H3235 H 0.10469 0.7898 0.15173 0.0
H3236 H 0.08577 0.76371 0.13859 0.0
C3237 C 0.04006 0.68204 0.07812 0.0
C3238 C 0.0572 0.72529 0.09182 0.0
H3239 H 0.09353 0.75744 0.09252 0.0
C3240 C 0.05164 0.73121 0.10341 0.0
C3241 C 0.07238 0.73494 0.08762 0.0
C3242 C 0.07871 0.72946 0.0747 0.0
C3243 C 0.06098 0.74648 0.11114 0.0
C3244 C 0.07631 0.75594 0.10729 0.0
C3245 C 0.08178 0.7501 0.09551 0.0
C3246 C 0.08698 0.77187 0.11544 0.0
C3247 C 0.05431 0.75242 0.12319 0.0
C3248 C 0.094 0.78508 0.10675 0.0
C3249 C 0.10492 0.79997 0.1142 0.0
C3250 C 0.10908 0.80189 0.13046 0.0
C3251 C 0.10179 0.78867 0.13918 0.0
C3252 C 0.09087 0.77379 0.13172 0.0
H3253 H 0.04163 0.74559 0.12168 0.0
H3254 H 0.05767 0.75113 0.13522 0.0
H3255 H 0.05867 0.76511 0.12237 0.0
H3256 H 0.09121 0.7838 0.09415 0.0
H3257 H 0.11049 0.80986 0.10711 0.0
H3258 H 0.32578 0.34343 0.03859 0.0
H3259 H 0.30153 0.33395 0.05032 0.0
H3260 H 0.29728 0.36966 0.02969 0.0
H3261 H 0.32176 0.37938 0.01791 0.0
H3262 H 0.2915 0.36732 0.06186 0.0
H3263 H 0.25862 0.30861 0.02746 0.0
H3264 H 0.27636 0.31276 0.03659 0.0
H3265 H 0.27651 0.32463 0.02158 0.0
C3266 C 0.31971 0.34928 0.03648 0.0
C3267 C 0.32568 0.36213 0.02726 0.0
C3268 C 0.30578 0.34376 0.04311 0.0
C3269 C 0.29749 0.3509 0.04059 0.0
C3270 C 0.30348 0.3639 0.03161 0.0
H3271 H 0.20531 0.31001 0.0734 0.0
H3272 H 0.22675 0.32065 0.05643 0.0
C3273 C 0.31745 0.36944 0.02493 0.0
C3274 C 0.28288 0.34509 0.04798 0.0
H3275 H 0.2481 0.31168 0.05126 0.0
C3276 C 0.28192 0.35522 0.0594 0.0
C3277 C 0.27033 0.32938 0.04456 0.0
C3278 C 0.27041 0.31825 0.03176 0.0
C3279 C 0.269 0.3498 0.0681 0.0
C3280 C 0.25689 0.33379 0.06542 0.0
C3281 C 0.25751 0.32389 0.05342 0.0
C3282 C 0.24385 0.32695 0.07549 0.0
C3283 C 0.26851 0.3612 0.08021 0.0
C3284 C 0.24636 0.32658 0.09169 0.0
C3285 C 0.23418 0.32043 0.10136 0.0
C3286 C 0.21924 0.31447 0.09498 0.0
C3287 C 0.21668 0.31441 0.07863 0.0
C3288 C 0.22891 0.32057 0.06895 0.0
H3289 H 0.27635 0.37365 0.0777 0.0
H3290 H 0.25677 0.35881 0.08061 0.0
H3291 H 0.27217 0.35983 0.09206 0.0
H3292 H 0.25777 0.33107 0.09688 0.0
H3293 H 0.23647 0.32035 0.11385 0.0
H3294 H 0.71325 0.69718 0.36641 0.0
H3295 H 0.72828 0.68821 0.3795 0.0
H3296 H 0.69831 0.67385 0.41752 0.0
H3297 H 0.68324 0.68279 0.40462 0.0
H3298 H 0.74262 0.69822 0.41262 0.0
H3299 H 0.69927 0.63384 0.40056 0.0
H3300 H 0.69923 0.6484 0.3892 0.0
H3301 H 0.69272 0.64604 0.40875 0.0
C3302 C 0.70988 0.69215 0.37757 0.0
C3303 C 0.69703 0.69066 0.38445 0.0
C3304 C 0.71847 0.68704 0.38502 0.0
C3305 C 0.71425 0.68021 0.39934 0.0
C3306 C 0.70159 0.67891 0.40635 0.0
H3307 H 0.751 0.63838 0.45845 0.0
H3308 H 0.735 0.64691 0.44659 0.0
C3309 C 0.69306 0.6841 0.39899 0.0
C3310 C 0.7232 0.67458 0.40705 0.0
H3311 H 0.72161 0.64119 0.41627 0.0
C3312 C 0.73807 0.68576 0.41342 0.0
C3313 C 0.71711 0.65833 0.40816 0.0
C3314 C 0.70124 0.64589 0.40124 0.0
C3315 C 0.74706 0.68112 0.42098 0.0
C3316 C 0.74111 0.66482 0.4218 0.0
C3317 C 0.72614 0.65365 0.41559 0.0
C3318 C 0.75043 0.65917 0.42867 0.0
C3319 C 0.76274 0.69372 0.42825 0.0
C3320 C 0.76415 0.66285 0.42224 0.0
C3321 C 0.77327 0.65806 0.42899 0.0
C3322 C 0.76876 0.64933 0.4422 0.0
C3323 C 0.75473 0.6451 0.44827 0.0
C3324 C 0.74563 0.65 0.44155 0.0
H3325 H 0.76372 0.70525 0.43078 0.0
H3326 H 0.76549 0.6903 0.43941 0.0
H3327 H 0.77139 0.69541 0.41986 0.0
H3328 H 0.76784 0.6695 0.41201 0.0
H3329 H 0.78387 0.66118 0.42385 0.0
H3330 H 0.30833 0.0146 0.38958 0.0
H3331 H 0.31938 0.04149 0.40205 0.0
H3332 H 0.33324 0.02902 0.44399 0.0
H3333 H 0.32221 0.00206 0.43165 0.0
H3334 H 0.31114 0.04973 0.43235 0.0
H3335 H 0.37267 0.0701 0.43176 0.0
H3336 H 0.35803 0.05345 0.41886 0.0
H3337 H 0.36023 0.05143 0.4394 0.0
C3338 C 0.31376 0.01757 0.40143 0.0
C3339 C 0.3144 0.0062 0.40962 0.0
C3340 C 0.32007 0.03293 0.40852 0.0
C3341 C 0.32725 0.03723 0.42383 0.0
C3342 C 0.32792 0.02595 0.43206 0.0
H3343 H 0.37011 0.12645 0.48379 0.0
H3344 H 0.36168 0.09964 0.47249 0.0
C3345 C 0.32154 0.01054 0.42502 0.0
C3346 C 0.33353 0.05339 0.43136 0.0
H3347 H 0.36682 0.0879 0.44404 0.0
C3348 C 0.32331 0.0581 0.43491 0.0
C3349 C 0.34939 0.06415 0.4348 0.0
C3350 C 0.36079 0.05965 0.43095 0.0
C3351 C 0.32853 0.07335 0.44183 0.0
C3352 C 0.34443 0.08429 0.44489 0.0
C3353 C 0.35465 0.07949 0.4416 0.0
C3354 C 0.3506 0.10085 0.45118 0.0
C3355 C 0.31695 0.07754 0.446 0.0
C3356 C 0.34761 0.11053 0.44267 0.0
C3357 C 0.35234 0.12573 0.44909 0.0
C3358 C 0.36032 0.13161 0.46405 0.0
C3359 C 0.36401 0.12221 0.47221 0.0
C3360 C 0.35917 0.10692 0.46581 0.0
H3361 H 0.30554 0.06682 0.44717 0.0
H3362 H 0.32063 0.08534 0.45723 0.0
H3363 H 0.31572 0.08389 0.43646 0.0
H3364 H 0.34137 0.10622 0.43117 0.0
H3365 H 0.34959 0.13285 0.44243 0.0
H3366 H 0.02291 0.32404 0.38649 0.0
H3367 H 0.99827 0.3104 0.39806 0.0
H3368 H 0.97944 0.27472 0.3584 0.0
H3369 H 0.00412 0.28827 0.34667 0.0
H3370 H 0.96951 0.30333 0.38281 0.0
H3371 H 0.96852 0.24983 0.39846 0.0
H3372 H 0.98595 0.26782 0.39476 0.0
H3373 H 0.97269 0.25498 0.37857 0.0
C3374 C 0.01359 0.31322 0.38026 0.0
C3375 C 0.01549 0.30723 0.36565 0.0
C3376 C -0.00049 0.30548 0.38688 0.0
C3377 C 0.98711 0.29155 0.37911 0.0
C3378 C 0.98896 0.28539 0.36464 0.0
H3379 H 0.89532 0.2291 0.40818 0.0
H3380 H 0.91793 0.24179 0.39298 0.0
C3381 C 0.00305 0.29316 0.35796 0.0
C3382 C 0.97214 0.28378 0.38603 0.0
H3383 H 0.9468 0.25089 0.40339 0.0
C3384 C 0.96449 0.29184 0.38729 0.0
C3385 C 0.96565 0.26878 0.39174 0.0
C3386 C 0.97362 0.25983 0.39096 0.0
C3387 C 0.95046 0.28529 0.39417 0.0
C3388 C 0.94413 0.27045 0.40024 0.0
C3389 C 0.95168 0.26227 0.39872 0.0
C3390 C 0.92997 0.26337 0.40871 0.0
C3391 C 0.94249 0.29424 0.39469 0.0
C3392 C 0.9292 0.27134 0.42253 0.0
C3393 C 0.91629 0.26415 0.43119 0.0
C3394 C 0.90399 0.24877 0.42628 0.0
C3395 C 0.90467 0.24092 0.41229 0.0
C3396 C 0.91755 0.24816 0.40359 0.0
H3397 H 0.94625 0.30266 0.38548 0.0
H3398 H 0.92989 0.28607 0.39303 0.0
H3399 H 0.94534 0.30118 0.40638 0.0
H3400 H 0.9388 0.28293 0.42691 0.0
H3401 H 0.91619 0.27036 0.44207 0.0
H3402 H 0.06187 0.38905 0.34923 0.0
H3403 H 0.05529 0.40778 0.34089 0.0
H3404 H 0.02008 0.37134 0.30752 0.0
H3405 H 0.02641 0.35258 0.31582 0.0
H3406 H 0.05533 0.41726 0.31044 0.0
H3407 H 0.99745 0.38818 0.33237 0.0
H3408 H 0.01147 0.38379 0.33871 0.0
H3409 H 0.00043 0.37491 0.32009 0.0
C3410 C 0.0527 0.38503 0.34014 0.0
C3411 C 0.04461 0.36931 0.33324 0.0
C3412 C 0.04896 0.39573 0.33541 0.0
C3413 C 0.03701 0.39083 0.32382 0.0
C3414 C 0.0291 0.37524 0.31675 0.0
H3415 H 0.99677 0.42662 0.26567 0.0
H3416 H 0.00433 0.41148 0.2804 0.0
C3417 C 0.03282 0.36457 0.32144 0.0
C3418 C 0.03303 0.40206 0.31862 0.0
H3419 H 0.00307 0.40697 0.31356 0.0
C3420 C 0.04399 0.41519 0.31133 0.0
C3421 C 0.01824 0.39931 0.31987 0.0
C3422 C 0.00626 0.38587 0.32832 0.0
C3423 C 0.04029 0.4252 0.3045 0.0
C3424 C 0.02531 0.42206 0.30521 0.0
C3425 C 0.01452 0.40927 0.313 0.0
C3426 C 0.02031 0.43127 0.297 0.0
C3427 C 0.05219 0.4386 0.29595 0.0
C3428 C 0.0266 0.44733 0.30169 0.0
C3429 C 0.02221 0.45602 0.29335 0.0
C3430 C 0.01143 0.44873 0.28024 0.0
C3431 C 0.00492 0.43253 0.27585 0.0
C3432 C 0.00929 0.42388 0.28418 0.0
H3433 H 0.06229 0.43769 0.29407 0.0
H3434 H 0.04728 0.43885 0.28429 0.0
H3435 H 0.05615 0.44998 0.30303 0.0
H3436 H 0.03493 0.45316 0.31173 0.0
H3437 H 0.02727 0.46842 0.29716 0.0
H3438 H 0.64569 0.66366 0.31398 0.0
H3439 H 0.6277 0.63821 0.29905 0.0
H3440 H 0.61084 0.61752 0.34257 0.0
H3441 H 0.62871 0.64291 0.35762 0.0
H3442 H 0.62517 0.6086 0.30158 0.0
H3443 H 0.57207 0.60659 0.31541 0.0
H3444 H 0.59073 0.62456 0.31823 0.0
H3445 H 0.58466 0.61017 0.33232 0.0
C3446 C 0.63811 0.65372 0.32038 0.0
C3447 C 0.63858 0.65533 0.33699 0.0
C3448 C 0.62788 0.63919 0.31183 0.0
C3449 C 0.61787 0.62607 0.31972 0.0
C3450 C 0.61833 0.62759 0.33627 0.0
H3451 H 0.56392 0.5267 0.28506 0.0
H3452 H 0.58352 0.55272 0.29794 0.0
C3453 C 0.62858 0.6421 0.34485 0.0
C3454 C 0.60705 0.61071 0.31062 0.0
H3455 H 0.56905 0.58337 0.30235 0.0
C3456 C 0.61289 0.60308 0.30169 0.0
C3457 C 0.59107 0.60367 0.31069 0.0
C3458 C 0.58421 0.6117 0.31955 0.0
C3459 C 0.60313 0.58839 0.29299 0.0
C3460 C 0.58715 0.58115 0.2934 0.0
C3461 C 0.58133 0.58892 0.30215 0.0
C3462 C 0.57618 0.56556 0.28477 0.0
C3463 C 0.60996 0.58084 0.28326 0.0
C3464 C 0.56559 0.56419 0.27314 0.0
C3465 C 0.5544 0.54939 0.2658 0.0
C3466 C 0.55354 0.53565 0.27003 0.0
C3467 C 0.56441 0.53709 0.28142 0.0
C3468 C 0.57561 0.55193 0.28878 0.0
H3469 H 0.62205 0.58952 0.28114 0.0
H3470 H 0.60965 0.57141 0.28967 0.0
H3471 H 0.60333 0.57535 0.27168 0.0
H3472 H 0.56586 0.57459 0.26989 0.0
H3473 H 0.54632 0.54868 0.25691 0.0
H3474 H 0.32436 0.96601 0.34367 0.0
H3475 H 0.34636 0.96918 0.33056 0.0
H3476 H 0.36411 0.96286 0.37398 0.0
H3477 H 0.34192 0.95933 0.38716 0.0
H3478 H 0.37625 0.99208 0.33803 0.0
H3479 H 0.36716 0.93272 0.34203 0.0
H3480 H 0.35247 0.93684 0.3457 0.0
H3481 H 0.36757 0.94257 0.36065 0.0
C3482 C 0.33286 0.96514 0.35042 0.0
C3483 C 0.33139 0.9624 0.36646 0.0
C3484 C 0.34543 0.96697 0.3429 0.0
C3485 C 0.35678 0.96609 0.35124 0.0
C3486 C 0.35532 0.96326 0.36723 0.0
H3487 H 0.44784 0.00377 0.31795 0.0
H3488 H 0.42643 0.99848 0.33372 0.0
C3489 C 0.34268 0.96133 0.37476 0.0
C3490 C 0.37046 0.96893 0.34331 0.0
H3491 H 0.39057 0.95212 0.33251 0.0
C3492 C 0.3794 0.98335 0.33682 0.0
C3493 C 0.37443 0.95745 0.34165 0.0
C3494 C 0.36484 0.94146 0.34774 0.0
C3495 C 0.39218 0.98662 0.32865 0.0
C3496 C 0.39635 0.97528 0.32726 0.0
C3497 C 0.38742 0.96085 0.33375 0.0
C3498 C 0.40952 0.97792 0.31846 0.0
C3499 C 0.40084 0.00198 0.32118 0.0
C3500 C 0.40717 0.96778 0.305 0.0
C3501 C 0.41937 0.97071 0.29606 0.0
C3502 C 0.43414 0.98384 0.30043 0.0
C3503 C 0.43654 0.99372 0.31418 0.0
C3504 C 0.42434 0.99072 0.32317 0.0
H3505 H 0.39401 0.00748 0.31995 0.0
H3506 H 0.4114 0.01042 0.32875 0.0
H3507 H 0.4042 0.00017 0.30932 0.0
H3508 H 0.39582 0.95783 0.30118 0.0
H3509 H 0.41716 0.96298 0.28545 0.0
H3510 H 0.64775 0.97715 0.32313 0.0
H3511 H 0.63061 0.98203 0.30788 0.0
H3512 H 0.60003 0.96749 0.34539 0.0
H3513 H 0.61726 0.9628 0.36091 0.0
H3514 H 0.60042 0.96158 0.29702 0.0
H3515 H 0.60727 0.01072 0.33806 0.0
H3516 H 0.61986 0.00346 0.33943 0.0
H3517 H 0.60137 0.9929 0.34718 0.0
C3518 C 0.63739 0.97499 0.32818 0.0
C3519 C 0.63391 0.96967 0.34329 0.0
C3520 C 0.6276 0.97778 0.31942 0.0
C3521 C 0.61418 0.97535 0.32561 0.0
C3522 C 0.61051 0.96975 0.34055 0.0
H3523 H 0.53629 0.9671 0.2751 0.0
H3524 H 0.55435 0.96243 0.28878 0.0
C3525 C 0.62031 0.96699 0.34935 0.0
C3526 C 0.60399 0.97854 0.31629 0.0
H3527 H 0.58804 0.00083 0.31695 0.0
C3528 C 0.59774 0.97019 0.30135 0.0
C3529 C 0.60072 0.98996 0.32186 0.0
C3530 C 0.60776 -0.0001 0.33744 0.0
C3531 C 0.58805 0.97274 0.29194 0.0
C3532 C 0.58435 0.98375 0.29776 0.0
C3533 C 0.59082 0.99231 0.31257 0.0
C3534 C 0.57362 0.98644 0.28878 0.0
C3535 C 0.58204 0.96378 0.27577 0.0
C3536 C 0.57842 0.00155 0.28442 0.0
C3537 C 0.56811 0.00427 0.27659 0.0
C3538 C 0.5528 0.99193 0.27304 0.0
C3539 C 0.54808 0.97678 0.27735 0.0
C3540 C 0.55838 0.97409 0.28519 0.0
H3541 H 0.58915 0.95925 0.27139 0.0
H3542 H 0.57026 0.9535 0.27643 0.0
H3543 H 0.58165 0.97136 0.26708 0.0
H3544 H 0.59014 0.01125 0.28713 0.0
H3545 H 0.57212 0.01604 0.27334 0.0
H3546 H 0.01737 0.67195 0.32166 0.0
H3547 H 0.01146 0.64714 0.30755 0.0
H3548 H 0.05387 0.67177 0.28516 0.0
H3549 H 0.05998 0.6968 0.2993 0.0
H3550 H 0.00933 0.63978 0.27362 0.0
H3551 H 0.05398 0.6353 0.30631 0.0
H3552 H 0.0477 0.64807 0.31372 0.0
H3553 H 0.0602 0.6536 0.29793 0.0
C3554 C 0.02549 0.67215 0.31376 0.0
C3555 C 0.03919 0.68636 0.31165 0.0
C3556 C 0.02205 0.65795 0.30569 0.0
C3557 C 0.03228 0.65765 0.29544 0.0
C3558 C 0.04592 0.67178 0.29318 0.0
H3559 H 0.01196 0.57646 0.23042 0.0
H3560 H 0.0193 0.60291 0.24164 0.0
C3561 C 0.04936 0.68605 0.30122 0.0
C3562 C 0.02854 0.64244 0.28721 0.0
H3563 H 0.03855 0.61506 0.28613 0.0
C3564 C 0.01576 0.63439 0.27625 0.0
C3565 C 0.03689 0.63545 0.29084 0.0
C3566 C 0.05041 0.64344 0.30292 0.0
C3567 C 0.01104 0.61942 0.26885 0.0
C3568 C 0.01941 0.61244 0.27247 0.0
C3569 C 0.03223 0.62053 0.28336 0.0
C3570 C 0.01469 0.59646 0.26554 0.0
C3571 C 0.99692 0.61097 0.25757 0.0
C3572 C 0.00981 0.58417 0.27532 0.0
C3573 C 0.00567 0.56911 0.26898 0.0
C3574 C 0.00645 0.56611 0.25275 0.0
C3575 C 0.01131 0.57846 0.24297 0.0
C3576 C 0.0154 0.59351 0.24933 0.0
H3577 H 0.99017 0.61663 0.25837 0.0
H3578 H 0.00033 0.61118 0.24528 0.0
H3579 H 0.9895 0.59842 0.25996 0.0
H3580 H 0.00927 0.58627 0.28789 0.0
H3581 H 0.00221 0.55991 0.27684 0.0
H3582 H 0.31563 0.36282 0.34179 0.0
H3583 H 0.33864 0.37624 0.32738 0.0
H3584 H 0.36661 0.38786 0.37073 0.0
H3585 H 0.34363 0.37423 0.38525 0.0
H3586 H 0.36391 0.40741 0.3311 0.0
H3587 H 0.3806 0.36427 0.3417 0.0
H3588 H 0.36193 0.36052 0.34538 0.0
H3589 H 0.37802 0.37351 0.35914 0.0
C3590 C 0.32667 0.36832 0.3483 0.0
C3591 C 0.32779 0.36733 0.36465 0.0
C3592 C 0.3398 0.37598 0.34005 0.0
C3593 C 0.35429 0.38277 0.34796 0.0
C3594 C 0.3555 0.38239 0.36437 0.0
H3595 H 0.44396 0.42774 0.30931 0.0
H3596 H 0.42337 0.41741 0.32731 0.0
C3597 C 0.34236 0.37469 0.37265 0.0
C3598 C 0.36804 0.38994 0.33887 0.0
H3599 H 0.39713 0.38569 0.32747 0.0
C3600 C 0.37121 0.40271 0.33035 0.0
C3601 C 0.37754 0.38376 0.33794 0.0
C3602 C 0.37434 0.36968 0.34641 0.0
C3603 C 0.38359 0.40943 0.32082 0.0
C3604 C 0.39287 0.40303 0.31963 0.0
C3605 C 0.38994 0.39052 0.32844 0.0
C3606 C 0.40528 0.40878 0.30878 0.0
C3607 C 0.38665 0.42332 0.31211 0.0
C3608 C 0.40183 0.40693 0.29242 0.0
C3609 C 0.41351 0.41266 0.28212 0.0
C3610 C 0.42887 0.42033 0.28801 0.0
C3611 C 0.43225 0.42176 0.30441 0.0
C3612 C 0.42053 0.41598 0.3147 0.0
H3613 H 0.3811 0.4293 0.31736 0.0
H3614 H 0.39912 0.4321 0.31216 0.0
H3615 H 0.38201 0.41912 0.29963 0.0
H3616 H 0.39009 0.40107 0.28761 0.0
H3617 H 0.41052 0.41111 0.26954 0.0
H3618 H 0.29875 0.31634 0.42746 0.0
H3619 H 0.30952 0.30113 0.43564 0.0
H3620 H 0.30789 0.28479 0.38699 0.0
H3621 H 0.29702 0.29996 0.37861 0.0
H3622 H 0.29606 0.26614 0.42711 0.0
H3623 H 0.35393 0.30645 0.40658 0.0
H3624 H 0.34106 0.31302 0.41075 0.0
H3625 H 0.33739 0.30006 0.39333 0.0
C3626 C 0.3006 0.30946 0.41848 0.0
C3627 C 0.29708 0.30939 0.40238 0.0
C3628 C 0.30675 0.30079 0.42318 0.0
C3629 C 0.30961 0.29201 0.41189 0.0
C3630 C 0.30587 0.29164 0.39583 0.0
H3631 H 0.35619 0.24239 0.43272 0.0
H3632 H 0.34455 0.25428 0.41822 0.0
C3633 C 0.2996 0.30023 0.3911 0.0
C3634 C 0.3166 0.28336 0.41711 0.0
H3635 H 0.35053 0.28539 0.42038 0.0
C3636 C 0.30792 0.27022 0.42552 0.0
C3637 C 0.33202 0.28869 0.41484 0.0
C3638 C 0.34176 0.30286 0.40594 0.0
C3639 C 0.31439 0.26246 0.43212 0.0
C3640 C 0.33004 0.2683 0.43059 0.0
C3641 C 0.33856 0.28104 0.4216 0.0
C3642 C 0.33793 0.26196 0.43918 0.0
C3643 C 0.30443 0.24818 0.44079 0.0
C3644 C 0.33852 0.26289 0.45574 0.0
C3645 C 0.34512 0.25618 0.46398 0.0
C3646 C 0.35139 0.24852 0.45583 0.0
C3647 C 0.35146 0.24826 0.43928 0.0
C3648 C 0.34477 0.25495 0.431 0.0
H3649 H 0.29216 0.24245 0.4368 0.0
H3650 H 0.30772 0.23932 0.43908 0.0
H3651 H 0.30576 0.25191 0.45363 0.0
H3652 H 0.33368 0.26864 0.46229 0.0
H3653 H 0.34518 0.25682 0.47676 0.0
H3654 H 0.70832 0.01933 0.37053 0.0
H3655 H 0.72638 0.04542 0.38424 0.0
H3656 H 0.70178 0.03135 0.42626 0.0
H3657 H 0.68384 0.00513 0.41276 0.0
H3658 H 0.72113 0.0678 0.39776 0.0
H3659 H 0.74553 0.04801 0.44278 0.0
H3660 H 0.73388 0.03538 0.42547 0.0
H3661 H 0.72513 0.03839 0.44216 0.0
C3662 C 0.70677 0.02175 0.38271 0.0
C3663 C 0.69469 0.01012 0.39058 0.0
C3664 C 0.71709 0.03668 0.39051 0.0
C3665 C 0.71553 0.04023 0.40632 0.0
C3666 C 0.70337 0.02873 0.41416 0.0
H3667 H 0.76331 0.13558 0.45552 0.0
H3668 H 0.74361 0.1094 0.44295 0.0
C3669 C 0.69309 0.01378 0.40639 0.0
C3670 C 0.72659 0.05605 0.41453 0.0
H3671 H 0.75328 0.07494 0.44577 0.0
C3672 C 0.72816 0.06939 0.40827 0.0
C3673 C 0.73583 0.05806 0.42814 0.0
C3674 C 0.73515 0.04422 0.43498 0.0
C3675 C 0.73874 0.08471 0.41527 0.0
C3676 C 0.74778 0.08668 0.42904 0.0
C3677 C 0.74621 0.07335 0.4353 0.0
C3678 C 0.75952 0.10252 0.43668 0.0
C3679 C 0.74045 0.09865 0.40764 0.0
C3680 C 0.77492 0.10717 0.43757 0.0
C3681 C 0.78614 0.12203 0.44474 0.0
C3682 C 0.78218 0.13253 0.45127 0.0
C3683 C 0.76672 0.12782 0.45044 0.0
C3684 C 0.75547 0.11289 0.44326 0.0
H3685 H 0.73522 0.09527 0.3953 0.0
H3686 H 0.73466 0.10352 0.41451 0.0
H3687 H 0.75268 0.10815 0.40754 0.0
H3688 H 0.77827 0.09933 0.43254 0.0
H3689 H 0.79796 0.12539 0.44496 0.0
H3690 H 0.99168 0.71385 0.35929 0.0
H3691 H 0.96653 0.70273 0.36985 0.0
H3692 H 0.964 0.65886 0.37429 0.0
H3693 H 0.98913 0.6699 0.36409 0.0
H3694 H 0.93799 0.67585 0.3593 0.0
H3695 H 0.95735 0.67069 0.41884 0.0
H3696 H 0.97053 0.68208 0.40459 0.0
H3697 H 0.9613 0.66093 0.40297 0.0
C3698 C 0.98575 0.70183 0.36251 0.0
C3699 C 0.99247 0.69282 0.36102 0.0
C3700 C 0.97139 0.6955 0.36851 0.0
C3701 C 0.96355 0.68008 0.37311 0.0
C3702 C 0.97002 0.67091 0.37115 0.0
H3703 H 0.87895 0.62428 0.41855 0.0
H3704 H 0.9012 0.63236 0.40309 0.0
C3705 C 0.98437 0.67724 0.36526 0.0
C3706 C 0.9487 0.67362 0.38016 0.0
H3707 H 0.93074 0.65904 0.4136 0.0
C3708 C 0.93639 0.6722 0.37118 0.0
C3709 C 0.94668 0.66887 0.39566 0.0
C3710 C 0.95969 0.67084 0.40615 0.0
C3711 C 0.92202 0.66598 0.37727 0.0
C3712 C 0.92003 0.66123 0.39275 0.0
C3713 C 0.9323 0.66256 0.40167 0.0
C3714 C 0.90557 0.65566 0.40035 0.0
C3715 C 0.90904 0.66439 0.36707 0.0
C3716 C 0.90064 0.66605 0.40376 0.0
C3717 C 0.88801 0.66149 0.41258 0.0
C3718 C 0.88011 0.64646 0.41817 0.0
C3719 C 0.88475 0.63587 0.41427 0.0
C3720 C 0.89746 0.64048 0.40551 0.0
H3721 H 0.91127 0.66471 0.35435 0.0
H3722 H 0.89815 0.65321 0.36863 0.0
H3723 H 0.90762 0.67436 0.37061 0.0
H3724 H 0.9069 0.6779 0.40009 0.0
H3725 H 0.8846 0.66984 0.41531 0.0
H3726 H 0.38587 0.04257 0.70145 0.0
H3727 H 0.4034 0.03881 0.71763 0.0
H3728 H 0.36683 0.00945 0.74631 0.0
H3729 H 0.34921 0.01303 0.73019 0.0
H3730 H 0.41077 0.0459 0.75122 0.0
H3731 H 0.38409 0.98201 0.73206 0.0
H3732 H 0.38046 0.99473 0.72128 0.0
H3733 H 0.37126 0.9876 0.73913 0.0
C3734 C 0.38155 0.0353 0.71119 0.0
C3735 C 0.36612 0.02803 0.71448 0.0
C3736 C 0.39158 0.03318 0.72042 0.0
C3737 C 0.38634 0.02368 0.733 0.0
C3738 C 0.37102 0.01661 0.73647 0.0
H3739 H 0.43116 0.99485 0.7987 0.0
H3740 H 0.41267 0.99891 0.78472 0.0
C3741 C 0.361 0.01874 0.72728 0.0
C3742 C 0.39694 0.02128 0.7426 0.0
H3743 H 0.40395 0.99317 0.75244 0.0
C3744 C 0.40931 0.03439 0.75149 0.0
C3745 C 0.39491 0.00622 0.74297 0.0
C3746 C 0.38204 0.99183 0.73327 0.0
C3747 C 0.41972 0.03282 0.76084 0.0
C3748 C 0.41783 0.0178 0.76103 0.0
C3749 C 0.40534 0.00466 0.75228 0.0
C3750 C 0.42902 0.01557 0.76973 0.0
C3751 C 0.43251 0.04723 0.7706 0.0
C3752 C 0.44424 0.02342 0.76577 0.0
C3753 C 0.45477 0.02112 0.77369 0.0
C3754 C 0.45027 0.01082 0.78567 0.0
C3755 C 0.43495 0.00282 0.7895 0.0
C3756 C 0.42441 0.00516 0.78157 0.0
H3757 H 0.42983 0.05652 0.77274 0.0
H3758 H 0.43487 0.04415 0.78217 0.0
H3759 H 0.44305 0.05227 0.76415 0.0
H3760 H 0.44794 0.03116 0.75638 0.0
H3761 H 0.46639 0.02716 0.77019 0.0
H3762 H 0.99738 0.34618 0.71606 0.0
H3763 H 0.00337 0.3708 0.73091 0.0
H3764 H 0.97312 0.34421 0.76612 0.0
H3765 H 0.96729 0.31959 0.75155 0.0
H3766 H 0.98426 0.38098 0.73934 0.0
H3767 H 0.01244 0.37558 0.79275 0.0
H3768 H 0.00845 0.36347 0.77439 0.0
H3769 H 0.99359 0.35867 0.78757 0.0
C3770 C 0.99201 0.34557 0.72697 0.0
C3771 C 0.98194 0.33094 0.73268 0.0
C3772 C 0.99546 0.35964 0.73544 0.0
C3773 C 0.98893 0.35932 0.74976 0.0
C3774 C 0.97859 0.34473 0.7553 0.0
H3775 H 0.98617 0.42667 0.81553 0.0
H3776 H 0.98308 0.4032 0.80077 0.0
C3777 C 0.97519 0.33067 0.74689 0.0
C3778 C 0.99262 0.37422 0.75876 0.0
H3779 H 0.00636 0.39543 0.79491 0.0
C3780 C 0.98923 0.38423 0.75143 0.0
C3781 C 0.99913 0.37841 0.77453 0.0
C3782 C 0.00376 0.36855 0.78274 0.0
C3783 C 0.99175 0.39812 0.75963 0.0
C3784 C 0.99797 0.40212 0.77548 0.0
C3785 C 0.00155 0.39225 0.78275 0.0
C3786 C 0.00047 0.41636 0.78481 0.0
C3787 C 0.98737 0.40818 0.75144 0.0
C3788 C 0.01149 0.43148 0.78088 0.0
C3789 C 0.01329 0.44488 0.78928 0.0
C3790 C 0.00406 0.44335 0.80172 0.0
C3791 C 0.99331 0.42818 0.80588 0.0
C3792 C 0.99158 0.41479 0.79753 0.0
H3793 H 0.98011 0.40195 0.74031 0.0
H3794 H 0.98114 0.41176 0.75934 0.0
H3795 H 0.99787 0.41909 0.74849 0.0
H3796 H 0.01856 0.43288 0.77119 0.0
H3797 H 0.02157 0.45641 0.78572 0.0
H3798 H 0.67513 0.64509 0.69579 0.0
H3799 H 0.65153 0.62993 0.70887 0.0
H3800 H 0.67389 0.61532 0.74058 0.0
H3801 H 0.69773 0.63075 0.72776 0.0
H3802 H 0.63354 0.59829 0.71369 0.0
H3803 H 0.65802 0.63591 0.77071 0.0
H3804 H 0.66754 0.64145 0.75265 0.0
H3805 H 0.66832 0.62718 0.76364 0.0
C3806 C 0.67504 0.63858 0.70548 0.0
C3807 C 0.68837 0.63927 0.71085 0.0
C3808 C 0.66152 0.62991 0.71293 0.0
C3809 C 0.66106 0.62177 0.72588 0.0
C3810 C 0.67412 0.62183 0.73083 0.0
H3811 H 0.59036 0.56878 0.78882 0.0
H3812 H 0.61338 0.58071 0.77426 0.0
C3813 C 0.6877 0.63056 0.72342 0.0
C3814 C 0.64698 0.61363 0.73441 0.0
H3815 H 0.63286 0.61361 0.77024 0.0
C3816 C 0.63337 0.60162 0.72605 0.0
C3817 C 0.64681 0.6181 0.75052 0.0
C3818 C 0.66091 0.63146 0.7599 0.0
C3819 C 0.6196 0.59383 0.73343 0.0
C3820 C 0.61945 0.5983 0.74951 0.0
C3821 C 0.63306 0.61022 0.7579 0.0
C3822 C 0.60529 0.59076 0.75792 0.0
C3823 C 0.60535 0.58074 0.72405 0.0
C3824 C 0.59321 0.59262 0.75361 0.0
C3825 C 0.58002 0.5858 0.7619 0.0
C3826 C 0.57873 0.57701 0.7746 0.0
C3827 C 0.59092 0.57526 0.77891 0.0
C3828 C 0.6041 0.58213 0.77068 0.0
H3829 H 0.60803 0.5764 0.71301 0.0
H3830 H 0.59873 0.57064 0.7312 0.0
H3831 H 0.59799 0.58521 0.72076 0.0
H3832 H 0.59404 0.59947 0.74394 0.0
H3833 H 0.57079 0.58729 0.75829 0.0
H3834 H 0.68393 0.67971 0.64817 0.0
H3835 H 0.67324 0.6955 0.64214 0.0
H3836 H 0.70504 0.73246 0.67744 0.0
H3837 H 0.71601 0.71678 0.68345 0.0
H3838 H 0.65965 0.70675 0.66285 0.0
H3839 H 0.71054 0.7558 0.63784 0.0
H3840 H 0.70866 0.73719 0.64064 0.0
H3841 H 0.71364 0.7515 0.65726 0.0
C3842 C 0.68874 0.69124 0.6546 0.0
C3843 C 0.70087 0.69702 0.66625 0.0
C3844 C 0.68258 0.70022 0.65116 0.0
C3845 C 0.68842 0.71518 0.65925 0.0
C3846 C 0.70053 0.72104 0.6709 0.0
H3847 H 0.6616 0.78229 0.64035 0.0
H3848 H 0.67239 0.76914 0.65382 0.0
C3849 C 0.70675 0.71205 0.67434 0.0
C3850 C 0.68158 0.72441 0.6555 0.0
H3851 H 0.68875 0.75744 0.6388 0.0
C3852 C 0.66603 0.71789 0.6577 0.0
C3853 C 0.68997 0.73898 0.64888 0.0
C3854 C 0.7066 0.74628 0.64587 0.0
C3855 C 0.65854 0.7254 0.65311 0.0
C3856 C 0.6668 0.73967 0.64596 0.0
C3857 C 0.68247 0.7465 0.64431 0.0
C3858 C 0.65919 0.74708 0.63897 0.0
C3859 C 0.64185 0.71795 0.65583 0.0
C3860 C 0.64815 0.73898 0.62624 0.0
C3861 C 0.64206 0.74646 0.61846 0.0
C3862 C 0.64695 0.76224 0.62324 0.0
C3863 C 0.6577 0.77018 0.63631 0.0
C3864 C 0.66382 0.76268 0.64405 0.0
H3865 H 0.63845 0.70996 0.66542 0.0
H3866 H 0.63913 0.72708 0.65892 0.0
H3867 H 0.63487 0.71081 0.64484 0.0
H3868 H 0.64468 0.72705 0.6219 0.0
H3869 H 0.63404 0.74011 0.60825 0.0
H3870 H 0.28816 0.9851 0.68354 0.0
H3871 H 0.27096 0.95827 0.67102 0.0
H3872 H 0.30259 0.96686 0.63529 0.0
H3873 H 0.31998 0.99371 0.64782 0.0
H3874 H 0.25752 0.94918 0.63971 0.0
H3875 H 0.29426 0.92549 0.65181 0.0
H3876 H 0.29765 0.94357 0.66201 0.0
H3877 H 0.30304 0.94337 0.64213 0.0
C3878 C 0.2915 0.98129 0.67305 0.0
C3879 C 0.30547 0.99152 0.66671 0.0
C3880 C 0.28165 0.96596 0.66591 0.0
C3881 C 0.28562 0.96054 0.65237 0.0
C3882 C 0.29947 0.97074 0.64591 0.0
H3883 H 0.23532 0.86941 0.59512 0.0
H3884 H 0.25482 0.89648 0.60578 0.0
C3885 C 0.30934 0.9861 0.65304 0.0
C3886 C 0.27499 0.94432 0.64485 0.0
H3887 H 0.27098 0.90848 0.63645 0.0
C3888 C 0.26045 0.94028 0.63898 0.0
C3889 C 0.27893 0.93279 0.64385 0.0
C3890 C 0.29427 0.93641 0.65038 0.0
C3891 C 0.24968 0.92497 0.63217 0.0
C3892 C 0.25348 0.91335 0.63148 0.0
C3893 C 0.26813 0.91744 0.63705 0.0
C3894 C 0.24216 0.89675 0.6255 0.0
C3895 C 0.23435 0.92139 0.62566 0.0
C3896 C 0.22885 0.88785 0.63334 0.0
C3897 C 0.21777 0.87244 0.62735 0.0
C3898 C 0.21983 0.86559 0.61343 0.0
C3899 C 0.23345 0.87434 0.60591 0.0
C3900 C 0.24455 0.8898 0.61193 0.0
H3901 H 0.2347 0.93233 0.62327 0.0
H3902 H 0.23042 0.91337 0.61456 0.0
H3903 H 0.2258 0.91545 0.63444 0.0
H3904 H 0.22697 0.8929 0.64404 0.0
H3905 H 0.20754 0.86589 0.63359 0.0
H3906 H 0.02905 0.32113 0.73494 0.0
H3907 H 0.05325 0.33307 0.72234 0.0
H3908 H 0.03085 0.29889 0.6817 0.0
H3909 H 0.00661 0.28702 0.69405 0.0
H3910 H 0.07033 0.3207 0.71045 0.0
H3911 H 0.04948 0.34143 0.66296 0.0
H3912 H 0.03959 0.3345 0.68063 0.0
H3913 H 0.03739 0.32062 0.66462 0.0
C3914 C 0.0293 0.31605 0.72338 0.0
C3915 C 0.01586 0.30323 0.71542 0.0
C3916 C 0.04313 0.32291 0.71621 0.0
C3917 C 0.04374 0.31708 0.70096 0.0
C3918 C 0.03053 0.3038 0.69333 0.0
H3919 H 0.10775 0.3334 0.63252 0.0
H3920 H 0.08613 0.32434 0.64893 0.0
C3921 C 0.0167 0.29697 0.70045 0.0
C3922 C 0.05805 0.32504 0.69281 0.0
H3923 H 0.07282 0.34264 0.65925 0.0
C3924 C 0.07097 0.32566 0.69935 0.0
C3925 C 0.05885 0.33164 0.67841 0.0
C3926 C 0.04564 0.33218 0.67131 0.0
C3927 C 0.08447 0.33208 0.69146 0.0
C3928 C 0.08503 0.33812 0.67678 0.0
C3929 C 0.07228 0.33792 0.67049 0.0
C3930 C 0.09836 0.34375 0.66721 0.0
C3931 C 0.09785 0.33185 0.69852 0.0
C3932 C 0.11234 0.35776 0.67203 0.0
C3933 C 0.12476 0.36299 0.66266 0.0
C3934 C 0.12334 0.35422 0.64839 0.0
C3935 C 0.10926 0.34026 0.64359 0.0
C3936 C 0.09688 0.33512 0.65289 0.0
H3937 H 0.09483 0.32476 0.70883 0.0
H3938 H 0.10219 0.32694 0.68951 0.0
H3939 H 0.10726 0.34412 0.7025 0.0
H3940 H 0.11361 0.36467 0.68298 0.0
H3941 H 0.13549 0.37377 0.66664 0.0
H3942 H 0.32351 0.33026 0.66064 0.0
H3943 H 0.30857 0.33855 0.64637 0.0
H3944 H 0.27163 0.31368 0.67632 0.0
H3945 H 0.28643 0.30513 0.69059 0.0
H3946 H 0.26212 0.30928 0.64399 0.0
H3947 H 0.30138 0.37278 0.66479 0.0
H3948 H 0.31049 0.36372 0.6553 0.0
H3949 H 0.30202 0.35729 0.67366 0.0
C3950 C 0.31218 0.32648 0.66418 0.0
C3951 C 0.30621 0.31714 0.67684 0.0
C3952 C 0.3037 0.3313 0.65605 0.0
C3953 C 0.28913 0.32697 0.66049 0.0
C3954 C 0.28291 0.31723 0.67278 0.0
H3955 H 0.23733 0.36885 0.63845 0.0
H3956 H 0.25255 0.3598 0.65076 0.0
C3957 C 0.29138 0.31236 0.68092 0.0
C3958 C 0.28048 0.33279 0.65244 0.0
H3959 H 0.28166 0.36649 0.64532 0.0
C3960 C 0.26636 0.32178 0.64426 0.0
C3961 C 0.28599 0.3491 0.65301 0.0
C3962 C 0.30073 0.36143 0.66227 0.0
C3963 C 0.25766 0.32665 0.63648 0.0
C3964 C 0.26337 0.34299 0.63671 0.0
C3965 C 0.27741 0.35398 0.64502 0.0
C3966 C 0.25465 0.34889 0.62896 0.0
C3967 C 0.24228 0.31428 0.62839 0.0
C3968 C 0.25107 0.34605 0.61256 0.0
C3969 C 0.24243 0.35128 0.60545 0.0
C3970 C 0.23734 0.35957 0.61463 0.0
C3971 C 0.24128 0.36272 0.63101 0.0
C3972 C 0.24989 0.35747 0.63809 0.0
H3973 H 0.23802 0.30243 0.63246 0.0
H3974 H 0.2337 0.31749 0.63055 0.0
H3975 H 0.24329 0.31344 0.61545 0.0
H3976 H 0.25492 0.33974 0.60526 0.0
H3977 H 0.2397 0.34883 0.59279 0.0
H3978 H 0.68879 0.98764 0.67297 0.0
H3979 H 0.67702 0.96136 0.65864 0.0
H3980 H 0.67741 0.9808 0.61485 0.0
H3981 H 0.6891 0.00713 0.62904 0.0
H3982 H 0.64739 0.94566 0.63606 0.0
H3983 H 0.69993 0.95503 0.6096 0.0
H3984 H 0.70076 0.96623 0.62758 0.0
H3985 H 0.69577 0.97029 0.60895 0.0
C3986 C 0.68643 0.98636 0.66029 0.0
C3987 C 0.6899 0.99947 0.65213 0.0
C3988 C 0.67967 0.97134 0.65215 0.0
C3989 C 0.67643 0.96924 0.63574 0.0
C3990 C 0.67992 0.98227 0.62753 0.0
H3991 H 0.6456 0.8865 0.5691 0.0
H3992 H 0.65414 0.91312 0.5809 0.0
C3993 C 0.68657 0.99727 0.63566 0.0
C3994 C 0.66932 0.95336 0.62721 0.0
H3995 H 0.67719 0.93038 0.60316 0.0
C3996 C 0.65385 0.94227 0.62882 0.0
C3997 C 0.67781 0.94914 0.61772 0.0
C3998 C 0.69452 0.96071 0.61583 0.0
C3999 C 0.64657 0.92694 0.62112 0.0
C4000 C 0.65516 0.92254 0.61195 0.0
C4001 C 0.67061 0.93377 0.61018 0.0
C4002 C 0.6486 0.90621 0.60456 0.0
C4003 C 0.62974 0.9157 0.62273 0.0
C4004 C 0.64256 0.89349 0.61392 0.0
C4005 C 0.63758 0.8783 0.60719 0.0
C4006 C 0.63878 0.8756 0.59102 0.0
C4007 C 0.6446 0.88829 0.58161 0.0
C4008 C 0.64946 0.90346 0.58832 0.0
H4009 H 0.62398 0.92217 0.6256 0.0
H4010 H 0.62398 0.90775 0.61171 0.0
H4011 H 0.62824 0.90834 0.63252 0.0
H4012 H 0.64219 0.8954 0.62655 0.0
H4013 H 0.63342 0.86879 0.61478 0.0
H4014 H 0.993 0.68513 0.70283 0.0
H4015 H 0.01854 0.69688 0.69338 0.0
H4016 H 0.00808 0.72144 0.66066 0.0
H4017 H 0.9825 0.70982 0.6701 0.0
H4018 H 0.0244 0.69239 0.66229 0.0
H4019 H 0.05036 0.75602 0.68135 0.0
H4020 H 0.03354 0.74063 0.68957 0.0
H4021 H 0.03199 0.74693 0.6707 0.0
C4022 C 0.99617 0.6932 0.69377 0.0
C4023 C 0.98569 0.69651 0.68718 0.0
C4024 C 0.01078 0.6999 0.6884 0.0
C4025 C 0.01523 0.71013 0.67644 0.0
C4026 C 0.00495 0.71378 0.6701 0.0
H4027 H 0.07878 0.73277 0.60627 0.0
H4028 H 0.05689 0.72161 0.6225 0.0
C4029 C 0.99031 0.70707 0.67545 0.0
C4030 C 0.03016 0.71599 0.66973 0.0
H4031 H 0.06307 0.74961 0.66197 0.0
C4032 C 0.03294 0.70489 0.66238 0.0
C4033 C 0.04134 0.73229 0.67006 0.0
C4034 C 0.03926 0.74467 0.67847 0.0
C4035 C 0.04635 0.7097 0.65473 0.0
C4036 C 0.05715 0.726 0.65431 0.0
C4037 C 0.05469 0.7371 0.66225 0.0
C4038 C 0.07052 0.73178 0.64476 0.0
C4039 C 0.0488 0.6973 0.647 0.0
C4040 C 0.08542 0.74121 0.65194 0.0
C4041 C 0.09796 0.74761 0.64268 0.0
C4042 C 0.09573 0.74484 0.62611 0.0
C4043 C 0.0808 0.73514 0.61901 0.0
C4044 C 0.06832 0.72868 0.62826 0.0
H4045 H 0.0418 0.6858 0.65202 0.0
H4046 H 0.04537 0.69545 0.63417 0.0
H4047 H 0.06101 0.7011 0.64838 0.0
H4048 H 0.08731 0.74381 0.66467 0.0
H4049 H 0.10934 0.75519 0.64842 0.0
H4050 H 0.96654 0.64926 0.75575 0.0
H4051 H 0.97085 0.62928 0.76487 0.0
H4052 H 0.94418 0.59757 0.7238 0.0
H4053 H 0.93985 0.61755 0.71447 0.0
H4054 H 0.94898 0.59744 0.77106 0.0
H4055 H 0.98609 0.60114 0.72321 0.0
H4056 H 0.98175 0.61613 0.72774 0.0
H4057 H 0.96772 0.59764 0.71701 0.0
C4058 C 0.96153 0.63802 0.74866 0.0
C4059 C 0.95294 0.63502 0.73433 0.0
C4060 C 0.96399 0.62662 0.75391 0.0
C4061 C 0.958 0.61208 0.74489 0.0
C4062 C 0.94908 0.60885 0.73079 0.0
H4063 H 0.95939 0.53303 0.78058 0.0
H4064 H 0.95119 0.54869 0.76767 0.0
C4065 C 0.94657 0.62024 0.72553 0.0
C4066 C 0.9613 0.60043 0.75027 0.0
H4067 H 0.9812 0.58285 0.74177 0.0
C4068 C 0.95592 0.59413 0.76462 0.0
C4069 C 0.97049 0.59632 0.74187 0.0
C4070 C 0.97698 0.60321 0.72665 0.0
C4071 C 0.95961 0.5839 0.77091 0.0
C4072 C 0.96879 0.57978 0.7625 0.0
C4073 C 0.97406 0.58597 0.74808 0.0
C4074 C 0.9738 0.56985 0.76904 0.0
C4075 C 0.95411 0.57802 0.78675 0.0
C4076 C 0.98929 0.57645 0.77357 0.0
C4077 C 0.99401 0.56757 0.78096 0.0
C4078 C 0.9833 0.55191 0.78388 0.0
C4079 C 0.96786 0.54515 0.77873 0.0
C4080 C 0.96316 0.55405 0.77135 0.0
H4081 H 0.94971 0.5847 0.79305 0.0
H4082 H 0.94473 0.56539 0.78497 0.0
H4083 H 0.96347 0.57894 0.79438 0.0
H4084 H 0.99766 0.58864 0.77187 0.0
H4085 H 0.00595 0.57317 0.78492 0.0
H4086 H 0.34913 0.35247 0.72842 0.0
H4087 H 0.36621 0.37938 0.74078 0.0
H4088 H 0.40182 0.36984 0.74797 0.0
H4089 H 0.38495 0.34303 0.73521 0.0
H4090 H 0.37976 0.38983 0.77018 0.0
H4091 H 0.42394 0.41025 0.72686 0.0
H4092 H 0.40556 0.39206 0.72319 0.0
H4093 H 0.42057 0.3928 0.73515 0.0
C4094 C 0.36063 0.35612 0.73256 0.0
C4095 C 0.36573 0.34565 0.73075 0.0
C4096 C 0.37037 0.3715 0.73963 0.0
C4097 C 0.38537 0.37671 0.74506 0.0
C4098 C 0.39042 0.36621 0.7435 0.0
H4099 H 0.44509 0.45583 0.81312 0.0
H4100 H 0.4259 0.43015 0.79958 0.0
C4101 C 0.38073 0.35085 0.73629 0.0
C4102 C 0.3956 0.393 0.75269 0.0
H4103 H 0.43058 0.42664 0.75112 0.0
C4104 C 0.39083 0.39793 0.76595 0.0
C4105 C 0.40991 0.40366 0.74699 0.0
C4106 C 0.41524 0.3995 0.73217 0.0
C4107 C 0.40016 0.41309 0.77391 0.0
C4108 C 0.41481 0.42344 0.7687 0.0
C4109 C 0.4194 0.41865 0.7552 0.0
C4110 C 0.42573 0.43917 0.7772 0.0
C4111 C 0.39413 0.4179 0.78768 0.0
C4112 C 0.43224 0.45276 0.76907 0.0
C4113 C 0.44349 0.46743 0.77669 0.0
C4114 C 0.44846 0.46879 0.79261 0.0
C4115 C 0.44165 0.45519 0.80081 0.0
C4116 C 0.4305 0.44051 0.79315 0.0
H4117 H 0.38144 0.41099 0.78689 0.0
H4118 H 0.39809 0.41558 0.79883 0.0
H4119 H 0.39829 0.43067 0.78831 0.0
H4120 H 0.4288 0.45198 0.75672 0.0
H4121 H 0.44865 0.47758 0.76992 0.0
H4122 H 0.66515 0.05135 0.67836 0.0
H4123 H 0.64219 0.04713 0.69049 0.0
H4124 H 0.64832 0.02166 0.72575 0.0
H4125 H 0.67115 0.02574 0.71377 0.0
H4126 H 0.61782 0.00636 0.7102 0.0
H4127 H 0.64149 0.06871 0.73418 0.0
H4128 H 0.64355 0.06525 0.71361 0.0
H4129 H 0.65357 0.06154 0.72847 0.0
C4130 C 0.66163 0.04491 0.68873 0.0
C4131 C 0.66999 0.03892 0.69514 0.0
C4132 C 0.64855 0.04255 0.69565 0.0
C4133 C 0.64366 0.03417 0.70904 0.0
C4134 C 0.65195 0.02816 0.71541 0.0
H4135 H 0.58477 0.02415 0.78131 0.0
H4136 H 0.60553 0.02971 0.76456 0.0
C4137 C 0.66502 0.03056 0.70857 0.0
C4138 C 0.62984 0.03146 0.71649 0.0
H4139 H 0.61609 0.04996 0.73908 0.0
C4140 C 0.61734 0.01588 0.71638 0.0
C4141 C 0.62938 0.04394 0.72461 0.0
C4142 C 0.64271 0.06082 0.72538 0.0
C4143 C 0.60444 0.0124 0.72448 0.0
C4144 C 0.60405 0.02486 0.73276 0.0
C4145 C 0.61644 0.04047 0.73262 0.0
C4146 C 0.59138 0.02181 0.74261 0.0
C4147 C 0.59158 0.99539 0.72465 0.0
C4148 C 0.57659 0.01565 0.73576 0.0
C4149 C 0.56468 0.01254 0.7453 0.0
C4150 C 0.56742 0.0156 0.76185 0.0
C4151 C 0.58231 0.02188 0.76861 0.0
C4152 C 0.59418 0.02501 0.75907 0.0
H4153 H 0.5948 0.98703 0.71992 0.0
H4154 H 0.58807 0.99279 0.73685 0.0
H4155 H 0.58155 0.99325 0.71725 0.0
H4156 H 0.57428 0.0133 0.72305 0.0
H4157 H 0.55339 0.00791 0.73973 0.0
loop_
_geom_bond_atom_site_label_1
_geom_bond_atom_site_label_2
_geom_bond_distance
_geom_bond_site_symmetry_2
_ccdc_geom_bond_type
C0 O1 1.160 . S
C0 O7 1.185 . S
O1 C0 1.160 . S
O2 Zn3 1.899 1_655 S
O2 C10 1.284 . S
Zn3 O2 1.899 1_455 S
Zn3 O4 2.032 . S
Zn3 O7 2.086 . S
Zn3 O12 1.977 . S
O4 Zn3 2.032 . S
O4 C8 1.274 1_455 S
C5 O6 1.203 1_455 S
C5 O12 1.267 1_556 S
O6 C5 1.203 1_655 S
O7 C0 1.185 . S
O7 Zn3 2.086 . S
C8 O4 1.274 1_655 S
C8 O9 1.213 . S
O9 C8 1.213 . S
C10 O2 1.284 . S
C10 O11 1.273 . S
O11 C10 1.273 . S
O12 Zn3 1.977 . S
O12 C5 1.267 1_554 S
C13 O14 1.160 . S
C13 O20 1.185 . S
O14 C13 1.160 . S
O15 Zn16 1.899 . S
O15 C23 1.284 . S
Zn16 O15 1.899 . S
Zn16 O17 2.032 . S
Zn16 O20 2.086 . S
Zn16 O25 1.977 . S
O17 Zn16 2.032 . S
O17 C21 1.278 . S
C18 O19 1.203 . S
C18 O25 1.267 . S
O19 C18 1.203 . S
O20 C13 1.185 . S
O20 Zn16 2.086 . S
C21 O17 1.278 . S
C21 O22 1.211 . S
O22 C21 1.211 . S
C23 O15 1.284 . S
C23 O24 1.273 . S
O24 C23 1.273 . S
O25 Zn16 1.977 . S
O25 C18 1.267 . S
C26 O27 1.160 . S
C26 O33 1.185 . S
O27 C26 1.160 . S
O28 Zn29 1.899 . S
O28 C36 1.287 1_545 S
Zn29 O28 1.899 . S
Zn29 O30 2.032 . S
Zn29 O33 2.086 . S
Zn29 O38 1.977 . S
O30 Zn29 2.032 . S
O30 C34 1.248 1_545 S
C31 O32 1.258 . S
C31 O38 1.267 . S
O32 C31 1.258 . S
O33 C26 1.185 . S
O33 Zn29 2.086 . S
C34 O30 1.248 1_565 S
C34 O35 1.232 . S
O35 C34 1.232 . S
C36 O28 1.287 1_565 S
C36 O37 1.273 . S
O37 C36 1.273 . S
O38 Zn29 1.977 . S
O38 C31 1.267 . S
C39 O40 1.160 . S
C39 O46 1.185 . S
O40 C39 1.160 . S
O41 Zn42 1.899 1_455 S
O41 C49 1.284 . S
Zn42 O41 1.899 1_655 S
Zn42 O43 2.019 1_655 S
Zn42 O46 2.086 . S
Zn42 O51 1.977 . S
O43 Zn42 2.019 1_455 S
O43 C47 1.307 . S
C44 O45 1.203 1_655 S
C44 O51 1.267 . S
O45 C44 1.203 1_455 S
O46 C39 1.185 . S
O46 Zn42 2.086 . S
C47 O43 1.307 . S
C47 O48 1.211 . S
O48 C47 1.211 . S
C49 O41 1.284 . S
C49 O50 1.273 . S
O50 C49 1.273 . S
O51 Zn42 1.977 . S
O51 C44 1.267 . S
C52 O53 1.160 . S
C52 O59 1.185 . S
O53 C52 1.160 . S
O54 Zn55 1.899 1_556 S
O54 C62 1.284 . S
Zn55 O54 1.899 1_554 S
Zn55 O56 2.032 . S
Zn55 O59 2.086 . S
Zn55 O64 1.977 1_554 S
O56 Zn55 2.032 . S
O56 C60 1.278 . S
C57 O58 1.203 . S
C57 O64 1.267 . S
O58 C57 1.203 . S
O59 C52 1.185 . S
O59 Zn55 2.086 . S
C60 O56 1.278 . S
C60 O61 1.211 . S
O61 C60 1.211 . S
C62 O54 1.284 . S
C62 O63 1.270 1_556 S
O63 C62 1.270 1_554 S
O64 Zn55 1.977 1_556 S
O64 C57 1.267 . S
C65 O66 1.160 . S
C65 O72 1.185 . S
O66 C65 1.160 . S
O67 Zn68 1.899 1_545 S
O67 C75 1.284 . S
Zn68 O67 1.899 1_565 S
Zn68 O69 2.032 1_565 S
Zn68 O72 2.086 . S
Zn68 O77 1.977 . S
O69 Zn68 2.032 1_545 S
O69 C73 1.278 . S
C70 O71 1.203 1_565 S
C70 O77 1.267 . S
O71 C70 1.203 1_545 S
O72 C65 1.185 . S
O72 Zn68 2.086 . S
C73 O69 1.278 . S
C73 O74 1.211 . S
O74 C73 1.211 . S
C75 O67 1.284 . S
C75 O76 1.273 . S
O76 C75 1.273 . S
O77 Zn68 1.977 . S
O77 C70 1.267 . S
C78 O79 1.160 . S
C78 O85 1.185 . S
O79 C78 1.160 . S
O80 Zn81 1.899 . S
O80 C88 1.284 . S
Zn81 O80 1.899 . S
Zn81 O82 2.032 . S
Zn81 O85 2.086 . S
Zn81 O90 1.977 . S
O82 Zn81 2.032 . S
O82 C86 1.278 . S
C83 O84 1.203 . S
C83 O90 1.267 . S
O84 C83 1.203 . S
O85 C78 1.185 . S
O85 Zn81 2.086 . S
C86 O82 1.278 . S
C86 O87 1.211 . S
O87 C86 1.211 . S
C88 O80 1.284 . S
C88 O89 1.273 . S
O89 C88 1.273 . S
O90 Zn81 1.977 . S
O90 C83 1.267 . S
C91 O92 1.160 . S
C91 O98 1.185 . S
O92 C91 1.160 . S
O93 Zn94 1.899 . S
O93 C101 1.284 . S
Zn94 O93 1.899 . S
Zn94 O95 2.032 . S
Zn94 O98 2.086 . S
Zn94 O103 1.977 . S
O95 Zn94 2.032 . S
O95 C99 1.278 . S
C96 O97 1.203 . S
C96 O103 1.267 . S
O97 C96 1.203 . S
O98 C91 1.185 . S
O98 Zn94 2.086 . S
C99 O95 1.278 . S
C99 O100 1.211 . S
O100 C99 1.211 . S
C101 O93 1.284 . S
C101 O102 1.273 . S
O102 C101 1.273 . S
O103 Zn94 1.977 . S
O103 C96 1.267 . S
C104 O105 1.160 . S
C104 O111 1.185 . S
O105 C104 1.160 . S
O106 Zn107 1.899 . S
O106 C114 1.284 . S
Zn107 O106 1.899 . S
Zn107 O108 2.032 . S
Zn107 O111 2.086 . S
Zn107 O116 1.977 . S
O108 Zn107 2.032 . S
O108 C112 1.278 . S
C109 O110 1.203 . S
C109 O116 1.267 . S
O110 C109 1.203 . S
O111 C104 1.185 . S
O111 Zn107 2.086 . S
C112 O108 1.278 . S
C112 O113 1.211 . S
O113 C112 1.211 . S
C114 O106 1.284 . S
C114 O115 1.273 . S
O115 C114 1.273 . S
O116 Zn107 1.977 . S
O116 C109 1.267 . S
C117 O118 1.160 . S
C117 O124 1.185 . S
O118 C117 1.160 . S
O119 Zn120 1.899 . S
O119 C127 1.284 . S
Zn120 O119 1.899 . S
Zn120 O121 2.032 . S
Zn120 O124 2.086 . S
Zn120 O129 1.977 . S
O121 Zn120 2.032 . S
O121 C125 1.278 . S
C122 O123 1.203 . S
C122 O129 1.267 . S
O123 C122 1.203 . S
O124 C117 1.185 . S
O124 Zn120 2.086 . S
C125 O121 1.278 . S
C125 O126 1.211 . S
O126 C125 1.211 . S
C127 O119 1.284 . S
C127 O128 1.273 . S
O128 C127 1.273 . S
O129 Zn120 1.977 . S
O129 C122 1.267 . S
C130 O131 1.160 . S
C130 O137 1.185 . S
O131 C130 1.160 . S
O132 Zn133 1.899 . S
O132 C140 1.284 . S
Zn133 O132 1.899 . S
Zn133 O134 2.032 . S
Zn133 O137 2.086 . S
Zn133 O142 1.977 . S
O134 Zn133 2.032 . S
O134 C138 1.278 . S
C135 O136 1.203 . S
C135 O142 1.267 . S
O136 C135 1.203 . S
O137 C130 1.185 . S
O137 Zn133 2.086 . S
C138 O134 1.278 . S
C138 O139 1.211 . S
O139 C138 1.211 . S
C140 O132 1.284 . S
C140 O141 1.273 . S
O141 C140 1.273 . S
O142 Zn133 1.977 . S
O142 C135 1.267 . S
C143 O144 1.160 . S
C143 O150 1.185 . S
O144 C143 1.160 . S
O145 Zn146 1.899 . S
O145 C153 1.284 . S
Zn146 O145 1.899 . S
Zn146 O147 2.032 . S
Zn146 O150 2.086 . S
Zn146 O155 1.977 . S
O147 Zn146 2.032 . S
O147 C151 1.278 . S
C148 O149 1.203 . S
C148 O155 1.267 . S
O149 C148 1.203 . S
O150 C143 1.185 . S
O150 Zn146 2.086 . S
C151 O147 1.278 . S
C151 O152 1.211 . S
O152 C151 1.211 . S
C153 O145 1.284 . S
C153 O154 1.273 . S
O154 C153 1.273 . S
O155 Zn146 1.977 . S
O155 C148 1.267 . S
C156 O157 1.160 . S
C156 O163 1.185 . S
O157 C156 1.160 . S
O158 Zn159 1.899 . S
O158 C166 1.284 . S
Zn159 O158 1.899 . S
Zn159 O160 2.032 . S
Zn159 O163 2.086 . S
Zn159 O168 1.977 . S
O160 Zn159 2.032 . S
O160 C164 1.278 . S
C161 O162 1.203 . S
C161 O168 1.267 . S
O162 C161 1.203 . S
O163 C156 1.185 . S
O163 Zn159 2.086 . S
C164 O160 1.278 . S
C164 O165 1.211 . S
O165 C164 1.211 . S
C166 O158 1.284 . S
C166 O167 1.273 . S
O167 C166 1.273 . S
O168 Zn159 1.977 . S
O168 C161 1.267 . S
C169 O170 1.206 . S
C169 O176 1.185 1_455 S
O170 C169 1.206 . S
O171 Zn172 1.899 . S
O171 C179 1.284 . S
Zn172 O171 1.899 . S
Zn172 O173 2.032 . S
Zn172 O176 2.086 . S
Zn172 O181 1.977 . S
O173 Zn172 2.032 . S
O173 C177 1.278 . S
C174 O175 1.203 . S
C174 O181 1.267 . S
O175 C174 1.203 . S
O176 C169 1.185 1_655 S
O176 Zn172 2.086 . S
C177 O173 1.278 . S
C177 O178 1.211 . S
O178 C177 1.211 . S
C179 O171 1.284 . S
C179 O180 1.273 . S
O180 C179 1.273 . S
O181 Zn172 1.977 . S
O181 C174 1.267 . S
C182 O183 1.160 . S
C182 O189 1.185 . S
O183 C182 1.160 . S
O184 Zn185 1.899 . S
O184 C192 1.284 . S
Zn185 O184 1.899 . S
Zn185 O186 2.032 . S
Zn185 O189 2.086 . S
Zn185 O194 1.977 . S
O186 Zn185 2.032 . S
O186 C190 1.278 . S
C187 O188 1.203 . S
C187 O194 1.267 . S
O188 C187 1.203 . S
O189 C182 1.185 . S
O189 Zn185 2.086 . S
C190 O186 1.278 . S
C190 O191 1.211 . S
O191 C190 1.211 . S
C192 O184 1.284 . S
C192 O193 1.273 . S
O193 C192 1.273 . S
O194 Zn185 1.977 . S
O194 C187 1.267 . S
C195 O196 1.160 . S
C195 O202 1.185 . S
O196 C195 1.160 . S
O197 Zn198 1.899 . S
O197 C205 1.284 . S
Zn198 O197 1.899 . S
Zn198 O199 2.032 . S
Zn198 O202 2.086 . S
Zn198 O207 1.977 . S
O199 Zn198 2.032 . S
O199 C203 1.278 . S
C200 O201 1.203 . S
C200 O207 1.267 . S
O201 C200 1.203 . S
O202 C195 1.185 . S
O202 Zn198 2.086 . S
C203 O199 1.278 . S
C203 O204 1.211 . S
O204 C203 1.211 . S
C205 O197 1.284 . S
C205 O206 1.273 . S
O206 C205 1.273 . S
O207 Zn198 1.977 . S
O207 C200 1.267 . S
C208 O209 1.160 . S
C208 O215 1.185 . S
O209 C208 1.160 . S
O210 Zn211 1.899 . S
O210 C218 1.284 . S
Zn211 O210 1.899 . S
Zn211 O212 2.032 . S
Zn211 O215 2.086 . S
Zn211 O220 1.977 . S
O212 Zn211 2.032 . S
O212 C216 1.278 . S
C213 O214 1.203 . S
C213 O220 1.267 . S
O214 C213 1.203 . S
O215 C208 1.185 . S
O215 Zn211 2.086 . S
C216 O212 1.278 . S
C216 O217 1.211 . S
O217 C216 1.211 . S
C218 O210 1.284 . S
C218 O219 1.273 . S
O219 C218 1.273 . S
O220 Zn211 1.977 . S
O220 C213 1.267 . S
C221 O222 1.160 . S
C221 O228 1.185 . S
O222 C221 1.160 . S
O223 Zn224 1.899 . S
O223 C231 1.284 . S
Zn224 O223 1.899 . S
Zn224 O225 2.032 . S
Zn224 O228 2.086 . S
Zn224 O233 1.977 . S
O225 Zn224 2.032 . S
O225 C229 1.278 . S
C226 O227 1.203 . S
C226 O233 1.267 . S
O227 C226 1.203 . S
O228 C221 1.185 . S
O228 Zn224 2.086 . S
C229 O225 1.278 . S
C229 O230 1.211 . S
O230 C229 1.211 . S
C231 O223 1.284 . S
C231 O232 1.273 . S
O232 C231 1.273 . S
O233 Zn224 1.977 . S
O233 C226 1.267 . S
H234 O260 0.856 . S
H235 O263 0.854 . S
H236 C271 0.930 . S
H237 C272 0.930 . S
H238 C274 0.930 . S
H239 C275 0.930 . S
H240 C277 0.931 . S
H241 C278 0.930 . S
H242 C280 0.930 . S
H243 C281 0.929 . S
H244 C283 0.930 . S
H245 C284 0.931 . S
H246 C286 0.930 . S
H247 C287 0.929 . S
H248 C289 0.931 . S
H249 C290 0.930 . S
H250 C292 0.930 . S
H251 C293 0.932 . S
H252 C295 0.930 . S
H253 C296 0.929 . S
H254 C298 0.931 . S
H255 C299 0.930 . S
H256 C301 0.929 . S
H257 C302 0.931 . S
H258 C304 0.930 . S
H259 C305 0.929 . S
O260 H234 0.856 . S
O260 C306 1.300 . S
O261 C306 1.209 . S
O262 C307 1.199 . S
O263 H235 0.854 . S
O263 C307 1.297 . S
C264 C265 1.404 . S
C264 C269 1.397 . S
C264 C270 1.492 . S
C265 C264 1.404 . S
C265 C266 1.396 . S
C265 C276 1.492 . S
C266 C265 1.396 . S
C266 C267 1.397 . S
C266 C282 1.509 . S
C267 C266 1.397 . S
C267 C268 1.412 . S
C267 C288 1.485 . S
C268 C267 1.412 . S
C268 C269 1.388 . S
C268 C294 1.490 . S
C269 C264 1.397 . S
C269 C268 1.388 . S
C269 C300 1.519 . S
C270 C264 1.492 . S
C270 C271 1.363 . S
C270 C275 1.390 . S
C271 H236 0.930 . S
C271 C270 1.363 . S
C271 C272 1.372 . S
C272 H237 0.930 . S
C272 C271 1.372 . S
C272 C273 1.383 . S
C273 C272 1.383 . S
C273 C274 1.395 . S
C274 H238 0.930 . S
C274 C273 1.395 . S
C274 C275 1.362 . S
C275 H239 0.930 . S
C275 C270 1.390 . S
C275 C274 1.362 . S
C276 C265 1.492 . S
C276 C277 1.377 . S
C276 C281 1.397 . S
C277 H240 0.931 . S
C277 C276 1.377 . S
C277 C278 1.376 . S
C278 H241 0.930 . S
C278 C277 1.376 . S
C278 C279 1.376 . S
C279 C278 1.376 . S
C279 C280 1.378 . S
C279 C306 1.486 . S
C280 H242 0.930 . S
C280 C279 1.378 . S
C280 C281 1.376 . S
C281 H243 0.929 . S
C281 C276 1.397 . S
C281 C280 1.376 . S
C282 C266 1.509 . S
C282 C283 1.391 . S
C282 C287 1.386 . S
C283 H244 0.930 . S
C283 C282 1.391 . S
C283 C284 1.375 . S
C284 H245 0.931 . S
C284 C283 1.375 . S
C284 C285 1.375 . S
C285 C284 1.375 . S
C285 C286 1.361 . S
C286 H246 0.930 . S
C286 C285 1.361 . S
C286 C287 1.399 . S
C287 H247 0.929 . S
C287 C282 1.386 . S
C287 C286 1.399 . S
C288 C267 1.485 . S
C288 C289 1.394 . S
C288 C293 1.360 . S
C289 H248 0.931 . S
C289 C288 1.394 . S
C289 C290 1.372 . S
C290 H249 0.930 . S
C290 C289 1.372 . S
C290 C291 1.397 . S
C291 C290 1.397 . S
C291 C292 1.390 . S
C291 C307 1.476 . S
C292 H250 0.930 . S
C292 C291 1.390 . S
C292 C293 1.366 . S
C293 H251 0.932 . S
C293 C288 1.360 . S
C293 C292 1.366 . S
C294 C268 1.490 . S
C294 C295 1.380 . S
C294 C299 1.386 . S
C295 H252 0.930 . S
C295 C294 1.380 . S
C295 C296 1.381 . S
C296 H253 0.929 . S
C296 C295 1.381 . S
C296 C297 1.371 . S
C297 C296 1.371 . S
C297 C298 1.380 . S
C298 H254 0.931 . S
C298 C297 1.380 . S
C298 C299 1.387 . S
C299 H255 0.930 . S
C299 C294 1.386 . S
C299 C298 1.387 . S
C300 C269 1.519 . S
C300 C301 1.377 . S
C300 C305 1.361 . S
C301 H256 0.929 . S
C301 C300 1.377 . S
C301 C302 1.386 . S
C302 H257 0.931 . S
C302 C301 1.386 . S
C302 C303 1.363 . S
C303 C302 1.363 . S
C303 C304 1.385 . S
C304 H258 0.930 . S
C304 C303 1.385 . S
C304 C305 1.396 . S
C305 H259 0.929 . S
C305 C300 1.361 . S
C305 C304 1.396 . S
C306 O260 1.300 . S
C306 O261 1.209 . S
C306 C279 1.486 . S
C307 O262 1.199 . S
C307 O263 1.297 . S
C307 C291 1.476 . S
H308 O334 0.856 . S
H309 O337 0.854 . S
H310 C345 0.930 . S
H311 C346 0.930 . S
H312 C348 0.930 . S
H313 C349 0.930 . S
H314 C351 0.931 . S
H315 C352 0.930 . S
H316 C354 0.930 . S
H317 C355 0.929 . S
H318 C357 0.930 . S
H319 C358 0.931 . S
H320 C360 0.930 . S
H321 C361 0.929 . S
H322 C363 0.931 . S
H323 C364 0.930 . S
H324 C366 0.930 . S
H325 C367 0.932 . S
H326 C369 0.930 . S
H327 C370 0.929 . S
H328 C372 0.931 . S
H329 C373 0.930 . S
H330 C375 0.929 . S
H331 C376 0.931 . S
H332 C378 0.930 . S
H333 C379 0.929 . S
O334 H308 0.856 . S
O334 C380 1.300 . S
O335 C380 1.209 . S
O336 C381 1.199 . S
O337 H309 0.854 . S
O337 C381 1.297 . S
C338 C339 1.404 . S
C338 C343 1.397 . S
C338 C344 1.492 . S
C339 C338 1.404 . S
C339 C340 1.396 . S
C339 C350 1.492 . S
C340 C339 1.396 . S
C340 C341 1.397 . S
C340 C356 1.509 . S
C341 C340 1.397 . S
C341 C342 1.412 . S
C341 C362 1.485 . S
C342 C341 1.412 . S
C342 C343 1.388 . S
C342 C368 1.490 . S
C343 C338 1.397 . S
C343 C342 1.388 . S
C343 C374 1.519 . S
C344 C338 1.492 . S
C344 C345 1.363 . S
C344 C349 1.390 . S
C345 H310 0.930 . S
C345 C344 1.363 . S
C345 C346 1.372 . S
C346 H311 0.930 . S
C346 C345 1.372 . S
C346 C347 1.383 . S
C347 C346 1.383 . S
C347 C348 1.395 . S
C348 H312 0.930 . S
C348 C347 1.395 . S
C348 C349 1.362 . S
C349 H313 0.930 . S
C349 C344 1.390 . S
C349 C348 1.362 . S
C350 C339 1.492 . S
C350 C351 1.377 . S
C350 C355 1.397 . S
C351 H314 0.931 . S
C351 C350 1.377 . S
C351 C352 1.376 . S
C352 H315 0.930 . S
C352 C351 1.376 . S
C352 C353 1.376 . S
C353 C352 1.376 . S
C353 C354 1.378 . S
C353 C380 1.486 . S
C354 H316 0.930 . S
C354 C353 1.378 . S
C354 C355 1.376 . S
C355 H317 0.929 . S
C355 C350 1.397 . S
C355 C354 1.376 . S
C356 C340 1.509 . S
C356 C357 1.391 . S
C356 C361 1.386 . S
C357 H318 0.930 . S
C357 C356 1.391 . S
C357 C358 1.375 . S
C358 H319 0.931 . S
C358 C357 1.375 . S
C358 C359 1.375 . S
C359 C358 1.375 . S
C359 C360 1.361 . S
C360 H320 0.930 . S
C360 C359 1.361 . S
C360 C361 1.399 . S
C361 H321 0.929 . S
C361 C356 1.386 . S
C361 C360 1.399 . S
C362 C341 1.485 . S
C362 C363 1.394 . S
C362 C367 1.360 . S
C363 H322 0.931 . S
C363 C362 1.394 . S
C363 C364 1.372 . S
C364 H323 0.930 . S
C364 C363 1.372 . S
C364 C365 1.397 . S
C365 C364 1.397 . S
C365 C366 1.390 . S
C365 C381 1.476 . S
C366 H324 0.930 . S
C366 C365 1.390 . S
C366 C367 1.366 . S
C367 H325 0.932 . S
C367 C362 1.360 . S
C367 C366 1.366 . S
C368 C342 1.490 . S
C368 C369 1.380 . S
C368 C373 1.386 . S
C369 H326 0.930 . S
C369 C368 1.380 . S
C369 C370 1.381 . S
C370 H327 0.929 . S
C370 C369 1.381 . S
C370 C371 1.371 . S
C371 C370 1.371 . S
C371 C372 1.380 . S
C372 H328 0.931 . S
C372 C371 1.380 . S
C372 C373 1.387 . S
C373 H329 0.930 . S
C373 C368 1.386 . S
C373 C372 1.387 . S
C374 C343 1.519 . S
C374 C375 1.377 . S
C374 C379 1.361 . S
C375 H330 0.929 . S
C375 C374 1.377 . S
C375 C376 1.386 . S
C376 H331 0.931 . S
C376 C375 1.386 . S
C376 C377 1.363 . S
C377 C376 1.363 . S
C377 C378 1.385 . S
C378 H332 0.930 . S
C378 C377 1.385 . S
C378 C379 1.396 . S
C379 H333 0.929 . S
C379 C374 1.361 . S
C379 C378 1.396 . S
C380 O334 1.300 . S
C380 O335 1.209 . S
C380 C353 1.486 . S
C381 O336 1.199 . S
C381 O337 1.297 . S
C381 C365 1.476 . S
H382 O408 0.856 . S
H383 O411 0.854 . S
H384 C419 0.930 . S
H385 C420 0.930 . S
H386 C422 0.930 . S
H387 C423 0.930 . S
H388 C425 0.931 . S
H389 C426 0.930 . S
H390 C428 0.930 . S
H391 C429 0.929 . S
H392 C431 0.930 . S
H393 C432 0.931 . S
H394 C434 0.930 . S
H395 C435 0.929 . S
H396 C437 0.931 . S
H397 C438 0.930 . S
H398 C440 0.930 . S
H399 C441 0.932 . S
H400 C443 0.930 . S
H401 C444 0.929 . S
H402 C446 0.931 . S
H403 C447 0.930 . S
H404 C449 0.929 . S
H405 C450 0.931 . S
H406 C452 0.930 . S
H407 C453 0.929 . S
O408 H382 0.856 . S
O408 C454 1.300 . S
O409 C454 1.209 . S
O410 C455 1.199 . S
O411 H383 0.854 . S
O411 C455 1.297 . S
C412 C413 1.404 . S
C412 C417 1.397 . S
C412 C418 1.492 . S
C413 C412 1.404 . S
C413 C414 1.396 . S
C413 C424 1.492 . S
C414 C413 1.396 . S
C414 C415 1.397 . S
C414 C430 1.509 . S
C415 C414 1.397 . S
C415 C416 1.412 . S
C415 C436 1.485 . S
C416 C415 1.412 . S
C416 C417 1.388 . S
C416 C442 1.490 . S
C417 C412 1.397 . S
C417 C416 1.388 . S
C417 C448 1.519 . S
C418 C412 1.492 . S
C418 C419 1.363 . S
C418 C423 1.390 . S
C419 H384 0.930 . S
C419 C418 1.363 . S
C419 C420 1.372 . S
C420 H385 0.930 . S
C420 C419 1.372 . S
C420 C421 1.383 . S
C421 C420 1.383 . S
C421 C422 1.395 . S
C422 H386 0.930 . S
C422 C421 1.395 . S
C422 C423 1.362 . S
C423 H387 0.930 . S
C423 C418 1.390 . S
C423 C422 1.362 . S
C424 C413 1.492 . S
C424 C425 1.377 . S
C424 C429 1.397 . S
C425 H388 0.931 . S
C425 C424 1.377 . S
C425 C426 1.376 . S
C426 H389 0.930 . S
C426 C425 1.376 . S
C426 C427 1.376 . S
C427 C426 1.376 . S
C427 C428 1.378 . S
C427 C454 1.486 . S
C428 H390 0.930 . S
C428 C427 1.378 . S
C428 C429 1.376 . S
C429 H391 0.929 . S
C429 C424 1.397 . S
C429 C428 1.376 . S
C430 C414 1.509 . S
C430 C431 1.391 . S
C430 C435 1.386 . S
C431 H392 0.930 . S
C431 C430 1.391 . S
C431 C432 1.375 . S
C432 H393 0.931 . S
C432 C431 1.375 . S
C432 C433 1.375 . S
C433 C432 1.375 . S
C433 C434 1.361 . S
C434 H394 0.930 . S
C434 C433 1.361 . S
C434 C435 1.399 . S
C435 H395 0.929 . S
C435 C430 1.386 . S
C435 C434 1.399 . S
C436 C415 1.485 . S
C436 C437 1.394 . S
C436 C441 1.360 . S
C437 H396 0.931 . S
C437 C436 1.394 . S
C437 C438 1.372 . S
C438 H397 0.930 . S
C438 C437 1.372 . S
C438 C439 1.397 . S
C439 C438 1.397 . S
C439 C440 1.390 . S
C439 C455 1.476 . S
C440 H398 0.930 . S
C440 C439 1.390 . S
C440 C441 1.366 . S
C441 H399 0.932 . S
C441 C436 1.360 . S
C441 C440 1.366 . S
C442 C416 1.490 . S
C442 C443 1.380 . S
C442 C447 1.386 . S
C443 H400 0.930 . S
C443 C442 1.380 . S
C443 C444 1.381 . S
C444 H401 0.929 . S
C444 C443 1.381 . S
C444 C445 1.371 . S
C445 C444 1.371 . S
C445 C446 1.380 . S
C446 H402 0.931 . S
C446 C445 1.380 . S
C446 C447 1.387 . S
C447 H403 0.930 . S
C447 C442 1.386 . S
C447 C446 1.387 . S
C448 C417 1.519 . S
C448 C449 1.377 . S
C448 C453 1.361 . S
C449 H404 0.929 . S
C449 C448 1.377 . S
C449 C450 1.386 . S
C450 H405 0.931 . S
C450 C449 1.386 . S
C450 C451 1.363 . S
C451 C450 1.363 . S
C451 C452 1.385 . S
C452 H406 0.930 . S
C452 C451 1.385 . S
C452 C453 1.396 . S
C453 H407 0.929 . S
C453 C448 1.361 . S
C453 C452 1.396 . S
C454 O408 1.300 . S
C454 O409 1.209 . S
C454 C427 1.486 . S
C455 O410 1.199 . S
C455 O411 1.297 . S
C455 C439 1.476 . S
H456 O482 0.856 . S
H457 O485 0.854 . S
H458 C493 0.930 . S
H459 C494 0.930 . S
H460 C496 0.930 . S
H461 C497 0.930 . S
H462 C499 0.931 . S
H463 C500 0.930 . S
H464 C502 0.930 . S
H465 C503 0.929 . S
H466 C505 0.930 . S
H467 C506 0.931 . S
H468 C508 0.930 . S
H469 C509 0.929 . S
H470 C511 0.931 . S
H471 C512 0.930 . S
H472 C514 0.930 . S
H473 C515 0.932 . S
H474 C517 0.930 . S
H475 C518 0.929 . S
H476 C520 0.931 . S
H477 C521 0.930 . S
H478 C523 0.929 . S
H479 C524 0.931 . S
H480 C526 0.930 . S
H481 C527 0.929 . S
O482 H456 0.856 . S
O482 C528 1.300 . S
O483 C528 1.209 . S
O484 C529 1.199 . S
O485 H457 0.854 . S
O485 C529 1.297 . S
C486 C487 1.404 . S
C486 C491 1.397 . S
C486 C492 1.492 . S
C487 C486 1.404 . S
C487 C488 1.396 . S
C487 C498 1.492 . S
C488 C487 1.396 . S
C488 C489 1.397 . S
C488 C504 1.509 . S
C489 C488 1.397 . S
C489 C490 1.412 . S
C489 C510 1.485 . S
C490 C489 1.412 . S
C490 C491 1.388 . S
C490 C516 1.490 . S
C491 C486 1.397 . S
C491 C490 1.388 . S
C491 C522 1.519 . S
C492 C486 1.492 . S
C492 C493 1.363 . S
C492 C497 1.390 . S
C493 H458 0.930 . S
C493 C492 1.363 . S
C493 C494 1.372 . S
C494 H459 0.930 . S
C494 C493 1.372 . S
C494 C495 1.383 . S
C495 C494 1.383 . S
C495 C496 1.395 . S
C496 H460 0.930 . S
C496 C495 1.395 . S
C496 C497 1.362 . S
C497 H461 0.930 . S
C497 C492 1.390 . S
C497 C496 1.362 . S
C498 C487 1.492 . S
C498 C499 1.377 . S
C498 C503 1.397 . S
C499 H462 0.931 . S
C499 C498 1.377 . S
C499 C500 1.376 . S
C500 H463 0.930 . S
C500 C499 1.376 . S
C500 C501 1.376 . S
C501 C500 1.376 . S
C501 C502 1.378 . S
C501 C528 1.486 . S
C502 H464 0.930 . S
C502 C501 1.378 . S
C502 C503 1.376 . S
C503 H465 0.929 . S
C503 C498 1.397 . S
C503 C502 1.376 . S
C504 C488 1.509 . S
C504 C505 1.391 . S
C504 C509 1.386 . S
C505 H466 0.930 . S
C505 C504 1.391 . S
C505 C506 1.375 . S
C506 H467 0.931 . S
C506 C505 1.375 . S
C506 C507 1.375 . S
C507 C506 1.375 . S
C507 C508 1.361 . S
C508 H468 0.930 . S
C508 C507 1.361 . S
C508 C509 1.399 . S
C509 H469 0.929 . S
C509 C504 1.386 . S
C509 C508 1.399 . S
C510 C489 1.485 . S
C510 C511 1.394 . S
C510 C515 1.360 . S
C511 H470 0.931 . S
C511 C510 1.394 . S
C511 C512 1.372 . S
C512 H471 0.930 . S
C512 C511 1.372 . S
C512 C513 1.397 . S
C513 C512 1.397 . S
C513 C514 1.390 . S
C513 C529 1.476 . S
C514 H472 0.930 . S
C514 C513 1.390 . S
C514 C515 1.366 . S
C515 H473 0.932 . S
C515 C510 1.360 . S
C515 C514 1.366 . S
C516 C490 1.490 . S
C516 C517 1.380 . S
C516 C521 1.386 . S
C517 H474 0.930 . S
C517 C516 1.380 . S
C517 C518 1.381 . S
C518 H475 0.929 . S
C518 C517 1.381 . S
C518 C519 1.371 . S
C519 C518 1.371 . S
C519 C520 1.380 . S
C520 H476 0.931 . S
C520 C519 1.380 . S
C520 C521 1.387 . S
C521 H477 0.930 . S
C521 C516 1.386 . S
C521 C520 1.387 . S
C522 C491 1.519 . S
C522 C523 1.377 . S
C522 C527 1.361 . S
C523 H478 0.929 . S
C523 C522 1.377 . S
C523 C524 1.386 . S
C524 H479 0.931 . S
C524 C523 1.386 . S
C524 C525 1.363 . S
C525 C524 1.363 . S
C525 C526 1.385 . S
C526 H480 0.930 . S
C526 C525 1.385 . S
C526 C527 1.396 . S
C527 H481 0.929 . S
C527 C522 1.361 . S
C527 C526 1.396 . S
C528 O482 1.300 . S
C528 O483 1.209 . S
C528 C501 1.486 . S
C529 O484 1.199 . S
C529 O485 1.297 . S
C529 C513 1.476 . S
H530 O556 0.856 1_554 S
H531 O559 0.854 . S
H532 C567 0.930 . S
H533 C568 0.930 . S
H534 C570 0.930 . S
H535 C571 0.930 . S
H536 C573 0.931 . S
H537 C574 0.930 . S
H538 C576 0.930 . S
H539 C577 0.929 . S
H540 C579 0.930 . S
H541 C580 0.931 . S
H542 C582 0.930 . S
H543 C583 0.929 . S
H544 C585 0.931 . S
H545 C586 0.930 . S
H546 C588 0.930 . S
H547 C589 0.932 . S
H548 C591 0.930 . S
H549 C592 0.929 . S
H550 C594 0.931 . S
H551 C595 0.930 . S
H552 C597 0.929 . S
H553 C598 0.931 . S
H554 C600 0.930 . S
H555 C601 0.929 . S
O556 H530 0.856 1_556 S
O556 C602 1.300 . S
O557 C602 1.209 . S
O558 C603 1.199 . S
O559 H531 0.854 . S
O559 C603 1.297 . S
C560 C561 1.404 . S
C560 C565 1.397 . S
C560 C566 1.492 . S
C561 C560 1.404 . S
C561 C562 1.396 . S
C561 C572 1.492 . S
C562 C561 1.396 . S
C562 C563 1.397 . S
C562 C578 1.509 . S
C563 C562 1.397 . S
C563 C564 1.412 . S
C563 C584 1.485 . S
C564 C563 1.412 . S
C564 C565 1.388 . S
C564 C590 1.490 . S
C565 C560 1.397 . S
C565 C564 1.388 . S
C565 C596 1.519 . S
C566 C560 1.492 . S
C566 C567 1.363 . S
C566 C571 1.390 . S
C567 H532 0.930 . S
C567 C566 1.363 . S
C567 C568 1.372 . S
C568 H533 0.930 . S
C568 C567 1.372 . S
C568 C569 1.383 . S
C569 C568 1.383 . S
C569 C570 1.395 . S
C570 H534 0.930 . S
C570 C569 1.395 . S
C570 C571 1.362 . S
C571 H535 0.930 . S
C571 C566 1.390 . S
C571 C570 1.362 . S
C572 C561 1.492 . S
C572 C573 1.377 . S
C572 C577 1.397 . S
C573 H536 0.931 . S
C573 C572 1.377 . S
C573 C574 1.376 . S
C574 H537 0.930 . S
C574 C573 1.376 . S
C574 C575 1.376 . S
C575 C574 1.376 . S
C575 C576 1.378 . S
C575 C602 1.486 . S
C576 H538 0.930 . S
C576 C575 1.378 . S
C576 C577 1.376 . S
C577 H539 0.929 . S
C577 C572 1.397 . S
C577 C576 1.376 . S
C578 C562 1.509 . S
C578 C579 1.391 . S
C578 C583 1.386 . S
C579 H540 0.930 . S
C579 C578 1.391 . S
C579 C580 1.375 . S
C580 H541 0.931 . S
C580 C579 1.375 . S
C580 C581 1.375 . S
C581 C580 1.375 . S
C581 C582 1.361 . S
C582 H542 0.930 . S
C582 C581 1.361 . S
C582 C583 1.399 . S
C583 H543 0.929 . S
C583 C578 1.386 . S
C583 C582 1.399 . S
C584 C563 1.485 . S
C584 C585 1.394 . S
C584 C589 1.360 . S
C585 H544 0.931 . S
C585 C584 1.394 . S
C585 C586 1.372 . S
C586 H545 0.930 . S
C586 C585 1.372 . S
C586 C587 1.397 . S
C587 C586 1.397 . S
C587 C588 1.390 . S
C587 C603 1.476 . S
C588 H546 0.930 . S
C588 C587 1.390 . S
C588 C589 1.366 . S
C589 H547 0.932 . S
C589 C584 1.360 . S
C589 C588 1.366 . S
C590 C564 1.490 . S
C590 C591 1.380 . S
C590 C595 1.386 . S
C591 H548 0.930 . S
C591 C590 1.380 . S
C591 C592 1.381 . S
C592 H549 0.929 . S
C592 C591 1.381 . S
C592 C593 1.371 . S
C593 C592 1.371 . S
C593 C594 1.380 . S
C594 H550 0.931 . S
C594 C593 1.380 . S
C594 C595 1.387 . S
C595 H551 0.930 . S
C595 C590 1.386 . S
C595 C594 1.387 . S
C596 C565 1.519 . S
C596 C597 1.377 . S
C596 C601 1.361 . S
C597 H552 0.929 . S
C597 C596 1.377 . S
C597 C598 1.386 . S
C598 H553 0.931 . S
C598 C597 1.386 . S
C598 C599 1.363 . S
C599 C598 1.363 . S
C599 C600 1.385 . S
C600 H554 0.930 . S
C600 C599 1.385 . S
C600 C601 1.396 . S
C601 H555 0.929 . S
C601 C596 1.361 . S
C601 C600 1.396 . S
C602 O556 1.300 . S
C602 O557 1.209 . S
C602 C575 1.486 . S
C603 O558 1.199 . S
C603 O559 1.297 . S
C603 C587 1.476 . S
H604 O630 0.856 . S
H605 O633 0.854 . S
H606 C641 0.930 . S
H607 C642 0.930 . S
H608 C644 0.930 . S
H609 C645 0.930 . S
H610 C647 0.931 . S
H611 C648 0.930 . S
H612 C650 0.930 . S
H613 C651 0.929 . S
H614 C653 0.930 . S
H615 C654 0.931 . S
H616 C656 0.930 . S
H617 C657 0.929 . S
H618 C659 0.931 . S
H619 C660 0.930 . S
H620 C662 0.930 . S
H621 C663 0.932 . S
H622 C665 0.930 . S
H623 C666 0.929 . S
H624 C668 0.931 . S
H625 C669 0.930 . S
H626 C671 0.929 . S
H627 C672 0.931 . S
H628 C674 0.930 . S
H629 C675 0.929 . S
O630 H604 0.856 . S
O630 C676 1.300 1_554 S
O631 C676 1.209 . S
O632 C677 1.199 . S
O633 H605 0.854 . S
O633 C677 1.297 . S
C634 C635 1.404 . S
C634 C639 1.397 . S
C634 C640 1.492 . S
C635 C634 1.404 . S
C635 C636 1.396 . S
C635 C646 1.492 . S
C636 C635 1.396 . S
C636 C637 1.397 . S
C636 C652 1.509 . S
C637 C636 1.397 . S
C637 C638 1.412 . S
C637 C658 1.485 . S
C638 C637 1.412 . S
C638 C639 1.388 . S
C638 C664 1.490 . S
C639 C634 1.397 . S
C639 C638 1.388 . S
C639 C670 1.519 . S
C640 C634 1.492 . S
C640 C641 1.363 . S
C640 C645 1.390 . S
C641 H606 0.930 . S
C641 C640 1.363 . S
C641 C642 1.372 . S
C642 H607 0.930 . S
C642 C641 1.372 . S
C642 C643 1.383 . S
C643 C642 1.383 . S
C643 C644 1.395 . S
C644 H608 0.930 . S
C644 C643 1.395 . S
C644 C645 1.362 . S
C645 H609 0.930 . S
C645 C640 1.390 . S
C645 C644 1.362 . S
C646 C635 1.492 . S
C646 C647 1.377 . S
C646 C651 1.397 . S
C647 H610 0.931 . S
C647 C646 1.377 . S
C647 C648 1.376 . S
C648 H611 0.930 . S
C648 C647 1.376 . S
C648 C649 1.376 . S
C649 C648 1.376 . S
C649 C650 1.378 . S
C649 C676 1.486 . S
C650 H612 0.930 . S
C650 C649 1.378 . S
C650 C651 1.376 . S
C651 H613 0.929 . S
C651 C646 1.397 . S
C651 C650 1.376 . S
C652 C636 1.509 . S
C652 C653 1.391 . S
C652 C657 1.386 . S
C653 H614 0.930 . S
C653 C652 1.391 . S
C653 C654 1.375 . S
C654 H615 0.931 . S
C654 C653 1.375 . S
C654 C655 1.375 . S
C655 C654 1.375 . S
C655 C656 1.361 . S
C656 H616 0.930 . S
C656 C655 1.361 . S
C656 C657 1.399 . S
C657 H617 0.929 . S
C657 C652 1.386 . S
C657 C656 1.399 . S
C658 C637 1.485 . S
C658 C659 1.394 . S
C658 C663 1.360 . S
C659 H618 0.931 . S
C659 C658 1.394 . S
C659 C660 1.372 . S
C660 H619 0.930 . S
C660 C659 1.372 . S
C660 C661 1.397 . S
C661 C660 1.397 . S
C661 C662 1.390 . S
C661 C677 1.476 . S
C662 H620 0.930 . S
C662 C661 1.390 . S
C662 C663 1.366 . S
C663 H621 0.932 . S
C663 C658 1.360 . S
C663 C662 1.366 . S
C664 C638 1.490 . S
C664 C665 1.380 . S
C664 C669 1.386 . S
C665 H622 0.930 . S
C665 C664 1.380 . S
C665 C666 1.381 . S
C666 H623 0.929 . S
C666 C665 1.381 . S
C666 C667 1.371 . S
C667 C666 1.371 . S
C667 C668 1.380 . S
C668 H624 0.931 . S
C668 C667 1.380 . S
C668 C669 1.387 . S
C669 H625 0.930 . S
C669 C664 1.386 . S
C669 C668 1.387 . S
C670 C639 1.519 . S
C670 C671 1.377 . S
C670 C675 1.361 . S
C671 H626 0.929 . S
C671 C670 1.377 . S
C671 C672 1.386 . S
C672 H627 0.931 . S
C672 C671 1.386 . S
C672 C673 1.363 . S
C673 C672 1.363 . S
C673 C674 1.385 . S
C674 H628 0.930 . S
C674 C673 1.385 . S
C674 C675 1.396 . S
C675 H629 0.929 . S
C675 C670 1.361 . S
C675 C674 1.396 . S
C676 O630 1.300 1_556 S
C676 O631 1.209 . S
C676 C649 1.486 . S
C677 O632 1.199 . S
C677 O633 1.297 . S
C677 C661 1.476 . S
H678 O704 0.856 . S
H679 O707 0.854 . S
H680 C715 0.930 . S
H681 C716 0.930 . S
H682 C718 0.930 . S
H683 C719 0.930 . S
H684 C721 0.931 . S
H685 C722 0.930 . S
H686 C724 0.930 . S
H687 C725 0.929 . S
H688 C727 0.930 . S
H689 C728 0.931 . S
H690 C730 0.930 . S
H691 C731 0.929 . S
H692 C733 0.931 . S
H693 C734 0.930 . S
H694 C736 0.930 . S
H695 C737 0.932 . S
H696 C739 0.930 . S
H697 C740 0.929 . S
H698 C742 0.931 . S
H699 C743 0.930 . S
H700 C745 0.929 . S
H701 C746 0.931 . S
H702 C748 0.930 . S
H703 C749 0.929 . S
O704 H678 0.856 . S
O704 C750 1.300 . S
O705 C750 1.209 . S
O706 C751 1.199 . S
O707 H679 0.854 . S
O707 C751 1.297 . S
C708 C709 1.404 . S
C708 C713 1.397 . S
C708 C714 1.492 . S
C709 C708 1.404 . S
C709 C710 1.396 . S
C709 C720 1.492 . S
C710 C709 1.396 . S
C710 C711 1.397 . S
C710 C726 1.509 . S
C711 C710 1.397 . S
C711 C712 1.412 . S
C711 C732 1.485 . S
C712 C711 1.412 . S
C712 C713 1.388 . S
C712 C738 1.490 . S
C713 C708 1.397 . S
C713 C712 1.388 . S
C713 C744 1.519 . S
C714 C708 1.492 . S
C714 C715 1.363 . S
C714 C719 1.390 . S
C715 H680 0.930 . S
C715 C714 1.363 . S
C715 C716 1.372 . S
C716 H681 0.930 . S
C716 C715 1.372 . S
C716 C717 1.383 . S
C717 C716 1.383 . S
C717 C718 1.395 . S
C718 H682 0.930 . S
C718 C717 1.395 . S
C718 C719 1.362 . S
C719 H683 0.930 . S
C719 C714 1.390 . S
C719 C718 1.362 . S
C720 C709 1.492 . S
C720 C721 1.377 . S
C720 C725 1.397 . S
C721 H684 0.931 . S
C721 C720 1.377 . S
C721 C722 1.376 . S
C722 H685 0.930 . S
C722 C721 1.376 . S
C722 C723 1.376 . S
C723 C722 1.376 . S
C723 C724 1.378 . S
C723 C750 1.486 . S
C724 H686 0.930 . S
C724 C723 1.378 . S
C724 C725 1.376 . S
C725 H687 0.929 . S
C725 C720 1.397 . S
C725 C724 1.376 . S
C726 C710 1.509 . S
C726 C727 1.391 . S
C726 C731 1.386 . S
C727 H688 0.930 . S
C727 C726 1.391 . S
C727 C728 1.375 . S
C728 H689 0.931 . S
C728 C727 1.375 . S
C728 C729 1.375 . S
C729 C728 1.375 . S
C729 C730 1.361 . S
C730 H690 0.930 . S
C730 C729 1.361 . S
C730 C731 1.399 . S
C731 H691 0.929 . S
C731 C726 1.386 . S
C731 C730 1.399 . S
C732 C711 1.485 . S
C732 C733 1.394 . S
C732 C737 1.360 . S
C733 H692 0.931 . S
C733 C732 1.394 . S
C733 C734 1.372 . S
C734 H693 0.930 . S
C734 C733 1.372 . S
C734 C735 1.397 . S
C735 C734 1.397 . S
C735 C736 1.390 . S
C735 C751 1.476 . S
C736 H694 0.930 . S
C736 C735 1.390 . S
C736 C737 1.366 . S
C737 H695 0.932 . S
C737 C732 1.360 . S
C737 C736 1.366 . S
C738 C712 1.490 . S
C738 C739 1.380 . S
C738 C743 1.386 . S
C739 H696 0.930 . S
C739 C738 1.380 . S
C739 C740 1.381 . S
C740 H697 0.929 . S
C740 C739 1.381 . S
C740 C741 1.371 . S
C741 C740 1.371 . S
C741 C742 1.380 . S
C742 H698 0.931 . S
C742 C741 1.380 . S
C742 C743 1.387 . S
C743 H699 0.930 . S
C743 C738 1.386 . S
C743 C742 1.387 . S
C744 C713 1.519 . S
C744 C745 1.377 . S
C744 C749 1.361 . S
C745 H700 0.929 . S
C745 C744 1.377 . S
C745 C746 1.386 . S
C746 H701 0.931 . S
C746 C745 1.386 . S
C746 C747 1.363 . S
C747 C746 1.363 . S
C747 C748 1.385 . S
C748 H702 0.930 . S
C748 C747 1.385 . S
C748 C749 1.396 . S
C749 H703 0.929 . S
C749 C744 1.361 . S
C749 C748 1.396 . S
C750 O704 1.300 . S
C750 O705 1.209 . S
C750 C723 1.486 . S
C751 O706 1.199 . S
C751 O707 1.297 . S
C751 C735 1.476 . S
H752 O778 0.856 . S
H753 O781 0.854 . S
H754 C789 0.930 . S
H755 C790 0.930 . S
H756 C792 0.930 . S
H757 C793 0.930 . S
H758 C795 0.931 . S
H759 C796 0.930 . S
H760 C798 0.930 . S
H761 C799 0.929 . S
H762 C801 0.930 . S
H763 C802 0.931 . S
H764 C804 0.930 . S
H765 C805 0.929 . S
H766 C807 0.931 . S
H767 C808 0.930 . S
H768 C810 0.930 . S
H769 C811 0.932 . S
H770 C813 0.930 . S
H771 C814 0.929 . S
H772 C816 0.931 . S
H773 C817 0.930 . S
H774 C819 0.929 . S
H775 C820 0.931 . S
H776 C822 0.930 . S
H777 C823 0.929 . S
O778 H752 0.856 . S
O778 C824 1.300 . S
O779 C824 1.209 . S
O780 C825 1.199 . S
O781 H753 0.854 . S
O781 C825 1.297 . S
C782 C783 1.404 . S
C782 C787 1.397 . S
C782 C788 1.492 . S
C783 C782 1.404 . S
C783 C784 1.396 . S
C783 C794 1.492 . S
C784 C783 1.396 . S
C784 C785 1.397 . S
C784 C800 1.509 . S
C785 C784 1.397 . S
C785 C786 1.412 . S
C785 C806 1.485 . S
C786 C785 1.412 . S
C786 C787 1.388 . S
C786 C812 1.490 . S
C787 C782 1.397 . S
C787 C786 1.388 . S
C787 C818 1.519 . S
C788 C782 1.492 . S
C788 C789 1.363 . S
C788 C793 1.390 . S
C789 H754 0.930 . S
C789 C788 1.363 . S
C789 C790 1.372 . S
C790 H755 0.930 . S
C790 C789 1.372 . S
C790 C791 1.383 . S
C791 C790 1.383 . S
C791 C792 1.395 . S
C792 H756 0.930 . S
C792 C791 1.395 . S
C792 C793 1.362 . S
C793 H757 0.930 . S
C793 C788 1.390 . S
C793 C792 1.362 . S
C794 C783 1.492 . S
C794 C795 1.377 . S
C794 C799 1.397 . S
C795 H758 0.931 . S
C795 C794 1.377 . S
C795 C796 1.376 . S
C796 H759 0.930 . S
C796 C795 1.376 . S
C796 C797 1.376 . S
C797 C796 1.376 . S
C797 C798 1.378 . S
C797 C824 1.486 . S
C798 H760 0.930 . S
C798 C797 1.378 . S
C798 C799 1.376 . S
C799 H761 0.929 . S
C799 C794 1.397 . S
C799 C798 1.376 . S
C800 C784 1.509 . S
C800 C801 1.391 . S
C800 C805 1.386 . S
C801 H762 0.930 . S
C801 C800 1.391 . S
C801 C802 1.375 . S
C802 H763 0.931 . S
C802 C801 1.375 . S
C802 C803 1.375 . S
C803 C802 1.375 . S
C803 C804 1.361 . S
C804 H764 0.930 . S
C804 C803 1.361 . S
C804 C805 1.399 . S
C805 H765 0.929 . S
C805 C800 1.386 . S
C805 C804 1.399 . S
C806 C785 1.485 . S
C806 C807 1.394 . S
C806 C811 1.360 . S
C807 H766 0.931 . S
C807 C806 1.394 . S
C807 C808 1.372 . S
C808 H767 0.930 . S
C808 C807 1.372 . S
C808 C809 1.397 . S
C809 C808 1.397 . S
C809 C810 1.390 . S
C809 C825 1.476 . S
C810 H768 0.930 . S
C810 C809 1.390 . S
C810 C811 1.366 . S
C811 H769 0.932 . S
C811 C806 1.360 . S
C811 C810 1.366 . S
C812 C786 1.490 . S
C812 C813 1.380 . S
C812 C817 1.386 . S
C813 H770 0.930 . S
C813 C812 1.380 . S
C813 C814 1.381 . S
C814 H771 0.929 . S
C814 C813 1.381 . S
C814 C815 1.371 . S
C815 C814 1.371 . S
C815 C816 1.380 . S
C816 H772 0.931 . S
C816 C815 1.380 . S
C816 C817 1.387 . S
C817 H773 0.930 . S
C817 C812 1.386 . S
C817 C816 1.387 . S
C818 C787 1.519 . S
C818 C819 1.377 . S
C818 C823 1.361 . S
C819 H774 0.929 . S
C819 C818 1.377 . S
C819 C820 1.386 . S
C820 H775 0.931 . S
C820 C819 1.386 . S
C820 C821 1.363 . S
C821 C820 1.363 . S
C821 C822 1.385 . S
C822 H776 0.930 . S
C822 C821 1.385 . S
C822 C823 1.396 . S
C823 H777 0.929 . S
C823 C818 1.361 . S
C823 C822 1.396 . S
C824 O778 1.300 . S
C824 O779 1.209 . S
C824 C797 1.486 . S
C825 O780 1.199 . S
C825 O781 1.297 . S
C825 C809 1.476 . S
H826 O852 0.856 . S
H827 O855 0.854 . S
H828 C863 0.930 . S
H829 C864 0.930 . S
H830 C866 0.930 . S
H831 C867 0.930 . S
H832 C869 0.931 . S
H833 C870 0.930 . S
H834 C872 0.930 . S
H835 C873 0.929 . S
H836 C875 0.930 . S
H837 C876 0.931 . S
H838 C878 0.930 . S
H839 C879 0.929 . S
H840 C881 0.931 . S
H841 C882 0.930 . S
H842 C884 0.930 . S
H843 C885 0.932 . S
H844 C887 0.930 . S
H845 C888 0.929 . S
H846 C890 0.931 . S
H847 C891 0.930 . S
H848 C893 0.929 . S
H849 C894 0.931 . S
H850 C896 0.930 . S
H851 C897 0.929 . S
O852 H826 0.856 . S
O852 C898 1.300 . S
O853 C898 1.209 . S
O854 C899 1.199 . S
O855 H827 0.854 . S
O855 C899 1.297 . S
C856 C857 1.404 . S
C856 C861 1.397 . S
C856 C862 1.492 . S
C857 C856 1.404 . S
C857 C858 1.396 . S
C857 C868 1.492 . S
C858 C857 1.396 . S
C858 C859 1.397 . S
C858 C874 1.509 . S
C859 C858 1.397 . S
C859 C860 1.412 . S
C859 C880 1.485 . S
C860 C859 1.412 . S
C860 C861 1.388 . S
C860 C886 1.490 . S
C861 C856 1.397 . S
C861 C860 1.388 . S
C861 C892 1.519 . S
C862 C856 1.492 . S
C862 C863 1.363 . S
C862 C867 1.390 . S
C863 H828 0.930 . S
C863 C862 1.363 . S
C863 C864 1.372 . S
C864 H829 0.930 . S
C864 C863 1.372 . S
C864 C865 1.383 . S
C865 C864 1.383 . S
C865 C866 1.395 . S
C866 H830 0.930 . S
C866 C865 1.395 . S
C866 C867 1.362 . S
C867 H831 0.930 . S
C867 C862 1.390 . S
C867 C866 1.362 . S
C868 C857 1.492 . S
C868 C869 1.377 . S
C868 C873 1.397 . S
C869 H832 0.931 . S
C869 C868 1.377 . S
C869 C870 1.376 . S
C870 H833 0.930 . S
C870 C869 1.376 . S
C870 C871 1.376 . S
C871 C870 1.376 . S
C871 C872 1.378 . S
C871 C898 1.486 . S
C872 H834 0.930 . S
C872 C871 1.378 . S
C872 C873 1.376 . S
C873 H835 0.929 . S
C873 C868 1.397 . S
C873 C872 1.376 . S
C874 C858 1.509 . S
C874 C875 1.391 . S
C874 C879 1.386 . S
C875 H836 0.930 . S
C875 C874 1.391 . S
C875 C876 1.375 . S
C876 H837 0.931 . S
C876 C875 1.375 . S
C876 C877 1.375 . S
C877 C876 1.375 . S
C877 C878 1.361 . S
C878 H838 0.930 . S
C878 C877 1.361 . S
C878 C879 1.399 . S
C879 H839 0.929 . S
C879 C874 1.386 . S
C879 C878 1.399 . S
C880 C859 1.485 . S
C880 C881 1.394 . S
C880 C885 1.360 . S
C881 H840 0.931 . S
C881 C880 1.394 . S
C881 C882 1.372 . S
C882 H841 0.930 . S
C882 C881 1.372 . S
C882 C883 1.397 . S
C883 C882 1.397 . S
C883 C884 1.390 . S
C883 C899 1.476 . S
C884 H842 0.930 . S
C884 C883 1.390 . S
C884 C885 1.366 . S
C885 H843 0.932 . S
C885 C880 1.360 . S
C885 C884 1.366 . S
C886 C860 1.490 . S
C886 C887 1.380 . S
C886 C891 1.386 . S
C887 H844 0.930 . S
C887 C886 1.380 . S
C887 C888 1.381 . S
C888 H845 0.929 . S
C888 C887 1.381 . S
C888 C889 1.371 . S
C889 C888 1.371 . S
C889 C890 1.380 . S
C890 H846 0.931 . S
C890 C889 1.380 . S
C890 C891 1.387 . S
C891 H847 0.930 . S
C891 C886 1.386 . S
C891 C890 1.387 . S
C892 C861 1.519 . S
C892 C893 1.377 . S
C892 C897 1.361 . S
C893 H848 0.929 . S
C893 C892 1.377 . S
C893 C894 1.386 . S
C894 H849 0.931 . S
C894 C893 1.386 . S
C894 C895 1.363 . S
C895 C894 1.363 . S
C895 C896 1.385 . S
C896 H850 0.930 . S
C896 C895 1.385 . S
C896 C897 1.396 . S
C897 H851 0.929 . S
C897 C892 1.361 . S
C897 C896 1.396 . S
C898 O852 1.300 . S
C898 O853 1.209 . S
C898 C871 1.486 . S
C899 O854 1.199 . S
C899 O855 1.297 . S
C899 C883 1.476 . S
H900 O926 0.856 . S
H901 O929 0.854 . S
H902 C937 0.930 . S
H903 C938 0.930 . S
H904 C940 0.930 . S
H905 C941 0.930 . S
H906 C943 0.931 . S
H907 C944 0.900 1_655 S
H908 C946 0.930 . S
H909 C947 0.929 . S
H910 C949 0.930 . S
H911 C950 0.931 1_655 S
H912 C952 0.930 . S
H913 C953 0.929 . S
H914 C955 0.931 . S
H915 C956 0.930 . S
H916 C958 0.930 . S
H917 C959 0.932 . S
H918 C961 0.930 . S
H919 C962 0.929 . S
H920 C964 0.931 . S
H921 C965 0.930 . S
H922 C967 0.929 . S
H923 C968 0.931 . S
H924 C970 0.930 . S
H925 C971 0.929 . S
O926 H900 0.856 . S
O926 C972 1.300 . S
O927 C972 1.209 . S
O928 C973 1.199 1_655 S
O929 H901 0.854 . S
O929 C973 1.297 . S
C930 C931 1.404 . S
C930 C935 1.393 . S
C930 C936 1.492 . S
C931 C930 1.404 . S
C931 C932 1.396 . S
C931 C942 1.492 . S
C932 C931 1.396 . S
C932 C933 1.397 . S
C932 C948 1.509 . S
C933 C932 1.397 . S
C933 C934 1.440 . S
C933 C954 1.485 . S
C934 C933 1.440 . S
C934 C935 1.391 . S
C934 C960 1.492 1_455 S
C935 C930 1.393 . S
C935 C934 1.391 . S
C935 C966 1.482 1_455 S
C936 C930 1.492 . S
C936 C937 1.363 1_455 S
C936 C941 1.390 . S
C937 H902 0.930 . S
C937 C936 1.363 1_655 S
C937 C938 1.372 . S
C938 H903 0.930 . S
C938 C937 1.372 . S
C938 C939 1.383 . S
C939 C938 1.383 . S
C939 C940 1.395 1_655 S
C940 H904 0.930 . S
C940 C939 1.395 1_455 S
C940 C941 1.362 . S
C941 H905 0.930 . S
C941 C936 1.390 . S
C941 C940 1.362 . S
C942 C931 1.492 . S
C942 C943 1.377 1_455 S
C942 C947 1.397 . S
C943 H906 0.931 . S
C943 C942 1.377 1_655 S
C943 C944 1.383 1_655 S
C944 H907 0.900 1_455 S
C944 C943 1.383 1_455 S
C944 C945 1.404 . S
C945 C944 1.404 . S
C945 C946 1.378 . S
C945 C972 1.486 . S
C946 H908 0.930 . S
C946 C945 1.378 . S
C946 C947 1.376 . S
C947 H909 0.929 . S
C947 C942 1.397 . S
C947 C946 1.376 . S
C948 C932 1.509 . S
C948 C949 1.391 1_455 S
C948 C953 1.386 . S
C949 H910 0.930 . S
C949 C948 1.391 1_655 S
C949 C950 1.375 1_655 S
C950 H911 0.931 1_455 S
C950 C949 1.375 1_455 S
C950 C951 1.375 . S
C951 C950 1.375 . S
C951 C952 1.361 . S
C952 H912 0.930 . S
C952 C951 1.361 . S
C952 C953 1.399 . S
C953 H913 0.929 . S
C953 C948 1.386 . S
C953 C952 1.399 . S
C954 C933 1.485 . S
C954 C955 1.394 1_455 S
C954 C959 1.360 . S
C955 H914 0.931 . S
C955 C954 1.394 1_655 S
C955 C956 1.372 . S
C956 H915 0.930 . S
C956 C955 1.372 . S
C956 C957 1.397 1_655 S
C957 C956 1.397 1_455 S
C957 C958 1.390 . S
C957 C973 1.476 . S
C958 H916 0.930 . S
C958 C957 1.390 . S
C958 C959 1.366 . S
C959 H917 0.932 . S
C959 C954 1.360 . S
C959 C958 1.366 . S
C960 C934 1.492 1_655 S
C960 C961 1.380 . S
C960 C965 1.386 1_655 S
C961 H918 0.930 . S
C961 C960 1.380 . S
C961 C962 1.381 . S
C962 H919 0.929 . S
C962 C961 1.381 . S
C962 C963 1.371 . S
C963 C962 1.371 . S
C963 C964 1.380 1_655 S
C964 H920 0.931 . S
C964 C963 1.380 1_455 S
C964 C965 1.387 . S
C965 H921 0.930 . S
C965 C960 1.386 1_455 S
C965 C964 1.387 . S
C966 C935 1.482 1_655 S
C966 C967 1.416 . S
C966 C971 1.337 1_655 S
C967 H922 0.929 . S
C967 C966 1.416 . S
C967 C968 1.386 . S
C968 H923 0.931 . S
C968 C967 1.386 . S
C968 C969 1.399 . S
C969 C968 1.399 . S
C969 C970 1.329 1_655 S
C970 H924 0.930 . S
C970 C969 1.329 1_455 S
C970 C971 1.396 . S
C971 H925 0.929 . S
C971 C966 1.337 1_455 S
C971 C970 1.396 . S
C972 O926 1.300 . S
C972 O927 1.209 . S
C972 C945 1.486 . S
C973 O928 1.199 1_455 S
C973 O929 1.297 . S
C973 C957 1.476 . S
H974 O1000 0.856 . S
H975 O1003 0.854 . S
H976 C1011 0.930 . S
H977 C1012 0.930 . S
H978 C1014 0.930 . S
H979 C1015 0.930 . S
H980 C1017 0.931 . S
H981 C1018 0.930 . S
H982 C1020 0.930 . S
H983 C1021 0.929 . S
H984 C1023 0.930 . S
H985 C1024 0.931 . S
H986 C1026 0.930 . S
H987 C1027 0.929 . S
H988 C1029 0.931 . S
H989 C1030 0.930 . S
H990 C1032 0.930 . S
H991 C1033 0.932 . S
H992 C1035 0.930 . S
H993 C1036 0.929 . S
H994 C1038 0.931 . S
H995 C1039 0.930 . S
H996 C1041 0.929 . S
H997 C1042 0.931 . S
H998 C1044 0.930 . S
H999 C1045 0.929 . S
O1000 H974 0.856 . S
O1000 C1046 1.300 . S
O1001 C1046 1.209 . S
O1002 C1047 1.199 . S
O1003 H975 0.854 . S
O1003 C1047 1.297 . S
C1004 C1005 1.404 . S
C1004 C1009 1.397 . S
C1004 C1010 1.492 . S
C1005 C1004 1.404 . S
C1005 C1006 1.396 . S
C1005 C1016 1.492 . S
C1006 C1005 1.396 . S
C1006 C1007 1.397 . S
C1006 C1022 1.509 . S
C1007 C1006 1.397 . S
C1007 C1008 1.412 . S
C1007 C1028 1.485 . S
C1008 C1007 1.412 . S
C1008 C1009 1.388 . S
C1008 C1034 1.490 . S
C1009 C1004 1.397 . S
C1009 C1008 1.388 . S
C1009 C1040 1.519 . S
C1010 C1004 1.492 . S
C1010 C1011 1.363 . S
C1010 C1015 1.390 . S
C1011 H976 0.930 . S
C1011 C1010 1.363 . S
C1011 C1012 1.372 . S
C1012 H977 0.930 . S
C1012 C1011 1.372 . S
C1012 C1013 1.383 . S
C1013 C1012 1.383 . S
C1013 C1014 1.395 . S
C1014 H978 0.930 . S
C1014 C1013 1.395 . S
C1014 C1015 1.362 . S
C1015 H979 0.930 . S
C1015 C1010 1.390 . S
C1015 C1014 1.362 . S
C1016 C1005 1.492 . S
C1016 C1017 1.377 . S
C1016 C1021 1.397 . S
C1017 H980 0.931 . S
C1017 C1016 1.377 . S
C1017 C1018 1.376 . S
C1018 H981 0.930 . S
C1018 C1017 1.376 . S
C1018 C1019 1.376 . S
C1019 C1018 1.376 . S
C1019 C1020 1.378 . S
C1019 C1046 1.486 . S
C1020 H982 0.930 . S
C1020 C1019 1.378 . S
C1020 C1021 1.376 . S
C1021 H983 0.929 . S
C1021 C1016 1.397 . S
C1021 C1020 1.376 . S
C1022 C1006 1.509 . S
C1022 C1023 1.391 . S
C1022 C1027 1.386 . S
C1023 H984 0.930 . S
C1023 C1022 1.391 . S
C1023 C1024 1.375 . S
C1024 H985 0.931 . S
C1024 C1023 1.375 . S
C1024 C1025 1.375 . S
C1025 C1024 1.375 . S
C1025 C1026 1.361 . S
C1026 H986 0.930 . S
C1026 C1025 1.361 . S
C1026 C1027 1.399 . S
C1027 H987 0.929 . S
C1027 C1022 1.386 . S
C1027 C1026 1.399 . S
C1028 C1007 1.485 . S
C1028 C1029 1.394 . S
C1028 C1033 1.360 . S
C1029 H988 0.931 . S
C1029 C1028 1.394 . S
C1029 C1030 1.372 . S
C1030 H989 0.930 . S
C1030 C1029 1.372 . S
C1030 C1031 1.397 . S
C1031 C1030 1.397 . S
C1031 C1032 1.390 . S
C1031 C1047 1.476 . S
C1032 H990 0.930 . S
C1032 C1031 1.390 . S
C1032 C1033 1.366 . S
C1033 H991 0.932 . S
C1033 C1028 1.360 . S
C1033 C1032 1.366 . S
C1034 C1008 1.490 . S
C1034 C1035 1.380 . S
C1034 C1039 1.386 . S
C1035 H992 0.930 . S
C1035 C1034 1.380 . S
C1035 C1036 1.381 . S
C1036 H993 0.929 . S
C1036 C1035 1.381 . S
C1036 C1037 1.371 . S
C1037 C1036 1.371 . S
C1037 C1038 1.380 . S
C1038 H994 0.931 . S
C1038 C1037 1.380 . S
C1038 C1039 1.387 . S
C1039 H995 0.930 . S
C1039 C1034 1.386 . S
C1039 C1038 1.387 . S
C1040 C1009 1.519 . S
C1040 C1041 1.377 . S
C1040 C1045 1.361 . S
C1041 H996 0.929 . S
C1041 C1040 1.377 . S
C1041 C1042 1.386 . S
C1042 H997 0.931 . S
C1042 C1041 1.386 . S
C1042 C1043 1.363 . S
C1043 C1042 1.363 . S
C1043 C1044 1.385 . S
C1044 H998 0.930 . S
C1044 C1043 1.385 . S
C1044 C1045 1.396 . S
C1045 H999 0.929 . S
C1045 C1040 1.361 . S
C1045 C1044 1.396 . S
C1046 O1000 1.300 . S
C1046 O1001 1.209 . S
C1046 C1019 1.486 . S
C1047 O1002 1.199 . S
C1047 O1003 1.297 . S
C1047 C1031 1.476 . S
H1048 O1074 0.856 . S
H1049 O1077 0.854 . S
H1050 C1085 0.930 . S
H1051 C1086 0.930 . S
H1052 C1088 0.930 . S
H1053 C1089 0.930 . S
H1054 C1091 0.931 . S
H1055 C1092 0.923 1_545 S
H1056 C1094 0.930 . S
H1057 C1095 0.929 . S
H1058 C1097 0.930 . S
H1059 C1098 0.931 . S
H1060 C1100 0.930 . S
H1061 C1101 0.929 . S
H1062 C1103 0.931 . S
H1063 C1104 0.930 . S
H1064 C1106 0.930 . S
H1065 C1107 0.932 . S
H1066 C1109 0.930 . S
H1067 C1110 0.929 . S
H1068 C1112 0.931 . S
H1069 C1113 0.930 . S
H1070 C1115 0.929 . S
H1071 C1116 0.931 . S
H1072 C1118 0.930 . S
H1073 C1119 0.929 . S
O1074 H1048 0.856 . S
O1074 C1120 1.300 . S
O1075 C1120 1.209 . S
O1076 C1121 1.199 1_545 S
O1077 H1049 0.854 . S
O1077 C1121 1.297 . S
C1078 C1079 1.404 . S
C1078 C1083 1.415 . S
C1078 C1084 1.492 . S
C1079 C1078 1.404 . S
C1079 C1080 1.396 . S
C1079 C1090 1.492 . S
C1080 C1079 1.396 . S
C1080 C1081 1.397 . S
C1080 C1096 1.509 . S
C1081 C1080 1.397 . S
C1081 C1082 1.411 1_565 S
C1081 C1102 1.485 . S
C1082 C1081 1.411 1_545 S
C1082 C1083 1.364 1_545 S
C1082 C1108 1.488 . S
C1083 C1078 1.415 . S
C1083 C1082 1.364 1_565 S
C1083 C1114 1.531 1_565 S
C1084 C1078 1.492 . S
C1084 C1085 1.363 1_565 S
C1084 C1089 1.390 . S
C1085 H1050 0.930 . S
C1085 C1084 1.363 1_545 S
C1085 C1086 1.372 . S
C1086 H1051 0.930 . S
C1086 C1085 1.372 . S
C1086 C1087 1.442 . S
C1087 C1086 1.442 . S
C1087 C1088 1.366 1_545 S
C1088 H1052 0.930 . S
C1088 C1087 1.366 1_565 S
C1088 C1089 1.362 . S
C1089 H1053 0.930 . S
C1089 C1084 1.390 . S
C1089 C1088 1.362 . S
C1090 C1079 1.492 . S
C1090 C1091 1.377 1_565 S
C1090 C1095 1.397 . S
C1091 H1054 0.931 . S
C1091 C1090 1.377 1_545 S
C1091 C1092 1.372 1_545 S
C1092 H1055 0.923 1_565 S
C1092 C1091 1.372 1_565 S
C1092 C1093 1.387 . S
C1093 C1092 1.387 . S
C1093 C1094 1.378 . S
C1093 C1120 1.486 . S
C1094 H1056 0.930 . S
C1094 C1093 1.378 . S
C1094 C1095 1.376 . S
C1095 H1057 0.929 . S
C1095 C1090 1.397 . S
C1095 C1094 1.376 . S
C1096 C1080 1.509 . S
C1096 C1097 1.391 1_565 S
C1096 C1101 1.386 . S
C1097 H1058 0.930 . S
C1097 C1096 1.391 1_545 S
C1097 C1098 1.375 . S
C1098 H1059 0.931 . S
C1098 C1097 1.375 . S
C1098 C1099 1.375 1_545 S
C1099 C1098 1.375 1_565 S
C1099 C1100 1.361 . S
C1100 H1060 0.930 . S
C1100 C1099 1.361 . S
C1100 C1101 1.399 . S
C1101 H1061 0.929 . S
C1101 C1096 1.386 . S
C1101 C1100 1.399 . S
C1102 C1081 1.485 . S
C1102 C1103 1.394 1_565 S
C1102 C1107 1.360 . S
C1103 H1062 0.931 . S
C1103 C1102 1.394 1_545 S
C1103 C1104 1.372 . S
C1104 H1063 0.930 . S
C1104 C1103 1.372 . S
C1104 C1105 1.397 1_545 S
C1105 C1104 1.397 1_565 S
C1105 C1106 1.390 . S
C1105 C1121 1.476 . S
C1106 H1064 0.930 . S
C1106 C1105 1.390 . S
C1106 C1107 1.366 . S
C1107 H1065 0.932 . S
C1107 C1102 1.360 . S
C1107 C1106 1.366 . S
C1108 C1082 1.488 . S
C1108 C1109 1.380 . S
C1108 C1113 1.386 1_545 S
C1109 H1066 0.930 . S
C1109 C1108 1.380 . S
C1109 C1110 1.381 . S
C1110 H1067 0.929 . S
C1110 C1109 1.381 . S
C1110 C1111 1.371 . S
C1111 C1110 1.371 . S
C1111 C1112 1.380 1_545 S
C1112 H1068 0.931 . S
C1112 C1111 1.380 1_565 S
C1112 C1113 1.387 . S
C1113 H1069 0.930 . S
C1113 C1108 1.386 1_565 S
C1113 C1112 1.387 . S
C1114 C1083 1.531 1_545 S
C1114 C1115 1.374 . S
C1114 C1119 1.366 1_545 S
C1115 H1070 0.929 . S
C1115 C1114 1.374 . S
C1115 C1116 1.386 . S
C1116 H1071 0.931 . S
C1116 C1115 1.386 . S
C1116 C1117 1.312 1_545 S
C1117 C1116 1.312 1_565 S
C1117 C1118 1.411 . S
C1118 H1072 0.930 . S
C1118 C1117 1.411 . S
C1118 C1119 1.396 . S
C1119 H1073 0.929 . S
C1119 C1114 1.366 1_565 S
C1119 C1118 1.396 . S
C1120 O1074 1.300 . S
C1120 O1075 1.209 . S
C1120 C1093 1.486 . S
C1121 O1076 1.199 1_565 S
C1121 O1077 1.297 . S
C1121 C1105 1.476 . S
H1122 O1148 0.856 . S
H1123 O1151 0.854 . S
H1124 C1159 0.930 . S
H1125 C1160 0.930 . S
H1126 C1162 0.930 . S
H1127 C1163 0.930 . S
H1128 C1165 0.931 . S
H1129 C1166 0.930 . S
H1130 C1168 0.930 . S
H1131 C1169 0.929 . S
H1132 C1171 0.930 . S
H1133 C1172 0.931 . S
H1134 C1174 0.930 . S
H1135 C1175 0.929 . S
H1136 C1177 0.931 . S
H1137 C1178 0.930 . S
H1138 C1180 0.930 . S
H1139 C1181 0.932 . S
H1140 C1183 0.930 . S
H1141 C1184 0.929 . S
H1142 C1186 0.931 . S
H1143 C1187 0.930 . S
H1144 C1189 0.929 . S
H1145 C1190 0.931 . S
H1146 C1192 0.930 . S
H1147 C1193 0.929 . S
O1148 H1122 0.856 . S
O1148 C1194 1.300 . S
O1149 C1194 1.209 1_565 S
O1150 C1195 1.199 1_545 S
O1151 H1123 0.854 . S
O1151 C1195 1.297 . S
C1152 C1153 1.404 . S
C1152 C1157 1.397 1_545 S
C1152 C1158 1.492 . S
C1153 C1152 1.404 . S
C1153 C1154 1.412 . S
C1153 C1164 1.492 . S
C1154 C1153 1.412 . S
C1154 C1155 1.376 1_545 S
C1154 C1170 1.499 . S
C1155 C1154 1.376 1_565 S
C1155 C1156 1.412 . S
C1155 C1176 1.523 . S
C1156 C1155 1.412 . S
C1156 C1157 1.354 . S
C1156 C1182 1.487 . S
C1157 C1152 1.397 1_565 S
C1157 C1156 1.354 . S
C1157 C1188 1.519 . S
C1158 C1152 1.492 . S
C1158 C1159 1.363 . S
C1158 C1163 1.390 1_545 S
C1159 H1124 0.930 . S
C1159 C1158 1.363 . S
C1159 C1160 1.372 . S
C1160 H1125 0.930 . S
C1160 C1159 1.372 . S
C1160 C1161 1.383 . S
C1161 C1160 1.383 . S
C1161 C1162 1.395 1_545 S
C1162 H1126 0.930 . S
C1162 C1161 1.395 1_565 S
C1162 C1163 1.362 . S
C1163 H1127 0.930 . S
C1163 C1158 1.390 1_565 S
C1163 C1162 1.362 . S
C1164 C1153 1.492 . S
C1164 C1165 1.377 . S
C1164 C1169 1.397 1_545 S
C1165 H1128 0.931 . S
C1165 C1164 1.377 . S
C1165 C1166 1.376 . S
C1166 H1129 0.930 . S
C1166 C1165 1.376 . S
C1166 C1167 1.376 . S
C1167 C1166 1.376 . S
C1167 C1168 1.378 1_545 S
C1167 C1194 1.486 . S
C1168 H1130 0.930 . S
C1168 C1167 1.378 1_565 S
C1168 C1169 1.376 . S
C1169 H1131 0.929 . S
C1169 C1164 1.397 1_565 S
C1169 C1168 1.376 . S
C1170 C1154 1.499 . S
C1170 C1171 1.390 . S
C1170 C1175 1.390 1_545 S
C1171 H1132 0.930 . S
C1171 C1170 1.390 . S
C1171 C1172 1.375 . S
C1172 H1133 0.931 . S
C1172 C1171 1.375 . S
C1172 C1173 1.340 1_545 S
C1173 C1172 1.340 1_565 S
C1173 C1174 1.382 . S
C1174 H1134 0.930 . S
C1174 C1173 1.382 . S
C1174 C1175 1.399 . S
C1175 H1135 0.929 . S
C1175 C1170 1.390 1_565 S
C1175 C1174 1.399 . S
C1176 C1155 1.523 . S
C1176 C1177 1.394 1_565 S
C1176 C1181 1.360 . S
C1177 H1136 0.931 . S
C1177 C1176 1.394 1_545 S
C1177 C1178 1.372 . S
C1178 H1137 0.930 . S
C1178 C1177 1.372 . S
C1178 C1179 1.397 1_545 S
C1179 C1178 1.397 1_565 S
C1179 C1180 1.390 . S
C1179 C1195 1.476 . S
C1180 H1138 0.930 . S
C1180 C1179 1.390 . S
C1180 C1181 1.366 . S
C1181 H1139 0.932 . S
C1181 C1176 1.360 . S
C1181 C1180 1.366 . S
C1182 C1156 1.487 . S
C1182 C1183 1.324 1_565 S
C1182 C1187 1.460 . S
C1183 H1140 0.930 . S
C1183 C1182 1.324 1_545 S
C1183 C1184 1.381 . S
C1184 H1141 0.929 . S
C1184 C1183 1.381 . S
C1184 C1185 1.368 1_545 S
C1185 C1184 1.368 1_565 S
C1185 C1186 1.382 . S
C1186 H1142 0.931 . S
C1186 C1185 1.382 . S
C1186 C1187 1.387 . S
C1187 H1143 0.930 . S
C1187 C1182 1.460 . S
C1187 C1186 1.387 . S
C1188 C1157 1.519 . S
C1188 C1189 1.377 1_565 S
C1188 C1193 1.361 . S
C1189 H1144 0.929 . S
C1189 C1188 1.377 1_545 S
C1189 C1190 1.386 . S
C1190 H1145 0.931 . S
C1190 C1189 1.386 . S
C1190 C1191 1.363 1_545 S
C1191 C1190 1.363 1_565 S
C1191 C1192 1.385 . S
C1192 H1146 0.930 . S
C1192 C1191 1.385 . S
C1192 C1193 1.396 . S
C1193 H1147 0.929 . S
C1193 C1188 1.361 . S
C1193 C1192 1.396 . S
C1194 O1148 1.300 . S
C1194 O1149 1.209 1_545 S
C1194 C1167 1.486 . S
C1195 O1150 1.199 1_565 S
C1195 O1151 1.297 . S
C1195 C1179 1.476 . S
H1196 O1222 0.856 . S
H1197 O1225 0.854 . S
H1198 C1233 0.930 . S
H1199 C1234 0.930 . S
H1200 C1236 0.930 . S
H1201 C1237 0.930 . S
H1202 C1239 0.931 . S
H1203 C1240 0.930 . S
H1204 C1242 0.930 . S
H1205 C1243 0.929 . S
H1206 C1245 0.930 . S
H1207 C1246 0.931 . S
H1208 C1248 0.930 . S
H1209 C1249 0.929 . S
H1210 C1251 0.931 . S
H1211 C1252 0.930 . S
H1212 C1254 0.930 . S
H1213 C1255 0.932 . S
H1214 C1257 0.930 . S
H1215 C1258 0.929 . S
H1216 C1260 0.931 . S
H1217 C1261 0.930 . S
H1218 C1263 0.929 . S
H1219 C1264 0.931 . S
H1220 C1266 0.930 . S
H1221 C1267 0.929 . S
O1222 H1196 0.856 . S
O1222 C1268 1.300 . S
O1223 C1268 1.209 1_455 S
O1224 C1269 1.199 1_655 S
O1225 H1197 0.854 . S
O1225 C1269 1.297 . S
C1226 C1227 1.404 . S
C1226 C1231 1.398 . S
C1226 C1232 1.492 . S
C1227 C1226 1.404 . S
C1227 C1228 1.396 . S
C1227 C1238 1.492 . S
C1228 C1227 1.396 . S
C1228 C1229 1.393 . S
C1228 C1244 1.509 . S
C1229 C1228 1.393 . S
C1229 C1230 1.390 1_655 S
C1229 C1250 1.512 1_655 S
C1230 C1229 1.390 1_455 S
C1230 C1231 1.391 1_455 S
C1230 C1256 1.501 . S
C1231 C1226 1.398 . S
C1231 C1230 1.391 1_655 S
C1231 C1262 1.521 1_655 S
C1232 C1226 1.492 . S
C1232 C1233 1.363 . S
C1232 C1237 1.390 1_655 S
C1233 H1198 0.930 . S
C1233 C1232 1.363 . S
C1233 C1234 1.372 . S
C1234 H1199 0.930 . S
C1234 C1233 1.372 . S
C1234 C1235 1.383 . S
C1235 C1234 1.383 . S
C1235 C1236 1.395 1_655 S
C1236 H1200 0.930 . S
C1236 C1235 1.395 1_455 S
C1236 C1237 1.362 . S
C1237 H1201 0.930 . S
C1237 C1232 1.390 1_455 S
C1237 C1236 1.362 . S
C1238 C1227 1.492 . S
C1238 C1239 1.377 . S
C1238 C1243 1.397 1_655 S
C1239 H1202 0.931 . S
C1239 C1238 1.377 . S
C1239 C1240 1.376 . S
C1240 H1203 0.930 . S
C1240 C1239 1.376 . S
C1240 C1241 1.376 . S
C1241 C1240 1.376 . S
C1241 C1242 1.378 1_655 S
C1241 C1268 1.486 . S
C1242 H1204 0.930 . S
C1242 C1241 1.378 1_455 S
C1242 C1243 1.376 . S
C1243 H1205 0.929 . S
C1243 C1238 1.397 1_455 S
C1243 C1242 1.376 . S
C1244 C1228 1.509 . S
C1244 C1245 1.391 . S
C1244 C1249 1.386 1_655 S
C1245 H1206 0.930 . S
C1245 C1244 1.391 . S
C1245 C1246 1.375 . S
C1246 H1207 0.931 . S
C1246 C1245 1.375 . S
C1246 C1247 1.375 . S
C1247 C1246 1.375 . S
C1247 C1248 1.361 1_655 S
C1248 H1208 0.930 . S
C1248 C1247 1.361 1_455 S
C1248 C1249 1.399 . S
C1249 H1209 0.929 . S
C1249 C1244 1.386 1_455 S
C1249 C1248 1.399 . S
C1250 C1229 1.512 1_455 S
C1250 C1251 1.391 1_455 S
C1250 C1255 1.361 . S
C1251 H1210 0.931 . S
C1251 C1250 1.391 1_655 S
C1251 C1252 1.372 . S
C1252 H1211 0.930 . S
C1252 C1251 1.372 . S
C1252 C1253 1.397 1_655 S
C1253 C1252 1.397 1_455 S
C1253 C1254 1.390 . S
C1253 C1269 1.476 . S
C1254 H1212 0.930 . S
C1254 C1253 1.390 . S
C1254 C1255 1.366 . S
C1255 H1213 0.932 . S
C1255 C1250 1.361 . S
C1255 C1254 1.366 . S
C1256 C1230 1.501 . S
C1256 C1257 1.341 1_455 S
C1256 C1261 1.415 . S
C1257 H1214 0.930 . S
C1257 C1256 1.341 1_655 S
C1257 C1258 1.381 . S
C1258 H1215 0.929 . S
C1258 C1257 1.381 . S
C1258 C1259 1.342 1_655 S
C1259 C1258 1.342 1_455 S
C1259 C1260 1.428 . S
C1260 H1216 0.931 . S
C1260 C1259 1.428 . S
C1260 C1261 1.387 . S
C1261 H1217 0.930 . S
C1261 C1256 1.415 . S
C1261 C1260 1.387 . S
C1262 C1231 1.521 1_455 S
C1262 C1263 1.377 1_455 S
C1262 C1267 1.361 . S
C1263 H1218 0.929 . S
C1263 C1262 1.377 1_655 S
C1263 C1264 1.386 . S
C1264 H1219 0.931 . S
C1264 C1263 1.386 . S
C1264 C1265 1.363 1_655 S
C1265 C1264 1.363 1_455 S
C1265 C1266 1.385 . S
C1266 H1220 0.930 . S
C1266 C1265 1.385 . S
C1266 C1267 1.396 . S
C1267 H1221 0.929 . S
C1267 C1262 1.361 . S
C1267 C1266 1.396 . S
C1268 O1222 1.300 . S
C1268 O1223 1.209 1_655 S
C1268 C1241 1.486 . S
C1269 O1224 1.199 1_455 S
C1269 O1225 1.297 . S
C1269 C1253 1.476 . S
H1270 O1296 0.856 . S
H1271 O1299 0.854 . S
H1272 C1307 0.930 . S
H1273 C1308 0.930 . S
H1274 C1310 0.930 . S
H1275 C1311 0.930 . S
H1276 C1313 0.931 . S
H1277 C1314 0.930 . S
H1278 C1316 0.930 . S
H1279 C1317 0.929 . S
H1280 C1319 0.930 . S
H1281 C1320 0.931 . S
H1282 C1322 0.930 . S
H1283 C1323 0.929 . S
H1284 C1325 0.931 . S
H1285 C1326 0.930 . S
H1286 C1328 0.930 . S
H1287 C1329 0.932 . S
H1288 C1331 0.930 . S
H1289 C1332 0.929 . S
H1290 C1334 0.931 . S
H1291 C1335 0.930 . S
H1292 C1337 0.929 . S
H1293 C1338 0.931 . S
H1294 C1340 0.930 . S
H1295 C1341 0.929 . S
O1296 H1270 0.856 . S
O1296 C1342 1.300 . S
O1297 C1342 1.209 . S
O1298 C1343 1.199 . S
O1299 H1271 0.854 . S
O1299 C1343 1.297 . S
C1300 C1301 1.404 . S
C1300 C1305 1.397 . S
C1300 C1306 1.492 . S
C1301 C1300 1.404 . S
C1301 C1302 1.396 . S
C1301 C1312 1.492 . S
C1302 C1301 1.396 . S
C1302 C1303 1.397 . S
C1302 C1318 1.509 . S
C1303 C1302 1.397 . S
C1303 C1304 1.412 . S
C1303 C1324 1.485 . S
C1304 C1303 1.412 . S
C1304 C1305 1.388 . S
C1304 C1330 1.490 . S
C1305 C1300 1.397 . S
C1305 C1304 1.388 . S
C1305 C1336 1.519 . S
C1306 C1300 1.492 . S
C1306 C1307 1.363 . S
C1306 C1311 1.390 . S
C1307 H1272 0.930 . S
C1307 C1306 1.363 . S
C1307 C1308 1.372 . S
C1308 H1273 0.930 . S
C1308 C1307 1.372 . S
C1308 C1309 1.383 . S
C1309 C1308 1.383 . S
C1309 C1310 1.395 . S
C1310 H1274 0.930 . S
C1310 C1309 1.395 . S
C1310 C1311 1.362 . S
C1311 H1275 0.930 . S
C1311 C1306 1.390 . S
C1311 C1310 1.362 . S
C1312 C1301 1.492 . S
C1312 C1313 1.377 . S
C1312 C1317 1.397 . S
C1313 H1276 0.931 . S
C1313 C1312 1.377 . S
C1313 C1314 1.376 . S
C1314 H1277 0.930 . S
C1314 C1313 1.376 . S
C1314 C1315 1.376 . S
C1315 C1314 1.376 . S
C1315 C1316 1.378 . S
C1315 C1342 1.486 . S
C1316 H1278 0.930 . S
C1316 C1315 1.378 . S
C1316 C1317 1.376 . S
C1317 H1279 0.929 . S
C1317 C1312 1.397 . S
C1317 C1316 1.376 . S
C1318 C1302 1.509 . S
C1318 C1319 1.391 . S
C1318 C1323 1.386 . S
C1319 H1280 0.930 . S
C1319 C1318 1.391 . S
C1319 C1320 1.375 . S
C1320 H1281 0.931 . S
C1320 C1319 1.375 . S
C1320 C1321 1.375 . S
C1321 C1320 1.375 . S
C1321 C1322 1.361 . S
C1322 H1282 0.930 . S
C1322 C1321 1.361 . S
C1322 C1323 1.399 . S
C1323 H1283 0.929 . S
C1323 C1318 1.386 . S
C1323 C1322 1.399 . S
C1324 C1303 1.485 . S
C1324 C1325 1.394 . S
C1324 C1329 1.360 . S
C1325 H1284 0.931 . S
C1325 C1324 1.394 . S
C1325 C1326 1.372 . S
C1326 H1285 0.930 . S
C1326 C1325 1.372 . S
C1326 C1327 1.397 . S
C1327 C1326 1.397 . S
C1327 C1328 1.390 . S
C1327 C1343 1.476 . S
C1328 H1286 0.930 . S
C1328 C1327 1.390 . S
C1328 C1329 1.366 . S
C1329 H1287 0.932 . S
C1329 C1324 1.360 . S
C1329 C1328 1.366 . S
C1330 C1304 1.490 . S
C1330 C1331 1.380 . S
C1330 C1335 1.386 . S
C1331 H1288 0.930 . S
C1331 C1330 1.380 . S
C1331 C1332 1.381 . S
C1332 H1289 0.929 . S
C1332 C1331 1.381 . S
C1332 C1333 1.371 . S
C1333 C1332 1.371 . S
C1333 C1334 1.380 . S
C1334 H1290 0.931 . S
C1334 C1333 1.380 . S
C1334 C1335 1.387 . S
C1335 H1291 0.930 . S
C1335 C1330 1.386 . S
C1335 C1334 1.387 . S
C1336 C1305 1.519 . S
C1336 C1337 1.377 . S
C1336 C1341 1.361 . S
C1337 H1292 0.929 . S
C1337 C1336 1.377 . S
C1337 C1338 1.386 . S
C1338 H1293 0.931 . S
C1338 C1337 1.386 . S
C1338 C1339 1.363 . S
C1339 C1338 1.363 . S
C1339 C1340 1.385 . S
C1340 H1294 0.930 . S
C1340 C1339 1.385 . S
C1340 C1341 1.396 . S
C1341 H1295 0.929 . S
C1341 C1336 1.361 . S
C1341 C1340 1.396 . S
C1342 O1296 1.300 . S
C1342 O1297 1.209 . S
C1342 C1315 1.486 . S
C1343 O1298 1.199 . S
C1343 O1299 1.297 . S
C1343 C1327 1.476 . S
H1344 O1370 0.856 . S
H1345 O1373 0.854 . S
H1346 C1381 0.930 . S
H1347 C1382 0.930 . S
H1348 C1384 0.930 . S
H1349 C1385 0.930 . S
H1350 C1387 0.931 . S
H1351 C1388 0.930 . S
H1352 C1390 0.930 . S
H1353 C1391 0.929 . S
H1354 C1393 0.930 . S
H1355 C1394 0.931 . S
H1356 C1396 0.930 . S
H1357 C1397 0.929 . S
H1358 C1399 0.931 . S
H1359 C1400 0.930 . S
H1360 C1402 0.930 . S
H1361 C1403 0.932 . S
H1362 C1405 0.930 . S
H1363 C1406 0.929 . S
H1364 C1408 0.931 . S
H1365 C1409 0.930 . S
H1366 C1411 0.929 . S
H1367 C1412 0.931 . S
H1368 C1414 0.930 . S
H1369 C1415 0.929 . S
O1370 H1344 0.856 . S
O1370 C1416 1.300 . S
O1371 C1416 1.209 . S
O1372 C1417 1.199 . S
O1373 H1345 0.854 . S
O1373 C1417 1.297 . S
C1374 C1375 1.404 . S
C1374 C1379 1.397 . S
C1374 C1380 1.492 . S
C1375 C1374 1.404 . S
C1375 C1376 1.396 . S
C1375 C1386 1.492 . S
C1376 C1375 1.396 . S
C1376 C1377 1.397 . S
C1376 C1392 1.509 . S
C1377 C1376 1.397 . S
C1377 C1378 1.412 . S
C1377 C1398 1.485 . S
C1378 C1377 1.412 . S
C1378 C1379 1.388 . S
C1378 C1404 1.490 . S
C1379 C1374 1.397 . S
C1379 C1378 1.388 . S
C1379 C1410 1.519 . S
C1380 C1374 1.492 . S
C1380 C1381 1.363 . S
C1380 C1385 1.390 . S
C1381 H1346 0.930 . S
C1381 C1380 1.363 . S
C1381 C1382 1.372 . S
C1382 H1347 0.930 . S
C1382 C1381 1.372 . S
C1382 C1383 1.383 . S
C1383 C1382 1.383 . S
C1383 C1384 1.395 . S
C1384 H1348 0.930 . S
C1384 C1383 1.395 . S
C1384 C1385 1.362 . S
C1385 H1349 0.930 . S
C1385 C1380 1.390 . S
C1385 C1384 1.362 . S
C1386 C1375 1.492 . S
C1386 C1387 1.377 . S
C1386 C1391 1.397 . S
C1387 H1350 0.931 . S
C1387 C1386 1.377 . S
C1387 C1388 1.376 . S
C1388 H1351 0.930 . S
C1388 C1387 1.376 . S
C1388 C1389 1.376 . S
C1389 C1388 1.376 . S
C1389 C1390 1.378 . S
C1389 C1416 1.486 . S
C1390 H1352 0.930 . S
C1390 C1389 1.378 . S
C1390 C1391 1.376 . S
C1391 H1353 0.929 . S
C1391 C1386 1.397 . S
C1391 C1390 1.376 . S
C1392 C1376 1.509 . S
C1392 C1393 1.391 . S
C1392 C1397 1.386 . S
C1393 H1354 0.930 . S
C1393 C1392 1.391 . S
C1393 C1394 1.375 . S
C1394 H1355 0.931 . S
C1394 C1393 1.375 . S
C1394 C1395 1.375 . S
C1395 C1394 1.375 . S
C1395 C1396 1.361 . S
C1396 H1356 0.930 . S
C1396 C1395 1.361 . S
C1396 C1397 1.399 . S
C1397 H1357 0.929 . S
C1397 C1392 1.386 . S
C1397 C1396 1.399 . S
C1398 C1377 1.485 . S
C1398 C1399 1.394 . S
C1398 C1403 1.360 . S
C1399 H1358 0.931 . S
C1399 C1398 1.394 . S
C1399 C1400 1.372 . S
C1400 H1359 0.930 . S
C1400 C1399 1.372 . S
C1400 C1401 1.397 . S
C1401 C1400 1.397 . S
C1401 C1402 1.390 . S
C1401 C1417 1.476 . S
C1402 H1360 0.930 . S
C1402 C1401 1.390 . S
C1402 C1403 1.366 . S
C1403 H1361 0.932 . S
C1403 C1398 1.360 . S
C1403 C1402 1.366 . S
C1404 C1378 1.490 . S
C1404 C1405 1.380 . S
C1404 C1409 1.386 . S
C1405 H1362 0.930 . S
C1405 C1404 1.380 . S
C1405 C1406 1.381 . S
C1406 H1363 0.929 . S
C1406 C1405 1.381 . S
C1406 C1407 1.371 . S
C1407 C1406 1.371 . S
C1407 C1408 1.380 . S
C1408 H1364 0.931 . S
C1408 C1407 1.380 . S
C1408 C1409 1.387 . S
C1409 H1365 0.930 . S
C1409 C1404 1.386 . S
C1409 C1408 1.387 . S
C1410 C1379 1.519 . S
C1410 C1411 1.377 . S
C1410 C1415 1.361 . S
C1411 H1366 0.929 . S
C1411 C1410 1.377 . S
C1411 C1412 1.386 . S
C1412 H1367 0.931 . S
C1412 C1411 1.386 . S
C1412 C1413 1.363 . S
C1413 C1412 1.363 . S
C1413 C1414 1.385 . S
C1414 H1368 0.930 . S
C1414 C1413 1.385 . S
C1414 C1415 1.396 . S
C1415 H1369 0.929 . S
C1415 C1410 1.361 . S
C1415 C1414 1.396 . S
C1416 O1370 1.300 . S
C1416 O1371 1.209 . S
C1416 C1389 1.486 . S
C1417 O1372 1.199 . S
C1417 O1373 1.297 . S
C1417 C1401 1.476 . S
H1418 O1444 0.856 . S
H1419 O1447 0.854 . S
H1420 C1455 0.930 . S
H1421 C1456 0.930 . S
H1422 C1458 0.930 . S
H1423 C1459 0.930 . S
H1424 C1461 0.931 . S
H1425 C1462 0.930 . S
H1426 C1464 0.930 . S
H1427 C1465 0.929 . S
H1428 C1467 0.930 . S
H1429 C1468 0.931 . S
H1430 C1470 0.930 . S
H1431 C1471 0.929 . S
H1432 C1473 0.931 . S
H1433 C1474 0.930 . S
H1434 C1476 0.930 . S
H1435 C1477 0.932 . S
H1436 C1479 0.930 . S
H1437 C1480 0.929 . S
H1438 C1482 0.931 . S
H1439 C1483 0.930 . S
H1440 C1485 0.929 . S
H1441 C1486 0.931 . S
H1442 C1488 0.930 . S
H1443 C1489 0.929 . S
O1444 H1418 0.856 . S
O1444 C1490 1.300 . S
O1445 C1490 1.209 . S
O1446 C1491 1.199 . S
O1447 H1419 0.854 . S
O1447 C1491 1.297 . S
C1448 C1449 1.404 . S
C1448 C1453 1.397 . S
C1448 C1454 1.492 . S
C1449 C1448 1.404 . S
C1449 C1450 1.396 . S
C1449 C1460 1.492 . S
C1450 C1449 1.396 . S
C1450 C1451 1.397 . S
C1450 C1466 1.509 . S
C1451 C1450 1.397 . S
C1451 C1452 1.412 . S
C1451 C1472 1.485 . S
C1452 C1451 1.412 . S
C1452 C1453 1.388 . S
C1452 C1478 1.490 . S
C1453 C1448 1.397 . S
C1453 C1452 1.388 . S
C1453 C1484 1.519 . S
C1454 C1448 1.492 . S
C1454 C1455 1.363 . S
C1454 C1459 1.390 . S
C1455 H1420 0.930 . S
C1455 C1454 1.363 . S
C1455 C1456 1.372 . S
C1456 H1421 0.930 . S
C1456 C1455 1.372 . S
C1456 C1457 1.383 . S
C1457 C1456 1.383 . S
C1457 C1458 1.395 . S
C1458 H1422 0.930 . S
C1458 C1457 1.395 . S
C1458 C1459 1.362 . S
C1459 H1423 0.930 . S
C1459 C1454 1.390 . S
C1459 C1458 1.362 . S
C1460 C1449 1.492 . S
C1460 C1461 1.377 . S
C1460 C1465 1.397 . S
C1461 H1424 0.931 . S
C1461 C1460 1.377 . S
C1461 C1462 1.376 . S
C1462 H1425 0.930 . S
C1462 C1461 1.376 . S
C1462 C1463 1.376 . S
C1463 C1462 1.376 . S
C1463 C1464 1.378 . S
C1463 C1490 1.486 . S
C1464 H1426 0.930 . S
C1464 C1463 1.378 . S
C1464 C1465 1.376 . S
C1465 H1427 0.929 . S
C1465 C1460 1.397 . S
C1465 C1464 1.376 . S
C1466 C1450 1.509 . S
C1466 C1467 1.391 . S
C1466 C1471 1.386 . S
C1467 H1428 0.930 . S
C1467 C1466 1.391 . S
C1467 C1468 1.375 . S
C1468 H1429 0.931 . S
C1468 C1467 1.375 . S
C1468 C1469 1.375 . S
C1469 C1468 1.375 . S
C1469 C1470 1.361 . S
C1470 H1430 0.930 . S
C1470 C1469 1.361 . S
C1470 C1471 1.399 . S
C1471 H1431 0.929 . S
C1471 C1466 1.386 . S
C1471 C1470 1.399 . S
C1472 C1451 1.485 . S
C1472 C1473 1.394 . S
C1472 C1477 1.360 . S
C1473 H1432 0.931 . S
C1473 C1472 1.394 . S
C1473 C1474 1.372 . S
C1474 H1433 0.930 . S
C1474 C1473 1.372 . S
C1474 C1475 1.397 . S
C1475 C1474 1.397 . S
C1475 C1476 1.390 . S
C1475 C1491 1.476 . S
C1476 H1434 0.930 . S
C1476 C1475 1.390 . S
C1476 C1477 1.366 . S
C1477 H1435 0.932 . S
C1477 C1472 1.360 . S
C1477 C1476 1.366 . S
C1478 C1452 1.490 . S
C1478 C1479 1.380 . S
C1478 C1483 1.386 . S
C1479 H1436 0.930 . S
C1479 C1478 1.380 . S
C1479 C1480 1.381 . S
C1480 H1437 0.929 . S
C1480 C1479 1.381 . S
C1480 C1481 1.371 . S
C1481 C1480 1.371 . S
C1481 C1482 1.380 . S
C1482 H1438 0.931 . S
C1482 C1481 1.380 . S
C1482 C1483 1.387 . S
C1483 H1439 0.930 . S
C1483 C1478 1.386 . S
C1483 C1482 1.387 . S
C1484 C1453 1.519 . S
C1484 C1485 1.377 . S
C1484 C1489 1.361 . S
C1485 H1440 0.929 . S
C1485 C1484 1.377 . S
C1485 C1486 1.386 . S
C1486 H1441 0.931 . S
C1486 C1485 1.386 . S
C1486 C1487 1.363 . S
C1487 C1486 1.363 . S
C1487 C1488 1.385 . S
C1488 H1442 0.930 . S
C1488 C1487 1.385 . S
C1488 C1489 1.396 . S
C1489 H1443 0.929 . S
C1489 C1484 1.361 . S
C1489 C1488 1.396 . S
C1490 O1444 1.300 . S
C1490 O1445 1.209 . S
C1490 C1463 1.486 . S
C1491 O1446 1.199 . S
C1491 O1447 1.297 . S
C1491 C1475 1.476 . S
H1492 O1518 0.856 . S
H1493 O1521 0.854 . S
H1494 C1529 0.930 . S
H1495 C1530 0.930 . S
H1496 C1532 0.930 . S
H1497 C1533 0.930 . S
H1498 C1535 0.931 . S
H1499 C1536 0.930 . S
H1500 C1538 0.930 . S
H1501 C1539 0.929 . S
H1502 C1541 0.930 . S
H1503 C1542 0.931 . S
H1504 C1544 0.930 . S
H1505 C1545 0.929 . S
H1506 C1547 0.931 . S
H1507 C1548 0.930 . S
H1508 C1550 0.930 . S
H1509 C1551 0.932 . S
H1510 C1553 0.930 . S
H1511 C1554 0.929 . S
H1512 C1556 0.931 . S
H1513 C1557 0.930 . S
H1514 C1559 0.929 . S
H1515 C1560 0.931 . S
H1516 C1562 0.930 . S
H1517 C1563 0.929 . S
O1518 H1492 0.856 . S
O1518 C1564 1.300 . S
O1519 C1564 1.209 . S
O1520 C1565 1.199 . S
O1521 H1493 0.854 . S
O1521 C1565 1.297 . S
C1522 C1523 1.404 . S
C1522 C1527 1.397 . S
C1522 C1528 1.492 . S
C1523 C1522 1.404 . S
C1523 C1524 1.396 . S
C1523 C1534 1.492 . S
C1524 C1523 1.396 . S
C1524 C1525 1.397 . S
C1524 C1540 1.509 . S
C1525 C1524 1.397 . S
C1525 C1526 1.412 . S
C1525 C1546 1.485 . S
C1526 C1525 1.412 . S
C1526 C1527 1.388 . S
C1526 C1552 1.490 . S
C1527 C1522 1.397 . S
C1527 C1526 1.388 . S
C1527 C1558 1.519 . S
C1528 C1522 1.492 . S
C1528 C1529 1.363 . S
C1528 C1533 1.390 . S
C1529 H1494 0.930 . S
C1529 C1528 1.363 . S
C1529 C1530 1.372 . S
C1530 H1495 0.930 . S
C1530 C1529 1.372 . S
C1530 C1531 1.383 . S
C1531 C1530 1.383 . S
C1531 C1532 1.395 . S
C1532 H1496 0.930 . S
C1532 C1531 1.395 . S
C1532 C1533 1.362 . S
C1533 H1497 0.930 . S
C1533 C1528 1.390 . S
C1533 C1532 1.362 . S
C1534 C1523 1.492 . S
C1534 C1535 1.377 . S
C1534 C1539 1.397 . S
C1535 H1498 0.931 . S
C1535 C1534 1.377 . S
C1535 C1536 1.376 . S
C1536 H1499 0.930 . S
C1536 C1535 1.376 . S
C1536 C1537 1.376 . S
C1537 C1536 1.376 . S
C1537 C1538 1.378 . S
C1537 C1564 1.486 . S
C1538 H1500 0.930 . S
C1538 C1537 1.378 . S
C1538 C1539 1.376 . S
C1539 H1501 0.929 . S
C1539 C1534 1.397 . S
C1539 C1538 1.376 . S
C1540 C1524 1.509 . S
C1540 C1541 1.391 . S
C1540 C1545 1.386 . S
C1541 H1502 0.930 . S
C1541 C1540 1.391 . S
C1541 C1542 1.375 . S
C1542 H1503 0.931 . S
C1542 C1541 1.375 . S
C1542 C1543 1.375 . S
C1543 C1542 1.375 . S
C1543 C1544 1.361 . S
C1544 H1504 0.930 . S
C1544 C1543 1.361 . S
C1544 C1545 1.399 . S
C1545 H1505 0.929 . S
C1545 C1540 1.386 . S
C1545 C1544 1.399 . S
C1546 C1525 1.485 . S
C1546 C1547 1.394 . S
C1546 C1551 1.360 . S
C1547 H1506 0.931 . S
C1547 C1546 1.394 . S
C1547 C1548 1.372 . S
C1548 H1507 0.930 . S
C1548 C1547 1.372 . S
C1548 C1549 1.397 . S
C1549 C1548 1.397 . S
C1549 C1550 1.390 . S
C1549 C1565 1.476 . S
C1550 H1508 0.930 . S
C1550 C1549 1.390 . S
C1550 C1551 1.366 . S
C1551 H1509 0.932 . S
C1551 C1546 1.360 . S
C1551 C1550 1.366 . S
C1552 C1526 1.490 . S
C1552 C1553 1.380 . S
C1552 C1557 1.386 . S
C1553 H1510 0.930 . S
C1553 C1552 1.380 . S
C1553 C1554 1.381 . S
C1554 H1511 0.929 . S
C1554 C1553 1.381 . S
C1554 C1555 1.371 . S
C1555 C1554 1.371 . S
C1555 C1556 1.380 . S
C1556 H1512 0.931 . S
C1556 C1555 1.380 . S
C1556 C1557 1.387 . S
C1557 H1513 0.930 . S
C1557 C1552 1.386 . S
C1557 C1556 1.387 . S
C1558 C1527 1.519 . S
C1558 C1559 1.377 . S
C1558 C1563 1.361 . S
C1559 H1514 0.929 . S
C1559 C1558 1.377 . S
C1559 C1560 1.386 . S
C1560 H1515 0.931 . S
C1560 C1559 1.386 . S
C1560 C1561 1.363 . S
C1561 C1560 1.363 . S
C1561 C1562 1.385 . S
C1562 H1516 0.930 . S
C1562 C1561 1.385 . S
C1562 C1563 1.396 . S
C1563 H1517 0.929 . S
C1563 C1558 1.361 . S
C1563 C1562 1.396 . S
C1564 O1518 1.300 . S
C1564 O1519 1.209 . S
C1564 C1537 1.486 . S
C1565 O1520 1.199 . S
C1565 O1521 1.297 . S
C1565 C1549 1.476 . S
H1566 C1574 0.929 . S
H1567 C1576 0.930 . S
H1568 C1578 0.930 . S
H1569 C1581 0.929 . S
H1570 C1584 0.930 . S
H1571 C1586 0.960 . S
H1572 C1586 0.960 . S
H1573 C1586 0.960 1_455 S
C1574 H1566 0.929 . S
C1574 C1575 1.377 . S
C1574 C1576 1.384 . S
C1575 C1574 1.377 . S
C1575 C1581 1.390 1_655 S
C1576 H1567 0.930 . S
C1576 C1574 1.384 . S
C1576 C1577 1.372 . S
C1577 C1576 1.372 . S
C1577 C1578 1.400 1_655 S
C1577 C1582 1.490 . S
C1578 H1568 0.930 . S
C1578 C1577 1.400 1_455 S
C1578 C1581 1.386 . S
H1579 C1595 0.962 . S
H1580 C1596 0.931 . S
C1581 H1569 0.929 . S
C1581 C1575 1.390 1_455 S
C1581 C1578 1.386 . S
C1582 C1577 1.490 . S
C1582 C1584 1.395 . S
C1582 C1585 1.403 . S
H1583 C1589 0.930 . S
C1584 H1570 0.930 . S
C1584 C1582 1.395 . S
C1584 C1587 1.403 . S
C1585 C1582 1.403 . S
C1585 C1586 1.524 . S
C1585 C1589 1.400 . S
C1586 H1571 0.960 . S
C1586 H1572 0.960 . S
C1586 H1573 0.960 1_655 S
C1586 C1585 1.524 . S
C1587 C1584 1.403 . S
C1587 C1588 1.392 . S
C1587 C1591 1.495 . S
C1588 C1587 1.392 . S
C1588 C1589 1.385 . S
C1588 C1590 1.478 . S
C1589 H1583 0.930 . S
C1589 C1585 1.400 . S
C1589 C1588 1.385 . S
C1590 C1588 1.478 . S
C1590 C1592 1.381 . S
C1590 C1596 1.383 1_655 S
C1591 C1587 1.495 . S
C1591 H1597 0.959 . S
C1591 H1598 0.961 . S
C1591 H1599 0.960 . S
C1592 C1590 1.381 . S
C1592 C1593 1.394 . S
C1592 H1600 0.930 . S
C1593 C1592 1.394 . S
C1593 C1594 1.383 . S
C1593 H1601 0.929 . S
C1594 C1593 1.383 . S
C1594 C1595 1.311 1_655 S
C1595 H1579 0.962 . S
C1595 C1594 1.311 1_455 S
C1595 C1596 1.418 . S
C1596 H1580 0.931 . S
C1596 C1590 1.383 1_455 S
C1596 C1595 1.418 . S
H1597 C1591 0.959 . S
H1598 C1591 0.961 . S
H1599 C1591 0.960 . S
H1600 C1592 0.930 . S
H1601 C1593 0.929 . S
H1602 C1610 0.929 . S
H1603 C1612 0.930 . S
H1604 C1614 0.930 . S
H1605 C1617 0.929 . S
H1606 C1620 0.930 . S
H1607 C1622 0.960 . S
H1608 C1622 0.960 . S
H1609 C1622 0.960 . S
C1610 H1602 0.929 . S
C1610 C1611 1.377 . S
C1610 C1612 1.384 . S
C1611 C1610 1.377 . S
C1611 C1617 1.390 . S
C1612 H1603 0.930 . S
C1612 C1610 1.384 . S
C1612 C1613 1.372 . S
C1613 C1612 1.372 . S
C1613 C1614 1.400 . S
C1613 C1618 1.490 . S
C1614 H1604 0.930 . S
C1614 C1613 1.400 . S
C1614 C1617 1.386 . S
H1615 C1631 0.930 . S
H1616 C1632 0.931 . S
C1617 H1605 0.929 . S
C1617 C1611 1.390 . S
C1617 C1614 1.386 . S
C1618 C1613 1.490 . S
C1618 C1620 1.395 . S
C1618 C1621 1.403 . S
H1619 C1625 0.930 . S
C1620 H1606 0.930 . S
C1620 C1618 1.395 . S
C1620 C1623 1.403 . S
C1621 C1618 1.403 . S
C1621 C1622 1.524 . S
C1621 C1625 1.400 . S
C1622 H1607 0.960 . S
C1622 H1608 0.960 . S
C1622 H1609 0.960 . S
C1622 C1621 1.524 . S
C1623 C1620 1.403 . S
C1623 C1624 1.392 . S
C1623 C1627 1.495 . S
C1624 C1623 1.392 . S
C1624 C1625 1.385 . S
C1624 C1626 1.478 . S
C1625 H1619 0.930 . S
C1625 C1621 1.400 . S
C1625 C1624 1.385 . S
C1626 C1624 1.478 . S
C1626 C1628 1.381 . S
C1626 C1632 1.383 . S
C1627 C1623 1.495 . S
C1627 H1633 0.959 . S
C1627 H1634 0.961 . S
C1627 H1635 0.960 . S
C1628 C1626 1.381 . S
C1628 C1629 1.394 . S
C1628 H1636 0.930 . S
C1629 C1628 1.394 . S
C1629 C1630 1.383 . S
C1629 H1637 0.929 . S
C1630 C1629 1.383 . S
C1630 C1631 1.377 . S
C1631 H1615 0.930 . S
C1631 C1630 1.377 . S
C1631 C1632 1.379 . S
C1632 H1616 0.931 . S
C1632 C1626 1.383 . S
C1632 C1631 1.379 . S
H1633 C1627 0.959 . S
H1634 C1627 0.961 . S
H1635 C1627 0.960 . S
H1636 C1628 0.930 . S
H1637 C1629 0.929 . S
H1638 C1646 0.929 1_565 S
H1639 C1648 0.930 1_565 S
H1640 C1650 0.930 . S
H1641 C1653 0.929 . S
H1642 C1656 0.930 1_565 S
H1643 C1658 0.960 . S
H1644 C1658 0.960 . S
H1645 C1658 0.960 . S
C1646 H1638 0.929 1_545 S
C1646 C1647 1.377 . S
C1646 C1648 1.384 . S
C1647 C1646 1.377 . S
C1647 C1653 1.390 . S
C1648 H1639 0.930 1_545 S
C1648 C1646 1.384 . S
C1648 C1649 1.372 . S
C1649 C1648 1.372 . S
C1649 C1650 1.400 . S
C1649 C1654 1.490 . S
C1650 H1640 0.930 . S
C1650 C1649 1.400 . S
C1650 C1653 1.386 . S
H1651 C1667 0.930 . S
H1652 C1668 0.931 . S
C1653 H1641 0.929 . S
C1653 C1647 1.390 . S
C1653 C1650 1.386 . S
C1654 C1649 1.490 . S
C1654 C1656 1.395 . S
C1654 C1657 1.403 . S
H1655 C1661 0.930 . S
C1656 H1642 0.930 1_545 S
C1656 C1654 1.395 . S
C1656 C1659 1.403 . S
C1657 C1654 1.403 . S
C1657 C1658 1.524 . S
C1657 C1661 1.400 . S
C1658 H1643 0.960 . S
C1658 H1644 0.960 . S
C1658 H1645 0.960 . S
C1658 C1657 1.524 . S
C1659 C1656 1.403 . S
C1659 C1660 1.392 . S
C1659 C1663 1.495 1_545 S
C1660 C1659 1.392 . S
C1660 C1661 1.385 . S
C1660 C1662 1.478 . S
C1661 H1655 0.930 . S
C1661 C1657 1.400 . S
C1661 C1660 1.385 . S
C1662 C1660 1.478 . S
C1662 C1664 1.415 . S
C1662 C1668 1.383 . S
C1663 C1659 1.495 1_565 S
C1663 H1669 0.959 . S
C1663 H1670 0.961 . S
C1663 H1671 0.960 . S
C1664 C1662 1.415 . S
C1664 C1665 1.401 . S
C1664 H1672 0.914 1_545 S
C1665 C1664 1.401 . S
C1665 C1666 1.407 . S
C1665 H1673 0.884 1_545 S
C1666 C1665 1.407 . S
C1666 C1667 1.377 . S
C1667 H1651 0.930 . S
C1667 C1666 1.377 . S
C1667 C1668 1.379 . S
C1668 H1652 0.931 . S
C1668 C1662 1.383 . S
C1668 C1667 1.379 . S
H1669 C1663 0.959 . S
H1670 C1663 0.961 . S
H1671 C1663 0.960 . S
H1672 C1664 0.914 1_565 S
H1673 C1665 0.884 1_565 S
H1674 C1682 0.963 . S
H1675 C1684 0.930 . S
H1676 C1686 0.930 . S
H1677 C1689 0.987 . S
H1678 C1692 0.930 . S
H1679 C1694 0.960 . S
H1680 C1694 0.960 . S
H1681 C1694 0.960 . S
C1682 H1674 0.963 . S
C1682 C1683 1.377 . S
C1682 C1684 1.384 . S
C1683 C1682 1.377 . S
C1683 C1689 1.390 . S
C1684 H1675 0.930 . S
C1684 C1682 1.384 . S
C1684 C1685 1.372 . S
C1685 C1684 1.372 . S
C1685 C1686 1.400 . S
C1685 C1690 1.490 . S
C1686 H1676 0.930 . S
C1686 C1685 1.400 . S
C1686 C1689 1.386 . S
H1687 C1703 0.930 . S
H1688 C1704 0.931 . S
C1689 H1677 0.987 . S
C1689 C1683 1.390 . S
C1689 C1686 1.386 . S
C1690 C1685 1.490 . S
C1690 C1692 1.395 . S
C1690 C1693 1.403 1_565 S
H1691 C1697 0.930 . S
C1692 H1678 0.930 . S
C1692 C1690 1.395 . S
C1692 C1695 1.403 . S
C1693 C1690 1.403 1_545 S
C1693 C1694 1.524 . S
C1693 C1697 1.400 . S
C1694 H1679 0.960 . S
C1694 H1680 0.960 . S
C1694 H1681 0.960 . S
C1694 C1693 1.524 . S
C1695 C1692 1.403 . S
C1695 C1696 1.392 . S
C1695 C1699 1.495 . S
C1696 C1695 1.392 . S
C1696 C1697 1.385 1_565 S
C1696 C1698 1.478 . S
C1697 H1691 0.930 . S
C1697 C1693 1.400 . S
C1697 C1696 1.385 1_545 S
C1698 C1696 1.478 . S
C1698 C1700 1.381 . S
C1698 C1704 1.383 . S
C1699 C1695 1.495 . S
C1699 H1705 0.959 . S
C1699 H1706 0.961 . S
C1699 H1707 0.960 . S
C1700 C1698 1.381 . S
C1700 C1701 1.394 . S
C1700 H1708 0.930 . S
C1701 C1700 1.394 . S
C1701 C1702 1.383 . S
C1701 H1709 0.929 . S
C1702 C1701 1.383 . S
C1702 C1703 1.377 . S
C1703 H1687 0.930 . S
C1703 C1702 1.377 . S
C1703 C1704 1.379 . S
C1704 H1688 0.931 . S
C1704 C1698 1.383 . S
C1704 C1703 1.379 . S
H1705 C1699 0.959 . S
H1706 C1699 0.961 . S
H1707 C1699 0.960 . S
H1708 C1700 0.930 . S
H1709 C1701 0.929 . S
H1710 C1718 0.929 . S
H1711 C1720 0.930 . S
H1712 C1722 0.930 1_655 S
H1713 C1725 0.929 1_655 S
H1714 C1728 0.930 . S
H1715 C1730 0.938 1_655 S
H1716 C1730 0.960 . S
H1717 C1730 0.960 1_655 S
C1718 H1710 0.929 . S
C1718 C1719 1.377 . S
C1718 C1720 1.384 . S
C1719 C1718 1.377 . S
C1719 C1725 1.390 . S
C1720 H1711 0.930 . S
C1720 C1718 1.384 . S
C1720 C1721 1.372 . S
C1721 C1720 1.372 . S
C1721 C1722 1.400 . S
C1721 C1726 1.490 . S
C1722 H1712 0.930 1_455 S
C1722 C1721 1.400 . S
C1722 C1725 1.386 . S
H1723 C1739 0.981 . S
H1724 C1740 0.929 1_655 S
C1725 H1713 0.929 1_455 S
C1725 C1719 1.390 . S
C1725 C1722 1.386 . S
C1726 C1721 1.490 . S
C1726 C1728 1.395 . S
C1726 C1729 1.403 . S
H1727 C1733 0.930 . S
C1728 H1714 0.930 . S
C1728 C1726 1.395 . S
C1728 C1731 1.403 . S
C1729 C1726 1.403 . S
C1729 C1730 1.524 . S
C1729 C1733 1.400 . S
C1730 H1715 0.938 1_455 S
C1730 H1716 0.960 . S
C1730 H1717 0.960 1_455 S
C1730 C1729 1.524 . S
C1731 C1728 1.403 . S
C1731 C1732 1.392 . S
C1731 C1735 1.495 . S
C1732 C1731 1.392 . S
C1732 C1733 1.385 . S
C1732 C1734 1.478 . S
C1733 H1727 0.930 . S
C1733 C1729 1.400 . S
C1733 C1732 1.385 . S
C1734 C1732 1.478 . S
C1734 C1736 1.381 . S
C1734 C1740 1.387 . S
C1735 C1731 1.495 . S
C1735 H1741 0.959 . S
C1735 H1742 0.961 . S
C1735 H1743 0.960 . S
C1736 C1734 1.381 . S
C1736 C1737 1.394 . S
C1736 H1744 0.930 . S
C1737 C1736 1.394 . S
C1737 C1738 1.383 . S
C1737 H1745 0.929 . S
C1738 C1737 1.383 . S
C1738 C1739 1.350 1_455 S
C1739 H1723 0.981 . S
C1739 C1738 1.350 1_655 S
C1739 C1740 1.356 1_655 S
C1740 H1724 0.929 1_455 S
C1740 C1734 1.387 . S
C1740 C1739 1.356 1_455 S
H1741 C1735 0.959 . S
H1742 C1735 0.961 . S
H1743 C1735 0.960 . S
H1744 C1736 0.930 . S
H1745 C1737 0.929 . S
H1746 C1754 0.929 . S
H1747 C1756 0.911 1_556 S
H1748 C1758 0.924 1_556 S
H1749 C1761 0.929 . S
H1750 C1764 0.930 . S
H1751 C1766 0.960 . S
H1752 C1766 0.960 . S
H1753 C1766 0.960 . S
C1754 H1746 0.929 . S
C1754 C1755 1.377 . S
C1754 C1756 1.441 . S
C1755 C1754 1.377 . S
C1755 C1761 1.390 . S
C1756 H1747 0.911 1_554 S
C1756 C1754 1.441 . S
C1756 C1757 1.339 1_554 S
C1757 C1756 1.339 1_556 S
C1757 C1758 1.396 1_556 S
C1757 C1762 1.490 . S
C1758 H1748 0.924 1_554 S
C1758 C1757 1.396 1_554 S
C1758 C1761 1.396 . S
H1759 C1775 0.930 . S
H1760 C1776 0.931 . S
C1761 H1749 0.929 . S
C1761 C1755 1.390 . S
C1761 C1758 1.396 . S
C1762 C1757 1.490 . S
C1762 C1764 1.395 . S
C1762 C1765 1.403 . S
H1763 C1769 0.930 . S
C1764 H1750 0.930 . S
C1764 C1762 1.395 . S
C1764 C1767 1.403 . S
C1765 C1762 1.403 . S
C1765 C1766 1.524 . S
C1765 C1769 1.400 . S
C1766 H1751 0.960 . S
C1766 H1752 0.960 . S
C1766 H1753 0.960 . S
C1766 C1765 1.524 . S
C1767 C1764 1.403 . S
C1767 C1768 1.392 . S
C1767 C1771 1.495 . S
C1768 C1767 1.392 . S
C1768 C1769 1.385 . S
C1768 C1770 1.478 . S
C1769 H1763 0.930 . S
C1769 C1765 1.400 . S
C1769 C1768 1.385 . S
C1770 C1768 1.478 . S
C1770 C1772 1.381 . S
C1770 C1776 1.383 . S
C1771 C1767 1.495 . S
C1771 H1777 0.959 . S
C1771 H1778 0.961 . S
C1771 H1779 0.960 . S
C1772 C1770 1.381 . S
C1772 C1773 1.394 . S
C1772 H1780 0.930 . S
C1773 C1772 1.394 . S
C1773 C1774 1.383 . S
C1773 H1781 0.929 . S
C1774 C1773 1.383 . S
C1774 C1775 1.377 . S
C1775 H1759 0.930 . S
C1775 C1774 1.377 . S
C1775 C1776 1.379 . S
C1776 H1760 0.931 . S
C1776 C1770 1.383 . S
C1776 C1775 1.379 . S
H1777 C1771 0.959 . S
H1778 C1771 0.961 . S
H1779 C1771 0.960 . S
H1780 C1772 0.930 . S
H1781 C1773 0.929 . S
H1782 C1790 0.929 . S
H1783 C1792 0.930 . S
H1784 C1794 0.930 . S
H1785 C1797 0.931 . S
H1786 C1800 0.930 . S
H1787 C1802 0.960 . S
H1788 C1802 0.960 . S
H1789 C1802 0.960 . S
C1790 H1782 0.929 . S
C1790 C1791 1.377 1_655 S
C1790 C1792 1.384 1_554 S
C1791 C1790 1.377 1_455 S
C1791 C1797 1.390 1_554 S
C1792 H1783 0.930 . S
C1792 C1790 1.384 1_556 S
C1792 C1793 1.372 1_655 S
C1793 C1792 1.372 1_455 S
C1793 C1794 1.400 . S
C1793 C1798 1.490 . S
C1794 H1784 0.930 . S
C1794 C1793 1.400 . S
C1794 C1797 1.386 . S
H1795 C1811 0.930 . S
H1796 C1812 0.931 . S
C1797 H1785 0.931 . S
C1797 C1791 1.390 1_556 S
C1797 C1794 1.386 . S
C1798 C1793 1.490 . S
C1798 C1800 1.395 1_455 S
C1798 C1801 1.403 . S
H1799 C1805 0.930 . S
C1800 H1786 0.930 . S
C1800 C1798 1.395 1_655 S
C1800 C1803 1.403 . S
C1801 C1798 1.403 . S
C1801 C1802 1.524 . S
C1801 C1805 1.400 . S
C1802 H1787 0.960 . S
C1802 H1788 0.960 . S
C1802 H1789 0.960 . S
C1802 C1801 1.524 . S
C1803 C1800 1.403 . S
C1803 C1804 1.315 1_655 S
C1803 C1807 1.495 . S
C1804 C1803 1.315 1_455 S
C1804 C1805 1.438 . S
C1804 C1806 1.510 . S
C1805 H1799 0.930 . S
C1805 C1801 1.400 . S
C1805 C1804 1.438 . S
C1806 C1804 1.510 . S
C1806 C1808 1.382 1_455 S
C1806 C1812 1.380 . S
C1807 C1803 1.495 . S
C1807 H1813 0.959 . S
C1807 H1814 0.961 . S
C1807 H1815 0.960 . S
C1808 C1806 1.382 1_655 S
C1808 C1809 1.394 . S
C1808 H1816 0.930 . S
C1809 C1808 1.394 . S
C1809 C1810 1.380 . S
C1809 H1817 0.929 . S
C1810 C1809 1.380 . S
C1810 C1811 1.378 1_655 S
C1811 H1795 0.930 . S
C1811 C1810 1.378 1_455 S
C1811 C1812 1.379 . S
C1812 H1796 0.931 . S
C1812 C1806 1.380 . S
C1812 C1811 1.379 . S
H1813 C1807 0.959 . S
H1814 C1807 0.961 . S
H1815 C1807 0.960 . S
H1816 C1808 0.930 . S
H1817 C1809 0.929 . S
H1818 C1826 0.929 . S
H1819 C1828 0.930 . S
H1820 C1830 0.930 . S
H1821 C1833 0.929 . S
H1822 C1836 0.930 . S
H1823 C1838 0.960 . S
H1824 C1838 0.960 . S
H1825 C1838 0.960 . S
C1826 H1818 0.929 . S
C1826 C1827 1.377 . S
C1826 C1828 1.384 . S
C1827 C1826 1.377 . S
C1827 C1833 1.390 . S
C1828 H1819 0.930 . S
C1828 C1826 1.384 . S
C1828 C1829 1.372 . S
C1829 C1828 1.372 . S
C1829 C1830 1.400 . S
C1829 C1834 1.490 . S
C1830 H1820 0.930 . S
C1830 C1829 1.400 . S
C1830 C1833 1.386 . S
H1831 C1847 0.930 . S
H1832 C1848 0.931 . S
C1833 H1821 0.929 . S
C1833 C1827 1.390 . S
C1833 C1830 1.386 . S
C1834 C1829 1.490 . S
C1834 C1836 1.395 . S
C1834 C1837 1.403 . S
H1835 C1841 0.930 . S
C1836 H1822 0.930 . S
C1836 C1834 1.395 . S
C1836 C1839 1.403 . S
C1837 C1834 1.403 . S
C1837 C1838 1.524 . S
C1837 C1841 1.400 . S
C1838 H1823 0.960 . S
C1838 H1824 0.960 . S
C1838 H1825 0.960 . S
C1838 C1837 1.524 . S
C1839 C1836 1.403 . S
C1839 C1840 1.392 . S
C1839 C1843 1.495 . S
C1840 C1839 1.392 . S
C1840 C1841 1.385 . S
C1840 C1842 1.478 . S
C1841 H1835 0.930 . S
C1841 C1837 1.400 . S
C1841 C1840 1.385 . S
C1842 C1840 1.478 . S
C1842 C1844 1.381 . S
C1842 C1848 1.383 . S
C1843 C1839 1.495 . S
C1843 H1849 0.959 . S
C1843 H1850 0.961 . S
C1843 H1851 0.960 . S
C1844 C1842 1.381 . S
C1844 C1845 1.394 . S
C1844 H1852 0.930 . S
C1845 C1844 1.394 . S
C1845 C1846 1.383 . S
C1845 H1853 0.929 . S
C1846 C1845 1.383 . S
C1846 C1847 1.377 . S
C1847 H1831 0.930 . S
C1847 C1846 1.377 . S
C1847 C1848 1.379 . S
C1848 H1832 0.931 . S
C1848 C1842 1.383 . S
C1848 C1847 1.379 . S
H1849 C1843 0.959 . S
H1850 C1843 0.961 . S
H1851 C1843 0.960 . S
H1852 C1844 0.930 . S
H1853 C1845 0.929 . S
H1854 C1862 0.929 . S
H1855 C1864 0.930 . S
H1856 C1866 0.930 . S
H1857 C1869 0.929 . S
H1858 C1872 0.930 . S
H1859 C1874 0.960 . S
H1860 C1874 0.960 . S
H1861 C1874 0.960 . S
C1862 H1854 0.929 . S
C1862 C1863 1.377 1_556 S
C1862 C1864 1.384 . S
C1863 C1862 1.377 1_554 S
C1863 C1869 1.390 . S
C1864 H1855 0.930 . S
C1864 C1862 1.384 . S
C1864 C1865 1.372 . S
C1865 C1864 1.372 . S
C1865 C1866 1.400 . S
C1865 C1870 1.490 . S
C1866 H1856 0.930 . S
C1866 C1865 1.400 . S
C1866 C1869 1.386 1_556 S
H1867 C1883 0.930 . S
H1868 C1884 0.931 . S
C1869 H1857 0.929 . S
C1869 C1863 1.390 . S
C1869 C1866 1.386 1_554 S
C1870 C1865 1.490 . S
C1870 C1872 1.395 . S
C1870 C1873 1.403 1_565 S
H1871 C1877 0.930 . S
C1872 H1858 0.930 . S
C1872 C1870 1.395 . S
C1872 C1875 1.403 . S
C1873 C1870 1.403 1_545 S
C1873 C1874 1.524 . S
C1873 C1877 1.400 . S
C1874 H1859 0.960 . S
C1874 H1860 0.960 . S
C1874 H1861 0.960 . S
C1874 C1873 1.524 . S
C1875 C1872 1.403 . S
C1875 C1876 1.392 . S
C1875 C1879 1.495 . S
C1876 C1875 1.392 . S
C1876 C1877 1.385 1_565 S
C1876 C1878 1.478 . S
C1877 H1871 0.930 . S
C1877 C1873 1.400 . S
C1877 C1876 1.385 1_545 S
C1878 C1876 1.478 . S
C1878 C1880 1.384 . S
C1878 C1884 1.383 . S
C1879 C1875 1.495 . S
C1879 H1885 0.959 . S
C1879 H1886 0.961 . S
C1879 H1887 0.960 . S
C1880 C1878 1.384 . S
C1880 C1881 1.386 1_565 S
C1880 H1888 0.936 1_565 S
C1881 C1880 1.386 1_545 S
C1881 C1882 1.416 1_545 S
C1881 H1889 0.929 . S
C1882 C1881 1.416 1_565 S
C1882 C1883 1.393 . S
C1883 H1867 0.930 . S
C1883 C1882 1.393 . S
C1883 C1884 1.379 . S
C1884 H1868 0.931 . S
C1884 C1878 1.383 . S
C1884 C1883 1.379 . S
H1885 C1879 0.959 . S
H1886 C1879 0.961 . S
H1887 C1879 0.960 . S
H1888 C1880 0.936 1_545 S
H1889 C1881 0.929 . S
H1890 C1898 0.929 . S
H1891 C1900 0.930 . S
H1892 C1902 0.930 . S
H1893 C1905 0.929 . S
H1894 C1908 0.930 . S
H1895 C1910 0.960 . S
H1896 C1910 0.951 1_545 S
H1897 C1910 0.960 . S
C1898 H1890 0.929 . S
C1898 C1899 1.377 . S
C1898 C1900 1.384 . S
C1899 C1898 1.377 . S
C1899 C1905 1.390 1_545 S
C1900 H1891 0.930 . S
C1900 C1898 1.384 . S
C1900 C1901 1.372 . S
C1901 C1900 1.372 . S
C1901 C1902 1.400 1_545 S
C1901 C1906 1.490 . S
C1902 H1892 0.930 . S
C1902 C1901 1.400 1_565 S
C1902 C1905 1.386 . S
H1903 C1919 0.930 . S
H1904 C1920 0.931 . S
C1905 H1893 0.929 . S
C1905 C1899 1.390 1_565 S
C1905 C1902 1.386 . S
C1906 C1901 1.490 . S
C1906 C1908 1.395 . S
C1906 C1909 1.407 1_545 S
H1907 C1913 0.978 . S
C1908 H1894 0.930 . S
C1908 C1906 1.395 . S
C1908 C1911 1.403 . S
C1909 C1906 1.407 1_565 S
C1909 C1910 1.517 . S
C1909 C1913 1.425 . S
C1910 H1895 0.960 . S
C1910 H1896 0.951 1_565 S
C1910 H1897 0.960 . S
C1910 C1909 1.517 . S
C1911 C1908 1.403 . S
C1911 C1912 1.392 . S
C1911 C1915 1.495 . S
C1912 C1911 1.392 . S
C1912 C1913 1.321 1_545 S
C1912 C1914 1.478 . S
C1913 H1907 0.978 . S
C1913 C1909 1.425 . S
C1913 C1912 1.321 1_565 S
C1914 C1912 1.478 . S
C1914 C1916 1.381 . S
C1914 C1920 1.383 1_545 S
C1915 C1911 1.495 . S
C1915 H1921 0.959 . S
C1915 H1922 0.961 . S
C1915 H1923 0.960 . S
C1916 C1914 1.381 . S
C1916 C1917 1.394 . S
C1916 H1924 0.930 . S
C1917 C1916 1.394 . S
C1917 C1918 1.395 . S
C1917 H1925 0.929 . S
C1918 C1917 1.395 . S
C1918 C1919 1.363 1_545 S
C1919 H1903 0.930 . S
C1919 C1918 1.363 1_565 S
C1919 C1920 1.379 . S
C1920 H1904 0.931 . S
C1920 C1914 1.383 1_565 S
C1920 C1919 1.379 . S
H1921 C1915 0.959 . S
H1922 C1915 0.961 . S
H1923 C1915 0.960 . S
H1924 C1916 0.930 . S
H1925 C1917 0.929 . S
H1926 C1934 0.929 . S
H1927 C1936 0.930 . S
H1928 C1938 0.930 . S
H1929 C1941 0.929 . S
H1930 C1944 0.930 . S
H1931 C1946 0.960 . S
H1932 C1946 0.960 . S
H1933 C1946 0.960 . S
C1934 H1926 0.929 . S
C1934 C1935 1.377 . S
C1934 C1936 1.384 . S
C1935 C1934 1.377 . S
C1935 C1941 1.390 . S
C1936 H1927 0.930 . S
C1936 C1934 1.384 . S
C1936 C1937 1.372 . S
C1937 C1936 1.372 . S
C1937 C1938 1.400 . S
C1937 C1942 1.490 . S
C1938 H1928 0.930 . S
C1938 C1937 1.400 . S
C1938 C1941 1.386 . S
H1939 C1955 0.930 . S
H1940 C1956 0.931 . S
C1941 H1929 0.929 . S
C1941 C1935 1.390 . S
C1941 C1938 1.386 . S
C1942 C1937 1.490 . S
C1942 C1944 1.395 . S
C1942 C1945 1.403 1_655 S
H1943 C1949 0.930 . S
C1944 H1930 0.930 . S
C1944 C1942 1.395 . S
C1944 C1947 1.403 . S
C1945 C1942 1.403 1_455 S
C1945 C1946 1.524 . S
C1945 C1949 1.400 . S
C1946 H1931 0.960 . S
C1946 H1932 0.960 . S
C1946 H1933 0.960 . S
C1946 C1945 1.524 . S
C1947 C1944 1.403 . S
C1947 C1948 1.392 . S
C1947 C1951 1.495 . S
C1948 C1947 1.392 . S
C1948 C1949 1.385 1_655 S
C1948 C1950 1.478 . S
C1949 H1943 0.930 . S
C1949 C1945 1.400 . S
C1949 C1948 1.385 1_455 S
C1950 C1948 1.478 . S
C1950 C1952 1.381 . S
C1950 C1956 1.383 . S
C1951 C1947 1.495 . S
C1951 H1957 0.959 . S
C1951 H1958 0.961 . S
C1951 H1959 0.960 . S
C1952 C1950 1.381 . S
C1952 C1953 1.394 . S
C1952 H1960 0.930 . S
C1953 C1952 1.394 . S
C1953 C1954 1.383 . S
C1953 H1961 0.929 . S
C1954 C1953 1.383 . S
C1954 C1955 1.377 . S
C1955 H1939 0.930 . S
C1955 C1954 1.377 . S
C1955 C1956 1.379 . S
C1956 H1940 0.931 . S
C1956 C1950 1.383 . S
C1956 C1955 1.379 . S
H1957 C1951 0.959 . S
H1958 C1951 0.961 . S
H1959 C1951 0.960 . S
H1960 C1952 0.930 . S
H1961 C1953 0.929 . S
H1962 C1970 0.929 . S
H1963 C1972 0.930 . S
H1964 C1974 0.930 . S
H1965 C1977 0.929 . S
H1966 C1980 0.930 . S
H1967 C1982 0.960 . S
H1968 C1982 0.960 . S
H1969 C1982 0.960 . S
C1970 H1962 0.929 . S
C1970 C1971 1.377 . S
C1970 C1972 1.384 . S
C1971 C1970 1.377 . S
C1971 C1977 1.390 . S
C1972 H1963 0.930 . S
C1972 C1970 1.384 . S
C1972 C1973 1.372 . S
C1973 C1972 1.372 . S
C1973 C1974 1.400 . S
C1973 C1978 1.490 . S
C1974 H1964 0.930 . S
C1974 C1973 1.400 . S
C1974 C1977 1.386 . S
H1975 C1991 0.930 . S
H1976 C1992 0.931 . S
C1977 H1965 0.929 . S
C1977 C1971 1.390 . S
C1977 C1974 1.386 . S
C1978 C1973 1.490 . S
C1978 C1980 1.395 . S
C1978 C1981 1.403 . S
H1979 C1985 0.930 . S
C1980 H1966 0.930 . S
C1980 C1978 1.395 . S
C1980 C1983 1.403 . S
C1981 C1978 1.403 . S
C1981 C1982 1.524 . S
C1981 C1985 1.400 . S
C1982 H1967 0.960 . S
C1982 H1968 0.960 . S
C1982 H1969 0.960 . S
C1982 C1981 1.524 . S
C1983 C1980 1.403 . S
C1983 C1984 1.392 . S
C1983 C1987 1.495 . S
C1984 C1983 1.392 . S
C1984 C1985 1.385 . S
C1984 C1986 1.478 . S
C1985 H1979 0.930 . S
C1985 C1981 1.400 . S
C1985 C1984 1.385 . S
C1986 C1984 1.478 . S
C1986 C1988 1.381 . S
C1986 C1992 1.383 . S
C1987 C1983 1.495 . S
C1987 H1993 0.959 . S
C1987 H1994 0.961 . S
C1987 H1995 0.960 . S
C1988 C1986 1.381 . S
C1988 C1989 1.394 . S
C1988 H1996 0.930 . S
C1989 C1988 1.394 . S
C1989 C1990 1.383 . S
C1989 H1997 0.929 . S
C1990 C1989 1.383 . S
C1990 C1991 1.377 . S
C1991 H1975 0.930 . S
C1991 C1990 1.377 . S
C1991 C1992 1.379 . S
C1992 H1976 0.931 . S
C1992 C1986 1.383 . S
C1992 C1991 1.379 . S
H1993 C1987 0.959 . S
H1994 C1987 0.961 . S
H1995 C1987 0.960 . S
H1996 C1988 0.930 . S
H1997 C1989 0.929 . S
H1998 C2006 0.929 . S
H1999 C2008 0.930 . S
H2000 C2010 0.930 . S
H2001 C2013 0.929 . S
H2002 C2016 0.930 . S
H2003 C2018 0.960 . S
H2004 C2018 0.960 . S
H2005 C2018 0.960 . S
C2006 H1998 0.929 . S
C2006 C2007 1.377 . S
C2006 C2008 1.384 . S
C2007 C2006 1.377 . S
C2007 C2013 1.390 . S
C2008 H1999 0.930 . S
C2008 C2006 1.384 . S
C2008 C2009 1.372 . S
C2009 C2008 1.372 . S
C2009 C2010 1.400 . S
C2009 C2014 1.490 . S
C2010 H2000 0.930 . S
C2010 C2009 1.400 . S
C2010 C2013 1.386 . S
H2011 C2027 0.930 . S
H2012 C2028 0.931 . S
C2013 H2001 0.929 . S
C2013 C2007 1.390 . S
C2013 C2010 1.386 . S
C2014 C2009 1.490 . S
C2014 C2016 1.395 . S
C2014 C2017 1.403 . S
H2015 C2021 0.930 . S
C2016 H2002 0.930 . S
C2016 C2014 1.395 . S
C2016 C2019 1.403 . S
C2017 C2014 1.403 . S
C2017 C2018 1.524 . S
C2017 C2021 1.400 . S
C2018 H2003 0.960 . S
C2018 H2004 0.960 . S
C2018 H2005 0.960 . S
C2018 C2017 1.524 . S
C2019 C2016 1.403 . S
C2019 C2020 1.392 . S
C2019 C2023 1.495 . S
C2020 C2019 1.392 . S
C2020 C2021 1.385 . S
C2020 C2022 1.478 . S
C2021 H2015 0.930 . S
C2021 C2017 1.400 . S
C2021 C2020 1.385 . S
C2022 C2020 1.478 . S
C2022 C2024 1.381 . S
C2022 C2028 1.383 . S
C2023 C2019 1.495 . S
C2023 H2029 0.959 . S
C2023 H2030 0.961 . S
C2023 H2031 0.960 . S
C2024 C2022 1.381 . S
C2024 C2025 1.394 . S
C2024 H2032 0.930 . S
C2025 C2024 1.394 . S
C2025 C2026 1.383 . S
C2025 H2033 0.929 . S
C2026 C2025 1.383 . S
C2026 C2027 1.377 . S
C2027 H2011 0.930 . S
C2027 C2026 1.377 . S
C2027 C2028 1.379 . S
C2028 H2012 0.931 . S
C2028 C2022 1.383 . S
C2028 C2027 1.379 . S
H2029 C2023 0.959 . S
H2030 C2023 0.961 . S
H2031 C2023 0.960 . S
H2032 C2024 0.930 . S
H2033 C2025 0.929 . S
H2034 C2042 0.929 . S
H2035 C2044 0.930 . S
H2036 C2046 0.930 . S
H2037 C2049 0.929 . S
H2038 C2052 0.930 . S
H2039 C2054 0.960 . S
H2040 C2054 0.960 . S
H2041 C2054 0.960 . S
C2042 H2034 0.929 . S
C2042 C2043 1.377 . S
C2042 C2044 1.384 . S
C2043 C2042 1.377 . S
C2043 C2049 1.390 . S
C2044 H2035 0.930 . S
C2044 C2042 1.384 . S
C2044 C2045 1.372 . S
C2045 C2044 1.372 . S
C2045 C2046 1.400 . S
C2045 C2050 1.490 . S
C2046 H2036 0.930 . S
C2046 C2045 1.400 . S
C2046 C2049 1.386 . S
H2047 C2063 0.930 . S
H2048 C2064 0.931 . S
C2049 H2037 0.929 . S
C2049 C2043 1.390 . S
C2049 C2046 1.386 . S
C2050 C2045 1.490 . S
C2050 C2052 1.395 . S
C2050 C2053 1.403 . S
H2051 C2057 0.930 . S
C2052 H2038 0.930 . S
C2052 C2050 1.395 . S
C2052 C2055 1.403 . S
C2053 C2050 1.403 . S
C2053 C2054 1.524 . S
C2053 C2057 1.400 . S
C2054 H2039 0.960 . S
C2054 H2040 0.960 . S
C2054 H2041 0.960 . S
C2054 C2053 1.524 . S
C2055 C2052 1.403 . S
C2055 C2056 1.392 . S
C2055 C2059 1.495 . S
C2056 C2055 1.392 . S
C2056 C2057 1.385 . S
C2056 C2058 1.478 . S
C2057 H2051 0.930 . S
C2057 C2053 1.400 . S
C2057 C2056 1.385 . S
C2058 C2056 1.478 . S
C2058 C2060 1.381 . S
C2058 C2064 1.383 . S
C2059 C2055 1.495 . S
C2059 H2065 0.959 . S
C2059 H2066 0.961 . S
C2059 H2067 0.960 . S
C2060 C2058 1.381 . S
C2060 C2061 1.394 . S
C2060 H2068 0.930 . S
C2061 C2060 1.394 . S
C2061 C2062 1.383 . S
C2061 H2069 0.929 . S
C2062 C2061 1.383 . S
C2062 C2063 1.377 . S
C2063 H2047 0.930 . S
C2063 C2062 1.377 . S
C2063 C2064 1.379 . S
C2064 H2048 0.931 . S
C2064 C2058 1.383 . S
C2064 C2063 1.379 . S
H2065 C2059 0.959 . S
H2066 C2059 0.961 . S
H2067 C2059 0.960 . S
H2068 C2060 0.930 . S
H2069 C2061 0.929 . S
H2070 C2078 0.929 . S
H2071 C2080 0.930 . S
H2072 C2082 0.930 . S
H2073 C2085 0.929 . S
H2074 C2088 0.930 . S
H2075 C2090 0.960 . S
H2076 C2090 0.960 . S
H2077 C2090 0.960 . S
C2078 H2070 0.929 . S
C2078 C2079 1.377 . S
C2078 C2080 1.384 . S
C2079 C2078 1.377 . S
C2079 C2085 1.390 . S
C2080 H2071 0.930 . S
C2080 C2078 1.384 . S
C2080 C2081 1.372 . S
C2081 C2080 1.372 . S
C2081 C2082 1.400 . S
C2081 C2086 1.490 . S
C2082 H2072 0.930 . S
C2082 C2081 1.400 . S
C2082 C2085 1.386 . S
H2083 C2099 0.930 . S
H2084 C2100 0.931 . S
C2085 H2073 0.929 . S
C2085 C2079 1.390 . S
C2085 C2082 1.386 . S
C2086 C2081 1.490 . S
C2086 C2088 1.395 . S
C2086 C2089 1.403 . S
H2087 C2093 0.930 . S
C2088 H2074 0.930 . S
C2088 C2086 1.395 . S
C2088 C2091 1.403 . S
C2089 C2086 1.403 . S
C2089 C2090 1.524 . S
C2089 C2093 1.400 . S
C2090 H2075 0.960 . S
C2090 H2076 0.960 . S
C2090 H2077 0.960 . S
C2090 C2089 1.524 . S
C2091 C2088 1.403 . S
C2091 C2092 1.392 . S
C2091 C2095 1.495 . S
C2092 C2091 1.392 . S
C2092 C2093 1.385 . S
C2092 C2094 1.478 . S
C2093 H2087 0.930 . S
C2093 C2089 1.400 . S
C2093 C2092 1.385 . S
C2094 C2092 1.478 . S
C2094 C2096 1.381 . S
C2094 C2100 1.383 . S
C2095 C2091 1.495 . S
C2095 H2101 0.959 . S
C2095 H2102 0.961 . S
C2095 H2103 0.960 . S
C2096 C2094 1.381 . S
C2096 C2097 1.394 . S
C2096 H2104 0.930 . S
C2097 C2096 1.394 . S
C2097 C2098 1.383 . S
C2097 H2105 0.929 . S
C2098 C2097 1.383 . S
C2098 C2099 1.377 . S
C2099 H2083 0.930 . S
C2099 C2098 1.377 . S
C2099 C2100 1.379 . S
C2100 H2084 0.931 . S
C2100 C2094 1.383 . S
C2100 C2099 1.379 . S
H2101 C2095 0.959 . S
H2102 C2095 0.961 . S
H2103 C2095 0.960 . S
H2104 C2096 0.930 . S
H2105 C2097 0.929 . S
H2106 C2114 0.929 . S
H2107 C2116 0.930 . S
H2108 C2118 0.930 . S
H2109 C2121 0.929 . S
H2110 C2124 0.930 . S
H2111 C2126 0.960 . S
H2112 C2126 0.960 . S
H2113 C2126 0.960 . S
C2114 H2106 0.929 . S
C2114 C2115 1.377 . S
C2114 C2116 1.384 . S
C2115 C2114 1.377 . S
C2115 C2121 1.390 . S
C2116 H2107 0.930 . S
C2116 C2114 1.384 . S
C2116 C2117 1.372 . S
C2117 C2116 1.372 . S
C2117 C2118 1.400 . S
C2117 C2122 1.490 . S
C2118 H2108 0.930 . S
C2118 C2117 1.400 . S
C2118 C2121 1.386 . S
H2119 C2135 0.930 . S
H2120 C2136 0.931 . S
C2121 H2109 0.929 . S
C2121 C2115 1.390 . S
C2121 C2118 1.386 . S
C2122 C2117 1.490 . S
C2122 C2124 1.395 . S
C2122 C2125 1.403 . S
H2123 C2129 0.930 . S
C2124 H2110 0.930 . S
C2124 C2122 1.395 . S
C2124 C2127 1.403 . S
C2125 C2122 1.403 . S
C2125 C2126 1.524 . S
C2125 C2129 1.400 . S
C2126 H2111 0.960 . S
C2126 H2112 0.960 . S
C2126 H2113 0.960 . S
C2126 C2125 1.524 . S
C2127 C2124 1.403 . S
C2127 C2128 1.392 . S
C2127 C2131 1.495 . S
C2128 C2127 1.392 . S
C2128 C2129 1.385 . S
C2128 C2130 1.478 . S
C2129 H2123 0.930 . S
C2129 C2125 1.400 . S
C2129 C2128 1.385 . S
C2130 C2128 1.478 . S
C2130 C2132 1.381 . S
C2130 C2136 1.383 . S
C2131 C2127 1.495 . S
C2131 H2137 0.959 . S
C2131 H2138 0.961 . S
C2131 H2139 0.960 . S
C2132 C2130 1.381 . S
C2132 C2133 1.394 . S
C2132 H2140 0.930 . S
C2133 C2132 1.394 . S
C2133 C2134 1.383 . S
C2133 H2141 0.929 . S
C2134 C2133 1.383 . S
C2134 C2135 1.377 . S
C2135 H2119 0.930 . S
C2135 C2134 1.377 . S
C2135 C2136 1.379 . S
C2136 H2120 0.931 . S
C2136 C2130 1.383 . S
C2136 C2135 1.379 . S
H2137 C2131 0.959 . S
H2138 C2131 0.961 . S
H2139 C2131 0.960 . S
H2140 C2132 0.930 . S
H2141 C2133 0.929 . S
H2142 C2150 0.929 . S
H2143 C2152 0.930 . S
H2144 C2154 0.930 . S
H2145 C2157 0.929 . S
H2146 C2160 0.930 . S
H2147 C2162 0.960 . S
H2148 C2162 0.960 . S
H2149 C2162 0.960 . S
C2150 H2142 0.929 . S
C2150 C2151 1.377 . S
C2150 C2152 1.384 . S
C2151 C2150 1.377 . S
C2151 C2157 1.390 . S
C2152 H2143 0.930 . S
C2152 C2150 1.384 . S
C2152 C2153 1.372 . S
C2153 C2152 1.372 . S
C2153 C2154 1.400 . S
C2153 C2158 1.490 . S
C2154 H2144 0.930 . S
C2154 C2153 1.400 . S
C2154 C2157 1.386 . S
H2155 C2171 0.930 . S
H2156 C2172 0.931 . S
C2157 H2145 0.929 . S
C2157 C2151 1.390 . S
C2157 C2154 1.386 . S
C2158 C2153 1.490 . S
C2158 C2160 1.395 . S
C2158 C2161 1.403 . S
H2159 C2165 0.930 . S
C2160 H2146 0.930 . S
C2160 C2158 1.395 . S
C2160 C2163 1.403 . S
C2161 C2158 1.403 . S
C2161 C2162 1.524 . S
C2161 C2165 1.400 . S
C2162 H2147 0.960 . S
C2162 H2148 0.960 . S
C2162 H2149 0.960 . S
C2162 C2161 1.524 . S
C2163 C2160 1.403 . S
C2163 C2164 1.392 . S
C2163 C2167 1.495 . S
C2164 C2163 1.392 . S
C2164 C2165 1.385 . S
C2164 C2166 1.478 . S
C2165 H2159 0.930 . S
C2165 C2161 1.400 . S
C2165 C2164 1.385 . S
C2166 C2164 1.478 . S
C2166 C2168 1.381 . S
C2166 C2172 1.383 . S
C2167 C2163 1.495 . S
C2167 H2173 0.959 . S
C2167 H2174 0.961 . S
C2167 H2175 0.960 . S
C2168 C2166 1.381 . S
C2168 C2169 1.394 . S
C2168 H2176 0.930 . S
C2169 C2168 1.394 . S
C2169 C2170 1.383 . S
C2169 H2177 0.929 . S
C2170 C2169 1.383 . S
C2170 C2171 1.377 . S
C2171 H2155 0.930 . S
C2171 C2170 1.377 . S
C2171 C2172 1.379 . S
C2172 H2156 0.931 . S
C2172 C2166 1.383 . S
C2172 C2171 1.379 . S
H2173 C2167 0.959 . S
H2174 C2167 0.961 . S
H2175 C2167 0.960 . S
H2176 C2168 0.930 . S
H2177 C2169 0.929 . S
H2178 C2186 0.929 . S
H2179 C2188 0.930 . S
H2180 C2190 0.930 . S
H2181 C2193 0.929 . S
H2182 C2196 0.930 . S
H2183 C2198 0.960 . S
H2184 C2198 0.960 . S
H2185 C2198 0.960 . S
C2186 H2178 0.929 . S
C2186 C2187 1.377 . S
C2186 C2188 1.384 . S
C2187 C2186 1.377 . S
C2187 C2193 1.390 . S
C2188 H2179 0.930 . S
C2188 C2186 1.384 . S
C2188 C2189 1.372 . S
C2189 C2188 1.372 . S
C2189 C2190 1.400 . S
C2189 C2194 1.490 . S
C2190 H2180 0.930 . S
C2190 C2189 1.400 . S
C2190 C2193 1.386 . S
H2191 C2207 0.930 . S
H2192 C2208 0.931 . S
C2193 H2181 0.929 . S
C2193 C2187 1.390 . S
C2193 C2190 1.386 . S
C2194 C2189 1.490 . S
C2194 C2196 1.395 . S
C2194 C2197 1.403 . S
H2195 C2201 0.930 . S
C2196 H2182 0.930 . S
C2196 C2194 1.395 . S
C2196 C2199 1.403 . S
C2197 C2194 1.403 . S
C2197 C2198 1.524 . S
C2197 C2201 1.400 . S
C2198 H2183 0.960 . S
C2198 H2184 0.960 . S
C2198 H2185 0.960 . S
C2198 C2197 1.524 . S
C2199 C2196 1.403 . S
C2199 C2200 1.392 . S
C2199 C2203 1.495 . S
C2200 C2199 1.392 . S
C2200 C2201 1.385 . S
C2200 C2202 1.478 . S
C2201 H2195 0.930 . S
C2201 C2197 1.400 . S
C2201 C2200 1.385 . S
C2202 C2200 1.478 . S
C2202 C2204 1.381 . S
C2202 C2208 1.383 . S
C2203 C2199 1.495 . S
C2203 H2209 0.959 . S
C2203 H2210 0.961 . S
C2203 H2211 0.960 . S
C2204 C2202 1.381 . S
C2204 C2205 1.394 . S
C2204 H2212 0.930 . S
C2205 C2204 1.394 . S
C2205 C2206 1.383 . S
C2205 H2213 0.929 . S
C2206 C2205 1.383 . S
C2206 C2207 1.377 . S
C2207 H2191 0.930 . S
C2207 C2206 1.377 . S
C2207 C2208 1.379 . S
C2208 H2192 0.931 . S
C2208 C2202 1.383 . S
C2208 C2207 1.379 . S
H2209 C2203 0.959 . S
H2210 C2203 0.961 . S
H2211 C2203 0.960 . S
H2212 C2204 0.930 . S
H2213 C2205 0.929 . S
H2214 C2222 0.929 . S
H2215 C2224 0.930 . S
H2216 C2226 0.930 . S
H2217 C2229 0.929 . S
H2218 C2232 0.930 . S
H2219 C2234 0.960 . S
H2220 C2234 0.960 . S
H2221 C2234 0.960 . S
C2222 H2214 0.929 . S
C2222 C2223 1.377 . S
C2222 C2224 1.384 . S
C2223 C2222 1.377 . S
C2223 C2229 1.390 . S
C2224 H2215 0.930 . S
C2224 C2222 1.384 . S
C2224 C2225 1.372 . S
C2225 C2224 1.372 . S
C2225 C2226 1.400 . S
C2225 C2230 1.490 . S
C2226 H2216 0.930 . S
C2226 C2225 1.400 . S
C2226 C2229 1.386 . S
H2227 C2243 0.930 . S
H2228 C2244 0.931 . S
C2229 H2217 0.929 . S
C2229 C2223 1.390 . S
C2229 C2226 1.386 . S
C2230 C2225 1.490 . S
C2230 C2232 1.395 . S
C2230 C2233 1.403 . S
H2231 C2237 0.930 . S
C2232 H2218 0.930 . S
C2232 C2230 1.395 . S
C2232 C2235 1.403 . S
C2233 C2230 1.403 . S
C2233 C2234 1.524 . S
C2233 C2237 1.400 . S
C2234 H2219 0.960 . S
C2234 H2220 0.960 . S
C2234 H2221 0.960 . S
C2234 C2233 1.524 . S
C2235 C2232 1.403 . S
C2235 C2236 1.392 . S
C2235 C2239 1.495 . S
C2236 C2235 1.392 . S
C2236 C2237 1.385 . S
C2236 C2238 1.478 . S
C2237 H2231 0.930 . S
C2237 C2233 1.400 . S
C2237 C2236 1.385 . S
C2238 C2236 1.478 . S
C2238 C2240 1.381 . S
C2238 C2244 1.383 . S
C2239 C2235 1.495 . S
C2239 H2245 0.959 . S
C2239 H2246 0.961 . S
C2239 H2247 0.960 . S
C2240 C2238 1.381 . S
C2240 C2241 1.394 . S
C2240 H2248 0.930 . S
C2241 C2240 1.394 . S
C2241 C2242 1.383 . S
C2241 H2249 0.929 . S
C2242 C2241 1.383 . S
C2242 C2243 1.377 . S
C2243 H2227 0.930 . S
C2243 C2242 1.377 . S
C2243 C2244 1.379 . S
C2244 H2228 0.931 . S
C2244 C2238 1.383 . S
C2244 C2243 1.379 . S
H2245 C2239 0.959 . S
H2246 C2239 0.961 . S
H2247 C2239 0.960 . S
H2248 C2240 0.930 . S
H2249 C2241 0.929 . S
H2250 C2258 0.929 . S
H2251 C2260 0.930 . S
H2252 C2262 0.930 . S
H2253 C2265 0.929 . S
H2254 C2268 0.930 . S
H2255 C2270 0.960 . S
H2256 C2270 0.960 . S
H2257 C2270 0.960 . S
C2258 H2250 0.929 . S
C2258 C2259 1.377 . S
C2258 C2260 1.384 . S
C2259 C2258 1.377 . S
C2259 C2265 1.390 . S
C2260 H2251 0.930 . S
C2260 C2258 1.384 . S
C2260 C2261 1.372 . S
C2261 C2260 1.372 . S
C2261 C2262 1.400 . S
C2261 C2266 1.490 . S
C2262 H2252 0.930 . S
C2262 C2261 1.400 . S
C2262 C2265 1.386 . S
H2263 C2279 0.930 . S
H2264 C2280 0.931 . S
C2265 H2253 0.929 . S
C2265 C2259 1.390 . S
C2265 C2262 1.386 . S
C2266 C2261 1.490 . S
C2266 C2268 1.395 . S
C2266 C2269 1.403 . S
H2267 C2273 0.930 . S
C2268 H2254 0.930 . S
C2268 C2266 1.395 . S
C2268 C2271 1.403 . S
C2269 C2266 1.403 . S
C2269 C2270 1.524 . S
C2269 C2273 1.400 . S
C2270 H2255 0.960 . S
C2270 H2256 0.960 . S
C2270 H2257 0.960 . S
C2270 C2269 1.524 . S
C2271 C2268 1.403 . S
C2271 C2272 1.392 . S
C2271 C2275 1.495 . S
C2272 C2271 1.392 . S
C2272 C2273 1.385 . S
C2272 C2274 1.478 . S
C2273 H2267 0.930 . S
C2273 C2269 1.400 . S
C2273 C2272 1.385 . S
C2274 C2272 1.478 . S
C2274 C2276 1.381 . S
C2274 C2280 1.383 . S
C2275 C2271 1.495 . S
C2275 H2281 0.959 . S
C2275 H2282 0.961 . S
C2275 H2283 0.960 . S
C2276 C2274 1.381 . S
C2276 C2277 1.394 . S
C2276 H2284 0.930 . S
C2277 C2276 1.394 . S
C2277 C2278 1.383 . S
C2277 H2285 0.929 . S
C2278 C2277 1.383 . S
C2278 C2279 1.377 . S
C2279 H2263 0.930 . S
C2279 C2278 1.377 . S
C2279 C2280 1.379 . S
C2280 H2264 0.931 . S
C2280 C2274 1.383 . S
C2280 C2279 1.379 . S
H2281 C2275 0.959 . S
H2282 C2275 0.961 . S
H2283 C2275 0.960 . S
H2284 C2276 0.930 . S
H2285 C2277 0.929 . S
H2286 C2294 0.929 . S
H2287 C2296 0.930 . S
H2288 C2298 0.930 . S
H2289 C2301 0.929 . S
H2290 C2304 0.930 . S
H2291 C2306 0.960 . S
H2292 C2306 0.960 . S
H2293 C2306 0.960 . S
C2294 H2286 0.929 . S
C2294 C2295 1.377 . S
C2294 C2296 1.384 . S
C2295 C2294 1.377 . S
C2295 C2301 1.390 . S
C2296 H2287 0.930 . S
C2296 C2294 1.384 . S
C2296 C2297 1.372 . S
C2297 C2296 1.372 . S
C2297 C2298 1.400 . S
C2297 C2302 1.490 . S
C2298 H2288 0.930 . S
C2298 C2297 1.400 . S
C2298 C2301 1.386 . S
H2299 C2315 0.930 . S
H2300 C2316 0.931 . S
C2301 H2289 0.929 . S
C2301 C2295 1.390 . S
C2301 C2298 1.386 . S
C2302 C2297 1.490 . S
C2302 C2304 1.395 . S
C2302 C2305 1.403 . S
H2303 C2309 0.930 . S
C2304 H2290 0.930 . S
C2304 C2302 1.395 . S
C2304 C2307 1.403 . S
C2305 C2302 1.403 . S
C2305 C2306 1.524 . S
C2305 C2309 1.400 . S
C2306 H2291 0.960 . S
C2306 H2292 0.960 . S
C2306 H2293 0.960 . S
C2306 C2305 1.524 . S
C2307 C2304 1.403 . S
C2307 C2308 1.392 . S
C2307 C2311 1.495 . S
C2308 C2307 1.392 . S
C2308 C2309 1.385 . S
C2308 C2310 1.478 . S
C2309 H2303 0.930 . S
C2309 C2305 1.400 . S
C2309 C2308 1.385 . S
C2310 C2308 1.478 . S
C2310 C2312 1.381 . S
C2310 C2316 1.383 . S
C2311 C2307 1.495 . S
C2311 H2317 0.959 . S
C2311 H2318 0.961 . S
C2311 H2319 0.960 . S
C2312 C2310 1.381 . S
C2312 C2313 1.394 . S
C2312 H2320 0.930 . S
C2313 C2312 1.394 . S
C2313 C2314 1.383 . S
C2313 H2321 0.929 . S
C2314 C2313 1.383 . S
C2314 C2315 1.377 . S
C2315 H2299 0.930 . S
C2315 C2314 1.377 . S
C2315 C2316 1.379 . S
C2316 H2300 0.931 . S
C2316 C2310 1.383 . S
C2316 C2315 1.379 . S
H2317 C2311 0.959 . S
H2318 C2311 0.961 . S
H2319 C2311 0.960 . S
H2320 C2312 0.930 . S
H2321 C2313 0.929 . S
H2322 C2330 0.929 . S
H2323 C2332 0.930 . S
H2324 C2334 0.930 . S
H2325 C2337 0.929 . S
H2326 C2340 0.930 . S
H2327 C2342 0.960 . S
H2328 C2342 0.960 . S
H2329 C2342 0.960 . S
C2330 H2322 0.929 . S
C2330 C2331 1.377 . S
C2330 C2332 1.384 . S
C2331 C2330 1.377 . S
C2331 C2337 1.390 . S
C2332 H2323 0.930 . S
C2332 C2330 1.384 . S
C2332 C2333 1.372 . S
C2333 C2332 1.372 . S
C2333 C2334 1.400 . S
C2333 C2338 1.490 . S
C2334 H2324 0.930 . S
C2334 C2333 1.400 . S
C2334 C2337 1.386 . S
H2335 C2351 0.930 . S
H2336 C2352 0.931 . S
C2337 H2325 0.929 . S
C2337 C2331 1.390 . S
C2337 C2334 1.386 . S
C2338 C2333 1.490 . S
C2338 C2340 1.395 . S
C2338 C2341 1.403 . S
H2339 C2345 0.930 . S
C2340 H2326 0.930 . S
C2340 C2338 1.395 . S
C2340 C2343 1.403 . S
C2341 C2338 1.403 . S
C2341 C2342 1.524 . S
C2341 C2345 1.400 . S
C2342 H2327 0.960 . S
C2342 H2328 0.960 . S
C2342 H2329 0.960 . S
C2342 C2341 1.524 . S
C2343 C2340 1.403 . S
C2343 C2344 1.392 . S
C2343 C2347 1.495 . S
C2344 C2343 1.392 . S
C2344 C2345 1.385 . S
C2344 C2346 1.478 . S
C2345 H2339 0.930 . S
C2345 C2341 1.400 . S
C2345 C2344 1.385 . S
C2346 C2344 1.478 . S
C2346 C2348 1.381 . S
C2346 C2352 1.383 . S
C2347 C2343 1.495 . S
C2347 H2353 0.959 . S
C2347 H2354 0.961 . S
C2347 H2355 0.960 . S
C2348 C2346 1.381 . S
C2348 C2349 1.394 . S
C2348 H2356 0.930 . S
C2349 C2348 1.394 . S
C2349 C2350 1.383 . S
C2349 H2357 0.929 . S
C2350 C2349 1.383 . S
C2350 C2351 1.377 . S
C2351 H2335 0.930 . S
C2351 C2350 1.377 . S
C2351 C2352 1.379 . S
C2352 H2336 0.931 . S
C2352 C2346 1.383 . S
C2352 C2351 1.379 . S
H2353 C2347 0.959 . S
H2354 C2347 0.961 . S
H2355 C2347 0.960 . S
H2356 C2348 0.930 . S
H2357 C2349 0.929 . S
H2358 C2366 0.929 . S
H2359 C2368 0.930 . S
H2360 C2370 0.930 . S
H2361 C2373 0.929 . S
H2362 C2376 0.930 . S
H2363 C2378 0.960 . S
H2364 C2378 0.960 . S
H2365 C2378 0.960 . S
C2366 H2358 0.929 . S
C2366 C2367 1.377 . S
C2366 C2368 1.384 . S
C2367 C2366 1.377 . S
C2367 C2373 1.390 . S
C2368 H2359 0.930 . S
C2368 C2366 1.384 . S
C2368 C2369 1.372 . S
C2369 C2368 1.372 . S
C2369 C2370 1.400 . S
C2369 C2374 1.490 . S
C2370 H2360 0.930 . S
C2370 C2369 1.400 . S
C2370 C2373 1.386 . S
H2371 C2387 0.930 . S
H2372 C2388 0.931 . S
C2373 H2361 0.929 . S
C2373 C2367 1.390 . S
C2373 C2370 1.386 . S
C2374 C2369 1.490 . S
C2374 C2376 1.395 . S
C2374 C2377 1.403 . S
H2375 C2381 0.930 . S
C2376 H2362 0.930 . S
C2376 C2374 1.395 . S
C2376 C2379 1.403 . S
C2377 C2374 1.403 . S
C2377 C2378 1.524 . S
C2377 C2381 1.400 . S
C2378 H2363 0.960 . S
C2378 H2364 0.960 . S
C2378 H2365 0.960 . S
C2378 C2377 1.524 . S
C2379 C2376 1.403 . S
C2379 C2380 1.392 . S
C2379 C2383 1.495 . S
C2380 C2379 1.392 . S
C2380 C2381 1.385 . S
C2380 C2382 1.478 . S
C2381 H2375 0.930 . S
C2381 C2377 1.400 . S
C2381 C2380 1.385 . S
C2382 C2380 1.478 . S
C2382 C2384 1.381 . S
C2382 C2388 1.383 . S
C2383 C2379 1.495 . S
C2383 H2389 0.959 . S
C2383 H2390 0.961 . S
C2383 H2391 0.960 . S
C2384 C2382 1.381 . S
C2384 C2385 1.394 . S
C2384 H2392 0.930 . S
C2385 C2384 1.394 . S
C2385 C2386 1.383 . S
C2385 H2393 0.929 . S
C2386 C2385 1.383 . S
C2386 C2387 1.377 . S
C2387 H2371 0.930 . S
C2387 C2386 1.377 . S
C2387 C2388 1.379 . S
C2388 H2372 0.931 . S
C2388 C2382 1.383 . S
C2388 C2387 1.379 . S
H2389 C2383 0.959 . S
H2390 C2383 0.961 . S
H2391 C2383 0.960 . S
H2392 C2384 0.930 . S
H2393 C2385 0.929 . S
H2394 C2402 0.929 . S
H2395 C2404 0.930 . S
H2396 C2406 0.930 . S
H2397 C2409 0.929 . S
H2398 C2412 0.930 . S
H2399 C2414 0.960 . S
H2400 C2414 0.960 . S
H2401 C2414 0.960 . S
C2402 H2394 0.929 . S
C2402 C2403 1.377 . S
C2402 C2404 1.384 . S
C2403 C2402 1.377 . S
C2403 C2409 1.390 . S
C2404 H2395 0.930 . S
C2404 C2402 1.384 . S
C2404 C2405 1.372 . S
C2405 C2404 1.372 . S
C2405 C2406 1.400 . S
C2405 C2410 1.490 . S
C2406 H2396 0.930 . S
C2406 C2405 1.400 . S
C2406 C2409 1.386 . S
H2407 C2423 0.930 . S
H2408 C2424 0.931 . S
C2409 H2397 0.929 . S
C2409 C2403 1.390 . S
C2409 C2406 1.386 . S
C2410 C2405 1.490 . S
C2410 C2412 1.395 . S
C2410 C2413 1.403 . S
H2411 C2417 0.930 . S
C2412 H2398 0.930 . S
C2412 C2410 1.395 . S
C2412 C2415 1.403 . S
C2413 C2410 1.403 . S
C2413 C2414 1.524 . S
C2413 C2417 1.400 . S
C2414 H2399 0.960 . S
C2414 H2400 0.960 . S
C2414 H2401 0.960 . S
C2414 C2413 1.524 . S
C2415 C2412 1.403 . S
C2415 C2416 1.392 . S
C2415 C2419 1.495 . S
C2416 C2415 1.392 . S
C2416 C2417 1.385 . S
C2416 C2418 1.478 . S
C2417 H2411 0.930 . S
C2417 C2413 1.400 . S
C2417 C2416 1.385 . S
C2418 C2416 1.478 . S
C2418 C2420 1.381 . S
C2418 C2424 1.383 . S
C2419 C2415 1.495 . S
C2419 H2425 0.959 . S
C2419 H2426 0.961 . S
C2419 H2427 0.960 . S
C2420 C2418 1.381 . S
C2420 C2421 1.394 . S
C2420 H2428 0.930 . S
C2421 C2420 1.394 . S
C2421 C2422 1.383 . S
C2421 H2429 0.929 . S
C2422 C2421 1.383 . S
C2422 C2423 1.377 . S
C2423 H2407 0.930 . S
C2423 C2422 1.377 . S
C2423 C2424 1.379 . S
C2424 H2408 0.931 . S
C2424 C2418 1.383 . S
C2424 C2423 1.379 . S
H2425 C2419 0.959 . S
H2426 C2419 0.961 . S
H2427 C2419 0.960 . S
H2428 C2420 0.930 . S
H2429 C2421 0.929 . S
H2430 C2438 0.929 . S
H2431 C2440 0.930 . S
H2432 C2442 0.930 . S
H2433 C2445 0.929 . S
H2434 C2448 0.930 . S
H2435 C2450 0.960 . S
H2436 C2450 0.960 . S
H2437 C2450 0.960 . S
C2438 H2430 0.929 . S
C2438 C2439 1.377 . S
C2438 C2440 1.384 . S
C2439 C2438 1.377 . S
C2439 C2445 1.390 . S
C2440 H2431 0.930 . S
C2440 C2438 1.384 . S
C2440 C2441 1.372 . S
C2441 C2440 1.372 . S
C2441 C2442 1.400 . S
C2441 C2446 1.490 . S
C2442 H2432 0.930 . S
C2442 C2441 1.400 . S
C2442 C2445 1.386 . S
H2443 C2459 0.930 . S
H2444 C2460 0.931 . S
C2445 H2433 0.929 . S
C2445 C2439 1.390 . S
C2445 C2442 1.386 . S
C2446 C2441 1.490 . S
C2446 C2448 1.395 . S
C2446 C2449 1.403 . S
H2447 C2453 0.930 . S
C2448 H2434 0.930 . S
C2448 C2446 1.395 . S
C2448 C2451 1.403 . S
C2449 C2446 1.403 . S
C2449 C2450 1.524 . S
C2449 C2453 1.400 . S
C2450 H2435 0.960 . S
C2450 H2436 0.960 . S
C2450 H2437 0.960 . S
C2450 C2449 1.524 . S
C2451 C2448 1.403 . S
C2451 C2452 1.392 . S
C2451 C2455 1.495 . S
C2452 C2451 1.392 . S
C2452 C2453 1.385 . S
C2452 C2454 1.478 . S
C2453 H2447 0.930 . S
C2453 C2449 1.400 . S
C2453 C2452 1.385 . S
C2454 C2452 1.478 . S
C2454 C2456 1.381 . S
C2454 C2460 1.383 . S
C2455 C2451 1.495 . S
C2455 H2461 0.959 . S
C2455 H2462 0.961 . S
C2455 H2463 0.960 . S
C2456 C2454 1.381 . S
C2456 C2457 1.394 . S
C2456 H2464 0.930 . S
C2457 C2456 1.394 . S
C2457 C2458 1.383 . S
C2457 H2465 0.929 . S
C2458 C2457 1.383 . S
C2458 C2459 1.377 . S
C2459 H2443 0.930 . S
C2459 C2458 1.377 . S
C2459 C2460 1.379 . S
C2460 H2444 0.931 . S
C2460 C2454 1.383 . S
C2460 C2459 1.379 . S
H2461 C2455 0.959 . S
H2462 C2455 0.961 . S
H2463 C2455 0.960 . S
H2464 C2456 0.930 . S
H2465 C2457 0.929 . S
H2466 C2474 0.929 . S
H2467 C2476 0.930 . S
H2468 C2478 0.930 . S
H2469 C2481 0.929 . S
H2470 C2484 0.930 . S
H2471 C2486 0.960 . S
H2472 C2486 0.960 . S
H2473 C2486 0.960 . S
C2474 H2466 0.929 . S
C2474 C2475 1.377 . S
C2474 C2476 1.384 . S
C2475 C2474 1.377 . S
C2475 C2481 1.390 . S
C2476 H2467 0.930 . S
C2476 C2474 1.384 . S
C2476 C2477 1.372 . S
C2477 C2476 1.372 . S
C2477 C2478 1.400 . S
C2477 C2482 1.490 . S
C2478 H2468 0.930 . S
C2478 C2477 1.400 . S
C2478 C2481 1.386 . S
H2479 C2495 0.930 . S
H2480 C2496 0.931 . S
C2481 H2469 0.929 . S
C2481 C2475 1.390 . S
C2481 C2478 1.386 . S
C2482 C2477 1.490 . S
C2482 C2484 1.395 . S
C2482 C2485 1.403 . S
H2483 C2489 0.930 . S
C2484 H2470 0.930 . S
C2484 C2482 1.395 . S
C2484 C2487 1.403 . S
C2485 C2482 1.403 . S
C2485 C2486 1.524 . S
C2485 C2489 1.400 . S
C2486 H2471 0.960 . S
C2486 H2472 0.960 . S
C2486 H2473 0.960 . S
C2486 C2485 1.524 . S
C2487 C2484 1.403 . S
C2487 C2488 1.392 . S
C2487 C2491 1.495 . S
C2488 C2487 1.392 . S
C2488 C2489 1.385 . S
C2488 C2490 1.478 . S
C2489 H2483 0.930 . S
C2489 C2485 1.400 . S
C2489 C2488 1.385 . S
C2490 C2488 1.478 . S
C2490 C2492 1.381 . S
C2490 C2496 1.383 . S
C2491 C2487 1.495 . S
C2491 H2497 0.959 . S
C2491 H2498 0.961 . S
C2491 H2499 0.960 . S
C2492 C2490 1.381 . S
C2492 C2493 1.394 . S
C2492 H2500 0.930 . S
C2493 C2492 1.394 . S
C2493 C2494 1.383 . S
C2493 H2501 0.929 . S
C2494 C2493 1.383 . S
C2494 C2495 1.377 . S
C2495 H2479 0.930 . S
C2495 C2494 1.377 . S
C2495 C2496 1.379 . S
C2496 H2480 0.931 . S
C2496 C2490 1.383 . S
C2496 C2495 1.379 . S
H2497 C2491 0.959 . S
H2498 C2491 0.961 . S
H2499 C2491 0.960 . S
H2500 C2492 0.930 . S
H2501 C2493 0.929 . S
H2502 C2510 0.929 . S
H2503 C2512 0.930 . S
H2504 C2514 0.930 . S
H2505 C2517 0.929 . S
H2506 C2520 0.930 . S
H2507 C2522 0.960 . S
H2508 C2522 0.960 . S
H2509 C2522 0.960 . S
C2510 H2502 0.929 . S
C2510 C2511 1.377 . S
C2510 C2512 1.384 . S
C2511 C2510 1.377 . S
C2511 C2517 1.390 . S
C2512 H2503 0.930 . S
C2512 C2510 1.384 . S
C2512 C2513 1.372 . S
C2513 C2512 1.372 . S
C2513 C2514 1.400 . S
C2513 C2518 1.490 . S
C2514 H2504 0.930 . S
C2514 C2513 1.400 . S
C2514 C2517 1.386 . S
H2515 C2531 0.930 . S
H2516 C2532 0.931 . S
C2517 H2505 0.929 . S
C2517 C2511 1.390 . S
C2517 C2514 1.386 . S
C2518 C2513 1.490 . S
C2518 C2520 1.395 . S
C2518 C2521 1.403 . S
H2519 C2525 0.930 . S
C2520 H2506 0.930 . S
C2520 C2518 1.395 . S
C2520 C2523 1.403 . S
C2521 C2518 1.403 . S
C2521 C2522 1.524 . S
C2521 C2525 1.400 . S
C2522 H2507 0.960 . S
C2522 H2508 0.960 . S
C2522 H2509 0.960 . S
C2522 C2521 1.524 . S
C2523 C2520 1.403 . S
C2523 C2524 1.392 . S
C2523 C2527 1.495 . S
C2524 C2523 1.392 . S
C2524 C2525 1.385 . S
C2524 C2526 1.478 . S
C2525 H2519 0.930 . S
C2525 C2521 1.400 . S
C2525 C2524 1.385 . S
C2526 C2524 1.478 . S
C2526 C2528 1.381 . S
C2526 C2532 1.383 . S
C2527 C2523 1.495 . S
C2527 H2533 0.959 . S
C2527 H2534 0.961 . S
C2527 H2535 0.960 . S
C2528 C2526 1.381 . S
C2528 C2529 1.394 . S
C2528 H2536 0.930 . S
C2529 C2528 1.394 . S
C2529 C2530 1.383 . S
C2529 H2537 0.929 . S
C2530 C2529 1.383 . S
C2530 C2531 1.377 . S
C2531 H2515 0.930 . S
C2531 C2530 1.377 . S
C2531 C2532 1.379 . S
C2532 H2516 0.931 . S
C2532 C2526 1.383 . S
C2532 C2531 1.379 . S
H2533 C2527 0.959 . S
H2534 C2527 0.961 . S
H2535 C2527 0.960 . S
H2536 C2528 0.930 . S
H2537 C2529 0.929 . S
H2538 C2546 0.929 . S
H2539 C2548 0.930 . S
H2540 C2550 0.930 . S
H2541 C2553 0.929 . S
H2542 C2556 0.930 . S
H2543 C2558 0.960 . S
H2544 C2558 0.960 . S
H2545 C2558 0.960 . S
C2546 H2538 0.929 . S
C2546 C2547 1.377 . S
C2546 C2548 1.384 . S
C2547 C2546 1.377 . S
C2547 C2553 1.390 . S
C2548 H2539 0.930 . S
C2548 C2546 1.384 . S
C2548 C2549 1.372 . S
C2549 C2548 1.372 . S
C2549 C2550 1.400 . S
C2549 C2554 1.490 . S
C2550 H2540 0.930 . S
C2550 C2549 1.400 . S
C2550 C2553 1.386 . S
H2551 C2567 0.930 . S
H2552 C2568 0.931 . S
C2553 H2541 0.929 . S
C2553 C2547 1.390 . S
C2553 C2550 1.386 . S
C2554 C2549 1.490 . S
C2554 C2556 1.395 . S
C2554 C2557 1.403 . S
H2555 C2561 0.930 . S
C2556 H2542 0.930 . S
C2556 C2554 1.395 . S
C2556 C2559 1.403 . S
C2557 C2554 1.403 . S
C2557 C2558 1.524 . S
C2557 C2561 1.400 . S
C2558 H2543 0.960 . S
C2558 H2544 0.960 . S
C2558 H2545 0.960 . S
C2558 C2557 1.524 . S
C2559 C2556 1.403 . S
C2559 C2560 1.392 . S
C2559 C2563 1.495 . S
C2560 C2559 1.392 . S
C2560 C2561 1.385 . S
C2560 C2562 1.478 . S
C2561 H2555 0.930 . S
C2561 C2557 1.400 . S
C2561 C2560 1.385 . S
C2562 C2560 1.478 . S
C2562 C2564 1.381 . S
C2562 C2568 1.383 . S
C2563 C2559 1.495 . S
C2563 H2569 0.959 . S
C2563 H2570 0.961 . S
C2563 H2571 0.960 . S
C2564 C2562 1.381 . S
C2564 C2565 1.394 . S
C2564 H2572 0.930 . S
C2565 C2564 1.394 . S
C2565 C2566 1.383 . S
C2565 H2573 0.929 . S
C2566 C2565 1.383 . S
C2566 C2567 1.377 . S
C2567 H2551 0.930 . S
C2567 C2566 1.377 . S
C2567 C2568 1.379 . S
C2568 H2552 0.931 . S
C2568 C2562 1.383 . S
C2568 C2567 1.379 . S
H2569 C2563 0.959 . S
H2570 C2563 0.961 . S
H2571 C2563 0.960 . S
H2572 C2564 0.930 . S
H2573 C2565 0.929 . S
H2574 C2582 0.929 . S
H2575 C2584 0.930 . S
H2576 C2586 0.930 . S
H2577 C2589 0.929 . S
H2578 C2592 0.930 . S
H2579 C2594 0.960 . S
H2580 C2594 0.960 . S
H2581 C2594 0.960 . S
C2582 H2574 0.929 . S
C2582 C2583 1.377 . S
C2582 C2584 1.384 . S
C2583 C2582 1.377 . S
C2583 C2589 1.390 . S
C2584 H2575 0.930 . S
C2584 C2582 1.384 . S
C2584 C2585 1.372 . S
C2585 C2584 1.372 . S
C2585 C2586 1.400 . S
C2585 C2590 1.490 . S
C2586 H2576 0.930 . S
C2586 C2585 1.400 . S
C2586 C2589 1.386 . S
H2587 C2603 0.930 . S
H2588 C2604 0.931 . S
C2589 H2577 0.929 . S
C2589 C2583 1.390 . S
C2589 C2586 1.386 . S
C2590 C2585 1.490 . S
C2590 C2592 1.395 . S
C2590 C2593 1.403 . S
H2591 C2597 0.930 . S
C2592 H2578 0.930 . S
C2592 C2590 1.395 . S
C2592 C2595 1.403 . S
C2593 C2590 1.403 . S
C2593 C2594 1.524 . S
C2593 C2597 1.400 . S
C2594 H2579 0.960 . S
C2594 H2580 0.960 . S
C2594 H2581 0.960 . S
C2594 C2593 1.524 . S
C2595 C2592 1.403 . S
C2595 C2596 1.392 . S
C2595 C2599 1.495 . S
C2596 C2595 1.392 . S
C2596 C2597 1.385 . S
C2596 C2598 1.478 . S
C2597 H2591 0.930 . S
C2597 C2593 1.400 . S
C2597 C2596 1.385 . S
C2598 C2596 1.478 . S
C2598 C2600 1.381 . S
C2598 C2604 1.383 . S
C2599 C2595 1.495 . S
C2599 H2605 0.959 . S
C2599 H2606 0.961 . S
C2599 H2607 0.960 . S
C2600 C2598 1.381 . S
C2600 C2601 1.394 . S
C2600 H2608 0.930 . S
C2601 C2600 1.394 . S
C2601 C2602 1.383 . S
C2601 H2609 0.929 . S
C2602 C2601 1.383 . S
C2602 C2603 1.377 . S
C2603 H2587 0.930 . S
C2603 C2602 1.377 . S
C2603 C2604 1.379 . S
C2604 H2588 0.931 . S
C2604 C2598 1.383 . S
C2604 C2603 1.379 . S
H2605 C2599 0.959 . S
H2606 C2599 0.961 . S
H2607 C2599 0.960 . S
H2608 C2600 0.930 . S
H2609 C2601 0.929 . S
H2610 C2618 0.929 . S
H2611 C2620 0.930 . S
H2612 C2622 0.930 . S
H2613 C2625 0.929 . S
H2614 C2628 0.930 . S
H2615 C2630 0.960 . S
H2616 C2630 0.960 . S
H2617 C2630 0.960 . S
C2618 H2610 0.929 . S
C2618 C2619 1.377 . S
C2618 C2620 1.384 . S
C2619 C2618 1.377 . S
C2619 C2625 1.390 . S
C2620 H2611 0.930 . S
C2620 C2618 1.384 . S
C2620 C2621 1.372 . S
C2621 C2620 1.372 . S
C2621 C2622 1.400 . S
C2621 C2626 1.490 . S
C2622 H2612 0.930 . S
C2622 C2621 1.400 . S
C2622 C2625 1.386 . S
H2623 C2639 0.930 . S
H2624 C2640 0.931 . S
C2625 H2613 0.929 . S
C2625 C2619 1.390 . S
C2625 C2622 1.386 . S
C2626 C2621 1.490 . S
C2626 C2628 1.395 . S
C2626 C2629 1.403 . S
H2627 C2633 0.930 . S
C2628 H2614 0.930 . S
C2628 C2626 1.395 . S
C2628 C2631 1.403 . S
C2629 C2626 1.403 . S
C2629 C2630 1.524 . S
C2629 C2633 1.400 . S
C2630 H2615 0.960 . S
C2630 H2616 0.960 . S
C2630 H2617 0.960 . S
C2630 C2629 1.524 . S
C2631 C2628 1.403 . S
C2631 C2632 1.392 . S
C2631 C2635 1.495 . S
C2632 C2631 1.392 . S
C2632 C2633 1.385 . S
C2632 C2634 1.478 . S
C2633 H2627 0.930 . S
C2633 C2629 1.400 . S
C2633 C2632 1.385 . S
C2634 C2632 1.478 . S
C2634 C2636 1.381 . S
C2634 C2640 1.383 . S
C2635 C2631 1.495 . S
C2635 H2641 0.959 . S
C2635 H2642 0.961 . S
C2635 H2643 0.960 . S
C2636 C2634 1.381 . S
C2636 C2637 1.394 . S
C2636 H2644 0.930 . S
C2637 C2636 1.394 . S
C2637 C2638 1.383 . S
C2637 H2645 0.929 . S
C2638 C2637 1.383 . S
C2638 C2639 1.377 . S
C2639 H2623 0.930 . S
C2639 C2638 1.377 . S
C2639 C2640 1.379 . S
C2640 H2624 0.931 . S
C2640 C2634 1.383 . S
C2640 C2639 1.379 . S
H2641 C2635 0.959 . S
H2642 C2635 0.961 . S
H2643 C2635 0.960 . S
H2644 C2636 0.930 . S
H2645 C2637 0.929 . S
H2646 C2654 0.929 . S
H2647 C2656 0.930 . S
H2648 C2658 0.930 . S
H2649 C2661 0.929 . S
H2650 C2664 0.930 . S
H2651 C2666 0.960 . S
H2652 C2666 0.960 . S
H2653 C2666 0.960 . S
C2654 H2646 0.929 . S
C2654 C2655 1.377 . S
C2654 C2656 1.384 . S
C2655 C2654 1.377 . S
C2655 C2661 1.390 . S
C2656 H2647 0.930 . S
C2656 C2654 1.384 . S
C2656 C2657 1.372 . S
C2657 C2656 1.372 . S
C2657 C2658 1.400 . S
C2657 C2662 1.490 . S
C2658 H2648 0.930 . S
C2658 C2657 1.400 . S
C2658 C2661 1.386 . S
H2659 C2675 0.930 . S
H2660 C2676 0.931 . S
C2661 H2649 0.929 . S
C2661 C2655 1.390 . S
C2661 C2658 1.386 . S
C2662 C2657 1.490 . S
C2662 C2664 1.395 . S
C2662 C2665 1.403 . S
H2663 C2669 0.930 . S
C2664 H2650 0.930 . S
C2664 C2662 1.395 . S
C2664 C2667 1.403 . S
C2665 C2662 1.403 . S
C2665 C2666 1.524 . S
C2665 C2669 1.400 . S
C2666 H2651 0.960 . S
C2666 H2652 0.960 . S
C2666 H2653 0.960 . S
C2666 C2665 1.524 . S
C2667 C2664 1.403 . S
C2667 C2668 1.392 . S
C2667 C2671 1.495 . S
C2668 C2667 1.392 . S
C2668 C2669 1.385 . S
C2668 C2670 1.478 . S
C2669 H2663 0.930 . S
C2669 C2665 1.400 . S
C2669 C2668 1.385 . S
C2670 C2668 1.478 . S
C2670 C2672 1.381 . S
C2670 C2676 1.383 . S
C2671 C2667 1.495 . S
C2671 H2677 0.959 . S
C2671 H2678 0.961 . S
C2671 H2679 0.960 . S
C2672 C2670 1.381 . S
C2672 C2673 1.394 . S
C2672 H2680 0.930 . S
C2673 C2672 1.394 . S
C2673 C2674 1.383 . S
C2673 H2681 0.929 . S
C2674 C2673 1.383 . S
C2674 C2675 1.377 . S
C2675 H2659 0.930 . S
C2675 C2674 1.377 . S
C2675 C2676 1.379 . S
C2676 H2660 0.931 . S
C2676 C2670 1.383 . S
C2676 C2675 1.379 . S
H2677 C2671 0.959 . S
H2678 C2671 0.961 . S
H2679 C2671 0.960 . S
H2680 C2672 0.930 . S
H2681 C2673 0.929 . S
H2682 C2690 0.929 . S
H2683 C2692 0.930 . S
H2684 C2694 0.930 . S
H2685 C2697 0.929 . S
H2686 C2700 0.930 . S
H2687 C2702 0.960 . S
H2688 C2702 0.960 . S
H2689 C2702 0.960 . S
C2690 H2682 0.929 . S
C2690 C2691 1.377 . S
C2690 C2692 1.384 . S
C2691 C2690 1.377 . S
C2691 C2697 1.390 . S
C2692 H2683 0.930 . S
C2692 C2690 1.384 . S
C2692 C2693 1.372 . S
C2693 C2692 1.372 . S
C2693 C2694 1.400 . S
C2693 C2698 1.490 . S
C2694 H2684 0.930 . S
C2694 C2693 1.400 . S
C2694 C2697 1.386 . S
H2695 C2711 0.930 . S
H2696 C2712 0.931 . S
C2697 H2685 0.929 . S
C2697 C2691 1.390 . S
C2697 C2694 1.386 . S
C2698 C2693 1.490 . S
C2698 C2700 1.395 . S
C2698 C2701 1.403 . S
H2699 C2705 0.930 . S
C2700 H2686 0.930 . S
C2700 C2698 1.395 . S
C2700 C2703 1.403 . S
C2701 C2698 1.403 . S
C2701 C2702 1.524 . S
C2701 C2705 1.400 . S
C2702 H2687 0.960 . S
C2702 H2688 0.960 . S
C2702 H2689 0.960 . S
C2702 C2701 1.524 . S
C2703 C2700 1.403 . S
C2703 C2704 1.392 . S
C2703 C2707 1.495 . S
C2704 C2703 1.392 . S
C2704 C2705 1.385 . S
C2704 C2706 1.478 . S
C2705 H2699 0.930 . S
C2705 C2701 1.400 . S
C2705 C2704 1.385 . S
C2706 C2704 1.478 . S
C2706 C2708 1.381 . S
C2706 C2712 1.383 . S
C2707 C2703 1.495 . S
C2707 H2713 0.959 . S
C2707 H2714 0.961 . S
C2707 H2715 0.960 . S
C2708 C2706 1.381 . S
C2708 C2709 1.394 . S
C2708 H2716 0.930 . S
C2709 C2708 1.394 . S
C2709 C2710 1.383 . S
C2709 H2717 0.929 . S
C2710 C2709 1.383 . S
C2710 C2711 1.377 . S
C2711 H2695 0.930 . S
C2711 C2710 1.377 . S
C2711 C2712 1.379 . S
C2712 H2696 0.931 . S
C2712 C2706 1.383 . S
C2712 C2711 1.379 . S
H2713 C2707 0.959 . S
H2714 C2707 0.961 . S
H2715 C2707 0.960 . S
H2716 C2708 0.930 . S
H2717 C2709 0.929 . S
H2718 C2726 0.929 . S
H2719 C2728 0.930 . S
H2720 C2730 0.930 . S
H2721 C2733 0.929 . S
H2722 C2736 0.930 . S
H2723 C2738 0.960 . S
H2724 C2738 0.960 . S
H2725 C2738 0.960 . S
C2726 H2718 0.929 . S
C2726 C2727 1.377 . S
C2726 C2728 1.384 . S
C2727 C2726 1.377 . S
C2727 C2733 1.390 . S
C2728 H2719 0.930 . S
C2728 C2726 1.384 . S
C2728 C2729 1.372 . S
C2729 C2728 1.372 . S
C2729 C2730 1.400 . S
C2729 C2734 1.490 . S
C2730 H2720 0.930 . S
C2730 C2729 1.400 . S
C2730 C2733 1.386 . S
H2731 C2747 0.930 . S
H2732 C2748 0.931 . S
C2733 H2721 0.929 . S
C2733 C2727 1.390 . S
C2733 C2730 1.386 . S
C2734 C2729 1.490 . S
C2734 C2736 1.395 . S
C2734 C2737 1.403 . S
H2735 C2741 0.930 . S
C2736 H2722 0.930 . S
C2736 C2734 1.395 . S
C2736 C2739 1.403 . S
C2737 C2734 1.403 . S
C2737 C2738 1.524 . S
C2737 C2741 1.400 . S
C2738 H2723 0.960 . S
C2738 H2724 0.960 . S
C2738 H2725 0.960 . S
C2738 C2737 1.524 . S
C2739 C2736 1.403 . S
C2739 C2740 1.392 . S
C2739 C2743 1.495 . S
C2740 C2739 1.392 . S
C2740 C2741 1.385 . S
C2740 C2742 1.478 . S
C2741 H2735 0.930 . S
C2741 C2737 1.400 . S
C2741 C2740 1.385 . S
C2742 C2740 1.478 . S
C2742 C2744 1.381 . S
C2742 C2748 1.383 . S
C2743 C2739 1.495 . S
C2743 H2749 0.959 . S
C2743 H2750 0.961 . S
C2743 H2751 0.960 . S
C2744 C2742 1.381 . S
C2744 C2745 1.394 . S
C2744 H2752 0.930 . S
C2745 C2744 1.394 . S
C2745 C2746 1.383 . S
C2745 H2753 0.929 . S
C2746 C2745 1.383 . S
C2746 C2747 1.377 . S
C2747 H2731 0.930 . S
C2747 C2746 1.377 . S
C2747 C2748 1.379 . S
C2748 H2732 0.931 . S
C2748 C2742 1.383 . S
C2748 C2747 1.379 . S
H2749 C2743 0.959 . S
H2750 C2743 0.961 . S
H2751 C2743 0.960 . S
H2752 C2744 0.930 . S
H2753 C2745 0.929 . S
H2754 C2762 0.929 . S
H2755 C2764 0.930 . S
H2756 C2766 0.930 . S
H2757 C2769 0.929 . S
H2758 C2772 0.930 . S
H2759 C2774 0.960 . S
H2760 C2774 0.960 . S
H2761 C2774 0.960 . S
C2762 H2754 0.929 . S
C2762 C2763 1.377 . S
C2762 C2764 1.384 . S
C2763 C2762 1.377 . S
C2763 C2769 1.390 . S
C2764 H2755 0.930 . S
C2764 C2762 1.384 . S
C2764 C2765 1.372 . S
C2765 C2764 1.372 . S
C2765 C2766 1.400 . S
C2765 C2770 1.490 . S
C2766 H2756 0.930 . S
C2766 C2765 1.400 . S
C2766 C2769 1.386 . S
H2767 C2783 0.930 . S
H2768 C2784 0.931 . S
C2769 H2757 0.929 . S
C2769 C2763 1.390 . S
C2769 C2766 1.386 . S
C2770 C2765 1.490 . S
C2770 C2772 1.395 . S
C2770 C2773 1.403 . S
H2771 C2777 0.930 . S
C2772 H2758 0.930 . S
C2772 C2770 1.395 . S
C2772 C2775 1.403 . S
C2773 C2770 1.403 . S
C2773 C2774 1.524 . S
C2773 C2777 1.400 . S
C2774 H2759 0.960 . S
C2774 H2760 0.960 . S
C2774 H2761 0.960 . S
C2774 C2773 1.524 . S
C2775 C2772 1.403 . S
C2775 C2776 1.392 . S
C2775 C2779 1.495 . S
C2776 C2775 1.392 . S
C2776 C2777 1.385 . S
C2776 C2778 1.478 . S
C2777 H2771 0.930 . S
C2777 C2773 1.400 . S
C2777 C2776 1.385 . S
C2778 C2776 1.478 . S
C2778 C2780 1.381 . S
C2778 C2784 1.383 . S
C2779 C2775 1.495 . S
C2779 H2785 0.959 . S
C2779 H2786 0.961 . S
C2779 H2787 0.960 . S
C2780 C2778 1.381 . S
C2780 C2781 1.394 . S
C2780 H2788 0.930 . S
C2781 C2780 1.394 . S
C2781 C2782 1.383 . S
C2781 H2789 0.929 . S
C2782 C2781 1.383 . S
C2782 C2783 1.377 . S
C2783 H2767 0.930 . S
C2783 C2782 1.377 . S
C2783 C2784 1.379 . S
C2784 H2768 0.931 . S
C2784 C2778 1.383 . S
C2784 C2783 1.379 . S
H2785 C2779 0.959 . S
H2786 C2779 0.961 . S
H2787 C2779 0.960 . S
H2788 C2780 0.930 . S
H2789 C2781 0.929 . S
H2790 C2798 0.929 . S
H2791 C2800 0.930 . S
H2792 C2802 0.930 . S
H2793 C2805 0.929 . S
H2794 C2808 0.930 . S
H2795 C2810 0.960 . S
H2796 C2810 0.960 . S
H2797 C2810 0.960 . S
C2798 H2790 0.929 . S
C2798 C2799 1.377 . S
C2798 C2800 1.384 . S
C2799 C2798 1.377 . S
C2799 C2805 1.390 . S
C2800 H2791 0.930 . S
C2800 C2798 1.384 . S
C2800 C2801 1.372 . S
C2801 C2800 1.372 . S
C2801 C2802 1.400 . S
C2801 C2806 1.490 . S
C2802 H2792 0.930 . S
C2802 C2801 1.400 . S
C2802 C2805 1.386 . S
H2803 C2819 0.930 . S
H2804 C2820 0.931 . S
C2805 H2793 0.929 . S
C2805 C2799 1.390 . S
C2805 C2802 1.386 . S
C2806 C2801 1.490 . S
C2806 C2808 1.395 . S
C2806 C2809 1.403 . S
H2807 C2813 0.930 . S
C2808 H2794 0.930 . S
C2808 C2806 1.395 . S
C2808 C2811 1.403 . S
C2809 C2806 1.403 . S
C2809 C2810 1.524 . S
C2809 C2813 1.400 . S
C2810 H2795 0.960 . S
C2810 H2796 0.960 . S
C2810 H2797 0.960 . S
C2810 C2809 1.524 . S
C2811 C2808 1.403 . S
C2811 C2812 1.392 . S
C2811 C2815 1.495 . S
C2812 C2811 1.392 . S
C2812 C2813 1.385 . S
C2812 C2814 1.478 . S
C2813 H2807 0.930 . S
C2813 C2809 1.400 . S
C2813 C2812 1.385 . S
C2814 C2812 1.478 . S
C2814 C2816 1.381 . S
C2814 C2820 1.383 . S
C2815 C2811 1.495 . S
C2815 H2821 0.959 . S
C2815 H2822 0.961 . S
C2815 H2823 0.960 . S
C2816 C2814 1.381 . S
C2816 C2817 1.394 . S
C2816 H2824 0.930 . S
C2817 C2816 1.394 . S
C2817 C2818 1.383 . S
C2817 H2825 0.929 . S
C2818 C2817 1.383 . S
C2818 C2819 1.377 . S
C2819 H2803 0.930 . S
C2819 C2818 1.377 . S
C2819 C2820 1.379 . S
C2820 H2804 0.931 . S
C2820 C2814 1.383 . S
C2820 C2819 1.379 . S
H2821 C2815 0.959 . S
H2822 C2815 0.961 . S
H2823 C2815 0.960 . S
H2824 C2816 0.930 . S
H2825 C2817 0.929 . S
H2826 C2834 0.929 . S
H2827 C2836 0.930 . S
H2828 C2838 0.930 . S
H2829 C2841 0.929 . S
H2830 C2844 0.930 . S
H2831 C2846 0.960 . S
H2832 C2846 0.960 . S
H2833 C2846 0.960 . S
C2834 H2826 0.929 . S
C2834 C2835 1.377 . S
C2834 C2836 1.384 . S
C2835 C2834 1.377 . S
C2835 C2841 1.390 . S
C2836 H2827 0.930 . S
C2836 C2834 1.384 . S
C2836 C2837 1.372 . S
C2837 C2836 1.372 . S
C2837 C2838 1.400 . S
C2837 C2842 1.490 . S
C2838 H2828 0.930 . S
C2838 C2837 1.400 . S
C2838 C2841 1.386 . S
H2839 C2855 0.930 . S
H2840 C2856 0.931 . S
C2841 H2829 0.929 . S
C2841 C2835 1.390 . S
C2841 C2838 1.386 . S
C2842 C2837 1.490 . S
C2842 C2844 1.395 . S
C2842 C2845 1.403 . S
H2843 C2849 0.930 . S
C2844 H2830 0.930 . S
C2844 C2842 1.395 . S
C2844 C2847 1.403 . S
C2845 C2842 1.403 . S
C2845 C2846 1.524 . S
C2845 C2849 1.400 . S
C2846 H2831 0.960 . S
C2846 H2832 0.960 . S
C2846 H2833 0.960 . S
C2846 C2845 1.524 . S
C2847 C2844 1.403 . S
C2847 C2848 1.392 . S
C2847 C2851 1.495 . S
C2848 C2847 1.392 . S
C2848 C2849 1.385 . S
C2848 C2850 1.478 . S
C2849 H2843 0.930 . S
C2849 C2845 1.400 . S
C2849 C2848 1.385 . S
C2850 C2848 1.478 . S
C2850 C2852 1.381 . S
C2850 C2856 1.383 . S
C2851 C2847 1.495 . S
C2851 H2857 0.959 . S
C2851 H2858 0.961 . S
C2851 H2859 0.960 . S
C2852 C2850 1.381 . S
C2852 C2853 1.394 . S
C2852 H2860 0.930 . S
C2853 C2852 1.394 . S
C2853 C2854 1.383 . S
C2853 H2861 0.929 . S
C2854 C2853 1.383 . S
C2854 C2855 1.377 . S
C2855 H2839 0.930 . S
C2855 C2854 1.377 . S
C2855 C2856 1.379 . S
C2856 H2840 0.931 . S
C2856 C2850 1.383 . S
C2856 C2855 1.379 . S
H2857 C2851 0.959 . S
H2858 C2851 0.961 . S
H2859 C2851 0.960 . S
H2860 C2852 0.930 . S
H2861 C2853 0.929 . S
H2862 C2870 0.929 . S
H2863 C2872 0.930 . S
H2864 C2874 0.930 . S
H2865 C2877 0.929 . S
H2866 C2880 0.930 . S
H2867 C2882 0.960 . S
H2868 C2882 0.960 . S
H2869 C2882 0.960 . S
C2870 H2862 0.929 . S
C2870 C2871 1.377 . S
C2870 C2872 1.384 . S
C2871 C2870 1.377 . S
C2871 C2877 1.390 . S
C2872 H2863 0.930 . S
C2872 C2870 1.384 . S
C2872 C2873 1.372 . S
C2873 C2872 1.372 . S
C2873 C2874 1.400 . S
C2873 C2878 1.490 . S
C2874 H2864 0.930 . S
C2874 C2873 1.400 . S
C2874 C2877 1.386 . S
H2875 C2891 0.930 . S
H2876 C2892 0.931 . S
C2877 H2865 0.929 . S
C2877 C2871 1.390 . S
C2877 C2874 1.386 . S
C2878 C2873 1.490 . S
C2878 C2880 1.395 . S
C2878 C2881 1.403 . S
H2879 C2885 0.930 . S
C2880 H2866 0.930 . S
C2880 C2878 1.395 . S
C2880 C2883 1.403 . S
C2881 C2878 1.403 . S
C2881 C2882 1.524 . S
C2881 C2885 1.400 . S
C2882 H2867 0.960 . S
C2882 H2868 0.960 . S
C2882 H2869 0.960 . S
C2882 C2881 1.524 . S
C2883 C2880 1.403 . S
C2883 C2884 1.392 . S
C2883 C2887 1.495 . S
C2884 C2883 1.392 . S
C2884 C2885 1.385 . S
C2884 C2886 1.478 . S
C2885 H2879 0.930 . S
C2885 C2881 1.400 . S
C2885 C2884 1.385 . S
C2886 C2884 1.478 . S
C2886 C2888 1.381 . S
C2886 C2892 1.383 . S
C2887 C2883 1.495 . S
C2887 H2893 0.959 . S
C2887 H2894 0.961 . S
C2887 H2895 0.960 . S
C2888 C2886 1.381 . S
C2888 C2889 1.394 . S
C2888 H2896 0.930 . S
C2889 C2888 1.394 . S
C2889 C2890 1.383 . S
C2889 H2897 0.929 . S
C2890 C2889 1.383 . S
C2890 C2891 1.377 . S
C2891 H2875 0.930 . S
C2891 C2890 1.377 . S
C2891 C2892 1.379 . S
C2892 H2876 0.931 . S
C2892 C2886 1.383 . S
C2892 C2891 1.379 . S
H2893 C2887 0.959 . S
H2894 C2887 0.961 . S
H2895 C2887 0.960 . S
H2896 C2888 0.930 . S
H2897 C2889 0.929 . S
H2898 C2906 0.929 . S
H2899 C2908 0.930 . S
H2900 C2910 0.930 . S
H2901 C2913 0.929 . S
H2902 C2916 0.930 . S
H2903 C2918 0.960 . S
H2904 C2918 0.960 . S
H2905 C2918 0.960 . S
C2906 H2898 0.929 . S
C2906 C2907 1.377 . S
C2906 C2908 1.384 . S
C2907 C2906 1.377 . S
C2907 C2913 1.390 . S
C2908 H2899 0.930 . S
C2908 C2906 1.384 . S
C2908 C2909 1.372 . S
C2909 C2908 1.372 . S
C2909 C2910 1.400 . S
C2909 C2914 1.490 . S
C2910 H2900 0.930 . S
C2910 C2909 1.400 . S
C2910 C2913 1.386 . S
H2911 C2927 0.930 . S
H2912 C2928 0.931 . S
C2913 H2901 0.929 . S
C2913 C2907 1.390 . S
C2913 C2910 1.386 . S
C2914 C2909 1.490 . S
C2914 C2916 1.395 . S
C2914 C2917 1.403 . S
H2915 C2921 0.930 . S
C2916 H2902 0.930 . S
C2916 C2914 1.395 . S
C2916 C2919 1.403 . S
C2917 C2914 1.403 . S
C2917 C2918 1.524 . S
C2917 C2921 1.400 . S
C2918 H2903 0.960 . S
C2918 H2904 0.960 . S
C2918 H2905 0.960 . S
C2918 C2917 1.524 . S
C2919 C2916 1.403 . S
C2919 C2920 1.392 . S
C2919 C2923 1.495 . S
C2920 C2919 1.392 . S
C2920 C2921 1.385 . S
C2920 C2922 1.478 . S
C2921 H2915 0.930 . S
C2921 C2917 1.400 . S
C2921 C2920 1.385 . S
C2922 C2920 1.478 . S
C2922 C2924 1.381 . S
C2922 C2928 1.383 . S
C2923 C2919 1.495 . S
C2923 H2929 0.959 . S
C2923 H2930 0.961 . S
C2923 H2931 0.960 . S
C2924 C2922 1.381 . S
C2924 C2925 1.394 . S
C2924 H2932 0.930 . S
C2925 C2924 1.394 . S
C2925 C2926 1.383 . S
C2925 H2933 0.929 . S
C2926 C2925 1.383 . S
C2926 C2927 1.377 . S
C2927 H2911 0.930 . S
C2927 C2926 1.377 . S
C2927 C2928 1.379 . S
C2928 H2912 0.931 . S
C2928 C2922 1.383 . S
C2928 C2927 1.379 . S
H2929 C2923 0.959 . S
H2930 C2923 0.961 . S
H2931 C2923 0.960 . S
H2932 C2924 0.930 . S
H2933 C2925 0.929 . S
H2934 C2942 0.929 . S
H2935 C2944 0.930 . S
H2936 C2946 0.930 . S
H2937 C2949 0.929 . S
H2938 C2952 0.930 . S
H2939 C2954 0.960 . S
H2940 C2954 0.960 . S
H2941 C2954 0.960 . S
C2942 H2934 0.929 . S
C2942 C2943 1.377 . S
C2942 C2944 1.384 . S
C2943 C2942 1.377 . S
C2943 C2949 1.390 . S
C2944 H2935 0.930 . S
C2944 C2942 1.384 . S
C2944 C2945 1.372 . S
C2945 C2944 1.372 . S
C2945 C2946 1.400 . S
C2945 C2950 1.490 . S
C2946 H2936 0.930 . S
C2946 C2945 1.400 . S
C2946 C2949 1.386 . S
H2947 C2963 0.930 . S
H2948 C2964 0.931 . S
C2949 H2937 0.929 . S
C2949 C2943 1.390 . S
C2949 C2946 1.386 . S
C2950 C2945 1.490 . S
C2950 C2952 1.395 . S
C2950 C2953 1.403 . S
H2951 C2957 0.930 . S
C2952 H2938 0.930 . S
C2952 C2950 1.395 . S
C2952 C2955 1.403 . S
C2953 C2950 1.403 . S
C2953 C2954 1.524 . S
C2953 C2957 1.400 . S
C2954 H2939 0.960 . S
C2954 H2940 0.960 . S
C2954 H2941 0.960 . S
C2954 C2953 1.524 . S
C2955 C2952 1.403 . S
C2955 C2956 1.392 . S
C2955 C2959 1.495 . S
C2956 C2955 1.392 . S
C2956 C2957 1.385 . S
C2956 C2958 1.478 . S
C2957 H2951 0.930 . S
C2957 C2953 1.400 . S
C2957 C2956 1.385 . S
C2958 C2956 1.478 . S
C2958 C2960 1.381 . S
C2958 C2964 1.383 . S
C2959 C2955 1.495 . S
C2959 H2965 0.959 . S
C2959 H2966 0.961 . S
C2959 H2967 0.960 . S
C2960 C2958 1.381 . S
C2960 C2961 1.394 . S
C2960 H2968 0.930 . S
C2961 C2960 1.394 . S
C2961 C2962 1.383 . S
C2961 H2969 0.929 . S
C2962 C2961 1.383 . S
C2962 C2963 1.377 . S
C2963 H2947 0.930 . S
C2963 C2962 1.377 . S
C2963 C2964 1.379 . S
C2964 H2948 0.931 . S
C2964 C2958 1.383 . S
C2964 C2963 1.379 . S
H2965 C2959 0.959 . S
H2966 C2959 0.961 . S
H2967 C2959 0.960 . S
H2968 C2960 0.930 . S
H2969 C2961 0.929 . S
H2970 C2978 0.929 . S
H2971 C2980 0.930 . S
H2972 C2982 0.930 . S
H2973 C2985 0.929 . S
H2974 C2988 0.930 . S
H2975 C2990 0.960 1_556 S
H2976 C2990 0.956 . S
H2977 C2990 0.961 1_556 S
C2978 H2970 0.929 . S
C2978 C2979 1.377 . S
C2978 C2980 1.384 . S
C2979 C2978 1.377 . S
C2979 C2985 1.390 1_554 S
C2980 H2971 0.930 . S
C2980 C2978 1.384 . S
C2980 C2981 1.372 1_554 S
C2981 C2980 1.372 1_556 S
C2981 C2982 1.400 . S
C2981 C2986 1.490 . S
C2982 H2972 0.930 . S
C2982 C2981 1.400 . S
C2982 C2985 1.386 . S
H2983 C2999 0.930 . S
H2984 C3000 0.931 . S
C2985 H2973 0.929 . S
C2985 C2979 1.390 1_556 S
C2985 C2982 1.386 . S
C2986 C2981 1.490 . S
C2986 C2988 1.395 . S
C2986 C2989 1.403 . S
H2987 C2993 0.930 . S
C2988 H2974 0.930 . S
C2988 C2986 1.395 . S
C2988 C2991 1.403 . S
C2989 C2986 1.403 . S
C2989 C2990 1.527 1_556 S
C2989 C2993 1.400 . S
C2990 H2975 0.960 1_554 S
C2990 H2976 0.956 . S
C2990 H2977 0.961 1_554 S
C2990 C2989 1.527 1_554 S
C2991 C2988 1.403 . S
C2991 C2992 1.392 . S
C2991 C2995 1.495 . S
C2992 C2991 1.392 . S
C2992 C2993 1.385 . S
C2992 C2994 1.478 . S
C2993 H2987 0.930 . S
C2993 C2989 1.400 . S
C2993 C2992 1.385 . S
C2994 C2992 1.478 . S
C2994 C2996 1.381 . S
C2994 C3000 1.383 . S
C2995 C2991 1.495 . S
C2995 H3001 0.959 . S
C2995 H3002 0.961 . S
C2995 H3003 0.960 . S
C2996 C2994 1.381 . S
C2996 C2997 1.394 . S
C2996 H3004 0.930 . S
C2997 C2996 1.394 . S
C2997 C2998 1.383 . S
C2997 H3005 0.929 . S
C2998 C2997 1.383 . S
C2998 C2999 1.377 . S
C2999 H2983 0.930 . S
C2999 C2998 1.377 . S
C2999 C3000 1.379 . S
C3000 H2984 0.931 . S
C3000 C2994 1.383 . S
C3000 C2999 1.379 . S
H3001 C2995 0.959 . S
H3002 C2995 0.961 . S
H3003 C2995 0.960 . S
H3004 C2996 0.930 . S
H3005 C2997 0.929 . S
H3006 C3014 0.929 . S
H3007 C3016 0.930 . S
H3008 C3018 0.930 . S
H3009 C3021 0.929 . S
H3010 C3024 0.930 . S
H3011 C3026 0.960 . S
H3012 C3026 0.960 . S
H3013 C3026 0.960 . S
C3014 H3006 0.929 . S
C3014 C3015 1.377 . S
C3014 C3016 1.384 1_554 S
C3015 C3014 1.377 . S
C3015 C3021 1.390 1_554 S
C3016 H3007 0.930 . S
C3016 C3014 1.384 1_556 S
C3016 C3017 1.372 . S
C3017 C3016 1.372 . S
C3017 C3018 1.400 . S
C3017 C3022 1.490 . S
C3018 H3008 0.930 . S
C3018 C3017 1.400 . S
C3018 C3021 1.386 . S
H3019 C3035 0.930 . S
H3020 C3036 0.931 . S
C3021 H3009 0.929 . S
C3021 C3015 1.390 1_556 S
C3021 C3018 1.386 . S
C3022 C3017 1.490 . S
C3022 C3024 1.395 . S
C3022 C3025 1.403 . S
H3023 C3029 0.930 . S
C3024 H3010 0.930 . S
C3024 C3022 1.395 . S
C3024 C3027 1.403 . S
C3025 C3022 1.403 . S
C3025 C3026 1.524 . S
C3025 C3029 1.400 . S
C3026 H3011 0.960 . S
C3026 H3012 0.960 . S
C3026 H3013 0.960 . S
C3026 C3025 1.524 . S
C3027 C3024 1.403 . S
C3027 C3028 1.392 . S
C3027 C3031 1.495 . S
C3028 C3027 1.392 . S
C3028 C3029 1.385 . S
C3028 C3030 1.478 . S
C3029 H3023 0.930 . S
C3029 C3025 1.400 . S
C3029 C3028 1.385 . S
C3030 C3028 1.478 . S
C3030 C3032 1.381 . S
C3030 C3036 1.383 . S
C3031 C3027 1.495 . S
C3031 H3037 0.959 . S
C3031 H3038 0.961 . S
C3031 H3039 0.960 . S
C3032 C3030 1.381 . S
C3032 C3033 1.394 . S
C3032 H3040 0.930 . S
C3033 C3032 1.394 . S
C3033 C3034 1.383 . S
C3033 H3041 0.929 . S
C3034 C3033 1.383 . S
C3034 C3035 1.377 . S
C3035 H3019 0.930 . S
C3035 C3034 1.377 . S
C3035 C3036 1.379 . S
C3036 H3020 0.931 . S
C3036 C3030 1.383 . S
C3036 C3035 1.379 . S
H3037 C3031 0.959 . S
H3038 C3031 0.961 . S
H3039 C3031 0.960 . S
H3040 C3032 0.930 . S
H3041 C3033 0.929 . S
H3042 C3050 0.929 . S
H3043 C3052 0.930 . S
H3044 C3054 0.930 . S
H3045 C3057 0.929 . S
H3046 C3060 0.930 . S
H3047 C3062 0.960 . S
H3048 C3062 0.960 . S
H3049 C3062 0.960 . S
C3050 H3042 0.929 . S
C3050 C3051 1.377 . S
C3050 C3052 1.384 . S
C3051 C3050 1.377 . S
C3051 C3057 1.390 . S
C3052 H3043 0.930 . S
C3052 C3050 1.384 . S
C3052 C3053 1.372 . S
C3053 C3052 1.372 . S
C3053 C3054 1.400 . S
C3053 C3058 1.490 . S
C3054 H3044 0.930 . S
C3054 C3053 1.400 . S
C3054 C3057 1.386 . S
H3055 C3071 0.930 . S
H3056 C3072 0.931 . S
C3057 H3045 0.929 . S
C3057 C3051 1.390 . S
C3057 C3054 1.386 . S
C3058 C3053 1.490 . S
C3058 C3060 1.395 . S
C3058 C3061 1.403 . S
H3059 C3065 0.930 . S
C3060 H3046 0.930 . S
C3060 C3058 1.395 . S
C3060 C3063 1.403 1_554 S
C3061 C3058 1.403 . S
C3061 C3062 1.524 . S
C3061 C3065 1.400 . S
C3062 H3047 0.960 . S
C3062 H3048 0.960 . S
C3062 H3049 0.960 . S
C3062 C3061 1.524 . S
C3063 C3060 1.403 1_556 S
C3063 C3064 1.392 . S
C3063 C3067 1.495 . S
C3064 C3063 1.392 . S
C3064 C3065 1.385 1_556 S
C3064 C3066 1.478 . S
C3065 H3059 0.930 . S
C3065 C3061 1.400 . S
C3065 C3064 1.385 1_554 S
C3066 C3064 1.478 . S
C3066 C3068 1.381 . S
C3066 C3072 1.383 . S
C3067 C3063 1.495 . S
C3067 H3073 0.959 . S
C3067 H3074 0.961 . S
C3067 H3075 0.960 . S
C3068 C3066 1.381 . S
C3068 C3069 1.394 . S
C3068 H3076 0.930 1_556 S
C3069 C3068 1.394 . S
C3069 C3070 1.383 . S
C3069 H3077 0.929 . S
C3070 C3069 1.383 . S
C3070 C3071 1.377 . S
C3071 H3055 0.930 . S
C3071 C3070 1.377 . S
C3071 C3072 1.379 . S
C3072 H3056 0.931 . S
C3072 C3066 1.383 . S
C3072 C3071 1.379 . S
H3073 C3067 0.959 . S
H3074 C3067 0.961 . S
H3075 C3067 0.960 . S
H3076 C3068 0.930 1_554 S
H3077 C3069 0.929 . S
H3078 C3086 0.929 . S
H3079 C3088 0.930 . S
H3080 C3090 0.930 . S
H3081 C3093 0.929 1_556 S
H3082 C3096 0.930 1_554 S
H3083 C3098 0.960 . S
H3084 C3098 0.960 . S
H3085 C3098 0.960 . S
C3086 H3078 0.929 . S
C3086 C3087 1.377 . S
C3086 C3088 1.384 . S
C3087 C3086 1.377 . S
C3087 C3093 1.390 . S
C3088 H3079 0.930 . S
C3088 C3086 1.384 . S
C3088 C3089 1.372 1_554 S
C3089 C3088 1.372 1_556 S
C3089 C3090 1.400 . S
C3089 C3094 1.490 . S
C3090 H3080 0.930 . S
C3090 C3089 1.400 . S
C3090 C3093 1.386 1_556 S
H3091 C3107 0.930 . S
H3092 C3108 0.931 . S
C3093 H3081 0.929 1_554 S
C3093 C3087 1.390 . S
C3093 C3090 1.386 1_554 S
C3094 C3089 1.490 . S
C3094 C3096 1.395 . S
C3094 C3097 1.403 . S
H3095 C3101 0.930 . S
C3096 H3082 0.930 1_556 S
C3096 C3094 1.395 . S
C3096 C3099 1.403 . S
C3097 C3094 1.403 . S
C3097 C3098 1.524 . S
C3097 C3101 1.400 . S
C3098 H3083 0.960 . S
C3098 H3084 0.960 . S
C3098 H3085 0.960 . S
C3098 C3097 1.524 . S
C3099 C3096 1.403 . S
C3099 C3100 1.392 . S
C3099 C3103 1.495 . S
C3100 C3099 1.392 . S
C3100 C3101 1.385 . S
C3100 C3102 1.478 . S
C3101 H3095 0.930 . S
C3101 C3097 1.400 . S
C3101 C3100 1.385 . S
C3102 C3100 1.478 . S
C3102 C3104 1.381 . S
C3102 C3108 1.383 . S
C3103 C3099 1.495 . S
C3103 H3109 0.959 1_556 S
C3103 H3110 0.961 . S
C3103 H3111 0.960 . S
C3104 C3102 1.381 . S
C3104 C3105 1.394 . S
C3104 H3112 0.930 . S
C3105 C3104 1.394 . S
C3105 C3106 1.383 . S
C3105 H3113 0.929 . S
C3106 C3105 1.383 . S
C3106 C3107 1.377 . S
C3107 H3091 0.930 . S
C3107 C3106 1.377 . S
C3107 C3108 1.379 . S
C3108 H3092 0.931 . S
C3108 C3102 1.383 . S
C3108 C3107 1.379 . S
H3109 C3103 0.959 1_554 S
H3110 C3103 0.961 . S
H3111 C3103 0.960 . S
H3112 C3104 0.930 . S
H3113 C3105 0.929 . S
H3114 C3122 0.929 . S
H3115 C3124 0.930 . S
H3116 C3126 0.930 . S
H3117 C3129 0.929 . S
H3118 C3132 0.930 . S
H3119 C3134 0.960 . S
H3120 C3134 0.960 . S
H3121 C3134 0.960 . S
C3122 H3114 0.929 . S
C3122 C3123 1.377 . S
C3122 C3124 1.384 . S
C3123 C3122 1.377 . S
C3123 C3129 1.390 . S
C3124 H3115 0.930 . S
C3124 C3122 1.384 . S
C3124 C3125 1.372 . S
C3125 C3124 1.372 . S
C3125 C3126 1.400 . S
C3125 C3130 1.490 . S
C3126 H3116 0.930 . S
C3126 C3125 1.400 . S
C3126 C3129 1.386 . S
H3127 C3143 0.930 . S
H3128 C3144 0.931 . S
C3129 H3117 0.929 . S
C3129 C3123 1.390 . S
C3129 C3126 1.386 . S
C3130 C3125 1.490 . S
C3130 C3132 1.395 . S
C3130 C3133 1.403 . S
H3131 C3137 0.930 . S
C3132 H3118 0.930 . S
C3132 C3130 1.395 . S
C3132 C3135 1.403 . S
C3133 C3130 1.403 . S
C3133 C3134 1.524 . S
C3133 C3137 1.400 . S
C3134 H3119 0.960 . S
C3134 H3120 0.960 . S
C3134 H3121 0.960 . S
C3134 C3133 1.524 . S
C3135 C3132 1.403 . S
C3135 C3136 1.392 . S
C3135 C3139 1.495 . S
C3136 C3135 1.392 . S
C3136 C3137 1.385 . S
C3136 C3138 1.478 . S
C3137 H3131 0.930 . S
C3137 C3133 1.400 . S
C3137 C3136 1.385 . S
C3138 C3136 1.478 . S
C3138 C3140 1.381 . S
C3138 C3144 1.383 . S
C3139 C3135 1.495 . S
C3139 H3145 0.959 . S
C3139 H3146 0.961 . S
C3139 H3147 0.960 . S
C3140 C3138 1.381 . S
C3140 C3141 1.394 . S
C3140 H3148 0.930 . S
C3141 C3140 1.394 . S
C3141 C3142 1.383 . S
C3141 H3149 0.929 . S
C3142 C3141 1.383 . S
C3142 C3143 1.377 . S
C3143 H3127 0.930 . S
C3143 C3142 1.377 . S
C3143 C3144 1.379 . S
C3144 H3128 0.931 . S
C3144 C3138 1.383 . S
C3144 C3143 1.379 . S
H3145 C3139 0.959 . S
H3146 C3139 0.961 . S
H3147 C3139 0.960 . S
H3148 C3140 0.930 . S
H3149 C3141 0.929 . S
H3150 C3158 0.929 . S
H3151 C3160 0.930 . S
H3152 C3162 0.896 1_556 S
H3153 C3165 0.929 . S
H3154 C3168 0.930 . S
H3155 C3170 0.960 . S
H3156 C3170 0.960 . S
H3157 C3170 0.960 . S
C3158 H3150 0.929 . S
C3158 C3159 1.377 . S
C3158 C3160 1.384 . S
C3159 C3158 1.377 . S
C3159 C3165 1.390 . S
C3160 H3151 0.930 . S
C3160 C3158 1.384 . S
C3160 C3161 1.372 . S
C3161 C3160 1.372 . S
C3161 C3162 1.400 . S
C3161 C3166 1.495 . S
C3162 H3152 0.896 1_554 S
C3162 C3161 1.400 . S
C3162 C3165 1.386 . S
H3163 C3179 0.930 . S
H3164 C3180 0.931 . S
C3165 H3153 0.929 . S
C3165 C3159 1.390 . S
C3165 C3162 1.386 . S
C3166 C3161 1.495 . S
C3166 C3168 1.389 1_554 S
C3166 C3169 1.403 . S
H3167 C3173 0.930 . S
C3168 H3154 0.930 . S
C3168 C3166 1.389 1_556 S
C3168 C3171 1.403 . S
C3169 C3166 1.403 . S
C3169 C3170 1.524 . S
C3169 C3173 1.400 1_554 S
C3170 H3155 0.960 . S
C3170 H3156 0.960 . S
C3170 H3157 0.960 . S
C3170 C3169 1.524 . S
C3171 C3168 1.403 . S
C3171 C3172 1.392 . S
C3171 C3175 1.495 . S
C3172 C3171 1.392 . S
C3172 C3173 1.385 . S
C3172 C3174 1.478 . S
C3173 H3167 0.930 . S
C3173 C3169 1.400 1_556 S
C3173 C3172 1.385 . S
C3174 C3172 1.478 . S
C3174 C3176 1.381 . S
C3174 C3180 1.383 . S
C3175 C3171 1.495 . S
C3175 H3181 0.959 . S
C3175 H3182 0.961 . S
C3175 H3183 0.960 . S
C3176 C3174 1.381 . S
C3176 C3177 1.394 . S
C3176 H3184 0.930 . S
C3177 C3176 1.394 . S
C3177 C3178 1.383 . S
C3177 H3185 0.929 . S
C3178 C3177 1.383 . S
C3178 C3179 1.377 . S
C3179 H3163 0.930 . S
C3179 C3178 1.377 . S
C3179 C3180 1.379 . S
C3180 H3164 0.931 . S
C3180 C3174 1.383 . S
C3180 C3179 1.379 . S
H3181 C3175 0.959 . S
H3182 C3175 0.961 . S
H3183 C3175 0.960 . S
H3184 C3176 0.930 . S
H3185 C3177 0.929 . S
H3186 C3194 0.929 . S
H3187 C3196 0.930 . S
H3188 C3198 0.930 . S
H3189 C3201 0.929 . S
H3190 C3204 0.930 . S
H3191 C3206 0.960 . S
H3192 C3206 0.960 . S
H3193 C3206 0.960 . S
C3194 H3186 0.929 . S
C3194 C3195 1.377 . S
C3194 C3196 1.384 . S
C3195 C3194 1.377 . S
C3195 C3201 1.390 . S
C3196 H3187 0.930 . S
C3196 C3194 1.384 . S
C3196 C3197 1.372 . S
C3197 C3196 1.372 . S
C3197 C3198 1.400 . S
C3197 C3202 1.490 . S
C3198 H3188 0.930 . S
C3198 C3197 1.400 . S
C3198 C3201 1.386 . S
H3199 C3215 0.930 . S
H3200 C3216 0.931 . S
C3201 H3189 0.929 . S
C3201 C3195 1.390 . S
C3201 C3198 1.386 . S
C3202 C3197 1.490 . S
C3202 C3204 1.395 . S
C3202 C3205 1.403 . S
H3203 C3209 0.930 . S
C3204 H3190 0.930 . S
C3204 C3202 1.395 . S
C3204 C3207 1.403 . S
C3205 C3202 1.403 . S
C3205 C3206 1.524 . S
C3205 C3209 1.400 . S
C3206 H3191 0.960 . S
C3206 H3192 0.960 . S
C3206 H3193 0.960 . S
C3206 C3205 1.524 . S
C3207 C3204 1.403 . S
C3207 C3208 1.392 . S
C3207 C3211 1.495 . S
C3208 C3207 1.392 . S
C3208 C3209 1.385 . S
C3208 C3210 1.478 . S
C3209 H3203 0.930 . S
C3209 C3205 1.400 . S
C3209 C3208 1.385 . S
C3210 C3208 1.478 . S
C3210 C3212 1.381 . S
C3210 C3216 1.383 . S
C3211 C3207 1.495 . S
C3211 H3217 0.959 . S
C3211 H3218 0.961 . S
C3211 H3219 0.960 . S
C3212 C3210 1.381 . S
C3212 C3213 1.394 . S
C3212 H3220 0.930 . S
C3213 C3212 1.394 . S
C3213 C3214 1.383 . S
C3213 H3221 0.929 . S
C3214 C3213 1.383 . S
C3214 C3215 1.377 . S
C3215 H3199 0.930 . S
C3215 C3214 1.377 . S
C3215 C3216 1.379 . S
C3216 H3200 0.931 . S
C3216 C3210 1.383 . S
C3216 C3215 1.379 . S
H3217 C3211 0.959 . S
H3218 C3211 0.961 . S
H3219 C3211 0.960 . S
H3220 C3212 0.930 . S
H3221 C3213 0.929 . S
H3222 C3230 0.929 . S
H3223 C3232 0.930 . S
H3224 C3234 0.930 . S
H3225 C3237 0.929 . S
H3226 C3240 0.930 . S
H3227 C3242 0.960 . S
H3228 C3242 0.960 . S
H3229 C3242 0.960 . S
C3230 H3222 0.929 . S
C3230 C3231 1.377 . S
C3230 C3232 1.384 . S
C3231 C3230 1.377 . S
C3231 C3237 1.390 . S
C3232 H3223 0.930 . S
C3232 C3230 1.384 . S
C3232 C3233 1.372 . S
C3233 C3232 1.372 . S
C3233 C3234 1.400 . S
C3233 C3238 1.490 . S
C3234 H3224 0.930 . S
C3234 C3233 1.400 . S
C3234 C3237 1.386 . S
H3235 C3251 0.930 . S
H3236 C3252 0.931 . S
C3237 H3225 0.929 . S
C3237 C3231 1.390 . S
C3237 C3234 1.386 . S
C3238 C3233 1.490 . S
C3238 C3240 1.395 . S
C3238 C3241 1.403 . S
H3239 C3245 0.930 . S
C3240 H3226 0.930 . S
C3240 C3238 1.395 . S
C3240 C3243 1.403 . S
C3241 C3238 1.403 . S
C3241 C3242 1.524 . S
C3241 C3245 1.400 . S
C3242 H3227 0.960 . S
C3242 H3228 0.960 . S
C3242 H3229 0.960 . S
C3242 C3241 1.524 . S
C3243 C3240 1.403 . S
C3243 C3244 1.392 . S
C3243 C3247 1.495 . S
C3244 C3243 1.392 . S
C3244 C3245 1.385 . S
C3244 C3246 1.478 . S
C3245 H3239 0.930 . S
C3245 C3241 1.400 . S
C3245 C3244 1.385 . S
C3246 C3244 1.478 . S
C3246 C3248 1.381 . S
C3246 C3252 1.383 . S
C3247 C3243 1.495 . S
C3247 H3253 0.959 . S
C3247 H3254 0.961 . S
C3247 H3255 0.960 . S
C3248 C3246 1.381 . S
C3248 C3249 1.394 . S
C3248 H3256 0.930 . S
C3249 C3248 1.394 . S
C3249 C3250 1.383 . S
C3249 H3257 0.929 . S
C3250 C3249 1.383 . S
C3250 C3251 1.377 . S
C3251 H3235 0.930 . S
C3251 C3250 1.377 . S
C3251 C3252 1.379 . S
C3252 H3236 0.931 . S
C3252 C3246 1.383 . S
C3252 C3251 1.379 . S
H3253 C3247 0.959 . S
H3254 C3247 0.961 . S
H3255 C3247 0.960 . S
H3256 C3248 0.930 . S
H3257 C3249 0.929 . S
H3258 C3266 0.929 . S
H3259 C3268 0.930 . S
H3260 C3270 0.930 . S
H3261 C3273 0.929 . S
H3262 C3276 0.930 . S
H3263 C3278 0.960 . S
H3264 C3278 0.960 . S
H3265 C3278 0.960 . S
C3266 H3258 0.929 . S
C3266 C3267 1.377 . S
C3266 C3268 1.384 . S
C3267 C3266 1.377 . S
C3267 C3273 1.390 . S
C3268 H3259 0.930 . S
C3268 C3266 1.384 . S
C3268 C3269 1.372 . S
C3269 C3268 1.372 . S
C3269 C3270 1.400 . S
C3269 C3274 1.490 . S
C3270 H3260 0.930 . S
C3270 C3269 1.400 . S
C3270 C3273 1.386 . S
H3271 C3287 0.930 . S
H3272 C3288 0.931 . S
C3273 H3261 0.929 . S
C3273 C3267 1.390 . S
C3273 C3270 1.386 . S
C3274 C3269 1.490 . S
C3274 C3276 1.395 . S
C3274 C3277 1.403 . S
H3275 C3281 0.930 . S
C3276 H3262 0.930 . S
C3276 C3274 1.395 . S
C3276 C3279 1.403 . S
C3277 C3274 1.403 . S
C3277 C3278 1.524 . S
C3277 C3281 1.400 . S
C3278 H3263 0.960 . S
C3278 H3264 0.960 . S
C3278 H3265 0.960 . S
C3278 C3277 1.524 . S
C3279 C3276 1.403 . S
C3279 C3280 1.392 . S
C3279 C3283 1.495 . S
C3280 C3279 1.392 . S
C3280 C3281 1.385 . S
C3280 C3282 1.478 . S
C3281 H3275 0.930 . S
C3281 C3277 1.400 . S
C3281 C3280 1.385 . S
C3282 C3280 1.478 . S
C3282 C3284 1.381 . S
C3282 C3288 1.383 . S
C3283 C3279 1.495 . S
C3283 H3289 0.959 . S
C3283 H3290 0.961 . S
C3283 H3291 0.960 . S
C3284 C3282 1.381 . S
C3284 C3285 1.394 . S
C3284 H3292 0.930 . S
C3285 C3284 1.394 . S
C3285 C3286 1.383 . S
C3285 H3293 0.929 . S
C3286 C3285 1.383 . S
C3286 C3287 1.377 . S
C3287 H3271 0.930 . S
C3287 C3286 1.377 . S
C3287 C3288 1.379 . S
C3288 H3272 0.931 . S
C3288 C3282 1.383 . S
C3288 C3287 1.379 . S
H3289 C3283 0.959 . S
H3290 C3283 0.961 . S
H3291 C3283 0.960 . S
H3292 C3284 0.930 . S
H3293 C3285 0.929 . S
H3294 C3302 0.929 . S
H3295 C3304 0.930 . S
H3296 C3306 0.930 . S
H3297 C3309 0.929 . S
H3298 C3312 0.930 . S
H3299 C3314 0.960 . S
H3300 C3314 0.960 . S
H3301 C3314 0.960 . S
C3302 H3294 0.929 . S
C3302 C3303 1.377 . S
C3302 C3304 1.384 . S
C3303 C3302 1.377 . S
C3303 C3309 1.390 . S
C3304 H3295 0.930 . S
C3304 C3302 1.384 . S
C3304 C3305 1.372 . S
C3305 C3304 1.372 . S
C3305 C3306 1.400 . S
C3305 C3310 1.490 . S
C3306 H3296 0.930 . S
C3306 C3305 1.400 . S
C3306 C3309 1.386 . S
H3307 C3323 0.930 . S
H3308 C3324 0.931 . S
C3309 H3297 0.929 . S
C3309 C3303 1.390 . S
C3309 C3306 1.386 . S
C3310 C3305 1.490 . S
C3310 C3312 1.395 . S
C3310 C3313 1.403 . S
H3311 C3317 0.930 . S
C3312 H3298 0.930 . S
C3312 C3310 1.395 . S
C3312 C3315 1.403 . S
C3313 C3310 1.403 . S
C3313 C3314 1.524 . S
C3313 C3317 1.400 . S
C3314 H3299 0.960 . S
C3314 H3300 0.960 . S
C3314 H3301 0.960 . S
C3314 C3313 1.524 . S
C3315 C3312 1.403 . S
C3315 C3316 1.392 . S
C3315 C3319 1.495 . S
C3316 C3315 1.392 . S
C3316 C3317 1.385 . S
C3316 C3318 1.478 . S
C3317 H3311 0.930 . S
C3317 C3313 1.400 . S
C3317 C3316 1.385 . S
C3318 C3316 1.478 . S
C3318 C3320 1.381 . S
C3318 C3324 1.383 . S
C3319 C3315 1.495 . S
C3319 H3325 0.959 . S
C3319 H3326 0.961 . S
C3319 H3327 0.960 . S
C3320 C3318 1.381 . S
C3320 C3321 1.394 . S
C3320 H3328 0.930 . S
C3321 C3320 1.394 . S
C3321 C3322 1.383 . S
C3321 H3329 0.929 . S
C3322 C3321 1.383 . S
C3322 C3323 1.377 . S
C3323 H3307 0.930 . S
C3323 C3322 1.377 . S
C3323 C3324 1.379 . S
C3324 H3308 0.931 . S
C3324 C3318 1.383 . S
C3324 C3323 1.379 . S
H3325 C3319 0.959 . S
H3326 C3319 0.961 . S
H3327 C3319 0.960 . S
H3328 C3320 0.930 . S
H3329 C3321 0.929 . S
H3330 C3338 0.929 . S
H3331 C3340 0.930 . S
H3332 C3342 0.930 . S
H3333 C3345 0.929 1_565 S
H3334 C3348 0.930 . S
H3335 C3350 0.960 . S
H3336 C3350 0.960 . S
H3337 C3350 0.960 . S
C3338 H3330 0.929 . S
C3338 C3339 1.377 . S
C3338 C3340 1.384 . S
C3339 C3338 1.377 . S
C3339 C3345 1.390 . S
C3340 H3331 0.930 . S
C3340 C3338 1.384 . S
C3340 C3341 1.372 . S
C3341 C3340 1.372 . S
C3341 C3342 1.400 . S
C3341 C3346 1.490 . S
C3342 H3332 0.930 . S
C3342 C3341 1.400 . S
C3342 C3345 1.386 . S
H3343 C3359 0.930 . S
H3344 C3360 0.931 . S
C3345 H3333 0.929 1_545 S
C3345 C3339 1.390 . S
C3345 C3342 1.386 . S
C3346 C3341 1.490 . S
C3346 C3348 1.395 . S
C3346 C3349 1.403 . S
H3347 C3353 0.930 . S
C3348 H3334 0.930 . S
C3348 C3346 1.395 . S
C3348 C3351 1.403 . S
C3349 C3346 1.403 . S
C3349 C3350 1.524 . S
C3349 C3353 1.400 . S
C3350 H3335 0.960 . S
C3350 H3336 0.960 . S
C3350 H3337 0.960 . S
C3350 C3349 1.524 . S
C3351 C3348 1.403 . S
C3351 C3352 1.392 . S
C3351 C3355 1.495 . S
C3352 C3351 1.392 . S
C3352 C3353 1.385 . S
C3352 C3354 1.478 . S
C3353 H3347 0.930 . S
C3353 C3349 1.400 . S
C3353 C3352 1.385 . S
C3354 C3352 1.478 . S
C3354 C3356 1.381 . S
C3354 C3360 1.383 . S
C3355 C3351 1.495 . S
C3355 H3361 0.959 . S
C3355 H3362 0.961 . S
C3355 H3363 0.960 . S
C3356 C3354 1.381 . S
C3356 C3357 1.394 . S
C3356 H3364 0.930 . S
C3357 C3356 1.394 . S
C3357 C3358 1.383 . S
C3357 H3365 0.929 . S
C3358 C3357 1.383 . S
C3358 C3359 1.377 . S
C3359 H3343 0.930 . S
C3359 C3358 1.377 . S
C3359 C3360 1.379 . S
C3360 H3344 0.931 . S
C3360 C3354 1.383 . S
C3360 C3359 1.379 . S
H3361 C3355 0.959 . S
H3362 C3355 0.961 . S
H3363 C3355 0.960 . S
H3364 C3356 0.930 . S
H3365 C3357 0.929 . S
H3366 C3374 0.929 . S
H3367 C3376 0.930 . S
H3368 C3378 0.930 . S
H3369 C3381 0.909 . S
H3370 C3384 0.930 . S
H3371 C3386 0.960 . S
H3372 C3386 0.960 . S
H3373 C3386 0.960 . S
C3374 H3366 0.929 . S
C3374 C3375 1.377 . S
C3374 C3376 1.384 1_455 S
C3375 C3374 1.377 . S
C3375 C3381 1.363 1_455 S
C3376 H3367 0.930 . S
C3376 C3374 1.384 1_655 S
C3376 C3377 1.372 . S
C3377 C3376 1.372 . S
C3377 C3378 1.400 . S
C3377 C3382 1.490 . S
C3378 H3368 0.930 . S
C3378 C3377 1.400 . S
C3378 C3381 1.443 . S
H3379 C3395 0.930 . S
H3380 C3396 0.931 . S
C3381 H3369 0.909 . S
C3381 C3375 1.363 1_655 S
C3381 C3378 1.443 . S
C3382 C3377 1.490 . S
C3382 C3384 1.395 . S
C3382 C3385 1.403 . S
H3383 C3389 0.930 . S
C3384 H3370 0.930 . S
C3384 C3382 1.395 . S
C3384 C3387 1.403 . S
C3385 C3382 1.403 . S
C3385 C3386 1.524 . S
C3385 C3389 1.400 . S
C3386 H3371 0.960 . S
C3386 H3372 0.960 . S
C3386 H3373 0.960 . S
C3386 C3385 1.524 . S
C3387 C3384 1.403 . S
C3387 C3388 1.392 . S
C3387 C3391 1.495 . S
C3388 C3387 1.392 . S
C3388 C3389 1.385 . S
C3388 C3390 1.478 . S
C3389 H3383 0.930 . S
C3389 C3385 1.400 . S
C3389 C3388 1.385 . S
C3390 C3388 1.478 . S
C3390 C3392 1.381 . S
C3390 C3396 1.383 . S
C3391 C3387 1.495 . S
C3391 H3397 0.959 . S
C3391 H3398 0.961 . S
C3391 H3399 0.960 . S
C3392 C3390 1.381 . S
C3392 C3393 1.394 . S
C3392 H3400 0.930 . S
C3393 C3392 1.394 . S
C3393 C3394 1.383 . S
C3393 H3401 0.929 . S
C3394 C3393 1.383 . S
C3394 C3395 1.377 . S
C3395 H3379 0.930 . S
C3395 C3394 1.377 . S
C3395 C3396 1.379 . S
C3396 H3380 0.931 . S
C3396 C3390 1.383 . S
C3396 C3395 1.379 . S
H3397 C3391 0.959 . S
H3398 C3391 0.961 . S
H3399 C3391 0.960 . S
H3400 C3392 0.930 . S
H3401 C3393 0.929 . S
H3402 C3410 0.929 . S
H3403 C3412 0.930 . S
H3404 C3414 0.930 . S
H3405 C3417 0.929 . S
H3406 C3420 0.930 . S
H3407 C3422 0.958 1_655 S
H3408 C3422 0.960 . S
H3409 C3422 0.960 . S
C3410 H3402 0.929 . S
C3410 C3411 1.377 . S
C3410 C3412 1.384 . S
C3411 C3410 1.377 . S
C3411 C3417 1.390 . S
C3412 H3403 0.930 . S
C3412 C3410 1.384 . S
C3412 C3413 1.372 . S
C3413 C3412 1.372 . S
C3413 C3414 1.400 . S
C3413 C3418 1.490 . S
C3414 H3404 0.930 . S
C3414 C3413 1.400 . S
C3414 C3417 1.386 . S
H3415 C3431 0.930 . S
H3416 C3432 0.931 . S
C3417 H3405 0.929 . S
C3417 C3411 1.390 . S
C3417 C3414 1.386 . S
C3418 C3413 1.490 . S
C3418 C3420 1.395 . S
C3418 C3421 1.403 . S
H3419 C3425 0.930 . S
C3420 H3406 0.930 . S
C3420 C3418 1.395 . S
C3420 C3423 1.403 . S
C3421 C3418 1.403 . S
C3421 C3422 1.524 . S
C3421 C3425 1.400 . S
C3422 H3407 0.958 1_455 S
C3422 H3408 0.960 . S
C3422 H3409 0.960 . S
C3422 C3421 1.524 . S
C3423 C3420 1.403 . S
C3423 C3424 1.392 . S
C3423 C3427 1.495 . S
C3424 C3423 1.392 . S
C3424 C3425 1.385 . S
C3424 C3426 1.478 . S
C3425 H3419 0.930 . S
C3425 C3421 1.400 . S
C3425 C3424 1.385 . S
C3426 C3424 1.478 . S
C3426 C3428 1.381 . S
C3426 C3432 1.383 . S
C3427 C3423 1.495 . S
C3427 H3433 0.959 . S
C3427 H3434 0.961 . S
C3427 H3435 0.960 . S
C3428 C3426 1.381 . S
C3428 C3429 1.394 . S
C3428 H3436 0.930 . S
C3429 C3428 1.394 . S
C3429 C3430 1.383 . S
C3429 H3437 0.929 . S
C3430 C3429 1.383 . S
C3430 C3431 1.377 . S
C3431 H3415 0.930 . S
C3431 C3430 1.377 . S
C3431 C3432 1.379 . S
C3432 H3416 0.931 . S
C3432 C3426 1.383 . S
C3432 C3431 1.379 . S
H3433 C3427 0.959 . S
H3434 C3427 0.961 . S
H3435 C3427 0.960 . S
H3436 C3428 0.930 . S
H3437 C3429 0.929 . S
H3438 C3446 0.929 . S
H3439 C3448 0.930 . S
H3440 C3450 0.930 . S
H3441 C3453 0.929 . S
H3442 C3456 0.930 . S
H3443 C3458 0.960 . S
H3444 C3458 0.960 . S
H3445 C3458 0.960 . S
C3446 H3438 0.929 . S
C3446 C3447 1.377 . S
C3446 C3448 1.384 . S
C3447 C3446 1.377 . S
C3447 C3453 1.390 . S
C3448 H3439 0.930 . S
C3448 C3446 1.384 . S
C3448 C3449 1.372 . S
C3449 C3448 1.372 . S
C3449 C3450 1.400 . S
C3449 C3454 1.490 . S
C3450 H3440 0.930 . S
C3450 C3449 1.400 . S
C3450 C3453 1.386 . S
H3451 C3467 0.930 . S
H3452 C3468 0.931 . S
C3453 H3441 0.929 . S
C3453 C3447 1.390 . S
C3453 C3450 1.386 . S
C3454 C3449 1.490 . S
C3454 C3456 1.395 . S
C3454 C3457 1.403 . S
H3455 C3461 0.930 . S
C3456 H3442 0.930 . S
C3456 C3454 1.395 . S
C3456 C3459 1.403 . S
C3457 C3454 1.403 . S
C3457 C3458 1.524 . S
C3457 C3461 1.400 . S
C3458 H3443 0.960 . S
C3458 H3444 0.960 . S
C3458 H3445 0.960 . S
C3458 C3457 1.524 . S
C3459 C3456 1.403 . S
C3459 C3460 1.392 . S
C3459 C3463 1.495 . S
C3460 C3459 1.392 . S
C3460 C3461 1.385 . S
C3460 C3462 1.478 . S
C3461 H3455 0.930 . S
C3461 C3457 1.400 . S
C3461 C3460 1.385 . S
C3462 C3460 1.478 . S
C3462 C3464 1.381 . S
C3462 C3468 1.383 . S
C3463 C3459 1.495 . S
C3463 H3469 0.959 . S
C3463 H3470 0.961 . S
C3463 H3471 0.960 . S
C3464 C3462 1.381 . S
C3464 C3465 1.394 . S
C3464 H3472 0.930 . S
C3465 C3464 1.394 . S
C3465 C3466 1.383 . S
C3465 H3473 0.929 . S
C3466 C3465 1.383 . S
C3466 C3467 1.377 . S
C3467 H3451 0.930 . S
C3467 C3466 1.377 . S
C3467 C3468 1.379 . S
C3468 H3452 0.931 . S
C3468 C3462 1.383 . S
C3468 C3467 1.379 . S
H3469 C3463 0.959 . S
H3470 C3463 0.961 . S
H3471 C3463 0.960 . S
H3472 C3464 0.930 . S
H3473 C3465 0.929 . S
H3474 C3482 0.929 . S
H3475 C3484 0.930 . S
H3476 C3486 0.930 . S
H3477 C3489 0.929 . S
H3478 C3492 0.930 . S
H3479 C3494 0.960 . S
H3480 C3494 0.960 . S
H3481 C3494 0.960 . S
C3482 H3474 0.929 . S
C3482 C3483 1.377 . S
C3482 C3484 1.384 . S
C3483 C3482 1.377 . S
C3483 C3489 1.390 . S
C3484 H3475 0.930 . S
C3484 C3482 1.384 . S
C3484 C3485 1.372 . S
C3485 C3484 1.372 . S
C3485 C3486 1.400 . S
C3485 C3490 1.490 . S
C3486 H3476 0.930 . S
C3486 C3485 1.400 . S
C3486 C3489 1.386 . S
H3487 C3503 0.930 . S
H3488 C3504 0.931 . S
C3489 H3477 0.929 . S
C3489 C3483 1.390 . S
C3489 C3486 1.386 . S
C3490 C3485 1.490 . S
C3490 C3492 1.395 . S
C3490 C3493 1.403 . S
H3491 C3497 0.930 . S
C3492 H3478 0.930 . S
C3492 C3490 1.395 . S
C3492 C3495 1.403 . S
C3493 C3490 1.403 . S
C3493 C3494 1.524 . S
C3493 C3497 1.400 . S
C3494 H3479 0.960 . S
C3494 H3480 0.960 . S
C3494 H3481 0.960 . S
C3494 C3493 1.524 . S
C3495 C3492 1.403 . S
C3495 C3496 1.392 . S
C3495 C3499 1.489 1_565 S
C3496 C3495 1.392 . S
C3496 C3497 1.385 . S
C3496 C3498 1.478 . S
C3497 H3491 0.930 . S
C3497 C3493 1.400 . S
C3497 C3496 1.385 . S
C3498 C3496 1.478 . S
C3498 C3500 1.381 . S
C3498 C3504 1.383 . S
C3499 C3495 1.489 1_545 S
C3499 H3505 0.966 . S
C3499 H3506 0.963 . S
C3499 H3507 0.957 1_545 S
C3500 C3498 1.381 . S
C3500 C3501 1.394 . S
C3500 H3508 0.930 . S
C3501 C3500 1.394 . S
C3501 C3502 1.383 . S
C3501 H3509 0.929 . S
C3502 C3501 1.383 . S
C3502 C3503 1.377 . S
C3503 H3487 0.930 . S
C3503 C3502 1.377 . S
C3503 C3504 1.379 . S
C3504 H3488 0.931 . S
C3504 C3498 1.383 . S
C3504 C3503 1.379 . S
H3505 C3499 0.966 . S
H3506 C3499 0.963 . S
H3507 C3499 0.957 1_565 S
H3508 C3500 0.930 . S
H3509 C3501 0.929 . S
H3510 C3518 0.929 . S
H3511 C3520 0.930 . S
H3512 C3522 0.930 . S
H3513 C3525 0.929 . S
H3514 C3528 0.930 . S
H3515 C3530 0.928 1_545 S
H3516 C3530 0.957 1_545 S
H3517 C3530 0.984 . S
C3518 H3510 0.929 . S
C3518 C3519 1.377 . S
C3518 C3520 1.384 . S
C3519 C3518 1.377 . S
C3519 C3525 1.390 . S
C3520 H3511 0.930 . S
C3520 C3518 1.384 . S
C3520 C3521 1.372 . S
C3521 C3520 1.372 . S
C3521 C3522 1.400 . S
C3521 C3526 1.490 . S
C3522 H3512 0.930 . S
C3522 C3521 1.400 . S
C3522 C3525 1.386 . S
H3523 C3539 0.930 . S
H3524 C3540 0.931 . S
C3525 H3513 0.929 . S
C3525 C3519 1.390 . S
C3525 C3522 1.386 . S
C3526 C3521 1.490 . S
C3526 C3528 1.395 . S
C3526 C3529 1.403 . S
H3527 C3533 0.935 . S
C3528 H3514 0.930 . S
C3528 C3526 1.395 . S
C3528 C3531 1.403 . S
C3529 C3526 1.403 . S
C3529 C3530 1.537 . S
C3529 C3533 1.400 . S
C3530 H3515 0.928 1_565 S
C3530 H3516 0.957 1_565 S
C3530 H3517 0.984 . S
C3530 C3529 1.537 . S
C3531 C3528 1.403 . S
C3531 C3532 1.392 . S
C3531 C3535 1.495 . S
C3532 C3531 1.392 . S
C3532 C3533 1.385 . S
C3532 C3534 1.478 . S
C3533 H3527 0.935 . S
C3533 C3529 1.400 . S
C3533 C3532 1.385 . S
C3534 C3532 1.478 . S
C3534 C3536 1.383 1_565 S
C3534 C3540 1.383 . S
C3535 C3531 1.495 . S
C3535 H3541 0.959 . S
C3535 H3542 0.961 . S
C3535 H3543 0.960 . S
C3536 C3534 1.383 1_545 S
C3536 C3537 1.391 . S
C3536 H3544 0.931 . S
C3537 C3536 1.391 . S
C3537 C3538 1.383 1_545 S
C3537 H3545 0.929 . S
C3538 C3537 1.383 1_565 S
C3538 C3539 1.377 . S
C3539 H3523 0.930 . S
C3539 C3538 1.377 . S
C3539 C3540 1.379 . S
C3540 H3524 0.931 . S
C3540 C3534 1.383 . S
C3540 C3539 1.379 . S
H3541 C3535 0.959 . S
H3542 C3535 0.961 . S
H3543 C3535 0.960 . S
H3544 C3536 0.931 . S
H3545 C3537 0.929 . S
H3546 C3554 0.929 . S
H3547 C3556 0.930 . S
H3548 C3558 0.930 . S
H3549 C3561 0.929 . S
H3550 C3564 0.930 1_655 S
H3551 C3566 0.960 . S
H3552 C3566 0.960 . S
H3553 C3566 0.960 . S
C3554 H3546 0.929 . S
C3554 C3555 1.377 . S
C3554 C3556 1.384 . S
C3555 C3554 1.377 . S
C3555 C3561 1.390 . S
C3556 H3547 0.930 . S
C3556 C3554 1.384 . S
C3556 C3557 1.372 . S
C3557 C3556 1.372 . S
C3557 C3558 1.400 . S
C3557 C3562 1.490 . S
C3558 H3548 0.930 . S
C3558 C3557 1.400 . S
C3558 C3561 1.386 . S
H3559 C3575 0.930 . S
H3560 C3576 0.931 . S
C3561 H3549 0.929 . S
C3561 C3555 1.390 . S
C3561 C3558 1.386 . S
C3562 C3557 1.490 . S
C3562 C3564 1.395 . S
C3562 C3565 1.403 . S
H3563 C3569 0.930 . S
C3564 H3550 0.930 1_455 S
C3564 C3562 1.395 . S
C3564 C3567 1.403 1_455 S
C3565 C3562 1.403 . S
C3565 C3566 1.524 . S
C3565 C3569 1.400 . S
C3566 H3551 0.960 . S
C3566 H3552 0.960 . S
C3566 H3553 0.960 . S
C3566 C3565 1.524 . S
C3567 C3564 1.403 1_655 S
C3567 C3568 1.392 1_655 S
C3567 C3571 1.495 . S
C3568 C3567 1.392 1_455 S
C3568 C3569 1.385 . S
C3568 C3570 1.478 . S
C3569 H3563 0.930 . S
C3569 C3565 1.400 . S
C3569 C3568 1.385 . S
C3570 C3568 1.478 . S
C3570 C3572 1.381 1_455 S
C3570 C3576 1.383 . S
C3571 C3567 1.495 . S
C3571 H3577 0.959 . S
C3571 H3578 0.961 . S
C3571 H3579 0.960 . S
C3572 C3570 1.381 1_655 S
C3572 C3573 1.394 . S
C3572 H3580 0.930 . S
C3573 C3572 1.394 . S
C3573 C3574 1.383 . S
C3573 H3581 0.929 . S
C3574 C3573 1.383 . S
C3574 C3575 1.377 1_655 S
C3575 H3559 0.930 . S
C3575 C3574 1.377 1_455 S
C3575 C3576 1.379 . S
C3576 H3560 0.931 . S
C3576 C3570 1.383 . S
C3576 C3575 1.379 . S
H3577 C3571 0.959 . S
H3578 C3571 0.961 . S
H3579 C3571 0.960 . S
H3580 C3572 0.930 . S
H3581 C3573 0.929 . S
H3582 C3590 0.929 . S
H3583 C3592 0.930 . S
H3584 C3594 0.930 . S
H3585 C3597 0.929 . S
H3586 C3600 0.930 . S
H3587 C3602 0.960 . S
H3588 C3602 0.960 . S
H3589 C3602 0.960 . S
C3590 H3582 0.929 . S
C3590 C3591 1.377 . S
C3590 C3592 1.384 . S
C3591 C3590 1.377 . S
C3591 C3597 1.390 . S
C3592 H3583 0.930 . S
C3592 C3590 1.384 . S
C3592 C3593 1.372 . S
C3593 C3592 1.372 . S
C3593 C3594 1.400 . S
C3593 C3598 1.490 . S
C3594 H3584 0.930 . S
C3594 C3593 1.400 . S
C3594 C3597 1.386 . S
H3595 C3611 0.930 . S
H3596 C3612 0.931 . S
C3597 H3585 0.929 . S
C3597 C3591 1.390 . S
C3597 C3594 1.386 . S
C3598 C3593 1.490 . S
C3598 C3600 1.395 . S
C3598 C3601 1.403 . S
H3599 C3605 0.930 . S
C3600 H3586 0.930 . S
C3600 C3598 1.395 . S
C3600 C3603 1.403 . S
C3601 C3598 1.403 . S
C3601 C3602 1.524 . S
C3601 C3605 1.400 . S
C3602 H3587 0.960 . S
C3602 H3588 0.960 . S
C3602 H3589 0.960 . S
C3602 C3601 1.524 . S
C3603 C3600 1.403 . S
C3603 C3604 1.392 . S
C3603 C3607 1.495 . S
C3604 C3603 1.392 . S
C3604 C3605 1.385 . S
C3604 C3606 1.478 . S
C3605 H3599 0.930 . S
C3605 C3601 1.400 . S
C3605 C3604 1.385 . S
C3606 C3604 1.478 . S
C3606 C3608 1.381 . S
C3606 C3612 1.383 . S
C3607 C3603 1.495 . S
C3607 H3613 0.959 . S
C3607 H3614 0.961 . S
C3607 H3615 0.960 . S
C3608 C3606 1.381 . S
C3608 C3609 1.394 . S
C3608 H3616 0.930 . S
C3609 C3608 1.394 . S
C3609 C3610 1.383 . S
C3609 H3617 0.929 . S
C3610 C3609 1.383 . S
C3610 C3611 1.377 . S
C3611 H3595 0.930 . S
C3611 C3610 1.377 . S
C3611 C3612 1.379 . S
C3612 H3596 0.931 . S
C3612 C3606 1.383 . S
C3612 C3611 1.379 . S
H3613 C3607 0.959 . S
H3614 C3607 0.961 . S
H3615 C3607 0.960 . S
H3616 C3608 0.930 . S
H3617 C3609 0.929 . S
H3618 C3626 0.929 . S
H3619 C3628 0.930 . S
H3620 C3630 0.930 . S
H3621 C3633 0.929 . S
H3622 C3636 0.930 . S
H3623 C3638 0.960 . S
H3624 C3638 0.960 . S
H3625 C3638 0.960 . S
C3626 H3618 0.929 . S
C3626 C3627 1.377 . S
C3626 C3628 1.384 . S
C3627 C3626 1.377 . S
C3627 C3633 1.390 . S
C3628 H3619 0.930 . S
C3628 C3626 1.384 . S
C3628 C3629 1.372 . S
C3629 C3628 1.372 . S
C3629 C3630 1.400 . S
C3629 C3634 1.490 . S
C3630 H3620 0.930 . S
C3630 C3629 1.400 . S
C3630 C3633 1.386 . S
H3631 C3647 0.930 . S
H3632 C3648 0.931 . S
C3633 H3621 0.929 . S
C3633 C3627 1.390 . S
C3633 C3630 1.386 . S
C3634 C3629 1.490 . S
C3634 C3636 1.395 . S
C3634 C3637 1.403 . S
H3635 C3641 0.930 . S
C3636 H3622 0.930 . S
C3636 C3634 1.395 . S
C3636 C3639 1.403 . S
C3637 C3634 1.403 . S
C3637 C3638 1.524 . S
C3637 C3641 1.400 . S
C3638 H3623 0.960 . S
C3638 H3624 0.960 . S
C3638 H3625 0.960 . S
C3638 C3637 1.524 . S
C3639 C3636 1.403 . S
C3639 C3640 1.392 . S
C3639 C3643 1.495 . S
C3640 C3639 1.392 . S
C3640 C3641 1.385 . S
C3640 C3642 1.478 . S
C3641 H3635 0.930 . S
C3641 C3637 1.400 . S
C3641 C3640 1.385 . S
C3642 C3640 1.478 . S
C3642 C3644 1.381 . S
C3642 C3648 1.383 . S
C3643 C3639 1.495 . S
C3643 H3649 0.959 . S
C3643 H3650 0.961 . S
C3643 H3651 0.960 . S
C3644 C3642 1.381 . S
C3644 C3645 1.394 . S
C3644 H3652 0.930 . S
C3645 C3644 1.394 . S
C3645 C3646 1.383 . S
C3645 H3653 0.929 . S
C3646 C3645 1.383 . S
C3646 C3647 1.377 . S
C3647 H3631 0.930 . S
C3647 C3646 1.377 . S
C3647 C3648 1.379 . S
C3648 H3632 0.931 . S
C3648 C3642 1.383 . S
C3648 C3647 1.379 . S
H3649 C3643 0.959 . S
H3650 C3643 0.961 . S
H3651 C3643 0.960 . S
H3652 C3644 0.930 . S
H3653 C3645 0.929 . S
H3654 C3662 0.929 . S
H3655 C3664 0.930 . S
H3656 C3666 0.930 . S
H3657 C3669 0.929 . S
H3658 C3672 0.930 . S
H3659 C3674 0.960 . S
H3660 C3674 0.960 . S
H3661 C3674 0.960 . S
C3662 H3654 0.929 . S
C3662 C3663 1.377 . S
C3662 C3664 1.384 . S
C3663 C3662 1.377 . S
C3663 C3669 1.390 . S
C3664 H3655 0.930 . S
C3664 C3662 1.384 . S
C3664 C3665 1.372 . S
C3665 C3664 1.372 . S
C3665 C3666 1.400 . S
C3665 C3670 1.490 . S
C3666 H3656 0.930 . S
C3666 C3665 1.400 . S
C3666 C3669 1.386 . S
H3667 C3683 0.930 . S
H3668 C3684 0.931 . S
C3669 H3657 0.929 . S
C3669 C3663 1.390 . S
C3669 C3666 1.386 . S
C3670 C3665 1.490 . S
C3670 C3672 1.395 . S
C3670 C3673 1.403 . S
H3671 C3677 0.930 . S
C3672 H3658 0.930 . S
C3672 C3670 1.395 . S
C3672 C3675 1.403 . S
C3673 C3670 1.403 . S
C3673 C3674 1.524 . S
C3673 C3677 1.400 . S
C3674 H3659 0.960 . S
C3674 H3660 0.960 . S
C3674 H3661 0.960 . S
C3674 C3673 1.524 . S
C3675 C3672 1.403 . S
C3675 C3676 1.392 . S
C3675 C3679 1.495 . S
C3676 C3675 1.392 . S
C3676 C3677 1.385 . S
C3676 C3678 1.478 . S
C3677 H3671 0.930 . S
C3677 C3673 1.400 . S
C3677 C3676 1.385 . S
C3678 C3676 1.478 . S
C3678 C3680 1.381 . S
C3678 C3684 1.383 . S
C3679 C3675 1.495 . S
C3679 H3685 0.959 . S
C3679 H3686 0.961 . S
C3679 H3687 0.960 . S
C3680 C3678 1.381 . S
C3680 C3681 1.394 . S
C3680 H3688 0.930 . S
C3681 C3680 1.394 . S
C3681 C3682 1.383 . S
C3681 H3689 0.929 . S
C3682 C3681 1.383 . S
C3682 C3683 1.377 . S
C3683 H3667 0.930 . S
C3683 C3682 1.377 . S
C3683 C3684 1.379 . S
C3684 H3668 0.931 . S
C3684 C3678 1.383 . S
C3684 C3683 1.379 . S
H3685 C3679 0.959 . S
H3686 C3679 0.961 . S
H3687 C3679 0.960 . S
H3688 C3680 0.930 . S
H3689 C3681 0.929 . S
H3690 C3698 0.929 . S
H3691 C3700 0.930 . S
H3692 C3702 0.930 . S
H3693 C3705 0.929 . S
H3694 C3708 0.930 . S
H3695 C3710 0.960 . S
H3696 C3710 0.960 . S
H3697 C3710 0.960 . S
C3698 H3690 0.929 . S
C3698 C3699 1.377 . S
C3698 C3700 1.384 . S
C3699 C3698 1.377 . S
C3699 C3705 1.390 . S
C3700 H3691 0.930 . S
C3700 C3698 1.384 . S
C3700 C3701 1.372 . S
C3701 C3700 1.372 . S
C3701 C3702 1.400 . S
C3701 C3706 1.490 . S
C3702 H3692 0.930 . S
C3702 C3701 1.400 . S
C3702 C3705 1.386 . S
H3703 C3719 0.930 . S
H3704 C3720 0.931 . S
C3705 H3693 0.929 . S
C3705 C3699 1.390 . S
C3705 C3702 1.386 . S
C3706 C3701 1.490 . S
C3706 C3708 1.395 . S
C3706 C3709 1.403 . S
H3707 C3713 0.930 . S
C3708 H3694 0.930 . S
C3708 C3706 1.395 . S
C3708 C3711 1.403 . S
C3709 C3706 1.403 . S
C3709 C3710 1.524 . S
C3709 C3713 1.400 . S
C3710 H3695 0.960 . S
C3710 H3696 0.960 . S
C3710 H3697 0.960 . S
C3710 C3709 1.524 . S
C3711 C3708 1.403 . S
C3711 C3712 1.392 . S
C3711 C3715 1.495 . S
C3712 C3711 1.392 . S
C3712 C3713 1.385 . S
C3712 C3714 1.478 . S
C3713 H3707 0.930 . S
C3713 C3709 1.400 . S
C3713 C3712 1.385 . S
C3714 C3712 1.478 . S
C3714 C3716 1.381 . S
C3714 C3720 1.383 . S
C3715 C3711 1.495 . S
C3715 H3721 0.959 . S
C3715 H3722 0.961 . S
C3715 H3723 0.960 . S
C3716 C3714 1.381 . S
C3716 C3717 1.394 . S
C3716 H3724 0.930 . S
C3717 C3716 1.394 . S
C3717 C3718 1.383 . S
C3717 H3725 0.929 . S
C3718 C3717 1.383 . S
C3718 C3719 1.377 . S
C3719 H3703 0.930 . S
C3719 C3718 1.377 . S
C3719 C3720 1.379 . S
C3720 H3704 0.931 . S
C3720 C3714 1.383 . S
C3720 C3719 1.379 . S
H3721 C3715 0.959 . S
H3722 C3715 0.961 . S
H3723 C3715 0.960 . S
H3724 C3716 0.930 . S
H3725 C3717 0.929 . S
H3726 C3734 0.929 . S
H3727 C3736 0.930 . S
H3728 C3738 0.930 . S
H3729 C3741 0.929 . S
H3730 C3744 0.930 . S
H3731 C3746 0.960 1_565 S
H3732 C3746 0.960 . S
H3733 C3746 0.960 1_565 S
C3734 H3726 0.929 . S
C3734 C3735 1.377 . S
C3734 C3736 1.384 . S
C3735 C3734 1.377 . S
C3735 C3741 1.390 . S
C3736 H3727 0.930 . S
C3736 C3734 1.384 . S
C3736 C3737 1.372 . S
C3737 C3736 1.372 . S
C3737 C3738 1.400 . S
C3737 C3742 1.490 . S
C3738 H3728 0.930 . S
C3738 C3737 1.400 . S
C3738 C3741 1.386 . S
H3739 C3755 0.930 1_565 S
H3740 C3756 0.931 1_565 S
C3741 H3729 0.929 . S
C3741 C3735 1.390 . S
C3741 C3738 1.386 . S
C3742 C3737 1.490 . S
C3742 C3744 1.395 . S
C3742 C3745 1.403 . S
H3743 C3749 0.930 . S
C3744 H3730 0.930 . S
C3744 C3742 1.395 . S
C3744 C3747 1.403 . S
C3745 C3742 1.403 . S
C3745 C3746 1.524 . S
C3745 C3749 1.400 . S
C3746 H3731 0.960 1_545 S
C3746 H3732 0.960 . S
C3746 H3733 0.960 1_545 S
C3746 C3745 1.524 . S
C3747 C3744 1.403 . S
C3747 C3748 1.392 . S
C3747 C3751 1.495 . S
C3748 C3747 1.392 . S
C3748 C3749 1.385 . S
C3748 C3750 1.478 . S
C3749 H3743 0.930 . S
C3749 C3745 1.400 . S
C3749 C3748 1.385 . S
C3750 C3748 1.478 . S
C3750 C3752 1.381 . S
C3750 C3756 1.383 . S
C3751 C3747 1.495 . S
C3751 H3757 0.959 . S
C3751 H3758 0.961 . S
C3751 H3759 0.960 . S
C3752 C3750 1.381 . S
C3752 C3753 1.394 . S
C3752 H3760 0.930 . S
C3753 C3752 1.394 . S
C3753 C3754 1.383 . S
C3753 H3761 0.929 . S
C3754 C3753 1.383 . S
C3754 C3755 1.377 . S
C3755 H3739 0.930 1_545 S
C3755 C3754 1.377 . S
C3755 C3756 1.379 . S
C3756 H3740 0.931 1_545 S
C3756 C3750 1.383 . S
C3756 C3755 1.379 . S
H3757 C3751 0.959 . S
H3758 C3751 0.961 . S
H3759 C3751 0.960 . S
H3760 C3752 0.930 . S
H3761 C3753 0.929 . S
H3762 C3770 0.929 . S
H3763 C3772 0.930 . S
H3764 C3774 0.930 . S
H3765 C3777 0.929 . S
H3766 C3780 0.930 . S
H3767 C3782 0.960 . S
H3768 C3782 0.956 . S
H3769 C3782 0.960 . S
C3770 H3762 0.929 . S
C3770 C3771 1.377 . S
C3770 C3772 1.384 . S
C3771 C3770 1.377 . S
C3771 C3777 1.390 . S
C3772 H3763 0.930 . S
C3772 C3770 1.384 . S
C3772 C3773 1.372 . S
C3773 C3772 1.372 . S
C3773 C3774 1.400 . S
C3773 C3778 1.490 . S
C3774 H3764 0.930 . S
C3774 C3773 1.400 . S
C3774 C3777 1.386 . S
H3775 C3791 0.930 . S
H3776 C3792 0.931 . S
C3777 H3765 0.929 . S
C3777 C3771 1.390 . S
C3777 C3774 1.386 . S
C3778 C3773 1.490 . S
C3778 C3780 1.395 . S
C3778 C3781 1.403 . S
H3779 C3785 0.930 . S
C3780 H3766 0.930 . S
C3780 C3778 1.395 . S
C3780 C3783 1.403 . S
C3781 C3778 1.403 . S
C3781 C3782 1.524 . S
C3781 C3785 1.400 . S
C3782 H3767 0.960 . S
C3782 H3768 0.956 . S
C3782 H3769 0.960 . S
C3782 C3781 1.524 . S
C3783 C3780 1.403 . S
C3783 C3784 1.392 . S
C3783 C3787 1.495 . S
C3784 C3783 1.392 . S
C3784 C3785 1.385 . S
C3784 C3786 1.478 . S
C3785 H3779 0.930 . S
C3785 C3781 1.400 . S
C3785 C3784 1.385 . S
C3786 C3784 1.478 . S
C3786 C3788 1.381 . S
C3786 C3792 1.383 . S
C3787 C3783 1.495 . S
C3787 H3793 0.959 . S
C3787 H3794 0.961 . S
C3787 H3795 0.960 . S
C3788 C3786 1.381 . S
C3788 C3789 1.394 . S
C3788 H3796 0.930 1_655 S
C3789 C3788 1.394 . S
C3789 C3790 1.383 . S
C3789 H3797 0.929 1_655 S
C3790 C3789 1.383 . S
C3790 C3791 1.377 . S
C3791 H3775 0.930 . S
C3791 C3790 1.377 . S
C3791 C3792 1.379 . S
C3792 H3776 0.931 . S
C3792 C3786 1.383 . S
C3792 C3791 1.379 . S
H3793 C3787 0.959 . S
H3794 C3787 0.961 . S
H3795 C3787 0.960 . S
H3796 C3788 0.930 1_455 S
H3797 C3789 0.929 1_455 S
H3798 C3806 0.929 . S
H3799 C3808 0.930 . S
H3800 C3810 0.930 . S
H3801 C3813 0.929 . S
H3802 C3816 0.930 . S
H3803 C3818 0.960 . S
H3804 C3818 0.960 . S
H3805 C3818 0.960 . S
C3806 H3798 0.929 . S
C3806 C3807 1.377 . S
C3806 C3808 1.384 . S
C3807 C3806 1.377 . S
C3807 C3813 1.390 . S
C3808 H3799 0.930 . S
C3808 C3806 1.384 . S
C3808 C3809 1.372 . S
C3809 C3808 1.372 . S
C3809 C3810 1.400 . S
C3809 C3814 1.490 . S
C3810 H3800 0.930 . S
C3810 C3809 1.400 . S
C3810 C3813 1.386 . S
H3811 C3827 0.930 . S
H3812 C3828 0.931 . S
C3813 H3801 0.929 . S
C3813 C3807 1.390 . S
C3813 C3810 1.386 . S
C3814 C3809 1.490 . S
C3814 C3816 1.395 . S
C3814 C3817 1.403 . S
H3815 C3821 0.930 . S
C3816 H3802 0.930 . S
C3816 C3814 1.395 . S
C3816 C3819 1.403 . S
C3817 C3814 1.403 . S
C3817 C3818 1.524 . S
C3817 C3821 1.400 . S
C3818 H3803 0.960 . S
C3818 H3804 0.960 . S
C3818 H3805 0.960 . S
C3818 C3817 1.524 . S
C3819 C3816 1.403 . S
C3819 C3820 1.392 . S
C3819 C3823 1.495 . S
C3820 C3819 1.392 . S
C3820 C3821 1.385 . S
C3820 C3822 1.478 . S
C3821 H3815 0.930 . S
C3821 C3817 1.400 . S
C3821 C3820 1.385 . S
C3822 C3820 1.478 . S
C3822 C3824 1.381 . S
C3822 C3828 1.383 . S
C3823 C3819 1.495 . S
C3823 H3829 0.959 . S
C3823 H3830 0.961 . S
C3823 H3831 0.960 . S
C3824 C3822 1.381 . S
C3824 C3825 1.394 . S
C3824 H3832 0.930 . S
C3825 C3824 1.394 . S
C3825 C3826 1.383 . S
C3825 H3833 0.929 . S
C3826 C3825 1.383 . S
C3826 C3827 1.377 . S
C3827 H3811 0.930 . S
C3827 C3826 1.377 . S
C3827 C3828 1.379 . S
C3828 H3812 0.931 . S
C3828 C3822 1.383 . S
C3828 C3827 1.379 . S
H3829 C3823 0.959 . S
H3830 C3823 0.961 . S
H3831 C3823 0.960 . S
H3832 C3824 0.930 . S
H3833 C3825 0.929 . S
H3834 C3842 0.929 . S
H3835 C3844 0.930 . S
H3836 C3846 0.930 . S
H3837 C3849 0.929 . S
H3838 C3852 0.930 . S
H3839 C3854 0.960 . S
H3840 C3854 0.960 . S
H3841 C3854 0.960 . S
C3842 H3834 0.929 . S
C3842 C3843 1.377 . S
C3842 C3844 1.384 . S
C3843 C3842 1.377 . S
C3843 C3849 1.390 . S
C3844 H3835 0.930 . S
C3844 C3842 1.384 . S
C3844 C3845 1.372 . S
C3845 C3844 1.372 . S
C3845 C3846 1.400 . S
C3845 C3850 1.490 . S
C3846 H3836 0.930 . S
C3846 C3845 1.400 . S
C3846 C3849 1.386 . S
H3847 C3863 0.930 . S
H3848 C3864 0.931 . S
C3849 H3837 0.929 . S
C3849 C3843 1.390 . S
C3849 C3846 1.386 . S
C3850 C3845 1.490 . S
C3850 C3852 1.395 . S
C3850 C3853 1.403 . S
H3851 C3857 0.930 . S
C3852 H3838 0.930 . S
C3852 C3850 1.395 . S
C3852 C3855 1.403 . S
C3853 C3850 1.403 . S
C3853 C3854 1.524 . S
C3853 C3857 1.400 . S
C3854 H3839 0.960 . S
C3854 H3840 0.960 . S
C3854 H3841 0.960 . S
C3854 C3853 1.524 . S
C3855 C3852 1.403 . S
C3855 C3856 1.392 . S
C3855 C3859 1.495 . S
C3856 C3855 1.392 . S
C3856 C3857 1.385 . S
C3856 C3858 1.478 . S
C3857 H3851 0.930 . S
C3857 C3853 1.400 . S
C3857 C3856 1.385 . S
C3858 C3856 1.478 . S
C3858 C3860 1.381 . S
C3858 C3864 1.383 . S
C3859 C3855 1.495 . S
C3859 H3865 0.959 . S
C3859 H3866 0.961 . S
C3859 H3867 0.960 . S
C3860 C3858 1.381 . S
C3860 C3861 1.394 . S
C3860 H3868 0.930 . S
C3861 C3860 1.394 . S
C3861 C3862 1.383 . S
C3861 H3869 0.929 . S
C3862 C3861 1.383 . S
C3862 C3863 1.377 . S
C3863 H3847 0.930 . S
C3863 C3862 1.377 . S
C3863 C3864 1.379 . S
C3864 H3848 0.931 . S
C3864 C3858 1.383 . S
C3864 C3863 1.379 . S
H3865 C3859 0.959 . S
H3866 C3859 0.961 . S
H3867 C3859 0.960 . S
H3868 C3860 0.930 . S
H3869 C3861 0.929 . S
H3870 C3878 0.929 . S
H3871 C3880 0.930 . S
H3872 C3882 0.930 . S
H3873 C3885 0.929 . S
H3874 C3888 0.930 . S
H3875 C3890 0.960 . S
H3876 C3890 0.960 . S
H3877 C3890 0.960 . S
C3878 H3870 0.929 . S
C3878 C3879 1.377 . S
C3878 C3880 1.384 . S
C3879 C3878 1.377 . S
C3879 C3885 1.390 . S
C3880 H3871 0.930 . S
C3880 C3878 1.384 . S
C3880 C3881 1.372 . S
C3881 C3880 1.372 . S
C3881 C3882 1.400 . S
C3881 C3886 1.490 . S
C3882 H3872 0.930 . S
C3882 C3881 1.400 . S
C3882 C3885 1.386 . S
H3883 C3899 0.930 . S
H3884 C3900 0.931 . S
C3885 H3873 0.929 . S
C3885 C3879 1.390 . S
C3885 C3882 1.386 . S
C3886 C3881 1.490 . S
C3886 C3888 1.395 . S
C3886 C3889 1.403 . S
H3887 C3893 0.930 . S
C3888 H3874 0.930 . S
C3888 C3886 1.395 . S
C3888 C3891 1.403 . S
C3889 C3886 1.403 . S
C3889 C3890 1.524 . S
C3889 C3893 1.400 . S
C3890 H3875 0.960 . S
C3890 H3876 0.960 . S
C3890 H3877 0.960 . S
C3890 C3889 1.524 . S
C3891 C3888 1.403 . S
C3891 C3892 1.392 . S
C3891 C3895 1.495 . S
C3892 C3891 1.392 . S
C3892 C3893 1.385 . S
C3892 C3894 1.478 . S
C3893 H3887 0.930 . S
C3893 C3889 1.400 . S
C3893 C3892 1.385 . S
C3894 C3892 1.478 . S
C3894 C3896 1.381 . S
C3894 C3900 1.383 . S
C3895 C3891 1.495 . S
C3895 H3901 0.959 . S
C3895 H3902 0.961 . S
C3895 H3903 0.960 . S
C3896 C3894 1.381 . S
C3896 C3897 1.394 . S
C3896 H3904 0.930 . S
C3897 C3896 1.394 . S
C3897 C3898 1.383 . S
C3897 H3905 0.929 . S
C3898 C3897 1.383 . S
C3898 C3899 1.377 . S
C3899 H3883 0.930 . S
C3899 C3898 1.377 . S
C3899 C3900 1.379 . S
C3900 H3884 0.931 . S
C3900 C3894 1.383 . S
C3900 C3899 1.379 . S
H3901 C3895 0.959 . S
H3902 C3895 0.961 . S
H3903 C3895 0.960 . S
H3904 C3896 0.930 . S
H3905 C3897 0.929 . S
H3906 C3914 0.929 . S
H3907 C3916 0.930 . S
H3908 C3918 0.930 . S
H3909 C3921 0.929 . S
H3910 C3924 0.930 . S
H3911 C3926 0.960 . S
H3912 C3926 0.960 . S
H3913 C3926 0.960 . S
C3914 H3906 0.929 . S
C3914 C3915 1.377 . S
C3914 C3916 1.384 . S
C3915 C3914 1.377 . S
C3915 C3921 1.390 . S
C3916 H3907 0.930 . S
C3916 C3914 1.384 . S
C3916 C3917 1.372 . S
C3917 C3916 1.372 . S
C3917 C3918 1.400 . S
C3917 C3922 1.490 . S
C3918 H3908 0.930 . S
C3918 C3917 1.400 . S
C3918 C3921 1.386 . S
H3919 C3935 0.930 . S
H3920 C3936 0.931 . S
C3921 H3909 0.929 . S
C3921 C3915 1.390 . S
C3921 C3918 1.386 . S
C3922 C3917 1.490 . S
C3922 C3924 1.395 . S
C3922 C3925 1.403 . S
H3923 C3929 0.930 . S
C3924 H3910 0.930 . S
C3924 C3922 1.395 . S
C3924 C3927 1.403 . S
C3925 C3922 1.403 . S
C3925 C3926 1.524 . S
C3925 C3929 1.400 . S
C3926 H3911 0.960 . S
C3926 H3912 0.960 . S
C3926 H3913 0.960 . S
C3926 C3925 1.524 . S
C3927 C3924 1.403 . S
C3927 C3928 1.392 . S
C3927 C3931 1.495 . S
C3928 C3927 1.392 . S
C3928 C3929 1.385 . S
C3928 C3930 1.478 . S
C3929 H3923 0.930 . S
C3929 C3925 1.400 . S
C3929 C3928 1.385 . S
C3930 C3928 1.478 . S
C3930 C3932 1.381 . S
C3930 C3936 1.383 . S
C3931 C3927 1.495 . S
C3931 H3937 0.959 . S
C3931 H3938 0.961 . S
C3931 H3939 0.960 . S
C3932 C3930 1.381 . S
C3932 C3933 1.394 . S
C3932 H3940 0.930 . S
C3933 C3932 1.394 . S
C3933 C3934 1.383 . S
C3933 H3941 0.929 . S
C3934 C3933 1.383 . S
C3934 C3935 1.377 . S
C3935 H3919 0.930 . S
C3935 C3934 1.377 . S
C3935 C3936 1.379 . S
C3936 H3920 0.931 . S
C3936 C3930 1.383 . S
C3936 C3935 1.379 . S
H3937 C3931 0.959 . S
H3938 C3931 0.961 . S
H3939 C3931 0.960 . S
H3940 C3932 0.930 . S
H3941 C3933 0.929 . S
H3942 C3950 0.929 . S
H3943 C3952 0.930 . S
H3944 C3954 0.930 . S
H3945 C3957 0.929 . S
H3946 C3960 0.930 . S
H3947 C3962 0.960 . S
H3948 C3962 0.960 . S
H3949 C3962 0.960 . S
C3950 H3942 0.929 . S
C3950 C3951 1.377 . S
C3950 C3952 1.384 . S
C3951 C3950 1.377 . S
C3951 C3957 1.390 . S
C3952 H3943 0.930 . S
C3952 C3950 1.384 . S
C3952 C3953 1.372 . S
C3953 C3952 1.372 . S
C3953 C3954 1.400 . S
C3953 C3958 1.490 . S
C3954 H3944 0.930 . S
C3954 C3953 1.400 . S
C3954 C3957 1.386 . S
H3955 C3971 0.930 . S
H3956 C3972 0.931 . S
C3957 H3945 0.929 . S
C3957 C3951 1.390 . S
C3957 C3954 1.386 . S
C3958 C3953 1.490 . S
C3958 C3960 1.395 . S
C3958 C3961 1.403 . S
H3959 C3965 0.930 . S
C3960 H3946 0.930 . S
C3960 C3958 1.395 . S
C3960 C3963 1.403 . S
C3961 C3958 1.403 . S
C3961 C3962 1.524 . S
C3961 C3965 1.400 . S
C3962 H3947 0.960 . S
C3962 H3948 0.960 . S
C3962 H3949 0.960 . S
C3962 C3961 1.524 . S
C3963 C3960 1.403 . S
C3963 C3964 1.392 . S
C3963 C3967 1.495 . S
C3964 C3963 1.392 . S
C3964 C3965 1.385 . S
C3964 C3966 1.478 . S
C3965 H3959 0.930 . S
C3965 C3961 1.400 . S
C3965 C3964 1.385 . S
C3966 C3964 1.478 . S
C3966 C3968 1.381 . S
C3966 C3972 1.383 . S
C3967 C3963 1.495 . S
C3967 H3973 0.959 . S
C3967 H3974 0.961 . S
C3967 H3975 0.960 . S
C3968 C3966 1.381 . S
C3968 C3969 1.394 . S
C3968 H3976 0.930 . S
C3969 C3968 1.394 . S
C3969 C3970 1.383 . S
C3969 H3977 0.929 . S
C3970 C3969 1.383 . S
C3970 C3971 1.377 . S
C3971 H3955 0.930 . S
C3971 C3970 1.377 . S
C3971 C3972 1.379 . S
C3972 H3956 0.931 . S
C3972 C3966 1.383 . S
C3972 C3971 1.379 . S
H3973 C3967 0.959 . S
H3974 C3967 0.961 . S
H3975 C3967 0.960 . S
H3976 C3968 0.930 . S
H3977 C3969 0.929 . S
H3978 C3986 0.929 . S
H3979 C3988 0.930 . S
H3980 C3990 0.930 . S
H3981 C3993 0.929 1_545 S
H3982 C3996 0.930 . S
H3983 C3998 0.960 . S
H3984 C3998 0.960 . S
H3985 C3998 0.960 . S
C3986 H3978 0.929 . S
C3986 C3987 1.438 . S
C3986 C3988 1.384 . S
C3987 C3986 1.438 . S
C3987 C3993 1.386 . S
C3988 H3979 0.930 . S
C3988 C3986 1.384 . S
C3988 C3989 1.372 . S
C3989 C3988 1.372 . S
C3989 C3990 1.400 . S
C3989 C3994 1.490 . S
C3990 H3980 0.930 . S
C3990 C3989 1.400 . S
C3990 C3993 1.386 . S
H3991 C4007 0.930 . S
H3992 C4008 0.931 . S
C3993 H3981 0.929 1_565 S
C3993 C3987 1.386 . S
C3993 C3990 1.386 . S
C3994 C3989 1.490 . S
C3994 C3996 1.395 . S
C3994 C3997 1.403 . S
H3995 C4001 0.930 . S
C3996 H3982 0.930 . S
C3996 C3994 1.395 . S
C3996 C3999 1.403 . S
C3997 C3994 1.403 . S
C3997 C3998 1.524 . S
C3997 C4001 1.400 . S
C3998 H3983 0.960 . S
C3998 H3984 0.960 . S
C3998 H3985 0.960 . S
C3998 C3997 1.524 . S
C3999 C3996 1.403 . S
C3999 C4000 1.392 . S
C3999 C4003 1.495 . S
C4000 C3999 1.392 . S
C4000 C4001 1.385 . S
C4000 C4002 1.478 . S
C4001 H3995 0.930 . S
C4001 C3997 1.400 . S
C4001 C4000 1.385 . S
C4002 C4000 1.478 . S
C4002 C4004 1.381 . S
C4002 C4008 1.383 . S
C4003 C3999 1.495 . S
C4003 H4009 0.959 . S
C4003 H4010 0.961 . S
C4003 H4011 0.960 . S
C4004 C4002 1.381 . S
C4004 C4005 1.394 . S
C4004 H4012 0.930 . S
C4005 C4004 1.394 . S
C4005 C4006 1.383 . S
C4005 H4013 0.929 . S
C4006 C4005 1.383 . S
C4006 C4007 1.377 . S
C4007 H3991 0.930 . S
C4007 C4006 1.377 . S
C4007 C4008 1.379 . S
C4008 H3992 0.931 . S
C4008 C4002 1.383 . S
C4008 C4007 1.379 . S
H4009 C4003 0.959 . S
H4010 C4003 0.961 . S
H4011 C4003 0.960 . S
H4012 C4004 0.930 . S
H4013 C4005 0.929 . S
H4014 C4022 0.929 . S
H4015 C4024 0.930 . S
H4016 C4026 0.930 . S
H4017 C4029 0.929 . S
H4018 C4032 0.930 . S
H4019 C4034 0.960 . S
H4020 C4034 0.960 . S
H4021 C4034 0.960 . S
C4022 H4014 0.929 . S
C4022 C4023 1.377 1_455 S
C4022 C4024 1.384 . S
C4023 C4022 1.377 1_655 S
C4023 C4029 1.390 . S
C4024 H4015 0.930 . S
C4024 C4022 1.384 . S
C4024 C4025 1.372 . S
C4025 C4024 1.372 . S
C4025 C4026 1.400 . S
C4025 C4030 1.490 . S
C4026 H4016 0.930 . S
C4026 C4025 1.400 . S
C4026 C4029 1.386 1_455 S
H4027 C4043 0.930 . S
H4028 C4044 0.931 . S
C4029 H4017 0.929 . S
C4029 C4023 1.390 . S
C4029 C4026 1.386 1_655 S
C4030 C4025 1.490 . S
C4030 C4032 1.395 . S
C4030 C4033 1.403 . S
H4031 C4037 0.930 . S
C4032 H4018 0.930 . S
C4032 C4030 1.395 . S
C4032 C4035 1.403 . S
C4033 C4030 1.403 . S
C4033 C4034 1.524 . S
C4033 C4037 1.400 . S
C4034 H4019 0.960 . S
C4034 H4020 0.960 . S
C4034 H4021 0.960 . S
C4034 C4033 1.524 . S
C4035 C4032 1.403 . S
C4035 C4036 1.392 . S
C4035 C4039 1.495 . S
C4036 C4035 1.392 . S
C4036 C4037 1.385 . S
C4036 C4038 1.478 . S
C4037 H4031 0.930 . S
C4037 C4033 1.400 . S
C4037 C4036 1.385 . S
C4038 C4036 1.478 . S
C4038 C4040 1.381 . S
C4038 C4044 1.383 . S
C4039 C4035 1.495 . S
C4039 H4045 0.959 . S
C4039 H4046 0.961 . S
C4039 H4047 0.960 . S
C4040 C4038 1.381 . S
C4040 C4041 1.394 . S
C4040 H4048 0.930 . S
C4041 C4040 1.394 . S
C4041 C4042 1.383 . S
C4041 H4049 0.929 . S
C4042 C4041 1.383 . S
C4042 C4043 1.377 . S
C4043 H4027 0.930 . S
C4043 C4042 1.377 . S
C4043 C4044 1.379 . S
C4044 H4028 0.931 . S
C4044 C4038 1.383 . S
C4044 C4043 1.379 . S
H4045 C4039 0.959 . S
H4046 C4039 0.961 . S
H4047 C4039 0.960 . S
H4048 C4040 0.930 . S
H4049 C4041 0.929 . S
H4050 C4058 0.929 . S
H4051 C4060 0.930 . S
H4052 C4062 0.930 . S
H4053 C4065 0.929 . S
H4054 C4068 0.930 . S
H4055 C4070 0.959 . S
H4056 C4070 0.960 . S
H4057 C4070 0.960 . S
C4058 H4050 0.929 . S
C4058 C4059 1.377 . S
C4058 C4060 1.384 . S
C4059 C4058 1.377 . S
C4059 C4065 1.390 . S
C4060 H4051 0.930 . S
C4060 C4058 1.384 . S
C4060 C4061 1.372 . S
C4061 C4060 1.372 . S
C4061 C4062 1.400 . S
C4061 C4066 1.490 . S
C4062 H4052 0.930 . S
C4062 C4061 1.400 . S
C4062 C4065 1.386 . S
H4063 C4079 0.930 . S
H4064 C4080 0.931 . S
C4065 H4053 0.929 . S
C4065 C4059 1.390 . S
C4065 C4062 1.386 . S
C4066 C4061 1.490 . S
C4066 C4068 1.395 . S
C4066 C4069 1.403 . S
H4067 C4073 0.930 . S
C4068 H4054 0.930 . S
C4068 C4066 1.395 . S
C4068 C4071 1.403 . S
C4069 C4066 1.403 . S
C4069 C4070 1.524 . S
C4069 C4073 1.400 . S
C4070 H4055 0.959 . S
C4070 H4056 0.960 . S
C4070 H4057 0.960 . S
C4070 C4069 1.524 . S
C4071 C4068 1.403 . S
C4071 C4072 1.392 . S
C4071 C4075 1.495 . S
C4072 C4071 1.392 . S
C4072 C4073 1.385 . S
C4072 C4074 1.478 . S
C4073 H4067 0.930 . S
C4073 C4069 1.400 . S
C4073 C4072 1.385 . S
C4074 C4072 1.478 . S
C4074 C4076 1.381 . S
C4074 C4080 1.383 . S
C4075 C4071 1.495 . S
C4075 H4081 0.959 . S
C4075 H4082 0.961 . S
C4075 H4083 0.960 . S
C4076 C4074 1.381 . S
C4076 C4077 1.394 . S
C4076 H4084 0.930 . S
C4077 C4076 1.394 . S
C4077 C4078 1.383 . S
C4077 H4085 0.929 1_655 S
C4078 C4077 1.383 . S
C4078 C4079 1.377 . S
C4079 H4063 0.930 . S
C4079 C4078 1.377 . S
C4079 C4080 1.379 . S
C4080 H4064 0.931 . S
C4080 C4074 1.383 . S
C4080 C4079 1.379 . S
H4081 C4075 0.959 . S
H4082 C4075 0.961 . S
H4083 C4075 0.960 . S
H4084 C4076 0.930 . S
H4085 C4077 0.929 1_455 S
H4086 C4094 0.929 . S
H4087 C4096 0.930 . S
H4088 C4098 0.930 . S
H4089 C4101 0.929 . S
H4090 C4104 0.930 . S
H4091 C4106 0.960 . S
H4092 C4106 0.960 . S
H4093 C4106 0.960 . S
C4094 H4086 0.929 . S
C4094 C4095 1.377 . S
C4094 C4096 1.384 . S
C4095 C4094 1.377 . S
C4095 C4101 1.390 . S
C4096 H4087 0.930 . S
C4096 C4094 1.384 . S
C4096 C4097 1.372 . S
C4097 C4096 1.372 . S
C4097 C4098 1.400 . S
C4097 C4102 1.490 . S
C4098 H4088 0.930 . S
C4098 C4097 1.400 . S
C4098 C4101 1.386 . S
H4099 C4115 0.930 . S
H4100 C4116 0.931 . S
C4101 H4089 0.929 . S
C4101 C4095 1.390 . S
C4101 C4098 1.386 . S
C4102 C4097 1.490 . S
C4102 C4104 1.395 . S
C4102 C4105 1.403 . S
H4103 C4109 0.930 . S
C4104 H4090 0.930 . S
C4104 C4102 1.395 . S
C4104 C4107 1.403 . S
C4105 C4102 1.403 . S
C4105 C4106 1.524 . S
C4105 C4109 1.400 . S
C4106 H4091 0.960 . S
C4106 H4092 0.960 . S
C4106 H4093 0.960 . S
C4106 C4105 1.524 . S
C4107 C4104 1.403 . S
C4107 C4108 1.392 . S
C4107 C4111 1.495 . S
C4108 C4107 1.392 . S
C4108 C4109 1.385 . S
C4108 C4110 1.478 . S
C4109 H4103 0.930 . S
C4109 C4105 1.400 . S
C4109 C4108 1.385 . S
C4110 C4108 1.478 . S
C4110 C4112 1.381 . S
C4110 C4116 1.383 . S
C4111 C4107 1.495 . S
C4111 H4117 0.959 . S
C4111 H4118 0.961 . S
C4111 H4119 0.960 . S
C4112 C4110 1.381 . S
C4112 C4113 1.394 . S
C4112 H4120 0.930 . S
C4113 C4112 1.394 . S
C4113 C4114 1.383 . S
C4113 H4121 0.929 . S
C4114 C4113 1.383 . S
C4114 C4115 1.377 . S
C4115 H4099 0.930 . S
C4115 C4114 1.377 . S
C4115 C4116 1.379 . S
C4116 H4100 0.931 . S
C4116 C4110 1.383 . S
C4116 C4115 1.379 . S
H4117 C4111 0.959 . S
H4118 C4111 0.961 . S
H4119 C4111 0.960 . S
H4120 C4112 0.930 . S
H4121 C4113 0.929 . S
H4122 C4130 0.929 . S
H4123 C4132 0.930 . S
H4124 C4134 0.930 . S
H4125 C4137 0.929 . S
H4126 C4140 0.965 . S
H4127 C4142 0.960 . S
H4128 C4142 0.960 . S
H4129 C4142 0.960 . S
C4130 H4122 0.929 . S
C4130 C4131 1.377 . S
C4130 C4132 1.384 . S
C4131 C4130 1.377 . S
C4131 C4137 1.390 . S
C4132 H4123 0.930 . S
C4132 C4130 1.384 . S
C4132 C4133 1.372 . S
C4133 C4132 1.372 . S
C4133 C4134 1.400 . S
C4133 C4138 1.490 . S
C4134 H4124 0.930 . S
C4134 C4133 1.400 . S
C4134 C4137 1.386 . S
H4135 C4151 0.930 . S
H4136 C4152 0.931 . S
C4137 H4125 0.929 . S
C4137 C4131 1.390 . S
C4137 C4134 1.386 . S
C4138 C4133 1.490 . S
C4138 C4140 1.395 . S
C4138 C4141 1.403 . S
H4139 C4145 0.930 . S
C4140 H4126 0.965 . S
C4140 C4138 1.395 . S
C4140 C4143 1.403 . S
C4141 C4138 1.403 . S
C4141 C4142 1.524 . S
C4141 C4145 1.400 . S
C4142 H4127 0.960 . S
C4142 H4128 0.960 . S
C4142 H4129 0.960 . S
C4142 C4141 1.524 . S
C4143 C4140 1.403 . S
C4143 C4144 1.392 . S
C4143 C4147 1.495 1_545 S
C4144 C4143 1.392 . S
C4144 C4145 1.385 . S
C4144 C4146 1.478 . S
C4145 H4139 0.930 . S
C4145 C4141 1.400 . S
C4145 C4144 1.385 . S
C4146 C4144 1.478 . S
C4146 C4148 1.381 . S
C4146 C4152 1.383 . S
C4147 C4143 1.495 1_565 S
C4147 H4153 0.959 . S
C4147 H4154 0.961 . S
C4147 H4155 0.960 . S
C4148 C4146 1.381 . S
C4148 C4149 1.396 1_545 S
C4148 H4156 0.930 . S
C4149 C4148 1.396 1_565 S
C4149 C4150 1.382 . S
C4149 H4157 0.927 . S
C4150 C4149 1.382 . S
C4150 C4151 1.382 1_565 S
C4151 H4135 0.930 . S
C4151 C4150 1.382 1_545 S
C4151 C4152 1.379 . S
C4152 H4136 0.931 . S
C4152 C4146 1.383 . S
C4152 C4151 1.379 . S
H4153 C4147 0.959 . S
H4154 C4147 0.961 . S
H4155 C4147 0.960 . S
H4156 C4148 0.930 . S
H4157 C4149 0.927 . S
C1575 C8 1.010 . S
C1594 C963 0.976 . S
C1611 C18 1.453 . S
C1630 C1043 1.481 . S
C1666 C1111 1.244 . S
C1647 C31 1.205 . S
C1683 C34 1.690 1_556 S
C1702 C1191 1.711 . S
C1719 C5 1.441 . S
C1738 C1265 1.501 . S
C1755 C21 1.533 . S
C1774 C1333 1.506 . S
C1791 C47 0.929 . S
C1810 C1259 0.897 1_655 S
C1846 C1339 1.394 . S
C1827 C57 1.332 . S
C1882 C1185 1.205 . S
C1863 C70 1.200 . S
C1899 C73 1.613 . S
C1918 C1117 1.667 1_545 S
C1954 C969 1.509 . S
C1935 C44 1.414 . S
C1971 C60 1.378 . S
C1990 C1037 1.381 . S
C2007 C86 1.273 . S
C2026 C1407 1.210 . S
C2043 C96 1.484 . S
C2062 C1487 1.465 . S
C2098 C1555 1.460 . S
C2079 C109 1.470 . S
C2115 C112 1.927 . S
C2134 C303 1.902 . S
C2151 C83 1.691 . S
C2170 C377 1.699 . S
C2187 C99 1.569 . S
C2206 C445 1.527 . S
C2223 C125 0.958 . S
C2242 C371 0.936 . S
C2259 C135 1.406 . S
C2278 C451 1.443 . S
C2314 C297 1.365 . S
C2295 C148 1.327 . S
C2350 C1561 1.899 . S
C2331 C151 1.884 . S
C2386 C1413 1.528 . S
C2367 C122 1.486 . S
C2422 C1481 1.456 . S
C2403 C138 1.449 . S
C2439 C164 1.155 . S
C2458 C519 1.145 . S
C2475 C174 1.521 . S
C2494 C599 1.519 . S
C2511 C187 1.497 . S
C2530 C667 1.442 . S
C2547 C190 2.021 . S
C2566 C747 2.002 . S
C2602 C821 1.628 . S
C2583 C161 1.665 . S
C2638 C889 1.554 . S
C2619 C177 1.616 . S
C2674 C815 1.079 . S
C2655 C203 1.098 . S
C2710 C895 1.406 . S
C2691 C213 1.362 . S
C2727 C226 1.267 . S
C2746 C741 1.269 . S
C2782 C673 1.775 . S
C2763 C229 1.763 . S
C2799 C200 1.542 . S
C2818 C525 1.596 . S
C2854 C593 1.426 . S
C2835 C216 1.415 . S
C2890 C273 1.862 . S
C2871 C0 1.823 . S
C2907 C23 1.321 . S
C2926 C347 1.322 . S
C2962 C433 1.415 . S
C2943 C36 1.437 . S
C2998 C507 1.069 . S
C2979 C26 1.055 . S
C3034 C569 1.490 . S
C3015 C10 1.520 . S
C3070 C655 1.421 . S
C3051 C13 1.379 . S
C3087 C39 1.997 . S
C3106 C643 2.014 . S
C3123 C62 1.506 . S
C3142 C495 1.423 . S
C3159 C75 1.620 . S
C3178 C581 1.580 . S
C3195 C65 1.283 . S
C3214 C359 1.328 . S
C3250 C421 1.644 . S
C3231 C49 1.703 . S
C3267 C52 1.575 . S
C3286 C285 1.595 . S
C3322 C717 1.819 . S
C3303 C78 1.787 . S
C3339 C101 1.488 1_545 S
C3358 C791 1.462 . S
C3375 C114 1.502 . S
C3394 C877 1.491 . S
C3430 C951 0.848 . S
C3411 C104 0.826 . S
C3447 C88 1.404 . S
C3466 C1013 1.402 . S
C3483 C91 1.170 . S
C3502 C1099 1.182 . S
C3519 C117 1.641 . S
C3538 C1087 1.609 1_565 S
C3555 C140 1.195 . S
C3574 C939 1.203 . S
C3610 C1025 1.473 . S
C3591 C153 1.535 . S
C3627 C143 1.247 . S
C3646 C803 1.241 . S
C3663 C127 1.753 1_545 S
C3682 C865 1.655 . S
C3718 C729 1.719 . S
C3699 C130 1.696 1_655 S
C3754 C1161 1.655 . S
C3735 C156 1.632 . S
C3771 C179 1.088 . S
C3790 C1235 1.069 . S
C3807 C192 1.352 . S
C3826 C1321 1.349 . S
C3862 C1395 1.075 . S
C3843 C182 1.026 . S
C3898 C1457 1.554 . S
C3879 C166 1.579 1_565 S
C3915 C169 1.490 . S
C3934 C1543 1.538 . S
C3951 C195 1.949 . S
C3970 C1531 1.930 . S
C3987 C218 1.612 1_565 S
C4006 C1383 1.601 . S
C4042 C1469 1.635 . S
C4023 C231 1.675 . S
C4078 C1247 0.871 . S
C4059 C221 0.887 . S
C4114 C1309 1.551 . S
C4095 C205 1.591 . S
C4131 C208 1.273 . S
C4150 C1173 1.328 . S
