# Generated by pormake.
# Topology anh, (6,3)-cn, num edge types: 1
# Building blocks:
#     Node 0, Type 0, BuildingBlock: BETFAJ_clean_sbu_0, # of connection points: 6
#     Node 1, Type 0, BuildingBlock: BETFAJ_clean_sbu_0, # of connection points: 6
#     Node 2, Type 0, BuildingBlock: BETFAJ_clean_sbu_0, # of connection points: 6
#     Node 3, Type 1, BuildingBlock: BELTOD_clean_linker_0, # of connection points: 3
#     Node 4, Type 1, BuildingBlock: BELTOD_clean_linker_0, # of connection points: 3
#     Node 5, Type 1, BuildingBlock: BELTOD_clean_linker_0, # of connection points: 3
#     Node 6, Type 1, BuildingBlock: BELTOD_clean_linker_0, # of connection points: 3
#     Node 7, Type 1, BuildingBlock: BELTOD_clean_linker_0, # of connection points: 3
#     Node 8, Type 1, BuildingBlock: BELTOD_clean_linker_0, # of connection points: 3
#     Edge 9, Type (0, 1), BuildingBlock: OJICUG_clean_linker_0, # of connection points: 2
#     Edge 10, Type (0, 1), BuildingBlock: OJICUG_clean_linker_0, # of connection points: 2
#     Edge 11, Type (0, 1), BuildingBlock: OJICUG_clean_linker_0, # of connection points: 2
#     Edge 12, Type (0, 1), BuildingBlock: OJICUG_clean_linker_0, # of connection points: 2
#     Edge 13, Type (0, 1), BuildingBlock: OJICUG_clean_linker_0, # of connection points: 2
#     Edge 14, Type (0, 1), BuildingBlock: OJICUG_clean_linker_0, # of connection points: 2
#     Edge 15, Type (0, 1), BuildingBlock: OJICUG_clean_linker_0, # of connection points: 2
#     Edge 16, Type (0, 1), BuildingBlock: OJICUG_clean_linker_0, # of connection points: 2
#     Edge 17, Type (0, 1), BuildingBlock: OJICUG_clean_linker_0, # of connection points: 2
#     Edge 18, Type (0, 1), BuildingBlock: OJICUG_clean_linker_0, # of connection points: 2
#     Edge 19, Type (0, 1), BuildingBlock: OJICUG_clean_linker_0, # of connection points: 2
#     Edge 20, Type (0, 1), BuildingBlock: OJICUG_clean_linker_0, # of connection points: 2
#     Edge 21, Type (0, 1), BuildingBlock: OJICUG_clean_linker_0, # of connection points: 2
#     Edge 22, Type (0, 1), BuildingBlock: OJICUG_clean_linker_0, # of connection points: 2
#     Edge 23, Type (0, 1), BuildingBlock: OJICUG_clean_linker_0, # of connection points: 2
#     Edge 24, Type (0, 1), BuildingBlock: OJICUG_clean_linker_0, # of connection points: 2
#     Edge 25, Type (0, 1), BuildingBlock: OJICUG_clean_linker_0, # of connection points: 2
#     Edge 26, Type (0, 1), BuildingBlock: OJICUG_clean_linker_0, # of connection points: 2
# Relax obj value: 0.220
# Max RMSD: 0.227
# Mean RMSD: 0.160
data_MOF--net-anh--node1-BETFAJ_clean_sbu_0--node2-BELTOD_clean_linker_0--edge1-OJICUG_clean_linker_0
_symmetry_space_group_name_H-M    P1
_symmetry_Int_Tables_number       1
_symmetry_cell_setting            triclinic
loop_
_symmetry_equiv_pos_as_xyz
'x, y, z'
_cell_length_a     27.528241
_cell_length_b     33.171263
_cell_length_c     46.604078
_cell_angle_alpha  92.082036
_cell_angle_beta   89.476473
_cell_angle_gamma 130.61622
loop_
_atom_site_label
_atom_site_type_symbol
_atom_site_fract_x
_atom_site_fract_y
_atom_site_fract_z
_atom_type_partial_charge
Sm0 Sm 0.17078 0.56689 0.14432 0.0
Sm1 Sm 0.08731 0.59058 0.16223 0.0
C2 C 0.24779 0.5552 0.11952 0.0
C3 C 0.25567 0.51566 0.11783 0.0
C4 C 0.29877 0.52195 0.09829 0.0
C5 C 0.30811 0.48538 0.09675 0.0
C6 C 0.27458 0.44197 0.11485 0.0
C7 C 0.23027 0.4352 0.13406 0.0
C8 C 0.22088 0.47189 0.13554 0.0
C9 C 0.14402 0.55465 0.20196 0.0
C10 C 0.23885 0.69306 0.15558 0.0
C11 C 1.00994 0.60321 0.18419 0.0
C12 C 0.93987 0.56415 0.17959 0.0
C13 C 0.8996 0.53604 0.20286 0.0
C14 C 0.83717 0.48781 0.19804 0.0
C15 C 0.81484 0.46706 0.1699 0.0
C16 C 0.85316 0.4972 0.14672 0.0
C17 C 0.91485 0.54535 0.15147 0.0
C18 C 0.08071 0.56593 0.10414 0.0
C19 C 1.02125 0.46682 0.15394 0.0
O20 O 0.26037 0.57968 0.14455 0.0
O21 O 0.19647 0.5415 0.1068 0.0
O22 O 0.15793 0.59229 0.18756 0.0
O23 O 0.14558 0.52247 0.18621 0.0
O24 O 0.2454 0.65866 0.14638 0.0
O25 O 0.18288 0.67718 0.16386 0.0
O26 O 1.03236 0.58557 0.19914 0.0
O27 O 1.0444 0.6287 0.1616 0.0
O28 O 0.13076 0.59621 0.11939 0.0
O29 O 1.03099 0.54757 0.11934 0.0
O30 O 1.02221 0.50098 0.16989 0.0
O31 O 0.07037 0.48375 0.13758 0.0
H32 H 0.32549 0.55533 0.08431 0.0
H33 H 0.34163 0.49109 0.08133 0.0
H34 H 0.20403 0.40232 0.14835 0.0
H35 H 0.18709 0.46648 0.15066 0.0
H36 H 0.91796 0.54934 0.22472 0.0
H37 H 0.80789 0.46529 0.2162 0.0
H38 H 0.8362 0.48239 0.12482 0.0
H39 H 0.94432 0.5657 0.13298 0.0
Sm40 Sm 0.67184 0.05406 0.4764 0.0
Sm41 Sm 0.58415 0.0846 0.46599 0.0
C42 C 0.72338 0.01402 0.49386 0.0
C43 C 0.70382 0.96383 0.50435 0.0
C44 C 0.72812 0.96425 0.5308 0.0
C45 C 0.7149 0.91837 0.54 0.0
C46 C 0.67754 0.87123 0.52277 0.0
C47 C 0.6516 0.87038 0.49669 0.0
C48 C 0.66434 0.91614 0.48761 0.0
C49 C 0.66521 0.07683 0.42138 0.0
C50 C 0.51288 0.95821 0.46794 0.0
C51 C 0.53351 0.12302 0.44517 0.0
C52 C 0.54498 0.17238 0.45315 0.0
C53 C 0.60572 0.22257 0.44988 0.0
C54 C 0.61921 0.26854 0.46118 0.0
C55 C 0.57246 0.26566 0.4761 0.0
C56 C 0.51069 0.21584 0.47806 0.0
C57 C 0.49713 0.16966 0.4667 0.0
C58 C 0.6049 0.08493 0.52435 0.0
C59 C 0.74301 0.17948 0.47441 0.0
O60 O 0.71527 0.0413 0.51107 0.0
O61 O 0.71077 0.01422 0.46685 0.0
O62 O 0.61842 0.05031 0.43817 0.0
O63 O 0.71683 0.0901 0.43305 0.0
O64 O 0.56828 0.97285 0.47681 0.0
O65 O 0.50726 0.99313 0.46011 0.0
O66 O 0.58091 0.12909 0.43287 0.0
O67 O 0.50472 0.08627 0.46437 0.0
O68 O 0.62499 0.07523 0.5034 0.0
O69 O 0.57186 0.09682 0.51458 0.0
O70 O 0.68865 0.16465 0.46382 0.0
O71 O 0.74684 0.14484 0.48471 0.0
H72 H 0.75878 1.00053 0.54404 0.0
H73 H 0.73607 0.92041 0.56007 0.0
H74 H 0.62208 0.83446 0.48312 0.0
H75 H 0.64439 0.91436 0.4672 0.0
H76 H 0.64377 0.22641 0.43942 0.0
H77 H 0.66689 0.30638 0.45877 0.0
H78 H 0.47365 0.2122 0.48949 0.0
H79 H 0.44991 0.13157 0.46951 0.0
Sm80 Sm 0.59424 0.55165 0.85968 0.0
Sm81 Sm 0.49571 0.42481 0.85488 0.0
C82 C 0.65882 0.65418 0.85282 0.0
C83 C 0.64766 0.68884 0.84196 0.0
C84 C 0.59871 0.66973 0.82174 0.0
C85 C 0.59019 0.70383 0.81115 0.0
C86 C 0.63015 0.75755 0.82076 0.0
C87 C 0.67849 0.77613 0.84133 0.0
C88 C 0.68714 0.74212 0.85177 0.0
C89 C 0.56226 0.49856 0.90954 0.0
C90 C 0.4332 0.48456 0.85785 0.0
C91 C 0.43335 0.32474 0.86675 0.0
C92 C 0.43983 0.28527 0.85692 0.0
C93 C 0.48086 0.28142 0.87179 0.0
C94 C 0.49231 0.24835 0.86114 0.0
C95 C 0.46264 0.21782 0.83545 0.0
C96 C 0.41949 0.21997 0.82122 0.0
C97 C 0.40819 0.25323 0.83183 0.0
C98 C 0.53538 0.46479 0.80062 0.0
C99 C 0.65766 0.49348 0.85774 0.0
O100 O 0.65729 0.62328 0.83378 0.0
O101 O 0.6309 0.63073 0.87681 0.0
O102 O 0.52509 0.48623 0.88896 0.0
O103 O 0.61985 0.54267 0.90497 0.0
O104 O 0.49333 0.53018 0.85491 0.0
O105 O 0.42181 0.43892 0.86032 0.0
O106 O 0.48065 0.36507 0.88278 0.0
O107 O 0.41188 0.33868 0.84792 0.0
O108 O 0.55211 0.49061 0.82416 0.0
O109 O 0.49394 0.41442 0.80528 0.0
O110 O 0.59753 0.44772 0.86026 0.0
O111 O 0.66874 0.53873 0.85453 0.0
H112 H 0.56735 0.62857 0.81403 0.0
H113 H 0.55208 0.68808 0.79558 0.0
H114 H 0.71065 0.81734 0.84893 0.0
H115 H 0.72519 0.75761 0.86735 0.0
H116 H 0.5057 0.30514 0.89131 0.0
H117 H 0.52628 0.24825 0.87259 0.0
H118 H 0.39482 0.19628 0.80168 0.0
H119 H 0.37565 0.25463 0.82 0.0
P120 P 0.66631 0.0682 0.20017 0.0
H121 H 0.62612 1.00061 0.14825 0.0
H122 H 0.52304 0.91561 0.13353 0.0
H123 H 0.43175 0.93609 0.20136 0.0
H124 H 0.53436 0.02246 0.21464 0.0
H125 H 0.79877 0.13387 0.18184 0.0
H126 H 0.8769 0.22523 0.168 0.0
H127 H 0.73146 0.23929 0.17026 0.0
H128 H 0.65276 0.14671 0.18496 0.0
H129 H 0.59237 0.98948 0.24361 0.0
H130 H 0.72386 0.16057 0.2409 0.0
O131 O 0.70298 0.04331 0.19834 0.0
H132 H 0.58644 0.99581 0.29566 0.0
H133 H 0.71859 0.16701 0.29307 0.0
C134 C 0.58854 0.01753 0.183 0.0
C135 C 0.58356 0.98769 0.15931 0.0
C136 C 0.52443 0.9384 0.15124 0.0
C137 C 0.46882 0.91749 0.16689 0.0
C138 C 0.4731 0.9502 0.1888 0.0
C139 C 0.53223 0.99991 0.19656 0.0
C140 C 0.71926 0.13276 0.18409 0.0
C141 C 0.78283 0.15586 0.17877 0.0
C142 C 0.82791 0.2086 0.17071 0.0
C143 C 0.81101 0.2402 0.16784 0.0
C144 C 0.74662 0.21652 0.17246 0.0
C145 C 0.70124 0.16332 0.18054 0.0
C146 C 0.65734 0.07441 0.23814 0.0
C147 C 0.61882 0.02841 0.2541 0.0
C148 C 0.61535 0.03204 0.28389 0.0
C149 C 0.65164 0.0819 0.29844 0.0
C150 C 0.68997 0.12804 0.28241 0.0
C151 C 0.69276 0.12433 0.2525 0.0
P152 P 0.70792 0.59723 0.59551 0.0
H153 H 0.77553 0.58113 0.55469 0.0
H154 H 0.74216 0.50505 0.52454 0.0
H155 H 0.54742 0.41627 0.55238 0.0
H156 H 0.58122 0.49376 0.58187 0.0
H157 H 0.77794 0.68157 0.5549 0.0
H158 H 0.76218 0.74008 0.5359 0.0
H159 H 0.5853 0.65657 0.5819 0.0
H160 H 0.60085 0.59727 0.60048 0.0
H161 H 0.65904 0.5021 0.62616 0.0
H162 H 0.68904 0.64557 0.64346 0.0
O163 O 0.78703 0.63606 0.60015 0.0
H164 H 0.61876 0.47347 0.67435 0.0
H165 H 0.64729 0.61653 0.69181 0.0
C166 C 0.68114 0.54254 0.57111 0.0
C167 C 0.72558 0.54544 0.55421 0.0
C168 C 0.70642 0.50169 0.53706 0.0
C169 C 0.64228 0.45399 0.53646 0.0
C170 C 0.59716 0.45227 0.55228 0.0
C171 C 0.61643 0.49639 0.56931 0.0
C172 C 0.69166 0.63628 0.57982 0.0
C173 C 0.73555 0.67561 0.56077 0.0
C174 C 0.72628 0.7088 0.54978 0.0
C175 C 0.67283 0.70324 0.55767 0.0
C176 C 0.62742 0.66225 0.57583 0.0
C177 C 0.63633 0.62847 0.58648 0.0
C178 C 0.674 0.57473 0.6306 0.0
C179 C 0.65535 0.52686 0.64003 0.0
C180 C 0.63244 0.51056 0.66773 0.0
C181 C 0.62861 0.54222 0.68682 0.0
C182 C 0.64935 0.59109 0.67763 0.0
C183 C 0.67237 0.60738 0.64984 0.0
P184 P 0.07331 0.52431 0.88044 0.0
H185 H 0.17186 0.55705 0.83617 0.0
H186 H 0.25223 0.54748 0.83067 0.0
H187 H 0.16431 0.43469 0.89773 0.0
H188 H 0.08379 0.44438 0.90311 0.0
H189 H 1.03554 0.56884 0.84016 0.0
H190 H 0.94211 0.56139 0.83472 0.0
H191 H 0.83855 0.43196 0.89243 0.0
H192 H 0.93218 0.43898 0.89737 0.0
H193 H 0.14836 0.61511 0.9223 0.0
H194 H 1.00441 0.44435 0.92528 0.0
O195 O 0.12479 0.58735 0.87061 0.0
H196 H 0.14992 0.62252 0.97442 0.0
H197 H 1.00539 0.45184 0.97775 0.0
C198 C 0.11916 0.50144 0.87004 0.0
C199 C 0.16816 0.52909 0.84944 0.0
C200 C 0.21584 0.52417 0.84658 0.0
C201 C 0.21753 0.49084 0.86399 0.0
C202 C 0.16642 0.46094 0.88361 0.0
C203 C 0.119 0.46634 0.88666 0.0
C204 C 0.99386 0.50477 0.86937 0.0
C205 C 0.99277 0.53783 0.85141 0.0
C206 C 0.93832 0.53405 0.8486 0.0
C207 C 0.88077 0.49673 0.86352 0.0
C208 C 0.88056 0.46165 0.88034 0.0
C209 C 0.93541 0.46565 0.88323 0.0
C210 C 0.07552 0.52907 0.91949 0.0
C211 C 0.1169 0.57901 0.93399 0.0
C212 C 0.11809 0.58332 0.964 0.0
C213 C 0.07766 0.53781 0.98031 0.0
C214 C 1.03654 0.48775 0.96582 0.0
C215 C 1.03589 0.48345 0.93574 0.0
P216 P 0.16769 0.55447 0.42412 0.0
H217 H 0.24992 0.61133 0.47517 0.0
H218 H 0.32511 0.70568 0.48924 0.0
H219 H 0.24623 0.73644 0.42244 0.0
H220 H 0.16879 0.64161 0.40979 0.0
H221 H 0.13245 0.45376 0.4386 0.0
H222 H 1.03393 0.36959 0.45312 0.0
H223 H 0.94376 0.43809 0.45841 0.0
H224 H 1.04383 0.52316 0.44294 0.0
H225 H 0.25006 0.6302 0.3805 0.0
H226 H 1.0596 0.47752 0.38347 0.0
O227 O 0.22393 0.54924 0.42594 0.0
H228 H 0.23836 0.62979 0.3286 0.0
H229 H 1.04835 0.47654 0.33134 0.0
C230 C 0.2044 0.61917 0.44098 0.0
C231 C 0.24729 0.6381 0.46419 0.0
C232 C 0.29128 0.69254 0.47187 0.0
C233 C 0.29394 0.72966 0.45634 0.0
C234 C 0.24651 0.70969 0.4349 0.0
C235 C 0.2019 0.65504 0.42753 0.0
C236 C 0.09647 0.49559 0.44022 0.0
C237 C 0.09222 0.45146 0.44348 0.0
C238 C 1.03528 0.40284 0.45193 0.0
C239 C 0.98024 0.39644 0.45727 0.0
C240 C 0.98478 0.44108 0.45438 0.0
C241 C 1.04226 0.49009 0.44586 0.0
C242 C 0.15517 0.55465 0.38612 0.0
C243 C 0.20524 0.59701 0.37009 0.0
C244 C 0.19857 0.59675 0.3404 0.0
C245 C 0.14223 0.55334 0.32595 0.0
C246 C 0.09224 0.51057 0.34195 0.0
C247 C 0.09858 0.51128 0.37182 0.0
P248 P 0.65248 0.05865 0.74271 0.0
H249 H 0.66857 0.10811 0.79895 0.0
H250 H 0.61708 0.13926 0.82141 0.0
H251 H 0.48419 0.07188 0.74941 0.0
H252 H 0.5364 0.04123 0.72697 0.0
H253 H 0.69092 1.00021 0.72042 0.0
H254 H 0.67857 0.92557 0.73801 0.0
H255 H 0.56251 0.91039 0.8071 0.0
H256 H 0.57533 0.98535 0.78937 0.0
H257 H 0.70305 0.14676 0.70627 0.0
H258 H 0.58432 0.97666 0.69525 0.0
O259 O 0.72935 0.10749 0.75178 0.0
H260 H 0.69334 0.15306 0.65484 0.0
H261 H 0.57526 0.98282 0.64356 0.0
C262 C 0.60712 0.07325 0.76107 0.0
C263 C 0.62785 0.09948 0.78817 0.0
C264 C 0.5981 0.11705 0.80106 0.0
C265 C 0.54689 0.10864 0.78707 0.0
C266 C 0.52424 0.0799 0.76052 0.0
C267 C 0.55388 0.06211 0.74772 0.0
C268 C 0.63303 0.99777 0.75319 0.0
C269 C 0.66149 0.97999 0.73894 0.0
C270 C 0.65438 0.93724 0.74905 0.0
C271 C 0.61946 0.91184 0.77398 0.0
C272 C 0.59008 0.92926 0.78796 0.0
C273 C 0.59693 0.9719 0.77769 0.0
C274 C 0.6456 0.06145 0.70449 0.0
C275 C 0.6754 0.1108 0.69271 0.0
C276 C 0.66955 0.11433 0.66335 0.0
C277 C 0.63386 0.06847 0.64515 0.0
C278 C 0.60387 0.01891 0.65702 0.0
C279 C 0.60907 0.01536 0.68655 0.0
P280 P 0.40911 0.22597 0.06599 0.0
H281 H 0.41602 0.20998 0.12696 0.0
H282 H 0.5095 0.25088 0.1585 0.0
H283 H 0.62874 0.3027 0.08391 0.0
H284 H 0.53573 0.26175 0.05289 0.0
H285 H 0.28486 0.19781 0.05898 0.0
H286 H 0.24725 0.24418 0.07517 0.0
H287 H 0.41458 0.34808 0.13064 0.0
H288 H 0.45378 0.3047 0.1129 0.0
H289 H 0.3751 0.21253 0.00469 0.0
H290 H 0.51895 0.33887 0.0638 0.0
O291 O 0.35555 0.16272 0.05416 0.0
H292 H 0.41459 0.27705 0.96733 0.0
H293 H 0.55794 0.40349 0.02691 0.0
C294 C 0.46995 0.23573 0.08777 0.0
C295 C 0.46208 0.22881 0.11746 0.0
C296 C 0.51549 0.25229 0.13546 0.0
C297 C 0.5768 0.28149 0.12376 0.0
C298 C 0.58238 0.28094 0.09373 0.0
C299 C 0.52915 0.25788 0.07586 0.0
C300 C 0.37116 0.24651 0.08533 0.0
C301 C 0.31218 0.22932 0.07541 0.0
C302 C 0.29075 0.25592 0.08469 0.0
C303 C 0.32831 0.30023 0.10398 0.0
C304 C 0.38497 0.31464 0.11543 0.0
C305 C 0.40684 0.28887 0.10573 0.0
C306 C 0.44506 0.2707 0.03678 0.0
C307 C 0.41605 0.25392 0.00943 0.0
C308 C 0.43825 0.29096 0.98823 0.0
C309 C 0.48937 0.34548 0.99418 0.0
C310 C 0.51923 0.36181 0.02145 0.0
C311 C 0.49696 0.32482 0.04257 0.0
C312 C 0.23743 0.34969 0.11465 0.0
C313 C 0.2875 0.40501 0.11398 0.0
H314 H 0.21094 0.27282 0.11233 0.0
C315 C 0.35067 0.42525 0.11168 0.0
H316 H 0.1882 0.33297 0.11631 0.0
C317 C 0.36354 0.39111 0.10912 0.0
C318 C 0.31361 0.33571 0.10911 0.0
H319 H 0.39039 0.46769 0.11155 0.0
H320 H 0.41272 0.40833 0.10625 0.0
C321 C 0.25037 0.31529 0.11215 0.0
C322 C 0.80239 0.27235 0.45731 0.0
C323 C 0.80257 0.23648 0.47254 0.0
H324 H 0.85726 0.34993 0.44031 0.0
C325 C 0.86102 0.25509 0.48449 0.0
H326 H 0.75851 0.25971 0.44771 0.0
C327 C 0.91783 0.30734 0.48052 0.0
C328 C 0.91826 0.34264 0.46426 0.0
H329 H 0.86324 0.22902 0.49656 0.0
H330 H 0.96174 0.31982 0.49 0.0
C331 C 0.8593 0.32453 0.45319 0.0
C332 C 0.62871 0.83251 0.82709 0.0
C333 C 0.6228 0.79459 0.80899 0.0
H334 H 0.63226 0.89896 0.83034 0.0
C335 C 0.61232 0.79376 0.7794 0.0
H336 H 0.63608 0.8339 0.85002 0.0
C337 C 0.60975 0.83093 0.76812 0.0
C338 C 0.61716 0.86964 0.78615 0.0
H339 H 0.60799 0.76537 0.76481 0.0
H340 H 0.60247 0.82962 0.74519 0.0
C341 C 0.62577 0.86945 0.81584 0.0
C342 C 0.75067 0.37686 0.14642 0.0
C343 C 0.75293 0.41333 0.16405 0.0
H344 H 0.69214 0.30466 0.12065 0.0
C345 C 0.6957 0.40054 0.17285 0.0
H346 H 0.79446 0.38567 0.13981 0.0
C347 C 0.63715 0.35438 0.16176 0.0
C348 C 0.63517 0.32032 0.14184 0.0
H349 H 0.69653 0.42816 0.18648 0.0
H350 H 0.59414 0.34791 0.16691 0.0
C351 C 0.69224 0.33059 0.13551 0.0
C352 C 0.46302 0.86235 0.47037 0.0
C353 C 0.45583 0.9 0.466 0.0
H354 H 0.41935 0.78057 0.47027 0.0
C355 C 0.39414 0.88114 0.45932 0.0
H356 H 0.5096 0.87495 0.47537 0.0
C357 C 0.34141 0.82623 0.45684 0.0
C358 C 0.34884 0.78851 0.46082 0.0
H359 H 0.38648 0.90877 0.45592 0.0
H360 H 0.29479 0.81345 0.45182 0.0
C361 C 0.41065 0.80771 0.4677 0.0
C362 C 0.48677 0.18428 0.79312 0.0
C363 C 0.47917 0.18606 0.82292 0.0
H364 H 0.51433 0.15897 0.75857 0.0
C365 C 0.49063 0.15946 0.84067 0.0
H366 H 0.47947 0.20497 0.77879 0.0
C367 C 0.51097 0.1332 0.82903 0.0
C368 C 0.52011 0.13262 0.79932 0.0
H369 H 0.48423 0.15914 0.86364 0.0
H370 H 0.51986 0.11353 0.84334 0.0
C371 C 0.50685 0.15786 0.78148 0.0
C372 C 0.67952 0.79797 0.51101 0.0
C373 C 0.66947 0.8244 0.53114 0.0
H374 H 0.68813 0.73874 0.5036 0.0
C375 C 0.65574 0.80787 0.5596 0.0
H376 H 0.6907 0.81007 0.48897 0.0
C377 C 0.65402 0.76685 0.56793 0.0
C378 C 0.66679 0.74201 0.54805 0.0
H379 H 0.64734 0.82725 0.57552 0.0
H380 H 0.64526 0.75604 0.5902 0.0
C381 C 0.67853 0.75742 0.51941 0.0
C382 C 0.7787 0.54068 0.8549 0.0
C383 C 0.71451 0.49399 0.859 0.0
H384 H 0.87866 0.57886 0.85323 0.0
C385 C 0.70604 0.44798 0.8646 0.0
H386 H 0.7889 0.57739 0.85067 0.0
C387 C 0.75855 0.44871 0.86609 0.0
C388 C 0.82296 0.49543 0.86187 0.0
H389 H 0.65829 0.41082 0.86796 0.0
H390 H 0.74804 0.41187 0.87024 0.0
C391 C 0.8311 0.54136 0.85622 0.0
C392 C 0.35777 0.76727 0.15248 0.0
C393 C 0.29673 0.75082 0.15721 0.0
H394 H 0.45876 0.83131 0.1523 0.0
C395 C 0.29228 0.79001 0.16406 0.0
H396 H 0.36345 0.73845 0.14733 0.0
C397 C 0.34753 0.84407 0.16643 0.0
C398 C 0.40883 0.86044 0.1622 0.0
H399 H 0.24612 0.77897 0.16771 0.0
H400 H 0.34205 0.87297 0.17165 0.0
C401 C 0.41281 0.82102 0.15506 0.0
C402 C 0.64823 0.3494 0.50631 0.0
C403 C 0.58971 0.31401 0.49108 0.0
H404 H 0.70984 0.4201 0.53284 0.0
C405 C 0.54803 0.32479 0.4909 0.0
H406 H 0.68081 0.3417 0.50751 0.0
C407 C 0.56491 0.37025 0.50544 0.0
C408 C 0.62374 0.40578 0.52054 0.0
H409 H 0.50274 0.29845 0.47924 0.0
H410 H 0.53222 0.37786 0.50456 0.0
C411 C 0.66494 0.39453 0.52085 0.0
C412 C 0.38642 0.53146 0.85286 0.0
C413 C 0.37736 0.4854 0.859 0.0
H414 H 0.34678 0.56979 0.84948 0.0
C415 C 0.31426 0.44087 0.86672 0.0
H416 H 0.43338 0.56707 0.8469 0.0
C417 C 0.26355 0.44249 0.86841 0.0
C418 C 0.27249 0.48855 0.86212 0.0
H419 H 0.30381 0.40434 0.87177 0.0
H420 H 0.2167 0.40687 0.8744 0.0
C421 C 0.33566 0.53289 0.8542 0.0
C422 C 0.9124 0.39096 0.17257 0.0
C423 C 0.96518 0.40883 0.15551 0.0
H424 H 0.82307 0.3246 0.1899 0.0
C425 C 0.96434 0.37062 0.14079 0.0
H426 H 0.9109 0.4191 0.18407 0.0
C427 C 0.91331 0.31613 0.14389 0.0
C428 C 0.86165 0.29816 0.16187 0.0
H429 H 1.0037 0.38274 0.12724 0.0
H430 H 0.91482 0.28802 0.13238 0.0
C431 C 0.86144 0.33649 0.17571 0.0
C432 C 1.02142 0.52119 0.05734 0.0
C433 C 0.07969 0.557 0.07269 0.0
H434 H 0.97502 0.48691 0.01614 0.0
C435 C 0.13721 0.58496 0.05765 0.0
H436 H 0.97634 0.49899 0.06839 0.0
C437 C 0.1365 0.57822 0.02778 0.0
C438 C 0.07824 0.54298 0.01227 0.0
H439 H 0.18289 0.61262 0.06892 0.0
H440 H 0.18167 0.6006 0.01681 0.0
C441 C 1.02069 0.51406 0.02745 0.0
C442 C 0.71618 0.11772 0.37486 0.0
C443 C 0.66019 0.08275 0.39058 0.0
H444 H 0.75722 0.14515 0.33345 0.0
C445 C 0.6006 0.05091 0.37615 0.0
H446 H 0.76273 0.14289 0.3855 0.0
C447 C 0.59745 0.05189 0.34622 0.0
C448 C 0.65376 0.08538 0.33034 0.0
H449 H 0.55671 0.02366 0.3878 0.0
H450 H 0.55109 0.02565 0.33541 0.0
C451 C 0.713 0.11926 0.34508 0.0
C452 C 0.6094 0.54056 0.76798 0.0
C453 C 0.55779 0.48646 0.7718 0.0
H454 H 0.67295 0.60081 0.73806 0.0
C455 C 0.52819 0.4516 0.74758 0.0
H456 H 0.63328 0.56814 0.7863 0.0
C457 C 0.55038 0.47007 0.72011 0.0
C458 C 0.60312 0.52389 0.71613 0.0
H459 H 0.48797 0.4097 0.74984 0.0
H460 H 0.52623 0.44199 0.70194 0.0
C461 C 0.63191 0.55917 0.74036 0.0
C462 C 0.6298 0.05101 0.56383 0.0
C463 C 0.61414 0.08142 0.55503 0.0
H464 H 0.64778 0.02258 0.59936 0.0
C465 C 0.60465 0.10713 0.57593 0.0
H466 H 0.63602 0.02992 0.54814 0.0
C467 C 0.61144 0.1031 0.60511 0.0
C468 C 0.62686 0.07253 0.61405 0.0
H469 H 0.5921 0.13054 0.56972 0.0
H470 H 0.60365 0.12328 0.62075 0.0
C471 C 0.63572 0.04631 0.5931 0.0
C472 C 0.47985 0.41837 0.93686 0.0
C473 C 0.54468 0.46176 0.93238 0.0
H474 H 0.41169 0.34783 0.95979 0.0
C475 C 0.59162 0.46749 0.94865 0.0
H476 H 0.44266 0.41317 0.92467 0.0
C477 C 0.57388 0.42966 0.96866 0.0
C478 C 0.50889 0.38553 0.97273 0.0
H479 H 0.64196 0.50046 0.94546 0.0
H480 H 0.61105 0.43446 0.98059 0.0
C481 C 0.46215 0.38062 0.95675 0.0
C482 C 0.11883 0.50769 0.24766 0.0
C483 C 0.13882 0.55288 0.23355 0.0
H484 H 0.10362 0.47225 0.28801 0.0
C485 C 0.15612 0.59701 0.24997 0.0
H486 H 0.10493 0.47302 0.2355 0.0
C487 C 0.15592 0.59675 0.27999 0.0
C488 C 0.13739 0.55202 0.29416 0.0
H489 H 0.17147 0.6323 0.23964 0.0
H490 H 0.17082 0.63173 0.29216 0.0
C491 C 0.11772 0.50712 0.27768 0.0
loop_
_geom_bond_atom_site_label_1
_geom_bond_atom_site_label_2
_geom_bond_distance
_geom_bond_site_symmetry_2
_ccdc_geom_bond_type
Sm0 C2 2.846 . S
Sm0 O20 2.543 . S
Sm0 O21 2.450 . S
Sm0 O22 2.681 . S
Sm0 O23 2.464 . S
Sm0 O24 2.396 . S
Sm0 O28 2.386 . S
Sm0 O31 2.408 1_455 S
Sm1 C11 2.846 . S
Sm1 O22 2.386 1_655 S
Sm1 O25 2.408 1_655 S
Sm1 O26 2.543 . S
Sm1 O27 2.450 . S
Sm1 O28 2.681 1_655 S
Sm1 O29 2.464 . S
Sm1 O30 2.396 . S
C2 Sm0 2.846 . S
C2 C3 1.506 . S
C2 O20 1.261 . S
C2 O21 1.242 . S
C3 C2 1.506 . S
C3 C4 1.358 . S
C3 C8 1.382 . S
C4 C3 1.358 . S
C4 C5 1.385 . S
C4 H32 0.930 . S
C5 C4 1.385 . S
C5 C6 1.395 . S
C5 H33 0.929 . S
C6 C5 1.395 . S
C6 C7 1.335 . S
C7 C6 1.335 . S
C7 C8 1.398 . S
C7 H34 0.930 . S
C8 C3 1.382 . S
C8 C7 1.398 . S
C8 H35 0.929 . S
C9 O22 1.271 . S
C9 O23 1.251 . S
C10 O24 1.252 . S
C10 O25 1.272 . S
C11 Sm1 2.846 . S
C11 C12 1.506 . S
C11 O26 1.261 . S
C11 O27 1.242 . S
C12 C11 1.506 . S
C12 C13 1.358 . S
C12 C17 1.382 . S
C13 C12 1.358 . S
C13 C14 1.385 . S
C13 H36 0.930 . S
C14 C13 1.385 . S
C14 C15 1.395 . S
C14 H37 0.929 . S
C15 C14 1.395 . S
C15 C16 1.335 . S
C16 C15 1.335 . S
C16 C17 1.398 . S
C16 H38 0.930 . S
C17 C12 1.382 . S
C17 C16 1.398 . S
C17 H39 0.929 . S
C18 O28 1.271 . S
C18 O29 1.251 1_455 S
C19 O30 1.252 . S
C19 O31 1.272 . S
O20 Sm0 2.543 . S
O20 C2 1.261 . S
O21 Sm0 2.450 . S
O21 C2 1.242 . S
O22 Sm0 2.681 . S
O22 Sm1 2.386 1_455 S
O22 C9 1.271 . S
O23 Sm0 2.464 . S
O23 C9 1.251 . S
O24 Sm0 2.396 . S
O24 C10 1.252 . S
O25 Sm1 2.408 1_455 S
O25 C10 1.272 . S
O26 Sm1 2.543 . S
O26 C11 1.261 . S
O27 Sm1 2.450 . S
O27 C11 1.242 . S
O28 Sm0 2.386 . S
O28 Sm1 2.681 1_455 S
O28 C18 1.271 . S
O29 Sm1 2.464 . S
O29 C18 1.251 1_655 S
O30 Sm1 2.396 . S
O30 C19 1.252 . S
O31 Sm0 2.408 1_655 S
O31 C19 1.272 . S
H32 C4 0.930 . S
H33 C5 0.929 . S
H34 C7 0.930 . S
H35 C8 0.929 . S
H36 C13 0.930 . S
H37 C14 0.929 . S
H38 C16 0.930 . S
H39 C17 0.929 . S
Sm40 C42 2.846 . S
Sm40 O60 2.543 . S
Sm40 O61 2.450 . S
Sm40 O62 2.681 1_565 S
Sm40 O63 2.464 . S
Sm40 O64 2.396 . S
Sm40 O68 2.386 . S
Sm40 O71 2.408 1_565 S
Sm41 C51 2.846 . S
Sm41 O62 2.386 . S
Sm41 O65 2.408 1_545 S
Sm41 O66 2.543 . S
Sm41 O67 2.450 . S
Sm41 O68 2.681 1_545 S
Sm41 O69 2.464 . S
Sm41 O70 2.396 . S
C42 Sm40 2.846 . S
C42 C43 1.506 . S
C42 O60 1.261 . S
C42 O61 1.242 . S
C43 C42 1.506 . S
C43 C44 1.358 . S
C43 C48 1.382 . S
C44 C43 1.358 . S
C44 C45 1.385 . S
C44 H72 0.930 . S
C45 C44 1.385 . S
C45 C46 1.395 . S
C45 H73 0.929 . S
C46 C45 1.395 . S
C46 C47 1.335 . S
C47 C46 1.335 . S
C47 C48 1.398 . S
C47 H74 0.930 . S
C48 C43 1.382 . S
C48 C47 1.398 . S
C48 H75 0.929 . S
C49 O62 1.271 . S
C49 O63 1.251 1_545 S
C50 O64 1.252 . S
C50 O65 1.272 . S
C51 Sm41 2.846 . S
C51 C52 1.506 . S
C51 O66 1.261 . S
C51 O67 1.242 . S
C52 C51 1.506 . S
C52 C53 1.358 . S
C52 C57 1.382 . S
C53 C52 1.358 . S
C53 C54 1.385 . S
C53 H76 0.930 . S
C54 C53 1.385 . S
C54 C55 1.395 . S
C54 H77 0.929 . S
C55 C54 1.395 . S
C55 C56 1.335 . S
C56 C55 1.335 . S
C56 C57 1.398 . S
C56 H78 0.930 . S
C57 C52 1.382 . S
C57 C56 1.398 . S
C57 H79 0.929 . S
C58 O68 1.271 1_545 S
C58 O69 1.251 . S
C59 O70 1.252 . S
C59 O71 1.272 . S
O60 Sm40 2.543 . S
O60 C42 1.261 . S
O61 Sm40 2.450 . S
O61 C42 1.242 . S
O62 Sm40 2.681 1_545 S
O62 Sm41 2.386 . S
O62 C49 1.271 . S
O63 Sm40 2.464 . S
O63 C49 1.251 1_565 S
O64 Sm40 2.396 . S
O64 C50 1.252 . S
O65 Sm41 2.408 1_565 S
O65 C50 1.272 . S
O66 Sm41 2.543 . S
O66 C51 1.261 . S
O67 Sm41 2.450 . S
O67 C51 1.242 . S
O68 Sm40 2.386 . S
O68 Sm41 2.681 1_565 S
O68 C58 1.271 1_565 S
O69 Sm41 2.464 . S
O69 C58 1.251 . S
O70 Sm41 2.396 . S
O70 C59 1.252 . S
O71 Sm40 2.408 1_545 S
O71 C59 1.272 . S
H72 C44 0.930 . S
H73 C45 0.929 . S
H74 C47 0.930 . S
H75 C48 0.929 . S
H76 C53 0.930 . S
H77 C54 0.929 . S
H78 C56 0.930 . S
H79 C57 0.929 . S
Sm80 C82 2.846 . S
Sm80 O100 2.543 . S
Sm80 O101 2.450 . S
Sm80 O102 2.681 . S
Sm80 O103 2.464 . S
Sm80 O104 2.396 . S
Sm80 O108 2.386 . S
Sm80 O111 2.408 . S
Sm81 C91 2.846 . S
Sm81 O102 2.386 . S
Sm81 O105 2.408 . S
Sm81 O106 2.543 . S
Sm81 O107 2.450 . S
Sm81 O108 2.681 . S
Sm81 O109 2.464 . S
Sm81 O110 2.396 . S
C82 Sm80 2.846 . S
C82 C83 1.506 . S
C82 O100 1.261 . S
C82 O101 1.242 . S
C83 C82 1.506 . S
C83 C84 1.358 . S
C83 C88 1.382 . S
C84 C83 1.358 . S
C84 C85 1.385 . S
C84 H112 0.930 . S
C85 C84 1.385 . S
C85 C86 1.395 . S
C85 H113 0.929 . S
C86 C85 1.395 . S
C86 C87 1.335 . S
C87 C86 1.335 . S
C87 C88 1.398 . S
C87 H114 0.930 . S
C88 C83 1.382 . S
C88 C87 1.398 . S
C88 H115 0.929 . S
C89 O102 1.271 . S
C89 O103 1.251 . S
C90 O104 1.252 . S
C90 O105 1.272 . S
C91 Sm81 2.846 . S
C91 C92 1.506 . S
C91 O106 1.261 . S
C91 O107 1.242 . S
C92 C91 1.506 . S
C92 C93 1.358 . S
C92 C97 1.382 . S
C93 C92 1.358 . S
C93 C94 1.385 . S
C93 H116 0.930 . S
C94 C93 1.385 . S
C94 C95 1.395 . S
C94 H117 0.929 . S
C95 C94 1.395 . S
C95 C96 1.335 . S
C96 C95 1.335 . S
C96 C97 1.398 . S
C96 H118 0.930 . S
C97 C92 1.382 . S
C97 C96 1.398 . S
C97 H119 0.929 . S
C98 O108 1.271 . S
C98 O109 1.251 . S
C99 O110 1.252 . S
C99 O111 1.272 . S
O100 Sm80 2.543 . S
O100 C82 1.261 . S
O101 Sm80 2.450 . S
O101 C82 1.242 . S
O102 Sm80 2.681 . S
O102 Sm81 2.386 . S
O102 C89 1.271 . S
O103 Sm80 2.464 . S
O103 C89 1.251 . S
O104 Sm80 2.396 . S
O104 C90 1.252 . S
O105 Sm81 2.408 . S
O105 C90 1.272 . S
O106 Sm81 2.543 . S
O106 C91 1.261 . S
O107 Sm81 2.450 . S
O107 C91 1.242 . S
O108 Sm80 2.386 . S
O108 Sm81 2.681 . S
O108 C98 1.271 . S
O109 Sm81 2.464 . S
O109 C98 1.251 . S
O110 Sm81 2.396 . S
O110 C99 1.252 . S
O111 Sm80 2.408 . S
O111 C99 1.272 . S
H112 C84 0.930 . S
H113 C85 0.929 . S
H114 C87 0.930 . S
H115 C88 0.929 . S
H116 C93 0.930 . S
H117 C94 0.929 . S
H118 C96 0.930 . S
H119 C97 0.929 . S
P120 O131 1.490 . S
P120 C134 1.812 . S
P120 C140 1.803 1_565 S
P120 C146 1.819 1_565 S
H121 C135 0.941 . S
H122 C136 0.939 . S
H123 C138 0.940 . S
H124 C139 0.940 . S
H125 C141 0.939 . S
H126 C142 0.942 . S
H127 C144 0.940 . S
H128 C145 0.939 . S
H129 C147 0.941 . S
H130 C151 0.939 . S
O131 P120 1.490 . S
H132 C148 0.939 . S
H133 C150 0.940 . S
C134 P120 1.812 . S
C134 C135 1.389 . S
C134 C139 1.391 . S
C135 H121 0.941 . S
C135 C134 1.389 . S
C135 C136 1.397 . S
C136 H122 0.939 . S
C136 C135 1.397 . S
C136 C137 1.378 . S
C137 C136 1.378 . S
C137 C138 1.378 . S
C138 H123 0.940 . S
C138 C137 1.378 . S
C138 C139 1.396 . S
C139 H124 0.940 . S
C139 C134 1.391 . S
C139 C138 1.396 . S
C140 P120 1.803 1_545 S
C140 C141 1.378 . S
C140 C145 1.400 . S
C141 H125 0.939 . S
C141 C140 1.378 . S
C141 C142 1.361 . S
C142 H126 0.942 . S
C142 C141 1.361 . S
C142 C143 1.369 . S
C143 C142 1.369 . S
C143 C144 1.404 . S
C144 H127 0.940 . S
C144 C143 1.404 . S
C144 C145 1.389 . S
C145 H128 0.939 . S
C145 C140 1.400 . S
C145 C144 1.389 . S
C146 P120 1.819 1_545 S
C146 C147 1.391 1_545 S
C146 C151 1.391 . S
C147 H129 0.941 . S
C147 C146 1.391 1_565 S
C147 C148 1.396 . S
C148 H132 0.939 . S
C148 C147 1.396 . S
C148 C149 1.397 1_565 S
C149 C148 1.397 1_545 S
C149 C150 1.385 . S
C150 H133 0.940 . S
C150 C149 1.385 . S
C150 C151 1.388 . S
C151 H130 0.939 . S
C151 C146 1.391 . S
C151 C150 1.388 . S
P152 O163 1.490 . S
P152 C166 1.812 . S
P152 C172 1.803 . S
P152 C178 1.819 . S
H153 C167 0.941 . S
H154 C168 0.939 . S
H155 C170 0.940 . S
H156 C171 0.940 . S
H157 C173 0.939 . S
H158 C174 0.942 . S
H159 C176 0.940 . S
H160 C177 0.939 . S
H161 C179 0.941 . S
H162 C183 0.939 . S
O163 P152 1.490 . S
H164 C180 0.939 . S
H165 C182 0.940 . S
C166 P152 1.812 . S
C166 C167 1.389 . S
C166 C171 1.391 . S
C167 H153 0.941 . S
C167 C166 1.389 . S
C167 C168 1.397 . S
C168 H154 0.939 . S
C168 C167 1.397 . S
C168 C169 1.378 . S
C169 C168 1.378 . S
C169 C170 1.378 . S
C170 H155 0.940 . S
C170 C169 1.378 . S
C170 C171 1.396 . S
C171 H156 0.940 . S
C171 C166 1.391 . S
C171 C170 1.396 . S
C172 P152 1.803 . S
C172 C173 1.378 . S
C172 C177 1.400 . S
C173 H157 0.939 . S
C173 C172 1.378 . S
C173 C174 1.361 . S
C174 H158 0.942 . S
C174 C173 1.361 . S
C174 C175 1.369 . S
C175 C174 1.369 . S
C175 C176 1.404 . S
C176 H159 0.940 . S
C176 C175 1.404 . S
C176 C177 1.389 . S
C177 H160 0.939 . S
C177 C172 1.400 . S
C177 C176 1.389 . S
C178 P152 1.819 . S
C178 C179 1.391 . S
C178 C183 1.391 . S
C179 H161 0.941 . S
C179 C178 1.391 . S
C179 C180 1.396 . S
C180 H164 0.939 . S
C180 C179 1.396 . S
C180 C181 1.397 . S
C181 C180 1.397 . S
C181 C182 1.385 . S
C182 H165 0.940 . S
C182 C181 1.385 . S
C182 C183 1.388 . S
C183 H162 0.939 . S
C183 C178 1.391 . S
C183 C182 1.388 . S
P184 O195 1.490 . S
P184 C198 1.812 . S
P184 C204 1.803 . S
P184 C210 1.819 . S
H185 C199 0.941 . S
H186 C200 0.939 . S
H187 C202 0.940 . S
H188 C203 0.940 . S
H189 C205 0.939 . S
H190 C206 0.942 . S
H191 C208 0.940 . S
H192 C209 0.939 1_455 S
H193 C211 0.941 . S
H194 C215 0.939 1_655 S
O195 P184 1.490 . S
H196 C212 0.939 . S
H197 C214 0.940 1_655 S
C198 P184 1.812 . S
C198 C199 1.389 . S
C198 C203 1.391 . S
C199 H185 0.941 . S
C199 C198 1.389 . S
C199 C200 1.397 . S
C200 H186 0.939 . S
C200 C199 1.397 . S
C200 C201 1.378 . S
C201 C200 1.378 . S
C201 C202 1.378 . S
C202 H187 0.940 . S
C202 C201 1.378 . S
C202 C203 1.396 . S
C203 H188 0.940 . S
C203 C198 1.391 . S
C203 C202 1.396 . S
C204 P184 1.803 . S
C204 C205 1.378 . S
C204 C209 1.400 1_455 S
C205 H189 0.939 . S
C205 C204 1.378 . S
C205 C206 1.361 1_455 S
C206 H190 0.942 . S
C206 C205 1.361 1_655 S
C206 C207 1.369 . S
C207 C206 1.369 . S
C207 C208 1.404 . S
C208 H191 0.940 . S
C208 C207 1.404 . S
C208 C209 1.389 . S
C209 H192 0.939 1_655 S
C209 C204 1.400 1_655 S
C209 C208 1.389 . S
C210 P184 1.819 . S
C210 C211 1.391 . S
C210 C215 1.391 . S
C211 H193 0.941 . S
C211 C210 1.391 . S
C211 C212 1.396 . S
C212 H196 0.939 . S
C212 C211 1.396 . S
C212 C213 1.397 . S
C213 C212 1.397 . S
C213 C214 1.385 . S
C214 H197 0.940 1_455 S
C214 C213 1.385 . S
C214 C215 1.388 . S
C215 H194 0.939 1_455 S
C215 C210 1.391 . S
C215 C214 1.388 . S
P216 O227 1.490 . S
P216 C230 1.812 . S
P216 C236 1.803 1_455 S
P216 C242 1.819 . S
H217 C231 0.941 . S
H218 C232 0.939 . S
H219 C234 0.940 . S
H220 C235 0.940 . S
H221 C237 0.939 . S
H222 C238 0.942 . S
H223 C240 0.940 . S
H224 C241 0.939 . S
H225 C243 0.941 . S
H226 C247 0.939 . S
O227 P216 1.490 . S
H228 C244 0.939 . S
H229 C246 0.940 . S
C230 P216 1.812 . S
C230 C231 1.389 . S
C230 C235 1.391 . S
C231 H217 0.941 . S
C231 C230 1.389 . S
C231 C232 1.397 . S
C232 H218 0.939 . S
C232 C231 1.397 . S
C232 C233 1.378 . S
C233 C232 1.378 . S
C233 C234 1.378 . S
C234 H219 0.940 . S
C234 C233 1.378 . S
C234 C235 1.396 . S
C235 H220 0.940 . S
C235 C230 1.391 . S
C235 C234 1.396 . S
C236 P216 1.803 1_655 S
C236 C237 1.378 . S
C236 C241 1.400 . S
C237 H221 0.939 . S
C237 C236 1.378 . S
C237 C238 1.361 . S
C238 H222 0.942 . S
C238 C237 1.361 . S
C238 C239 1.369 . S
C239 C238 1.369 . S
C239 C240 1.404 . S
C240 H223 0.940 . S
C240 C239 1.404 . S
C240 C241 1.389 . S
C241 H224 0.939 . S
C241 C236 1.400 . S
C241 C240 1.389 . S
C242 P216 1.819 . S
C242 C243 1.391 . S
C242 C247 1.391 1_455 S
C243 H225 0.941 . S
C243 C242 1.391 . S
C243 C244 1.396 . S
C244 H228 0.939 . S
C244 C243 1.396 . S
C244 C245 1.397 . S
C245 C244 1.397 . S
C245 C246 1.385 1_455 S
C246 H229 0.940 . S
C246 C245 1.385 1_655 S
C246 C247 1.388 . S
C247 H226 0.939 . S
C247 C242 1.391 1_655 S
C247 C246 1.388 . S
P248 O259 1.490 . S
P248 C262 1.812 . S
P248 C268 1.803 1_545 S
P248 C274 1.819 . S
H249 C263 0.941 . S
H250 C264 0.939 . S
H251 C266 0.940 . S
H252 C267 0.940 . S
H253 C269 0.939 . S
H254 C270 0.942 . S
H255 C272 0.940 . S
H256 C273 0.939 . S
H257 C275 0.941 . S
H258 C279 0.939 . S
O259 P248 1.490 . S
H260 C276 0.939 . S
H261 C278 0.940 . S
C262 P248 1.812 . S
C262 C263 1.389 . S
C262 C267 1.391 . S
C263 H249 0.941 . S
C263 C262 1.389 . S
C263 C264 1.397 . S
C264 H250 0.939 . S
C264 C263 1.397 . S
C264 C265 1.378 . S
C265 C264 1.378 . S
C265 C266 1.378 . S
C266 H251 0.940 . S
C266 C265 1.378 . S
C266 C267 1.396 . S
C267 H252 0.940 . S
C267 C262 1.391 . S
C267 C266 1.396 . S
C268 P248 1.803 1_565 S
C268 C269 1.378 . S
C268 C273 1.400 . S
C269 H253 0.939 . S
C269 C268 1.378 . S
C269 C270 1.361 . S
C270 H254 0.942 . S
C270 C269 1.361 . S
C270 C271 1.369 . S
C271 C270 1.369 . S
C271 C272 1.404 . S
C272 H255 0.940 . S
C272 C271 1.404 . S
C272 C273 1.389 . S
C273 H256 0.939 . S
C273 C268 1.400 . S
C273 C272 1.389 . S
C274 P248 1.819 . S
C274 C275 1.391 . S
C274 C279 1.391 1_545 S
C275 H257 0.941 . S
C275 C274 1.391 . S
C275 C276 1.396 . S
C276 H260 0.939 . S
C276 C275 1.396 . S
C276 C277 1.411 . S
C277 C276 1.411 . S
C277 C278 1.369 1_545 S
C278 H261 0.940 . S
C278 C277 1.369 1_565 S
C278 C279 1.388 . S
C279 H258 0.939 . S
C279 C274 1.391 1_565 S
C279 C278 1.388 . S
P280 O291 1.490 . S
P280 C294 1.812 . S
P280 C300 1.803 . S
P280 C306 1.819 . S
H281 C295 0.941 . S
H282 C296 0.939 . S
H283 C298 0.940 . S
H284 C299 0.940 . S
H285 C301 0.939 . S
H286 C302 0.942 . S
H287 C304 0.940 . S
H288 C305 0.939 . S
H289 C307 0.941 . S
H290 C311 0.939 . S
O291 P280 1.490 . S
H292 C308 0.939 . S
H293 C310 0.940 . S
C294 P280 1.812 . S
C294 C295 1.389 . S
C294 C299 1.391 . S
C295 H281 0.941 . S
C295 C294 1.389 . S
C295 C296 1.397 . S
C296 H282 0.939 . S
C296 C295 1.397 . S
C296 C297 1.378 . S
C297 C296 1.378 . S
C297 C298 1.378 . S
C298 H283 0.940 . S
C298 C297 1.378 . S
C298 C299 1.396 . S
C299 H284 0.940 . S
C299 C294 1.391 . S
C299 C298 1.396 . S
C300 P280 1.803 . S
C300 C301 1.378 . S
C300 C305 1.400 . S
C301 H285 0.939 . S
C301 C300 1.378 . S
C301 C302 1.361 . S
C302 H286 0.942 . S
C302 C301 1.361 . S
C302 C303 1.369 . S
C303 C302 1.369 . S
C303 C304 1.404 . S
C304 H287 0.940 . S
C304 C303 1.404 . S
C304 C305 1.389 . S
C305 H288 0.939 . S
C305 C300 1.400 . S
C305 C304 1.389 . S
C306 P280 1.819 . S
C306 C307 1.391 . S
C306 C311 1.391 . S
C307 H289 0.941 . S
C307 C306 1.391 . S
C307 C308 1.396 1_554 S
C308 H292 0.939 . S
C308 C307 1.396 1_556 S
C308 C309 1.397 . S
C309 C308 1.397 . S
C309 C310 1.385 1_556 S
C310 H293 0.940 . S
C310 C309 1.385 1_554 S
C310 C311 1.388 . S
C311 H290 0.939 . S
C311 C306 1.391 . S
C311 C310 1.388 . S
C312 C313 1.387 . S
C312 H316 0.950 . S
C312 C321 1.390 . S
C313 C312 1.387 . S
C313 C315 1.387 . S
H314 C321 0.950 . S
C315 C313 1.387 . S
C315 C317 1.390 . S
C315 H319 0.950 . S
H316 C312 0.950 . S
C317 C315 1.390 . S
C317 C318 1.387 . S
C317 H320 0.950 . S
C318 C317 1.387 . S
C318 C321 1.387 . S
H319 C315 0.950 . S
H320 C317 0.950 . S
C321 C312 1.390 . S
C321 H314 0.950 . S
C321 C318 1.387 . S
C322 C323 1.387 . S
C322 H326 0.950 . S
C322 C331 1.390 . S
C323 C322 1.387 . S
C323 C325 1.387 . S
H324 C331 0.950 . S
C325 C323 1.387 . S
C325 C327 1.390 . S
C325 H329 0.950 . S
H326 C322 0.950 . S
C327 C325 1.390 . S
C327 C328 1.387 . S
C327 H330 0.950 . S
C328 C327 1.387 . S
C328 C331 1.387 . S
H329 C325 0.950 . S
H330 C327 0.950 . S
C331 C322 1.390 . S
C331 H324 0.950 . S
C331 C328 1.387 . S
C332 C333 1.387 . S
C332 H336 0.950 . S
C332 C341 1.390 . S
C333 C332 1.387 . S
C333 C335 1.387 . S
H334 C341 0.950 . S
C335 C333 1.387 . S
C335 C337 1.390 . S
C335 H339 0.950 . S
H336 C332 0.950 . S
C337 C335 1.390 . S
C337 C338 1.387 . S
C337 H340 0.950 . S
C338 C337 1.387 . S
C338 C341 1.387 . S
H339 C335 0.950 . S
H340 C337 0.950 . S
C341 C332 1.390 . S
C341 H334 0.950 . S
C341 C338 1.387 . S
C342 C343 1.387 . S
C342 H346 0.950 . S
C342 C351 1.390 . S
C343 C342 1.387 . S
C343 C345 1.387 . S
H344 C351 0.950 . S
C345 C343 1.387 . S
C345 C347 1.390 . S
C345 H349 0.950 . S
H346 C342 0.950 . S
C347 C345 1.390 . S
C347 C348 1.387 . S
C347 H350 0.950 . S
C348 C347 1.387 . S
C348 C351 1.387 . S
H349 C345 0.950 . S
H350 C347 0.950 . S
C351 C342 1.390 . S
C351 H344 0.950 . S
C351 C348 1.387 . S
C352 C353 1.387 . S
C352 H356 0.950 . S
C352 C361 1.390 . S
C353 C352 1.387 . S
C353 C355 1.387 . S
H354 C361 0.950 . S
C355 C353 1.387 . S
C355 C357 1.390 . S
C355 H359 0.950 . S
H356 C352 0.950 . S
C357 C355 1.390 . S
C357 C358 1.387 . S
C357 H360 0.950 . S
C358 C357 1.387 . S
C358 C361 1.387 . S
H359 C355 0.950 . S
H360 C357 0.950 . S
C361 C352 1.390 . S
C361 H354 0.950 . S
C361 C358 1.387 . S
C362 C363 1.387 . S
C362 H366 0.950 . S
C362 C371 1.390 . S
C363 C362 1.387 . S
C363 C365 1.387 . S
H364 C371 0.950 . S
C365 C363 1.387 . S
C365 C367 1.390 . S
C365 H369 0.950 . S
H366 C362 0.950 . S
C367 C365 1.390 . S
C367 C368 1.387 . S
C367 H370 0.950 . S
C368 C367 1.387 . S
C368 C371 1.387 . S
H369 C365 0.950 . S
H370 C367 0.950 . S
C371 C362 1.390 . S
C371 H364 0.950 . S
C371 C368 1.387 . S
C372 C373 1.387 . S
C372 H376 0.950 . S
C372 C381 1.390 . S
C373 C372 1.387 . S
C373 C375 1.387 . S
H374 C381 0.950 . S
C375 C373 1.387 . S
C375 C377 1.390 . S
C375 H379 0.950 . S
H376 C372 0.950 . S
C377 C375 1.390 . S
C377 C378 1.387 . S
C377 H380 0.950 . S
C378 C377 1.387 . S
C378 C381 1.387 . S
H379 C375 0.950 . S
H380 C377 0.950 . S
C381 C372 1.390 . S
C381 H374 0.950 . S
C381 C378 1.387 . S
C382 C383 1.387 . S
C382 H386 0.950 . S
C382 C391 1.390 . S
C383 C382 1.387 . S
C383 C385 1.387 . S
H384 C391 0.950 . S
C385 C383 1.387 . S
C385 C387 1.390 . S
C385 H389 0.950 . S
H386 C382 0.950 . S
C387 C385 1.390 . S
C387 C388 1.387 . S
C387 H390 0.950 . S
C388 C387 1.387 . S
C388 C391 1.387 . S
H389 C385 0.950 . S
H390 C387 0.950 . S
C391 C382 1.390 . S
C391 H384 0.950 . S
C391 C388 1.387 . S
C392 C393 1.387 . S
C392 H396 0.950 . S
C392 C401 1.390 . S
C393 C392 1.387 . S
C393 C395 1.387 . S
H394 C401 0.950 . S
C395 C393 1.387 . S
C395 C397 1.390 . S
C395 H399 0.950 . S
H396 C392 0.950 . S
C397 C395 1.390 . S
C397 C398 1.387 . S
C397 H400 0.950 . S
C398 C397 1.387 . S
C398 C401 1.387 . S
H399 C395 0.950 . S
H400 C397 0.950 . S
C401 C392 1.390 . S
C401 H394 0.950 . S
C401 C398 1.387 . S
C402 C403 1.387 . S
C402 H406 0.950 . S
C402 C411 1.390 . S
C403 C402 1.387 . S
C403 C405 1.387 . S
H404 C411 0.950 . S
C405 C403 1.387 . S
C405 C407 1.390 . S
C405 H409 0.950 . S
H406 C402 0.950 . S
C407 C405 1.390 . S
C407 C408 1.387 . S
C407 H410 0.950 . S
C408 C407 1.387 . S
C408 C411 1.387 . S
H409 C405 0.950 . S
H410 C407 0.950 . S
C411 C402 1.390 . S
C411 H404 0.950 . S
C411 C408 1.387 . S
C412 C413 1.387 . S
C412 H416 0.950 . S
C412 C421 1.390 . S
C413 C412 1.387 . S
C413 C415 1.387 . S
H414 C421 0.950 . S
C415 C413 1.387 . S
C415 C417 1.390 . S
C415 H419 0.950 . S
H416 C412 0.950 . S
C417 C415 1.390 . S
C417 C418 1.387 . S
C417 H420 0.950 . S
C418 C417 1.387 . S
C418 C421 1.387 . S
H419 C415 0.950 . S
H420 C417 0.950 . S
C421 C412 1.390 . S
C421 H414 0.950 . S
C421 C418 1.387 . S
C422 C423 1.387 . S
C422 H426 0.950 . S
C422 C431 1.390 . S
C423 C422 1.387 . S
C423 C425 1.387 . S
H424 C431 0.950 . S
C425 C423 1.387 . S
C425 C427 1.390 . S
C425 H429 0.950 . S
H426 C422 0.950 . S
C427 C425 1.390 . S
C427 C428 1.387 . S
C427 H430 0.950 . S
C428 C427 1.387 . S
C428 C431 1.387 . S
H429 C425 0.950 . S
H430 C427 0.950 . S
C431 C422 1.390 . S
C431 H424 0.950 . S
C431 C428 1.387 . S
C432 C433 1.387 . S
C432 H436 0.950 . S
C432 C441 1.390 . S
C433 C432 1.387 . S
C433 C435 1.387 . S
H434 C441 0.950 . S
C435 C433 1.387 . S
C435 C437 1.390 . S
C435 H439 0.950 . S
H436 C432 0.950 . S
C437 C435 1.390 . S
C437 C438 1.387 . S
C437 H440 0.950 . S
C438 C437 1.387 . S
C438 C441 1.387 . S
H439 C435 0.950 . S
H440 C437 0.950 . S
C441 C432 1.390 . S
C441 H434 0.950 . S
C441 C438 1.387 . S
C442 C443 1.387 . S
C442 H446 0.950 . S
C442 C451 1.390 . S
C443 C442 1.387 . S
C443 C445 1.387 1_545 S
H444 C451 0.950 . S
C445 C443 1.387 1_565 S
C445 C447 1.390 . S
C445 H449 0.950 . S
H446 C442 0.950 . S
C447 C445 1.390 . S
C447 C448 1.387 1_565 S
C447 H450 0.950 . S
C448 C447 1.387 1_545 S
C448 C451 1.387 . S
H449 C445 0.950 . S
H450 C447 0.950 . S
C451 C442 1.390 . S
C451 H444 0.950 . S
C451 C448 1.387 . S
C452 C453 1.387 . S
C452 H456 0.950 . S
C452 C461 1.390 . S
C453 C452 1.387 . S
C453 C455 1.387 . S
H454 C461 0.950 . S
C455 C453 1.387 . S
C455 C457 1.390 . S
C455 H459 0.950 . S
H456 C452 0.950 . S
C457 C455 1.390 . S
C457 C458 1.387 . S
C457 H460 0.950 . S
C458 C457 1.387 . S
C458 C461 1.387 . S
H459 C455 0.950 . S
H460 C457 0.950 . S
C461 C452 1.390 . S
C461 H454 0.950 . S
C461 C458 1.387 . S
C462 C463 1.387 1_565 S
C462 H466 0.950 . S
C462 C471 1.390 . S
C463 C462 1.387 1_545 S
C463 C465 1.387 . S
H464 C471 0.950 . S
C465 C463 1.387 . S
C465 C467 1.390 . S
C465 H469 0.950 . S
H466 C462 0.950 . S
C467 C465 1.390 . S
C467 C468 1.387 1_545 S
C467 H470 0.950 . S
C468 C467 1.387 1_565 S
C468 C471 1.387 . S
H469 C465 0.950 . S
H470 C467 0.950 . S
C471 C462 1.390 . S
C471 H464 0.950 . S
C471 C468 1.387 . S
C472 C473 1.387 . S
C472 H476 0.950 . S
C472 C481 1.390 . S
C473 C472 1.387 . S
C473 C475 1.387 . S
H474 C481 0.950 . S
C475 C473 1.387 . S
C475 C477 1.390 . S
C475 H479 0.950 . S
H476 C472 0.950 . S
C477 C475 1.390 . S
C477 C478 1.387 . S
C477 H480 0.950 . S
C478 C477 1.387 . S
C478 C481 1.387 . S
H479 C475 0.950 . S
H480 C477 0.950 . S
C481 C472 1.390 . S
C481 H474 0.950 . S
C481 C478 1.387 . S
C482 C483 1.387 . S
C482 H486 0.950 1_455 S
C482 C491 1.390 1_455 S
C483 C482 1.387 . S
C483 C485 1.387 . S
H484 C491 0.950 . S
C485 C483 1.387 . S
C485 C487 1.390 . S
C485 H489 0.950 . S
H486 C482 0.950 1_655 S
C487 C485 1.390 . S
C487 C488 1.387 . S
C487 H490 0.950 . S
C488 C487 1.387 . S
C488 C491 1.387 1_455 S
H489 C485 0.950 . S
H490 C487 0.950 . S
C491 C482 1.390 1_655 S
C491 H484 0.950 . S
C491 C488 1.387 1_655 S
C313 C6 0.935 . S
C318 C303 1.065 . S
C323 C59 1.971 . S
C328 C239 1.905 . S
C333 C86 1.395 . S
C338 C271 1.383 . S
C343 C15 0.742 . S
C348 C297 0.742 . S
C358 C233 1.960 . S
C353 C50 2.048 . S
C368 C265 1.385 . S
C363 C95 1.357 . S
C373 C46 1.322 . S
C378 C175 1.358 . S
C383 C99 3.117 . S
C388 C207 3.037 . S
C393 C10 2.080 . S
C398 C137 1.999 . S
C408 C169 1.395 . S
C403 C55 1.356 . S
C418 C201 3.043 . S
C413 C90 3.079 . S
C423 C19 1.973 . S
C428 C143 1.940 . S
C438 C213 1.762 1_554 S
C433 C18 1.731 . S
C443 C49 1.325 . S
C448 C149 1.338 . S
C453 C98 1.450 . S
C458 C181 1.477 . S
C468 C277 1.440 1_565 S
C463 C58 1.438 . S
C478 C309 1.061 . S
C473 C89 1.055 . S
C483 C9 1.314 . S
C488 C245 1.318 . S
