# Generated by pormake.
# Topology zzz, (3,6)-cn, num edge types: 1
# Building blocks:
#     Node 0, Type 0, BuildingBlock: MIDCAF_clean_linker_0, # of connection points: 3
#     Node 1, Type 0, BuildingBlock: MIDCAF_clean_linker_0, # of connection points: 3
#     Node 2, Type 0, BuildingBlock: MIDCAF_clean_linker_0, # of connection points: 3
#     Node 3, Type 0, BuildingBlock: MIDCAF_clean_linker_0, # of connection points: 3
#     Node 4, Type 0, BuildingBlock: MIDCAF_clean_linker_0, # of connection points: 3
#     Node 5, Type 0, BuildingBlock: MIDCAF_clean_linker_0, # of connection points: 3
#     Node 6, Type 0, BuildingBlock: MIDCAF_clean_linker_0, # of connection points: 3
#     Node 7, Type 0, BuildingBlock: MIDCAF_clean_linker_0, # of connection points: 3
#     Node 8, Type 1, BuildingBlock: BETDEL_clean_sbu_0, # of connection points: 6
#     Node 9, Type 1, BuildingBlock: BETDEL_clean_sbu_0, # of connection points: 6
#     Node 10, Type 1, BuildingBlock: BETDEL_clean_sbu_0, # of connection points: 6
#     Node 11, Type 1, BuildingBlock: BETDEL_clean_sbu_0, # of connection points: 6
#     Edge 12, Type (0, 1), BuildingBlock: AJUNOK_clean_linker_0, # of connection points: 2
#     Edge 13, Type (0, 1), BuildingBlock: AJUNOK_clean_linker_0, # of connection points: 2
#     Edge 14, Type (0, 1), BuildingBlock: AJUNOK_clean_linker_0, # of connection points: 2
#     Edge 15, Type (0, 1), BuildingBlock: AJUNOK_clean_linker_0, # of connection points: 2
#     Edge 16, Type (0, 1), BuildingBlock: AJUNOK_clean_linker_0, # of connection points: 2
#     Edge 17, Type (0, 1), BuildingBlock: AJUNOK_clean_linker_0, # of connection points: 2
#     Edge 18, Type (0, 1), BuildingBlock: AJUNOK_clean_linker_0, # of connection points: 2
#     Edge 19, Type (0, 1), BuildingBlock: AJUNOK_clean_linker_0, # of connection points: 2
#     Edge 20, Type (0, 1), BuildingBlock: AJUNOK_clean_linker_0, # of connection points: 2
#     Edge 21, Type (0, 1), BuildingBlock: AJUNOK_clean_linker_0, # of connection points: 2
#     Edge 22, Type (0, 1), BuildingBlock: AJUNOK_clean_linker_0, # of connection points: 2
#     Edge 23, Type (0, 1), BuildingBlock: AJUNOK_clean_linker_0, # of connection points: 2
#     Edge 24, Type (0, 1), BuildingBlock: AJUNOK_clean_linker_0, # of connection points: 2
#     Edge 25, Type (0, 1), BuildingBlock: AJUNOK_clean_linker_0, # of connection points: 2
#     Edge 26, Type (0, 1), BuildingBlock: AJUNOK_clean_linker_0, # of connection points: 2
#     Edge 27, Type (0, 1), BuildingBlock: AJUNOK_clean_linker_0, # of connection points: 2
#     Edge 28, Type (0, 1), BuildingBlock: AJUNOK_clean_linker_0, # of connection points: 2
#     Edge 29, Type (0, 1), BuildingBlock: AJUNOK_clean_linker_0, # of connection points: 2
#     Edge 30, Type (0, 1), BuildingBlock: AJUNOK_clean_linker_0, # of connection points: 2
#     Edge 31, Type (0, 1), BuildingBlock: AJUNOK_clean_linker_0, # of connection points: 2
#     Edge 32, Type (0, 1), BuildingBlock: AJUNOK_clean_linker_0, # of connection points: 2
#     Edge 33, Type (0, 1), BuildingBlock: AJUNOK_clean_linker_0, # of connection points: 2
#     Edge 34, Type (0, 1), BuildingBlock: AJUNOK_clean_linker_0, # of connection points: 2
#     Edge 35, Type (0, 1), BuildingBlock: AJUNOK_clean_linker_0, # of connection points: 2
# Relax obj value: 0.352
# Max RMSD: 0.231
# Mean RMSD: 0.213
data_MOF--net-zzz--node1-BETDEL_clean_sbu_0--node2-MIDCAF_clean_linker_0--edge1-AJUNOK_clean_linker_0
_symmetry_space_group_name_H-M    P1
_symmetry_Int_Tables_number       1
_symmetry_cell_setting            triclinic
loop_
_symmetry_equiv_pos_as_xyz
'x, y, z'
_cell_length_a     43.79257
_cell_length_b     43.872224
_cell_length_c     15.509726
_cell_angle_alpha  90.578893
_cell_angle_beta   89.319785
_cell_angle_gamma 95.460218
loop_
_atom_site_label
_atom_site_type_symbol
_atom_site_fract_x
_atom_site_fract_y
_atom_site_fract_z
_atom_type_partial_charge
C0 C 0.81595 0.49209 0.31947 0.0
C1 C 0.83723 0.51755 0.30335 0.0
C2 C 0.83168 0.53669 0.23386 0.0
C3 C 0.8072 0.52891 0.17743 0.0
H4 H 0.69151 0.50963 0.03402 0.0
H5 H 0.64889 0.51975 0.93952 0.0
H6 H 0.69728 0.48497 0.72138 0.0
H7 H 0.7394 0.4749 0.81448 0.0
H8 H 0.77379 0.41058 0.86385 0.0
H9 H 0.81504 0.38865 0.78458 0.0
H10 H 0.87721 0.41609 0.99217 0.0
H11 H 0.83604 0.4344 0.07347 0.0
H12 H 0.7776 0.46295 0.2728 0.0
H13 H 0.81965 0.47634 0.37075 0.0
H14 H 0.84747 0.55658 0.21974 0.0
H15 H 0.80552 0.54226 0.11957 0.0
N16 N 0.75153 0.496 0.06434 0.0
N17 N 0.75843 0.45701 0.96179 0.0
N18 N 0.78841 0.4613 0.08504 0.0
C19 C 0.74318 0.48112 0.98871 0.0
C20 C 0.78101 0.44692 0.00983 0.0
C21 C 0.77417 0.48558 0.11305 0.0
C22 C 0.71877 0.49118 0.93218 0.0
C23 C 0.69319 0.5046 0.96571 0.0
C24 C 0.66872 0.51018 0.91173 0.0
C25 C 0.6696 0.50287 0.82303 0.0
C26 C 0.69587 0.49091 0.7892 0.0
C27 C 0.71996 0.48497 0.84295 0.0
C28 C 0.80188 0.42533 0.97349 0.0
C29 C 0.796 0.41054 0.89388 0.0
C30 C 0.81973 0.3981 0.84834 0.0
C31 C 0.84991 0.40134 0.88023 0.0
C32 C 0.85455 0.41257 0.96475 0.0
C33 C 0.83069 0.42382 0.01139 0.0
C34 C 0.78783 0.50182 0.18932 0.0
C35 C 0.79155 0.48445 0.26342 0.0
C36 C 0.96797 0.8052 0.29833 0.0
C37 C 0.98893 0.81732 0.36086 0.0
C38 C 0.01546 0.80237 0.37456 0.0
C39 C 0.02256 0.77827 0.3205 0.0
H40 H 0.02232 0.71943 0.87571 0.0
H41 H 0.01149 0.67321 0.79026 0.0
H42 H 0.98848 0.62164 0.02128 0.0
H43 H 0.99951 0.66861 0.1086 0.0
H44 H 0.0608 0.78207 0.88189 0.0
H45 H 0.07581 0.83052 0.8106 0.0
H46 H 0.09419 0.87419 0.05759 0.0
H47 H 0.07919 0.82586 0.12941 0.0
H48 H 0.9603 0.77457 0.19033 0.0
H49 H 0.94725 0.81609 0.28655 0.0
H50 H 0.03238 0.81129 0.42097 0.0
H51 H 0.0449 0.76977 0.32602 0.0
N52 N 0.00894 0.73171 0.12935 0.0
N53 N 0.0415 0.74791 0.01294 0.0
N54 N 0.03882 0.7791 0.13462 0.0
C55 C 0.02123 0.72619 0.04969 0.0
C56 C 0.05053 0.77434 0.05536 0.0
C57 C 0.01823 0.75831 0.17213 0.0
C58 C 0.01195 0.6978 0.99933 0.0
C59 C 0.01485 0.69837 0.90892 0.0
C60 C 0.00846 0.67185 0.85961 0.0
C61 C 0.9992 0.64375 0.89889 0.0
C62 C 0.99579 0.64297 0.98929 0.0
C63 C 1.00187 0.66986 0.03911 0.0
C64 C 0.06814 0.80025 0.01138 0.0
C65 C 0.06917 0.80165 0.92093 0.0
C66 C 0.07788 0.82941 0.88001 0.0
C67 C 0.08589 0.85609 0.92887 0.0
C68 C 0.08787 0.85396 0.01869 0.0
C69 C 0.07923 0.82626 0.05958 0.0
C70 C 1.00341 0.76865 0.25148 0.0
C71 C 0.97511 0.78096 0.24432 0.0
C72 C 0.68681 0.98496 0.24492 0.0
C73 C 0.68235 1.00212 0.32065 0.0
C74 C 0.7058 0.02473 0.34484 0.0
C75 C 0.73141 0.03191 0.29081 0.0
H76 H 0.81676 0.97737 0.03216 0.0
H77 H 0.86136 0.96332 0.9476 0.0
H78 H 0.88693 0.05881 0.8948 0.0
H79 H 0.84311 0.07265 0.97915 0.0
H80 H 0.75263 0.06334 0.85534 0.0
H81 H 0.71054 0.07874 0.7708 0.0
H82 H 0.67898 0.12913 0.99009 0.0
H83 H 0.71982 0.11124 0.07704 0.0
H84 H 0.71395 0.98009 0.13012 0.0
H85 H 0.66932 0.96748 0.22367 0.0
H86 H 0.70372 0.03787 0.40372 0.0
H87 H 0.74763 0.0512 0.30753 0.0
N88 N 0.78125 0.02122 0.11532 0.0
N89 N 0.78326 0.05725 1.00308 0.0
N90 N 0.74166 0.05343 0.0991 0.0
C91 C 0.79643 0.03514 0.04615 0.0
C92 C 0.75605 0.06655 0.02931 0.0
C93 C 0.75388 0.03099 0.14262 0.0
C94 C 0.82625 0.0261 0.01194 0.0
C95 C 0.83243 0.99531 0.00438 0.0
C96 C 0.85776 0.98729 0.95503 0.0
C97 C 0.8775 0.00993 0.91299 0.0
C98 C 0.87236 0.04076 0.92604 0.0
C99 C 0.84708 0.04868 0.9743 0.0
C100 C 0.73886 0.08545 0.97312 0.0
C101 C 0.73733 0.07857 0.88468 0.0
C102 C 0.71316 0.08752 0.83608 0.0
C103 C 0.69055 0.10403 0.87487 0.0
C104 C 0.69516 0.11513 0.95961 0.0
C105 C 0.71872 0.10525 0.00913 0.0
C106 C 0.7347 0.01612 0.21248 0.0
C107 C 0.71261 0.99194 0.1915 0.0
C108 C 0.5814 0.66343 0.02295 0.0
C109 C 0.56404 0.66136 0.94745 0.0
C110 C 0.55853 0.68831 0.90441 0.0
C111 C 0.56677 0.71687 0.94225 0.0
H112 H 0.59905 0.82493 0.97786 0.0
H113 H 0.58864 0.86817 0.88926 0.0
H114 H 0.50428 0.87603 0.03079 0.0
H115 H 0.51484 0.83231 0.12059 0.0
H116 H 0.50159 0.7403 0.25843 0.0
H117 H 0.49132 0.6945 0.34638 0.0
H118 H 0.58345 0.70727 0.44395 0.0
H119 H 0.59375 0.75278 0.35489 0.0
H120 H 0.60063 0.6927 0.12305 0.0
H121 H 0.5864 0.64298 0.05656 0.0
H122 H 0.54607 0.68723 0.84439 0.0
H123 H 0.55954 0.73708 0.91194 0.0
N124 N 0.57274 0.77314 0.04668 0.0
N125 N 0.55421 0.7893 0.18169 0.0
N126 N 0.57062 0.7402 0.16364 0.0
C127 C 0.56213 0.79548 0.0973 0.0
C128 C 0.55939 0.76153 0.21509 0.0
C129 C 0.57702 0.74544 0.07969 0.0
C130 C 0.55771 0.82513 0.05608 0.0
C131 C 0.57851 0.83618 0.99127 0.0
C132 C 0.5726 0.86101 0.94051 0.0
C133 C 0.54548 0.87528 0.9522 0.0
C134 C 0.52521 0.8652 0.01959 0.0
C135 C 0.53138 0.84044 0.07158 0.0
C136 C 0.5484 0.75037 0.30025 0.0
C137 C 0.51891 0.73466 0.30338 0.0
C138 C 0.51325 0.70798 0.35233 0.0
C139 C 0.53677 0.69699 0.4008 0.0
C140 C 0.56484 0.7152 0.40753 0.0
C141 C 0.57059 0.74165 0.35758 0.0
C142 C 0.58048 0.71868 0.02372 0.0
C143 C 0.58968 0.69191 0.06068 0.0
C144 C 0.2085 0.50309 0.80791 0.0
C145 C 0.17917 0.49151 0.83801 0.0
C146 C 0.17545 0.48539 0.92665 0.0
C147 C 0.1996 0.49253 0.98394 0.0
H148 H 0.33055 0.57523 0.18681 0.0
H149 H 0.37206 0.56465 0.28106 0.0
H150 H 0.34615 0.46765 0.25483 0.0
H151 H 0.30385 0.47837 0.15949 0.0
H152 H 0.24155 0.58198 0.27777 0.0
H153 H 0.19474 0.59745 0.34272 0.0
H154 H 0.16422 0.62396 0.09305 0.0
H155 H 0.21062 0.60689 0.02714 0.0
H156 H 0.25389 0.52227 0.84171 0.0
H157 H 0.21234 0.50799 0.74014 0.0
H158 H 0.15319 0.47744 0.95332 0.0
H159 H 0.19505 0.49008 0.0525 0.0
N160 N 0.27226 0.5172 0.05565 0.0
N161 N 0.27302 0.5611 0.14513 0.0
N162 N 0.2346 0.55165 0.04297 0.0
C163 C 0.28601 0.5355 0.11918 0.0
C164 C 0.24748 0.5694 0.1069 0.0
C165 C 0.2466 0.52582 0.01657 0.0
C166 C 0.31375 0.52765 0.16567 0.0
C167 C 0.33377 0.55156 0.20014 0.0
C168 C 0.35768 0.5455 0.25418 0.0
C169 C 0.36227 0.51535 0.27635 0.0
C170 C 0.34292 0.49118 0.23991 0.0
C171 C 0.31897 0.49728 0.18452 0.0
C172 C 0.22908 0.59219 0.14715 0.0
C173 C 0.22564 0.59254 0.23719 0.0
C174 C 0.19869 0.60144 0.27451 0.0
C175 C 0.1752 0.61049 0.22215 0.0
C176 C 0.18147 0.61587 0.13431 0.0
C177 C 0.20813 0.60636 0.09671 0.0
C178 C 0.22804 0.50634 0.9547 0.0
C179 C 0.23259 0.51067 0.86575 0.0
C180 C 0.01666 0.2051 0.72256 0.0
C181 C 0.04279 0.18972 0.73802 0.0
C182 C 0.06322 0.20134 0.80246 0.0
C183 C 0.05587 0.2255 0.85642 0.0
H184 H 0.96409 0.31589 0.12479 0.0
H185 H 0.97384 0.3627 0.21006 0.0
H186 H 0.06898 0.36958 0.13066 0.0
H187 H 0.05907 0.32253 0.04338 0.0
H188 H 0.97486 0.22718 0.21494 0.0
H189 H 0.962 0.17845 0.28765 0.0
H190 H 0.93328 0.13624 0.0456 0.0
H191 H 0.94666 0.18475 0.97247 0.0
H192 H 0.98732 0.2381 0.76918 0.0
H193 H 1.00008 0.19654 0.67479 0.0
H194 H 0.08363 0.19012 0.81569 0.0
H195 H 0.07018 0.23155 0.91167 0.0
N196 N 0.01944 0.2775 0.96108 0.0
N197 N 0.98546 0.26318 0.07628 0.0
N198 N 0.99275 0.22848 0.96474 0.0
C199 C 1.00507 0.28477 0.03642 0.0
C200 C 0.97922 0.23498 0.04041 0.0
C201 C 0.01268 0.24924 0.92471 0.0
C202 C 0.01087 0.31538 0.07792 0.0
C203 C 0.98702 0.32759 0.12436 0.0
C204 C 0.99255 0.35451 0.17283 0.0
C205 C 0.02218 0.36968 0.17748 0.0
C206 C 0.04593 0.35822 0.12852 0.0
C207 C 0.04024 0.33144 0.07835 0.0
C208 C 0.96232 0.20958 0.08788 0.0
C209 C 0.96471 0.20784 0.17782 0.0
C210 C 0.95742 0.1799 0.21939 0.0
C211 C 0.94747 0.15346 0.1716 0.0
C212 C 0.94168 0.15613 0.08341 0.0
C213 C 0.94916 0.18393 0.04182 0.0
C214 C 0.02797 0.23837 0.84689 0.0
C215 C 0.00939 0.22919 0.77637 0.0
C216 C 0.33468 0.97278 0.77661 0.0
C217 C 0.34702 1.00353 0.77722 0.0
C218 C 0.33195 0.02476 0.82716 0.0
C219 C 0.3065 0.01506 0.87971 0.0
H220 H 0.18586 0.93381 0.10784 0.0
H221 H 0.14139 0.94748 0.19007 0.0
H222 H 0.17342 0.04319 0.16698 0.0
H223 H 0.21836 0.02924 0.08351 0.0
H224 H 0.27546 0.94284 0.25591 0.0
H225 H 0.31669 0.92952 0.34729 0.0
H226 H 0.35632 0.88307 0.13242 0.0
H227 H 0.31579 0.89801 0.03956 0.0
H228 H 0.30223 0.93883 0.83277 0.0
H229 H 0.34588 0.9557 0.74032 0.0
H230 H 0.34087 0.04864 0.82907 0.0
H231 H 0.2969 0.03151 0.9222 0.0
N232 N 0.25025 0.98261 0.98501 0.0
N233 N 0.24853 0.94993 0.10527 0.0
N234 N 0.28942 0.95043 0.00734 0.0
C235 C 0.23538 0.97085 0.05746 0.0
C236 C 0.27552 0.93969 0.08071 0.0
C237 C 0.27724 0.97171 0.95902 0.0
C238 C 0.20549 0.98046 0.08857 0.0
C239 C 0.18294 0.95785 0.11789 0.0
C240 C 0.15734 0.9657 0.16485 0.0
C241 C 0.15364 0.99646 0.18484 0.0
C242 C 0.17554 0.01928 0.15237 0.0
C243 C 0.2011 0.01137 0.10394 0.0
C244 C 0.29286 0.92203 0.14029 0.0
C245 C 0.29221 0.92864 0.22902 0.0
C246 C 0.31584 0.92078 0.28174 0.0
C247 C 0.34009 0.90558 0.24682 0.0
C248 C 0.33822 0.89524 0.16076 0.0
C249 C 0.31501 0.90372 0.10764 0.0
C250 C 0.29587 0.98389 0.88412 0.0
C251 C 0.30958 0.96309 0.82969 0.0
C252 C 0.44194 0.35243 0.08422 0.0
C253 C 0.45725 0.35551 0.16311 0.0
C254 C 0.46241 0.32915 0.20931 0.0
C255 C 0.45559 0.30018 0.17268 0.0
H256 H 0.48716 0.22098 0.19284 0.0
H257 H 0.49783 0.17746 0.27822 0.0
H258 H 0.48566 0.11854 0.05432 0.0
H259 H 0.47435 0.16279 0.96728 0.0
H260 H 0.5233 0.27185 0.85255 0.0
H261 H 0.53368 0.31747 0.76391 0.0
H262 H 0.44023 0.30726 0.67589 0.0
H263 H 0.42986 0.26194 0.76539 0.0
H264 H 0.42558 0.32198 0.98334 0.0
H265 H 0.43766 0.3724 0.04736 0.0
H266 H 0.47371 0.33104 0.27112 0.0
H267 H 0.46242 0.2805 0.20656 0.0
N268 N 0.45727 0.24427 0.07381 0.0
N269 N 0.4748 0.2266 0.93962 0.0
N270 N 0.4527 0.27325 0.9509 0.0
C271 C 0.46962 0.22218 0.02624 0.0
C272 C 0.46558 0.25223 0.90183 0.0
C273 C 0.44871 0.26983 0.03658 0.0
C274 C 0.47958 0.19541 0.07304 0.0
C275 C 0.48681 0.19885 0.16103 0.0
C276 C 0.49314 0.17386 0.21024 0.0
C277 C 0.49235 0.14447 0.17348 0.0
C278 C 0.48602 0.14089 0.08478 0.0
C279 C 0.47987 0.16622 0.03477 0.0
C280 C 0.4758 0.26313 0.81566 0.0
C281 C 0.50561 0.27799 0.80948 0.0
C282 C 0.51136 0.30459 0.76018 0.0
C283 C 0.4876 0.3163 0.71429 0.0
C284 C 0.45905 0.29881 0.71026 0.0
C285 C 0.45323 0.27245 0.7605 0.0
C286 C 0.44387 0.29729 0.08878 0.0
C287 C 0.43505 0.32349 0.04763 0.0
Dy288 Dy 0.03637 0.99357 0.61186 0.0
C289 C 0.96728 0.04547 0.36227 0.0
C290 C 0.06494 0.96241 0.73453 0.0
Dy291 Dy 0.99476 0.01376 0.48597 0.0
O292 O 0.07499 0.96772 0.65685 0.0
O293 O 0.03948 0.9749 0.74608 0.0
O294 O 0.07623 0.0171 0.53939 0.0
O295 O 0.03931 0.99559 0.47016 0.0
C296 C 0.06518 0.011 0.46316 0.0
C297 C 0.96575 0.99572 0.63378 0.0
O298 O 0.9912 0.96504 0.44145 0.0
O299 O 0.01147 0.94887 0.56738 0.0
O300 O 0.95738 0.04129 0.44064 0.0
O301 O 0.99184 0.03149 0.35072 0.0
O302 O 0.95484 0.99004 0.55717 0.0
O303 O 0.99152 0.01145 0.62778 0.0
O304 O 0.03962 0.0421 0.65714 0.0
O305 O 0.02003 0.05832 0.53047 0.0
C306 C 0.99767 0.94271 0.49286 0.0
C307 C 0.03351 0.06445 0.60545 0.0
Dy308 Dy 0.49717 0.97972 0.50063 0.0
C309 C 0.57789 0.07077 0.69837 0.0
C310 C 0.45215 0.94232 0.42359 0.0
Dy311 Dy 0.53397 0.03407 0.61434 0.0
O312 O 0.4733 0.95974 0.3836 0.0
O313 O 0.4556 0.94529 0.50658 0.0
O314 O 0.53956 0.96248 0.43673 0.0
O315 O 0.54365 0.99888 0.52192 0.0
C316 C 0.55889 0.98318 0.4719 0.0
C317 C 0.47228 0.03044 0.6437 0.0
O318 O 0.52784 0.05811 0.49016 0.0
O319 O 0.49089 0.0229 0.42707 0.0
O320 O 0.57554 0.06867 0.61492 0.0
O321 O 0.5563 0.05288 0.73477 0.0
O322 O 0.49189 0.05015 0.68161 0.0
O323 O 0.48737 0.01534 0.59163 0.0
O324 O 0.50273 0.95621 0.62609 0.0
O325 O 0.5411 0.99062 0.68526 0.0
C326 C 0.50779 0.04986 0.42842 0.0
C327 C 0.52348 0.96412 0.68613 0.0
Dy328 Dy 0.50309 0.51652 0.6482 0.0
C329 C 0.51109 0.46759 0.31395 0.0
C330 C 0.51289 0.54756 0.79934 0.0
Dy331 Dy 0.52257 0.49676 0.46718 0.0
O332 O 0.4867 0.5441 0.75967 0.0
O333 O 0.53255 0.53224 0.75893 0.0
O334 O 0.45325 0.5033 0.61615 0.0
O335 O 0.48493 0.51951 0.52054 0.0
C336 C 0.45775 0.5082 0.53376 0.0
C337 C 0.5682 0.50494 0.58095 0.0
O338 O 0.52734 0.54706 0.44187 0.0
O339 O 0.52148 0.56121 0.58546 0.0
O340 O 0.53704 0.46845 0.35471 0.0
O341 O 0.49276 0.48427 0.35485 0.0
O342 O 0.57241 0.50974 0.49835 0.0
O343 O 0.54097 0.49377 0.59491 0.0
O344 O 0.49875 0.46629 0.67394 0.0
O345 O 0.50373 0.45216 0.5299 0.0
C346 C 0.52746 0.56831 0.50344 0.0
C347 C 0.49815 0.44506 0.61219 0.0
Dy348 Dy 0.99732 0.47895 0.59725 0.0
C349 C 0.06403 0.56525 0.39202 0.0
C350 C 0.95672 0.43761 0.67943 0.0
Dy351 Dy 0.02689 0.5279 0.49735 0.0
O352 O 0.95734 0.44321 0.59781 0.0
O353 O 0.97835 0.45489 0.7175 0.0
O354 O 0.02599 0.44581 0.5321 0.0
O355 O 0.01067 0.48102 0.45991 0.0
C356 C 0.02633 0.45828 0.45681 0.0
C357 C 0.99803 0.54943 0.63602 0.0
O358 O 0.98148 0.52499 0.43141 0.0
O359 O 0.95692 0.50161 0.54779 0.0
O360 O 0.05778 0.57099 0.47201 0.0
O361 O 0.05003 0.53903 0.36978 0.0
O362 O 0.99863 0.56156 0.55997 0.0
O363 O 0.01325 0.52622 0.63505 0.0
O364 O 0.04106 0.48169 0.66975 0.0
O365 O 0.06746 0.51018 0.56403 0.0
C366 C 0.95582 0.51544 0.47266 0.0
C367 C 0.06712 0.49416 0.63625 0.0
C368 C 0.13694 0.02191 0.32122 0.0
C369 C 0.1291 1.00394 0.24761 0.0
C370 C 0.11565 0.02516 0.38855 0.0
C371 C 0.08551 0.01073 0.38516 0.0
H372 H 0.1602 0.03231 0.329 0.0
H373 H 0.12327 0.03825 0.44521 0.0
S374 S 0.05215 0.96443 0.20156 0.0
N375 N 0.08811 0.97392 0.17174 0.0
N376 N 0.04815 0.9801 0.29783 0.0
C377 C 0.0768 0.99422 0.30962 0.0
C378 C 0.09856 0.99076 0.24119 0.0
C379 C 0.52219 0.12066 0.28775 0.0
C380 C 0.4975 0.1181 0.23005 0.0
C381 C 0.52548 0.0983 0.35011 0.0
C382 C 0.50418 0.07226 0.35801 0.0
H383 H 0.53891 0.14051 0.28576 0.0
H384 H 0.54482 0.10179 0.39315 0.0
S385 S 0.43575 0.05415 0.22044 0.0
N386 N 0.45169 0.08711 0.18319 0.0
N387 N 0.45784 0.04485 0.2997 0.0
C388 C 0.47983 0.06889 0.29872 0.0
C389 C 0.47653 0.09179 0.23499 0.0
C390 C 0.41644 0.52534 0.32792 0.0
C391 C 0.38693 0.51003 0.33889 0.0
C392 C 0.43915 0.52403 0.39048 0.0
C393 C 0.43341 0.50745 0.46721 0.0
H394 H 0.4219 0.53894 0.2709 0.0
H395 H 0.46124 0.53679 0.37928 0.0
S396 S 0.3604 0.46231 0.52646 0.0
N397 N 0.35349 0.47698 0.43174 0.0
N398 N 0.39631 0.47443 0.54923 0.0
C399 C 0.4043 0.49138 0.47828 0.0
C400 C 0.38111 0.49258 0.41409 0.0
C401 C 0.00988 0.4204 0.2389 0.0
C402 C 0.02814 0.39564 0.23961 0.0
C403 C 0.0111 0.44217 0.3063 0.0
C404 C 0.03019 0.43958 0.37777 0.0
H405 H 0.99363 0.42224 0.18751 0.0
H406 H 0.99562 0.45999 0.30485 0.0
S407 S 0.08434 0.38057 0.40731 0.0
N408 N 0.06751 0.37122 0.31473 0.0
N409 N 0.06946 0.41175 0.44175 0.0
C410 C 0.04974 0.41593 0.37687 0.0
C411 C 0.04881 0.39406 0.30774 0.0
C412 C 0.93111 0.01832 0.84958 0.0
C413 C 0.90169 1.00205 0.84938 0.0
C414 C 0.9525 0.0149 0.78233 0.0
C415 C 0.94523 0.99532 0.71148 0.0
H416 H 0.93732 0.03458 0.90093 0.0
H417 H 0.97432 0.02877 0.78403 0.0
S418 S 0.87239 0.94586 0.68231 0.0
N419 N 0.8673 0.96433 0.77385 0.0
N420 N 0.90735 0.95778 0.64853 0.0
C421 C 0.91655 0.97781 0.71262 0.0
C422 C 0.89486 0.98118 0.78118 0.0
C423 C 0.56003 0.92378 0.87014 0.0
C424 C 0.53806 0.89924 0.89014 0.0
C425 C 0.55488 0.94487 0.80548 0.0
C426 C 0.52773 0.94208 0.75691 0.0
H427 H 0.58159 0.92649 0.9042 0.0
H428 H 0.57272 0.96311 0.79225 0.0
S429 S 0.46254 0.88214 0.78555 0.0
N430 N 0.48785 0.87368 0.85745 0.0
N431 N 0.47805 0.9131 0.73615 0.0
C432 C 0.50532 0.91789 0.77744 0.0
C433 C 0.51048 0.8966 0.84396 0.0
C434 C 0.64682 0.52015 0.68515 0.0
C435 C 0.64277 0.5057 0.76584 0.0
C436 C 0.62251 0.52029 0.62653 0.0
C437 C 0.59321 0.50575 0.64578 0.0
H438 H 0.66911 0.53116 0.66679 0.0
H439 H 0.62684 0.53157 0.56519 0.0
S440 S 0.57096 0.46332 0.84666 0.0
N441 N 0.60727 0.47602 0.86103 0.0
N442 N 0.56194 0.47565 0.75092 0.0
C443 C 0.58887 0.49128 0.72639 0.0
C444 C 0.61351 0.49145 0.78635 0.0
C445 C 0.976 0.61669 0.76917 0.0
C446 C 0.99404 0.61577 0.84344 0.0
C447 C 0.97574 0.59373 0.70561 0.0
C448 C 0.99349 0.56882 0.71343 0.0
H449 H 0.96311 0.63615 0.75809 0.0
H450 H 0.96269 0.59636 0.64766 0.0
S451 S 0.04222 0.55388 0.89965 0.0
N452 N 0.02821 0.58655 0.92455 0.0
N453 N 0.02751 0.54315 0.80526 0.0
C454 C 0.00985 0.56635 0.7903 0.0
C455 C 0.01017 0.58989 0.85525 0.0
C456 C 0.93339 0.117 0.29191 0.0
C457 C 0.94763 0.1229 0.21137 0.0
C458 C 0.93795 0.09043 0.33754 0.0
C459 C 0.95727 0.0691 0.30473 0.0
H460 H 0.91964 0.13363 0.32134 0.0
H461 H 0.9277 0.08755 0.4012 0.0
S462 S 0.99783 0.0726 0.09345 0.0
N463 N 0.98015 0.10418 0.09799 0.0
N464 N 0.98868 0.05431 0.18403 0.0
C465 C 0.97016 0.07379 0.2221 0.0
C466 C 0.96535 0.10072 0.17533 0.0
C467 C 0.39655 0.91886 0.24689 0.0
C468 C 0.36992 0.90738 0.29217 0.0
C469 C 0.42373 0.92807 0.28995 0.0
C470 C 0.42543 0.92624 0.38003 0.0
H471 H 0.39592 0.92295 0.1782 0.0
H472 H 0.443 0.93838 0.25255 0.0
S473 S 0.3641 0.89282 0.52727 0.0
N474 N 0.34824 0.89081 0.43099 0.0
N475 N 0.39963 0.9083 0.51233 0.0
C476 C 0.39994 0.91237 0.4256 0.0
C477 C 0.37207 0.903 0.38158 0.0
C478 C 0.50255 0.38924 0.21354 0.0
C479 C 0.47127 0.38577 0.19203 0.0
C480 C 0.51637 0.41708 0.2452 0.0
C481 C 0.49933 0.44236 0.25663 0.0
H482 H 0.5163 0.37003 0.2077 0.0
H483 H 0.54002 0.41818 0.26564 0.0
S484 S 0.41744 0.44599 0.20169 0.0
N485 N 0.42423 0.41045 0.17819 0.0
N486 N 0.45025 0.46309 0.23666 0.0
C487 C 0.46855 0.4398 0.22987 0.0
C488 C 0.45446 0.41138 0.19796 0.0
C489 C 0.13587 0.61622 0.33835 0.0
C490 C 0.14308 0.6062 0.25475 0.0
C491 C 0.10874 0.60468 0.38032 0.0
C492 C 0.08808 0.58258 0.34025 0.0
H493 H 0.15226 0.63151 0.3736 0.0
H494 H 0.10504 0.61152 0.44665 0.0
S495 S 0.09385 0.55218 0.11747 0.0
N496 N 0.12549 0.57531 0.13016 0.0
N497 N 0.07446 0.55416 0.20891 0.0
C498 C 0.09358 0.57452 0.25412 0.0
C499 C 0.12111 0.58624 0.21128 0.0
C500 C 0.06656 0.90745 0.91909 0.0
C501 C 0.08651 0.88644 0.88784 0.0
C502 C 0.06135 0.93341 0.87177 0.0
C503 C 0.07607 0.93935 0.79194 0.0
H504 H 0.05327 0.90274 0.97765 0.0
H505 H 0.04438 0.94794 0.89563 0.0
S506 S 0.13423 0.89405 0.68914 0.0
N507 N 0.12375 0.87512 0.77782 0.0
N508 N 0.11429 0.92416 0.6888 0.0
C509 C 0.09801 0.91992 0.76356 0.0
C510 C 0.10309 0.89332 0.81146 0.0
C511 C 0.65796 0.10696 0.74342 0.0
C512 C 0.66002 0.10361 0.83341 0.0
C513 C 0.63049 0.0984 0.70001 0.0
C514 C 0.60415 0.08633 0.74523 0.0
H515 H 0.67819 0.11453 0.70568 0.0
H516 H 0.63046 0.09947 0.63025 0.0
S517 S 0.59588 0.077 0.98202 0.0
N518 N 0.63211 0.08997 0.96666 0.0
N519 N 0.58051 0.07517 0.88533 0.0
C520 C 0.60505 0.08554 0.83564 0.0
C521 C 0.63299 0.09392 0.87977 0.0
C522 C 0.56711 0.60625 0.91004 0.0
C523 C 0.54956 0.63129 0.91819 0.0
C524 C 0.55406 0.578 0.87896 0.0
C525 C 0.52302 0.57385 0.85496 0.0
H526 H 0.59137 0.60882 0.92457 0.0
H527 H 0.56888 0.55981 0.86911 0.0
S528 S 0.4662 0.63095 0.87752 0.0
N529 N 0.49875 0.64917 0.91059 0.0
N530 N 0.47431 0.5961 0.85047 0.0
C531 C 0.50472 0.59806 0.86862 0.0
C532 C 0.51802 0.62685 0.90026 0.0
C533 C 0.87474 0.41404 0.73797 0.0
C534 C 0.87677 0.40102 0.82024 0.0
C535 C 0.90101 0.42358 0.69003 0.0
C536 C 0.93032 0.42115 0.72315 0.0
H537 H 0.85298 0.41955 0.71298 0.0
H538 H 0.89827 0.43527 0.62975 0.0
S539 S 0.94862 0.38151 0.92281 0.0
N540 N 0.91076 0.37976 0.92265 0.0
N541 N 0.96034 0.40021 0.83468 0.0
C542 C 0.93294 0.40563 0.80073 0.0
C543 C 0.90608 0.39483 0.84853 0.0
C544 C 0.05042 0.13405 0.75189 0.0
C545 C 0.04543 0.15886 0.6985 0.0
C546 C 0.0478 0.10381 0.72035 0.0
C547 C 0.03996 0.09699 0.63404 0.0
H548 H 0.05483 0.13778 0.81994 0.0
H549 H 0.05072 0.08559 0.76523 0.0
S550 S 0.02853 0.1541 0.46462 0.0
N551 N 0.03538 0.17486 0.5529 0.0
N552 N 0.03012 0.11817 0.49347 0.0
C553 C 0.03653 0.12177 0.57871 0.0
C554 C 0.03931 0.1526 0.61094 0.0
C555 C 0.40092 0.02842 0.78611 0.0
C556 C 0.37784 0.0123 0.73672 0.0
C557 C 0.43101 0.03434 0.75425 0.0
C558 C 0.4396 0.0243 0.67166 0.0
H559 H 0.39597 0.03572 0.85132 0.0
H560 H 0.44792 0.04633 0.79597 0.0
S561 S 0.38705 0.98521 0.51117 0.0
N562 N 0.36508 0.98894 0.59728 0.0
N563 N 0.42177 1.00023 0.53757 0.0
C564 C 0.41662 0.00916 0.62007 0.0
C565 C 0.38578 1.00311 0.65255 0.0
C566 C 0.49987 0.37234 0.74365 0.0
C567 C 0.49086 0.34871 0.68447 0.0
C568 C 0.50133 0.4033 0.72033 0.0
C569 C 0.49421 0.41205 0.63635 0.0
H570 H 0.50537 0.36687 0.8093 0.0
H571 H 0.50859 0.42048 0.76839 0.0
S572 S 0.46921 0.35901 0.45694 0.0
N573 N 0.47437 0.33615 0.53844 0.0
N574 N 0.47757 0.39424 0.49371 0.0
C575 C 0.48519 0.38861 0.57634 0.0
C576 C 0.48332 0.35703 0.60062 0.0
C577 C 0.14801 0.51349 0.72197 0.0
C578 C 0.15178 0.48959 0.77998 0.0
C579 C 0.12105 0.51425 0.67389 0.0
C580 C 0.09643 0.49136 0.68239 0.0
H581 H 0.16555 0.53251 0.71589 0.0
H582 H 0.1191 0.53358 0.63209 0.0
S583 S 0.09577 0.42175 0.81677 0.0
N584 N 0.12945 0.44072 0.83584 0.0
N585 N 0.07854 0.44275 0.74804 0.0
C586 C 0.10021 0.46677 0.73769 0.0
C587 C 0.12787 0.46574 0.78574 0.0
C588 C 0.98074 0.87289 0.34699 0.0
C589 C 0.98622 0.84819 0.40025 0.0
C590 C 0.98323 0.90316 0.37835 0.0
C591 C 0.99138 0.91012 0.4644 0.0
H592 H 0.97603 0.86904 0.27914 0.0
H593 H 0.97997 0.92132 0.33356 0.0
S594 S 1.00427 0.85328 0.63336 0.0
N595 N 0.99722 0.83242 0.54537 0.0
N596 N 1.00211 0.88913 0.60457 0.0
C597 C 0.99532 0.88542 0.5196 0.0
C598 C 0.99273 0.85458 0.48751 0.0
C599 C 0.6376 0.96831 0.38323 0.0
C600 C 0.65234 0.99789 0.36951 0.0
C601 C 0.60796 0.96387 0.42 0.0
C602 C 0.59184 0.98875 0.44598 0.0
H603 H 0.64879 0.94833 0.3637 0.0
H604 H 0.59728 0.94069 0.4265 0.0
S605 S 0.61889 0.07084 0.42067 0.0
N606 N 0.64756 0.05259 0.38286 0.0
N607 N 0.59237 0.04398 0.45286 0.0
C608 C 0.60639 0.01838 0.43445 0.0
C609 C 0.63647 0.023 0.39617 0.0
C610 C 0.52682 0.6408 0.37036 0.0
C611 C 0.53397 0.66459 0.43054 0.0
C612 C 0.52565 0.60989 0.39401 0.0
C613 C 0.53123 0.60134 0.47926 0.0
H614 H 0.52251 0.64613 0.30379 0.0
H615 H 0.51978 0.59259 0.3451 0.0
S616 S 0.55096 0.65496 0.66176 0.0
N617 N 0.54702 0.67759 0.57892 0.0
N618 N 0.54434 0.6196 0.6243 0.0
C619 C 0.53842 0.62498 0.54028 0.0
C620 C 0.53998 0.65652 0.51571 0.0
C621 C 0.89495 0.52653 0.30447 0.0
C622 C 0.86706 0.52125 0.35077 0.0
C623 C 0.92346 0.5257 0.34489 0.0
C624 C 0.92542 0.51935 0.43341 0.0
H625 H 0.89483 0.52998 0.23544 0.0
H626 H 0.94407 0.52892 0.30548 0.0
S627 S 0.85944 0.5077 0.58637 0.0
N628 N 0.84349 0.51252 0.49217 0.0
N629 N 0.89678 0.51031 0.56766 0.0
C630 C 0.89776 0.51538 0.48132 0.0
C631 C 0.86874 0.51647 0.44023 0.0
loop_
_geom_bond_atom_site_label_1
_geom_bond_atom_site_label_2
_geom_bond_distance
_geom_bond_site_symmetry_2
_ccdc_geom_bond_type
C0 C1 1.384 . S
C0 H13 0.947 . S
C0 C35 1.382 . S
C1 C0 1.384 . S
C1 C2 1.378 . S
C2 C1 1.378 . S
C2 C3 1.378 . S
C2 H14 0.952 . S
C3 C2 1.378 . S
C3 H15 0.950 . S
C3 C34 1.383 . S
H4 C23 0.947 . S
H5 C24 0.946 . S
H6 C26 0.953 . S
H7 C27 0.945 . S
H8 C29 0.952 . S
H9 C30 0.949 . S
H10 C32 0.950 . S
H11 C33 0.948 . S
H12 C35 0.951 . S
H13 C0 0.947 . S
H14 C2 0.952 . S
H15 C3 0.950 . S
N16 C19 1.382 . S
N16 C21 1.363 . S
N17 C19 1.371 1_556 S
N17 C20 1.372 . S
N18 C20 1.361 1_554 S
N18 C21 1.377 . S
C19 N16 1.382 . S
C19 N17 1.371 1_554 S
C19 C22 1.480 1_554 S
C20 N17 1.372 . S
C20 N18 1.361 1_556 S
C20 C28 1.457 . S
C21 N16 1.363 . S
C21 N18 1.377 . S
C21 C34 1.479 . S
C22 C19 1.480 1_556 S
C22 C23 1.383 1_556 S
C22 C27 1.385 . S
C23 H4 0.947 . S
C23 C22 1.383 1_554 S
C23 C24 1.388 . S
C24 H5 0.946 . S
C24 C23 1.388 . S
C24 C25 1.384 1_554 S
C25 C24 1.384 1_556 S
C25 C26 1.377 . S
C26 H6 0.953 . S
C26 C25 1.377 . S
C26 C27 1.369 . S
C27 H7 0.945 . S
C27 C22 1.385 . S
C27 C26 1.369 . S
C28 C20 1.457 . S
C28 C29 1.372 . S
C28 C33 1.364 . S
C29 H8 0.952 . S
C29 C28 1.372 . S
C29 C30 1.389 . S
C30 H9 0.949 . S
C30 C29 1.389 . S
C30 C31 1.387 . S
C31 C30 1.387 . S
C31 C32 1.372 . S
C32 H10 0.950 . S
C32 C31 1.372 . S
C32 C33 1.379 . S
C33 H11 0.948 . S
C33 C28 1.364 . S
C33 C32 1.379 . S
C34 C3 1.383 . S
C34 C21 1.479 . S
C34 C35 1.398 . S
C35 C0 1.382 . S
C35 H12 0.951 . S
C35 C34 1.398 . S
C36 C37 1.384 . S
C36 H49 0.947 . S
C36 C71 1.382 . S
C37 C36 1.384 . S
C37 C38 1.378 . S
C38 C37 1.378 . S
C38 C39 1.378 . S
C38 H50 0.952 . S
C39 C38 1.378 . S
C39 H51 0.950 . S
C39 C70 1.383 . S
H40 C59 0.947 . S
H41 C60 0.946 . S
H42 C62 0.953 . S
H43 C63 0.945 . S
H44 C65 0.952 . S
H45 C66 0.949 . S
H46 C68 0.950 . S
H47 C69 0.948 . S
H48 C71 0.951 . S
H49 C36 0.947 . S
H50 C38 0.952 . S
H51 C39 0.950 . S
N52 C55 1.382 . S
N52 C57 1.363 . S
N53 C55 1.371 1_556 S
N53 C56 1.372 . S
N54 C56 1.361 1_554 S
N54 C57 1.377 . S
C55 N52 1.382 . S
C55 N53 1.371 1_554 S
C55 C58 1.480 1_554 S
C56 N53 1.372 . S
C56 N54 1.361 1_556 S
C56 C64 1.457 . S
C57 N52 1.363 . S
C57 N54 1.377 . S
C57 C70 1.479 . S
C58 C55 1.480 1_556 S
C58 C59 1.383 1_556 S
C58 C63 1.385 . S
C59 H40 0.947 . S
C59 C58 1.383 1_554 S
C59 C60 1.388 . S
C60 H41 0.946 . S
C60 C59 1.388 . S
C60 C61 1.384 1_554 S
C61 C60 1.384 1_556 S
C61 C62 1.377 . S
C62 H42 0.953 . S
C62 C61 1.377 . S
C62 C63 1.369 . S
C63 H43 0.945 . S
C63 C58 1.385 . S
C63 C62 1.369 . S
C64 C56 1.457 . S
C64 C65 1.372 . S
C64 C69 1.364 . S
C65 H44 0.952 . S
C65 C64 1.372 . S
C65 C66 1.389 . S
C66 H45 0.949 . S
C66 C65 1.389 . S
C66 C67 1.387 . S
C67 C66 1.387 . S
C67 C68 1.372 . S
C68 H46 0.950 . S
C68 C67 1.372 . S
C68 C69 1.379 . S
C69 H47 0.948 . S
C69 C64 1.364 . S
C69 C68 1.379 . S
C70 C39 1.383 . S
C70 C57 1.479 . S
C70 C71 1.398 . S
C71 C36 1.382 . S
C71 H48 0.951 . S
C71 C70 1.398 . S
C72 C73 1.384 1_565 S
C72 H85 0.947 . S
C72 C107 1.382 1_565 S
C73 C72 1.384 1_545 S
C73 C74 1.378 . S
C74 C73 1.378 . S
C74 C75 1.378 . S
C74 H86 0.952 . S
C75 C74 1.378 . S
C75 H87 0.950 . S
C75 C106 1.383 . S
H76 C95 0.947 . S
H77 C96 0.954 . S
H78 C98 0.953 . S
H79 C99 0.945 . S
H80 C101 0.946 1_565 S
H81 C102 0.949 . S
H82 C104 0.950 . S
H83 C105 0.948 . S
H84 C107 0.951 1_565 S
H85 C72 0.947 . S
H86 C74 0.952 . S
H87 C75 0.950 . S
N88 C91 1.382 . S
N88 C93 1.363 . S
N89 C91 1.371 1_556 S
N89 C92 1.372 . S
N90 C92 1.361 1_554 S
N90 C93 1.377 . S
C91 N88 1.382 . S
C91 N89 1.371 1_554 S
C91 C94 1.480 1_554 S
C92 N89 1.372 . S
C92 N90 1.361 1_556 S
C92 C100 1.457 . S
C93 N88 1.363 . S
C93 N90 1.377 . S
C93 C106 1.479 . S
C94 C91 1.480 1_556 S
C94 C95 1.383 1_556 S
C94 C99 1.385 . S
C95 H76 0.947 . S
C95 C94 1.383 1_554 S
C95 C96 1.383 1_545 S
C96 H77 0.954 . S
C96 C95 1.383 1_565 S
C96 C97 1.382 1_564 S
C97 C96 1.382 1_546 S
C97 C98 1.377 . S
C98 H78 0.953 . S
C98 C97 1.377 . S
C98 C99 1.369 . S
C99 H79 0.945 . S
C99 C94 1.385 . S
C99 C98 1.369 . S
C100 C92 1.457 . S
C100 C101 1.377 . S
C100 C105 1.364 . S
C101 H80 0.946 1_545 S
C101 C100 1.377 . S
C101 C102 1.389 1_545 S
C102 H81 0.949 . S
C102 C101 1.389 1_565 S
C102 C103 1.387 1_565 S
C103 C102 1.387 1_545 S
C103 C104 1.372 . S
C104 H82 0.950 . S
C104 C103 1.372 . S
C104 C105 1.379 . S
C105 H83 0.948 . S
C105 C100 1.364 . S
C105 C104 1.379 . S
C106 C75 1.383 . S
C106 C93 1.479 . S
C106 C107 1.398 . S
C107 C72 1.382 1_545 S
C107 H84 0.951 1_545 S
C107 C106 1.398 . S
C108 C109 1.384 . S
C108 H121 0.947 . S
C108 C143 1.382 . S
C109 C108 1.384 . S
C109 C110 1.378 . S
C110 C109 1.378 . S
C110 C111 1.378 . S
C110 H122 0.952 . S
C111 C110 1.378 . S
C111 H123 0.950 . S
C111 C142 1.383 . S
H112 C131 0.947 . S
H113 C132 0.946 . S
H114 C134 0.953 . S
H115 C135 0.945 . S
H116 C137 0.952 . S
H117 C138 0.949 . S
H118 C140 0.950 . S
H119 C141 0.948 . S
H120 C143 0.951 1_554 S
H121 C108 0.947 . S
H122 C110 0.952 . S
H123 C111 0.950 . S
N124 C127 1.382 1_556 S
N124 C129 1.363 1_556 S
N125 C127 1.371 . S
N125 C128 1.372 . S
N126 C128 1.361 . S
N126 C129 1.377 . S
C127 N124 1.382 1_554 S
C127 N125 1.371 . S
C127 C130 1.480 . S
C128 N125 1.372 . S
C128 N126 1.361 . S
C128 C136 1.457 . S
C129 N124 1.363 1_554 S
C129 N126 1.377 . S
C129 C142 1.479 1_554 S
C130 C127 1.480 . S
C130 C131 1.383 1_554 S
C130 C135 1.385 . S
C131 H112 0.947 . S
C131 C130 1.383 1_556 S
C131 C132 1.388 . S
C132 H113 0.946 . S
C132 C131 1.388 . S
C132 C133 1.383 . S
C133 C132 1.383 . S
C133 C134 1.378 1_556 S
C134 H114 0.953 . S
C134 C133 1.378 1_554 S
C134 C135 1.369 . S
C135 H115 0.945 . S
C135 C130 1.385 . S
C135 C134 1.369 . S
C136 C128 1.457 . S
C136 C137 1.372 . S
C136 C141 1.364 . S
C137 H116 0.952 . S
C137 C136 1.372 . S
C137 C138 1.389 . S
C138 H117 0.949 . S
C138 C137 1.389 . S
C138 C139 1.387 . S
C139 C138 1.387 . S
C139 C140 1.372 . S
C140 H118 0.950 . S
C140 C139 1.372 . S
C140 C141 1.379 . S
C141 H119 0.948 . S
C141 C136 1.364 . S
C141 C140 1.379 . S
C142 C111 1.383 . S
C142 C129 1.479 1_556 S
C142 C143 1.398 . S
C143 C108 1.382 . S
C143 H120 0.951 1_556 S
C143 C142 1.398 . S
C144 C145 1.384 . S
C144 H157 0.947 . S
C144 C179 1.382 . S
C145 C144 1.384 . S
C145 C146 1.378 . S
C146 C145 1.378 . S
C146 C147 1.378 . S
C146 H158 0.952 . S
C147 C146 1.378 . S
C147 H159 0.950 . S
C147 C178 1.383 . S
H148 C167 0.947 1_556 S
H149 C168 0.946 . S
H150 C170 0.953 . S
H151 C171 0.945 . S
H152 C173 0.952 . S
H153 C174 0.949 . S
H154 C176 0.950 . S
H155 C177 0.948 . S
H156 C179 0.951 . S
H157 C144 0.947 . S
H158 C146 0.952 . S
H159 C147 0.950 . S
N160 C163 1.382 . S
N160 C165 1.363 1_554 S
N161 C163 1.371 . S
N161 C164 1.372 . S
N162 C164 1.361 . S
N162 C165 1.377 1_554 S
C163 N160 1.382 . S
C163 N161 1.371 . S
C163 C166 1.480 . S
C164 N161 1.372 . S
C164 N162 1.361 . S
C164 C172 1.457 . S
C165 N160 1.363 1_556 S
C165 N162 1.377 1_556 S
C165 C178 1.479 . S
C166 C163 1.480 . S
C166 C167 1.383 . S
C166 C171 1.385 . S
C167 H148 0.947 1_554 S
C167 C166 1.383 . S
C167 C168 1.388 . S
C168 H149 0.946 . S
C168 C167 1.388 . S
C168 C169 1.384 . S
C169 C168 1.384 . S
C169 C170 1.377 . S
C170 H150 0.953 . S
C170 C169 1.377 . S
C170 C171 1.369 . S
C171 H151 0.945 . S
C171 C166 1.385 . S
C171 C170 1.369 . S
C172 C164 1.457 . S
C172 C173 1.372 . S
C172 C177 1.364 . S
C173 H152 0.952 . S
C173 C172 1.372 . S
C173 C174 1.389 . S
C174 H153 0.949 . S
C174 C173 1.389 . S
C174 C175 1.387 . S
C175 C174 1.387 . S
C175 C176 1.372 . S
C176 H154 0.950 . S
C176 C175 1.372 . S
C176 C177 1.379 . S
C177 H155 0.948 . S
C177 C172 1.364 . S
C177 C176 1.379 . S
C178 C147 1.383 . S
C178 C165 1.479 . S
C178 C179 1.398 . S
C179 C144 1.382 . S
C179 H156 0.951 . S
C179 C178 1.398 . S
C180 C181 1.384 . S
C180 H193 0.947 . S
C180 C215 1.382 . S
C181 C180 1.384 . S
C181 C182 1.378 . S
C182 C181 1.378 . S
C182 C183 1.378 . S
C182 H194 0.952 . S
C183 C182 1.378 . S
C183 H195 0.950 . S
C183 C214 1.383 . S
H184 C203 0.939 1_556 S
H185 C204 0.946 . S
H186 C206 0.953 . S
H187 C207 0.945 . S
H188 C209 0.952 . S
H189 C210 0.949 . S
H190 C212 0.950 . S
H191 C213 0.948 . S
H192 C215 0.951 . S
H193 C180 0.947 . S
H194 C182 0.952 . S
H195 C183 0.950 . S
N196 C199 1.382 . S
N196 C201 1.363 1_554 S
N197 C199 1.371 . S
N197 C200 1.372 . S
N198 C200 1.361 . S
N198 C201 1.377 1_554 S
C199 N196 1.382 . S
C199 N197 1.371 . S
C199 C202 1.480 . S
C200 N197 1.372 . S
C200 N198 1.361 . S
C200 C208 1.457 . S
C201 N196 1.363 1_556 S
C201 N198 1.377 1_556 S
C201 C214 1.479 . S
C202 C199 1.480 . S
C202 C203 1.383 . S
C202 C207 1.385 . S
C203 H184 0.939 1_554 S
C203 C202 1.383 . S
C203 C204 1.388 . S
C204 H185 0.946 . S
C204 C203 1.388 . S
C204 C205 1.384 . S
C205 C204 1.384 . S
C205 C206 1.377 . S
C206 H186 0.953 . S
C206 C205 1.377 . S
C206 C207 1.369 . S
C207 H187 0.945 . S
C207 C202 1.385 . S
C207 C206 1.369 . S
C208 C200 1.457 . S
C208 C209 1.372 . S
C208 C213 1.364 . S
C209 H188 0.952 . S
C209 C208 1.372 . S
C209 C210 1.389 . S
C210 H189 0.949 . S
C210 C209 1.389 . S
C210 C211 1.387 . S
C211 C210 1.387 . S
C211 C212 1.372 . S
C212 H190 0.950 . S
C212 C211 1.372 . S
C212 C213 1.379 . S
C213 H191 0.948 . S
C213 C208 1.364 . S
C213 C212 1.379 . S
C214 C183 1.383 . S
C214 C201 1.479 . S
C214 C215 1.398 . S
C215 C180 1.382 . S
C215 H192 0.951 . S
C215 C214 1.398 . S
C216 C217 1.384 1_565 S
C216 H229 0.947 . S
C216 C251 1.382 1_565 S
C217 C216 1.384 1_545 S
C217 C218 1.378 . S
C218 C217 1.378 . S
C218 C219 1.378 . S
C218 H230 0.952 . S
C219 C218 1.378 . S
C219 H231 0.950 . S
C219 C250 1.383 . S
H220 C239 0.947 1_556 S
H221 C240 0.948 . S
H222 C242 0.953 . S
H223 C243 0.945 . S
H224 C245 0.950 1_565 S
H225 C246 0.954 . S
H226 C248 0.950 . S
H227 C249 0.948 . S
H228 C251 0.949 1_565 S
H229 C216 0.947 . S
H230 C218 0.952 . S
H231 C219 0.950 . S
N232 C235 1.382 1_556 S
N232 C237 1.363 . S
N233 C235 1.371 . S
N233 C236 1.372 . S
N234 C236 1.361 . S
N234 C237 1.377 1_554 S
C235 N232 1.382 1_554 S
C235 N233 1.371 . S
C235 C238 1.480 . S
C236 N233 1.372 . S
C236 N234 1.361 . S
C236 C244 1.457 . S
C237 N232 1.363 . S
C237 N234 1.377 1_556 S
C237 C250 1.479 . S
C238 C235 1.480 . S
C238 C239 1.383 . S
C238 C243 1.385 . S
C239 H220 0.947 1_554 S
C239 C238 1.383 . S
C239 C240 1.388 1_545 S
C240 H221 0.948 . S
C240 C239 1.388 1_565 S
C240 C241 1.382 1_565 S
C241 C240 1.382 1_545 S
C241 C242 1.377 . S
C242 H222 0.953 . S
C242 C241 1.377 . S
C242 C243 1.369 . S
C243 H223 0.945 . S
C243 C238 1.385 . S
C243 C242 1.369 . S
C244 C236 1.457 . S
C244 C245 1.378 . S
C244 C249 1.364 . S
C245 H224 0.950 1_545 S
C245 C244 1.378 . S
C245 C246 1.381 1_545 S
C246 H225 0.954 . S
C246 C245 1.381 1_565 S
C246 C247 1.386 1_565 S
C247 C246 1.386 1_545 S
C247 C248 1.372 . S
C248 H226 0.950 . S
C248 C247 1.372 . S
C248 C249 1.379 . S
C249 H227 0.948 . S
C249 C244 1.364 . S
C249 C248 1.379 . S
C250 C219 1.383 . S
C250 C237 1.479 . S
C250 C251 1.400 . S
C251 C216 1.382 1_545 S
C251 H228 0.949 1_545 S
C251 C250 1.400 . S
C252 C253 1.384 . S
C252 H265 0.947 . S
C252 C287 1.382 . S
C253 C252 1.384 . S
C253 C254 1.378 . S
C254 C253 1.378 . S
C254 C255 1.378 . S
C254 H266 0.952 . S
C255 C254 1.378 . S
C255 H267 0.950 . S
C255 C286 1.383 . S
H256 C275 0.947 . S
H257 C276 0.946 . S
H258 C278 0.953 1_556 S
H259 C279 0.945 . S
H260 C281 0.952 . S
H261 C282 0.949 . S
H262 C284 0.950 . S
H263 C285 0.948 . S
H264 C287 0.951 . S
H265 C252 0.947 . S
H266 C254 0.952 . S
H267 C255 0.950 . S
N268 C271 1.382 . S
N268 C273 1.363 . S
N269 C271 1.371 1_556 S
N269 C272 1.372 . S
N270 C272 1.361 1_554 S
N270 C273 1.377 . S
C271 N268 1.382 . S
C271 N269 1.371 1_554 S
C271 C274 1.480 . S
C272 N269 1.372 . S
C272 N270 1.361 1_556 S
C272 C280 1.457 . S
C273 N268 1.363 . S
C273 N270 1.377 . S
C273 C286 1.479 . S
C274 C271 1.480 . S
C274 C275 1.383 . S
C274 C279 1.385 1_554 S
C275 H256 0.947 . S
C275 C274 1.383 . S
C275 C276 1.388 . S
C276 H257 0.946 . S
C276 C275 1.388 . S
C276 C277 1.384 . S
C277 C276 1.384 . S
C277 C278 1.377 . S
C278 H258 0.953 1_554 S
C278 C277 1.377 . S
C278 C279 1.369 1_554 S
C279 H259 0.945 . S
C279 C274 1.385 1_556 S
C279 C278 1.369 1_556 S
C280 C272 1.457 . S
C280 C281 1.372 . S
C280 C285 1.364 . S
C281 H260 0.952 . S
C281 C280 1.372 . S
C281 C282 1.389 . S
C282 H261 0.949 . S
C282 C281 1.389 . S
C282 C283 1.387 . S
C283 C282 1.387 . S
C283 C284 1.372 . S
C284 H262 0.950 . S
C284 C283 1.372 . S
C284 C285 1.379 . S
C285 H263 0.948 . S
C285 C280 1.364 . S
C285 C284 1.379 . S
C286 C255 1.383 . S
C286 C273 1.479 . S
C286 C287 1.398 . S
C287 C252 1.382 . S
C287 H264 0.951 . S
C287 C286 1.398 . S
Dy288 O292 2.398 . S
Dy288 O293 2.491 1_455 S
Dy288 O294 2.403 . S
Dy288 O295 2.664 1_565 S
Dy288 O299 2.326 . S
Dy288 O303 2.310 1_455 S
Dy288 O304 2.351 1_565 S
C289 O300 1.185 1_455 S
C289 O301 1.355 . S
C290 O292 1.185 . S
C290 O293 1.355 1_455 S
Dy291 O295 2.310 1_655 S
Dy291 O298 2.351 1_545 S
Dy291 O300 2.398 . S
Dy291 O301 2.491 1_655 S
Dy291 O302 2.403 . S
Dy291 O303 2.664 1_545 S
Dy291 O305 2.326 1_655 S
O292 Dy288 2.398 . S
O292 C290 1.185 . S
O293 Dy288 2.491 1_655 S
O293 C290 1.355 1_655 S
O294 Dy288 2.403 . S
O294 C296 1.254 . S
O295 Dy288 2.664 1_545 S
O295 Dy291 2.310 1_455 S
O295 C296 1.268 1_545 S
C296 O294 1.254 . S
C296 O295 1.268 1_565 S
C297 O302 1.254 . S
C297 O303 1.268 1_545 S
O298 Dy291 2.351 1_565 S
O298 C306 1.249 . S
O299 Dy288 2.326 . S
O299 C306 1.267 1_455 S
O300 C289 1.185 1_655 S
O300 Dy291 2.398 . S
O301 C289 1.355 . S
O301 Dy291 2.491 1_455 S
O302 Dy291 2.403 . S
O302 C297 1.254 . S
O303 Dy288 2.310 1_655 S
O303 Dy291 2.664 1_565 S
O303 C297 1.268 1_565 S
O304 Dy288 2.351 1_545 S
O304 C307 1.249 . S
O305 Dy291 2.326 1_455 S
O305 C307 1.267 . S
C306 O298 1.249 . S
C306 O299 1.267 1_655 S
C307 O304 1.249 . S
C307 O305 1.267 . S
Dy308 O312 2.398 . S
Dy308 O313 2.491 . S
Dy308 O314 2.403 . S
Dy308 O315 2.664 . S
Dy308 O319 2.326 1_565 S
Dy308 O323 2.310 1_565 S
Dy308 O324 2.351 . S
C309 O320 1.185 . S
C309 O321 1.355 . S
C310 O312 1.185 . S
C310 O313 1.355 . S
Dy311 O315 2.310 1_545 S
Dy311 O318 2.351 . S
Dy311 O320 2.398 . S
Dy311 O321 2.491 . S
Dy311 O322 2.403 . S
Dy311 O323 2.664 . S
Dy311 O325 2.326 1_545 S
O312 Dy308 2.398 . S
O312 C310 1.185 . S
O313 Dy308 2.491 . S
O313 C310 1.355 . S
O314 Dy308 2.403 . S
O314 C316 1.254 . S
O315 Dy308 2.664 . S
O315 Dy311 2.310 1_565 S
O315 C316 1.268 . S
C316 O314 1.254 . S
C316 O315 1.268 . S
C317 O322 1.254 . S
C317 O323 1.268 . S
O318 Dy311 2.351 . S
O318 C326 1.249 . S
O319 Dy308 2.326 1_545 S
O319 C326 1.267 . S
O320 C309 1.185 . S
O320 Dy311 2.398 . S
O321 C309 1.355 . S
O321 Dy311 2.491 . S
O322 Dy311 2.403 . S
O322 C317 1.254 . S
O323 Dy308 2.310 1_545 S
O323 Dy311 2.664 . S
O323 C317 1.268 . S
O324 Dy308 2.351 . S
O324 C327 1.249 . S
O325 Dy311 2.326 1_565 S
O325 C327 1.267 . S
C326 O318 1.249 . S
C326 O319 1.267 . S
C327 O324 1.249 . S
C327 O325 1.267 . S
Dy328 O332 2.398 . S
Dy328 O333 2.491 . S
Dy328 O334 2.403 . S
Dy328 O335 2.664 . S
Dy328 O339 2.326 . S
Dy328 O343 2.310 . S
Dy328 O344 2.351 . S
C329 O340 1.185 . S
C329 O341 1.355 . S
C330 O332 1.185 . S
C330 O333 1.355 . S
Dy331 O335 2.310 . S
Dy331 O338 2.351 . S
Dy331 O340 2.398 . S
Dy331 O341 2.491 . S
Dy331 O342 2.403 . S
Dy331 O343 2.664 . S
Dy331 O345 2.326 . S
O332 Dy328 2.398 . S
O332 C330 1.185 . S
O333 Dy328 2.491 . S
O333 C330 1.355 . S
O334 Dy328 2.403 . S
O334 C336 1.254 . S
O335 Dy328 2.664 . S
O335 Dy331 2.310 . S
O335 C336 1.268 . S
C336 O334 1.254 . S
C336 O335 1.268 . S
C337 O342 1.254 . S
C337 O343 1.268 . S
O338 Dy331 2.351 . S
O338 C346 1.249 . S
O339 Dy328 2.326 . S
O339 C346 1.267 . S
O340 C329 1.185 . S
O340 Dy331 2.398 . S
O341 C329 1.355 . S
O341 Dy331 2.491 . S
O342 Dy331 2.403 . S
O342 C337 1.254 . S
O343 Dy328 2.310 . S
O343 Dy331 2.664 . S
O343 C337 1.268 . S
O344 Dy328 2.351 . S
O344 C347 1.249 . S
O345 Dy331 2.326 . S
O345 C347 1.267 . S
C346 O338 1.249 . S
C346 O339 1.267 . S
C347 O344 1.249 . S
C347 O345 1.267 . S
Dy348 O352 2.398 . S
Dy348 O353 2.491 . S
Dy348 O354 2.403 . S
Dy348 O355 2.664 1_655 S
Dy348 O359 2.326 . S
Dy348 O363 2.310 . S
Dy348 O364 2.351 1_655 S
C349 O360 1.185 . S
C349 O361 1.355 . S
C350 O352 1.185 . S
C350 O353 1.355 . S
Dy351 O355 2.310 . S
Dy351 O358 2.351 1_455 S
Dy351 O360 2.398 . S
Dy351 O361 2.491 . S
Dy351 O362 2.403 . S
Dy351 O363 2.664 1_455 S
Dy351 O365 2.326 . S
O352 Dy348 2.398 . S
O352 C350 1.185 . S
O353 Dy348 2.491 . S
O353 C350 1.355 . S
O354 Dy348 2.403 . S
O354 C356 1.254 1_655 S
O355 Dy348 2.664 1_455 S
O355 Dy351 2.310 . S
O355 C356 1.268 . S
C356 O354 1.254 1_455 S
C356 O355 1.268 . S
C357 O362 1.254 1_655 S
C357 O363 1.268 . S
O358 Dy351 2.351 1_655 S
O358 C366 1.249 . S
O359 Dy348 2.326 . S
O359 C366 1.267 . S
O360 C349 1.185 . S
O360 Dy351 2.398 . S
O361 C349 1.355 . S
O361 Dy351 2.491 . S
O362 Dy351 2.403 . S
O362 C357 1.254 1_455 S
O363 Dy348 2.310 . S
O363 Dy351 2.664 1_655 S
O363 C357 1.268 . S
O364 Dy348 2.351 1_455 S
O364 C367 1.249 . S
O365 Dy351 2.326 . S
O365 C367 1.267 . S
C366 O358 1.249 . S
C366 O359 1.267 . S
C367 O364 1.249 . S
C367 O365 1.267 . S
C368 C369 1.382 . S
C368 C370 1.419 . S
C368 H372 0.930 . S
C369 C368 1.382 . S
C369 C378 1.416 1_565 S
C370 C368 1.419 . S
C370 C371 1.363 . S
C370 H373 0.929 . S
C371 C370 1.363 . S
C371 C377 1.428 1_565 S
H372 C368 0.930 . S
H373 C370 0.929 . S
S374 N375 1.613 . S
S374 N376 1.610 . S
N375 S374 1.613 . S
N375 C378 1.350 . S
N376 S374 1.610 . S
N376 C377 1.351 . S
C377 C371 1.428 1_545 S
C377 N376 1.351 . S
C377 C378 1.434 . S
C378 C369 1.416 1_545 S
C378 N375 1.350 . S
C378 C377 1.434 . S
C379 C380 1.369 . S
C379 C381 1.419 . S
C379 H383 0.930 . S
C380 C379 1.369 . S
C380 C389 1.429 . S
C381 C379 1.419 . S
C381 C382 1.363 . S
C381 H384 0.929 . S
C382 C381 1.363 . S
C382 C388 1.428 . S
H383 C379 0.930 . S
H384 C381 0.929 . S
S385 N386 1.613 . S
S385 N387 1.610 . S
N386 S385 1.613 . S
N386 C389 1.350 . S
N387 S385 1.610 . S
N387 C388 1.351 . S
C388 C382 1.428 . S
C388 N387 1.351 . S
C388 C389 1.434 . S
C389 C380 1.429 . S
C389 N386 1.350 . S
C389 C388 1.434 . S
C390 C391 1.369 . S
C390 C392 1.419 . S
C390 H394 0.930 . S
C391 C390 1.369 . S
C391 C400 1.429 . S
C392 C390 1.419 . S
C392 C393 1.363 . S
C392 H395 0.929 . S
C393 C392 1.363 . S
C393 C399 1.428 . S
H394 C390 0.930 . S
H395 C392 0.929 . S
S396 N397 1.613 . S
S396 N398 1.610 . S
N397 S396 1.613 . S
N397 C400 1.350 . S
N398 S396 1.610 . S
N398 C399 1.351 . S
C399 C393 1.428 . S
C399 N398 1.351 . S
C399 C400 1.434 . S
C400 C391 1.429 . S
C400 N397 1.350 . S
C400 C399 1.434 . S
C401 C402 1.369 . S
C401 C403 1.419 . S
C401 H405 0.930 . S
C402 C401 1.369 . S
C402 C411 1.429 . S
C403 C401 1.419 . S
C403 C404 1.363 . S
C403 H406 0.929 . S
C404 C403 1.363 . S
C404 C410 1.428 . S
H405 C401 0.930 . S
H406 C403 0.929 . S
S407 N408 1.613 . S
S407 N409 1.610 . S
N408 S407 1.613 . S
N408 C411 1.350 . S
N409 S407 1.610 . S
N409 C410 1.351 . S
C410 C404 1.428 . S
C410 N409 1.351 . S
C410 C411 1.434 . S
C411 C402 1.429 . S
C411 N408 1.350 . S
C411 C410 1.434 . S
C412 C413 1.383 . S
C412 C414 1.419 . S
C412 H416 0.930 . S
C413 C412 1.383 . S
C413 C422 1.415 1_545 S
C414 C412 1.419 . S
C414 C415 1.363 . S
C414 H417 0.929 . S
C415 C414 1.363 . S
C415 C421 1.428 1_545 S
H416 C412 0.930 . S
H417 C414 0.929 . S
S418 N419 1.613 . S
S418 N420 1.610 . S
N419 S418 1.613 . S
N419 C422 1.350 . S
N420 S418 1.610 . S
N420 C421 1.351 . S
C421 C415 1.428 1_565 S
C421 N420 1.351 . S
C421 C422 1.434 . S
C422 C413 1.415 1_565 S
C422 N419 1.350 . S
C422 C421 1.434 . S
C423 C424 1.369 . S
C423 C425 1.419 . S
C423 H427 0.930 . S
C424 C423 1.369 . S
C424 C433 1.429 . S
C425 C423 1.419 . S
C425 C426 1.363 . S
C425 H428 0.929 . S
C426 C425 1.363 . S
C426 C432 1.428 . S
H427 C423 0.930 . S
H428 C425 0.929 . S
S429 N430 1.613 . S
S429 N431 1.610 . S
N430 S429 1.613 . S
N430 C433 1.350 . S
N431 S429 1.610 . S
N431 C432 1.351 . S
C432 C426 1.428 . S
C432 N431 1.351 . S
C432 C433 1.434 . S
C433 C424 1.429 . S
C433 N430 1.350 . S
C433 C432 1.434 . S
C434 C435 1.369 . S
C434 C436 1.419 . S
C434 H438 0.930 . S
C435 C434 1.369 . S
C435 C444 1.429 . S
C436 C434 1.419 . S
C436 C437 1.363 . S
C436 H439 0.929 . S
C437 C436 1.363 . S
C437 C443 1.428 . S
H438 C434 0.930 . S
H439 C436 0.929 . S
S440 N441 1.613 . S
S440 N442 1.610 . S
N441 S440 1.613 . S
N441 C444 1.350 . S
N442 S440 1.610 . S
N442 C443 1.351 . S
C443 C437 1.428 . S
C443 N442 1.351 . S
C443 C444 1.434 . S
C444 C435 1.429 . S
C444 N441 1.350 . S
C444 C443 1.434 . S
C445 C446 1.369 . S
C445 C447 1.419 . S
C445 H449 0.930 . S
C446 C445 1.369 . S
C446 C455 1.429 . S
C447 C445 1.419 . S
C447 C448 1.363 . S
C447 H450 0.929 1_655 S
C448 C447 1.363 . S
C448 C454 1.428 . S
H449 C445 0.930 . S
H450 C447 0.929 1_455 S
S451 N452 1.613 . S
S451 N453 1.610 . S
N452 S451 1.613 . S
N452 C455 1.350 . S
N453 S451 1.610 . S
N453 C454 1.351 . S
C454 C448 1.428 . S
C454 N453 1.351 . S
C454 C455 1.434 . S
C455 C446 1.429 . S
C455 N452 1.350 . S
C455 C454 1.434 . S
C456 C457 1.369 . S
C456 C458 1.419 . S
C456 H460 0.930 . S
C457 C456 1.369 . S
C457 C466 1.429 . S
C458 C456 1.419 . S
C458 C459 1.363 . S
C458 H461 0.929 . S
C459 C458 1.363 . S
C459 C465 1.428 . S
H460 C456 0.930 . S
H461 C458 0.929 . S
S462 N463 1.613 . S
S462 N464 1.610 . S
N463 S462 1.613 . S
N463 C466 1.350 . S
N464 S462 1.610 . S
N464 C465 1.351 . S
C465 C459 1.428 . S
C465 N464 1.351 . S
C465 C466 1.434 . S
C466 C457 1.429 . S
C466 N463 1.350 . S
C466 C465 1.434 . S
C467 C468 1.367 . S
C467 C469 1.419 . S
C467 H471 0.930 . S
C468 C467 1.367 . S
C468 C477 1.432 1_545 S
C469 C467 1.419 . S
C469 C470 1.363 1_545 S
C469 H472 0.929 . S
C470 C469 1.363 1_565 S
C470 C476 1.428 . S
H471 C467 0.930 . S
H472 C469 0.929 . S
S473 N474 1.613 . S
S473 N475 1.610 . S
N474 S473 1.613 . S
N474 C477 1.350 . S
N475 S473 1.610 . S
N475 C476 1.351 . S
C476 C470 1.428 . S
C476 N475 1.351 . S
C476 C477 1.434 . S
C477 C468 1.432 1_565 S
C477 N474 1.350 . S
C477 C476 1.434 . S
C478 C479 1.369 . S
C478 C480 1.419 . S
C478 H482 0.930 . S
C479 C478 1.369 . S
C479 C488 1.429 . S
C480 C478 1.419 . S
C480 C481 1.363 . S
C480 H483 0.929 . S
C481 C480 1.363 . S
C481 C487 1.428 . S
H482 C478 0.930 . S
H483 C480 0.929 . S
S484 N485 1.613 . S
S484 N486 1.610 . S
N485 S484 1.613 . S
N485 C488 1.350 . S
N486 S484 1.610 . S
N486 C487 1.351 . S
C487 C481 1.428 . S
C487 N486 1.351 . S
C487 C488 1.434 . S
C488 C479 1.429 . S
C488 N485 1.350 . S
C488 C487 1.434 . S
C489 C490 1.369 . S
C489 C491 1.419 . S
C489 H493 0.930 . S
C490 C489 1.369 . S
C490 C499 1.429 . S
C491 C489 1.419 . S
C491 C492 1.363 . S
C491 H494 0.929 . S
C492 C491 1.363 . S
C492 C498 1.428 . S
H493 C489 0.930 . S
H494 C491 0.929 . S
S495 N496 1.613 . S
S495 N497 1.610 . S
N496 S495 1.613 . S
N496 C499 1.350 . S
N497 S495 1.610 . S
N497 C498 1.351 . S
C498 C492 1.428 . S
C498 N497 1.351 . S
C498 C499 1.434 . S
C499 C490 1.429 . S
C499 N496 1.350 . S
C499 C498 1.434 . S
C500 C501 1.369 . S
C500 C502 1.419 . S
C500 H504 0.930 . S
C501 C500 1.369 . S
C501 C510 1.429 . S
C502 C500 1.419 . S
C502 C503 1.363 . S
C502 H505 0.929 . S
C503 C502 1.363 . S
C503 C509 1.428 . S
H504 C500 0.930 . S
H505 C502 0.929 . S
S506 N507 1.613 1_455 S
S506 N508 1.610 . S
N507 S506 1.613 1_655 S
N507 C510 1.350 . S
N508 S506 1.610 . S
N508 C509 1.351 1_455 S
C509 C503 1.428 . S
C509 N508 1.351 1_655 S
C509 C510 1.434 . S
C510 C501 1.429 . S
C510 N507 1.350 . S
C510 C509 1.434 . S
C511 C512 1.358 1_545 S
C511 C513 1.419 . S
C511 H515 0.930 . S
C512 C511 1.358 1_565 S
C512 C521 1.434 . S
C513 C511 1.419 . S
C513 C514 1.363 . S
C513 H516 0.929 . S
C514 C513 1.363 . S
C514 C520 1.428 1_545 S
H515 C511 0.930 . S
H516 C513 0.929 . S
S517 N518 1.613 . S
S517 N519 1.610 . S
N518 S517 1.613 . S
N518 C521 1.350 . S
N519 S517 1.610 . S
N519 C520 1.351 . S
C520 C514 1.428 1_565 S
C520 N519 1.351 . S
C520 C521 1.434 . S
C521 C512 1.434 . S
C521 N518 1.350 . S
C521 C520 1.434 . S
C522 C523 1.369 . S
C522 C524 1.419 . S
C522 H526 0.930 . S
C523 C522 1.369 . S
C523 C532 1.429 . S
C524 C522 1.419 . S
C524 C525 1.363 . S
C524 H527 0.929 . S
C525 C524 1.363 . S
C525 C531 1.428 . S
H526 C522 0.930 . S
H527 C524 0.929 . S
S528 N529 1.613 . S
S528 N530 1.610 . S
N529 S528 1.613 . S
N529 C532 1.350 . S
N530 S528 1.610 . S
N530 C531 1.351 . S
C531 C525 1.428 . S
C531 N530 1.351 . S
C531 C532 1.434 . S
C532 C523 1.429 . S
C532 N529 1.350 . S
C532 C531 1.434 . S
C533 C534 1.369 . S
C533 C535 1.419 . S
C533 H537 0.930 . S
C534 C533 1.369 . S
C534 C543 1.429 . S
C535 C533 1.419 . S
C535 C536 1.363 . S
C535 H538 0.929 . S
C536 C535 1.363 . S
C536 C542 1.428 . S
H537 C533 0.930 . S
H538 C535 0.929 . S
S539 N540 1.613 . S
S539 N541 1.610 . S
N540 S539 1.613 . S
N540 C543 1.350 . S
N541 S539 1.610 . S
N541 C542 1.351 . S
C542 C536 1.428 . S
C542 N541 1.351 . S
C542 C543 1.434 . S
C543 C534 1.429 . S
C543 N540 1.350 . S
C543 C542 1.434 . S
C544 C545 1.369 . S
C544 C546 1.419 . S
C544 H548 0.930 . S
C545 C544 1.369 . S
C545 C554 1.429 . S
C546 C544 1.419 . S
C546 C547 1.363 . S
C546 H549 0.929 . S
C547 C546 1.363 . S
C547 C553 1.428 . S
H548 C544 0.930 . S
H549 C546 0.929 . S
S550 N551 1.613 . S
S550 N552 1.610 . S
N551 S550 1.613 . S
N551 C554 1.350 . S
N552 S550 1.610 . S
N552 C553 1.351 . S
C553 C547 1.428 . S
C553 N552 1.351 . S
C553 C554 1.434 . S
C554 C545 1.429 . S
C554 N551 1.350 . S
C554 C553 1.434 . S
C555 C556 1.369 . S
C555 C557 1.419 . S
C555 H559 0.930 . S
C556 C555 1.369 . S
C556 C565 1.429 1_545 S
C557 C555 1.419 . S
C557 C558 1.363 . S
C557 H560 0.929 . S
C558 C557 1.363 . S
C558 C564 1.428 1_545 S
H559 C555 0.930 . S
H560 C557 0.929 . S
S561 N562 1.613 . S
S561 N563 1.610 . S
N562 S561 1.613 . S
N562 C565 1.350 . S
N563 S561 1.610 . S
N563 C564 1.351 . S
C564 C558 1.428 1_565 S
C564 N563 1.351 . S
C564 C565 1.434 . S
C565 C556 1.429 1_565 S
C565 N562 1.350 . S
C565 C564 1.434 . S
C566 C567 1.369 . S
C566 C568 1.419 . S
C566 H570 0.930 . S
C567 C566 1.369 . S
C567 C576 1.429 . S
C568 C566 1.419 . S
C568 C569 1.363 . S
C568 H571 0.929 . S
C569 C568 1.363 . S
C569 C575 1.428 . S
H570 C566 0.930 . S
H571 C568 0.929 . S
S572 N573 1.613 . S
S572 N574 1.610 . S
N573 S572 1.613 . S
N573 C576 1.350 . S
N574 S572 1.610 . S
N574 C575 1.351 . S
C575 C569 1.428 . S
C575 N574 1.351 . S
C575 C576 1.434 . S
C576 C567 1.429 . S
C576 N573 1.350 . S
C576 C575 1.434 . S
C577 C578 1.369 . S
C577 C579 1.419 . S
C577 H581 0.930 . S
C578 C577 1.369 . S
C578 C587 1.429 . S
C579 C577 1.419 . S
C579 C580 1.363 . S
C579 H582 0.929 . S
C580 C579 1.363 . S
C580 C586 1.428 . S
H581 C577 0.930 . S
H582 C579 0.929 . S
S583 N584 1.613 . S
S583 N585 1.610 . S
N584 S583 1.613 . S
N584 C587 1.350 . S
N585 S583 1.610 . S
N585 C586 1.351 . S
C586 C580 1.428 . S
C586 N585 1.351 . S
C586 C587 1.434 . S
C587 C578 1.429 . S
C587 N584 1.350 . S
C587 C586 1.434 . S
C588 C589 1.369 . S
C588 C590 1.419 . S
C588 H592 0.930 . S
C589 C588 1.369 . S
C589 C598 1.429 . S
C590 C588 1.419 . S
C590 C591 1.363 . S
C590 H593 0.929 . S
C591 C590 1.363 . S
C591 C597 1.428 . S
H592 C588 0.930 . S
H593 C590 0.929 . S
S594 N595 1.613 . S
S594 N596 1.610 . S
N595 S594 1.613 . S
N595 C598 1.350 . S
N596 S594 1.610 . S
N596 C597 1.351 . S
C597 C591 1.428 . S
C597 N596 1.351 . S
C597 C598 1.434 . S
C598 C589 1.429 . S
C598 N595 1.350 . S
C598 C597 1.434 . S
C599 C600 1.369 . S
C599 C601 1.419 . S
C599 H603 0.930 . S
C600 C599 1.369 . S
C600 C609 1.429 1_565 S
C601 C599 1.419 . S
C601 C602 1.363 . S
C601 H604 0.929 . S
C602 C601 1.363 . S
C602 C608 1.428 1_565 S
H603 C599 0.930 . S
H604 C601 0.929 . S
S605 N606 1.613 . S
S605 N607 1.610 . S
N606 S605 1.613 . S
N606 C609 1.350 . S
N607 S605 1.610 . S
N607 C608 1.351 . S
C608 C602 1.428 1_545 S
C608 N607 1.351 . S
C608 C609 1.434 . S
C609 C600 1.429 1_545 S
C609 N606 1.350 . S
C609 C608 1.434 . S
C610 C611 1.369 . S
C610 C612 1.419 . S
C610 H614 0.930 . S
C611 C610 1.369 . S
C611 C620 1.429 . S
C612 C610 1.419 . S
C612 C613 1.363 . S
C612 H615 0.929 . S
C613 C612 1.363 . S
C613 C619 1.428 . S
H614 C610 0.930 . S
H615 C612 0.929 . S
S616 N617 1.613 . S
S616 N618 1.610 . S
N617 S616 1.613 . S
N617 C620 1.350 . S
N618 S616 1.610 . S
N618 C619 1.351 . S
C619 C613 1.428 . S
C619 N618 1.351 . S
C619 C620 1.434 . S
C620 C611 1.429 . S
C620 N617 1.350 . S
C620 C619 1.434 . S
C621 C622 1.369 . S
C621 C623 1.419 . S
C621 H625 0.930 . S
C622 C621 1.369 . S
C622 C631 1.429 . S
C623 C621 1.419 . S
C623 C624 1.363 . S
C623 H626 0.929 . S
C624 C623 1.363 . S
C624 C630 1.428 . S
H625 C621 0.930 . S
H626 C623 0.929 . S
S627 N628 1.613 . S
S627 N629 1.610 . S
N628 S627 1.613 . S
N628 C631 1.350 . S
N629 S627 1.610 . S
N629 C630 1.351 . S
C630 C624 1.428 . S
C630 N629 1.351 . S
C630 C631 1.434 . S
C631 C622 1.429 . S
C631 N628 1.350 . S
C631 C630 1.434 . S
C369 C241 1.830 1_565 S
C371 C296 2.018 . S
C382 C326 2.498 . S
C380 C277 2.316 . S
C393 C336 2.119 . S
C391 C169 1.889 . S
C404 C356 2.057 . S
C402 C205 1.825 . S
C415 C297 2.019 . S
C413 C97 1.823 . S
C424 C133 2.395 . S
C426 C327 2.505 . S
C435 C25 1.956 . S
C437 C337 2.119 . S
C446 C61 1.766 . S
C448 C357 2.055 . S
C459 C289 1.173 . S
C457 C211 1.119 . S
C470 C310 0.711 . S
C468 C247 0.731 . S
C481 C329 1.391 . S
C479 C253 1.243 . S
C490 C175 0.803 . S
C492 C349 0.820 . S
C501 C67 1.032 . S
C503 C290 1.181 1_655 S
C514 C309 0.723 . S
C512 C103 0.720 1_565 S
C525 C330 1.397 . S
C523 C109 1.308 . S
C534 C31 0.797 . S
C536 C350 0.821 . S
C545 C181 2.402 . S
C547 C307 2.671 . S
C556 C217 2.078 . S
C558 C317 2.414 . S
C569 C347 2.900 . S
C567 C283 2.467 . S
C580 C367 2.760 . S
C578 C145 2.461 . S
C589 C37 2.368 . S
C591 C306 2.678 . S
C602 C316 2.416 . S
C600 C73 2.077 1_565 S
C613 C346 2.899 . S
C611 C139 2.531 . S
C622 C1 2.509 . S
C624 C366 2.762 . S
