# Generated by pormake.
# Topology bwt, (3,3)-cn, num edge types: 1
# Building blocks:
#     Node 0, Type 0, BuildingBlock: WUSLED_clean_sbu_0, # of connection points: 3
#     Node 1, Type 0, BuildingBlock: WUSLED_clean_sbu_0, # of connection points: 3
#     Node 2, Type 0, BuildingBlock: WUSLED_clean_sbu_0, # of connection points: 3
#     Node 3, Type 0, BuildingBlock: WUSLED_clean_sbu_0, # of connection points: 3
#     Node 4, Type 0, BuildingBlock: WUSLED_clean_sbu_0, # of connection points: 3
#     Node 5, Type 0, BuildingBlock: WUSLED_clean_sbu_0, # of connection points: 3
#     Node 6, Type 0, BuildingBlock: WUSLED_clean_sbu_0, # of connection points: 3
#     Node 7, Type 0, BuildingBlock: WUSLED_clean_sbu_0, # of connection points: 3
#     Node 8, Type 0, BuildingBlock: WUSLED_clean_sbu_0, # of connection points: 3
#     Node 9, Type 0, BuildingBlock: WUSLED_clean_sbu_0, # of connection points: 3
#     Node 10, Type 0, BuildingBlock: WUSLED_clean_sbu_0, # of connection points: 3
#     Node 11, Type 0, BuildingBlock: WUSLED_clean_sbu_0, # of connection points: 3
#     Node 12, Type 0, BuildingBlock: WUSLED_clean_sbu_0, # of connection points: 3
#     Node 13, Type 0, BuildingBlock: WUSLED_clean_sbu_0, # of connection points: 3
#     Node 14, Type 0, BuildingBlock: WUSLED_clean_sbu_0, # of connection points: 3
#     Node 15, Type 0, BuildingBlock: WUSLED_clean_sbu_0, # of connection points: 3
#     Node 16, Type 0, BuildingBlock: WUSLED_clean_sbu_0, # of connection points: 3
#     Node 17, Type 0, BuildingBlock: WUSLED_clean_sbu_0, # of connection points: 3
#     Node 18, Type 0, BuildingBlock: WUSLED_clean_sbu_0, # of connection points: 3
#     Node 19, Type 0, BuildingBlock: WUSLED_clean_sbu_0, # of connection points: 3
#     Node 20, Type 0, BuildingBlock: WUSLED_clean_sbu_0, # of connection points: 3
#     Node 21, Type 0, BuildingBlock: WUSLED_clean_sbu_0, # of connection points: 3
#     Node 22, Type 0, BuildingBlock: WUSLED_clean_sbu_0, # of connection points: 3
#     Node 23, Type 0, BuildingBlock: WUSLED_clean_sbu_0, # of connection points: 3
#     Node 24, Type 1, BuildingBlock: VETTIZ_charged_linker_0, # of connection points: 3
#     Node 25, Type 1, BuildingBlock: VETTIZ_charged_linker_0, # of connection points: 3
#     Node 26, Type 1, BuildingBlock: VETTIZ_charged_linker_0, # of connection points: 3
#     Node 27, Type 1, BuildingBlock: VETTIZ_charged_linker_0, # of connection points: 3
#     Node 28, Type 1, BuildingBlock: VETTIZ_charged_linker_0, # of connection points: 3
#     Node 29, Type 1, BuildingBlock: VETTIZ_charged_linker_0, # of connection points: 3
#     Node 30, Type 1, BuildingBlock: VETTIZ_charged_linker_0, # of connection points: 3
#     Node 31, Type 1, BuildingBlock: VETTIZ_charged_linker_0, # of connection points: 3
#     Node 32, Type 1, BuildingBlock: VETTIZ_charged_linker_0, # of connection points: 3
#     Node 33, Type 1, BuildingBlock: VETTIZ_charged_linker_0, # of connection points: 3
#     Node 34, Type 1, BuildingBlock: VETTIZ_charged_linker_0, # of connection points: 3
#     Node 35, Type 1, BuildingBlock: VETTIZ_charged_linker_0, # of connection points: 3
#     Node 36, Type 1, BuildingBlock: VETTIZ_charged_linker_0, # of connection points: 3
#     Node 37, Type 1, BuildingBlock: VETTIZ_charged_linker_0, # of connection points: 3
#     Node 38, Type 1, BuildingBlock: VETTIZ_charged_linker_0, # of connection points: 3
#     Node 39, Type 1, BuildingBlock: VETTIZ_charged_linker_0, # of connection points: 3
#     Node 40, Type 1, BuildingBlock: VETTIZ_charged_linker_0, # of connection points: 3
#     Node 41, Type 1, BuildingBlock: VETTIZ_charged_linker_0, # of connection points: 3
#     Node 42, Type 1, BuildingBlock: VETTIZ_charged_linker_0, # of connection points: 3
#     Node 43, Type 1, BuildingBlock: VETTIZ_charged_linker_0, # of connection points: 3
#     Node 44, Type 1, BuildingBlock: VETTIZ_charged_linker_0, # of connection points: 3
#     Node 45, Type 1, BuildingBlock: VETTIZ_charged_linker_0, # of connection points: 3
#     Node 46, Type 1, BuildingBlock: VETTIZ_charged_linker_0, # of connection points: 3
#     Node 47, Type 1, BuildingBlock: VETTIZ_charged_linker_0, # of connection points: 3
#     Edge 48, Type (0, 1), None
#     Edge 49, Type (0, 1), None
#     Edge 50, Type (0, 1), None
#     Edge 51, Type (0, 1), None
#     Edge 52, Type (0, 1), None
#     Edge 53, Type (0, 1), None
#     Edge 54, Type (0, 1), None
#     Edge 55, Type (0, 1), None
#     Edge 56, Type (0, 1), None
#     Edge 57, Type (0, 1), None
#     Edge 58, Type (0, 1), None
#     Edge 59, Type (0, 1), None
#     Edge 60, Type (0, 1), None
#     Edge 61, Type (0, 1), None
#     Edge 62, Type (0, 1), None
#     Edge 63, Type (0, 1), None
#     Edge 64, Type (0, 1), None
#     Edge 65, Type (0, 1), None
#     Edge 66, Type (0, 1), None
#     Edge 67, Type (0, 1), None
#     Edge 68, Type (0, 1), None
#     Edge 69, Type (0, 1), None
#     Edge 70, Type (0, 1), None
#     Edge 71, Type (0, 1), None
#     Edge 72, Type (0, 1), None
#     Edge 73, Type (0, 1), None
#     Edge 74, Type (0, 1), None
#     Edge 75, Type (0, 1), None
#     Edge 76, Type (0, 1), None
#     Edge 77, Type (0, 1), None
#     Edge 78, Type (0, 1), None
#     Edge 79, Type (0, 1), None
#     Edge 80, Type (0, 1), None
#     Edge 81, Type (0, 1), None
#     Edge 82, Type (0, 1), None
#     Edge 83, Type (0, 1), None
#     Edge 84, Type (0, 1), None
#     Edge 85, Type (0, 1), None
#     Edge 86, Type (0, 1), None
#     Edge 87, Type (0, 1), None
#     Edge 88, Type (0, 1), None
#     Edge 89, Type (0, 1), None
#     Edge 90, Type (0, 1), None
#     Edge 91, Type (0, 1), None
#     Edge 92, Type (0, 1), None
#     Edge 93, Type (0, 1), None
#     Edge 94, Type (0, 1), None
#     Edge 95, Type (0, 1), None
#     Edge 96, Type (0, 1), None
#     Edge 97, Type (0, 1), None
#     Edge 98, Type (0, 1), None
#     Edge 99, Type (0, 1), None
#     Edge 100, Type (0, 1), None
#     Edge 101, Type (0, 1), None
#     Edge 102, Type (0, 1), None
#     Edge 103, Type (0, 1), None
#     Edge 104, Type (0, 1), None
#     Edge 105, Type (0, 1), None
#     Edge 106, Type (0, 1), None
#     Edge 107, Type (0, 1), None
#     Edge 108, Type (0, 1), None
#     Edge 109, Type (0, 1), None
#     Edge 110, Type (0, 1), None
#     Edge 111, Type (0, 1), None
#     Edge 112, Type (0, 1), None
#     Edge 113, Type (0, 1), None
#     Edge 114, Type (0, 1), None
#     Edge 115, Type (0, 1), None
#     Edge 116, Type (0, 1), None
#     Edge 117, Type (0, 1), None
#     Edge 118, Type (0, 1), None
#     Edge 119, Type (0, 1), None
# Relax obj value: 0.228
# Max RMSD: 0.279
# Mean RMSD: 0.142
data_MOF--net-bwt--node1-WUSLED_clean_sbu_0--node2-VETTIZ_charged_linker_0--edge1-none
_symmetry_space_group_name_H-M    P1
_symmetry_Int_Tables_number       1
_symmetry_cell_setting            triclinic
loop_
_symmetry_equiv_pos_as_xyz
'x, y, z'
_cell_length_a     49.319272
_cell_length_b     49.546909
_cell_length_c     49.497779
_cell_angle_alpha  90.183444
_cell_angle_beta   90.19402
_cell_angle_gamma 90.041659
loop_
_atom_site_label
_atom_site_type_symbol
_atom_site_fract_x
_atom_site_fract_y
_atom_site_fract_z
_atom_type_partial_charge
C0 C 0.35711 0.66002 0.39975 0.0
C1 C 0.3829 0.663 0.41158 0.0
C2 C 0.40277 0.67069 0.36745 0.0
C3 C 0.40556 0.66861 0.39557 0.0
C4 C 0.37701 0.6681 0.35571 0.0
C5 C 0.35431 0.66356 0.37185 0.0
U6 U 0.26891 0.65286 0.43858 0.0
O7 O 0.24223 0.6909 0.43505 0.0
O8 O 0.23849 0.65966 0.40459 0.0
C9 C 0.23078 0.68353 0.4123 0.0
C10 C 0.33354 0.65384 0.41698 0.0
C11 C 0.20172 0.69072 0.40558 0.0
C12 C 0.15309 0.69733 0.41571 0.0
C13 C 0.18075 0.69592 0.42428 0.0
C14 C 0.16793 0.69493 0.3696 0.0
C15 C 0.14583 0.69553 0.38797 0.0
C16 C 0.19482 0.69176 0.37819 0.0
C17 C 0.24139 0.59904 0.49241 0.0
C18 C 0.217 0.57422 0.52663 0.0
C19 C 0.26347 0.56244 0.51619 0.0
C20 C 0.2639 0.5822 0.49614 0.0
C21 C 0.2402 0.55873 0.53216 0.0
C22 C 0.21778 0.59443 0.50727 0.0
C23 C 0.24097 0.62139 0.47318 0.0
O24 O 0.32602 0.63283 0.42262 0.0
O25 O 0.32817 0.66603 0.43525 0.0
O26 O 0.25219 0.64421 0.48005 0.0
O27 O 0.2427 0.61579 0.44763 0.0
H28 H 0.38551 0.6609 0.43322 0.0
H29 H 0.42535 0.6703 0.40499 0.0
H30 H 0.37453 0.6691 0.33403 0.0
H31 H 0.3348 0.66269 0.36238 0.0
H32 H 0.13752 0.69868 0.43098 0.0
H33 H 0.18546 0.69736 0.44558 0.0
H34 H 0.16529 0.69582 0.34806 0.0
H35 H 0.21043 0.68934 0.36299 0.0
H36 H 0.19844 0.57146 0.53791 0.0
H37 H 0.2818 0.55102 0.51995 0.0
H38 H 0.28199 0.58445 0.48421 0.0
H39 H 0.19991 0.60672 0.50425 0.0
C40 C 0.18704 0.29937 0.6368 0.0
C41 C 0.17467 0.32483 0.63711 0.0
C42 C 0.131 0.30424 0.62541 0.0
C43 C 0.14691 0.32723 0.63132 0.0
C44 C 0.14383 0.27907 0.62361 0.0
C45 C 0.17164 0.27671 0.62911 0.0
U46 U 0.25594 0.31845 0.67214 0.0
O47 O 0.29593 0.30398 0.65881 0.0
O48 O 0.27995 0.29131 0.69812 0.0
C49 C 0.30036 0.29032 0.68111 0.0
C50 C 0.21521 0.29529 0.64621 0.0
C51 C 0.32828 0.29132 0.69217 0.0
C52 C 0.36108 0.29867 0.72839 0.0
C53 C 0.33414 0.29839 0.719 0.0
C54 C 0.37629 0.28353 0.6849 0.0
C55 C 0.38311 0.29176 0.71124 0.0
C56 C 0.34961 0.28338 0.67546 0.0
C57 C 0.26894 0.3886 0.70483 0.0
C58 C 0.31124 0.40338 0.72541 0.0
C59 C 0.26976 0.42775 0.7348 0.0
C60 C 0.25558 0.41011 0.71766 0.0
C61 C 0.29759 0.42407 0.73953 0.0
C62 C 0.29703 0.38574 0.70828 0.0
C63 C 0.25279 0.36876 0.68928 0.0
O64 O 0.2344 0.30906 0.63408 0.0
O65 O 0.21875 0.29382 0.67249 0.0
O66 O 0.24374 0.34803 0.70309 0.0
O67 O 0.26188 0.36201 0.66524 0.0
H68 H 0.18606 0.34254 0.64321 0.0
H69 H 0.1373 0.34672 0.63398 0.0
H70 H 0.13196 0.26096 0.62028 0.0
H71 H 0.18082 0.25685 0.62888 0.0
H72 H 0.36402 0.30527 0.74894 0.0
H73 H 0.31802 0.30413 0.73266 0.0
H74 H 0.39157 0.27838 0.67075 0.0
H75 H 0.34568 0.27735 0.65474 0.0
H76 H 0.33275 0.40018 0.7285 0.0
H77 H 0.25864 0.44324 0.74556 0.0
H78 H 0.2339 0.41268 0.7152 0.0
H79 H 0.30781 0.36938 0.69848 0.0
C80 C 0.85208 0.02854 0.61998 0.0
C81 C 0.87047 0.03352 0.59893 0.0
C82 C 0.90676 0.0414 0.6318 0.0
C83 C 0.89774 0.03976 0.60482 0.0
C84 C 0.88859 0.03486 0.65257 0.0
C85 C 0.86164 0.02837 0.64669 0.0
U86 U 0.77764 0.02494 0.58693 0.0
O87 O 0.74693 0.05272 0.60248 0.0
O88 O 0.74171 0.00907 0.60872 0.0
C89 C 0.73215 0.03346 0.61312 0.0
C90 C 0.82236 0.02798 0.61597 0.0
C91 C 0.70265 0.03805 0.61384 0.0
C92 C 0.66464 0.04911 0.64298 0.0
C93 C 0.68989 0.03695 0.63911 0.0
C94 C 0.6632 0.06124 0.59566 0.0
C95 C 0.65165 0.06239 0.62156 0.0
C96 C 0.68863 0.04916 0.59179 0.0
C97 C 0.76249 0.01345 0.50944 0.0
C98 C 0.71993 0.00562 0.48539 0.0
C99 C 0.76198 0.00828 0.46045 0.0
C100 C 0.77614 0.0127 0.48461 0.0
C101 C 0.73382 1.00449 0.4606 0.0
C102 C 0.73418 0.0101 0.50972 0.0
C103 C 0.77891 0.01655 0.53435 0.0
O104 O 0.81116 0.04878 0.60396 0.0
O105 O 0.80982 0.00501 0.61123 0.0
O106 O 0.77753 0.99701 0.55222 0.0
O107 O 0.78016 0.04071 0.54536 0.0
H108 H 0.86345 0.03408 0.57818 0.0
H109 H 0.91122 0.04525 0.58851 0.0
H110 H 0.89483 0.0365 0.67352 0.0
H111 H 0.84776 0.02499 0.66328 0.0
H112 H 0.65655 0.05047 0.66328 0.0
H113 H 0.70057 0.02893 0.6565 0.0
H114 H 0.65386 0.072 0.57904 0.0
H115 H 0.69827 0.05053 0.57222 0.0
H116 H 0.69817 1.00274 0.48593 0.0
H117 H 0.77311 0.0074 0.44163 0.0
H118 H 0.79797 0.01512 0.48394 0.0
H119 H 0.72322 0.01059 0.52864 0.0
C120 C 0.6681 0.88057 0.39607 0.0
C121 C 0.65016 0.90241 0.39235 0.0
C122 C 0.61005 0.87306 0.39815 0.0
C123 C 0.62173 0.89865 0.39284 0.0
C124 C 0.62849 0.85218 0.40496 0.0
C125 C 0.65671 0.85573 0.40331 0.0
U126 U 0.74484 0.90447 0.37768 0.0
O127 O 0.77946 0.87857 0.38782 0.0
O128 O 0.77366 0.91687 0.4094 0.0
C129 C 0.79028 0.89693 0.40377 0.0
C130 C 0.69857 0.88291 0.39542 0.0
C131 C 0.81774 0.90518 0.396 0.0
C132 C 0.86631 0.90265 0.40291 0.0
C133 C 0.83994 0.89867 0.41239 0.0
C134 C 0.84845 0.92116 0.36121 0.0
C135 C 0.87065 0.91305 0.37692 0.0
C136 C 0.82211 0.91743 0.37079 0.0
C137 C 0.74722 0.94258 0.30501 0.0
C138 C 0.74329 0.93533 0.25647 0.0
C139 C 0.73556 0.97987 0.27454 0.0
C140 C 0.74266 0.97032 0.30056 0.0
C141 C 0.73441 0.96206 0.25221 0.0
C142 C 0.74881 0.92564 0.28231 0.0
C143 C 0.75368 0.93133 0.33233 0.0
O144 O 0.71274 0.87246 0.37549 0.0
O145 O 0.7098 0.90464 0.40526 0.0
O146 O 0.7468 0.94371 0.35493 0.0
O147 O 0.75408 0.9049 0.33462 0.0
H148 H 0.65794 0.92235 0.38839 0.0
H149 H 0.6092 0.91593 0.38843 0.0
H150 H 0.62174 0.83239 0.41083 0.0
H151 H 0.66978 0.83872 0.40769 0.0
H152 H 0.88327 0.89587 0.41508 0.0
H153 H 0.83688 0.88925 0.43186 0.0
H154 H 0.85146 0.92885 0.34096 0.0
H155 H 0.80517 0.9227 0.35791 0.0
H156 H 0.74561 0.92128 0.23989 0.0
H157 H 0.7297 1.0008 0.27244 0.0
H158 H 0.74277 0.98432 0.31741 0.0
H159 H 0.75446 0.90463 0.28437 0.0
C160 C 0.39485 0.33307 0.63139 0.0
C161 C 0.38995 0.35036 0.6096 0.0
C162 C 0.3737 0.38595 0.63981 0.0
C163 C 0.37998 0.37643 0.61372 0.0
C164 C 0.3804 0.36948 0.66197 0.0
C165 C 0.39151 0.34348 0.65777 0.0
U166 U 0.41082 0.25244 0.63159 0.0
O167 O 0.41185 0.23411 0.67258 0.0
O168 O 0.37592 0.2292 0.64727 0.0
C169 C 0.38821 0.22209 0.6698 0.0
C170 C 0.40468 0.30526 0.62485 0.0
C171 C 0.3858 0.19284 0.67809 0.0
C172 C 0.35804 0.15197 0.68075 0.0
C173 C 0.3604 0.17998 0.67694 0.0
C174 C 0.40578 0.14896 0.69054 0.0
C175 C 0.38074 0.13581 0.68676 0.0
C176 C 0.40815 0.17717 0.68661 0.0
C177 C 0.46546 0.23486 0.57839 0.0
C178 C 0.50874 0.22223 0.55894 0.0
C179 C 0.49228 0.26807 0.55414 0.0
C180 C 0.46889 0.26125 0.56868 0.0
C181 C 0.51262 0.24871 0.54979 0.0
C182 C 0.48525 0.21533 0.5729 0.0
C183 C 0.44481 0.22826 0.59863 0.0
O184 O 0.38788 0.28722 0.61471 0.0
O185 O 0.42414 0.29451 0.63917 0.0
O186 O 0.41903 0.23157 0.5926 0.0
O187 O 0.45093 0.23709 0.62275 0.0
H188 H 0.39341 0.34351 0.58908 0.0
H189 H 0.37557 0.38871 0.59617 0.0
H190 H 0.37599 0.37615 0.68235 0.0
H191 H 0.39698 0.33165 0.67509 0.0
H192 H 0.33852 0.14267 0.67765 0.0
H193 H 0.34248 0.19135 0.6714 0.0
H194 H 0.42377 0.13731 0.69512 0.0
H195 H 0.42773 0.18652 0.68918 0.0
H196 H 0.52436 0.20712 0.55609 0.0
H197 H 0.49519 0.28873 0.54767 0.0
H198 H 0.4542 0.27679 0.57343 0.0
H199 H 0.48329 0.19506 0.58086 0.0
C200 C 0.39414 0.66585 0.88739 0.0
C201 C 0.38999 0.65086 0.91123 0.0
C202 C 0.39001 0.60754 0.88652 0.0
C203 C 0.38765 0.62243 0.91078 0.0
C204 C 0.39703 0.62231 0.86319 0.0
C205 C 0.3991 0.65084 0.86368 0.0
U206 U 0.37802 0.74491 0.90449 0.0
O207 O 0.3859 0.77797 0.87596 0.0
O208 O 0.40983 0.77506 0.91316 0.0
C209 C 0.40248 0.79035 0.89278 0.0
C210 C 0.39504 0.69659 0.88645 0.0
C211 C 0.39467 0.81836 0.9 0.0
C212 C 0.40404 0.86664 0.8997 0.0
C213 C 0.41255 0.83991 0.89555 0.0
C214 C 0.36012 0.85061 0.91425 0.0
C215 C 0.37751 0.87225 0.90834 0.0
C216 C 0.3687 0.8239 0.91034 0.0
C217 C 0.30778 0.74907 0.94683 0.0
C218 C 0.25888 0.74209 0.94406 0.0
C219 C 0.28089 0.74142 0.98763 0.0
C220 C 0.3058 0.74765 0.97515 0.0
C221 C 0.25705 0.7373 0.97213 0.0
C222 C 0.28372 0.74737 0.93167 0.0
C223 C 0.33393 0.75555 0.93307 0.0
O224 O 0.37506 0.71028 0.87535 0.0
O225 O 0.4058 0.70974 0.90674 0.0
O226 O 0.35755 0.75026 0.94449 0.0
O227 O 0.33454 0.7534 0.90659 0.0
H228 H 0.3878 0.66091 0.93031 0.0
H229 H 0.38319 0.61227 0.92955 0.0
H230 H 0.40026 0.61193 0.84419 0.0
H231 H 0.4038 0.66129 0.84509 0.0
H232 H 0.4176 0.883 0.89446 0.0
H233 H 0.4327 0.83613 0.88778 0.0
H234 H 0.33943 0.85441 0.92049 0.0
H235 H 0.3546 0.80763 0.91421 0.0
H236 H 0.24124 0.74167 0.93109 0.0
H237 H 0.28102 0.73847 0.00924 0.0
H238 H 0.32373 0.75005 0.98762 0.0
H239 H 0.28396 0.75015 0.90999 0.0
C240 C 0.62288 0.17312 0.3182 0.0
C241 C 0.62804 0.15658 0.34044 0.0
C242 C 0.61979 0.11723 0.31218 0.0
C243 C 0.62631 0.12865 0.33745 0.0
C244 C 0.6133 0.13387 0.29039 0.0
C245 C 0.61464 0.16178 0.29349 0.0
U246 U 0.65504 0.24175 0.34163 0.0
O247 O 0.67009 0.2703 0.31133 0.0
O248 O 0.63396 0.28047 0.33644 0.0
C249 C 0.64998 0.28696 0.31625 0.0
C250 C 0.62847 0.20193 0.31891 0.0
C251 C 0.64715 0.31245 0.30193 0.0
C252 C 0.66746 0.34819 0.27581 0.0
C253 C 0.66834 0.32199 0.28572 0.0
C254 C 0.62255 0.3539 0.2948 0.0
C255 C 0.64545 0.36483 0.28226 0.0
C256 C 0.62348 0.3278 0.3049 0.0
C257 C 0.70488 0.25545 0.40018 0.0
C258 C 0.72901 0.29791 0.40628 0.0
C259 C 0.73783 0.26073 0.43662 0.0
C260 C 0.71863 0.24507 0.42269 0.0
C261 C 0.74371 0.28727 0.42837 0.0
C262 C 0.70992 0.28214 0.39229 0.0
C263 C 0.68661 0.23764 0.38441 0.0
O264 O 0.6186 0.21612 0.33911 0.0
O265 O 0.6532 0.20887 0.31207 0.0
O266 O 0.69462 0.23196 0.35972 0.0
O267 O 0.66052 0.24294 0.38588 0.0
H268 H 0.63478 0.16511 0.35949 0.0
H269 H 0.63232 0.1159 0.35419 0.0
H270 H 0.60921 0.12532 0.27062 0.0
H271 H 0.61086 0.17451 0.27611 0.0
H272 H 0.68477 0.3559 0.26493 0.0
H273 H 0.68632 0.30996 0.28221 0.0
H274 H 0.60525 0.36649 0.29952 0.0
H275 H 0.60645 0.32035 0.31647 0.0
H276 H 0.73246 0.31838 0.39951 0.0
H277 H 0.74882 0.25151 0.45314 0.0
H278 H 0.7151 0.22447 0.42905 0.0
H279 H 0.69958 0.29053 0.37491 0.0
C280 C 0.6202 0.85016 0.02624 0.0
C281 C 0.59927 0.8688 0.03108 0.0
C282 C 0.63267 0.9044 0.03934 0.0
C283 C 0.6055 0.89586 0.03742 0.0
C284 C 0.65333 0.88598 0.03293 0.0
C285 C 0.64713 0.85925 0.02632 0.0
U286 U 0.58706 0.77599 0.02266 0.0
O287 O 0.60308 0.74569 0.05047 0.0
O288 O 0.60917 0.74027 0.00675 0.0
C289 C 0.61383 0.73096 0.03118 0.0
C290 C 0.61581 0.82065 0.0256 0.0
C291 C 0.615 0.70166 0.03594 0.0
C292 C 0.64493 0.66434 0.04718 0.0
C293 C 0.64055 0.68925 0.03475 0.0
C294 C 0.59757 0.66253 0.05978 0.0
C295 C 0.62374 0.65135 0.06079 0.0
C296 C 0.59319 0.68759 0.04742 0.0
C297 C 0.5094 0.76044 0.01141 0.0
C298 C 0.48503 0.71766 0.00861 0.0
C299 C 0.46071 0.75975 1.00314 0.0
C300 C 0.48486 0.77405 0.00696 0.0
C301 C 0.46053 0.73148 1.00387 0.0
C302 C 0.50941 0.73207 0.01229 0.0
C303 C 0.53427 0.77688 0.01446 0.0
O304 O 0.60383 0.80957 0.04645 0.0
O305 O 0.61108 0.80811 1.00261 0.0
O306 O 0.55211 0.77562 0.99481 0.0
O307 O 0.54541 0.77815 0.0386 0.0
H308 H 0.57836 0.86215 0.03144 0.0
H309 H 0.58926 0.90954 0.04279 0.0
H310 H 0.67443 0.89186 0.03475 0.0
H311 H 0.66362 0.84517 0.02305 0.0
H312 H 0.66542 0.65653 0.04842 0.0
H313 H 0.65776 0.69999 0.02646 0.0
H314 H 0.58113 0.65314 0.07077 0.0
H315 H 0.57342 0.69697 0.04888 0.0
H316 H 0.48532 0.69581 0.00908 0.0
H317 H 0.4421 0.77078 0.99947 0.0
H318 H 0.48441 0.7959 0.0062 0.0
H319 H 0.52815 0.72116 0.01561 0.0
C320 C 0.66195 0.39453 0.35408 0.0
C321 C 0.66383 0.4062 0.37993 0.0
C322 C 0.67 0.36189 0.39986 0.0
C323 C 0.66824 0.39002 0.40265 0.0
C324 C 0.66864 0.35031 0.37403 0.0
C325 C 0.6654 0.36664 0.3513 0.0
U326 U 0.6567 0.43404 0.26637 0.0
O327 O 0.69578 0.4312 0.24091 0.0
O328 O 0.66529 0.4002 0.2363 0.0
C329 C 0.68931 0.40823 0.22935 0.0
C330 C 0.65583 0.41168 0.33054 0.0
C331 C 0.69734 0.40128 0.20051 0.0
C332 C 0.70126 0.36576 0.16617 0.0
C333 C 0.69807 0.37396 0.19319 0.0
C334 C 0.70456 0.41193 0.15221 0.0
C335 C 0.7018 0.3845 0.14443 0.0
C336 C 0.7035 0.41991 0.17996 0.0
C337 C 0.59805 0.48239 0.24023 0.0
C338 C 0.57132 0.5195 0.22304 0.0
C339 C 0.55963 0.4992 0.26588 0.0
C340 C 0.58034 0.48029 0.26236 0.0
C341 C 0.556 0.5198 0.24689 0.0
C342 C 0.59222 0.50099 0.2198 0.0
C343 C 0.62306 0.46641 0.23777 0.0
O344 O 0.63471 0.41648 0.32251 0.0
O345 O 0.66715 0.43062 0.32569 0.0
O346 O 0.6448 0.47519 0.25011 0.0
O347 O 0.62074 0.44035 0.23778 0.0
H348 H 0.66164 0.42781 0.38255 0.0
H349 H 0.66919 0.39934 0.42246 0.0
H350 H 0.66976 0.32864 0.37147 0.0
H351 H 0.66533 0.35737 0.33173 0.0
H352 H 0.70206 0.34428 0.16297 0.0
H353 H 0.69527 0.3586 0.20848 0.0
H354 H 0.70621 0.42744 0.13698 0.0
H355 H 0.70538 0.44086 0.18515 0.0
H356 H 0.56866 0.53512 0.20797 0.0
H357 H 0.54796 0.499 0.28439 0.0
H358 H 0.5828 0.46492 0.27749 0.0
H359 H 0.60447 0.50205 0.20175 0.0
C360 C 0.89229 0.39493 0.6648 0.0
C361 C 0.91607 0.3902 0.64971 0.0
C362 C 0.89092 0.39105 0.60645 0.0
C363 C 0.91534 0.38792 0.62118 0.0
C364 C 0.86788 0.39893 0.62139 0.0
C365 C 0.86859 0.40082 0.64995 0.0
U366 U 0.90882 0.37812 0.74398 0.0
O367 O 0.88097 0.38835 0.77714 0.0
O368 O 0.91975 0.40956 0.7737 0.0
C369 C 0.89904 0.40375 0.78927 0.0
C370 C 0.89151 0.39582 0.69555 0.0
C371 C 0.90624 0.39551 0.81716 0.0
C372 C 0.9058 0.40376 0.86569 0.0
C373 C 0.90153 0.41279 0.83914 0.0
C374 C 0.92094 0.36054 0.84857 0.0
C375 C 0.91481 0.37731 0.87064 0.0
C376 C 0.9169 0.36964 0.82208 0.0
C377 C 0.94576 0.30496 0.74885 0.0
C378 C 0.93876 0.25649 0.74417 0.0
C379 C 0.98355 0.27468 0.7375 0.0
C380 C 0.97368 0.30066 0.7444 0.0
C381 C 0.96573 0.2524 0.73563 0.0
C382 C 0.92888 0.28221 0.74999 0.0
C383 C 0.93397 0.33213 0.75526 0.0
O384 O 0.87941 0.37661 0.70932 0.0
O385 O 0.91246 0.4054 0.70858 0.0
O386 O 0.94723 0.35473 0.75038 0.0
O387 O 0.90758 0.33483 0.75251 0.0
H388 H 0.93525 0.38768 0.65989 0.0
H389 H 0.93393 0.3829 0.61079 0.0
H390 H 0.84886 0.40275 0.6111 0.0
H391 H 0.85012 0.40602 0.66054 0.0
H392 H 0.90041 0.41684 0.8824 0.0
H393 H 0.8935 0.43285 0.83583 0.0
H394 H 0.92748 0.33994 0.85186 0.0
H395 H 0.92095 0.356 0.80548 0.0
H396 H 0.92466 0.23987 0.7459 0.0
H397 H 1.00466 0.27263 0.73199 0.0
H398 H 0.98764 0.31754 0.74477 0.0
H399 H 0.90771 0.28417 0.75538 0.0
C400 C 0.31875 0.61945 0.17631 0.0
C401 C 0.34111 0.62345 0.15953 0.0
C402 C 0.31206 0.61628 0.12041 0.0
C403 C 0.33779 0.62163 0.13161 0.0
C404 C 0.29013 0.61079 0.13729 0.0
C405 C 0.29356 0.61216 0.1652 0.0
U406 U 0.34262 0.65234 0.24456 0.0
O407 O 0.31238 0.667 0.27358 0.0
O408 O 0.33851 0.63161 0.28353 0.0
C409 C 0.31822 0.64741 0.29044 0.0
C410 C 0.31989 0.62518 0.20512 0.0
C411 C 0.30446 0.64465 0.31629 0.0
C412 C 0.279 0.66495 0.35269 0.0
C413 C 0.28839 0.66578 0.32625 0.0
C414 C 0.29842 0.62031 0.35799 0.0
C415 C 0.28583 0.64305 0.36919 0.0
C416 C 0.308 0.62119 0.33165 0.0
C417 C 0.39819 0.70288 0.26033 0.0
C418 C 0.39906 0.72421 0.30455 0.0
C419 C 0.43104 0.73835 0.27042 0.0
C420 C 0.42011 0.71912 0.25251 0.0
C421 C 0.4201 0.74171 0.29646 0.0
C422 C 0.38814 0.70521 0.28665 0.0
C423 C 0.38458 0.68487 0.24068 0.0
O424 O 0.34065 0.61589 0.21902 0.0
O425 O 0.31249 0.64967 0.21213 0.0
O426 O 0.3597 0.692 0.23426 0.0
O427 O 0.38687 0.65884 0.24538 0.0
H428 H 0.36056 0.62943 0.16786 0.0
H429 H 0.35468 0.62692 0.11869 0.0
H430 H 0.27004 0.60764 0.12895 0.0
H431 H 0.2761 0.60923 0.17811 0.0
H432 H 0.26804 0.68212 0.36058 0.0
H433 H 0.28452 0.68363 0.31427 0.0
H434 H 0.30345 0.6031 0.37046 0.0
H435 H 0.31955 0.60426 0.32396 0.0
H436 H 0.39051 0.72553 0.32463 0.0
H437 H 0.44709 0.75144 0.26337 0.0
H438 H 0.42816 0.71761 0.23223 0.0
H439 H 0.37119 0.69292 0.29303 0.0
C440 C 0.03098 0.6195 0.84715 0.0
C441 C 0.04365 0.60058 0.86413 0.0
C442 C 0.04721 0.63436 0.89998 0.0
C443 C 0.05163 0.60797 0.89042 0.0
C444 C 0.03249 0.6524 0.88379 0.0
C445 C 0.02433 0.64498 0.8577 0.0
U446 U 0.02624 0.58712 0.77287 0.0
O447 O 0.05364 0.60186 0.74133 0.0
O448 O 0.00971 0.60925 0.73757 0.0
C449 C 0.03403 0.61342 0.72758 0.0
C450 C 0.03 0.61606 0.81744 0.0
C451 C 0.03778 0.61675 0.69827 0.0
C452 C 0.05002 0.6478 0.66241 0.0
C453 C 0.04089 0.64315 0.68864 0.0
C454 C 0.05127 0.59962 0.65414 0.0
C455 C 0.056 0.62611 0.64513 0.0
C456 C 0.0423 0.59492 0.68068 0.0
C457 C 0.01355 0.50975 0.75861 0.0
C458 C 0.01215 0.48446 0.71628 0.0
C459 C 1.00269 0.46178 0.75847 0.0
C460 C 1.007 0.48597 0.77247 0.0
C461 C 1.00515 0.46075 0.73027 0.0
C462 C 0.01613 0.50891 0.73035 0.0
C463 C 0.01726 0.53473 0.77465 0.0
O464 O 0.05071 0.60418 0.80581 0.0
O465 O 1.00675 0.61161 0.80513 0.0
O466 O 0.99779 0.55281 0.77342 0.0
O467 O 0.04166 0.54543 0.77534 0.0
H468 H 0.04928 0.5809 0.85639 0.0
H469 H 0.06357 0.59395 0.90226 0.0
H470 H 0.02953 0.67308 0.89035 0.0
H471 H 0.015 0.66007 0.84489 0.0
H472 H 0.05417 0.66835 0.6562 0.0
H473 H 0.03794 0.66026 0.70201 0.0
H474 H 0.05641 0.58259 0.64138 0.0
H475 H 0.04035 0.5744 0.68788 0.0
H476 H 0.01415 0.48411 0.69449 0.0
H477 H 0.99763 0.44375 0.76972 0.0
H478 H 1.00508 0.48614 0.79427 0.0
H479 H 0.02114 0.52704 0.71925 0.0
C480 C 0.67277 0.37721 0.60978 0.0
C481 C 0.65435 0.3967 0.61881 0.0
C482 C 0.62251 0.36167 0.63407 0.0
C483 C 0.62954 0.38913 0.6303 0.0
C484 C 0.6406 0.34209 0.62437 0.0
C485 C 0.66501 0.34982 0.61187 0.0
U486 U 0.74949 0.38357 0.5817 0.0
O487 O 0.78018 0.3803 0.61485 0.0
O488 O 0.76886 0.34481 0.59147 0.0
C489 C 0.78432 0.35433 0.61077 0.0
C490 C 0.69705 0.38614 0.59395 0.0
C491 C 0.81267 0.34315 0.61273 0.0
C492 C 0.85006 0.3149 0.59564 0.0
C493 C 0.82271 0.32364 0.59449 0.0
C494 C 0.85588 0.33982 0.63687 0.0
C495 C 0.86763 0.32437 0.61595 0.0
C496 C 0.82912 0.34957 0.635 0.0
C497 C 0.75657 0.41642 0.5086 0.0
C498 C 0.76428 0.41955 0.45991 0.0
C499 C 0.72765 0.44479 0.4801 0.0
C500 C 0.73458 0.43432 0.50577 0.0
C501 C 0.74231 0.43726 0.45678 0.0
C502 C 0.77132 0.4094 0.48535 0.0
C503 C 0.76494 0.40394 0.53477 0.0
O504 O 0.71489 0.40337 0.60378 0.0
O505 O 0.70835 0.36813 0.57859 0.0
O506 O 0.75766 0.37879 0.53834 0.0
O507 O 0.76455 0.41815 0.55731 0.0
H508 H 0.65876 0.41796 0.61624 0.0
H509 H 0.61579 0.40508 0.63626 0.0
H510 H 0.63608 0.32084 0.62666 0.0
H511 H 0.67749 0.33429 0.60342 0.0
H512 H 0.85745 0.30051 0.581 0.0
H513 H 0.80934 0.31545 0.57924 0.0
H514 H 0.86784 0.34566 0.65425 0.0
H515 H 0.82141 0.36252 0.65088 0.0
H516 H 0.77622 0.41369 0.44257 0.0
H517 H 0.71049 0.45831 0.47838 0.0
H518 H 0.72271 0.44003 0.52324 0.0
H519 H 0.78842 0.39578 0.48675 0.0
C520 C 0.82791 0.71608 0.38973 0.0
C521 C 0.83708 0.68935 0.38886 0.0
C522 C 0.88385 0.70485 0.3947 0.0
C523 C 0.86475 0.68378 0.39162 0.0
C524 C 0.87438 0.73139 0.39733 0.0
C525 C 0.8466 0.73693 0.39486 0.0
U526 U 0.75795 0.70369 0.35561 0.0
O527 O 0.73568 0.73453 0.33277 0.0
O528 O 0.71772 0.71738 0.36935 0.0
C529 C 0.71434 0.7336 0.34859 0.0
C530 C 0.79966 0.72309 0.3829 0.0
C531 C 0.68739 0.73318 0.33525 0.0
C532 C 0.65922 0.7332 0.29481 0.0
C533 C 0.68472 0.73527 0.30705 0.0
C534 C 0.63837 0.72867 0.33866 0.0
C535 C 0.63591 0.72853 0.31042 0.0
C536 C 0.66381 0.73151 0.35097 0.0
C537 C 0.74696 0.63626 0.31533 0.0
C538 C 0.70705 0.62077 0.29078 0.0
C539 C 0.75044 0.5993 0.28302 0.0
C540 C 0.76231 0.61635 0.30224 0.0
C541 C 0.72281 0.60172 0.27645 0.0
C542 C 0.71905 0.638 0.30998 0.0
C543 C 0.76129 0.65549 0.3332 0.0
O544 O 0.79522 0.72795 0.35722 0.0
O545 O 0.78026 0.70873 0.39407 0.0
O546 O 0.75127 0.65965 0.35746 0.0
O547 O 0.77019 0.67763 0.3217 0.0
H548 H 0.82307 0.67294 0.38485 0.0
H549 H 0.87147 0.66305 0.38954 0.0
H550 H 0.88854 0.74801 0.39931 0.0
H551 H 0.83984 0.75772 0.39555 0.0
H552 H 0.65795 0.73307 0.27296 0.0
H553 H 0.70236 0.7375 0.29429 0.0
H554 H 0.62095 0.72454 0.35117 0.0
H555 H 0.66518 0.73114 0.37281 0.0
H556 H 0.68559 0.62288 0.28659 0.0
H557 H 0.76333 0.58522 0.27233 0.0
H558 H 0.78386 0.61461 0.3062 0.0
H559 H 0.70676 0.65308 0.32003 0.0
C560 C 0.16552 1.00114 0.37571 0.0
C561 C 0.15113 0.99294 0.39871 0.0
C562 C 0.10935 0.9922 0.37246 0.0
C563 C 0.12312 0.98847 0.39706 0.0
C564 C 0.12344 1.0027 0.35028 0.0
C565 C 0.15134 0.00719 0.35193 0.0
U566 U 0.23735 0.99066 0.40574 0.0
O567 O 0.26751 0.96369 0.3875 0.0
O568 O 0.27683 0.00696 0.39213 0.0
C569 C 0.28486 0.98328 0.38307 0.0
C570 C 0.19517 0.99868 0.37426 0.0
C571 C 0.31386 0.97618 0.3836 0.0
C572 C 0.35138 0.95657 0.35874 0.0
C573 C 0.32498 0.96648 0.35945 0.0
C574 C 0.3568 0.96698 0.40629 0.0
C575 C 0.3674 0.95613 0.38222 0.0
C576 C 0.33005 0.97698 0.40702 0.0
C577 C 0.24636 0.98514 0.48293 0.0
C578 C 0.28988 0.98361 0.50568 0.0
C579 C 0.24857 0.98748 0.53186 0.0
C580 C 0.23337 0.98696 0.50801 0.0
C581 C 0.27698 0.98648 0.53082 0.0
C582 C 0.27465 0.9829 0.48185 0.0
C583 C 0.23025 0.98808 0.45822 0.0
O584 O 0.20979 0.01854 0.38425 0.0
O585 O 0.2047 0.97469 0.38025 0.0
O586 O 0.22878 0.96685 0.44228 0.0
O587 O 0.23419 0.01077 0.44512 0.0
H588 H 0.16182 0.98791 0.41718 0.0
H589 H 0.11275 0.9796 0.41414 0.0
H590 H 0.11338 0.00487 0.3309 0.0
H591 H 0.16218 0.01321 0.33391 0.0
H592 H 0.35885 0.94787 0.34007 0.0
H593 H 0.31278 0.96556 0.3412 0.0
H594 H 0.3686 0.96631 0.42477 0.0
H595 H 0.32178 0.98431 0.42589 0.0
H596 H 0.31179 0.98264 0.50446 0.0
H597 H 0.23822 0.99 0.55099 0.0
H598 H 0.21151 0.98892 0.50909 0.0
H599 H 0.28493 0.98153 0.4626 0.0
C600 C 0.35452 0.14705 0.60841 0.0
C601 C 0.37026 0.12537 0.59901 0.0
C602 C 0.4125 0.1472 0.61458 0.0
C603 C 0.39853 0.12488 0.60318 0.0
C604 C 0.39692 0.17082 0.61849 0.0
C605 C 0.36846 0.17063 0.61572 0.0
U606 U 0.28497 0.12276 0.63948 0.0
O607 O 0.24936 0.10772 0.61688 0.0
O608 O 0.24625 0.14483 0.6409 0.0
C609 C 0.23334 0.12674 0.62616 0.0
C610 C 0.32402 0.14559 0.61013 0.0
C611 C 0.20631 0.11801 0.63587 0.0
C612 C 0.15818 0.11151 0.62609 0.0
C613 C 0.18484 0.1158 0.61726 0.0
C614 C 0.17426 0.1098 0.67228 0.0
C615 C 0.15245 0.10954 0.65379 0.0
C616 C 0.20096 0.1139 0.66342 0.0
C617 C 0.30405 0.08181 0.70903 0.0
C618 C 0.29786 0.04489 0.74115 0.0
C619 C 0.32675 0.08274 0.75259 0.0
C620 C 0.32137 0.09448 0.72758 0.0
C621 C 0.31407 0.05847 0.7603 0.0
C622 C 0.29303 0.05643 0.71559 0.0
C623 C 0.29669 0.096 0.68372 0.0
O624 O 0.31236 0.12257 0.60404 0.0
O625 O 0.31227 0.15735 0.63085 0.0
O626 O 0.29348 0.08381 0.66041 0.0
O627 O 0.29304 0.12225 0.6833 0.0
H628 H 0.36052 0.10783 0.59046 0.0
H629 H 0.40881 0.1064 0.59811 0.0
H630 H 0.40634 0.18951 0.62443 0.0
H631 H 0.35716 0.1888 0.62014 0.0
H632 H 0.14186 0.1117 0.61139 0.0
H633 H 0.18851 0.11875 0.5959 0.0
H634 H 0.17045 0.10823 0.69376 0.0
H635 H 0.21719 0.11511 0.67817 0.0
H636 H 0.28786 0.02616 0.74636 0.0
H637 H 0.34014 0.09333 0.76641 0.0
H638 H 0.33049 0.1138 0.72293 0.0
H639 H 0.27969 0.04615 0.7015 0.0
C640 C 0.60698 0.67167 0.37862 0.0
C641 C 0.59314 0.64883 0.36865 0.0
C642 C 0.63584 0.62594 0.35845 0.0
C643 C 0.6073 0.6262 0.359 0.0
C644 C 0.64952 0.64975 0.36675 0.0
C645 C 0.63534 0.6719 0.37742 0.0
U646 U 0.57929 0.74603 0.3914 0.0
O647 O 0.61268 0.77574 0.38485 0.0
O648 O 0.58498 0.76521 0.3522 0.0
C649 C 0.60556 0.78008 0.35955 0.0
C650 C 0.59095 0.69373 0.39145 0.0
C651 C 0.60649 0.80816 0.3487 0.0
C652 C 0.58539 0.84791 0.32791 0.0
C653 C 0.584 0.82083 0.33646 0.0
C654 C 0.6329 0.8486 0.33971 0.0
C655 C 0.60979 0.86252 0.33003 0.0
C656 C 0.63121 0.82197 0.3489 0.0
C657 C 0.50863 0.75579 0.42797 0.0
C658 C 0.46112 0.7674 0.4352 0.0
C659 C 0.47748 0.72305 0.44751 0.0
C660 C 0.50361 0.72994 0.4384 0.0
C661 C 0.45594 0.74162 0.44553 0.0
C662 C 0.48723 0.77448 0.42684 0.0
C663 C 0.53435 0.7632 0.41454 0.0
O664 O 0.60264 0.71118 0.40791 0.0
O665 O 0.57296 0.70507 0.37593 0.0
O666 O 0.53622 0.75505 0.3895 0.0
O667 O 0.55761 0.76184 0.42765 0.0
H668 H 0.57119 0.64802 0.36935 0.0
H669 H 0.59576 0.60852 0.35317 0.0
H670 H 0.67138 0.65119 0.36583 0.0
H671 H 0.64664 0.68891 0.38526 0.0
H672 H 0.5673 0.85746 0.32001 0.0
H673 H 0.56509 0.81017 0.33422 0.0
H674 H 0.65225 0.85863 0.34192 0.0
H675 H 0.64923 0.81242 0.35702 0.0
H676 H 0.44493 0.78209 0.43362 0.0
H677 H 0.47391 0.70303 0.45549 0.0
H678 H 0.51964 0.71502 0.43901 0.0
H679 H 0.49053 0.79447 0.41863 0.0
C680 C 0.6324 0.3537 0.14434 0.0
C681 C 0.62778 0.36784 0.12023 0.0
C682 C 0.63542 0.41184 0.14208 0.0
C683 C 0.63024 0.3961 0.11877 0.0
C684 C 0.63675 0.39768 0.16693 0.0
C685 C 0.6357 0.36918 0.16795 0.0
U686 U 0.65317 0.27766 0.12539 0.0
O687 O 0.64784 0.2412 0.15019 0.0
O688 O 0.62317 0.2467 0.11376 0.0
C689 C 0.63098 0.22999 0.13277 0.0
C690 C 0.63164 0.3232 0.14525 0.0
C691 C 0.63808 0.2024 0.12339 0.0
C692 C 0.62608 0.15482 0.11858 0.0
C693 C 0.61877 0.18158 0.12456 0.0
C694 C 0.67166 0.16959 0.10837 0.0
C695 C 0.65288 0.14842 0.11145 0.0
C696 C 0.66429 0.19636 0.11408 0.0
C697 C 0.71943 0.28925 0.08031 0.0
C698 C 0.75103 0.28752 0.04231 0.0
C699 C 0.75935 0.31793 0.07974 0.0
C700 C 0.73569 0.30914 0.09239 0.0
C701 C 0.76818 0.30607 0.05538 0.0
C702 C 0.72678 0.2793 0.05465 0.0
C703 C 0.69756 0.27544 0.09553 0.0
O704 O 0.62318 0.31069 0.12355 0.0
O705 O 0.65137 0.30987 0.15721 0.0
O706 O 0.67305 0.27536 0.08532 0.0
O707 O 0.69778 0.27672 0.12207 0.0
H708 H 0.62365 0.3567 0.1021 0.0
H709 H 0.62889 0.40517 0.099 0.0
H710 H 0.63897 0.40832 0.18586 0.0
H711 H 0.63771 0.35923 0.1873 0.0
H712 H 0.61131 0.13891 0.12148 0.0
H713 H 0.59833 0.18584 0.13127 0.0
H714 H 0.69249 0.1652 0.10305 0.0
H715 H 0.6794 0.21214 0.11245 0.0
H716 H 0.75723 0.27795 0.02362 0.0
H717 H 0.77181 0.33275 0.09008 0.0
H718 H 0.73105 0.31684 0.11231 0.0
H719 H 0.7147 0.26374 0.04496 0.0
C720 C 0.38179 0.82339 0.71802 0.0
C721 C 0.37843 0.83237 0.69142 0.0
C722 C 0.37464 0.87859 0.70773 0.0
C723 C 0.37512 0.85983 0.68629 0.0
C724 C 0.38072 0.86988 0.73395 0.0
C725 C 0.38424 0.84232 0.73907 0.0
U726 U 0.35276 0.75434 0.70063 0.0
O727 O 0.32708 0.7286 0.72627 0.0
O728 O 0.36721 0.7144 0.71315 0.0
C729 C 0.34477 0.70876 0.72628 0.0
C730 C 0.37736 0.79491 0.72464 0.0
C731 C 0.33463 0.68102 0.72298 0.0
C732 C 0.30273 0.64738 0.70615 0.0
C733 C 0.30988 0.67455 0.71036 0.0
C734 C 0.34431 0.63344 0.72744 0.0
C735 C 0.32041 0.62646 0.71418 0.0
C736 C 0.35118 0.66022 0.73237 0.0
C737 C 0.31682 0.74514 0.63238 0.0
C738 C 0.29245 0.70416 0.62112 0.0
C739 C 0.28016 0.74627 0.59949 0.0
C740 C 0.30102 0.75932 0.61356 0.0
C741 C 0.27484 0.71889 0.60424 0.0
C742 C 0.31316 0.71725 0.63532 0.0
C743 C 0.33391 0.76044 0.65131 0.0
O744 O 0.35174 0.78884 0.72838 0.0
O745 O 0.39025 0.77694 0.70986 0.0
O746 O 0.32114 0.76882 0.673 0.0
O747 O 0.35815 0.75064 0.65653 0.0
H748 H 0.37626 0.81808 0.67493 0.0
H749 H 0.37054 0.86618 0.66584 0.0
H750 H 0.38027 0.88394 0.75075 0.0
H751 H 0.38669 0.83561 0.75974 0.0
H752 H 0.28409 0.64274 0.69548 0.0
H753 H 0.29657 0.69032 0.70305 0.0
H754 H 0.35902 0.61823 0.73174 0.0
H755 H 0.37049 0.66471 0.74191 0.0
H756 H 0.28911 0.68284 0.62466 0.0
H757 H 0.26694 0.75805 0.58659 0.0
H758 H 0.30364 0.78088 0.61107 0.0
H759 H 0.32521 0.70593 0.64971 0.0
C760 C 0.37862 0.17156 0.99236 0.0
C761 C 0.4013 0.15476 0.98854 0.0
C762 C 0.37176 0.11552 0.98394 0.0
C763 C 0.39787 0.12689 0.98434 0.0
C764 C 0.34941 0.13212 0.98983 0.0
C765 C 0.35283 0.15985 0.99403 0.0
U766 U 0.42082 0.23645 0.9934 0.0
O767 O 0.42031 0.2715 0.96656 0.0
O768 O 0.41266 0.27734 0.00998 0.0
C769 C 0.41592 0.28877 0.98626 0.0
C770 C 0.38095 0.20131 0.99149 0.0
C771 C 0.40073 0.31341 0.97937 0.0
C772 C 0.36577 0.33571 0.95313 0.0
C773 C 0.37589 0.31245 0.96563 0.0
C774 C 0.40431 0.36143 0.96935 0.0
C775 C 0.38077 0.36007 0.95341 0.0
C776 C 0.41413 0.33829 0.98225 0.0
C777 C 0.49614 0.23554 1.00034 0.0
C778 C 0.51963 0.27855 1.00326 0.0
C779 C 0.54466 0.23767 0.99302 0.0
C780 C 0.52073 0.22266 0.99463 0.0
C781 C 0.54424 0.26571 0.99732 0.0
C782 C 0.49568 0.2636 1.0045 0.0
C783 C 0.47077 0.22011 1.00016 0.0
O784 O 0.38857 0.21345 0.01394 0.0
O785 O 0.39287 0.21102 0.96987 0.0
O786 O 0.45839 0.21952 0.97665 0.0
O787 O 0.45433 0.22506 0.02045 0.0
H788 H 0.42143 0.16341 0.98714 0.0
H789 H 0.41533 0.1147 0.97914 0.0
H790 H 0.32903 0.12397 0.989 0.0
H791 H 0.33508 0.17241 0.99687 0.0
H792 H 0.34721 0.33409 0.94148 0.0
H793 H 0.36524 0.29347 0.96311 0.0
H794 H 0.41644 0.37965 0.96994 0.0
H795 H 0.43346 0.33937 0.99267 0.0
H796 H 0.5189 0.30018 0.0065 0.0
H797 H 0.56354 0.2274 0.98866 0.0
H798 H 0.52135 0.20107 0.99114 0.0
H799 H 0.47675 0.27397 0.00846 0.0
C800 C 0.38366 0.60672 0.6784 0.0
C801 C 0.3756 0.59145 0.65566 0.0
C802 C 0.36289 0.63245 0.63098 0.0
C803 C 0.36572 0.60415 0.63211 0.0
C804 C 0.36953 0.64729 0.65454 0.0
C805 C 0.38101 0.63484 0.67713 0.0
U806 U 0.39275 0.58959 0.75583 0.0
O807 O 0.3784 0.62507 0.77974 0.0
O808 O 0.35172 0.59088 0.77208 0.0
C809 C 0.35438 0.61424 0.78409 0.0
C810 C 0.39628 0.5933 0.70241 0.0
C811 C 0.34186 0.6165 0.8113 0.0
C812 C 0.31373 0.59761 0.84729 0.0
C813 C 0.32321 0.59709 0.82053 0.0
C814 C 0.33628 0.64029 0.85383 0.0
C815 C 0.32154 0.61848 0.86477 0.0
C816 C 0.34649 0.63921 0.82749 0.0
C817 C 0.44363 0.53415 0.777 0.0
C818 C 0.46071 0.49061 0.79106 0.0
C819 C 0.47167 0.50796 0.7466 0.0
C820 C 0.4567 0.53129 0.75204 0.0
C821 C 0.47308 0.48724 0.76586 0.0
C822 C 0.44626 0.51404 0.79665 0.0
C823 C 0.42359 0.55523 0.78174 0.0
O824 O 0.41002 0.60861 0.71943 0.0
O825 O 0.3818 0.57489 0.71481 0.0
O826 O 0.39962 0.54942 0.77188 0.0
O827 O 0.43076 0.5805 0.77788 0.0
H828 H 0.3777 0.56969 0.65581 0.0
H829 H 0.36122 0.59181 0.61458 0.0
H830 H 0.36669 0.6689 0.65558 0.0
H831 H 0.38791 0.64745 0.69364 0.0
H832 H 0.30045 0.58182 0.85439 0.0
H833 H 0.31646 0.58131 0.80704 0.0
H834 H 0.34148 0.65761 0.86611 0.0
H835 H 0.35878 0.65574 0.82015 0.0
H836 H 0.46153 0.47476 0.80608 0.0
H837 H 0.48086 0.50543 0.7269 0.0
H838 H 0.45433 0.54644 0.73647 0.0
H839 H 0.43601 0.51584 0.8159 0.0
C840 C 0.14517 0.62821 0.3499 0.0
C841 C 0.12246 0.6253 0.36671 0.0
C842 C 0.15026 0.62899 0.40781 0.0
C843 C 0.1247 0.62657 0.39509 0.0
C844 C 0.17321 0.62814 0.39046 0.0
C845 C 0.17064 0.62843 0.36225 0.0
U846 U 0.12256 0.65099 0.27528 0.0
O847 O 0.14697 0.64545 0.23849 0.0
O848 O 0.11013 0.62145 0.24433 0.0
C849 C 0.12942 0.62858 0.22761 0.0
C850 C 0.14327 0.62846 0.31964 0.0
C851 C 0.12033 0.63482 0.19984 0.0
C852 C 0.11732 0.62168 0.15252 0.0
C853 C 0.12427 0.6157 0.17929 0.0
C854 C 0.10143 0.66577 0.16655 0.0
C855 C 0.10633 0.64693 0.14584 0.0
C856 C 0.10815 0.65967 0.19344 0.0
C857 C 0.07992 0.7184 0.28842 0.0
C858 C 0.04289 0.75118 0.2877 0.0
C859 C 0.08096 0.75759 0.31799 0.0
C860 C 0.09275 0.73371 0.30861 0.0
C861 C 0.05666 0.76742 0.30658 0.0
C862 C 0.05441 0.72684 0.2788 0.0
C863 C 0.09411 0.69622 0.27409 0.0
O864 O 0.12032 0.62134 0.30854 0.0
O865 O 0.15546 0.64774 0.30606 0.0
O866 O 0.08298 0.67222 0.27409 0.0
O867 O 0.12076 0.69547 0.27479 0.0
H868 H 0.10279 0.62352 0.35777 0.0
H869 H 0.10617 0.62643 0.40664 0.0
H870 H 0.1937 0.62784 0.39787 0.0
H871 H 0.18882 0.62895 0.35002 0.0
H872 H 0.12172 0.60706 0.13682 0.0
H873 H 0.13346 0.59638 0.18384 0.0
H874 H 0.09325 0.68548 0.16178 0.0
H875 H 0.10459 0.67459 0.20908 0.0
H876 H 0.02422 0.7581 0.27845 0.0
H877 H 0.09178 0.76925 0.33312 0.0
H878 H 0.11253 0.72807 0.31618 0.0
H879 H 0.04416 0.71548 0.26305 0.0
C880 C 0.71634 0.38746 0.82646 0.0
C881 C 0.68967 0.38673 0.83608 0.0
C882 C 0.70612 0.3928 0.88245 0.0
C883 C 0.68461 0.38964 0.86375 0.0
C884 C 0.73259 0.39536 0.87251 0.0
C885 C 0.73762 0.3927 0.84473 0.0
U886 U 0.7017 0.35352 0.75704 0.0
O887 O 0.7311 0.32901 0.73448 0.0
O888 O 0.71503 0.36606 0.71642 0.0
C889 C 0.73005 0.34439 0.71291 0.0
C890 C 0.72285 0.38023 0.79822 0.0
C891 C 0.72785 0.33051 0.68635 0.0
C892 C 0.7249 0.28962 0.65895 0.0
C893 C 0.72741 0.3022 0.68422 0.0
C894 C 0.72522 0.3331 0.63734 0.0
C895 C 0.7223 0.30495 0.63511 0.0
C896 C 0.7278 0.34574 0.66252 0.0
C897 C 0.63376 0.31605 0.74492 0.0
C898 C 0.62146 0.29154 0.7041 0.0
C899 C 0.59544 0.28515 0.74502 0.0
C900 C 0.61198 0.30388 0.75834 0.0
C901 C 0.60042 0.2782 0.71796 0.0
C902 C 0.63808 0.31026 0.71751 0.0
C903 C 0.65255 0.33313 0.76061 0.0
O904 O 0.7267 0.35437 0.79386 0.0
O905 O 0.70867 0.39186 0.77894 0.0
O906 O 0.65753 0.35738 0.75109 0.0
O907 O 0.67434 0.3209 0.76973 0.0
H908 H 0.67293 0.38265 0.82243 0.0
H909 H 0.66392 0.38763 0.8708 0.0
H910 H 0.74955 0.39743 0.88632 0.0
H911 H 0.75837 0.39332 0.83765 0.0
H912 H 0.72406 0.2678 0.6583 0.0
H913 H 0.72849 0.28968 0.70208 0.0
H914 H 0.72415 0.34566 0.61979 0.0
H915 H 0.72916 0.36756 0.66336 0.0
H916 H 0.62554 0.28691 0.68309 0.0
H917 H 0.57966 0.27511 0.75637 0.0
H918 H 0.60835 0.30813 0.77951 0.0
H919 H 0.65473 0.31955 0.70674 0.0
C920 C 0.99612 0.37773 0.1708 0.0
C921 C 0.99232 0.4003 0.15401 0.0
C922 C 0.9892 0.37094 0.11453 0.0
C923 C 0.98884 0.39691 0.12603 0.0
C924 C 0.99511 0.34874 0.13118 0.0
C925 C 0.99853 0.35212 0.15903 0.0
U926 U 0.99546 0.41965 0.2358 0.0
O927 O 0.96794 0.41887 0.27036 0.0
O928 O 0.01148 0.41143 0.27695 0.0
C929 C 0.98741 0.41437 0.28794 0.0
C930 C 0.99458 0.37998 0.20052 0.0
C931 C 0.98011 0.39881 0.31214 0.0
C932 C 0.95158 0.36526 0.33348 0.0
C933 C 0.96476 0.37506 0.31049 0.0
C934 C 0.97042 0.40172 0.36028 0.0
C935 C 0.95285 0.37951 0.35825 0.0
C936 C 0.98396 0.4112 0.33741 0.0
C937 C 1.00182 0.49464 0.23559 0.0
C938 C 1.00456 0.51778 0.27884 0.0
C939 C 0.99376 0.54284 0.23819 0.0
C940 C 0.99566 0.51913 0.22293 0.0
C941 C 0.99822 0.54229 0.26622 0.0
C942 C 1.00607 0.49404 0.26366 0.0
C943 C 1.00208 0.46947 0.2199 0.0
O944 O 0.01681 0.38769 0.21313 0.0
O945 O 0.97258 0.39172 0.20981 0.0
O946 O 0.97859 0.45702 0.21883 0.0
O947 O 0.0225 0.4532 0.22502 0.0
H948 H 0.99035 0.42029 0.16273 0.0
H949 H 0.98357 0.41422 0.11378 0.0
H950 H 0.9948 0.32846 0.12291 0.0
H951 H 1.00137 0.33446 0.17159 0.0
H952 H 0.93875 0.34761 0.33136 0.0
H953 H 0.96149 0.36519 0.29119 0.0
H954 H 0.97188 0.41323 0.37885 0.0
H955 H 0.99564 0.42968 0.33903 0.0
H956 H 0.00794 0.51696 0.30047 0.0
H957 H 0.98908 0.56164 0.2281 0.0
H958 H 0.99207 0.51985 0.20134 0.0
H959 H 0.01036 0.47519 0.27386 0.0
C960 C 0.36023 0.433 0.65899 0.0
C961 C 0.35543 0.41001 0.64218 0.0
C962 C 0.3319 0.40956 0.626 0.0
C963 C 0.32105 0.45499 0.63893 0.0
C964 C 0.34233 0.45553 0.65711 0.0
C965 C 0.34118 0.48157 0.67391 0.0
H966 H 0.3075 0.61208 0.66383 0.0
C967 C 0.3056 0.47991 0.64065 0.0
C968 C 0.31588 0.49561 0.66209 0.0
H969 H 0.32033 0.57684 0.74171 0.0
H970 H 0.32065 0.53162 0.72182 0.0
H971 H 0.31852 0.56111 0.61361 0.0
H972 H 0.24601 0.56355 0.66286 0.0
H973 H 0.24988 0.58449 0.63292 0.0
H974 H 0.26204 0.59553 0.6641 0.0
H975 H 0.30332 0.59389 0.6183 0.0
H976 H 0.28512 0.56814 0.60084 0.0
C977 C 0.36699 0.49843 0.6696 0.0
C978 C 0.3375 0.4744 0.70383 0.0
C979 C 0.2583 0.51903 0.55863 0.0
C980 C 0.24159 0.54224 0.55701 0.0
C981 C 0.22877 0.55179 0.58073 0.0
C982 C 0.23571 0.54114 0.60575 0.0
C983 C 0.25669 0.52257 0.60679 0.0
C984 C 0.26512 0.50913 0.58427 0.0
C985 C 0.28185 0.48481 0.59216 0.0
C986 C 0.28584 0.49033 0.62263 0.0
C987 C 0.27305 0.5144 0.62938 0.0
C988 C 0.30897 0.48492 0.57674 0.0
C989 C 0.26465 0.45928 0.58613 0.0
C990 C 0.31165 0.59484 0.67663 0.0
C991 C 0.31729 0.59839 0.70388 0.0
C992 C 0.32014 0.57508 0.72018 0.0
C993 C 0.32003 0.54891 0.7087 0.0
C994 C 0.31503 0.54606 0.68096 0.0
C995 C 0.30731 0.56889 0.66675 0.0
C996 C 0.28719 0.56269 0.64514 0.0
C997 C 0.28564 0.53204 0.64776 0.0
C998 C 0.30502 0.52223 0.66604 0.0
C999 C 0.29921 0.57186 0.61789 0.0
C1000 C 0.25987 0.57708 0.65155 0.0
H1001 H 0.29627 0.4296 0.61352 0.0
H1002 H 0.37739 0.43349 0.67269 0.0
H1003 H 0.31717 0.46538 0.70701 0.0
H1004 H 0.33962 0.49236 0.71693 0.0
H1005 H 0.35311 0.45967 0.71053 0.0
H1006 H 0.36948 0.50345 0.64787 0.0
H1007 H 0.38519 0.48709 0.67642 0.0
H1008 H 0.36603 0.51759 0.68126 0.0
H1009 H 0.2667 0.50982 0.54066 0.0
H1010 H 0.21498 0.56876 0.58046 0.0
H1011 H 0.22554 0.54795 0.62375 0.0
H1012 H 0.32027 0.50398 0.58065 0.0
H1013 H 0.30546 0.483 0.55464 0.0
H1014 H 0.32198 0.4678 0.583 0.0
H1015 H 0.24789 0.46331 0.5716 0.0
H1016 H 0.2551 0.45137 0.60481 0.0
H1017 H 0.27691 0.44314 0.57652 0.0
H1018 H 0.32667 0.39181 0.61423 0.0
C1019 C 0.31464 0.43161 0.62473 0.0
C1020 C 0.37859 0.4095 0.93804 0.0
C1021 C 0.37503 0.38145 0.933 0.0
C1022 C 0.36848 0.37299 0.90665 0.0
C1023 C 0.36728 0.41914 0.89131 0.0
C1024 C 0.37446 0.42809 0.91674 0.0
C1025 C 0.37798 0.45864 0.91706 0.0
H1026 H 0.36702 0.57718 0.8452 0.0
C1027 C 0.36344 0.44262 0.87368 0.0
C1028 C 0.36952 0.46625 0.88827 0.0
H1029 H 0.39985 0.56819 0.92552 0.0
H1030 H 0.39 0.52026 0.92403 0.0
H1031 H 0.38755 0.52497 0.81625 0.0
H1032 H 0.3134 0.53769 0.85876 0.0
H1033 H 0.30748 0.50955 0.83761 0.0
H1034 H 0.31456 0.54095 0.82244 0.0
H1035 H 0.36114 0.54835 0.80672 0.0
H1036 H 0.3595 0.51362 0.79689 0.0
C1037 C 0.40817 0.46489 0.92245 0.0
C1038 C 0.35876 0.47089 0.93829 0.0
C1039 C 0.32559 0.4233 0.78104 0.0
C1040 C 0.31142 0.43865 0.76205 0.0
C1041 C 0.30846 0.46671 0.76675 0.0
C1042 C 0.32031 0.47909 0.78975 0.0
C1043 C 0.33501 0.46319 0.80829 0.0
C1044 C 0.33629 0.43567 0.80404 0.0
C1045 C 0.34634 0.42076 0.82817 0.0
C1046 C 0.35312 0.44388 0.84707 0.0
C1047 C 0.34748 0.46879 0.83525 0.0
C1048 C 0.3721 0.40488 0.81965 0.0
C1049 C 0.32238 0.40318 0.83879 0.0
C1050 C 0.37165 0.56516 0.86266 0.0
C1051 C 0.38431 0.57723 0.88543 0.0
C1052 C 0.39023 0.56008 0.90756 0.0
C1053 C 0.38459 0.53204 0.90668 0.0
C1054 C 0.37214 0.52056 0.88371 0.0
C1055 C 0.36481 0.53736 0.8626 0.0
C1056 C 0.35083 0.52168 0.84014 0.0
C1057 C 0.35473 0.49293 0.84927 0.0
C1058 C 0.36592 0.49201 0.87555 0.0
C1059 C 0.36536 0.52741 0.81339 0.0
C1060 C 0.32009 0.52803 0.83964 0.0
H1061 H 0.36058 0.38312 0.86653 0.0
H1062 H 0.38451 0.41668 0.95788 0.0
H1063 H 0.33774 0.46334 0.9351 0.0
H1064 H 0.35786 0.49311 0.93711 0.0
H1065 H 0.36524 0.46525 0.95903 0.0
H1066 H 0.42134 0.45107 0.91056 0.0
H1067 H 0.4132 0.46223 0.94417 0.0
H1068 H 0.41395 0.48543 0.91624 0.0
H1069 H 0.32665 0.40153 0.77912 0.0
H1070 H 0.29676 0.47893 0.75286 0.0
H1071 H 0.31689 0.5003 0.79289 0.0
H1072 H 0.38415 0.41643 0.80462 0.0
H1073 H 0.36667 0.3852 0.81028 0.0
H1074 H 0.38629 0.40138 0.83663 0.0
H1075 H 0.30234 0.41036 0.83131 0.0
H1076 H 0.32029 0.40405 0.86103 0.0
H1077 H 0.32444 0.38179 0.83233 0.0
H1078 H 0.36698 0.35175 0.90157 0.0
C1079 C 0.36488 0.39146 0.88599 0.0
C1080 C 0.61021 0.06738 0.31101 0.0
C1081 C 0.62808 0.08944 0.30726 0.0
C1082 C 0.65619 0.08511 0.3047 0.0
C1083 C 0.64921 0.04031 0.31968 0.0
C1084 C 0.62169 0.04194 0.31603 0.0
C1085 C 0.60845 0.01477 0.32212 0.0
H1086 H 0.65269 0.89093 0.31039 0.0
C1087 C 0.65541 0.01599 0.33334 0.0
C1088 C 0.63257 0.99932 0.33367 0.0
H1089 H 0.5705 0.90278 0.33766 0.0
H1090 H 0.57998 0.95125 0.34463 0.0
H1091 H 0.68762 0.94162 0.28786 0.0
H1092 H 0.67926 0.90427 0.34794 0.0
H1093 H 0.70252 0.9302 0.35393 0.0
H1094 H 0.70127 0.91293 0.32158 0.0
H1095 H 0.69215 0.97308 0.3063 0.0
H1096 H 0.66089 0.96575 0.29085 0.0
C1097 C 0.59817 1.00189 0.29571 0.0
C1098 C 0.58571 0.01787 0.343 0.0
C1099 C 0.71091 0.01938 0.41767 0.0
C1100 C 0.71941 0.99842 0.4349 0.0
C1101 C 0.71521 0.97143 0.42672 0.0
C1102 C 0.70207 0.96571 0.40209 0.0
C1103 C 0.69449 0.98636 0.38507 0.0
C1104 C 0.69885 0.01278 0.39262 0.0
C1105 C 0.6888 0.0316 0.37121 0.0
C1106 C 0.67716 0.01119 0.35069 0.0
C1107 C 0.68104 0.98456 0.35859 0.0
C1108 C 0.71292 0.04807 0.36029 0.0
C1109 C 0.66676 0.05023 0.38328 0.0
C1110 C 0.63632 0.9037 0.31732 0.0
C1111 C 0.61133 0.89246 0.32476 0.0
C1112 C 0.59026 0.91048 0.33239 0.0
C1113 C 0.59547 0.93841 0.33612 0.0
C1114 C 0.62176 0.94825 0.33177 0.0
C1115 C 0.64168 0.93077 0.32333 0.0
C1116 C 0.66898 0.94285 0.32853 0.0
C1117 C 0.66213 0.96442 0.34975 0.0
C1118 C 0.63539 0.97236 0.3432 0.0
C1119 C 0.67814 0.95635 0.30189 0.0
C1120 C 0.68933 0.92159 0.33843 0.0
H1121 H 0.68856 0.05665 0.3101 0.0
H1122 H 0.58851 0.07037 0.31206 0.0
H1123 H 0.59343 0.02808 0.36153 0.0
H1124 H 0.57758 0.99787 0.34883 0.0
H1125 H 0.56876 0.03002 0.33459 0.0
H1126 H 0.61523 0.99852 0.28144 0.0
H1127 H 0.58312 0.01529 0.28576 0.0
H1128 H 0.58825 0.98221 0.29963 0.0
H1129 H 0.71392 0.04027 0.42345 0.0
H1130 H 0.72192 0.95494 0.43941 0.0
H1131 H 0.69729 0.94592 0.39597 0.0
H1132 H 0.72599 0.05553 0.37706 0.0
H1133 H 0.70607 0.0664 0.34956 0.0
H1134 H 0.72565 0.03559 0.34662 0.0
H1135 H 0.64921 0.03819 0.39058 0.0
H1136 H 0.65922 0.06486 0.36811 0.0
H1137 H 0.67494 0.06214 0.40053 0.0
H1138 H 0.6699 0.10172 0.30065 0.0
C1139 C 0.66697 0.0601 0.31095 0.0
C1140 C 0.6531 0.09872 0.09739 0.0
C1141 C 0.66266 0.12011 0.11389 0.0
C1142 C 0.68069 0.11426 0.13514 0.0
C1143 C 0.67714 0.06645 0.12572 0.0
C1144 C 0.6612 0.07197 0.10335 0.0
C1145 C 0.65417 0.04629 0.08805 0.0
H1146 H 0.65801 0.9078 0.0868 0.0
C1147 C 0.67965 0.03692 0.12866 0.0
C1148 C 0.66651 0.02469 0.10636 0.0
H1149 H 0.6234 0.958 0.02471 0.0
H1150 H 0.63655 0.99848 0.05015 0.0
H1151 H 0.71138 0.94147 0.09834 0.0
H1152 H 0.63193 0.93784 0.1325 0.0
H1153 H 0.6523 0.94751 0.15988 0.0
H1154 H 0.65819 0.91541 0.1434 0.0
H1155 H 0.69906 0.91391 0.11831 0.0
H1156 H 0.71601 0.94238 0.13353 0.0
C1157 C 0.66838 0.04723 0.06032 0.0
C1158 C 0.62305 0.04379 0.08592 0.0
C1159 C 0.72087 0.99684 0.21555 0.0
C1160 C 0.72249 0.96984 0.2251 0.0
C1161 C 0.7115 0.9493 0.20843 0.0
C1162 C 0.701 0.95475 0.18292 0.0
C1163 C 0.69981 0.98133 0.17362 0.0
C1164 C 0.70909 1.00205 0.1899 0.0
C1165 C 0.704 0.02919 0.17673 0.0
C1166 C 0.69045 0.02089 0.15005 0.0
C1167 C 0.68843 0.99284 0.14851 0.0
C1168 C 0.73163 0.04331 0.17201 0.0
C1169 C 0.68434 0.04511 0.19515 0.0
C1170 C 0.65348 0.9275 0.07846 0.0
C1171 C 0.64 0.92979 0.05371 0.0
C1172 C 0.63387 0.95581 0.04384 0.0
C1173 C 0.64157 0.97919 0.0586 0.0
C1174 C 0.65507 0.97639 0.08365 0.0
C1175 C 0.66055 0.95066 0.09295 0.0
C1176 C 0.67346 0.95046 0.12022 0.0
C1177 C 0.6765 0.98032 0.12559 0.0
C1178 C 0.66557 0.99586 0.1044 0.0
C1179 C 0.70137 0.93619 0.11775 0.0
C1180 C 0.65318 0.937 0.14011 0.0
H1181 H 0.70123 0.08469 0.15799 0.0
H1182 H 0.63961 0.10274 0.08057 0.0
H1183 H 0.61352 0.04794 0.10583 0.0
H1184 H 0.61644 0.02338 0.07992 0.0
H1185 H 0.61479 0.05845 0.07109 0.0
H1186 H 0.68988 0.05364 0.06269 0.0
H1187 H 0.65818 0.06185 0.04668 0.0
H1188 H 0.66895 0.02736 0.05025 0.0
H1189 H 0.72847 0.0135 0.22754 0.0
H1190 H 0.71035 0.92857 0.21502 0.0
H1191 H 0.69398 0.93774 0.17155 0.0
H1192 H 0.74843 0.02842 0.17052 0.0
H1193 H 0.73664 0.05744 0.18876 0.0
H1194 H 0.7322 0.05439 0.15261 0.0
H1195 H 0.66732 0.03195 0.20174 0.0
H1196 H 0.67472 0.06244 0.18507 0.0
H1197 H 0.69496 0.05254 0.21356 0.0
H1198 H 0.68841 0.13032 0.14794 0.0
C1199 C 0.68791 0.0877 0.14114 0.0
C1200 C 0.64699 0.32998 0.43072 0.0
C1201 C 0.67037 0.34454 0.42399 0.0
C1202 C 0.69315 0.34353 0.44114 0.0
C1203 C 0.6683 0.31493 0.47231 0.0
C1204 C 0.64623 0.31569 0.45504 0.0
C1205 C 0.62175 0.30191 0.46663 0.0
H1206 H 0.56096 0.24531 0.57487 0.0
C1207 C 0.66002 0.29991 0.49683 0.0
C1208 C 0.63277 0.29228 0.49356 0.0
H1209 H 0.52381 0.26946 0.49972 0.0
H1210 H 0.56802 0.28166 0.48181 0.0
H1211 H 0.6071 0.21604 0.55651 0.0
H1212 H 0.60488 0.2999 0.5782 0.0
H1213 H 0.6294 0.28125 0.59666 0.0
H1214 H 0.59499 0.27145 0.59843 0.0
H1215 H 0.61918 0.22717 0.58871 0.0
H1216 H 0.64156 0.22515 0.56005 0.0
C1217 C 0.61429 0.27781 0.44815 0.0
C1218 C 0.59881 0.32318 0.46988 0.0
C1219 C 0.7161 0.30372 0.58349 0.0
C1220 C 0.71162 0.29238 0.60948 0.0
C1221 C 0.69258 0.27121 0.6115 0.0
C1222 C 0.67634 0.26395 0.58956 0.0
C1223 C 0.67807 0.27863 0.56557 0.0
C1224 C 0.69903 0.29649 0.56177 0.0
C1225 C 0.69933 0.30667 0.53285 0.0
C1226 C 0.67354 0.29432 0.5216 0.0
C1227 C 0.66065 0.27899 0.5415 0.0
C1228 C 0.72463 0.29541 0.5186 0.0
C1229 C 0.69739 0.33762 0.53235 0.0
C1230 C 0.56243 0.25331 0.55457 0.0
C1231 C 0.53917 0.25653 0.5386 0.0
C1232 C 0.54162 0.26704 0.51234 0.0
C1233 C 0.56719 0.27411 0.50208 0.0
C1234 C 0.59028 0.27139 0.5186 0.0
C1235 C 0.58759 0.26112 0.54437 0.0
C1236 C 0.6139 0.26046 0.55959 0.0
C1237 C 0.633 0.27204 0.53857 0.0
C1238 C 0.61908 0.27864 0.51473 0.0
C1239 C 0.62082 0.23075 0.56669 0.0
C1240 C 0.61082 0.27921 0.58456 0.0
H1241 H 0.71046 0.32805 0.47727 0.0
H1242 H 0.62913 0.33082 0.41792 0.0
H1243 H 0.60679 0.34419 0.46965 0.0
H1244 H 0.58829 0.32157 0.48952 0.0
H1245 H 0.58365 0.32151 0.45332 0.0
H1246 H 0.63271 0.26588 0.44308 0.0
H1247 H 0.60512 0.28491 0.42892 0.0
H1248 H 0.60012 0.2636 0.4579 0.0
H1249 H 0.731 0.31906 0.58033 0.0
H1250 H 0.68842 0.26148 0.63056 0.0
H1251 H 0.66182 0.24825 0.59262 0.0
H1252 H 0.7313 0.27598 0.52763 0.0
H1253 H 0.74191 0.30975 0.52006 0.0
H1254 H 0.72028 0.29066 0.49716 0.0
H1255 H 0.68139 0.3444 0.54657 0.0
H1256 H 0.69108 0.34608 0.51285 0.0
H1257 H 0.71735 0.34658 0.53717 0.0
H1258 H 0.71135 0.35468 0.43612 0.0
C1259 C 0.6925 0.32817 0.46495 0.0
C1260 C 0.21081 0.71497 0.96777 0.0
C1261 C 0.23094 0.72682 0.98439 0.0
C1262 C 0.22574 0.7277 0.01258 0.0
C1263 C 0.18209 0.70526 0.00633 0.0
C1264 C 0.18672 0.7052 0.97891 0.0
C1265 C 0.16314 0.69425 0.9631 0.0
H1266 H 0.04201 0.63162 0.95632 0.0
C1267 C 0.15511 0.6925 0.01092 0.0
C1268 C 0.14392 0.68643 0.98558 0.0
H1269 H 0.09246 0.66191 0.89192 0.0
H1270 H 0.12434 0.67905 0.92401 0.0
H1271 H 0.09148 0.60951 0.99409 0.0
H1272 H 0.05173 0.68739 0.99865 0.0
H1273 H 0.05319 0.67144 0.0306 0.0
H1274 H 0.03371 0.65627 1.00378 0.0
H1275 H 0.05694 0.61267 1.00511 0.0
H1276 H 0.08495 0.61815 0.02794 0.0
C1277 C 0.17313 0.66925 0.947 0.0
C1278 C 0.15157 0.71758 0.94556 0.0
C1279 C 0.12589 0.67018 0.10624 0.0
C1280 C 0.10465 0.65496 0.11708 0.0
C1281 C 0.08401 0.64538 0.09974 0.0
C1282 C 0.08494 0.65061 0.07173 0.0
C1283 C 0.10715 0.66489 0.06095 0.0
C1284 C 0.12695 0.6746 0.07835 0.0
C1285 C 0.14983 0.68813 0.06377 0.0
C1286 C 0.14096 0.68479 0.03467 0.0
C1287 C 0.11574 0.67131 0.03286 0.0
C1288 C 0.17624 0.67238 0.06999 0.0
C1289 C 0.15048 0.71818 0.07238 0.0
C1290 C 0.05991 0.6422 0.94946 0.0
C1291 C 0.06492 0.64543 0.92156 0.0
C1292 C 0.08826 0.65928 0.91325 0.0
C1293 C 0.10677 0.66933 0.93202 0.0
C1294 C 0.10204 0.6658 0.95971 0.0
C1295 C 0.07876 0.6529 0.9683 0.0
C1296 C 0.07777 0.65148 0.9989 0.0
C1297 C 0.10422 0.66566 0.00687 0.0
C1298 C 0.11823 0.67364 0.98357 0.0
C1299 C 0.0776 0.62143 0.00717 0.0
C1300 C 0.05271 0.66735 0.00869 0.0
H1301 H 0.19924 0.71799 0.04508 0.0
H1302 H 0.21335 0.71278 0.94624 0.0
H1303 H 0.15679 0.73774 0.95409 0.0
H1304 H 0.12912 0.71755 0.94477 0.0
H1305 H 0.15967 0.71682 0.92467 0.0
H1306 H 0.18782 0.6573 0.95919 0.0
H1307 H 0.18348 0.67538 0.9281 0.0
H1308 H 0.15678 0.65487 0.9419 0.0
H1309 H 0.14215 0.67739 0.11915 0.0
H1310 H 0.0675 0.63348 0.10781 0.0
H1311 H 0.0687 0.64287 0.05947 0.0
H1312 H 0.17235 0.65024 0.06991 0.0
H1313 H 0.18443 0.67792 0.09019 0.0
H1314 H 0.19222 0.67549 0.05483 0.0
H1315 H 0.12956 0.72613 0.07512 0.0
H1316 H 0.15968 0.73133 0.05695 0.0
H1317 H 0.1615 0.72085 0.09182 0.0
H1318 H 0.24001 0.73688 0.02643 0.0
C1319 C 0.20169 0.71687 0.02355 0.0
C1320 C 0.86618 0.3722 0.56469 0.0
C1321 C 0.88919 0.38509 0.57616 0.0
C1322 C 0.91093 0.39093 0.55845 0.0
C1323 C 0.88615 0.37242 0.51957 0.0
C1324 C 0.8656 0.3649 0.53696 0.0
C1325 C 0.84343 0.3496 0.52201 0.0
H1326 H 0.77971 0.32083 0.40369 0.0
C1327 C 0.87719 0.36592 0.49126 0.0
C1328 C 0.85126 0.35406 0.4929 0.0
H1329 H 0.76276 0.28592 0.48137 0.0
H1330 H 0.79957 0.31149 0.50149 0.0
H1331 H 0.80251 0.38122 0.41926 0.0
H1332 H 0.83257 0.30177 0.40797 0.0
H1333 H 0.86203 0.32075 0.40358 0.0
H1334 H 0.83362 0.32553 0.38096 0.0
H1335 H 0.8063 0.36432 0.38742 0.0
H1336 H 0.83316 0.38486 0.40157 0.0
C1337 C 0.81577 0.36211 0.52877 0.0
C1338 C 0.84556 0.31898 0.52802 0.0
C1339 C 0.93799 0.37746 0.40771 0.0
C1340 C 0.93234 0.3744 0.37973 0.0
C1341 C 0.90548 0.36908 0.3716 0.0
C1342 C 0.88494 0.36598 0.39045 0.0
C1343 C 0.89098 0.36762 0.41806 0.0
C1344 C 0.91685 0.37397 0.42659 0.0
C1345 C 0.91787 0.37758 0.45709 0.0
C1346 C 0.88906 0.36973 0.46518 0.0
C1347 C 0.87378 0.36377 0.44187 0.0
C1348 C 0.9239 0.40756 0.46323 0.0
C1349 C 0.93904 0.35802 0.46901 0.0
C1350 C 0.78272 0.31974 0.42534 0.0
C1351 C 0.76627 0.30313 0.44132 0.0
C1352 C 0.77333 0.3002 0.46891 0.0
C1353 C 0.79499 0.31483 0.48054 0.0
C1354 C 0.81074 0.33183 0.46421 0.0
C1355 C 0.80518 0.33277 0.43685 0.0
C1356 C 0.82804 0.3448 0.42118 0.0
C1357 C 0.84749 0.35255 0.44378 0.0
C1358 C 0.83684 0.34622 0.46906 0.0
C1359 C 0.81709 0.37005 0.40632 0.0
C1360 C 0.83967 0.32232 0.40234 0.0
H1361 H 0.92641 0.39051 0.51815 0.0
H1362 H 0.84901 0.36767 0.57718 0.0
H1363 H 0.865 0.31389 0.53814 0.0
H1364 H 0.84533 0.30646 0.50936 0.0
H1365 H 0.82848 0.31172 0.54028 0.0
H1366 H 0.8168 0.38437 0.52638 0.0
H1367 H 0.80993 0.35771 0.5499 0.0
H1368 H 0.79946 0.35467 0.51543 0.0
H1369 H 0.95819 0.38253 0.41467 0.0
H1370 H 0.89998 0.36811 0.35042 0.0
H1371 H 0.86503 0.36256 0.38259 0.0
H1372 H 0.91301 0.42089 0.44876 0.0
H1373 H 0.94594 0.41186 0.46151 0.0
H1374 H 0.91682 0.41385 0.48339 0.0
H1375 H 0.9352 0.33712 0.46166 0.0
H1376 H 0.93836 0.35738 0.49128 0.0
H1377 H 0.95985 0.3639 0.46286 0.0
H1378 H 0.92907 0.4006 0.56614 0.0
C1379 C 0.90934 0.38514 0.53041 0.0
C1380 C 0.41884 0.70739 0.02033 0.0
C1381 C 0.43477 0.71683 0.99875 0.0
C1382 C 0.42465 0.71449 0.97218 0.0
C1383 C 0.38418 0.69257 0.98857 0.0
C1384 C 0.39338 0.69566 0.01471 0.0
C1385 C 0.37267 0.68561 0.03438 0.0
H1386 H 0.30889 0.5865 0.07237 0.0
C1387 C 0.35756 0.67927 0.98798 0.0
C1388 C 0.35105 0.67464 0.01477 0.0
H1389 H 0.30291 0.66708 0.10667 0.0
H1390 H 0.3128 0.68641 0.06208 0.0
H1391 H 0.27757 0.61782 1.00302 0.0
H1392 H 0.35761 0.58965 0.02766 0.0
H1393 H 0.34233 0.57603 0.99747 0.0
H1394 H 0.32912 0.56692 0.03003 0.0
H1395 H 0.28059 0.58494 0.01821 0.0
H1396 H 0.2933 0.59054 0.98471 0.0
C1397 C 0.36259 0.70948 0.05175 0.0
C1398 C 0.38534 0.66325 0.05204 0.0
C1399 C 0.31009 0.64187 0.90755 0.0
C1400 C 0.31609 0.61759 0.8945 0.0
C1401 C 0.32336 0.59502 0.91061 0.0
C1402 C 0.32803 0.59805 0.93878 0.0
C1403 C 0.3252 0.6237 0.95058 0.0
C1404 C 0.3171 0.64501 0.93469 0.0
C1405 C 0.32497 0.67096 0.94772 0.0
C1406 C 0.34676 0.66177 0.96762 0.0
C1407 C 0.339 0.63521 0.97464 0.0
C1408 C 0.29988 0.6815 0.96302 0.0
C1409 C 0.33531 0.6913 0.9271 0.0
C1410 C 0.30928 0.60822 0.07018 0.0
C1411 C 0.30704 0.62551 0.09293 0.0
C1412 C 0.30601 0.65372 0.08956 0.0
C1413 C 0.31266 0.66482 0.06485 0.0
C1414 C 0.32015 0.64727 0.04438 0.0
C1415 C 0.31458 0.62017 0.04504 0.0
C1416 C 0.31856 0.60776 0.01702 0.0
C1417 C 0.33103 0.63161 1.00204 0.0
C1418 C 0.33323 0.65345 0.01978 0.0
C1419 C 0.2909 0.59982 1.00498 0.0
C1420 C 0.33806 0.58366 0.01811 0.0
H1421 H 0.39092 0.70119 0.94783 0.0
H1422 H 0.42576 0.70976 0.04099 0.0
H1423 H 0.39235 0.64611 0.03929 0.0
H1424 H 0.37052 0.65539 0.06687 0.0
H1425 H 0.40297 0.67115 0.06364 0.0
H1426 H 0.37971 0.72265 0.05816 0.0
H1427 H 0.35317 0.70247 0.07073 0.0
H1428 H 0.34789 0.72209 0.04032 0.0
H1429 H 0.3043 0.65936 0.8958 0.0
H1430 H 0.32796 0.57587 0.90115 0.0
H1431 H 0.33644 0.58148 0.95021 0.0
H1432 H 0.28498 0.69062 0.94894 0.0
H1433 H 0.30621 0.69611 0.9786 0.0
H1434 H 0.2892 0.6651 0.97401 0.0
H1435 H 0.34719 0.68153 0.9111 0.0
H1436 H 0.34851 0.70556 0.93735 0.0
H1437 H 0.31837 0.70188 0.91685 0.0
H1438 H 0.43608 0.72246 0.95534 0.0
C1439 C 0.39938 0.70228 0.96735 0.0
C1440 C 0.5848 0.72256 0.30401 0.0
C1441 C 0.6119 0.71558 0.29775 0.0
C1442 C 0.61672 0.69238 0.28233 0.0
C1443 C 0.56936 0.68054 0.28477 0.0
C1444 C 0.56367 0.70431 0.29798 0.0
C1445 C 0.53376 0.70597 0.30566 0.0
H1446 H 0.42394 0.62929 0.33983 0.0
C1447 C 0.54502 0.66363 0.28513 0.0
C1448 C 0.52387 0.67767 0.29779 0.0
H1449 H 0.43464 0.71441 0.35469 0.0
H1450 H 0.47354 0.71469 0.32417 0.0
H1451 H 0.44244 0.63383 0.27489 0.0
H1452 H 0.48376 0.61054 0.34834 0.0
H1453 H 0.49183 0.5871 0.32293 0.0
H1454 H 0.45721 0.59041 0.33362 0.0
H1455 H 0.43439 0.6032 0.29246 0.0
H1456 H 0.46171 0.60466 0.26832 0.0
C1457 C 0.52012 0.72786 0.28834 0.0
C1458 C 0.53106 0.71168 0.3361 0.0
C1459 C 0.55827 0.56839 0.25434 0.0
C1460 C 0.54254 0.54503 0.25488 0.0
C1461 C 0.51596 0.54619 0.26522 0.0
C1462 C 0.50529 0.57088 0.27462 0.0
C1463 C 0.52179 0.59415 0.27429 0.0
C1464 C 0.54767 0.59232 0.26405 0.0
C1465 C 0.56336 0.61779 0.26631 0.0
C1466 C 0.5422 0.63621 0.27817 0.0
C1467 C 0.51813 0.62241 0.28353 0.0
C1468 C 0.57175 0.62646 0.23731 0.0
C1469 C 0.58715 0.61245 0.28646 0.0
C1470 C 0.43535 0.64782 0.33739 0.0
C1471 C 0.42697 0.6716 0.35012 0.0
C1472 C 0.44156 0.69564 0.34581 0.0
C1473 C 0.46469 0.69565 0.32919 0.0
C1474 C 0.47446 0.67107 0.31885 0.0
C1475 C 0.45907 0.64794 0.32208 0.0
C1476 C 0.47088 0.624 0.30786 0.0
C1477 C 0.49681 0.63596 0.297 0.0
C1478 C 0.49917 0.66366 0.30353 0.0
C1479 C 0.45137 0.6157 0.28473 0.0
C1480 C 0.47614 0.60165 0.32908 0.0
H1481 H 0.60145 0.65758 0.26451 0.0
H1482 H 0.5802 0.74145 0.31331 0.0
H1483 H 0.53498 0.69301 0.3478 0.0
H1484 H 0.51113 0.71928 0.34213 0.0
H1485 H 0.54509 0.72801 0.34234 0.0
H1486 H 0.52565 0.7254 0.26671 0.0
H1487 H 0.52664 0.74831 0.29503 0.0
H1488 H 0.49779 0.7266 0.2894 0.0
H1489 H 0.57914 0.56792 0.24748 0.0
H1490 H 0.50367 0.5281 0.26614 0.0
H1491 H 0.48497 0.57081 0.28235 0.0
H1492 H 0.55777 0.61814 0.22168 0.0
H1493 H 0.59248 0.6193 0.23238 0.0
H1494 H 0.57074 0.6486 0.23435 0.0
H1495 H 0.58179 0.5965 0.30131 0.0
H1496 H 0.59219 0.63001 0.29933 0.0
H1497 H 0.60571 0.60568 0.27576 0.0
H1498 H 0.63717 0.68636 0.27707 0.0
C1499 C 0.59566 0.67523 0.27541 0.0
C1500 C 0.10229 0.09672 0.65381 0.0
C1501 C 0.12403 0.11274 0.66352 0.0
C1502 C 0.11831 0.13421 0.6813 0.0
C1503 C 0.07014 0.12573 0.67724 0.0
C1504 C 0.07547 0.10325 0.66146 0.0
C1505 C 0.04955 0.08844 0.65407 0.0
H1506 H 0.91048 0.08905 0.65647 0.0
C1507 C 0.04048 0.12916 0.67937 0.0
C1508 C 0.02801 0.10711 0.66606 0.0
H1509 H 0.96049 0.02626 0.6227 0.0
H1510 H 1.00133 0.05133 0.63582 0.0
H1511 H 0.94403 0.10032 0.70979 0.0
H1512 H 0.94141 0.1344 0.63054 0.0
H1513 H 0.95135 0.16162 0.65091 0.0
H1514 H 0.91883 0.14569 0.65646 0.0
H1515 H 0.91661 0.12051 0.69713 0.0
H1516 H 0.94514 0.13546 0.71435 0.0
C1517 C 0.04992 0.06071 0.66821 0.0
C1518 C 0.04737 0.08642 0.62302 0.0
C1519 C 1.00066 0.21589 0.72143 0.0
C1520 C 0.97359 0.22568 0.72292 0.0
C1521 C 0.95301 0.20969 0.71096 0.0
C1522 C 0.95838 0.18444 0.69987 0.0
C1523 C 0.98496 0.17475 0.69908 0.0
C1524 C 1.00582 0.1905 0.70906 0.0
C1525 C 0.033 0.17707 0.70407 0.0
C1526 C 0.02452 0.15072 0.69007 0.0
C1527 C 0.99635 0.14964 0.68759 0.0
C1528 C 0.04693 0.17179 0.73165 0.0
C1529 C 0.04933 0.19555 0.68491 0.0
C1530 C 0.93022 0.08051 0.6521 0.0
C1531 C 0.93236 0.05565 0.63889 0.0
C1532 C 0.95842 0.04547 0.63297 0.0
C1533 C 0.98201 0.06001 0.64069 0.0
C1534 C 0.97937 0.08512 0.65404 0.0
C1535 C 0.95358 0.09475 0.65923 0.0
C1536 C 0.95359 0.12201 0.67208 0.0
C1537 C 0.98362 0.12696 0.67545 0.0
C1538 C 0.99906 0.10559 0.66472 0.0
C1539 C 0.93897 0.11974 0.69972 0.0
C1540 C 0.94051 0.14205 0.6517 0.0
H1541 H 0.08877 0.15772 0.70131 0.0
H1542 H 0.10611 0.07977 0.64048 0.0
H1543 H 0.05191 0.10626 0.61361 0.0
H1544 H 0.02687 0.08074 0.61612 0.0
H1545 H 0.062 0.07139 0.61496 0.0
H1546 H 0.05624 0.06294 0.6897 0.0
H1547 H 0.06444 0.04682 0.65817 0.0
H1548 H 0.02979 0.05103 0.66859 0.0
H1549 H 0.01739 0.22745 0.72963 0.0
H1550 H 0.93228 0.21662 0.70958 0.0
H1551 H 0.94128 0.17356 0.69219 0.0
H1552 H 0.03179 0.16986 0.74814 0.0
H1553 H 0.06095 0.18847 0.7372 0.0
H1554 H 0.05818 0.15246 0.73194 0.0
H1555 H 0.03632 0.20251 0.66791 0.0
H1556 H 0.06672 0.18538 0.67538 0.0
H1557 H 0.05687 0.21371 0.69582 0.0
H1558 H 0.13454 0.14681 0.68907 0.0
C1559 C 0.09164 0.14077 0.68814 0.0
C1560 C 0.56013 0.88811 0.38961 0.0
C1561 C 0.57967 0.86738 0.39421 0.0
C1562 C 0.56952 0.84048 0.39409 0.0
C1563 C 0.52619 0.85485 0.37616 0.0
C1564 C 0.53335 0.88129 0.38137 0.0
C1565 C 0.50831 0.89921 0.38138 0.0
H1566 H 0.36908 0.90332 0.37354 0.0
C1567 C 0.49719 0.85353 0.3693 0.0
C1568 C 0.48574 0.87892 0.37477 0.0
H1569 H 0.42146 0.97121 0.38929 0.0
H1570 H 0.46131 0.94201 0.3847 0.0
H1571 H 0.40927 0.87911 0.32329 0.0
H1572 H 0.40541 0.83186 0.39388 0.0
H1573 H 0.37412 0.84537 0.38034 0.0
H1574 H 0.39241 0.86232 0.40669 0.0
H1575 H 0.37673 0.87103 0.33741 0.0
H1576 H 0.39943 0.84509 0.32753 0.0
C1577 C 0.51129 0.92054 0.359 0.0
C1578 C 0.50512 0.91151 0.40989 0.0
C1579 C 0.45533 0.77474 0.31536 0.0
C1580 C 0.42835 0.76491 0.31412 0.0
C1581 C 0.40842 0.77808 0.32968 0.0
C1582 C 0.41476 0.80061 0.34537 0.0
C1583 C 0.44108 0.81115 0.34496 0.0
C1584 C 0.46133 0.7976 0.33148 0.0
C1585 C 0.48888 0.80946 0.33837 0.0
C1586 C 0.48112 0.83234 0.35801 0.0
C1587 C 0.45294 0.83471 0.35875 0.0
C1588 C 0.50233 0.82078 0.31279 0.0
C1589 C 0.50613 0.78721 0.35099 0.0
C1590 C 0.38913 0.91186 0.37647 0.0
C1591 C 0.39224 0.93929 0.38216 0.0
C1592 C 0.41864 0.94986 0.38547 0.0
C1593 C 0.44163 0.9329 0.38288 0.0
C1594 C 0.43799 0.90516 0.37738 0.0
C1595 C 0.41189 0.89545 0.37388 0.0
C1596 C 0.41092 0.86642 0.3659 0.0
C1597 C 0.44079 0.8595 0.3662 0.0
C1598 C 0.45693 0.88206 0.37305 0.0
C1599 C 0.39844 0.86509 0.33708 0.0
C1600 C 0.3948 0.85059 0.38764 0.0
H1601 H 0.5356 0.81419 0.38811 0.0
H1602 H 0.56515 0.90914 0.39259 0.0
H1603 H 0.5083 0.89581 0.42559 0.0
H1604 H 0.48472 0.91971 0.41352 0.0
H1605 H 0.5202 0.92784 0.41333 0.0
H1606 H 0.51668 0.91072 0.3395 0.0
H1607 H 0.52755 0.93522 0.36417 0.0
H1608 H 0.49228 0.93175 0.35547 0.0
H1609 H 0.47135 0.76469 0.30439 0.0
H1610 H 0.38749 0.77148 0.32926 0.0
H1611 H 0.39863 0.80946 0.35673 0.0
H1612 H 0.48885 0.8357 0.30276 0.0
H1613 H 0.50679 0.80431 0.29817 0.0
H1614 H 0.52166 0.83107 0.31803 0.0
H1615 H 0.5054 0.76842 0.33877 0.0
H1616 H 0.49837 0.78254 0.3714 0.0
H1617 H 0.52769 0.79285 0.35167 0.0
H1618 H 0.58173 0.82351 0.40001 0.0
C1619 C 0.54302 0.83438 0.3856 0.0
C1620 C 0.07999 0.3066 0.61285 0.0
C1621 C 0.10179 0.30543 0.63204 0.0
C1622 C 0.09613 0.30761 0.6598 0.0
C1623 C 0.05151 0.32165 0.6488 0.0
C1624 C 0.0538 0.31379 0.62241 0.0
C1625 C 0.02566 0.31617 0.60864 0.0
H1626 H 0.89847 0.30926 0.65816 0.0
C1627 C 0.02606 0.33409 0.65293 0.0
C1628 C 0.00875 0.32966 0.631 0.0
H1629 H 0.90591 0.32893 0.57393 0.0
H1630 H 0.95569 0.33463 0.57975 0.0
H1631 H 0.95342 0.28425 0.68846 0.0
H1632 H 0.91945 0.34988 0.68315 0.0
H1633 H 0.94609 0.34319 0.70644 0.0
H1634 H 0.92096 0.31787 0.69935 0.0
H1635 H 0.98417 0.30423 0.69303 0.0
H1636 H 0.9776 0.28777 0.66192 0.0
C1637 C 0.01454 0.28799 0.60182 0.0
C1638 C 0.02711 0.33409 0.58349 0.0
C1639 C 0.02225 0.42105 0.70366 0.0
C1640 C 1.00051 0.43478 0.71584 0.0
C1641 C 0.9749 0.42205 0.71663 0.0
C1642 C 0.97095 0.39675 0.70417 0.0
C1643 C 0.99209 0.38422 0.6909 0.0
C1644 C 0.01767 0.39542 0.69214 0.0
C1645 C 0.03844 0.37565 0.68262 0.0
C1646 C 0.01991 0.35258 0.67307 0.0
C1647 C 0.99277 0.35744 0.67788 0.0
C1648 C 0.05686 0.36787 0.70667 0.0
C1649 C 0.05501 0.38811 0.65937 0.0
C1650 C 0.9107 0.31358 0.64058 0.0
C1651 C 0.89794 0.31902 0.61593 0.0
C1652 C 0.91494 0.32456 0.59337 0.0
C1653 C 0.94364 0.32747 0.59648 0.0
C1654 C 0.95553 0.32417 0.62216 0.0
C1655 C 0.9387 0.3178 0.64353 0.0
C1656 C 0.95269 0.32435 0.66935 0.0
C1657 C 0.97303 0.34557 0.66019 0.0
C1658 C 0.98059 0.33701 0.63393 0.0
C1659 C 0.96769 0.29867 0.6789 0.0
C1660 C 0.9334 0.33447 0.69087 0.0
H1661 H 0.06623 0.31699 0.68958 0.0
H1662 H 0.08351 0.30314 0.59156 0.0
H1663 H 0.03545 0.35429 0.58879 0.0
H1664 H 1.00658 0.33689 0.57465 0.0
H1665 H 0.04037 0.32477 0.56795 0.0
H1666 H 0.0131 0.27547 0.62037 0.0
H1667 H 0.02812 0.27754 0.58729 0.0
H1668 H 0.99402 0.28946 0.59265 0.0
H1669 H 0.04251 0.42949 0.70436 0.0
H1670 H 0.95825 0.43144 0.72733 0.0
H1671 H 0.9526 0.38593 0.70619 0.0
H1672 H 0.06253 0.38584 0.71894 0.0
H1673 H 0.07635 0.35925 0.69976 0.0
H1674 H 0.04649 0.35331 0.72022 0.0
H1675 H 0.04154 0.3936 0.64218 0.0
H1676 H 0.07053 0.37374 0.65189 0.0
H1677 H 0.06581 0.40657 0.6663 0.0
H1678 H 0.11191 0.30481 0.67485 0.0
C1679 C 0.0707 0.31545 0.66829 0.0
C1680 C 0.64083 0.57921 0.33569 0.0
C1681 C 0.65124 0.60024 0.35256 0.0
C1682 C 0.67643 0.59583 0.36556 0.0
C1683 C 0.67774 0.54998 0.34935 0.0
C1684 C 0.65474 0.55423 0.33407 0.0
C1685 C 0.6486 0.52954 0.31656 0.0
H1686 H 0.6977 0.3931 0.28877 0.0
C1687 C 0.68721 0.52233 0.34536 0.0
C1688 C 0.6713 0.51021 0.32522 0.0
H1689 H 0.63301 0.40553 0.28104 0.0
H1690 H 0.64764 0.46064 0.29604 0.0
H1691 H 0.72038 0.48504 0.27585 0.0
H1692 H 0.71999 0.41309 0.326 0.0
H1693 H 0.74833 0.43652 0.33028 0.0
H1694 H 0.74318 0.41815 0.2995 0.0
H1695 H 0.74014 0.4555 0.26857 0.0
H1696 H 0.74999 0.47765 0.29587 0.0
C1697 C 0.65084 0.5371 0.28654 0.0
C1698 C 0.62032 0.51839 0.32322 0.0
C1699 C 0.73067 0.47483 0.42399 0.0
C1700 C 0.73488 0.44723 0.42908 0.0
C1701 C 0.73165 0.42893 0.40738 0.0
C1702 C 0.72462 0.43797 0.3813 0.0
C1703 C 0.72249 0.46573 0.37595 0.0
C1704 C 0.72415 0.48355 0.39759 0.0
C1705 C 0.71491 0.51145 0.38992 0.0
C1706 C 0.70565 0.50667 0.36076 0.0
C1707 C 0.71253 0.48071 0.35167 0.0
C1708 C 0.73933 0.53114 0.39195 0.0
C1709 C 0.69109 0.5196 0.40857 0.0
C1710 C 0.68166 0.40781 0.28686 0.0
C1711 C 0.64831 0.39648 0.28213 0.0
C1712 C 0.6209 0.42061 0.28187 0.0
C1713 C 0.63001 0.45251 0.29332 0.0
C1714 C 0.66422 0.46364 0.29587 0.0
C1715 C 0.69021 0.44147 0.29027 0.0
C1716 C 0.71513 0.45187 0.3051 0.0
C1717 C 0.70265 0.47173 0.32589 0.0
C1718 C 0.67892 0.4842 0.31546 0.0
C1719 C 0.73237 0.46847 0.28519 0.0
C1720 C 0.73256 0.42872 0.31624 0.0
H1721 H 0.70929 0.56914 0.3729 0.0
H1722 H 0.62239 0.58199 0.32423 0.0
H1723 H 0.61931 0.51189 0.34467 0.0
H1724 H 0.61531 0.50094 0.31015 0.0
H1725 H 0.60452 0.534 0.31977 0.0
H1726 H 0.67133 0.54521 0.28198 0.0
H1727 H 0.63556 0.55268 0.28113 0.0
H1728 H 0.64726 0.51924 0.27358 0.0
H1729 H 0.73223 0.48933 0.44033 0.0
H1730 H 0.73347 0.40743 0.41086 0.0
H1731 H 0.71941 0.423 0.3667 0.0
H1732 H 0.75759 0.52154 0.40099 0.0
H1733 H 0.73462 0.5488 0.40497 0.0
H1734 H 0.74549 0.53859 0.37171 0.0
H1735 H 0.67412 0.5049 0.40667 0.0
H1736 H 0.68304 0.53982 0.40393 0.0
H1737 H 0.69762 0.52029 0.43004 0.0
H1738 H 0.68558 0.61096 0.37846 0.0
C1739 C 0.68993 0.57122 0.36332 0.0
C1740 C 0.63029 0.60387 0.07883 0.0
C1741 C 0.63063 0.63212 0.08243 0.0
C1742 C 0.63824 0.64306 0.10754 0.0
C1743 C 0.64667 0.5984 0.12487 0.0
C1744 C 0.6384 0.58729 0.10053 0.0
C1745 C 0.63864 0.55672 0.10162 0.0
H1746 H 0.65992 0.44622 0.17923 0.0
C1747 C 0.65562 0.57649 0.1427 0.0
C1748 C 0.65129 0.55183 0.12933 0.0
H1749 H 0.62083 0.4487 0.10133 0.0
H1750 H 0.63103 0.49614 0.09817 0.0
H1751 H 0.71507 0.48246 0.15424 0.0
H1752 H 0.64949 0.50185 0.20703 0.0
H1753 H 0.68206 0.50695 0.22093 0.0
H1754 H 0.67374 0.47425 0.21081 0.0
H1755 H 0.71956 0.4831 0.19036 0.0
H1756 H 0.7232 0.51317 0.17127 0.0
C1757 C 0.6568 0.54571 0.07878 0.0
C1758 C 0.60893 0.54665 0.10015 0.0
C1759 C 0.69408 0.60032 0.23476 0.0
C1760 C 0.71137 0.58676 0.25277 0.0
C1761 C 0.72007 0.56037 0.24589 0.0
C1762 C 0.71113 0.54781 0.22187 0.0
C1763 C 0.69199 0.56095 0.20548 0.0
C1764 C 0.68526 0.58736 0.21118 0.0
C1765 C 0.67169 0.60086 0.18769 0.0
C1766 C 0.66862 0.57729 0.16822 0.0
C1767 C 0.67947 0.55369 0.1792 0.0
C1768 C 0.69126 0.62294 0.17681 0.0
C1769 C 0.64381 0.61152 0.19724 0.0
C1770 C 0.65525 0.45614 0.16065 0.0
C1771 C 0.64073 0.44223 0.1402 0.0
C1772 C 0.63258 0.45769 0.11748 0.0
C1773 C 0.63842 0.48555 0.11559 0.0
C1774 C 0.65358 0.4984 0.13603 0.0
C1775 C 0.66338 0.48327 0.15729 0.0
C1776 C 0.68044 0.50035 0.1765 0.0
C1777 C 0.67408 0.52845 0.16647 0.0
C1778 C 0.65963 0.52732 0.14189 0.0
C1779 C 0.71109 0.49433 0.17291 0.0
C1780 C 0.67093 0.49573 0.20541 0.0
H1781 H 0.65108 0.6361 0.14743 0.0
H1782 H 0.62402 0.59508 0.05977 0.0
H1783 H 0.59462 0.56198 0.10828 0.0
H1784 H 0.60545 0.52858 0.1127 0.0
H1785 H 0.60278 0.54224 0.07898 0.0
H1786 H 0.67684 0.55601 0.07906 0.0
H1787 H 0.64731 0.54921 0.0587 0.0
H1788 H 0.66081 0.52389 0.08087 0.0
H1789 H 0.68888 0.62132 0.23797 0.0
H1790 H 0.73424 0.54968 0.25872 0.0
H1791 H 0.7198 0.52864 0.21627 0.0
H1792 H 0.71233 0.62049 0.18454 0.0
H1793 H 0.68448 0.64348 0.18277 0.0
H1794 H 0.69345 0.62201 0.15455 0.0
H1795 H 0.63312 0.59589 0.20931 0.0
H1796 H 0.63003 0.61647 0.18034 0.0
H1797 H 0.64626 0.62974 0.21016 0.0
H1798 H 0.63826 0.66473 0.11066 0.0
C1799 C 0.64602 0.62641 0.12876 0.0
C1800 C 0.37432 0.92997 0.70975 0.0
C1801 C 0.36177 0.90509 0.70314 0.0
C1802 C 0.33581 0.90511 0.69122 0.0
C1803 C 0.3389 0.95286 0.68495 0.0
C1804 C 0.36201 0.95402 0.70064 0.0
C1805 C 0.37085 0.98314 0.70455 0.0
H1806 H 0.36283 0.1079 0.64474 0.0
C1807 C 0.33547 0.97854 0.67125 0.0
C1808 C 0.3538 0.99721 0.68289 0.0
H1809 H 0.39339 0.09495 0.72445 0.0
H1810 H 0.38535 0.04609 0.71916 0.0
H1811 H 0.40074 0.05067 0.62406 0.0
H1812 H 0.32792 0.08579 0.62739 0.0
H1813 H 0.33409 0.06972 0.59642 0.0
H1814 H 0.31243 0.05448 0.62116 0.0
H1815 H 0.38182 0.06688 0.5978 0.0
H1816 H 0.38158 0.0309 0.60119 0.0
C1817 C 0.40149 0.98641 0.69967 0.0
C1818 C 0.36242 0.9917 0.73329 0.0
C1819 C 0.28848 0.97613 0.57916 0.0
C1820 C 0.29316 0.99113 0.55555 0.0
C1821 C 0.31349 0.01108 0.55557 0.0
C1822 C 0.32828 0.01672 0.57901 0.0
C1823 C 0.32219 1.00287 0.60285 0.0
C1824 C 0.30387 0.98187 0.60239 0.0
C1825 C 0.30474 0.96586 0.62823 0.0
C1826 C 0.32502 0.98258 0.64484 0.0
C1827 C 0.33412 1.00454 0.63001 0.0
C1828 C 0.31497 0.93689 0.62146 0.0
C1829 C 0.27625 0.96638 0.64111 0.0
C1830 C 0.36852 0.09455 0.6605 0.0
C1831 C 0.37848 0.10548 0.68462 0.0
C1832 C 0.38528 0.0873 0.70558 0.0
C1833 C 0.38031 0.05911 0.70265 0.0
C1834 C 0.36952 0.04896 0.67818 0.0
C1835 C 0.36511 0.06669 0.65713 0.0
C1836 C 0.35643 0.05237 0.63155 0.0
C1837 C 0.34966 0.02499 0.64264 0.0
C1838 C 0.35887 0.02206 0.66933 0.0
C1839 C 0.38132 0.05021 0.61257 0.0
C1840 C 0.33149 0.06603 0.61829 0.0
H1841 H 0.30431 0.92832 0.67368 0.0
H1842 H 0.39347 0.93046 0.72048 0.0
H1843 H 0.3406 0.98726 0.73677 0.0
H1844 H 0.36516 0.01342 0.737 0.0
H1845 H 0.37445 0.98052 0.74863 0.0
H1846 H 0.40695 0.97887 0.67921 0.0
H1847 H 0.41338 0.97495 0.71487 0.0
H1848 H 0.40764 0.00787 0.7011 0.0
H1849 H 0.2738 0.95985 0.57928 0.0
H1850 H 0.3178 0.02249 0.53744 0.0
H1851 H 0.34431 0.03121 0.57764 0.0
H1852 H 0.33611 0.93372 0.62858 0.0
H1853 H 0.31523 0.93261 0.59941 0.0
H1854 H 0.30169 0.92108 0.63012 0.0
H1855 H 0.26785 0.98721 0.64101 0.0
H1856 H 0.27661 0.95993 0.66247 0.0
H1857 H 0.26205 0.9531 0.62975 0.0
H1858 H 0.32491 0.88638 0.68784 0.0
C1859 C 0.32415 0.92903 0.68248 0.0
C1860 C 0.37138 0.92124 0.92281 0.0
C1861 C 0.36624 0.89976 0.90465 0.0
C1862 C 0.35134 0.90479 0.88095 0.0
C1863 C 0.34955 0.95241 0.89166 0.0
C1864 C 0.3623 0.94745 0.9161 0.0
C1865 C 0.36536 0.97315 0.93257 0.0
H1866 H 0.34944 0.11061 0.93567 0.0
C1867 C 0.34485 0.98168 0.8891 0.0
C1868 C 0.3535 0.99418 0.91334 0.0
H1869 H 0.38387 0.06245 0.99945 0.0
H1870 H 0.3756 0.02135 0.97283 0.0
H1871 H 0.38131 0.08286 0.89113 0.0
H1872 H 0.30078 0.07465 0.92149 0.0
H1873 H 0.29713 0.06907 0.88668 0.0
H1874 H 0.31025 0.10104 0.89869 0.0
H1875 H 0.35459 0.10568 0.88223 0.0
H1876 H 0.36202 0.07608 0.86229 0.0
C1877 C 0.39577 0.97796 0.93821 0.0
C1878 C 0.34827 0.97043 0.95847 0.0
C1879 C 0.31949 0.02254 0.79712 0.0
C1880 C 0.31581 0.04972 0.78914 0.0
C1881 C 0.31435 0.06975 0.80933 0.0
C1882 C 0.31879 0.06362 0.83638 0.0
C1883 C 0.32466 0.03702 0.84389 0.0
C1884 C 0.32378 0.01668 0.82479 0.0
C1885 C 0.32887 0.98943 0.8377 0.0
C1886 C 0.33552 0.9975 0.86689 0.0
C1887 C 0.33296 0.02536 0.87004 0.0
C1888 C 0.35331 0.97619 0.82332 0.0
C1889 C 0.30229 0.97276 0.83602 0.0
C1890 C 0.35497 0.0912 0.94414 0.0
C1891 C 0.3669 0.08962 0.96963 0.0
C1892 C 0.37446 0.06405 0.97972 0.0
C1893 C 0.36971 0.04034 0.96423 0.0
C1894 C 0.3579 0.04251 0.93827 0.0
C1895 C 0.35094 0.06788 0.92897 0.0
C1896 C 0.34008 0.06773 0.90091 0.0
C1897 C 0.34066 0.03797 0.89457 0.0
C1898 C 0.3511 0.02282 0.91627 0.0
C1899 C 0.36023 0.08401 0.88308 0.0
C1900 C 0.31062 0.07884 0.90173 0.0
H1901 H 0.33229 0.93342 0.85571 0.0
H1902 H 0.38242 0.91774 0.94142 0.0
H1903 H 0.32754 0.96301 0.9535 0.0
H1904 H 0.34561 0.98986 0.96906 0.0
H1905 H 0.35772 0.95585 0.97268 0.0
H1906 H 0.40783 0.97464 0.91955 0.0
H1907 H 0.40337 0.96388 0.95393 0.0
H1908 H 0.40014 0.99879 0.94478 0.0
H1909 H 0.31992 0.0065 0.78224 0.0
H1910 H 0.31023 0.09058 0.80416 0.0
H1911 H 0.31823 0.08023 0.85023 0.0
H1912 H 0.37024 0.99089 0.82145 0.0
H1913 H 0.34759 0.96938 0.80266 0.0
H1914 H 0.36168 0.95876 0.83427 0.0
H1915 H 0.28417 0.98601 0.83421 0.0
H1916 H 0.29862 0.96088 0.85459 0.0
H1917 H 0.3023 0.95898 0.81829 0.0
H1918 H 0.34695 0.88849 0.86694 0.0
C1919 C 0.34299 0.93089 0.87438 0.0
C1920 C 0.42301 0.73047 0.48215 0.0
C1921 C 0.42816 0.73449 0.45465 0.0
C1922 C 0.40684 0.73084 0.43599 0.0
C1923 C 0.37525 0.72128 0.4726 0.0
C1924 C 0.39675 0.72341 0.49061 0.0
C1925 C 0.38944 0.71354 0.5183 0.0
H1926 H 0.33084 0.61616 0.58578 0.0
C1927 C 0.35124 0.71068 0.48742 0.0
C1928 C 0.36044 0.70377 0.51333 0.0
H1929 H 0.37937 0.68316 0.61628 0.0
H1930 H 0.37079 0.70733 0.57554 0.0
H1931 H 0.28372 0.66217 0.54984 0.0
H1932 H 0.35192 0.61728 0.51648 0.0
H1933 H 0.31849 0.61154 0.50315 0.0
H1934 H 0.32689 0.59964 0.53625 0.0
H1935 H 0.28628 0.62645 0.55626 0.0
H1936 H 0.27793 0.63819 0.52303 0.0
C1937 C 0.39109 0.7375 0.53849 0.0
C1938 C 0.40882 0.69007 0.52583 0.0
C1939 C 0.28877 0.67871 0.41294 0.0
C1940 C 0.2855 0.64553 0.40095 0.0
C1941 C 0.28542 0.61781 0.42439 0.0
C1942 C 0.29594 0.62627 0.45693 0.0
C1943 C 0.29839 0.66025 0.46832 0.0
C1944 C 0.29157 0.68664 0.44699 0.0
C1945 C 0.305 0.71178 0.45822 0.0
C1946 C 0.3262 0.69967 0.47788 0.0
C1947 C 0.3171 0.6751 0.4895 0.0
C1948 C 0.2841 0.72754 0.47517 0.0
C1949 C 0.31549 0.73034 0.43569 0.0
C1950 C 0.34045 0.63562 0.58356 0.0
C1951 C 0.35631 0.64704 0.60497 0.0
C1952 C 0.36711 0.67324 0.60109 0.0
C1953 C 0.36335 0.68711 0.57702 0.0
C1954 C 0.35055 0.6743 0.5555 0.0
C1955 C 0.33742 0.65004 0.55897 0.0
C1956 C 0.32057 0.64332 0.53385 0.0
C1957 C 0.32719 0.6673 0.51538 0.0
C1958 C 0.34599 0.68417 0.52821 0.0
C1959 C 0.29033 0.64252 0.54117 0.0
C1960 C 0.33003 0.61638 0.52169 0.0
H1961 H 0.3664 0.71757 0.42973 0.0
H1962 H 0.43934 0.73224 0.49672 0.0
H1963 H 0.40712 0.67336 0.51085 0.0
H1964 H 0.40464 0.68169 0.546 0.0
H1965 H 0.43024 0.69695 0.5264 0.0
H1966 H 0.4012 0.7555 0.5297 0.0
H1967 H 0.40315 0.73222 0.5567 0.0
H1968 H 0.37058 0.7441 0.54498 0.0
H1969 H 0.29018 0.695 0.39858 0.0
H1970 H 0.28484 0.63039 0.40979 0.0
H1971 H 0.29871 0.64381 0.4652 0.0
H1972 H 0.27544 0.71483 0.49146 0.0
H1973 H 0.26701 0.73465 0.46234 0.0
H1974 H 0.29383 0.74542 0.48477 0.0
H1975 H 0.32568 0.71881 0.4195 0.0
H1976 H 0.32904 0.74621 0.44406 0.0
H1977 H 0.29828 0.74071 0.42555 0.0
H1978 H 0.41069 0.73262 0.41453 0.0
C1979 C 0.38076 0.72332 0.44481 0.0
C1980 C 0.95022 0.35323 0.08955 0.0
C1981 C 0.97538 0.36593 0.08838 0.0
C1982 C 0.98548 0.37411 0.06301 0.0
C1983 C 0.94472 0.3565 0.04081 0.0
C1984 C 0.93541 0.34899 0.06602 0.0
C1985 C 0.90766 0.33734 0.06552 0.0
H1986 H 0.78994 0.31351 1.00345 0.0
C1987 C 0.92308 0.34919 0.02084 0.0
C1988 C 0.9016 0.33794 0.0357 0.0
H1989 H 0.81194 0.30496 0.08774 0.0
H1990 H 0.85779 0.31437 0.07759 0.0
H1991 H 0.82807 0.36545 0.98818 0.0
H1992 H 0.84299 0.2801 0.98276 0.0
H1993 H 0.86363 0.29512 0.95817 0.0
H1994 H 0.82717 0.298 0.95551 0.0
H1995 H 0.80958 0.3424 0.96685 0.0
H1996 H 0.84082 0.35703 0.95588 0.0
C1997 C 0.88895 0.35676 0.08183 0.0
C1998 C 0.90941 0.30796 0.07637 0.0
C1999 C 0.92931 0.37105 0.9196 0.0
C2000 C 0.91148 0.36545 0.8979 0.0
C2001 C 0.88849 0.34935 0.90248 0.0
C2002 C 0.88216 0.34033 0.92841 0.0
C2003 C 0.89897 0.34743 0.95018 0.0
C2004 C 0.9229 0.36127 0.94562 0.0
C2005 C 0.93916 0.36458 0.97147 0.0
C2006 C 0.92026 0.35175 0.99219 0.0
C2007 C 0.8964 0.34232 0.97939 0.0
C2008 C 0.94358 0.39497 0.97682 0.0
C2009 C 0.96584 0.34859 0.96862 0.0
C2010 C 0.80482 0.31379 0.01957 0.0
C2011 C 0.79688 0.30989 0.04676 0.0
C2012 C 0.81705 0.30927 0.06692 0.0
C2013 C 0.84399 0.31452 0.06089 0.0
C2014 C 0.85144 0.32052 0.0343 0.0
C2015 C 0.83243 0.31906 0.01383 0.0
C2016 C 0.84535 0.32465 0.98664 0.0
C2017 C 0.87436 0.33213 0.99494 0.0
C2018 C 0.87741 0.32958 0.02282 0.0
C2019 C 0.83022 0.34858 0.97347 0.0
C2020 C 0.84466 0.29826 0.9697 0.0
H2021 H 0.97893 0.37551 0.02021 0.0
H2022 H 0.94169 0.34728 0.10881 0.0
H2023 H 0.9296 0.29882 0.07227 0.0
H2024 H 0.89487 0.29413 0.06632 0.0
H2025 H 0.90617 0.30731 0.09855 0.0
H2026 H 0.89671 0.37787 0.08162 0.0
H2027 H 0.88745 0.35052 0.1033 0.0
H2028 H 0.86833 0.35854 0.07324 0.0
H2029 H 0.94745 0.38294 0.91643 0.0
H2030 H 0.87479 0.34454 0.88598 0.0
H2031 H 0.86401 0.32868 0.93065 0.0
H2032 H 0.92436 0.40629 0.97372 0.0
H2033 H 0.95901 0.40335 0.96284 0.0
H2034 H 0.95004 0.39924 0.99773 0.0
H2035 H 0.96171 0.32788 0.96087 0.0
H2036 H 0.97648 0.3461 0.98808 0.0
H2037 H 0.97976 0.3587 0.95423 0.0
H2038 H 1.00494 0.38416 0.06175 0.0
C2039 C 0.97035 0.36914 0.03905 0.0
C2040 C 0.23885 0.70979 0.56884 0.0
C2041 C 0.24885 0.70678 0.59534 0.0
C2042 C 0.23349 0.69225 0.6142 0.0
C2043 C 0.1995 0.68277 0.5802 0.0
C2044 C 0.2145 0.69671 0.56139 0.0
C2045 C 0.20376 0.69192 0.53311 0.0
H2046 H 0.11098 0.62887 0.45081 0.0
C2047 C 0.17645 0.66984 0.5664 0.0
C2048 C 0.17999 0.67228 0.53853 0.0
H2049 H 0.19727 0.63927 0.43753 0.0
H2050 H 0.20192 0.65417 0.48201 0.0
H2051 H 0.1278 0.59859 0.5081 0.0
H2052 H 0.09878 0.68072 0.49807 0.0
H2053 H 0.08057 0.66277 0.52309 0.0
H2054 H 0.07833 0.65221 0.4883 0.0
H2055 H 0.09456 0.60535 0.49463 0.0
H2056 H 0.10095 0.60624 0.53034 0.0
C2057 C 0.2271 0.68025 0.51636 0.0
C2058 C 0.19332 0.71853 0.521 0.0
C2059 C 0.0994 0.64059 0.62571 0.0
C2060 C 0.07309 0.63123 0.62114 0.0
C2061 C 0.06394 0.6278 0.59431 0.0
C2062 C 0.08116 0.63388 0.57231 0.0
C2063 C 0.10787 0.64286 0.57737 0.0
C2064 C 0.11619 0.64627 0.60389 0.0
C2065 C 0.14451 0.65645 0.60643 0.0
C2066 C 0.15211 0.65924 0.57701 0.0
C2067 C 0.13096 0.65086 0.55972 0.0
C2068 C 0.16168 0.63444 0.62092 0.0
C2069 C 0.14336 0.68408 0.62128 0.0
C2070 C 0.131 0.63562 0.45661 0.0
C2071 C 0.15318 0.63469 0.43809 0.0
C2072 C 0.17896 0.64088 0.44898 0.0
C2073 C 0.18215 0.65102 0.47503 0.0
C2074 C 0.16016 0.65464 0.4918 0.0
C2075 C 0.13531 0.64475 0.48363 0.0
C2076 C 0.11686 0.64152 0.50789 0.0
C2077 C 0.13518 0.65105 0.53115 0.0
C2078 C 0.16003 0.66056 0.52095 0.0
C2079 C 0.10941 0.61137 0.51046 0.0
C2080 C 0.09214 0.66018 0.50422 0.0
H2081 H 0.19861 0.66954 0.62224 0.0
H2082 H 0.2505 0.72085 0.55401 0.0
H2083 H 0.17762 0.72773 0.53421 0.0
H2084 H 0.18413 0.7148 0.50079 0.0
H2085 H 0.21019 0.73322 0.51866 0.0
H2086 H 0.22791 0.6581 0.51953 0.0
H2087 H 0.24734 0.68812 0.52209 0.0
H2088 H 0.22533 0.68625 0.49486 0.0
H2089 H 0.1069 0.64338 0.64615 0.0
H2090 H 0.04347 0.62087 0.59043 0.0
H2091 H 0.07311 0.63151 0.55227 0.0
H2092 H 0.15161 0.61434 0.62062 0.0
H2093 H 0.16535 0.63979 0.64244 0.0
H2094 H 0.1814 0.63091 0.61079 0.0
H2095 H 0.12678 0.6968 0.61288 0.0
H2096 H 0.16189 0.69628 0.6193 0.0
H2097 H 0.13941 0.68129 0.64317 0.0
H2098 H 0.24032 0.69024 0.63493 0.0
C2099 C 0.20906 0.68029 0.60679 0.0
C2100 C 0.68623 0.36439 0.9178 0.0
C2101 C 0.70121 0.38736 0.91164 0.0
C2102 C 0.71077 0.40374 0.93322 0.0
C2103 C 0.68829 0.37446 0.96598 0.0
C2104 C 0.6795 0.35882 0.94438 0.0
C2105 C 0.66044 0.33703 0.95208 0.0
H2106 H 0.56572 0.29738 0.03658 0.0
C2107 C 0.67607 0.36288 0.99103 0.0
C2108 C 0.65916 0.34149 0.98208 0.0
H2109 H 0.58037 0.26789 0.95586 0.0
H2110 H 0.62269 0.29253 0.95441 0.0
H2111 H 0.6367 0.28443 0.05121 0.0
H2112 H 0.61294 0.3627 0.06027 0.0
H2113 H 0.58771 0.33826 0.07045 0.0
H2114 H 0.58602 0.35454 0.03813 0.0
H2115 H 0.60348 0.28853 0.06561 0.0
H2116 H 0.63023 0.30676 0.07912 0.0
C2117 C 0.6739 0.30952 0.94541 0.0
C2118 C 0.63274 0.34201 0.93746 0.0
C2119 C 0.69873 0.39135 0.09099 0.0
C2120 C 0.69598 0.37525 0.11506 0.0
C2121 C 0.68567 0.34894 0.11081 0.0
C2122 C 0.67401 0.34107 0.0864 0.0
C2123 C 0.6722 0.35859 0.065 0.0
C2124 C 0.68789 0.38154 0.06565 0.0
C2125 C 0.69409 0.38966 0.03636 0.0
C2126 C 0.6782 0.36836 0.01961 0.0
C2127 C 0.66357 0.35193 0.03736 0.0
C2128 C 0.72484 0.38729 0.03173 0.0
C2129 C 0.68332 0.4183 0.03134 0.0
C2130 C 0.57776 0.29702 0.0183 0.0
C2131 C 0.56953 0.28149 0.99602 0.0
C2132 C 0.58625 0.28011 0.9731 0.0
C2133 C 0.61065 0.29456 0.97225 0.0
C2134 C 0.61841 0.31045 0.99459 0.0
C2135 C 0.60269 0.31055 0.01741 0.0
C2136 C 0.61745 0.32286 0.04095 0.0
C2137 C 0.64338 0.33351 0.02757 0.0
C2138 C 0.64249 0.32735 1.00014 0.0
C2139 C 0.62249 0.2993 0.06026 0.0
C2140 C 0.60011 0.34571 0.0533 0.0
H2141 H 0.71102 0.41084 0.97621 0.0
H2142 H 0.67892 0.35108 0.90193 0.0
H2143 H 0.63208 0.36158 0.92653 0.0
H2144 H 0.6155 0.34331 0.95168 0.0
H2145 H 0.62839 0.32612 0.92219 0.0
H2146 H 0.69604 0.31007 0.94981 0.0
H2147 H 0.67131 0.30428 0.92371 0.0
H2148 H 0.66593 0.29283 0.95788 0.0
H2149 H 0.7094 0.41041 0.09164 0.0
H2150 H 0.68538 0.33385 0.12625 0.0
H2151 H 0.66811 0.32093 0.08393 0.0
H2152 H 0.73207 0.36679 0.03734 0.0
H2153 H 0.736 0.40229 0.04427 0.0
H2154 H 0.73031 0.39056 0.0104 0.0
H2155 H 0.6615 0.41956 0.0368 0.0
H2156 H 0.68512 0.42406 0.00987 0.0
H2157 H 0.69465 0.43325 0.04379 0.0
H2158 H 0.72263 0.42161 0.92896 0.0
C2159 C 0.7042 0.39745 0.96047 0.0
C2160 C 0.46909 0.4377 0.7603 0.0
C2161 C 0.48505 0.46108 0.75884 0.0
C2162 C 0.51203 0.45931 0.75013 0.0
C2163 C 0.50602 0.4115 0.74186 0.0
C2164 C 0.47994 0.41313 0.75168 0.0
C2165 C 0.46551 0.38644 0.75103 0.0
H2166 H 0.43379 0.28181 0.68326 0.0
C2167 C 0.50999 0.38403 0.73118 0.0
C2168 C 0.48709 0.36889 0.73738 0.0
H2169 H 0.40476 0.30712 0.76151 0.0
H2170 H 0.44769 0.3288 0.76922 0.0
H2171 H 0.46441 0.33595 0.65821 0.0
H2172 H 0.5025 0.27888 0.71263 0.0
H2173 H 0.52073 0.28594 0.6821 0.0
H2174 H 0.48878 0.26861 0.68057 0.0
H2175 H 0.47261 0.30192 0.64771 0.0
H2176 H 0.49847 0.327 0.64947 0.0
C2177 C 0.4396 0.38915 0.73349 0.0
C2178 C 0.45911 0.37804 0.78049 0.0
C2179 C 0.5903 0.37133 0.67124 0.0
C2180 C 0.59744 0.3544 0.64987 0.0
C2181 C 0.58004 0.33213 0.64409 0.0
C2182 C 0.55556 0.32803 0.65895 0.0
C2183 C 0.54841 0.34649 0.67954 0.0
C2184 C 0.56597 0.36768 0.68483 0.0
C2185 C 0.55503 0.38773 0.70426 0.0
C2186 C 0.52911 0.37411 0.71243 0.0
C2187 C 0.52458 0.34973 0.6982 0.0
C2188 C 0.55007 0.41454 0.68849 0.0
C2189 C 0.57493 0.39004 0.72848 0.0
C2190 C 0.43483 0.29475 0.70058 0.0
C2191 C 0.41254 0.29718 0.71909 0.0
C2192 C 0.41867 0.30814 0.74479 0.0
C2193 C 0.443 0.3217 0.7493 0.0
C2194 C 0.46061 0.32557 0.72777 0.0
C2195 C 0.45886 0.30981 0.70515 0.0
C2196 C 0.48537 0.31184 0.68899 0.0
C2197 C 0.50044 0.33451 0.70424 0.0
C2198 C 0.48405 0.343 0.72586 0.0
C2199 C 0.47983 0.31963 0.65942 0.0
C2200 C 0.50033 0.2848 0.6911 0.0
H2201 H 0.54362 0.4342 0.73616 0.0
H2202 H 0.44834 0.43871 0.76737 0.0
H2203 H 0.45962 0.39537 0.79479 0.0
H2204 H 0.47407 0.3631 0.7881 0.0
H2205 H 0.4383 0.36969 0.78229 0.0
H2206 H 0.44479 0.3957 0.71266 0.0
H2207 H 0.42545 0.40419 0.74233 0.0
H2208 H 0.42828 0.36994 0.73195 0.0
H2209 H 0.60305 0.38821 0.67699 0.0
H2210 H 0.58492 0.31843 0.62775 0.0
H2211 H 0.54257 0.3114 0.6535 0.0
H2212 H 0.55133 0.41185 0.66619 0.0
H2213 H 0.56528 0.43016 0.69399 0.0
H2214 H 0.52944 0.42274 0.69163 0.0
H2215 H 0.58311 0.36985 0.73402 0.0
H2216 H 0.56508 0.39775 0.747 0.0
H2217 H 0.59238 0.40329 0.72353 0.0
H2218 H 0.5247 0.47717 0.74946 0.0
C2219 C 0.52279 0.43446 0.74218 0.0
C2220 C 0.02093 0.80389 0.31479 0.0
C2221 C 0.04831 0.79592 0.31166 0.0
C2222 C 0.06863 0.81588 0.3127 0.0
C2223 C 0.03542 0.85012 0.32298 0.0
C2224 C 0.01499 0.83122 0.32045 0.0
C2225 C 0.98746 0.84383 0.32532 0.0
H2226 H 0.91524 0.94637 0.38027 0.0
C2227 C 0.02336 0.87602 0.33136 0.0
C2228 C 0.99528 0.87278 0.33284 0.0
H2229 H 0.88572 0.87194 0.34534 0.0
H2230 H 0.93063 0.86111 0.32945 0.0
H2231 H 0.97066 0.92508 0.40513 0.0
H2232 H 0.95751 0.95906 0.32562 0.0
H2233 H 0.98659 0.97339 0.34071 0.0
H2234 H 0.95387 0.97885 0.35587 0.0
H2235 H 0.9612 0.95979 0.40049 0.0
H2236 H 0.99592 0.94916 0.39788 0.0
C2237 C 0.97396 0.82873 0.34906 0.0
C2238 C 0.97112 0.84278 0.29854 0.0
C2239 C 0.08739 0.95113 0.35607 0.0
C2240 C 0.08435 0.97681 0.36724 0.0
C2241 C 0.05819 0.98656 0.37307 0.0
C2242 C 0.03518 0.97039 0.3677 0.0
C2243 C 0.0387 0.94429 0.3567 0.0
C2244 C 0.06462 0.93537 0.35109 0.0
C2245 C 0.0654 0.90729 0.34022 0.0
C2246 C 0.03561 0.90056 0.33951 0.0
C2247 C 0.01982 0.92205 0.34926 0.0
C2248 C 0.08118 0.88962 0.36091 0.0
C2249 C 0.07771 0.90826 0.31137 0.0
C2250 C 0.91866 0.92792 0.369 0.0
C2251 C 0.89737 0.90962 0.36434 0.0
C2252 C 0.9021 0.88603 0.34926 0.0
C2253 C 0.92813 0.8797 0.34027 0.0
C2254 C 0.94967 0.89711 0.34656 0.0
C2255 C 0.94468 0.92142 0.3595 0.0
C2256 C 0.97012 0.93802 0.36267 0.0
C2257 C 0.99121 0.91895 0.35092 0.0
C2258 C 0.97904 0.89475 0.34196 0.0
C2259 C 0.97483 0.94354 0.3931 0.0
C2260 C 0.96698 0.96385 0.3455 0.0
H2261 H 0.07911 0.85644 0.31922 0.0
H2262 H 1.00471 0.78921 0.31349 0.0
H2263 H 0.9848 0.84321 0.28071 0.0
H2264 H 0.95783 0.86057 0.2959 0.0
H2265 H 0.95873 0.82411 0.29712 0.0
H2266 H 0.9887 0.82593 0.36588 0.0
H2267 H 0.96682 0.80845 0.34256 0.0
H2268 H 0.95668 0.83962 0.35791 0.0
H2269 H 0.10738 0.94322 0.35157 0.0
H2270 H 0.05563 0.00651 0.3817 0.0
H2271 H 0.01566 0.97864 0.37251 0.0
H2272 H 0.07886 0.89748 0.38188 0.0
H2273 H 0.1032 0.88924 0.35634 0.0
H2274 H 0.07358 0.86869 0.3621 0.0
H2275 H 0.0733 0.92784 0.30131 0.0
H2276 H 0.0689 0.89291 0.29762 0.0
H2277 H 0.10008 0.90581 0.31198 0.0
H2278 H 0.08968 0.81079 0.30914 0.0
C2279 C 0.0624 0.84268 0.3183 0.0
C2280 C 0.6039 0.08141 0.62519 0.0
C2281 C 0.63226 0.08412 0.62803 0.0
C2282 C 0.6432 0.1086 0.63734 0.0
C2283 C 0.59827 0.12716 0.64218 0.0
C2284 C 0.58719 0.10339 0.63247 0.0
C2285 C 0.55662 0.1055 0.62993 0.0
H2286 H 0.44418 0.18375 0.64533 0.0
C2287 C 0.57609 0.1458 0.64886 0.0
C2288 C 0.55145 0.13354 0.64178 0.0
H2289 H 0.45133 0.10719 0.60285 0.0
H2290 H 0.49749 0.10413 0.61663 0.0
H2291 H 0.48285 0.16043 0.6988 0.0
H2292 H 0.49524 0.21117 0.62992 0.0
H2293 H 0.51326 0.2253 0.65697 0.0
H2294 H 0.47753 0.22188 0.66024 0.0
H2295 H 0.47229 0.19511 0.69814 0.0
H2296 H 0.50604 0.18605 0.7082 0.0
C2297 C 0.54344 0.08331 0.64735 0.0
C2298 C 0.549 0.1038 0.59957 0.0
C2299 C 0.60041 0.23588 0.69059 0.0
C2300 C 0.58573 0.25519 0.7052 0.0
C2301 C 0.55777 0.25083 0.70943 0.0
C2302 C 0.54445 0.22834 0.69798 0.0
C2303 C 0.55942 0.20979 0.68247 0.0
C2304 C 0.58709 0.21322 0.68019 0.0
C2305 C 0.60073 0.18915 0.66806 0.0
C2306 C 0.57653 0.17134 0.6617 0.0
C2307 C 0.55223 0.18389 0.66908 0.0
C2308 C 0.61968 0.17671 0.68992 0.0
C2309 C 0.61516 0.19843 0.64194 0.0
C2310 C 0.45501 0.16603 0.63893 0.0
C2311 C 0.44248 0.14575 0.62269 0.0
C2312 C 0.45898 0.12344 0.61524 0.0
C2313 C 0.48637 0.1216 0.62305 0.0
C2314 C 0.49817 0.14219 0.6386 0.0
C2315 C 0.48238 0.16362 0.64701 0.0
C2316 C 0.49868 0.18336 0.66406 0.0
C2317 C 0.52709 0.17218 0.66099 0.0
C2318 C 0.52664 0.14738 0.64703 0.0
C2319 C 0.48943 0.18131 0.69385 0.0
C2320 C 0.49602 0.212 0.6523 0.0
H2321 H 0.63632 0.14827 0.65055 0.0
H2322 H 0.59511 0.06286 0.61755 0.0
H2323 H 0.56625 0.10978 0.58645 0.0
H2324 H 0.53254 0.11792 0.59407 0.0
H2325 H 0.54301 0.08296 0.59373 0.0
H2326 H 0.55195 0.08375 0.6682 0.0
H2327 H 0.54734 0.063 0.63865 0.0
H2328 H 0.52129 0.08598 0.64928 0.0
H2329 H 0.62221 0.23753 0.68852 0.0
H2330 H 0.54634 0.26481 0.72172 0.0
H2331 H 0.52311 0.22595 0.70168 0.0
H2332 H 0.61469 0.18388 0.71065 0.0
H2333 H 0.64123 0.18198 0.6862 0.0
H2334 H 0.61766 0.15447 0.69117 0.0
H2335 H 0.60184 0.21239 0.63037 0.0
H2336 H 0.61968 0.18166 0.62791 0.0
H2337 H 0.63429 0.20932 0.6467 0.0
H2338 H 0.66497 0.1111 0.63924 0.0
C2339 C 0.62647 0.13011 0.64418 0.0
C2340 C 0.0923 0.69298 0.39402 0.0
C2341 C 0.11646 0.69112 0.37785 0.0
C2342 C 0.11213 0.68341 0.35059 0.0
C2343 C 0.06622 0.66923 0.3593 0.0
C2344 C 0.06688 0.68324 0.38334 0.0
C2345 C 0.03762 0.68981 0.3915 0.0
H2346 H 0.9027 0.67729 0.35287 0.0
C2347 C 0.03841 0.66118 0.35232 0.0
C2348 C 0.02073 0.67513 0.36949 0.0
H2349 H 0.93074 0.72048 0.4234 0.0
H2350 H 0.97787 0.70798 0.41255 0.0
H2351 H 0.95084 0.69316 0.31141 0.0
H2352 H 0.92728 0.63009 0.36363 0.0
H2353 H 0.95205 0.61328 0.34487 0.0
H2354 H 0.92225 0.62641 0.3282 0.0
H2355 H 0.92396 0.6692 0.30623 0.0
H2356 H 0.95788 0.66276 0.29425 0.0
C2357 C 0.03373 0.72061 0.39011 0.0
C2358 C 0.0321 0.67833 0.41975 0.0
C2359 C 0.01939 0.57585 0.29725 0.0
C2360 C 0.99679 0.56735 0.28224 0.0
C2361 C 0.97345 0.58361 0.28152 0.0
C2362 C 0.9725 0.60785 0.29615 0.0
C2363 C 0.99513 0.61584 0.31161 0.0
C2364 C 0.01828 0.60051 0.31112 0.0
C2365 C 0.04199 0.6157 0.32254 0.0
C2366 C 0.02842 0.64115 0.33389 0.0
C2367 C 1.00078 0.63996 0.32833 0.0
C2368 C 0.05989 0.6215 0.29806 0.0
C2369 C 0.05602 0.5986 0.34464 0.0
C2370 C 0.91879 0.68431 0.36613 0.0
C2371 C 0.91297 0.6994 0.38915 0.0
C2372 C 0.93478 0.70856 0.4055 0.0
C2373 C 0.96197 0.70151 0.39913 0.0
C2374 C 0.96714 0.68552 0.37609 0.0
C2375 C 0.94532 0.67713 0.36047 0.0
C2376 C 0.95269 0.65797 0.33863 0.0
C2377 C 0.9828 0.65646 0.34285 0.0
C2378 C 0.99204 0.67313 0.36428 0.0
C2379 C 0.94587 0.67125 0.31109 0.0
C2380 C 0.9379 0.63059 0.34385 0.0
H2381 H 0.0849 0.66949 0.32089 0.0
H2382 H 0.09292 0.70219 0.41384 0.0
H2383 H 0.03705 0.65644 0.42031 0.0
H2384 H 0.01057 0.68053 0.42544 0.0
H2385 H 0.04475 0.68879 0.43518 0.0
H2386 H 0.04001 0.72832 0.36998 0.0
H2387 H 0.04623 0.7309 0.40577 0.0
H2388 H 0.01241 0.72658 0.39302 0.0
H2389 H 0.03803 0.56429 0.29694 0.0
H2390 H 0.95599 0.57755 0.26962 0.0
H2391 H 0.95438 0.61964 0.29452 0.0
H2392 H 0.04854 0.63272 0.2822 0.0
H2393 H 0.06811 0.60267 0.28897 0.0
H2394 H 0.07687 0.63346 0.30416 0.0
H2395 H 0.06103 0.61093 0.36268 0.0
H2396 H 0.07478 0.58888 0.33694 0.0
H2397 H 0.04259 0.58225 0.35219 0.0
H2398 H 0.12756 0.68437 0.33541 0.0
C2399 C 0.08752 0.67286 0.34169 0.0
loop_
_geom_bond_atom_site_label_1
_geom_bond_atom_site_label_2
_geom_bond_distance
_geom_bond_site_symmetry_2
_ccdc_geom_bond_type
C0 C1 1.264 . S
C0 C5 1.479 . S
C0 C10 1.465 . S
C1 C0 1.264 . S
C1 C3 1.339 . S
C1 H28 0.931 . S
C2 C3 1.395 . S
C2 C4 1.320 . S
C3 C1 1.339 . S
C3 C2 1.395 . S
C3 H29 0.929 . S
C4 C2 1.320 . S
C4 C5 1.405 . S
C4 H30 0.930 . S
C5 C0 1.479 . S
C5 C4 1.405 . S
C5 H31 0.931 . S
U6 O7 2.454 . S
U6 O8 2.458 . S
U6 C9 2.984 . S
U6 C10 2.847 . S
U6 C23 2.882 . S
U6 O24 2.441 . S
U6 O25 2.420 . S
U6 O26 2.455 . S
U6 O27 2.449 . S
O7 U6 2.454 . S
O7 C9 1.353 . S
O8 U6 2.458 . S
O8 C9 1.286 . S
C9 U6 2.984 . S
C9 O7 1.353 . S
C9 O8 1.286 . S
C9 C11 1.363 . S
C10 C0 1.465 . S
C10 U6 2.847 . S
C10 O24 1.249 . S
C10 O25 1.202 . S
C11 C9 1.363 . S
C11 C13 1.408 . S
C11 C16 1.342 . S
C12 C13 1.310 . S
C12 C15 1.461 . S
C12 H32 0.932 . S
C13 C11 1.408 . S
C13 C12 1.310 . S
C13 H33 0.930 . S
C14 C15 1.474 . S
C14 C16 1.285 . S
C14 H34 0.929 . S
C15 C12 1.461 . S
C15 C14 1.474 . S
C16 C11 1.342 . S
C16 C14 1.285 . S
C16 H35 0.930 . S
C17 C20 1.424 . S
C17 C22 1.245 . S
C17 C23 1.428 . S
C18 C21 1.260 . S
C18 C22 1.477 . S
C18 H36 0.932 . S
C19 C20 1.384 . S
C19 C21 1.479 . S
C19 H37 0.929 . S
C20 C17 1.424 . S
C20 C19 1.384 . S
C20 H38 0.928 . S
C21 C18 1.260 . S
C21 C19 1.479 . S
C22 C17 1.245 . S
C22 C18 1.477 . S
C22 H39 0.932 . S
C23 U6 2.882 . S
C23 C17 1.428 . S
C23 O26 1.301 . S
C23 O27 1.282 . S
O24 U6 2.441 . S
O24 C10 1.249 . S
O25 U6 2.420 . S
O25 C10 1.202 . S
O26 U6 2.455 . S
O26 C23 1.301 . S
O27 U6 2.449 . S
O27 C23 1.282 . S
H28 C1 0.931 . S
H29 C3 0.929 . S
H30 C4 0.930 . S
H31 C5 0.931 . S
H32 C12 0.932 . S
H33 C13 0.930 . S
H34 C14 0.929 . S
H35 C16 0.930 . S
H36 C18 0.932 . S
H37 C19 0.929 . S
H38 C20 0.928 . S
H39 C22 0.932 . S
C40 C41 1.264 . S
C40 C45 1.479 . S
C40 C50 1.465 . S
C41 C40 1.264 . S
C41 C43 1.339 . S
C41 H68 0.931 . S
C42 C43 1.395 . S
C42 C44 1.320 . S
C43 C41 1.339 . S
C43 C42 1.395 . S
C43 H69 0.929 . S
C44 C42 1.320 . S
C44 C45 1.405 . S
C44 H70 0.930 . S
C45 C40 1.479 . S
C45 C44 1.405 . S
C45 H71 0.931 . S
U46 O47 2.454 . S
U46 O48 2.458 . S
U46 C49 2.984 . S
U46 C50 2.847 . S
U46 C63 2.882 . S
U46 O64 2.441 . S
U46 O65 2.420 . S
U46 O66 2.455 . S
U46 O67 2.449 . S
O47 U46 2.454 . S
O47 C49 1.353 . S
O48 U46 2.458 . S
O48 C49 1.286 . S
C49 U46 2.984 . S
C49 O47 1.353 . S
C49 O48 1.286 . S
C49 C51 1.363 . S
C50 C40 1.465 . S
C50 U46 2.847 . S
C50 O64 1.249 . S
C50 O65 1.202 . S
C51 C49 1.363 . S
C51 C53 1.408 . S
C51 C56 1.342 . S
C52 C53 1.310 . S
C52 C55 1.461 . S
C52 H72 0.932 . S
C53 C51 1.408 . S
C53 C52 1.310 . S
C53 H73 0.930 . S
C54 C55 1.474 . S
C54 C56 1.285 . S
C54 H74 0.929 . S
C55 C52 1.461 . S
C55 C54 1.474 . S
C56 C51 1.342 . S
C56 C54 1.285 . S
C56 H75 0.930 . S
C57 C60 1.424 . S
C57 C62 1.245 . S
C57 C63 1.428 . S
C58 C61 1.260 . S
C58 C62 1.477 . S
C58 H76 0.932 . S
C59 C60 1.384 . S
C59 C61 1.479 . S
C59 H77 0.929 . S
C60 C57 1.424 . S
C60 C59 1.384 . S
C60 H78 0.928 . S
C61 C58 1.260 . S
C61 C59 1.479 . S
C62 C57 1.245 . S
C62 C58 1.477 . S
C62 H79 0.932 . S
C63 U46 2.882 . S
C63 C57 1.428 . S
C63 O66 1.301 . S
C63 O67 1.282 . S
O64 U46 2.441 . S
O64 C50 1.249 . S
O65 U46 2.420 . S
O65 C50 1.202 . S
O66 U46 2.455 . S
O66 C63 1.301 . S
O67 U46 2.449 . S
O67 C63 1.282 . S
H68 C41 0.931 . S
H69 C43 0.929 . S
H70 C44 0.930 . S
H71 C45 0.931 . S
H72 C52 0.932 . S
H73 C53 0.930 . S
H74 C54 0.929 . S
H75 C56 0.930 . S
H76 C58 0.932 . S
H77 C59 0.929 . S
H78 C60 0.928 . S
H79 C62 0.932 . S
C80 C81 1.264 . S
C80 C85 1.479 1_565 S
C80 C90 1.465 . S
C81 C80 1.264 . S
C81 C83 1.339 . S
C81 H108 0.931 . S
C82 C83 1.395 1_545 S
C82 C84 1.320 . S
C83 C81 1.339 . S
C83 C82 1.395 1_565 S
C83 H109 0.929 . S
C84 C82 1.320 . S
C84 C85 1.405 . S
C84 H110 0.930 . S
C85 C80 1.479 1_545 S
C85 C84 1.405 . S
C85 H111 0.931 . S
U86 O87 2.454 1_565 S
U86 O88 2.458 1_565 S
U86 C89 2.984 1_565 S
U86 C90 2.847 . S
U86 C103 2.882 . S
U86 O104 2.442 1_565 S
U86 O105 2.420 . S
U86 O106 2.455 . S
U86 O107 2.449 . S
O87 U86 2.454 1_545 S
O87 C89 1.353 . S
O88 U86 2.458 1_545 S
O88 C89 1.286 . S
C89 U86 2.984 1_545 S
C89 O87 1.353 . S
C89 O88 1.286 . S
C89 C91 1.363 . S
C90 C80 1.465 . S
C90 U86 2.847 . S
C90 O104 1.251 1_565 S
C90 O105 1.202 . S
C91 C89 1.363 . S
C91 C93 1.408 . S
C91 C96 1.342 . S
C92 C93 1.310 . S
C92 C95 1.461 . S
C92 H112 0.932 . S
C93 C91 1.408 . S
C93 C92 1.310 . S
C93 H113 0.930 . S
C94 C95 1.474 . S
C94 C96 1.285 . S
C94 H114 0.929 . S
C95 C92 1.461 . S
C95 C94 1.474 . S
C96 C91 1.342 . S
C96 C94 1.285 . S
C96 H115 0.930 . S
C97 C100 1.424 . S
C97 C102 1.245 . S
C97 C103 1.428 . S
C98 C101 1.260 . S
C98 C102 1.477 . S
C98 H116 0.932 . S
C99 C100 1.384 . S
C99 C101 1.479 . S
C99 H117 0.929 . S
C100 C97 1.424 . S
C100 C99 1.384 . S
C100 H118 0.928 . S
C101 C98 1.260 . S
C101 C99 1.479 . S
C102 C97 1.245 . S
C102 C98 1.477 . S
C102 H119 0.932 . S
C103 U86 2.882 . S
C103 C97 1.428 . S
C103 O106 1.301 . S
C103 O107 1.282 . S
O104 U86 2.442 1_545 S
O104 C90 1.251 1_545 S
O105 U86 2.420 . S
O105 C90 1.202 . S
O106 U86 2.455 . S
O106 C103 1.301 . S
O107 U86 2.449 . S
O107 C103 1.282 . S
H108 C81 0.931 . S
H109 C83 0.929 . S
H110 C84 0.930 . S
H111 C85 0.931 . S
H112 C92 0.932 . S
H113 C93 0.930 . S
H114 C94 0.929 . S
H115 C96 0.930 . S
H116 C98 0.932 . S
H117 C99 0.929 . S
H118 C100 0.928 . S
H119 C102 0.932 . S
C120 C121 1.264 . S
C120 C125 1.479 . S
C120 C130 1.465 . S
C121 C120 1.264 . S
C121 C123 1.339 . S
C121 H148 0.931 . S
C122 C123 1.395 . S
C122 C124 1.320 . S
C123 C121 1.339 . S
C123 C122 1.395 . S
C123 H149 0.929 . S
C124 C122 1.320 . S
C124 C125 1.405 . S
C124 H150 0.930 . S
C125 C120 1.479 . S
C125 C124 1.405 . S
C125 H151 0.931 . S
U126 O127 2.454 . S
U126 O128 2.458 . S
U126 C129 2.984 . S
U126 C130 2.847 . S
U126 C143 2.882 . S
U126 O144 2.441 . S
U126 O145 2.420 . S
U126 O146 2.455 . S
U126 O147 2.449 . S
O127 U126 2.454 . S
O127 C129 1.353 . S
O128 U126 2.458 . S
O128 C129 1.286 . S
C129 U126 2.984 . S
C129 O127 1.353 . S
C129 O128 1.286 . S
C129 C131 1.363 . S
C130 C120 1.465 . S
C130 U126 2.847 . S
C130 O144 1.249 . S
C130 O145 1.202 . S
C131 C129 1.363 . S
C131 C133 1.408 . S
C131 C136 1.342 . S
C132 C133 1.310 . S
C132 C135 1.461 . S
C132 H152 0.932 . S
C133 C131 1.408 . S
C133 C132 1.310 . S
C133 H153 0.930 . S
C134 C135 1.474 . S
C134 C136 1.285 . S
C134 H154 0.929 . S
C135 C132 1.461 . S
C135 C134 1.474 . S
C136 C131 1.342 . S
C136 C134 1.285 . S
C136 H155 0.930 . S
C137 C140 1.424 . S
C137 C142 1.245 . S
C137 C143 1.428 1_545 S
C138 C141 1.260 . S
C138 C142 1.477 . S
C138 H156 0.932 . S
C139 C140 1.384 . S
C139 C141 1.479 . S
C139 H157 0.929 . S
C140 C137 1.424 . S
C140 C139 1.384 . S
C140 H158 0.928 1_545 S
C141 C138 1.260 . S
C141 C139 1.479 . S
C142 C137 1.245 . S
C142 C138 1.477 . S
C142 H159 0.932 . S
C143 U126 2.882 . S
C143 C137 1.428 1_565 S
C143 O146 1.301 . S
C143 O147 1.282 . S
O144 U126 2.441 . S
O144 C130 1.249 . S
O145 U126 2.420 . S
O145 C130 1.202 . S
O146 U126 2.455 . S
O146 C143 1.301 . S
O147 U126 2.449 . S
O147 C143 1.282 . S
H148 C121 0.931 . S
H149 C123 0.929 . S
H150 C124 0.930 . S
H151 C125 0.931 . S
H152 C132 0.932 . S
H153 C133 0.930 . S
H154 C134 0.929 . S
H155 C136 0.930 . S
H156 C138 0.932 . S
H157 C139 0.929 . S
H158 C140 0.928 1_565 S
H159 C142 0.932 . S
C160 C161 1.264 . S
C160 C165 1.479 . S
C160 C170 1.465 . S
C161 C160 1.264 . S
C161 C163 1.339 . S
C161 H188 0.931 . S
C162 C163 1.395 . S
C162 C164 1.320 . S
C163 C161 1.339 . S
C163 C162 1.395 . S
C163 H189 0.929 . S
C164 C162 1.320 . S
C164 C165 1.405 . S
C164 H190 0.930 . S
C165 C160 1.479 . S
C165 C164 1.405 . S
C165 H191 0.931 . S
U166 O167 2.454 . S
U166 O168 2.458 . S
U166 C169 2.984 . S
U166 C170 2.847 . S
U166 C183 2.882 . S
U166 O184 2.441 . S
U166 O185 2.420 . S
U166 O186 2.455 . S
U166 O187 2.449 . S
O167 U166 2.454 . S
O167 C169 1.353 . S
O168 U166 2.458 . S
O168 C169 1.286 . S
C169 U166 2.984 . S
C169 O167 1.353 . S
C169 O168 1.286 . S
C169 C171 1.363 . S
C170 C160 1.465 . S
C170 U166 2.847 . S
C170 O184 1.249 . S
C170 O185 1.202 . S
C171 C169 1.363 . S
C171 C173 1.408 . S
C171 C176 1.342 . S
C172 C173 1.310 . S
C172 C175 1.461 . S
C172 H192 0.932 . S
C173 C171 1.408 . S
C173 C172 1.310 . S
C173 H193 0.930 . S
C174 C175 1.474 . S
C174 C176 1.285 . S
C174 H194 0.929 . S
C175 C172 1.461 . S
C175 C174 1.474 . S
C176 C171 1.342 . S
C176 C174 1.285 . S
C176 H195 0.930 . S
C177 C180 1.424 . S
C177 C182 1.245 . S
C177 C183 1.428 . S
C178 C181 1.260 . S
C178 C182 1.477 . S
C178 H196 0.932 . S
C179 C180 1.384 . S
C179 C181 1.479 . S
C179 H197 0.929 . S
C180 C177 1.424 . S
C180 C179 1.384 . S
C180 H198 0.928 . S
C181 C178 1.260 . S
C181 C179 1.479 . S
C182 C177 1.245 . S
C182 C178 1.477 . S
C182 H199 0.932 . S
C183 U166 2.882 . S
C183 C177 1.428 . S
C183 O186 1.301 . S
C183 O187 1.282 . S
O184 U166 2.441 . S
O184 C170 1.249 . S
O185 U166 2.420 . S
O185 C170 1.202 . S
O186 U166 2.455 . S
O186 C183 1.301 . S
O187 U166 2.449 . S
O187 C183 1.282 . S
H188 C161 0.931 . S
H189 C163 0.929 . S
H190 C164 0.930 . S
H191 C165 0.931 . S
H192 C172 0.932 . S
H193 C173 0.930 . S
H194 C174 0.929 . S
H195 C176 0.930 . S
H196 C178 0.932 . S
H197 C179 0.929 . S
H198 C180 0.928 . S
H199 C182 0.932 . S
C200 C201 1.264 . S
C200 C205 1.479 . S
C200 C210 1.465 . S
C201 C200 1.264 . S
C201 C203 1.339 . S
C201 H228 0.931 . S
C202 C203 1.395 . S
C202 C204 1.320 . S
C203 C201 1.339 . S
C203 C202 1.395 . S
C203 H229 0.929 . S
C204 C202 1.320 . S
C204 C205 1.405 . S
C204 H230 0.930 . S
C205 C200 1.479 . S
C205 C204 1.405 . S
C205 H231 0.931 . S
U206 O207 2.454 . S
U206 O208 2.458 . S
U206 C209 2.984 . S
U206 C210 2.847 . S
U206 C223 2.882 . S
U206 O224 2.441 . S
U206 O225 2.420 . S
U206 O226 2.455 . S
U206 O227 2.449 . S
O207 U206 2.454 . S
O207 C209 1.353 . S
O208 U206 2.458 . S
O208 C209 1.286 . S
C209 U206 2.984 . S
C209 O207 1.353 . S
C209 O208 1.286 . S
C209 C211 1.363 . S
C210 C200 1.465 . S
C210 U206 2.847 . S
C210 O224 1.249 . S
C210 O225 1.202 . S
C211 C209 1.363 . S
C211 C213 1.408 . S
C211 C216 1.342 . S
C212 C213 1.310 . S
C212 C215 1.461 . S
C212 H232 0.932 . S
C213 C211 1.408 . S
C213 C212 1.310 . S
C213 H233 0.930 . S
C214 C215 1.474 . S
C214 C216 1.285 . S
C214 H234 0.929 . S
C215 C212 1.461 . S
C215 C214 1.474 . S
C216 C211 1.342 . S
C216 C214 1.285 . S
C216 H235 0.930 . S
C217 C220 1.424 . S
C217 C222 1.245 . S
C217 C223 1.428 1_554 S
C218 C221 1.260 . S
C218 C222 1.477 . S
C218 H236 0.932 . S
C219 C220 1.384 . S
C219 C221 1.479 . S
C219 H237 0.929 . S
C220 C217 1.424 . S
C220 C219 1.384 . S
C220 H238 0.928 1_554 S
C221 C218 1.260 . S
C221 C219 1.479 . S
C222 C217 1.245 . S
C222 C218 1.477 . S
C222 H239 0.932 . S
C223 U206 2.882 . S
C223 C217 1.428 1_556 S
C223 O226 1.301 . S
C223 O227 1.282 . S
O224 U206 2.441 . S
O224 C210 1.249 . S
O225 U206 2.420 . S
O225 C210 1.202 . S
O226 U206 2.455 . S
O226 C223 1.301 . S
O227 U206 2.449 . S
O227 C223 1.282 . S
H228 C201 0.931 . S
H229 C203 0.929 . S
H230 C204 0.930 . S
H231 C205 0.931 . S
H232 C212 0.932 . S
H233 C213 0.930 . S
H234 C214 0.929 . S
H235 C216 0.930 . S
H236 C218 0.932 . S
H237 C219 0.929 . S
H238 C220 0.928 1_556 S
H239 C222 0.932 . S
C240 C241 1.264 . S
C240 C245 1.479 . S
C240 C250 1.465 . S
C241 C240 1.264 . S
C241 C243 1.339 . S
C241 H268 0.931 . S
C242 C243 1.395 . S
C242 C244 1.320 . S
C243 C241 1.339 . S
C243 C242 1.395 . S
C243 H269 0.929 . S
C244 C242 1.320 . S
C244 C245 1.405 . S
C244 H270 0.930 . S
C245 C240 1.479 . S
C245 C244 1.405 . S
C245 H271 0.931 . S
U246 O247 2.454 . S
U246 O248 2.458 . S
U246 C249 2.984 . S
U246 C250 2.847 . S
U246 C263 2.882 . S
U246 O264 2.441 . S
U246 O265 2.420 . S
U246 O266 2.455 . S
U246 O267 2.449 . S
O247 U246 2.454 . S
O247 C249 1.353 . S
O248 U246 2.458 . S
O248 C249 1.286 . S
C249 U246 2.984 . S
C249 O247 1.353 . S
C249 O248 1.286 . S
C249 C251 1.363 . S
C250 C240 1.465 . S
C250 U246 2.847 . S
C250 O264 1.249 . S
C250 O265 1.202 . S
C251 C249 1.363 . S
C251 C253 1.408 . S
C251 C256 1.342 . S
C252 C253 1.310 . S
C252 C255 1.461 . S
C252 H272 0.932 . S
C253 C251 1.408 . S
C253 C252 1.310 . S
C253 H273 0.930 . S
C254 C255 1.474 . S
C254 C256 1.285 . S
C254 H274 0.929 . S
C255 C252 1.461 . S
C255 C254 1.474 . S
C256 C251 1.342 . S
C256 C254 1.285 . S
C256 H275 0.930 . S
C257 C260 1.424 . S
C257 C262 1.245 . S
C257 C263 1.428 . S
C258 C261 1.260 . S
C258 C262 1.477 . S
C258 H276 0.932 . S
C259 C260 1.384 . S
C259 C261 1.479 . S
C259 H277 0.929 . S
C260 C257 1.424 . S
C260 C259 1.384 . S
C260 H278 0.928 . S
C261 C258 1.260 . S
C261 C259 1.479 . S
C262 C257 1.245 . S
C262 C258 1.477 . S
C262 H279 0.932 . S
C263 U246 2.882 . S
C263 C257 1.428 . S
C263 O266 1.301 . S
C263 O267 1.282 . S
O264 U246 2.441 . S
O264 C250 1.249 . S
O265 U246 2.420 . S
O265 C250 1.202 . S
O266 U246 2.455 . S
O266 C263 1.301 . S
O267 U246 2.449 . S
O267 C263 1.282 . S
H268 C241 0.931 . S
H269 C243 0.929 . S
H270 C244 0.930 . S
H271 C245 0.931 . S
H272 C252 0.932 . S
H273 C253 0.930 . S
H274 C254 0.929 . S
H275 C256 0.930 . S
H276 C258 0.932 . S
H277 C259 0.929 . S
H278 C260 0.928 . S
H279 C262 0.932 . S
C280 C281 1.264 . S
C280 C285 1.479 1_556 S
C280 C290 1.465 . S
C281 C280 1.264 . S
C281 C283 1.339 . S
C281 H308 0.931 . S
C282 C283 1.395 1_554 S
C282 C284 1.320 . S
C283 C281 1.339 . S
C283 C282 1.395 1_556 S
C283 H309 0.929 . S
C284 C282 1.320 . S
C284 C285 1.405 . S
C284 H310 0.930 . S
C285 C280 1.479 1_554 S
C285 C284 1.405 . S
C285 H311 0.931 . S
U286 O287 2.454 1_556 S
U286 O288 2.458 1_556 S
U286 C289 2.984 1_556 S
U286 C290 2.847 . S
U286 C303 2.882 . S
U286 O304 2.442 1_556 S
U286 O305 2.420 . S
U286 O306 2.455 . S
U286 O307 2.449 . S
O287 U286 2.454 1_554 S
O287 C289 1.353 . S
O288 U286 2.458 1_554 S
O288 C289 1.286 . S
C289 U286 2.984 1_554 S
C289 O287 1.353 . S
C289 O288 1.286 . S
C289 C291 1.363 . S
C290 C280 1.465 . S
C290 U286 2.847 . S
C290 O304 1.251 1_556 S
C290 O305 1.202 . S
C291 C289 1.363 . S
C291 C293 1.408 . S
C291 C296 1.342 . S
C292 C293 1.310 . S
C292 C295 1.461 . S
C292 H312 0.932 . S
C293 C291 1.408 . S
C293 C292 1.310 . S
C293 H313 0.930 . S
C294 C295 1.474 . S
C294 C296 1.285 . S
C294 H314 0.929 . S
C295 C292 1.461 . S
C295 C294 1.474 . S
C296 C291 1.342 . S
C296 C294 1.285 . S
C296 H315 0.930 . S
C297 C300 1.424 . S
C297 C302 1.245 . S
C297 C303 1.428 . S
C298 C301 1.260 . S
C298 C302 1.477 . S
C298 H316 0.932 . S
C299 C300 1.384 . S
C299 C301 1.479 . S
C299 H317 0.929 . S
C300 C297 1.424 . S
C300 C299 1.384 . S
C300 H318 0.928 . S
C301 C298 1.260 . S
C301 C299 1.479 . S
C302 C297 1.245 . S
C302 C298 1.477 . S
C302 H319 0.932 . S
C303 U286 2.882 . S
C303 C297 1.428 . S
C303 O306 1.301 . S
C303 O307 1.282 . S
O304 U286 2.442 1_554 S
O304 C290 1.251 1_554 S
O305 U286 2.420 . S
O305 C290 1.202 . S
O306 U286 2.455 . S
O306 C303 1.301 . S
O307 U286 2.449 . S
O307 C303 1.282 . S
H308 C281 0.931 . S
H309 C283 0.929 . S
H310 C284 0.930 . S
H311 C285 0.931 . S
H312 C292 0.932 . S
H313 C293 0.930 . S
H314 C294 0.929 . S
H315 C296 0.930 . S
H316 C298 0.932 . S
H317 C299 0.929 . S
H318 C300 0.928 . S
H319 C302 0.932 . S
C320 C321 1.264 . S
C320 C325 1.479 . S
C320 C330 1.465 . S
C321 C320 1.264 . S
C321 C323 1.339 . S
C321 H348 0.931 . S
C322 C323 1.395 . S
C322 C324 1.320 . S
C323 C321 1.339 . S
C323 C322 1.395 . S
C323 H349 0.929 . S
C324 C322 1.320 . S
C324 C325 1.405 . S
C324 H350 0.930 . S
C325 C320 1.479 . S
C325 C324 1.405 . S
C325 H351 0.931 . S
U326 O327 2.454 . S
U326 O328 2.458 . S
U326 C329 2.984 . S
U326 C330 2.847 . S
U326 C343 2.882 . S
U326 O344 2.441 . S
U326 O345 2.420 . S
U326 O346 2.455 . S
U326 O347 2.449 . S
O327 U326 2.454 . S
O327 C329 1.353 . S
O328 U326 2.458 . S
O328 C329 1.286 . S
C329 U326 2.984 . S
C329 O327 1.353 . S
C329 O328 1.286 . S
C329 C331 1.363 . S
C330 C320 1.465 . S
C330 U326 2.847 . S
C330 O344 1.249 . S
C330 O345 1.202 . S
C331 C329 1.363 . S
C331 C333 1.408 . S
C331 C336 1.342 . S
C332 C333 1.310 . S
C332 C335 1.461 . S
C332 H352 0.932 . S
C333 C331 1.408 . S
C333 C332 1.310 . S
C333 H353 0.930 . S
C334 C335 1.474 . S
C334 C336 1.285 . S
C334 H354 0.929 . S
C335 C332 1.461 . S
C335 C334 1.474 . S
C336 C331 1.342 . S
C336 C334 1.285 . S
C336 H355 0.930 . S
C337 C340 1.424 . S
C337 C342 1.245 . S
C337 C343 1.428 . S
C338 C341 1.260 . S
C338 C342 1.477 . S
C338 H356 0.932 . S
C339 C340 1.384 . S
C339 C341 1.479 . S
C339 H357 0.929 . S
C340 C337 1.424 . S
C340 C339 1.384 . S
C340 H358 0.928 . S
C341 C338 1.260 . S
C341 C339 1.479 . S
C342 C337 1.245 . S
C342 C338 1.477 . S
C342 H359 0.932 . S
C343 U326 2.882 . S
C343 C337 1.428 . S
C343 O346 1.301 . S
C343 O347 1.282 . S
O344 U326 2.441 . S
O344 C330 1.249 . S
O345 U326 2.420 . S
O345 C330 1.202 . S
O346 U326 2.455 . S
O346 C343 1.301 . S
O347 U326 2.449 . S
O347 C343 1.282 . S
H348 C321 0.931 . S
H349 C323 0.929 . S
H350 C324 0.930 . S
H351 C325 0.931 . S
H352 C332 0.932 . S
H353 C333 0.930 . S
H354 C334 0.929 . S
H355 C336 0.930 . S
H356 C338 0.932 . S
H357 C339 0.929 . S
H358 C340 0.928 . S
H359 C342 0.932 . S
C360 C361 1.264 . S
C360 C365 1.479 . S
C360 C370 1.465 . S
C361 C360 1.264 . S
C361 C363 1.339 . S
C361 H388 0.931 . S
C362 C363 1.395 . S
C362 C364 1.320 . S
C363 C361 1.339 . S
C363 C362 1.395 . S
C363 H389 0.929 . S
C364 C362 1.320 . S
C364 C365 1.405 . S
C364 H390 0.930 . S
C365 C360 1.479 . S
C365 C364 1.405 . S
C365 H391 0.931 . S
U366 O367 2.454 . S
U366 O368 2.458 . S
U366 C369 2.984 . S
U366 C370 2.847 . S
U366 C383 2.882 . S
U366 O384 2.441 . S
U366 O385 2.420 . S
U366 O386 2.455 . S
U366 O387 2.449 . S
O367 U366 2.454 . S
O367 C369 1.353 . S
O368 U366 2.458 . S
O368 C369 1.286 . S
C369 U366 2.984 . S
C369 O367 1.353 . S
C369 O368 1.286 . S
C369 C371 1.363 . S
C370 C360 1.465 . S
C370 U366 2.847 . S
C370 O384 1.249 . S
C370 O385 1.202 . S
C371 C369 1.363 . S
C371 C373 1.408 . S
C371 C376 1.342 . S
C372 C373 1.310 . S
C372 C375 1.461 . S
C372 H392 0.932 . S
C373 C371 1.408 . S
C373 C372 1.310 . S
C373 H393 0.930 . S
C374 C375 1.474 . S
C374 C376 1.285 . S
C374 H394 0.929 . S
C375 C372 1.461 . S
C375 C374 1.474 . S
C376 C371 1.342 . S
C376 C374 1.285 . S
C376 H395 0.930 . S
C377 C380 1.424 . S
C377 C382 1.245 . S
C377 C383 1.428 1_455 S
C378 C381 1.260 . S
C378 C382 1.477 . S
C378 H396 0.932 . S
C379 C380 1.384 . S
C379 C381 1.479 . S
C379 H397 0.929 . S
C380 C377 1.424 . S
C380 C379 1.384 . S
C380 H398 0.928 1_455 S
C381 C378 1.260 . S
C381 C379 1.479 . S
C382 C377 1.245 . S
C382 C378 1.477 . S
C382 H399 0.932 . S
C383 U366 2.882 . S
C383 C377 1.428 1_655 S
C383 O386 1.301 . S
C383 O387 1.282 . S
O384 U366 2.441 . S
O384 C370 1.249 . S
O385 U366 2.420 . S
O385 C370 1.202 . S
O386 U366 2.455 . S
O386 C383 1.301 . S
O387 U366 2.449 . S
O387 C383 1.282 . S
H388 C361 0.931 . S
H389 C363 0.929 . S
H390 C364 0.930 . S
H391 C365 0.931 . S
H392 C372 0.932 . S
H393 C373 0.930 . S
H394 C374 0.929 . S
H395 C376 0.930 . S
H396 C378 0.932 . S
H397 C379 0.929 . S
H398 C380 0.928 1_655 S
H399 C382 0.932 . S
C400 C401 1.264 . S
C400 C405 1.479 . S
C400 C410 1.465 . S
C401 C400 1.264 . S
C401 C403 1.339 . S
C401 H428 0.931 . S
C402 C403 1.395 . S
C402 C404 1.320 . S
C403 C401 1.339 . S
C403 C402 1.395 . S
C403 H429 0.929 . S
C404 C402 1.320 . S
C404 C405 1.405 . S
C404 H430 0.930 . S
C405 C400 1.479 . S
C405 C404 1.405 . S
C405 H431 0.931 . S
U406 O407 2.454 . S
U406 O408 2.458 . S
U406 C409 2.984 . S
U406 C410 2.847 . S
U406 C423 2.882 . S
U406 O424 2.441 . S
U406 O425 2.420 . S
U406 O426 2.455 . S
U406 O427 2.449 . S
O407 U406 2.454 . S
O407 C409 1.353 . S
O408 U406 2.458 . S
O408 C409 1.286 . S
C409 U406 2.984 . S
C409 O407 1.353 . S
C409 O408 1.286 . S
C409 C411 1.363 . S
C410 C400 1.465 . S
C410 U406 2.847 . S
C410 O424 1.249 . S
C410 O425 1.202 . S
C411 C409 1.363 . S
C411 C413 1.408 . S
C411 C416 1.342 . S
C412 C413 1.310 . S
C412 C415 1.461 . S
C412 H432 0.932 . S
C413 C411 1.408 . S
C413 C412 1.310 . S
C413 H433 0.930 . S
C414 C415 1.474 . S
C414 C416 1.285 . S
C414 H434 0.929 . S
C415 C412 1.461 . S
C415 C414 1.474 . S
C416 C411 1.342 . S
C416 C414 1.285 . S
C416 H435 0.930 . S
C417 C420 1.424 . S
C417 C422 1.245 . S
C417 C423 1.428 . S
C418 C421 1.260 . S
C418 C422 1.477 . S
C418 H436 0.932 . S
C419 C420 1.384 . S
C419 C421 1.479 . S
C419 H437 0.929 . S
C420 C417 1.424 . S
C420 C419 1.384 . S
C420 H438 0.928 . S
C421 C418 1.260 . S
C421 C419 1.479 . S
C422 C417 1.245 . S
C422 C418 1.477 . S
C422 H439 0.932 . S
C423 U406 2.882 . S
C423 C417 1.428 . S
C423 O426 1.301 . S
C423 O427 1.282 . S
O424 U406 2.441 . S
O424 C410 1.249 . S
O425 U406 2.420 . S
O425 C410 1.202 . S
O426 U406 2.455 . S
O426 C423 1.301 . S
O427 U406 2.449 . S
O427 C423 1.282 . S
H428 C401 0.931 . S
H429 C403 0.929 . S
H430 C404 0.930 . S
H431 C405 0.931 . S
H432 C412 0.932 . S
H433 C413 0.930 . S
H434 C414 0.929 . S
H435 C416 0.930 . S
H436 C418 0.932 . S
H437 C419 0.929 . S
H438 C420 0.928 . S
H439 C422 0.932 . S
C440 C441 1.264 . S
C440 C445 1.479 1_655 S
C440 C450 1.465 . S
C441 C440 1.264 . S
C441 C443 1.339 . S
C441 H468 0.931 . S
C442 C443 1.395 1_455 S
C442 C444 1.320 . S
C443 C441 1.339 . S
C443 C442 1.395 1_655 S
C443 H469 0.929 . S
C444 C442 1.320 . S
C444 C445 1.405 . S
C444 H470 0.930 . S
C445 C440 1.479 1_455 S
C445 C444 1.405 . S
C445 H471 0.931 . S
U446 O447 2.454 1_655 S
U446 O448 2.458 1_655 S
U446 C449 2.984 1_655 S
U446 C450 2.847 . S
U446 C463 2.882 . S
U446 O464 2.442 1_655 S
U446 O465 2.420 . S
U446 O466 2.455 . S
U446 O467 2.449 . S
O447 U446 2.454 1_455 S
O447 C449 1.353 . S
O448 U446 2.458 1_455 S
O448 C449 1.286 . S
C449 U446 2.984 1_455 S
C449 O447 1.353 . S
C449 O448 1.286 . S
C449 C451 1.363 . S
C450 C440 1.465 . S
C450 U446 2.847 . S
C450 O464 1.251 1_655 S
C450 O465 1.202 . S
C451 C449 1.363 . S
C451 C453 1.408 . S
C451 C456 1.342 . S
C452 C453 1.310 . S
C452 C455 1.461 . S
C452 H472 0.932 . S
C453 C451 1.408 . S
C453 C452 1.310 . S
C453 H473 0.930 . S
C454 C455 1.474 . S
C454 C456 1.285 . S
C454 H474 0.929 . S
C455 C452 1.461 . S
C455 C454 1.474 . S
C456 C451 1.342 . S
C456 C454 1.285 . S
C456 H475 0.930 . S
C457 C460 1.424 . S
C457 C462 1.245 . S
C457 C463 1.428 . S
C458 C461 1.260 . S
C458 C462 1.477 . S
C458 H476 0.932 . S
C459 C460 1.384 . S
C459 C461 1.479 . S
C459 H477 0.929 . S
C460 C457 1.424 . S
C460 C459 1.384 . S
C460 H478 0.928 . S
C461 C458 1.260 . S
C461 C459 1.479 . S
C462 C457 1.245 . S
C462 C458 1.477 . S
C462 H479 0.932 . S
C463 U446 2.882 . S
C463 C457 1.428 . S
C463 O466 1.301 . S
C463 O467 1.282 . S
O464 U446 2.442 1_455 S
O464 C450 1.251 1_455 S
O465 U446 2.420 . S
O465 C450 1.202 . S
O466 U446 2.455 . S
O466 C463 1.301 . S
O467 U446 2.449 . S
O467 C463 1.282 . S
H468 C441 0.931 . S
H469 C443 0.929 . S
H470 C444 0.930 . S
H471 C445 0.931 . S
H472 C452 0.932 . S
H473 C453 0.930 . S
H474 C454 0.929 . S
H475 C456 0.930 . S
H476 C458 0.932 . S
H477 C459 0.929 . S
H478 C460 0.928 . S
H479 C462 0.932 . S
C480 C481 1.264 . S
C480 C485 1.479 . S
C480 C490 1.465 . S
C481 C480 1.264 . S
C481 C483 1.339 . S
C481 H508 0.931 . S
C482 C483 1.395 . S
C482 C484 1.320 . S
C483 C481 1.339 . S
C483 C482 1.395 . S
C483 H509 0.929 . S
C484 C482 1.320 . S
C484 C485 1.405 . S
C484 H510 0.930 . S
C485 C480 1.479 . S
C485 C484 1.405 . S
C485 H511 0.931 . S
U486 O487 2.454 . S
U486 O488 2.458 . S
U486 C489 2.984 . S
U486 C490 2.847 . S
U486 C503 2.882 . S
U486 O504 2.441 . S
U486 O505 2.420 . S
U486 O506 2.455 . S
U486 O507 2.449 . S
O487 U486 2.454 . S
O487 C489 1.353 . S
O488 U486 2.458 . S
O488 C489 1.286 . S
C489 U486 2.984 . S
C489 O487 1.353 . S
C489 O488 1.286 . S
C489 C491 1.363 . S
C490 C480 1.465 . S
C490 U486 2.847 . S
C490 O504 1.249 . S
C490 O505 1.202 . S
C491 C489 1.363 . S
C491 C493 1.408 . S
C491 C496 1.342 . S
C492 C493 1.310 . S
C492 C495 1.461 . S
C492 H512 0.932 . S
C493 C491 1.408 . S
C493 C492 1.310 . S
C493 H513 0.930 . S
C494 C495 1.474 . S
C494 C496 1.285 . S
C494 H514 0.929 . S
C495 C492 1.461 . S
C495 C494 1.474 . S
C496 C491 1.342 . S
C496 C494 1.285 . S
C496 H515 0.930 . S
C497 C500 1.424 . S
C497 C502 1.245 . S
C497 C503 1.428 . S
C498 C501 1.260 . S
C498 C502 1.477 . S
C498 H516 0.932 . S
C499 C500 1.384 . S
C499 C501 1.479 . S
C499 H517 0.929 . S
C500 C497 1.424 . S
C500 C499 1.384 . S
C500 H518 0.928 . S
C501 C498 1.260 . S
C501 C499 1.479 . S
C502 C497 1.245 . S
C502 C498 1.477 . S
C502 H519 0.932 . S
C503 U486 2.882 . S
C503 C497 1.428 . S
C503 O506 1.301 . S
C503 O507 1.282 . S
O504 U486 2.441 . S
O504 C490 1.249 . S
O505 U486 2.420 . S
O505 C490 1.202 . S
O506 U486 2.455 . S
O506 C503 1.301 . S
O507 U486 2.449 . S
O507 C503 1.282 . S
H508 C481 0.931 . S
H509 C483 0.929 . S
H510 C484 0.930 . S
H511 C485 0.931 . S
H512 C492 0.932 . S
H513 C493 0.930 . S
H514 C494 0.929 . S
H515 C496 0.930 . S
H516 C498 0.932 . S
H517 C499 0.929 . S
H518 C500 0.928 . S
H519 C502 0.932 . S
C520 C521 1.264 . S
C520 C525 1.479 . S
C520 C530 1.465 . S
C521 C520 1.264 . S
C521 C523 1.339 . S
C521 H548 0.931 . S
C522 C523 1.395 . S
C522 C524 1.320 . S
C523 C521 1.339 . S
C523 C522 1.395 . S
C523 H549 0.929 . S
C524 C522 1.320 . S
C524 C525 1.405 . S
C524 H550 0.930 . S
C525 C520 1.479 . S
C525 C524 1.405 . S
C525 H551 0.931 . S
U526 O527 2.454 . S
U526 O528 2.458 . S
U526 C529 2.984 . S
U526 C530 2.847 . S
U526 C543 2.882 . S
U526 O544 2.441 . S
U526 O545 2.420 . S
U526 O546 2.455 . S
U526 O547 2.449 . S
O527 U526 2.454 . S
O527 C529 1.353 . S
O528 U526 2.458 . S
O528 C529 1.286 . S
C529 U526 2.984 . S
C529 O527 1.353 . S
C529 O528 1.286 . S
C529 C531 1.363 . S
C530 C520 1.465 . S
C530 U526 2.847 . S
C530 O544 1.249 . S
C530 O545 1.202 . S
C531 C529 1.363 . S
C531 C533 1.408 . S
C531 C536 1.342 . S
C532 C533 1.310 . S
C532 C535 1.461 . S
C532 H552 0.932 . S
C533 C531 1.408 . S
C533 C532 1.310 . S
C533 H553 0.930 . S
C534 C535 1.474 . S
C534 C536 1.285 . S
C534 H554 0.929 . S
C535 C532 1.461 . S
C535 C534 1.474 . S
C536 C531 1.342 . S
C536 C534 1.285 . S
C536 H555 0.930 . S
C537 C540 1.424 . S
C537 C542 1.245 . S
C537 C543 1.428 . S
C538 C541 1.260 . S
C538 C542 1.477 . S
C538 H556 0.932 . S
C539 C540 1.384 . S
C539 C541 1.479 . S
C539 H557 0.929 . S
C540 C537 1.424 . S
C540 C539 1.384 . S
C540 H558 0.928 . S
C541 C538 1.260 . S
C541 C539 1.479 . S
C542 C537 1.245 . S
C542 C538 1.477 . S
C542 H559 0.932 . S
C543 U526 2.882 . S
C543 C537 1.428 . S
C543 O546 1.301 . S
C543 O547 1.282 . S
O544 U526 2.441 . S
O544 C530 1.249 . S
O545 U526 2.420 . S
O545 C530 1.202 . S
O546 U526 2.455 . S
O546 C543 1.301 . S
O547 U526 2.449 . S
O547 C543 1.282 . S
H548 C521 0.931 . S
H549 C523 0.929 . S
H550 C524 0.930 . S
H551 C525 0.931 . S
H552 C532 0.932 . S
H553 C533 0.930 . S
H554 C534 0.929 . S
H555 C536 0.930 . S
H556 C538 0.932 . S
H557 C539 0.929 . S
H558 C540 0.928 . S
H559 C542 0.932 . S
C560 C561 1.264 . S
C560 C565 1.479 . S
C560 C570 1.465 . S
C561 C560 1.264 . S
C561 C563 1.339 . S
C561 H588 0.931 . S
C562 C563 1.395 . S
C562 C564 1.320 . S
C563 C561 1.339 . S
C563 C562 1.395 . S
C563 H589 0.929 1_565 S
C564 C562 1.320 . S
C564 C565 1.405 . S
C564 H590 0.930 . S
C565 C560 1.479 . S
C565 C564 1.405 . S
C565 H591 0.931 . S
U566 O567 2.454 . S
U566 O568 2.458 . S
U566 C569 2.984 . S
U566 C570 2.847 . S
U566 C583 2.882 1_565 S
U566 O584 2.441 . S
U566 O585 2.420 . S
U566 O586 2.455 . S
U566 O587 2.461 . S
O567 U566 2.454 . S
O567 C569 1.353 . S
O568 U566 2.458 . S
O568 C569 1.286 . S
C569 U566 2.984 . S
C569 O567 1.353 . S
C569 O568 1.286 . S
C569 C571 1.363 . S
C570 C560 1.465 . S
C570 U566 2.847 . S
C570 O584 1.249 . S
C570 O585 1.202 . S
C571 C569 1.363 . S
C571 C573 1.408 . S
C571 C576 1.342 . S
C572 C573 1.310 . S
C572 C575 1.461 . S
C572 H592 0.932 . S
C573 C571 1.408 . S
C573 C572 1.310 . S
C573 H593 0.930 . S
C574 C575 1.474 . S
C574 C576 1.285 . S
C574 H594 0.929 . S
C575 C572 1.461 . S
C575 C574 1.474 . S
C576 C571 1.342 . S
C576 C574 1.285 . S
C576 H595 0.930 . S
C577 C580 1.424 . S
C577 C582 1.245 . S
C577 C583 1.428 . S
C578 C581 1.260 . S
C578 C582 1.477 . S
C578 H596 0.932 . S
C579 C580 1.384 . S
C579 C581 1.479 . S
C579 H597 0.929 . S
C580 C577 1.424 . S
C580 C579 1.384 . S
C580 H598 0.928 . S
C581 C578 1.260 . S
C581 C579 1.479 . S
C582 C577 1.245 . S
C582 C578 1.477 . S
C582 H599 0.932 . S
C583 U566 2.882 1_545 S
C583 C577 1.428 . S
C583 O586 1.301 1_545 S
C583 O587 1.275 1_545 S
O584 U566 2.441 . S
O584 C570 1.249 . S
O585 U566 2.420 . S
O585 C570 1.202 . S
O586 U566 2.455 . S
O586 C583 1.301 1_565 S
O587 U566 2.461 . S
O587 C583 1.275 1_565 S
H588 C561 0.931 . S
H589 C563 0.929 1_545 S
H590 C564 0.930 . S
H591 C565 0.931 . S
H592 C572 0.932 . S
H593 C573 0.930 . S
H594 C574 0.929 . S
H595 C576 0.930 . S
H596 C578 0.932 . S
H597 C579 0.929 . S
H598 C580 0.928 . S
H599 C582 0.932 . S
C600 C601 1.264 . S
C600 C605 1.479 . S
C600 C610 1.465 . S
C601 C600 1.264 . S
C601 C603 1.339 . S
C601 H628 0.931 . S
C602 C603 1.395 . S
C602 C604 1.320 . S
C603 C601 1.339 . S
C603 C602 1.395 . S
C603 H629 0.929 . S
C604 C602 1.320 . S
C604 C605 1.405 . S
C604 H630 0.930 . S
C605 C600 1.479 . S
C605 C604 1.405 . S
C605 H631 0.931 . S
U606 O607 2.454 . S
U606 O608 2.458 . S
U606 C609 2.984 . S
U606 C610 2.847 . S
U606 C623 2.882 . S
U606 O624 2.441 . S
U606 O625 2.420 . S
U606 O626 2.455 . S
U606 O627 2.449 . S
O607 U606 2.454 . S
O607 C609 1.353 . S
O608 U606 2.458 . S
O608 C609 1.286 . S
C609 U606 2.984 . S
C609 O607 1.353 . S
C609 O608 1.286 . S
C609 C611 1.363 . S
C610 C600 1.465 . S
C610 U606 2.847 . S
C610 O624 1.249 . S
C610 O625 1.202 . S
C611 C609 1.363 . S
C611 C613 1.408 . S
C611 C616 1.342 . S
C612 C613 1.310 . S
C612 C615 1.461 . S
C612 H632 0.932 . S
C613 C611 1.408 . S
C613 C612 1.310 . S
C613 H633 0.930 . S
C614 C615 1.474 . S
C614 C616 1.285 . S
C614 H634 0.929 . S
C615 C612 1.461 . S
C615 C614 1.474 . S
C616 C611 1.342 . S
C616 C614 1.285 . S
C616 H635 0.930 . S
C617 C620 1.424 . S
C617 C622 1.245 . S
C617 C623 1.428 . S
C618 C621 1.260 . S
C618 C622 1.477 1_565 S
C618 H636 0.932 . S
C619 C620 1.360 1_565 S
C619 C621 1.502 . S
C619 H637 0.932 . S
C620 C617 1.424 . S
C620 C619 1.360 1_545 S
C620 H638 0.928 . S
C621 C618 1.260 . S
C621 C619 1.502 . S
C622 C617 1.245 . S
C622 C618 1.477 1_545 S
C622 H639 0.932 . S
C623 U606 2.882 . S
C623 C617 1.428 . S
C623 O626 1.301 . S
C623 O627 1.282 . S
O624 U606 2.441 . S
O624 C610 1.249 . S
O625 U606 2.420 . S
O625 C610 1.202 . S
O626 U606 2.455 . S
O626 C623 1.301 . S
O627 U606 2.449 . S
O627 C623 1.282 . S
H628 C601 0.931 . S
H629 C603 0.929 . S
H630 C604 0.930 . S
H631 C605 0.931 . S
H632 C612 0.932 . S
H633 C613 0.930 . S
H634 C614 0.929 . S
H635 C616 0.930 . S
H636 C618 0.932 . S
H637 C619 0.932 . S
H638 C620 0.928 . S
H639 C622 0.932 . S
C640 C641 1.264 . S
C640 C645 1.479 . S
C640 C650 1.465 . S
C641 C640 1.264 . S
C641 C643 1.339 . S
C641 H668 0.931 . S
C642 C643 1.395 . S
C642 C644 1.320 . S
C643 C641 1.339 . S
C643 C642 1.395 . S
C643 H669 0.929 . S
C644 C642 1.320 . S
C644 C645 1.405 . S
C644 H670 0.930 . S
C645 C640 1.479 . S
C645 C644 1.405 . S
C645 H671 0.931 . S
U646 O647 2.454 . S
U646 O648 2.458 . S
U646 C649 2.984 . S
U646 C650 2.847 . S
U646 C663 2.882 . S
U646 O664 2.441 . S
U646 O665 2.420 . S
U646 O666 2.455 . S
U646 O667 2.449 . S
O647 U646 2.454 . S
O647 C649 1.353 . S
O648 U646 2.458 . S
O648 C649 1.286 . S
C649 U646 2.984 . S
C649 O647 1.353 . S
C649 O648 1.286 . S
C649 C651 1.363 . S
C650 C640 1.465 . S
C650 U646 2.847 . S
C650 O664 1.249 . S
C650 O665 1.202 . S
C651 C649 1.363 . S
C651 C653 1.408 . S
C651 C656 1.342 . S
C652 C653 1.310 . S
C652 C655 1.461 . S
C652 H672 0.932 . S
C653 C651 1.408 . S
C653 C652 1.310 . S
C653 H673 0.930 . S
C654 C655 1.474 . S
C654 C656 1.285 . S
C654 H674 0.929 . S
C655 C652 1.461 . S
C655 C654 1.474 . S
C656 C651 1.342 . S
C656 C654 1.285 . S
C656 H675 0.930 . S
C657 C660 1.424 . S
C657 C662 1.245 . S
C657 C663 1.428 . S
C658 C661 1.260 . S
C658 C662 1.477 . S
C658 H676 0.932 . S
C659 C660 1.384 . S
C659 C661 1.479 . S
C659 H677 0.929 . S
C660 C657 1.424 . S
C660 C659 1.384 . S
C660 H678 0.928 . S
C661 C658 1.260 . S
C661 C659 1.479 . S
C662 C657 1.245 . S
C662 C658 1.477 . S
C662 H679 0.932 . S
C663 U646 2.882 . S
C663 C657 1.428 . S
C663 O666 1.301 . S
C663 O667 1.282 . S
O664 U646 2.441 . S
O664 C650 1.249 . S
O665 U646 2.420 . S
O665 C650 1.202 . S
O666 U646 2.455 . S
O666 C663 1.301 . S
O667 U646 2.449 . S
O667 C663 1.282 . S
H668 C641 0.931 . S
H669 C643 0.929 . S
H670 C644 0.930 . S
H671 C645 0.931 . S
H672 C652 0.932 . S
H673 C653 0.930 . S
H674 C654 0.929 . S
H675 C656 0.930 . S
H676 C658 0.932 . S
H677 C659 0.929 . S
H678 C660 0.928 . S
H679 C662 0.932 . S
C680 C681 1.264 . S
C680 C685 1.479 . S
C680 C690 1.465 . S
C681 C680 1.264 . S
C681 C683 1.339 . S
C681 H708 0.931 . S
C682 C683 1.395 . S
C682 C684 1.320 . S
C683 C681 1.339 . S
C683 C682 1.395 . S
C683 H709 0.929 . S
C684 C682 1.320 . S
C684 C685 1.405 . S
C684 H710 0.930 . S
C685 C680 1.479 . S
C685 C684 1.405 . S
C685 H711 0.931 . S
U686 O687 2.454 . S
U686 O688 2.458 . S
U686 C689 2.984 . S
U686 C690 2.847 . S
U686 C703 2.882 . S
U686 O704 2.441 . S
U686 O705 2.420 . S
U686 O706 2.455 . S
U686 O707 2.449 . S
O687 U686 2.454 . S
O687 C689 1.353 . S
O688 U686 2.458 . S
O688 C689 1.286 . S
C689 U686 2.984 . S
C689 O687 1.353 . S
C689 O688 1.286 . S
C689 C691 1.363 . S
C690 C680 1.465 . S
C690 U686 2.847 . S
C690 O704 1.249 . S
C690 O705 1.202 . S
C691 C689 1.363 . S
C691 C693 1.408 . S
C691 C696 1.342 . S
C692 C693 1.310 . S
C692 C695 1.461 . S
C692 H712 0.932 . S
C693 C691 1.408 . S
C693 C692 1.310 . S
C693 H713 0.930 . S
C694 C695 1.474 . S
C694 C696 1.285 . S
C694 H714 0.929 . S
C695 C692 1.461 . S
C695 C694 1.474 . S
C696 C691 1.342 . S
C696 C694 1.285 . S
C696 H715 0.930 . S
C697 C700 1.424 . S
C697 C702 1.245 . S
C697 C703 1.428 . S
C698 C701 1.260 . S
C698 C702 1.477 1_556 S
C698 H716 0.932 . S
C699 C700 1.360 1_556 S
C699 C701 1.502 . S
C699 H717 0.932 . S
C700 C697 1.424 . S
C700 C699 1.360 1_554 S
C700 H718 0.928 . S
C701 C698 1.260 . S
C701 C699 1.502 . S
C702 C697 1.245 . S
C702 C698 1.477 1_554 S
C702 H719 0.932 . S
C703 U686 2.882 . S
C703 C697 1.428 . S
C703 O706 1.301 . S
C703 O707 1.282 . S
O704 U686 2.441 . S
O704 C690 1.249 . S
O705 U686 2.420 . S
O705 C690 1.202 . S
O706 U686 2.455 . S
O706 C703 1.301 . S
O707 U686 2.449 . S
O707 C703 1.282 . S
H708 C681 0.931 . S
H709 C683 0.929 . S
H710 C684 0.930 . S
H711 C685 0.931 . S
H712 C692 0.932 . S
H713 C693 0.930 . S
H714 C694 0.929 . S
H715 C696 0.930 . S
H716 C698 0.932 . S
H717 C699 0.932 . S
H718 C700 0.928 . S
H719 C702 0.932 . S
C720 C721 1.264 . S
C720 C725 1.479 . S
C720 C730 1.465 . S
C721 C720 1.264 . S
C721 C723 1.339 . S
C721 H748 0.931 . S
C722 C723 1.395 . S
C722 C724 1.320 . S
C723 C721 1.339 . S
C723 C722 1.395 . S
C723 H749 0.929 . S
C724 C722 1.320 . S
C724 C725 1.405 . S
C724 H750 0.930 . S
C725 C720 1.479 . S
C725 C724 1.405 . S
C725 H751 0.931 . S
U726 O727 2.454 . S
U726 O728 2.458 . S
U726 C729 2.984 . S
U726 C730 2.847 . S
U726 C743 2.882 . S
U726 O744 2.441 . S
U726 O745 2.420 . S
U726 O746 2.455 . S
U726 O747 2.449 . S
O727 U726 2.454 . S
O727 C729 1.353 . S
O728 U726 2.458 . S
O728 C729 1.286 . S
C729 U726 2.984 . S
C729 O727 1.353 . S
C729 O728 1.286 . S
C729 C731 1.363 . S
C730 C720 1.465 . S
C730 U726 2.847 . S
C730 O744 1.249 . S
C730 O745 1.202 . S
C731 C729 1.363 . S
C731 C733 1.408 . S
C731 C736 1.342 . S
C732 C733 1.310 . S
C732 C735 1.461 . S
C732 H752 0.932 . S
C733 C731 1.408 . S
C733 C732 1.310 . S
C733 H753 0.930 . S
C734 C735 1.474 . S
C734 C736 1.285 . S
C734 H754 0.929 . S
C735 C732 1.461 . S
C735 C734 1.474 . S
C736 C731 1.342 . S
C736 C734 1.285 . S
C736 H755 0.930 . S
C737 C740 1.424 . S
C737 C742 1.245 . S
C737 C743 1.428 . S
C738 C741 1.260 . S
C738 C742 1.477 . S
C738 H756 0.932 . S
C739 C740 1.384 . S
C739 C741 1.479 . S
C739 H757 0.929 . S
C740 C737 1.424 . S
C740 C739 1.384 . S
C740 H758 0.928 . S
C741 C738 1.260 . S
C741 C739 1.479 . S
C742 C737 1.245 . S
C742 C738 1.477 . S
C742 H759 0.932 . S
C743 U726 2.882 . S
C743 C737 1.428 . S
C743 O746 1.301 . S
C743 O747 1.282 . S
O744 U726 2.441 . S
O744 C730 1.249 . S
O745 U726 2.420 . S
O745 C730 1.202 . S
O746 U726 2.455 . S
O746 C743 1.301 . S
O747 U726 2.449 . S
O747 C743 1.282 . S
H748 C721 0.931 . S
H749 C723 0.929 . S
H750 C724 0.930 . S
H751 C725 0.931 . S
H752 C732 0.932 . S
H753 C733 0.930 . S
H754 C734 0.929 . S
H755 C736 0.930 . S
H756 C738 0.932 . S
H757 C739 0.929 . S
H758 C740 0.928 . S
H759 C742 0.932 . S
C760 C761 1.264 . S
C760 C765 1.479 . S
C760 C770 1.465 . S
C761 C760 1.264 . S
C761 C763 1.339 . S
C761 H788 0.931 . S
C762 C763 1.395 . S
C762 C764 1.320 . S
C763 C761 1.339 . S
C763 C762 1.395 . S
C763 H789 0.929 1_556 S
C764 C762 1.320 . S
C764 C765 1.405 . S
C764 H790 0.930 . S
C765 C760 1.479 . S
C765 C764 1.405 . S
C765 H791 0.931 . S
U766 O767 2.454 . S
U766 O768 2.458 . S
U766 C769 2.984 . S
U766 C770 2.847 . S
U766 C783 2.882 1_556 S
U766 O784 2.441 . S
U766 O785 2.420 . S
U766 O786 2.455 . S
U766 O787 2.461 . S
O767 U766 2.454 . S
O767 C769 1.353 . S
O768 U766 2.458 . S
O768 C769 1.286 . S
C769 U766 2.984 . S
C769 O767 1.353 . S
C769 O768 1.286 . S
C769 C771 1.363 . S
C770 C760 1.465 . S
C770 U766 2.847 . S
C770 O784 1.249 . S
C770 O785 1.202 . S
C771 C769 1.363 . S
C771 C773 1.408 . S
C771 C776 1.342 . S
C772 C773 1.310 . S
C772 C775 1.461 . S
C772 H792 0.932 . S
C773 C771 1.408 . S
C773 C772 1.310 . S
C773 H793 0.930 . S
C774 C775 1.474 . S
C774 C776 1.285 . S
C774 H794 0.929 . S
C775 C772 1.461 . S
C775 C774 1.474 . S
C776 C771 1.342 . S
C776 C774 1.285 . S
C776 H795 0.930 . S
C777 C780 1.424 . S
C777 C782 1.245 . S
C777 C783 1.428 . S
C778 C781 1.260 . S
C778 C782 1.477 . S
C778 H796 0.932 . S
C779 C780 1.384 . S
C779 C781 1.479 . S
C779 H797 0.929 . S
C780 C777 1.424 . S
C780 C779 1.384 . S
C780 H798 0.928 . S
C781 C778 1.260 . S
C781 C779 1.479 . S
C782 C777 1.245 . S
C782 C778 1.477 . S
C782 H799 0.932 . S
C783 U766 2.882 1_554 S
C783 C777 1.428 . S
C783 O786 1.301 1_554 S
C783 O787 1.275 1_554 S
O784 U766 2.441 . S
O784 C770 1.249 . S
O785 U766 2.420 . S
O785 C770 1.202 . S
O786 U766 2.455 . S
O786 C783 1.301 1_556 S
O787 U766 2.461 . S
O787 C783 1.275 1_556 S
H788 C761 0.931 . S
H789 C763 0.929 1_554 S
H790 C764 0.930 . S
H791 C765 0.931 . S
H792 C772 0.932 . S
H793 C773 0.930 . S
H794 C774 0.929 . S
H795 C776 0.930 . S
H796 C778 0.932 . S
H797 C779 0.929 . S
H798 C780 0.928 . S
H799 C782 0.932 . S
C800 C801 1.264 . S
C800 C805 1.479 . S
C800 C810 1.465 . S
C801 C800 1.264 . S
C801 C803 1.339 . S
C801 H828 0.931 . S
C802 C803 1.395 . S
C802 C804 1.320 . S
C803 C801 1.339 . S
C803 C802 1.395 . S
C803 H829 0.929 . S
C804 C802 1.320 . S
C804 C805 1.405 . S
C804 H830 0.930 . S
C805 C800 1.479 . S
C805 C804 1.405 . S
C805 H831 0.931 . S
U806 O807 2.454 . S
U806 O808 2.458 . S
U806 C809 2.984 . S
U806 C810 2.847 . S
U806 C823 2.882 . S
U806 O824 2.441 . S
U806 O825 2.420 . S
U806 O826 2.455 . S
U806 O827 2.449 . S
O807 U806 2.454 . S
O807 C809 1.353 . S
O808 U806 2.458 . S
O808 C809 1.286 . S
C809 U806 2.984 . S
C809 O807 1.353 . S
C809 O808 1.286 . S
C809 C811 1.363 . S
C810 C800 1.465 . S
C810 U806 2.847 . S
C810 O824 1.249 . S
C810 O825 1.202 . S
C811 C809 1.363 . S
C811 C813 1.408 . S
C811 C816 1.342 . S
C812 C813 1.310 . S
C812 C815 1.461 . S
C812 H832 0.932 . S
C813 C811 1.408 . S
C813 C812 1.310 . S
C813 H833 0.930 . S
C814 C815 1.474 . S
C814 C816 1.285 . S
C814 H834 0.929 . S
C815 C812 1.461 . S
C815 C814 1.474 . S
C816 C811 1.342 . S
C816 C814 1.285 . S
C816 H835 0.930 . S
C817 C820 1.424 . S
C817 C822 1.245 . S
C817 C823 1.428 . S
C818 C821 1.260 . S
C818 C822 1.477 . S
C818 H836 0.932 . S
C819 C820 1.384 . S
C819 C821 1.479 . S
C819 H837 0.929 . S
C820 C817 1.424 . S
C820 C819 1.384 . S
C820 H838 0.928 . S
C821 C818 1.260 . S
C821 C819 1.479 . S
C822 C817 1.245 . S
C822 C818 1.477 . S
C822 H839 0.932 . S
C823 U806 2.882 . S
C823 C817 1.428 . S
C823 O826 1.301 . S
C823 O827 1.282 . S
O824 U806 2.441 . S
O824 C810 1.249 . S
O825 U806 2.420 . S
O825 C810 1.202 . S
O826 U806 2.455 . S
O826 C823 1.301 . S
O827 U806 2.449 . S
O827 C823 1.282 . S
H828 C801 0.931 . S
H829 C803 0.929 . S
H830 C804 0.930 . S
H831 C805 0.931 . S
H832 C812 0.932 . S
H833 C813 0.930 . S
H834 C814 0.929 . S
H835 C816 0.930 . S
H836 C818 0.932 . S
H837 C819 0.929 . S
H838 C820 0.928 . S
H839 C822 0.932 . S
C840 C841 1.264 . S
C840 C845 1.479 . S
C840 C850 1.465 . S
C841 C840 1.264 . S
C841 C843 1.339 . S
C841 H868 0.931 . S
C842 C843 1.395 . S
C842 C844 1.320 . S
C843 C841 1.339 . S
C843 C842 1.395 . S
C843 H869 0.929 . S
C844 C842 1.320 . S
C844 C845 1.405 . S
C844 H870 0.930 . S
C845 C840 1.479 . S
C845 C844 1.405 . S
C845 H871 0.931 . S
U846 O847 2.454 . S
U846 O848 2.458 . S
U846 C849 2.984 . S
U846 C850 2.847 . S
U846 C863 2.882 . S
U846 O864 2.441 . S
U846 O865 2.420 . S
U846 O866 2.455 . S
U846 O867 2.449 . S
O847 U846 2.454 . S
O847 C849 1.353 . S
O848 U846 2.458 . S
O848 C849 1.286 . S
C849 U846 2.984 . S
C849 O847 1.353 . S
C849 O848 1.286 . S
C849 C851 1.363 . S
C850 C840 1.465 . S
C850 U846 2.847 . S
C850 O864 1.249 . S
C850 O865 1.202 . S
C851 C849 1.363 . S
C851 C853 1.408 . S
C851 C856 1.342 . S
C852 C853 1.310 . S
C852 C855 1.461 . S
C852 H872 0.932 . S
C853 C851 1.408 . S
C853 C852 1.310 . S
C853 H873 0.930 . S
C854 C855 1.474 . S
C854 C856 1.285 . S
C854 H874 0.929 . S
C855 C852 1.461 . S
C855 C854 1.474 . S
C856 C851 1.342 . S
C856 C854 1.285 . S
C856 H875 0.930 . S
C857 C860 1.424 . S
C857 C862 1.245 . S
C857 C863 1.428 . S
C858 C861 1.260 . S
C858 C862 1.477 1_655 S
C858 H876 0.932 . S
C859 C860 1.360 1_655 S
C859 C861 1.502 . S
C859 H877 0.932 . S
C860 C857 1.424 . S
C860 C859 1.360 1_455 S
C860 H878 0.928 . S
C861 C858 1.260 . S
C861 C859 1.502 . S
C862 C857 1.245 . S
C862 C858 1.477 1_455 S
C862 H879 0.932 . S
C863 U846 2.882 . S
C863 C857 1.428 . S
C863 O866 1.301 . S
C863 O867 1.282 . S
O864 U846 2.441 . S
O864 C850 1.249 . S
O865 U846 2.420 . S
O865 C850 1.202 . S
O866 U846 2.455 . S
O866 C863 1.301 . S
O867 U846 2.449 . S
O867 C863 1.282 . S
H868 C841 0.931 . S
H869 C843 0.929 . S
H870 C844 0.930 . S
H871 C845 0.931 . S
H872 C852 0.932 . S
H873 C853 0.930 . S
H874 C854 0.929 . S
H875 C856 0.930 . S
H876 C858 0.932 . S
H877 C859 0.932 . S
H878 C860 0.928 . S
H879 C862 0.932 . S
C880 C881 1.264 . S
C880 C885 1.479 . S
C880 C890 1.465 . S
C881 C880 1.264 . S
C881 C883 1.339 . S
C881 H908 0.931 . S
C882 C883 1.395 . S
C882 C884 1.320 . S
C883 C881 1.339 . S
C883 C882 1.395 . S
C883 H909 0.929 . S
C884 C882 1.320 . S
C884 C885 1.405 . S
C884 H910 0.930 . S
C885 C880 1.479 . S
C885 C884 1.405 . S
C885 H911 0.931 . S
U886 O887 2.454 . S
U886 O888 2.458 . S
U886 C889 2.984 . S
U886 C890 2.847 . S
U886 C903 2.882 . S
U886 O904 2.441 . S
U886 O905 2.420 . S
U886 O906 2.455 . S
U886 O907 2.449 . S
O887 U886 2.454 . S
O887 C889 1.353 . S
O888 U886 2.458 . S
O888 C889 1.286 . S
C889 U886 2.984 . S
C889 O887 1.353 . S
C889 O888 1.286 . S
C889 C891 1.363 . S
C890 C880 1.465 . S
C890 U886 2.847 . S
C890 O904 1.249 . S
C890 O905 1.202 . S
C891 C889 1.363 . S
C891 C893 1.408 . S
C891 C896 1.342 . S
C892 C893 1.310 . S
C892 C895 1.461 . S
C892 H912 0.932 . S
C893 C891 1.408 . S
C893 C892 1.310 . S
C893 H913 0.930 . S
C894 C895 1.474 . S
C894 C896 1.285 . S
C894 H914 0.929 . S
C895 C892 1.461 . S
C895 C894 1.474 . S
C896 C891 1.342 . S
C896 C894 1.285 . S
C896 H915 0.930 . S
C897 C900 1.424 . S
C897 C902 1.245 . S
C897 C903 1.428 . S
C898 C901 1.260 . S
C898 C902 1.477 . S
C898 H916 0.932 . S
C899 C900 1.384 . S
C899 C901 1.479 . S
C899 H917 0.929 . S
C900 C897 1.424 . S
C900 C899 1.384 . S
C900 H918 0.928 . S
C901 C898 1.260 . S
C901 C899 1.479 . S
C902 C897 1.245 . S
C902 C898 1.477 . S
C902 H919 0.932 . S
C903 U886 2.882 . S
C903 C897 1.428 . S
C903 O906 1.301 . S
C903 O907 1.282 . S
O904 U886 2.441 . S
O904 C890 1.249 . S
O905 U886 2.420 . S
O905 C890 1.202 . S
O906 U886 2.455 . S
O906 C903 1.301 . S
O907 U886 2.449 . S
O907 C903 1.282 . S
H908 C881 0.931 . S
H909 C883 0.929 . S
H910 C884 0.930 . S
H911 C885 0.931 . S
H912 C892 0.932 . S
H913 C893 0.930 . S
H914 C894 0.929 . S
H915 C896 0.930 . S
H916 C898 0.932 . S
H917 C899 0.929 . S
H918 C900 0.928 . S
H919 C902 0.932 . S
C920 C921 1.264 . S
C920 C925 1.479 . S
C920 C930 1.465 . S
C921 C920 1.264 . S
C921 C923 1.339 . S
C921 H948 0.931 . S
C922 C923 1.395 . S
C922 C924 1.320 . S
C923 C921 1.339 . S
C923 C922 1.395 . S
C923 H949 0.929 1_655 S
C924 C922 1.320 . S
C924 C925 1.405 . S
C924 H950 0.930 . S
C925 C920 1.479 . S
C925 C924 1.405 . S
C925 H951 0.931 . S
U926 O927 2.454 . S
U926 O928 2.458 . S
U926 C929 2.984 . S
U926 C930 2.847 . S
U926 C943 2.882 1_655 S
U926 O944 2.441 . S
U926 O945 2.420 . S
U926 O946 2.455 . S
U926 O947 2.461 . S
O927 U926 2.454 . S
O927 C929 1.353 . S
O928 U926 2.458 . S
O928 C929 1.286 . S
C929 U926 2.984 . S
C929 O927 1.353 . S
C929 O928 1.286 . S
C929 C931 1.363 . S
C930 C920 1.465 . S
C930 U926 2.847 . S
C930 O944 1.249 . S
C930 O945 1.202 . S
C931 C929 1.363 . S
C931 C933 1.408 . S
C931 C936 1.342 . S
C932 C933 1.310 . S
C932 C935 1.461 . S
C932 H952 0.932 . S
C933 C931 1.408 . S
C933 C932 1.310 . S
C933 H953 0.930 . S
C934 C935 1.474 . S
C934 C936 1.285 . S
C934 H954 0.929 . S
C935 C932 1.461 . S
C935 C934 1.474 . S
C936 C931 1.342 . S
C936 C934 1.285 . S
C936 H955 0.930 . S
C937 C940 1.424 . S
C937 C942 1.245 . S
C937 C943 1.428 . S
C938 C941 1.260 . S
C938 C942 1.477 . S
C938 H956 0.932 . S
C939 C940 1.384 . S
C939 C941 1.479 . S
C939 H957 0.929 . S
C940 C937 1.424 . S
C940 C939 1.384 . S
C940 H958 0.928 . S
C941 C938 1.260 . S
C941 C939 1.479 . S
C942 C937 1.245 . S
C942 C938 1.477 . S
C942 H959 0.932 . S
C943 U926 2.882 1_455 S
C943 C937 1.428 . S
C943 O946 1.301 1_455 S
C943 O947 1.275 1_455 S
O944 U926 2.441 . S
O944 C930 1.249 . S
O945 U926 2.420 . S
O945 C930 1.202 . S
O946 U926 2.455 . S
O946 C943 1.301 1_655 S
O947 U926 2.461 . S
O947 C943 1.275 1_655 S
H948 C921 0.931 . S
H949 C923 0.929 1_455 S
H950 C924 0.930 . S
H951 C925 0.931 . S
H952 C932 0.932 . S
H953 C933 0.930 . S
H954 C934 0.929 . S
H955 C936 0.930 . S
H956 C938 0.932 . S
H957 C939 0.929 . S
H958 C940 0.928 . S
H959 C942 0.932 . S
C960 C961 1.391 . S
C960 C964 1.391 . S
C960 H1002 0.948 . S
C961 C960 1.391 . S
C961 C962 1.391 . S
C962 C961 1.391 . S
C962 H1018 0.947 . S
C962 C1019 1.392 . S
C963 C964 1.391 . S
C963 C967 1.397 . S
C963 C1019 1.419 . S
C964 C960 1.391 . S
C964 C963 1.391 . S
C964 C965 1.399 . S
C965 C964 1.399 . S
C965 C968 1.396 . S
C965 C977 1.453 . S
C965 C978 1.684 . S
H966 C990 0.948 . S
C967 C963 1.397 . S
C967 C968 1.394 . S
C967 C986 1.723 . S
C968 C965 1.396 . S
C968 C967 1.394 . S
C968 C998 1.723 . S
H969 C992 0.947 . S
H970 C993 0.948 . S
H971 C999 0.982 . S
H972 C1000 0.979 . S
H973 C1000 0.980 . S
H974 C1000 0.983 . S
H975 C999 0.979 . S
H976 C999 0.977 . S
C977 C965 1.453 . S
C977 H1006 0.982 . S
C977 H1007 0.979 . S
C977 H1008 0.977 . S
C978 C965 1.684 . S
C978 H1003 0.979 . S
C978 H1004 0.980 . S
C978 H1005 0.983 . S
C979 C980 1.391 . S
C979 C984 1.391 . S
C979 H1009 0.948 . S
C980 C979 1.391 . S
C980 C981 1.391 . S
C981 C980 1.391 . S
C981 C982 1.392 . S
C981 H1010 0.947 . S
C982 C981 1.392 . S
C982 C983 1.419 . S
C982 H1011 0.948 . S
C983 C982 1.419 . S
C983 C984 1.391 . S
C983 C987 1.397 . S
C984 C979 1.391 . S
C984 C983 1.391 . S
C984 C985 1.399 . S
C985 C984 1.399 . S
C985 C986 1.396 . S
C985 C988 1.453 . S
C985 C989 1.684 . S
C986 C967 1.723 . S
C986 C985 1.396 . S
C986 C987 1.394 . S
C987 C983 1.397 . S
C987 C986 1.394 . S
C987 C997 1.723 . S
C988 C985 1.453 . S
C988 H1012 0.982 . S
C988 H1013 0.979 . S
C988 H1014 0.977 . S
C989 C985 1.684 . S
C989 H1015 0.979 . S
C989 H1016 0.980 . S
C989 H1017 0.983 . S
C990 H966 0.948 . S
C990 C991 1.391 . S
C990 C995 1.391 . S
C991 C990 1.391 . S
C991 C992 1.391 . S
C992 H969 0.947 . S
C992 C991 1.391 . S
C992 C993 1.392 . S
C993 H970 0.948 . S
C993 C992 1.392 . S
C993 C994 1.419 . S
C994 C993 1.419 . S
C994 C995 1.391 . S
C994 C998 1.397 . S
C995 C990 1.391 . S
C995 C994 1.391 . S
C995 C996 1.399 . S
C996 C995 1.399 . S
C996 C997 1.396 . S
C996 C999 1.453 . S
C996 C1000 1.684 . S
C997 C987 1.723 . S
C997 C996 1.396 . S
C997 C998 1.394 . S
C998 C968 1.723 . S
C998 C994 1.397 . S
C998 C997 1.394 . S
C999 H971 0.982 . S
C999 H975 0.979 . S
C999 H976 0.977 . S
C999 C996 1.453 . S
C1000 H972 0.979 . S
C1000 H973 0.980 . S
C1000 H974 0.983 . S
C1000 C996 1.684 . S
H1001 C1019 0.948 . S
H1002 C960 0.948 . S
H1003 C978 0.979 . S
H1004 C978 0.980 . S
H1005 C978 0.983 . S
H1006 C977 0.982 . S
H1007 C977 0.979 . S
H1008 C977 0.977 . S
H1009 C979 0.948 . S
H1010 C981 0.947 . S
H1011 C982 0.948 . S
H1012 C988 0.982 . S
H1013 C988 0.979 . S
H1014 C988 0.977 . S
H1015 C989 0.979 . S
H1016 C989 0.980 . S
H1017 C989 0.983 . S
H1018 C962 0.947 . S
C1019 C962 1.392 . S
C1019 C963 1.419 . S
C1019 H1001 0.948 . S
C1020 C1021 1.391 . S
C1020 C1024 1.391 . S
C1020 H1062 0.948 . S
C1021 C1020 1.391 . S
C1021 C1022 1.391 . S
C1022 C1021 1.391 . S
C1022 H1078 0.947 . S
C1022 C1079 1.392 . S
C1023 C1024 1.391 . S
C1023 C1027 1.397 . S
C1023 C1079 1.419 . S
C1024 C1020 1.391 . S
C1024 C1023 1.391 . S
C1024 C1025 1.399 . S
C1025 C1024 1.399 . S
C1025 C1028 1.396 . S
C1025 C1037 1.453 . S
C1025 C1038 1.684 . S
H1026 C1050 0.948 . S
C1027 C1023 1.397 . S
C1027 C1028 1.394 . S
C1027 C1046 1.723 . S
C1028 C1025 1.396 . S
C1028 C1027 1.394 . S
C1028 C1058 1.723 . S
H1029 C1052 0.947 . S
H1030 C1053 0.948 . S
H1031 C1059 0.982 . S
H1032 C1060 0.979 . S
H1033 C1060 0.980 . S
H1034 C1060 0.983 . S
H1035 C1059 0.979 . S
H1036 C1059 0.977 . S
C1037 C1025 1.453 . S
C1037 H1066 0.982 . S
C1037 H1067 0.979 . S
C1037 H1068 0.977 . S
C1038 C1025 1.684 . S
C1038 H1063 0.979 . S
C1038 H1064 0.980 . S
C1038 H1065 0.983 . S
C1039 C1040 1.391 . S
C1039 C1044 1.391 . S
C1039 H1069 0.948 . S
C1040 C1039 1.391 . S
C1040 C1041 1.391 . S
C1041 C1040 1.391 . S
C1041 C1042 1.392 . S
C1041 H1070 0.947 . S
C1042 C1041 1.392 . S
C1042 C1043 1.419 . S
C1042 H1071 0.948 . S
C1043 C1042 1.419 . S
C1043 C1044 1.391 . S
C1043 C1047 1.397 . S
C1044 C1039 1.391 . S
C1044 C1043 1.391 . S
C1044 C1045 1.399 . S
C1045 C1044 1.399 . S
C1045 C1046 1.396 . S
C1045 C1048 1.453 . S
C1045 C1049 1.684 . S
C1046 C1027 1.723 . S
C1046 C1045 1.396 . S
C1046 C1047 1.394 . S
C1047 C1043 1.397 . S
C1047 C1046 1.394 . S
C1047 C1057 1.723 . S
C1048 C1045 1.453 . S
C1048 H1072 0.982 . S
C1048 H1073 0.979 . S
C1048 H1074 0.977 . S
C1049 C1045 1.684 . S
C1049 H1075 0.979 . S
C1049 H1076 0.980 . S
C1049 H1077 0.983 . S
C1050 H1026 0.948 . S
C1050 C1051 1.391 . S
C1050 C1055 1.391 . S
C1051 C1050 1.391 . S
C1051 C1052 1.391 . S
C1052 H1029 0.947 . S
C1052 C1051 1.391 . S
C1052 C1053 1.392 . S
C1053 H1030 0.948 . S
C1053 C1052 1.392 . S
C1053 C1054 1.419 . S
C1054 C1053 1.419 . S
C1054 C1055 1.391 . S
C1054 C1058 1.397 . S
C1055 C1050 1.391 . S
C1055 C1054 1.391 . S
C1055 C1056 1.399 . S
C1056 C1055 1.399 . S
C1056 C1057 1.396 . S
C1056 C1059 1.453 . S
C1056 C1060 1.684 . S
C1057 C1047 1.723 . S
C1057 C1056 1.396 . S
C1057 C1058 1.394 . S
C1058 C1028 1.723 . S
C1058 C1054 1.397 . S
C1058 C1057 1.394 . S
C1059 H1031 0.982 . S
C1059 H1035 0.979 . S
C1059 H1036 0.977 . S
C1059 C1056 1.453 . S
C1060 H1032 0.979 . S
C1060 H1033 0.980 . S
C1060 H1034 0.983 . S
C1060 C1056 1.684 . S
H1061 C1079 0.948 . S
H1062 C1020 0.948 . S
H1063 C1038 0.979 . S
H1064 C1038 0.980 . S
H1065 C1038 0.983 . S
H1066 C1037 0.982 . S
H1067 C1037 0.979 . S
H1068 C1037 0.977 . S
H1069 C1039 0.948 . S
H1070 C1041 0.947 . S
H1071 C1042 0.948 . S
H1072 C1048 0.982 . S
H1073 C1048 0.979 . S
H1074 C1048 0.977 . S
H1075 C1049 0.979 . S
H1076 C1049 0.980 . S
H1077 C1049 0.983 . S
H1078 C1022 0.947 . S
C1079 C1022 1.392 . S
C1079 C1023 1.419 . S
C1079 H1061 0.948 . S
C1080 C1081 1.391 . S
C1080 C1084 1.391 . S
C1080 H1122 0.948 . S
C1081 C1080 1.391 . S
C1081 C1082 1.391 . S
C1082 C1081 1.391 . S
C1082 H1138 0.947 . S
C1082 C1139 1.392 . S
C1083 C1084 1.391 . S
C1083 C1087 1.397 . S
C1083 C1139 1.419 . S
C1084 C1080 1.391 . S
C1084 C1083 1.391 . S
C1084 C1085 1.399 . S
C1085 C1084 1.399 . S
C1085 C1088 1.396 . S
C1085 C1097 1.453 . S
C1085 C1098 1.684 . S
H1086 C1110 0.948 . S
C1087 C1083 1.397 . S
C1087 C1088 1.394 . S
C1087 C1106 1.723 . S
C1088 C1085 1.396 . S
C1088 C1087 1.394 . S
C1088 C1118 1.723 1_545 S
H1089 C1112 0.947 . S
H1090 C1113 0.948 . S
H1091 C1119 0.982 . S
H1092 C1120 0.979 . S
H1093 C1120 0.980 . S
H1094 C1120 0.983 . S
H1095 C1119 0.979 . S
H1096 C1119 0.977 . S
C1097 C1085 1.453 . S
C1097 H1126 0.982 . S
C1097 H1127 0.979 . S
C1097 H1128 0.977 1_545 S
C1098 C1085 1.684 . S
C1098 H1123 0.979 . S
C1098 H1124 0.943 1_545 S
C1098 H1125 0.983 . S
C1099 C1100 1.391 1_545 S
C1099 C1104 1.391 . S
C1099 H1129 0.948 . S
C1100 C1099 1.391 1_565 S
C1100 C1101 1.391 . S
C1101 C1100 1.391 . S
C1101 C1102 1.392 . S
C1101 H1130 0.947 . S
C1102 C1101 1.392 . S
C1102 C1103 1.419 . S
C1102 H1131 0.948 . S
C1103 C1102 1.419 . S
C1103 C1104 1.391 1_565 S
C1103 C1107 1.397 . S
C1104 C1099 1.391 . S
C1104 C1103 1.391 1_545 S
C1104 C1105 1.399 . S
C1105 C1104 1.399 . S
C1105 C1106 1.396 . S
C1105 C1108 1.453 . S
C1105 C1109 1.684 . S
C1106 C1087 1.723 . S
C1106 C1105 1.396 . S
C1106 C1107 1.394 1_545 S
C1107 C1103 1.397 . S
C1107 C1106 1.394 1_565 S
C1107 C1117 1.723 . S
C1108 C1105 1.453 . S
C1108 H1132 0.982 . S
C1108 H1133 0.979 . S
C1108 H1134 0.977 . S
C1109 C1105 1.684 . S
C1109 H1135 0.979 . S
C1109 H1136 0.980 . S
C1109 H1137 0.983 . S
C1110 H1086 0.948 . S
C1110 C1111 1.391 . S
C1110 C1115 1.391 . S
C1111 C1110 1.391 . S
C1111 C1112 1.391 . S
C1112 H1089 0.947 . S
C1112 C1111 1.391 . S
C1112 C1113 1.392 . S
C1113 H1090 0.948 . S
C1113 C1112 1.392 . S
C1113 C1114 1.419 . S
C1114 C1113 1.419 . S
C1114 C1115 1.391 . S
C1114 C1118 1.397 . S
C1115 C1110 1.391 . S
C1115 C1114 1.391 . S
C1115 C1116 1.399 . S
C1116 C1115 1.399 . S
C1116 C1117 1.396 . S
C1116 C1119 1.453 . S
C1116 C1120 1.684 . S
C1117 C1107 1.723 . S
C1117 C1116 1.396 . S
C1117 C1118 1.394 . S
C1118 C1088 1.723 1_565 S
C1118 C1114 1.397 . S
C1118 C1117 1.394 . S
C1119 H1091 0.982 . S
C1119 H1095 0.979 . S
C1119 H1096 0.977 . S
C1119 C1116 1.453 . S
C1120 H1092 0.979 . S
C1120 H1093 0.980 . S
C1120 H1094 0.983 . S
C1120 C1116 1.684 . S
H1121 C1139 0.948 . S
H1122 C1080 0.948 . S
H1123 C1098 0.979 . S
H1124 C1098 0.943 1_565 S
H1125 C1098 0.983 . S
H1126 C1097 0.982 . S
H1127 C1097 0.979 . S
H1128 C1097 0.977 1_565 S
H1129 C1099 0.948 . S
H1130 C1101 0.947 . S
H1131 C1102 0.948 . S
H1132 C1108 0.982 . S
H1133 C1108 0.979 . S
H1134 C1108 0.977 . S
H1135 C1109 0.979 . S
H1136 C1109 0.980 . S
H1137 C1109 0.983 . S
H1138 C1082 0.947 . S
C1139 C1082 1.392 . S
C1139 C1083 1.419 . S
C1139 H1121 0.948 . S
C1140 C1141 1.391 . S
C1140 C1144 1.391 . S
C1140 H1182 0.948 . S
C1141 C1140 1.391 . S
C1141 C1142 1.391 . S
C1142 C1141 1.391 . S
C1142 H1198 0.947 . S
C1142 C1199 1.392 . S
C1143 C1144 1.391 . S
C1143 C1147 1.397 . S
C1143 C1199 1.419 . S
C1144 C1140 1.391 . S
C1144 C1143 1.391 . S
C1144 C1145 1.399 . S
C1145 C1144 1.399 . S
C1145 C1148 1.396 . S
C1145 C1157 1.453 . S
C1145 C1158 1.684 . S
H1146 C1170 0.948 . S
C1147 C1143 1.397 . S
C1147 C1148 1.394 . S
C1147 C1166 1.723 . S
C1148 C1145 1.396 . S
C1148 C1147 1.394 . S
C1148 C1178 1.723 1_545 S
H1149 C1172 0.947 . S
H1150 C1173 0.948 . S
H1151 C1179 0.982 . S
H1152 C1180 0.979 . S
H1153 C1180 0.980 . S
H1154 C1180 0.983 . S
H1155 C1179 0.979 . S
H1156 C1179 0.977 . S
C1157 C1145 1.453 . S
C1157 H1186 0.982 . S
C1157 H1187 0.979 . S
C1157 H1188 0.977 . S
C1158 C1145 1.684 . S
C1158 H1183 0.979 . S
C1158 H1184 0.980 . S
C1158 H1185 0.983 . S
C1159 C1160 1.391 1_545 S
C1159 C1164 1.391 . S
C1159 H1189 0.948 . S
C1160 C1159 1.391 1_565 S
C1160 C1161 1.391 . S
C1161 C1160 1.391 . S
C1161 C1162 1.392 . S
C1161 H1190 0.947 . S
C1162 C1161 1.392 . S
C1162 C1163 1.419 . S
C1162 H1191 0.948 . S
C1163 C1162 1.419 . S
C1163 C1164 1.391 1_565 S
C1163 C1167 1.397 . S
C1164 C1159 1.391 . S
C1164 C1163 1.391 1_545 S
C1164 C1165 1.399 . S
C1165 C1164 1.399 . S
C1165 C1166 1.396 . S
C1165 C1168 1.453 . S
C1165 C1169 1.684 . S
C1166 C1147 1.723 . S
C1166 C1165 1.396 . S
C1166 C1167 1.394 1_545 S
C1167 C1163 1.397 . S
C1167 C1166 1.394 1_565 S
C1167 C1177 1.723 . S
C1168 C1165 1.453 . S
C1168 H1192 0.982 . S
C1168 H1193 0.979 . S
C1168 H1194 0.977 . S
C1169 C1165 1.684 . S
C1169 H1195 0.979 . S
C1169 H1196 0.980 . S
C1169 H1197 0.983 . S
C1170 H1146 0.948 . S
C1170 C1171 1.391 . S
C1170 C1175 1.391 . S
C1171 C1170 1.391 . S
C1171 C1172 1.391 . S
C1172 H1149 0.947 . S
C1172 C1171 1.391 . S
C1172 C1173 1.392 . S
C1173 H1150 0.948 . S
C1173 C1172 1.392 . S
C1173 C1174 1.419 . S
C1174 C1173 1.419 . S
C1174 C1175 1.391 . S
C1174 C1178 1.397 . S
C1175 C1170 1.391 . S
C1175 C1174 1.391 . S
C1175 C1176 1.399 . S
C1176 C1175 1.399 . S
C1176 C1177 1.396 . S
C1176 C1179 1.453 . S
C1176 C1180 1.684 . S
C1177 C1167 1.723 . S
C1177 C1176 1.396 . S
C1177 C1178 1.394 . S
C1178 C1148 1.723 1_565 S
C1178 C1174 1.397 . S
C1178 C1177 1.394 . S
C1179 H1151 0.982 . S
C1179 H1155 0.979 . S
C1179 H1156 0.977 . S
C1179 C1176 1.453 . S
C1180 H1152 0.979 . S
C1180 H1153 0.980 . S
C1180 H1154 0.983 . S
C1180 C1176 1.684 . S
H1181 C1199 0.948 . S
H1182 C1140 0.948 . S
H1183 C1158 0.979 . S
H1184 C1158 0.980 . S
H1185 C1158 0.983 . S
H1186 C1157 0.982 . S
H1187 C1157 0.979 . S
H1188 C1157 0.977 . S
H1189 C1159 0.948 . S
H1190 C1161 0.947 . S
H1191 C1162 0.948 . S
H1192 C1168 0.982 . S
H1193 C1168 0.979 . S
H1194 C1168 0.977 . S
H1195 C1169 0.979 . S
H1196 C1169 0.980 . S
H1197 C1169 0.983 . S
H1198 C1142 0.947 . S
C1199 C1142 1.392 . S
C1199 C1143 1.419 . S
C1199 H1181 0.948 . S
C1200 C1201 1.391 . S
C1200 C1204 1.391 . S
C1200 H1242 0.948 . S
C1201 C1200 1.391 . S
C1201 C1202 1.391 . S
C1202 C1201 1.391 . S
C1202 H1258 0.947 . S
C1202 C1259 1.392 . S
C1203 C1204 1.391 . S
C1203 C1207 1.397 . S
C1203 C1259 1.419 . S
C1204 C1200 1.391 . S
C1204 C1203 1.391 . S
C1204 C1205 1.399 . S
C1205 C1204 1.399 . S
C1205 C1208 1.396 . S
C1205 C1217 1.453 . S
C1205 C1218 1.684 . S
H1206 C1230 0.948 . S
C1207 C1203 1.397 . S
C1207 C1208 1.394 . S
C1207 C1226 1.723 . S
C1208 C1205 1.396 . S
C1208 C1207 1.394 . S
C1208 C1238 1.723 . S
H1209 C1232 0.947 . S
H1210 C1233 0.948 . S
H1211 C1239 0.982 . S
H1212 C1240 0.979 . S
H1213 C1240 0.980 . S
H1214 C1240 0.983 . S
H1215 C1239 0.979 . S
H1216 C1239 0.977 . S
C1217 C1205 1.453 . S
C1217 H1246 0.982 . S
C1217 H1247 0.979 . S
C1217 H1248 0.977 . S
C1218 C1205 1.684 . S
C1218 H1243 0.979 . S
C1218 H1244 0.980 . S
C1218 H1245 0.983 . S
C1219 C1220 1.391 . S
C1219 C1224 1.391 . S
C1219 H1249 0.948 . S
C1220 C1219 1.391 . S
C1220 C1221 1.391 . S
C1221 C1220 1.391 . S
C1221 C1222 1.392 . S
C1221 H1250 0.947 . S
C1222 C1221 1.392 . S
C1222 C1223 1.419 . S
C1222 H1251 0.948 . S
C1223 C1222 1.419 . S
C1223 C1224 1.391 . S
C1223 C1227 1.397 . S
C1224 C1219 1.391 . S
C1224 C1223 1.391 . S
C1224 C1225 1.399 . S
C1225 C1224 1.399 . S
C1225 C1226 1.396 . S
C1225 C1228 1.453 . S
C1225 C1229 1.684 . S
C1226 C1207 1.723 . S
C1226 C1225 1.396 . S
C1226 C1227 1.394 . S
C1227 C1223 1.397 . S
C1227 C1226 1.394 . S
C1227 C1237 1.723 . S
C1228 C1225 1.453 . S
C1228 H1252 0.982 . S
C1228 H1253 0.979 . S
C1228 H1254 0.977 . S
C1229 C1225 1.684 . S
C1229 H1255 0.979 . S
C1229 H1256 0.980 . S
C1229 H1257 0.983 . S
C1230 H1206 0.948 . S
C1230 C1231 1.391 . S
C1230 C1235 1.391 . S
C1231 C1230 1.391 . S
C1231 C1232 1.391 . S
C1232 H1209 0.947 . S
C1232 C1231 1.391 . S
C1232 C1233 1.392 . S
C1233 H1210 0.948 . S
C1233 C1232 1.392 . S
C1233 C1234 1.419 . S
C1234 C1233 1.419 . S
C1234 C1235 1.391 . S
C1234 C1238 1.397 . S
C1235 C1230 1.391 . S
C1235 C1234 1.391 . S
C1235 C1236 1.399 . S
C1236 C1235 1.399 . S
C1236 C1237 1.396 . S
C1236 C1239 1.453 . S
C1236 C1240 1.684 . S
C1237 C1227 1.723 . S
C1237 C1236 1.396 . S
C1237 C1238 1.394 . S
C1238 C1208 1.723 . S
C1238 C1234 1.397 . S
C1238 C1237 1.394 . S
C1239 H1211 0.982 . S
C1239 H1215 0.979 . S
C1239 H1216 0.977 . S
C1239 C1236 1.453 . S
C1240 H1212 0.979 . S
C1240 H1213 0.980 . S
C1240 H1214 0.983 . S
C1240 C1236 1.684 . S
H1241 C1259 0.948 . S
H1242 C1200 0.948 . S
H1243 C1218 0.979 . S
H1244 C1218 0.980 . S
H1245 C1218 0.983 . S
H1246 C1217 0.982 . S
H1247 C1217 0.979 . S
H1248 C1217 0.977 . S
H1249 C1219 0.948 . S
H1250 C1221 0.947 . S
H1251 C1222 0.948 . S
H1252 C1228 0.982 . S
H1253 C1228 0.979 . S
H1254 C1228 0.977 . S
H1255 C1229 0.979 . S
H1256 C1229 0.980 . S
H1257 C1229 0.983 . S
H1258 C1202 0.947 . S
C1259 C1202 1.392 . S
C1259 C1203 1.419 . S
C1259 H1241 0.948 . S
C1260 C1261 1.391 . S
C1260 C1264 1.391 . S
C1260 H1302 0.948 . S
C1261 C1260 1.391 . S
C1261 C1262 1.391 1_556 S
C1262 C1261 1.391 1_554 S
C1262 H1318 0.947 . S
C1262 C1319 1.392 . S
C1263 C1264 1.419 . S
C1263 C1267 1.396 1_556 S
C1263 C1319 1.398 1_556 S
C1264 C1260 1.391 . S
C1264 C1263 1.419 . S
C1264 C1265 1.399 . S
C1265 C1264 1.399 . S
C1265 C1268 1.396 . S
C1265 C1277 1.453 . S
C1265 C1278 1.684 . S
H1266 C1290 0.948 . S
C1267 C1263 1.396 1_554 S
C1267 C1268 1.382 1_554 S
C1267 C1286 1.734 . S
C1268 C1265 1.396 . S
C1268 C1267 1.382 1_556 S
C1268 C1298 1.723 . S
H1269 C1292 0.947 . S
H1270 C1293 0.948 . S
H1271 C1299 0.982 . S
H1272 C1300 0.979 . S
H1273 C1300 0.980 1_554 S
H1274 C1300 0.979 1_655 S
H1275 C1299 0.979 . S
H1276 C1299 0.977 1_554 S
C1277 C1265 1.453 . S
C1277 H1306 0.982 . S
C1277 H1307 0.979 . S
C1277 H1308 0.977 . S
C1278 C1265 1.684 . S
C1278 H1303 0.979 . S
C1278 H1304 0.980 . S
C1278 H1305 0.983 . S
C1279 C1280 1.391 . S
C1279 C1284 1.391 . S
C1279 H1309 0.948 . S
C1280 C1279 1.391 . S
C1280 C1281 1.391 . S
C1281 C1280 1.391 . S
C1281 C1282 1.392 . S
C1281 H1310 0.947 . S
C1282 C1281 1.392 . S
C1282 C1283 1.419 . S
C1282 H1311 0.948 . S
C1283 C1282 1.419 . S
C1283 C1284 1.391 . S
C1283 C1287 1.397 . S
C1284 C1279 1.391 . S
C1284 C1283 1.391 . S
C1284 C1285 1.399 . S
C1285 C1284 1.399 . S
C1285 C1286 1.396 . S
C1285 C1288 1.453 . S
C1285 C1289 1.684 . S
C1286 C1267 1.734 . S
C1286 C1285 1.396 . S
C1286 C1287 1.394 . S
C1287 C1283 1.397 . S
C1287 C1286 1.394 . S
C1287 C1297 1.723 1_554 S
C1288 C1285 1.453 . S
C1288 H1312 0.982 . S
C1288 H1313 0.979 . S
C1288 H1314 0.977 . S
C1289 C1285 1.684 . S
C1289 H1315 0.979 . S
C1289 H1316 0.980 . S
C1289 H1317 0.983 . S
C1290 H1266 0.948 . S
C1290 C1291 1.391 . S
C1290 C1295 1.391 . S
C1291 C1290 1.391 . S
C1291 C1292 1.391 . S
C1292 H1269 0.947 . S
C1292 C1291 1.391 . S
C1292 C1293 1.392 . S
C1293 H1270 0.948 . S
C1293 C1292 1.392 . S
C1293 C1294 1.419 . S
C1294 C1293 1.419 . S
C1294 C1295 1.391 . S
C1294 C1298 1.397 . S
C1295 C1290 1.391 . S
C1295 C1294 1.391 . S
C1295 C1296 1.399 . S
C1296 C1295 1.399 . S
C1296 C1297 1.396 . S
C1296 C1299 1.453 . S
C1296 C1300 1.684 . S
C1297 C1287 1.723 1_556 S
C1297 C1296 1.396 . S
C1297 C1298 1.394 . S
C1298 C1268 1.723 . S
C1298 C1294 1.397 . S
C1298 C1297 1.394 . S
C1299 H1271 0.982 . S
C1299 H1275 0.979 . S
C1299 H1276 0.977 1_556 S
C1299 C1296 1.453 . S
C1300 H1272 0.979 . S
C1300 H1273 0.980 1_556 S
C1300 H1274 0.979 1_455 S
C1300 C1296 1.684 . S
H1301 C1319 0.948 . S
H1302 C1260 0.948 . S
H1303 C1278 0.979 . S
H1304 C1278 0.980 . S
H1305 C1278 0.983 . S
H1306 C1277 0.982 . S
H1307 C1277 0.979 . S
H1308 C1277 0.977 . S
H1309 C1279 0.948 . S
H1310 C1281 0.947 . S
H1311 C1282 0.948 . S
H1312 C1288 0.982 . S
H1313 C1288 0.979 . S
H1314 C1288 0.977 . S
H1315 C1289 0.979 . S
H1316 C1289 0.980 . S
H1317 C1289 0.983 . S
H1318 C1262 0.947 . S
C1319 C1262 1.392 . S
C1319 C1263 1.398 1_554 S
C1319 H1301 0.948 . S
C1320 C1321 1.391 . S
C1320 C1324 1.391 . S
C1320 H1362 0.948 . S
C1321 C1320 1.391 . S
C1321 C1322 1.391 . S
C1322 C1321 1.391 . S
C1322 H1378 0.947 . S
C1322 C1379 1.392 . S
C1323 C1324 1.391 . S
C1323 C1327 1.397 . S
C1323 C1379 1.419 . S
C1324 C1320 1.391 . S
C1324 C1323 1.391 . S
C1324 C1325 1.399 . S
C1325 C1324 1.399 . S
C1325 C1328 1.396 . S
C1325 C1337 1.453 . S
C1325 C1338 1.684 . S
H1326 C1350 0.948 . S
C1327 C1323 1.397 . S
C1327 C1328 1.394 . S
C1327 C1346 1.723 . S
C1328 C1325 1.396 . S
C1328 C1327 1.394 . S
C1328 C1358 1.723 . S
H1329 C1352 0.947 . S
H1330 C1353 0.948 . S
H1331 C1359 0.982 . S
H1332 C1360 0.979 . S
H1333 C1360 0.980 . S
H1334 C1360 0.983 . S
H1335 C1359 0.979 . S
H1336 C1359 0.977 . S
C1337 C1325 1.453 . S
C1337 H1366 0.982 . S
C1337 H1367 0.979 . S
C1337 H1368 0.977 . S
C1338 C1325 1.684 . S
C1338 H1363 0.979 . S
C1338 H1364 0.980 . S
C1338 H1365 0.983 . S
C1339 C1340 1.391 . S
C1339 C1344 1.391 . S
C1339 H1369 0.948 . S
C1340 C1339 1.391 . S
C1340 C1341 1.391 . S
C1341 C1340 1.391 . S
C1341 C1342 1.392 . S
C1341 H1370 0.947 . S
C1342 C1341 1.392 . S
C1342 C1343 1.419 . S
C1342 H1371 0.948 . S
C1343 C1342 1.419 . S
C1343 C1344 1.391 . S
C1343 C1347 1.397 . S
C1344 C1339 1.391 . S
C1344 C1343 1.391 . S
C1344 C1345 1.399 . S
C1345 C1344 1.399 . S
C1345 C1346 1.396 . S
C1345 C1348 1.453 . S
C1345 C1349 1.684 . S
C1346 C1327 1.723 . S
C1346 C1345 1.396 . S
C1346 C1347 1.394 . S
C1347 C1343 1.397 . S
C1347 C1346 1.394 . S
C1347 C1357 1.723 . S
C1348 C1345 1.453 . S
C1348 H1372 0.982 . S
C1348 H1373 0.979 . S
C1348 H1374 0.977 . S
C1349 C1345 1.684 . S
C1349 H1375 0.979 . S
C1349 H1376 0.980 . S
C1349 H1377 0.983 . S
C1350 H1326 0.948 . S
C1350 C1351 1.391 . S
C1350 C1355 1.391 . S
C1351 C1350 1.391 . S
C1351 C1352 1.391 . S
C1352 H1329 0.947 . S
C1352 C1351 1.391 . S
C1352 C1353 1.392 . S
C1353 H1330 0.948 . S
C1353 C1352 1.392 . S
C1353 C1354 1.419 . S
C1354 C1353 1.419 . S
C1354 C1355 1.391 . S
C1354 C1358 1.397 . S
C1355 C1350 1.391 . S
C1355 C1354 1.391 . S
C1355 C1356 1.399 . S
C1356 C1355 1.399 . S
C1356 C1357 1.396 . S
C1356 C1359 1.453 . S
C1356 C1360 1.684 . S
C1357 C1347 1.723 . S
C1357 C1356 1.396 . S
C1357 C1358 1.394 . S
C1358 C1328 1.723 . S
C1358 C1354 1.397 . S
C1358 C1357 1.394 . S
C1359 H1331 0.982 . S
C1359 H1335 0.979 . S
C1359 H1336 0.977 . S
C1359 C1356 1.453 . S
C1360 H1332 0.979 . S
C1360 H1333 0.980 . S
C1360 H1334 0.983 . S
C1360 C1356 1.684 . S
H1361 C1379 0.948 . S
H1362 C1320 0.948 . S
H1363 C1338 0.979 . S
H1364 C1338 0.980 . S
H1365 C1338 0.983 . S
H1366 C1337 0.982 . S
H1367 C1337 0.979 . S
H1368 C1337 0.977 . S
H1369 C1339 0.948 . S
H1370 C1341 0.947 . S
H1371 C1342 0.948 . S
H1372 C1348 0.982 . S
H1373 C1348 0.979 . S
H1374 C1348 0.977 . S
H1375 C1349 0.979 . S
H1376 C1349 0.980 . S
H1377 C1349 0.983 . S
H1378 C1322 0.947 . S
C1379 C1322 1.392 . S
C1379 C1323 1.419 . S
C1379 H1361 0.948 . S
C1380 C1381 1.391 1_554 S
C1380 C1384 1.391 . S
C1380 H1422 0.948 . S
C1381 C1380 1.391 1_556 S
C1381 C1382 1.391 . S
C1382 C1381 1.391 . S
C1382 H1438 0.947 . S
C1382 C1439 1.392 . S
C1383 C1384 1.391 1_556 S
C1383 C1387 1.397 . S
C1383 C1439 1.419 . S
C1384 C1380 1.391 . S
C1384 C1383 1.391 1_554 S
C1384 C1385 1.399 . S
C1385 C1384 1.399 . S
C1385 C1388 1.396 . S
C1385 C1397 1.453 . S
C1385 C1398 1.684 . S
H1386 C1410 0.948 . S
C1387 C1383 1.397 . S
C1387 C1388 1.394 1_556 S
C1387 C1406 1.723 . S
C1388 C1385 1.396 . S
C1388 C1387 1.394 1_554 S
C1388 C1418 1.723 . S
H1389 C1412 0.947 . S
H1390 C1413 0.948 . S
H1391 C1419 0.982 . S
H1392 C1420 0.979 . S
H1393 C1420 0.943 1_556 S
H1394 C1420 0.983 . S
H1395 C1419 0.979 . S
H1396 C1419 0.977 1_556 S
C1397 C1385 1.453 . S
C1397 H1426 0.982 . S
C1397 H1427 0.979 . S
C1397 H1428 0.977 . S
C1398 C1385 1.684 . S
C1398 H1423 0.979 . S
C1398 H1424 0.980 . S
C1398 H1425 0.983 . S
C1399 C1400 1.391 . S
C1399 C1404 1.391 . S
C1399 H1429 0.948 . S
C1400 C1399 1.391 . S
C1400 C1401 1.391 . S
C1401 C1400 1.391 . S
C1401 C1402 1.392 . S
C1401 H1430 0.947 . S
C1402 C1401 1.392 . S
C1402 C1403 1.419 . S
C1402 H1431 0.948 . S
C1403 C1402 1.419 . S
C1403 C1404 1.391 . S
C1403 C1407 1.397 . S
C1404 C1399 1.391 . S
C1404 C1403 1.391 . S
C1404 C1405 1.399 . S
C1405 C1404 1.399 . S
C1405 C1406 1.396 . S
C1405 C1408 1.453 . S
C1405 C1409 1.684 . S
C1406 C1387 1.723 . S
C1406 C1405 1.396 . S
C1406 C1407 1.394 . S
C1407 C1403 1.397 . S
C1407 C1406 1.394 . S
C1407 C1417 1.723 1_556 S
C1408 C1405 1.453 . S
C1408 H1432 0.982 . S
C1408 H1433 0.979 . S
C1408 H1434 0.977 . S
C1409 C1405 1.684 . S
C1409 H1435 0.979 . S
C1409 H1436 0.980 . S
C1409 H1437 0.983 . S
C1410 H1386 0.948 . S
C1410 C1411 1.391 . S
C1410 C1415 1.391 . S
C1411 C1410 1.391 . S
C1411 C1412 1.391 . S
C1412 H1389 0.947 . S
C1412 C1411 1.391 . S
C1412 C1413 1.392 . S
C1413 H1390 0.948 . S
C1413 C1412 1.392 . S
C1413 C1414 1.419 . S
C1414 C1413 1.419 . S
C1414 C1415 1.391 . S
C1414 C1418 1.397 . S
C1415 C1410 1.391 . S
C1415 C1414 1.391 . S
C1415 C1416 1.399 . S
C1416 C1415 1.399 . S
C1416 C1417 1.396 . S
C1416 C1419 1.453 . S
C1416 C1420 1.684 . S
C1417 C1407 1.723 1_554 S
C1417 C1416 1.396 . S
C1417 C1418 1.394 . S
C1418 C1388 1.723 . S
C1418 C1414 1.397 . S
C1418 C1417 1.394 . S
C1419 H1391 0.982 . S
C1419 H1395 0.979 . S
C1419 H1396 0.977 1_554 S
C1419 C1416 1.453 . S
C1420 H1392 0.979 . S
C1420 H1393 0.943 1_554 S
C1420 H1394 0.983 . S
C1420 C1416 1.684 . S
H1421 C1439 0.948 . S
H1422 C1380 0.948 . S
H1423 C1398 0.979 . S
H1424 C1398 0.980 . S
H1425 C1398 0.983 . S
H1426 C1397 0.982 . S
H1427 C1397 0.979 . S
H1428 C1397 0.977 . S
H1429 C1399 0.948 . S
H1430 C1401 0.947 . S
H1431 C1402 0.948 . S
H1432 C1408 0.982 . S
H1433 C1408 0.979 . S
H1434 C1408 0.977 . S
H1435 C1409 0.979 . S
H1436 C1409 0.980 . S
H1437 C1409 0.983 . S
H1438 C1382 0.947 . S
C1439 C1382 1.392 . S
C1439 C1383 1.419 . S
C1439 H1421 0.948 . S
C1440 C1441 1.391 . S
C1440 C1444 1.391 . S
C1440 H1482 0.948 . S
C1441 C1440 1.391 . S
C1441 C1442 1.391 . S
C1442 C1441 1.391 . S
C1442 H1498 0.947 . S
C1442 C1499 1.392 . S
C1443 C1444 1.391 . S
C1443 C1447 1.397 . S
C1443 C1499 1.419 . S
C1444 C1440 1.391 . S
C1444 C1443 1.391 . S
C1444 C1445 1.399 . S
C1445 C1444 1.399 . S
C1445 C1448 1.396 . S
C1445 C1457 1.453 . S
C1445 C1458 1.684 . S
H1446 C1470 0.948 . S
C1447 C1443 1.397 . S
C1447 C1448 1.394 . S
C1447 C1466 1.723 . S
C1448 C1445 1.396 . S
C1448 C1447 1.394 . S
C1448 C1478 1.723 . S
H1449 C1472 0.947 . S
H1450 C1473 0.948 . S
H1451 C1479 0.982 . S
H1452 C1480 0.979 . S
H1453 C1480 0.980 . S
H1454 C1480 0.983 . S
H1455 C1479 0.979 . S
H1456 C1479 0.977 . S
C1457 C1445 1.453 . S
C1457 H1486 0.982 . S
C1457 H1487 0.979 . S
C1457 H1488 0.977 . S
C1458 C1445 1.684 . S
C1458 H1483 0.979 . S
C1458 H1484 0.980 . S
C1458 H1485 0.983 . S
C1459 C1460 1.391 . S
C1459 C1464 1.391 . S
C1459 H1489 0.948 . S
C1460 C1459 1.391 . S
C1460 C1461 1.391 . S
C1461 C1460 1.391 . S
C1461 C1462 1.392 . S
C1461 H1490 0.947 . S
C1462 C1461 1.392 . S
C1462 C1463 1.419 . S
C1462 H1491 0.948 . S
C1463 C1462 1.419 . S
C1463 C1464 1.391 . S
C1463 C1467 1.397 . S
C1464 C1459 1.391 . S
C1464 C1463 1.391 . S
C1464 C1465 1.399 . S
C1465 C1464 1.399 . S
C1465 C1466 1.396 . S
C1465 C1468 1.453 . S
C1465 C1469 1.684 . S
C1466 C1447 1.723 . S
C1466 C1465 1.396 . S
C1466 C1467 1.394 . S
C1467 C1463 1.397 . S
C1467 C1466 1.394 . S
C1467 C1477 1.723 . S
C1468 C1465 1.453 . S
C1468 H1492 0.982 . S
C1468 H1493 0.979 . S
C1468 H1494 0.977 . S
C1469 C1465 1.684 . S
C1469 H1495 0.979 . S
C1469 H1496 0.980 . S
C1469 H1497 0.983 . S
C1470 H1446 0.948 . S
C1470 C1471 1.391 . S
C1470 C1475 1.391 . S
C1471 C1470 1.391 . S
C1471 C1472 1.391 . S
C1472 H1449 0.947 . S
C1472 C1471 1.391 . S
C1472 C1473 1.392 . S
C1473 H1450 0.948 . S
C1473 C1472 1.392 . S
C1473 C1474 1.419 . S
C1474 C1473 1.419 . S
C1474 C1475 1.391 . S
C1474 C1478 1.397 . S
C1475 C1470 1.391 . S
C1475 C1474 1.391 . S
C1475 C1476 1.399 . S
C1476 C1475 1.399 . S
C1476 C1477 1.396 . S
C1476 C1479 1.453 . S
C1476 C1480 1.684 . S
C1477 C1467 1.723 . S
C1477 C1476 1.396 . S
C1477 C1478 1.394 . S
C1478 C1448 1.723 . S
C1478 C1474 1.397 . S
C1478 C1477 1.394 . S
C1479 H1451 0.982 . S
C1479 H1455 0.979 . S
C1479 H1456 0.977 . S
C1479 C1476 1.453 . S
C1480 H1452 0.979 . S
C1480 H1453 0.980 . S
C1480 H1454 0.983 . S
C1480 C1476 1.684 . S
H1481 C1499 0.948 . S
H1482 C1440 0.948 . S
H1483 C1458 0.979 . S
H1484 C1458 0.980 . S
H1485 C1458 0.983 . S
H1486 C1457 0.982 . S
H1487 C1457 0.979 . S
H1488 C1457 0.977 . S
H1489 C1459 0.948 . S
H1490 C1461 0.947 . S
H1491 C1462 0.948 . S
H1492 C1468 0.982 . S
H1493 C1468 0.979 . S
H1494 C1468 0.977 . S
H1495 C1469 0.979 . S
H1496 C1469 0.980 . S
H1497 C1469 0.983 . S
H1498 C1442 0.947 . S
C1499 C1442 1.392 . S
C1499 C1443 1.419 . S
C1499 H1481 0.948 . S
C1500 C1501 1.391 . S
C1500 C1504 1.391 . S
C1500 H1542 0.948 . S
C1501 C1500 1.391 . S
C1501 C1502 1.391 . S
C1502 C1501 1.391 . S
C1502 H1558 0.947 . S
C1502 C1559 1.392 . S
C1503 C1504 1.391 . S
C1503 C1507 1.397 . S
C1503 C1559 1.419 . S
C1504 C1500 1.391 . S
C1504 C1503 1.391 . S
C1504 C1505 1.399 . S
C1505 C1504 1.399 . S
C1505 C1508 1.396 . S
C1505 C1517 1.453 . S
C1505 C1518 1.684 . S
H1506 C1530 0.948 . S
C1507 C1503 1.397 . S
C1507 C1508 1.394 . S
C1507 C1526 1.723 . S
C1508 C1505 1.396 . S
C1508 C1507 1.394 . S
C1508 C1538 1.723 1_455 S
H1509 C1532 0.947 . S
H1510 C1533 0.948 . S
H1511 C1539 0.982 . S
H1512 C1540 0.979 . S
H1513 C1540 0.980 . S
H1514 C1540 0.983 . S
H1515 C1539 0.979 . S
H1516 C1539 0.977 . S
C1517 C1505 1.453 . S
C1517 H1546 0.982 . S
C1517 H1547 0.979 . S
C1517 H1548 0.977 . S
C1518 C1505 1.684 . S
C1518 H1543 0.979 . S
C1518 H1544 0.980 . S
C1518 H1545 0.983 . S
C1519 C1520 1.391 1_455 S
C1519 C1524 1.391 . S
C1519 H1549 0.948 . S
C1520 C1519 1.391 1_655 S
C1520 C1521 1.391 . S
C1521 C1520 1.391 . S
C1521 C1522 1.392 . S
C1521 H1550 0.947 . S
C1522 C1521 1.392 . S
C1522 C1523 1.419 . S
C1522 H1551 0.948 . S
C1523 C1522 1.419 . S
C1523 C1524 1.391 1_655 S
C1523 C1527 1.397 . S
C1524 C1519 1.391 . S
C1524 C1523 1.391 1_455 S
C1524 C1525 1.399 . S
C1525 C1524 1.399 . S
C1525 C1526 1.396 . S
C1525 C1528 1.453 . S
C1525 C1529 1.684 . S
C1526 C1507 1.723 . S
C1526 C1525 1.396 . S
C1526 C1527 1.394 1_455 S
C1527 C1523 1.397 . S
C1527 C1526 1.394 1_655 S
C1527 C1537 1.723 . S
C1528 C1525 1.453 . S
C1528 H1552 0.982 . S
C1528 H1553 0.979 . S
C1528 H1554 0.977 . S
C1529 C1525 1.684 . S
C1529 H1555 0.979 . S
C1529 H1556 0.980 . S
C1529 H1557 0.983 . S
C1530 H1506 0.948 . S
C1530 C1531 1.391 . S
C1530 C1535 1.391 . S
C1531 C1530 1.391 . S
C1531 C1532 1.391 . S
C1532 H1509 0.947 . S
C1532 C1531 1.391 . S
C1532 C1533 1.392 . S
C1533 H1510 0.948 . S
C1533 C1532 1.392 . S
C1533 C1534 1.419 . S
C1534 C1533 1.419 . S
C1534 C1535 1.391 . S
C1534 C1538 1.397 . S
C1535 C1530 1.391 . S
C1535 C1534 1.391 . S
C1535 C1536 1.399 . S
C1536 C1535 1.399 . S
C1536 C1537 1.396 . S
C1536 C1539 1.453 . S
C1536 C1540 1.684 . S
C1537 C1527 1.723 . S
C1537 C1536 1.396 . S
C1537 C1538 1.394 . S
C1538 C1508 1.723 1_655 S
C1538 C1534 1.397 . S
C1538 C1537 1.394 . S
C1539 H1511 0.982 . S
C1539 H1515 0.979 . S
C1539 H1516 0.977 . S
C1539 C1536 1.453 . S
C1540 H1512 0.979 . S
C1540 H1513 0.980 . S
C1540 H1514 0.983 . S
C1540 C1536 1.684 . S
H1541 C1559 0.948 . S
H1542 C1500 0.948 . S
H1543 C1518 0.979 . S
H1544 C1518 0.980 . S
H1545 C1518 0.983 . S
H1546 C1517 0.982 . S
H1547 C1517 0.979 . S
H1548 C1517 0.977 . S
H1549 C1519 0.948 . S
H1550 C1521 0.947 . S
H1551 C1522 0.948 . S
H1552 C1528 0.982 . S
H1553 C1528 0.979 . S
H1554 C1528 0.977 . S
H1555 C1529 0.979 . S
H1556 C1529 0.980 . S
H1557 C1529 0.983 . S
H1558 C1502 0.947 . S
C1559 C1502 1.392 . S
C1559 C1503 1.419 . S
C1559 H1541 0.948 . S
C1560 C1561 1.391 . S
C1560 C1564 1.391 . S
C1560 H1602 0.948 . S
C1561 C1560 1.391 . S
C1561 C1562 1.391 . S
C1562 C1561 1.391 . S
C1562 H1618 0.947 . S
C1562 C1619 1.392 . S
C1563 C1564 1.391 . S
C1563 C1567 1.397 . S
C1563 C1619 1.419 . S
C1564 C1560 1.391 . S
C1564 C1563 1.391 . S
C1564 C1565 1.399 . S
C1565 C1564 1.399 . S
C1565 C1568 1.396 . S
C1565 C1577 1.453 . S
C1565 C1578 1.684 . S
H1566 C1590 0.948 . S
C1567 C1563 1.397 . S
C1567 C1568 1.394 . S
C1567 C1586 1.723 . S
C1568 C1565 1.396 . S
C1568 C1567 1.394 . S
C1568 C1598 1.723 . S
H1569 C1592 0.947 . S
H1570 C1593 0.948 . S
H1571 C1599 0.982 . S
H1572 C1600 0.979 . S
H1573 C1600 0.980 . S
H1574 C1600 0.983 . S
H1575 C1599 0.979 . S
H1576 C1599 0.977 . S
C1577 C1565 1.453 . S
C1577 H1606 0.982 . S
C1577 H1607 0.979 . S
C1577 H1608 0.977 . S
C1578 C1565 1.684 . S
C1578 H1603 0.979 . S
C1578 H1604 0.980 . S
C1578 H1605 0.983 . S
C1579 C1580 1.391 . S
C1579 C1584 1.391 . S
C1579 H1609 0.948 . S
C1580 C1579 1.391 . S
C1580 C1581 1.391 . S
C1581 C1580 1.391 . S
C1581 C1582 1.392 . S
C1581 H1610 0.947 . S
C1582 C1581 1.392 . S
C1582 C1583 1.419 . S
C1582 H1611 0.948 . S
C1583 C1582 1.419 . S
C1583 C1584 1.391 . S
C1583 C1587 1.397 . S
C1584 C1579 1.391 . S
C1584 C1583 1.391 . S
C1584 C1585 1.399 . S
C1585 C1584 1.399 . S
C1585 C1586 1.396 . S
C1585 C1588 1.453 . S
C1585 C1589 1.684 . S
C1586 C1567 1.723 . S
C1586 C1585 1.396 . S
C1586 C1587 1.394 . S
C1587 C1583 1.397 . S
C1587 C1586 1.394 . S
C1587 C1597 1.723 . S
C1588 C1585 1.453 . S
C1588 H1612 0.982 . S
C1588 H1613 0.979 . S
C1588 H1614 0.977 . S
C1589 C1585 1.684 . S
C1589 H1615 0.979 . S
C1589 H1616 0.980 . S
C1589 H1617 0.983 . S
C1590 H1566 0.948 . S
C1590 C1591 1.391 . S
C1590 C1595 1.391 . S
C1591 C1590 1.391 . S
C1591 C1592 1.391 . S
C1592 H1569 0.947 . S
C1592 C1591 1.391 . S
C1592 C1593 1.392 . S
C1593 H1570 0.948 . S
C1593 C1592 1.392 . S
C1593 C1594 1.419 . S
C1594 C1593 1.419 . S
C1594 C1595 1.391 . S
C1594 C1598 1.397 . S
C1595 C1590 1.391 . S
C1595 C1594 1.391 . S
C1595 C1596 1.399 . S
C1596 C1595 1.399 . S
C1596 C1597 1.396 . S
C1596 C1599 1.453 . S
C1596 C1600 1.684 . S
C1597 C1587 1.723 . S
C1597 C1596 1.396 . S
C1597 C1598 1.394 . S
C1598 C1568 1.723 . S
C1598 C1594 1.397 . S
C1598 C1597 1.394 . S
C1599 H1571 0.982 . S
C1599 H1575 0.979 . S
C1599 H1576 0.977 . S
C1599 C1596 1.453 . S
C1600 H1572 0.979 . S
C1600 H1573 0.980 . S
C1600 H1574 0.983 . S
C1600 C1596 1.684 . S
H1601 C1619 0.948 . S
H1602 C1560 0.948 . S
H1603 C1578 0.979 . S
H1604 C1578 0.980 . S
H1605 C1578 0.983 . S
H1606 C1577 0.982 . S
H1607 C1577 0.979 . S
H1608 C1577 0.977 . S
H1609 C1579 0.948 . S
H1610 C1581 0.947 . S
H1611 C1582 0.948 . S
H1612 C1588 0.982 . S
H1613 C1588 0.979 . S
H1614 C1588 0.977 . S
H1615 C1589 0.979 . S
H1616 C1589 0.980 . S
H1617 C1589 0.983 . S
H1618 C1562 0.947 . S
C1619 C1562 1.392 . S
C1619 C1563 1.419 . S
C1619 H1601 0.948 . S
C1620 C1621 1.391 . S
C1620 C1624 1.391 . S
C1620 H1662 0.948 . S
C1621 C1620 1.391 . S
C1621 C1622 1.391 . S
C1622 C1621 1.391 . S
C1622 H1678 0.947 . S
C1622 C1679 1.392 . S
C1623 C1624 1.391 . S
C1623 C1627 1.397 . S
C1623 C1679 1.419 . S
C1624 C1620 1.391 . S
C1624 C1623 1.391 . S
C1624 C1625 1.399 . S
C1625 C1624 1.399 . S
C1625 C1628 1.396 . S
C1625 C1637 1.453 . S
C1625 C1638 1.684 . S
H1626 C1650 0.948 . S
C1627 C1623 1.397 . S
C1627 C1628 1.394 . S
C1627 C1646 1.723 . S
C1628 C1625 1.396 . S
C1628 C1627 1.394 . S
C1628 C1658 1.723 1_455 S
H1629 C1652 0.947 . S
H1630 C1653 0.948 . S
H1631 C1659 0.982 . S
H1632 C1660 0.979 . S
H1633 C1660 0.980 . S
H1634 C1660 0.983 . S
H1635 C1659 0.979 . S
H1636 C1659 0.977 . S
C1637 C1625 1.453 . S
C1637 H1666 0.982 . S
C1637 H1667 0.979 . S
C1637 H1668 0.977 1_455 S
C1638 C1625 1.684 . S
C1638 H1663 0.979 . S
C1638 H1664 0.943 1_455 S
C1638 H1665 0.983 . S
C1639 C1640 1.391 1_455 S
C1639 C1644 1.391 . S
C1639 H1669 0.948 . S
C1640 C1639 1.391 1_655 S
C1640 C1641 1.391 . S
C1641 C1640 1.391 . S
C1641 C1642 1.392 . S
C1641 H1670 0.947 . S
C1642 C1641 1.392 . S
C1642 C1643 1.419 . S
C1642 H1671 0.948 . S
C1643 C1642 1.419 . S
C1643 C1644 1.391 1_655 S
C1643 C1647 1.397 . S
C1644 C1639 1.391 . S
C1644 C1643 1.391 1_455 S
C1644 C1645 1.399 . S
C1645 C1644 1.399 . S
C1645 C1646 1.396 . S
C1645 C1648 1.453 . S
C1645 C1649 1.684 . S
C1646 C1627 1.723 . S
C1646 C1645 1.396 . S
C1646 C1647 1.394 1_455 S
C1647 C1643 1.397 . S
C1647 C1646 1.394 1_655 S
C1647 C1657 1.723 . S
C1648 C1645 1.453 . S
C1648 H1672 0.982 . S
C1648 H1673 0.979 . S
C1648 H1674 0.977 . S
C1649 C1645 1.684 . S
C1649 H1675 0.979 . S
C1649 H1676 0.980 . S
C1649 H1677 0.983 . S
C1650 H1626 0.948 . S
C1650 C1651 1.391 . S
C1650 C1655 1.391 . S
C1651 C1650 1.391 . S
C1651 C1652 1.391 . S
C1652 H1629 0.947 . S
C1652 C1651 1.391 . S
C1652 C1653 1.392 . S
C1653 H1630 0.948 . S
C1653 C1652 1.392 . S
C1653 C1654 1.419 . S
C1654 C1653 1.419 . S
C1654 C1655 1.391 . S
C1654 C1658 1.397 . S
C1655 C1650 1.391 . S
C1655 C1654 1.391 . S
C1655 C1656 1.399 . S
C1656 C1655 1.399 . S
C1656 C1657 1.396 . S
C1656 C1659 1.453 . S
C1656 C1660 1.684 . S
C1657 C1647 1.723 . S
C1657 C1656 1.396 . S
C1657 C1658 1.394 . S
C1658 C1628 1.723 1_655 S
C1658 C1654 1.397 . S
C1658 C1657 1.394 . S
C1659 H1631 0.982 . S
C1659 H1635 0.979 . S
C1659 H1636 0.977 . S
C1659 C1656 1.453 . S
C1660 H1632 0.979 . S
C1660 H1633 0.980 . S
C1660 H1634 0.983 . S
C1660 C1656 1.684 . S
H1661 C1679 0.948 . S
H1662 C1620 0.948 . S
H1663 C1638 0.979 . S
H1664 C1638 0.943 1_655 S
H1665 C1638 0.983 . S
H1666 C1637 0.982 . S
H1667 C1637 0.979 . S
H1668 C1637 0.977 1_655 S
H1669 C1639 0.948 . S
H1670 C1641 0.947 . S
H1671 C1642 0.948 . S
H1672 C1648 0.982 . S
H1673 C1648 0.979 . S
H1674 C1648 0.977 . S
H1675 C1649 0.979 . S
H1676 C1649 0.980 . S
H1677 C1649 0.983 . S
H1678 C1622 0.947 . S
C1679 C1622 1.392 . S
C1679 C1623 1.419 . S
C1679 H1661 0.948 . S
C1680 C1681 1.391 . S
C1680 C1684 1.391 . S
C1680 H1722 0.948 . S
C1681 C1680 1.391 . S
C1681 C1682 1.391 . S
C1682 C1681 1.391 . S
C1682 H1738 0.947 . S
C1682 C1739 1.392 . S
C1683 C1684 1.391 . S
C1683 C1687 1.397 . S
C1683 C1739 1.419 . S
C1684 C1680 1.391 . S
C1684 C1683 1.391 . S
C1684 C1685 1.399 . S
C1685 C1684 1.399 . S
C1685 C1688 1.396 . S
C1685 C1697 1.453 . S
C1685 C1698 1.684 . S
H1686 C1710 0.948 . S
C1687 C1683 1.397 . S
C1687 C1688 1.394 . S
C1687 C1706 1.723 . S
C1688 C1685 1.396 . S
C1688 C1687 1.394 . S
C1688 C1718 1.723 . S
H1689 C1712 0.947 . S
H1690 C1713 0.948 . S
H1691 C1719 0.982 . S
H1692 C1720 0.979 . S
H1693 C1720 0.980 . S
H1694 C1720 0.983 . S
H1695 C1719 0.979 . S
H1696 C1719 0.977 . S
C1697 C1685 1.453 . S
C1697 H1726 0.982 . S
C1697 H1727 0.979 . S
C1697 H1728 0.977 . S
C1698 C1685 1.684 . S
C1698 H1723 0.979 . S
C1698 H1724 0.980 . S
C1698 H1725 0.983 . S
C1699 C1700 1.391 . S
C1699 C1704 1.391 . S
C1699 H1729 0.948 . S
C1700 C1699 1.391 . S
C1700 C1701 1.391 . S
C1701 C1700 1.391 . S
C1701 C1702 1.392 . S
C1701 H1730 0.947 . S
C1702 C1701 1.392 . S
C1702 C1703 1.419 . S
C1702 H1731 0.948 . S
C1703 C1702 1.419 . S
C1703 C1704 1.391 . S
C1703 C1707 1.397 . S
C1704 C1699 1.391 . S
C1704 C1703 1.391 . S
C1704 C1705 1.399 . S
C1705 C1704 1.399 . S
C1705 C1706 1.396 . S
C1705 C1708 1.453 . S
C1705 C1709 1.684 . S
C1706 C1687 1.723 . S
C1706 C1705 1.396 . S
C1706 C1707 1.394 . S
C1707 C1703 1.397 . S
C1707 C1706 1.394 . S
C1707 C1717 1.723 . S
C1708 C1705 1.453 . S
C1708 H1732 0.982 . S
C1708 H1733 0.979 . S
C1708 H1734 0.977 . S
C1709 C1705 1.684 . S
C1709 H1735 0.979 . S
C1709 H1736 0.980 . S
C1709 H1737 0.983 . S
C1710 H1686 0.948 . S
C1710 C1711 1.391 . S
C1710 C1715 1.391 . S
C1711 C1710 1.391 . S
C1711 C1712 1.391 . S
C1712 H1689 0.947 . S
C1712 C1711 1.391 . S
C1712 C1713 1.392 . S
C1713 H1690 0.948 . S
C1713 C1712 1.392 . S
C1713 C1714 1.419 . S
C1714 C1713 1.419 . S
C1714 C1715 1.391 . S
C1714 C1718 1.397 . S
C1715 C1710 1.391 . S
C1715 C1714 1.391 . S
C1715 C1716 1.399 . S
C1716 C1715 1.399 . S
C1716 C1717 1.396 . S
C1716 C1719 1.453 . S
C1716 C1720 1.684 . S
C1717 C1707 1.723 . S
C1717 C1716 1.396 . S
C1717 C1718 1.394 . S
C1718 C1688 1.723 . S
C1718 C1714 1.397 . S
C1718 C1717 1.394 . S
C1719 H1691 0.982 . S
C1719 H1695 0.979 . S
C1719 H1696 0.977 . S
C1719 C1716 1.453 . S
C1720 H1692 0.979 . S
C1720 H1693 0.980 . S
C1720 H1694 0.983 . S
C1720 C1716 1.684 . S
H1721 C1739 0.948 . S
H1722 C1680 0.948 . S
H1723 C1698 0.979 . S
H1724 C1698 0.980 . S
H1725 C1698 0.983 . S
H1726 C1697 0.982 . S
H1727 C1697 0.979 . S
H1728 C1697 0.977 . S
H1729 C1699 0.948 . S
H1730 C1701 0.947 . S
H1731 C1702 0.948 . S
H1732 C1708 0.982 . S
H1733 C1708 0.979 . S
H1734 C1708 0.977 . S
H1735 C1709 0.979 . S
H1736 C1709 0.980 . S
H1737 C1709 0.983 . S
H1738 C1682 0.947 . S
C1739 C1682 1.392 . S
C1739 C1683 1.419 . S
C1739 H1721 0.948 . S
C1740 C1741 1.391 . S
C1740 C1744 1.391 . S
C1740 H1782 0.948 . S
C1741 C1740 1.391 . S
C1741 C1742 1.391 . S
C1742 C1741 1.391 . S
C1742 H1798 0.947 . S
C1742 C1799 1.392 . S
C1743 C1744 1.391 . S
C1743 C1747 1.397 . S
C1743 C1799 1.419 . S
C1744 C1740 1.391 . S
C1744 C1743 1.391 . S
C1744 C1745 1.399 . S
C1745 C1744 1.399 . S
C1745 C1748 1.396 . S
C1745 C1757 1.453 . S
C1745 C1758 1.684 . S
H1746 C1770 0.948 . S
C1747 C1743 1.397 . S
C1747 C1748 1.394 . S
C1747 C1766 1.723 . S
C1748 C1745 1.396 . S
C1748 C1747 1.394 . S
C1748 C1778 1.723 . S
H1749 C1772 0.947 . S
H1750 C1773 0.948 . S
H1751 C1779 0.982 . S
H1752 C1780 0.979 . S
H1753 C1780 0.980 . S
H1754 C1780 0.983 . S
H1755 C1779 0.979 . S
H1756 C1779 0.977 . S
C1757 C1745 1.453 . S
C1757 H1786 0.982 . S
C1757 H1787 0.979 . S
C1757 H1788 0.977 . S
C1758 C1745 1.684 . S
C1758 H1783 0.979 . S
C1758 H1784 0.980 . S
C1758 H1785 0.983 . S
C1759 C1760 1.391 . S
C1759 C1764 1.391 . S
C1759 H1789 0.948 . S
C1760 C1759 1.391 . S
C1760 C1761 1.391 . S
C1761 C1760 1.391 . S
C1761 C1762 1.392 . S
C1761 H1790 0.947 . S
C1762 C1761 1.392 . S
C1762 C1763 1.419 . S
C1762 H1791 0.948 . S
C1763 C1762 1.419 . S
C1763 C1764 1.391 . S
C1763 C1767 1.397 . S
C1764 C1759 1.391 . S
C1764 C1763 1.391 . S
C1764 C1765 1.399 . S
C1765 C1764 1.399 . S
C1765 C1766 1.396 . S
C1765 C1768 1.453 . S
C1765 C1769 1.684 . S
C1766 C1747 1.723 . S
C1766 C1765 1.396 . S
C1766 C1767 1.394 . S
C1767 C1763 1.397 . S
C1767 C1766 1.394 . S
C1767 C1777 1.723 . S
C1768 C1765 1.453 . S
C1768 H1792 0.982 . S
C1768 H1793 0.979 . S
C1768 H1794 0.977 . S
C1769 C1765 1.684 . S
C1769 H1795 0.979 . S
C1769 H1796 0.980 . S
C1769 H1797 0.983 . S
C1770 H1746 0.948 . S
C1770 C1771 1.391 . S
C1770 C1775 1.391 . S
C1771 C1770 1.391 . S
C1771 C1772 1.391 . S
C1772 H1749 0.947 . S
C1772 C1771 1.391 . S
C1772 C1773 1.392 . S
C1773 H1750 0.948 . S
C1773 C1772 1.392 . S
C1773 C1774 1.419 . S
C1774 C1773 1.419 . S
C1774 C1775 1.391 . S
C1774 C1778 1.397 . S
C1775 C1770 1.391 . S
C1775 C1774 1.391 . S
C1775 C1776 1.399 . S
C1776 C1775 1.399 . S
C1776 C1777 1.396 . S
C1776 C1779 1.453 . S
C1776 C1780 1.684 . S
C1777 C1767 1.723 . S
C1777 C1776 1.396 . S
C1777 C1778 1.394 . S
C1778 C1748 1.723 . S
C1778 C1774 1.397 . S
C1778 C1777 1.394 . S
C1779 H1751 0.982 . S
C1779 H1755 0.979 . S
C1779 H1756 0.977 . S
C1779 C1776 1.453 . S
C1780 H1752 0.979 . S
C1780 H1753 0.980 . S
C1780 H1754 0.983 . S
C1780 C1776 1.684 . S
H1781 C1799 0.948 . S
H1782 C1740 0.948 . S
H1783 C1758 0.979 . S
H1784 C1758 0.980 . S
H1785 C1758 0.983 . S
H1786 C1757 0.982 . S
H1787 C1757 0.979 . S
H1788 C1757 0.977 . S
H1789 C1759 0.948 . S
H1790 C1761 0.947 . S
H1791 C1762 0.948 . S
H1792 C1768 0.982 . S
H1793 C1768 0.979 . S
H1794 C1768 0.977 . S
H1795 C1769 0.979 . S
H1796 C1769 0.980 . S
H1797 C1769 0.983 . S
H1798 C1742 0.947 . S
C1799 C1742 1.392 . S
C1799 C1743 1.419 . S
C1799 H1781 0.948 . S
C1800 C1801 1.391 . S
C1800 C1804 1.391 . S
C1800 H1842 0.948 . S
C1801 C1800 1.391 . S
C1801 C1802 1.391 . S
C1802 C1801 1.391 . S
C1802 H1858 0.947 . S
C1802 C1859 1.392 . S
C1803 C1804 1.391 . S
C1803 C1807 1.397 . S
C1803 C1859 1.419 . S
C1804 C1800 1.391 . S
C1804 C1803 1.391 . S
C1804 C1805 1.399 . S
C1805 C1804 1.399 . S
C1805 C1808 1.396 . S
C1805 C1817 1.453 . S
C1805 C1818 1.684 . S
H1806 C1830 0.948 . S
C1807 C1803 1.397 . S
C1807 C1808 1.394 . S
C1807 C1826 1.723 . S
C1808 C1805 1.396 . S
C1808 C1807 1.394 . S
C1808 C1838 1.723 1_565 S
H1809 C1832 0.947 . S
H1810 C1833 0.948 . S
H1811 C1839 0.982 . S
H1812 C1840 0.979 . S
H1813 C1840 0.980 . S
H1814 C1840 0.983 . S
H1815 C1839 0.979 . S
H1816 C1839 0.977 . S
C1817 C1805 1.453 . S
C1817 H1846 0.982 . S
C1817 H1847 0.979 . S
C1817 H1848 0.957 1_565 S
C1818 C1805 1.684 . S
C1818 H1843 0.979 . S
C1818 H1844 0.980 1_565 S
C1818 H1845 0.983 . S
C1819 C1820 1.391 1_565 S
C1819 C1824 1.391 . S
C1819 H1849 0.948 . S
C1820 C1819 1.391 1_545 S
C1820 C1821 1.391 . S
C1821 C1820 1.391 . S
C1821 C1822 1.392 . S
C1821 H1850 0.947 . S
C1822 C1821 1.392 . S
C1822 C1823 1.419 . S
C1822 H1851 0.948 . S
C1823 C1822 1.419 . S
C1823 C1824 1.391 1_545 S
C1823 C1827 1.397 . S
C1824 C1819 1.391 . S
C1824 C1823 1.391 1_565 S
C1824 C1825 1.399 . S
C1825 C1824 1.399 . S
C1825 C1826 1.396 . S
C1825 C1828 1.453 . S
C1825 C1829 1.684 . S
C1826 C1807 1.723 . S
C1826 C1825 1.396 . S
C1826 C1827 1.394 1_565 S
C1827 C1823 1.397 . S
C1827 C1826 1.394 1_545 S
C1827 C1837 1.723 . S
C1828 C1825 1.453 . S
C1828 H1852 0.982 . S
C1828 H1853 0.979 . S
C1828 H1854 0.977 . S
C1829 C1825 1.684 . S
C1829 H1855 0.979 . S
C1829 H1856 0.980 . S
C1829 H1857 0.983 . S
C1830 H1806 0.948 . S
C1830 C1831 1.391 . S
C1830 C1835 1.391 . S
C1831 C1830 1.391 . S
C1831 C1832 1.391 . S
C1832 H1809 0.947 . S
C1832 C1831 1.391 . S
C1832 C1833 1.392 . S
C1833 H1810 0.948 . S
C1833 C1832 1.392 . S
C1833 C1834 1.419 . S
C1834 C1833 1.419 . S
C1834 C1835 1.391 . S
C1834 C1838 1.397 . S
C1835 C1830 1.391 . S
C1835 C1834 1.391 . S
C1835 C1836 1.399 . S
C1836 C1835 1.399 . S
C1836 C1837 1.396 . S
C1836 C1839 1.453 . S
C1836 C1840 1.684 . S
C1837 C1827 1.723 . S
C1837 C1836 1.396 . S
C1837 C1838 1.394 . S
C1838 C1808 1.723 1_545 S
C1838 C1834 1.397 . S
C1838 C1837 1.394 . S
C1839 H1811 0.982 . S
C1839 H1815 0.979 . S
C1839 H1816 0.977 . S
C1839 C1836 1.453 . S
C1840 H1812 0.979 . S
C1840 H1813 0.980 . S
C1840 H1814 0.983 . S
C1840 C1836 1.684 . S
H1841 C1859 0.948 . S
H1842 C1800 0.948 . S
H1843 C1818 0.979 . S
H1844 C1818 0.980 1_545 S
H1845 C1818 0.983 . S
H1846 C1817 0.982 . S
H1847 C1817 0.979 . S
H1848 C1817 0.957 1_545 S
H1849 C1819 0.948 . S
H1850 C1821 0.947 . S
H1851 C1822 0.948 . S
H1852 C1828 0.982 . S
H1853 C1828 0.979 . S
H1854 C1828 0.977 . S
H1855 C1829 0.979 . S
H1856 C1829 0.980 . S
H1857 C1829 0.983 . S
H1858 C1802 0.947 . S
C1859 C1802 1.392 . S
C1859 C1803 1.419 . S
C1859 H1841 0.948 . S
C1860 C1861 1.391 . S
C1860 C1864 1.391 . S
C1860 H1902 0.948 . S
C1861 C1860 1.391 . S
C1861 C1862 1.391 . S
C1862 C1861 1.391 . S
C1862 H1918 0.947 . S
C1862 C1919 1.392 . S
C1863 C1864 1.391 . S
C1863 C1867 1.397 . S
C1863 C1919 1.419 . S
C1864 C1860 1.391 . S
C1864 C1863 1.391 . S
C1864 C1865 1.399 . S
C1865 C1864 1.399 . S
C1865 C1868 1.396 . S
C1865 C1877 1.453 . S
C1865 C1878 1.684 . S
H1866 C1890 0.948 . S
C1867 C1863 1.397 . S
C1867 C1868 1.394 . S
C1867 C1886 1.723 . S
C1868 C1865 1.396 . S
C1868 C1867 1.394 . S
C1868 C1898 1.723 1_565 S
H1869 C1892 0.951 1_554 S
H1870 C1893 0.948 . S
H1871 C1899 0.982 . S
H1872 C1900 0.979 . S
H1873 C1900 0.980 . S
H1874 C1900 0.983 . S
H1875 C1899 0.979 . S
H1876 C1899 0.977 . S
C1877 C1865 1.453 . S
C1877 H1906 0.982 . S
C1877 H1907 0.979 . S
C1877 H1908 0.977 . S
C1878 C1865 1.684 . S
C1878 H1903 0.979 . S
C1878 H1904 0.980 . S
C1878 H1905 0.983 . S
C1879 C1880 1.391 1_565 S
C1879 C1884 1.391 . S
C1879 H1909 0.948 . S
C1880 C1879 1.391 1_545 S
C1880 C1881 1.391 . S
C1881 C1880 1.391 . S
C1881 C1882 1.392 . S
C1881 H1910 0.947 . S
C1882 C1881 1.392 . S
C1882 C1883 1.419 . S
C1882 H1911 0.948 . S
C1883 C1882 1.419 . S
C1883 C1884 1.391 1_545 S
C1883 C1887 1.397 . S
C1884 C1879 1.391 . S
C1884 C1883 1.391 1_565 S
C1884 C1885 1.399 . S
C1885 C1884 1.399 . S
C1885 C1886 1.396 . S
C1885 C1888 1.453 . S
C1885 C1889 1.684 . S
C1886 C1867 1.723 . S
C1886 C1885 1.396 . S
C1886 C1887 1.394 1_565 S
C1887 C1883 1.397 . S
C1887 C1886 1.394 1_545 S
C1887 C1897 1.723 . S
C1888 C1885 1.453 . S
C1888 H1912 0.982 . S
C1888 H1913 0.979 . S
C1888 H1914 0.977 . S
C1889 C1885 1.684 . S
C1889 H1915 0.979 . S
C1889 H1916 0.980 . S
C1889 H1917 0.983 . S
C1890 H1866 0.948 . S
C1890 C1891 1.391 . S
C1890 C1895 1.391 . S
C1891 C1890 1.391 . S
C1891 C1892 1.391 . S
C1892 H1869 0.951 1_556 S
C1892 C1891 1.391 . S
C1892 C1893 1.392 . S
C1893 H1870 0.948 . S
C1893 C1892 1.392 . S
C1893 C1894 1.419 . S
C1894 C1893 1.419 . S
C1894 C1895 1.391 . S
C1894 C1898 1.397 . S
C1895 C1890 1.391 . S
C1895 C1894 1.391 . S
C1895 C1896 1.399 . S
C1896 C1895 1.399 . S
C1896 C1897 1.396 . S
C1896 C1899 1.453 . S
C1896 C1900 1.684 . S
C1897 C1887 1.723 . S
C1897 C1896 1.396 . S
C1897 C1898 1.394 . S
C1898 C1868 1.723 1_545 S
C1898 C1894 1.397 . S
C1898 C1897 1.394 . S
C1899 H1871 0.982 . S
C1899 H1875 0.979 . S
C1899 H1876 0.977 . S
C1899 C1896 1.453 . S
C1900 H1872 0.979 . S
C1900 H1873 0.980 . S
C1900 H1874 0.983 . S
C1900 C1896 1.684 . S
H1901 C1919 0.948 . S
H1902 C1860 0.948 . S
H1903 C1878 0.979 . S
H1904 C1878 0.980 . S
H1905 C1878 0.983 . S
H1906 C1877 0.982 . S
H1907 C1877 0.979 . S
H1908 C1877 0.977 . S
H1909 C1879 0.948 . S
H1910 C1881 0.947 . S
H1911 C1882 0.948 . S
H1912 C1888 0.982 . S
H1913 C1888 0.979 . S
H1914 C1888 0.977 . S
H1915 C1889 0.979 . S
H1916 C1889 0.980 . S
H1917 C1889 0.983 . S
H1918 C1862 0.947 . S
C1919 C1862 1.392 . S
C1919 C1863 1.419 . S
C1919 H1901 0.948 . S
C1920 C1921 1.391 . S
C1920 C1924 1.391 . S
C1920 H1962 0.948 . S
C1921 C1920 1.391 . S
C1921 C1922 1.391 . S
C1922 C1921 1.391 . S
C1922 H1978 0.947 . S
C1922 C1979 1.392 . S
C1923 C1924 1.391 . S
C1923 C1927 1.397 . S
C1923 C1979 1.419 . S
C1924 C1920 1.391 . S
C1924 C1923 1.391 . S
C1924 C1925 1.399 . S
C1925 C1924 1.399 . S
C1925 C1928 1.396 . S
C1925 C1937 1.453 . S
C1925 C1938 1.684 . S
H1926 C1950 0.948 . S
C1927 C1923 1.397 . S
C1927 C1928 1.394 . S
C1927 C1946 1.723 . S
C1928 C1925 1.396 . S
C1928 C1927 1.394 . S
C1928 C1958 1.723 . S
H1929 C1952 0.947 . S
H1930 C1953 0.948 . S
H1931 C1959 0.982 . S
H1932 C1960 0.979 . S
H1933 C1960 0.980 . S
H1934 C1960 0.983 . S
H1935 C1959 0.979 . S
H1936 C1959 0.977 . S
C1937 C1925 1.453 . S
C1937 H1966 0.982 . S
C1937 H1967 0.979 . S
C1937 H1968 0.977 . S
C1938 C1925 1.684 . S
C1938 H1963 0.979 . S
C1938 H1964 0.980 . S
C1938 H1965 0.983 . S
C1939 C1940 1.391 . S
C1939 C1944 1.391 . S
C1939 H1969 0.948 . S
C1940 C1939 1.391 . S
C1940 C1941 1.391 . S
C1941 C1940 1.391 . S
C1941 C1942 1.392 . S
C1941 H1970 0.947 . S
C1942 C1941 1.392 . S
C1942 C1943 1.419 . S
C1942 H1971 0.948 . S
C1943 C1942 1.419 . S
C1943 C1944 1.391 . S
C1943 C1947 1.397 . S
C1944 C1939 1.391 . S
C1944 C1943 1.391 . S
C1944 C1945 1.399 . S
C1945 C1944 1.399 . S
C1945 C1946 1.396 . S
C1945 C1948 1.453 . S
C1945 C1949 1.684 . S
C1946 C1927 1.723 . S
C1946 C1945 1.396 . S
C1946 C1947 1.394 . S
C1947 C1943 1.397 . S
C1947 C1946 1.394 . S
C1947 C1957 1.723 . S
C1948 C1945 1.453 . S
C1948 H1972 0.982 . S
C1948 H1973 0.979 . S
C1948 H1974 0.977 . S
C1949 C1945 1.684 . S
C1949 H1975 0.979 . S
C1949 H1976 0.980 . S
C1949 H1977 0.983 . S
C1950 H1926 0.948 . S
C1950 C1951 1.391 . S
C1950 C1955 1.391 . S
C1951 C1950 1.391 . S
C1951 C1952 1.391 . S
C1952 H1929 0.947 . S
C1952 C1951 1.391 . S
C1952 C1953 1.392 . S
C1953 H1930 0.948 . S
C1953 C1952 1.392 . S
C1953 C1954 1.419 . S
C1954 C1953 1.419 . S
C1954 C1955 1.391 . S
C1954 C1958 1.397 . S
C1955 C1950 1.391 . S
C1955 C1954 1.391 . S
C1955 C1956 1.399 . S
C1956 C1955 1.399 . S
C1956 C1957 1.396 . S
C1956 C1959 1.453 . S
C1956 C1960 1.684 . S
C1957 C1947 1.723 . S
C1957 C1956 1.396 . S
C1957 C1958 1.394 . S
C1958 C1928 1.723 . S
C1958 C1954 1.397 . S
C1958 C1957 1.394 . S
C1959 H1931 0.982 . S
C1959 H1935 0.979 . S
C1959 H1936 0.977 . S
C1959 C1956 1.453 . S
C1960 H1932 0.979 . S
C1960 H1933 0.980 . S
C1960 H1934 0.983 . S
C1960 C1956 1.684 . S
H1961 C1979 0.948 . S
H1962 C1920 0.948 . S
H1963 C1938 0.979 . S
H1964 C1938 0.980 . S
H1965 C1938 0.983 . S
H1966 C1937 0.982 . S
H1967 C1937 0.979 . S
H1968 C1937 0.977 . S
H1969 C1939 0.948 . S
H1970 C1941 0.947 . S
H1971 C1942 0.948 . S
H1972 C1948 0.982 . S
H1973 C1948 0.979 . S
H1974 C1948 0.977 . S
H1975 C1949 0.979 . S
H1976 C1949 0.980 . S
H1977 C1949 0.983 . S
H1978 C1922 0.947 . S
C1979 C1922 1.392 . S
C1979 C1923 1.419 . S
C1979 H1961 0.948 . S
C1980 C1981 1.391 . S
C1980 C1984 1.391 . S
C1980 H2022 0.948 . S
C1981 C1980 1.391 . S
C1981 C1982 1.391 . S
C1982 C1981 1.391 . S
C1982 H2038 0.951 1_655 S
C1982 C2039 1.392 . S
C1983 C1984 1.391 . S
C1983 C1987 1.397 . S
C1983 C2039 1.419 . S
C1984 C1980 1.391 . S
C1984 C1983 1.391 . S
C1984 C1985 1.399 . S
C1985 C1984 1.399 . S
C1985 C1988 1.396 . S
C1985 C1997 1.453 . S
C1985 C1998 1.684 . S
H1986 C2010 0.948 . S
C1987 C1983 1.397 . S
C1987 C1988 1.394 . S
C1987 C2006 1.723 1_554 S
C1988 C1985 1.396 . S
C1988 C1987 1.394 . S
C1988 C2018 1.723 . S
H1989 C2012 0.947 . S
H1990 C2013 0.948 . S
H1991 C2019 0.982 . S
H1992 C2020 0.979 . S
H1993 C2020 0.980 . S
H1994 C2020 0.983 . S
H1995 C2019 0.979 . S
H1996 C2019 0.977 . S
C1997 C1985 1.453 . S
C1997 H2026 0.982 . S
C1997 H2027 0.979 . S
C1997 H2028 0.977 . S
C1998 C1985 1.684 . S
C1998 H2023 0.979 . S
C1998 H2024 0.980 . S
C1998 H2025 0.983 . S
C1999 C2000 1.391 . S
C1999 C2004 1.391 . S
C1999 H2029 0.948 . S
C2000 C1999 1.391 . S
C2000 C2001 1.391 . S
C2001 C2000 1.391 . S
C2001 C2002 1.392 . S
C2001 H2030 0.947 . S
C2002 C2001 1.392 . S
C2002 C2003 1.419 . S
C2002 H2031 0.948 . S
C2003 C2002 1.419 . S
C2003 C2004 1.391 . S
C2003 C2007 1.397 . S
C2004 C1999 1.391 . S
C2004 C2003 1.391 . S
C2004 C2005 1.399 . S
C2005 C2004 1.399 . S
C2005 C2006 1.396 . S
C2005 C2008 1.453 . S
C2005 C2009 1.684 . S
C2006 C1987 1.723 1_556 S
C2006 C2005 1.396 . S
C2006 C2007 1.394 . S
C2007 C2003 1.397 . S
C2007 C2006 1.394 . S
C2007 C2017 1.723 . S
C2008 C2005 1.453 . S
C2008 H2032 0.982 . S
C2008 H2033 0.979 . S
C2008 H2034 0.977 . S
C2009 C2005 1.684 . S
C2009 H2035 0.979 . S
C2009 H2036 0.980 . S
C2009 H2037 0.983 . S
C2010 H1986 0.948 . S
C2010 C2011 1.391 1_556 S
C2010 C2015 1.391 . S
C2011 C2010 1.391 1_554 S
C2011 C2012 1.391 . S
C2012 H1989 0.947 . S
C2012 C2011 1.391 . S
C2012 C2013 1.392 . S
C2013 H1990 0.948 . S
C2013 C2012 1.392 . S
C2013 C2014 1.419 . S
C2014 C2013 1.419 . S
C2014 C2015 1.391 1_554 S
C2014 C2018 1.397 . S
C2015 C2010 1.391 . S
C2015 C2014 1.391 1_556 S
C2015 C2016 1.399 . S
C2016 C2015 1.399 . S
C2016 C2017 1.396 . S
C2016 C2019 1.453 . S
C2016 C2020 1.684 . S
C2017 C2007 1.723 . S
C2017 C2016 1.396 . S
C2017 C2018 1.394 1_556 S
C2018 C1988 1.723 . S
C2018 C2014 1.397 . S
C2018 C2017 1.394 1_554 S
C2019 H1991 0.982 . S
C2019 H1995 0.979 . S
C2019 H1996 0.977 . S
C2019 C2016 1.453 . S
C2020 H1992 0.979 . S
C2020 H1993 0.980 . S
C2020 H1994 0.983 . S
C2020 C2016 1.684 . S
H2021 C2039 0.948 . S
H2022 C1980 0.948 . S
H2023 C1998 0.979 . S
H2024 C1998 0.980 . S
H2025 C1998 0.983 . S
H2026 C1997 0.982 . S
H2027 C1997 0.979 . S
H2028 C1997 0.977 . S
H2029 C1999 0.948 . S
H2030 C2001 0.947 . S
H2031 C2002 0.948 . S
H2032 C2008 0.982 . S
H2033 C2008 0.979 . S
H2034 C2008 0.977 . S
H2035 C2009 0.979 . S
H2036 C2009 0.980 . S
H2037 C2009 0.983 . S
H2038 C1982 0.951 1_455 S
C2039 C1982 1.392 . S
C2039 C1983 1.419 . S
C2039 H2021 0.948 . S
C2040 C2041 1.391 . S
C2040 C2044 1.391 . S
C2040 H2082 0.948 . S
C2041 C2040 1.391 . S
C2041 C2042 1.391 . S
C2042 C2041 1.391 . S
C2042 H2098 0.947 . S
C2042 C2099 1.392 . S
C2043 C2044 1.391 . S
C2043 C2047 1.397 . S
C2043 C2099 1.419 . S
C2044 C2040 1.391 . S
C2044 C2043 1.391 . S
C2044 C2045 1.399 . S
C2045 C2044 1.399 . S
C2045 C2048 1.396 . S
C2045 C2057 1.453 . S
C2045 C2058 1.684 . S
H2046 C2070 0.948 . S
C2047 C2043 1.397 . S
C2047 C2048 1.394 . S
C2047 C2066 1.723 . S
C2048 C2045 1.396 . S
C2048 C2047 1.394 . S
C2048 C2078 1.723 . S
H2049 C2072 0.947 . S
H2050 C2073 0.948 . S
H2051 C2079 0.982 . S
H2052 C2080 0.979 . S
H2053 C2080 0.980 . S
H2054 C2080 0.983 . S
H2055 C2079 0.979 . S
H2056 C2079 0.977 . S
C2057 C2045 1.453 . S
C2057 H2086 0.982 . S
C2057 H2087 0.979 . S
C2057 H2088 0.977 . S
C2058 C2045 1.684 . S
C2058 H2083 0.979 . S
C2058 H2084 0.980 . S
C2058 H2085 0.983 . S
C2059 C2060 1.391 . S
C2059 C2064 1.391 . S
C2059 H2089 0.948 . S
C2060 C2059 1.391 . S
C2060 C2061 1.391 . S
C2061 C2060 1.391 . S
C2061 C2062 1.392 . S
C2061 H2090 0.947 . S
C2062 C2061 1.392 . S
C2062 C2063 1.419 . S
C2062 H2091 0.948 . S
C2063 C2062 1.419 . S
C2063 C2064 1.391 . S
C2063 C2067 1.397 . S
C2064 C2059 1.391 . S
C2064 C2063 1.391 . S
C2064 C2065 1.399 . S
C2065 C2064 1.399 . S
C2065 C2066 1.396 . S
C2065 C2068 1.453 . S
C2065 C2069 1.684 . S
C2066 C2047 1.723 . S
C2066 C2065 1.396 . S
C2066 C2067 1.394 . S
C2067 C2063 1.397 . S
C2067 C2066 1.394 . S
C2067 C2077 1.723 . S
C2068 C2065 1.453 . S
C2068 H2092 0.982 . S
C2068 H2093 0.979 . S
C2068 H2094 0.977 . S
C2069 C2065 1.684 . S
C2069 H2095 0.979 . S
C2069 H2096 0.980 . S
C2069 H2097 0.983 . S
C2070 H2046 0.948 . S
C2070 C2071 1.391 . S
C2070 C2075 1.391 . S
C2071 C2070 1.391 . S
C2071 C2072 1.391 . S
C2072 H2049 0.947 . S
C2072 C2071 1.391 . S
C2072 C2073 1.392 . S
C2073 H2050 0.948 . S
C2073 C2072 1.392 . S
C2073 C2074 1.419 . S
C2074 C2073 1.419 . S
C2074 C2075 1.391 . S
C2074 C2078 1.397 . S
C2075 C2070 1.391 . S
C2075 C2074 1.391 . S
C2075 C2076 1.399 . S
C2076 C2075 1.399 . S
C2076 C2077 1.396 . S
C2076 C2079 1.453 . S
C2076 C2080 1.684 . S
C2077 C2067 1.723 . S
C2077 C2076 1.396 . S
C2077 C2078 1.394 . S
C2078 C2048 1.723 . S
C2078 C2074 1.397 . S
C2078 C2077 1.394 . S
C2079 H2051 0.982 . S
C2079 H2055 0.979 . S
C2079 H2056 0.977 . S
C2079 C2076 1.453 . S
C2080 H2052 0.979 . S
C2080 H2053 0.980 . S
C2080 H2054 0.983 . S
C2080 C2076 1.684 . S
H2081 C2099 0.948 . S
H2082 C2040 0.948 . S
H2083 C2058 0.979 . S
H2084 C2058 0.980 . S
H2085 C2058 0.983 . S
H2086 C2057 0.982 . S
H2087 C2057 0.979 . S
H2088 C2057 0.977 . S
H2089 C2059 0.948 . S
H2090 C2061 0.947 . S
H2091 C2062 0.948 . S
H2092 C2068 0.982 . S
H2093 C2068 0.979 . S
H2094 C2068 0.977 . S
H2095 C2069 0.979 . S
H2096 C2069 0.980 . S
H2097 C2069 0.983 . S
H2098 C2042 0.947 . S
C2099 C2042 1.392 . S
C2099 C2043 1.419 . S
C2099 H2081 0.948 . S
C2100 C2101 1.391 . S
C2100 C2104 1.391 . S
C2100 H2142 0.948 . S
C2101 C2100 1.391 . S
C2101 C2102 1.391 . S
C2102 C2101 1.391 . S
C2102 H2158 0.947 . S
C2102 C2159 1.392 . S
C2103 C2104 1.391 . S
C2103 C2107 1.397 . S
C2103 C2159 1.419 . S
C2104 C2100 1.391 . S
C2104 C2103 1.391 . S
C2104 C2105 1.399 . S
C2105 C2104 1.399 . S
C2105 C2108 1.396 . S
C2105 C2117 1.453 . S
C2105 C2118 1.684 . S
H2106 C2130 0.948 . S
C2107 C2103 1.397 . S
C2107 C2108 1.394 . S
C2107 C2126 1.723 1_556 S
C2108 C2105 1.396 . S
C2108 C2107 1.394 . S
C2108 C2138 1.723 . S
H2109 C2132 0.947 . S
H2110 C2133 0.948 . S
H2111 C2139 0.982 . S
H2112 C2140 0.979 . S
H2113 C2140 0.980 . S
H2114 C2140 0.983 . S
H2115 C2139 0.979 . S
H2116 C2139 0.977 . S
C2117 C2105 1.453 . S
C2117 H2146 0.982 . S
C2117 H2147 0.979 . S
C2117 H2148 0.977 . S
C2118 C2105 1.684 . S
C2118 H2143 0.979 . S
C2118 H2144 0.980 . S
C2118 H2145 0.983 . S
C2119 C2120 1.391 . S
C2119 C2124 1.391 . S
C2119 H2149 0.948 . S
C2120 C2119 1.391 . S
C2120 C2121 1.391 . S
C2121 C2120 1.391 . S
C2121 C2122 1.392 . S
C2121 H2150 0.947 . S
C2122 C2121 1.392 . S
C2122 C2123 1.419 . S
C2122 H2151 0.948 . S
C2123 C2122 1.419 . S
C2123 C2124 1.391 . S
C2123 C2127 1.397 . S
C2124 C2119 1.391 . S
C2124 C2123 1.391 . S
C2124 C2125 1.399 . S
C2125 C2124 1.399 . S
C2125 C2126 1.396 . S
C2125 C2128 1.453 . S
C2125 C2129 1.684 . S
C2126 C2107 1.723 1_554 S
C2126 C2125 1.396 . S
C2126 C2127 1.394 . S
C2127 C2123 1.397 . S
C2127 C2126 1.394 . S
C2127 C2137 1.723 . S
C2128 C2125 1.453 . S
C2128 H2152 0.982 . S
C2128 H2153 0.979 . S
C2128 H2154 0.977 1_554 S
C2129 C2125 1.684 . S
C2129 H2155 0.979 . S
C2129 H2156 0.980 1_554 S
C2129 H2157 0.983 . S
C2130 H2106 0.948 . S
C2130 C2131 1.391 1_554 S
C2130 C2135 1.391 . S
C2131 C2130 1.391 1_556 S
C2131 C2132 1.391 . S
C2132 H2109 0.947 . S
C2132 C2131 1.391 . S
C2132 C2133 1.392 . S
C2133 H2110 0.948 . S
C2133 C2132 1.392 . S
C2133 C2134 1.419 . S
C2134 C2133 1.419 . S
C2134 C2135 1.391 1_556 S
C2134 C2138 1.397 . S
C2135 C2130 1.391 . S
C2135 C2134 1.391 1_554 S
C2135 C2136 1.399 . S
C2136 C2135 1.399 . S
C2136 C2137 1.396 . S
C2136 C2139 1.453 . S
C2136 C2140 1.684 . S
C2137 C2127 1.723 . S
C2137 C2136 1.396 . S
C2137 C2138 1.394 1_554 S
C2138 C2108 1.723 . S
C2138 C2134 1.397 . S
C2138 C2137 1.394 1_556 S
C2139 H2111 0.982 . S
C2139 H2115 0.979 . S
C2139 H2116 0.977 . S
C2139 C2136 1.453 . S
C2140 H2112 0.979 . S
C2140 H2113 0.980 . S
C2140 H2114 0.983 . S
C2140 C2136 1.684 . S
H2141 C2159 0.948 . S
H2142 C2100 0.948 . S
H2143 C2118 0.979 . S
H2144 C2118 0.980 . S
H2145 C2118 0.983 . S
H2146 C2117 0.982 . S
H2147 C2117 0.979 . S
H2148 C2117 0.977 . S
H2149 C2119 0.948 . S
H2150 C2121 0.947 . S
H2151 C2122 0.948 . S
H2152 C2128 0.982 . S
H2153 C2128 0.979 . S
H2154 C2128 0.977 1_556 S
H2155 C2129 0.979 . S
H2156 C2129 0.980 1_556 S
H2157 C2129 0.983 . S
H2158 C2102 0.947 . S
C2159 C2102 1.392 . S
C2159 C2103 1.419 . S
C2159 H2141 0.948 . S
C2160 C2161 1.391 . S
C2160 C2164 1.391 . S
C2160 H2202 0.948 . S
C2161 C2160 1.391 . S
C2161 C2162 1.391 . S
C2162 C2161 1.391 . S
C2162 H2218 0.947 . S
C2162 C2219 1.392 . S
C2163 C2164 1.391 . S
C2163 C2167 1.397 . S
C2163 C2219 1.419 . S
C2164 C2160 1.391 . S
C2164 C2163 1.391 . S
C2164 C2165 1.399 . S
C2165 C2164 1.399 . S
C2165 C2168 1.396 . S
C2165 C2177 1.453 . S
C2165 C2178 1.684 . S
H2166 C2190 0.948 . S
C2167 C2163 1.397 . S
C2167 C2168 1.394 . S
C2167 C2186 1.723 . S
C2168 C2165 1.396 . S
C2168 C2167 1.394 . S
C2168 C2198 1.723 . S
H2169 C2192 0.947 . S
H2170 C2193 0.948 . S
H2171 C2199 0.982 . S
H2172 C2200 0.979 . S
H2173 C2200 0.980 . S
H2174 C2200 0.983 . S
H2175 C2199 0.979 . S
H2176 C2199 0.977 . S
C2177 C2165 1.453 . S
C2177 H2206 0.982 . S
C2177 H2207 0.979 . S
C2177 H2208 0.977 . S
C2178 C2165 1.684 . S
C2178 H2203 0.979 . S
C2178 H2204 0.980 . S
C2178 H2205 0.983 . S
C2179 C2180 1.391 . S
C2179 C2184 1.391 . S
C2179 H2209 0.948 . S
C2180 C2179 1.391 . S
C2180 C2181 1.391 . S
C2181 C2180 1.391 . S
C2181 C2182 1.392 . S
C2181 H2210 0.947 . S
C2182 C2181 1.392 . S
C2182 C2183 1.419 . S
C2182 H2211 0.948 . S
C2183 C2182 1.419 . S
C2183 C2184 1.391 . S
C2183 C2187 1.397 . S
C2184 C2179 1.391 . S
C2184 C2183 1.391 . S
C2184 C2185 1.399 . S
C2185 C2184 1.399 . S
C2185 C2186 1.396 . S
C2185 C2188 1.453 . S
C2185 C2189 1.684 . S
C2186 C2167 1.723 . S
C2186 C2185 1.396 . S
C2186 C2187 1.394 . S
C2187 C2183 1.397 . S
C2187 C2186 1.394 . S
C2187 C2197 1.723 . S
C2188 C2185 1.453 . S
C2188 H2212 0.982 . S
C2188 H2213 0.979 . S
C2188 H2214 0.977 . S
C2189 C2185 1.684 . S
C2189 H2215 0.979 . S
C2189 H2216 0.980 . S
C2189 H2217 0.983 . S
C2190 H2166 0.948 . S
C2190 C2191 1.391 . S
C2190 C2195 1.391 . S
C2191 C2190 1.391 . S
C2191 C2192 1.391 . S
C2192 H2169 0.947 . S
C2192 C2191 1.391 . S
C2192 C2193 1.392 . S
C2193 H2170 0.948 . S
C2193 C2192 1.392 . S
C2193 C2194 1.419 . S
C2194 C2193 1.419 . S
C2194 C2195 1.391 . S
C2194 C2198 1.397 . S
C2195 C2190 1.391 . S
C2195 C2194 1.391 . S
C2195 C2196 1.399 . S
C2196 C2195 1.399 . S
C2196 C2197 1.396 . S
C2196 C2199 1.453 . S
C2196 C2200 1.684 . S
C2197 C2187 1.723 . S
C2197 C2196 1.396 . S
C2197 C2198 1.394 . S
C2198 C2168 1.723 . S
C2198 C2194 1.397 . S
C2198 C2197 1.394 . S
C2199 H2171 0.982 . S
C2199 H2175 0.979 . S
C2199 H2176 0.977 . S
C2199 C2196 1.453 . S
C2200 H2172 0.979 . S
C2200 H2173 0.980 . S
C2200 H2174 0.983 . S
C2200 C2196 1.684 . S
H2201 C2219 0.948 . S
H2202 C2160 0.948 . S
H2203 C2178 0.979 . S
H2204 C2178 0.980 . S
H2205 C2178 0.983 . S
H2206 C2177 0.982 . S
H2207 C2177 0.979 . S
H2208 C2177 0.977 . S
H2209 C2179 0.948 . S
H2210 C2181 0.947 . S
H2211 C2182 0.948 . S
H2212 C2188 0.982 . S
H2213 C2188 0.979 . S
H2214 C2188 0.977 . S
H2215 C2189 0.979 . S
H2216 C2189 0.980 . S
H2217 C2189 0.983 . S
H2218 C2162 0.947 . S
C2219 C2162 1.392 . S
C2219 C2163 1.419 . S
C2219 H2201 0.948 . S
C2220 C2221 1.391 1_655 S
C2220 C2224 1.391 . S
C2220 H2262 0.948 . S
C2221 C2220 1.391 1_455 S
C2221 C2222 1.391 . S
C2222 C2221 1.391 . S
C2222 H2278 0.947 . S
C2222 C2279 1.392 . S
C2223 C2224 1.391 1_455 S
C2223 C2227 1.397 . S
C2223 C2279 1.419 . S
C2224 C2220 1.391 . S
C2224 C2223 1.391 1_655 S
C2224 C2225 1.399 . S
C2225 C2224 1.399 . S
C2225 C2228 1.396 . S
C2225 C2237 1.453 . S
C2225 C2238 1.684 . S
H2226 C2250 0.948 . S
C2227 C2223 1.397 . S
C2227 C2228 1.394 1_455 S
C2227 C2246 1.723 . S
C2228 C2225 1.396 . S
C2228 C2227 1.394 1_655 S
C2228 C2258 1.723 . S
H2229 C2252 0.947 . S
H2230 C2253 0.948 . S
H2231 C2259 0.982 . S
H2232 C2260 0.979 . S
H2233 C2260 0.980 . S
H2234 C2260 0.983 . S
H2235 C2259 0.979 . S
H2236 C2259 0.977 . S
C2237 C2225 1.453 . S
C2237 H2266 0.982 . S
C2237 H2267 0.979 . S
C2237 H2268 0.977 . S
C2238 C2225 1.684 . S
C2238 H2263 0.979 . S
C2238 H2264 0.980 . S
C2238 H2265 0.983 . S
C2239 C2240 1.391 . S
C2239 C2244 1.391 . S
C2239 H2269 0.948 . S
C2240 C2239 1.391 . S
C2240 C2241 1.391 . S
C2241 C2240 1.391 . S
C2241 C2242 1.392 . S
C2241 H2270 0.951 1_565 S
C2242 C2241 1.392 . S
C2242 C2243 1.419 . S
C2242 H2271 0.948 . S
C2243 C2242 1.419 . S
C2243 C2244 1.391 . S
C2243 C2247 1.397 . S
C2244 C2239 1.391 . S
C2244 C2243 1.391 . S
C2244 C2245 1.399 . S
C2245 C2244 1.399 . S
C2245 C2246 1.396 . S
C2245 C2248 1.453 . S
C2245 C2249 1.684 . S
C2246 C2227 1.723 . S
C2246 C2245 1.396 . S
C2246 C2247 1.394 . S
C2247 C2243 1.397 . S
C2247 C2246 1.394 . S
C2247 C2257 1.723 1_455 S
C2248 C2245 1.453 . S
C2248 H2272 0.982 . S
C2248 H2273 0.979 . S
C2248 H2274 0.977 . S
C2249 C2245 1.684 . S
C2249 H2275 0.979 . S
C2249 H2276 0.980 . S
C2249 H2277 0.983 . S
C2250 H2226 0.948 . S
C2250 C2251 1.391 . S
C2250 C2255 1.391 . S
C2251 C2250 1.391 . S
C2251 C2252 1.391 . S
C2252 H2229 0.947 . S
C2252 C2251 1.391 . S
C2252 C2253 1.392 . S
C2253 H2230 0.948 . S
C2253 C2252 1.392 . S
C2253 C2254 1.419 . S
C2254 C2253 1.419 . S
C2254 C2255 1.391 . S
C2254 C2258 1.397 . S
C2255 C2250 1.391 . S
C2255 C2254 1.391 . S
C2255 C2256 1.399 . S
C2256 C2255 1.399 . S
C2256 C2257 1.396 . S
C2256 C2259 1.453 . S
C2256 C2260 1.684 . S
C2257 C2247 1.723 1_655 S
C2257 C2256 1.396 . S
C2257 C2258 1.394 . S
C2258 C2228 1.723 . S
C2258 C2254 1.397 . S
C2258 C2257 1.394 . S
C2259 H2231 0.982 . S
C2259 H2235 0.979 . S
C2259 H2236 0.977 . S
C2259 C2256 1.453 . S
C2260 H2232 0.979 . S
C2260 H2233 0.980 . S
C2260 H2234 0.983 . S
C2260 C2256 1.684 . S
H2261 C2279 0.948 . S
H2262 C2220 0.948 . S
H2263 C2238 0.979 . S
H2264 C2238 0.980 . S
H2265 C2238 0.983 . S
H2266 C2237 0.982 . S
H2267 C2237 0.979 . S
H2268 C2237 0.977 . S
H2269 C2239 0.948 . S
H2270 C2241 0.951 1_545 S
H2271 C2242 0.948 . S
H2272 C2248 0.982 . S
H2273 C2248 0.979 . S
H2274 C2248 0.977 . S
H2275 C2249 0.979 . S
H2276 C2249 0.980 . S
H2277 C2249 0.983 . S
H2278 C2222 0.947 . S
C2279 C2222 1.392 . S
C2279 C2223 1.419 . S
C2279 H2261 0.948 . S
C2280 C2281 1.391 . S
C2280 C2284 1.391 . S
C2280 H2322 0.948 . S
C2281 C2280 1.391 . S
C2281 C2282 1.391 . S
C2282 C2281 1.391 . S
C2282 H2338 0.947 . S
C2282 C2339 1.392 . S
C2283 C2284 1.391 . S
C2283 C2287 1.397 . S
C2283 C2339 1.419 . S
C2284 C2280 1.391 . S
C2284 C2283 1.391 . S
C2284 C2285 1.399 . S
C2285 C2284 1.399 . S
C2285 C2288 1.396 . S
C2285 C2297 1.453 . S
C2285 C2298 1.684 . S
H2286 C2310 0.948 . S
C2287 C2283 1.397 . S
C2287 C2288 1.394 . S
C2287 C2306 1.723 . S
C2288 C2285 1.396 . S
C2288 C2287 1.394 . S
C2288 C2318 1.723 . S
H2289 C2312 0.947 . S
H2290 C2313 0.948 . S
H2291 C2319 0.982 . S
H2292 C2320 0.979 . S
H2293 C2320 0.980 . S
H2294 C2320 0.983 . S
H2295 C2319 0.979 . S
H2296 C2319 0.977 . S
C2297 C2285 1.453 . S
C2297 H2326 0.982 . S
C2297 H2327 0.979 . S
C2297 H2328 0.977 . S
C2298 C2285 1.684 . S
C2298 H2323 0.979 . S
C2298 H2324 0.980 . S
C2298 H2325 0.983 . S
C2299 C2300 1.391 . S
C2299 C2304 1.391 . S
C2299 H2329 0.948 . S
C2300 C2299 1.391 . S
C2300 C2301 1.391 . S
C2301 C2300 1.391 . S
C2301 C2302 1.392 . S
C2301 H2330 0.947 . S
C2302 C2301 1.392 . S
C2302 C2303 1.419 . S
C2302 H2331 0.948 . S
C2303 C2302 1.419 . S
C2303 C2304 1.391 . S
C2303 C2307 1.397 . S
C2304 C2299 1.391 . S
C2304 C2303 1.391 . S
C2304 C2305 1.399 . S
C2305 C2304 1.399 . S
C2305 C2306 1.396 . S
C2305 C2308 1.453 . S
C2305 C2309 1.684 . S
C2306 C2287 1.723 . S
C2306 C2305 1.396 . S
C2306 C2307 1.394 . S
C2307 C2303 1.397 . S
C2307 C2306 1.394 . S
C2307 C2317 1.723 . S
C2308 C2305 1.453 . S
C2308 H2332 0.982 . S
C2308 H2333 0.979 . S
C2308 H2334 0.977 . S
C2309 C2305 1.684 . S
C2309 H2335 0.979 . S
C2309 H2336 0.980 . S
C2309 H2337 0.983 . S
C2310 H2286 0.948 . S
C2310 C2311 1.391 . S
C2310 C2315 1.391 . S
C2311 C2310 1.391 . S
C2311 C2312 1.391 . S
C2312 H2289 0.947 . S
C2312 C2311 1.391 . S
C2312 C2313 1.392 . S
C2313 H2290 0.948 . S
C2313 C2312 1.392 . S
C2313 C2314 1.419 . S
C2314 C2313 1.419 . S
C2314 C2315 1.391 . S
C2314 C2318 1.397 . S
C2315 C2310 1.391 . S
C2315 C2314 1.391 . S
C2315 C2316 1.399 . S
C2316 C2315 1.399 . S
C2316 C2317 1.396 . S
C2316 C2319 1.453 . S
C2316 C2320 1.684 . S
C2317 C2307 1.723 . S
C2317 C2316 1.396 . S
C2317 C2318 1.394 . S
C2318 C2288 1.723 . S
C2318 C2314 1.397 . S
C2318 C2317 1.394 . S
C2319 H2291 0.982 . S
C2319 H2295 0.979 . S
C2319 H2296 0.977 . S
C2319 C2316 1.453 . S
C2320 H2292 0.979 . S
C2320 H2293 0.980 . S
C2320 H2294 0.983 . S
C2320 C2316 1.684 . S
H2321 C2339 0.948 . S
H2322 C2280 0.948 . S
H2323 C2298 0.979 . S
H2324 C2298 0.980 . S
H2325 C2298 0.983 . S
H2326 C2297 0.982 . S
H2327 C2297 0.979 . S
H2328 C2297 0.977 . S
H2329 C2299 0.948 . S
H2330 C2301 0.947 . S
H2331 C2302 0.948 . S
H2332 C2308 0.982 . S
H2333 C2308 0.979 . S
H2334 C2308 0.977 . S
H2335 C2309 0.979 . S
H2336 C2309 0.980 . S
H2337 C2309 0.983 . S
H2338 C2282 0.947 . S
C2339 C2282 1.392 . S
C2339 C2283 1.419 . S
C2339 H2321 0.948 . S
C2340 C2341 1.391 . S
C2340 C2344 1.391 . S
C2340 H2382 0.948 . S
C2341 C2340 1.391 . S
C2341 C2342 1.391 . S
C2342 C2341 1.391 . S
C2342 H2398 0.947 . S
C2342 C2399 1.392 . S
C2343 C2344 1.391 . S
C2343 C2347 1.397 . S
C2343 C2399 1.419 . S
C2344 C2340 1.391 . S
C2344 C2343 1.391 . S
C2344 C2345 1.399 . S
C2345 C2344 1.399 . S
C2345 C2348 1.396 . S
C2345 C2357 1.453 . S
C2345 C2358 1.684 . S
H2346 C2370 0.948 . S
C2347 C2343 1.397 . S
C2347 C2348 1.394 . S
C2347 C2366 1.723 . S
C2348 C2345 1.396 . S
C2348 C2347 1.394 . S
C2348 C2378 1.723 1_455 S
H2349 C2372 0.947 . S
H2350 C2373 0.948 . S
H2351 C2379 0.982 . S
H2352 C2380 0.979 . S
H2353 C2380 0.980 . S
H2354 C2380 0.983 . S
H2355 C2379 0.979 . S
H2356 C2379 0.977 . S
C2357 C2345 1.453 . S
C2357 H2386 0.982 . S
C2357 H2387 0.979 . S
C2357 H2388 0.977 1_455 S
C2358 C2345 1.684 . S
C2358 H2383 0.979 . S
C2358 H2384 0.980 1_455 S
C2358 H2385 0.983 . S
C2359 C2360 1.391 1_455 S
C2359 C2364 1.391 . S
C2359 H2389 0.948 . S
C2360 C2359 1.391 1_655 S
C2360 C2361 1.391 . S
C2361 C2360 1.391 . S
C2361 C2362 1.392 . S
C2361 H2390 0.947 . S
C2362 C2361 1.392 . S
C2362 C2363 1.419 . S
C2362 H2391 0.948 . S
C2363 C2362 1.419 . S
C2363 C2364 1.391 1_655 S
C2363 C2367 1.397 . S
C2364 C2359 1.391 . S
C2364 C2363 1.391 1_455 S
C2364 C2365 1.399 . S
C2365 C2364 1.399 . S
C2365 C2366 1.396 . S
C2365 C2368 1.453 . S
C2365 C2369 1.684 . S
C2366 C2347 1.723 . S
C2366 C2365 1.396 . S
C2366 C2367 1.394 1_455 S
C2367 C2363 1.397 . S
C2367 C2366 1.394 1_655 S
C2367 C2377 1.723 . S
C2368 C2365 1.453 . S
C2368 H2392 0.982 . S
C2368 H2393 0.979 . S
C2368 H2394 0.977 . S
C2369 C2365 1.684 . S
C2369 H2395 0.979 . S
C2369 H2396 0.980 . S
C2369 H2397 0.983 . S
C2370 H2346 0.948 . S
C2370 C2371 1.391 . S
C2370 C2375 1.391 . S
C2371 C2370 1.391 . S
C2371 C2372 1.391 . S
C2372 H2349 0.947 . S
C2372 C2371 1.391 . S
C2372 C2373 1.392 . S
C2373 H2350 0.948 . S
C2373 C2372 1.392 . S
C2373 C2374 1.419 . S
C2374 C2373 1.419 . S
C2374 C2375 1.391 . S
C2374 C2378 1.397 . S
C2375 C2370 1.391 . S
C2375 C2374 1.391 . S
C2375 C2376 1.399 . S
C2376 C2375 1.399 . S
C2376 C2377 1.396 . S
C2376 C2379 1.453 . S
C2376 C2380 1.684 . S
C2377 C2367 1.723 . S
C2377 C2376 1.396 . S
C2377 C2378 1.394 . S
C2378 C2348 1.723 1_655 S
C2378 C2374 1.397 . S
C2378 C2377 1.394 . S
C2379 H2351 0.982 . S
C2379 H2355 0.979 . S
C2379 H2356 0.977 . S
C2379 C2376 1.453 . S
C2380 H2352 0.979 . S
C2380 H2353 0.980 . S
C2380 H2354 0.983 . S
C2380 C2376 1.684 . S
H2381 C2399 0.948 . S
H2382 C2340 0.948 . S
H2383 C2358 0.979 . S
H2384 C2358 0.980 1_655 S
H2385 C2358 0.983 . S
H2386 C2357 0.982 . S
H2387 C2357 0.979 . S
H2388 C2357 0.977 1_655 S
H2389 C2359 0.948 . S
H2390 C2361 0.947 . S
H2391 C2362 0.948 . S
H2392 C2368 0.982 . S
H2393 C2368 0.979 . S
H2394 C2368 0.977 . S
H2395 C2369 0.979 . S
H2396 C2369 0.980 . S
H2397 C2369 0.983 . S
H2398 C2342 0.947 . S
C2399 C2342 1.392 . S
C2399 C2343 1.419 . S
C2399 H2381 0.948 . S
C2341 C15 2.560 . S
C2191 C55 5.744 . S
C2281 C95 3.306 . S
C2251 C135 3.706 . S
C1831 C175 3.008 . S
C215 C1861 3.706 . S
C1711 C255 5.408 . S
C295 C1741 3.306 . S
C2120 C335 2.560 . S
C375 C2000 3.706 . S
C415 C1940 5.408 . S
C2060 C455 3.052 . S
C1651 C495 2.834 . S
C535 C1441 5.532 . S
C1591 C575 3.247 . S
C615 C1501 3.471 . S
C1111 C655 2.834 . S
C1141 C695 3.471 . S
C735 C991 5.666 . S
C775 C1021 3.062 . S
C815 C1400 2.834 . S
C855 C1280 3.717 . S
C1220 C895 5.532 . S
C935 C1340 3.062 . S
C980 C21 2.802 . S
C1040 C61 1.451 . S
C101 C1100 3.048 . S
C141 C1160 2.434 1_545 S
C1231 C181 3.054 . S
C221 C1261 2.063 1_554 S
C1351 C261 1.451 . S
C1381 C301 3.048 . S
C1460 C341 3.054 . S
C381 C1520 2.434 1_455 S
C421 C1580 1.320 . S
C461 C1640 3.048 . S
C501 C1700 2.392 . S
C541 C1760 1.401 . S
C581 C1820 2.773 . S
C621 C1880 2.121 1_565 S
C661 C1921 2.392 . S
C2011 C701 2.121 1_554 S
C2041 C741 1.039 . S
C2131 C781 3.092 1_556 S
C2161 C821 2.900 . S
C861 C2221 2.121 1_655 S
C901 C2300 1.401 . S
C941 C2360 3.092 1_455 S
C2 C1471 2.389 . S
C1621 C42 4.310 . S
C82 C1531 2.275 . S
C1561 C122 4.587 . S
C162 C961 2.456 . S
C202 C1051 4.518 . S
C242 C1081 4.310 . S
C282 C1171 2.275 . S
C1201 C322 2.389 . S
C1321 C362 4.518 . S
C402 C1411 4.310 . S
C442 C1291 2.174 . S
C2180 C482 2.633 . S
C2371 C522 4.405 . S
C562 C2240 1.875 . S
C2311 C602 4.097 . S
C642 C1681 2.298 . S
C682 C1771 4.097 . S
C722 C1801 4.758 . S
C1891 C762 1.875 . S
C1951 C802 2.298 . S
C2071 C842 4.520 . S
C882 C2101 4.405 . S
C1981 C922 1.875 . S
