# Generated by pormake.
# Topology zzz, (3,6)-cn, num edge types: 1
# Building blocks:
#     Node 0, Type 0, BuildingBlock: MIDCAF_clean_linker_0, # of connection points: 3
#     Node 1, Type 0, BuildingBlock: MIDCAF_clean_linker_0, # of connection points: 3
#     Node 2, Type 0, BuildingBlock: MIDCAF_clean_linker_0, # of connection points: 3
#     Node 3, Type 0, BuildingBlock: MIDCAF_clean_linker_0, # of connection points: 3
#     Node 4, Type 0, BuildingBlock: MIDCAF_clean_linker_0, # of connection points: 3
#     Node 5, Type 0, BuildingBlock: MIDCAF_clean_linker_0, # of connection points: 3
#     Node 6, Type 0, BuildingBlock: MIDCAF_clean_linker_0, # of connection points: 3
#     Node 7, Type 0, BuildingBlock: MIDCAF_clean_linker_0, # of connection points: 3
#     Node 8, Type 1, BuildingBlock: NUHQIS_clean_sbu_0, # of connection points: 6
#     Node 9, Type 1, BuildingBlock: NUHQIS_clean_sbu_0, # of connection points: 6
#     Node 10, Type 1, BuildingBlock: NUHQIS_clean_sbu_0, # of connection points: 6
#     Node 11, Type 1, BuildingBlock: NUHQIS_clean_sbu_0, # of connection points: 6
#     Edge 12, Type (0, 1), BuildingBlock: ZUJKAS_clean_linker_0, # of connection points: 2
#     Edge 13, Type (0, 1), BuildingBlock: ZUJKAS_clean_linker_0, # of connection points: 2
#     Edge 14, Type (0, 1), BuildingBlock: ZUJKAS_clean_linker_0, # of connection points: 2
#     Edge 15, Type (0, 1), BuildingBlock: ZUJKAS_clean_linker_0, # of connection points: 2
#     Edge 16, Type (0, 1), BuildingBlock: ZUJKAS_clean_linker_0, # of connection points: 2
#     Edge 17, Type (0, 1), BuildingBlock: ZUJKAS_clean_linker_0, # of connection points: 2
#     Edge 18, Type (0, 1), BuildingBlock: ZUJKAS_clean_linker_0, # of connection points: 2
#     Edge 19, Type (0, 1), BuildingBlock: ZUJKAS_clean_linker_0, # of connection points: 2
#     Edge 20, Type (0, 1), BuildingBlock: ZUJKAS_clean_linker_0, # of connection points: 2
#     Edge 21, Type (0, 1), BuildingBlock: ZUJKAS_clean_linker_0, # of connection points: 2
#     Edge 22, Type (0, 1), BuildingBlock: ZUJKAS_clean_linker_0, # of connection points: 2
#     Edge 23, Type (0, 1), BuildingBlock: ZUJKAS_clean_linker_0, # of connection points: 2
#     Edge 24, Type (0, 1), BuildingBlock: ZUJKAS_clean_linker_0, # of connection points: 2
#     Edge 25, Type (0, 1), BuildingBlock: ZUJKAS_clean_linker_0, # of connection points: 2
#     Edge 26, Type (0, 1), BuildingBlock: ZUJKAS_clean_linker_0, # of connection points: 2
#     Edge 27, Type (0, 1), BuildingBlock: ZUJKAS_clean_linker_0, # of connection points: 2
#     Edge 28, Type (0, 1), BuildingBlock: ZUJKAS_clean_linker_0, # of connection points: 2
#     Edge 29, Type (0, 1), BuildingBlock: ZUJKAS_clean_linker_0, # of connection points: 2
#     Edge 30, Type (0, 1), BuildingBlock: ZUJKAS_clean_linker_0, # of connection points: 2
#     Edge 31, Type (0, 1), BuildingBlock: ZUJKAS_clean_linker_0, # of connection points: 2
#     Edge 32, Type (0, 1), BuildingBlock: ZUJKAS_clean_linker_0, # of connection points: 2
#     Edge 33, Type (0, 1), BuildingBlock: ZUJKAS_clean_linker_0, # of connection points: 2
#     Edge 34, Type (0, 1), BuildingBlock: ZUJKAS_clean_linker_0, # of connection points: 2
#     Edge 35, Type (0, 1), BuildingBlock: ZUJKAS_clean_linker_0, # of connection points: 2
# Relax obj value: 0.390
# Max RMSD: 0.259
# Mean RMSD: 0.232
data_MOF--net-zzz--node1-NUHQIS_clean_sbu_0--node2-MIDCAF_clean_linker_0--edge1-ZUJKAS_clean_linker_0
_symmetry_space_group_name_H-M    P1
_symmetry_Int_Tables_number       1
_symmetry_cell_setting            triclinic
loop_
_symmetry_equiv_pos_as_xyz
'x, y, z'
_cell_length_a     74.090491
_cell_length_b     74.070011
_cell_length_c     23.560992
_cell_angle_alpha  89.851705
_cell_angle_beta   89.953627
_cell_angle_gamma 90.03378
loop_
_atom_site_label
_atom_site_type_symbol
_atom_site_fract_x
_atom_site_fract_y
_atom_site_fract_z
_atom_type_partial_charge
C0 C 0.7813 0.53314 0.3696 0.0
C1 C 0.7856 0.51719 0.39921 0.0
C2 C 0.77444 0.50198 0.39198 0.0
C3 C 0.76012 0.50234 0.35308 0.0
H4 H 0.6951 0.53927 0.24005 0.0
H5 H 0.66406 0.54104 0.20348 0.0
H6 H 0.67009 0.48795 0.13023 0.0
H7 H 0.70068 0.48631 0.16683 0.0
H8 H 0.73682 0.50907 0.05795 0.0
H9 H 0.75453 0.50136 0.97418 0.0
H10 H 0.80171 0.49434 0.07977 0.0
H11 H 0.78429 0.5026 0.16276 0.0
H12 H 0.76516 0.54534 0.30427 0.0
H13 H 0.78972 0.54503 0.37371 0.0
H14 H 0.77733 0.48953 0.41438 0.0
H15 H 0.75261 0.49003 0.34523 0.0
N16 N 0.72828 0.51609 0.26416 0.0
N17 N 0.7301 0.51029 0.16605 0.0
N18 N 0.75652 0.51326 0.21898 0.0
C19 C 0.71998 0.5132 0.21316 0.0
C20 C 0.74834 0.51037 0.16846 0.0
C21 C 0.74672 0.51613 0.26675 0.0
C22 C 0.70017 0.51259 0.20661 0.0
C23 C 0.68944 0.52776 0.21805 0.0
C24 C 0.67179 0.52884 0.1964 0.0
C25 C 0.66457 0.51469 0.16347 0.0
C26 C 0.67501 0.49903 0.15585 0.0
C27 C 0.69259 0.49806 0.17684 0.0
C28 C 0.75914 0.50645 0.11713 0.0
C29 C 0.75102 0.506 0.06318 0.0
C30 C 0.76113 0.50149 0.01516 0.0
C31 C 0.77955 0.49726 0.02014 0.0
C32 C 0.78765 0.49788 0.07408 0.0
C33 C 0.77761 0.50252 0.12189 0.0
C34 C 0.75675 0.51785 0.32049 0.0
C35 C 0.76716 0.53339 0.33013 0.0
C36 C 0.98509 0.79762 0.33464 0.0
C37 C 0.99522 0.79432 0.38397 0.0
C38 C 0.00458 0.77782 0.38872 0.0
C39 C 0.00422 0.76519 0.34423 0.0
H40 H 0.02908 0.70868 0.18345 0.0
H41 H 0.02932 0.67766 0.14847 0.0
H42 H 0.97115 0.67594 0.16101 0.0
H43 H 0.97116 0.70684 0.19762 0.0
H44 H 1.00135 0.74236 0.03573 0.0
H45 H 0.00679 0.75799 0.94614 0.0
H46 H 0.01266 0.80832 0.03675 0.0
H47 H 0.00666 0.79291 0.1256 0.0
H48 H 0.97765 0.7886 0.2518 0.0
H49 H 0.9779 0.81023 0.32918 0.0
H50 H 0.01245 0.77486 0.42631 0.0
H51 H 0.01205 0.7529 0.34804 0.0
N52 N 0.99752 0.73935 0.24449 0.0
N53 N 1.00147 0.73863 0.14527 0.0
N54 N 0.99864 0.76631 0.19144 0.0
C55 C 0.9997 0.7298 0.19546 0.0
C56 C 1.00098 0.75687 0.14282 0.0
C57 C 0.99691 0.75779 0.2423 0.0
C58 C 1.00014 0.70995 0.19415 0.0
C59 C 0.01646 0.70132 0.18117 0.0
C60 C 0.01653 0.68367 0.16022 0.0
C61 C 1.00022 0.67439 0.15077 0.0
C62 C 0.98397 0.68259 0.16803 0.0
C63 C 0.98394 0.70025 0.18938 0.0
C64 C 1.00357 0.76637 0.08799 0.0
C65 C 1.00367 0.75679 0.03647 0.0
C66 C 0.00687 0.76573 0.98506 0.0
C67 C 0.01011 0.78443 0.98407 0.0
C68 C 0.00983 0.79398 0.0356 0.0
C69 C 0.00651 0.7851 0.08681 0.0
C70 C 0.99483 0.76905 0.29384 0.0
C71 C 0.98501 0.78523 0.29011 0.0
C72 C 0.73357 0.99849 0.42044 0.0
C73 C 0.72024 0.98493 0.41692 0.0
C74 C 0.72319 0.97045 0.37945 0.0
C75 C 0.73804 0.9704 0.34282 0.0
H76 H 0.81541 0.96647 0.27312 0.0
H77 H 0.84668 0.96625 0.23854 0.0
H78 H 0.84034 0.02126 0.18032 0.0
H79 H 0.80948 0.02136 0.21532 0.0
H80 H 0.77831 1.00331 0.09301 0.0
H81 H 0.76231 0.01116 0.00596 0.0
H82 H 0.71178 0.99656 0.08557 0.0
H83 H 0.72764 0.98841 0.17174 0.0
H84 H 0.75788 0.00963 0.38447 0.0
H85 H 0.73177 0.0099 0.44851 0.0
H86 H 0.71356 0.95949 0.37648 0.0
H87 H 0.73915 0.95977 0.31151 0.0
N88 N 0.78064 0.98898 0.29673 0.0
N89 N 0.78168 0.99419 0.19806 0.0
N90 N 0.75399 0.98895 0.24219 0.0
C91 C 0.79034 0.99235 0.24841 0.0
C92 C 0.76356 0.99245 0.19444 0.0
C93 C 0.76228 0.98728 0.29327 0.0
C94 C 0.81017 0.99402 0.24759 0.0
C95 C 0.82108 0.97873 0.25542 0.0
C96 C 0.83887 0.97854 0.23466 0.0
C97 C 0.84603 0.99367 0.20589 0.0
C98 C 0.83548 0.00942 0.20264 0.0
C99 C 0.81776 0.00954 0.22293 0.0
C100 C 0.75424 0.99541 0.13969 0.0
C101 C 0.76381 1.00151 0.09167 0.0
C102 C 0.75467 0.00606 0.04179 0.0
C103 C 0.7358 0.00451 0.03886 0.0
C104 C 0.72636 0.99766 0.08604 0.0
C105 C 0.73546 0.99315 0.1358 0.0
C106 C 0.7506 0.98459 0.34348 0.0
C107 C 0.74863 0.99831 0.38405 0.0
C108 C 0.45157 0.72069 0.12547 0.0
C109 C 0.44527 0.72903 0.0756 0.0
C110 C 0.44852 0.74755 0.06754 0.0
C111 C 0.45861 0.75729 0.10714 0.0
H112 H 0.47691 0.80618 0.14491 0.0
H113 H 0.48472 0.83562 0.11013 0.0
H114 H 0.53274 0.83567 0.21405 0.0
H115 H 0.52507 0.80515 0.24838 0.0
H116 H 0.47688 0.74478 0.35858 0.0
H117 H 0.48455 0.71978 0.42068 0.0
H118 H 0.53973 0.72194 0.36125 0.0
H119 H 0.53166 0.747 0.29763 0.0
H120 H 0.4667 0.72333 0.20197 0.0
H121 H 0.44958 0.70638 0.13272 0.0
H122 H 0.44366 0.75442 0.02991 0.0
H123 H 0.46131 0.77142 0.09878 0.0
N124 N 0.48347 0.77537 0.1823 0.0
N125 N 0.5028 0.77545 0.26157 0.0
N126 N 0.48491 0.75 0.24051 0.0
C127 C 0.49565 0.78415 0.21536 0.0
C128 C 0.49718 0.75829 0.27427 0.0
C129 C 0.47807 0.75837 0.19429 0.0
C130 C 0.50042 0.80307 0.19941 0.0
C131 C 0.48917 0.8123 0.16091 0.0
C132 C 0.49355 0.82946 0.14123 0.0
C133 C 0.50928 0.83826 0.15956 0.0
C134 C 0.52052 0.82927 0.19886 0.0
C135 C 0.51608 0.81185 0.21887 0.0
C136 C 0.50372 0.74797 0.3239 0.0
C137 C 0.49082 0.74038 0.36053 0.0
C138 C 0.49526 0.72596 0.39615 0.0
C139 C 0.51276 0.71858 0.39589 0.0
C140 C 0.52605 0.72707 0.36207 0.0
C141 C 0.52156 0.74165 0.32637 0.0
C142 C 0.46564 0.7487 0.15565 0.0
C143 C 0.46158 0.73041 0.16507 0.0
C144 C 0.21575 0.5124 0.97512 0.0
C145 C 0.21499 0.49797 0.93663 0.0
C146 C 0.2288 0.48487 0.93834 0.0
C147 C 0.24271 0.48595 0.97892 0.0
H148 H 0.30287 0.46641 0.10894 0.0
H149 H 0.33409 0.46279 0.14147 0.0
H150 H 0.33914 0.5208 0.15394 0.0
H151 H 0.30831 0.52417 0.1203 0.0
H152 H 0.27521 0.51729 0.26306 0.0
H153 H 0.26129 0.52607 0.35312 0.0
H154 H 0.20887 0.51213 0.28626 0.0
H155 H 0.2226 0.50341 0.19674 0.0
H156 H 0.22906 0.52426 0.04625 0.0
H157 H 0.20528 0.5226 0.9757 0.0
H158 H 0.22865 0.47362 0.90909 0.0
H159 H 0.25279 0.47539 0.98079 0.0
N160 N 0.27309 0.49652 0.06479 0.0
N161 N 0.27607 0.50208 0.16285 0.0
N162 N 0.24774 0.50403 0.1202 0.0
C163 C 0.28363 0.49775 0.11226 0.0
C164 C 0.25812 0.50505 0.16732 0.0
C165 C 0.25498 0.49984 0.06894 0.0
C166 C 0.30338 0.49557 0.11106 0.0
C167 C 0.31104 0.47833 0.11597 0.0
C168 C 0.32881 0.47629 0.13565 0.0
C169 C 0.33915 0.49149 0.15122 0.0
C170 C 0.3318 0.50876 0.14187 0.0
C171 C 0.31411 0.51075 0.12228 0.0
C172 C 0.24998 0.50972 0.22266 0.0
C173 C 0.26073 0.51596 0.2678 0.0
C174 C 0.2528 0.52102 0.31926 0.0
C175 C 0.23406 0.51963 0.32672 0.0
C176 C 0.2234 0.51306 0.282 0.0
C177 C 0.23125 0.50824 0.23049 0.0
C178 C 0.24279 0.49995 0.01905 0.0
C179 C 0.22937 0.51331 0.01585 0.0
C180 C 0.99892 0.22019 0.97733 0.0
C181 C 0.01474 0.21779 0.94529 0.0
C182 C 0.02896 0.23027 0.95229 0.0
C183 C 0.02769 0.24422 0.99256 0.0
H184 H 0.00423 0.31324 0.07596 0.0
H185 H 0.00714 0.34461 0.10833 0.0
H186 H 0.04672 0.32765 0.23207 0.0
H187 H 0.04381 0.29669 0.19942 0.0
H188 H 0.99511 0.27421 0.27614 0.0
H189 H 0.98457 0.25918 0.36286 0.0
H190 H 0.99289 0.20731 0.28395 0.0
H191 H 1.00324 0.22213 0.19759 0.0
H192 H 0.98574 0.23467 0.04387 0.0
H193 H 0.98778 0.2108 0.9738 0.0
H194 H 0.04129 0.2289 0.92796 0.0
H195 H 0.03917 0.25301 0.99931 0.0
N196 N 0.01823 0.27439 0.07996 0.0
N197 N 0.01221 0.27546 0.17818 0.0
N198 N 0.00632 0.24907 0.1277 0.0
C199 C 0.01815 0.28366 0.13011 0.0
C200 C 0.00627 0.2582 0.17735 0.0
C201 C 0.01224 0.25691 0.079 0.0
C202 C 0.02394 0.30265 0.13485 0.0
C203 C 0.01411 0.31646 0.10826 0.0
C204 C 0.01559 0.33435 0.12747 0.0
C205 C 0.02702 0.33867 0.17332 0.0
C206 C 0.03792 0.32496 0.19639 0.0
C207 C 0.0363 0.30717 0.17762 0.0
C208 C 1.0 0.24934 0.23001 0.0
C209 C 0.99474 0.25959 0.27744 0.0
C210 C 0.98866 0.25105 0.32692 0.0
C211 C 0.9881 0.23214 0.33004 0.0
C212 C 0.99345 0.22193 0.28282 0.0
C213 C 0.99923 0.23042 0.23323 0.0
C214 C 0.01227 0.24573 0.02697 0.0
C215 C 0.99776 0.23389 0.01772 0.0
C216 C 0.28948 0.99953 0.9913 0.0
C217 C 0.29144 0.01454 0.95518 0.0
C218 C 0.27844 0.02842 0.95817 0.0
C219 C 0.26428 0.0276 0.99802 0.0
H220 H 0.19599 0.99633 0.09786 0.0
H221 H 0.16498 0.99729 0.1341 0.0
H222 H 0.17619 0.04858 0.21341 0.0
H223 H 0.20702 0.04748 0.17711 0.0
H224 H 0.23156 0.99682 0.28165 0.0
H225 H 0.24562 0.98656 0.3701 0.0
H226 H 0.29818 0.99893 0.30092 0.0
H227 H 0.28432 0.00902 0.21287 0.0
H228 H 0.27507 0.98748 0.06032 0.0
H229 H 0.29928 0.98869 0.9909 0.0
H230 H 0.27948 0.04012 0.9307 0.0
H231 H 0.25496 0.03881 1.00128 0.0
N232 N 0.23332 0.01816 0.08412 0.0
N233 N 0.23098 0.01352 0.18292 0.0
N234 N 0.25858 0.009 0.13749 0.0
C235 C 0.22324 0.01812 0.13282 0.0
C236 C 0.24862 0.00899 0.18566 0.0
C237 C 0.25119 0.01355 0.08674 0.0
C238 C 0.20374 0.02201 0.13377 0.0
C239 C 0.19147 0.00822 0.12051 0.0
C240 C 0.17383 0.00864 0.14215 0.0
C241 C 0.16814 0.02291 0.17735 0.0
C242 C 0.18 0.03747 0.18612 0.0
C243 C 0.19766 0.03694 0.16499 0.0
C244 C 0.25686 1.00367 0.24023 0.0
C245 C 0.24611 0.9975 0.2856 0.0
C246 C 0.2541 0.99159 0.33609 0.0
C247 C 0.27293 0.9921 0.34234 0.0
C248 C 0.2836 0.99865 0.29749 0.0
C249 C 0.27567 0.00428 0.24688 0.0
C250 C 0.26309 0.01302 0.03611 0.0
C251 C 0.27559 0.99885 0.03132 0.0
C252 C 0.5346 0.28805 0.27164 0.0
C253 C 0.53902 0.27857 0.32136 0.0
C254 C 0.53565 0.25994 0.32428 0.0
C255 C 0.52752 0.25105 0.27858 0.0
H256 H 0.475 0.21781 0.22951 0.0
H257 H 0.46822 0.18753 0.26377 0.0
H258 H 0.49648 0.16489 0.12021 0.0
H259 H 0.50316 0.19555 0.08566 0.0
H260 H 0.53213 0.26752 0.03029 0.0
H261 H 0.53061 0.29139 0.95932 0.0
H262 H 0.47267 0.28533 0.95179 0.0
H263 H 0.47439 0.26087 0.02227 0.0
H264 H 0.52337 0.28699 0.1884 0.0
H265 H 0.53727 0.3024 0.26813 0.0
H266 H 0.53895 0.25237 0.36227 0.0
H267 H 0.52484 0.23672 0.28217 0.0
N268 N 0.50602 0.23519 0.18772 0.0
N269 N 0.49638 0.23541 0.09232 0.0
N270 N 0.51298 0.25976 0.12958 0.0
C271 C 0.49736 0.227 0.144 0.0
C272 C 0.5043 0.25195 0.08531 0.0
C273 C 0.5139 0.25153 0.18083 0.0
C274 C 0.48947 0.20899 0.15475 0.0
C275 C 0.47922 0.20636 0.20423 0.0
C276 C 0.47534 0.18898 0.22384 0.0
C277 C 0.48189 0.17374 0.19496 0.0
C278 C 0.49133 0.17636 0.1436 0.0
C279 C 0.49497 0.19386 0.12341 0.0
C280 C 0.50339 0.26232 0.03162 0.0
C281 C 0.51913 0.27089 0.01207 0.0
C282 C 0.51821 0.28475 0.97194 0.0
C283 C 0.50147 0.29066 0.95086 0.0
C284 C 0.48579 0.28114 0.96711 0.0
C285 C 0.48676 0.26705 0.0072 0.0
C286 C 0.52291 0.26062 0.22895 0.0
C287 C 0.52673 0.27918 0.22586 0.0
Tb288 Tb 0.02327 0.99668 0.72794 0.0
Eu289 Eu 0.98896 0.00747 0.6487 0.0
C290 C 0.02874 0.00716 0.6009 0.0
C291 C 0.01075 0.03749 0.72102 0.0
C292 C 0.05957 0.96812 0.77577 0.0
C293 C 0.06864 0.94395 0.71212 0.0
C294 C 0.06414 0.96203 0.72111 0.0
C295 C 0.0609 0.95618 0.82171 0.0
C296 C 0.06513 0.93806 0.81267 0.0
C297 C 0.06833 0.93154 0.75739 0.0
C298 C 0.04985 0.98528 0.78345 0.0
O299 O 1.00086 1.00257 0.78523 0.0
O300 O 0.97878 0.99275 0.72604 0.0
O301 O 0.99555 0.97901 0.62287 0.0
O302 O 0.01165 0.97079 0.70217 0.0
C303 C 0.98438 0.99656 0.77736 0.0
O304 O 0.96061 0.01512 0.64502 0.0
O305 O 0.97592 0.01272 0.56718 0.0
O306 O 0.01412 0.01709 0.60361 0.0
O307 O 0.03185 0.99483 0.63971 0.0
O308 O 0.0243 0.02617 0.72747 0.0
O309 O 0.99519 0.0323 0.69997 0.0
C310 C 1.00328 0.96662 0.65468 0.0
O311 O 0.05126 0.99715 0.74265 0.0
O312 O 0.03317 0.98336 0.80011 0.0
C313 C 0.95596 0.03767 0.57642 0.0
C314 C 0.95088 0.07528 0.5678 0.0
C315 C 0.93966 0.06489 0.60313 0.0
C316 C 0.94215 0.04623 0.60726 0.0
C317 C 0.96623 0.04791 0.53785 0.0
C318 C 0.96368 0.0665 0.53354 0.0
C319 C 0.96129 0.01901 0.59105 0.0
H320 H 0.0714 0.93953 0.66922 0.0
H321 H 0.06314 0.97092 0.68467 0.0
H322 H 0.05723 0.96053 0.86407 0.0
H323 H 0.06448 0.92899 0.84869 0.0
H324 H 0.92963 0.07127 0.62984 0.0
H325 H 0.93396 0.03864 0.63708 0.0
H326 H 0.97686 0.04175 0.51294 0.0
H327 H 0.97217 0.07411 0.50466 0.0
Tb328 Tb 0.51051 0.02208 0.71595 0.0
Eu329 Eu 0.49882 0.98792 0.63682 0.0
C330 C 0.49665 0.02803 0.59122 0.0
C331 C 0.47 0.00938 0.7133 0.0
C332 C 0.53907 0.052 0.79956 0.0
C333 C 0.56577 0.07093 0.8054 0.0
C334 C 0.54763 0.06868 0.7908 0.0
C335 C 0.54864 0.03783 0.82533 0.0
C336 C 0.56666 0.04013 0.8404 0.0
C337 C 0.57551 0.05655 0.82937 0.0
C338 C 0.52142 0.0486 0.77345 0.0
O339 O 0.51002 0.99893 0.77385 0.0
O340 O 0.51432 0.97613 0.70976 0.0
O341 O 0.52729 0.99504 0.61088 0.0
O342 O 0.53602 0.00918 0.69305 0.0
C343 C 0.51404 0.98206 0.7621 0.0
O344 O 0.49056 0.95977 0.63171 0.0
O345 O 0.49313 0.97551 0.55467 0.0
O346 O 0.48772 0.01277 0.59367 0.0
O347 O 0.50924 0.03163 0.62857 0.0
O348 O 0.48103 0.02331 0.71399 0.0
O349 O 0.4754 0.99353 0.69525 0.0
C350 C 0.53998 1.00148 0.64428 0.0
O351 O 0.52178 0.04804 0.71836 0.0
O352 O 0.51184 0.03544 0.79457 0.0
C353 C 0.46782 0.95596 0.56391 0.0
C354 C 0.43014 0.951 0.5596 0.0
C355 C 0.44107 0.93855 0.58862 0.0
C356 C 0.45977 0.94099 0.59061 0.0
C357 C 0.45701 0.96764 0.53147 0.0
C358 C 0.43838 0.96513 0.52918 0.0
C359 C 0.48661 0.96085 0.57792 0.0
H360 H 0.5723 0.08373 0.79671 0.0
H361 H 0.54052 0.07967 0.77023 0.0
H362 H 0.54247 0.0247 0.83141 0.0
H363 H 0.57392 0.02874 0.85802 0.0
H364 H 0.43512 0.92749 0.61232 0.0
H365 H 0.46782 0.93178 0.61587 0.0
H366 H 0.46276 0.97927 0.5101 0.0
H367 H 0.43036 0.97464 0.50501 0.0
Tb368 Tb 0.48938 0.50658 0.6856 0.0
Eu369 Eu 0.52325 0.49474 0.60465 0.0
C370 C 0.48326 0.49576 0.55938 0.0
C371 C 0.50184 0.46571 0.68195 0.0
C372 C 0.45673 0.53496 0.76074 0.0
C373 C 0.4333 0.55491 0.79562 0.0
C374 C 0.43943 0.5375 0.78333 0.0
C375 C 0.46789 0.54991 0.75071 0.0
C376 C 0.46175 0.56728 0.76253 0.0
C377 C 0.44436 0.56998 0.78485 0.0
C378 C 0.46269 0.51694 0.74365 0.0
O379 O 0.51381 0.51591 0.72835 0.0
O380 O 0.53228 0.49368 0.69572 0.0
O381 O 0.52381 0.52515 0.6026 0.0
O382 O 0.49525 0.53097 0.63661 0.0
C383 C 0.52848 0.50609 0.73343 0.0
O384 O 0.55221 0.4946 0.58755 0.0
O385 O 0.53391 0.4807 0.53082 0.0
O386 O 0.49975 0.50089 0.54727 0.0
O387 O 0.47869 0.49226 0.61212 0.0
O388 O 0.49527 0.479 0.71266 0.0
O389 O 0.51023 0.46872 0.63363 0.0
C390 C 0.51036 0.5363 0.61225 0.0
O391 O 0.46214 0.51408 0.68922 0.0
O392 O 0.47782 0.51134 0.76571 0.0
C393 C 0.56144 0.46672 0.5504 0.0
C394 C 0.57855 0.4328 0.55137 0.0
C395 C 0.58354 0.44607 0.51133 0.0
C396 C 0.57497 0.46289 0.51073 0.0
C397 C 0.55718 0.45398 0.59245 0.0
C398 C 0.56563 0.43716 0.59291 0.0
C399 C 0.55069 0.48324 0.54558 0.0
H400 H 0.41983 0.55663 0.81265 0.0
H401 H 0.4306 0.52606 0.79075 0.0
H402 H 0.4813 0.54814 0.73324 0.0
H403 H 0.4707 0.5786 0.75477 0.0
H404 H 0.59359 0.44321 0.47921 0.0
H405 H 0.57844 0.47264 0.47815 0.0
H406 H 0.54673 0.45675 0.62343 0.0
H407 H 0.56122 0.42724 0.62379 0.0
Tb408 Tb 0.99645 0.49005 0.70095 0.0
Eu409 Eu 0.00765 0.52337 0.61791 0.0
C410 C 0.0072 0.48294 0.575 0.0
C411 C 0.03734 0.50199 0.69279 0.0
C412 C 0.96791 0.45504 0.7641 0.0
C413 C 0.94157 0.44356 0.71425 0.0
C414 C 0.95961 0.44912 0.71382 0.0
C415 C 0.95826 0.45432 0.81509 0.0
C416 C 0.94019 0.4491 0.81542 0.0
C417 C 0.93138 0.44419 0.76469 0.0
C418 C 0.98528 0.46467 0.76303 0.0
O419 O 1.00307 0.51308 0.75469 0.0
O420 O 0.99293 0.53449 0.69364 0.0
O421 O 0.97926 0.5166 0.5918 0.0
O422 O 0.97076 0.50194 0.67374 0.0
C423 C 0.99699 0.52945 0.74536 0.0
O424 O 0.01517 0.55173 0.61135 0.0
O425 O 0.01399 0.5354 0.53546 0.0
O426 O 0.01697 0.49771 0.57581 0.0
O427 O 0.99495 0.48004 0.61424 0.0
O428 O 0.02592 0.48854 0.69981 0.0
O429 O 0.03224 0.51748 0.67084 0.0
C430 C 0.96674 0.50968 0.62489 0.0
O431 O 0.99561 0.46222 0.71887 0.0
O432 O 0.98421 0.48166 0.77676 0.0
C433 C 0.03919 0.55491 0.54736 0.0
C434 C 0.07704 0.55876 0.54955 0.0
C435 C 0.066 0.57121 0.57799 0.0
C436 C 0.04723 0.56932 0.57676 0.0
C437 C 0.05021 0.54327 0.51555 0.0
C438 C 0.06892 0.54522 0.51655 0.0
C439 C 0.02011 0.55024 0.55845 0.0
H440 H 0.93543 0.43952 0.67458 0.0
H441 H 0.96675 0.44962 0.67371 0.0
H442 H 0.96435 0.45899 0.85422 0.0
H443 H 0.9329 0.45017 0.85508 0.0
H444 H 0.07186 0.58184 0.60353 0.0
H445 H 0.03904 0.57849 0.60164 0.0
H446 H 0.04452 0.53208 0.49213 0.0
H447 H 0.07707 0.53575 0.49272 0.0
H448 H 0.15505 0.99338 0.23367 0.0
H449 H 0.12955 0.99194 0.29945 0.0
H450 H 0.11755 0.04787 0.26608 0.0
H451 H 0.1431 0.04946 0.19971 0.0
H452 H 0.12719 0.0188 0.39905 0.0
H453 H 0.06763 0.0176 0.25492 0.0
H454 H 0.08944 0.00917 0.23299 0.0
H455 H 0.08589 0.03299 0.23971 0.0
C456 C 0.14674 0.00528 0.23905 0.0
C457 C 0.15111 0.02153 0.21107 0.0
C458 C 0.13223 0.00445 0.27705 0.0
C459 C 0.12162 0.01976 0.28748 0.0
C460 C 0.1255 0.03585 0.2583 0.0
H461 H 0.0298 0.0339 0.51954 0.0
H462 H 0.0522 0.03785 0.44369 0.0
C463 C 0.14014 0.03675 0.22057 0.0
C464 C 0.10746 0.01917 0.33217 0.0
H465 H 0.06186 0.01712 0.35332 0.0
C466 C 0.11289 0.01846 0.38913 0.0
C467 C 0.08885 0.01898 0.31909 0.0
C468 C 0.08244 0.01966 0.25842 0.0
C469 C 0.10022 0.01746 0.43347 0.0
C470 C 0.08156 0.01658 0.4205 0.0
C471 C 0.07612 0.01769 0.3634 0.0
C472 C 0.06761 0.01401 0.46555 0.0
C473 C 0.10701 0.01768 0.49386 0.0
C474 C 0.06853 0.99911 0.50241 0.0
C475 C 0.05588 0.99692 0.546 0.0
C476 C 0.04178 0.00942 0.55331 0.0
C477 C 0.04051 0.02405 0.51528 0.0
C478 C 0.05331 0.02632 0.47183 0.0
H479 H 0.12049 0.02418 0.49686 0.0
H480 H 0.09754 0.02493 0.52233 0.0
H481 H 0.1084 1.00358 0.50934 0.0
H482 H 0.07908 0.98912 0.49755 0.0
H483 H 0.05719 0.98536 0.57394 0.0
H484 H 0.50823 0.14807 0.2054 0.0
H485 H 0.50751 0.12074 0.26371 0.0
H486 H 0.45185 0.13115 0.30608 0.0
H487 H 0.45256 0.15863 0.24819 0.0
H488 H 0.47146 0.12574 0.3992 0.0
H489 H 0.48652 0.07083 0.24785 0.0
H490 H 0.50298 0.08856 0.24466 0.0
H491 H 0.47997 0.09316 0.22486 0.0
C492 C 0.49567 0.14426 0.22571 0.0
C493 C 0.48045 0.15557 0.22208 0.0
C494 C 0.49526 0.12858 0.2591 0.0
C495 C 0.47957 0.12371 0.28902 0.0
C496 C 0.46412 0.13457 0.28344 0.0
H497 H 0.47261 0.02553 0.50214 0.0
H498 H 0.46691 0.04812 0.42766 0.0
C499 C 0.46455 0.1503 0.25035 0.0
C500 C 0.47984 0.10848 0.33059 0.0
H501 H 0.49093 0.06393 0.34682 0.0
C502 C 0.4755 0.11218 0.38745 0.0
C503 C 0.4849 0.09068 0.31549 0.0
C504 C 0.48867 0.08551 0.25477 0.0
C505 C 0.47675 0.09885 0.42977 0.0
C506 C 0.48284 0.08135 0.41525 0.0
C507 C 0.48646 0.07739 0.35809 0.0
C508 C 0.48639 0.06738 0.45939 0.0
C509 C 0.47163 0.10367 0.48985 0.0
C510 C 0.49942 0.07055 0.50136 0.0
C511 C 0.50269 0.05776 0.54377 0.0
C512 C 0.49307 0.04136 0.54519 0.0
C513 C 0.4802 0.03803 0.50252 0.0
C514 C 0.47695 0.05091 0.45985 0.0
H515 H 0.4624 0.11548 0.49108 0.0
H516 H 0.46499 0.09213 0.51166 0.0
H517 H 0.484 0.10725 0.51388 0.0
H518 H 0.50712 0.08299 0.50129 0.0
H519 H 0.51278 0.0608 0.57558 0.0
H520 H 0.34761 0.46637 0.23291 0.0
H521 H 0.37396 0.46586 0.29514 0.0
H522 H 0.39595 0.51205 0.20771 0.0
H523 H 0.36986 0.51243 0.14398 0.0
H524 H 0.4137 0.46527 0.27072 0.0
H525 H 0.38923 0.52722 0.37958 0.0
H526 H 0.37467 0.51335 0.33634 0.0
H527 H 0.39073 0.52819 0.3034 0.0
C528 C 0.35824 0.47614 0.22563 0.0
C529 C 0.35646 0.48952 0.18337 0.0
C530 C 0.37327 0.47588 0.26166 0.0
C531 C 0.38678 0.48906 0.25657 0.0
C532 C 0.38554 0.5019 0.21285 0.0
H533 H 0.4885 0.49784 0.44407 0.0
H534 H 0.46565 0.49564 0.36915 0.0
C535 C 0.37057 0.50211 0.17655 0.0
C536 C 0.40154 0.49002 0.29916 0.0
H537 H 0.41694 0.51514 0.41063 0.0
C538 C 0.41449 0.4762 0.30115 0.0
C539 C 0.40239 0.50419 0.33925 0.0
C540 C 0.38848 0.51906 0.34015 0.0
C541 C 0.42837 0.47628 0.34198 0.0
C542 C 0.42929 0.49054 0.38174 0.0
C543 C 0.41627 0.50428 0.3799 0.0
C544 C 0.44333 0.49121 0.42676 0.0
C545 C 0.44173 0.46093 0.3432 0.0
C546 C 0.43836 0.48959 0.48402 0.0
C547 C 0.45136 0.49077 0.52691 0.0
C548 C 0.46963 0.49382 0.51348 0.0
C549 C 0.47458 0.49544 0.45597 0.0
C550 C 0.46155 0.49411 0.41304 0.0
H551 H 0.43731 0.44942 0.31645 0.0
H552 H 0.45495 0.46579 0.32706 0.0
H553 H 0.44375 0.45606 0.38735 0.0
H554 H 0.42436 0.48743 0.49557 0.0
H555 H 0.44703 0.48955 0.57066 0.0
H556 H 0.05489 0.35881 0.2173 0.0
H557 H 0.05258 0.38527 0.27898 0.0
H558 H 0.99483 0.38554 0.25718 0.0
H559 H 0.99696 0.35898 0.19609 0.0
H560 H 0.01133 0.42085 0.25622 0.0
H561 H 0.03203 0.37927 0.44185 0.0
H562 H 0.04729 0.37893 0.38253 0.0
H563 H 0.0251 0.36942 0.37536 0.0
C564 C 0.0417 0.36459 0.22517 0.0
C565 C 0.0261 0.35661 0.20204 0.0
C566 C 0.04041 0.37971 0.26049 0.0
C567 C 0.0235 0.38717 0.27354 0.0
C568 C 0.00802 0.37997 0.24783 0.0
H569 H 0.99072 0.45008 0.56409 0.0
H570 H 0.99493 0.42773 0.48917 0.0
C571 C 0.00928 0.36483 0.21253 0.0
C572 C 0.0218 0.40172 0.31666 0.0
H573 H 0.02736 0.41033 0.45805 0.0
C574 C 0.01491 0.41861 0.3003 0.0
C575 C 0.02622 0.39867 0.37435 0.0
C576 C 0.03293 0.38057 0.39494 0.0
C577 C 0.01245 0.43256 0.34005 0.0
C578 C 0.01712 0.42957 0.39757 0.0
C579 C 0.02392 0.41266 0.41389 0.0
C580 C 0.01442 0.44354 0.44206 0.0
C581 C 0.00446 0.45024 0.32054 0.0
C582 C 0.02409 0.45986 0.44081 0.0
C583 C 0.02175 0.4727 0.48382 0.0
C584 C 0.0097 0.46947 0.52896 0.0
C585 C 1.00007 0.45308 0.52998 0.0
C586 C 1.00247 0.44025 0.48717 0.0
H587 H 0.9981 0.44909 0.27801 0.0
H588 H 0.99418 0.4551 0.35124 0.0
H589 H 0.0153 0.46055 0.31791 0.0
H590 H 0.03361 0.46256 0.40694 0.0
H591 H 0.02944 0.48513 0.48173 0.0
H592 H 0.87239 0.01961 0.19351 0.0
H593 H 0.89783 0.01943 0.12711 0.0
H594 H 0.88425 0.96518 0.07702 0.0
H595 H 0.85865 0.9653 0.14254 0.0
H596 H 0.92249 0.97184 0.08959 0.0
H597 H 0.88838 0.02289 0.95369 0.0
H598 H 0.89114 0.02912 0.02685 0.0
H599 H 0.87666 0.01056 0.00868 0.0
C600 C 0.87487 0.00757 0.16871 0.0
C601 C 0.86331 0.99253 0.1732 0.0
C602 C 0.88943 0.0075 0.13074 0.0
C603 C 0.89276 0.99241 0.09636 0.0
C604 C 0.88192 0.977 0.10301 0.0
H605 H 0.94871 0.98698 0.7745 0.0
H606 H 0.92739 0.98549 0.85352 0.0
C607 C 0.86733 0.97706 0.1409 0.0
C608 C 0.90681 0.99304 0.05118 0.0
H609 H 0.91763 0.0139 0.92608 0.0
C610 C 0.92149 0.98107 0.05394 0.0
C611 C 0.90534 0.00491 0.00423 0.0
C612 C 0.88948 0.01752 0.99762 0.0
C613 C 0.93481 0.98079 0.01123 0.0
C614 C 0.93347 0.99287 0.96475 0.0
C615 C 0.91873 0.00474 0.96191 0.0
C616 C 0.94685 0.99308 0.91753 0.0
C617 C 0.94998 0.96729 0.01545 0.0
C618 C 0.96494 0.99788 0.92708 0.0
C619 C 0.97723 0.99878 0.88181 0.0
C620 C 0.97165 0.99492 0.82602 0.0
C621 C 0.95354 0.98999 0.8168 0.0
C622 C 0.94128 0.98916 0.86198 0.0
H623 H 0.94696 0.95643 0.04665 0.0
H624 H 0.9527 0.96103 0.97352 0.0
H625 H 0.96245 0.97431 0.02933 0.0
H626 H 0.9695 1.00126 0.96941 0.0
H627 H 0.99104 1.0027 0.89048 0.0
H628 H 0.54254 0.85144 0.12656 0.0
H629 H 0.54874 0.87923 0.07321 0.0
H630 H 0.49215 0.89283 0.07917 0.0
H631 H 0.4862 0.86611 0.13582 0.0
H632 H 0.539 0.88736 0.97349 0.0
H633 H 0.51122 0.94121 0.10694 0.0
H634 H 0.51449 0.91865 0.13395 0.0
H635 H 0.49396 0.92462 0.09707 0.0
C636 C 0.53154 0.86069 0.11827 0.0
C637 C 0.51383 0.85637 0.13513 0.0
C638 C 0.53507 0.87653 0.0872 0.0
C639 C 0.52097 0.88838 0.07231 0.0
C640 C 0.50343 0.88435 0.09107 0.0
H641 H 0.5089 0.94571 0.76045 0.0
H642 H 0.51293 0.92419 0.83766 0.0
C643 C 0.49997 0.86877 0.12278 0.0
C644 C 0.52402 0.90382 0.03234 0.0
H645 H 0.51064 0.94712 0.00467 0.0
C646 C 0.5331 0.90053 0.98098 0.0
C647 C 0.51684 0.92129 0.04202 0.0
C648 C 0.5088 0.92667 0.09835 0.0
C649 C 0.53416 0.91371 0.93803 0.0
C650 C 0.52516 0.93045 0.94526 0.0
C651 C 0.51715 0.93418 0.99804 0.0
C652 C 0.52307 0.94379 0.8979 0.0
C653 C 0.54498 0.90944 0.88547 0.0
C654 C 0.52655 0.96229 0.90619 0.0
C655 C 0.52367 0.9748 0.86224 0.0
C656 C 0.51747 0.96903 0.80888 0.0
C657 C 0.51402 0.95056 0.80068 0.0
C658 C 0.51649 0.93817 0.84483 0.0
H659 H 0.55636 0.90021 0.89559 0.0
H660 H 0.53621 0.90243 0.85437 0.0
H661 H 0.55055 0.92183 0.86543 0.0
H662 H 0.53147 0.96708 0.94672 0.0
H663 H 0.52641 0.98896 0.8699 0.0
H664 H 0.65213 0.54452 0.10653 0.0
H665 H 0.62633 0.54634 0.04204 0.0
H666 H 0.61272 0.49103 0.08038 0.0
H667 H 0.63806 0.48931 0.1464 0.0
H668 H 0.62279 0.52653 0.94698 0.0
H669 H 0.56344 0.51431 0.08437 0.0
H670 H 0.58532 0.52012 0.11267 0.0
H671 H 0.58038 0.49722 0.09255 0.0
C672 C 0.64331 0.53292 0.10276 0.0
C673 C 0.64723 0.51675 0.13176 0.0
C674 C 0.62863 0.53394 0.0654 0.0
C675 C 0.61745 0.51888 0.05649 0.0
C676 C 0.62089 0.50296 0.08715 0.0
H677 H 0.56008 0.48835 0.75504 0.0
H678 H 0.58091 0.49286 0.83383 0.0
C679 C 0.63554 0.50193 0.12453 0.0
C680 C 0.6034 0.51919 0.01119 0.0
H681 H 0.55897 0.51004 0.98419 0.0
C682 C 0.6088 0.52314 0.95534 0.0
C683 C 0.58506 0.51495 0.0219 0.0
C684 C 0.57815 0.51159 0.08122 0.0
C685 C 0.59658 0.5223 0.90982 0.0
C686 C 0.57849 0.51708 0.92009 0.0
C687 C 0.57288 0.51383 0.97618 0.0
C688 C 0.56545 0.51426 0.87285 0.0
C689 C 0.6032 0.52699 0.85101 0.0
C690 C 0.5495 0.52446 0.8692 0.0
C691 C 0.53744 0.52188 0.82403 0.0
C692 C 0.54104 0.50892 0.78188 0.0
C693 C 0.55689 0.49854 0.78636 0.0
C694 C 0.5689 0.50115 0.83134 0.0
H695 H 0.61547 0.5356 0.85246 0.0
H696 H 0.60672 0.51438 0.82822 0.0
H697 H 0.59263 0.53414 0.82629 0.0
H698 H 0.5465 0.53458 0.90095 0.0
H699 H 0.52534 0.53005 0.82211 0.0
H700 H 0.02049 0.66635 0.05727 0.0
H701 H 0.01891 0.63968 0.99726 0.0
H702 H 0.97771 0.61715 0.10567 0.0
H703 H 0.97923 0.64396 0.16647 0.0
H704 H 0.02461 0.60378 0.0189 0.0
H705 H 0.95388 0.61556 0.94982 0.0
H706 H 0.96684 0.6324 0.98708 0.0
H707 H 0.95701 0.61379 0.02522 0.0
C708 C 0.01129 0.65563 0.06917 0.0
C709 C 1.00003 0.65734 0.11703 0.0
C710 C 0.01032 0.64039 0.03444 0.0
C711 C 0.99802 0.62649 0.04637 0.0
C712 C 0.98705 0.62787 0.09488 0.0
H713 H 1.00367 0.52384 0.85867 0.0
H714 H 1.00313 0.54618 0.93511 0.0
C715 C 0.98797 0.64318 0.12971 0.0
C716 C 0.99667 0.61081 0.00715 0.0
H717 H 0.9683 0.58953 0.91447 0.0
C718 C 0.01226 0.60057 0.99636 0.0
C719 C 0.98062 0.60677 0.97717 0.0
C720 C 0.96365 0.61777 0.98486 0.0
C721 C 0.01231 0.58662 0.956 0.0
C722 C 0.99623 0.58251 0.92627 0.0
C723 C 0.98058 0.59258 0.93757 0.0
C724 C 0.99565 0.56857 0.88082 0.0
C725 C 0.0298 0.57689 0.94398 0.0
C726 C 0.99102 0.57354 0.82517 0.0
C727 C 0.99114 0.56078 0.78149 0.0
C728 C 0.99589 0.54271 0.79249 0.0
C729 C 1.00008 0.53765 0.84857 0.0
C730 C 0.99989 0.55044 0.89232 0.0
H731 H 0.04166 0.58448 0.96015 0.0
H732 H 0.02957 0.56352 0.96526 0.0
H733 H 0.03158 0.57468 0.89772 0.0
H734 H 0.98764 0.58743 0.81524 0.0
H735 H 0.9878 0.56518 0.73891 0.0
H736 H 0.00463 0.2049 0.38675 0.0
H737 H 0.99144 0.18546 0.45964 0.0
H738 H 0.94358 0.2186 0.46215 0.0
H739 H 0.95676 0.23813 0.3884 0.0
H740 H 0.97429 0.1908 0.57252 0.0
H741 H 0.92767 0.168 0.40081 0.0
H742 H 0.94755 0.18108 0.3845 0.0
H743 H 0.92867 0.19157 0.41886 0.0
C744 C 0.99145 0.20824 0.40369 0.0
C745 C 0.98156 0.22278 0.38151 0.0
C746 C 0.98399 0.19725 0.44558 0.0
C747 C 0.96649 0.20053 0.46572 0.0
C748 C 0.95708 0.21584 0.44682 0.0
H749 H 0.92092 0.09717 0.56902 0.0
H750 H 0.9203 0.13025 0.56404 0.0
C751 C 0.96462 0.22697 0.40494 0.0
C752 C 0.95754 0.18626 0.49928 0.0
H753 H 0.93213 0.1486 0.47732 0.0
C754 C 0.96461 0.18181 0.5527 0.0
C755 C 0.94474 0.17471 0.47359 0.0
C756 C 0.93667 0.17894 0.41624 0.0
C757 C 0.96046 0.16527 0.57874 0.0
C758 C 0.94938 0.15277 0.54968 0.0
C759 C 0.94076 0.15811 0.49935 0.0
C760 C 0.94937 0.13328 0.56387 0.0
C761 C 0.96877 0.16099 0.63562 0.0
C762 C 0.96588 0.12401 0.56583 0.0
C763 C 0.96625 0.10526 0.56883 0.0
C764 C 0.95013 0.09527 0.5689 0.0
C765 C 0.93356 0.10452 0.56904 0.0
C766 C 0.93319 0.1234 0.5663 0.0
H767 H 0.96974 0.17337 0.66201 0.0
H768 H 0.96087 0.15065 0.65914 0.0
H769 H 0.98269 0.15589 0.62918 0.0
H770 H 0.97855 0.13122 0.56223 0.0
H771 H 0.97923 0.09854 0.56988 0.0
H772 H 0.29909 0.00815 0.40521 0.0
H773 H 0.31858 0.99359 0.47515 0.0
H774 H 0.2865 0.94509 0.46511 0.0
H775 H 0.267 0.9596 0.39419 0.0
H776 H 0.31453 0.97306 0.58243 0.0
H777 H 0.33673 0.93216 0.39615 0.0
H778 H 0.32302 0.95206 0.38694 0.0
H779 H 0.31332 0.93191 0.41644 0.0
C780 C 0.29595 0.99454 0.41896 0.0
C781 C 0.2818 0.98486 0.39371 0.0
C782 C 0.30697 0.98628 0.4592 0.0
C783 C 0.30408 0.96821 0.47461 0.0
C784 C 0.28897 0.95902 0.45338 0.0
H785 H 0.40843 0.92093 0.55403 0.0
H786 H 0.37535 0.92014 0.55289 0.0
C787 C 0.27785 0.96733 0.4131 0.0
C788 C 0.31871 0.95857 0.50441 0.0
H789 H 0.35639 0.93432 0.47251 0.0
C790 C 0.32346 0.96411 0.55927 0.0
C791 C 0.3302 0.94672 0.4743 0.0
C792 C 0.3257 0.94032 0.41514 0.0
C793 C 0.34019 0.95937 0.58282 0.0
C794 C 0.35257 0.94931 0.54982 0.0
C795 C 0.34697 0.94217 0.49762 0.0
C796 C 0.37216 0.94903 0.5625 0.0
C797 C 0.34477 0.96599 0.64153 0.0
C798 C 0.38135 0.96547 0.56893 0.0
C799 C 0.40012 0.96593 0.56995 0.0
C800 C 0.41019 0.95001 0.56336 0.0
C801 C 0.40103 0.93343 0.5592 0.0
C802 C 0.38215 0.93295 0.55863 0.0
H803 H 0.33257 0.96611 0.66895 0.0
H804 H 0.35529 0.95751 0.66197 0.0
H805 H 0.34978 0.98009 0.63872 0.0
H806 H 0.37406 0.97813 0.57019 0.0
H807 H 0.40676 0.97888 0.57451 0.0
H808 H 0.56959 0.27044 0.38161 0.0
H809 H 0.58442 0.28948 0.45327 0.0
H810 H 0.54095 0.32802 0.43981 0.0
H811 H 0.52618 0.30911 0.36943 0.0
H812 H 0.59651 0.32343 0.43113 0.0
H813 H 0.5488 0.32705 0.60925 0.0
H814 H 0.54804 0.30904 0.55763 0.0
H815 H 0.53663 0.33015 0.54431 0.0
C816 C 0.56304 0.28275 0.39532 0.0
C817 C 0.54683 0.28843 0.36994 0.0
C818 C 0.5715 0.29359 0.43608 0.0
C819 C 0.56364 0.31001 0.45261 0.0
C820 C 0.54705 0.31519 0.42894 0.0
H821 H 0.58284 0.41385 0.45347 0.0
H822 H 0.58645 0.38153 0.44348 0.0
C823 C 0.53872 0.3045 0.38816 0.0
C824 C 0.5736 0.32323 0.48769 0.0
H825 H 0.56472 0.35561 0.58601 0.0
C826 C 0.58993 0.33011 0.46644 0.0
C827 C 0.56542 0.33165 0.53491 0.0
C828 C 0.54886 0.3239 0.56316 0.0
C829 C 0.59686 0.34658 0.48605 0.0
C830 C 0.58698 0.35646 0.52688 0.0
C831 C 0.57211 0.34829 0.55365 0.0
C832 C 0.58928 0.37622 0.53352 0.0
C833 C 0.61403 0.35377 0.46011 0.0
C834 C 0.58987 0.38418 0.5875 0.0
C835 C 0.58773 0.40285 0.59339 0.0
C836 C 0.58479 0.41384 0.5454 0.0
C837 C 0.5854 0.40592 0.4913 0.0
C838 C 0.58754 0.38734 0.48548 0.0
H839 H 0.62356 0.34257 0.45101 0.0
H840 H 0.61086 0.36045 0.41909 0.0
H841 H 0.62078 0.36368 0.48834 0.0
H842 H 0.59106 0.37585 0.62518 0.0
H843 H 0.58753 0.40857 0.63564 0.0
H844 H 0.20837 0.50224 0.38875 0.0
H845 H 0.18885 0.51549 0.461 0.0
H846 H 0.2201 0.56461 0.45583 0.0
H847 H 0.23956 0.55149 0.38243 0.0
H848 H 0.1925 0.53451 0.57024 0.0
H849 H 0.16978 0.57778 0.3894 0.0
H850 H 0.18382 0.55826 0.37792 0.0
H851 H 0.19319 0.57821 0.40938 0.0
C852 C 0.21132 0.51572 0.40395 0.0
C853 C 0.22521 0.52599 0.37929 0.0
C854 C 0.20028 0.52321 0.44556 0.0
C855 C 0.20291 0.5411 0.46304 0.0
C856 C 0.21781 0.55082 0.44247 0.0
H857 H 0.09933 0.5884 0.54877 0.0
H858 H 0.13239 0.58855 0.54872 0.0
C859 C 0.22893 0.5433 0.40075 0.0
C860 C 0.18819 0.55013 0.49423 0.0
H861 H 0.15058 0.57502 0.46668 0.0
C862 C 0.18354 0.5438 0.54847 0.0
C863 C 0.17665 0.56241 0.46594 0.0
C864 C 0.18096 0.56958 0.40738 0.0
C865 C 0.16691 0.54832 0.57323 0.0
C866 C 0.15452 0.55898 0.54207 0.0
C867 C 0.16 0.56675 0.49047 0.0
C868 C 0.135 0.55951 0.55582 0.0
C869 C 0.16252 0.54091 0.63131 0.0
C870 C 0.12547 0.5432 0.56108 0.0
C871 C 0.10667 0.54311 0.56163 0.0
C872 C 0.09695 0.55929 0.55565 0.0
C873 C 0.10645 0.57572 0.55335 0.0
C874 C 0.12533 0.57581 0.55338 0.0
H875 H 0.17473 0.54096 0.65865 0.0
H876 H 0.15171 0.54876 0.65263 0.0
H877 H 0.15809 0.52667 0.62722 0.0
H878 H 0.1325 0.53039 0.56147 0.0
H879 H 0.09975 0.53026 0.5649 0.0
H880 H 0.9994 0.81815 0.9511 0.0
H881 H 0.01069 0.83577 0.87187 0.0
H882 H 0.04125 0.78987 0.81298 0.0
H883 H 0.03098 0.77246 0.8952 0.0
H884 H 0.06225 0.81631 0.81444 0.0
H885 H 1.00216 0.84198 0.70889 0.0
H886 H 0.99881 0.84713 0.7822 0.0
H887 H 1.00059 0.82382 0.75991 0.0
C888 C 0.00844 0.81172 0.9212 0.0
C889 C 0.01451 0.79398 0.93018 0.0
C890 C 0.0146 0.82172 0.87494 0.0
C891 C 0.02661 0.81412 0.83549 0.0
C892 C 0.03189 0.79603 0.84249 0.0
H893 H 0.05435 0.91301 0.66642 0.0
H894 H 0.04875 0.88073 0.66039 0.0
C895 C 0.02591 0.78605 0.88943 0.0
C896 C 0.0356 0.82604 0.79321 0.0
H897 H 0.02719 0.86483 0.7205 0.0
C898 C 0.05456 0.82659 0.79227 0.0
C899 C 0.02586 0.83899 0.76139 0.0
C900 C 0.00573 0.83773 0.75272 0.0
C901 C 0.0638 0.84115 0.76752 0.0
C902 C 0.05379 0.8559 0.74581 0.0
C903 C 0.03502 0.85399 0.7392 0.0
C904 C 0.06171 0.87429 0.7403 0.0
C905 C 0.08415 0.84086 0.76731 0.0
C906 C 0.07176 0.88146 0.78556 0.0
C907 C 0.07553 0.89987 0.78817 0.0
C908 C 0.06874 0.91173 0.74676 0.0
C909 C 0.0599 0.90438 0.69916 0.0
C910 C 0.05652 0.88584 0.69584 0.0
H911 H 0.0891 0.82713 0.75657 0.0
H912 H 0.0899 0.85065 0.73645 0.0
H913 H 0.08922 0.84403 0.81047 0.0
H914 H 0.07556 0.87313 0.82138 0.0
H915 H 0.08278 0.90494 0.82472 0.0
H916 H 0.74187 0.03584 0.97983 0.0
H917 H 0.72099 0.05072 0.91439 0.0
H918 H 0.68539 0.00471 0.92393 0.0
H919 H 0.70656 0.98941 0.98681 0.0
H920 H 0.68439 0.02161 0.81875 0.0
H921 H 0.67708 0.07089 0.99609 0.0
H922 H 0.69893 0.06895 0.9636 0.0
H923 H 0.68992 0.0504 0.00401 0.0
C924 C 0.72993 0.02861 0.96627 0.0
C925 C 0.72561 0.01162 0.98954 0.0
C926 C 0.71794 0.03721 0.92928 0.0
C927 C 0.70143 0.02903 0.91576 0.0
C928 C 0.698 0.01134 0.93429 0.0
H929 H 0.59412 0.04604 0.92316 0.0
H930 H 0.62682 0.04397 0.93374 0.0
C931 C 0.71002 1.00268 0.9707 0.0
C932 C 0.68646 0.03946 0.89034 0.0
H933 H 0.6546 0.07053 0.92741 0.0
C934 C 0.67809 0.03267 0.84142 0.0
C935 C 0.67829 0.05386 0.92038 0.0
C936 C 0.68639 0.06146 0.9741 0.0
C937 C 0.66101 0.03883 0.82449 0.0
C938 C 0.65233 0.0523 0.85702 0.0
C939 C 0.6614 0.06021 0.90277 0.0
C940 C 0.63279 0.0557 0.85156 0.0
C941 C 0.65172 0.02982 0.77508 0.0
C942 C 0.62539 0.06347 0.80251 0.0
C943 C 0.60665 0.06462 0.79635 0.0
C944 C 0.59516 0.05798 0.83917 0.0
C945 C 0.60268 0.05107 0.88933 0.0
C946 C 0.62133 0.04996 0.89547 0.0
H947 H 0.65974 0.01845 0.75756 0.0
H948 H 0.6383 0.02461 0.78832 0.0
H949 H 0.64954 0.03984 0.7407 0.0
H950 H 0.63407 0.06815 0.7685 0.0
H951 H 0.60117 0.0699 0.75707 0.0
H952 H 0.45131 0.73153 0.96134 0.0
H953 H 0.44347 0.70928 0.88937 0.0
H954 H 0.41444 0.67829 0.01506 0.0
H955 H 0.42138 0.70096 0.08652 0.0
H956 H 0.45698 0.67664 0.90059 0.0
H957 H 0.3832 0.66969 0.87899 0.0
H958 H 0.39354 0.68931 0.9108 0.0
H959 H 0.38963 0.66919 0.95228 0.0
C960 C 0.44257 0.72042 0.97318 0.0
C961 C 0.43717 0.71788 0.02992 0.0
C962 C 0.43816 0.70765 0.93195 0.0
C963 C 0.42832 0.69214 0.94668 0.0
C964 C 0.42174 0.6903 1.00228 0.0
H965 H 0.42716 0.58133 0.88078 0.0
H966 H 0.42075 0.61247 0.90857 0.0
C967 C 0.42599 0.70314 0.0434 0.0
C968 C 0.42799 0.67641 0.90799 0.0
H969 H 0.4009 0.64261 0.85877 0.0
C970 C 0.44466 0.66947 0.89006 0.0
C971 C 0.41194 0.66701 0.89461 0.0
C972 C 0.39357 0.67432 0.90975 0.0
C973 C 0.44586 0.65279 0.86257 0.0
C974 C 0.42988 0.64291 0.85195 0.0
C975 C 0.41311 0.65023 0.86719 0.0
C976 C 0.43071 0.62423 0.83043 0.0
C977 C 0.4643 0.64536 0.84843 0.0
C978 C 0.43784 0.62057 0.77655 0.0
C979 C 0.44162 0.60282 0.76073 0.0
C980 C 0.43817 0.58847 0.79842 0.0
C981 C 0.4299 0.59211 0.85083 0.0
C982 C 0.42622 0.60987 0.86672 0.0
H983 H 0.47533 0.6533 0.86828 0.0
H984 H 0.46549 0.63111 0.86271 0.0
H985 H 0.4663 0.64569 0.80176 0.0
H986 H 0.44117 0.6315 0.74772 0.0
H987 H 0.44768 0.60036 0.71961 0.0
H988 H 0.76901 0.47586 0.93075 0.0
H989 H 0.78798 0.46433 0.85384 0.0
H990 H 0.83349 0.49359 0.92151 0.0
H991 H 0.81445 0.50612 0.99553 0.0
H992 H 0.83349 0.49454 0.80897 0.0
H993 H 0.82261 0.42368 0.88138 0.0
H994 H 0.80308 0.43594 0.85791 0.0
H995 H 0.81455 0.44269 0.92161 0.0
C996 C 0.78296 0.48016 0.92842 0.0
C997 C 0.79031 0.49165 0.96999 0.0
C998 C 0.79384 0.47335 0.88485 0.0
C999 C 0.81227 0.47769 0.8828 0.0
C1000 C 0.81933 0.48991 0.92245 0.0
H1001 H 0.90942 0.43039 0.84839 0.0
H1002 H 0.87737 0.436 0.85905 0.0
C1003 C 0.80847 0.4969 0.96526 0.0
C1004 C 0.82481 0.46894 0.84228 0.0
H1005 H 0.84607 0.42887 0.81755 0.0
C1006 C 0.83611 0.48013 0.80989 0.0
C1007 C 0.82799 0.4501 0.84323 0.0
C1008 C 0.81653 0.43735 0.87806 0.0
C1009 C 0.8517 0.47339 0.78376 0.0
C1010 C 0.85559 0.45467 0.78783 0.0
C1011 C 0.84314 0.44319 0.81483 0.0
C1012 C 0.87385 0.44747 0.77503 0.0
C1013 C 0.86457 0.48676 0.75687 0.0
C1014 C 0.88241 0.4508 0.72294 0.0
C1015 C 0.90109 0.44856 0.71778 0.0
C1016 C 0.91135 0.44214 0.76401 0.0
C1017 C 0.90217 0.43621 0.8129 0.0
C1018 C 0.88369 0.43913 0.81873 0.0
H1019 H 0.86103 0.50096 0.76712 0.0
H1020 H 0.87863 0.48433 0.7712 0.0
H1021 H 0.86406 0.48532 0.71007 0.0
H1022 H 0.87489 0.45636 0.68767 0.0
H1023 H 0.90749 0.45312 0.67903 0.0
H1024 H 0.04425 0.19565 0.93526 0.0
H1025 H 0.04593 0.16634 0.88775 0.0
H1026 H 0.99114 0.17267 0.82961 0.0
H1027 H 0.98955 0.20219 0.87531 0.0
H1028 H 0.02473 0.13729 0.91449 0.0
H1029 H 0.01533 0.15421 0.68716 0.0
H1030 H 0.02144 0.17093 0.73942 0.0
H1031 H 0.99837 0.1637 0.73255 0.0
C1032 C 0.03274 0.19108 0.91088 0.0
C1033 C 0.01675 0.20134 0.90921 0.0
C1034 C 0.03367 0.17422 0.88411 0.0
C1035 C 0.01872 0.16729 0.8546 0.0
C1036 C 1.00298 0.1778 0.8511 0.0
H1037 H 0.98579 0.06471 0.71354 0.0
H1038 H 0.98879 0.09597 0.74481 0.0
C1039 C 1.00204 0.19464 0.87783 0.0
C1040 C 0.01899 0.14849 0.83208 0.0
H1041 H 0.01184 0.12322 0.71287 0.0
C1042 C 0.02214 0.13423 0.87025 0.0
C1043 C 0.01544 0.14444 0.77444 0.0
C1044 C 0.01262 0.15913 0.73086 0.0
C1045 C 0.02133 0.11609 0.85287 0.0
C1046 C 0.01765 0.11203 0.79531 0.0
C1047 C 0.01469 0.12629 0.75695 0.0
C1048 C 0.01626 0.09306 0.77457 0.0
C1049 C 0.02373 0.10145 0.89689 0.0
C1050 C 0.03081 0.081 0.77981 0.0
C1051 C 0.02912 0.063 0.76221 0.0
C1052 C 0.01286 0.0567 0.73851 0.0
C1053 C 0.99848 0.06897 0.73197 0.0
C1054 C 1.00018 0.08692 0.74969 0.0
H1055 H 0.02169 0.10664 0.94063 0.0
H1056 H 0.01416 0.09015 0.88967 0.0
H1057 H 0.03766 0.09604 0.89412 0.0
H1058 H 0.0435 0.08549 0.79763 0.0
H1059 H 0.04053 0.05403 0.76744 0.0
H1060 H 0.31292 0.04423 0.93726 0.0
H1061 H 0.34198 0.04551 0.8876 0.0
H1062 H 0.33671 0.98934 0.84309 0.0
H1063 H 0.30751 0.98809 0.89122 0.0
H1064 H 0.37201 0.02555 0.91603 0.0
H1065 H 0.353 0.01114 0.6934 0.0
H1066 H 0.33667 0.01778 0.74631 0.0
H1067 H 0.34445 0.9948 0.74298 0.0
C1068 C 0.3177 0.03228 0.91554 0.0
C1069 C 0.30782 0.01606 0.9183 0.0
C1070 C 0.33441 0.03299 0.88753 0.0
C1071 C 0.34154 0.01757 0.86107 0.0
C1072 C 0.33143 1.00152 0.86219 0.0
H1073 H 0.44326 0.98376 0.71509 0.0
H1074 H 0.41234 0.98682 0.74976 0.0
C1075 C 0.31477 1.00079 0.89026 0.0
C1076 C 0.36012 0.0178 0.83643 0.0
H1077 H 0.38431 0.00862 0.71618 0.0
C1078 C 0.37468 0.02207 0.87213 0.0
C1079 C 0.36366 0.01312 0.77925 0.0
C1080 C 0.34861 0.00911 0.73807 0.0
C1081 C 0.39265 0.02125 0.85286 0.0
C1082 C 0.39622 0.0164 0.7958 0.0
C1083 C 0.38163 0.01235 0.75987 0.0
C1084 C 0.415 0.01491 0.77318 0.0
C1085 C 0.40767 0.02492 0.8945 0.0
C1086 C 0.42682 0.02977 0.77372 0.0
C1087 C 0.44463 0.02806 0.75409 0.0
C1088 C 0.45099 0.01146 0.73307 0.0
C1089 C 0.43896 0.99673 0.73134 0.0
C1090 C 0.42119 0.99846 0.75102 0.0
H1091 H 0.40298 0.02376 0.93916 0.0
H1092 H 0.41909 0.01543 0.88813 0.0
H1093 H 0.41276 0.03887 0.88798 0.0
H1094 H 0.42228 0.04274 0.78934 0.0
H1095 H 0.45341 0.03974 0.75564 0.0
H1096 H 0.48024 0.29818 0.85718 0.0
H1097 H 0.47912 0.32643 0.80219 0.0
H1098 H 0.51886 0.3499 0.91336 0.0
H1099 H 0.52004 0.32201 0.96805 0.0
H1100 H 0.47024 0.36105 0.83377 0.0
H1101 H 0.54095 0.35965 0.75895 0.0
H1102 H 0.5301 0.3402 0.79031 0.0
H1103 H 0.5395 0.35759 0.83469 0.0
C1104 C 0.48875 0.30936 0.86979 0.0
C1105 C 0.50048 0.30764 0.91648 0.0
C1106 C 0.48813 0.32549 0.83824 0.0
C1107 C 0.49924 0.34019 0.85272 0.0
C1108 C 0.51059 0.33861 0.90009 0.0
H1109 H 0.48822 0.45415 0.78407 0.0
H1110 H 0.48669 0.42332 0.8206 0.0
C1111 C 0.51125 0.32257 0.93139 0.0
C1112 C 0.49873 0.35743 0.81987 0.0
H1113 H 0.52591 0.38828 0.75356 0.0
C1114 C 0.48237 0.36691 0.81564 0.0
C1115 C 0.51446 0.36499 0.79517 0.0
C1116 C 0.5322 0.35499 0.79442 0.0
C1117 C 0.48149 0.38404 0.7897 0.0
C1118 C 0.49748 0.39214 0.76848 0.0
C1119 C 0.51367 0.38228 0.7705 0.0
C1120 C 0.49788 0.41092 0.74526 0.0
C1121 C 0.46337 0.39321 0.78506 0.0
C1122 C 0.50518 0.41445 0.69126 0.0
C1123 C 0.50632 0.43217 0.67047 0.0
C1124 C 0.5002 0.44682 0.70325 0.0
C1125 C 0.4929 0.44324 0.75731 0.0
C1126 C 0.49187 0.42554 0.77817 0.0
H1127 H 0.45218 0.38322 0.78535 0.0
H1128 H 0.46146 0.40224 0.82208 0.0
H1129 H 0.4624 0.40143 0.74571 0.0
H1130 H 0.51005 0.40347 0.66514 0.0
H1131 H 0.51211 0.43436 0.62879 0.0
H1132 H 0.19827 0.52447 0.87445 0.0
H1133 H 0.1693 0.52263 0.82497 0.0
H1134 H 0.1664 0.4657 0.86239 0.0
H1135 H 0.19522 0.46752 0.91314 0.0
H1136 H 0.1561 0.50159 0.73334 0.0
H1137 H 0.12021 0.48614 0.93502 0.0
H1138 H 0.14317 0.49426 0.93339 0.0
H1139 H 0.13834 0.47105 0.91745 0.0
C1140 C 0.19154 0.51151 0.87182 0.0
C1141 C 0.199 0.49618 0.8984 0.0
C1142 C 0.175 0.51047 0.84329 0.0
C1143 C 0.16547 0.49411 0.84092 0.0
C1144 C 0.17335 0.47855 0.86455 0.0
H1145 H 0.05383 0.47216 0.73938 0.0
H1146 H 0.08522 0.46924 0.77056 0.0
C1147 C 0.18994 0.47957 0.89301 0.0
C1148 C 0.14693 0.49366 0.81645 0.0
H1149 H 0.10265 0.48711 0.85197 0.0
C1150 C 0.14441 0.49834 0.75918 0.0
C1151 C 0.13164 0.48948 0.85017 0.0
C1152 C 0.13336 0.48509 0.91254 0.0
C1153 C 0.12709 0.49881 0.73466 0.0
C1154 C 0.11176 0.49493 0.76868 0.0
C1155 C 0.11433 0.49003 0.82575 0.0
C1156 C 0.0929 0.49643 0.74678 0.0
C1157 C 0.12545 0.50327 0.67235 0.0
C1158 C 0.08663 0.51271 0.72329 0.0
C1159 C 0.06872 0.51439 0.70517 0.0
C1160 C 0.05651 0.4999 0.71077 0.0
C1161 C 0.06281 0.4836 0.73436 0.0
C1162 C 0.08078 0.48191 0.75225 0.0
H1163 H 0.13794 0.49964 0.64891 0.0
H1164 H 0.11389 0.49614 0.65254 0.0
H1165 H 0.12336 0.51803 0.6674 0.0
H1166 H 0.09551 0.52428 0.71986 0.0
H1167 H 0.06441 0.52718 0.68741 0.0
H1168 H 0.96844 0.81537 0.42899 0.0
H1169 H 0.97193 0.84238 0.48769 0.0
H1170 H 0.02933 0.83338 0.49561 0.0
H1171 H 0.02597 0.80638 0.43636 0.0
H1172 H 0.98946 0.84915 0.59974 0.0
H1173 H 0.02199 0.88391 0.41636 0.0
H1174 H 0.00913 0.86338 0.40816 0.0
H1175 H 0.03138 0.86259 0.43804 0.0
C1176 C 0.98178 0.81899 0.44386 0.0
C1177 C 0.99695 0.8088 0.42756 0.0
C1178 C 0.98374 0.83439 0.47764 0.0
C1179 C 1.00091 0.84001 0.4955 0.0
C1180 C 0.01597 0.82934 0.48196 0.0
H1181 H 0.01905 0.93708 0.70565 0.0
H1182 H 0.01923 0.90582 0.67197 0.0
C1183 C 0.01401 0.81385 0.44843 0.0
C1184 C 1.00306 0.85783 0.52371 0.0
H1185 H 0.01734 0.901 0.49875 0.0
C1186 C 0.99571 0.86047 0.57804 0.0
C1187 C 0.01109 0.8726 0.49504 0.0
C1188 C 0.01878 0.87065 0.43603 0.0
C1189 C 0.99591 0.87759 0.60401 0.0
C1190 C 1.00371 0.89243 0.57486 0.0
C1191 C 0.01137 0.88964 0.52106 0.0
C1192 C 1.00308 0.9112 0.59739 0.0
C1193 C 0.98716 0.87983 0.66138 0.0
C1194 C 0.99405 0.92469 0.56656 0.0
C1195 C 0.99388 0.94256 0.58565 0.0
C1196 C 1.00284 0.94743 0.63597 0.0
C1197 C 0.01185 0.93385 0.66698 0.0
C1198 C 0.01195 0.91592 0.64787 0.0
H1199 H 0.97869 0.86801 0.67301 0.0
H1200 H 0.99779 0.88135 0.69415 0.0
H1201 H 0.97863 0.89216 0.66223 0.0
H1202 H 0.98714 0.9214 0.52742 0.0
H1203 H 0.98684 0.95259 0.56052 0.0
H1204 H 0.68651 0.97634 0.37788 0.0
H1205 H 0.65762 0.97927 0.42622 0.0
H1206 H 0.68447 1.00076 0.57354 0.0
H1207 H 0.71373 0.99761 0.52553 0.0
H1208 H 0.6461 0.96349 0.52859 0.0
H1209 H 0.64493 0.03848 0.54093 0.0
H1210 H 0.66041 0.02648 0.4954 0.0
H1211 H 0.66445 0.02753 0.57045 0.0
C1212 C 0.68643 0.98145 0.42089 0.0
C1213 C 0.70262 0.98657 0.44783 0.0
C1214 C 0.6698 0.98325 0.44836 0.0
C1215 C 0.66878 0.99039 0.50335 0.0
C1216 C 0.68485 0.9955 0.53072 0.0
H1217 H 0.57032 0.01265 0.70183 0.0
H1218 H 0.60192 0.00959 0.67258 0.0
C1219 C 0.70159 0.99366 0.5032 0.0
C1220 C 0.65082 0.99215 0.5315 0.0
H1221 H 0.61993 0.02295 0.57902 0.0
C1222 C 0.64042 0.97649 0.53987 0.0
C1223 C 0.64342 0.00909 0.5467 0.0
C1224 C 0.65377 0.02641 0.53766 0.0
C1225 C 0.62282 0.97732 0.56212 0.0
C1226 C 0.61514 0.99431 0.57524 0.0
C1227 C 0.62574 0.00993 0.56868 0.0
C1228 C 0.59591 0.99617 0.59335 0.0
C1229 C 0.61266 0.9599 0.57165 0.0
C1230 C 0.58192 0.98993 0.55827 0.0
C1231 C 0.56385 0.9916 0.57488 0.0
C1232 C 0.55926 0.99972 0.62689 0.0
C1233 C 0.57329 0.00623 0.66165 0.0
C1234 C 0.59141 0.00453 0.64495 0.0
H1235 H 0.62202 0.9483 0.57686 0.0
H1236 H 0.60388 0.96072 0.60977 0.0
H1237 H 0.60402 0.95714 0.53422 0.0
H1238 H 0.58497 0.98386 0.51761 0.0
H1239 H 0.55347 0.98657 0.5467 0.0
H1240 H 0.49946 0.70695 0.499 0.0
H1241 H 0.50108 0.67654 0.53934 0.0
H1242 H 0.53568 0.65989 0.40217 0.0
H1243 H 0.53366 0.69006 0.3602 0.0
H1244 H 0.4902 0.64384 0.46922 0.0
H1245 H 0.55996 0.64097 0.55621 0.0
H1246 H 0.54793 0.66202 0.5472 0.0
H1247 H 0.55691 0.65056 0.48651 0.0
C1248 C 0.50751 0.6969 0.47739 0.0
C1249 C 0.51631 0.70107 0.42589 0.0
C1250 C 0.50849 0.67952 0.50077 0.0
C1251 C 0.51852 0.66595 0.47385 0.0
C1252 C 0.52801 0.67021 0.424 0.0
H1253 H 0.53568 0.55134 0.54116 0.0
H1254 H 0.53751 0.58263 0.50801 0.0
C1255 C 0.52692 0.68756 0.40023 0.0
C1256 C 0.51781 0.64705 0.49529 0.0
H1257 H 0.54283 0.61411 0.55971 0.0
C1258 C 0.50167 0.63734 0.48923 0.0
C1259 C 0.53285 0.63854 0.52067 0.0
C1260 C 0.55043 0.6485 0.52851 0.0
C1261 C 0.5002 0.61927 0.5072 0.0
C1262 C 0.51514 0.61079 0.53383 0.0
C1263 C 0.53134 0.62055 0.53965 0.0
C1264 C 0.51424 0.59181 0.55543 0.0
C1265 C 0.4828 0.60932 0.49571 0.0
C1266 C 0.50078 0.58648 0.59409 0.0
C1267 C 0.49954 0.56853 0.6125 0.0
C1268 C 0.51199 0.55549 0.59371 0.0
C1269 C 0.52584 0.56097 0.55649 0.0
C1270 C 0.52692 0.5789 0.53751 0.0
H1271 H 0.47517 0.61559 0.46017 0.0
H1272 H 0.48533 0.59494 0.48519 0.0
H1273 H 0.47412 0.60987 0.53407 0.0
H1274 H 0.49116 0.59623 0.61009 0.0
H1275 H 0.48882 0.5649 0.64164 0.0
H1276 H 0.79941 0.54105 0.47725 0.0
H1277 H 0.82895 0.53986 0.52406 0.0
H1278 H 0.84056 0.48965 0.4392 0.0
H1279 H 0.81089 0.49048 0.39416 0.0
H1280 H 0.85277 0.488 0.54303 0.0
H1281 H 0.87541 0.55295 0.44991 0.0
H1282 H 0.85566 0.55531 0.49325 0.0
H1283 H 0.85464 0.54221 0.42903 0.0
C1284 C 0.80824 0.52971 0.46897 0.0
C1285 C 0.80279 0.51587 0.43193 0.0
C1286 C 0.8252 0.5291 0.49539 0.0
C1287 C 0.83729 0.51489 0.48418 0.0
C1288 C 0.83159 0.5008 0.44857 0.0
H1289 H 0.9536 0.5175 0.51912 0.0
H1290 H 0.92215 0.51842 0.48834 0.0
C1291 C 0.81456 0.50125 0.42292 0.0
C1292 C 0.85596 0.51474 0.50832 0.0
H1293 H 0.89499 0.53931 0.51665 0.0
C1294 C 0.86199 0.49924 0.53728 0.0
C1295 C 0.86819 0.52925 0.5001 0.0
C1296 C 0.86324 0.54578 0.4659 0.0
C1297 C 0.87978 0.49782 0.55785 0.0
C1298 C 0.89181 0.51255 0.55111 0.0
C1299 C 0.88576 0.52807 0.52246 0.0
C1300 C 0.91098 0.51186 0.57079 0.0
C1301 C 0.88573 0.48025 0.58441 0.0
C1302 C 0.91535 0.50804 0.62767 0.0
C1303 C 0.93341 0.50721 0.64525 0.0
C1304 C 0.94753 0.51064 0.60666 0.0
C1305 C 0.94311 0.51484 0.55009 0.0
C1306 C 0.92508 0.51538 0.53238 0.0
H1307 H 0.87632 0.46902 0.57447 0.0
H1308 H 0.89946 0.47649 0.56976 0.0
H1309 H 0.88615 0.48181 0.63113 0.0
H1310 H 0.90479 0.50584 0.65873 0.0
H1311 H 0.93629 0.50409 0.68925 0.0
loop_
_geom_bond_atom_site_label_1
_geom_bond_atom_site_label_2
_geom_bond_distance
_geom_bond_site_symmetry_2
_ccdc_geom_bond_type
C0 C1 1.384 . S
C0 H13 0.947 . S
C0 C35 1.382 . S
C1 C0 1.384 . S
C1 C2 1.378 . S
C2 C1 1.378 . S
C2 C3 1.378 . S
C2 H14 0.952 . S
C3 C2 1.378 . S
C3 H15 0.950 . S
C3 C34 1.383 . S
H4 C23 0.947 . S
H5 C24 0.946 . S
H6 C26 0.953 . S
H7 C27 0.945 . S
H8 C29 0.952 . S
H9 C30 0.949 . S
H10 C32 0.950 . S
H11 C33 0.948 . S
H12 C35 0.951 . S
H13 C0 0.947 . S
H14 C2 0.952 . S
H15 C3 0.950 . S
N16 C19 1.382 . S
N16 C21 1.363 . S
N17 C19 1.371 . S
N17 C20 1.372 . S
N18 C20 1.361 . S
N18 C21 1.377 . S
C19 N16 1.382 . S
C19 N17 1.371 . S
C19 C22 1.480 . S
C20 N17 1.372 . S
C20 N18 1.361 . S
C20 C28 1.457 . S
C21 N16 1.363 . S
C21 N18 1.377 . S
C21 C34 1.479 . S
C22 C19 1.480 . S
C22 C23 1.383 . S
C22 C27 1.385 . S
C23 H4 0.947 . S
C23 C22 1.383 . S
C23 C24 1.388 . S
C24 H5 0.946 . S
C24 C23 1.388 . S
C24 C25 1.384 . S
C25 C24 1.384 . S
C25 C26 1.377 . S
C26 H6 0.953 . S
C26 C25 1.377 . S
C26 C27 1.369 . S
C27 H7 0.945 . S
C27 C22 1.385 . S
C27 C26 1.369 . S
C28 C20 1.457 . S
C28 C29 1.372 . S
C28 C33 1.364 . S
C29 H8 0.952 . S
C29 C28 1.372 . S
C29 C30 1.389 . S
C30 H9 0.949 . S
C30 C29 1.389 . S
C30 C31 1.387 . S
C31 C30 1.387 . S
C31 C32 1.372 . S
C32 H10 0.950 . S
C32 C31 1.372 . S
C32 C33 1.379 . S
C33 H11 0.948 . S
C33 C28 1.364 . S
C33 C32 1.379 . S
C34 C3 1.383 . S
C34 C21 1.479 . S
C34 C35 1.398 . S
C35 C0 1.382 . S
C35 H12 0.951 . S
C35 C34 1.398 . S
C36 C37 1.381 1_655 S
C36 H49 0.948 . S
C36 C71 1.382 1_655 S
C37 C36 1.381 1_455 S
C37 C38 1.387 . S
C38 C37 1.387 . S
C38 C39 1.378 . S
C38 H50 0.952 . S
C39 C38 1.378 . S
C39 H51 0.950 . S
C39 C70 1.383 . S
H40 C59 0.947 . S
H41 C60 0.952 . S
H42 C62 0.953 . S
H43 C63 0.945 . S
H44 C65 0.949 1_655 S
H45 C66 0.956 . S
H46 C68 0.950 . S
H47 C69 0.948 . S
H48 C71 0.952 1_655 S
H49 C36 0.948 . S
H50 C38 0.952 . S
H51 C39 0.950 . S
N52 C55 1.382 . S
N52 C57 1.363 . S
N53 C55 1.371 . S
N53 C56 1.372 . S
N54 C56 1.361 . S
N54 C57 1.377 . S
C55 N52 1.382 . S
C55 N53 1.371 . S
C55 C58 1.480 . S
C56 N53 1.372 . S
C56 N54 1.361 . S
C56 C64 1.457 . S
C57 N52 1.363 . S
C57 N54 1.377 . S
C57 C70 1.479 . S
C58 C55 1.480 . S
C58 C59 1.383 . S
C58 C63 1.385 . S
C59 H40 0.947 . S
C59 C58 1.383 . S
C59 C60 1.386 1_455 S
C60 H41 0.952 . S
C60 C59 1.386 1_655 S
C60 C61 1.381 1_655 S
C61 C60 1.381 1_455 S
C61 C62 1.377 . S
C62 H42 0.953 . S
C62 C61 1.377 . S
C62 C63 1.369 . S
C63 H43 0.945 . S
C63 C58 1.385 . S
C63 C62 1.369 . S
C64 C56 1.457 . S
C64 C65 1.375 . S
C64 C69 1.364 . S
C65 H44 0.949 1_455 S
C65 C64 1.375 . S
C65 C66 1.387 1_455 S
C66 H45 0.956 . S
C66 C65 1.387 1_655 S
C66 C67 1.383 1_655 S
C67 C66 1.383 1_455 S
C67 C68 1.372 . S
C68 H46 0.950 . S
C68 C67 1.372 . S
C68 C69 1.379 . S
C69 H47 0.948 . S
C69 C64 1.364 . S
C69 C68 1.379 . S
C70 C39 1.383 . S
C70 C57 1.479 . S
C70 C71 1.397 . S
C71 C36 1.382 1_455 S
C71 H48 0.952 1_455 S
C71 C70 1.397 . S
C72 C73 1.381 1_565 S
C72 H85 0.948 . S
C72 C107 1.382 1_565 S
C73 C72 1.381 1_545 S
C73 C74 1.387 . S
C74 C73 1.387 . S
C74 C75 1.378 . S
C74 H86 0.952 . S
C75 C74 1.378 . S
C75 H87 0.950 . S
C75 C106 1.383 . S
H76 C95 0.947 . S
H77 C96 0.952 . S
H78 C98 0.953 . S
H79 C99 0.945 . S
H80 C101 0.949 1_565 S
H81 C102 0.956 . S
H82 C104 0.950 . S
H83 C105 0.948 . S
H84 C107 0.952 1_565 S
H85 C72 0.948 . S
H86 C74 0.952 . S
H87 C75 0.950 . S
N88 C91 1.382 . S
N88 C93 1.363 . S
N89 C91 1.371 . S
N89 C92 1.372 . S
N90 C92 1.361 . S
N90 C93 1.377 . S
C91 N88 1.382 . S
C91 N89 1.371 . S
C91 C94 1.480 . S
C92 N89 1.372 . S
C92 N90 1.361 . S
C92 C100 1.457 . S
C93 N88 1.363 . S
C93 N90 1.377 . S
C93 C106 1.479 . S
C94 C91 1.480 . S
C94 C95 1.383 . S
C94 C99 1.385 . S
C95 H76 0.947 . S
C95 C94 1.383 . S
C95 C96 1.386 1_545 S
C96 H77 0.952 . S
C96 C95 1.386 1_565 S
C96 C97 1.381 1_565 S
C97 C96 1.381 1_545 S
C97 C98 1.377 . S
C98 H78 0.953 . S
C98 C97 1.377 . S
C98 C99 1.369 . S
C99 H79 0.945 . S
C99 C94 1.385 . S
C99 C98 1.369 . S
C100 C92 1.457 . S
C100 C101 1.376 . S
C100 C105 1.364 . S
C101 H80 0.949 1_545 S
C101 C100 1.376 . S
C101 C102 1.386 1_545 S
C102 H81 0.956 . S
C102 C101 1.386 1_565 S
C102 C103 1.383 1_565 S
C103 C102 1.383 1_545 S
C103 C104 1.372 . S
C104 H82 0.950 . S
C104 C103 1.372 . S
C104 C105 1.379 . S
C105 H83 0.948 . S
C105 C100 1.364 . S
C105 C104 1.379 . S
C106 C75 1.383 . S
C106 C93 1.479 . S
C106 C107 1.397 . S
C107 C72 1.382 1_545 S
C107 H84 0.952 1_545 S
C107 C106 1.397 . S
C108 C109 1.384 . S
C108 H121 0.947 . S
C108 C143 1.382 . S
C109 C108 1.384 . S
C109 C110 1.378 . S
C110 C109 1.378 . S
C110 C111 1.378 . S
C110 H122 0.952 . S
C111 C110 1.378 . S
C111 H123 0.950 . S
C111 C142 1.383 . S
H112 C131 0.947 . S
H113 C132 0.946 . S
H114 C134 0.953 . S
H115 C135 0.945 . S
H116 C137 0.952 . S
H117 C138 0.949 . S
H118 C140 0.950 . S
H119 C141 0.948 . S
H120 C143 0.951 . S
H121 C108 0.947 . S
H122 C110 0.952 . S
H123 C111 0.950 . S
N124 C127 1.382 . S
N124 C129 1.363 . S
N125 C127 1.371 . S
N125 C128 1.372 . S
N126 C128 1.361 . S
N126 C129 1.377 . S
C127 N124 1.382 . S
C127 N125 1.371 . S
C127 C130 1.480 . S
C128 N125 1.372 . S
C128 N126 1.361 . S
C128 C136 1.457 . S
C129 N124 1.363 . S
C129 N126 1.377 . S
C129 C142 1.479 . S
C130 C127 1.480 . S
C130 C131 1.383 . S
C130 C135 1.385 . S
C131 H112 0.947 . S
C131 C130 1.383 . S
C131 C132 1.388 . S
C132 H113 0.946 . S
C132 C131 1.388 . S
C132 C133 1.384 . S
C133 C132 1.384 . S
C133 C134 1.377 . S
C134 H114 0.953 . S
C134 C133 1.377 . S
C134 C135 1.369 . S
C135 H115 0.945 . S
C135 C130 1.385 . S
C135 C134 1.369 . S
C136 C128 1.457 . S
C136 C137 1.372 . S
C136 C141 1.364 . S
C137 H116 0.952 . S
C137 C136 1.372 . S
C137 C138 1.389 . S
C138 H117 0.949 . S
C138 C137 1.389 . S
C138 C139 1.387 . S
C139 C138 1.387 . S
C139 C140 1.372 . S
C140 H118 0.950 . S
C140 C139 1.372 . S
C140 C141 1.379 . S
C141 H119 0.948 . S
C141 C136 1.364 . S
C141 C140 1.379 . S
C142 C111 1.383 . S
C142 C129 1.479 . S
C142 C143 1.398 . S
C143 C108 1.382 . S
C143 H120 0.951 . S
C143 C142 1.398 . S
C144 C145 1.384 . S
C144 H157 0.947 . S
C144 C179 1.382 . S
C145 C144 1.384 . S
C145 C146 1.378 . S
C146 C145 1.378 . S
C146 C147 1.378 . S
C146 H158 0.952 . S
C147 C146 1.378 . S
C147 H159 0.950 . S
C147 C178 1.383 . S
H148 C167 0.947 1_556 S
H149 C168 0.946 . S
H150 C170 0.953 . S
H151 C171 0.945 . S
H152 C173 0.952 . S
H153 C174 0.949 . S
H154 C176 0.950 . S
H155 C177 0.948 . S
H156 C179 0.951 . S
H157 C144 0.947 . S
H158 C146 0.952 . S
H159 C147 0.950 . S
N160 C163 1.382 . S
N160 C165 1.363 1_554 S
N161 C163 1.371 . S
N161 C164 1.372 . S
N162 C164 1.361 . S
N162 C165 1.377 1_554 S
C163 N160 1.382 . S
C163 N161 1.371 . S
C163 C166 1.480 . S
C164 N161 1.372 . S
C164 N162 1.361 . S
C164 C172 1.457 . S
C165 N160 1.363 1_556 S
C165 N162 1.377 1_556 S
C165 C178 1.479 . S
C166 C163 1.480 . S
C166 C167 1.383 . S
C166 C171 1.385 . S
C167 H148 0.947 1_554 S
C167 C166 1.383 . S
C167 C168 1.388 . S
C168 H149 0.946 . S
C168 C167 1.388 . S
C168 C169 1.384 . S
C169 C168 1.384 . S
C169 C170 1.377 . S
C170 H150 0.953 . S
C170 C169 1.377 . S
C170 C171 1.369 . S
C171 H151 0.945 . S
C171 C166 1.385 . S
C171 C170 1.369 . S
C172 C164 1.457 . S
C172 C173 1.372 . S
C172 C177 1.364 . S
C173 H152 0.952 . S
C173 C172 1.372 . S
C173 C174 1.389 . S
C174 H153 0.949 . S
C174 C173 1.389 . S
C174 C175 1.387 . S
C175 C174 1.387 . S
C175 C176 1.372 . S
C176 H154 0.950 . S
C176 C175 1.372 . S
C176 C177 1.379 . S
C177 H155 0.948 . S
C177 C172 1.364 . S
C177 C176 1.379 . S
C178 C147 1.383 . S
C178 C165 1.479 . S
C178 C179 1.398 . S
C179 C144 1.382 . S
C179 H156 0.951 . S
C179 C178 1.398 . S
C180 C181 1.384 . S
C180 H193 0.948 1_455 S
C180 C215 1.382 . S
C181 C180 1.384 . S
C181 C182 1.378 . S
C182 C181 1.378 . S
C182 C183 1.378 . S
C182 H194 0.952 . S
C183 C182 1.378 . S
C183 H195 0.950 . S
C183 C214 1.383 . S
H184 C203 0.947 1_556 S
H185 C204 0.948 . S
H186 C206 0.953 . S
H187 C207 0.945 . S
H188 C209 0.947 1_655 S
H189 C210 0.954 . S
H190 C212 0.950 . S
H191 C213 0.948 . S
H192 C215 0.950 1_655 S
H193 C180 0.948 1_655 S
H194 C182 0.952 . S
H195 C183 0.950 . S
N196 C199 1.382 . S
N196 C201 1.363 1_554 S
N197 C199 1.371 . S
N197 C200 1.372 . S
N198 C200 1.361 . S
N198 C201 1.377 1_554 S
C199 N196 1.382 . S
C199 N197 1.371 . S
C199 C202 1.480 . S
C200 N197 1.372 . S
C200 N198 1.361 . S
C200 C208 1.457 . S
C201 N196 1.363 1_556 S
C201 N198 1.377 1_556 S
C201 C214 1.479 . S
C202 C199 1.480 . S
C202 C203 1.383 . S
C202 C207 1.385 . S
C203 H184 0.947 1_554 S
C203 C202 1.383 . S
C203 C204 1.387 1_455 S
C204 H185 0.948 . S
C204 C203 1.387 1_655 S
C204 C205 1.383 1_655 S
C205 C204 1.383 1_455 S
C205 C206 1.377 . S
C206 H186 0.953 . S
C206 C205 1.377 . S
C206 C207 1.369 . S
C207 H187 0.945 . S
C207 C202 1.385 . S
C207 C206 1.369 . S
C208 C200 1.457 . S
C208 C209 1.379 . S
C208 C213 1.364 . S
C209 H188 0.947 1_455 S
C209 C208 1.379 . S
C209 C210 1.387 1_455 S
C210 H189 0.954 . S
C210 C209 1.387 1_655 S
C210 C211 1.384 1_655 S
C211 C210 1.384 1_455 S
C211 C212 1.372 . S
C212 H190 0.950 . S
C212 C211 1.372 . S
C212 C213 1.379 . S
C213 H191 0.948 . S
C213 C208 1.364 . S
C213 C212 1.379 . S
C214 C183 1.383 . S
C214 C201 1.479 . S
C214 C215 1.399 . S
C215 C180 1.382 . S
C215 H192 0.950 1_455 S
C215 C214 1.399 . S
C216 C217 1.384 . S
C216 H229 0.948 1_545 S
C216 C251 1.382 . S
C217 C216 1.384 . S
C217 C218 1.378 . S
C218 C217 1.378 . S
C218 C219 1.378 . S
C218 H230 0.952 . S
C219 C218 1.378 . S
C219 H231 0.950 . S
C219 C250 1.383 . S
H220 C239 0.947 1_556 S
H221 C240 0.948 . S
H222 C242 0.953 . S
H223 C243 0.945 . S
H224 C245 0.947 1_565 S
H225 C246 0.953 . S
H226 C248 0.950 . S
H227 C249 0.948 . S
H228 C251 0.950 1_565 S
H229 C216 0.948 1_565 S
H230 C218 0.952 . S
H231 C219 0.950 . S
N232 C235 1.382 . S
N232 C237 1.363 1_554 S
N233 C235 1.371 . S
N233 C236 1.372 . S
N234 C236 1.361 . S
N234 C237 1.377 1_554 S
C235 N232 1.382 . S
C235 N233 1.371 . S
C235 C238 1.480 . S
C236 N233 1.372 . S
C236 N234 1.361 . S
C236 C244 1.457 . S
C237 N232 1.363 1_556 S
C237 N234 1.377 1_556 S
C237 C250 1.479 . S
C238 C235 1.480 . S
C238 C239 1.383 . S
C238 C243 1.385 . S
C239 H220 0.947 1_554 S
C239 C238 1.383 . S
C239 C240 1.387 1_545 S
C240 H221 0.948 . S
C240 C239 1.387 1_565 S
C240 C241 1.383 1_565 S
C241 C240 1.383 1_545 S
C241 C242 1.377 . S
C242 H222 0.953 . S
C242 C241 1.377 . S
C242 C243 1.369 . S
C243 H223 0.945 . S
C243 C238 1.385 . S
C243 C242 1.369 . S
C244 C236 1.457 . S
C244 C245 1.379 . S
C244 C249 1.364 . S
C245 H224 0.947 1_545 S
C245 C244 1.379 . S
C245 C246 1.387 1_545 S
C246 H225 0.953 . S
C246 C245 1.387 1_565 S
C246 C247 1.384 1_565 S
C247 C246 1.384 1_545 S
C247 C248 1.372 . S
C248 H226 0.950 . S
C248 C247 1.372 . S
C248 C249 1.379 . S
C249 H227 0.948 . S
C249 C244 1.364 . S
C249 C248 1.379 . S
C250 C219 1.383 . S
C250 C237 1.479 . S
C250 C251 1.399 . S
C251 C216 1.382 . S
C251 H228 0.950 1_545 S
C251 C250 1.399 . S
C252 C253 1.384 . S
C252 H265 0.947 . S
C252 C287 1.382 . S
C253 C252 1.384 . S
C253 C254 1.378 . S
C254 C253 1.378 . S
C254 C255 1.378 . S
C254 H266 0.952 . S
C255 C254 1.378 . S
C255 H267 0.950 . S
C255 C286 1.383 . S
H256 C275 0.947 . S
H257 C276 0.946 . S
H258 C278 0.953 . S
H259 C279 0.945 1_556 S
H260 C281 0.952 . S
H261 C282 0.949 . S
H262 C284 0.950 . S
H263 C285 0.948 . S
H264 C287 0.951 . S
H265 C252 0.947 . S
H266 C254 0.952 . S
H267 C255 0.950 . S
N268 C271 1.382 . S
N268 C273 1.363 . S
N269 C271 1.371 . S
N269 C272 1.372 1_554 S
N270 C272 1.361 1_554 S
N270 C273 1.377 . S
C271 N268 1.382 . S
C271 N269 1.371 . S
C271 C274 1.480 . S
C272 N269 1.372 1_556 S
C272 N270 1.361 1_556 S
C272 C280 1.457 . S
C273 N268 1.363 . S
C273 N270 1.377 . S
C273 C286 1.479 . S
C274 C271 1.480 . S
C274 C275 1.383 . S
C274 C279 1.385 . S
C275 H256 0.947 . S
C275 C274 1.383 . S
C275 C276 1.388 . S
C276 H257 0.946 . S
C276 C275 1.388 . S
C276 C277 1.384 . S
C277 C276 1.384 . S
C277 C278 1.377 . S
C278 H258 0.953 . S
C278 C277 1.377 . S
C278 C279 1.369 . S
C279 H259 0.945 1_554 S
C279 C274 1.385 . S
C279 C278 1.369 . S
C280 C272 1.457 . S
C280 C281 1.372 . S
C280 C285 1.364 . S
C281 H260 0.952 . S
C281 C280 1.372 . S
C281 C282 1.389 . S
C282 H261 0.949 . S
C282 C281 1.389 . S
C282 C283 1.387 . S
C283 C282 1.387 . S
C283 C284 1.372 . S
C284 H262 0.950 . S
C284 C283 1.372 . S
C284 C285 1.379 . S
C285 H263 0.948 . S
C285 C280 1.364 . S
C285 C284 1.379 . S
C286 C255 1.383 . S
C286 C273 1.479 . S
C286 C287 1.398 . S
C287 C252 1.382 . S
C287 H264 0.951 . S
C287 C286 1.398 . S
Tb288 C298 2.825 . S
Tb288 O299 2.347 1_455 S
Tb288 O302 2.366 . S
Tb288 O307 2.418 . S
Tb288 O308 2.384 1_565 S
Tb288 O311 2.479 . S
Tb288 O312 2.471 . S
Eu289 O300 2.418 . S
Eu289 O301 2.384 1_545 S
Eu289 O304 2.479 . S
Eu289 O305 2.471 . S
Eu289 O306 2.347 1_655 S
Eu289 O309 2.366 . S
Eu289 C319 2.825 . S
C290 O306 1.259 1_565 S
C290 O307 1.265 . S
C291 O308 1.255 . S
C291 O309 1.265 1_455 S
C292 C294 1.380 . S
C292 C295 1.374 . S
C292 C298 1.507 . S
C293 C294 1.384 . S
C293 C297 1.387 . S
C293 H320 0.930 . S
C294 C292 1.380 . S
C294 C293 1.384 . S
C294 H321 0.931 . S
C295 C292 1.374 . S
C295 C296 1.390 . S
C295 H322 0.930 1_455 S
C296 C295 1.390 . S
C296 C297 1.391 . S
C296 H323 0.930 1_455 S
C297 C293 1.387 . S
C297 C296 1.391 . S
C298 Tb288 2.825 . S
C298 C292 1.507 . S
C298 O311 1.238 . S
C298 O312 1.247 . S
O299 Tb288 2.347 1_655 S
O299 C303 1.259 1_565 S
O300 Eu289 2.418 . S
O300 C303 1.265 . S
O301 Eu289 2.384 1_565 S
O301 C310 1.255 . S
O302 Tb288 2.366 . S
O302 C310 1.265 1_455 S
C303 O299 1.259 1_545 S
C303 O300 1.265 . S
O304 Eu289 2.479 . S
O304 C319 1.238 . S
O305 Eu289 2.471 . S
O305 C319 1.247 . S
O306 Eu289 2.347 1_455 S
O306 C290 1.259 1_545 S
O307 Tb288 2.418 . S
O307 C290 1.265 . S
O308 Tb288 2.384 1_545 S
O308 C291 1.255 . S
O309 Eu289 2.366 . S
O309 C291 1.265 1_655 S
C310 O301 1.255 . S
C310 O302 1.265 1_655 S
O311 Tb288 2.479 . S
O311 C298 1.238 . S
O312 Tb288 2.471 . S
O312 C298 1.247 . S
C313 C316 1.380 . S
C313 C317 1.374 . S
C313 C319 1.507 . S
C314 C315 1.387 . S
C314 C318 1.391 . S
C315 C314 1.387 . S
C315 C316 1.384 . S
C315 H324 0.930 . S
C316 C313 1.380 . S
C316 C315 1.384 . S
C316 H325 0.931 . S
C317 C313 1.374 . S
C317 C318 1.390 . S
C317 H326 0.930 1_655 S
C318 C314 1.391 . S
C318 C317 1.390 . S
C318 H327 0.930 1_655 S
C319 Eu289 2.825 . S
C319 O304 1.238 . S
C319 O305 1.247 . S
C319 C313 1.507 . S
H320 C293 0.930 . S
H321 C294 0.931 . S
H322 C295 0.930 1_655 S
H323 C296 0.930 1_655 S
H324 C315 0.930 . S
H325 C316 0.931 . S
H326 C317 0.930 1_455 S
H327 C318 0.930 1_455 S
Tb328 C338 2.825 . S
Tb328 O339 2.347 1_545 S
Tb328 O342 2.366 . S
Tb328 O347 2.418 . S
Tb328 O348 2.384 . S
Tb328 O351 2.479 . S
Tb328 O352 2.471 . S
Eu329 O340 2.418 . S
Eu329 O341 2.384 . S
Eu329 O344 2.479 . S
Eu329 O345 2.471 . S
Eu329 O346 2.347 1_565 S
Eu329 O349 2.366 . S
Eu329 C359 2.825 . S
C330 O346 1.259 . S
C330 O347 1.265 . S
C331 O348 1.255 . S
C331 O349 1.265 1_545 S
C332 C334 1.380 . S
C332 C335 1.374 . S
C332 C338 1.507 . S
C333 C334 1.384 . S
C333 C337 1.387 . S
C333 H360 0.930 . S
C334 C332 1.380 . S
C334 C333 1.384 . S
C334 H361 0.931 . S
C335 C332 1.374 . S
C335 C336 1.390 . S
C335 H362 0.930 1_545 S
C336 C335 1.390 . S
C336 C337 1.391 . S
C336 H363 0.930 1_545 S
C337 C333 1.387 . S
C337 C336 1.391 . S
C338 Tb328 2.825 . S
C338 C332 1.507 . S
C338 O351 1.238 . S
C338 O352 1.247 . S
O339 Tb328 2.347 1_565 S
O339 C343 1.259 . S
O340 Eu329 2.418 . S
O340 C343 1.265 . S
O341 Eu329 2.384 . S
O341 C350 1.255 . S
O342 Tb328 2.366 . S
O342 C350 1.265 1_545 S
C343 O339 1.259 . S
C343 O340 1.265 . S
O344 Eu329 2.479 . S
O344 C359 1.238 . S
O345 Eu329 2.471 . S
O345 C359 1.247 . S
O346 Eu329 2.347 1_545 S
O346 C330 1.259 . S
O347 Tb328 2.418 . S
O347 C330 1.265 . S
O348 Tb328 2.384 . S
O348 C331 1.255 . S
O349 Eu329 2.366 . S
O349 C331 1.265 1_565 S
C350 O341 1.255 . S
C350 O342 1.265 1_565 S
O351 Tb328 2.479 . S
O351 C338 1.238 . S
O352 Tb328 2.471 . S
O352 C338 1.247 . S
C353 C356 1.380 . S
C353 C357 1.374 . S
C353 C359 1.507 . S
C354 C355 1.387 . S
C354 C358 1.391 . S
C355 C354 1.387 . S
C355 C356 1.384 . S
C355 H364 0.930 . S
C356 C353 1.380 . S
C356 C355 1.384 . S
C356 H365 0.931 . S
C357 C353 1.374 . S
C357 C358 1.390 . S
C357 H366 0.930 1_565 S
C358 C354 1.391 . S
C358 C357 1.390 . S
C358 H367 0.930 1_565 S
C359 Eu329 2.825 . S
C359 O344 1.238 . S
C359 O345 1.247 . S
C359 C353 1.507 . S
H360 C333 0.930 . S
H361 C334 0.931 . S
H362 C335 0.930 1_565 S
H363 C336 0.930 1_565 S
H364 C355 0.930 . S
H365 C356 0.931 . S
H366 C357 0.930 1_545 S
H367 C358 0.930 1_545 S
Tb368 C378 2.825 . S
Tb368 O379 2.347 . S
Tb368 O382 2.366 . S
Tb368 O387 2.418 . S
Tb368 O388 2.384 . S
Tb368 O391 2.479 . S
Tb368 O392 2.471 . S
Eu369 O380 2.418 . S
Eu369 O381 2.384 . S
Eu369 O384 2.479 . S
Eu369 O385 2.471 . S
Eu369 O386 2.347 . S
Eu369 O389 2.366 . S
Eu369 C399 2.825 . S
C370 O386 1.259 . S
C370 O387 1.265 . S
C371 O388 1.255 . S
C371 O389 1.265 . S
C372 C374 1.380 . S
C372 C375 1.374 . S
C372 C378 1.507 . S
C373 C374 1.384 . S
C373 C377 1.387 . S
C373 H400 0.930 . S
C374 C372 1.380 . S
C374 C373 1.384 . S
C374 H401 0.931 . S
C375 C372 1.374 . S
C375 C376 1.390 . S
C375 H402 0.930 . S
C376 C375 1.390 . S
C376 C377 1.391 . S
C376 H403 0.930 . S
C377 C373 1.387 . S
C377 C376 1.391 . S
C378 Tb368 2.825 . S
C378 C372 1.507 . S
C378 O391 1.238 . S
C378 O392 1.247 . S
O379 Tb368 2.347 . S
O379 C383 1.259 . S
O380 Eu369 2.418 . S
O380 C383 1.265 . S
O381 Eu369 2.384 . S
O381 C390 1.255 . S
O382 Tb368 2.366 . S
O382 C390 1.265 . S
C383 O379 1.259 . S
C383 O380 1.265 . S
O384 Eu369 2.479 . S
O384 C399 1.238 . S
O385 Eu369 2.471 . S
O385 C399 1.247 . S
O386 Eu369 2.347 . S
O386 C370 1.259 . S
O387 Tb368 2.418 . S
O387 C370 1.265 . S
O388 Tb368 2.384 . S
O388 C371 1.255 . S
O389 Eu369 2.366 . S
O389 C371 1.265 . S
C390 O381 1.255 . S
C390 O382 1.265 . S
O391 Tb368 2.479 . S
O391 C378 1.238 . S
O392 Tb368 2.471 . S
O392 C378 1.247 . S
C393 C396 1.380 . S
C393 C397 1.374 . S
C393 C399 1.507 . S
C394 C395 1.387 . S
C394 C398 1.391 . S
C395 C394 1.387 . S
C395 C396 1.384 . S
C395 H404 0.930 . S
C396 C393 1.380 . S
C396 C395 1.384 . S
C396 H405 0.931 . S
C397 C393 1.374 . S
C397 C398 1.390 . S
C397 H406 0.930 . S
C398 C394 1.391 . S
C398 C397 1.390 . S
C398 H407 0.930 . S
C399 Eu369 2.825 . S
C399 O384 1.238 . S
C399 O385 1.247 . S
C399 C393 1.507 . S
H400 C373 0.930 . S
H401 C374 0.931 . S
H402 C375 0.930 . S
H403 C376 0.930 . S
H404 C395 0.930 . S
H405 C396 0.931 . S
H406 C397 0.930 . S
H407 C398 0.930 . S
Tb408 C418 2.825 . S
Tb408 O419 2.347 . S
Tb408 O422 2.366 . S
Tb408 O427 2.418 . S
Tb408 O428 2.384 1_655 S
Tb408 O431 2.479 . S
Tb408 O432 2.471 . S
Eu409 O420 2.418 . S
Eu409 O421 2.384 1_455 S
Eu409 O424 2.479 . S
Eu409 O425 2.471 . S
Eu409 O426 2.347 . S
Eu409 O429 2.366 . S
Eu409 C439 2.825 . S
C410 O426 1.259 1_655 S
C410 O427 1.265 . S
C411 O428 1.255 . S
C411 O429 1.265 . S
C412 C414 1.380 . S
C412 C415 1.374 . S
C412 C418 1.507 . S
C413 C414 1.384 . S
C413 C417 1.387 . S
C413 H440 0.930 . S
C414 C412 1.380 . S
C414 C413 1.384 . S
C414 H441 0.931 . S
C415 C412 1.374 . S
C415 C416 1.390 . S
C415 H442 0.930 . S
C416 C415 1.390 . S
C416 C417 1.391 . S
C416 H443 0.930 . S
C417 C413 1.387 . S
C417 C416 1.391 . S
C418 Tb408 2.825 . S
C418 C412 1.507 . S
C418 O431 1.238 . S
C418 O432 1.247 . S
O419 Tb408 2.347 . S
O419 C423 1.259 1_655 S
O420 Eu409 2.418 . S
O420 C423 1.265 . S
O421 Eu409 2.384 1_655 S
O421 C430 1.255 . S
O422 Tb408 2.366 . S
O422 C430 1.265 . S
C423 O419 1.259 1_455 S
C423 O420 1.265 . S
O424 Eu409 2.479 . S
O424 C439 1.238 . S
O425 Eu409 2.471 . S
O425 C439 1.247 . S
O426 Eu409 2.347 . S
O426 C410 1.259 1_455 S
O427 Tb408 2.418 . S
O427 C410 1.265 . S
O428 Tb408 2.384 1_455 S
O428 C411 1.255 . S
O429 Eu409 2.366 . S
O429 C411 1.265 . S
C430 O421 1.255 . S
C430 O422 1.265 . S
O431 Tb408 2.479 . S
O431 C418 1.238 . S
O432 Tb408 2.471 . S
O432 C418 1.247 . S
C433 C436 1.380 . S
C433 C437 1.374 . S
C433 C439 1.507 . S
C434 C435 1.387 . S
C434 C438 1.391 . S
C435 C434 1.387 . S
C435 C436 1.384 . S
C435 H444 0.930 . S
C436 C433 1.380 . S
C436 C435 1.384 . S
C436 H445 0.931 . S
C437 C433 1.374 . S
C437 C438 1.390 . S
C437 H446 0.930 . S
C438 C434 1.391 . S
C438 C437 1.390 . S
C438 H447 0.930 . S
C439 Eu409 2.825 . S
C439 O424 1.238 . S
C439 O425 1.247 . S
C439 C433 1.507 . S
H440 C413 0.930 . S
H441 C414 0.931 . S
H442 C415 0.930 . S
H443 C416 0.930 . S
H444 C435 0.930 . S
H445 C436 0.931 . S
H446 C437 0.930 . S
H447 C438 0.930 . S
H448 C456 0.929 . S
H449 C458 0.930 . S
H450 C460 0.930 . S
H451 C463 0.929 . S
H452 C466 0.930 . S
H453 C468 0.960 . S
H454 C468 0.960 . S
H455 C468 0.960 . S
C456 H448 0.929 . S
C456 C457 1.377 . S
C456 C458 1.384 . S
C457 C456 1.377 . S
C457 C463 1.390 1_565 S
C458 H449 0.930 . S
C458 C456 1.384 . S
C458 C459 1.373 . S
C459 C458 1.373 . S
C459 C460 1.399 1_565 S
C459 C464 1.489 1_565 S
C460 H450 0.930 . S
C460 C459 1.399 1_545 S
C460 C463 1.386 . S
H461 C477 0.930 . S
H462 C478 0.931 . S
C463 H451 0.929 . S
C463 C457 1.390 1_545 S
C463 C460 1.386 . S
C464 C459 1.489 1_545 S
C464 C466 1.407 . S
C464 C467 1.391 1_545 S
H465 C471 0.930 . S
C466 H452 0.930 . S
C466 C464 1.407 . S
C466 C469 1.403 . S
C467 C464 1.391 1_565 S
C467 C468 1.524 . S
C467 C471 1.400 . S
C468 H453 0.960 . S
C468 H454 0.960 . S
C468 H455 0.960 . S
C468 C467 1.524 . S
C469 C466 1.403 . S
C469 C470 1.392 . S
C469 C473 1.495 . S
C470 C469 1.392 . S
C470 C471 1.385 1_545 S
C470 C472 1.478 . S
C471 H465 0.930 . S
C471 C467 1.400 . S
C471 C470 1.385 1_565 S
C472 C470 1.478 . S
C472 C474 1.381 1_545 S
C472 C478 1.383 . S
C473 C469 1.495 . S
C473 H479 0.959 . S
C473 H480 0.961 . S
C473 H481 0.960 . S
C474 C472 1.381 1_565 S
C474 C475 1.394 . S
C474 H482 0.930 . S
C475 C474 1.394 . S
C475 C476 1.383 1_565 S
C475 H483 0.929 . S
C476 C475 1.383 1_545 S
C476 C477 1.377 . S
C477 H461 0.930 . S
C477 C476 1.377 . S
C477 C478 1.379 . S
C478 H462 0.931 . S
C478 C472 1.383 . S
C478 C477 1.379 . S
H479 C473 0.959 . S
H480 C473 0.961 . S
H481 C473 0.960 . S
H482 C474 0.930 . S
H483 C475 0.929 . S
H484 C492 0.929 . S
H485 C494 0.930 . S
H486 C496 0.930 . S
H487 C499 0.929 . S
H488 C502 0.930 . S
H489 C504 0.960 . S
H490 C504 0.960 . S
H491 C504 0.960 . S
C492 H484 0.929 . S
C492 C493 1.377 . S
C492 C494 1.384 . S
C493 C492 1.377 . S
C493 C499 1.390 . S
C494 H485 0.930 . S
C494 C492 1.384 . S
C494 C495 1.372 . S
C495 C494 1.372 . S
C495 C496 1.400 . S
C495 C500 1.490 . S
C496 H486 0.930 . S
C496 C495 1.400 . S
C496 C499 1.386 . S
H497 C513 0.930 . S
H498 C514 0.931 . S
C499 H487 0.929 . S
C499 C493 1.390 . S
C499 C496 1.386 . S
C500 C495 1.490 . S
C500 C502 1.395 . S
C500 C503 1.403 . S
H501 C507 0.930 . S
C502 H488 0.930 . S
C502 C500 1.395 . S
C502 C505 1.403 . S
C503 C500 1.403 . S
C503 C504 1.524 . S
C503 C507 1.400 . S
C504 H489 0.960 . S
C504 H490 0.960 . S
C504 H491 0.960 . S
C504 C503 1.524 . S
C505 C502 1.403 . S
C505 C506 1.392 . S
C505 C509 1.495 . S
C506 C505 1.392 . S
C506 C507 1.385 . S
C506 C508 1.478 . S
C507 H501 0.930 . S
C507 C503 1.400 . S
C507 C506 1.385 . S
C508 C506 1.478 . S
C508 C510 1.381 . S
C508 C514 1.383 . S
C509 C505 1.495 . S
C509 H515 0.959 . S
C509 H516 0.961 . S
C509 H517 0.960 . S
C510 C508 1.381 . S
C510 C511 1.394 . S
C510 H518 0.930 . S
C511 C510 1.394 . S
C511 C512 1.383 . S
C511 H519 0.929 . S
C512 C511 1.383 . S
C512 C513 1.377 . S
C513 H497 0.930 . S
C513 C512 1.377 . S
C513 C514 1.379 . S
C514 H498 0.931 . S
C514 C508 1.383 . S
C514 C513 1.379 . S
H515 C509 0.959 . S
H516 C509 0.961 . S
H517 C509 0.960 . S
H518 C510 0.930 . S
H519 C511 0.929 . S
H520 C528 0.929 . S
H521 C530 0.930 . S
H522 C532 0.930 . S
H523 C535 0.929 . S
H524 C538 0.930 . S
H525 C540 0.960 . S
H526 C540 0.960 . S
H527 C540 0.960 . S
C528 H520 0.929 . S
C528 C529 1.377 . S
C528 C530 1.384 . S
C529 C528 1.377 . S
C529 C535 1.390 . S
C530 H521 0.930 . S
C530 C528 1.384 . S
C530 C531 1.372 . S
C531 C530 1.372 . S
C531 C532 1.400 . S
C531 C536 1.490 . S
C532 H522 0.930 . S
C532 C531 1.400 . S
C532 C535 1.386 . S
H533 C549 0.930 . S
H534 C550 0.931 . S
C535 H523 0.929 . S
C535 C529 1.390 . S
C535 C532 1.386 . S
C536 C531 1.490 . S
C536 C538 1.395 . S
C536 C539 1.403 . S
H537 C543 0.930 . S
C538 H524 0.930 . S
C538 C536 1.395 . S
C538 C541 1.403 . S
C539 C536 1.403 . S
C539 C540 1.524 . S
C539 C543 1.400 . S
C540 H525 0.960 . S
C540 H526 0.960 . S
C540 H527 0.960 . S
C540 C539 1.524 . S
C541 C538 1.403 . S
C541 C542 1.392 . S
C541 C545 1.495 . S
C542 C541 1.392 . S
C542 C543 1.385 . S
C542 C544 1.478 . S
C543 H537 0.930 . S
C543 C539 1.400 . S
C543 C542 1.385 . S
C544 C542 1.478 . S
C544 C546 1.381 . S
C544 C550 1.383 . S
C545 C541 1.495 . S
C545 H551 0.959 . S
C545 H552 0.961 . S
C545 H553 0.960 . S
C546 C544 1.381 . S
C546 C547 1.394 . S
C546 H554 0.930 . S
C547 C546 1.394 . S
C547 C548 1.383 . S
C547 H555 0.929 . S
C548 C547 1.383 . S
C548 C549 1.377 . S
C549 H533 0.930 . S
C549 C548 1.377 . S
C549 C550 1.379 . S
C550 H534 0.931 . S
C550 C544 1.383 . S
C550 C549 1.379 . S
H551 C545 0.959 . S
H552 C545 0.961 . S
H553 C545 0.960 . S
H554 C546 0.930 . S
H555 C547 0.929 . S
H556 C564 0.929 . S
H557 C566 0.930 . S
H558 C568 0.930 . S
H559 C571 0.929 . S
H560 C574 0.930 . S
H561 C576 0.960 . S
H562 C576 0.960 . S
H563 C576 0.960 . S
C564 H556 0.929 . S
C564 C565 1.393 . S
C564 C566 1.384 . S
C565 C564 1.393 . S
C565 C571 1.375 1_455 S
C566 H557 0.930 . S
C566 C564 1.384 . S
C566 C567 1.372 . S
C567 C566 1.372 . S
C567 C568 1.400 1_455 S
C567 C572 1.490 . S
C568 H558 0.930 . S
C568 C567 1.400 1_655 S
C568 C571 1.386 . S
H569 C585 0.930 . S
H570 C586 0.931 . S
C571 H559 0.929 . S
C571 C565 1.375 1_655 S
C571 C568 1.386 . S
C572 C567 1.490 . S
C572 C574 1.395 . S
C572 C575 1.403 1_455 S
H573 C579 0.930 . S
C574 H560 0.930 . S
C574 C572 1.395 . S
C574 C577 1.403 . S
C575 C572 1.403 1_655 S
C575 C576 1.524 . S
C575 C579 1.400 . S
C576 H561 0.960 . S
C576 H562 0.960 . S
C576 H563 0.960 . S
C576 C575 1.524 . S
C577 C574 1.403 . S
C577 C578 1.392 . S
C577 C581 1.495 . S
C578 C577 1.392 . S
C578 C579 1.385 1_455 S
C578 C580 1.478 . S
C579 H573 0.930 . S
C579 C575 1.400 . S
C579 C578 1.385 1_655 S
C580 C578 1.478 . S
C580 C582 1.381 . S
C580 C586 1.383 1_455 S
C581 C577 1.495 . S
C581 H587 0.959 . S
C581 H588 0.961 . S
C581 H589 0.960 . S
C582 C580 1.381 . S
C582 C583 1.394 . S
C582 H590 0.930 . S
C583 C582 1.394 . S
C583 C584 1.383 . S
C583 H591 0.929 . S
C584 C583 1.383 . S
C584 C585 1.377 1_455 S
C585 H569 0.930 . S
C585 C584 1.377 1_655 S
C585 C586 1.379 . S
C586 H570 0.931 . S
C586 C580 1.383 1_655 S
C586 C585 1.379 . S
H587 C581 0.959 . S
H588 C581 0.961 . S
H589 C581 0.960 . S
H590 C582 0.930 . S
H591 C583 0.929 . S
H592 C600 0.929 . S
H593 C602 0.930 . S
H594 C604 0.930 . S
H595 C607 0.929 . S
H596 C610 0.930 . S
H597 C612 0.960 . S
H598 C612 0.960 1_554 S
H599 C612 0.960 . S
C600 H592 0.929 . S
C600 C601 1.385 . S
C600 C602 1.384 . S
C601 C600 1.385 . S
C601 C607 1.383 1_545 S
C602 H593 0.930 . S
C602 C600 1.384 . S
C602 C603 1.387 . S
C603 C602 1.387 . S
C603 C604 1.385 1_545 S
C603 C608 1.490 . S
C604 H594 0.930 . S
C604 C603 1.385 1_565 S
C604 C607 1.386 . S
H605 C621 0.930 . S
H606 C622 0.931 . S
C607 H595 0.929 . S
C607 C601 1.383 1_565 S
C607 C604 1.386 . S
C608 C603 1.490 . S
C608 C610 1.393 1_545 S
C608 C611 1.405 1_554 S
H609 C615 0.930 . S
C610 H596 0.930 . S
C610 C608 1.393 1_565 S
C610 C613 1.403 1_554 S
C611 C608 1.405 1_556 S
C611 C612 1.524 . S
C611 C615 1.400 . S
C612 H597 0.960 . S
C612 H598 0.960 1_556 S
C612 H599 0.960 . S
C612 C611 1.524 . S
C613 C610 1.403 1_556 S
C613 C614 1.392 . S
C613 C617 1.497 . S
C614 C613 1.392 . S
C614 C615 1.385 1_565 S
C614 C616 1.478 . S
C615 H609 0.930 . S
C615 C611 1.400 . S
C615 C614 1.385 1_545 S
C616 C614 1.478 . S
C616 C618 1.381 1_565 S
C616 C622 1.383 . S
C617 C613 1.497 . S
C617 H623 0.942 1_556 S
C617 H624 0.972 . S
C617 H625 0.964 . S
C618 C616 1.381 1_545 S
C618 C619 1.394 . S
C618 H626 0.930 . S
C619 C618 1.394 . S
C619 C620 1.383 1_545 S
C619 H627 0.929 . S
C620 C619 1.383 1_565 S
C620 C621 1.377 . S
C621 H605 0.930 . S
C621 C620 1.377 . S
C621 C622 1.379 . S
C622 H606 0.931 . S
C622 C616 1.383 . S
C622 C621 1.379 . S
H623 C617 0.942 1_554 S
H624 C617 0.972 . S
H625 C617 0.964 . S
H626 C618 0.930 . S
H627 C619 0.929 . S
H628 C636 0.929 . S
H629 C638 0.930 . S
H630 C640 0.930 . S
H631 C643 0.929 . S
H632 C646 0.930 . S
H633 C648 0.960 . S
H634 C648 0.960 . S
H635 C648 0.960 . S
C636 H628 0.929 . S
C636 C637 1.377 . S
C636 C638 1.384 . S
C637 C636 1.377 . S
C637 C643 1.390 . S
C638 H629 0.930 . S
C638 C636 1.384 . S
C638 C639 1.372 . S
C639 C638 1.372 . S
C639 C640 1.400 . S
C639 C644 1.490 . S
C640 H630 0.930 . S
C640 C639 1.400 . S
C640 C643 1.386 . S
H641 C657 0.930 . S
H642 C658 0.931 . S
C643 H631 0.929 . S
C643 C637 1.390 . S
C643 C640 1.386 . S
C644 C639 1.490 . S
C644 C646 1.395 1_554 S
C644 C647 1.403 . S
H645 C651 0.930 . S
C646 H632 0.930 . S
C646 C644 1.395 1_556 S
C646 C649 1.403 . S
C647 C644 1.403 . S
C647 C648 1.524 . S
C647 C651 1.400 1_554 S
C648 H633 0.960 . S
C648 H634 0.960 . S
C648 H635 0.960 . S
C648 C647 1.524 . S
C649 C646 1.403 . S
C649 C650 1.392 . S
C649 C653 1.495 . S
C650 C649 1.392 . S
C650 C651 1.385 . S
C650 C652 1.478 . S
C651 H645 0.930 . S
C651 C647 1.400 1_556 S
C651 C650 1.385 . S
C652 C650 1.478 . S
C652 C654 1.381 . S
C652 C658 1.383 . S
C653 C649 1.495 . S
C653 H659 0.959 . S
C653 H660 0.961 . S
C653 H661 0.960 . S
C654 C652 1.381 . S
C654 C655 1.394 . S
C654 H662 0.930 . S
C655 C654 1.394 . S
C655 C656 1.383 . S
C655 H663 0.929 . S
C656 C655 1.383 . S
C656 C657 1.377 . S
C657 H641 0.930 . S
C657 C656 1.377 . S
C657 C658 1.379 . S
C658 H642 0.931 . S
C658 C652 1.383 . S
C658 C657 1.379 . S
H659 C653 0.959 . S
H660 C653 0.961 . S
H661 C653 0.960 . S
H662 C654 0.930 . S
H663 C655 0.929 . S
H664 C672 0.929 . S
H665 C674 0.930 . S
H666 C676 0.930 . S
H667 C679 0.929 . S
H668 C682 0.930 . S
H669 C684 0.960 . S
H670 C684 0.960 . S
H671 C684 0.960 . S
C672 H664 0.929 . S
C672 C673 1.377 . S
C672 C674 1.384 . S
C673 C672 1.377 . S
C673 C679 1.390 . S
C674 H665 0.930 . S
C674 C672 1.384 . S
C674 C675 1.372 . S
C675 C674 1.372 . S
C675 C676 1.400 . S
C675 C680 1.490 . S
C676 H666 0.930 . S
C676 C675 1.400 . S
C676 C679 1.386 . S
H677 C693 0.930 . S
H678 C694 0.931 . S
C679 H667 0.929 . S
C679 C673 1.390 . S
C679 C676 1.386 . S
C680 C675 1.490 . S
C680 C682 1.395 1_554 S
C680 C683 1.403 . S
H681 C687 0.930 . S
C682 H668 0.930 . S
C682 C680 1.395 1_556 S
C682 C685 1.403 . S
C683 C680 1.403 . S
C683 C684 1.524 . S
C683 C687 1.400 1_554 S
C684 H669 0.960 . S
C684 H670 0.960 . S
C684 H671 0.960 . S
C684 C683 1.524 . S
C685 C682 1.403 . S
C685 C686 1.392 . S
C685 C689 1.495 . S
C686 C685 1.392 . S
C686 C687 1.385 . S
C686 C688 1.478 . S
C687 H681 0.930 . S
C687 C683 1.400 1_556 S
C687 C686 1.385 . S
C688 C686 1.478 . S
C688 C690 1.381 . S
C688 C694 1.383 . S
C689 C685 1.495 . S
C689 H695 0.959 . S
C689 H696 0.961 . S
C689 H697 0.960 . S
C690 C688 1.381 . S
C690 C691 1.394 . S
C690 H698 0.930 . S
C691 C690 1.394 . S
C691 C692 1.383 . S
C691 H699 0.929 . S
C692 C691 1.383 . S
C692 C693 1.377 . S
C693 H677 0.930 . S
C693 C692 1.377 . S
C693 C694 1.379 . S
C694 H678 0.931 . S
C694 C688 1.383 . S
C694 C693 1.379 . S
H695 C689 0.959 . S
H696 C689 0.961 . S
H697 C689 0.960 . S
H698 C690 0.930 . S
H699 C691 0.929 . S
H700 C708 0.929 . S
H701 C710 0.930 . S
H702 C712 0.930 . S
H703 C715 0.929 . S
H704 C718 0.930 . S
H705 C720 0.960 1_556 S
H706 C720 0.960 . S
H707 C720 0.960 . S
C708 H700 0.929 . S
C708 C709 1.373 1_455 S
C708 C710 1.384 . S
C709 C708 1.373 1_655 S
C709 C715 1.394 . S
C710 H701 0.930 . S
C710 C708 1.384 . S
C710 C711 1.382 . S
C711 C710 1.382 . S
C711 C712 1.389 1_455 S
C711 C716 1.489 . S
C712 H702 0.930 . S
C712 C711 1.389 1_655 S
C712 C715 1.386 . S
H713 C729 0.930 . S
H714 C730 0.931 . S
C715 H703 0.929 . S
C715 C709 1.394 . S
C715 C712 1.386 . S
C716 C711 1.489 . S
C716 C718 1.441 . S
C716 C719 1.359 1_454 S
H717 C723 0.930 . S
C718 H704 0.930 . S
C718 C716 1.441 . S
C718 C721 1.403 1_554 S
C719 C716 1.359 1_656 S
C719 C720 1.524 1_556 S
C719 C723 1.400 . S
C720 H705 0.960 1_554 S
C720 H706 0.960 . S
C720 H707 0.960 . S
C720 C719 1.524 1_554 S
C721 C718 1.403 1_556 S
C721 C722 1.392 . S
C721 C725 1.495 . S
C722 C721 1.392 . S
C722 C723 1.385 1_455 S
C722 C724 1.478 . S
C723 H717 0.930 . S
C723 C719 1.400 . S
C723 C722 1.385 1_655 S
C724 C722 1.478 . S
C724 C726 1.381 . S
C724 C730 1.383 1_455 S
C725 C721 1.495 . S
C725 H731 0.959 . S
C725 H732 0.961 . S
C725 H733 0.960 . S
C726 C724 1.381 . S
C726 C727 1.394 . S
C726 H734 0.930 . S
C727 C726 1.394 . S
C727 C728 1.399 . S
C727 H735 0.929 . S
C728 C727 1.399 . S
C728 C729 1.363 1_455 S
C729 H713 0.930 . S
C729 C728 1.363 1_655 S
C729 C730 1.379 . S
C730 H714 0.931 . S
C730 C724 1.383 1_655 S
C730 C729 1.379 . S
H731 C725 0.959 . S
H732 C725 0.961 . S
H733 C725 0.960 . S
H734 C726 0.930 . S
H735 C727 0.929 . S
H736 C744 0.929 . S
H737 C746 0.930 . S
H738 C748 0.930 . S
H739 C751 0.929 . S
H740 C754 0.929 . S
H741 C756 0.960 . S
H742 C756 0.960 . S
H743 C756 0.960 . S
C744 H736 0.929 . S
C744 C745 1.377 . S
C744 C746 1.384 . S
C745 C744 1.377 . S
C745 C751 1.390 1_455 S
C746 H737 0.930 . S
C746 C744 1.384 . S
C746 C747 1.372 1_455 S
C747 C746 1.372 1_655 S
C747 C748 1.400 . S
C747 C752 1.490 . S
C748 H738 0.930 . S
C748 C747 1.400 . S
C748 C751 1.386 . S
H749 C765 0.930 . S
H750 C766 0.931 . S
C751 H739 0.929 . S
C751 C745 1.390 1_655 S
C751 C748 1.386 . S
C752 C747 1.490 . S
C752 C754 1.395 1_655 S
C752 C755 1.403 . S
H753 C759 0.930 . S
C754 H740 0.929 . S
C754 C752 1.395 1_455 S
C754 C757 1.404 1_455 S
C755 C752 1.403 . S
C755 C756 1.524 . S
C755 C759 1.400 . S
C756 H741 0.960 . S
C756 H742 0.960 . S
C756 H743 0.960 . S
C756 C755 1.524 . S
C757 C754 1.404 1_655 S
C757 C758 1.392 . S
C757 C761 1.495 1_655 S
C758 C757 1.392 . S
C758 C759 1.385 . S
C758 C760 1.478 . S
C759 H753 0.930 . S
C759 C755 1.400 . S
C759 C758 1.385 . S
C760 C758 1.478 . S
C760 C762 1.381 . S
C760 C766 1.383 . S
C761 C757 1.495 1_455 S
C761 H767 0.959 . S
C761 H768 0.961 1_455 S
C761 H769 0.960 . S
C762 C760 1.381 . S
C762 C763 1.394 . S
C762 H770 0.930 1_655 S
C763 C762 1.394 . S
C763 C764 1.383 . S
C763 H771 0.929 1_655 S
C764 C763 1.383 . S
C764 C765 1.377 . S
C765 H749 0.930 . S
C765 C764 1.377 . S
C765 C766 1.379 . S
C766 H750 0.931 . S
C766 C760 1.383 . S
C766 C765 1.379 . S
H767 C761 0.959 . S
H768 C761 0.961 1_655 S
H769 C761 0.960 . S
H770 C762 0.930 1_455 S
H771 C763 0.929 1_455 S
H772 C780 0.929 . S
H773 C782 0.930 . S
H774 C784 0.930 . S
H775 C787 0.929 . S
H776 C790 0.930 . S
H777 C792 0.960 . S
H778 C792 0.960 1_545 S
H779 C792 0.960 . S
C780 H772 0.929 . S
C780 C781 1.377 . S
C780 C782 1.384 . S
C781 C780 1.377 . S
C781 C787 1.390 1_545 S
C782 H773 0.930 . S
C782 C780 1.384 . S
C782 C783 1.372 1_545 S
C783 C782 1.372 1_565 S
C783 C784 1.400 . S
C783 C788 1.490 . S
C784 H774 0.930 . S
C784 C783 1.400 . S
C784 C787 1.386 . S
H785 C801 0.930 . S
H786 C802 0.931 . S
C787 H775 0.929 . S
C787 C781 1.390 1_565 S
C787 C784 1.386 . S
C788 C783 1.490 . S
C788 C790 1.395 . S
C788 C791 1.403 . S
H789 C795 0.930 . S
C790 H776 0.930 . S
C790 C788 1.395 . S
C790 C793 1.403 . S
C791 C788 1.403 . S
C791 C792 1.524 . S
C791 C795 1.400 . S
C792 H777 0.960 . S
C792 H778 0.960 1_565 S
C792 H779 0.960 . S
C792 C791 1.524 . S
C793 C790 1.403 . S
C793 C794 1.392 . S
C793 C797 1.495 . S
C794 C793 1.392 . S
C794 C795 1.385 . S
C794 C796 1.478 . S
C795 H789 0.930 . S
C795 C791 1.400 . S
C795 C794 1.385 . S
C796 C794 1.478 . S
C796 C798 1.381 . S
C796 C802 1.383 . S
C797 C793 1.495 . S
C797 H803 0.959 . S
C797 H804 0.961 . S
C797 H805 0.960 . S
C798 C796 1.381 . S
C798 C799 1.394 . S
C798 H806 0.930 1_565 S
C799 C798 1.394 . S
C799 C800 1.383 . S
C799 H807 0.926 . S
C800 C799 1.383 . S
C800 C801 1.377 . S
C801 H785 0.930 . S
C801 C800 1.377 . S
C801 C802 1.379 . S
C802 H786 0.931 . S
C802 C796 1.383 . S
C802 C801 1.379 . S
H803 C797 0.959 . S
H804 C797 0.961 . S
H805 C797 0.960 . S
H806 C798 0.930 1_545 S
H807 C799 0.926 . S
H808 C816 0.929 . S
H809 C818 0.930 . S
H810 C820 0.930 . S
H811 C823 0.929 . S
H812 C826 0.930 . S
H813 C828 0.960 . S
H814 C828 0.960 . S
H815 C828 0.960 . S
C816 H808 0.929 . S
C816 C817 1.377 . S
C816 C818 1.384 . S
C817 C816 1.377 . S
C817 C823 1.390 . S
C818 H809 0.930 . S
C818 C816 1.384 . S
C818 C819 1.372 . S
C819 C818 1.372 . S
C819 C820 1.400 . S
C819 C824 1.490 . S
C820 H810 0.930 . S
C820 C819 1.400 . S
C820 C823 1.386 . S
H821 C837 0.930 . S
H822 C838 0.931 . S
C823 H811 0.929 . S
C823 C817 1.390 . S
C823 C820 1.386 . S
C824 C819 1.490 . S
C824 C826 1.395 . S
C824 C827 1.403 . S
H825 C831 0.930 . S
C826 H812 0.930 . S
C826 C824 1.395 . S
C826 C829 1.403 . S
C827 C824 1.403 . S
C827 C828 1.524 . S
C827 C831 1.400 . S
C828 H813 0.960 . S
C828 H814 0.960 . S
C828 H815 0.960 . S
C828 C827 1.524 . S
C829 C826 1.403 . S
C829 C830 1.392 . S
C829 C833 1.495 . S
C830 C829 1.392 . S
C830 C831 1.385 . S
C830 C832 1.478 . S
C831 H825 0.930 . S
C831 C827 1.400 . S
C831 C830 1.385 . S
C832 C830 1.478 . S
C832 C834 1.381 . S
C832 C838 1.383 . S
C833 C829 1.495 . S
C833 H839 0.959 . S
C833 H840 0.961 . S
C833 H841 0.960 . S
C834 C832 1.381 . S
C834 C835 1.394 . S
C834 H842 0.930 . S
C835 C834 1.394 . S
C835 C836 1.383 . S
C835 H843 0.929 . S
C836 C835 1.383 . S
C836 C837 1.377 . S
C837 H821 0.930 . S
C837 C836 1.377 . S
C837 C838 1.379 . S
C838 H822 0.931 . S
C838 C832 1.383 . S
C838 C837 1.379 . S
H839 C833 0.959 . S
H840 C833 0.961 . S
H841 C833 0.960 . S
H842 C834 0.930 . S
H843 C835 0.929 . S
H844 C852 0.929 . S
H845 C854 0.930 . S
H846 C856 0.930 . S
H847 C859 0.929 . S
H848 C862 0.930 . S
H849 C864 0.960 . S
H850 C864 0.960 . S
H851 C864 0.960 . S
C852 H844 0.929 . S
C852 C853 1.377 . S
C852 C854 1.384 . S
C853 C852 1.377 . S
C853 C859 1.390 . S
C854 H845 0.930 . S
C854 C852 1.384 . S
C854 C855 1.372 . S
C855 C854 1.372 . S
C855 C856 1.400 . S
C855 C860 1.490 . S
C856 H846 0.930 . S
C856 C855 1.400 . S
C856 C859 1.386 . S
H857 C873 0.930 . S
H858 C874 0.931 . S
C859 H847 0.929 . S
C859 C853 1.390 . S
C859 C856 1.386 . S
C860 C855 1.490 . S
C860 C862 1.395 . S
C860 C863 1.403 . S
H861 C867 0.930 . S
C862 H848 0.930 . S
C862 C860 1.395 . S
C862 C865 1.403 . S
C863 C860 1.403 . S
C863 C864 1.524 . S
C863 C867 1.400 . S
C864 H849 0.960 . S
C864 H850 0.960 . S
C864 H851 0.960 . S
C864 C863 1.524 . S
C865 C862 1.403 . S
C865 C866 1.392 . S
C865 C869 1.495 . S
C866 C865 1.392 . S
C866 C867 1.385 . S
C866 C868 1.478 . S
C867 H861 0.930 . S
C867 C863 1.400 . S
C867 C866 1.385 . S
C868 C866 1.478 . S
C868 C870 1.381 . S
C868 C874 1.383 . S
C869 C865 1.495 . S
C869 H875 0.959 . S
C869 H876 0.961 . S
C869 H877 0.960 . S
C870 C868 1.381 . S
C870 C871 1.394 . S
C870 H878 0.930 . S
C871 C870 1.394 . S
C871 C872 1.383 . S
C871 H879 0.929 . S
C872 C871 1.383 . S
C872 C873 1.377 . S
C873 H857 0.930 . S
C873 C872 1.377 . S
C873 C874 1.379 . S
C874 H858 0.931 . S
C874 C868 1.383 . S
C874 C873 1.379 . S
H875 C869 0.959 . S
H876 C869 0.961 . S
H877 C869 0.960 . S
H878 C870 0.930 . S
H879 C871 0.929 . S
H880 C888 0.929 . S
H881 C890 0.930 . S
H882 C892 0.930 1_556 S
H883 C895 0.929 . S
H884 C898 0.930 . S
H885 C900 0.960 . S
H886 C900 0.960 . S
H887 C900 0.960 . S
C888 H880 0.929 . S
C888 C889 1.377 . S
C888 C890 1.384 1_655 S
C889 C888 1.377 . S
C889 C895 1.390 1_655 S
C890 H881 0.930 . S
C890 C888 1.384 1_455 S
C890 C891 1.372 . S
C891 C890 1.372 . S
C891 C892 1.400 . S
C891 C896 1.490 . S
C892 H882 0.930 1_554 S
C892 C891 1.400 . S
C892 C895 1.386 . S
H893 C909 0.930 . S
H894 C910 0.931 . S
C895 H883 0.929 . S
C895 C889 1.390 1_455 S
C895 C892 1.386 . S
C896 C891 1.490 . S
C896 C898 1.395 . S
C896 C899 1.403 1_454 S
H897 C903 0.930 1_655 S
C898 H884 0.930 . S
C898 C896 1.395 . S
C898 C901 1.403 . S
C899 C896 1.403 1_656 S
C899 C900 1.524 . S
C899 C903 1.400 1_655 S
C900 H885 0.960 . S
C900 H886 0.960 . S
C900 H887 0.960 . S
C900 C899 1.524 . S
C901 C898 1.403 . S
C901 C902 1.392 1_554 S
C901 C905 1.495 . S
C902 C901 1.392 1_556 S
C902 C903 1.385 . S
C902 C904 1.478 . S
C903 H897 0.930 1_455 S
C903 C899 1.400 1_455 S
C903 C902 1.385 . S
C904 C902 1.478 . S
C904 C906 1.381 . S
C904 C910 1.383 . S
C905 C901 1.495 . S
C905 H911 0.959 . S
C905 H912 0.961 1_554 S
C905 H913 0.960 . S
C906 C904 1.381 . S
C906 C907 1.394 . S
C906 H914 0.930 . S
C907 C906 1.394 . S
C907 C908 1.383 . S
C907 H915 0.929 . S
C908 C907 1.383 . S
C908 C909 1.377 . S
C909 H893 0.930 . S
C909 C908 1.377 . S
C909 C910 1.379 . S
C910 H894 0.931 . S
C910 C904 1.383 . S
C910 C909 1.379 . S
H911 C905 0.959 . S
H912 C905 0.961 1_556 S
H913 C905 0.960 . S
H914 C906 0.930 . S
H915 C907 0.929 . S
H916 C924 0.929 . S
H917 C926 0.930 . S
H918 C928 0.930 . S
H919 C931 0.929 . S
H920 C934 0.930 . S
H921 C936 0.960 . S
H922 C936 0.960 . S
H923 C936 0.960 . S
C924 H916 0.929 . S
C924 C925 1.326 1_545 S
C924 C926 1.384 . S
C925 C924 1.326 1_565 S
C925 C931 1.431 . S
C926 H917 0.930 . S
C926 C924 1.384 . S
C926 C927 1.372 . S
C927 C926 1.372 . S
C927 C928 1.400 1_545 S
C927 C932 1.490 . S
C928 H918 0.930 . S
C928 C927 1.400 1_565 S
C928 C931 1.386 . S
H929 C945 0.930 1_565 S
H930 C946 0.931 1_565 S
C931 H919 0.929 . S
C931 C925 1.431 . S
C931 C928 1.386 . S
C932 C927 1.490 . S
C932 C934 1.395 1_554 S
C932 C935 1.403 . S
H933 C939 0.930 . S
C934 H920 0.930 . S
C934 C932 1.395 1_556 S
C934 C937 1.403 . S
C935 C932 1.403 . S
C935 C936 1.524 . S
C935 C939 1.400 . S
C936 H921 0.960 . S
C936 H922 0.960 . S
C936 H923 0.960 . S
C936 C935 1.524 . S
C937 C934 1.403 . S
C937 C938 1.392 . S
C937 C941 1.495 . S
C938 C937 1.392 . S
C938 C939 1.385 1_556 S
C938 C940 1.478 . S
C939 H933 0.930 . S
C939 C935 1.400 . S
C939 C938 1.385 1_554 S
C940 C938 1.478 . S
C940 C942 1.381 . S
C940 C946 1.383 . S
C941 C937 1.495 . S
C941 H947 0.959 . S
C941 H948 0.961 . S
C941 H949 0.960 . S
C942 C940 1.381 . S
C942 C943 1.394 . S
C942 H950 0.930 . S
C943 C942 1.394 . S
C943 C944 1.383 . S
C943 H951 0.929 . S
C944 C943 1.383 . S
C944 C945 1.377 . S
C945 H929 0.930 1_545 S
C945 C944 1.377 . S
C945 C946 1.379 . S
C946 H930 0.931 1_545 S
C946 C940 1.383 . S
C946 C945 1.379 . S
H947 C941 0.959 . S
H948 C941 0.961 . S
H949 C941 0.960 . S
H950 C942 0.930 . S
H951 C943 0.929 . S
H952 C960 0.929 . S
H953 C962 0.930 1_556 S
H954 C964 0.930 . S
H955 C967 0.929 . S
H956 C970 0.930 . S
H957 C972 0.960 . S
H958 C972 0.960 . S
H959 C972 0.960 . S
C960 H952 0.929 . S
C960 C961 1.377 . S
C960 C962 1.384 . S
C961 C960 1.377 . S
C961 C967 1.390 . S
C962 H953 0.930 1_554 S
C962 C960 1.384 . S
C962 C963 1.372 . S
C963 C962 1.372 . S
C963 C964 1.400 . S
C963 C968 1.490 . S
C964 H954 0.930 . S
C964 C963 1.400 . S
C964 C967 1.386 . S
H965 C981 0.930 . S
H966 C982 0.931 . S
C967 H955 0.929 . S
C967 C961 1.390 . S
C967 C964 1.386 . S
C968 C963 1.490 . S
C968 C970 1.395 1_554 S
C968 C971 1.403 . S
H969 C975 0.930 . S
C970 H956 0.930 . S
C970 C968 1.395 1_556 S
C970 C973 1.403 . S
C971 C968 1.403 . S
C971 C972 1.524 . S
C971 C975 1.400 1_554 S
C972 H957 0.960 . S
C972 H958 0.960 . S
C972 H959 0.960 . S
C972 C971 1.524 . S
C973 C970 1.403 . S
C973 C974 1.392 . S
C973 C977 1.495 . S
C974 C973 1.392 . S
C974 C975 1.385 . S
C974 C976 1.478 . S
C975 H969 0.930 . S
C975 C971 1.400 1_556 S
C975 C974 1.385 . S
C976 C974 1.478 . S
C976 C978 1.381 . S
C976 C982 1.383 . S
C977 C973 1.495 . S
C977 H983 0.959 . S
C977 H984 0.961 . S
C977 H985 0.960 . S
C978 C976 1.381 . S
C978 C979 1.394 . S
C978 H986 0.930 . S
C979 C978 1.394 . S
C979 C980 1.383 . S
C979 H987 0.929 . S
C980 C979 1.383 . S
C980 C981 1.377 . S
C981 H965 0.930 . S
C981 C980 1.377 . S
C981 C982 1.379 . S
C982 H966 0.931 . S
C982 C976 1.383 . S
C982 C981 1.379 . S
H983 C977 0.959 . S
H984 C977 0.961 . S
H985 C977 0.960 . S
H986 C978 0.930 . S
H987 C979 0.929 . S
H988 C996 0.929 . S
H989 C998 0.930 . S
H990 C1000 0.930 . S
H991 C1003 0.929 . S
H992 C1006 0.930 . S
H993 C1008 0.960 . S
H994 C1008 0.960 . S
H995 C1008 0.960 . S
C996 H988 0.929 . S
C996 C997 1.377 . S
C996 C998 1.384 . S
C997 C996 1.377 . S
C997 C1003 1.390 . S
C998 H989 0.930 . S
C998 C996 1.384 . S
C998 C999 1.372 . S
C999 C998 1.372 . S
C999 C1000 1.400 . S
C999 C1004 1.490 . S
C1000 H990 0.930 . S
C1000 C999 1.400 . S
C1000 C1003 1.386 . S
H1001 C1017 0.930 . S
H1002 C1018 0.931 . S
C1003 H991 0.929 . S
C1003 C997 1.390 . S
C1003 C1000 1.386 . S
C1004 C999 1.490 . S
C1004 C1006 1.395 1_554 S
C1004 C1007 1.403 . S
H1005 C1011 0.930 . S
C1006 H992 0.930 . S
C1006 C1004 1.395 1_556 S
C1006 C1009 1.403 . S
C1007 C1004 1.403 . S
C1007 C1008 1.524 . S
C1007 C1011 1.400 . S
C1008 H993 0.960 . S
C1008 H994 0.960 . S
C1008 H995 0.960 . S
C1008 C1007 1.524 . S
C1009 C1006 1.403 . S
C1009 C1010 1.392 . S
C1009 C1013 1.495 . S
C1010 C1009 1.392 . S
C1010 C1011 1.385 1_556 S
C1010 C1012 1.478 . S
C1011 H1005 0.930 . S
C1011 C1007 1.400 . S
C1011 C1010 1.385 1_554 S
C1012 C1010 1.478 . S
C1012 C1014 1.381 . S
C1012 C1018 1.383 . S
C1013 C1009 1.495 . S
C1013 H1019 0.959 . S
C1013 H1020 0.961 . S
C1013 H1021 0.960 . S
C1014 C1012 1.381 . S
C1014 C1015 1.394 . S
C1014 H1022 0.930 . S
C1015 C1014 1.394 . S
C1015 C1016 1.383 . S
C1015 H1023 0.929 . S
C1016 C1015 1.383 . S
C1016 C1017 1.377 . S
C1017 H1001 0.930 . S
C1017 C1016 1.377 . S
C1017 C1018 1.379 . S
C1018 H1002 0.931 . S
C1018 C1012 1.383 . S
C1018 C1017 1.379 . S
H1019 C1013 0.959 . S
H1020 C1013 0.961 . S
H1021 C1013 0.960 . S
H1022 C1014 0.930 . S
H1023 C1015 0.929 . S
H1024 C1032 0.929 . S
H1025 C1034 0.930 . S
H1026 C1036 0.930 . S
H1027 C1039 0.929 . S
H1028 C1042 0.930 . S
H1029 C1044 0.960 . S
H1030 C1044 0.960 . S
H1031 C1044 0.960 . S
C1032 H1024 0.929 . S
C1032 C1033 1.377 . S
C1032 C1034 1.384 . S
C1033 C1032 1.377 . S
C1033 C1039 1.390 1_455 S
C1034 H1025 0.930 . S
C1034 C1032 1.384 . S
C1034 C1035 1.372 . S
C1035 C1034 1.372 . S
C1035 C1036 1.400 1_455 S
C1035 C1040 1.490 . S
C1036 H1026 0.930 . S
C1036 C1035 1.400 1_655 S
C1036 C1039 1.386 . S
H1037 C1053 0.930 . S
H1038 C1054 0.931 . S
C1039 H1027 0.929 . S
C1039 C1033 1.390 1_655 S
C1039 C1036 1.386 . S
C1040 C1035 1.490 . S
C1040 C1042 1.395 . S
C1040 C1043 1.403 1_455 S
H1041 C1047 0.930 . S
C1042 H1028 0.930 . S
C1042 C1040 1.395 . S
C1042 C1045 1.403 . S
C1043 C1040 1.403 1_655 S
C1043 C1044 1.524 . S
C1043 C1047 1.400 . S
C1044 H1029 0.960 . S
C1044 H1030 0.960 . S
C1044 H1031 0.960 . S
C1044 C1043 1.524 . S
C1045 C1042 1.403 . S
C1045 C1046 1.392 . S
C1045 C1049 1.495 . S
C1046 C1045 1.392 . S
C1046 C1047 1.385 1_455 S
C1046 C1048 1.478 . S
C1047 H1041 0.930 . S
C1047 C1043 1.400 . S
C1047 C1046 1.385 1_655 S
C1048 C1046 1.478 . S
C1048 C1050 1.381 . S
C1048 C1054 1.383 1_455 S
C1049 C1045 1.495 . S
C1049 H1055 0.959 . S
C1049 H1056 0.961 . S
C1049 H1057 0.960 . S
C1050 C1048 1.381 . S
C1050 C1051 1.394 . S
C1050 H1058 0.930 . S
C1051 C1050 1.394 . S
C1051 C1052 1.383 . S
C1051 H1059 0.929 . S
C1052 C1051 1.383 . S
C1052 C1053 1.377 1_455 S
C1053 H1037 0.930 . S
C1053 C1052 1.377 1_655 S
C1053 C1054 1.379 . S
C1054 H1038 0.931 . S
C1054 C1048 1.383 1_655 S
C1054 C1053 1.379 . S
H1055 C1049 0.959 . S
H1056 C1049 0.961 . S
H1057 C1049 0.960 . S
H1058 C1050 0.930 . S
H1059 C1051 0.929 . S
H1060 C1068 0.929 . S
H1061 C1070 0.930 . S
H1062 C1072 0.930 . S
H1063 C1075 0.929 . S
H1064 C1078 0.930 . S
H1065 C1080 0.960 . S
H1066 C1080 0.944 1_545 S
H1067 C1080 0.960 . S
C1068 H1060 0.929 . S
C1068 C1069 1.377 . S
C1068 C1070 1.384 . S
C1069 C1068 1.377 . S
C1069 C1075 1.390 1_545 S
C1070 H1061 0.930 . S
C1070 C1068 1.384 . S
C1070 C1071 1.372 . S
C1071 C1070 1.372 . S
C1071 C1072 1.400 1_545 S
C1071 C1076 1.490 . S
C1072 H1062 0.930 . S
C1072 C1071 1.400 1_565 S
C1072 C1075 1.386 . S
H1073 C1089 0.930 . S
H1074 C1090 0.931 . S
C1075 H1063 0.929 . S
C1075 C1069 1.390 1_565 S
C1075 C1072 1.386 . S
C1076 C1071 1.490 . S
C1076 C1078 1.395 . S
C1076 C1079 1.403 1_545 S
H1077 C1083 0.939 . S
C1078 H1064 0.930 . S
C1078 C1076 1.395 . S
C1078 C1081 1.403 . S
C1079 C1076 1.403 1_565 S
C1079 C1080 1.524 . S
C1079 C1083 1.402 . S
C1080 H1065 0.960 . S
C1080 H1066 0.944 1_565 S
C1080 H1067 0.960 . S
C1080 C1079 1.524 . S
C1081 C1078 1.403 . S
C1081 C1082 1.392 . S
C1081 C1085 1.495 . S
C1082 C1081 1.392 . S
C1082 C1083 1.376 1_545 S
C1082 C1084 1.478 . S
C1083 H1077 0.939 . S
C1083 C1079 1.402 . S
C1083 C1082 1.376 1_565 S
C1084 C1082 1.478 . S
C1084 C1086 1.381 . S
C1084 C1090 1.383 1_545 S
C1085 C1081 1.495 . S
C1085 H1091 0.959 . S
C1085 H1092 0.961 . S
C1085 H1093 0.960 . S
C1086 C1084 1.381 . S
C1086 C1087 1.394 . S
C1086 H1094 0.930 . S
C1087 C1086 1.394 . S
C1087 C1088 1.383 . S
C1087 H1095 0.929 . S
C1088 C1087 1.383 . S
C1088 C1089 1.377 1_545 S
C1089 H1073 0.930 . S
C1089 C1088 1.377 1_565 S
C1089 C1090 1.379 . S
C1090 H1074 0.931 . S
C1090 C1084 1.383 1_565 S
C1090 C1089 1.379 . S
H1091 C1085 0.959 . S
H1092 C1085 0.961 . S
H1093 C1085 0.960 . S
H1094 C1086 0.930 . S
H1095 C1087 0.929 . S
H1096 C1104 0.929 . S
H1097 C1106 0.930 . S
H1098 C1108 0.930 . S
H1099 C1111 0.929 . S
H1100 C1114 0.930 . S
H1101 C1116 0.960 . S
H1102 C1116 0.960 . S
H1103 C1116 0.960 . S
C1104 H1096 0.929 . S
C1104 C1105 1.377 . S
C1104 C1106 1.384 . S
C1105 C1104 1.377 . S
C1105 C1111 1.390 . S
C1106 H1097 0.930 . S
C1106 C1104 1.384 . S
C1106 C1107 1.372 . S
C1107 C1106 1.372 . S
C1107 C1108 1.400 . S
C1107 C1112 1.490 . S
C1108 H1098 0.930 . S
C1108 C1107 1.400 . S
C1108 C1111 1.386 . S
H1109 C1125 0.930 . S
H1110 C1126 0.931 . S
C1111 H1099 0.929 . S
C1111 C1105 1.390 . S
C1111 C1108 1.386 . S
C1112 C1107 1.490 . S
C1112 C1114 1.395 . S
C1112 C1115 1.403 . S
H1113 C1119 0.930 . S
C1114 H1100 0.930 . S
C1114 C1112 1.395 . S
C1114 C1117 1.403 . S
C1115 C1112 1.403 . S
C1115 C1116 1.524 . S
C1115 C1119 1.400 . S
C1116 H1101 0.960 . S
C1116 H1102 0.960 . S
C1116 H1103 0.960 . S
C1116 C1115 1.524 . S
C1117 C1114 1.403 . S
C1117 C1118 1.392 . S
C1117 C1121 1.495 . S
C1118 C1117 1.392 . S
C1118 C1119 1.385 . S
C1118 C1120 1.478 . S
C1119 H1113 0.930 . S
C1119 C1115 1.400 . S
C1119 C1118 1.385 . S
C1120 C1118 1.478 . S
C1120 C1122 1.381 . S
C1120 C1126 1.383 . S
C1121 C1117 1.495 . S
C1121 H1127 0.959 . S
C1121 H1128 0.961 . S
C1121 H1129 0.960 . S
C1122 C1120 1.381 . S
C1122 C1123 1.394 . S
C1122 H1130 0.930 . S
C1123 C1122 1.394 . S
C1123 C1124 1.383 . S
C1123 H1131 0.929 . S
C1124 C1123 1.383 . S
C1124 C1125 1.377 . S
C1125 H1109 0.930 . S
C1125 C1124 1.377 . S
C1125 C1126 1.379 . S
C1126 H1110 0.931 . S
C1126 C1120 1.383 . S
C1126 C1125 1.379 . S
H1127 C1121 0.959 . S
H1128 C1121 0.961 . S
H1129 C1121 0.960 . S
H1130 C1122 0.930 . S
H1131 C1123 0.929 . S
H1132 C1140 0.929 . S
H1133 C1142 0.930 . S
H1134 C1144 0.930 . S
H1135 C1147 0.929 . S
H1136 C1150 0.930 . S
H1137 C1152 0.960 . S
H1138 C1152 0.960 . S
H1139 C1152 0.960 . S
C1140 H1132 0.929 . S
C1140 C1141 1.377 . S
C1140 C1142 1.384 . S
C1141 C1140 1.377 . S
C1141 C1147 1.390 . S
C1142 H1133 0.930 . S
C1142 C1140 1.384 . S
C1142 C1143 1.372 . S
C1143 C1142 1.372 . S
C1143 C1144 1.400 . S
C1143 C1148 1.490 . S
C1144 H1134 0.930 . S
C1144 C1143 1.400 . S
C1144 C1147 1.386 . S
H1145 C1161 0.930 . S
H1146 C1162 0.931 . S
C1147 H1135 0.929 . S
C1147 C1141 1.390 . S
C1147 C1144 1.386 . S
C1148 C1143 1.490 . S
C1148 C1150 1.395 . S
C1148 C1151 1.403 . S
H1149 C1155 0.930 . S
C1150 H1136 0.930 . S
C1150 C1148 1.395 . S
C1150 C1153 1.403 . S
C1151 C1148 1.403 . S
C1151 C1152 1.524 . S
C1151 C1155 1.400 . S
C1152 H1137 0.960 . S
C1152 H1138 0.960 . S
C1152 H1139 0.960 . S
C1152 C1151 1.524 . S
C1153 C1150 1.403 . S
C1153 C1154 1.392 . S
C1153 C1157 1.495 . S
C1154 C1153 1.392 . S
C1154 C1155 1.385 . S
C1154 C1156 1.478 . S
C1155 H1149 0.930 . S
C1155 C1151 1.400 . S
C1155 C1154 1.385 . S
C1156 C1154 1.478 . S
C1156 C1158 1.381 . S
C1156 C1162 1.383 . S
C1157 C1153 1.495 . S
C1157 H1163 0.959 . S
C1157 H1164 0.961 . S
C1157 H1165 0.960 . S
C1158 C1156 1.381 . S
C1158 C1159 1.394 . S
C1158 H1166 0.930 . S
C1159 C1158 1.394 . S
C1159 C1160 1.383 . S
C1159 H1167 0.929 . S
C1160 C1159 1.383 . S
C1160 C1161 1.377 . S
C1161 H1145 0.930 . S
C1161 C1160 1.377 . S
C1161 C1162 1.379 . S
C1162 H1146 0.931 . S
C1162 C1156 1.383 . S
C1162 C1161 1.379 . S
H1163 C1157 0.959 . S
H1164 C1157 0.961 . S
H1165 C1157 0.960 . S
H1166 C1158 0.930 . S
H1167 C1159 0.929 . S
H1168 C1176 0.929 . S
H1169 C1178 0.930 . S
H1170 C1180 0.930 . S
H1171 C1183 0.929 . S
H1172 C1186 0.930 . S
H1173 C1188 0.960 . S
H1174 C1188 0.960 . S
H1175 C1188 0.960 . S
C1176 H1168 0.929 . S
C1176 C1177 1.377 . S
C1176 C1178 1.384 . S
C1177 C1176 1.377 . S
C1177 C1183 1.390 1_655 S
C1178 H1169 0.930 . S
C1178 C1176 1.384 . S
C1178 C1179 1.372 . S
C1179 C1178 1.372 . S
C1179 C1180 1.400 1_655 S
C1179 C1184 1.490 . S
C1180 H1170 0.930 . S
C1180 C1179 1.400 1_455 S
C1180 C1183 1.386 . S
H1181 C1197 0.930 . S
H1182 C1198 0.931 . S
C1183 H1171 0.929 . S
C1183 C1177 1.390 1_455 S
C1183 C1180 1.386 . S
C1184 C1179 1.490 . S
C1184 C1186 1.395 . S
C1184 C1187 1.403 1_655 S
H1185 C1191 0.930 . S
C1186 H1172 0.930 . S
C1186 C1184 1.395 . S
C1186 C1189 1.403 . S
C1187 C1184 1.403 1_455 S
C1187 C1188 1.524 . S
C1187 C1191 1.400 . S
C1188 H1173 0.960 . S
C1188 H1174 0.960 . S
C1188 H1175 0.960 . S
C1188 C1187 1.524 . S
C1189 C1186 1.403 . S
C1189 C1190 1.392 . S
C1189 C1193 1.495 . S
C1190 C1189 1.392 . S
C1190 C1191 1.385 1_655 S
C1190 C1192 1.478 . S
C1191 H1185 0.930 . S
C1191 C1187 1.400 . S
C1191 C1190 1.385 1_455 S
C1192 C1190 1.478 . S
C1192 C1194 1.381 . S
C1192 C1198 1.383 1_655 S
C1193 C1189 1.495 . S
C1193 H1199 0.959 . S
C1193 H1200 0.961 . S
C1193 H1201 0.960 . S
C1194 C1192 1.381 . S
C1194 C1195 1.394 . S
C1194 H1202 0.930 . S
C1195 C1194 1.394 . S
C1195 C1196 1.383 . S
C1195 H1203 0.929 . S
C1196 C1195 1.383 . S
C1196 C1197 1.377 1_655 S
C1197 H1181 0.930 . S
C1197 C1196 1.377 1_455 S
C1197 C1198 1.379 . S
C1198 H1182 0.931 . S
C1198 C1192 1.383 1_455 S
C1198 C1197 1.379 . S
H1199 C1193 0.959 . S
H1200 C1193 0.961 . S
H1201 C1193 0.960 . S
H1202 C1194 0.930 . S
H1203 C1195 0.929 . S
H1204 C1212 0.929 . S
H1205 C1214 0.930 . S
H1206 C1216 0.930 . S
H1207 C1219 0.929 . S
H1208 C1222 0.930 . S
H1209 C1224 0.960 . S
H1210 C1224 0.960 . S
H1211 C1224 0.960 . S
C1212 H1204 0.929 . S
C1212 C1213 1.419 . S
C1212 C1214 1.384 . S
C1213 C1212 1.419 . S
C1213 C1219 1.352 1_565 S
C1214 H1205 0.930 . S
C1214 C1212 1.384 . S
C1214 C1215 1.372 . S
C1215 C1214 1.372 . S
C1215 C1216 1.400 1_565 S
C1215 C1220 1.490 . S
C1216 H1206 0.930 . S
C1216 C1215 1.400 1_545 S
C1216 C1219 1.386 . S
H1217 C1233 0.930 . S
H1218 C1234 0.931 . S
C1219 H1207 0.929 . S
C1219 C1213 1.352 1_545 S
C1219 C1216 1.386 . S
C1220 C1215 1.490 . S
C1220 C1222 1.395 . S
C1220 C1223 1.403 1_565 S
H1221 C1227 0.930 . S
C1222 H1208 0.930 . S
C1222 C1220 1.395 . S
C1222 C1225 1.403 . S
C1223 C1220 1.403 1_545 S
C1223 C1224 1.524 . S
C1223 C1227 1.400 . S
C1224 H1209 0.960 . S
C1224 H1210 0.960 . S
C1224 H1211 0.960 . S
C1224 C1223 1.524 . S
C1225 C1222 1.403 . S
C1225 C1226 1.392 . S
C1225 C1229 1.495 . S
C1226 C1225 1.392 . S
C1226 C1227 1.385 1_565 S
C1226 C1228 1.478 . S
C1227 H1221 0.930 . S
C1227 C1223 1.400 . S
C1227 C1226 1.385 1_545 S
C1228 C1226 1.478 . S
C1228 C1230 1.381 . S
C1228 C1234 1.383 1_565 S
C1229 C1225 1.495 . S
C1229 H1235 0.959 . S
C1229 H1236 0.961 . S
C1229 H1237 0.960 . S
C1230 C1228 1.381 . S
C1230 C1231 1.394 . S
C1230 H1238 0.930 . S
C1231 C1230 1.394 . S
C1231 C1232 1.383 . S
C1231 H1239 0.929 . S
C1232 C1231 1.383 . S
C1232 C1233 1.377 1_565 S
C1233 H1217 0.930 . S
C1233 C1232 1.377 1_545 S
C1233 C1234 1.379 . S
C1234 H1218 0.931 . S
C1234 C1228 1.383 1_545 S
C1234 C1233 1.379 . S
H1235 C1229 0.959 . S
H1236 C1229 0.961 . S
H1237 C1229 0.960 . S
H1238 C1230 0.930 . S
H1239 C1231 0.929 . S
H1240 C1248 0.929 . S
H1241 C1250 0.930 . S
H1242 C1252 0.930 . S
H1243 C1255 0.929 . S
H1244 C1258 0.930 . S
H1245 C1260 0.960 . S
H1246 C1260 0.960 . S
H1247 C1260 0.960 . S
C1248 H1240 0.929 . S
C1248 C1249 1.377 . S
C1248 C1250 1.384 . S
C1249 C1248 1.377 . S
C1249 C1255 1.390 . S
C1250 H1241 0.930 . S
C1250 C1248 1.384 . S
C1250 C1251 1.372 . S
C1251 C1250 1.372 . S
C1251 C1252 1.400 . S
C1251 C1256 1.490 . S
C1252 H1242 0.930 . S
C1252 C1251 1.400 . S
C1252 C1255 1.386 . S
H1253 C1269 0.930 . S
H1254 C1270 0.931 . S
C1255 H1243 0.929 . S
C1255 C1249 1.390 . S
C1255 C1252 1.386 . S
C1256 C1251 1.490 . S
C1256 C1258 1.395 . S
C1256 C1259 1.403 . S
H1257 C1263 0.930 . S
C1258 H1244 0.930 . S
C1258 C1256 1.395 . S
C1258 C1261 1.403 . S
C1259 C1256 1.403 . S
C1259 C1260 1.524 . S
C1259 C1263 1.400 . S
C1260 H1245 0.960 . S
C1260 H1246 0.960 . S
C1260 H1247 0.960 . S
C1260 C1259 1.524 . S
C1261 C1258 1.403 . S
C1261 C1262 1.392 . S
C1261 C1265 1.495 . S
C1262 C1261 1.392 . S
C1262 C1263 1.385 . S
C1262 C1264 1.478 . S
C1263 H1257 0.930 . S
C1263 C1259 1.400 . S
C1263 C1262 1.385 . S
C1264 C1262 1.478 . S
C1264 C1266 1.381 . S
C1264 C1270 1.383 . S
C1265 C1261 1.495 . S
C1265 H1271 0.959 . S
C1265 H1272 0.961 . S
C1265 H1273 0.960 . S
C1266 C1264 1.381 . S
C1266 C1267 1.394 . S
C1266 H1274 0.930 . S
C1267 C1266 1.394 . S
C1267 C1268 1.383 . S
C1267 H1275 0.929 . S
C1268 C1267 1.383 . S
C1268 C1269 1.377 . S
C1269 H1253 0.930 . S
C1269 C1268 1.377 . S
C1269 C1270 1.379 . S
C1270 H1254 0.931 . S
C1270 C1264 1.383 . S
C1270 C1269 1.379 . S
H1271 C1265 0.959 . S
H1272 C1265 0.961 . S
H1273 C1265 0.960 . S
H1274 C1266 0.930 . S
H1275 C1267 0.929 . S
H1276 C1284 0.929 . S
H1277 C1286 0.930 . S
H1278 C1288 0.930 . S
H1279 C1291 0.929 . S
H1280 C1294 0.930 . S
H1281 C1296 0.960 . S
H1282 C1296 0.960 . S
H1283 C1296 0.960 . S
C1284 H1276 0.929 . S
C1284 C1285 1.377 . S
C1284 C1286 1.384 . S
C1285 C1284 1.377 . S
C1285 C1291 1.390 . S
C1286 H1277 0.930 . S
C1286 C1284 1.384 . S
C1286 C1287 1.372 . S
C1287 C1286 1.372 . S
C1287 C1288 1.400 . S
C1287 C1292 1.490 . S
C1288 H1278 0.930 . S
C1288 C1287 1.400 . S
C1288 C1291 1.386 . S
H1289 C1305 0.930 . S
H1290 C1306 0.931 . S
C1291 H1279 0.929 . S
C1291 C1285 1.390 . S
C1291 C1288 1.386 . S
C1292 C1287 1.490 . S
C1292 C1294 1.395 . S
C1292 C1295 1.403 . S
H1293 C1299 0.930 . S
C1294 H1280 0.930 . S
C1294 C1292 1.395 . S
C1294 C1297 1.403 . S
C1295 C1292 1.403 . S
C1295 C1296 1.524 . S
C1295 C1299 1.400 . S
C1296 H1281 0.960 . S
C1296 H1282 0.960 . S
C1296 H1283 0.960 . S
C1296 C1295 1.524 . S
C1297 C1294 1.403 . S
C1297 C1298 1.392 . S
C1297 C1301 1.495 . S
C1298 C1297 1.392 . S
C1298 C1299 1.385 . S
C1298 C1300 1.478 . S
C1299 H1293 0.930 . S
C1299 C1295 1.400 . S
C1299 C1298 1.385 . S
C1300 C1298 1.478 . S
C1300 C1302 1.381 . S
C1300 C1306 1.383 . S
C1301 C1297 1.495 . S
C1301 H1307 0.959 . S
C1301 H1308 0.961 . S
C1301 H1309 0.960 . S
C1302 C1300 1.381 . S
C1302 C1303 1.394 . S
C1302 H1310 0.930 . S
C1303 C1302 1.394 . S
C1303 C1304 1.383 . S
C1303 H1311 0.929 . S
C1304 C1303 1.383 . S
C1304 C1305 1.377 . S
C1305 H1289 0.930 . S
C1305 C1304 1.377 . S
C1305 C1306 1.379 . S
C1306 H1290 0.931 . S
C1306 C1300 1.383 . S
C1306 C1305 1.379 . S
H1307 C1301 0.959 . S
H1308 C1301 0.961 . S
H1309 C1301 0.960 . S
H1310 C1302 0.930 . S
H1311 C1303 0.929 . S
C457 C241 1.897 1_565 S
C476 C290 2.052 1_545 S
C512 C330 2.068 . S
C493 C277 1.953 . S
C548 C370 2.053 . S
C529 C169 1.894 . S
C584 C410 2.063 1_455 S
C565 C205 1.905 . S
C620 C303 2.053 1_565 S
C601 C97 1.905 . S
C637 C133 1.962 . S
C656 C343 2.073 . S
C673 C25 1.907 . S
C692 C383 2.057 . S
C709 C61 1.903 1_655 S
C728 C423 2.055 . S
C764 C314 0.230 . S
C745 C211 0.235 . S
C800 C354 0.272 . S
C781 C247 0.246 . S
C836 C394 0.286 . S
C817 C253 0.271 . S
C853 C175 0.244 . S
C872 C434 0.262 . S
C889 C67 0.326 1_655 S
C908 C297 0.246 . S
C944 C337 0.248 . S
C925 C103 0.263 1_565 S
C980 C377 0.140 . S
C961 C109 0.189 . S
C997 C31 0.301 . S
C1016 C417 0.262 . S
C1033 C181 2.538 . S
C1052 C291 2.816 . S
C1069 C217 2.522 . S
C1088 C331 2.807 . S
C1124 C371 2.815 . S
C1105 C283 2.469 . S
C1160 C411 2.798 . S
C1141 C145 2.511 . S
C1177 C37 2.531 1_655 S
C1196 C310 2.822 . S
C1232 C350 2.804 . S
C1213 C73 2.514 1_565 S
C1268 C390 2.802 . S
C1249 C139 2.460 . S
C1285 C1 2.527 . S
C1304 C430 2.803 . S
