# Generated by pormake.
# Topology ftw, (4,12)-cn, num edge types: 1
# Building blocks:
#     Node 0, Type 0, BuildingBlock: KUFVIS_clean_linker_0, # of connection points: 4
#     Node 1, Type 0, BuildingBlock: KUFVIS_clean_linker_0, # of connection points: 4
#     Node 2, Type 0, BuildingBlock: KUFVIS_clean_linker_0, # of connection points: 4
#     Node 3, Type 1, BuildingBlock: EZIPEK_clean_sbu_0, # of connection points: 12
#     Edge 4, Type (0, 1), BuildingBlock: ZUJKAS_clean_linker_0, # of connection points: 2
#     Edge 5, Type (0, 1), BuildingBlock: ZUJKAS_clean_linker_0, # of connection points: 2
#     Edge 6, Type (0, 1), BuildingBlock: ZUJKAS_clean_linker_0, # of connection points: 2
#     Edge 7, Type (0, 1), BuildingBlock: ZUJKAS_clean_linker_0, # of connection points: 2
#     Edge 8, Type (0, 1), BuildingBlock: ZUJKAS_clean_linker_0, # of connection points: 2
#     Edge 9, Type (0, 1), BuildingBlock: ZUJKAS_clean_linker_0, # of connection points: 2
#     Edge 10, Type (0, 1), BuildingBlock: ZUJKAS_clean_linker_0, # of connection points: 2
#     Edge 11, Type (0, 1), BuildingBlock: ZUJKAS_clean_linker_0, # of connection points: 2
#     Edge 12, Type (0, 1), BuildingBlock: ZUJKAS_clean_linker_0, # of connection points: 2
#     Edge 13, Type (0, 1), BuildingBlock: ZUJKAS_clean_linker_0, # of connection points: 2
#     Edge 14, Type (0, 1), BuildingBlock: ZUJKAS_clean_linker_0, # of connection points: 2
#     Edge 15, Type (0, 1), BuildingBlock: ZUJKAS_clean_linker_0, # of connection points: 2
# Relax obj value: 0.081
# Max RMSD: 0.235
# Mean RMSD: 0.179
data_MOF--net-ftw--node1-EZIPEK_clean_sbu_0--node2-KUFVIS_clean_linker_0--edge1-ZUJKAS_clean_linker_0
_symmetry_space_group_name_H-M    P1
_symmetry_Int_Tables_number       1
_symmetry_cell_setting            triclinic
loop_
_symmetry_equiv_pos_as_xyz
'x, y, z'
_cell_length_a     29.849088
_cell_length_b     31.441574
_cell_length_c     30.262188
_cell_angle_alpha  90.080858
_cell_angle_beta   89.804928
_cell_angle_gamma 90.004164
loop_
_atom_site_label
_atom_site_type_symbol
_atom_site_fract_x
_atom_site_fract_y
_atom_site_fract_z
_atom_type_partial_charge
H0 H -0.01594 0.39392 0.51913 0.0
H1 H -0.00831 0.51123 0.58998 0.0
H2 H 0.95911 0.51041 0.45049 0.0
H3 H -0.01441 0.5747 0.45028 0.0
H4 H 0.96361 0.69011 0.52165 0.0
H5 H 0.95714 0.57169 0.59087 0.0
C6 C -0.01844 0.42831 0.5193 0.0
C7 C 0.97225 0.44988 0.4799 0.0
C8 C -0.0128 0.45029 0.55913 0.0
C9 C -0.01496 0.49496 0.55922 0.0
C10 C 0.97546 0.51801 0.52013 0.0
C11 C 0.96854 0.49452 0.4807 0.0
C12 C 0.97221 0.56605 0.52059 0.0
C13 C 0.97773 0.59008 0.4813 0.0
C14 C 0.9726 0.63454 0.48138 0.0
C15 C 0.96503 0.65565 0.52143 0.0
C16 C 0.96069 0.63321 0.56115 0.0
C17 C 0.96319 0.58851 0.56032 0.0
H18 H 0.48887 0.94651 0.6655 0.0
H19 H 0.56217 0.95561 0.54344 0.0
H20 H 0.42337 0.99267 0.54953 0.0
H21 H 0.42825 0.97344 0.47725 0.0
H22 H 0.4985 0.04582 0.37879 0.0
H23 H 0.56392 1.01523 0.50039 0.0
C24 C 0.48963 0.95258 0.63026 0.0
C25 C 0.4509 0.96775 0.60952 0.0
C26 C 0.53015 0.94891 0.60685 0.0
C27 C 0.53114 0.95922 0.56172 0.0
C28 C 0.49296 0.97562 0.54066 0.0
C29 C 0.4529 0.97934 0.56489 0.0
C30 C 0.49552 0.99247 0.49482 0.0
C31 C 0.458 0.9905 0.46688 0.0
C32 C 0.45856 1.01014 0.42532 0.0
C33 C 0.49756 1.0308 0.41101 0.0
C34 C 0.53576 1.03162 0.43765 0.0
C35 C 0.53458 1.01287 0.47956 0.0
H36 H 0.48037 0.68896 0.99271 0.0
H37 H 0.55099 0.57398 0.02181 0.0
H38 H 0.40997 0.5704 0.98928 0.0
H39 H 0.41093 0.51345 0.03178 0.0
H40 H 0.47995 0.39453 0.02085 0.0
H41 H 0.55017 0.50981 0.99161 0.0
C42 C 0.48053 0.65457 0.99544 0.0
C43 C 0.44046 0.63194 0.99082 0.0
C44 C 0.5205 0.63363 1.00569 0.0
C45 C 0.52014 0.58946 1.01224 0.0
C46 C 0.48052 0.56563 1.00622 0.0
C47 C 0.44082 0.58753 0.99513 0.0
C48 C 0.48059 0.51822 1.01119 0.0
C49 C 0.44129 0.49627 0.02373 0.0
C50 C 0.44071 0.45174 0.02653 0.0
C51 C 0.48016 0.42894 0.01847 0.0
C52 C 0.51979 0.44994 1.00684 0.0
C53 C 0.51975 0.49435 1.00265 0.0
C54 C -0.01907 0.14352 0.91047 0.0
C55 C -0.0179 0.14716 0.1245 0.0
C56 C 0.97719 0.9366 0.91465 0.0
C57 C -0.01555 0.94024 0.12873 0.0
C58 C 0.08977 0.93881 1.0148 0.0
C59 C 0.08936 0.14525 0.01928 0.0
C60 C 0.87369 0.93848 0.02856 0.0
C61 C 0.87293 0.1443 1.01493 0.0
C62 C 0.87647 0.05268 0.1291 0.0
C63 C 0.09247 0.04119 0.12381 0.0
C64 C 0.87139 1.02923 0.91605 0.0
C65 C 0.08777 0.03811 0.91022 0.0
Eu66 Eu -0.0187 0.1218 0.01784 0.0
O67 O 0.02212 0.08028 0.05725 0.0
O68 O 0.94014 0.07884 0.98008 0.0
Eu69 Eu 0.0662 0.04199 0.01753 0.0
Eu70 Eu 0.89674 0.04147 0.02196 0.0
O71 O 0.02074 0.07905 0.97814 0.0
O72 O 0.94305 0.0796 0.05882 0.0
Eu73 Eu 0.97968 0.04049 0.93566 0.0
Eu74 Eu -0.01635 0.04329 0.10343 0.0
O75 O 0.02016 1.00375 0.98019 0.0
O76 O 0.02254 1.00473 0.05882 0.0
O77 O 0.94238 1.00441 0.06133 0.0
O78 O 0.94162 1.00384 0.98253 0.0
Eu79 Eu -0.01828 0.96164 0.02134 0.0
O80 O -0.01717 0.15664 0.9524 0.0
O81 O 0.98001 0.15898 0.08217 0.0
O82 O 0.97831 0.92466 0.95699 0.0
O83 O -0.01479 0.92704 0.08678 0.0
O84 O 0.10371 0.9792 1.01508 0.0
O85 O 0.1035 0.10494 0.01804 0.0
O86 O 0.85962 0.97881 0.02873 0.0
O87 O 0.85907 0.10391 0.01634 0.0
O88 O 0.91917 0.05041 0.14159 0.0
O89 O 0.05032 0.04281 0.13851 0.0
O90 O 0.91306 0.03453 0.90094 0.0
O91 O 0.04501 0.03783 0.89741 0.0
O92 O 0.91626 0.92593 0.02544 0.0
O93 O 0.04722 0.92612 0.01714 0.0
O94 O 0.91551 0.15713 0.01583 0.0
O95 O 0.04667 0.15771 0.01922 0.0
O96 O -0.01525 0.10705 0.13887 0.0
O97 O -0.01726 0.98091 0.14174 0.0
O98 O 0.97855 0.10289 0.89746 0.0
O99 O 0.97794 0.97675 0.90018 0.0
O100 O 0.10205 0.04045 0.95186 0.0
O101 O 0.10506 0.04054 0.08146 0.0
O102 O 0.85867 1.03098 0.95835 0.0
O103 O 0.86119 0.04904 0.08785 0.0
H104 H 0.92774 0.37458 0.46785 0.0
H105 H 0.92852 0.3289 0.40268 0.0
H106 H 0.00354 0.42385 0.33112 0.0
H107 H 0.00496 0.46897 0.39722 0.0
H108 H 0.89829 0.33626 0.3199 0.0
H109 H 0.08378 0.32168 0.3168 0.0
H110 H 0.05406 0.34573 0.36238 0.0
H111 H 0.06372 0.3753 0.3124 0.0
C112 C 0.94466 0.38574 0.43835 0.0
C113 C 0.96712 0.42512 0.43812 0.0
C114 C 0.94477 0.35967 0.40094 0.0
C115 C 0.96706 0.37238 0.36227 0.0
C116 C -0.01281 0.4128 0.36096 0.0
H117 H -0.00597 0.23294 0.11241 0.0
H118 H -0.01019 0.28931 0.16823 0.0
C119 C -0.01258 0.43885 0.3986 0.0
C120 C 0.97003 0.34254 0.32413 0.0
H121 H 0.04417 0.28693 0.25975 0.0
C122 C 0.93021 0.32566 0.30668 0.0
C123 C 0.01173 0.32837 0.307 0.0
C124 C 0.05578 0.34334 0.32581 0.0
C125 C 0.93099 0.29493 0.27292 0.0
C126 C 0.97257 0.28079 0.25611 0.0
C127 C 0.01236 0.29811 0.27274 0.0
C128 C 0.97535 0.2467 0.22241 0.0
C129 C 0.88745 0.27735 0.25555 0.0
C130 C 0.96909 0.20411 0.23463 0.0
C131 C 0.97183 0.17174 0.20298 0.0
C132 C -0.01944 0.18142 0.15836 0.0
C133 C -0.01299 0.22427 0.14636 0.0
C134 C -0.01532 0.25657 0.17818 0.0
H135 H 0.85797 0.29529 0.26811 0.0
H136 H 0.88735 0.27817 0.21886 0.0
H137 H 0.88405 0.24361 0.26579 0.0
H138 H 0.96208 0.19594 0.26873 0.0
H139 H 0.9666 0.13921 0.21349 0.0
H140 H 0.61493 0.99101 0.42891 0.0
H141 H 0.67933 1.01409 0.38555 0.0
H142 H 0.61567 0.1355 0.36306 0.0
H143 H 0.54985 0.1112 0.40467 0.0
H144 H 0.6392 0.10529 0.28948 0.0
H145 H 0.78566 0.08682 0.39663 0.0
H146 H 0.75511 0.03791 0.39825 0.0
H147 H 0.72941 0.08615 0.41868 0.0
C148 C 0.61538 1.02307 0.41581 0.0
C149 C 0.57773 0.04939 0.41988 0.0
C150 C 0.65236 0.03646 0.39133 0.0
C151 C 0.65281 0.07688 0.37155 0.0
C152 C 0.61618 0.10426 0.37812 0.0
H153 H 0.88882 0.10284 0.20094 0.0
H154 H 0.83467 0.11944 0.25918 0.0
C155 C 0.57872 0.09047 0.40184 0.0
C156 C 0.68795 0.08726 0.3386 0.0
H157 H 0.79894 0.07213 0.31742 0.0
C158 C 0.67432 0.09916 0.29597 0.0
C159 C 0.73399 0.08052 0.34696 0.0
C160 C 0.75177 0.07267 0.39284 0.0
C161 C 0.70488 0.1009 0.26082 0.0
C162 C 0.74979 0.08856 0.26813 0.0
C163 C 0.7642 0.08034 0.31143 0.0
C164 C 0.78153 0.0811 0.23122 0.0
C165 C 0.68835 0.11528 0.21619 0.0
C166 C 0.76976 0.0539 0.19618 0.0
C167 C 0.80036 0.04507 0.16244 0.0
C168 C 0.8437 0.06212 0.16405 0.0
C169 C 0.85568 0.08891 0.19928 0.0
C170 C 0.82476 0.09855 0.23244 0.0
H171 H 0.66081 0.13881 0.2198 0.0
H172 H 0.71559 0.12982 0.19621 0.0
H173 H 0.67469 0.08753 0.19797 0.0
H174 H 0.73718 0.03879 0.19532 0.0
H175 H 0.79055 1.02406 0.13576 0.0
H176 H 0.91282 0.69402 0.45422 0.0
H177 H 0.91787 0.74077 0.38999 0.0
H178 H 0.04113 0.67982 0.35062 0.0
H179 H 0.03636 0.6328 0.41549 0.0
H180 H 0.044 0.77161 0.35345 0.0
H181 H 0.89858 0.71226 0.25795 0.0
H182 H 0.88611 0.7235 0.3149 0.0
H183 H 0.92475 0.68161 0.30121 0.0
C184 C 0.94085 0.69033 0.43169 0.0
C185 C 0.97426 0.65982 0.43989 0.0
C186 C 0.94353 0.71689 0.39486 0.0
C187 C 0.97964 0.71355 0.36532 0.0
C188 C 0.01284 0.68273 0.37294 0.0
H189 H -0.0109 0.85381 0.11706 0.0
H190 H -0.00903 0.79864 0.17348 0.0
C191 C 0.00998 0.65578 0.40977 0.0
C192 C -0.01657 0.74388 0.32791 0.0
H193 H 0.9279 0.77989 0.23684 0.0
C194 C 0.01891 0.77319 0.32765 0.0
C195 C 0.95084 0.74569 0.29415 0.0
C196 C 0.91311 0.71386 0.29166 0.0
C197 C 0.02187 0.80514 0.29529 0.0
C198 C -0.01189 0.80816 0.26269 0.0
C199 C 0.95348 0.77792 0.26214 0.0
C200 C -0.0119 0.84228 0.2287 0.0
C201 C 0.0612 0.83526 0.29621 0.0
C202 C -0.01456 0.88534 0.2409 0.0
C203 C -0.0156 0.91723 0.20861 0.0
C204 C -0.01431 0.90668 0.16339 0.0
C205 C -0.01191 0.86339 0.15143 0.0
C206 C -0.01084 0.83164 0.1837 0.0
H207 H 0.0897 0.8219 0.31519 0.0
H208 H 0.07288 0.84279 0.26223 0.0
H209 H 0.05085 0.86541 0.3124 0.0
H210 H -0.0164 0.8943 0.27542 0.0
H211 H -0.01768 0.9501 0.21918 0.0
H212 H 0.37175 1.02404 0.45012 0.0
H213 H 0.30557 1.02571 0.40255 0.0
H214 H 0.3887 0.99868 0.28905 0.0
H215 H 0.45466 0.99548 0.33647 0.0
H216 H 0.29156 0.0805 0.33197 0.0
H217 H 0.28746 0.91228 0.27692 0.0
H218 H 0.31988 0.92981 0.32381 0.0
H219 H 0.34092 0.9372 0.26857 0.0
C220 C 0.37574 1.01765 0.41515 0.0
C221 C 0.4183 1.00953 0.39697 0.0
C222 C 0.33803 1.01887 0.38806 0.0
C223 C 0.3423 1.01174 0.3425 0.0
C224 C 0.38467 1.00345 0.3243 0.0
H225 H 0.1824 1.03047 0.10978 0.0
H226 H 0.24105 1.02421 0.16528 0.0
C227 C 0.42234 1.00214 0.35132 0.0
C228 C 0.30291 1.01519 0.31347 0.0
H229 H 0.24291 0.96134 0.23575 0.0
C230 C 0.28049 0.05435 0.31129 0.0
C231 C 0.28873 0.98092 0.28669 0.0
C232 C 0.31021 0.93755 0.28935 0.0
C233 C 0.24514 0.06064 0.28166 0.0
C234 C 0.23184 1.0267 0.25406 0.0
C235 C 0.25356 0.98729 0.25692 0.0
C236 C 0.19619 1.03175 0.22099 0.0
C237 C 0.22325 0.10382 0.279 0.0
C238 C 0.15167 0.03799 0.23423 0.0
C239 C 0.11794 0.04161 0.20265 0.0
C240 C 0.12829 0.03892 0.15731 0.0
C241 C 0.17315 1.03286 0.14433 0.0
C242 C 0.20675 1.02916 0.17595 0.0
H243 H 0.24287 0.1286 0.2966 0.0
H244 H 0.2191 0.11363 0.24401 0.0
H245 H 0.18945 0.10222 0.29429 0.0
H246 H 0.14296 0.03952 0.26898 0.0
H247 H 0.08379 0.04616 0.21389 0.0
H248 H 0.00132 0.61835 0.64089 0.0
H249 H -0.00055 0.66349 0.70694 0.0
H250 H 0.90829 0.74909 0.64165 0.0
H251 H 0.90824 0.70324 0.57668 0.0
H252 H 0.02831 0.74361 0.71227 0.0
H253 H 0.84947 0.74119 0.7601 0.0
H254 H 0.87282 0.70378 0.72104 0.0
H255 H 0.85647 0.75624 0.70341 0.0
C256 C 0.97982 0.6461 0.64112 0.0
C257 C 0.95508 0.65722 0.60337 0.0
C258 C 0.97908 0.67209 0.67877 0.0
C259 C 0.95339 0.70956 0.67956 0.0
C260 C 0.92762 0.71996 0.6424 0.0
H261 H 0.95005 0.94322 0.82849 0.0
H262 H 0.94461 0.88631 0.7734 0.0
C263 C 0.92811 0.69393 0.60495 0.0
C264 C 0.9564 0.7397 0.71744 0.0
H265 H 0.89332 0.79915 0.78909 0.0
C266 C -0.00118 0.75521 0.72949 0.0
C267 C 0.91793 0.755 0.73999 0.0
C268 C 0.87169 0.73783 0.73077 0.0
C269 C 0.00362 0.78653 0.7623 0.0
C270 C 0.96508 0.80278 0.78358 0.0
C271 C 0.92277 0.7868 0.77234 0.0
C272 C 0.96816 0.83693 0.81719 0.0
C273 C 0.04971 0.80305 0.7733 0.0
C274 C -0.01702 0.82782 0.86006 0.0
C275 C -0.01408 0.86017 0.89172 0.0
C276 C 0.9744 0.90233 0.88096 0.0
C277 C 0.95959 0.91125 0.83783 0.0
C278 C 0.95625 0.87876 0.80635 0.0
H279 H 0.07588 0.79011 0.75082 0.0
H280 H 0.05019 0.83832 0.77136 0.0
H281 H 0.05827 0.79408 0.80772 0.0
H282 H -0.00782 0.79564 0.86901 0.0
H283 H -0.00242 0.85215 0.92453 0.0
H284 H 0.3953 0.03683 0.60695 0.0
H285 H 0.32886 0.05005 0.65218 0.0
H286 H 0.34751 0.92958 0.7176 0.0
H287 H 0.41312 0.91522 0.67112 0.0
H288 H 0.25805 0.94675 0.69553 0.0
H289 H 0.33796 0.08245 0.7829 0.0
H290 H 0.33694 0.08727 0.72378 0.0
H291 H 0.36935 0.04573 0.74898 0.0
C292 C 0.38482 1.01275 0.63036 0.0
C293 C 0.40945 0.97494 0.63553 0.0
C294 C 0.34717 1.02061 0.6565 0.0
C295 C 0.33384 0.99108 0.68859 0.0
C296 C 0.35753 0.95282 0.69308 0.0
H297 H 0.17723 1.02429 0.92195 0.0
H298 H 0.23425 1.01395 0.86541 0.0
C299 C 0.39511 0.94482 0.6668 0.0
C300 C 0.29601 1.00059 0.71849 0.0
H301 H 0.26208 0.06859 0.79983 0.0
C302 C 0.25873 0.97344 0.71827 0.0
C303 C 0.29747 0.03521 0.74831 0.0
C304 C 0.3377 0.06417 0.75145 0.0
C305 C 0.22277 0.97985 0.74747 0.0
C306 C 0.22404 1.01477 0.77693 0.0
C307 C 0.26115 0.04211 0.77682 0.0
C308 C 0.18882 1.02181 0.81048 0.0
C309 C 0.18454 0.94842 0.74761 0.0
C310 C 0.14444 1.03023 0.79819 0.0
C311 C 0.11147 0.03604 0.83053 0.0
C312 C 0.12257 0.03392 0.87564 0.0
C313 C 0.16736 1.02633 0.88761 0.0
C314 C 0.2001 1.02034 0.85534 0.0
H315 H 0.19333 0.91858 0.72988 0.0
H316 H 0.17448 0.94033 0.78194 0.0
H317 H 0.15521 0.96281 0.73089 0.0
H318 H 0.13533 1.03231 0.76365 0.0
H319 H 0.07738 0.04211 0.82015 0.0
H320 H 0.94208 0.45996 0.63726 0.0
H321 H 0.94362 0.41235 0.70147 0.0
H322 H 0.0455 0.33637 0.63803 0.0
H323 H 0.04446 0.38398 0.57414 0.0
H324 H 0.92368 0.32397 0.69648 0.0
H325 H 0.09341 0.3521 0.76482 0.0
H326 H 0.06635 0.38906 0.72784 0.0
H327 H 0.09242 0.34179 0.70641 0.0
C328 C 0.96562 0.43374 0.63756 0.0
C329 C -0.00686 0.42569 0.60068 0.0
C330 C 0.96623 0.4064 0.67408 0.0
C331 C -0.00517 0.37093 0.67464 0.0
C332 C 0.02359 0.36382 0.6386 0.0
H333 H 0.97146 0.13413 0.8205 0.0
H334 H 0.97392 0.1898 0.76407 0.0
C335 C 0.02278 0.39092 0.60202 0.0
C336 C -0.00771 0.33949 0.71117 0.0
H337 H 0.05433 0.29115 0.7914 0.0
C338 C 0.95214 0.31699 0.71745 0.0
C339 C 0.02937 0.33056 0.73862 0.0
C340 C 0.07275 0.35487 0.73448 0.0
C341 C 0.94838 0.28513 0.74979 0.0
C342 C -0.01409 0.27524 0.77627 0.0
C343 C 0.02574 0.29845 0.77073 0.0
C344 C -0.0157 0.24132 0.81038 0.0
C345 C 0.90416 0.26254 0.75563 0.0
C346 C -0.00994 0.25169 0.85507 0.0
C347 C -0.0113 0.22 0.88743 0.0
C348 C -0.01806 0.17706 0.87579 0.0
C349 C 0.97657 0.16676 0.83082 0.0
C350 C 0.97776 0.19859 0.79847 0.0
H351 H 0.87617 0.28034 0.74016 0.0
H352 H 0.90611 0.23075 0.73977 0.0
H353 H 0.89641 0.25786 0.79122 0.0
H354 H -0.00467 0.28443 0.86498 0.0
H355 H -0.00681 0.22933 0.92159 0.0
H356 H 0.54469 0.89183 0.67391 0.0
H357 H 0.6079 0.89213 0.72539 0.0
H358 H 0.67377 0.98787 0.64682 0.0
H359 H 0.61059 0.98889 0.5961 0.0
H360 H 0.72971 0.91212 0.69408 0.0
H361 H 0.61598 1.01512 0.79454 0.0
H362 H 0.5946 0.96628 0.77161 0.0
H363 H 0.60898 1.00941 0.7356 0.0
C364 C 0.57307 0.91228 0.6671 0.0
C365 C 0.5723 0.94078 0.63128 0.0
C366 C 0.6092 0.91215 0.6963 0.0
C367 C 0.64508 0.94019 0.68978 0.0
C368 C 0.64634 0.96585 0.65205 0.0
H369 H 0.87448 0.03876 0.8262 0.0
H370 H 0.82006 1.01301 0.77232 0.0
C371 C 0.61019 0.96623 0.62301 0.0
C372 C 0.67731 0.94823 0.7255 0.0
H373 H 0.68939 1.0065 0.8197 0.0
C374 C 0.721 0.93234 0.72188 0.0
C375 C 0.66545 0.97458 0.76151 0.0
C376 C 0.6188 0.99261 0.76633 0.0
C377 C 0.75358 0.94257 0.75353 0.0
C378 C 0.74217 0.9704 0.78866 0.0
C379 C 0.69807 0.98533 0.79266 0.0
C380 C 0.77547 0.98554 0.82114 0.0
C381 C 0.79968 0.92327 0.74918 0.0
C382 C 0.76745 0.9803 0.86649 0.0
C383 C 0.79791 0.99584 0.8974 0.0
C384 C 0.8371 1.0168 0.88346 0.0
C385 C 0.84472 1.02259 0.83799 0.0
C386 C 0.81394 1.00742 0.80712 0.0
H387 H 0.7988 0.89314 0.72997 0.0
H388 H 0.82188 0.94578 0.73132 0.0
H389 H 0.81456 0.91674 0.78206 0.0
H390 H 0.73774 0.96381 0.87799 0.0
H391 H 0.79124 0.99036 0.93214 0.0
H392 H 0.35969 0.46433 0.98749 0.0
H393 H 0.29385 0.41798 0.99175 0.0
H394 H 0.36152 0.33887 0.08681 0.0
H395 H 0.4271 0.38544 0.08327 0.0
H396 H 0.30029 0.33121 0.96823 0.0
H397 H 0.234 0.35135 0.13859 0.0
H398 H 0.27033 0.38997 0.1126 0.0
H399 H 0.29333 0.34206 0.13553 0.0
C400 C 0.35996 0.43781 1.0103 0.0
C401 C 0.3985 0.42832 0.03493 0.0
C402 C 0.32249 0.41127 1.01249 0.0
C403 C 0.32283 0.3752 0.03973 0.0
C404 C 0.36038 0.3669 0.06606 0.0
H405 H 0.18066 0.13754 1.01105 0.0
H406 H 0.23659 0.19423 0.01594 0.0
C407 C 0.3979 0.3933 0.06375 0.0
C408 C 0.28627 0.34366 0.03691 0.0
H409 H 0.20729 0.29144 0.09793 0.0
C410 C 0.27966 0.32274 0.99646 0.0
C411 C 0.25948 0.33285 0.0738 0.0
C412 C 0.26425 0.35545 0.11753 0.0
C413 C 0.24754 0.29053 0.99215 0.0
C414 C 0.22178 0.27874 0.0294 0.0
C415 C 0.22756 0.30034 0.0696 0.0
C416 C 0.18818 0.24436 0.02702 0.0
C417 C 0.24122 0.26945 0.94777 0.0
C418 C 0.14267 0.25387 0.03232 0.0
C419 C 0.11064 0.22169 0.02952 0.0
C420 C 0.1236 0.17925 0.0217 0.0
C421 C 0.16944 0.16982 0.01693 0.0
C422 C 0.20145 0.20216 0.01956 0.0
H423 H 0.25655 0.28827 0.92059 0.0
H424 H 0.25736 0.23766 0.94817 0.0
H425 H 0.20507 0.26489 0.9406 0.0
H426 H 0.1319 0.2863 0.03825 0.0
H427 H 0.07572 0.2302 0.03375 0.0
H428 H 0.36194 0.6208 0.03547 0.0
H429 H 0.29631 0.66754 0.03459 0.0
H430 H 0.35846 0.74416 0.93341 0.0
H431 H 0.42382 0.69719 0.9336 0.0
H432 H 0.30481 0.75497 0.0555 0.0
H433 H 0.22777 0.73098 0.89058 0.0
H434 H 0.26534 0.69273 0.91517 0.0
H435 H 0.28724 0.73989 0.88953 0.0
C436 C 0.36098 0.64684 1.01209 0.0
C437 C 0.39797 0.65551 0.9847 0.0
C438 C 0.32366 0.67362 1.01182 0.0
C439 C 0.32255 0.70911 0.98381 0.0
C440 C 0.35844 0.71659 0.95483 0.0
H441 H 0.18134 0.94722 0.01694 0.0
H442 H 0.23732 0.8908 1.0095 0.0
C443 C 0.39584 0.68995 0.95521 0.0
C444 C 0.28637 0.74089 0.9883 0.0
H445 H 0.20351 0.79161 0.93162 0.0
C446 C 0.2824 0.76278 0.02856 0.0
C447 C 0.25726 0.75083 0.95309 0.0
C448 C 0.25921 0.72716 0.90973 0.0
C449 C 0.25054 0.79507 0.03429 0.0
C450 C 0.22237 0.80594 0.99864 0.0
C451 C 0.22561 0.78342 0.95868 0.0
C452 C 0.18874 0.84018 1.00255 0.0
C453 C 0.24705 0.81715 0.07849 0.0
C454 C 0.14306 0.83031 1.00039 0.0
C455 C 0.11101 0.86234 1.00463 0.0
C456 C 0.12408 0.90498 1.01081 0.0
C457 C 0.17004 0.91478 1.01243 0.0
C458 C 0.20209 0.88259 1.00833 0.0
H459 H 0.26414 0.79896 0.105 0.0
H460 H 0.26307 0.84892 0.0762 0.0
H461 H 0.21144 0.82185 0.08804 0.0
H462 H 0.13221 0.79772 0.99579 0.0
H463 H 0.07599 0.85353 1.00284 0.0
H464 H 0.60222 0.46466 0.04224 0.0
H465 H 0.66788 0.41777 0.03894 0.0
H466 H 0.59571 0.33155 0.95407 0.0
H467 H 0.53027 0.37836 0.95691 0.0
H468 H 0.66345 0.33085 0.0682 0.0
H469 H 0.7204 0.3444 0.89387 0.0
H470 H 0.68574 0.38415 0.92036 0.0
H471 H 0.66132 0.33542 0.90086 0.0
C472 C 0.60084 0.43622 0.02204 0.0
C473 C 0.56125 0.42497 0.99995 0.0
C474 C 0.63818 0.40944 0.02035 0.0
C475 C 0.6366 0.37144 0.99604 0.0
C476 C 0.59773 0.36104 0.97252 0.0
H477 H 0.78206 0.13641 0.02628 0.0
H478 H 0.72567 0.1927 0.02187 0.0
C479 C 0.56034 0.3876 0.97443 0.0
C480 C 0.67384 0.34064 0.9985 0.0
H481 H 0.75033 0.2869 0.93571 0.0
C482 C 0.68276 0.32147 0.03936 0.0
C483 C 0.69889 0.32869 0.96079 0.0
C484 C 0.69149 0.34944 0.9165 0.0
C485 C 0.71546 0.28973 0.0433 0.0
C486 C 0.73946 0.27674 1.00529 0.0
C487 C 0.73142 0.29673 0.96465 0.0
C488 C 0.77333 0.24261 1.00723 0.0
C489 C 0.7242 0.27034 0.08804 0.0
C490 C 0.81853 0.25209 0.99966 0.0
C491 C 0.85083 0.22013 1.00215 0.0
C492 C 0.8384 0.17795 1.01189 0.0
C493 C 0.79284 0.16849 0.01877 0.0
C494 C 0.76059 0.20061 0.01648 0.0
H495 H 0.70997 0.28997 0.11523 0.0
H496 H 0.70848 0.23839 0.08954 0.0
H497 H 0.76072 0.26641 0.09362 0.0
H498 H 0.82887 0.28436 0.99227 0.0
H499 H 0.88552 0.22858 0.9963 0.0
H500 H 0.55227 0.69284 0.9484 0.0
H501 H 0.61778 0.73861 0.95724 0.0
H502 H 0.64863 0.67697 0.08068 0.0
H503 H 0.58245 0.63118 0.07226 0.0
H504 H 0.6463 0.76814 0.08376 0.0
H505 H 0.75206 0.70825 0.94612 0.0
H506 H 0.69551 0.72012 0.93021 0.0
H507 H 0.70602 0.67805 0.96899 0.0
C508 C 0.57319 0.68886 0.97729 0.0
C509 C 0.56234 0.65857 1.00971 0.0
C510 C 0.61074 0.71476 0.98211 0.0
C511 C 0.6382 0.71078 0.01935 0.0
C512 C 0.6279 0.68021 0.05157 0.0
H513 H 0.88749 0.85315 0.03986 0.0
H514 H 0.83144 0.79681 0.04215 0.0
C515 C 0.59036 0.65401 0.04663 0.0
C516 C 0.676 0.74048 0.02548 0.0
H517 H 0.77148 0.77631 0.9758 0.0
C518 C 0.67404 0.76965 0.06056 0.0
C519 C 0.7122 0.74204 0.99532 0.0
C520 C 0.71694 0.71019 0.95826 0.0
C521 C 0.70654 0.80156 0.06524 0.0
C522 C 0.74143 0.80451 0.03368 0.0
C523 C 0.74436 0.77424 0.99966 0.0
C524 C 0.77489 0.83915 0.03474 0.0
C525 C 0.70318 0.83191 0.10377 0.0
C526 C 0.76158 0.88167 0.02965 0.0
C527 C 0.79354 0.91412 0.0283 0.0
C528 C 0.83943 0.90453 0.03165 0.0
C529 C 0.8525 0.86181 0.037 0.0
C530 C 0.82054 0.82948 0.03841 0.0
H531 H 0.68244 0.81854 0.13096 0.0
H532 H 0.73688 0.83978 0.11691 0.0
H533 H 0.68717 0.86186 0.0926 0.0
H534 H 0.72651 0.88966 0.02582 0.0
H535 H 0.78226 0.94656 0.02381 0.0
loop_
_geom_bond_atom_site_label_1
_geom_bond_atom_site_label_2
_geom_bond_distance
_geom_bond_site_symmetry_2
_ccdc_geom_bond_type
H0 C6 0.929 1_655 S
H1 C9 0.931 . S
H2 C11 0.929 1_655 S
H3 C13 0.930 . S
H4 C15 0.930 . S
H5 C17 0.931 1_655 S
C6 H0 0.929 1_455 S
C6 C7 1.379 1_455 S
C6 C8 1.394 . S
C7 C6 1.379 1_655 S
C7 C11 1.381 1_655 S
C8 C6 1.394 . S
C8 C9 1.400 . S
C9 H1 0.931 . S
C9 C8 1.400 . S
C9 C10 1.375 . S
C10 C9 1.375 . S
C10 C11 1.418 . S
C10 C12 1.501 . S
C11 H2 0.929 1_455 S
C11 C7 1.381 1_455 S
C11 C10 1.418 . S
C12 C10 1.501 . S
C12 C13 1.384 . S
C12 C17 1.408 . S
C13 H3 0.930 . S
C13 C12 1.384 . S
C13 C14 1.389 . S
C14 C13 1.389 . S
C14 C15 1.405 . S
C15 H4 0.930 . S
C15 C14 1.405 . S
C15 C16 1.366 . S
C16 C15 1.366 . S
C16 C17 1.401 . S
C17 H5 0.931 1_455 S
C17 C12 1.408 . S
C17 C16 1.401 . S
H18 C24 0.930 . S
H19 C27 0.931 . S
H20 C29 0.931 . S
H21 C31 0.930 . S
H22 C33 0.930 . S
H23 C35 0.931 . S
C24 H18 0.930 . S
C24 C25 1.380 . S
C24 C26 1.394 1_545 S
C25 C24 1.380 . S
C25 C29 1.382 . S
C26 C24 1.394 1_565 S
C26 C27 1.400 . S
C27 H19 0.931 . S
C27 C26 1.400 . S
C27 C28 1.375 . S
C28 C27 1.375 . S
C28 C29 1.415 1_565 S
C28 C30 1.501 . S
C29 H20 0.931 . S
C29 C25 1.382 . S
C29 C28 1.415 1_545 S
C30 C28 1.501 . S
C30 C31 1.384 . S
C30 C35 1.408 1_565 S
C31 H21 0.930 . S
C31 C30 1.384 . S
C31 C32 1.389 . S
C32 C31 1.389 . S
C32 C33 1.405 . S
C33 H22 0.930 . S
C33 C32 1.405 . S
C33 C34 1.364 1_565 S
C34 C33 1.364 1_545 S
C34 C35 1.400 . S
C35 H23 0.931 . S
C35 C30 1.408 1_545 S
C35 C34 1.400 . S
H36 C42 0.929 1_556 S
H37 C45 0.931 . S
H38 C47 0.929 1_556 S
H39 C49 0.930 . S
H40 C51 0.930 . S
H41 C53 0.928 1_556 S
C42 H36 0.929 1_554 S
C42 C43 1.379 1_554 S
C42 C44 1.394 . S
C43 C42 1.379 1_556 S
C43 C47 1.381 1_556 S
C44 C42 1.394 . S
C44 C45 1.400 . S
C45 H37 0.931 . S
C45 C44 1.400 . S
C45 C46 1.375 . S
C46 C45 1.375 . S
C46 C47 1.417 . S
C46 C48 1.501 . S
C47 H38 0.929 1_554 S
C47 C43 1.381 1_554 S
C47 C46 1.417 . S
C48 C46 1.501 . S
C48 C49 1.384 . S
C48 C53 1.411 . S
C49 H39 0.930 . S
C49 C48 1.384 . S
C49 C50 1.389 . S
C50 C49 1.389 . S
C50 C51 1.405 . S
C51 H40 0.930 . S
C51 C50 1.405 . S
C51 C52 1.366 . S
C52 C51 1.366 . S
C52 C53 1.400 . S
C53 H41 0.928 1_554 S
C53 C48 1.411 . S
C53 C52 1.400 . S
C54 O80 1.283 . S
C54 O98 1.283 . S
C55 O81 1.283 . S
C55 O96 1.283 . S
C56 O82 1.283 . S
C56 O99 1.283 . S
C57 O83 1.283 . S
C57 O97 1.283 . S
C58 O84 1.283 . S
C58 O93 1.283 . S
C59 O85 1.283 . S
C59 O95 1.283 . S
C60 O86 1.283 . S
C60 O92 1.283 . S
C61 O87 1.283 . S
C61 O94 1.283 . S
C62 O88 1.283 . S
C62 O103 1.283 . S
C63 O89 1.283 . S
C63 O101 1.283 . S
C64 O90 1.283 . S
C64 O102 1.283 . S
C65 O91 1.283 . S
C65 O100 1.283 . S
Eu66 O67 2.370 . S
Eu66 O68 2.370 1_454 S
Eu66 O71 2.370 1_554 S
Eu66 O72 2.370 1_455 S
Eu66 O80 2.363 1_554 S
Eu66 O81 2.363 . S
Eu66 O94 2.363 1_455 S
Eu66 O95 2.363 . S
O67 Eu66 2.370 . S
O67 Eu69 2.370 . S
O67 Eu74 2.370 . S
O68 Eu66 2.370 1_656 S
O68 Eu70 2.370 1_556 S
O68 Eu73 2.370 1_655 S
Eu69 O67 2.370 . S
Eu69 O71 2.370 1_554 S
Eu69 O75 2.370 1_544 S
Eu69 O76 2.370 1_545 S
Eu69 O84 2.364 1_545 S
Eu69 O85 2.362 . S
Eu69 O100 2.363 1_554 S
Eu69 O101 2.363 . S
Eu70 O68 2.370 1_554 S
Eu70 O72 2.370 . S
Eu70 O77 2.370 1_545 S
Eu70 O78 2.370 1_544 S
Eu70 O86 2.362 1_545 S
Eu70 O87 2.364 . S
Eu70 O102 2.363 1_554 S
Eu70 O103 2.363 . S
O71 Eu66 2.370 1_556 S
O71 Eu69 2.370 1_556 S
O71 Eu73 2.370 . S
O72 Eu66 2.370 1_655 S
O72 Eu70 2.370 . S
O72 Eu74 2.370 1_655 S
Eu73 O68 2.370 1_455 S
Eu73 O71 2.370 . S
Eu73 O75 2.370 1_545 S
Eu73 O78 2.370 1_445 S
Eu73 O90 2.363 1_455 S
Eu73 O91 2.363 . S
Eu73 O98 2.362 . S
Eu73 O99 2.364 1_545 S
Eu74 O67 2.370 . S
Eu74 O72 2.370 1_455 S
Eu74 O76 2.370 1_545 S
Eu74 O77 2.370 1_445 S
Eu74 O88 2.363 1_455 S
Eu74 O89 2.363 . S
Eu74 O96 2.364 . S
Eu74 O97 2.362 1_545 S
O75 Eu69 2.370 1_566 S
O75 Eu73 2.370 1_565 S
O75 Eu79 2.370 1_556 S
O76 Eu69 2.370 1_565 S
O76 Eu74 2.370 1_565 S
O76 Eu79 2.370 . S
O77 Eu70 2.370 1_565 S
O77 Eu74 2.370 1_665 S
O77 Eu79 2.370 1_655 S
O78 Eu70 2.370 1_566 S
O78 Eu73 2.370 1_665 S
O78 Eu79 2.370 1_656 S
Eu79 O75 2.370 1_554 S
Eu79 O76 2.370 . S
Eu79 O77 2.370 1_455 S
Eu79 O78 2.370 1_454 S
Eu79 O82 2.363 1_554 S
Eu79 O83 2.363 . S
Eu79 O92 2.363 1_455 S
Eu79 O93 2.363 . S
O80 C54 1.283 . S
O80 Eu66 2.363 1_556 S
O81 C55 1.283 . S
O81 Eu66 2.363 . S
O82 C56 1.283 . S
O82 Eu79 2.363 1_556 S
O83 C57 1.283 . S
O83 Eu79 2.363 . S
O84 C58 1.283 . S
O84 Eu69 2.364 1_565 S
O85 C59 1.283 . S
O85 Eu69 2.362 . S
O86 C60 1.283 . S
O86 Eu70 2.362 1_565 S
O87 C61 1.283 . S
O87 Eu70 2.364 . S
O88 C62 1.283 . S
O88 Eu74 2.363 1_655 S
O89 C63 1.283 . S
O89 Eu74 2.363 . S
O90 C64 1.283 . S
O90 Eu73 2.363 1_655 S
O91 C65 1.283 . S
O91 Eu73 2.363 . S
O92 C60 1.283 . S
O92 Eu79 2.363 1_655 S
O93 C58 1.283 . S
O93 Eu79 2.363 . S
O94 C61 1.283 . S
O94 Eu66 2.363 1_655 S
O95 C59 1.283 . S
O95 Eu66 2.363 . S
O96 C55 1.283 . S
O96 Eu74 2.364 . S
O97 C57 1.283 . S
O97 Eu74 2.362 1_565 S
O98 C54 1.283 . S
O98 Eu73 2.362 . S
O99 C56 1.283 . S
O99 Eu73 2.364 1_565 S
O100 C65 1.283 . S
O100 Eu69 2.363 1_556 S
O101 C63 1.283 . S
O101 Eu69 2.363 . S
O102 C64 1.283 . S
O102 Eu70 2.363 1_556 S
O103 C62 1.283 . S
O103 Eu70 2.363 . S
H104 C112 0.929 . S
H105 C114 0.930 . S
H106 C116 0.930 . S
H107 C119 0.929 . S
H108 C122 0.930 . S
H109 C124 0.960 . S
H110 C124 0.960 . S
H111 C124 0.960 . S
C112 H104 0.929 . S
C112 C113 1.377 . S
C112 C114 1.384 . S
C113 C112 1.377 . S
C113 C119 1.390 1_655 S
C114 H105 0.930 . S
C114 C112 1.384 . S
C114 C115 1.372 . S
C115 C114 1.372 . S
C115 C116 1.400 1_655 S
C115 C120 1.490 . S
C116 H106 0.930 . S
C116 C115 1.400 1_455 S
C116 C119 1.386 . S
H117 C133 0.930 . S
H118 C134 0.931 . S
C119 H107 0.929 . S
C119 C113 1.390 1_455 S
C119 C116 1.386 . S
C120 C115 1.490 . S
C120 C122 1.395 . S
C120 C123 1.403 1_655 S
H121 C127 0.930 . S
C122 H108 0.930 . S
C122 C120 1.395 . S
C122 C125 1.403 . S
C123 C120 1.403 1_455 S
C123 C124 1.524 . S
C123 C127 1.400 . S
C124 H109 0.960 . S
C124 H110 0.960 . S
C124 H111 0.960 . S
C124 C123 1.524 . S
C125 C122 1.403 . S
C125 C126 1.392 . S
C125 C129 1.495 . S
C126 C125 1.392 . S
C126 C127 1.385 1_655 S
C126 C128 1.478 . S
C127 H121 0.930 . S
C127 C123 1.400 . S
C127 C126 1.385 1_455 S
C128 C126 1.478 . S
C128 C130 1.381 . S
C128 C134 1.383 1_655 S
C129 C125 1.495 . S
C129 H135 0.959 . S
C129 H136 0.961 . S
C129 H137 0.960 . S
C130 C128 1.381 . S
C130 C131 1.394 . S
C130 H138 0.930 . S
C131 C130 1.394 . S
C131 C132 1.389 . S
C131 H139 0.929 . S
C132 C131 1.389 . S
C132 C133 1.373 1_655 S
C133 H117 0.930 . S
C133 C132 1.373 1_455 S
C133 C134 1.379 . S
C134 H118 0.931 . S
C134 C128 1.383 1_455 S
C134 C133 1.379 . S
H135 C129 0.959 . S
H136 C129 0.961 . S
H137 C129 0.960 . S
H138 C130 0.930 . S
H139 C131 0.929 . S
H140 C148 0.929 . S
H141 C150 0.930 . S
H142 C152 0.930 . S
H143 C155 0.929 . S
H144 C158 0.930 . S
H145 C160 0.960 . S
H146 C160 0.960 1_565 S
H147 C160 0.960 . S
C148 H140 0.929 . S
C148 C149 1.377 1_565 S
C148 C150 1.384 . S
C149 C148 1.377 1_545 S
C149 C155 1.390 . S
C150 H141 0.930 . S
C150 C148 1.384 . S
C150 C151 1.372 1_565 S
C151 C150 1.372 1_545 S
C151 C152 1.400 . S
C151 C156 1.490 . S
C152 H142 0.930 . S
C152 C151 1.400 . S
C152 C155 1.386 . S
H153 C169 0.930 . S
H154 C170 0.931 . S
C155 H143 0.929 . S
C155 C149 1.390 . S
C155 C152 1.386 . S
C156 C151 1.490 . S
C156 C158 1.395 1_545 S
C156 C159 1.403 . S
H157 C163 0.930 . S
C158 H144 0.930 . S
C158 C156 1.395 1_565 S
C158 C161 1.403 . S
C159 C156 1.403 . S
C159 C160 1.524 . S
C159 C163 1.400 . S
C160 H145 0.960 . S
C160 H146 0.960 1_545 S
C160 H147 0.960 . S
C160 C159 1.524 . S
C161 C158 1.403 . S
C161 C162 1.393 . S
C161 C165 1.495 . S
C162 C161 1.393 . S
C162 C163 1.385 1_565 S
C162 C164 1.478 1_565 S
C163 H157 0.930 . S
C163 C159 1.400 . S
C163 C162 1.385 1_545 S
C164 C162 1.478 1_545 S
C164 C166 1.380 1_545 S
C164 C170 1.384 . S
C165 C161 1.495 . S
C165 H171 0.959 . S
C165 H172 0.961 1_565 S
C165 H173 0.960 . S
C166 C164 1.380 1_565 S
C166 C167 1.394 . S
C166 H174 0.930 . S
C167 C166 1.394 . S
C167 C168 1.383 1_565 S
C167 H175 0.929 . S
C168 C167 1.383 1_545 S
C168 C169 1.377 . S
C169 H153 0.930 . S
C169 C168 1.377 . S
C169 C170 1.379 . S
C170 H154 0.931 . S
C170 C164 1.384 . S
C170 C169 1.379 . S
H171 C165 0.959 . S
H172 C165 0.961 1_545 S
H173 C165 0.960 . S
H174 C166 0.930 . S
H175 C167 0.929 . S
H176 C184 0.929 . S
H177 C186 0.930 . S
H178 C188 0.930 . S
H179 C191 0.929 . S
H180 C194 0.931 . S
H181 C196 0.960 . S
H182 C196 0.960 1_655 S
H183 C196 0.960 . S
C184 H176 0.929 . S
C184 C185 1.377 1_655 S
C184 C186 1.384 . S
C185 C184 1.377 1_455 S
C185 C191 1.390 . S
C186 H177 0.930 . S
C186 C184 1.384 . S
C186 C187 1.372 1_655 S
C187 C186 1.372 1_455 S
C187 C188 1.400 . S
C187 C192 1.490 . S
C188 H178 0.930 . S
C188 C187 1.400 . S
C188 C191 1.386 . S
H189 C205 0.930 . S
H190 C206 0.931 . S
C191 H179 0.929 . S
C191 C185 1.390 . S
C191 C188 1.386 . S
C192 C187 1.490 . S
C192 C194 1.394 1_455 S
C192 C195 1.403 . S
H193 C199 0.930 . S
C194 H180 0.931 . S
C194 C192 1.394 1_655 S
C194 C197 1.403 . S
C195 C192 1.403 . S
C195 C196 1.524 . S
C195 C199 1.400 . S
C196 H181 0.960 . S
C196 H182 0.960 1_455 S
C196 H183 0.960 . S
C196 C195 1.524 . S
C197 C194 1.403 . S
C197 C198 1.391 1_655 S
C197 C201 1.497 . S
C198 C197 1.391 1_455 S
C198 C199 1.385 . S
C198 C200 1.478 . S
C199 H193 0.930 . S
C199 C195 1.400 . S
C199 C198 1.385 . S
C200 C198 1.478 . S
C200 C202 1.381 1_455 S
C200 C206 1.383 . S
C201 C197 1.497 . S
C201 H207 0.959 . S
C201 H208 0.961 1_655 S
C201 H209 0.960 . S
C202 C200 1.381 1_655 S
C202 C203 1.394 . S
C202 H210 0.930 . S
C203 C202 1.394 . S
C203 C204 1.383 1_655 S
C203 H211 0.929 . S
C204 C203 1.383 1_455 S
C204 C205 1.377 . S
C205 H189 0.930 . S
C205 C204 1.377 . S
C205 C206 1.379 . S
C206 H190 0.931 . S
C206 C200 1.383 . S
C206 C205 1.379 . S
H207 C201 0.959 . S
H208 C201 0.961 1_455 S
H209 C201 0.960 . S
H210 C202 0.930 . S
H211 C203 0.929 . S
H212 C220 0.929 . S
H213 C222 0.930 . S
H214 C224 0.930 . S
H215 C227 0.929 . S
H216 C230 0.930 . S
H217 C232 0.960 . S
H218 C232 0.960 . S
H219 C232 0.960 . S
C220 H212 0.929 . S
C220 C221 1.377 . S
C220 C222 1.384 . S
C221 C220 1.377 . S
C221 C227 1.390 . S
C222 H213 0.930 . S
C222 C220 1.384 . S
C222 C223 1.372 . S
C223 C222 1.372 . S
C223 C224 1.400 . S
C223 C228 1.490 . S
C224 H214 0.930 . S
C224 C223 1.400 . S
C224 C227 1.386 . S
H225 C241 0.930 . S
H226 C242 0.931 . S
C227 H215 0.929 . S
C227 C221 1.390 . S
C227 C224 1.386 . S
C228 C223 1.490 . S
C228 C230 1.395 1_565 S
C228 C231 1.403 . S
H229 C235 0.930 . S
C230 H216 0.930 . S
C230 C228 1.395 1_545 S
C230 C233 1.403 . S
C231 C228 1.403 . S
C231 C232 1.524 . S
C231 C235 1.400 . S
C232 H217 0.960 . S
C232 H218 0.960 . S
C232 H219 0.960 . S
C232 C231 1.524 . S
C233 C230 1.403 . S
C233 C234 1.392 . S
C233 C237 1.495 . S
C234 C233 1.392 . S
C234 C235 1.385 1_545 S
C234 C236 1.478 . S
C235 H229 0.930 . S
C235 C231 1.400 . S
C235 C234 1.385 1_565 S
C236 C234 1.478 . S
C236 C238 1.381 . S
C236 C242 1.383 . S
C237 C233 1.495 . S
C237 H243 0.959 . S
C237 H244 0.961 . S
C237 H245 0.960 . S
C238 C236 1.381 . S
C238 C239 1.394 1_545 S
C238 H246 0.930 1_545 S
C239 C238 1.394 1_565 S
C239 C240 1.383 1_565 S
C239 H247 0.929 . S
C240 C239 1.383 1_545 S
C240 C241 1.377 . S
C241 H225 0.930 . S
C241 C240 1.377 . S
C241 C242 1.379 . S
C242 H226 0.931 . S
C242 C236 1.383 . S
C242 C241 1.379 . S
H243 C237 0.959 . S
H244 C237 0.961 . S
H245 C237 0.960 . S
H246 C238 0.930 1_565 S
H247 C239 0.929 . S
H248 C256 0.929 . S
H249 C258 0.930 . S
H250 C260 0.930 . S
H251 C263 0.929 . S
H252 C266 0.930 . S
H253 C268 0.960 . S
H254 C268 0.960 . S
H255 C268 0.960 . S
C256 H248 0.929 . S
C256 C257 1.377 1_455 S
C256 C258 1.384 . S
C257 C256 1.377 1_655 S
C257 C263 1.390 . S
C258 H249 0.930 . S
C258 C256 1.384 . S
C258 C259 1.372 1_455 S
C259 C258 1.372 1_655 S
C259 C260 1.400 . S
C259 C264 1.490 1_655 S
C260 H250 0.930 . S
C260 C259 1.400 . S
C260 C263 1.386 . S
H261 C277 0.930 1_655 S
H262 C278 0.932 . S
C263 H251 0.929 . S
C263 C257 1.390 . S
C263 C260 1.386 . S
C264 C259 1.490 1_455 S
C264 C266 1.395 . S
C264 C267 1.403 1_455 S
H265 C271 0.930 . S
C266 H252 0.930 . S
C266 C264 1.395 . S
C266 C269 1.403 . S
C267 C264 1.403 1_655 S
C267 C268 1.524 . S
C267 C271 1.400 . S
C268 H253 0.960 . S
C268 H254 0.960 . S
C268 H255 0.960 . S
C268 C267 1.524 . S
C269 C266 1.403 . S
C269 C270 1.392 . S
C269 C273 1.495 . S
C270 C269 1.392 . S
C270 C271 1.385 1_455 S
C270 C272 1.478 . S
C271 H265 0.930 . S
C271 C267 1.400 . S
C271 C270 1.385 1_655 S
C272 C270 1.478 . S
C272 C274 1.381 . S
C272 C278 1.383 . S
C273 C269 1.495 . S
C273 H279 0.959 . S
C273 H280 0.961 . S
C273 H281 0.960 . S
C274 C272 1.381 . S
C274 C275 1.394 . S
C274 H282 0.930 . S
C275 C274 1.394 . S
C275 C276 1.383 . S
C275 H283 0.929 . S
C276 C275 1.383 . S
C276 C277 1.377 . S
C277 H261 0.930 1_455 S
C277 C276 1.377 . S
C277 C278 1.379 . S
C278 H262 0.932 . S
C278 C272 1.383 . S
C278 C277 1.379 . S
H279 C273 0.959 . S
H280 C273 0.961 . S
H281 C273 0.960 . S
H282 C274 0.930 . S
H283 C275 0.929 . S
H284 C292 0.929 . S
H285 C294 0.930 . S
H286 C296 0.930 . S
H287 C299 0.929 . S
H288 C302 0.930 . S
H289 C304 0.960 . S
H290 C304 0.960 . S
H291 C304 0.960 . S
C292 H284 0.929 . S
C292 C293 1.377 . S
C292 C294 1.384 . S
C293 C292 1.377 . S
C293 C299 1.390 1_545 S
C294 H285 0.930 . S
C294 C292 1.384 . S
C294 C295 1.372 . S
C295 C294 1.372 . S
C295 C296 1.400 1_545 S
C295 C300 1.490 . S
C296 H286 0.930 . S
C296 C295 1.400 1_565 S
C296 C299 1.386 . S
H297 C313 0.930 . S
H298 C314 0.931 . S
C299 H287 0.929 . S
C299 C293 1.390 1_565 S
C299 C296 1.386 . S
C300 C295 1.490 . S
C300 C302 1.395 1_545 S
C300 C303 1.403 . S
H301 C307 0.930 . S
C302 H288 0.930 . S
C302 C300 1.395 1_565 S
C302 C305 1.403 . S
C303 C300 1.403 . S
C303 C304 1.524 . S
C303 C307 1.400 . S
C304 H289 0.960 . S
C304 H290 0.960 . S
C304 H291 0.960 . S
C304 C303 1.524 . S
C305 C302 1.403 . S
C305 C306 1.392 1_565 S
C305 C309 1.495 . S
C306 C305 1.392 1_545 S
C306 C307 1.385 . S
C306 C308 1.478 1_545 S
C307 H301 0.930 . S
C307 C303 1.400 . S
C307 C306 1.385 . S
C308 C306 1.478 1_565 S
C308 C310 1.382 1_565 S
C308 C314 1.382 . S
C309 C305 1.495 . S
C309 H315 0.959 . S
C309 H316 0.961 . S
C309 H317 0.960 1_565 S
C310 C308 1.382 1_545 S
C310 C311 1.394 . S
C310 H318 0.930 . S
C311 C310 1.394 . S
C311 C312 1.370 1_545 S
C311 H319 0.929 . S
C312 C311 1.370 1_565 S
C312 C313 1.390 . S
C313 H297 0.930 . S
C313 C312 1.390 . S
C313 C314 1.379 . S
C314 H298 0.931 . S
C314 C308 1.382 . S
C314 C313 1.379 . S
H315 C309 0.959 . S
H316 C309 0.961 . S
H317 C309 0.960 1_545 S
H318 C310 0.930 . S
H319 C311 0.929 . S
H320 C328 0.929 . S
H321 C330 0.930 . S
H322 C332 0.930 . S
H323 C335 0.929 . S
H324 C338 0.930 . S
H325 C340 0.960 . S
H326 C340 0.960 . S
H327 C340 0.960 . S
C328 H320 0.929 . S
C328 C329 1.377 1_655 S
C328 C330 1.384 . S
C329 C328 1.377 1_455 S
C329 C335 1.390 . S
C330 H321 0.930 . S
C330 C328 1.384 . S
C330 C331 1.372 1_655 S
C331 C330 1.372 1_455 S
C331 C332 1.400 . S
C331 C336 1.490 . S
C332 H322 0.930 . S
C332 C331 1.400 . S
C332 C335 1.386 . S
H333 C349 0.930 . S
H334 C350 0.931 . S
C335 H323 0.929 . S
C335 C329 1.390 . S
C335 C332 1.386 . S
C336 C331 1.490 . S
C336 C338 1.395 1_455 S
C336 C339 1.403 . S
H337 C343 0.930 . S
C338 H324 0.930 . S
C338 C336 1.395 1_655 S
C338 C341 1.403 . S
C339 C336 1.403 . S
C339 C340 1.524 . S
C339 C343 1.400 . S
C340 H325 0.960 . S
C340 H326 0.960 . S
C340 H327 0.960 . S
C340 C339 1.524 . S
C341 C338 1.403 . S
C341 C342 1.400 . S
C341 C345 1.495 . S
C342 C341 1.400 . S
C342 C343 1.377 1_655 S
C342 C344 1.478 . S
C343 H337 0.930 . S
C343 C339 1.400 . S
C343 C342 1.377 1_455 S
C344 C342 1.478 . S
C344 C346 1.389 . S
C344 C350 1.375 1_655 S
C345 C341 1.495 . S
C345 H351 0.959 . S
C345 H352 0.961 . S
C345 H353 0.960 . S
C346 C344 1.389 . S
C346 C347 1.394 . S
C346 H354 0.930 . S
C347 C346 1.394 . S
C347 C348 1.383 1_655 S
C347 H355 0.929 . S
C348 C347 1.383 1_455 S
C348 C349 1.377 . S
C349 H333 0.930 . S
C349 C348 1.377 . S
C349 C350 1.379 . S
C350 H334 0.931 . S
C350 C344 1.375 1_455 S
C350 C349 1.379 . S
H351 C345 0.959 . S
H352 C345 0.961 . S
H353 C345 0.960 . S
H354 C346 0.930 . S
H355 C347 0.929 . S
H356 C364 0.929 . S
H357 C366 0.930 . S
H358 C368 0.930 . S
H359 C371 0.929 . S
H360 C374 0.930 . S
H361 C376 0.960 . S
H362 C376 0.960 . S
H363 C376 0.960 . S
C364 H356 0.929 . S
C364 C365 1.377 . S
C364 C366 1.384 . S
C365 C364 1.377 . S
C365 C371 1.390 1_565 S
C366 H357 0.930 . S
C366 C364 1.384 . S
C366 C367 1.372 . S
C367 C366 1.372 . S
C367 C368 1.400 1_565 S
C367 C372 1.490 . S
C368 H358 0.930 . S
C368 C367 1.400 1_545 S
C368 C371 1.386 . S
H369 C385 0.930 . S
H370 C386 0.931 . S
C371 H359 0.929 . S
C371 C365 1.390 1_545 S
C371 C368 1.386 . S
C372 C367 1.490 . S
C372 C374 1.395 . S
C372 C375 1.403 1_565 S
H373 C379 0.930 . S
C374 H360 0.930 . S
C374 C372 1.395 . S
C374 C377 1.403 . S
C375 C372 1.403 1_545 S
C375 C376 1.524 . S
C375 C379 1.400 . S
C376 H361 0.960 . S
C376 H362 0.960 . S
C376 H363 0.960 . S
C376 C375 1.524 . S
C377 C374 1.403 . S
C377 C378 1.392 . S
C377 C381 1.495 . S
C378 C377 1.392 . S
C378 C379 1.385 1_565 S
C378 C380 1.478 . S
C379 H373 0.930 . S
C379 C375 1.400 . S
C379 C378 1.385 1_545 S
C380 C378 1.478 . S
C380 C382 1.381 . S
C380 C386 1.383 1_565 S
C381 C377 1.495 . S
C381 H387 0.959 . S
C381 H388 0.961 . S
C381 H389 0.960 . S
C382 C380 1.381 . S
C382 C383 1.394 . S
C382 H390 0.930 . S
C383 C382 1.394 . S
C383 C384 1.383 . S
C383 H391 0.929 . S
C384 C383 1.383 . S
C384 C385 1.377 1_565 S
C385 H369 0.930 . S
C385 C384 1.377 1_545 S
C385 C386 1.379 . S
C386 H370 0.931 . S
C386 C380 1.383 1_545 S
C386 C385 1.379 . S
H387 C381 0.959 . S
H388 C381 0.961 . S
H389 C381 0.960 . S
H390 C382 0.930 . S
H391 C383 0.929 . S
H392 C400 0.929 . S
H393 C402 0.930 . S
H394 C404 0.930 . S
H395 C407 0.929 . S
H396 C410 0.930 . S
H397 C412 0.960 . S
H398 C412 0.960 . S
H399 C412 0.960 . S
C400 H392 0.929 . S
C400 C401 1.377 1_556 S
C400 C402 1.384 . S
C401 C400 1.377 1_554 S
C401 C407 1.390 . S
C402 H393 0.930 . S
C402 C400 1.384 . S
C402 C403 1.372 1_556 S
C403 C402 1.372 1_554 S
C403 C404 1.400 . S
C403 C408 1.490 . S
C404 H394 0.930 . S
C404 C403 1.400 . S
C404 C407 1.386 . S
H405 C421 0.930 . S
H406 C422 0.931 . S
C407 H395 0.929 . S
C407 C401 1.390 . S
C407 C404 1.386 . S
C408 C403 1.490 . S
C408 C410 1.395 1_554 S
C408 C411 1.403 . S
H409 C415 0.930 . S
C410 H396 0.930 . S
C410 C408 1.395 1_556 S
C410 C413 1.403 . S
C411 C408 1.403 . S
C411 C412 1.524 . S
C411 C415 1.400 . S
C412 H397 0.960 . S
C412 H398 0.960 . S
C412 H399 0.960 . S
C412 C411 1.524 . S
C413 C410 1.403 . S
C413 C414 1.392 . S
C413 C417 1.495 . S
C414 C413 1.392 . S
C414 C415 1.385 1_556 S
C414 C416 1.478 . S
C415 H409 0.930 . S
C415 C411 1.400 . S
C415 C414 1.385 1_554 S
C416 C414 1.478 . S
C416 C418 1.381 . S
C416 C422 1.383 1_556 S
C417 C413 1.495 . S
C417 H423 0.959 . S
C417 H424 0.961 . S
C417 H425 0.960 . S
C418 C416 1.381 . S
C418 C419 1.394 . S
C418 H426 0.930 . S
C419 C418 1.394 . S
C419 C420 1.382 1_556 S
C419 H427 0.929 . S
C420 C419 1.382 1_554 S
C420 C421 1.378 . S
C421 H405 0.930 . S
C421 C420 1.378 . S
C421 C422 1.379 . S
C422 H406 0.931 . S
C422 C416 1.383 1_554 S
C422 C421 1.379 . S
H423 C417 0.959 . S
H424 C417 0.961 . S
H425 C417 0.960 . S
H426 C418 0.930 . S
H427 C419 0.929 . S
H428 C436 0.929 . S
H429 C438 0.930 . S
H430 C440 0.930 . S
H431 C443 0.929 . S
H432 C446 0.930 . S
H433 C448 0.960 . S
H434 C448 0.960 . S
H435 C448 0.960 . S
C436 H428 0.929 . S
C436 C437 1.377 1_554 S
C436 C438 1.384 . S
C437 C436 1.377 1_556 S
C437 C443 1.390 . S
C438 H429 0.930 . S
C438 C436 1.384 . S
C438 C439 1.364 1_554 S
C439 C438 1.364 1_556 S
C439 C440 1.409 . S
C439 C444 1.489 1_556 S
C440 H430 0.930 . S
C440 C439 1.409 . S
C440 C443 1.386 . S
H441 C457 0.930 . S
H442 C458 0.931 . S
C443 H431 0.929 . S
C443 C437 1.390 . S
C443 C440 1.386 . S
C444 C439 1.489 1_554 S
C444 C446 1.395 . S
C444 C447 1.403 1_554 S
H445 C451 0.930 . S
C446 H432 0.930 . S
C446 C444 1.395 . S
C446 C449 1.403 . S
C447 C444 1.403 1_556 S
C447 C448 1.524 . S
C447 C451 1.400 . S
C448 H433 0.960 . S
C448 H434 0.960 . S
C448 H435 0.960 . S
C448 C447 1.524 . S
C449 C446 1.403 . S
C449 C450 1.392 . S
C449 C453 1.495 . S
C450 C449 1.392 . S
C450 C451 1.385 1_554 S
C450 C452 1.478 . S
C451 H445 0.930 . S
C451 C447 1.400 . S
C451 C450 1.385 1_556 S
C452 C450 1.478 . S
C452 C454 1.381 . S
C452 C458 1.383 1_554 S
C453 C449 1.495 . S
C453 H459 0.959 . S
C453 H460 0.961 . S
C453 H461 0.960 . S
C454 C452 1.381 . S
C454 C455 1.394 . S
C454 H462 0.930 . S
C455 C454 1.394 . S
C455 C456 1.383 . S
C455 H463 0.929 . S
C456 C455 1.383 . S
C456 C457 1.377 1_554 S
C457 H441 0.930 . S
C457 C456 1.377 1_556 S
C457 C458 1.379 . S
C458 H442 0.931 . S
C458 C452 1.383 1_556 S
C458 C457 1.379 . S
H459 C453 0.959 . S
H460 C453 0.961 . S
H461 C453 0.960 . S
H462 C454 0.930 . S
H463 C455 0.929 . S
H464 C472 0.929 . S
H465 C474 0.930 . S
H466 C476 0.930 . S
H467 C479 0.929 . S
H468 C482 0.930 . S
H469 C484 0.960 . S
H470 C484 0.960 . S
H471 C484 0.960 . S
C472 H464 0.929 . S
C472 C473 1.377 1_554 S
C472 C474 1.384 . S
C473 C472 1.377 1_556 S
C473 C479 1.390 . S
C474 H465 0.930 . S
C474 C472 1.384 . S
C474 C475 1.391 . S
C475 C474 1.391 . S
C475 C476 1.380 1_554 S
C475 C480 1.491 . S
C476 H466 0.930 . S
C476 C475 1.380 1_556 S
C476 C479 1.386 . S
H477 C493 0.930 . S
H478 C494 0.931 . S
C479 H467 0.929 . S
C479 C473 1.390 . S
C479 C476 1.386 . S
C480 C475 1.491 . S
C480 C482 1.395 . S
C480 C483 1.403 1_554 S
H481 C487 0.930 . S
C482 H468 0.930 . S
C482 C480 1.395 . S
C482 C485 1.403 . S
C483 C480 1.403 1_556 S
C483 C484 1.524 . S
C483 C487 1.400 . S
C484 H469 0.960 . S
C484 H470 0.960 . S
C484 H471 0.960 . S
C484 C483 1.524 . S
C485 C482 1.403 . S
C485 C486 1.392 . S
C485 C489 1.495 . S
C486 C485 1.392 . S
C486 C487 1.385 1_554 S
C486 C488 1.478 . S
C487 H481 0.930 . S
C487 C483 1.400 . S
C487 C486 1.385 1_556 S
C488 C486 1.478 . S
C488 C490 1.381 . S
C488 C494 1.383 1_554 S
C489 C485 1.495 . S
C489 H495 0.959 . S
C489 H496 0.961 . S
C489 H497 0.960 . S
C490 C488 1.381 . S
C490 C491 1.394 . S
C490 H498 0.930 . S
C491 C490 1.394 . S
C491 C492 1.383 . S
C491 H499 0.929 . S
C492 C491 1.383 . S
C492 C493 1.377 1_554 S
C493 H477 0.930 . S
C493 C492 1.377 1_556 S
C493 C494 1.379 . S
C494 H478 0.931 . S
C494 C488 1.383 1_556 S
C494 C493 1.379 . S
H495 C489 0.959 . S
H496 C489 0.961 . S
H497 C489 0.960 . S
H498 C490 0.930 . S
H499 C491 0.929 . S
H500 C508 0.929 . S
H501 C510 0.930 . S
H502 C512 0.930 . S
H503 C515 0.929 . S
H504 C518 0.930 . S
H505 C520 0.960 . S
H506 C520 0.960 . S
H507 C520 0.960 . S
C508 H500 0.929 . S
C508 C509 1.377 1_556 S
C508 C510 1.384 . S
C509 C508 1.377 1_554 S
C509 C515 1.390 . S
C510 H501 0.930 . S
C510 C508 1.384 . S
C510 C511 1.372 1_556 S
C511 C510 1.372 1_554 S
C511 C512 1.400 . S
C511 C516 1.490 . S
C512 H502 0.930 . S
C512 C511 1.400 . S
C512 C515 1.386 . S
H513 C529 0.930 . S
H514 C530 0.931 . S
C515 H503 0.929 . S
C515 C509 1.390 . S
C515 C512 1.386 . S
C516 C511 1.490 . S
C516 C518 1.395 1_554 S
C516 C519 1.403 . S
H517 C523 0.930 . S
C518 H504 0.930 . S
C518 C516 1.395 1_556 S
C518 C521 1.403 . S
C519 C516 1.403 . S
C519 C520 1.524 . S
C519 C523 1.400 . S
C520 H505 0.960 . S
C520 H506 0.960 . S
C520 H507 0.960 . S
C520 C519 1.524 . S
C521 C518 1.403 . S
C521 C522 1.392 1_556 S
C521 C525 1.495 . S
C522 C521 1.392 1_554 S
C522 C523 1.385 . S
C522 C524 1.478 . S
C523 H517 0.930 . S
C523 C519 1.400 . S
C523 C522 1.385 . S
C524 C522 1.478 . S
C524 C526 1.381 1_554 S
C524 C530 1.383 . S
C525 C521 1.495 . S
C525 H531 0.959 . S
C525 H532 0.977 . S
C525 H533 0.960 . S
C526 C524 1.381 1_556 S
C526 C527 1.394 . S
C526 H534 0.930 . S
C527 C526 1.394 . S
C527 C528 1.383 1_556 S
C527 H535 0.929 . S
C528 C527 1.383 1_554 S
C528 C529 1.377 . S
C529 H513 0.930 . S
C529 C528 1.377 . S
C529 C530 1.379 . S
C530 H514 0.931 . S
C530 C524 1.383 . S
C530 C529 1.379 . S
H531 C525 0.959 . S
H532 C525 0.977 . S
H533 C525 0.960 . S
H534 C526 0.930 . S
H535 C527 0.929 . S
C132 C55 1.978 1_655 S
C113 C7 1.961 . S
C168 C62 1.113 . S
C149 C34 1.104 . S
C204 C57 1.979 . S
C185 C14 1.970 . S
C240 C63 1.118 . S
C221 C32 1.113 . S
C257 C16 1.961 1_655 S
C276 C56 1.978 . S
C312 C65 1.116 1_565 S
C293 C25 1.108 . S
C329 C8 1.962 . S
C348 C54 1.971 . S
C365 C26 1.100 . S
C384 C64 1.109 1_565 S
C401 C50 1.528 . S
C420 C59 1.542 . S
C437 C43 1.525 . S
C456 C58 1.542 . S
C492 C61 1.541 . S
C473 C52 1.517 1_556 S
C528 C60 1.536 . S
C509 C44 1.519 . S
