# Generated by pormake.
# Topology zzz, (3,6)-cn, num edge types: 1
# Building blocks:
#     Node 0, Type 0, BuildingBlock: KAKCAD_clean_linker_0, # of connection points: 3
#     Node 1, Type 0, BuildingBlock: KAKCAD_clean_linker_0, # of connection points: 3
#     Node 2, Type 0, BuildingBlock: KAKCAD_clean_linker_0, # of connection points: 3
#     Node 3, Type 0, BuildingBlock: KAKCAD_clean_linker_0, # of connection points: 3
#     Node 4, Type 0, BuildingBlock: KAKCAD_clean_linker_0, # of connection points: 3
#     Node 5, Type 0, BuildingBlock: KAKCAD_clean_linker_0, # of connection points: 3
#     Node 6, Type 0, BuildingBlock: KAKCAD_clean_linker_0, # of connection points: 3
#     Node 7, Type 0, BuildingBlock: KAKCAD_clean_linker_0, # of connection points: 3
#     Node 8, Type 1, BuildingBlock: PAMTUU_clean_sbu_0, # of connection points: 6
#     Node 9, Type 1, BuildingBlock: PAMTUU_clean_sbu_0, # of connection points: 6
#     Node 10, Type 1, BuildingBlock: PAMTUU_clean_sbu_0, # of connection points: 6
#     Node 11, Type 1, BuildingBlock: PAMTUU_clean_sbu_0, # of connection points: 6
#     Edge 12, Type (0, 1), BuildingBlock: ZUJKAS_clean_linker_0, # of connection points: 2
#     Edge 13, Type (0, 1), BuildingBlock: ZUJKAS_clean_linker_0, # of connection points: 2
#     Edge 14, Type (0, 1), BuildingBlock: ZUJKAS_clean_linker_0, # of connection points: 2
#     Edge 15, Type (0, 1), BuildingBlock: ZUJKAS_clean_linker_0, # of connection points: 2
#     Edge 16, Type (0, 1), BuildingBlock: ZUJKAS_clean_linker_0, # of connection points: 2
#     Edge 17, Type (0, 1), BuildingBlock: ZUJKAS_clean_linker_0, # of connection points: 2
#     Edge 18, Type (0, 1), BuildingBlock: ZUJKAS_clean_linker_0, # of connection points: 2
#     Edge 19, Type (0, 1), BuildingBlock: ZUJKAS_clean_linker_0, # of connection points: 2
#     Edge 20, Type (0, 1), BuildingBlock: ZUJKAS_clean_linker_0, # of connection points: 2
#     Edge 21, Type (0, 1), BuildingBlock: ZUJKAS_clean_linker_0, # of connection points: 2
#     Edge 22, Type (0, 1), BuildingBlock: ZUJKAS_clean_linker_0, # of connection points: 2
#     Edge 23, Type (0, 1), BuildingBlock: ZUJKAS_clean_linker_0, # of connection points: 2
#     Edge 24, Type (0, 1), BuildingBlock: ZUJKAS_clean_linker_0, # of connection points: 2
#     Edge 25, Type (0, 1), BuildingBlock: ZUJKAS_clean_linker_0, # of connection points: 2
#     Edge 26, Type (0, 1), BuildingBlock: ZUJKAS_clean_linker_0, # of connection points: 2
#     Edge 27, Type (0, 1), BuildingBlock: ZUJKAS_clean_linker_0, # of connection points: 2
#     Edge 28, Type (0, 1), BuildingBlock: ZUJKAS_clean_linker_0, # of connection points: 2
#     Edge 29, Type (0, 1), BuildingBlock: ZUJKAS_clean_linker_0, # of connection points: 2
#     Edge 30, Type (0, 1), BuildingBlock: ZUJKAS_clean_linker_0, # of connection points: 2
#     Edge 31, Type (0, 1), BuildingBlock: ZUJKAS_clean_linker_0, # of connection points: 2
#     Edge 32, Type (0, 1), BuildingBlock: ZUJKAS_clean_linker_0, # of connection points: 2
#     Edge 33, Type (0, 1), BuildingBlock: ZUJKAS_clean_linker_0, # of connection points: 2
#     Edge 34, Type (0, 1), BuildingBlock: ZUJKAS_clean_linker_0, # of connection points: 2
#     Edge 35, Type (0, 1), BuildingBlock: ZUJKAS_clean_linker_0, # of connection points: 2
# Relax obj value: 0.355
# Max RMSD: 0.259
# Mean RMSD: 0.219
data_MOF--net-zzz--node1-PAMTUU_clean_sbu_0--node2-KAKCAD_clean_linker_0--edge1-ZUJKAS_clean_linker_0
_symmetry_space_group_name_H-M    P1
_symmetry_Int_Tables_number       1
_symmetry_cell_setting            triclinic
loop_
_symmetry_equiv_pos_as_xyz
'x, y, z'
_cell_length_a     73.017372
_cell_length_b     75.903544
_cell_length_c     25.397571
_cell_angle_alpha  96.955301
_cell_angle_beta   90.012488
_cell_angle_gamma 90.538048
loop_
_atom_site_label
_atom_site_type_symbol
_atom_site_fract_x
_atom_site_fract_y
_atom_site_fract_z
_atom_type_partial_charge
C0 C 0.78177 0.43704 0.08149 0.0
C1 C 0.79126 0.4224 0.09637 0.0
C2 C 0.77233 0.44838 0.1192 0.0
C3 C 0.77206 0.44531 0.17269 0.0
C4 C 0.78079 0.43016 0.18712 0.0
C5 C 0.79033 0.41884 0.14935 0.0
C6 C 0.76378 0.45855 0.2135 0.0
C7 C 0.74761 0.46721 0.20266 0.0
C8 C 0.74057 0.48095 0.23869 0.0
C9 C 0.74979 0.48597 0.28713 0.0
C10 C 0.76599 0.47716 0.29897 0.0
C11 C 0.77274 0.46351 0.26191 0.0
C12 C 0.77696 0.48244 0.34785 0.0
C13 C 0.78385 0.49982 0.35948 0.0
C14 C 0.78311 0.46933 0.37811 0.0
C15 C 0.79662 0.4732 0.41694 0.0
C16 C 0.80443 0.4903 0.42647 0.0
C17 C 0.72378 0.48988 0.22298 0.0
C18 C 0.72376 0.49751 0.1753 0.0
C19 C 0.70708 0.48782 0.24901 0.0
C20 C 0.69053 0.49227 0.22585 0.0
C21 C 0.69042 0.49892 0.17633 0.0
C22 C 0.70733 0.50201 0.15233 0.0
C23 C 0.79751 0.5037 0.39825 0.0
H24 H 0.78249 0.44034 0.04121 0.0
H25 H 0.766 0.46005 0.10679 0.0
H26 H 0.78058 0.42726 0.22783 0.0
H27 H 0.79736 0.40755 0.16185 0.0
H28 H 0.74042 0.46329 0.16565 0.0
H29 H 0.7856 0.45729 0.26983 0.0
H30 H 0.74456 0.49669 0.31493 0.0
H31 H 0.7795 0.51015 0.33645 0.0
H32 H 0.77808 0.4558 0.36987 0.0
H33 H 0.80165 0.46249 0.43736 0.0
H34 H 0.73646 0.49904 0.15416 0.0
H35 H 0.70672 0.48174 0.28546 0.0
H36 H 0.80303 0.51707 0.40503 0.0
H37 H 0.70788 0.50689 0.11402 0.0
H38 H 0.6778 0.48992 0.24582 0.0
C39 C 0.98175 0.76298 0.13339 0.0
C40 C 0.99776 0.77351 0.13738 0.0
C41 C 0.97722 0.75254 0.1734 0.0
C42 C 0.98851 0.75271 0.21824 0.0
C43 C 1.00477 0.76278 0.22131 0.0
C44 C 0.00937 0.77303 0.1813 0.0
C45 C 0.9831 0.74317 0.26328 0.0
C46 C 0.97813 0.72522 0.25545 0.0
C47 C 0.97442 0.71591 0.29893 0.0
C48 C 0.97517 0.72492 0.35086 0.0
C49 C 0.97973 0.74311 0.35871 0.0
C50 C 0.98372 0.75202 0.31485 0.0
C51 C 0.98064 0.75352 0.41175 0.0
C52 C 0.96448 0.7587 0.43895 0.0
C53 C 0.99724 0.76182 0.42856 0.0
C54 C 0.99751 0.77604 0.46895 0.0
C55 C 0.98114 0.78234 0.49333 0.0
C56 C 0.97153 0.69649 0.28854 0.0
C57 C 0.95781 0.68959 0.25289 0.0
C58 C 0.9846 0.68497 0.30556 0.0
C59 C 0.98483 0.66711 0.28395 0.0
C60 C 0.97182 0.66045 0.24555 0.0
C61 C 0.95786 0.67169 0.23192 0.0
C62 C 0.96472 0.773 0.47948 0.0
H63 H 0.9726 0.76307 0.09985 0.0
H64 H 0.9646 0.74487 0.17026 0.0
H65 H 0.01379 0.76297 0.25527 0.0
H66 H 0.02166 0.78117 0.18594 0.0
H67 H 0.97806 0.71823 0.21557 0.0
H68 H 0.98725 0.76604 0.32096 0.0
H69 H 0.97247 0.71784 0.38465 0.0
H70 H 0.95149 0.75263 0.4261 0.0
H71 H 0.00983 0.7582 0.40756 0.0
H72 H 0.01039 0.78294 0.47795 0.0
H73 H 0.9477 0.69829 0.23886 0.0
H74 H 0.99544 0.69007 0.33249 0.0
H75 H 0.95191 0.77732 0.49799 0.0
H76 H 0.94775 0.66699 0.20214 0.0
H77 H 0.99567 0.65869 0.29538 0.0
C78 C 0.7572 0.03398 0.10223 0.0
C79 C 0.74605 0.04862 0.11852 0.0
C80 C 0.76511 0.02434 0.13962 0.0
C81 C 0.76209 0.02916 0.19411 0.0
C82 C 0.75162 0.04426 0.21048 0.0
C83 C 0.74368 0.0539 0.17307 0.0
C84 C 0.7693 0.01805 0.23346 0.0
C85 C 0.78695 0.01116 0.228 0.0
C86 C 0.79372 0.99994 0.26325 0.0
C87 C 0.7825 0.99546 0.30512 0.0
C88 C 0.76476 0.00278 0.31203 0.0
C89 C 0.75836 0.01389 0.27565 0.0
C90 C 0.75237 0.99933 0.35642 0.0
C91 C 0.74699 0.98202 0.36431 0.0
C92 C 0.74369 0.01371 0.38618 0.0
C93 C 0.72932 0.01095 0.42066 0.0
C94 C 0.72315 0.99369 0.4267 0.0
C95 C 0.81271 0.99359 0.25401 0.0
C96 C 0.81584 0.97695 0.22501 0.0
C97 C 0.8271 0.00608 0.25984 0.0
C98 C 0.84377 0.00261 0.23367 0.0
C99 C 0.8465 0.98651 0.20086 0.0
C100 C 0.8326 0.97341 0.19891 0.0
C101 C 0.73249 0.97922 0.39898 0.0
H102 H 0.75936 0.02967 0.06049 0.0
H103 H 0.77304 0.01271 0.12571 0.0
H104 H 0.74928 0.04845 0.25222 0.0
H105 H 0.735 0.06499 0.1869 0.0
H106 H 0.79562 0.01458 0.19597 0.0
H107 H 0.74454 0.01898 0.27951 0.0
H108 H 0.78767 0.98685 0.33263 0.0
H109 H 0.75333 0.97068 0.34164 0.0
H110 H 0.74752 0.02721 0.38095 0.0
H111 H 0.72245 0.02247 0.44052 0.0
H112 H 0.80483 0.96724 0.219 0.0
H113 H 0.82487 0.01916 0.28094 0.0
H114 H 0.72834 0.96573 0.40311 0.0
H115 H 0.83428 0.96072 0.17501 0.0
H116 H 0.85392 0.01316 0.23599 0.0
C117 C 0.56376 0.74284 0.33136 0.0
C118 C 0.57618 0.72901 0.33616 0.0
C119 C 0.56502 0.75293 0.28871 0.0
C120 C 0.57869 0.74931 0.2502 0.0
C121 C 0.59197 0.73656 0.25743 0.0
C122 C 0.59075 0.72654 0.29988 0.0
C123 C 0.57691 0.75563 0.19757 0.0
C124 C 0.57699 0.77375 0.19063 0.0
C125 C 0.57523 0.77885 0.13928 0.0
C126 C 0.57256 0.76576 0.09568 0.0
C127 C 0.57201 0.74775 0.10258 0.0
C128 C 0.57443 0.74284 0.15345 0.0
C129 C 0.5678 0.7339 0.05788 0.0
C130 C 0.55263 0.73561 0.02488 0.0
C131 C 0.57767 0.718 0.05183 0.0
C132 C 0.57176 0.70366 0.01618 0.0
C133 C 0.55581 0.7049 0.98591 0.0
C134 C 0.57599 0.79772 0.12974 0.0
C135 C 0.5638 0.81016 0.15525 0.0
C136 C 0.58766 0.80287 0.09033 0.0
C137 C 0.58649 0.8198 0.07453 0.0
C138 C 0.57345 0.83194 0.09731 0.0
C139 C 0.5625 0.82713 0.13905 0.0
C140 C 0.54667 0.72121 0.98916 0.0
H141 H 0.55254 0.74529 0.35907 0.0
H142 H 0.55454 0.76259 0.28368 0.0
H143 H 0.60257 0.73347 0.22798 0.0
H144 H 0.60048 0.71595 0.30178 0.0
H145 H 0.57883 0.78372 0.22457 0.0
H146 H 0.57364 0.72892 0.15923 0.0
H147 H 0.57073 0.76963 0.05629 0.0
H148 H 0.54471 0.7477 0.02897 0.0
H149 H 0.5896 0.71644 0.07617 0.0
H150 H 0.57931 0.69137 0.01364 0.0
H151 H 0.55459 0.80645 0.18556 0.0
H152 H 0.59733 0.79357 0.07052 0.0
H153 H 0.53431 0.72254 0.96646 0.0
H154 H 0.55226 0.83612 0.15732 0.0
H155 H 0.59548 0.82319 0.04328 0.0
C156 C 0.25158 0.57017 0.3609 0.0
C157 C 0.23264 0.56771 0.36657 0.0
C158 C 0.26123 0.55969 0.32122 0.0
C159 C 0.25214 0.54637 0.2872 0.0
C160 C 0.23316 0.54403 0.29323 0.0
C161 C 0.22354 0.55464 0.33212 0.0
C162 C 0.26229 0.53437 0.24685 0.0
C163 C 0.27972 0.52818 0.25793 0.0
C164 C 0.28871 0.51567 0.22181 0.0
C165 C 0.27983 0.50887 0.1741 0.0
C166 C 0.2625 0.51542 0.16192 0.0
C167 C 0.25408 0.52824 0.19811 0.0
C168 C 0.25221 0.50913 0.11276 0.0
C169 C 0.2478 0.52139 0.07764 0.0
C170 C 0.2429 0.49274 0.10811 0.0
C171 C 0.22845 0.48926 0.07168 0.0
C172 C 0.22302 0.50218 0.03955 0.0
C173 C 0.30734 0.51014 0.2361 0.0
C174 C 0.32088 0.52321 0.2491 0.0
C175 C 0.3108 0.49265 0.24578 0.0
C176 C 0.3271 0.48859 0.27101 0.0
C177 C 0.34026 0.50193 0.28667 0.0
C178 C 0.33712 0.51917 0.27389 0.0
C179 C 0.23342 0.51794 0.04135 0.0
H180 H 0.25889 0.58017 0.38713 0.0
H181 H 0.2758 0.562 0.31734 0.0
H182 H 0.22574 0.53362 0.26896 0.0
H183 H 0.20901 0.55217 0.33647 0.0
H184 H 0.28619 0.53266 0.29567 0.0
H185 H 0.24079 0.53324 0.18836 0.0
H186 H 0.28648 0.49898 0.14636 0.0
H187 H 0.25462 0.53421 0.08093 0.0
H188 H 0.24579 0.48324 0.13553 0.0
H189 H 0.22071 0.47702 0.0715 0.0
H190 H 0.31846 0.53684 0.24246 0.0
H191 H 0.30049 0.48239 0.23669 0.0
H192 H 0.22985 0.52803 0.01652 0.0
H193 H 0.34674 0.52986 0.28577 0.0
H194 H 0.32915 0.47512 0.27965 0.0
C195 C 0.04186 0.23389 0.35336 0.0
C196 C 0.05307 0.21909 0.3565 0.0
C197 C 0.04531 0.24539 0.31553 0.0
C198 C 0.05997 0.24228 0.27993 0.0
C199 C 0.07183 0.22814 0.28511 0.0
C200 C 0.06846 0.2167 0.3232 0.0
C201 C 0.06149 0.2525 0.234 0.0
C202 C 0.05902 0.27088 0.24028 0.0
C203 C 0.05789 0.28026 0.19604 0.0
C204 C 0.05917 0.27103 0.14458 0.0
C205 C 0.06182 0.25253 0.13802 0.0
C206 C 0.06327 0.2435 0.18282 0.0
C207 C 0.06062 0.24163 0.0858 0.0
C208 C 0.04332 0.23791 0.06284 0.0
C209 C 0.07564 0.23132 0.06673 0.0
C210 C 0.07316 0.21679 0.02776 0.0
C211 C 0.05556 0.21211 0.00819 0.0
C212 C 0.05447 0.29955 0.20561 0.0
C213 C 0.03861 0.30557 0.23302 0.0
C214 C 0.06829 0.31181 0.19677 0.0
C215 C 0.06677 0.32966 0.21826 0.0
C216 C 0.05136 0.33549 0.24868 0.0
C217 C 0.03702 0.32334 0.25412 0.0
C218 C 0.04078 0.22319 0.02459 0.0
H219 H 0.02978 0.23602 0.37791 0.0
H220 H 0.03581 0.25607 0.31205 0.0
H221 H 0.08337 0.2256 0.25854 0.0
H222 H 0.07758 0.20563 0.32537 0.0
H223 H 0.05766 0.27793 0.27986 0.0
H224 H 0.06444 0.22915 0.17755 0.0
H225 H 0.0576 0.27806 0.11018 0.0
H226 H 0.03149 0.24544 0.07777 0.0
H227 H 0.08902 0.23374 0.08475 0.0
H228 H 0.08475 0.2084 0.01611 0.0
H229 H 0.02787 0.29627 0.24077 0.0
H230 H 0.08074 0.30739 0.17627 0.0
H231 H 0.02708 0.21989 0.00997 0.0
H232 H 0.02506 0.32725 0.27777 0.0
H233 H 0.07797 0.33872 0.21289 0.0
C234 C 0.27692 0.02916 0.38216 0.0
C235 C 0.29288 0.03964 0.38188 0.0
C236 C 0.26562 0.02657 0.33767 0.0
C237 C 0.27001 0.03438 0.29182 0.0
C238 C 0.28514 0.04598 0.29292 0.0
C239 C 0.29645 0.04864 0.33764 0.0
C240 C 0.26005 0.02867 0.24171 0.0
C241 C 0.24109 0.02596 0.24213 0.0
C242 C 0.23188 0.01759 0.19739 0.0
C243 C 0.24182 0.01228 0.15047 0.0
C244 C 0.26091 0.0155 0.14915 0.0
C245 C 0.26979 0.02367 0.19484 0.0
C246 C 0.27251 0.00964 0.10242 0.0
C247 C 0.285 0.99584 0.10539 0.0
C248 C 0.27421 0.02016 0.06086 0.0
C249 C 0.28872 0.01749 0.02452 0.0
C250 C 0.30187 0.00426 0.02911 0.0
C251 C 0.21226 0.01331 0.20438 0.0
C252 C 0.20743 0.99698 0.22144 0.0
C253 C 0.19953 0.02715 0.21033 0.0
C254 C 0.18285 0.02513 0.2363 0.0
C255 C 0.17864 0.0093 0.25773 0.0
C256 C 0.19079 0.99497 0.24777 0.0
C257 C 0.29944 0.99312 0.0691 0.0
H258 H 0.27387 0.0218 0.4151 0.0
H259 H 0.25418 0.01738 0.33794 0.0
H260 H 0.28866 0.05241 0.25841 0.0
H261 H 0.3085 0.05703 0.33656 0.0
H262 H 0.23348 0.0297 0.2784 0.0
H263 H 0.28456 0.02537 0.19443 0.0
H264 H 0.2349 0.00545 0.11604 0.0
H265 H 0.28423 0.98782 0.13784 0.0
H266 H 0.26498 0.03113 0.05841 0.0
H267 H 0.28998 0.02619 0.99389 0.0
H268 H 0.21723 0.98628 0.2187 0.0
H269 H 0.20309 0.04 0.19853 0.0
H270 H 0.30933 0.98295 0.07454 0.0
H271 H 0.18817 0.98262 0.26389 0.0
H272 H 0.17369 0.03634 0.24207 0.0
C273 C 0.46868 0.26 0.17623 0.0
C274 C 0.48233 0.27008 0.15397 0.0
C275 C 0.47315 0.24912 0.21517 0.0
C276 C 0.49133 0.24818 0.23248 0.0
C277 C 0.5051 0.25715 0.20746 0.0
C278 C 0.50067 0.26796 0.16875 0.0
C279 C 0.49565 0.24105 0.28276 0.0
C280 C 0.4922 0.22327 0.29058 0.0
C281 C 0.49702 0.21718 0.33908 0.0
C282 C 0.50455 0.22929 0.38002 0.0
C283 C 0.5079 0.24699 0.37257 0.0
C284 C 0.50346 0.2527 0.32387 0.0
C285 C 0.51574 0.25978 0.41564 0.0
C286 C 0.50876 0.26083 0.46746 0.0
C287 C 0.52948 0.27183 0.40425 0.0
C288 C 0.5354 0.28526 0.44303 0.0
C289 C 0.52773 0.28694 0.49412 0.0
C290 C 0.49468 0.19827 0.34809 0.0
C291 C 0.47846 0.18872 0.33375 0.0
C292 C 0.5084 0.19007 0.37519 0.0
C293 C 0.50551 0.17331 0.39089 0.0
C294 C 0.48896 0.16416 0.37923 0.0
C295 C 0.47565 0.17173 0.34909 0.0
C296 C 0.51467 0.27431 0.50632 0.0
H297 H 0.45445 0.26109 0.1652 0.0
H298 H 0.46229 0.24243 0.23421 0.0
H299 H 0.51921 0.25668 0.22038 0.0
H300 H 0.51158 0.27559 0.1532 0.0
H301 H 0.48638 0.21416 0.25865 0.0
H302 H 0.50567 0.26651 0.31824 0.0
H303 H 0.50793 0.22491 0.41787 0.0
H304 H 0.49813 0.25173 0.47733 0.0
H305 H 0.53529 0.27117 0.36483 0.0
H306 H 0.54534 0.29485 0.43209 0.0
H307 H 0.46765 0.19467 0.3129 0.0
H308 H 0.52126 0.19684 0.38556 0.0
H309 H 0.50864 0.27516 0.5455 0.0
H310 H 0.46277 0.16487 0.33955 0.0
H311 H 0.51613 0.16761 0.41318 0.0
Tb312 Tb 1.00046 0.00516 0.70044 0.0
Tb313 Tb 0.03122 0.9911 0.77921 0.0
C314 C 0.98954 0.9953 0.81283 0.0
C315 C 0.98128 0.0361 0.62055 0.0
C316 C 0.98634 0.07031 0.59077 0.0
C317 C 0.9698 0.06097 0.57898 0.0
C318 C 0.96724 0.04395 0.59416 0.0
C319 C 0.99785 0.0453 0.63135 0.0
C320 C 1.00036 0.06221 0.61672 0.0
C321 C 0.97885 0.01882 0.64004 0.0
O322 O 0.00929 0.02812 0.75444 0.0
O323 O 0.03755 0.01919 0.78036 0.0
O324 O 0.0436 0.9894 0.70062 0.0
O325 O 0.02704 0.01089 0.66733 0.0
O326 O 0.04411 0.99221 0.85358 0.0
O327 O 0.05234 0.97316 0.78812 0.0
O328 O 0.01334 0.9686 0.75452 0.0
O329 O 1.00301 0.97676 0.67584 0.0
O330 O 0.98463 0.99488 0.76288 0.0
O331 O 1.00681 0.99705 0.82753 0.0
C332 C 0.02557 0.03169 0.77526 0.0
O333 O 0.99097 0.00694 0.62314 0.0
O334 O 0.97659 0.01971 0.69118 0.0
C335 C 0.04137 0.00056 0.66555 0.0
C336 C 0.05023 0.96304 0.87068 0.0
C337 C 0.0432 0.93158 0.91567 0.0
C338 C 0.06117 0.93608 0.90198 0.0
C339 C 0.06465 0.95173 0.87962 0.0
C340 C 0.03236 0.95881 0.88559 0.0
C341 C 0.02889 0.94328 0.90816 0.0
C342 C 0.05326 0.97775 0.83912 0.0
C343 C 1.00611 0.96455 0.70725 0.0
H344 H 0.95879 0.06693 0.55891 0.0
H345 H 0.95432 0.03703 0.58583 0.0
H346 H 0.00885 0.03948 0.65173 0.0
H347 H 0.01338 0.06889 0.62536 0.0
H348 H 0.07246 0.92736 0.90772 0.0
H349 H 0.07847 0.95468 0.8676 0.0
H350 H 0.02096 0.96717 0.87785 0.0
H351 H 0.01488 0.94004 0.91756 0.0
Tb352 Tb 0.50707 0.97756 0.69172 0.0
Tb353 Tb 0.52 0.01167 0.7748 0.0
C354 C 0.52604 0.97331 0.80071 0.0
C355 C 0.47379 0.9497 0.61651 0.0
C356 C 0.43657 0.95609 0.5979 0.0
C357 C 0.44217 0.95096 0.64664 0.0
C358 C 0.46061 0.94782 0.65593 0.0
C359 C 0.46789 0.95282 0.56589 0.0
C360 C 0.44944 0.95605 0.55667 0.0
C361 C 0.49333 0.95224 0.63083 0.0
O362 O 0.48196 0.98913 0.72642 0.0
O363 O 0.49375 0.00297 0.80449 0.0
O364 O 0.50134 0.02137 0.71877 0.0
O365 O 0.5074 0.00067 0.64856 0.0
O366 O 0.52453 0.0242 0.85205 0.0
O367 O 0.52853 0.03833 0.78396 0.0
O368 O 0.54222 0.00679 0.71716 0.0
O369 O 0.53672 0.97766 0.68336 0.0
O370 O 0.51269 0.9682 0.76762 0.0
O371 O 0.5336 0.98909 0.80187 0.0
C372 C 0.47977 0.99625 0.7758 0.0
O373 O 0.50122 0.96596 0.614 0.0
O374 O 0.49754 0.95116 0.68014 0.0
C375 C 0.50177 0.01652 0.66756 0.0
C376 C 0.54861 0.04527 0.85522 0.0
C377 C 0.58335 0.05825 0.88922 0.0
C378 C 0.5694 0.07006 0.87958 0.0
C379 C 0.55211 0.06359 0.86286 0.0
C380 C 0.56258 0.03343 0.86419 0.0
C381 C 0.57979 0.03988 0.88137 0.0
C382 C 0.5307 0.03868 0.83497 0.0
C383 C 0.54751 0.99175 0.69018 0.0
H384 H 0.43248 0.95052 0.67877 0.0
H385 H 0.46461 0.94526 0.69534 0.0
H386 H 0.47775 0.95428 0.53478 0.0
H387 H 0.44558 0.95997 0.51863 0.0
H388 H 0.5718 0.08427 0.88557 0.0
H389 H 0.5415 0.07288 0.85552 0.0
H390 H 0.56025 0.01922 0.85752 0.0
H391 H 0.5904 0.0305 0.88781 0.0
Tb392 Tb 0.49822 0.49273 0.78273 0.0
Tb393 Tb 0.52746 0.50514 0.69537 0.0
C394 C 0.48605 0.49769 0.6682 0.0
C395 C 0.47579 0.46401 0.87101 0.0
C396 C 0.47383 0.4313 0.91367 0.0
C397 C 0.46561 0.44664 0.94005 0.0
C398 C 0.46656 0.46282 0.91881 0.0
C399 C 0.48419 0.44885 0.84486 0.0
C400 C 0.48313 0.43266 0.86572 0.0
C401 C 0.47667 0.481 0.84845 0.0
O402 O 0.50628 0.46903 0.73167 0.0
O403 O 0.53422 0.47765 0.70109 0.0
O404 O 0.5398 0.51032 0.7741 0.0
O405 O 0.52552 0.48829 0.81246 0.0
O406 O 0.53484 0.50732 0.61634 0.0
O407 O 0.5523 0.51791 0.68079 0.0
O408 O 0.51014 0.52769 0.71864 0.0
O409 O 0.50184 0.52137 0.8015 0.0
O410 O 0.48209 0.50149 0.71874 0.0
O411 O 0.50302 0.49456 0.65277 0.0
C412 C 0.5224 0.46524 0.71046 0.0
O413 O 0.49081 0.49113 0.8622 0.0
O414 O 0.47345 0.48004 0.7977 0.0
C415 C 0.53919 0.49954 0.8108 0.0
C416 C 0.55038 0.53427 0.60846 0.0
C417 C 0.55357 0.56775 0.57113 0.0
C418 C 0.56851 0.55608 0.56831 0.0
C419 C 0.56692 0.5395 0.58686 0.0
C420 C 0.53541 0.54581 0.61133 0.0
C421 C 0.53697 0.56238 0.59279 0.0
C422 C 0.54912 0.51718 0.63022 0.0
C423 C 0.50446 0.53277 0.76701 0.0
H424 H 0.45862 0.44622 0.97747 0.0
H425 H 0.4601 0.47441 0.93977 0.0
H426 H 0.49147 0.4495 0.80804 0.0
H427 H 0.4894 0.42116 0.84376 0.0
H428 H 0.58157 0.55986 0.55265 0.0
H429 H 0.57868 0.53084 0.58486 0.0
H430 H 0.52252 0.54203 0.62806 0.0
H431 H 0.52511 0.5709 0.595 0.0
Tb432 Tb 0.0169 0.51414 0.71905 0.0
Tb433 Tb 1.00497 0.47999 0.77951 0.0
C434 C 1.00121 0.51857 0.83272 0.0
C435 C 0.04478 0.54884 0.66602 0.0
C436 C 0.07897 0.56453 0.64884 0.0
C437 C 0.06269 0.57233 0.63366 0.0
C438 C 0.04571 0.56455 0.64236 0.0
C439 C 0.06094 0.541 0.68127 0.0
C440 C 0.07791 0.54881 0.67287 0.0
C441 C 0.02693 0.54106 0.67662 0.0
O442 O 0.03994 0.51028 0.7709 0.0
O443 O 0.0347 0.48146 0.78702 0.0
O444 O 1.00693 0.47109 0.69525 0.0
O445 O 0.02902 0.49066 0.67524 0.0
O446 O 0.99097 0.47003 0.84158 0.0
O447 O 1.00662 0.45261 0.78538 0.0
O448 O 0.97929 0.48945 0.74925 0.0
O449 O 0.99025 0.50605 0.68557 0.0
O450 O 0.9991 0.52319 0.78508 0.0
O451 O 0.00777 0.50296 0.83901 0.0
C452 C 0.04542 0.49553 0.78812 0.0
O453 O 0.02311 0.52569 0.64993 0.0
O454 O 0.0229 0.54136 0.72665 0.0
C455 C 0.02027 0.47545 0.66462 0.0
C456 C 0.97984 0.44097 0.8205 0.0
C457 C 0.9488 0.41894 0.82534 0.0
C458 C 0.96558 0.41452 0.84744 0.0
C459 C 0.98095 0.4255 0.8452 0.0
C460 C 0.96353 0.44485 0.79532 0.0
C461 C 0.94811 0.43395 0.79783 0.0
C462 C 0.99521 0.45364 0.82504 0.0
C463 C 0.97677 0.49789 0.70743 0.0
H464 H 0.0631 0.5845 0.61535 0.0
H465 H 0.03331 0.57082 0.63078 0.0
H466 H 0.06041 0.52885 0.69959 0.0
H467 H 0.09021 0.54234 0.68419 0.0
H468 H 0.96666 0.4029 0.86813 0.0
H469 H 0.99351 0.42227 0.86447 0.0
H470 H 0.96248 0.45673 0.77582 0.0
H471 H 0.9354 0.43789 0.78086 0.0
H472 H 0.1554 0.98102 0.26896 0.0
H473 H 0.13155 0.97922 0.33598 0.0
H474 H 0.14215 0.03374 0.39822 0.0
H475 H 0.16638 0.03548 0.33301 0.0
H476 H 0.14069 0.01221 0.47646 0.0
H477 H 0.08011 0.99962 0.34495 0.0
H478 H 0.09843 0.98422 0.32988 0.0
H479 H 0.10181 0.00722 0.32165 0.0
C480 C 0.15263 0.99267 0.29675 0.0
C481 C 0.16283 0.00844 0.29502 0.0
C482 C 0.13883 0.99166 0.3348 0.0
C483 C 0.13484 0.00642 0.37188 0.0
C484 C 0.14485 0.0222 0.36991 0.0
H485 H 0.0415 0.02204 0.58595 0.0
H486 H 0.06421 0.02329 0.5156 0.0
C487 C 0.15862 0.02322 0.33204 0.0
C488 C 0.12089 0.0053 0.41439 0.0
H489 H 0.07553 0.99715 0.43637 0.0
C490 C 0.12644 0.00893 0.46763 0.0
C491 C 0.10223 0.00121 0.40304 0.0
C492 C 0.0952 0.998 0.34681 0.0
C493 C 0.11396 0.00845 0.50964 0.0
C494 C 0.09539 0.00392 0.49835 0.0
C495 C 0.08978 0.00046 0.44512 0.0
C496 C 0.08155 0.003 0.54121 0.0
C497 C 0.12071 0.01318 0.56578 0.0
C498 C 0.08358 0.99105 0.57892 0.0
C499 C 0.07064 0.99032 0.61938 0.0
C500 C 0.05526 0.00147 0.62292 0.0
C501 C 0.05317 0.0133 0.58472 0.0
C502 C 0.06614 0.01401 0.54429 0.0
H503 H 0.13383 0.02076 0.56715 0.0
H504 H 0.11044 0.02118 0.59023 0.0
H505 H 0.12308 0.00081 0.58392 0.0
H506 H 0.09515 0.98216 0.57687 0.0
H507 H 0.07266 0.98095 0.64774 0.0
H508 H 0.47852 0.1318 0.32707 0.0
H509 H 0.4756 0.10352 0.36523 0.0
H510 H 0.48863 0.13064 0.51997 0.0
H511 H 0.49176 0.15866 0.48222 0.0
H512 H 0.50668 0.08961 0.4294 0.0
H513 H 0.44084 0.09931 0.53776 0.0
H514 H 0.44642 0.11051 0.48083 0.0
H515 H 0.45616 0.11815 0.54454 0.0
C516 C 0.48049 0.13168 0.36929 0.0
C517 C 0.48545 0.14733 0.40174 0.0
C518 C 0.47887 0.11558 0.39096 0.0
C519 C 0.48177 0.11508 0.44544 0.0
C520 C 0.48616 0.1308 0.47796 0.0
H521 H 0.49497 0.05182 0.69278 0.0
H522 H 0.48844 0.07365 0.6326 0.0
C523 C 0.48804 0.14675 0.45632 0.0
C524 C 0.48162 0.09809 0.46861 0.0
H525 H 0.46064 0.07708 0.56392 0.0
C526 C 0.49644 0.08659 0.458 0.0
C527 C 0.46829 0.09436 0.50608 0.0
C528 C 0.45192 0.10613 0.51785 0.0
C529 C 0.49891 0.072 0.48641 0.0
C530 C 0.48592 0.06862 0.52551 0.0
C531 C 0.4706 0.07967 0.53406 0.0
C532 C 0.48886 0.05483 0.56143 0.0
C533 C 0.51601 0.06107 0.47665 0.0
C534 C 0.49094 0.03686 0.54165 0.0
C535 C 0.49489 0.0243 0.57609 0.0
C536 C 0.49657 0.02946 0.631 0.0
C537 C 0.49381 0.04735 0.65076 0.0
C538 C 0.49003 0.05988 0.61636 0.0
H539 H 0.52644 0.06778 0.454 0.0
H540 H 0.52222 0.0583 0.51467 0.0
H541 H 0.51243 0.04819 0.45327 0.0
H542 H 0.48966 0.03256 0.49958 0.0
H543 H 0.49674 0.01059 0.55964 0.0
H544 H 0.37542 0.51483 0.28089 0.0
H545 H 0.40068 0.51236 0.34277 0.0
H546 H 0.36716 0.47902 0.43023 0.0
H547 H 0.34172 0.48162 0.36904 0.0
H548 H 0.39956 0.52356 0.45211 0.0
H549 H 0.41577 0.45186 0.41268 0.0
H550 H 0.40256 0.46324 0.36725 0.0
H551 H 0.39202 0.45661 0.42575 0.0
C552 C 0.37342 0.50687 0.31306 0.0
C553 C 0.35645 0.49847 0.3199 0.0
C554 C 0.38792 0.50543 0.34834 0.0
C555 C 0.38589 0.49542 0.39101 0.0
C556 C 0.36918 0.48656 0.39709 0.0
H557 H 0.44977 0.50598 0.68355 0.0
H558 H 0.42558 0.50526 0.61652 0.0
C559 C 0.35464 0.48803 0.36188 0.0
C560 C 0.4008 0.49526 0.431 0.0
H561 H 0.43004 0.46808 0.48786 0.0
C562 C 0.40625 0.51143 0.45981 0.0
C563 C 0.40963 0.47946 0.44082 0.0
C564 C 0.40485 0.4618 0.40974 0.0
C565 C 0.42008 0.5122 0.4986 0.0
C566 C 0.42861 0.49635 0.50933 0.0
C567 C 0.42337 0.4802 0.47997 0.0
C568 C 0.44319 0.49637 0.55031 0.0
C569 C 0.42565 0.53002 0.52729 0.0
C570 C 0.46108 0.49128 0.53559 0.0
C571 C 0.47497 0.49169 0.57381 0.0
C572 C 0.47122 0.49705 0.62775 0.0
C573 C 0.45319 0.50185 0.64245 0.0
C574 C 0.43934 0.50151 0.60413 0.0
H575 H 0.42082 0.54114 0.50636 0.0
H576 H 0.41958 0.53156 0.56762 0.0
H577 H 0.44077 0.53105 0.5316 0.0
H578 H 0.46436 0.4872 0.49434 0.0
H579 H 0.48865 0.48783 0.56098 0.0
H580 H 0.02222 0.35813 0.26505 0.0
H581 H 0.02028 0.38485 0.32887 0.0
H582 H 0.07747 0.38032 0.36687 0.0
H583 H 0.07938 0.35324 0.30445 0.0
H584 H 0.05603 0.38295 0.45439 0.0
H585 H 0.03769 0.43592 0.33265 0.0
H586 H 0.02287 0.41686 0.32074 0.0
H587 H 0.04678 0.41485 0.30413 0.0
C588 C 0.03446 0.36295 0.2864 0.0
C589 C 0.05094 0.35346 0.2797 0.0
C590 C 0.03338 0.37837 0.32251 0.0
C591 C 0.04877 0.38472 0.35237 0.0
C592 C 0.06544 0.37573 0.34403 0.0
H593 H 0.04602 0.47998 0.58819 0.0
H594 H 0.05449 0.45869 0.51167 0.0
C595 C 0.06654 0.36031 0.30796 0.0
C596 C 0.04694 0.39943 0.39631 0.0
H597 H 0.03176 0.44193 0.42632 0.0
C598 C 0.05096 0.39592 0.44809 0.0
C599 C 0.04048 0.41642 0.38818 0.0
C600 C 0.03688 0.42132 0.33335 0.0
C601 C 0.04799 0.40865 0.49204 0.0
C602 C 0.04055 0.42527 0.48417 0.0
C603 C 0.03727 0.4291 0.43231 0.0
C604 C 0.03526 0.43841 0.5296 0.0
C605 C 0.05269 0.40414 0.54667 0.0
C606 C 0.02147 0.43416 0.56446 0.0
C607 C 0.0166 0.44623 0.608 0.0
C608 C 0.02539 0.46289 0.61762 0.0
C609 C 0.03904 0.46725 0.58212 0.0
C610 C 0.04387 0.45513 0.53832 0.0
H611 H 0.06274 0.39317 0.54492 0.0
H612 H 0.05842 0.41587 0.57189 0.0
H613 H 0.04007 0.39978 0.56594 0.0
H614 H 0.01444 0.42144 0.55797 0.0
H615 H 1.00597 0.44242 0.63425 0.0
H616 H 0.84805 0.96987 0.0985 0.0
H617 H 0.87349 0.96946 0.03603 0.0
H618 H 0.90706 0.99884 0.15625 0.0
H619 H 0.88192 0.99879 0.21995 0.0
H620 H 0.90358 0.01356 0.05314 0.0
H621 H 0.92419 0.9427 0.03231 0.0
H622 H 0.90004 0.94697 0.02876 0.0
H623 H 0.91213 0.95312 0.08982 0.0
C624 C 0.86097 0.9758 0.11245 0.0
C625 C 0.86279 0.98437 0.16468 0.0
C626 C 0.8755 0.97565 0.07636 0.0
C627 C 0.89219 0.98409 0.09145 0.0
C628 C 0.89428 0.99226 0.14372 0.0
H629 H 0.99453 0.98906 0.91602 0.0
H630 H 0.97109 0.9862 0.98351 0.0
C631 C 0.87982 0.99228 0.18004 0.0
C632 C 0.907 0.98538 0.05175 0.0
H633 H 0.93775 0.96081 0.9729 0.0
C634 C 0.91109 0.00204 0.03572 0.0
C635 C 0.91682 0.97035 0.02917 0.0
C636 C 0.91324 0.95225 0.04597 0.0
C637 C 0.92451 0.00401 0.99705 0.0
C638 C 0.93412 0.98894 0.97383 0.0
C639 C 0.93028 0.97232 0.99052 0.0
C640 C 0.94826 0.99029 0.93231 0.0
C641 C 0.92844 0.0222 0.98133 0.0
C642 C 0.9432 0.99337 0.8809 0.0
C643 C 0.95656 0.99489 0.84201 0.0
C644 C 0.97529 0.99349 0.85386 0.0
C645 C 0.98028 0.99031 0.90545 0.0
C646 C 0.96689 0.98862 0.94412 0.0
H647 H 0.92187 0.03286 0.00857 0.0
H648 H 0.94344 0.02475 0.98087 0.0
H649 H 0.92317 0.02287 0.94064 0.0
H650 H 0.92889 0.99461 0.87087 0.0
H651 H 0.9522 0.99732 0.8028 0.0
H652 H 0.5663 0.86514 0.14978 0.0
H653 H 0.56011 0.89246 0.11029 0.0
H654 H 0.56736 0.86419 0.95406 0.0
H655 H 0.57333 0.83699 0.99275 0.0
H656 H 0.58535 0.89742 0.96872 0.0
H657 H 0.51235 0.90179 0.03179 0.0
H658 H 0.52904 0.90066 0.08333 0.0
H659 H 0.52562 0.88194 0.03382 0.0
C660 C 0.56652 0.86475 0.10702 0.0
C661 C 0.57039 0.84886 0.0745 0.0
C662 C 0.563 0.88037 0.08455 0.0
C663 C 0.56316 0.88032 0.02922 0.0
C664 C 0.56727 0.86456 0.99685 0.0
H665 H 0.5135 0.93972 0.80801 0.0
H666 H 0.52355 0.91921 0.86859 0.0
C667 C 0.57077 0.84902 0.01915 0.0
C668 C 0.55865 0.89641 0.00413 0.0
H669 H 0.52312 0.92322 0.97962 0.0
C670 C 0.57183 0.90325 0.9716 0.0
C671 C 0.54094 0.90385 0.00768 0.0
C672 C 0.52607 0.89667 0.04068 0.0
C673 C 0.56761 0.91696 0.9412 0.0
C674 C 0.54979 0.92417 0.94398 0.0
C675 C 0.53679 0.91772 0.97782 0.0
C676 C 0.54379 0.93712 0.90828 0.0
C677 C 0.58195 0.923 0.90437 0.0
C678 C 0.55178 0.9541 0.91063 0.0
C679 C 0.54609 0.96594 0.87571 0.0
C680 C 0.53226 0.96099 0.83805 0.0
C681 C 0.52421 0.94402 0.83636 0.0
C682 C 0.52989 0.93225 0.87111 0.0
H683 H 0.59382 0.91389 0.89977 0.0
H684 H 0.57602 0.92397 0.86457 0.0
H685 H 0.58707 0.93638 0.92058 0.0
H686 H 0.56235 0.95822 0.93956 0.0
H687 H 0.55251 0.97894 0.87831 0.0
H688 H 0.68147 0.52518 0.1153 0.0
H689 H 0.65468 0.52635 0.05799 0.0
H690 H 0.63305 0.47881 0.11285 0.0
H691 H 0.6599 0.47733 0.1696 0.0
H692 H 0.64472 0.49953 0.97597 0.0
H693 H 0.58852 0.51191 0.12257 0.0
H694 H 0.61232 0.51586 0.13996 0.0
H695 H 0.60311 0.49367 0.13257 0.0
C696 C 0.67096 0.51502 0.11555 0.0
C697 C 0.67294 0.50113 0.14716 0.0
C698 C 0.65561 0.51576 0.08285 0.0
C699 C 0.64176 0.50275 0.08134 0.0
C700 C 0.64337 0.48919 0.11404 0.0
H701 H 0.54404 0.47775 0.88835 0.0
H702 H 0.56889 0.47865 0.95341 0.0
C703 C 0.65875 0.4884 0.14666 0.0
C704 C 0.62639 0.50264 0.04271 0.0
H705 H 0.57976 0.50455 0.03247 0.0
C706 C 0.63052 0.50075 0.98833 0.0
C707 C 0.60785 0.50406 0.05881 0.0
C708 C 0.60261 0.50664 0.11665 0.0
C709 C 0.61666 0.49994 0.94963 0.0
C710 C 0.5981 0.5015 0.96566 0.0
C711 C 0.59396 0.50338 0.0201 0.0
C712 C 0.58283 0.50119 0.92651 0.0
C713 C 0.62204 0.49692 0.89188 0.0
C714 C 0.58218 0.51372 0.89012 0.0
C715 C 0.56805 0.51317 0.85263 0.0
C716 C 0.5541 0.5002 0.85101 0.0
C717 C 0.55456 0.48789 0.88824 0.0
C718 C 0.56876 0.4884 0.92559 0.0
H719 H 0.63586 0.49096 0.88655 0.0
H720 H 0.61203 0.48807 0.86843 0.0
H721 H 0.6224 0.50984 0.8756 0.0
H722 H 0.59259 0.524 0.89078 0.0
H723 H 0.56807 0.52298 0.82499 0.0
H724 H 0.94567 0.63462 0.22003 0.0
H725 H 0.94897 0.60704 0.15973 0.0
H726 H 1.00602 0.61956 0.13782 0.0
H727 H 1.00292 0.64665 0.19919 0.0
H728 H 0.9563 0.60363 0.05959 0.0
H729 H 0.01061 0.56858 0.15463 0.0
H730 H 0.99913 0.58757 0.18888 0.0
H731 H 0.01824 0.59051 0.14569 0.0
C732 C 0.95899 0.63123 0.20318 0.0
C733 C 0.97408 0.64268 0.21476 0.0
C734 C 0.96087 0.6155 0.16869 0.0
C735 C 0.97783 0.61099 0.14475 0.0
C736 C 0.99295 0.62234 0.157 0.0
H737 H 0.99575 0.5542 0.8364 0.0
H738 H 0.98889 0.57536 0.91383 0.0
C739 C 0.99115 0.63789 0.19204 0.0
C740 C 0.97939 0.59543 0.10328 0.0
H741 H 1.00669 0.56032 0.06015 0.0
C742 C 0.96716 0.594 0.06023 0.0
C743 C 0.99331 0.58259 0.10424 0.0
C744 C 1.00591 0.58228 0.1512 0.0
C745 C 0.96895 0.58066 0.0172 0.0
C746 C 0.98381 0.56875 0.01613 0.0
C747 C 0.99551 0.56963 0.06032 0.0
C748 C 0.98781 0.55573 0.96897 0.0
C749 C 0.95483 0.57948 0.97349 0.0
C750 C 0.99022 0.53768 0.97423 0.0
C751 C 0.99455 0.52556 0.93003 0.0
C752 C 0.99646 0.53126 0.87963 0.0
C753 C 0.99411 0.54933 0.8745 0.0
C754 C 0.99004 0.56145 0.91876 0.0
H755 H 0.94146 0.58485 0.98858 0.0
H756 H 0.95949 0.58755 0.94233 0.0
H757 H 0.95267 0.56558 0.95517 0.0
H758 H 0.98871 0.53294 0.01257 0.0
H759 H 0.9963 0.51173 0.93531 0.0
H760 H 0.05466 0.18316 0.33153 0.0
H761 H 0.04263 0.16036 0.38227 0.0
H762 H 0.02615 0.20064 0.50721 0.0
H763 H 0.03856 0.2237 0.4571 0.0
H764 H 0.05092 0.15333 0.48939 0.0
H765 H 0.97833 0.17187 0.45967 0.0
H766 H 0.99681 0.17903 0.41978 0.0
H767 H 0.99376 0.1893 0.48657 0.0
C768 C 0.04889 0.18722 0.37034 0.0
C769 C 0.04756 0.20528 0.39023 0.0
C770 C 0.04189 0.17416 0.39906 0.0
C771 C 0.0333 0.17888 0.44798 0.0
C772 C 0.03249 0.1968 0.46903 0.0
H773 H 1.00116 0.09909 0.65099 0.0
H774 H 0.01124 0.12703 0.6209 0.0
C775 C 0.03957 0.20992 0.44037 0.0
C776 C 0.02482 0.16491 0.47582 0.0
H777 H 0.98348 0.14742 0.50658 0.0
C778 C 0.03619 0.15211 0.49375 0.0
C779 C 1.0056 0.16333 0.48064 0.0
C780 C 0.99282 0.17651 0.46042 0.0
C781 C 0.02883 0.13756 0.51585 0.0
C782 C 0.0096 0.13594 0.52054 0.0
C783 C 0.99821 0.14884 0.50318 0.0
C784 C 1.00117 0.12035 0.54083 0.0
C785 C 0.04163 0.12371 0.53234 0.0
C786 C 0.99143 0.10778 0.5063 0.0
C787 C 0.98564 0.09181 0.52334 0.0
C788 C 0.98955 0.08824 0.57514 0.0
C789 C 0.99826 0.10138 0.61055 0.0
C790 C 1.00401 0.11732 0.59352 0.0
H791 H 0.05571 0.1252 0.51681 0.0
H792 H 0.04239 0.125 0.57627 0.0
H793 H 0.03648 0.11015 0.51816 0.0
H794 H 0.98909 0.10997 0.46547 0.0
H795 H 0.97902 0.08189 0.49522 0.0
H796 H 0.3297 0.03648 0.36729 0.0
H797 H 0.35178 0.02671 0.42888 0.0
H798 H 0.3105 0.02927 0.55088 0.0
H799 H 0.28816 0.03942 0.48935 0.0
H800 H 0.36499 0.03806 0.53425 0.0
H801 H 0.32319 0.97573 0.5175 0.0
H802 H 0.31971 0.99253 0.47407 0.0
H803 H 0.31202 0.99615 0.54159 0.0
C804 C 0.32541 0.03571 0.40776 0.0
C805 C 0.30706 0.03849 0.42315 0.0
C806 C 0.33806 0.03 0.4429 0.0
C807 C 0.33262 0.02692 0.49392 0.0
C808 C 0.31483 0.03129 0.51124 0.0
H809 H 0.41892 0.9793 0.67057 0.0
H810 H 0.39145 0.99627 0.65698 0.0
C811 C 0.30211 0.03706 0.47606 0.0
C812 C 0.34497 0.01695 0.52525 0.0
H813 H 0.35222 0.97501 0.55602 0.0
C814 C 0.3621 0.02441 0.5403 0.0
C815 C 0.34112 0.99907 0.53225 0.0
C816 C 0.32308 0.99026 0.51534 0.0
C817 C 0.37587 0.01418 0.55977 0.0
C818 C 0.37225 0.9961 0.56472 0.0
C819 C 0.35483 0.9889 0.55226 0.0
C820 C 0.38701 0.98403 0.57655 0.0
C821 C 0.39454 0.02244 0.57159 0.0
C822 C 0.39298 0.97091 0.53672 0.0
C823 C 0.40853 0.96099 0.5446 0.0
C824 C 0.4183 0.96403 0.59253 0.0
C825 C 0.41158 0.97646 0.63348 0.0
C826 C 0.39602 0.98634 0.6256 0.0
H827 H 0.39581 0.03577 0.55801 0.0
H828 H 0.397 0.02389 0.61502 0.0
H829 H 0.4054 0.0138 0.55222 0.0
H830 H 0.38609 0.9689 0.49865 0.0
H831 H 0.41327 0.9514 0.51257 0.0
H832 H 0.5037 0.3071 0.55709 0.0
H833 H 0.50947 0.33607 0.60734 0.0
H834 H 0.56672 0.33235 0.56635 0.0
H835 H 0.56111 0.30314 0.5161 0.0
H836 H 0.53449 0.34975 0.69142 0.0
H837 H 0.54797 0.37602 0.49922 0.0
H838 H 0.53766 0.35448 0.50235 0.0
H839 H 0.56174 0.35778 0.51441 0.0
C840 C 0.51763 0.31216 0.55997 0.0
C841 C 0.53192 0.3029 0.53212 0.0
C842 C 0.52088 0.32877 0.58857 0.0
C843 C 0.53844 0.33643 0.58974 0.0
C844 C 0.55301 0.32674 0.56512 0.0
H845 H 0.55525 0.4512 0.6742 0.0
H846 H 0.5626 0.41974 0.6516 0.0
C847 C 0.54977 0.3101 0.53641 0.0
C848 C 0.54088 0.35519 0.6122 0.0
H849 H 0.54619 0.39666 0.57513 0.0
C850 C 0.53734 0.36002 0.66626 0.0
C851 C 0.54466 0.36851 0.57918 0.0
C852 C 0.54812 0.36406 0.52048 0.0
C853 C 0.53683 0.37792 0.68788 0.0
C854 C 0.53957 0.39125 0.6542 0.0
C855 C 0.54409 0.38639 0.60079 0.0
C856 C 0.5358 0.41017 0.67181 0.0
C857 C 0.53302 0.38237 0.74634 0.0
C858 C 0.51825 0.41519 0.68988 0.0
C859 C 0.51399 0.43305 0.70256 0.0
C860 C 0.52717 0.44633 0.69701 0.0
C861 C 0.54478 0.4413 0.67885 0.0
C862 C 0.54903 0.42335 0.66617 0.0
H863 H 0.53763 0.37158 0.76903 0.0
H864 H 0.53991 0.39495 0.76272 0.0
H865 H 0.51804 0.38388 0.75245 0.0
H866 H 0.50765 0.40528 0.69293 0.0
H867 H 0.50024 0.4364 0.7159 0.0
H868 H 0.20028 0.58467 0.35978 0.0
H869 H 0.17946 0.59396 0.43254 0.0
H870 H 0.22045 0.58214 0.54522 0.0
H871 H 0.2413 0.57244 0.47193 0.0
H872 H 0.18977 0.56312 0.55189 0.0
H873 H 0.17007 0.63289 0.55127 0.0
H874 H 0.16906 0.62159 0.48517 0.0
H875 H 0.19073 0.62399 0.51953 0.0
C876 C 0.20506 0.5846 0.40016 0.0
C877 C 0.22227 0.57766 0.41033 0.0
C878 C 0.19323 0.59013 0.44182 0.0
C879 C 0.19844 0.58891 0.49446 0.0
C880 C 0.21623 0.58334 0.50493 0.0
H881 H 0.10902 0.56925 0.71385 0.0
H882 H 0.13981 0.57885 0.6904 0.0
C883 C 0.22813 0.57784 0.4631 0.0
C884 C 0.1841 0.58975 0.53589 0.0
H885 H 0.14589 0.61287 0.57771 0.0
C886 C 0.18049 0.57422 0.55913 0.0
C887 C 0.17202 0.60424 0.54527 0.0
C888 C 0.17581 0.62167 0.52435 0.0
C889 C 0.16419 0.57209 0.58685 0.0
C890 C 0.15135 0.58604 0.59232 0.0
C891 C 0.15569 0.60215 0.57307 0.0
C892 C 0.13244 0.58311 0.61043 0.0
C893 C 0.16016 0.55437 0.60595 0.0
C894 C 0.11799 0.58308 0.574 0.0
C895 C 0.10045 0.5777 0.58728 0.0
C896 C 0.09705 0.57221 0.63727 0.0
C897 C 0.11134 0.57312 0.6747 0.0
C898 C 0.12889 0.57863 0.66146 0.0
H899 H 0.17037 0.54415 0.59144 0.0
H900 H 0.16037 0.5559 0.64994 0.0
H901 H 0.14635 0.54944 0.59264 0.0
H902 H 0.12047 0.58643 0.53432 0.0
H903 H 0.08977 0.57703 0.55749 0.0
H904 H 0.03067 0.78006 0.09206 0.0
H905 H 0.03841 0.8052 0.04401 0.0
H906 H 0.98181 0.82096 0.0485 0.0
H907 H 0.97396 0.79597 0.09709 0.0
H908 H 1.00295 0.82456 0.94807 0.0
H909 H 0.03527 0.8556 0.13571 0.0
H910 H 0.04254 0.8335 0.11178 0.0
H911 H 0.01937 0.83718 0.13368 0.0
C912 C 0.01983 0.78872 0.08201 0.0
C913 C 1.00176 0.78622 0.09893 0.0
C914 C 0.02426 0.803 0.05451 0.0
C915 C 0.01071 0.81499 0.04355 0.0
C916 C 0.99243 0.8118 0.05674 0.0
H917 H 0.02085 0.92528 0.99766 0.0
H918 H 0.01273 0.89652 0.02609 0.0
C919 C 0.98797 0.7975 0.08429 0.0
C920 C 0.01588 0.83183 0.02382 0.0
H921 H 0.03749 0.8714 0.06157 0.0
C922 C 0.01056 0.83481 0.97263 0.0
C923 C 0.02554 0.8452 0.05655 0.0
C924 C 0.03093 0.84287 0.11267 0.0
C925 C 0.01487 0.85086 0.953 0.0
C926 C 0.02482 0.86408 0.98547 0.0
C927 C 0.02998 0.86113 0.03678 0.0
C928 C 0.02966 0.88132 0.96756 0.0
C929 C 0.00848 0.85373 0.89822 0.0
C930 C 0.04209 0.88222 0.92589 0.0
C931 C 0.04678 0.89861 0.90969 0.0
C932 C 0.03911 0.91434 0.93497 0.0
C933 C 0.02684 0.91337 0.97719 0.0
C934 C 0.02223 0.89699 0.99349 0.0
H935 H 0.99788 0.84383 0.88275 0.0
H936 H 1.0028 0.86725 0.89834 0.0
H937 H 0.02031 0.85248 0.87065 0.0
H938 H 0.04817 0.87026 0.906 0.0
H939 H 0.05612 0.89895 0.87668 0.0
H940 H 0.72753 0.03199 0.03364 0.0
H941 H 0.70489 0.04465 0.97984 0.0
H942 H 0.71656 0.09684 0.06101 0.0
H943 H 0.73936 0.08407 0.11587 0.0
H944 H 0.68195 0.08924 0.06837 0.0
H945 H 0.69988 0.07284 0.85856 0.0
H946 H 0.70228 0.05315 0.89015 0.0
H947 H 0.71664 0.07226 0.91071 0.0
C948 C 0.72585 0.04625 0.03875 0.0
C949 C 0.73517 0.05702 0.07921 0.0
C950 C 0.71292 0.05354 0.00758 0.0
C951 C 0.70918 0.07177 0.01569 0.0
C952 C 0.71932 0.08276 0.05378 0.0
H953 H 0.60478 0.08335 0.8495 0.0
H954 H 0.63583 0.093 0.87834 0.0
C955 C 0.73224 0.07544 0.0853 0.0
C956 C 0.6924 0.07831 0.99193 0.0
H957 H 0.66658 0.07064 0.87949 0.0
C958 C 0.67882 0.08578 0.02663 0.0
C959 C 0.68828 0.07424 0.93734 0.0
C960 C 0.70268 0.06787 0.89714 0.0
C961 C 0.66072 0.08714 0.00946 0.0
C962 C 0.65613 0.0806 0.95665 0.0
C963 C 0.67008 0.07526 0.92039 0.0
C964 C 0.63697 0.07621 0.94123 0.0
C965 C 0.64645 0.09444 0.04891 0.0
C966 C 0.62751 0.06351 0.96683 0.0
C967 C 0.60999 0.05794 0.95039 0.0
C968 C 0.60159 0.06494 0.90791 0.0
C969 C 0.61093 0.07788 0.88269 0.0
C970 C 0.62862 0.08336 0.89896 0.0
H971 H 0.65255 0.1044 0.07979 0.0
H972 H 0.63507 0.10069 0.02912 0.0
H973 H 0.64071 0.08346 0.06915 0.0
H974 H 0.63389 0.05754 0.9988 0.0
H975 H 0.60304 0.04805 0.97071 0.0
H976 H 0.55203 0.67224 0.01813 0.0
H977 H 0.53838 0.6456 0.96968 0.0
H978 H 0.52726 0.67436 0.83704 0.0
H979 H 0.54116 0.70126 0.88535 0.0
H980 H 0.49974 0.64345 0.92053 0.0
H981 H 0.55806 0.62759 0.78142 0.0
H982 H 0.56139 0.6409 0.84467 0.0
H983 H 0.54957 0.64996 0.79242 0.0
C984 C 0.5469 0.67288 0.97839 0.0
C985 C 0.54786 0.68878 0.95525 0.0
C986 C 0.53896 0.65771 0.95103 0.0
C987 C 0.53189 0.65809 0.89995 0.0
C988 C 0.53272 0.67388 0.8765 0.0
H989 H 0.50317 0.55934 0.70372 0.0
H990 H 0.50588 0.59119 0.73126 0.0
C991 C 0.5406 0.68919 0.90409 0.0
C992 C 0.5239 0.64168 0.87168 0.0
H993 H 0.53481 0.60615 0.78249 0.0
C994 C 0.50721 0.63538 0.88967 0.0
C995 C 0.53366 0.63135 0.83131 0.0
C996 C 0.55171 0.63765 0.81109 0.0
C997 C 0.50031 0.61859 0.86958 0.0
C998 C 0.51067 0.60772 0.83164 0.0
C999 C 0.5269 0.61447 0.81172 0.0
C1000 C 0.50591 0.58883 0.81531 0.0
C1001 C 0.48213 0.6126 0.8897 0.0
C1002 C 0.50463 0.57692 0.85346 0.0
C1003 C 0.50296 0.55868 0.83786 0.0
C1004 C 0.50286 0.55202 0.7838 0.0
C1005 C 0.50332 0.56403 0.74572 0.0
C1006 C 0.50485 0.58226 0.76136 0.0
H1007 H 0.47321 0.62412 0.90245 0.0
H1008 H 0.4748 0.60352 0.85898 0.0
H1009 H 0.48447 0.60548 0.92475 0.0
H1010 H 0.50589 0.58162 0.8953 0.0
H1011 H 0.5028 0.54977 0.86812 0.0
H1012 H 0.82611 0.41216 0.11435 0.0
H1013 H 0.84879 0.40124 0.04829 0.0
H1014 H 0.80781 0.39924 0.92534 0.0
H1015 H 0.78491 0.41034 0.99154 0.0
H1016 H 0.85288 0.37216 0.96759 0.0
H1017 H 0.8445 0.43672 0.88643 0.0
H1018 H 0.83442 0.43263 0.94864 0.0
H1019 H 0.82456 0.4227 0.8872 0.0
C1020 C 0.82174 0.40889 0.07355 0.0
C1021 C 0.80378 0.41233 0.05803 0.0
C1022 C 0.83475 0.40267 0.03577 0.0
C1023 C 0.83004 0.39975 0.98185 0.0
C1024 C 0.81177 0.40173 0.96668 0.0
H1025 H 0.9195 0.40999 0.75886 0.0
H1026 H 0.88921 0.39973 0.78421 0.0
C1027 C 0.79874 0.40808 0.00448 0.0
C1028 C 0.84485 0.397 0.942 0.0
H1029 H 0.86964 0.41962 0.85782 0.0
C1030 C 0.85636 0.38232 0.9426 0.0
C1031 C 0.84929 0.41024 0.9092 0.0
C1032 C 0.83766 0.42654 0.90777 0.0
C1033 C 0.87279 0.38107 0.91374 0.0
C1034 C 0.87791 0.39501 0.88436 0.0
C1035 C 0.86568 0.40894 0.88038 0.0
C1036 C 0.89687 0.39717 0.86522 0.0
C1037 C 0.88481 0.36518 0.91659 0.0
C1038 C 0.9113 0.39879 0.902 0.0
C1039 C 0.92851 0.40477 0.88784 0.0
C1040 C 0.93165 0.40939 0.8366 0.0
C1041 C 0.91747 0.40675 0.79882 0.0
C1042 C 0.9002 0.40076 0.8131 0.0
H1043 H 0.87645 0.3532 0.92169 0.0
H1044 H 0.89336 0.36237 0.88044 0.0
H1045 H 0.894 0.36777 0.95154 0.0
H1046 H 0.90896 0.39665 0.94286 0.0
H1047 H 0.93894 0.40695 0.91829 0.0
H1048 H 0.07293 0.1976 0.91744 0.0
H1049 H 0.06817 0.16781 0.86934 0.0
H1050 H 0.02732 0.15682 0.98408 0.0
H1051 H 0.03137 0.18671 0.03011 0.0
H1052 H 0.07357 0.1365 0.89481 0.0
H1053 H 0.99968 0.14037 0.85404 0.0
H1054 H 0.013 0.15967 0.87927 0.0
H1055 H 1.00375 0.14505 0.92385 0.0
C1056 C 0.06271 0.18887 0.93162 0.0
C1057 C 0.05224 0.19456 0.9768 0.0
C1058 C 0.06004 0.17184 0.90432 0.0
C1059 C 0.04704 0.1601 0.92218 0.0
C1060 C 0.03689 0.16575 0.96804 0.0
H1061 H 0.04861 0.0448 0.85608 0.0
H1062 H 0.05457 0.076 0.88902 0.0
C1063 C 0.03927 0.18284 0.99455 0.0
C1064 C 0.04461 0.14172 0.89461 0.0
H1065 H 0.01199 0.11097 0.85005 0.0
C1066 C 0.06011 0.131 0.88435 0.0
C1067 C 0.02712 0.13451 0.87974 0.0
C1068 C 0.01 0.1456 0.88425 0.0
C1069 C 0.05856 0.11322 0.86133 0.0
C1070 C 0.04095 0.10564 0.8503 0.0
C1071 C 0.02551 0.11654 0.85914 0.0
C1072 C 0.03803 0.08656 0.8294 0.0
C1073 C 0.07591 0.10297 0.84819 0.0
C1074 C 0.02625 0.0819 0.78605 0.0
C1075 C 0.0223 0.0641 0.7686 0.0
C1076 C 0.03034 0.05047 0.79323 0.0
C1077 C 0.04241 0.05503 0.83587 0.0
C1078 C 0.04596 0.07289 0.85438 0.0
H1079 H 0.08748 0.11198 0.84097 0.0
H1080 H 0.07975 0.09591 0.88229 0.0
H1081 H 0.07415 0.09308 0.81255 0.0
H1082 H 0.01991 0.09207 0.76591 0.0
H1083 H 0.01294 0.06103 0.73565 0.0
H1084 H 0.32273 0.03137 0.99721 0.0
H1085 H 0.3518 0.02934 0.94936 0.0
H1086 H 0.34909 0.97227 0.93847 0.0
H1087 H 0.31989 0.97415 0.98601 0.0
H1088 H 0.3825 0.98535 0.9741 0.0
H1089 H 0.36326 0.01508 0.79341 0.0
H1090 H 0.35791 0.02891 0.85376 0.0
H1091 H 0.34646 0.00782 0.83848 0.0
C1092 C 0.32804 0.01834 0.9836 0.0
C1093 C 0.3188 0.00292 0.99549 0.0
C1094 C 0.34475 0.01721 0.95621 0.0
C1095 C 0.35263 0.00064 0.93964 0.0
C1096 C 0.34333 0.98522 0.95072 0.0
H1097 H 0.44766 0.9829 0.73012 0.0
H1098 H 0.41704 0.98342 0.76966 0.0
C1099 C 0.32662 0.98633 0.97811 0.0
C1100 C 0.37099 0.99944 0.91348 0.0
H1101 H 0.39521 0.01146 0.80789 0.0
C1102 C 0.38523 0.991 0.93762 0.0
C1103 C 0.37459 0.00658 0.86546 0.0
C1104 C 0.35972 0.01496 0.83591 0.0
C1105 C 0.40298 0.98985 0.91586 0.0
C1106 C 0.40677 0.99763 0.86902 0.0
C1107 C 0.39243 0.00569 0.84414 0.0
C1108 C 0.42548 0.99743 0.84508 0.0
C1109 C 0.41745 0.98007 0.9429 0.0
C1110 C 0.44048 0.0053 0.874 0.0
C1111 C 0.45805 0.00495 0.8516 0.0
C1112 C 0.46104 0.99684 0.79949 0.0
C1113 C 0.44593 0.98921 0.77034 0.0
C1114 C 0.42837 0.98953 0.79285 0.0
H1115 H 0.41128 0.9708 0.96874 0.0
H1116 H 0.42646 0.97241 0.91343 0.0
H1117 H 0.42606 0.9898 0.96822 0.0
H1118 H 0.43859 0.01182 0.91394 0.0
H1119 H 0.46928 0.01107 0.8752 0.0
H1120 H 0.50101 0.27988 0.06792 0.0
H1121 H 0.49641 0.30647 0.0244 0.0
H1122 H 0.44787 0.31855 0.11801 0.0
H1123 H 0.45296 0.29259 0.16403 0.0
H1124 H 0.4698 0.31898 0.96596 0.0
H1125 H 0.47764 0.36318 0.15564 0.0
H1126 H 0.48241 0.33977 0.15003 0.0
H1127 H 0.45917 0.34745 0.15583 0.0
C1128 C 0.48935 0.28818 0.07937 0.0
C1129 C 0.47757 0.2842 0.1203 0.0
C1130 C 0.48666 0.30334 0.05413 0.0
C1131 C 0.47209 0.31481 0.06897 0.0
C1132 C 0.45953 0.31019 0.10696 0.0
H1133 H 0.44502 0.41751 0.96592 0.0
H1134 H 0.44354 0.38915 1.00256 0.0
C1135 C 0.4623 0.29513 0.13265 0.0
C1136 C 0.47063 0.33192 0.04625 0.0
H1137 H 0.47064 0.37696 0.07964 0.0
C1138 C 0.46994 0.33164 0.99086 0.0
C1139 C 0.47092 0.3485 0.07873 0.0
C1140 C 0.47275 0.34982 0.1383 0.0
C1141 C 0.46955 0.34744 0.96717 0.0
C1142 C 0.46991 0.36393 0.99966 0.0
C1143 C 0.47027 0.36426 0.05494 0.0
C1144 C 0.47073 0.38101 0.97696 0.0
C1145 C 0.46878 0.34645 0.90754 0.0
C1146 C 0.48662 0.38591 0.95118 0.0
C1147 C 0.48766 0.40223 0.93097 0.0
C1148 C 0.47276 0.41398 0.93588 0.0
C1149 C 0.45685 0.40897 0.96197 0.0
C1150 C 0.45591 0.39269 0.98258 0.0
H1151 H 0.46498 0.33294 0.88863 0.0
H1152 H 0.45877 0.3561 0.89529 0.0
H1153 H 0.48244 0.34994 0.89245 0.0
H1154 H 0.49833 0.37719 0.94728 0.0
H1155 H 0.50027 0.40572 0.9122 0.0
H1156 H 0.19685 0.52727 0.0327 0.0
H1157 H 0.16746 0.52406 0.98646 0.0
H1158 H 0.17951 0.46946 0.93172 0.0
H1159 H 0.20921 0.47256 0.97794 0.0
H1160 H 0.16435 0.49416 0.85155 0.0
H1161 H 0.12376 0.49115 0.03567 0.0
H1162 H 0.14124 0.50812 0.03767 0.0
H1163 H 0.14767 0.4852 0.03086 0.0
C1164 C 0.19345 0.51462 0.0102 0.0
C1165 C 0.20551 0.50019 0.00879 0.0
C1166 C 0.17654 0.51279 0.98414 0.0
C1167 C 0.17127 0.49652 0.95588 0.0
C1168 C 0.18333 0.48213 0.95343 0.0
H1169 H 0.06064 0.46921 0.83876 0.0
H1170 H 0.09139 0.46848 0.87677 0.0
C1171 C 0.20025 0.4839 0.97999 0.0
C1172 C 0.15299 0.49464 0.92985 0.0
H1173 H 0.10716 0.49377 0.95701 0.0
C1174 C 0.15183 0.49395 0.87447 0.0
C1175 C 0.13671 0.49428 0.95984 0.0
C1176 C 0.13726 0.4946 0.01932 0.0
C1177 C 0.13476 0.49336 0.84845 0.0
C1178 C 0.11844 0.49355 0.87864 0.0
C1179 C 0.11965 0.49373 0.93389 0.0
C1180 C 0.09997 0.4938 0.85384 0.0
C1181 C 0.13429 0.4925 0.78882 0.0
C1182 C 0.09446 0.50836 0.82861 0.0
C1183 C 0.07683 0.50889 0.80709 0.0
C1184 C 0.06428 0.49484 0.8102 0.0
C1185 C 0.0699 0.48024 0.83536 0.0
C1186 C 0.08749 0.47979 0.85721 0.0
H1187 H 0.14762 0.4882 0.77072 0.0
H1188 H 0.12338 0.48322 0.77176 0.0
H1189 H 0.13126 0.50587 0.77778 0.0
H1190 H 0.10373 0.51947 0.82629 0.0
H1191 H 0.07303 0.52038 0.78823 0.0
H1192 H 0.95572 0.80874 0.49494 0.0
H1193 H 0.95821 0.83913 0.53891 0.0
H1194 H 0.00921 0.82649 0.61034 0.0
H1195 H 1.00665 0.79587 0.56762 0.0
H1196 H 0.96444 0.85422 0.65254 0.0
H1197 H 0.02054 0.86698 0.51335 0.0
H1198 H 1.00496 0.84833 0.50064 0.0
H1199 H 0.02305 0.84789 0.54831 0.0
C1200 C 0.9672 0.8122 0.52127 0.0
C1201 C 0.98106 0.79981 0.52735 0.0
C1202 C 0.96866 0.82965 0.54608 0.0
C1203 C 0.98402 0.8351 0.57717 0.0
C1204 C 0.99736 0.82258 0.58587 0.0
H1205 H 0.0079 0.93629 0.76457 0.0
H1206 H 1.00153 0.90507 0.73403 0.0
C1207 C 0.99589 0.8051 0.56131 0.0
C1208 C 0.98674 0.85412 0.59716 0.0
H1209 H 0.01301 0.89038 0.57928 0.0
C1210 C 0.97507 0.86215 0.63671 0.0
C1211 C 1.00045 0.86445 0.57578 0.0
C1212 C 0.01293 0.85659 0.53188 0.0
C1213 C 0.97695 0.88025 0.65603 0.0
C1214 C 0.99089 0.89049 0.63528 0.0
C1215 C 1.00238 0.88248 0.59525 0.0
C1216 C 0.99386 0.90956 0.65452 0.0
C1217 C 0.96385 0.88835 0.69787 0.0
C1218 C 0.99187 0.92246 0.61976 0.0
C1219 C 0.99552 0.94037 0.63703 0.0
C1220 C 1.00143 0.9457 0.6893 0.0
C1221 C 1.00333 0.93271 0.72407 0.0
C1222 C 0.9996 0.91483 0.70681 0.0
H1223 H 0.95148 0.87988 0.70077 0.0
H1224 H 0.97084 0.88991 0.73699 0.0
H1225 H 0.95948 0.90169 0.68937 0.0
H1226 H 0.98756 0.91865 0.57912 0.0
H1227 H 0.99396 0.94998 0.60916 0.0
H1228 H 0.71223 0.01295 0.52021 0.0
H1229 H 0.68305 0.01111 0.56646 0.0
H1230 H 0.66657 0.96677 0.45378 0.0
H1231 H 0.69552 0.96879 0.40617 0.0
H1232 H 0.64744 0.01413 0.51707 0.0
H1233 H 0.65508 0.95043 0.6019 0.0
H1234 H 0.67448 0.96283 0.58113 0.0
H1235 H 0.66035 0.95003 0.53257 0.0
C1236 C 0.70246 0.00276 0.50509 0.0
C1237 C 0.70633 0.99109 0.459 0.0
C1238 C 0.68578 0.00168 0.53187 0.0
C1239 C 0.67262 0.98876 0.51384 0.0
C1240 C 0.67661 0.9767 0.46895 0.0
H1241 H 0.56161 0.96565 0.61726 0.0
H1242 H 0.59171 0.965 0.57462 0.0
C1243 C 0.69326 0.97784 0.44185 0.0
C1244 C 0.65434 0.98865 0.54008 0.0
H1245 H 0.62621 0.96428 0.61175 0.0
C1246 C 0.64282 0.00326 0.53795 0.0
C1247 C 0.64822 0.9744 0.56686 0.0
C1248 C 0.66017 0.95855 0.57128 0.0
C1249 C 0.6253 0.00392 0.56122 0.0
C1250 C 0.61926 0.98981 0.58896 0.0
C1251 C 0.63078 0.97514 0.59079 0.0
C1252 C 0.60106 0.99005 0.61616 0.0
C1253 C 0.61326 0.01955 0.55445 0.0
C1254 C 0.59628 0.00415 0.65467 0.0
C1255 C 0.579 0.00464 0.6788 0.0
C1256 C 0.56611 0.99089 0.66568 0.0
C1257 C 0.57112 0.9765 0.62833 0.0
C1258 C 0.58838 0.9761 0.60387 0.0
H1259 H 0.61741 0.02612 0.51945 0.0
H1260 H 0.59866 0.01546 0.54972 0.0
H1261 H 0.61454 0.02951 0.59005 0.0
H1262 H 0.60595 0.01483 0.66618 0.0
H1263 H 0.57577 0.01583 0.70786 0.0
H1264 H 0.54331 0.71484 0.36267 0.0
H1265 H 0.53814 0.6898 0.41282 0.0
H1266 H 0.59617 0.68692 0.44163 0.0
H1267 H 0.6014 0.71252 0.39364 0.0
H1268 H 0.55078 0.6571 0.38359 0.0
H1269 H 0.57599 0.68037 0.58585 0.0
H1270 H 0.57144 0.69539 0.53757 0.0
H1271 H 0.59262 0.6834 0.53568 0.0
C1272 C 0.55494 0.70933 0.38125 0.0
C1273 C 0.5728 0.71576 0.374 0.0
C1274 C 0.55196 0.69486 0.4095 0.0
C1275 C 0.56673 0.6865 0.43131 0.0
C1276 C 0.5845 0.69331 0.42605 0.0
H1277 H 0.57158 0.57606 0.48252 0.0
H1278 H 0.57443 0.60504 0.45059 0.0
C1279 C 0.58749 0.70785 0.39802 0.0
C1280 C 0.56376 0.66967 0.45478 0.0
H1281 H 0.57214 0.64891 0.56432 0.0
C1282 C 0.5553 0.65538 0.42332 0.0
C1283 C 0.56949 0.66744 0.50678 0.0
C1284 C 0.57772 0.68252 0.54363 0.0
C1285 C 0.55283 0.63884 0.44185 0.0
C1286 C 0.55936 0.63635 0.49286 0.0
C1287 C 0.56736 0.65076 0.52495 0.0
C1288 C 0.55809 0.61885 0.51336 0.0
C1289 C 0.54308 0.62422 0.40669 0.0
C1290 C 0.54846 0.61706 0.56025 0.0
C1291 C 0.54702 0.60052 0.5791 0.0
C1292 C 0.55527 0.58543 0.55153 0.0
C1293 C 0.56516 0.58738 0.50499 0.0
C1294 C 0.56662 0.60392 0.48629 0.0
H1295 H 0.53441 0.62962 0.37657 0.0
H1296 H 0.55338 0.6154 0.38529 0.0
H1297 H 0.53431 0.6161 0.43034 0.0
H1298 H 0.54189 0.62844 0.58204 0.0
H1299 H 0.53958 0.5996 0.61556 0.0
H1300 H 0.81057 0.4778 0.5222 0.0
H1301 H 0.83858 0.48054 0.57567 0.0
H1302 H 0.86331 0.51252 0.46527 0.0
H1303 H 0.83544 0.50979 0.41154 0.0
H1304 H 0.87279 0.46894 0.54457 0.0
H1305 H 0.8753 0.54148 0.60616 0.0
H1306 H 0.85494 0.53021 0.57869 0.0
H1307 H 0.87314 0.53579 0.53575 0.0
C1308 C 0.82191 0.48554 0.50945 0.0
C1309 C 0.82066 0.4936 0.46246 0.0
C1310 C 0.83792 0.48713 0.5402 0.0
C1311 C 0.85304 0.49691 0.52497 0.0
C1312 C 0.85172 0.50526 0.47867 0.0
H1313 H 0.96623 0.51351 0.62053 0.0
H1314 H 0.93601 0.51304 0.57918 0.0
C1315 C 0.83571 0.50369 0.44793 0.0
C1316 C 0.87055 0.49741 0.5555 0.0
H1317 H 0.90255 0.52547 0.61947 0.0
C1318 C 0.8792 0.4813 0.56142 0.0
C1319 C 0.87899 0.51352 0.57742 0.0
C1320 C 0.87004 0.53123 0.5747 0.0
C1321 C 0.89624 0.48088 0.58713 0.0
C1322 C 0.90479 0.497 0.60845 0.0
C1323 C 0.89604 0.51311 0.60311 0.0
C1324 C 0.92307 0.49747 0.63492 0.0
C1325 C 0.90523 0.46317 0.58961 0.0
C1326 C 0.92588 0.4891 0.68065 0.0
C1327 C 0.94324 0.48931 0.70447 0.0
C1328 C 0.95815 0.49799 0.68327 0.0
C1329 C 0.95516 0.50664 0.638 0.0
C1330 C 0.93783 0.50641 0.61427 0.0
H1331 H 0.8992 0.45263 0.5604 0.0
H1332 H 0.92018 0.46402 0.58207 0.0
H1333 H 0.90328 0.45913 0.62979 0.0
H1334 H 0.91464 0.48242 0.69803 0.0
H1335 H 0.94494 0.48261 0.73947 0.0
loop_
_geom_bond_atom_site_label_1
_geom_bond_atom_site_label_2
_geom_bond_distance
_geom_bond_site_symmetry_2
_ccdc_geom_bond_type
C0 C1 1.386 . S
C0 C2 1.397 . S
C0 H24 0.931 . S
C1 C0 1.386 . S
C1 C5 1.397 . S
C2 C0 1.397 . S
C2 C3 1.384 . S
C2 H25 0.930 . S
C3 C2 1.384 . S
C3 C4 1.377 . S
C3 C6 1.481 . S
C4 C3 1.377 . S
C4 C5 1.389 . S
C4 H26 0.929 . S
C5 C1 1.397 . S
C5 C4 1.389 . S
C5 H27 0.931 . S
C6 C3 1.481 . S
C6 C7 1.387 . S
C6 C11 1.390 . S
C7 C6 1.387 . S
C7 C8 1.401 . S
C7 H28 0.930 . S
C8 C7 1.401 . S
C8 C9 1.376 . S
C8 C17 1.511 . S
C9 C8 1.376 . S
C9 C10 1.392 . S
C9 H30 0.931 . S
C10 C9 1.392 . S
C10 C11 1.361 . S
C10 C12 1.500 . S
C11 C6 1.390 . S
C11 C10 1.361 . S
C11 H29 0.931 . S
C12 C10 1.500 . S
C12 C13 1.371 . S
C12 C14 1.365 . S
C13 C12 1.371 . S
C13 C23 1.386 . S
C13 H31 0.931 . S
C14 C12 1.365 . S
C14 C15 1.409 . S
C14 H32 0.929 . S
C15 C14 1.409 . S
C15 C16 1.380 . S
C15 H33 0.930 . S
C16 C15 1.380 . S
C16 C23 1.357 . S
C17 C8 1.511 . S
C17 C18 1.341 . S
C17 C19 1.371 . S
C18 C17 1.341 . S
C18 C22 1.394 . S
C18 H34 0.930 . S
C19 C17 1.371 . S
C19 C20 1.392 . S
C19 H35 0.931 . S
C20 C19 1.392 . S
C20 C21 1.331 . S
C20 H38 0.932 . S
C21 C20 1.331 . S
C21 C22 1.336 . S
C22 C18 1.394 . S
C22 C21 1.336 . S
C22 H37 0.929 . S
C23 C13 1.386 . S
C23 C16 1.357 . S
C23 H36 0.928 . S
H24 C0 0.931 . S
H25 C2 0.930 . S
H26 C4 0.929 . S
H27 C5 0.931 . S
H28 C7 0.930 . S
H29 C11 0.931 . S
H30 C9 0.931 . S
H31 C13 0.931 . S
H32 C14 0.929 . S
H33 C15 0.930 . S
H34 C18 0.930 . S
H35 C19 0.931 . S
H36 C23 0.928 . S
H37 C22 0.929 . S
H38 C20 0.932 . S
C39 C40 1.386 . S
C39 C41 1.397 . S
C39 H63 0.931 . S
C40 C39 1.386 . S
C40 C44 1.397 . S
C41 C39 1.397 . S
C41 C42 1.384 . S
C41 H64 0.930 . S
C42 C41 1.384 . S
C42 C43 1.377 . S
C42 C45 1.481 . S
C43 C42 1.377 . S
C43 C44 1.389 . S
C43 H65 0.929 . S
C44 C40 1.397 . S
C44 C43 1.389 . S
C44 H66 0.931 . S
C45 C42 1.481 . S
C45 C46 1.387 . S
C45 C50 1.390 . S
C46 C45 1.387 . S
C46 C47 1.401 . S
C46 H67 0.930 . S
C47 C46 1.401 . S
C47 C48 1.376 . S
C47 C56 1.511 . S
C48 C47 1.376 . S
C48 C49 1.392 . S
C48 H69 0.931 . S
C49 C48 1.392 . S
C49 C50 1.361 . S
C49 C51 1.500 . S
C50 C45 1.390 . S
C50 C49 1.361 . S
C50 H68 0.931 . S
C51 C49 1.500 . S
C51 C52 1.371 . S
C51 C53 1.365 . S
C52 C51 1.371 . S
C52 C62 1.386 . S
C52 H70 0.931 . S
C53 C51 1.365 . S
C53 C54 1.409 . S
C53 H71 0.929 . S
C54 C53 1.409 . S
C54 C55 1.380 . S
C54 H72 0.930 . S
C55 C54 1.380 . S
C55 C62 1.357 . S
C56 C47 1.511 . S
C56 C57 1.341 . S
C56 C58 1.371 . S
C57 C56 1.341 . S
C57 C61 1.394 . S
C57 H73 0.930 . S
C58 C56 1.371 . S
C58 C59 1.392 . S
C58 H74 0.931 . S
C59 C58 1.392 . S
C59 C60 1.331 . S
C59 H77 0.932 . S
C60 C59 1.331 . S
C60 C61 1.336 . S
C61 C57 1.394 . S
C61 C60 1.336 . S
C61 H76 0.929 . S
C62 C52 1.386 . S
C62 C55 1.357 . S
C62 H75 0.928 . S
H63 C39 0.931 . S
H64 C41 0.930 . S
H65 C43 0.929 . S
H66 C44 0.931 . S
H67 C46 0.930 . S
H68 C50 0.931 . S
H69 C48 0.931 . S
H70 C52 0.931 . S
H71 C53 0.929 . S
H72 C54 0.930 . S
H73 C57 0.930 . S
H74 C58 0.931 . S
H75 C62 0.928 . S
H76 C61 0.929 . S
H77 C59 0.932 . S
C78 C79 1.394 . S
C78 C80 1.397 . S
C78 H102 0.931 . S
C79 C78 1.394 . S
C79 C83 1.390 1_565 S
C80 C78 1.397 . S
C80 C81 1.388 . S
C80 H103 0.930 . S
C81 C80 1.388 . S
C81 C82 1.373 1_565 S
C81 C84 1.478 . S
C82 C81 1.373 1_545 S
C82 C83 1.389 . S
C82 H104 0.929 . S
C83 C79 1.390 1_545 S
C83 C82 1.389 . S
C83 H105 0.931 . S
C84 C81 1.478 . S
C84 C85 1.388 . S
C84 C89 1.393 . S
C85 C84 1.388 . S
C85 C86 1.399 . S
C85 H106 0.930 . S
C86 C85 1.399 . S
C86 C87 1.375 . S
C86 C95 1.512 . S
C87 C86 1.375 . S
C87 C88 1.392 . S
C87 H108 0.939 . S
C88 C87 1.392 . S
C88 C89 1.362 . S
C88 C90 1.502 1_565 S
C89 C84 1.393 . S
C89 C88 1.362 . S
C89 H107 0.931 . S
C90 C88 1.502 1_545 S
C90 C91 1.362 1_545 S
C90 C92 1.373 . S
C91 C90 1.362 1_565 S
C91 C101 1.386 . S
C91 H109 0.931 . S
C92 C90 1.373 . S
C92 C93 1.409 . S
C92 H110 0.929 . S
C93 C92 1.409 . S
C93 C94 1.377 . S
C93 H111 0.930 . S
C94 C93 1.377 . S
C94 C101 1.360 1_545 S
C95 C86 1.512 . S
C95 C96 1.341 . S
C95 C97 1.371 1_565 S
C96 C95 1.341 . S
C96 C100 1.394 . S
C96 H112 0.930 . S
C97 C95 1.371 1_545 S
C97 C98 1.392 . S
C97 H113 0.931 . S
C98 C97 1.392 . S
C98 C99 1.326 1_545 S
C98 H116 0.932 . S
C99 C98 1.326 1_565 S
C99 C100 1.343 . S
C100 C96 1.394 . S
C100 C99 1.343 . S
C100 H115 0.929 . S
C101 C91 1.386 . S
C101 C94 1.360 1_565 S
C101 H114 0.928 . S
H102 C78 0.931 . S
H103 C80 0.930 . S
H104 C82 0.929 . S
H105 C83 0.931 . S
H106 C85 0.930 . S
H107 C89 0.931 . S
H108 C87 0.939 . S
H109 C91 0.931 . S
H110 C92 0.929 . S
H111 C93 0.930 . S
H112 C96 0.930 . S
H113 C97 0.931 . S
H114 C101 0.928 . S
H115 C100 0.929 . S
H116 C98 0.932 . S
C117 C118 1.386 . S
C117 C119 1.397 . S
C117 H141 0.931 . S
C118 C117 1.386 . S
C118 C122 1.397 . S
C119 C117 1.397 . S
C119 C120 1.384 . S
C119 H142 0.930 . S
C120 C119 1.384 . S
C120 C121 1.377 . S
C120 C123 1.481 . S
C121 C120 1.377 . S
C121 C122 1.389 . S
C121 H143 0.929 . S
C122 C118 1.397 . S
C122 C121 1.389 . S
C122 H144 0.931 . S
C123 C120 1.481 . S
C123 C124 1.387 . S
C123 C128 1.390 . S
C124 C123 1.387 . S
C124 C125 1.401 1_554 S
C124 H145 0.930 . S
C125 C124 1.401 1_556 S
C125 C126 1.376 . S
C125 C134 1.511 . S
C126 C125 1.376 . S
C126 C127 1.392 . S
C126 H147 0.931 . S
C127 C126 1.392 . S
C127 C128 1.361 1_556 S
C127 C129 1.500 . S
C128 C123 1.390 . S
C128 C127 1.361 1_554 S
C128 H146 0.931 . S
C129 C127 1.500 . S
C129 C130 1.371 . S
C129 C131 1.365 . S
C130 C129 1.371 . S
C130 C140 1.386 . S
C130 H148 0.931 . S
C131 C129 1.365 . S
C131 C132 1.409 . S
C131 H149 0.929 . S
C132 C131 1.409 . S
C132 C133 1.380 . S
C132 H150 0.930 . S
C133 C132 1.380 . S
C133 C140 1.357 . S
C134 C125 1.511 . S
C134 C135 1.341 1_556 S
C134 C136 1.371 . S
C135 C134 1.341 1_554 S
C135 C139 1.394 . S
C135 H151 0.930 . S
C136 C134 1.371 . S
C136 C137 1.392 . S
C136 H152 0.931 . S
C137 C136 1.392 . S
C137 C138 1.331 . S
C137 H155 0.932 . S
C138 C137 1.331 . S
C138 C139 1.336 1_556 S
C139 C135 1.394 . S
C139 C138 1.336 1_554 S
C139 H154 0.929 . S
C140 C130 1.386 . S
C140 C133 1.357 . S
C140 H153 0.928 . S
H141 C117 0.931 . S
H142 C119 0.930 . S
H143 C121 0.929 . S
H144 C122 0.931 . S
H145 C124 0.930 . S
H146 C128 0.931 . S
H147 C126 0.931 . S
H148 C130 0.931 . S
H149 C131 0.929 . S
H150 C132 0.930 . S
H151 C135 0.930 . S
H152 C136 0.931 . S
H153 C140 0.928 . S
H154 C139 0.929 . S
H155 C137 0.932 . S
C156 C157 1.386 . S
C156 C158 1.397 . S
C156 H180 0.931 . S
C157 C156 1.386 . S
C157 C161 1.397 . S
C158 C156 1.397 . S
C158 C159 1.384 . S
C158 H181 0.930 . S
C159 C158 1.384 . S
C159 C160 1.377 . S
C159 C162 1.481 . S
C160 C159 1.377 . S
C160 C161 1.389 . S
C160 H182 0.929 . S
C161 C157 1.397 . S
C161 C160 1.389 . S
C161 H183 0.931 . S
C162 C159 1.481 . S
C162 C163 1.387 . S
C162 C167 1.390 . S
C163 C162 1.387 . S
C163 C164 1.401 . S
C163 H184 0.930 . S
C164 C163 1.401 . S
C164 C165 1.376 . S
C164 C173 1.511 . S
C165 C164 1.376 . S
C165 C166 1.392 . S
C165 H186 0.931 . S
C166 C165 1.392 . S
C166 C167 1.361 . S
C166 C168 1.500 . S
C167 C162 1.390 . S
C167 C166 1.361 . S
C167 H185 0.931 . S
C168 C166 1.500 . S
C168 C169 1.371 . S
C168 C170 1.365 . S
C169 C168 1.371 . S
C169 C179 1.386 1_554 S
C169 H187 0.931 . S
C170 C168 1.365 . S
C170 C171 1.409 1_554 S
C170 H188 0.929 . S
C171 C170 1.409 1_556 S
C171 C172 1.380 . S
C171 H189 0.930 . S
C172 C171 1.380 . S
C172 C179 1.357 . S
C173 C164 1.511 . S
C173 C174 1.341 . S
C173 C175 1.371 . S
C174 C173 1.341 . S
C174 C178 1.394 . S
C174 H190 0.930 . S
C175 C173 1.371 . S
C175 C176 1.392 . S
C175 H191 0.931 . S
C176 C175 1.392 . S
C176 C177 1.331 . S
C176 H194 0.932 . S
C177 C176 1.331 . S
C177 C178 1.336 . S
C178 C174 1.394 . S
C178 C177 1.336 . S
C178 H193 0.929 . S
C179 C169 1.386 1_556 S
C179 C172 1.357 . S
C179 H192 0.928 . S
H180 C156 0.931 . S
H181 C158 0.930 . S
H182 C160 0.929 . S
H183 C161 0.931 . S
H184 C163 0.930 . S
H185 C167 0.931 . S
H186 C165 0.931 . S
H187 C169 0.931 . S
H188 C170 0.929 . S
H189 C171 0.930 . S
H190 C174 0.930 . S
H191 C175 0.931 . S
H192 C179 0.928 . S
H193 C178 0.929 . S
H194 C176 0.932 . S
C195 C196 1.386 . S
C195 C197 1.397 . S
C195 H219 0.931 . S
C196 C195 1.386 . S
C196 C200 1.397 . S
C197 C195 1.397 . S
C197 C198 1.384 . S
C197 H220 0.930 . S
C198 C197 1.384 . S
C198 C199 1.377 . S
C198 C201 1.481 . S
C199 C198 1.377 . S
C199 C200 1.389 . S
C199 H221 0.929 . S
C200 C196 1.397 . S
C200 C199 1.389 . S
C200 H222 0.931 . S
C201 C198 1.481 . S
C201 C202 1.387 . S
C201 C206 1.390 . S
C202 C201 1.387 . S
C202 C203 1.401 . S
C202 H223 0.930 . S
C203 C202 1.401 . S
C203 C204 1.376 . S
C203 C212 1.511 . S
C204 C203 1.376 . S
C204 C205 1.392 . S
C204 H225 0.931 . S
C205 C204 1.392 . S
C205 C206 1.361 . S
C205 C207 1.500 . S
C206 C201 1.390 . S
C206 C205 1.361 . S
C206 H224 0.931 . S
C207 C205 1.500 . S
C207 C208 1.371 . S
C207 C209 1.365 . S
C208 C207 1.371 . S
C208 C218 1.386 . S
C208 H226 0.931 . S
C209 C207 1.365 . S
C209 C210 1.409 . S
C209 H227 0.929 . S
C210 C209 1.409 . S
C210 C211 1.389 . S
C210 H228 0.930 . S
C211 C210 1.389 . S
C211 C218 1.359 . S
C212 C203 1.511 . S
C212 C213 1.341 . S
C212 C214 1.371 . S
C213 C212 1.341 . S
C213 C217 1.394 . S
C213 H229 0.930 . S
C214 C212 1.371 . S
C214 C215 1.392 . S
C214 H230 0.931 . S
C215 C214 1.392 . S
C215 C216 1.331 . S
C215 H233 0.932 . S
C216 C215 1.331 . S
C216 C217 1.336 . S
C217 C213 1.394 . S
C217 C216 1.336 . S
C217 H232 0.929 . S
C218 C208 1.386 . S
C218 C211 1.359 . S
C218 H231 0.928 1_554 S
H219 C195 0.931 . S
H220 C197 0.930 . S
H221 C199 0.929 . S
H222 C200 0.931 . S
H223 C202 0.930 . S
H224 C206 0.931 . S
H225 C204 0.931 . S
H226 C208 0.931 . S
H227 C209 0.929 . S
H228 C210 0.930 . S
H229 C213 0.930 . S
H230 C214 0.931 . S
H231 C218 0.928 1_556 S
H232 C217 0.929 . S
H233 C215 0.932 . S
C234 C235 1.385 . S
C234 C236 1.397 . S
C234 H258 0.931 . S
C235 C234 1.385 . S
C235 C239 1.398 1_565 S
C236 C234 1.397 . S
C236 C237 1.389 1_565 S
C236 H259 0.930 . S
C237 C236 1.389 1_545 S
C237 C238 1.373 . S
C237 C240 1.482 1_545 S
C238 C237 1.373 . S
C238 C239 1.389 . S
C238 H260 0.929 . S
C239 C235 1.398 1_545 S
C239 C238 1.389 . S
C239 H261 0.931 . S
C240 C237 1.482 1_565 S
C240 C241 1.386 . S
C240 C245 1.388 . S
C241 C240 1.386 . S
C241 C242 1.396 . S
C241 H262 0.942 . S
C242 C241 1.396 . S
C242 C243 1.378 . S
C242 C251 1.512 . S
C243 C242 1.378 . S
C243 C244 1.391 1_565 S
C243 H264 0.930 . S
C244 C243 1.391 1_545 S
C244 C245 1.362 1_545 S
C244 C246 1.495 . S
C245 C240 1.388 . S
C245 C244 1.362 1_565 S
C245 H263 0.931 1_565 S
C246 C244 1.495 . S
C246 C247 1.360 1_545 S
C246 C248 1.381 . S
C247 C246 1.360 1_565 S
C247 C257 1.386 1_554 S
C247 H265 0.931 . S
C248 C246 1.381 . S
C248 C249 1.409 1_554 S
C248 H266 0.929 . S
C249 C248 1.409 1_556 S
C249 C250 1.384 . S
C249 H267 0.930 . S
C250 C249 1.384 . S
C250 C257 1.353 1_545 S
C251 C242 1.512 . S
C251 C252 1.341 . S
C251 C253 1.371 1_565 S
C252 C251 1.341 . S
C252 C256 1.394 . S
C252 H268 0.930 . S
C253 C251 1.371 1_545 S
C253 C254 1.392 . S
C253 H269 0.931 . S
C254 C253 1.392 . S
C254 C255 1.325 1_545 S
C254 H272 0.932 . S
C255 C254 1.325 1_565 S
C255 C256 1.342 . S
C256 C252 1.394 . S
C256 C255 1.342 . S
C256 H271 0.929 . S
C257 C247 1.386 1_556 S
C257 C250 1.353 1_565 S
C257 H270 0.928 . S
H258 C234 0.931 . S
H259 C236 0.930 . S
H260 C238 0.929 . S
H261 C239 0.931 . S
H262 C241 0.942 . S
H263 C245 0.931 1_545 S
H264 C243 0.930 . S
H265 C247 0.931 . S
H266 C248 0.929 . S
H267 C249 0.930 . S
H268 C252 0.930 . S
H269 C253 0.931 . S
H270 C257 0.928 . S
H271 C256 0.929 . S
H272 C254 0.932 . S
C273 C274 1.386 . S
C273 C275 1.397 . S
C273 H297 0.931 . S
C274 C273 1.386 . S
C274 C278 1.397 . S
C275 C273 1.397 . S
C275 C276 1.384 . S
C275 H298 0.930 . S
C276 C275 1.384 . S
C276 C277 1.377 . S
C276 C279 1.481 . S
C277 C276 1.377 . S
C277 C278 1.389 . S
C277 H299 0.929 . S
C278 C274 1.397 . S
C278 C277 1.389 . S
C278 H300 0.931 . S
C279 C276 1.481 . S
C279 C280 1.387 . S
C279 C284 1.390 . S
C280 C279 1.387 . S
C280 C281 1.401 . S
C280 H301 0.930 . S
C281 C280 1.401 . S
C281 C282 1.376 . S
C281 C290 1.511 . S
C282 C281 1.376 . S
C282 C283 1.392 . S
C282 H303 0.931 . S
C283 C282 1.392 . S
C283 C284 1.361 . S
C283 C285 1.500 . S
C284 C279 1.390 . S
C284 C283 1.361 . S
C284 H302 0.931 . S
C285 C283 1.500 . S
C285 C286 1.371 . S
C285 C287 1.365 . S
C286 C285 1.371 . S
C286 C296 1.386 . S
C286 H304 0.931 . S
C287 C285 1.365 . S
C287 C288 1.409 . S
C287 H305 0.929 . S
C288 C287 1.409 . S
C288 C289 1.380 . S
C288 H306 0.930 . S
C289 C288 1.380 . S
C289 C296 1.357 . S
C290 C281 1.511 . S
C290 C291 1.341 . S
C290 C292 1.371 . S
C291 C290 1.341 . S
C291 C295 1.394 . S
C291 H307 0.930 . S
C292 C290 1.371 . S
C292 C293 1.392 . S
C292 H308 0.931 . S
C293 C292 1.392 . S
C293 C294 1.331 . S
C293 H311 0.932 . S
C294 C293 1.331 . S
C294 C295 1.336 . S
C295 C291 1.394 . S
C295 C294 1.336 . S
C295 H310 0.929 . S
C296 C286 1.386 . S
C296 C289 1.357 . S
C296 H309 0.928 . S
H297 C273 0.931 . S
H298 C275 0.930 . S
H299 C277 0.929 . S
H300 C278 0.931 . S
H301 C280 0.930 . S
H302 C284 0.931 . S
H303 C282 0.931 . S
H304 C286 0.931 . S
H305 C287 0.929 . S
H306 C288 0.930 . S
H307 C291 0.930 . S
H308 C292 0.931 . S
H309 C296 0.928 . S
H310 C295 0.929 . S
H311 C293 0.932 . S
Tb312 C321 2.764 1_655 S
Tb312 O322 2.325 1_655 S
Tb312 O325 2.303 1_655 S
Tb312 O329 2.322 1_545 S
Tb312 O330 2.349 . S
Tb312 O333 2.415 1_655 S
Tb312 O334 2.399 . S
Tb313 O323 2.322 1_565 S
Tb313 O324 2.349 . S
Tb313 O326 2.415 . S
Tb313 O327 2.399 . S
Tb313 O328 2.325 . S
Tb313 O331 2.303 1_455 S
Tb313 C342 2.764 . S
C314 O330 1.261 . S
C314 O331 1.257 1_545 S
C315 C318 1.358 1_455 S
C315 C319 1.332 . S
C315 C321 1.504 . S
C316 C317 1.373 1_455 S
C316 C320 1.308 . S
C317 C316 1.373 1_655 S
C317 C318 1.429 . S
C317 H344 0.932 . S
C318 C315 1.358 1_655 S
C318 C317 1.429 . S
C318 H345 0.930 . S
C319 C315 1.332 . S
C319 C320 1.394 . S
C319 H346 0.932 . S
C320 C316 1.308 . S
C320 C319 1.394 . S
C320 H347 0.929 . S
C321 Tb312 2.764 1_455 S
C321 C315 1.504 . S
C321 O333 1.244 . S
C321 O334 1.257 1_455 S
O322 Tb312 2.325 1_455 S
O322 C332 1.236 . S
O323 Tb313 2.322 1_545 S
O323 C332 1.257 . S
O324 Tb313 2.349 . S
O324 C335 1.261 . S
O325 Tb312 2.303 1_455 S
O325 C335 1.257 1_545 S
O326 Tb313 2.415 . S
O326 C342 1.239 . S
O327 Tb313 2.399 . S
O327 C342 1.263 . S
O328 Tb313 2.325 . S
O328 C343 1.236 1_455 S
O329 Tb312 2.322 1_565 S
O329 C343 1.257 . S
O330 Tb312 2.349 . S
O330 C314 1.261 . S
O331 Tb313 2.303 1_655 S
O331 C314 1.257 1_565 S
C332 O322 1.236 . S
C332 O323 1.257 . S
O333 Tb312 2.415 1_455 S
O333 C321 1.244 . S
O334 Tb312 2.399 . S
O334 C321 1.257 1_655 S
C335 O324 1.261 . S
C335 O325 1.257 1_565 S
C336 C339 1.358 . S
C336 C340 1.332 . S
C336 C342 1.504 . S
C337 C338 1.373 . S
C337 C341 1.308 . S
C338 C337 1.373 . S
C338 C339 1.429 . S
C338 H348 0.932 . S
C339 C336 1.358 . S
C339 C338 1.429 . S
C339 H349 0.930 . S
C340 C336 1.332 . S
C340 C341 1.394 . S
C340 H350 0.932 1_455 S
C341 C337 1.308 . S
C341 C340 1.394 . S
C341 H351 0.929 1_455 S
C342 Tb313 2.764 . S
C342 O326 1.239 . S
C342 O327 1.263 . S
C342 C336 1.504 . S
C343 O328 1.236 1_655 S
C343 O329 1.257 . S
H344 C317 0.932 . S
H345 C318 0.930 . S
H346 C319 0.932 . S
H347 C320 0.929 . S
H348 C338 0.932 . S
H349 C339 0.930 . S
H350 C340 0.932 1_655 S
H351 C341 0.929 1_655 S
Tb352 C361 2.764 . S
Tb352 O362 2.325 . S
Tb352 O365 2.303 1_565 S
Tb352 O369 2.322 . S
Tb352 O370 2.349 . S
Tb352 O373 2.415 1_565 S
Tb352 O374 2.399 . S
Tb353 O363 2.322 . S
Tb353 O364 2.349 . S
Tb353 O366 2.415 1_545 S
Tb353 O367 2.399 . S
Tb353 O368 2.325 . S
Tb353 O371 2.303 1_545 S
Tb353 C382 2.764 . S
C354 O370 1.261 . S
C354 O371 1.257 . S
C355 C358 1.358 . S
C355 C359 1.332 . S
C355 C361 1.504 . S
C356 C357 1.373 . S
C356 C360 1.308 . S
C357 C356 1.373 . S
C357 C358 1.429 . S
C357 H384 0.932 . S
C358 C355 1.358 . S
C358 C357 1.429 . S
C358 H385 0.930 . S
C359 C355 1.332 . S
C359 C360 1.394 . S
C359 H386 0.932 1_565 S
C360 C356 1.308 . S
C360 C359 1.394 . S
C360 H387 0.929 1_565 S
C361 Tb352 2.764 . S
C361 C355 1.504 . S
C361 O373 1.239 1_565 S
C361 O374 1.263 . S
O362 Tb352 2.325 . S
O362 C372 1.236 1_565 S
O363 Tb353 2.322 . S
O363 C372 1.257 . S
O364 Tb353 2.349 . S
O364 C375 1.261 . S
O365 Tb352 2.303 1_545 S
O365 C375 1.257 . S
O366 Tb353 2.415 1_565 S
O366 C382 1.239 1_565 S
O367 Tb353 2.399 . S
O367 C382 1.263 . S
O368 Tb353 2.325 . S
O368 C383 1.236 1_545 S
O369 Tb352 2.322 . S
O369 C383 1.257 . S
O370 Tb352 2.349 . S
O370 C354 1.261 . S
O371 Tb353 2.303 1_565 S
O371 C354 1.257 . S
C372 O362 1.236 1_545 S
C372 O363 1.257 . S
O373 Tb352 2.415 1_545 S
O373 C361 1.239 1_545 S
O374 Tb352 2.399 . S
O374 C361 1.263 . S
C375 O364 1.261 . S
C375 O365 1.257 . S
C376 C379 1.358 . S
C376 C380 1.332 . S
C376 C382 1.504 . S
C377 C378 1.373 . S
C377 C381 1.308 . S
C378 C377 1.373 . S
C378 C379 1.429 . S
C378 H388 0.932 . S
C379 C376 1.358 . S
C379 C378 1.429 . S
C379 H389 0.930 . S
C380 C376 1.332 . S
C380 C381 1.394 . S
C380 H390 0.932 1_545 S
C381 C377 1.308 . S
C381 C380 1.394 . S
C381 H391 0.929 1_545 S
C382 Tb353 2.764 . S
C382 O366 1.239 1_545 S
C382 O367 1.263 . S
C382 C376 1.504 . S
C383 O368 1.236 1_565 S
C383 O369 1.257 . S
H384 C357 0.932 . S
H385 C358 0.930 . S
H386 C359 0.932 1_545 S
H387 C360 0.929 1_545 S
H388 C378 0.932 . S
H389 C379 0.930 . S
H390 C380 0.932 1_565 S
H391 C381 0.929 1_565 S
Tb392 C401 2.764 . S
Tb392 O402 2.325 . S
Tb392 O405 2.303 . S
Tb392 O409 2.322 . S
Tb392 O410 2.349 . S
Tb392 O413 2.415 . S
Tb392 O414 2.399 . S
Tb393 O403 2.322 . S
Tb393 O404 2.349 . S
Tb393 O406 2.415 . S
Tb393 O407 2.399 . S
Tb393 O408 2.325 . S
Tb393 O411 2.303 . S
Tb393 C422 2.764 . S
C394 O410 1.261 . S
C394 O411 1.257 . S
C395 C398 1.358 . S
C395 C399 1.332 . S
C395 C401 1.504 . S
C396 C397 1.373 . S
C396 C400 1.308 . S
C397 C396 1.373 . S
C397 C398 1.429 . S
C397 H424 0.932 . S
C398 C395 1.358 . S
C398 C397 1.429 . S
C398 H425 0.930 . S
C399 C395 1.332 . S
C399 C400 1.394 . S
C399 H426 0.932 . S
C400 C396 1.308 . S
C400 C399 1.394 . S
C400 H427 0.929 . S
C401 Tb392 2.764 . S
C401 C395 1.504 . S
C401 O413 1.239 . S
C401 O414 1.263 . S
O402 Tb392 2.325 . S
O402 C412 1.236 . S
O403 Tb393 2.322 . S
O403 C412 1.257 . S
O404 Tb393 2.349 . S
O404 C415 1.261 . S
O405 Tb392 2.303 . S
O405 C415 1.257 . S
O406 Tb393 2.415 . S
O406 C422 1.239 . S
O407 Tb393 2.399 . S
O407 C422 1.263 . S
O408 Tb393 2.325 . S
O408 C423 1.236 . S
O409 Tb392 2.322 . S
O409 C423 1.257 . S
O410 Tb392 2.349 . S
O410 C394 1.261 . S
O411 Tb393 2.303 . S
O411 C394 1.257 . S
C412 O402 1.236 . S
C412 O403 1.257 . S
O413 Tb392 2.415 . S
O413 C401 1.239 . S
O414 Tb392 2.399 . S
O414 C401 1.263 . S
C415 O404 1.261 . S
C415 O405 1.257 . S
C416 C419 1.358 . S
C416 C420 1.332 . S
C416 C422 1.504 . S
C417 C418 1.373 . S
C417 C421 1.308 . S
C418 C417 1.373 . S
C418 C419 1.429 . S
C418 H428 0.932 . S
C419 C416 1.358 . S
C419 C418 1.429 . S
C419 H429 0.930 . S
C420 C416 1.332 . S
C420 C421 1.394 . S
C420 H430 0.932 . S
C421 C417 1.308 . S
C421 C420 1.394 . S
C421 H431 0.929 . S
C422 Tb393 2.764 . S
C422 O406 1.239 . S
C422 O407 1.263 . S
C422 C416 1.504 . S
C423 O408 1.236 . S
C423 O409 1.257 . S
H424 C397 0.932 . S
H425 C398 0.930 . S
H426 C399 0.932 . S
H427 C400 0.929 . S
H428 C418 0.932 . S
H429 C419 0.930 . S
H430 C420 0.932 . S
H431 C421 0.929 . S
Tb432 C441 2.764 . S
Tb432 O442 2.325 . S
Tb432 O445 2.303 . S
Tb432 O449 2.322 1_455 S
Tb432 O450 2.349 . S
Tb432 O453 2.415 . S
Tb432 O454 2.399 . S
Tb433 O443 2.259 1_655 S
Tb433 O444 2.334 1_655 S
Tb433 O446 2.469 . S
Tb433 O447 2.446 . S
Tb433 O448 2.366 . S
Tb433 O451 2.296 1_655 S
Tb433 C462 2.821 . S
C434 O450 1.261 . S
C434 O451 1.257 . S
C435 C438 1.358 . S
C435 C439 1.332 . S
C435 C441 1.504 . S
C436 C437 1.373 . S
C436 C440 1.308 . S
C437 C436 1.373 . S
C437 C438 1.429 . S
C437 H464 0.932 . S
C438 C435 1.358 . S
C438 C437 1.429 . S
C438 H465 0.930 . S
C439 C435 1.332 . S
C439 C440 1.394 . S
C439 H466 0.932 . S
C440 C436 1.308 . S
C440 C439 1.394 . S
C440 H467 0.929 . S
C441 Tb432 2.764 . S
C441 C435 1.504 . S
C441 O453 1.239 . S
C441 O454 1.263 . S
O442 Tb432 2.325 . S
O442 C452 1.236 . S
O443 Tb433 2.259 1_455 S
O443 C452 1.257 . S
O444 Tb433 2.334 1_455 S
O444 C455 1.261 . S
O445 Tb432 2.303 . S
O445 C455 1.257 . S
O446 Tb433 2.469 . S
O446 C462 1.239 . S
O447 Tb433 2.446 . S
O447 C462 1.263 . S
O448 Tb433 2.366 . S
O448 C463 1.236 . S
O449 Tb432 2.322 1_655 S
O449 C463 1.257 . S
O450 Tb432 2.349 . S
O450 C434 1.261 . S
O451 Tb433 2.296 1_455 S
O451 C434 1.257 . S
C452 O442 1.236 . S
C452 O443 1.257 . S
O453 Tb432 2.415 . S
O453 C441 1.239 . S
O454 Tb432 2.399 . S
O454 C441 1.263 . S
C455 O444 1.261 . S
C455 O445 1.257 . S
C456 C459 1.358 . S
C456 C460 1.332 . S
C456 C462 1.504 . S
C457 C458 1.373 . S
C457 C461 1.308 . S
C458 C457 1.373 . S
C458 C459 1.429 . S
C458 H468 0.932 . S
C459 C456 1.358 . S
C459 C458 1.429 . S
C459 H469 0.930 . S
C460 C456 1.332 . S
C460 C461 1.394 . S
C460 H470 0.932 . S
C461 C457 1.308 . S
C461 C460 1.394 . S
C461 H471 0.929 . S
C462 Tb433 2.821 . S
C462 O446 1.239 . S
C462 O447 1.263 . S
C462 C456 1.504 . S
C463 O448 1.236 . S
C463 O449 1.257 . S
H464 C437 0.932 . S
H465 C438 0.930 . S
H466 C439 0.932 . S
H467 C440 0.929 . S
H468 C458 0.932 . S
H469 C459 0.930 . S
H470 C460 0.932 . S
H471 C461 0.929 . S
H472 C480 0.929 . S
H473 C482 0.930 . S
H474 C484 0.930 . S
H475 C487 0.929 . S
H476 C490 0.930 . S
H477 C492 0.960 . S
H478 C492 0.960 1_565 S
H479 C492 0.960 . S
C480 H472 0.929 . S
C480 C481 1.391 . S
C480 C482 1.384 . S
C481 C480 1.391 . S
C481 C487 1.378 1_565 S
C482 H473 0.930 . S
C482 C480 1.384 . S
C482 C483 1.372 . S
C483 C482 1.372 . S
C483 C484 1.400 1_565 S
C483 C488 1.490 . S
C484 H474 0.930 . S
C484 C483 1.400 1_545 S
C484 C487 1.386 . S
H485 C501 0.930 . S
H486 C502 0.931 . S
C487 H475 0.929 . S
C487 C481 1.378 1_545 S
C487 C484 1.386 . S
C488 C483 1.490 . S
C488 C490 1.395 . S
C488 C491 1.400 1_565 S
H489 C495 0.933 . S
C490 H476 0.930 . S
C490 C488 1.395 . S
C490 C493 1.403 . S
C491 C488 1.400 1_545 S
C491 C492 1.529 . S
C491 C495 1.399 . S
C492 H477 0.960 . S
C492 H478 0.960 1_545 S
C492 H479 0.960 . S
C492 C491 1.529 . S
C493 C490 1.403 . S
C493 C494 1.392 . S
C493 C497 1.495 . S
C494 C493 1.392 . S
C494 C495 1.381 1_565 S
C494 C496 1.478 . S
C495 H489 0.933 . S
C495 C491 1.399 . S
C495 C494 1.381 1_545 S
C496 C494 1.478 . S
C496 C498 1.381 . S
C496 C502 1.383 1_565 S
C497 C493 1.495 . S
C497 H503 0.959 . S
C497 H504 0.961 1_565 S
C497 H505 0.960 . S
C498 C496 1.381 . S
C498 C499 1.394 . S
C498 H506 0.930 . S
C499 C498 1.394 . S
C499 C500 1.383 . S
C499 H507 0.929 . S
C500 C499 1.383 . S
C500 C501 1.377 1_565 S
C501 H485 0.930 . S
C501 C500 1.377 1_545 S
C501 C502 1.379 . S
C502 H486 0.931 . S
C502 C496 1.383 1_545 S
C502 C501 1.379 . S
H503 C497 0.959 . S
H504 C497 0.961 1_545 S
H505 C497 0.960 . S
H506 C498 0.930 . S
H507 C499 0.929 . S
H508 C516 0.929 . S
H509 C518 0.930 . S
H510 C520 0.930 . S
H511 C523 0.929 . S
H512 C526 0.930 . S
H513 C528 0.960 . S
H514 C528 0.960 . S
H515 C528 0.960 . S
C516 H508 0.929 . S
C516 C517 1.377 . S
C516 C518 1.384 . S
C517 C516 1.377 . S
C517 C523 1.390 . S
C518 H509 0.930 . S
C518 C516 1.384 . S
C518 C519 1.372 . S
C519 C518 1.372 . S
C519 C520 1.400 . S
C519 C524 1.490 . S
C520 H510 0.930 . S
C520 C519 1.400 . S
C520 C523 1.386 . S
H521 C537 0.930 . S
H522 C538 0.931 . S
C523 H511 0.929 . S
C523 C517 1.390 . S
C523 C520 1.386 . S
C524 C519 1.490 . S
C524 C526 1.395 . S
C524 C527 1.403 . S
H525 C531 0.930 . S
C526 H512 0.930 . S
C526 C524 1.395 . S
C526 C529 1.403 . S
C527 C524 1.403 . S
C527 C528 1.524 . S
C527 C531 1.400 . S
C528 H513 0.960 . S
C528 H514 0.960 . S
C528 H515 0.960 . S
C528 C527 1.524 . S
C529 C526 1.403 . S
C529 C530 1.392 . S
C529 C533 1.495 . S
C530 C529 1.392 . S
C530 C531 1.385 . S
C530 C532 1.478 . S
C531 H525 0.930 . S
C531 C527 1.400 . S
C531 C530 1.385 . S
C532 C530 1.478 . S
C532 C534 1.381 . S
C532 C538 1.383 . S
C533 C529 1.495 . S
C533 H539 0.959 . S
C533 H540 0.961 . S
C533 H541 0.960 . S
C534 C532 1.381 . S
C534 C535 1.394 . S
C534 H542 0.930 . S
C535 C534 1.394 . S
C535 C536 1.383 . S
C535 H543 0.929 . S
C536 C535 1.383 . S
C536 C537 1.377 . S
C537 H521 0.930 . S
C537 C536 1.377 . S
C537 C538 1.379 . S
C538 H522 0.931 . S
C538 C532 1.383 . S
C538 C537 1.379 . S
H539 C533 0.959 . S
H540 C533 0.961 . S
H541 C533 0.960 . S
H542 C534 0.930 . S
H543 C535 0.929 . S
H544 C552 0.929 . S
H545 C554 0.930 . S
H546 C556 0.930 . S
H547 C559 0.929 . S
H548 C562 0.930 . S
H549 C564 0.960 . S
H550 C564 0.960 . S
H551 C564 0.960 . S
C552 H544 0.929 . S
C552 C553 1.377 . S
C552 C554 1.384 . S
C553 C552 1.377 . S
C553 C559 1.390 . S
C554 H545 0.930 . S
C554 C552 1.384 . S
C554 C555 1.372 . S
C555 C554 1.372 . S
C555 C556 1.400 . S
C555 C560 1.490 . S
C556 H546 0.930 . S
C556 C555 1.400 . S
C556 C559 1.386 . S
H557 C573 0.930 . S
H558 C574 0.931 . S
C559 H547 0.929 . S
C559 C553 1.390 . S
C559 C556 1.386 . S
C560 C555 1.490 . S
C560 C562 1.395 . S
C560 C563 1.403 . S
H561 C567 0.930 . S
C562 H548 0.930 . S
C562 C560 1.395 . S
C562 C565 1.403 . S
C563 C560 1.403 . S
C563 C564 1.524 . S
C563 C567 1.400 . S
C564 H549 0.960 . S
C564 H550 0.960 . S
C564 H551 0.960 . S
C564 C563 1.524 . S
C565 C562 1.403 . S
C565 C566 1.392 . S
C565 C569 1.495 . S
C566 C565 1.392 . S
C566 C567 1.385 . S
C566 C568 1.478 . S
C567 H561 0.930 . S
C567 C563 1.400 . S
C567 C566 1.385 . S
C568 C566 1.478 . S
C568 C570 1.381 . S
C568 C574 1.383 . S
C569 C565 1.495 . S
C569 H575 0.959 . S
C569 H576 0.961 . S
C569 H577 0.960 . S
C570 C568 1.381 . S
C570 C571 1.394 . S
C570 H578 0.930 . S
C571 C570 1.394 . S
C571 C572 1.383 . S
C571 H579 0.929 . S
C572 C571 1.383 . S
C572 C573 1.377 . S
C573 H557 0.930 . S
C573 C572 1.377 . S
C573 C574 1.379 . S
C574 H558 0.931 . S
C574 C568 1.383 . S
C574 C573 1.379 . S
H575 C569 0.959 . S
H576 C569 0.961 . S
H577 C569 0.960 . S
H578 C570 0.930 . S
H579 C571 0.929 . S
H580 C588 0.929 . S
H581 C590 0.930 . S
H582 C592 0.930 . S
H583 C595 0.929 . S
H584 C598 0.930 . S
H585 C600 0.960 . S
H586 C600 0.960 . S
H587 C600 0.960 . S
C588 H580 0.929 . S
C588 C589 1.377 . S
C588 C590 1.384 . S
C589 C588 1.377 . S
C589 C595 1.390 . S
C590 H581 0.930 . S
C590 C588 1.384 . S
C590 C591 1.372 . S
C591 C590 1.372 . S
C591 C592 1.400 . S
C591 C596 1.490 . S
C592 H582 0.930 . S
C592 C591 1.400 . S
C592 C595 1.386 . S
H593 C609 0.930 . S
H594 C610 0.931 . S
C595 H583 0.929 . S
C595 C589 1.390 . S
C595 C592 1.386 . S
C596 C591 1.490 . S
C596 C598 1.395 . S
C596 C599 1.403 . S
H597 C603 0.930 . S
C598 H584 0.930 . S
C598 C596 1.395 . S
C598 C601 1.403 . S
C599 C596 1.403 . S
C599 C600 1.524 . S
C599 C603 1.400 . S
C600 H585 0.960 . S
C600 H586 0.960 . S
C600 H587 0.960 . S
C600 C599 1.524 . S
C601 C598 1.403 . S
C601 C602 1.392 . S
C601 C605 1.495 . S
C602 C601 1.392 . S
C602 C603 1.385 . S
C602 C604 1.478 . S
C603 H597 0.930 . S
C603 C599 1.400 . S
C603 C602 1.385 . S
C604 C602 1.478 . S
C604 C606 1.381 . S
C604 C610 1.383 . S
C605 C601 1.495 . S
C605 H611 0.959 . S
C605 H612 0.961 . S
C605 H613 0.960 . S
C606 C604 1.381 . S
C606 C607 1.394 . S
C606 H614 0.930 . S
C607 C606 1.394 . S
C607 C608 1.383 . S
C607 H615 0.929 . S
C608 C607 1.383 . S
C608 C609 1.377 . S
C609 H593 0.930 . S
C609 C608 1.377 . S
C609 C610 1.379 . S
C610 H594 0.931 . S
C610 C604 1.383 . S
C610 C609 1.379 . S
H611 C605 0.959 . S
H612 C605 0.961 . S
H613 C605 0.960 . S
H614 C606 0.930 . S
H615 C607 0.929 . S
H616 C624 0.929 . S
H617 C626 0.928 . S
H618 C628 0.930 . S
H619 C631 0.929 . S
H620 C634 0.930 . S
H621 C636 0.960 . S
H622 C636 0.960 . S
H623 C636 0.960 . S
C624 H616 0.929 . S
C624 C625 1.377 1_565 S
C624 C626 1.390 . S
C625 C624 1.377 1_545 S
C625 C631 1.389 . S
C626 H617 0.928 . S
C626 C624 1.390 . S
C626 C627 1.370 1_565 S
C627 C626 1.370 1_545 S
C627 C628 1.398 . S
C627 C632 1.493 . S
C628 H618 0.930 . S
C628 C627 1.398 . S
C628 C631 1.386 . S
H629 C645 0.930 . S
H630 C646 0.931 . S
C631 H619 0.929 . S
C631 C625 1.389 . S
C631 C628 1.386 . S
C632 C627 1.493 . S
C632 C634 1.395 . S
C632 C635 1.403 1_545 S
H633 C639 0.930 1_556 S
C634 H620 0.930 . S
C634 C632 1.395 . S
C634 C637 1.403 1_554 S
C635 C632 1.403 1_565 S
C635 C636 1.524 . S
C635 C639 1.400 . S
C636 H621 0.960 . S
C636 H622 0.960 . S
C636 H623 0.960 . S
C636 C635 1.524 . S
C637 C634 1.403 1_556 S
C637 C638 1.392 . S
C637 C641 1.495 . S
C638 C637 1.392 . S
C638 C639 1.385 1_546 S
C638 C640 1.478 . S
C639 H633 0.930 1_554 S
C639 C635 1.400 . S
C639 C638 1.385 1_564 S
C640 C638 1.478 . S
C640 C642 1.381 . S
C640 C646 1.383 . S
C641 C637 1.495 . S
C641 H647 0.959 . S
C641 H648 0.961 . S
C641 H649 0.960 . S
C642 C640 1.381 . S
C642 C643 1.393 . S
C642 H650 0.930 1_545 S
C643 C642 1.393 . S
C643 C644 1.387 . S
C643 H651 0.928 1_545 S
C644 C643 1.387 . S
C644 C645 1.377 . S
C645 H629 0.930 . S
C645 C644 1.377 . S
C645 C646 1.379 . S
C646 H630 0.931 . S
C646 C640 1.383 . S
C646 C645 1.379 . S
H647 C641 0.959 . S
H648 C641 0.961 . S
H649 C641 0.960 . S
H650 C642 0.930 1_565 S
H651 C643 0.928 1_565 S
H652 C660 0.929 1_554 S
H653 C662 0.930 . S
H654 C664 0.930 . S
H655 C667 0.929 . S
H656 C670 0.930 . S
H657 C672 0.960 . S
H658 C672 0.960 . S
H659 C672 0.960 . S
C660 H652 0.929 1_556 S
C660 C661 1.377 . S
C660 C662 1.384 . S
C661 C660 1.377 . S
C661 C667 1.390 . S
C662 H653 0.930 . S
C662 C660 1.384 . S
C662 C663 1.372 . S
C663 C662 1.372 . S
C663 C664 1.400 . S
C663 C668 1.490 . S
C664 H654 0.930 . S
C664 C663 1.400 . S
C664 C667 1.386 . S
H665 C681 0.930 . S
H666 C682 0.931 . S
C667 H655 0.929 . S
C667 C661 1.390 . S
C667 C664 1.386 . S
C668 C663 1.490 . S
C668 C670 1.395 . S
C668 C671 1.403 . S
H669 C675 0.930 . S
C670 H656 0.930 . S
C670 C668 1.395 . S
C670 C673 1.403 . S
C671 C668 1.403 . S
C671 C672 1.524 . S
C671 C675 1.400 . S
C672 H657 0.960 . S
C672 H658 0.960 . S
C672 H659 0.960 . S
C672 C671 1.524 . S
C673 C670 1.403 . S
C673 C674 1.392 . S
C673 C677 1.495 . S
C674 C673 1.392 . S
C674 C675 1.385 . S
C674 C676 1.478 . S
C675 H669 0.930 . S
C675 C671 1.400 . S
C675 C674 1.385 . S
C676 C674 1.478 . S
C676 C678 1.381 . S
C676 C682 1.383 . S
C677 C673 1.495 . S
C677 H683 0.959 . S
C677 H684 0.961 . S
C677 H685 0.960 . S
C678 C676 1.381 . S
C678 C679 1.394 . S
C678 H686 0.930 . S
C679 C678 1.394 . S
C679 C680 1.383 . S
C679 H687 0.929 . S
C680 C679 1.383 . S
C680 C681 1.377 . S
C681 H665 0.930 . S
C681 C680 1.377 . S
C681 C682 1.379 . S
C682 H666 0.931 . S
C682 C676 1.383 . S
C682 C681 1.379 . S
H683 C677 0.959 . S
H684 C677 0.961 . S
H685 C677 0.960 . S
H686 C678 0.930 . S
H687 C679 0.929 . S
H688 C696 0.929 . S
H689 C698 0.930 . S
H690 C700 0.930 . S
H691 C703 0.929 . S
H692 C706 0.930 . S
H693 C708 0.960 . S
H694 C708 0.960 . S
H695 C708 0.960 . S
C696 H688 0.929 . S
C696 C697 1.377 . S
C696 C698 1.384 . S
C697 C696 1.377 . S
C697 C703 1.390 . S
C698 H689 0.930 . S
C698 C696 1.384 . S
C698 C699 1.372 . S
C699 C698 1.372 . S
C699 C700 1.400 . S
C699 C704 1.490 . S
C700 H690 0.930 . S
C700 C699 1.400 . S
C700 C703 1.386 . S
H701 C717 0.930 . S
H702 C718 0.931 . S
C703 H691 0.929 . S
C703 C697 1.390 . S
C703 C700 1.386 . S
C704 C699 1.490 . S
C704 C706 1.395 . S
C704 C707 1.403 . S
H705 C711 0.930 1_556 S
C706 H692 0.930 . S
C706 C704 1.395 . S
C706 C709 1.403 1_554 S
C707 C704 1.403 . S
C707 C708 1.524 . S
C707 C711 1.400 . S
C708 H693 0.960 . S
C708 H694 0.960 . S
C708 H695 0.960 . S
C708 C707 1.524 . S
C709 C706 1.403 1_556 S
C709 C710 1.392 . S
C709 C713 1.495 . S
C710 C709 1.392 . S
C710 C711 1.385 1_556 S
C710 C712 1.478 . S
C711 H705 0.930 1_554 S
C711 C707 1.400 . S
C711 C710 1.385 1_554 S
C712 C710 1.478 . S
C712 C714 1.381 . S
C712 C718 1.383 . S
C713 C709 1.495 . S
C713 H719 0.959 . S
C713 H720 0.961 . S
C713 H721 0.960 . S
C714 C712 1.381 . S
C714 C715 1.394 . S
C714 H722 0.930 . S
C715 C714 1.394 . S
C715 C716 1.383 . S
C715 H723 0.929 . S
C716 C715 1.383 . S
C716 C717 1.377 . S
C717 H701 0.930 . S
C717 C716 1.377 . S
C717 C718 1.379 . S
C718 H702 0.931 . S
C718 C712 1.383 . S
C718 C717 1.379 . S
H719 C713 0.959 . S
H720 C713 0.961 . S
H721 C713 0.960 . S
H722 C714 0.930 . S
H723 C715 0.929 . S
H724 C732 0.929 . S
H725 C734 0.930 . S
H726 C736 0.930 . S
H727 C739 0.929 . S
H728 C742 0.930 . S
H729 C744 0.960 . S
H730 C744 0.954 1_655 S
H731 C744 0.960 . S
C732 H724 0.929 . S
C732 C733 1.377 . S
C732 C734 1.384 . S
C733 C732 1.377 . S
C733 C739 1.390 . S
C734 H725 0.930 . S
C734 C732 1.384 . S
C734 C735 1.372 . S
C735 C734 1.372 . S
C735 C736 1.400 . S
C735 C740 1.490 . S
C736 H726 0.930 . S
C736 C735 1.400 . S
C736 C739 1.386 . S
H737 C753 0.912 1_455 S
H738 C754 0.931 . S
C739 H727 0.929 . S
C739 C733 1.390 . S
C739 C736 1.386 . S
C740 C735 1.490 . S
C740 C742 1.395 . S
C740 C743 1.403 . S
H741 C747 0.930 1_455 S
C742 H728 0.930 . S
C742 C740 1.395 . S
C742 C745 1.403 1_554 S
C743 C740 1.403 . S
C743 C744 1.524 1_655 S
C743 C747 1.400 1_554 S
C744 H729 0.960 . S
C744 H730 0.954 1_455 S
C744 H731 0.960 . S
C744 C743 1.524 1_455 S
C745 C742 1.403 1_556 S
C745 C746 1.392 . S
C745 C749 1.495 . S
C746 C745 1.392 . S
C746 C747 1.385 . S
C746 C748 1.478 . S
C747 H741 0.930 1_655 S
C747 C743 1.400 1_556 S
C747 C746 1.385 . S
C748 C746 1.478 . S
C748 C750 1.381 . S
C748 C754 1.383 . S
C749 C745 1.495 . S
C749 H755 0.959 . S
C749 H756 0.961 . S
C749 H757 0.960 . S
C750 C748 1.381 . S
C750 C751 1.394 . S
C750 H758 0.930 . S
C751 C750 1.394 . S
C751 C752 1.383 . S
C751 H759 0.929 . S
C752 C751 1.383 . S
C752 C753 1.384 . S
C753 H737 0.912 1_655 S
C753 C752 1.384 . S
C753 C754 1.390 . S
C754 H738 0.931 . S
C754 C748 1.383 . S
C754 C753 1.390 . S
H755 C749 0.959 . S
H756 C749 0.961 . S
H757 C749 0.960 . S
H758 C750 0.930 . S
H759 C751 0.929 . S
H760 C768 0.929 . S
H761 C770 0.930 . S
H762 C772 0.930 . S
H763 C775 0.929 . S
H764 C778 0.930 . S
H765 C780 0.960 . S
H766 C780 0.960 . S
H767 C780 0.960 . S
C768 H760 0.929 . S
C768 C769 1.377 . S
C768 C770 1.384 . S
C769 C768 1.377 . S
C769 C775 1.390 . S
C770 H761 0.930 . S
C770 C768 1.384 . S
C770 C771 1.372 . S
C771 C770 1.372 . S
C771 C772 1.400 . S
C771 C776 1.490 . S
C772 H762 0.930 . S
C772 C771 1.400 . S
C772 C775 1.386 . S
H773 C789 0.930 . S
H774 C790 0.931 . S
C775 H763 0.929 . S
C775 C769 1.390 . S
C775 C772 1.386 . S
C776 C771 1.490 . S
C776 C778 1.395 . S
C776 C779 1.403 . S
H777 C783 0.930 . S
C778 H764 0.930 . S
C778 C776 1.395 . S
C778 C781 1.403 . S
C779 C776 1.403 . S
C779 C780 1.524 . S
C779 C783 1.400 . S
C780 H765 0.960 . S
C780 H766 0.960 . S
C780 H767 0.960 . S
C780 C779 1.524 . S
C781 C778 1.403 . S
C781 C782 1.392 . S
C781 C785 1.495 . S
C782 C781 1.392 . S
C782 C783 1.385 . S
C782 C784 1.478 . S
C783 H777 0.930 . S
C783 C779 1.400 . S
C783 C782 1.385 . S
C784 C782 1.478 . S
C784 C786 1.381 . S
C784 C790 1.383 . S
C785 C781 1.495 . S
C785 H791 0.959 . S
C785 H792 0.961 . S
C785 H793 0.960 . S
C786 C784 1.381 . S
C786 C787 1.394 . S
C786 H794 0.930 . S
C787 C786 1.394 . S
C787 C788 1.383 . S
C787 H795 0.929 . S
C788 C787 1.383 . S
C788 C789 1.377 . S
C789 H773 0.930 . S
C789 C788 1.377 . S
C789 C790 1.379 . S
C790 H774 0.931 . S
C790 C784 1.383 . S
C790 C789 1.379 . S
H791 C785 0.959 . S
H792 C785 0.961 . S
H793 C785 0.960 . S
H794 C786 0.930 . S
H795 C787 0.929 . S
H796 C804 0.929 . S
H797 C806 0.930 . S
H798 C808 0.930 . S
H799 C811 0.929 . S
H800 C814 0.930 . S
H801 C816 0.960 . S
H802 C816 0.960 . S
H803 C816 0.960 . S
C804 H796 0.929 . S
C804 C805 1.377 . S
C804 C806 1.384 . S
C805 C804 1.377 . S
C805 C811 1.390 1_545 S
C806 H797 0.930 . S
C806 C804 1.384 . S
C806 C807 1.372 1_545 S
C807 C806 1.372 1_565 S
C807 C808 1.400 . S
C807 C812 1.490 . S
C808 H798 0.930 . S
C808 C807 1.400 . S
C808 C811 1.386 . S
H809 C825 0.930 . S
H810 C826 0.931 . S
C811 H799 0.929 . S
C811 C805 1.390 1_565 S
C811 C808 1.386 . S
C812 C807 1.490 . S
C812 C814 1.395 1_565 S
C812 C815 1.403 . S
H813 C819 0.930 . S
C814 H800 0.930 . S
C814 C812 1.395 1_545 S
C814 C817 1.403 . S
C815 C812 1.403 . S
C815 C816 1.524 . S
C815 C819 1.400 . S
C816 H801 0.960 . S
C816 H802 0.960 . S
C816 H803 0.960 . S
C816 C815 1.524 . S
C817 C814 1.403 . S
C817 C818 1.392 1_545 S
C817 C821 1.495 . S
C818 C817 1.392 1_565 S
C818 C819 1.385 . S
C818 C820 1.478 . S
C819 H813 0.930 . S
C819 C815 1.400 . S
C819 C818 1.385 . S
C820 C818 1.478 . S
C820 C822 1.381 . S
C820 C826 1.383 . S
C821 C817 1.495 . S
C821 H827 0.959 . S
C821 H828 0.961 . S
C821 H829 0.960 . S
C822 C820 1.381 . S
C822 C823 1.394 . S
C822 H830 0.930 . S
C823 C822 1.394 . S
C823 C824 1.383 . S
C823 H831 0.929 . S
C824 C823 1.383 . S
C824 C825 1.377 . S
C825 H809 0.930 . S
C825 C824 1.377 . S
C825 C826 1.379 . S
C826 H810 0.931 . S
C826 C820 1.383 . S
C826 C825 1.379 . S
H827 C821 0.959 . S
H828 C821 0.961 . S
H829 C821 0.960 . S
H830 C822 0.930 . S
H831 C823 0.929 . S
H832 C840 0.929 . S
H833 C842 0.930 . S
H834 C844 0.930 . S
H835 C847 0.929 . S
H836 C850 0.930 . S
H837 C852 0.960 . S
H838 C852 0.960 . S
H839 C852 0.960 . S
C840 H832 0.929 . S
C840 C841 1.377 . S
C840 C842 1.384 . S
C841 C840 1.377 . S
C841 C847 1.390 . S
C842 H833 0.930 . S
C842 C840 1.384 . S
C842 C843 1.372 . S
C843 C842 1.372 . S
C843 C844 1.400 . S
C843 C848 1.490 . S
C844 H834 0.930 . S
C844 C843 1.400 . S
C844 C847 1.386 . S
H845 C861 0.930 . S
H846 C862 0.931 . S
C847 H835 0.929 . S
C847 C841 1.390 . S
C847 C844 1.386 . S
C848 C843 1.490 . S
C848 C850 1.395 . S
C848 C851 1.403 . S
H849 C855 0.930 . S
C850 H836 0.930 . S
C850 C848 1.395 . S
C850 C853 1.403 . S
C851 C848 1.403 . S
C851 C852 1.524 . S
C851 C855 1.400 . S
C852 H837 0.960 . S
C852 H838 0.960 . S
C852 H839 0.960 . S
C852 C851 1.524 . S
C853 C850 1.403 . S
C853 C854 1.392 . S
C853 C857 1.495 . S
C854 C853 1.392 . S
C854 C855 1.385 . S
C854 C856 1.478 . S
C855 H849 0.930 . S
C855 C851 1.400 . S
C855 C854 1.385 . S
C856 C854 1.478 . S
C856 C858 1.381 . S
C856 C862 1.383 . S
C857 C853 1.495 . S
C857 H863 0.959 . S
C857 H864 0.961 . S
C857 H865 0.960 . S
C858 C856 1.381 . S
C858 C859 1.394 . S
C858 H866 0.930 . S
C859 C858 1.394 . S
C859 C860 1.383 . S
C859 H867 0.929 . S
C860 C859 1.383 . S
C860 C861 1.377 . S
C861 H845 0.930 . S
C861 C860 1.377 . S
C861 C862 1.379 . S
C862 H846 0.931 . S
C862 C856 1.383 . S
C862 C861 1.379 . S
H863 C857 0.959 . S
H864 C857 0.961 . S
H865 C857 0.960 . S
H866 C858 0.930 . S
H867 C859 0.929 . S
H868 C876 0.929 . S
H869 C878 0.930 . S
H870 C880 0.930 . S
H871 C883 0.929 . S
H872 C886 0.930 . S
H873 C888 0.960 . S
H874 C888 0.960 . S
H875 C888 0.960 . S
C876 H868 0.929 . S
C876 C877 1.377 . S
C876 C878 1.384 . S
C877 C876 1.377 . S
C877 C883 1.390 . S
C878 H869 0.930 . S
C878 C876 1.384 . S
C878 C879 1.372 . S
C879 C878 1.372 . S
C879 C880 1.400 . S
C879 C884 1.490 . S
C880 H870 0.930 . S
C880 C879 1.400 . S
C880 C883 1.386 . S
H881 C897 0.930 . S
H882 C898 0.931 . S
C883 H871 0.929 . S
C883 C877 1.390 . S
C883 C880 1.386 . S
C884 C879 1.490 . S
C884 C886 1.395 . S
C884 C887 1.403 . S
H885 C891 0.930 . S
C886 H872 0.930 . S
C886 C884 1.395 . S
C886 C889 1.403 . S
C887 C884 1.403 . S
C887 C888 1.524 . S
C887 C891 1.400 . S
C888 H873 0.960 . S
C888 H874 0.960 . S
C888 H875 0.960 . S
C888 C887 1.524 . S
C889 C886 1.403 . S
C889 C890 1.392 . S
C889 C893 1.495 . S
C890 C889 1.392 . S
C890 C891 1.385 . S
C890 C892 1.478 . S
C891 H885 0.930 . S
C891 C887 1.400 . S
C891 C890 1.385 . S
C892 C890 1.478 . S
C892 C894 1.381 . S
C892 C898 1.383 . S
C893 C889 1.495 . S
C893 H899 0.959 . S
C893 H900 0.961 . S
C893 H901 0.960 . S
C894 C892 1.381 . S
C894 C895 1.394 . S
C894 H902 0.930 . S
C895 C894 1.394 . S
C895 C896 1.383 . S
C895 H903 0.929 . S
C896 C895 1.383 . S
C896 C897 1.377 . S
C897 H881 0.930 . S
C897 C896 1.377 . S
C897 C898 1.379 . S
C898 H882 0.931 . S
C898 C892 1.383 . S
C898 C897 1.379 . S
H899 C893 0.959 . S
H900 C893 0.961 . S
H901 C893 0.960 . S
H902 C894 0.930 . S
H903 C895 0.929 . S
H904 C912 0.929 . S
H905 C914 0.930 . S
H906 C916 0.930 . S
H907 C919 0.929 . S
H908 C922 0.930 . S
H909 C924 0.960 . S
H910 C924 0.960 . S
H911 C924 0.960 . S
C912 H904 0.929 . S
C912 C913 1.377 . S
C912 C914 1.384 . S
C913 C912 1.377 . S
C913 C919 1.390 . S
C914 H905 0.930 . S
C914 C912 1.384 . S
C914 C915 1.372 . S
C915 C914 1.372 . S
C915 C916 1.400 . S
C915 C920 1.490 . S
C916 H906 0.930 . S
C916 C915 1.400 . S
C916 C919 1.386 . S
H917 C933 0.930 1_655 S
H918 C934 0.931 . S
C919 H907 0.929 . S
C919 C913 1.390 . S
C919 C916 1.386 . S
C920 C915 1.490 . S
C920 C922 1.395 1_554 S
C920 C923 1.403 . S
H921 C927 0.930 . S
C922 H908 0.930 . S
C922 C920 1.395 1_556 S
C922 C925 1.403 . S
C923 C920 1.403 . S
C923 C924 1.524 . S
C923 C927 1.400 . S
C924 H909 0.960 . S
C924 H910 0.960 . S
C924 H911 0.960 . S
C924 C923 1.524 . S
C925 C922 1.403 . S
C925 C926 1.392 . S
C925 C929 1.495 . S
C926 C925 1.392 . S
C926 C927 1.385 1_556 S
C926 C928 1.478 1_655 S
C927 H921 0.930 . S
C927 C923 1.400 . S
C927 C926 1.385 1_554 S
C928 C926 1.478 1_455 S
C928 C930 1.381 . S
C928 C934 1.383 1_455 S
C929 C925 1.495 . S
C929 H935 0.959 . S
C929 H936 0.961 . S
C929 H937 0.960 1_655 S
C930 C928 1.381 . S
C930 C931 1.394 . S
C930 H938 0.930 . S
C931 C930 1.394 . S
C931 C932 1.383 . S
C931 H939 0.929 . S
C932 C931 1.383 . S
C932 C933 1.377 . S
C933 H917 0.930 1_455 S
C933 C932 1.377 . S
C933 C934 1.379 1_455 S
C934 H918 0.931 . S
C934 C928 1.383 1_655 S
C934 C933 1.379 1_655 S
H935 C929 0.959 . S
H936 C929 0.961 . S
H937 C929 0.960 1_455 S
H938 C930 0.930 . S
H939 C931 0.929 . S
H940 C948 0.929 . S
H941 C950 0.930 . S
H942 C952 0.930 . S
H943 C955 0.929 . S
H944 C958 0.930 . S
H945 C960 0.960 . S
H946 C960 0.960 . S
H947 C960 0.998 . S
C948 H940 0.929 . S
C948 C949 1.377 . S
C948 C950 1.384 . S
C949 C948 1.377 . S
C949 C955 1.390 1_565 S
C950 H941 0.930 . S
C950 C948 1.384 . S
C950 C951 1.372 1_565 S
C951 C950 1.372 1_545 S
C951 C952 1.400 . S
C951 C956 1.490 . S
C952 H942 0.930 . S
C952 C951 1.400 . S
C952 C955 1.386 . S
H953 C969 0.930 . S
H954 C970 0.931 . S
C955 H943 0.929 . S
C955 C949 1.390 1_545 S
C955 C952 1.386 . S
C956 C951 1.490 . S
C956 C958 1.395 . S
C956 C959 1.403 . S
H957 C963 0.930 . S
C958 H944 0.930 . S
C958 C956 1.395 . S
C958 C961 1.403 . S
C959 C956 1.403 . S
C959 C960 1.524 1_544 S
C959 C963 1.400 1_554 S
C960 H945 0.960 . S
C960 H946 0.960 . S
C960 H947 0.998 . S
C960 C959 1.524 1_566 S
C961 C958 1.403 . S
C961 C962 1.392 . S
C961 C965 1.495 . S
C962 C961 1.392 . S
C962 C963 1.385 1_554 S
C962 C964 1.478 1_554 S
C963 H957 0.930 . S
C963 C959 1.400 1_556 S
C963 C962 1.385 1_556 S
C964 C962 1.478 1_556 S
C964 C966 1.381 . S
C964 C970 1.383 . S
C965 C961 1.495 . S
C965 H971 0.959 . S
C965 H972 0.961 . S
C965 H973 0.960 . S
C966 C964 1.381 . S
C966 C967 1.394 . S
C966 H974 0.948 1_556 S
C967 C966 1.394 . S
C967 C968 1.383 . S
C967 H975 0.929 . S
C968 C967 1.383 . S
C968 C969 1.377 . S
C969 H953 0.930 . S
C969 C968 1.377 . S
C969 C970 1.379 . S
C970 H954 0.931 . S
C970 C964 1.383 . S
C970 C969 1.379 . S
H971 C965 0.959 . S
H972 C965 0.961 . S
H973 C965 0.960 . S
H974 C966 0.948 1_554 S
H975 C967 0.929 . S
H976 C984 0.929 . S
H977 C986 0.930 . S
H978 C988 0.930 . S
H979 C991 0.929 . S
H980 C994 0.930 . S
H981 C996 0.960 . S
H982 C996 0.960 . S
H983 C996 0.960 . S
C984 H976 0.929 . S
C984 C985 1.377 . S
C984 C986 1.384 . S
C985 C984 1.377 . S
C985 C991 1.390 . S
C986 H977 0.930 . S
C986 C984 1.384 . S
C986 C987 1.372 . S
C987 C986 1.372 . S
C987 C988 1.400 . S
C987 C992 1.490 . S
C988 H978 0.930 . S
C988 C987 1.400 . S
C988 C991 1.386 . S
H989 C1005 0.930 . S
H990 C1006 0.931 . S
C991 H979 0.929 . S
C991 C985 1.390 . S
C991 C988 1.386 . S
C992 C987 1.490 . S
C992 C994 1.395 . S
C992 C995 1.403 . S
H993 C999 0.930 . S
C994 H980 0.930 . S
C994 C992 1.395 . S
C994 C997 1.403 . S
C995 C992 1.403 . S
C995 C996 1.524 . S
C995 C999 1.400 . S
C996 H981 0.960 . S
C996 H982 0.960 . S
C996 H983 0.960 . S
C996 C995 1.524 . S
C997 C994 1.403 . S
C997 C998 1.392 . S
C997 C1001 1.495 . S
C998 C997 1.392 . S
C998 C999 1.385 . S
C998 C1000 1.478 . S
C999 H993 0.930 . S
C999 C995 1.400 . S
C999 C998 1.385 . S
C1000 C998 1.478 . S
C1000 C1002 1.381 . S
C1000 C1006 1.383 . S
C1001 C997 1.495 . S
C1001 H1007 0.959 . S
C1001 H1008 0.961 . S
C1001 H1009 0.960 . S
C1002 C1000 1.381 . S
C1002 C1003 1.394 . S
C1002 H1010 0.930 . S
C1003 C1002 1.394 . S
C1003 C1004 1.383 . S
C1003 H1011 0.929 . S
C1004 C1003 1.383 . S
C1004 C1005 1.377 . S
C1005 H989 0.930 . S
C1005 C1004 1.377 . S
C1005 C1006 1.379 . S
C1006 H990 0.931 . S
C1006 C1000 1.383 . S
C1006 C1005 1.379 . S
H1007 C1001 0.959 . S
H1008 C1001 0.961 . S
H1009 C1001 0.960 . S
H1010 C1002 0.930 . S
H1011 C1003 0.929 . S
H1012 C1020 0.929 . S
H1013 C1022 0.930 . S
H1014 C1024 0.930 . S
H1015 C1027 0.929 . S
H1016 C1030 0.930 . S
H1017 C1032 0.958 1_556 S
H1018 C1032 0.960 . S
H1019 C1032 0.960 . S
C1020 H1012 0.929 . S
C1020 C1021 1.377 . S
C1020 C1022 1.384 . S
C1021 C1020 1.377 . S
C1021 C1027 1.390 . S
C1022 H1013 0.930 . S
C1022 C1020 1.384 . S
C1022 C1023 1.372 . S
C1023 C1022 1.372 . S
C1023 C1024 1.400 . S
C1023 C1028 1.490 . S
C1024 H1014 0.930 . S
C1024 C1023 1.400 . S
C1024 C1027 1.386 . S
H1025 C1041 0.930 . S
H1026 C1042 0.931 . S
C1027 H1015 0.929 . S
C1027 C1021 1.390 . S
C1027 C1024 1.386 . S
C1028 C1023 1.490 . S
C1028 C1030 1.395 . S
C1028 C1031 1.403 . S
H1029 C1035 0.930 . S
C1030 H1016 0.930 . S
C1030 C1028 1.395 . S
C1030 C1033 1.403 . S
C1031 C1028 1.403 . S
C1031 C1032 1.524 . S
C1031 C1035 1.400 1_554 S
C1032 H1017 0.958 1_554 S
C1032 H1018 0.960 . S
C1032 H1019 0.960 . S
C1032 C1031 1.524 . S
C1033 C1030 1.403 . S
C1033 C1034 1.392 . S
C1033 C1037 1.495 . S
C1034 C1033 1.392 . S
C1034 C1035 1.385 1_554 S
C1034 C1036 1.478 1_554 S
C1035 H1029 0.930 . S
C1035 C1031 1.400 1_556 S
C1035 C1034 1.385 1_556 S
C1036 C1034 1.478 1_556 S
C1036 C1038 1.381 . S
C1036 C1042 1.383 . S
C1037 C1033 1.495 . S
C1037 H1043 0.959 . S
C1037 H1044 0.961 . S
C1037 H1045 0.960 . S
C1038 C1036 1.381 . S
C1038 C1039 1.394 . S
C1038 H1046 0.930 1_556 S
C1039 C1038 1.394 . S
C1039 C1040 1.383 . S
C1039 H1047 0.929 . S
C1040 C1039 1.383 . S
C1040 C1041 1.377 . S
C1041 H1025 0.930 . S
C1041 C1040 1.377 . S
C1041 C1042 1.379 . S
C1042 H1026 0.931 . S
C1042 C1036 1.383 . S
C1042 C1041 1.379 . S
H1043 C1037 0.959 . S
H1044 C1037 0.961 . S
H1045 C1037 0.960 . S
H1046 C1038 0.930 1_554 S
H1047 C1039 0.929 . S
H1048 C1056 0.929 . S
H1049 C1058 0.930 . S
H1050 C1060 0.930 . S
H1051 C1063 0.929 1_554 S
H1052 C1066 0.930 . S
H1053 C1068 0.960 . S
H1054 C1068 0.960 . S
H1055 C1068 0.960 . S
C1056 H1048 0.929 . S
C1056 C1057 1.377 . S
C1056 C1058 1.384 . S
C1057 C1056 1.377 . S
C1057 C1063 1.390 . S
C1058 H1049 0.930 . S
C1058 C1056 1.384 . S
C1058 C1059 1.372 . S
C1059 C1058 1.372 . S
C1059 C1060 1.400 . S
C1059 C1064 1.490 . S
C1060 H1050 0.930 . S
C1060 C1059 1.400 . S
C1060 C1063 1.386 . S
H1061 C1077 0.930 . S
H1062 C1078 0.931 . S
C1063 H1051 0.929 1_556 S
C1063 C1057 1.390 . S
C1063 C1060 1.386 . S
C1064 C1059 1.490 . S
C1064 C1066 1.395 . S
C1064 C1067 1.403 . S
H1065 C1071 0.930 . S
C1066 H1052 0.930 . S
C1066 C1064 1.395 . S
C1066 C1069 1.403 . S
C1067 C1064 1.403 . S
C1067 C1068 1.524 . S
C1067 C1071 1.400 . S
C1068 H1053 0.960 . S
C1068 H1054 0.960 . S
C1068 H1055 0.960 . S
C1068 C1067 1.524 . S
C1069 C1066 1.403 . S
C1069 C1070 1.392 . S
C1069 C1073 1.495 . S
C1070 C1069 1.392 . S
C1070 C1071 1.385 . S
C1070 C1072 1.478 . S
C1071 H1065 0.930 . S
C1071 C1067 1.400 . S
C1071 C1070 1.385 . S
C1072 C1070 1.478 . S
C1072 C1074 1.381 . S
C1072 C1078 1.383 . S
C1073 C1069 1.495 . S
C1073 H1079 0.959 . S
C1073 H1080 0.961 . S
C1073 H1081 0.960 . S
C1074 C1072 1.381 . S
C1074 C1075 1.394 . S
C1074 H1082 0.930 . S
C1075 C1074 1.394 . S
C1075 C1076 1.383 . S
C1075 H1083 0.929 . S
C1076 C1075 1.383 . S
C1076 C1077 1.377 . S
C1077 H1061 0.930 . S
C1077 C1076 1.377 . S
C1077 C1078 1.379 . S
C1078 H1062 0.931 . S
C1078 C1072 1.383 . S
C1078 C1077 1.379 . S
H1079 C1073 0.959 . S
H1080 C1073 0.961 . S
H1081 C1073 0.960 . S
H1082 C1074 0.930 . S
H1083 C1075 0.929 . S
H1084 C1092 0.929 . S
H1085 C1094 0.930 . S
H1086 C1096 0.930 . S
H1087 C1099 0.929 . S
H1088 C1102 0.930 . S
H1089 C1104 0.960 . S
H1090 C1104 0.960 . S
H1091 C1104 0.960 . S
C1092 H1084 0.929 . S
C1092 C1093 1.395 . S
C1092 C1094 1.384 . S
C1093 C1092 1.395 . S
C1093 C1099 1.378 1_545 S
C1094 H1085 0.930 . S
C1094 C1092 1.384 . S
C1094 C1095 1.372 . S
C1095 C1094 1.372 . S
C1095 C1096 1.400 1_545 S
C1095 C1100 1.490 . S
C1096 H1086 0.930 . S
C1096 C1095 1.400 1_565 S
C1096 C1099 1.386 . S
H1097 C1113 0.930 . S
H1098 C1114 0.931 . S
C1099 H1087 0.929 . S
C1099 C1093 1.378 1_565 S
C1099 C1096 1.386 . S
C1100 C1095 1.490 . S
C1100 C1102 1.395 1_545 S
C1100 C1103 1.403 . S
H1101 C1107 0.930 . S
C1102 H1088 0.930 . S
C1102 C1100 1.395 1_565 S
C1102 C1105 1.403 . S
C1103 C1100 1.403 . S
C1103 C1104 1.524 . S
C1103 C1107 1.400 . S
C1104 H1089 0.960 . S
C1104 H1090 0.960 . S
C1104 H1091 0.960 . S
C1104 C1103 1.524 . S
C1105 C1102 1.403 . S
C1105 C1106 1.364 1_565 S
C1105 C1109 1.495 . S
C1106 C1105 1.364 1_545 S
C1106 C1107 1.415 . S
C1106 C1108 1.478 . S
C1107 H1101 0.930 . S
C1107 C1103 1.400 . S
C1107 C1106 1.415 . S
C1108 C1106 1.478 . S
C1108 C1110 1.398 . S
C1108 C1114 1.371 1_545 S
C1109 C1105 1.495 . S
C1109 H1115 0.959 . S
C1109 H1116 0.961 . S
C1109 H1117 0.960 . S
C1110 C1108 1.398 . S
C1110 C1111 1.394 . S
C1110 H1118 0.930 . S
C1111 C1110 1.394 . S
C1111 C1112 1.383 . S
C1111 H1119 0.929 . S
C1112 C1111 1.383 . S
C1112 C1113 1.377 1_545 S
C1113 H1097 0.930 . S
C1113 C1112 1.377 1_565 S
C1113 C1114 1.379 . S
C1114 H1098 0.931 . S
C1114 C1108 1.371 1_565 S
C1114 C1113 1.379 . S
H1115 C1109 0.959 . S
H1116 C1109 0.961 . S
H1117 C1109 0.960 . S
H1118 C1110 0.930 . S
H1119 C1111 0.929 . S
H1120 C1128 0.929 . S
H1121 C1130 0.930 . S
H1122 C1132 0.930 . S
H1123 C1135 0.929 . S
H1124 C1138 0.930 . S
H1125 C1140 0.960 . S
H1126 C1140 0.960 . S
H1127 C1140 0.960 . S
C1128 H1120 0.929 . S
C1128 C1129 1.377 . S
C1128 C1130 1.384 . S
C1129 C1128 1.377 . S
C1129 C1135 1.390 . S
C1130 H1121 0.930 . S
C1130 C1128 1.384 . S
C1130 C1131 1.372 . S
C1131 C1130 1.372 . S
C1131 C1132 1.400 . S
C1131 C1136 1.490 . S
C1132 H1122 0.930 . S
C1132 C1131 1.400 . S
C1132 C1135 1.386 . S
H1133 C1149 0.930 . S
H1134 C1150 0.931 1_556 S
C1135 H1123 0.929 . S
C1135 C1129 1.390 . S
C1135 C1132 1.386 . S
C1136 C1131 1.490 . S
C1136 C1138 1.395 . S
C1136 C1139 1.403 . S
H1137 C1143 0.930 . S
C1138 H1124 0.930 . S
C1138 C1136 1.395 . S
C1138 C1141 1.403 . S
C1139 C1136 1.403 . S
C1139 C1140 1.524 . S
C1139 C1143 1.400 . S
C1140 H1125 0.960 . S
C1140 H1126 0.960 . S
C1140 H1127 0.960 . S
C1140 C1139 1.524 . S
C1141 C1138 1.403 . S
C1141 C1142 1.392 . S
C1141 C1145 1.495 . S
C1142 C1141 1.392 . S
C1142 C1143 1.385 . S
C1142 C1144 1.478 . S
C1143 H1137 0.930 . S
C1143 C1139 1.400 . S
C1143 C1142 1.385 . S
C1144 C1142 1.478 . S
C1144 C1146 1.381 . S
C1144 C1150 1.383 . S
C1145 C1141 1.495 . S
C1145 H1151 0.959 . S
C1145 H1152 0.961 . S
C1145 H1153 0.960 . S
C1146 C1144 1.381 . S
C1146 C1147 1.394 . S
C1146 H1154 0.930 . S
C1147 C1146 1.394 . S
C1147 C1148 1.383 1_554 S
C1147 H1155 0.929 . S
C1148 C1147 1.383 1_556 S
C1148 C1149 1.377 . S
C1149 H1133 0.930 . S
C1149 C1148 1.377 . S
C1149 C1150 1.379 1_556 S
C1150 H1134 0.931 1_554 S
C1150 C1144 1.383 . S
C1150 C1149 1.379 1_554 S
H1151 C1145 0.959 . S
H1152 C1145 0.961 . S
H1153 C1145 0.960 . S
H1154 C1146 0.930 . S
H1155 C1147 0.929 . S
H1156 C1164 0.929 . S
H1157 C1166 0.930 . S
H1158 C1168 0.930 . S
H1159 C1171 0.929 . S
H1160 C1174 0.930 . S
H1161 C1176 0.960 . S
H1162 C1176 0.960 . S
H1163 C1176 0.960 . S
C1164 H1156 0.929 . S
C1164 C1165 1.377 . S
C1164 C1166 1.384 . S
C1165 C1164 1.377 . S
C1165 C1171 1.390 . S
C1166 H1157 0.930 . S
C1166 C1164 1.384 . S
C1166 C1167 1.372 . S
C1167 C1166 1.372 . S
C1167 C1168 1.400 . S
C1167 C1172 1.490 . S
C1168 H1158 0.930 . S
C1168 C1167 1.400 . S
C1168 C1171 1.386 . S
H1169 C1185 0.930 . S
H1170 C1186 0.931 . S
C1171 H1159 0.929 . S
C1171 C1165 1.390 . S
C1171 C1168 1.386 . S
C1172 C1167 1.490 . S
C1172 C1174 1.395 . S
C1172 C1175 1.403 . S
H1173 C1179 0.930 . S
C1174 H1160 0.930 . S
C1174 C1172 1.395 . S
C1174 C1177 1.403 . S
C1175 C1172 1.403 . S
C1175 C1176 1.524 . S
C1175 C1179 1.400 . S
C1176 H1161 0.960 . S
C1176 H1162 0.960 . S
C1176 H1163 0.960 . S
C1176 C1175 1.524 . S
C1177 C1174 1.403 . S
C1177 C1178 1.392 . S
C1177 C1181 1.495 . S
C1178 C1177 1.392 . S
C1178 C1179 1.385 . S
C1178 C1180 1.478 . S
C1179 H1173 0.930 . S
C1179 C1175 1.400 . S
C1179 C1178 1.385 . S
C1180 C1178 1.478 . S
C1180 C1182 1.381 . S
C1180 C1186 1.383 . S
C1181 C1177 1.495 . S
C1181 H1187 0.959 . S
C1181 H1188 0.961 . S
C1181 H1189 0.960 . S
C1182 C1180 1.381 . S
C1182 C1183 1.394 . S
C1182 H1190 0.930 . S
C1183 C1182 1.394 . S
C1183 C1184 1.383 . S
C1183 H1191 0.929 . S
C1184 C1183 1.383 . S
C1184 C1185 1.377 . S
C1185 H1169 0.930 . S
C1185 C1184 1.377 . S
C1185 C1186 1.379 . S
C1186 H1170 0.931 . S
C1186 C1180 1.383 . S
C1186 C1185 1.379 . S
H1187 C1181 0.959 . S
H1188 C1181 0.961 . S
H1189 C1181 0.960 . S
H1190 C1182 0.930 . S
H1191 C1183 0.929 . S
H1192 C1200 0.929 . S
H1193 C1202 0.930 . S
H1194 C1204 0.930 . S
H1195 C1207 0.929 . S
H1196 C1210 0.930 . S
H1197 C1212 0.960 1_455 S
H1198 C1212 0.960 . S
H1199 C1212 0.978 . S
C1200 H1192 0.929 . S
C1200 C1201 1.377 . S
C1200 C1202 1.384 . S
C1201 C1200 1.377 . S
C1201 C1207 1.390 . S
C1202 H1193 0.930 . S
C1202 C1200 1.384 . S
C1202 C1203 1.372 . S
C1203 C1202 1.372 . S
C1203 C1204 1.400 . S
C1203 C1208 1.490 . S
C1204 H1194 0.930 . S
C1204 C1203 1.400 . S
C1204 C1207 1.386 . S
H1205 C1221 0.930 1_455 S
H1206 C1222 0.931 . S
C1207 H1195 0.929 . S
C1207 C1201 1.390 . S
C1207 C1204 1.386 . S
C1208 C1203 1.490 . S
C1208 C1210 1.395 . S
C1208 C1211 1.403 . S
H1209 C1215 0.930 . S
C1210 H1196 0.930 . S
C1210 C1208 1.395 . S
C1210 C1213 1.403 . S
C1211 C1208 1.403 . S
C1211 C1212 1.524 . S
C1211 C1215 1.400 . S
C1212 H1197 0.960 1_655 S
C1212 H1198 0.960 . S
C1212 H1199 0.978 . S
C1212 C1211 1.524 . S
C1213 C1210 1.403 . S
C1213 C1214 1.392 . S
C1213 C1217 1.495 . S
C1214 C1213 1.392 . S
C1214 C1215 1.385 . S
C1214 C1216 1.478 . S
C1215 H1209 0.930 . S
C1215 C1211 1.400 . S
C1215 C1214 1.385 . S
C1216 C1214 1.478 . S
C1216 C1218 1.381 . S
C1216 C1222 1.383 . S
C1217 C1213 1.495 . S
C1217 H1223 0.959 . S
C1217 H1224 0.961 . S
C1217 H1225 0.960 . S
C1218 C1216 1.381 . S
C1218 C1219 1.394 . S
C1218 H1226 0.930 . S
C1219 C1218 1.394 . S
C1219 C1220 1.383 . S
C1219 H1227 0.929 . S
C1220 C1219 1.383 . S
C1220 C1221 1.377 . S
C1221 H1205 0.930 1_655 S
C1221 C1220 1.377 . S
C1221 C1222 1.379 . S
C1222 H1206 0.931 . S
C1222 C1216 1.383 . S
C1222 C1221 1.379 . S
H1223 C1217 0.959 . S
H1224 C1217 0.961 . S
H1225 C1217 0.960 . S
H1226 C1218 0.930 . S
H1227 C1219 0.929 . S
H1228 C1236 0.929 . S
H1229 C1238 0.930 . S
H1230 C1240 0.930 . S
H1231 C1243 0.929 . S
H1232 C1246 0.930 . S
H1233 C1248 0.960 . S
H1234 C1248 0.960 . S
H1235 C1248 0.960 . S
C1236 H1228 0.929 . S
C1236 C1237 1.363 1_545 S
C1236 C1238 1.384 . S
C1237 C1236 1.363 1_565 S
C1237 C1243 1.404 . S
C1238 H1229 0.930 . S
C1238 C1236 1.384 . S
C1238 C1239 1.363 1_545 S
C1239 C1238 1.363 1_565 S
C1239 C1240 1.409 . S
C1239 C1244 1.490 . S
C1240 H1230 0.930 . S
C1240 C1239 1.409 . S
C1240 C1243 1.386 . S
H1241 C1257 0.930 . S
H1242 C1258 0.931 . S
C1243 H1231 0.929 . S
C1243 C1237 1.404 . S
C1243 C1240 1.386 . S
C1244 C1239 1.490 . S
C1244 C1246 1.387 1_565 S
C1244 C1247 1.410 . S
H1245 C1251 0.930 . S
C1246 H1232 0.930 . S
C1246 C1244 1.387 1_545 S
C1246 C1249 1.403 . S
C1247 C1244 1.410 . S
C1247 C1248 1.524 . S
C1247 C1251 1.400 . S
C1248 H1233 0.960 . S
C1248 H1234 0.960 . S
C1248 H1235 0.960 . S
C1248 C1247 1.524 . S
C1249 C1246 1.403 . S
C1249 C1250 1.394 . S
C1249 C1253 1.495 . S
C1250 C1249 1.394 . S
C1250 C1251 1.384 1_545 S
C1250 C1252 1.476 1_545 S
C1251 H1245 0.930 . S
C1251 C1247 1.400 . S
C1251 C1250 1.384 1_565 S
C1252 C1250 1.476 1_565 S
C1252 C1254 1.352 1_565 S
C1252 C1258 1.415 . S
C1253 C1249 1.495 . S
C1253 H1259 0.959 . S
C1253 H1260 0.961 . S
C1253 H1261 0.960 . S
C1254 C1252 1.352 1_545 S
C1254 C1255 1.394 . S
C1254 H1262 0.930 . S
C1255 C1254 1.394 . S
C1255 C1256 1.383 1_545 S
C1255 H1263 0.929 . S
C1256 C1255 1.383 1_565 S
C1256 C1257 1.377 . S
C1257 H1241 0.930 . S
C1257 C1256 1.377 . S
C1257 C1258 1.379 . S
C1258 H1242 0.931 . S
C1258 C1252 1.415 . S
C1258 C1257 1.379 . S
H1259 C1253 0.959 . S
H1260 C1253 0.961 . S
H1261 C1253 0.960 . S
H1262 C1254 0.930 . S
H1263 C1255 0.929 . S
H1264 C1272 0.929 . S
H1265 C1274 0.930 . S
H1266 C1276 0.930 . S
H1267 C1279 0.929 . S
H1268 C1282 0.930 . S
H1269 C1284 0.960 . S
H1270 C1284 0.960 . S
H1271 C1284 0.960 . S
C1272 H1264 0.929 . S
C1272 C1273 1.377 . S
C1272 C1274 1.384 . S
C1273 C1272 1.377 . S
C1273 C1279 1.390 . S
C1274 H1265 0.930 . S
C1274 C1272 1.384 . S
C1274 C1275 1.372 . S
C1275 C1274 1.372 . S
C1275 C1276 1.400 . S
C1275 C1280 1.490 . S
C1276 H1266 0.930 . S
C1276 C1275 1.400 . S
C1276 C1279 1.386 . S
H1277 C1293 0.930 . S
H1278 C1294 0.931 . S
C1279 H1267 0.929 . S
C1279 C1273 1.390 . S
C1279 C1276 1.386 . S
C1280 C1275 1.490 . S
C1280 C1282 1.395 . S
C1280 C1283 1.403 . S
H1281 C1287 0.930 . S
C1282 H1268 0.930 . S
C1282 C1280 1.395 . S
C1282 C1285 1.403 . S
C1283 C1280 1.403 . S
C1283 C1284 1.524 . S
C1283 C1287 1.400 . S
C1284 H1269 0.960 . S
C1284 H1270 0.960 . S
C1284 H1271 0.960 . S
C1284 C1283 1.524 . S
C1285 C1282 1.403 . S
C1285 C1286 1.392 . S
C1285 C1289 1.495 . S
C1286 C1285 1.392 . S
C1286 C1287 1.385 . S
C1286 C1288 1.478 . S
C1287 H1281 0.930 . S
C1287 C1283 1.400 . S
C1287 C1286 1.385 . S
C1288 C1286 1.478 . S
C1288 C1290 1.381 . S
C1288 C1294 1.383 . S
C1289 C1285 1.495 . S
C1289 H1295 0.959 . S
C1289 H1296 0.961 . S
C1289 H1297 0.960 . S
C1290 C1288 1.381 . S
C1290 C1291 1.394 . S
C1290 H1298 0.930 . S
C1291 C1290 1.394 . S
C1291 C1292 1.383 . S
C1291 H1299 0.929 . S
C1292 C1291 1.383 . S
C1292 C1293 1.377 . S
C1293 H1277 0.930 . S
C1293 C1292 1.377 . S
C1293 C1294 1.379 . S
C1294 H1278 0.931 . S
C1294 C1288 1.383 . S
C1294 C1293 1.379 . S
H1295 C1289 0.959 . S
H1296 C1289 0.961 . S
H1297 C1289 0.960 . S
H1298 C1290 0.930 . S
H1299 C1291 0.929 . S
H1300 C1308 0.929 . S
H1301 C1310 0.930 . S
H1302 C1312 0.930 . S
H1303 C1315 0.929 . S
H1304 C1318 0.930 . S
H1305 C1320 0.960 . S
H1306 C1320 0.960 . S
H1307 C1320 0.960 . S
C1308 H1300 0.929 . S
C1308 C1309 1.377 . S
C1308 C1310 1.384 . S
C1309 C1308 1.377 . S
C1309 C1315 1.390 . S
C1310 H1301 0.930 . S
C1310 C1308 1.384 . S
C1310 C1311 1.372 . S
C1311 C1310 1.372 . S
C1311 C1312 1.400 . S
C1311 C1316 1.490 . S
C1312 H1302 0.930 . S
C1312 C1311 1.400 . S
C1312 C1315 1.386 . S
H1313 C1329 0.930 . S
H1314 C1330 0.931 . S
C1315 H1303 0.929 . S
C1315 C1309 1.390 . S
C1315 C1312 1.386 . S
C1316 C1311 1.490 . S
C1316 C1318 1.395 . S
C1316 C1319 1.403 . S
H1317 C1323 0.930 . S
C1318 H1304 0.930 . S
C1318 C1316 1.395 . S
C1318 C1321 1.403 . S
C1319 C1316 1.403 . S
C1319 C1320 1.524 . S
C1319 C1323 1.400 . S
C1320 H1305 0.960 . S
C1320 H1306 0.960 . S
C1320 H1307 0.960 . S
C1320 C1319 1.524 . S
C1321 C1318 1.403 . S
C1321 C1322 1.392 . S
C1321 C1325 1.495 . S
C1322 C1321 1.392 . S
C1322 C1323 1.385 . S
C1322 C1324 1.478 . S
C1323 H1317 0.930 . S
C1323 C1319 1.400 . S
C1323 C1322 1.385 . S
C1324 C1322 1.478 . S
C1324 C1326 1.381 . S
C1324 C1330 1.383 . S
C1325 C1321 1.495 . S
C1325 H1331 0.959 . S
C1325 H1332 0.961 . S
C1325 H1333 0.960 . S
C1326 C1324 1.381 . S
C1326 C1327 1.394 . S
C1326 H1334 0.930 . S
C1327 C1326 1.394 . S
C1327 C1328 1.383 . S
C1327 H1335 0.929 . S
C1328 C1327 1.383 . S
C1328 C1329 1.377 . S
C1329 H1313 0.930 . S
C1329 C1328 1.377 . S
C1329 C1330 1.379 . S
C1330 H1314 0.931 . S
C1330 C1324 1.383 . S
C1330 C1329 1.379 . S
H1331 C1325 0.959 . S
H1332 C1325 0.961 . S
H1333 C1325 0.960 . S
H1334 C1326 0.930 . S
H1335 C1327 0.929 . S
C481 C255 1.911 . S
C500 C335 2.017 . S
C536 C375 1.554 . S
C517 C294 1.535 . S
C572 C394 2.096 . S
C553 C177 1.984 . S
C608 C455 1.659 . S
C589 C216 1.560 . S
C644 C314 2.006 . S
C625 C99 1.905 1_545 S
C661 C138 1.525 . S
C680 C354 1.575 . S
C697 C21 1.977 . S
C716 C415 2.081 . S
C733 C60 1.578 . S
C752 C434 1.660 1_655 S
C788 C316 0.440 . S
C769 C196 0.490 . S
C824 C356 0.293 . S
C805 C235 0.300 1_545 S
C860 C412 0.564 . S
C841 C289 0.623 . S
C877 C157 0.202 . S
C896 C436 0.198 . S
C913 C40 0.486 . S
C932 C337 0.525 . S
C968 C377 0.417 . S
C949 C79 0.310 . S
C1004 C423 0.609 . S
C985 C133 0.608 . S
C1021 C1 0.207 . S
C1040 C457 0.368 . S
C1057 C211 2.171 1_556 S
C1076 C332 2.395 . S
C1093 C250 2.623 . S
C1112 C372 2.888 . S
C1148 C396 1.831 . S
C1129 C274 1.783 . S
C1184 C452 2.846 . S
C1165 C172 2.591 . S
C1201 C55 2.163 . S
C1220 C343 2.406 . S
C1256 C383 2.890 . S
C1237 C94 2.632 1_565 S
C1292 C417 1.840 . S
C1273 C118 1.790 . S
C1309 C16 2.599 . S
C1328 C463 2.842 . S
