# Generated by pormake.
# Topology zzz, (3,6)-cn, num edge types: 1
# Building blocks:
#     Node 0, Type 0, BuildingBlock: BETDIP_clean_linker_0, # of connection points: 3
#     Node 1, Type 0, BuildingBlock: BETDIP_clean_linker_0, # of connection points: 3
#     Node 2, Type 0, BuildingBlock: BETDIP_clean_linker_0, # of connection points: 3
#     Node 3, Type 0, BuildingBlock: BETDIP_clean_linker_0, # of connection points: 3
#     Node 4, Type 0, BuildingBlock: BETDIP_clean_linker_0, # of connection points: 3
#     Node 5, Type 0, BuildingBlock: BETDIP_clean_linker_0, # of connection points: 3
#     Node 6, Type 0, BuildingBlock: BETDIP_clean_linker_0, # of connection points: 3
#     Node 7, Type 0, BuildingBlock: BETDIP_clean_linker_0, # of connection points: 3
#     Node 8, Type 1, BuildingBlock: KUMBUR_clean_sbu_0, # of connection points: 6
#     Node 9, Type 1, BuildingBlock: KUMBUR_clean_sbu_0, # of connection points: 6
#     Node 10, Type 1, BuildingBlock: KUMBUR_clean_sbu_0, # of connection points: 6
#     Node 11, Type 1, BuildingBlock: KUMBUR_clean_sbu_0, # of connection points: 6
#     Edge 12, Type (0, 1), BuildingBlock: TEMPAE_clean_linker_10, # of connection points: 2
#     Edge 13, Type (0, 1), BuildingBlock: TEMPAE_clean_linker_10, # of connection points: 2
#     Edge 14, Type (0, 1), BuildingBlock: TEMPAE_clean_linker_10, # of connection points: 2
#     Edge 15, Type (0, 1), BuildingBlock: TEMPAE_clean_linker_10, # of connection points: 2
#     Edge 16, Type (0, 1), BuildingBlock: TEMPAE_clean_linker_10, # of connection points: 2
#     Edge 17, Type (0, 1), BuildingBlock: TEMPAE_clean_linker_10, # of connection points: 2
#     Edge 18, Type (0, 1), BuildingBlock: TEMPAE_clean_linker_10, # of connection points: 2
#     Edge 19, Type (0, 1), BuildingBlock: TEMPAE_clean_linker_10, # of connection points: 2
#     Edge 20, Type (0, 1), BuildingBlock: TEMPAE_clean_linker_10, # of connection points: 2
#     Edge 21, Type (0, 1), BuildingBlock: TEMPAE_clean_linker_10, # of connection points: 2
#     Edge 22, Type (0, 1), BuildingBlock: TEMPAE_clean_linker_10, # of connection points: 2
#     Edge 23, Type (0, 1), BuildingBlock: TEMPAE_clean_linker_10, # of connection points: 2
#     Edge 24, Type (0, 1), BuildingBlock: TEMPAE_clean_linker_10, # of connection points: 2
#     Edge 25, Type (0, 1), BuildingBlock: TEMPAE_clean_linker_10, # of connection points: 2
#     Edge 26, Type (0, 1), BuildingBlock: TEMPAE_clean_linker_10, # of connection points: 2
#     Edge 27, Type (0, 1), BuildingBlock: TEMPAE_clean_linker_10, # of connection points: 2
#     Edge 28, Type (0, 1), BuildingBlock: TEMPAE_clean_linker_10, # of connection points: 2
#     Edge 29, Type (0, 1), BuildingBlock: TEMPAE_clean_linker_10, # of connection points: 2
#     Edge 30, Type (0, 1), BuildingBlock: TEMPAE_clean_linker_10, # of connection points: 2
#     Edge 31, Type (0, 1), BuildingBlock: TEMPAE_clean_linker_10, # of connection points: 2
#     Edge 32, Type (0, 1), BuildingBlock: TEMPAE_clean_linker_10, # of connection points: 2
#     Edge 33, Type (0, 1), BuildingBlock: TEMPAE_clean_linker_10, # of connection points: 2
#     Edge 34, Type (0, 1), BuildingBlock: TEMPAE_clean_linker_10, # of connection points: 2
#     Edge 35, Type (0, 1), BuildingBlock: TEMPAE_clean_linker_10, # of connection points: 2
# Relax obj value: 0.175
# Max RMSD: 0.163
# Mean RMSD: 0.115
data_MOF--net-zzz--node1-KUMBUR_clean_sbu_0--node2-BETDIP_clean_linker_0--edge1-TEMPAE_clean_linker_10
_symmetry_space_group_name_H-M    P1
_symmetry_Int_Tables_number       1
_symmetry_cell_setting            triclinic
loop_
_symmetry_equiv_pos_as_xyz
'x, y, z'
_cell_length_a     51.295327
_cell_length_b     51.265721
_cell_length_c     14.885326
_cell_angle_alpha  90.944352
_cell_angle_beta   89.637454
_cell_angle_gamma 89.90473
loop_
_atom_site_label
_atom_site_type_symbol
_atom_site_fract_x
_atom_site_fract_y
_atom_site_fract_z
_atom_type_partial_charge
H0 H 0.76699 0.51779 0.28087 0.0
H1 H 0.75493 0.57673 0.08168 0.0
H2 H 0.82188 0.58038 0.25226 0.0
H3 H 0.70926 0.571 0.16638 0.0
C4 C 0.71015 0.5515 0.13657 0.0
C5 C 0.77271 0.53593 0.25021 0.0
C6 C 0.79637 0.54827 0.27611 0.0
C7 C 0.75655 0.54733 0.18385 0.0
C8 C 0.76556 0.56954 0.13892 0.0
C9 C 0.78934 0.58115 0.16197 0.0
C10 C 0.80341 0.5715 0.23461 0.0
N11 N 0.73237 0.53567 0.15662 0.0
H12 H 1.01201 0.78337 0.26802 0.0
H13 H 0.95945 0.76383 0.0516 0.0
H14 H 0.95104 0.83637 0.19161 0.0
H15 H 0.96552 0.72056 0.14244 0.0
C16 C 0.98543 0.72207 0.11759 0.0
C17 C 0.99513 0.78806 0.22815 0.0
C18 C 0.98162 0.81228 0.24363 0.0
C19 C 0.98632 0.76969 0.16103 0.0
C20 C 0.96504 0.77652 0.10714 0.0
C21 C 0.95253 0.80062 0.11803 0.0
C22 C 0.96027 0.81746 0.18776 0.0
N23 N 0.99963 0.74538 0.1416 0.0
H24 H 0.77197 1.00607 0.34644 0.0
H25 H 0.785 0.95583 0.1142 0.0
H26 H 0.71166 0.95447 0.25082 0.0
H27 H 0.82786 0.95286 0.20882 0.0
C28 C 0.82979 0.97333 0.19203 0.0
C29 C 0.76527 0.99089 0.30081 0.0
C30 C 0.73945 0.98057 0.31079 0.0
C31 C 0.78257 0.98085 0.23211 0.0
C32 C 0.77301 0.96206 0.17083 0.0
C33 C 0.74747 0.95277 0.17727 0.0
C34 C 0.7316 0.96128 0.24872 0.0
N35 N 0.80876 0.9905 0.21928 0.0
H36 H 0.5326 0.78622 0.38442 0.0
H37 H 0.58452 0.79055 0.15531 0.0
H38 H 0.57944 0.7201 0.30429 0.0
H39 H 0.59154 0.83274 0.22588 0.0
C40 C 0.57096 0.83776 0.22306 0.0
C41 C 0.5476 0.77762 0.34182 0.0
C42 C 0.55497 0.75111 0.35327 0.0
C43 C 0.55959 0.79275 0.27343 0.0
C44 C 0.57727 0.78036 0.21353 0.0
C45 C 0.58444 0.75429 0.22473 0.0
C46 C 0.57428 0.74048 0.2971 0.0
N47 N 0.55266 0.8196 0.26 0.0
H48 H 0.27415 0.52638 0.99478 0.0
H49 H 0.28083 0.47102 0.20941 0.0
H50 H 0.21607 0.46699 0.02951 0.0
H51 H 0.29457 0.51536 0.27208 0.0
C52 C 0.31108 0.51428 0.22593 0.0
C53 C 0.26725 0.50914 0.02856 0.0
C54 C 0.2432 0.49753 1.00252 0.0
C55 C 0.28157 0.49908 0.10234 0.0
C56 C 0.27112 0.47796 0.14992 0.0
C57 C 0.24761 0.46637 0.12384 0.0
C58 C 0.23469 0.47544 0.04786 0.0
N59 N 0.30559 0.51069 0.13208 0.0
H60 H 0.03125 0.26989 0.95808 0.0
H61 H 0.05673 0.29364 0.22294 0.0
H62 H 0.06487 0.2143 0.14041 0.0
H63 H 1.00341 0.30803 0.18568 0.0
C64 C 0.01671 0.3217 0.15429 0.0
C65 C 0.04059 0.26523 0.0208 0.0
C66 C 0.04945 0.23901 0.03624 0.0
C67 C 0.04323 0.28521 0.08927 0.0
C68 C 0.05521 0.27895 0.1699 0.0
C69 C 0.06322 0.2537 0.18677 0.0
C70 C 0.06035 0.23409 0.1212 0.0
N71 N 0.03285 0.31121 0.08271 0.0
H72 H 0.27414 0.03654 0.94028 0.0
H73 H 0.25019 0.06274 0.20477 0.0
H74 H 0.33127 0.06144 0.13479 0.0
H75 H 0.23246 1.00946 0.15496 0.0
C76 C 0.22004 0.02432 0.12612 0.0
C77 C 0.27904 0.04457 1.00569 0.0
C78 C 0.30571 0.05062 0.02637 0.0
C79 C 0.25888 0.0486 0.07196 0.0
C80 C 0.2655 0.05926 0.15546 0.0
C81 C 0.29139 0.06338 0.1793 0.0
C82 C 0.31112 0.05937 0.11455 0.0
N83 N 0.23217 0.04077 0.06036 0.0
H84 H 0.51576 0.26739 0.9725 0.0
H85 H 0.46592 0.26053 0.20617 0.0
H86 H 0.46077 0.32797 0.04103 0.0
H87 H 0.51328 0.24417 0.24518 0.0
C88 C 0.50874 0.22826 0.19866 0.0
C89 C 0.49987 0.2747 0.01407 0.0
C90 C 0.48906 0.29972 0.99756 0.0
C91 C 0.49099 0.25992 0.08862 0.0
C92 C 0.47182 0.27076 0.14626 0.0
C93 C 0.46073 0.29509 0.12868 0.0
C94 C 0.46867 0.30869 0.05253 0.0
N95 N 0.50185 0.23487 0.10865 0.0
Tb96 Tb 0.0471 0.01492 0.71949 0.0
C97 C 0.94453 0.99658 0.5333 0.0
C98 C 0.9534 0.97153 0.39756 0.0
C99 C 0.91185 0.96662 0.47446 0.0
C100 C 0.96152 0.98937 0.46515 0.0
C101 C 0.91922 0.98586 0.53743 0.0
C102 C 0.92885 0.9596 0.40421 0.0
C103 C 0.90896 0.0168 0.65651 0.0
N104 N 0.95199 0.01591 0.59068 0.0
C105 C 0.93413 0.02699 0.64915 0.0
C106 C 0.90163 0.99579 0.60158 0.0
Tb107 Tb 0.99435 0.03033 0.57689 0.0
N108 N 0.98466 1.00213 0.45924 0.0
C109 C 0.99887 1.00018 0.38118 0.0
C110 C 0.9694 0.96753 0.32232 0.0
C111 C 0.99185 0.9825 0.31296 0.0
H112 H 0.93972 0.04309 0.69264 0.0
H113 H 1.00359 0.98075 0.25248 0.0
H114 H 0.9224 0.94574 0.35329 0.0
H115 H 0.8953 0.02506 0.7049 0.0
H116 H 0.01537 1.01244 0.36876 0.0
H117 H 0.03645 0.07395 0.0227 0.0
H118 H 0.96386 0.95407 0.26887 0.0
H119 H 0.10014 0.99859 0.60221 0.0
H120 H 0.02157 0.04504 0.90202 0.0
H121 H 0.14626 1.01183 0.59374 0.0
H122 H 0.8926 0.95797 0.47697 0.0
H123 H 0.08163 0.09048 0.02266 0.0
H124 H 0.12506 0.09318 0.94532 0.0
H125 H 0.88206 0.98803 0.60701 0.0
H126 H 0.15474 0.0771 0.82614 0.0
N127 N 0.0576 0.04536 0.82892 0.0
C128 C 0.04125 0.05212 0.8987 0.0
C129 C 0.07503 0.07811 0.96762 0.0
C130 C 0.09177 0.07123 0.89675 0.0
C131 C 0.04961 0.06869 0.9682 0.0
C132 C 0.0825 0.05425 0.82852 0.0
H133 H 0.16287 0.04661 0.69503 0.0
N134 N 0.0902 0.0265 0.70469 0.0
C135 C 0.13325 0.02137 0.64142 0.0
C136 C 0.09931 0.04474 0.76331 0.0
C137 C 0.10708 0.0139 0.64663 0.0
C138 C 0.14252 0.04106 0.6985 0.0
C139 C 0.12568 0.05257 0.76197 0.0
O140 O 0.07043 0.98238 0.74543 0.0
O141 O 0.01795 0.99937 0.6274 0.0
O142 O 0.97937 1.00529 0.68461 0.0
O143 O 1.00939 0.01372 0.7962 0.0
O144 O 0.0537 0.98308 0.61895 0.0
O145 O 0.04259 0.99663 0.84388 0.0
O146 O 0.96559 0.05683 0.53734 0.0
O147 O 0.02311 0.04612 0.67024 0.0
O148 O 0.06271 0.03857 0.60949 0.0
O149 O 0.03225 0.02852 0.49993 0.0
O150 O 0.98642 0.0598 0.68449 0.0
O151 O 1.00407 0.05832 0.48029 0.0
C152 C 0.03079 0.9819 0.58526 0.0
C153 C 0.04647 0.95099 0.82157 0.0
C154 C 1.00935 0.92236 0.84172 0.0
C155 C 0.0205 0.94709 0.84923 0.0
C156 C 0.02434 0.90128 0.80892 0.0
C157 C 0.0612 0.92972 0.78866 0.0
C158 C 0.0501 0.905 0.78216 0.0
C159 C 0.98569 1.0063 0.77061 0.0
C160 C 0.05769 0.9773 0.81887 0.0
C161 C 0.1346 0.07074 0.82629 0.0
C162 C 0.11772 0.0799 0.89409 0.0
C163 C 1.00963 0.06264 0.7146 0.0
C164 C 0.98364 0.09835 0.52256 0.0
C165 C 1.00773 0.11117 0.52726 0.0
C166 C 1.00921 0.13728 0.55656 0.0
C167 C 0.98637 0.15011 0.58586 0.0
C168 C 0.96099 0.11158 0.55149 0.0
C169 C 0.96247 0.13719 0.58414 0.0
C170 C 0.05629 0.03577 0.52376 0.0
C171 C 0.98216 0.07079 0.49321 0.0
H172 H 1.00894 0.96306 0.87666 0.0
H173 H 0.01619 0.88184 0.8053 0.0
H174 H 0.08119 0.93233 0.76664 0.0
H175 H 0.06151 0.88867 0.75666 0.0
H176 H 0.02538 0.10105 0.50634 0.0
H177 H 0.98673 0.1705 0.60593 0.0
H178 H 0.94217 0.10203 0.54955 0.0
H179 H 0.94494 0.14728 0.60603 0.0
Tb180 Tb 0.5317 0.04857 0.74325 0.0
C181 C 0.55989 0.95864 0.51422 0.0
C182 C 0.57915 0.97666 0.3807 0.0
C183 C 0.5954 0.93572 0.43735 0.0
C184 C 0.56161 0.97861 0.4542 0.0
C185 C 0.57573 0.93621 0.50331 0.0
C186 C 0.59713 0.95602 0.37586 0.0
C187 C 0.54628 0.91354 0.60132 0.0
N188 N 0.53924 0.959 0.57126 0.0
C189 C 0.53076 0.93597 0.60662 0.0
C190 C 0.56947 0.91396 0.55197 0.0
Tb191 Tb 0.51677 0.99795 0.58705 0.0
N192 N 0.5428 0.99725 0.45845 0.0
C193 C 0.53774 1.01125 0.38255 0.0
C194 C 0.57637 0.99394 0.30992 0.0
C195 C 0.555 1.01072 0.30945 0.0
H196 H 0.51221 0.93526 0.64144 0.0
H197 H 0.55141 0.02278 0.25179 0.0
H198 H 0.61114 0.95459 0.32116 0.0
H199 H 0.54007 0.89583 0.63374 0.0
H200 H 0.52021 0.02279 0.37667 0.0
H201 H 0.47047 0.03066 0.03438 0.0
H202 H 0.58943 0.99312 0.25243 0.0
H203 H 0.54624 0.10398 0.64149 0.0
H204 H 0.50222 0.01917 0.91793 0.0
H205 H 0.53026 0.14941 0.64185 0.0
H206 H 0.60807 0.91891 0.42908 0.0
H207 H 0.4502 0.07435 0.03851 0.0
H208 H 0.4462 0.11872 0.97165 0.0
H209 H 0.58111 0.89636 0.54564 0.0
H210 H 0.46187 0.15086 0.86303 0.0
N211 N 0.50014 0.05587 0.85156 0.0
C212 C 0.49378 0.03838 0.91685 0.0
C213 C 0.46409 0.06939 0.98578 0.0
C214 C 0.471 0.08748 0.92064 0.0
C215 C 0.47558 0.04477 0.98394 0.0
C216 C 0.48955 0.08018 0.85436 0.0
H217 H 0.49334 0.16255 0.74023 0.0
N218 N 0.51797 0.09117 0.73663 0.0
C219 C 0.52103 0.13523 0.68451 0.0
C220 C 0.49865 0.09839 0.7945 0.0
C221 C 0.5301 0.10951 0.68487 0.0
C222 C 0.50017 0.14254 0.74007 0.0
C223 C 0.4891 0.12422 0.79751 0.0
O224 O 0.56358 0.07292 0.76989 0.0
O225 O 0.5483 0.01904 0.65096 0.0
O226 O 0.53039 0.97793 0.70859 0.0
O227 O 0.53552 1.01126 0.81536 0.0
O228 O 0.56366 0.05542 0.64633 0.0
O229 O 0.54864 0.04699 0.87109 0.0
O230 O 0.49555 0.96886 0.51842 0.0
O231 O 0.5007 0.02548 0.68528 0.0
O232 O 0.50733 0.06511 0.63799 0.0
O233 O 0.52013 0.03706 0.52412 0.0
O234 O 0.48762 0.98815 0.69126 0.0
O235 O 0.48225 1.00851 0.5206 0.0
C236 C 0.56595 0.03231 0.61273 0.0
C237 C 0.59427 0.05398 0.86387 0.0
C238 C 0.62563 0.02054 0.9022 0.0
C239 C 0.59986 0.02816 0.88794 0.0
C240 C 0.64593 0.03855 0.89039 0.0
C241 C 0.61475 0.07179 0.85236 0.0
C242 C 0.64049 0.064 0.86495 0.0
C243 C 0.53522 0.98617 0.79188 0.0
C244 C 0.56746 0.0627 0.8481 0.0
C245 C 0.46957 0.13117 0.86001 0.0
C246 C 0.46065 0.11287 0.92182 0.0
C247 C 0.48426 1.01119 0.72548 0.0
C248 C 0.45047 0.97607 0.54021 0.0
C249 C 0.42856 0.99123 0.52204 0.0
C250 C 0.40449 0.98563 0.562 0.0
C251 C 0.40218 0.96471 0.62076 0.0
C252 C 0.44795 0.95477 0.59832 0.0
C253 C 0.42394 0.9493 0.63873 0.0
C254 C 0.5112 0.06012 0.55178 0.0
C255 C 0.47601 0.98431 0.50469 0.0
H256 H 0.5844 0.01413 0.89698 0.0
H257 H 0.666 0.0329 0.90174 0.0
H258 H 0.61079 0.09171 0.83326 0.0
H259 H 0.65621 0.07779 0.85594 0.0
H260 H 0.43023 1.00761 0.47707 0.0
H261 H 0.38352 0.95996 0.65065 0.0
H262 H 0.46457 0.94271 0.61424 0.0
H263 H 0.42219 0.93304 0.68383 0.0
Tb264 Tb 0.53737 0.51673 0.56888 0.0
C265 C 0.44146 0.50781 0.80474 0.0
C266 C 0.40744 0.53118 0.72806 0.0
C267 C 0.39605 0.49549 0.82593 0.0
C268 C 0.43416 0.52681 0.74482 0.0
C269 C 0.42243 0.49243 0.8478 0.0
C270 C 0.38856 0.51491 0.76645 0.0
C271 C 0.45638 0.47465 0.94025 0.0
N272 N 0.467 0.50592 0.82665 0.0
C273 C 0.4745 0.49036 0.8963 0.0
C274 C 0.43029 0.47533 0.91479 0.0
Tb275 Tb 0.49512 0.53254 0.74996 0.0
N276 N 0.45292 0.54246 0.70948 0.0
C277 C 0.44569 0.56392 0.66161 0.0
C278 C 0.4003 0.55262 0.67719 0.0
C279 C 0.41949 0.56905 0.64394 0.0
H280 H 0.4946 0.48952 0.91683 0.0
H281 H 0.4141 0.5859 0.60526 0.0
H282 H 0.36802 0.51781 0.75303 0.0
H283 H 0.46257 0.46198 0.99359 0.0
H284 H 0.45961 0.57732 0.63465 0.0
H285 H 0.61852 0.46526 0.72306 0.0
H286 H 0.37999 0.55721 0.66605 0.0
H287 H 0.53835 0.55982 0.40219 0.0
H288 H 0.57336 0.47159 0.68331 0.0
H289 H 0.57043 0.58791 0.32809 0.0
H290 H 0.3812 0.48367 0.85751 0.0
H291 H 0.65229 0.49574 0.67075 0.0
H292 H 0.66416 0.53443 0.57946 0.0
H293 H 0.41625 0.46325 0.94937 0.0
H294 H 0.65119 0.56773 0.47147 0.0
N295 N 0.57971 0.50665 0.60925 0.0
C296 C 0.58709 0.48546 0.65834 0.0
C297 C 0.63212 0.49894 0.65294 0.0
C298 C 0.625 0.51957 0.59819 0.0
C299 C 0.61313 0.48162 0.68201 0.0
C300 C 0.59842 0.5228 0.57635 0.0
H301 H 0.6165 0.58723 0.37546 0.0
N302 N 0.56577 0.54324 0.49261 0.0
C303 C 0.57653 0.57509 0.38108 0.0
C304 C 0.5912 0.54167 0.51603 0.0
C305 C 0.55838 0.55903 0.42345 0.0
C306 C 0.60248 0.57473 0.40829 0.0
C307 C 0.6102 0.55764 0.4755 0.0
O308 O 0.54893 0.50523 0.43784 0.0
O309 O 0.49662 0.52058 0.61003 0.0
O310 O 0.49328 0.48983 0.72782 0.0
O311 O 0.53169 0.48107 0.64919 0.0
O312 O 0.50697 0.53598 0.49033 0.0
O313 O 0.52366 0.48113 0.51526 0.0
O314 O 0.48223 0.54471 0.87882 0.0
O315 O 0.53565 0.52861 0.70869 0.0
O316 O 0.53995 0.55926 0.59326 0.0
O317 O 0.50134 0.56824 0.67023 0.0
O318 O 0.52562 0.51415 0.83022 0.0
O319 O 0.5088 0.56809 0.80388 0.0
C320 C 0.48737 0.53169 0.54176 0.0
C321 C 0.51329 0.48526 0.363 0.0
C322 C 0.47701 0.46315 0.29014 0.0
C323 C 0.49594 0.46424 0.35745 0.0
C324 C 0.47536 0.48328 0.22785 0.0
C325 C 0.51095 0.50575 0.30171 0.0
C326 C 0.49191 0.50477 0.23499 0.0
C327 C 0.51142 0.4733 0.69806 0.0
C328 C 0.5327 0.48589 0.43575 0.0
C329 C 0.63639 0.55541 0.50093 0.0
C330 C 0.64377 0.53644 0.56233 0.0
C331 C 0.54506 0.51794 0.77752 0.0
C332 C 0.5164 0.56563 0.95846 0.0
C333 C 0.53321 0.58706 0.96575 0.0
C334 C 0.55067 0.58919 0.03739 0.0
C335 C 0.55129 0.56968 0.10235 0.0
C336 C 0.51777 0.54579 0.0225 0.0
C337 C 0.53531 0.54781 0.09366 0.0
C338 C 0.52198 0.57595 0.62312 0.0
C339 C 0.49838 0.56411 0.8819 0.0
H340 H 0.49766 0.44829 0.40407 0.0
H341 H 0.46149 0.48221 0.17337 0.0
H342 H 0.52373 0.52249 0.30522 0.0
H343 H 0.49018 0.52052 0.18792 0.0
H344 H 0.53226 0.60247 0.91675 0.0
H345 H 0.56422 0.57133 0.15939 0.0
H346 H 0.50537 0.52876 0.01778 0.0
H347 H 0.53641 0.5325 0.14258 0.0
Tb348 Tb 0.0298 0.54652 0.54353 0.0
C349 C 0.03841 0.45217 0.77947 0.0
C350 C 0.01848 0.41683 0.69509 0.0
C351 C 0.05249 0.40741 0.80254 0.0
C352 C 0.021 0.44379 0.7144 0.0
C353 C 0.05381 0.43399 0.82597 0.0
C354 C 0.03483 0.39885 0.73731 0.0
C355 C 0.06846 0.4691 0.92288 0.0
N356 N 0.03885 0.47792 0.80192 0.0
C357 C 0.05292 0.48639 0.87511 0.0
C358 C 0.06927 0.44285 0.89726 0.0
Tb359 Tb 1.01271 0.50454 0.71788 0.0
N360 N 1.00523 0.4617 0.67519 0.0
C361 C 0.98526 0.45329 0.62114 0.0
C362 C 0.99884 0.40853 0.63704 0.0
C363 C 0.98202 0.4268 0.60064 0.0
H364 H 0.05284 0.50662 0.89583 0.0
H365 H 0.9664 0.42051 0.55683 0.0
H366 H 0.03334 0.37816 0.72216 0.0
H367 H 0.07992 0.47607 0.97916 0.0
H368 H 0.9718 0.46647 0.59083 0.0
H369 H 0.07933 0.62733 0.71521 0.0
H370 H 0.99598 0.38797 0.6224 0.0
H371 H 0.98879 0.54845 0.36945 0.0
H372 H 0.07386 0.58241 0.66826 0.0
H373 H 0.96122 0.58083 0.2958 0.0
H374 H 0.06436 0.39322 0.83675 0.0
H375 H 0.04891 0.66118 0.66409 0.0
H376 H 1.01081 0.6733 0.56993 0.0
H377 H 0.08128 0.42947 0.93459 0.0
H378 H 0.9787 0.66076 0.4553 0.0
N379 N 0.0393 0.58882 0.59062 0.0
C380 C 0.06 0.59611 0.6435 0.0
C381 C 0.04606 0.64107 0.64299 0.0
C382 C 0.02597 0.63411 0.58465 0.0
C383 C 0.06335 0.62205 0.67139 0.0
C384 C 0.02323 0.60762 0.55845 0.0
H385 H 0.96069 0.62656 0.35082 0.0
N386 N 1.00409 0.57537 0.46675 0.0
C387 C 0.97339 0.58668 0.35172 0.0
C388 C 1.00505 0.60065 0.49443 0.0
C389 C 0.98922 0.56838 0.39372 0.0
C390 C 0.97303 0.61242 0.38332 0.0
C391 C 0.98927 0.61981 0.45442 0.0
O392 O 0.04293 0.55885 0.41643 0.0
O393 O 0.0262 0.50528 0.57877 0.0
O394 O 0.0555 0.5028 0.70432 0.0
O395 O 0.06477 0.54098 0.62891 0.0
O396 O 1.01132 0.51664 0.45915 0.0
O397 O 0.06535 0.5319 0.49231 0.0
O398 O 0.99794 0.4907 0.84084 0.0
O399 O 0.01606 0.54536 0.68075 0.0
O400 O 0.98672 0.54727 0.55723 0.0
O401 O 0.97804 0.50871 0.63134 0.0
O402 O 0.02972 0.5356 0.80284 0.0
O403 O 0.97693 0.51919 0.76681 0.0
C404 C 0.0157 0.49651 0.5068 0.0
C405 C 0.06126 0.52234 0.33853 0.0
C406 C 0.08057 0.48391 0.26654 0.0
C407 C 0.08097 0.50342 0.3335 0.0
C408 C 0.06013 0.48306 0.20456 0.0
C409 C 0.04076 0.52123 0.27603 0.0
C410 C 0.04011 0.50145 0.21027 0.0
C411 C 0.07218 0.52093 0.6784 0.0
C412 C 0.06142 0.54157 0.41361 0.0
C413 C 0.9909 0.64585 0.48426 0.0
C414 C 1.0092 0.65298 0.54942 0.0
C415 C 0.02587 0.55511 0.75189 0.0
C416 C 0.97762 0.52532 0.92284 0.0
C417 C 0.95683 0.54302 0.92958 0.0
C418 C 0.95486 0.56036 1.003 0.0
C419 C 0.974 0.56015 0.06986 0.0
C420 C 0.99691 0.52558 0.98967 0.0
C421 C 0.99517 0.54315 0.0622 0.0
C422 C 0.97029 0.52877 0.58272 0.0
C423 C 0.97931 0.50784 0.84339 0.0
H424 H 0.09706 0.50426 0.38046 0.0
H425 H 0.05996 0.46853 0.15097 0.0
H426 H 0.02512 0.53538 0.27835 0.0
H427 H 0.02421 0.50049 0.16299 0.0
H428 H 0.94174 0.54283 0.87879 0.0
H429 H 0.97243 0.57298 0.12814 0.0
H430 H 0.01332 0.51233 0.98611 0.0
H431 H 1.0101 0.54345 0.11314 0.0
C432 C 0.17645 0.04891 0.15325 0.0
C433 C 0.19388 0.02854 0.17234 0.0
C434 C 0.15272 0.05228 0.20284 0.0
C435 C 0.14615 0.03504 0.27383 0.0
C436 C 0.16365 0.01436 0.29189 0.0
C437 C 0.18694 1.01144 0.24153 0.0
C438 C 0.13473 0.07442 0.1797 0.0
C439 C 0.15802 0.99534 0.36592 0.0
C440 C 0.10041 0.05284 0.47284 0.0
C441 C 0.07768 0.03848 0.45367 0.0
C442 C 0.12215 0.05293 0.41347 0.0
C443 C 0.12153 0.03847 0.33115 0.0
C444 C 0.09817 0.02489 0.30952 0.0
C445 C 0.07677 0.02498 0.3706 0.0
C446 C 0.14633 0.06763 0.44114 0.0
C447 C 0.09617 1.00912 0.22339 0.0
H448 H 0.1814 0.06232 0.10031 0.0
H449 H 0.2001 0.99562 0.25744 0.0
H450 H 0.11527 0.06665 0.16137 0.0
H451 H 0.13197 0.08749 0.23917 0.0
H452 H 0.1423 0.08608 0.12298 0.0
H453 H 0.17301 0.97975 0.36979 0.0
H454 H 0.15722 1.00591 0.43148 0.0
H455 H 0.13872 0.98608 0.35543 0.0
H456 H 0.10155 0.06355 0.53609 0.0
H457 H 0.05977 0.01342 0.35463 0.0
H458 H 0.15317 0.08016 0.3857 0.0
H459 H 0.16218 0.05357 0.45544 0.0
H460 H 0.14301 0.08002 0.5021 0.0
H461 H 0.10244 0.02095 0.16539 0.0
H462 H 0.07603 1.002 0.21128 0.0
H463 H 0.1094 0.99202 0.22633 0.0
C464 C 0.52481 0.1969 0.31225 0.0
C465 C 0.51023 0.20106 0.23428 0.0
C466 C 0.52494 0.17266 0.35549 0.0
C467 C 0.5094 0.15184 0.32218 0.0
C468 C 0.49494 0.1557 0.2421 0.0
C469 C 0.49572 0.18016 0.19864 0.0
C470 C 0.54106 0.16986 0.4393 0.0
C471 C 0.47781 0.13435 0.20437 0.0
C472 C 0.5254 0.08374 0.41195 0.0
C473 C 0.5087 0.08204 0.48681 0.0
C474 C 0.52522 0.10578 0.35595 0.0
C475 C 0.50765 0.1267 0.37395 0.0
C476 C 0.49008 0.12456 0.44762 0.0
C477 C 0.49097 0.1025 0.50324 0.0
C478 C 0.54493 0.1073 0.28057 0.0
C479 C 0.47083 0.14603 0.46986 0.0
H480 H 0.53599 0.21294 0.34062 0.0
H481 H 0.4841 0.18322 0.13916 0.0
H482 H 0.52808 0.17145 0.49893 0.0
H483 H 0.55086 0.15055 0.44075 0.0
H484 H 0.55613 0.18532 0.44515 0.0
H485 H 0.469 0.1397 0.13918 0.0
H486 H 0.48916 0.11608 0.19463 0.0
H487 H 0.46191 0.13018 0.25294 0.0
H488 H 0.53958 0.0684 0.39952 0.0
H489 H 0.47799 0.10146 0.56086 0.0
H490 H 0.5592 0.12295 0.29617 0.0
H491 H 0.53523 0.11244 0.21687 0.0
H492 H 0.5557 0.08865 0.27019 0.0
H493 H 0.4814 0.16333 0.49647 0.0
H494 H 0.45626 0.14001 0.52098 0.0
H495 H 0.46041 0.15206 0.40845 0.0
C496 C 0.36046 0.50706 0.22663 0.0
C497 C 0.33772 0.51752 0.26608 0.0
C498 C 0.38472 0.50812 0.27221 0.0
C499 C 0.38659 0.52048 0.35837 0.0
C500 C 0.36363 0.53151 0.39671 0.0
C501 C 0.33968 0.52951 0.35121 0.0
C502 C 0.40831 0.4956 0.22882 0.0
C503 C 0.36412 0.5452 0.4869 0.0
C504 C 0.44408 0.50802 0.51976 0.0
C505 C 0.46061 0.52916 0.50216 0.0
C506 C 0.42027 0.50462 0.47273 0.0
C507 C 0.41248 0.52293 0.40704 0.0
C508 C 0.42909 0.54445 0.39043 0.0
C509 C 0.45288 0.54704 0.43688 0.0
C510 C 0.40355 0.48127 0.49298 0.0
C511 C 0.42162 0.56502 0.3239 0.0
H512 H 0.35917 0.49732 0.16165 0.0
H513 H 0.32221 0.53743 0.38279 0.0
H514 H 0.42323 0.51071 0.21553 0.0
H515 H 0.41702 0.48134 0.27525 0.0
H516 H 0.4036 0.48544 0.16447 0.0
H517 H 0.3457 0.55587 0.5019 0.0
H518 H 0.36703 0.53049 0.53964 0.0
H519 H 0.38053 0.55924 0.4902 0.0
H520 H 0.45006 0.49378 0.56859 0.0
H521 H 0.46563 0.56329 0.42208 0.0
H522 H 0.39796 0.47103 0.4297 0.0
H523 H 0.38533 0.48778 0.52701 0.0
H524 H 0.41361 0.46722 0.5371 0.0
H525 H 0.41919 0.55602 0.25621 0.0
H526 H 0.4364 0.58077 0.31942 0.0
H527 H 0.40263 0.57387 0.34363 0.0
C528 C 0.0383 0.36682 0.18011 0.0
C529 C 0.01956 0.34793 0.20191 0.0
C530 C 0.04028 0.39073 0.23012 0.0
C531 C 0.0231 0.39619 0.3041 0.0
C532 C 1.00426 0.37699 0.32548 0.0
C533 C 1.00284 0.35346 0.27508 0.0
C534 C 0.06043 0.4102 0.20092 0.0
C535 C 0.98546 0.38119 0.40261 0.0
C536 C 0.03573 0.45044 0.48519 0.0
C537 C 0.01817 0.47009 0.46005 0.0
C538 C 0.03798 0.42658 0.43487 0.0
C539 C 0.02302 0.42233 0.35542 0.0
C540 C 1.00628 0.44271 0.32811 0.0
C541 C 1.00384 0.46581 0.38068 0.0
C542 C 0.05644 0.40587 0.4666 0.0
C543 C 0.9908 0.44015 0.24258 0.0
H544 H 0.05145 0.36302 0.12411 0.0
H545 H 0.98833 0.3391 0.29345 0.0
H546 H 0.053 0.42063 0.14155 0.0
H547 H 0.06492 0.42473 0.25439 0.0
H548 H 0.07875 0.40014 0.1802 0.0
H549 H 0.9712 0.36503 0.40881 0.0
H550 H 0.99666 0.38271 0.4657 0.0
H551 H 0.9746 0.39973 0.39471 0.0
H552 H 0.04773 0.45369 0.54392 0.0
H553 H 0.99067 0.48093 0.35854 0.0
H554 H 0.07059 0.40081 0.41227 0.0
H555 H 0.04537 0.3879 0.48225 0.0
H556 H 0.06733 0.41218 0.52743 0.0
H557 H 1.00411 0.43568 0.18526 0.0
H558 H 0.97972 0.45818 0.22755 0.0
H559 H 0.97685 0.42371 0.24787 0.0
C560 C 0.85607 1.00333 0.08821 0.0
C561 C 0.85405 0.98067 0.13966 0.0
C562 C 0.8781 1.00776 0.03174 0.0
C563 C 0.89897 0.98936 0.02689 0.0
C564 C 0.89726 0.96691 0.0811 0.0
C565 C 0.87496 0.96282 0.1355 0.0
C566 C 0.87871 0.03184 0.97498 0.0
C567 C 0.91874 0.9467 0.08 0.0
C568 C 0.94268 0.98558 0.81471 0.0
C569 C 0.96479 1.0002 0.8394 0.0
C570 C 0.92137 0.98206 0.87423 0.0
C571 C 0.92196 0.9929 0.96268 0.0
C572 C 0.9448 1.00661 0.98959 0.0
C573 C 0.96574 1.01013 0.92803 0.0
C574 C 0.89795 0.96696 0.84161 0.0
C575 C 0.94703 0.0178 0.08358 0.0
H576 H 0.84007 0.01716 0.08959 0.0
H577 H 0.87372 0.94516 0.17443 0.0
H578 H 0.89672 0.04314 0.98875 0.0
H579 H 0.87916 0.0261 0.90276 0.0
H580 H 0.86156 0.04467 0.98754 0.0
H581 H 0.91584 0.93171 0.13217 0.0
H582 H 0.91948 0.93675 0.01331 0.0
H583 H 0.93796 0.9561 0.09078 0.0
H584 H 0.94183 0.97707 0.74767 0.0
H585 H 0.98264 0.02124 0.94897 0.0
H586 H 0.88019 0.97927 0.84786 0.0
H587 H 0.8949 0.9496 0.88387 0.0
H588 H 0.90008 0.96036 0.77049 0.0
H589 H 0.93111 0.03209 0.09642 0.0
H590 H 0.96602 0.02765 0.09501 0.0
H591 H 0.94479 1.00206 0.13332 0.0
C592 C 0.58364 0.87356 0.11994 0.0
C593 C 0.56396 0.86148 0.17048 0.0
C594 C 0.57843 0.89507 0.0651 0.0
C595 C 0.55292 0.90564 0.06224 0.0
C596 C 0.53309 0.89421 0.11602 0.0
C597 C 0.53873 0.87208 0.16857 0.0
C598 C 0.60031 0.90613 0.00906 0.0
C599 C 0.50579 0.90516 0.11692 0.0
C600 C 0.54649 0.97285 0.95175 0.0
C601 C 0.53916 0.96599 0.86348 0.0
C602 C 0.5504 0.95367 0.01797 0.0
C603 C 0.54672 0.92684 0.99635 0.0
C604 C 0.53874 0.91993 0.90833 0.0
C605 C 0.53489 0.93942 0.8443 0.0
C606 C 0.55899 0.96216 0.11052 0.0
C607 C 0.53505 0.89171 0.88044 0.0
H608 H 0.60327 0.86569 0.12142 0.0
H609 H 0.52343 0.86315 0.208 0.0
H610 H 0.59377 0.91035 0.93989 0.0
H611 H 0.60703 0.92475 0.04005 0.0
H612 H 0.61715 0.89257 1.00416 0.0
H613 H 0.49317 0.89575 0.16788 0.0
H614 H 0.5063 0.92648 0.13106 0.0
H615 H 0.49684 0.90229 0.04983 0.0
H616 H 0.54927 0.99322 0.96943 0.0
H617 H 0.52832 0.93353 0.77904 0.0
H618 H 0.57973 0.95673 0.11986 0.0
H619 H 0.54742 0.95212 0.16286 0.0
H620 H 0.55704 0.98357 0.1209 0.0
H621 H 0.55387 0.88114 0.88585 0.0
H622 H 0.52795 0.88953 0.81037 0.0
H623 H 0.52094 0.88215 0.92599 0.0
C624 C 0.68961 0.52519 0.00827 0.0
C625 C 0.68738 0.54302 0.08059 0.0
C626 C 0.66819 0.52004 0.95067 0.0
C627 C 0.64381 0.53268 0.96633 0.0
C628 C 0.64159 0.55022 0.04063 0.0
C629 C 0.66329 0.55536 0.09559 0.0
C630 C 0.67197 0.50179 0.87123 0.0
C631 C 0.61601 0.56317 0.06393 0.0
C632 C 0.58932 0.54012 0.79111 0.0
C633 C 0.57199 0.52024 0.81529 0.0
C634 C 0.61343 0.54348 0.83593 0.0
C635 C 0.62019 0.52706 0.90845 0.0
C636 C 0.60281 0.50675 0.93172 0.0
C637 C 0.57913 0.50364 0.88517 0.0
C638 C 0.63123 0.56527 0.80783 0.0
C639 C 0.6087 0.48885 0.0085 0.0
H640 H 0.70829 0.51597 0.99479 0.0
H641 H 0.66136 0.56917 0.15122 0.0
H642 H 0.65526 0.48821 0.86415 0.0
H643 H 0.67304 0.51345 0.8092 0.0
H644 H 0.69022 0.49022 0.87641 0.0
H645 H 0.60251 0.54823 0.09043 0.0
H646 H 0.6181 0.57896 0.1154 0.0
H647 H 0.60699 0.5714 1.00322 0.0
H648 H 0.58375 0.55346 0.73882 0.0
H649 H 0.56574 0.48841 0.90508 0.0
H650 H 0.65145 0.55788 0.79904 0.0
H651 H 0.63155 0.58062 0.86127 0.0
H652 H 0.62488 0.57424 0.74412 0.0
H653 H 0.6283 0.47997 0.99936 0.0
H654 H 0.59411 0.47298 0.01462 0.0
H655 H 0.60894 0.50026 0.07251 0.0
C656 C 0.98418 0.67444 0.07747 0.0
C657 C 0.99559 0.69895 0.06331 0.0
C658 C 0.99012 0.65241 0.02277 0.0
C659 C 1.00772 0.65448 0.94921 0.0
C660 C 0.01961 0.67921 0.93485 0.0
C661 C 0.01355 0.70103 0.99201 0.0
C662 C 0.97786 0.6267 0.04602 0.0
C663 C 0.03811 0.68292 0.85713 0.0
C664 C 0.03823 0.58954 0.86589 0.0
C665 C 0.02245 0.58211 0.79283 0.0
C666 C 0.03436 0.61326 0.91422 0.0
C667 C 0.01399 0.63052 0.89028 0.0
C668 C 0.99819 0.62334 0.81534 0.0
C669 C 1.00242 0.59928 0.76823 0.0
C670 C 0.05165 0.61938 0.99338 0.0
C671 C 0.9761 0.64069 0.78694 0.0
H672 H 0.97027 0.67245 0.13212 0.0
H673 H 0.02212 0.71989 0.97871 0.0
H674 H 0.973 0.61523 0.9848 0.0
H675 H 0.99205 0.61525 0.08517 0.0
H676 H 0.95991 0.62929 0.08741 0.0
H677 H 0.04895 0.7016 0.86291 0.0
H678 H 0.05231 0.6666 0.85206 0.0
H679 H 0.02679 0.68302 0.79388 0.0
H680 H 0.05354 0.57638 0.88661 0.0
H681 H 0.98963 0.59362 0.71365 0.0
H682 H 0.03991 0.61905 0.05622 0.0
H683 H 0.05993 0.63927 0.98748 0.0
H684 H 0.06792 0.6052 0.99929 0.0
H685 H 0.96111 0.64163 0.84101 0.0
H686 H 0.96679 0.63357 0.72398 0.0
H687 H 0.98332 0.66082 0.77665 0.0
C688 C 0.09126 0.23708 0.31041 0.0
C689 C 0.0672 0.24614 0.28009 0.0
C690 C 0.09261 0.22304 0.39046 0.0
C691 C 0.06914 0.21652 0.43541 0.0
C692 C 0.04548 0.22895 0.41095 0.0
C693 C 0.04504 0.24402 0.33405 0.0
C694 C 0.11877 0.2134 0.42142 0.0
C695 C 0.01973 0.2235 0.45716 0.0
C696 C 0.04659 0.14935 0.45961 0.0
C697 C 0.03335 0.15238 0.54165 0.0
C698 C 0.06335 0.16874 0.42924 0.0
C699 C 0.06697 0.1915 0.48319 0.0
C700 C 0.05847 0.19165 0.57365 0.0
C701 C 0.04076 0.17253 0.60092 0.0
C702 C 0.07356 0.16653 0.33388 0.0
C703 C 0.06526 0.21352 0.63818 0.0
H704 H 0.10859 0.23965 0.26947 0.0
H705 H 0.02663 0.25171 0.3104 0.0
H706 H 0.11756 0.20272 0.48556 0.0
H707 H 0.12775 0.20065 0.36875 0.0
H708 H 0.13203 0.23032 0.43082 0.0
H709 H 1.00339 0.23492 0.42881 0.0
H710 H 0.01479 0.2025 0.45019 0.0
H711 H 0.02098 0.22848 0.52962 0.0
H712 H 0.04151 0.1335 0.41396 0.0
H713 H 0.03171 0.1742 0.66647 0.0
H714 H 0.09488 0.16983 0.33264 0.0
H715 H 0.06421 0.18148 0.29157 0.0
H716 H 0.06975 0.14705 0.30294 0.0
H717 H 0.08018 0.22685 0.6102 0.0
H718 H 0.07277 0.20524 0.70145 0.0
H719 H 0.04748 0.22482 0.65649 0.0
C720 C 0.32092 0.07972 0.30108 0.0
C721 C 0.2983 0.06627 0.27562 0.0
C722 C 0.33408 0.07289 0.37943 0.0
C723 C 0.32415 0.05229 0.43156 0.0
C724 C 0.29842 0.04352 0.41776 0.0
C725 C 0.28575 0.05042 0.33881 0.0
C726 C 0.36078 0.08408 0.39642 0.0
C727 C 0.28645 0.02278 0.47564 0.0
C728 C 0.37336 0.99805 0.44618 0.0
C729 C 0.38164 1.00058 0.53478 0.0
C730 C 0.35415 0.01445 0.41295 0.0
C731 C 0.34295 0.03386 0.47052 0.0
C732 C 0.35046 0.0357 0.56164 0.0
C733 C 0.37009 0.01907 0.59258 0.0
C734 C 0.34659 1.01137 0.31521 0.0
C735 C 0.33878 0.05576 0.62539 0.0
H736 H 0.32997 0.09314 0.25482 0.0
H737 H 0.26782 0.0404 0.32183 0.0
H738 H 0.36473 0.08562 0.46949 0.0
H739 H 0.3757 0.07096 0.36554 0.0
H740 H 0.36289 0.10366 0.36627 0.0
H741 H 0.26482 0.02369 0.47373 0.0
H742 H 0.2926 1.00327 0.44975 0.0
H743 H 0.29294 0.02474 0.54636 0.0
H744 H 0.38258 0.98366 0.40209 0.0
H745 H 0.37707 0.02119 0.66056 0.0
H746 H 0.35123 0.02945 0.27852 0.0
H747 H 0.32533 1.00786 0.30954 0.0
H748 H 0.35693 0.99489 0.28106 0.0
H749 H 0.31812 0.05996 0.6095 0.0
H750 H 0.34981 0.07426 0.61969 0.0
H751 H 0.33998 0.0493 0.69613 0.0
C752 C 0.42391 0.32394 0.17502 0.0
C753 C 0.44638 0.31009 0.19868 0.0
C754 C 0.41881 0.34857 0.21378 0.0
C755 C 0.4371 0.35944 0.27426 0.0
C756 C 0.45626 0.3431 0.31219 0.0
C757 C 0.46052 0.31825 0.2742 0.0
C758 C 0.39647 0.36455 0.17907 0.0
C759 C 0.47528 0.35341 0.381 0.0
C760 C 0.46675 0.42327 0.20364 0.0
C761 C 0.46173 0.43914 0.27863 0.0
C762 C 0.45777 0.39758 0.20008 0.0
C763 C 0.4423 0.38793 0.27183 0.0
C764 C 0.43509 0.40488 0.34393 0.0
C765 C 0.44551 0.4302 0.34761 0.0
C766 C 0.46664 0.38034 0.12243 0.0
C767 C 0.4176 0.3963 0.41962 0.0
H768 H 0.4125 0.31727 0.11804 0.0
H769 H 0.47757 0.30724 0.29391 0.0
H770 H 0.38911 0.37834 0.23174 0.0
H771 H 0.40321 0.37611 0.121 0.0
H772 H 0.38025 0.35182 0.15603 0.0
H773 H 0.4869 0.33752 0.41117 0.0
H774 H 0.4889 0.36725 0.34859 0.0
H775 H 0.4648 0.36412 0.4355 0.0
H776 H 0.47948 0.43035 0.1509 0.0
H777 H 0.44168 0.4427 0.40567 0.0
H778 H 0.44956 0.3737 0.08303 0.0
H779 H 0.47689 0.36289 0.14768 0.0
H780 H 0.48013 0.39056 0.07646 0.0
H781 H 0.40649 0.37836 0.4026 0.0
H782 H 0.4036 0.41212 0.43779 0.0
H783 H 0.42956 0.3927 0.48004 0.0
C784 C 0.21866 0.42861 0.15483 0.0
C785 C 0.23224 0.45054 0.18707 0.0
C786 C 0.19379 0.42284 0.18897 0.0
C787 C 0.1824 0.44006 0.25319 0.0
C788 C 0.19841 0.45833 0.29914 0.0
C789 C 0.22354 0.46309 0.26601 0.0
C790 C 0.17814 0.40127 0.14565 0.0
C791 C 0.18749 0.47645 0.37106 0.0
C792 C 0.1203 0.47292 0.18188 0.0
C793 C 0.10377 0.46748 0.25365 0.0
C794 C 0.14559 0.46288 0.17878 0.0
C795 C 0.15409 0.44591 0.24738 0.0
C796 C 0.13637 0.43826 0.31534 0.0
C797 C 0.11146 0.44973 0.31897 0.0
C798 C 0.16371 0.47231 0.10581 0.0
C799 C 0.14364 0.41836 0.38442 0.0
H800 H 0.22575 0.41832 0.09529 0.0
H801 H 0.23433 0.47967 0.29244 0.0
H802 H 0.16387 0.39312 0.19402 0.0
H803 H 0.16718 0.40908 0.08794 0.0
H804 H 0.19107 0.38538 0.11998 0.0
H805 H 0.2032 0.48649 0.40927 0.0
H806 H 0.1752 0.49152 0.33924 0.0
H807 H 0.17506 0.46568 0.41894 0.0
H808 H 0.11412 0.4868 0.13197 0.0
H809 H 0.09825 0.44541 0.3739 0.0
H810 H 0.17036 0.45561 0.06334 0.0
H811 H 0.18106 0.48177 0.13607 0.0
H812 H 0.15425 0.48666 0.06159 0.0
H813 H 0.1421 0.39861 0.35328 0.0
H814 H 0.13041 0.41924 0.44378 0.0
H815 H 0.16403 0.42078 0.40736 0.0
C816 C 0.94988 0.81387 0.96062 0.0
C817 C 0.93728 0.81215 0.04392 0.0
C818 C 0.948 0.83675 0.91108 0.0
C819 C 0.93262 0.85773 0.94564 0.0
C820 C 0.9142 0.85266 0.01407 0.0
C821 C 0.91687 0.82974 0.06382 0.0
C822 C 0.96635 0.84006 0.83245 0.0
C823 C 0.89454 0.87292 0.04397 0.0
C824 C 0.98237 0.90941 0.96874 0.0
C825 C 0.98349 0.91712 0.87968 0.0
C826 C 0.96239 0.89312 0.99789 0.0
C827 C 0.94319 0.88457 0.93539 0.0
C828 C 0.94125 0.8973 0.85201 0.0
C829 C 0.96192 0.91323 0.82395 0.0
C830 C 0.96497 0.88171 0.09013 0.0
C831 C 0.91914 0.892 0.78822 0.0
H832 H 0.96475 0.79968 0.94215 0.0
H833 H 0.90587 0.82775 0.12577 0.0
H834 H 0.9561 0.84899 0.77538 0.0
H835 H 0.98257 0.85311 0.85265 0.0
H836 H 0.97483 0.82118 0.80892 0.0
H837 H 0.87523 0.86358 0.05367 0.0
H838 H 0.90028 0.88147 0.10987 0.0
H839 H 0.8926 0.88881 0.99462 0.0
H840 H 0.99888 0.91331 0.01216 0.0
H841 H 0.9622 0.92069 0.75631 0.0
H842 H 0.97321 0.86178 0.08309 0.0
H843 H 0.94582 0.88067 0.12447 0.0
H844 H 0.97824 0.89336 0.13373 0.0
H845 H 0.92645 0.88099 0.72837 0.0
H846 H 0.91132 0.91076 0.76363 0.0
H847 H 0.90306 0.88094 0.82009 0.0
C848 C 0.71526 0.92101 0.11432 0.0
C849 C 0.73443 0.94004 0.09946 0.0
C850 C 0.69243 0.9207 0.06263 0.0
C851 C 0.6891 0.94001 0.99705 0.0
C852 C 0.71121 0.95413 0.96732 0.0
C853 C 0.73389 0.95385 0.01917 0.0
C854 C 0.6705 0.90256 0.0866 0.0
C855 C 0.70945 0.97335 0.8918 0.0
C856 C 0.6343 0.97293 0.87967 0.0
C857 C 0.63191 0.99469 0.93717 0.0
C858 C 0.64984 0.95164 0.90443 0.0
C859 C 0.66323 0.95281 0.98729 0.0
C860 C 0.65642 0.97257 0.05149 0.0
C861 C 0.6409 0.99341 0.02501 0.0
C862 C 0.65378 0.92945 0.83817 0.0
C863 C 0.66866 0.97426 0.14335 0.0
H864 H 0.71629 0.90925 0.17406 0.0
H865 H 0.74917 0.96782 1.00503 0.0
H866 H 0.65388 0.91375 0.11587 0.0
H867 H 0.66347 0.89255 0.02473 0.0
H868 H 0.67666 0.88764 0.13544 0.0
H869 H 0.72898 0.98039 0.87056 0.0
H870 H 0.69977 0.96429 0.83276 0.0
H871 H 0.69765 0.99049 0.91396 0.0
H872 H 0.62602 0.97349 0.81295 0.0
H873 H 0.63812 1.01007 0.07 0.0
H874 H 0.66339 0.9124 0.86894 0.0
H875 H 0.66579 0.93614 0.78076 0.0
H876 H 0.63466 0.92325 0.81054 0.0
H877 H 0.66796 0.95514 0.17684 0.0
H878 H 0.65872 0.98881 0.18785 0.0
H879 H 0.68932 0.98025 0.13616 0.0
C880 C 0.58099 0.7339 0.07527 0.0
C881 C 0.59642 0.73876 0.15094 0.0
C882 C 0.58168 0.7094 0.03218 0.0
C883 C 0.59872 0.69002 0.06486 0.0
C884 C 0.61851 0.69724 0.12604 0.0
C885 C 0.61688 0.7216 0.1701 0.0
C886 C 0.56084 0.7029 0.96427 0.0
C887 C 0.63857 0.67777 0.15601 0.0
C888 C 0.5624 0.62864 0.12493 0.0
C889 C 0.56623 0.6131 0.04832 0.0
C890 C 0.5736 0.6534 0.13168 0.0
C891 C 0.58991 0.66243 0.06125 0.0
C892 C 0.59526 0.64597 0.98608 0.0
C893 C 0.58288 0.62157 0.97969 0.0
C894 C 0.56677 0.67027 0.21259 0.0
C895 C 0.61403 0.65383 0.91298 0.0
H896 H 0.56543 0.74739 0.05939 0.0
H897 H 0.62926 0.72564 0.22746 0.0
H898 H 0.56867 0.69018 0.90948 0.0
H899 H 0.54484 0.69217 0.99797 0.0
H900 H 0.55251 0.72076 0.93436 0.0
H901 H 0.6563 0.68776 0.18166 0.0
H902 H 0.63032 0.66596 0.21113 0.0
H903 H 0.64412 0.66429 0.09993 0.0
H904 H 0.54939 0.62198 0.17749 0.0
H905 H 0.58602 0.60918 0.92083 0.0
H906 H 0.55825 0.68904 0.19103 0.0
H907 H 0.58457 0.67456 0.25189 0.0
H908 H 0.55253 0.66072 0.25761 0.0
H909 H 0.61258 0.67491 0.89816 0.0
H910 H 0.61088 0.64239 0.84993 0.0
H911 H 0.63421 0.65005 0.93597 0.0
C912 C 0.8186 0.61845 0.12738 0.0
C913 C 0.80391 0.59707 0.09669 0.0
C914 C 0.84316 0.62351 0.08936 0.0
C915 C 0.85315 0.60607 0.02308 0.0
C916 C 0.83589 0.58868 0.97872 0.0
C917 C 0.81106 0.58468 0.01558 0.0
C918 C 0.86003 0.64454 0.13024 0.0
C919 C 0.84513 0.57093 0.90312 0.0
C920 C 0.92303 0.59353 0.94841 0.0
C921 C 0.93111 0.57619 0.01462 0.0
C922 C 0.89852 0.60573 0.95425 0.0
C923 C 0.88129 0.59907 0.02495 0.0
C924 C 0.89002 0.58218 0.09346 0.0
C925 C 0.91506 0.57154 0.0884 0.0
C926 C 0.89121 0.62482 0.88265 0.0
C927 C 0.87239 0.57353 0.16887 0.0
H928 H 0.81269 0.62874 0.18841 0.0
H929 H 0.79933 0.56866 0.9899 0.0
H930 H 0.87119 0.63647 0.18706 0.0
H931 H 0.87416 0.65202 0.08007 0.0
H932 H 0.84793 0.66097 0.15675 0.0
H933 H 0.82876 0.56019 0.87099 0.0
H934 H 0.85529 0.58237 0.85106 0.0
H935 H 0.85918 0.55646 0.92939 0.0
H936 H 0.93571 0.59722 0.89145 0.0
H937 H 0.92143 0.55797 0.13902 0.0
H938 H 0.90734 0.63895 0.87296 0.0
H939 H 0.8731 0.63583 0.8989 0.0
H940 H 0.8887 0.6142 0.81771 0.0
H941 H 0.88185 0.55901 0.21234 0.0
H942 H 0.85447 0.56457 0.14097 0.0
H943 H 0.86676 0.59051 0.21174 0.0
C944 C 0.02476 0.21208 0.91458 0.0
C945 C 0.04629 0.21549 0.97169 0.0
C946 C 0.0202 0.18807 0.86699 0.0
C947 C 0.03702 0.16593 0.87809 0.0
C948 C 0.0591 0.16981 0.93434 0.0
C949 C 0.06393 0.19436 0.97562 0.0
C950 C 0.99674 0.1871 0.80658 0.0
C951 C 0.07765 0.14806 0.95656 0.0
C952 C 1.00205 0.10022 0.82387 0.0
C953 C 0.01828 0.08795 0.75952 0.0
C954 C 1.0084 0.12459 0.86467 0.0
C955 C 0.03087 0.13878 0.83657 0.0
C956 C 0.04762 0.12606 0.77167 0.0
C957 C 0.04123 0.10102 0.73515 0.0
C958 C 0.99083 0.13457 0.93942 0.0
C959 C 0.0729 0.13801 0.74069 0.0
H960 H 1.01085 0.22788 0.90878 0.0
H961 H 0.0815 0.19646 0.01509 0.0
H962 H 0.99455 0.16832 0.76977 0.0
H963 H 0.97884 0.19085 0.84713 0.0
H964 H 0.99811 0.20297 0.75687 0.0
H965 H 0.08213 0.14845 0.02952 0.0
H966 H 0.06982 0.12866 0.93903 0.0
H967 H 0.09634 0.15098 0.92021 0.0
H968 H 0.98433 0.09036 0.84418 0.0
H969 H 0.05406 0.09193 0.68562 0.0
H970 H 0.97438 0.14553 0.91011 0.0
H971 H 1.00124 0.14752 0.98758 0.0
H972 H 0.98232 0.11812 0.97738 0.0
H973 H 0.07595 0.13432 0.66764 0.0
H974 H 0.0893 0.12829 0.7752 0.0
H975 H 0.07394 0.15928 0.7544 0.0
C976 C 0.33331 0.02418 0.91099 0.0
C977 C 0.32913 0.04694 0.96309 0.0
C978 C 0.35761 0.01905 0.86668 0.0
C979 C 0.37902 0.03694 0.87452 0.0
C980 C 0.37426 0.06041 0.92483 0.0
C981 C 0.34967 0.06518 0.96569 0.0
C982 C 0.35967 0.9939 0.81324 0.0
C983 C 0.395 0.08082 0.93965 0.0
C984 C 0.44662 1.00407 0.83318 0.0
C985 C 0.45818 0.01921 0.76594 0.0
C986 C 0.42181 1.01021 0.87083 0.0
C987 C 0.40635 0.03077 0.83543 0.0
C988 C 0.41796 0.04584 0.76542 0.0
C989 C 0.44362 0.04023 0.73341 0.0
C990 C 0.41266 0.99452 0.94991 0.0
C991 C 0.40388 0.06825 0.72273 0.0
H992 H 0.31795 1.00971 0.90757 0.0
H993 H 0.34693 0.08322 1.00373 0.0
H994 H 0.37883 0.991 0.78002 0.0
H995 H 0.35591 0.97721 0.85809 0.0
H996 H 0.3443 0.99342 0.76104 0.0
H997 H 0.39487 0.08769 0.01084 0.0
H998 H 0.41478 0.0738 0.92277 0.0
H999 H 0.3906 0.09797 0.89775 0.0
H1000 H 0.4575 0.98768 0.85889 0.0
H1001 H 0.45195 0.05193 0.68047 0.0
H1002 H 0.40205 0.97704 0.92505 0.0
H1003 H 0.39953 1.00594 0.99525 0.0
H1004 H 0.42946 0.98757 0.98982 0.0
H1005 H 0.40544 0.06655 0.64838 0.0
H1006 H 0.41354 0.0868 0.74281 0.0
H1007 H 0.38301 0.06943 0.74161 0.0
C1008 C 0.49178 0.32131 0.84608 0.0
C1009 C 0.50041 0.31949 0.93511 0.0
C1010 C 0.49536 0.34444 0.79645 0.0
C1011 C 0.50708 0.36673 0.83755 0.0
C1012 C 0.51687 0.36447 0.92602 0.0
C1013 C 0.51362 0.34098 0.97297 0.0
C1014 C 0.48523 0.34548 0.70168 0.0
C1015 C 0.52948 0.38742 0.9734 0.0
C1016 C 0.53027 0.42747 0.71074 0.0
C1017 C 0.50948 0.44508 0.7248 0.0
C1018 C 0.52934 0.40166 0.74318 0.0
C1019 C 0.50723 0.39299 0.7921 0.0
C1020 C 0.48573 0.41028 0.8027 0.0
C1021 C 0.48699 0.43573 0.76798 0.0
C1022 C 0.55235 0.38382 0.72658 0.0
C1023 C 0.46168 0.40241 0.85445 0.0
H1024 H 0.48089 0.3052 0.81697 0.0
H1025 H 0.5197 0.34005 0.0425 0.0
H1026 H 0.48075 0.32572 0.67416 0.0
H1027 H 0.46713 0.35733 0.70062 0.0
H1028 H 0.49963 0.35496 0.65691 0.0
H1029 H 0.53462 0.38308 0.04399 0.0
H1030 H 0.54748 0.39307 0.93703 0.0
H1031 H 0.51619 0.40453 0.97345 0.0
H1032 H 0.54754 0.4339 0.67547 0.0
H1033 H 0.47027 0.44846 0.77584 0.0
H1034 H 0.54568 0.36454 0.70073 0.0
H1035 H 0.56262 0.38047 0.7907 0.0
H1036 H 0.56647 0.39208 0.67789 0.0
H1037 H 0.45453 0.38311 0.83077 0.0
H1038 H 0.44563 0.41685 0.84867 0.0
H1039 H 0.46664 0.40065 0.92644 0.0
C1040 C 0.20203 0.52245 0.97694 0.0
C1041 C 0.22375 0.50931 0.93973 0.0
C1042 C 0.1788 0.52596 0.92785 0.0
C1043 C 0.17699 0.51642 0.83804 0.0
C1044 C 0.19943 0.50452 0.79826 0.0
C1045 C 0.22229 0.50078 0.84972 0.0
C1046 C 0.15558 0.53846 0.97425 0.0
C1047 C 0.19867 0.49405 0.70306 0.0
C1048 C 0.10872 0.49674 0.75524 0.0
C1049 C 0.09999 0.51914 0.71103 0.0
C1050 C 0.1336 0.49542 0.79514 0.0
C1051 C 0.15104 0.51684 0.78937 0.0
C1052 C 0.14302 0.53895 0.74012 0.0
C1053 C 0.11773 0.53988 0.70211 0.0
C1054 C 0.14033 0.47136 0.84739 0.0
C1055 C 0.16104 0.56188 0.72866 0.0
H1056 H 0.20256 0.52827 0.04728 0.0
H1057 H 0.23848 0.48977 0.82116 0.0
H1058 H 0.14966 0.55622 0.93798 0.0
H1059 H 0.13875 0.52488 0.97291 0.0
H1060 H 0.1597 0.54397 0.04524 0.0
H1061 H 0.21834 0.48836 0.67787 0.0
H1062 H 0.18584 0.47665 0.69992 0.0
H1063 H 0.19034 0.50882 0.65768 0.0
H1064 H 0.09592 0.48007 0.75984 0.0
H1065 H 0.11183 0.5571 0.66641 0.0
H1066 H 0.13468 0.47469 0.91869 0.0
H1067 H 0.16146 0.46683 0.84484 0.0
H1068 H 0.12941 0.45404 0.82228 0.0
H1069 H 0.1645 0.57149 0.79481 0.0
H1070 H 0.15299 0.57658 0.6823 0.0
H1071 H 0.18024 0.55514 0.70235 0.0
C1072 C 0.97057 0.85202 0.34215 0.0
C1073 C 0.98956 0.83409 0.30994 0.0
C1074 C 0.97704 0.8761 0.38327 0.0
C1075 C 1.0033 0.88186 0.40575 0.0
C1076 C 0.02248 0.86244 0.38336 0.0
C1077 C 0.01558 0.83948 0.33335 0.0
C1078 C 0.95508 0.8953 0.39931 0.0
C1079 C 0.05056 0.86538 0.41101 0.0
C1080 C 0.03118 0.95117 0.45106 0.0
C1081 C 0.02113 0.95784 0.53639 0.0
C1082 C 0.0249 0.92728 0.4069 0.0
C1083 C 1.0102 0.90787 0.4522 0.0
C1084 C 1.00095 0.91419 0.54069 0.0
C1085 C 1.00589 0.93913 0.58023 0.0
C1086 C 0.0341 0.9233 0.31117 0.0
C1087 C 0.98584 0.89479 0.59546 0.0
H1088 H 0.95009 0.84795 0.33188 0.0
H1089 H 0.03077 0.82604 0.31161 0.0
H1090 H 0.94306 0.88882 0.45698 0.0
H1091 H 0.96195 0.9154 0.41274 0.0
H1092 H 0.94209 0.89568 0.33988 0.0
H1093 H 0.05784 0.8467 0.43824 0.0
H1094 H 0.06262 0.86961 0.35086 0.0
H1095 H 0.05353 0.88097 0.46241 0.0
H1096 H 0.04371 0.96503 0.41751 0.0
H1097 H 0.9988 0.94348 0.64761 0.0
H1098 H 0.02057 0.91077 0.27178 0.0
H1099 H 0.0536 0.91396 0.31115 0.0
H1100 H 0.03616 0.94223 0.27658 0.0
H1101 H 0.96498 0.90055 0.59727 0.0
H1102 H 0.99273 0.89513 0.66561 0.0
H1103 H 0.98754 0.87446 0.56957 0.0
C1104 C 0.71303 0.01605 0.39684 0.0
C1105 C 0.71872 0.98963 0.37871 0.0
C1106 C 0.68982 0.02384 0.44353 0.0
C1107 C 0.67069 1.00496 0.46895 0.0
C1108 C 0.67733 0.97822 0.4553 0.0
C1109 C 0.70124 0.97114 0.4141 0.0
C1110 C 0.68647 0.05248 0.46523 0.0
C1111 C 0.65937 0.95626 0.48123 0.0
C1112 C 0.61071 1.01168 0.62897 0.0
C1113 C 0.59171 0.02302 0.57418 0.0
C1114 C 0.63667 1.00725 0.59792 0.0
C1115 C 0.64387 1.01271 0.50738 0.0
C1116 C 0.62456 0.02425 0.45213 0.0
C1117 C 0.5994 0.03023 0.48732 0.0
C1118 C 0.65624 0.99685 0.66354 0.0
C1119 C 0.63022 0.0301 0.35494 0.0
H1120 H 0.72626 0.03081 0.37221 0.0
H1121 H 0.70556 0.95055 0.4048 0.0
H1122 H 0.6853 0.06354 0.40186 0.0
H1123 H 0.66904 0.05688 0.50726 0.0
H1124 H 0.70397 0.05975 0.50132 0.0
H1125 H 0.65807 0.94173 0.42522 0.0
H1126 H 0.66776 0.94601 0.53951 0.0
H1127 H 0.63942 0.96271 0.49909 0.0
H1128 H 0.60564 1.00728 0.69786 0.0
H1129 H 0.58546 0.04031 0.44588 0.0
H1130 H 0.65332 1.00615 0.73061 0.0
H1131 H 0.6767 1.00029 0.64234 0.0
H1132 H 0.65321 0.97557 0.67094 0.0
H1133 H 0.64426 0.04639 0.35057 0.0
H1134 H 0.61243 0.0359 0.31808 0.0
H1135 H 0.63904 1.01279 0.32075 0.0
C1136 C 0.52612 0.71248 0.37263 0.0
C1137 C 0.54141 0.73209 0.41315 0.0
C1138 C 0.52089 0.68873 0.41584 0.0
C1139 C 0.53078 0.68431 0.50309 0.0
C1140 C 0.54431 0.70496 0.54751 0.0
C1141 C 0.54986 0.72834 0.50156 0.0
C1142 C 0.50606 0.66773 0.36557 0.0
C1143 C 0.55425 0.7018 0.64186 0.0
C1144 C 0.50476 0.62254 0.61743 0.0
C1145 C 0.52484 0.60435 0.60011 0.0
C1146 C 0.50685 0.64885 0.59047 0.0
C1147 C 0.5293 0.65732 0.54287 0.0
C1148 C 0.54996 0.63925 0.52811 0.0
C1149 C 0.54767 0.61339 0.55827 0.0
C1150 C 0.48471 0.66738 0.61163 0.0
C1151 C 0.57423 0.64689 0.47709 0.0
H1152 H 0.52003 0.71491 0.30363 0.0
H1153 H 0.56221 0.74299 0.53279 0.0
H1154 H 0.51722 0.64916 0.36462 0.0
H1155 H 0.48728 0.66401 0.40027 0.0
H1156 H 0.50188 0.67319 0.29518 0.0
H1157 H 0.55995 0.7208 0.67283 0.0
H1158 H 0.5392 0.69261 0.68482 0.0
H1159 H 0.57157 0.68882 0.64081 0.0
H1160 H 0.48719 0.61624 0.65132 0.0
H1161 H 0.56385 0.60012 0.54796 0.0
H1162 H 0.4728 0.67007 0.55057 0.0
H1163 H 0.49219 0.68681 0.63285 0.0
H1164 H 0.47178 0.65985 0.66544 0.0
H1165 H 0.589 0.63102 0.47444 0.0
H1166 H 0.58321 0.66445 0.50827 0.0
H1167 H 0.56896 0.65189 0.40736 0.0
C1168 C 0.8379 0.52349 0.29633 0.0
C1169 C 0.81659 0.53665 0.33601 0.0
C1170 C 0.86173 0.52037 0.34233 0.0
C1171 C 0.8645 0.53041 0.43121 0.0
C1172 C 0.84246 0.54224 0.47364 0.0
C1173 C 0.819 0.54553 0.42533 0.0
C1174 C 0.88451 0.50784 0.29344 0.0
C1175 C 0.84424 0.55316 0.56809 0.0
C1176 C 0.92534 0.50862 0.56126 0.0
C1177 C 0.94245 0.52981 0.55063 0.0
C1178 C 0.8998 0.50885 0.5255 0.0
C1179 C 0.89095 0.53061 0.47621 0.0
C1180 C 0.90785 0.5524 0.46801 0.0
C1181 C 0.93297 0.55184 0.50628 0.0
C1182 C 0.88234 0.48563 0.53991 0.0
C1183 C 0.90029 0.57611 0.41517 0.0
H1184 H 0.83659 0.51739 0.2264 0.0
H1185 H 0.80306 0.55652 0.45562 0.0
H1186 H 0.90137 0.52139 0.29288 0.0
H1187 H 0.89075 0.49008 0.32904 0.0
H1188 H 0.87973 0.50233 0.22297 0.0
H1189 H 0.82482 0.5587 0.59585 0.0
H1190 H 0.85334 0.53871 0.61299 0.0
H1191 H 0.85684 0.57074 0.56838 0.0
H1192 H 0.93193 0.49162 0.5969 0.0
H1193 H 0.94528 0.56883 0.50073 0.0
H1194 H 0.87844 0.4757 0.47464 0.0
H1195 H 0.86328 0.49211 0.56809 0.0
H1196 H 0.89111 0.47126 0.58598 0.0
H1197 H 0.90667 0.5731 0.34441 0.0
H1198 H 0.91022 0.5939 0.4413 0.0
H1199 H 0.87897 0.57969 0.41574 0.0
loop_
_geom_bond_atom_site_label_1
_geom_bond_atom_site_label_2
_geom_bond_distance
_geom_bond_site_symmetry_2
_ccdc_geom_bond_type
H0 C5 0.930 . S
H1 C8 0.930 . S
H2 C10 0.930 . S
H3 C4 1.016 . S
C4 H3 1.016 . S
C4 N11 1.286 . S
C5 H0 0.930 . S
C5 C6 1.397 . S
C5 C7 1.361 . S
C6 C5 1.397 . S
C6 C10 1.390 . S
C7 C5 1.361 . S
C7 C8 1.393 . S
C7 N11 1.413 . S
C8 H1 0.930 . S
C8 C7 1.393 . S
C8 C9 1.399 . S
C9 C8 1.399 . S
C9 C10 1.381 . S
C10 H2 0.930 . S
C10 C6 1.390 . S
C10 C9 1.381 . S
N11 C4 1.286 . S
N11 C7 1.413 . S
H12 C17 0.930 . S
H13 C20 0.930 . S
H14 C22 0.930 . S
H15 C16 1.016 . S
C16 H15 1.016 . S
C16 N23 1.286 . S
C17 H12 0.930 . S
C17 C18 1.397 . S
C17 C19 1.361 . S
C18 C17 1.397 . S
C18 C22 1.390 . S
C19 C17 1.361 . S
C19 C20 1.393 . S
C19 N23 1.413 . S
C20 H13 0.930 . S
C20 C19 1.393 . S
C20 C21 1.399 . S
C21 C20 1.399 . S
C21 C22 1.381 . S
C22 H14 0.930 . S
C22 C18 1.390 . S
C22 C21 1.381 . S
N23 C16 1.286 . S
N23 C19 1.413 . S
H24 C29 0.930 . S
H25 C32 0.930 . S
H26 C34 0.930 . S
H27 C28 1.016 . S
C28 H27 1.016 . S
C28 N35 1.286 . S
C29 H24 0.930 . S
C29 C30 1.397 . S
C29 C31 1.361 . S
C30 C29 1.397 . S
C30 C34 1.390 . S
C31 C29 1.361 . S
C31 C32 1.393 . S
C31 N35 1.413 . S
C32 H25 0.930 . S
C32 C31 1.393 . S
C32 C33 1.399 . S
C33 C32 1.399 . S
C33 C34 1.381 . S
C34 H26 0.930 . S
C34 C30 1.390 . S
C34 C33 1.381 . S
N35 C28 1.286 . S
N35 C31 1.413 . S
H36 C41 0.930 . S
H37 C44 0.930 . S
H38 C46 0.930 . S
H39 C40 1.016 . S
C40 H39 1.016 . S
C40 N47 1.286 . S
C41 H36 0.930 . S
C41 C42 1.397 . S
C41 C43 1.361 . S
C42 C41 1.397 . S
C42 C46 1.390 . S
C43 C41 1.361 . S
C43 C44 1.393 . S
C43 N47 1.413 . S
C44 H37 0.930 . S
C44 C43 1.393 . S
C44 C45 1.399 . S
C45 C44 1.399 . S
C45 C46 1.381 . S
C46 H38 0.930 . S
C46 C42 1.390 . S
C46 C45 1.381 . S
N47 C40 1.286 . S
N47 C43 1.413 . S
H48 C53 0.930 . S
H49 C56 0.930 . S
H50 C58 0.930 . S
H51 C52 1.016 . S
C52 H51 1.016 . S
C52 N59 1.286 . S
C53 H48 0.930 . S
C53 C54 1.397 . S
C53 C55 1.361 1_556 S
C54 C53 1.397 . S
C54 C58 1.390 . S
C55 C53 1.361 1_554 S
C55 C56 1.393 . S
C55 N59 1.413 . S
C56 H49 0.930 . S
C56 C55 1.393 . S
C56 C57 1.399 . S
C57 C56 1.399 . S
C57 C58 1.381 1_554 S
C58 H50 0.930 . S
C58 C54 1.390 . S
C58 C57 1.381 1_556 S
N59 C52 1.286 . S
N59 C55 1.413 . S
H60 C65 0.930 . S
H61 C68 0.930 . S
H62 C70 0.930 . S
H63 C64 1.016 . S
C64 H63 1.016 . S
C64 N71 1.286 . S
C65 H60 0.930 . S
C65 C66 1.397 . S
C65 C67 1.361 1_556 S
C66 C65 1.397 . S
C66 C70 1.390 . S
C67 C65 1.361 1_554 S
C67 C68 1.393 . S
C67 N71 1.413 . S
C68 H61 0.930 . S
C68 C67 1.393 . S
C68 C69 1.399 . S
C69 C68 1.399 . S
C69 C70 1.381 1_554 S
C70 H62 0.930 . S
C70 C66 1.390 . S
C70 C69 1.381 1_556 S
N71 C64 1.286 . S
N71 C67 1.413 . S
H72 C77 0.930 . S
H73 C80 0.930 . S
H74 C82 0.930 . S
H75 C76 1.016 . S
C76 H75 1.016 . S
C76 N83 1.286 . S
C77 H72 0.930 . S
C77 C78 1.397 . S
C77 C79 1.371 . S
C78 C77 1.397 . S
C78 C82 1.390 . S
C79 C77 1.371 . S
C79 C80 1.385 1_556 S
C79 N83 1.412 1_556 S
C80 H73 0.930 . S
C80 C79 1.385 1_554 S
C80 C81 1.399 . S
C81 C80 1.399 . S
C81 C82 1.381 1_554 S
C82 H74 0.930 . S
C82 C78 1.390 . S
C82 C81 1.381 1_556 S
N83 C76 1.286 . S
N83 C79 1.412 1_554 S
H84 C89 0.930 . S
H85 C92 0.930 . S
H86 C94 0.930 . S
H87 C88 1.016 . S
C88 H87 1.016 . S
C88 N95 1.286 . S
C89 H84 0.930 . S
C89 C90 1.397 . S
C89 C91 1.361 1_556 S
C90 C89 1.397 . S
C90 C94 1.390 . S
C91 C89 1.361 1_554 S
C91 C92 1.393 . S
C91 N95 1.413 . S
C92 H85 0.930 . S
C92 C91 1.393 . S
C92 C93 1.399 . S
C93 C92 1.399 . S
C93 C94 1.381 1_554 S
C94 H86 0.930 . S
C94 C90 1.390 . S
C94 C93 1.381 1_556 S
N95 C88 1.286 . S
N95 C91 1.413 . S
Tb96 N127 2.660 1_565 S
Tb96 N134 2.600 1_565 S
Tb96 O140 2.546 . S
Tb96 O141 2.610 1_455 S
Tb96 O143 2.320 1_455 S
Tb96 O144 2.552 . S
Tb96 O145 2.413 . S
Tb96 O147 2.362 1_565 S
Tb96 O148 2.421 . S
Tb96 C160 2.833 . S
C97 C100 1.432 1_545 S
C97 C101 1.409 1_545 S
C97 N104 1.359 . S
C98 C100 1.417 . S
C98 C102 1.432 . S
C98 C110 1.410 . S
C99 C101 1.461 . S
C99 C102 1.317 . S
C99 H122 0.929 . S
C100 C97 1.432 1_565 S
C100 C98 1.417 . S
C100 N108 1.366 . S
C101 C97 1.409 1_565 S
C101 C99 1.461 . S
C101 C106 1.372 1_565 S
C102 C98 1.432 . S
C102 C99 1.317 . S
C102 H114 0.930 . S
C103 C105 1.392 . S
C103 C106 1.370 . S
C103 H115 0.931 . S
N104 C97 1.359 . S
N104 C105 1.327 . S
N104 Tb107 2.600 . S
C105 C103 1.392 . S
C105 N104 1.327 . S
C105 H112 0.930 . S
C106 C101 1.372 1_545 S
C106 C103 1.370 . S
C106 H125 0.930 . S
Tb107 N104 2.600 . S
Tb107 N108 2.643 1_545 S
Tb107 O141 2.362 1_545 S
Tb107 O142 2.421 . S
Tb107 O146 2.546 . S
Tb107 O147 2.610 1_655 S
Tb107 O149 2.320 1_655 S
Tb107 O150 2.552 1_655 S
Tb107 O151 2.413 . S
Tb107 C171 2.833 . S
N108 C100 1.366 . S
N108 Tb107 2.643 1_565 S
N108 C109 1.316 1_655 S
C109 N108 1.316 1_455 S
C109 C111 1.407 . S
C109 H116 0.930 . S
C110 C98 1.410 . S
C110 C111 1.345 1_655 S
C110 H118 0.930 . S
C111 C109 1.407 . S
C111 C110 1.345 1_455 S
C111 H113 0.930 . S
H112 C105 0.930 . S
H113 C111 0.930 . S
H114 C102 0.930 . S
H115 C103 0.931 . S
H116 C109 0.930 . S
H117 C131 0.930 1_655 S
H118 C110 0.930 . S
H119 C137 0.930 . S
H120 C128 0.930 1_655 S
H121 C135 0.931 . S
H122 C99 0.929 . S
H123 C129 0.930 . S
H124 C162 0.930 . S
H125 C106 0.930 . S
H126 C161 0.929 . S
N127 Tb96 2.660 1_545 S
N127 C128 1.305 . S
N127 C132 1.360 . S
C128 H120 0.930 1_455 S
C128 N127 1.305 . S
C128 C131 1.407 1_556 S
C129 H123 0.930 . S
C129 C130 1.410 . S
C129 C131 1.345 . S
C130 C129 1.410 . S
C130 C132 1.417 1_554 S
C130 C162 1.432 . S
C131 H117 0.930 1_455 S
C131 C128 1.407 1_554 S
C131 C129 1.345 . S
C132 N127 1.360 . S
C132 C130 1.417 1_556 S
C132 C136 1.432 . S
H133 C138 0.930 . S
N134 Tb96 2.600 1_545 S
N134 C136 1.359 . S
N134 C137 1.327 1_545 S
C135 H121 0.931 . S
C135 C137 1.392 . S
C135 C138 1.370 1_565 S
C136 C132 1.432 . S
C136 N134 1.359 . S
C136 C139 1.414 . S
C137 H119 0.930 . S
C137 N134 1.327 1_565 S
C137 C135 1.392 . S
C138 H133 0.930 . S
C138 C135 1.370 1_545 S
C138 C139 1.385 . S
C139 C136 1.414 . S
C139 C138 1.385 . S
C139 C161 1.444 1_556 S
O140 Tb96 2.546 . S
O140 C160 1.251 . S
O141 Tb96 2.610 1_655 S
O141 Tb107 2.362 1_565 S
O141 C152 1.283 . S
O142 Tb107 2.421 . S
O142 C159 1.262 . S
O143 Tb96 2.320 1_655 S
O143 C159 1.260 1_565 S
O144 Tb96 2.552 . S
O144 C152 1.243 1_455 S
O145 Tb96 2.413 . S
O145 C160 1.256 . S
O146 Tb107 2.546 . S
O146 C171 1.251 . S
O147 Tb96 2.362 1_545 S
O147 Tb107 2.610 1_455 S
O147 C163 1.283 . S
O148 Tb96 2.421 . S
O148 C170 1.262 1_565 S
O149 Tb107 2.320 1_455 S
O149 C170 1.260 . S
O150 Tb107 2.552 1_455 S
O150 C163 1.243 . S
O151 Tb107 2.413 . S
O151 C171 1.256 . S
C152 O141 1.283 . S
C152 O144 1.243 1_655 S
C153 C155 1.382 . S
C153 C157 1.393 . S
C153 C160 1.500 . S
C154 C155 1.400 . S
C154 C156 1.384 1_556 S
C155 C153 1.382 . S
C155 C154 1.400 . S
C155 H172 0.956 . S
C156 C154 1.384 1_554 S
C156 C158 1.392 1_554 S
C156 H173 0.931 . S
C157 C153 1.393 . S
C157 C158 1.401 . S
C157 H174 0.930 . S
C158 C156 1.392 1_556 S
C158 C157 1.401 . S
C158 H175 0.930 . S
C159 O142 1.262 . S
C159 O143 1.260 1_545 S
C160 Tb96 2.833 . S
C160 O140 1.251 . S
C160 O145 1.256 . S
C160 C153 1.500 . S
C161 H126 0.929 . S
C161 C139 1.444 1_554 S
C161 C162 1.317 . S
C162 H124 0.930 . S
C162 C130 1.432 . S
C162 C161 1.317 . S
C163 O147 1.283 . S
C163 O150 1.243 . S
C164 C165 1.382 . S
C164 C168 1.393 . S
C164 C171 1.500 . S
C165 C164 1.382 . S
C165 C166 1.400 . S
C165 H176 0.930 1_655 S
C166 C165 1.400 . S
C166 C167 1.384 . S
C167 C166 1.384 . S
C167 C169 1.392 . S
C167 H177 0.931 . S
C168 C164 1.393 . S
C168 C169 1.401 . S
C168 H178 0.930 . S
C169 C167 1.392 . S
C169 C168 1.401 . S
C169 H179 0.930 . S
C170 O148 1.262 1_545 S
C170 O149 1.260 . S
C171 Tb107 2.833 . S
C171 O146 1.251 . S
C171 O151 1.256 . S
C171 C164 1.500 . S
H172 C155 0.956 . S
H173 C156 0.931 . S
H174 C157 0.930 . S
H175 C158 0.930 . S
H176 C165 0.930 1_455 S
H177 C167 0.931 . S
H178 C168 0.930 . S
H179 C169 0.930 . S
Tb180 N211 2.660 . S
Tb180 N218 2.600 . S
Tb180 O224 2.546 . S
Tb180 O225 2.610 1_545 S
Tb180 O227 2.320 1_545 S
Tb180 O228 2.552 . S
Tb180 O229 2.413 . S
Tb180 O231 2.362 . S
Tb180 O232 2.421 . S
Tb180 C244 2.833 . S
C181 C184 1.432 . S
C181 C185 1.414 . S
C181 N188 1.359 . S
C182 C184 1.417 . S
C182 C186 1.432 . S
C182 C194 1.410 . S
C183 C185 1.444 . S
C183 C186 1.317 . S
C183 H206 0.929 . S
C184 C181 1.432 . S
C184 C182 1.417 . S
C184 N192 1.360 . S
C185 C181 1.414 . S
C185 C183 1.444 . S
C185 C190 1.385 . S
C186 C182 1.432 . S
C186 C183 1.317 . S
C186 H198 0.930 . S
C187 C189 1.392 . S
C187 C190 1.370 . S
C187 H199 0.931 . S
N188 C181 1.359 . S
N188 C189 1.327 . S
N188 Tb191 2.600 . S
C189 C187 1.392 . S
C189 N188 1.327 . S
C189 H196 0.930 . S
C190 C185 1.385 . S
C190 C187 1.370 . S
C190 H209 0.930 . S
Tb191 N188 2.600 . S
Tb191 N192 2.660 . S
Tb191 O225 2.362 . S
Tb191 O226 2.421 . S
Tb191 O230 2.546 . S
Tb191 O231 2.610 1_565 S
Tb191 O233 2.320 1_565 S
Tb191 O234 2.552 1_565 S
Tb191 O235 2.413 . S
Tb191 C255 2.833 . S
N192 C184 1.360 . S
N192 Tb191 2.660 . S
N192 C193 1.305 1_565 S
C193 N192 1.305 1_545 S
C193 C195 1.407 . S
C193 H200 0.930 . S
C194 C182 1.410 . S
C194 C195 1.345 1_565 S
C194 H202 0.930 . S
C195 C193 1.407 . S
C195 C194 1.345 1_545 S
C195 H197 0.930 . S
H196 C189 0.930 . S
H197 C195 0.930 . S
H198 C186 0.930 . S
H199 C187 0.931 . S
H200 C193 0.930 . S
H201 C215 0.930 1_565 S
H202 C194 0.930 . S
H203 C221 0.930 . S
H204 C212 0.930 1_565 S
H205 C219 0.931 . S
H206 C183 0.929 . S
H207 C213 0.930 . S
H208 C246 0.930 . S
H209 C190 0.930 . S
H210 C245 0.929 . S
N211 Tb180 2.660 . S
N211 C212 1.305 . S
N211 C216 1.360 . S
C212 H204 0.930 1_545 S
C212 N211 1.305 . S
C212 C215 1.407 1_556 S
C213 H207 0.930 . S
C213 C214 1.410 . S
C213 C215 1.345 . S
C214 C213 1.410 . S
C214 C216 1.417 1_554 S
C214 C246 1.432 . S
C215 H201 0.930 1_545 S
C215 C212 1.407 1_554 S
C215 C213 1.345 . S
C216 N211 1.360 . S
C216 C214 1.417 1_556 S
C216 C220 1.432 . S
H217 C222 0.930 . S
N218 Tb180 2.600 . S
N218 C220 1.359 . S
N218 C221 1.327 . S
C219 H205 0.931 . S
C219 C221 1.392 . S
C219 C222 1.370 . S
C220 C216 1.432 . S
C220 N218 1.359 . S
C220 C223 1.414 . S
C221 H203 0.930 . S
C221 N218 1.327 . S
C221 C219 1.392 . S
C222 H217 0.930 . S
C222 C219 1.370 . S
C222 C223 1.385 . S
C223 C220 1.414 . S
C223 C222 1.385 . S
C223 C245 1.444 1_556 S
O224 Tb180 2.546 . S
O224 C244 1.251 . S
O225 Tb180 2.610 1_565 S
O225 Tb191 2.362 . S
O225 C236 1.285 . S
O226 Tb191 2.421 . S
O226 C243 1.262 . S
O227 Tb180 2.320 1_565 S
O227 C243 1.260 . S
O228 Tb180 2.552 . S
O228 C236 1.215 1_545 S
O229 Tb180 2.413 . S
O229 C244 1.256 . S
O230 Tb191 2.546 . S
O230 C255 1.251 . S
O231 Tb180 2.362 . S
O231 Tb191 2.610 1_545 S
O231 C247 1.283 . S
O232 Tb180 2.421 . S
O232 C254 1.262 . S
O233 Tb191 2.320 1_545 S
O233 C254 1.260 . S
O234 Tb191 2.552 1_545 S
O234 C247 1.243 . S
O235 Tb191 2.413 . S
O235 C255 1.256 . S
C236 O225 1.285 . S
C236 O228 1.215 1_565 S
C237 C239 1.382 . S
C237 C241 1.393 . S
C237 C244 1.500 . S
C238 C239 1.400 . S
C238 C240 1.384 1_556 S
C239 C237 1.382 . S
C239 C238 1.400 . S
C239 H256 0.930 . S
C240 C238 1.384 1_554 S
C240 C242 1.392 1_554 S
C240 H257 0.931 . S
C241 C237 1.393 . S
C241 C242 1.401 . S
C241 H258 0.930 . S
C242 C240 1.392 1_556 S
C242 C241 1.401 . S
C242 H259 0.930 . S
C243 O226 1.262 . S
C243 O227 1.260 . S
C244 Tb180 2.833 . S
C244 O224 1.251 . S
C244 O229 1.256 . S
C244 C237 1.500 . S
C245 H210 0.929 . S
C245 C223 1.444 1_554 S
C245 C246 1.317 . S
C246 H208 0.930 . S
C246 C214 1.432 . S
C246 C245 1.317 . S
C247 O231 1.283 . S
C247 O234 1.243 . S
C248 C249 1.382 . S
C248 C252 1.393 . S
C248 C255 1.500 . S
C249 C248 1.382 . S
C249 C250 1.400 . S
C249 H260 0.930 1_565 S
C250 C249 1.400 . S
C250 C251 1.384 . S
C251 C250 1.384 . S
C251 C253 1.392 . S
C251 H261 0.931 . S
C252 C248 1.393 . S
C252 C253 1.401 . S
C252 H262 0.930 . S
C253 C251 1.392 . S
C253 C252 1.401 . S
C253 H263 0.930 . S
C254 O232 1.262 . S
C254 O233 1.260 . S
C255 Tb191 2.833 . S
C255 O230 1.251 . S
C255 O235 1.256 . S
C255 C248 1.500 . S
H256 C239 0.930 . S
H257 C240 0.931 . S
H258 C241 0.930 . S
H259 C242 0.930 . S
H260 C249 0.930 1_545 S
H261 C251 0.931 . S
H262 C252 0.930 . S
H263 C253 0.930 . S
Tb264 N295 2.660 . S
Tb264 N302 2.600 . S
Tb264 O308 2.546 . S
Tb264 O309 2.610 . S
Tb264 O311 2.320 . S
Tb264 O312 2.552 . S
Tb264 O313 2.413 . S
Tb264 O315 2.362 . S
Tb264 O316 2.421 . S
Tb264 C328 2.833 . S
C265 C268 1.432 . S
C265 C269 1.414 . S
C265 N272 1.359 . S
C266 C268 1.417 . S
C266 C270 1.432 . S
C266 C278 1.410 . S
C267 C269 1.444 . S
C267 C270 1.317 . S
C267 H290 0.929 . S
C268 C265 1.432 . S
C268 C266 1.417 . S
C268 N276 1.360 . S
C269 C265 1.414 . S
C269 C267 1.444 . S
C269 C274 1.385 . S
C270 C266 1.432 . S
C270 C267 1.317 . S
C270 H282 0.930 . S
C271 C273 1.392 . S
C271 C274 1.370 . S
C271 H283 0.931 . S
N272 C265 1.359 . S
N272 C273 1.327 . S
N272 Tb275 2.600 . S
C273 C271 1.392 . S
C273 N272 1.327 . S
C273 H280 0.930 . S
C274 C269 1.385 . S
C274 C271 1.370 . S
C274 H293 0.930 . S
Tb275 N272 2.600 . S
Tb275 N276 2.660 . S
Tb275 O309 2.362 . S
Tb275 O310 2.421 . S
Tb275 O314 2.546 . S
Tb275 O315 2.610 . S
Tb275 O317 2.320 . S
Tb275 O318 2.552 . S
Tb275 O319 2.413 . S
Tb275 C339 2.833 . S
N276 C268 1.360 . S
N276 Tb275 2.660 . S
N276 C277 1.305 . S
C277 N276 1.305 . S
C277 C279 1.407 . S
C277 H284 0.930 . S
C278 C266 1.410 . S
C278 C279 1.345 . S
C278 H286 0.930 . S
C279 C277 1.407 . S
C279 C278 1.345 . S
C279 H281 0.930 . S
H280 C273 0.930 . S
H281 C279 0.930 . S
H282 C270 0.930 . S
H283 C271 0.931 . S
H284 C277 0.930 . S
H285 C299 0.930 . S
H286 C278 0.930 . S
H287 C305 0.930 . S
H288 C296 0.930 . S
H289 C303 0.931 . S
H290 C267 0.929 . S
H291 C297 0.930 . S
H292 C330 0.930 . S
H293 C274 0.930 . S
H294 C329 0.929 . S
N295 Tb264 2.660 . S
N295 C296 1.305 . S
N295 C300 1.360 . S
C296 H288 0.930 . S
C296 N295 1.305 . S
C296 C299 1.407 . S
C297 H291 0.930 . S
C297 C298 1.410 . S
C297 C299 1.345 . S
C298 C297 1.410 . S
C298 C300 1.417 . S
C298 C330 1.432 . S
C299 H285 0.930 . S
C299 C296 1.407 . S
C299 C297 1.345 . S
C300 N295 1.360 . S
C300 C298 1.417 . S
C300 C304 1.432 . S
H301 C306 0.930 . S
N302 Tb264 2.600 . S
N302 C304 1.359 . S
N302 C305 1.327 . S
C303 H289 0.931 . S
C303 C305 1.392 . S
C303 C306 1.370 . S
C304 C300 1.432 . S
C304 N302 1.359 . S
C304 C307 1.414 . S
C305 H287 0.930 . S
C305 N302 1.327 . S
C305 C303 1.392 . S
C306 H301 0.930 . S
C306 C303 1.370 . S
C306 C307 1.385 . S
C307 C304 1.414 . S
C307 C306 1.385 . S
C307 C329 1.444 . S
O308 Tb264 2.546 . S
O308 C328 1.251 . S
O309 Tb264 2.610 . S
O309 Tb275 2.362 . S
O309 C320 1.283 . S
O310 Tb275 2.421 . S
O310 C327 1.262 . S
O311 Tb264 2.320 . S
O311 C327 1.260 . S
O312 Tb264 2.552 . S
O312 C320 1.243 . S
O313 Tb264 2.413 . S
O313 C328 1.256 . S
O314 Tb275 2.546 . S
O314 C339 1.251 . S
O315 Tb264 2.362 . S
O315 Tb275 2.610 . S
O315 C331 1.283 . S
O316 Tb264 2.421 . S
O316 C338 1.262 . S
O317 Tb275 2.320 . S
O317 C338 1.260 . S
O318 Tb275 2.552 . S
O318 C331 1.243 . S
O319 Tb275 2.413 . S
O319 C339 1.256 . S
C320 O309 1.283 . S
C320 O312 1.243 . S
C321 C323 1.382 . S
C321 C325 1.393 . S
C321 C328 1.500 . S
C322 C323 1.400 . S
C322 C324 1.384 . S
C323 C321 1.382 . S
C323 C322 1.400 . S
C323 H340 0.930 . S
C324 C322 1.384 . S
C324 C326 1.392 . S
C324 H341 0.931 . S
C325 C321 1.393 . S
C325 C326 1.401 . S
C325 H342 0.930 . S
C326 C324 1.392 . S
C326 C325 1.401 . S
C326 H343 0.930 . S
C327 O310 1.262 . S
C327 O311 1.260 . S
C328 Tb264 2.833 . S
C328 O308 1.251 . S
C328 O313 1.256 . S
C328 C321 1.500 . S
C329 H294 0.929 . S
C329 C307 1.444 . S
C329 C330 1.317 . S
C330 H292 0.930 . S
C330 C298 1.432 . S
C330 C329 1.317 . S
C331 O315 1.283 . S
C331 O318 1.243 . S
C332 C333 1.382 . S
C332 C336 1.393 1_556 S
C332 C339 1.500 . S
C333 C332 1.382 . S
C333 C334 1.400 1_556 S
C333 H344 0.930 . S
C334 C333 1.400 1_554 S
C334 C335 1.384 . S
C335 C334 1.384 . S
C335 C337 1.392 . S
C335 H345 0.931 . S
C336 C332 1.393 1_554 S
C336 C337 1.401 . S
C336 H346 0.930 . S
C337 C335 1.392 . S
C337 C336 1.401 . S
C337 H347 0.930 . S
C338 O316 1.262 . S
C338 O317 1.260 . S
C339 Tb275 2.833 . S
C339 O314 1.251 . S
C339 O319 1.256 . S
C339 C332 1.500 . S
H340 C323 0.930 . S
H341 C324 0.931 . S
H342 C325 0.930 . S
H343 C326 0.930 . S
H344 C333 0.930 . S
H345 C335 0.931 . S
H346 C336 0.930 . S
H347 C337 0.930 . S
Tb348 N379 2.660 . S
Tb348 N386 2.600 . S
Tb348 O392 2.546 . S
Tb348 O393 2.610 . S
Tb348 O395 2.320 . S
Tb348 O396 2.552 . S
Tb348 O397 2.413 . S
Tb348 O399 2.362 . S
Tb348 O400 2.421 1_455 S
Tb348 C412 2.833 . S
C349 C352 1.432 . S
C349 C353 1.414 . S
C349 N356 1.359 . S
C350 C352 1.417 . S
C350 C354 1.432 . S
C350 C362 1.410 . S
C351 C353 1.444 . S
C351 C354 1.317 . S
C351 H374 0.929 . S
C352 C349 1.432 . S
C352 C350 1.417 . S
C352 N360 1.360 . S
C353 C349 1.414 . S
C353 C351 1.444 . S
C353 C358 1.385 1_655 S
C354 C350 1.432 . S
C354 C351 1.317 . S
C354 H366 0.930 . S
C355 C357 1.392 . S
C355 C358 1.370 . S
C355 H367 0.931 . S
N356 C349 1.359 . S
N356 C357 1.327 1_655 S
N356 Tb359 2.600 . S
C357 C355 1.392 . S
C357 N356 1.327 1_455 S
C357 H364 0.930 . S
C358 C353 1.385 1_455 S
C358 C355 1.370 . S
C358 H377 0.930 . S
Tb359 N356 2.600 . S
Tb359 N360 2.660 . S
Tb359 O393 2.362 1_655 S
Tb359 O394 2.421 1_655 S
Tb359 O398 2.546 . S
Tb359 O399 2.610 1_655 S
Tb359 O401 2.320 . S
Tb359 O402 2.552 . S
Tb359 O403 2.413 . S
Tb359 C423 2.833 . S
N360 C352 1.360 . S
N360 Tb359 2.660 . S
N360 C361 1.305 . S
C361 N360 1.305 . S
C361 C363 1.407 . S
C361 H368 0.930 . S
C362 C350 1.410 . S
C362 C363 1.345 . S
C362 H370 0.930 . S
C363 C361 1.407 . S
C363 C362 1.345 . S
C363 H365 0.930 . S
H364 C357 0.930 . S
H365 C363 0.930 . S
H366 C354 0.930 . S
H367 C355 0.931 . S
H368 C361 0.930 . S
H369 C383 0.930 . S
H370 C362 0.930 . S
H371 C389 0.925 1_655 S
H372 C380 0.930 . S
H373 C387 0.931 . S
H374 C351 0.929 . S
H375 C381 0.930 . S
H376 C414 0.930 . S
H377 C358 0.930 . S
H378 C413 0.929 . S
N379 Tb348 2.660 . S
N379 C380 1.305 . S
N379 C384 1.360 . S
C380 H372 0.930 . S
C380 N379 1.305 . S
C380 C383 1.407 . S
C381 H375 0.930 . S
C381 C382 1.410 . S
C381 C383 1.345 . S
C382 C381 1.410 . S
C382 C384 1.417 . S
C382 C414 1.432 . S
C383 H369 0.930 . S
C383 C380 1.407 . S
C383 C381 1.345 . S
C384 N379 1.360 . S
C384 C382 1.417 . S
C384 C388 1.432 . S
H385 C390 0.930 . S
N386 Tb348 2.600 . S
N386 C388 1.359 . S
N386 C389 1.333 . S
C387 H373 0.931 . S
C387 C389 1.391 1_655 S
C387 C390 1.370 1_655 S
C388 C384 1.432 . S
C388 N386 1.359 . S
C388 C391 1.414 . S
C389 H371 0.925 1_455 S
C389 N386 1.333 . S
C389 C387 1.391 1_455 S
C390 H385 0.930 . S
C390 C387 1.370 1_455 S
C390 C391 1.385 . S
C391 C388 1.414 . S
C391 C390 1.385 . S
C391 C413 1.444 . S
O392 Tb348 2.546 . S
O392 C412 1.251 . S
O393 Tb348 2.610 . S
O393 Tb359 2.362 1_455 S
O393 C404 1.283 . S
O394 Tb359 2.421 1_455 S
O394 C411 1.262 . S
O395 Tb348 2.320 . S
O395 C411 1.260 . S
O396 Tb348 2.552 . S
O396 C404 1.243 . S
O397 Tb348 2.413 . S
O397 C412 1.256 . S
O398 Tb359 2.546 . S
O398 C423 1.251 . S
O399 Tb348 2.362 . S
O399 Tb359 2.610 1_455 S
O399 C415 1.283 1_455 S
O400 Tb348 2.421 1_655 S
O400 C422 1.262 . S
O401 Tb359 2.320 . S
O401 C422 1.260 . S
O402 Tb359 2.552 . S
O402 C415 1.243 . S
O403 Tb359 2.413 . S
O403 C423 1.256 . S
C404 O393 1.283 . S
C404 O396 1.243 . S
C405 C407 1.382 . S
C405 C409 1.393 . S
C405 C412 1.500 . S
C406 C407 1.400 . S
C406 C408 1.384 . S
C407 C405 1.382 . S
C407 C406 1.400 . S
C407 H424 0.930 . S
C408 C406 1.384 . S
C408 C410 1.392 . S
C408 H425 0.931 . S
C409 C405 1.393 . S
C409 C410 1.401 . S
C409 H426 0.930 . S
C410 C408 1.392 . S
C410 C409 1.401 . S
C410 H427 0.930 . S
C411 O394 1.262 . S
C411 O395 1.260 . S
C412 Tb348 2.833 . S
C412 O392 1.251 . S
C412 O397 1.256 . S
C412 C405 1.500 . S
C413 H378 0.929 . S
C413 C391 1.444 . S
C413 C414 1.317 . S
C414 H376 0.930 . S
C414 C382 1.432 . S
C414 C413 1.317 . S
C415 O399 1.283 1_655 S
C415 O402 1.243 . S
C416 C417 1.382 . S
C416 C420 1.393 1_556 S
C416 C423 1.500 . S
C417 C416 1.382 . S
C417 C418 1.400 1_556 S
C417 H428 0.930 . S
C418 C417 1.400 1_554 S
C418 C419 1.384 . S
C419 C418 1.384 . S
C419 C421 1.392 . S
C419 H429 0.931 . S
C420 C416 1.393 1_554 S
C420 C421 1.401 . S
C420 H430 0.930 . S
C421 C419 1.392 . S
C421 C420 1.401 . S
C421 H431 0.930 . S
C422 O400 1.262 . S
C422 O401 1.260 . S
C423 Tb359 2.833 . S
C423 O398 1.251 . S
C423 O403 1.256 . S
C423 C416 1.500 . S
H424 C407 0.930 . S
H425 C408 0.931 . S
H426 C409 0.930 . S
H427 C410 0.930 . S
H428 C417 0.930 . S
H429 C419 0.931 . S
H430 C420 0.930 . S
H431 C421 0.930 . S
C432 C433 1.391 . S
C432 C434 1.394 . S
C432 H448 0.931 . S
C433 C432 1.391 . S
C433 C437 1.376 . S
C434 C432 1.394 . S
C434 C435 1.369 . S
C434 C438 1.531 . S
C435 C434 1.369 . S
C435 C436 1.410 . S
C435 C443 1.503 . S
C436 C435 1.410 . S
C436 C437 1.392 . S
C436 C439 1.511 . S
C437 C433 1.376 . S
C437 C436 1.392 . S
C437 H449 0.929 . S
C438 C434 1.531 . S
C438 H450 0.960 . S
C438 H451 0.962 . S
C438 H452 0.960 . S
C439 C436 1.511 . S
C439 H453 0.961 . S
C439 H454 0.961 . S
C439 H455 0.961 1_545 S
C440 C441 1.370 . S
C440 C442 1.363 . S
C440 H456 0.931 . S
C441 C440 1.370 . S
C441 C445 1.408 . S
C442 C440 1.363 . S
C442 C443 1.370 . S
C442 C446 1.524 . S
C443 C435 1.503 . S
C443 C442 1.370 . S
C443 C444 1.403 . S
C444 C443 1.403 . S
C444 C445 1.404 . S
C444 C447 1.516 1_545 S
C445 C441 1.408 . S
C445 C444 1.404 . S
C445 H457 0.908 1_545 S
C446 C442 1.524 . S
C446 H458 0.956 . S
C446 H459 0.961 . S
C446 H460 0.961 . S
C447 C444 1.516 1_565 S
C447 H461 0.941 1_565 S
C447 H462 0.998 . S
C447 H463 0.965 . S
H448 C432 0.931 . S
H449 C437 0.929 . S
H450 C438 0.960 . S
H451 C438 0.962 . S
H452 C438 0.960 . S
H453 C439 0.961 . S
H454 C439 0.961 . S
H455 C439 0.961 1_565 S
H456 C440 0.931 . S
H457 C445 0.908 1_565 S
H458 C446 0.956 . S
H459 C446 0.961 . S
H460 C446 0.961 . S
H461 C447 0.941 1_545 S
H462 C447 0.998 . S
H463 C447 0.965 . S
C464 C465 1.391 . S
C464 C466 1.394 . S
C464 H480 0.931 . S
C465 C464 1.391 . S
C465 C469 1.376 . S
C466 C464 1.394 . S
C466 C467 1.369 . S
C466 C470 1.531 . S
C467 C466 1.369 . S
C467 C468 1.410 . S
C467 C475 1.503 . S
C468 C467 1.410 . S
C468 C469 1.392 . S
C468 C471 1.511 . S
C469 C465 1.376 . S
C469 C468 1.392 . S
C469 H481 0.929 . S
C470 C466 1.531 . S
C470 H482 0.960 . S
C470 H483 0.962 . S
C470 H484 0.960 . S
C471 C468 1.511 . S
C471 H485 0.961 . S
C471 H486 0.961 . S
C471 H487 0.961 . S
C472 C473 1.370 . S
C472 C474 1.363 . S
C472 H488 0.931 . S
C473 C472 1.370 . S
C473 C477 1.408 . S
C474 C472 1.363 . S
C474 C475 1.370 . S
C474 C478 1.524 . S
C475 C467 1.503 . S
C475 C474 1.370 . S
C475 C476 1.403 . S
C476 C475 1.403 . S
C476 C477 1.404 . S
C476 C479 1.539 . S
C477 C473 1.408 . S
C477 C476 1.404 . S
C477 H489 0.930 . S
C478 C474 1.524 . S
C478 H490 0.956 . S
C478 H491 0.961 . S
C478 H492 0.961 . S
C479 C476 1.539 . S
C479 H493 0.958 . S
C479 H494 0.961 . S
C479 H495 0.960 . S
H480 C464 0.931 . S
H481 C469 0.929 . S
H482 C470 0.960 . S
H483 C470 0.962 . S
H484 C470 0.960 . S
H485 C471 0.961 . S
H486 C471 0.961 . S
H487 C471 0.961 . S
H488 C472 0.931 . S
H489 C477 0.930 . S
H490 C478 0.956 . S
H491 C478 0.961 . S
H492 C478 0.961 . S
H493 C479 0.958 . S
H494 C479 0.961 . S
H495 C479 0.960 . S
C496 C497 1.391 . S
C496 C498 1.394 . S
C496 H512 0.931 . S
C497 C496 1.391 . S
C497 C501 1.376 . S
C498 C496 1.394 . S
C498 C499 1.369 . S
C498 C502 1.531 . S
C499 C498 1.369 . S
C499 C500 1.410 . S
C499 C507 1.503 . S
C500 C499 1.410 . S
C500 C501 1.392 . S
C500 C503 1.511 . S
C501 C497 1.376 . S
C501 C500 1.392 . S
C501 H513 0.929 . S
C502 C498 1.531 . S
C502 H514 0.960 . S
C502 H515 0.962 . S
C502 H516 0.960 . S
C503 C500 1.511 . S
C503 H517 0.961 . S
C503 H518 0.961 . S
C503 H519 0.961 . S
C504 C505 1.370 . S
C504 C506 1.363 . S
C504 H520 0.931 . S
C505 C504 1.370 . S
C505 C509 1.408 . S
C506 C504 1.363 . S
C506 C507 1.370 . S
C506 C510 1.524 . S
C507 C499 1.503 . S
C507 C506 1.370 . S
C507 C508 1.403 . S
C508 C507 1.403 . S
C508 C509 1.404 . S
C508 C511 1.539 . S
C509 C505 1.408 . S
C509 C508 1.404 . S
C509 H521 0.930 . S
C510 C506 1.524 . S
C510 H522 0.956 . S
C510 H523 0.961 . S
C510 H524 0.961 . S
C511 C508 1.539 . S
C511 H525 0.958 . S
C511 H526 0.961 . S
C511 H527 0.960 . S
H512 C496 0.931 . S
H513 C501 0.929 . S
H514 C502 0.960 . S
H515 C502 0.962 . S
H516 C502 0.960 . S
H517 C503 0.961 . S
H518 C503 0.961 . S
H519 C503 0.961 . S
H520 C504 0.931 . S
H521 C509 0.930 . S
H522 C510 0.956 . S
H523 C510 0.961 . S
H524 C510 0.961 . S
H525 C511 0.958 . S
H526 C511 0.961 . S
H527 C511 0.960 . S
C528 C529 1.391 . S
C528 C530 1.394 . S
C528 H544 0.931 . S
C529 C528 1.391 . S
C529 C533 1.376 . S
C530 C528 1.394 . S
C530 C531 1.369 . S
C530 C534 1.531 . S
C531 C530 1.369 . S
C531 C532 1.410 . S
C531 C539 1.503 . S
C532 C531 1.410 . S
C532 C533 1.392 . S
C532 C535 1.511 . S
C533 C529 1.376 . S
C533 C532 1.392 . S
C533 H545 0.929 . S
C534 C530 1.531 . S
C534 H546 0.960 . S
C534 H547 0.962 . S
C534 H548 0.960 . S
C535 C532 1.511 . S
C535 H549 0.961 . S
C535 H550 0.961 . S
C535 H551 0.961 1_455 S
C536 C537 1.370 . S
C536 C538 1.363 . S
C536 H552 0.931 . S
C537 C536 1.370 . S
C537 C541 1.408 . S
C538 C536 1.363 . S
C538 C539 1.370 . S
C538 C542 1.524 . S
C539 C531 1.503 . S
C539 C538 1.370 . S
C539 C540 1.403 . S
C540 C539 1.403 . S
C540 C541 1.404 . S
C540 C543 1.539 1_455 S
C541 C537 1.408 . S
C541 C540 1.404 . S
C541 H553 0.930 1_455 S
C542 C538 1.524 . S
C542 H554 0.956 . S
C542 H555 0.961 . S
C542 H556 0.961 . S
C543 C540 1.539 1_655 S
C543 H557 0.958 1_655 S
C543 H558 0.961 . S
C543 H559 0.960 . S
H544 C528 0.931 . S
H545 C533 0.929 . S
H546 C534 0.960 . S
H547 C534 0.962 . S
H548 C534 0.960 . S
H549 C535 0.961 . S
H550 C535 0.961 . S
H551 C535 0.961 1_655 S
H552 C536 0.931 . S
H553 C541 0.930 1_655 S
H554 C542 0.956 . S
H555 C542 0.961 . S
H556 C542 0.961 . S
H557 C543 0.958 1_455 S
H558 C543 0.961 . S
H559 C543 0.960 . S
C560 C561 1.391 . S
C560 C562 1.394 . S
C560 H576 0.931 . S
C561 C560 1.391 . S
C561 C565 1.376 . S
C562 C560 1.394 . S
C562 C563 1.369 . S
C562 C566 1.531 1_565 S
C563 C562 1.369 . S
C563 C564 1.410 . S
C563 C571 1.503 1_554 S
C564 C563 1.410 . S
C564 C565 1.392 . S
C564 C567 1.511 . S
C565 C561 1.376 . S
C565 C564 1.392 . S
C565 H577 0.929 . S
C566 C562 1.531 1_545 S
C566 H578 0.960 1_554 S
C566 H579 0.962 1_554 S
C566 H580 0.960 . S
C567 C564 1.511 . S
C567 H581 0.961 . S
C567 H582 0.961 . S
C567 H583 0.961 . S
C568 C569 1.370 . S
C568 C570 1.363 . S
C568 H584 0.931 . S
C569 C568 1.370 . S
C569 C573 1.408 1_565 S
C570 C568 1.363 . S
C570 C571 1.370 . S
C570 C574 1.524 . S
C571 C563 1.503 1_556 S
C571 C570 1.370 . S
C571 C572 1.409 . S
C572 C571 1.409 . S
C572 C573 1.402 1_565 S
C572 C575 1.535 1_566 S
C573 C569 1.408 1_545 S
C573 C572 1.402 1_545 S
C573 H585 0.930 . S
C574 C570 1.524 . S
C574 H586 0.956 . S
C574 H587 0.961 . S
C574 H588 0.961 . S
C575 C572 1.535 1_544 S
C575 H589 0.958 . S
C575 H590 0.961 . S
C575 H591 0.958 1_545 S
H576 C560 0.931 . S
H577 C565 0.929 . S
H578 C566 0.960 1_556 S
H579 C566 0.962 1_556 S
H580 C566 0.960 . S
H581 C567 0.961 . S
H582 C567 0.961 . S
H583 C567 0.961 . S
H584 C568 0.931 . S
H585 C573 0.930 . S
H586 C574 0.956 . S
H587 C574 0.961 . S
H588 C574 0.961 . S
H589 C575 0.958 . S
H590 C575 0.961 . S
H591 C575 0.958 1_565 S
C592 C593 1.391 . S
C592 C594 1.394 . S
C592 H608 0.931 . S
C593 C592 1.391 . S
C593 C597 1.376 . S
C594 C592 1.394 . S
C594 C595 1.369 . S
C594 C598 1.531 1_554 S
C595 C594 1.369 . S
C595 C596 1.410 . S
C595 C603 1.503 1_554 S
C596 C595 1.410 . S
C596 C597 1.392 . S
C596 C599 1.511 . S
C597 C593 1.376 . S
C597 C596 1.392 . S
C597 H609 0.929 . S
C598 C594 1.531 1_556 S
C598 H610 0.960 . S
C598 H611 0.962 . S
C598 H612 0.960 . S
C599 C596 1.511 . S
C599 H613 0.961 . S
C599 H614 0.961 . S
C599 H615 0.961 . S
C600 C601 1.370 . S
C600 C602 1.363 . S
C600 H616 0.931 . S
C601 C600 1.370 . S
C601 C605 1.408 . S
C602 C600 1.363 . S
C602 C603 1.370 . S
C602 C606 1.524 1_556 S
C603 C595 1.503 1_556 S
C603 C602 1.370 . S
C603 C604 1.403 . S
C604 C603 1.403 . S
C604 C605 1.404 . S
C604 C607 1.539 . S
C605 C601 1.408 . S
C605 C604 1.404 . S
C605 H617 0.930 . S
C606 C602 1.524 1_554 S
C606 H618 0.956 . S
C606 H619 0.961 . S
C606 H620 0.961 . S
C607 C604 1.539 . S
C607 H621 0.958 . S
C607 H622 0.961 . S
C607 H623 0.960 . S
H608 C592 0.931 . S
H609 C597 0.929 . S
H610 C598 0.960 . S
H611 C598 0.962 . S
H612 C598 0.960 . S
H613 C599 0.961 . S
H614 C599 0.961 . S
H615 C599 0.961 . S
H616 C600 0.931 . S
H617 C605 0.930 . S
H618 C606 0.956 . S
H619 C606 0.961 . S
H620 C606 0.961 . S
H621 C607 0.958 . S
H622 C607 0.961 . S
H623 C607 0.960 . S
C624 C625 1.391 . S
C624 C626 1.394 . S
C624 H640 0.931 . S
C625 C624 1.391 . S
C625 C629 1.376 . S
C626 C624 1.394 . S
C626 C627 1.369 . S
C626 C630 1.531 . S
C627 C626 1.369 . S
C627 C628 1.410 . S
C627 C635 1.503 1_554 S
C628 C627 1.410 . S
C628 C629 1.392 . S
C628 C631 1.511 . S
C629 C625 1.376 . S
C629 C628 1.392 . S
C629 H641 0.929 . S
C630 C626 1.531 . S
C630 H642 0.960 . S
C630 H643 0.962 . S
C630 H644 0.960 . S
C631 C628 1.511 . S
C631 H645 0.961 . S
C631 H646 0.961 1_554 S
C631 H647 0.961 . S
C632 C633 1.370 . S
C632 C634 1.363 . S
C632 H648 0.931 . S
C633 C632 1.370 . S
C633 C637 1.408 . S
C634 C632 1.363 . S
C634 C635 1.370 . S
C634 C638 1.524 . S
C635 C627 1.503 1_556 S
C635 C634 1.370 . S
C635 C636 1.403 . S
C636 C635 1.403 . S
C636 C637 1.404 . S
C636 C639 1.539 1_556 S
C637 C633 1.408 . S
C637 C636 1.404 . S
C637 H649 0.930 . S
C638 C634 1.524 . S
C638 H650 0.956 . S
C638 H651 0.961 . S
C638 H652 0.961 . S
C639 C636 1.539 1_554 S
C639 H653 0.958 . S
C639 H654 0.961 . S
C639 H655 0.960 . S
H640 C624 0.931 . S
H641 C629 0.929 . S
H642 C630 0.960 . S
H643 C630 0.962 . S
H644 C630 0.960 . S
H645 C631 0.961 . S
H646 C631 0.961 1_556 S
H647 C631 0.961 . S
H648 C632 0.931 . S
H649 C637 0.930 . S
H650 C638 0.956 . S
H651 C638 0.961 . S
H652 C638 0.961 . S
H653 C639 0.958 . S
H654 C639 0.961 . S
H655 C639 0.960 . S
C656 C657 1.391 . S
C656 C658 1.394 . S
C656 H672 0.931 . S
C657 C656 1.391 . S
C657 C661 1.376 . S
C658 C656 1.394 . S
C658 C659 1.369 . S
C658 C662 1.531 . S
C659 C658 1.369 . S
C659 C660 1.410 . S
C659 C667 1.503 1_554 S
C660 C659 1.410 . S
C660 C661 1.392 . S
C660 C663 1.511 1_554 S
C661 C657 1.376 . S
C661 C660 1.392 . S
C661 H673 0.929 . S
C662 C658 1.531 . S
C662 H674 0.960 . S
C662 H675 0.962 . S
C662 H676 0.960 . S
C663 C660 1.511 1_556 S
C663 H677 0.961 1_655 S
C663 H678 0.961 1_655 S
C663 H679 0.961 . S
C664 C665 1.386 . S
C664 C666 1.371 . S
C664 H680 0.908 1_655 S
C665 C664 1.386 . S
C665 C669 1.408 . S
C666 C664 1.371 . S
C666 C667 1.370 . S
C666 C670 1.524 1_656 S
C667 C659 1.503 1_556 S
C667 C666 1.370 . S
C667 C668 1.403 . S
C668 C667 1.403 . S
C668 C669 1.404 . S
C668 C671 1.539 . S
C669 C665 1.408 . S
C669 C668 1.404 . S
C669 H681 0.930 . S
C670 C666 1.524 1_454 S
C670 H682 0.956 1_455 S
C670 H683 0.961 . S
C670 H684 0.961 . S
C671 C668 1.539 . S
C671 H685 0.958 . S
C671 H686 0.961 . S
C671 H687 0.960 . S
H672 C656 0.931 . S
H673 C661 0.929 . S
H674 C662 0.960 . S
H675 C662 0.962 . S
H676 C662 0.960 . S
H677 C663 0.961 1_455 S
H678 C663 0.961 1_455 S
H679 C663 0.961 . S
H680 C664 0.908 1_455 S
H681 C669 0.930 . S
H682 C670 0.956 1_655 S
H683 C670 0.961 . S
H684 C670 0.961 . S
H685 C671 0.958 . S
H686 C671 0.961 . S
H687 C671 0.960 . S
C688 C689 1.391 . S
C688 C690 1.394 . S
C688 H704 0.931 . S
C689 C688 1.391 . S
C689 C693 1.376 . S
C690 C688 1.394 . S
C690 C691 1.369 . S
C690 C694 1.531 . S
C691 C690 1.369 . S
C691 C692 1.410 . S
C691 C699 1.503 . S
C692 C691 1.410 . S
C692 C693 1.392 . S
C692 C695 1.511 1_455 S
C693 C689 1.376 . S
C693 C692 1.392 . S
C693 H705 0.929 . S
C694 C690 1.531 . S
C694 H706 0.960 . S
C694 H707 0.962 . S
C694 H708 0.960 . S
C695 C692 1.511 1_655 S
C695 H709 0.961 . S
C695 H710 0.961 . S
C695 H711 0.961 . S
C696 C697 1.370 . S
C696 C698 1.363 . S
C696 H712 0.931 . S
C697 C696 1.370 . S
C697 C701 1.408 1_455 S
C698 C696 1.363 . S
C698 C699 1.370 . S
C698 C702 1.524 . S
C699 C691 1.503 . S
C699 C698 1.370 . S
C699 C700 1.403 . S
C700 C699 1.403 . S
C700 C701 1.404 1_455 S
C700 C703 1.539 1_455 S
C701 C697 1.408 1_655 S
C701 C700 1.404 1_655 S
C701 H713 0.930 . S
C702 C698 1.524 . S
C702 H714 0.956 . S
C702 H715 0.961 . S
C702 H716 0.961 . S
C703 C700 1.539 1_655 S
C703 H717 0.958 1_655 S
C703 H718 0.961 . S
C703 H719 0.960 . S
H704 C688 0.931 . S
H705 C693 0.929 . S
H706 C694 0.960 . S
H707 C694 0.962 . S
H708 C694 0.960 . S
H709 C695 0.961 . S
H710 C695 0.961 . S
H711 C695 0.961 . S
H712 C696 0.931 . S
H713 C701 0.930 . S
H714 C702 0.956 . S
H715 C702 0.961 . S
H716 C702 0.961 . S
H717 C703 0.958 1_455 S
H718 C703 0.961 . S
H719 C703 0.960 . S
C720 C721 1.391 . S
C720 C722 1.394 . S
C720 H736 0.931 . S
C721 C720 1.391 . S
C721 C725 1.376 . S
C722 C720 1.394 . S
C722 C723 1.369 . S
C722 C726 1.531 . S
C723 C722 1.369 . S
C723 C724 1.410 . S
C723 C731 1.503 . S
C724 C723 1.410 . S
C724 C725 1.392 . S
C724 C727 1.511 1_545 S
C725 C721 1.376 . S
C725 C724 1.392 . S
C725 H737 0.929 . S
C726 C722 1.531 . S
C726 H738 0.960 . S
C726 H739 0.962 . S
C726 H740 0.960 . S
C727 C724 1.511 1_565 S
C727 H741 0.961 . S
C727 H742 0.961 . S
C727 H743 0.961 . S
C728 C729 1.370 . S
C728 C730 1.363 . S
C728 H744 0.931 . S
C729 C728 1.370 . S
C729 C733 1.408 1_545 S
C730 C728 1.363 . S
C730 C731 1.370 . S
C730 C734 1.524 . S
C731 C723 1.503 . S
C731 C730 1.370 . S
C731 C732 1.403 . S
C732 C731 1.403 . S
C732 C733 1.404 1_545 S
C732 C735 1.539 1_545 S
C733 C729 1.408 1_565 S
C733 C732 1.404 1_565 S
C733 H745 0.930 . S
C734 C730 1.524 . S
C734 H746 0.956 . S
C734 H747 0.961 . S
C734 H748 0.961 . S
C735 C732 1.539 1_565 S
C735 H749 0.958 1_565 S
C735 H750 0.961 . S
C735 H751 0.960 . S
H736 C720 0.931 . S
H737 C725 0.929 . S
H738 C726 0.960 . S
H739 C726 0.962 . S
H740 C726 0.960 . S
H741 C727 0.961 . S
H742 C727 0.961 . S
H743 C727 0.961 . S
H744 C728 0.931 . S
H745 C733 0.930 . S
H746 C734 0.956 . S
H747 C734 0.961 . S
H748 C734 0.961 . S
H749 C735 0.958 1_545 S
H750 C735 0.961 . S
H751 C735 0.960 . S
C752 C753 1.391 . S
C752 C754 1.394 . S
C752 H768 0.931 . S
C753 C752 1.391 . S
C753 C757 1.376 . S
C754 C752 1.394 . S
C754 C755 1.369 . S
C754 C758 1.531 . S
C755 C754 1.369 . S
C755 C756 1.410 . S
C755 C763 1.503 . S
C756 C755 1.410 . S
C756 C757 1.392 . S
C756 C759 1.511 . S
C757 C753 1.376 . S
C757 C756 1.392 . S
C757 H769 0.929 . S
C758 C754 1.531 . S
C758 H770 0.960 . S
C758 H771 0.962 . S
C758 H772 0.960 . S
C759 C756 1.511 . S
C759 H773 0.961 1_554 S
C759 H774 0.961 . S
C759 H775 0.961 . S
C760 C761 1.370 . S
C760 C762 1.363 . S
C760 H776 0.931 . S
C761 C760 1.370 . S
C761 C765 1.408 . S
C762 C760 1.363 . S
C762 C763 1.370 . S
C762 C766 1.524 . S
C763 C755 1.503 . S
C763 C762 1.370 . S
C763 C764 1.403 . S
C764 C763 1.403 . S
C764 C765 1.404 . S
C764 C767 1.539 . S
C765 C761 1.408 . S
C765 C764 1.404 . S
C765 H777 0.930 . S
C766 C762 1.524 . S
C766 H778 0.956 . S
C766 H779 0.961 . S
C766 H780 0.961 . S
C767 C764 1.539 . S
C767 H781 0.958 . S
C767 H782 0.961 . S
C767 H783 0.960 . S
H768 C752 0.931 . S
H769 C757 0.929 . S
H770 C758 0.960 . S
H771 C758 0.962 . S
H772 C758 0.960 . S
H773 C759 0.961 1_556 S
H774 C759 0.961 . S
H775 C759 0.961 . S
H776 C760 0.931 . S
H777 C765 0.930 . S
H778 C766 0.956 . S
H779 C766 0.961 . S
H780 C766 0.961 . S
H781 C767 0.958 . S
H782 C767 0.961 . S
H783 C767 0.960 . S
C784 C785 1.391 . S
C784 C786 1.394 . S
C784 H800 0.931 . S
C785 C784 1.391 . S
C785 C789 1.376 . S
C786 C784 1.394 . S
C786 C787 1.369 . S
C786 C790 1.531 . S
C787 C786 1.369 . S
C787 C788 1.410 . S
C787 C795 1.503 . S
C788 C787 1.410 . S
C788 C789 1.392 . S
C788 C791 1.511 . S
C789 C785 1.376 . S
C789 C788 1.392 . S
C789 H801 0.929 . S
C790 C786 1.531 . S
C790 H802 0.960 . S
C790 H803 0.962 . S
C790 H804 0.960 . S
C791 C788 1.511 . S
C791 H805 0.961 . S
C791 H806 0.961 . S
C791 H807 0.961 . S
C792 C793 1.370 . S
C792 C794 1.363 . S
C792 H808 0.931 . S
C793 C792 1.370 . S
C793 C797 1.408 . S
C794 C792 1.363 . S
C794 C795 1.370 . S
C794 C798 1.524 . S
C795 C787 1.503 . S
C795 C794 1.370 . S
C795 C796 1.403 . S
C796 C795 1.403 . S
C796 C797 1.404 . S
C796 C799 1.539 . S
C797 C793 1.408 . S
C797 C796 1.404 . S
C797 H809 0.930 . S
C798 C794 1.524 . S
C798 H810 0.956 . S
C798 H811 0.961 . S
C798 H812 0.961 . S
C799 C796 1.539 . S
C799 H813 0.958 . S
C799 H814 0.961 . S
C799 H815 0.960 . S
H800 C784 0.931 . S
H801 C789 0.929 . S
H802 C790 0.960 . S
H803 C790 0.962 . S
H804 C790 0.960 . S
H805 C791 0.961 . S
H806 C791 0.961 . S
H807 C791 0.961 . S
H808 C792 0.931 . S
H809 C797 0.930 . S
H810 C798 0.956 . S
H811 C798 0.961 . S
H812 C798 0.961 . S
H813 C799 0.958 . S
H814 C799 0.961 . S
H815 C799 0.960 . S
C816 C817 1.391 . S
C816 C818 1.394 . S
C816 H832 0.931 . S
C817 C816 1.391 . S
C817 C821 1.376 . S
C818 C816 1.394 . S
C818 C819 1.369 . S
C818 C822 1.531 1_554 S
C819 C818 1.369 . S
C819 C820 1.410 . S
C819 C827 1.503 . S
C820 C819 1.410 . S
C820 C821 1.392 . S
C820 C823 1.511 . S
C821 C817 1.376 . S
C821 C820 1.392 . S
C821 H833 0.929 . S
C822 C818 1.531 1_556 S
C822 H834 0.960 . S
C822 H835 0.962 1_656 S
C822 H836 0.960 . S
C823 C820 1.511 . S
C823 H837 0.961 . S
C823 H838 0.961 . S
C823 H839 0.961 . S
C824 C825 1.370 1_554 S
C824 C826 1.363 . S
C824 H840 0.931 . S
C825 C824 1.370 1_556 S
C825 C829 1.408 1_455 S
C826 C824 1.363 . S
C826 C827 1.370 1_455 S
C826 C830 1.524 . S
C827 C819 1.503 . S
C827 C826 1.370 1_655 S
C827 C828 1.403 . S
C828 C827 1.403 . S
C828 C829 1.404 1_554 S
C828 C831 1.539 1_554 S
C829 C825 1.408 1_655 S
C829 C828 1.404 1_556 S
C829 H841 0.930 . S
C830 C826 1.524 . S
C830 H842 0.956 . S
C830 H843 0.961 . S
C830 H844 0.961 . S
C831 C828 1.539 1_556 S
C831 H845 0.958 . S
C831 H846 0.961 . S
C831 H847 0.960 1_556 S
H832 C816 0.931 . S
H833 C821 0.929 . S
H834 C822 0.960 . S
H835 C822 0.962 1_454 S
H836 C822 0.960 . S
H837 C823 0.961 . S
H838 C823 0.961 . S
H839 C823 0.961 . S
H840 C824 0.931 . S
H841 C829 0.930 . S
H842 C830 0.956 . S
H843 C830 0.961 . S
H844 C830 0.961 . S
H845 C831 0.958 . S
H846 C831 0.961 . S
H847 C831 0.960 1_554 S
C848 C849 1.391 . S
C848 C850 1.394 . S
C848 H864 0.931 . S
C849 C848 1.391 . S
C849 C853 1.376 . S
C850 C848 1.394 . S
C850 C851 1.369 . S
C850 C854 1.531 . S
C851 C850 1.369 . S
C851 C852 1.410 . S
C851 C859 1.503 . S
C852 C851 1.410 . S
C852 C853 1.392 . S
C852 C855 1.511 1_565 S
C853 C849 1.376 . S
C853 C852 1.392 . S
C853 H865 0.929 . S
C854 C850 1.531 . S
C854 H866 0.960 . S
C854 H867 0.962 . S
C854 H868 0.960 . S
C855 C852 1.511 1_545 S
C855 H869 0.961 . S
C855 H870 0.961 . S
C855 H871 0.961 . S
C856 C857 1.370 1_565 S
C856 C858 1.363 1_556 S
C856 H872 0.931 . S
C857 C856 1.370 1_545 S
C857 C861 1.408 1_556 S
C858 C856 1.363 1_554 S
C858 C859 1.370 . S
C858 C862 1.524 1_554 S
C859 C851 1.503 . S
C859 C858 1.370 . S
C859 C860 1.403 1_565 S
C860 C859 1.403 1_545 S
C860 C861 1.404 . S
C860 C863 1.539 . S
C861 C857 1.408 1_554 S
C861 C860 1.404 . S
C861 H873 0.930 . S
C862 C858 1.524 1_556 S
C862 H874 0.956 1_556 S
C862 H875 0.961 . S
C862 H876 0.961 . S
C863 C860 1.539 . S
C863 H877 0.958 . S
C863 H878 0.961 . S
C863 H879 0.960 . S
H864 C848 0.931 . S
H865 C853 0.929 . S
H866 C854 0.960 . S
H867 C854 0.962 . S
H868 C854 0.960 . S
H869 C855 0.961 . S
H870 C855 0.961 . S
H871 C855 0.961 . S
H872 C856 0.931 . S
H873 C861 0.930 . S
H874 C862 0.956 1_554 S
H875 C862 0.961 . S
H876 C862 0.961 . S
H877 C863 0.958 . S
H878 C863 0.961 . S
H879 C863 0.960 . S
C880 C881 1.391 . S
C880 C882 1.394 . S
C880 H896 0.931 . S
C881 C880 1.391 . S
C881 C885 1.376 . S
C882 C880 1.394 . S
C882 C883 1.369 . S
C882 C886 1.531 1_554 S
C883 C882 1.369 . S
C883 C884 1.410 . S
C883 C891 1.503 . S
C884 C883 1.410 . S
C884 C885 1.392 . S
C884 C887 1.511 . S
C885 C881 1.376 . S
C885 C884 1.392 . S
C885 H897 0.929 . S
C886 C882 1.531 1_556 S
C886 H898 0.960 . S
C886 H899 0.961 1_556 S
C886 H900 0.960 . S
C887 C884 1.511 . S
C887 H901 0.961 . S
C887 H902 0.961 . S
C887 H903 0.961 . S
C888 C889 1.370 . S
C888 C890 1.363 . S
C888 H904 0.931 . S
C889 C888 1.370 . S
C889 C893 1.408 1_554 S
C890 C888 1.363 . S
C890 C891 1.370 . S
C890 C894 1.524 . S
C891 C883 1.503 . S
C891 C890 1.370 . S
C891 C892 1.403 . S
C892 C891 1.403 . S
C892 C893 1.404 1_554 S
C892 C895 1.539 1_554 S
C893 C889 1.408 1_556 S
C893 C892 1.404 1_556 S
C893 H905 0.930 . S
C894 C890 1.524 . S
C894 H906 0.956 . S
C894 H907 0.961 . S
C894 H908 0.961 . S
C895 C892 1.539 1_556 S
C895 H909 0.958 . S
C895 H910 0.961 . S
C895 H911 0.960 1_556 S
H896 C880 0.931 . S
H897 C885 0.929 . S
H898 C886 0.960 . S
H899 C886 0.961 1_554 S
H900 C886 0.960 . S
H901 C887 0.961 . S
H902 C887 0.961 . S
H903 C887 0.961 . S
H904 C888 0.931 . S
H905 C893 0.930 . S
H906 C894 0.956 . S
H907 C894 0.961 . S
H908 C894 0.961 . S
H909 C895 0.958 . S
H910 C895 0.961 . S
H911 C895 0.960 1_554 S
C912 C913 1.391 . S
C912 C914 1.394 . S
C912 H928 0.931 . S
C913 C912 1.391 . S
C913 C917 1.376 . S
C914 C912 1.394 . S
C914 C915 1.369 . S
C914 C918 1.531 . S
C915 C914 1.369 . S
C915 C916 1.410 . S
C915 C923 1.503 . S
C916 C915 1.410 . S
C916 C917 1.392 . S
C916 C919 1.511 . S
C917 C913 1.376 . S
C917 C916 1.392 . S
C917 H929 0.929 . S
C918 C914 1.531 . S
C918 H930 0.960 . S
C918 H931 0.962 . S
C918 H932 0.960 . S
C919 C916 1.511 . S
C919 H933 0.961 1_554 S
C919 H934 0.961 1_554 S
C919 H935 0.961 . S
C920 C921 1.370 . S
C920 C922 1.363 . S
C920 H936 0.931 1_554 S
C921 C920 1.370 . S
C921 C925 1.408 . S
C922 C920 1.363 . S
C922 C923 1.370 . S
C922 C926 1.524 . S
C923 C915 1.503 . S
C923 C922 1.370 . S
C923 C924 1.403 . S
C924 C923 1.403 . S
C924 C925 1.404 . S
C924 C927 1.539 . S
C925 C921 1.408 . S
C925 C924 1.404 . S
C925 H937 0.930 . S
C926 C922 1.524 . S
C926 H938 0.956 . S
C926 H939 0.961 . S
C926 H940 0.961 1_554 S
C927 C924 1.539 . S
C927 H941 0.958 . S
C927 H942 0.961 . S
C927 H943 0.960 . S
H928 C912 0.931 . S
H929 C917 0.929 . S
H930 C918 0.960 . S
H931 C918 0.962 . S
H932 C918 0.960 . S
H933 C919 0.961 1_556 S
H934 C919 0.961 1_556 S
H935 C919 0.961 . S
H936 C920 0.931 1_556 S
H937 C925 0.930 . S
H938 C926 0.956 . S
H939 C926 0.961 . S
H940 C926 0.961 1_556 S
H941 C927 0.958 . S
H942 C927 0.961 . S
H943 C927 0.960 . S
C944 C945 1.391 . S
C944 C946 1.394 . S
C944 H960 0.931 . S
C945 C944 1.391 . S
C945 C949 1.376 . S
C946 C944 1.394 . S
C946 C947 1.369 . S
C946 C950 1.531 . S
C947 C946 1.369 . S
C947 C948 1.410 . S
C947 C955 1.503 . S
C948 C947 1.410 . S
C948 C949 1.392 . S
C948 C951 1.511 . S
C949 C945 1.376 . S
C949 C948 1.392 . S
C949 H961 0.929 . S
C950 C946 1.531 . S
C950 H962 0.960 . S
C950 H963 0.962 1_455 S
C950 H964 0.960 . S
C951 C948 1.511 . S
C951 H965 0.961 . S
C951 H966 0.961 . S
C951 H967 0.961 . S
C952 C953 1.370 . S
C952 C954 1.363 . S
C952 H968 0.931 . S
C953 C952 1.370 . S
C953 C957 1.408 . S
C954 C952 1.363 . S
C954 C955 1.370 . S
C954 C958 1.524 . S
C955 C947 1.503 . S
C955 C954 1.370 . S
C955 C956 1.403 . S
C956 C955 1.403 . S
C956 C957 1.404 . S
C956 C959 1.539 . S
C957 C953 1.408 . S
C957 C956 1.404 . S
C957 H969 0.930 . S
C958 C954 1.524 . S
C958 H970 0.956 . S
C958 H971 0.961 . S
C958 H972 0.961 . S
C959 C956 1.539 . S
C959 H973 0.958 . S
C959 H974 0.961 . S
C959 H975 0.960 . S
H960 C944 0.931 . S
H961 C949 0.929 . S
H962 C950 0.960 . S
H963 C950 0.962 1_655 S
H964 C950 0.960 . S
H965 C951 0.961 . S
H966 C951 0.961 . S
H967 C951 0.961 . S
H968 C952 0.931 . S
H969 C957 0.930 . S
H970 C958 0.956 . S
H971 C958 0.961 . S
H972 C958 0.961 . S
H973 C959 0.958 . S
H974 C959 0.961 . S
H975 C959 0.960 . S
C976 C977 1.391 . S
C976 C978 1.394 . S
C976 H992 0.931 . S
C977 C976 1.391 . S
C977 C981 1.376 . S
C978 C976 1.394 . S
C978 C979 1.369 . S
C978 C982 1.531 . S
C979 C978 1.369 . S
C979 C980 1.410 . S
C979 C987 1.503 . S
C980 C979 1.410 . S
C980 C981 1.392 . S
C980 C983 1.511 . S
C981 C977 1.376 . S
C981 C980 1.392 . S
C981 H993 0.929 . S
C982 C978 1.531 . S
C982 H994 0.960 . S
C982 H995 0.962 1_545 S
C982 H996 0.960 . S
C983 C980 1.511 . S
C983 H997 0.961 . S
C983 H998 0.961 . S
C983 H999 0.961 . S
C984 C985 1.370 . S
C984 C986 1.363 . S
C984 H1000 0.931 . S
C985 C984 1.370 . S
C985 C989 1.408 . S
C986 C984 1.363 . S
C986 C987 1.370 . S
C986 C990 1.524 . S
C987 C979 1.503 . S
C987 C986 1.370 . S
C987 C988 1.403 . S
C988 C987 1.403 . S
C988 C989 1.404 . S
C988 C991 1.539 . S
C989 C985 1.408 . S
C989 C988 1.404 . S
C989 H1001 0.930 . S
C990 C986 1.524 . S
C990 H1002 0.956 . S
C990 H1003 0.961 . S
C990 H1004 0.961 . S
C991 C988 1.539 . S
C991 H1005 0.958 . S
C991 H1006 0.961 . S
C991 H1007 0.960 . S
H992 C976 0.931 . S
H993 C981 0.929 . S
H994 C982 0.960 . S
H995 C982 0.962 1_565 S
H996 C982 0.960 . S
H997 C983 0.961 . S
H998 C983 0.961 . S
H999 C983 0.961 . S
H1000 C984 0.931 . S
H1001 C989 0.930 . S
H1002 C990 0.956 . S
H1003 C990 0.961 . S
H1004 C990 0.961 . S
H1005 C991 0.958 . S
H1006 C991 0.961 . S
H1007 C991 0.960 . S
C1008 C1009 1.391 . S
C1008 C1010 1.394 . S
C1008 H1024 0.931 . S
C1009 C1008 1.391 . S
C1009 C1013 1.376 . S
C1010 C1008 1.394 . S
C1010 C1011 1.369 . S
C1010 C1014 1.531 . S
C1011 C1010 1.369 . S
C1011 C1012 1.410 . S
C1011 C1019 1.503 . S
C1012 C1011 1.410 . S
C1012 C1013 1.392 . S
C1012 C1015 1.511 . S
C1013 C1009 1.376 . S
C1013 C1012 1.392 . S
C1013 H1025 0.929 . S
C1014 C1010 1.531 . S
C1014 H1026 0.960 . S
C1014 H1027 0.962 . S
C1014 H1028 0.960 . S
C1015 C1012 1.511 . S
C1015 H1029 0.961 1_556 S
C1015 H1030 0.961 . S
C1015 H1031 0.961 . S
C1016 C1017 1.370 . S
C1016 C1018 1.363 . S
C1016 H1032 0.931 . S
C1017 C1016 1.370 . S
C1017 C1021 1.408 . S
C1018 C1016 1.363 . S
C1018 C1019 1.370 . S
C1018 C1022 1.524 . S
C1019 C1011 1.503 . S
C1019 C1018 1.370 . S
C1019 C1020 1.403 . S
C1020 C1019 1.403 . S
C1020 C1021 1.404 . S
C1020 C1023 1.539 . S
C1021 C1017 1.408 . S
C1021 C1020 1.404 . S
C1021 H1033 0.930 . S
C1022 C1018 1.524 . S
C1022 H1034 0.956 . S
C1022 H1035 0.961 . S
C1022 H1036 0.961 . S
C1023 C1020 1.539 . S
C1023 H1037 0.958 . S
C1023 H1038 0.961 . S
C1023 H1039 0.960 . S
H1024 C1008 0.931 . S
H1025 C1013 0.929 . S
H1026 C1014 0.960 . S
H1027 C1014 0.962 . S
H1028 C1014 0.960 . S
H1029 C1015 0.961 1_554 S
H1030 C1015 0.961 . S
H1031 C1015 0.961 . S
H1032 C1016 0.931 . S
H1033 C1021 0.930 . S
H1034 C1022 0.956 . S
H1035 C1022 0.961 . S
H1036 C1022 0.961 . S
H1037 C1023 0.958 . S
H1038 C1023 0.961 . S
H1039 C1023 0.960 . S
C1040 C1041 1.391 . S
C1040 C1042 1.394 . S
C1040 H1056 0.931 . S
C1041 C1040 1.391 . S
C1041 C1045 1.376 . S
C1042 C1040 1.394 . S
C1042 C1043 1.369 . S
C1042 C1046 1.531 . S
C1043 C1042 1.369 . S
C1043 C1044 1.410 . S
C1043 C1051 1.503 . S
C1044 C1043 1.410 . S
C1044 C1045 1.392 . S
C1044 C1047 1.511 . S
C1045 C1041 1.376 . S
C1045 C1044 1.392 . S
C1045 H1057 0.929 . S
C1046 C1042 1.531 . S
C1046 H1058 0.960 . S
C1046 H1059 0.962 . S
C1046 H1060 0.960 . S
C1047 C1044 1.511 . S
C1047 H1061 0.961 . S
C1047 H1062 0.961 . S
C1047 H1063 0.961 . S
C1048 C1049 1.370 . S
C1048 C1050 1.363 . S
C1048 H1064 0.931 . S
C1049 C1048 1.370 . S
C1049 C1053 1.408 . S
C1050 C1048 1.363 . S
C1050 C1051 1.370 . S
C1050 C1054 1.524 . S
C1051 C1043 1.503 . S
C1051 C1050 1.370 . S
C1051 C1052 1.403 . S
C1052 C1051 1.403 . S
C1052 C1053 1.404 . S
C1052 C1055 1.539 . S
C1053 C1049 1.408 . S
C1053 C1052 1.404 . S
C1053 H1065 0.930 . S
C1054 C1050 1.524 . S
C1054 H1066 0.956 . S
C1054 H1067 0.961 . S
C1054 H1068 0.961 . S
C1055 C1052 1.539 . S
C1055 H1069 0.958 . S
C1055 H1070 0.961 . S
C1055 H1071 0.960 . S
H1056 C1040 0.931 . S
H1057 C1045 0.929 . S
H1058 C1046 0.960 . S
H1059 C1046 0.962 . S
H1060 C1046 0.960 . S
H1061 C1047 0.961 . S
H1062 C1047 0.961 . S
H1063 C1047 0.961 . S
H1064 C1048 0.931 . S
H1065 C1053 0.930 . S
H1066 C1054 0.956 . S
H1067 C1054 0.961 . S
H1068 C1054 0.961 . S
H1069 C1055 0.958 . S
H1070 C1055 0.961 . S
H1071 C1055 0.960 . S
C1072 C1073 1.391 . S
C1072 C1074 1.394 . S
C1072 H1088 0.931 . S
C1073 C1072 1.391 . S
C1073 C1077 1.376 . S
C1074 C1072 1.394 . S
C1074 C1075 1.369 . S
C1074 C1078 1.531 . S
C1075 C1074 1.369 . S
C1075 C1076 1.410 . S
C1075 C1083 1.503 . S
C1076 C1075 1.410 . S
C1076 C1077 1.392 . S
C1076 C1079 1.511 1_655 S
C1077 C1073 1.376 . S
C1077 C1076 1.392 . S
C1077 H1089 0.929 . S
C1078 C1074 1.531 . S
C1078 H1090 0.960 . S
C1078 H1091 0.962 . S
C1078 H1092 0.960 . S
C1079 C1076 1.511 1_455 S
C1079 H1093 0.961 . S
C1079 H1094 0.961 . S
C1079 H1095 0.961 . S
C1080 C1081 1.370 . S
C1080 C1082 1.363 . S
C1080 H1096 0.931 . S
C1081 C1080 1.370 . S
C1081 C1085 1.408 . S
C1082 C1080 1.363 . S
C1082 C1083 1.370 . S
C1082 C1086 1.524 . S
C1083 C1075 1.503 . S
C1083 C1082 1.370 . S
C1083 C1084 1.403 . S
C1084 C1083 1.403 . S
C1084 C1085 1.404 . S
C1084 C1087 1.539 . S
C1085 C1081 1.408 . S
C1085 C1084 1.404 . S
C1085 H1097 0.930 . S
C1086 C1082 1.524 . S
C1086 H1098 0.956 . S
C1086 H1099 0.961 . S
C1086 H1100 0.961 . S
C1087 C1084 1.539 . S
C1087 H1101 0.958 . S
C1087 H1102 0.961 . S
C1087 H1103 0.960 . S
H1088 C1072 0.931 . S
H1089 C1077 0.929 . S
H1090 C1078 0.960 . S
H1091 C1078 0.962 . S
H1092 C1078 0.960 . S
H1093 C1079 0.961 . S
H1094 C1079 0.961 . S
H1095 C1079 0.961 . S
H1096 C1080 0.931 . S
H1097 C1085 0.930 . S
H1098 C1086 0.956 . S
H1099 C1086 0.961 . S
H1100 C1086 0.961 . S
H1101 C1087 0.958 . S
H1102 C1087 0.961 . S
H1103 C1087 0.960 . S
C1104 C1105 1.391 . S
C1104 C1106 1.394 . S
C1104 H1120 0.931 1_565 S
C1105 C1104 1.391 . S
C1105 C1109 1.376 . S
C1106 C1104 1.394 . S
C1106 C1107 1.369 . S
C1106 C1110 1.531 1_565 S
C1107 C1106 1.369 . S
C1107 C1108 1.410 . S
C1107 C1115 1.503 . S
C1108 C1107 1.410 . S
C1108 C1109 1.392 . S
C1108 C1111 1.511 . S
C1109 C1105 1.376 . S
C1109 C1108 1.392 . S
C1109 H1121 0.929 . S
C1110 C1106 1.531 1_545 S
C1110 H1122 0.960 . S
C1110 H1123 0.962 . S
C1110 H1124 0.960 . S
C1111 C1108 1.511 . S
C1111 H1125 0.961 . S
C1111 H1126 0.961 . S
C1111 H1127 0.961 . S
C1112 C1113 1.370 . S
C1112 C1114 1.363 . S
C1112 H1128 0.931 . S
C1113 C1112 1.370 . S
C1113 C1117 1.408 . S
C1114 C1112 1.363 . S
C1114 C1115 1.370 . S
C1114 C1118 1.524 . S
C1115 C1107 1.503 . S
C1115 C1114 1.370 . S
C1115 C1116 1.403 . S
C1116 C1115 1.403 . S
C1116 C1117 1.404 . S
C1116 C1119 1.539 . S
C1117 C1113 1.408 . S
C1117 C1116 1.404 . S
C1117 H1129 0.930 . S
C1118 C1114 1.524 . S
C1118 H1130 0.956 . S
C1118 H1131 0.961 . S
C1118 H1132 0.961 . S
C1119 C1116 1.539 . S
C1119 H1133 0.958 . S
C1119 H1134 0.961 . S
C1119 H1135 0.960 . S
H1120 C1104 0.931 1_545 S
H1121 C1109 0.929 . S
H1122 C1110 0.960 . S
H1123 C1110 0.962 . S
H1124 C1110 0.960 . S
H1125 C1111 0.961 . S
H1126 C1111 0.961 . S
H1127 C1111 0.961 . S
H1128 C1112 0.931 . S
H1129 C1117 0.930 . S
H1130 C1118 0.956 . S
H1131 C1118 0.961 . S
H1132 C1118 0.961 . S
H1133 C1119 0.958 . S
H1134 C1119 0.961 . S
H1135 C1119 0.960 . S
C1136 C1137 1.391 . S
C1136 C1138 1.394 . S
C1136 H1152 0.931 . S
C1137 C1136 1.391 . S
C1137 C1141 1.376 . S
C1138 C1136 1.394 . S
C1138 C1139 1.369 . S
C1138 C1142 1.531 . S
C1139 C1138 1.369 . S
C1139 C1140 1.410 . S
C1139 C1147 1.503 . S
C1140 C1139 1.410 . S
C1140 C1141 1.392 . S
C1140 C1143 1.511 . S
C1141 C1137 1.376 . S
C1141 C1140 1.392 . S
C1141 H1153 0.929 . S
C1142 C1138 1.531 . S
C1142 H1154 0.960 . S
C1142 H1155 0.962 . S
C1142 H1156 0.960 . S
C1143 C1140 1.511 . S
C1143 H1157 0.961 . S
C1143 H1158 0.961 . S
C1143 H1159 0.961 . S
C1144 C1145 1.370 . S
C1144 C1146 1.363 . S
C1144 H1160 0.931 . S
C1145 C1144 1.370 . S
C1145 C1149 1.408 . S
C1146 C1144 1.363 . S
C1146 C1147 1.370 . S
C1146 C1150 1.524 . S
C1147 C1139 1.503 . S
C1147 C1146 1.370 . S
C1147 C1148 1.403 . S
C1148 C1147 1.403 . S
C1148 C1149 1.404 . S
C1148 C1151 1.539 . S
C1149 C1145 1.408 . S
C1149 C1148 1.404 . S
C1149 H1161 0.930 . S
C1150 C1146 1.524 . S
C1150 H1162 0.956 . S
C1150 H1163 0.961 . S
C1150 H1164 0.961 . S
C1151 C1148 1.539 . S
C1151 H1165 0.958 . S
C1151 H1166 0.961 . S
C1151 H1167 0.960 . S
H1152 C1136 0.931 . S
H1153 C1141 0.929 . S
H1154 C1142 0.960 . S
H1155 C1142 0.962 . S
H1156 C1142 0.960 . S
H1157 C1143 0.961 . S
H1158 C1143 0.961 . S
H1159 C1143 0.961 . S
H1160 C1144 0.931 . S
H1161 C1149 0.930 . S
H1162 C1150 0.956 . S
H1163 C1150 0.961 . S
H1164 C1150 0.961 . S
H1165 C1151 0.958 . S
H1166 C1151 0.961 . S
H1167 C1151 0.960 . S
C1168 C1169 1.391 . S
C1168 C1170 1.394 . S
C1168 H1184 0.931 . S
C1169 C1168 1.391 . S
C1169 C1173 1.376 . S
C1170 C1168 1.394 . S
C1170 C1171 1.369 . S
C1170 C1174 1.531 . S
C1171 C1170 1.369 . S
C1171 C1172 1.410 . S
C1171 C1179 1.503 . S
C1172 C1171 1.410 . S
C1172 C1173 1.392 . S
C1172 C1175 1.511 . S
C1173 C1169 1.376 . S
C1173 C1172 1.392 . S
C1173 H1185 0.929 . S
C1174 C1170 1.531 . S
C1174 H1186 0.960 . S
C1174 H1187 0.962 . S
C1174 H1188 0.960 . S
C1175 C1172 1.511 . S
C1175 H1189 0.961 . S
C1175 H1190 0.961 . S
C1175 H1191 0.961 . S
C1176 C1177 1.370 . S
C1176 C1178 1.363 . S
C1176 H1192 0.931 . S
C1177 C1176 1.370 . S
C1177 C1181 1.408 . S
C1178 C1176 1.363 . S
C1178 C1179 1.370 . S
C1178 C1182 1.524 . S
C1179 C1171 1.503 . S
C1179 C1178 1.370 . S
C1179 C1180 1.403 . S
C1180 C1179 1.403 . S
C1180 C1181 1.404 . S
C1180 C1183 1.539 . S
C1181 C1177 1.408 . S
C1181 C1180 1.404 . S
C1181 H1193 0.930 . S
C1182 C1178 1.524 . S
C1182 H1194 0.956 . S
C1182 H1195 0.961 . S
C1182 H1196 0.961 . S
C1183 C1180 1.539 . S
C1183 H1197 0.958 . S
C1183 H1198 0.961 . S
C1183 H1199 0.960 . S
H1184 C1168 0.931 . S
H1185 C1173 0.929 . S
H1186 C1174 0.960 . S
H1187 C1174 0.962 . S
H1188 C1174 0.960 . S
H1189 C1175 0.961 . S
H1190 C1175 0.961 . S
H1191 C1175 0.961 . S
H1192 C1176 0.931 . S
H1193 C1181 0.930 . S
H1194 C1182 0.956 . S
H1195 C1182 0.961 . S
H1196 C1182 0.961 . S
H1197 C1183 0.958 . S
H1198 C1183 0.961 . S
H1199 C1183 0.960 . S
C433 C76 1.862 . S
C441 C170 1.931 . S
C473 C254 1.972 . S
C465 C88 1.833 . S
C505 C320 1.947 . S
C497 C52 1.937 . S
C537 C404 1.916 . S
C529 C64 1.954 . S
C569 C159 1.932 1_565 S
C561 C28 1.881 . S
C593 C40 1.843 . S
C601 C243 1.961 . S
C625 C4 2.001 . S
C633 C331 1.923 . S
C657 C16 1.933 . S
C665 C415 1.931 . S
C697 C166 0.618 1_455 S
C689 C69 0.653 . S
C729 C250 0.588 1_545 S
C721 C81 0.621 . S
C761 C322 0.585 . S
C753 C93 0.590 . S
C785 C57 0.689 . S
C793 C406 0.643 . S
C817 C21 0.716 . S
C825 C154 0.666 . S
C857 C238 0.581 . S
C849 C33 0.532 . S
C889 C334 0.609 . S
C881 C45 0.672 . S
C913 C9 0.545 . S
C921 C418 0.591 . S
C945 C66 2.052 . S
C953 C163 2.081 . S
C977 C78 2.018 . S
C985 C247 2.053 . S
C1017 C327 2.082 . S
C1009 C90 1.897 . S
C1049 C411 2.101 . S
C1041 C54 1.952 . S
C1073 C18 2.043 . S
C1081 C152 2.073 . S
C1113 C236 2.076 . S
C1105 C30 1.939 . S
C1145 C338 2.079 . S
C1137 C42 1.858 . S
C1169 C6 1.885 . S
C1177 C422 2.108 . S
