# Generated by pormake.
# Topology pts, (4,4)-cn, num edge types: 1
# Building blocks:
#     Node 0, Type 0, BuildingBlock: GIZVER_clean_linker_0, # of connection points: 4
#     Node 1, Type 0, BuildingBlock: GIZVER_clean_linker_0, # of connection points: 4
#     Node 2, Type 1, BuildingBlock: QUQFOY_clean_sbu_1, # of connection points: 4
#     Node 3, Type 1, BuildingBlock: QUQFOY_clean_sbu_1, # of connection points: 4
#     Edge 4, Type (0, 1), BuildingBlock: MIFKUJ_clean_linker_0, # of connection points: 2
#     Edge 5, Type (0, 1), BuildingBlock: MIFKUJ_clean_linker_0, # of connection points: 2
#     Edge 6, Type (0, 1), BuildingBlock: MIFKUJ_clean_linker_0, # of connection points: 2
#     Edge 7, Type (0, 1), BuildingBlock: MIFKUJ_clean_linker_0, # of connection points: 2
#     Edge 8, Type (0, 1), BuildingBlock: MIFKUJ_clean_linker_0, # of connection points: 2
#     Edge 9, Type (0, 1), BuildingBlock: MIFKUJ_clean_linker_0, # of connection points: 2
#     Edge 10, Type (0, 1), BuildingBlock: MIFKUJ_clean_linker_0, # of connection points: 2
#     Edge 11, Type (0, 1), BuildingBlock: MIFKUJ_clean_linker_0, # of connection points: 2
# Relax obj value: 0.105
# Max RMSD: 0.276
# Mean RMSD: 0.184
data_MOF--net-pts--node1-QUQFOY_clean_sbu_1--node2-GIZVER_clean_linker_0--edge1-MIFKUJ_clean_linker_0
_symmetry_space_group_name_H-M    P1
_symmetry_Int_Tables_number       1
_symmetry_cell_setting            triclinic
loop_
_symmetry_equiv_pos_as_xyz
'x, y, z'
_cell_length_a     31.922576
_cell_length_b     35.054776
_cell_length_c     46.743634
_cell_angle_alpha  90.222131
_cell_angle_beta   89.66791
_cell_angle_gamma 89.749915
loop_
_atom_site_label
_atom_site_type_symbol
_atom_site_fract_x
_atom_site_fract_y
_atom_site_fract_z
_atom_type_partial_charge
H0 H 0.56207 0.07659 0.03908 0.0
H1 H 0.54797 0.07005 0.94766 0.0
H2 H 0.65074 0.01281 0.98828 0.0
H3 H 0.51434 0.11907 0.0155 0.0
H4 H 0.5148 0.1224 0.97743 0.0
H5 H 0.46372 0.07859 0.04 0.0
H6 H 0.36125 0.03548 0.99044 0.0
H7 H 0.46976 0.08061 0.94784 0.0
C8 C 0.57206 0.06509 0.01858 0.0
C9 C 0.609 0.04328 0.0167 0.0
C10 C 0.54965 0.07456 -0.00625 0.0
C11 C 0.56419 0.0616 0.96695 0.0
C12 C 0.60046 0.03899 0.96488 0.0
C13 C 0.62205 0.02937 0.98989 0.0
C14 C 0.51306 0.10184 -0.00452 0.0
C15 C 0.47194 0.08093 -0.00592 0.0
C16 C 0.45035 0.07149 0.0194 0.0
C17 C 0.41019 0.05553 0.01809 0.0
C18 C 0.39265 0.04713 0.99141 0.0
C19 C 0.41405 0.05574 0.96601 0.0
C20 C 0.45366 0.07281 0.96743 0.0
H21 H 0.06269 0.54727 0.44656 0.0
H22 H 0.08145 0.56185 0.53726 0.0
H23 H 0.02216 0.65028 0.48849 0.0
H24 H 0.11794 0.51067 0.47393 0.0
H25 H 0.11794 0.51165 0.51204 0.0
H26 H 0.06803 0.47144 0.44746 0.0
H27 H 0.00562 0.38349 0.49463 0.0
H28 H 0.06597 0.47512 0.53962 0.0
C29 C 0.05804 0.56366 0.46604 0.0
C30 C 0.03915 0.59985 0.46471 0.0
C31 C 0.07255 0.54931 0.49232 0.0
C32 C 0.06857 0.57188 0.51723 0.0
C33 C 0.05098 0.60861 0.5158 0.0
C34 C 0.03524 0.6217 0.4897 0.0
C35 C 0.09707 0.51239 0.49306 0.0
C36 C 0.06875 0.478 0.49349 0.0
C37 C 0.05742 0.45995 0.46773 0.0
C38 C 0.03399 0.42618 0.46814 0.0
C39 C 0.02158 0.41074 0.49442 0.0
C40 C 0.03327 0.42779 0.52036 0.0
C41 C 0.0563 0.4619 0.51974 0.0
O42 O 0.95465 0.97695 0.22468 0.0
Cd43 Cd 0.01026 0.96711 0.246 0.0
Cd44 Cd 0.00452 0.05223 0.25013 0.0
O45 O 0.94686 0.03861 0.23346 0.0
O46 O 0.01357 0.91034 0.2476 0.0
O47 O 0.00865 0.94653 0.28626 0.0
C48 C 0.01133 0.91285 0.27505 0.0
C49 C 0.00493 0.10657 0.27961 0.0
C50 C 0.93311 1.00746 0.22329 0.0
C51 C 0.07924 0.01494 0.21979 0.0
O52 O 0.05807 0.04481 0.2256 0.0
O53 O 0.0665 0.98216 0.2273 0.0
O54 O 1.00008 0.10895 0.25238 0.0
O55 O 0.00962 0.073 0.29044 0.0
O56 O 0.94804 0.04563 0.75948 0.0
Cd57 Cd 0.00478 0.05912 0.74054 0.0
Cd58 Cd 0.01059 0.97334 0.74348 0.0
O59 O 0.95271 0.98278 0.76204 0.0
O60 O 1.00197 0.11595 0.73907 0.0
O61 O 0.00652 0.08012 0.70028 0.0
C62 C 0.00432 0.11371 0.71163 0.0
C63 C 0.01609 0.92003 0.71339 0.0
C64 C 0.93261 0.01362 0.76654 0.0
C65 C 0.07926 0.02063 0.77031 0.0
O66 O 0.06418 0.98779 0.76536 0.0
O67 O 0.06038 0.05064 0.76212 0.0
O68 O 0.01336 0.91659 0.74075 0.0
O69 O 0.01567 0.95406 0.70288 0.0
H70 H 0.33586 0.0899 0.0284 0.0
H71 H 0.28941 0.08169 0.06966 0.0
H72 H 0.37822 1.00381 0.10728 0.0
H73 H 0.42549 0.01258 0.06586 0.0
H74 H 0.29069 0.97765 0.10351 0.0
H75 H 0.37055 0.08281 0.13882 0.0
H76 H 0.4043 0.14581 0.13585 0.0
H77 H 0.28461 0.19889 0.12234 0.0
H78 H 0.25018 0.13615 0.12479 0.0
H79 H 0.14642 0.96626 0.21998 0.0
H80 H 0.21166 0.97194 0.19262 0.0
H81 H 0.1658 0.07606 0.15466 0.0
H82 H 0.10175 0.07157 0.18315 0.0
H83 H 0.2429 0.08505 0.16513 0.0
H84 H 0.1647 0.98323 0.12033 0.0
H85 H 0.12786 0.92154 0.11873 0.0
H86 H 0.23995 0.86379 0.14521 0.0
H87 H 0.27731 0.92524 0.14728 0.0
C88 C 0.34559 0.07127 0.0456 0.0
C89 C 0.38403 0.05175 0.04407 0.0
C90 C 0.31918 0.06671 0.06914 0.0
C91 C 0.33053 0.04229 0.0915 0.0
C92 C 0.36909 0.02287 0.0902 0.0
C93 C 0.39599 0.02795 0.06672 0.0
C94 C 0.3007 0.03623 0.11538 0.0
C95 C 0.28084 1.00078 0.11754 0.0
C96 C 0.28726 0.06681 0.133 0.0
C97 C 0.30781 0.1047 0.13185 0.0
C98 C 0.35144 0.10788 0.13503 0.0
C99 C 0.3707 0.14356 0.13346 0.0
C100 C 0.34663 0.17633 0.12888 0.0
C101 C 0.30322 0.17349 0.1259 0.0
C102 C 0.28381 0.13787 0.12743 0.0
C103 C 0.15041 0.9904 0.20585 0.0
C104 C 0.11893 0.01838 0.20357 0.0
C105 C 0.18764 0.99355 0.19011 0.0
C106 C 0.19351 0.02408 0.17111 0.0
C107 C 0.16221 0.05226 0.16917 0.0
C108 C 0.12548 0.04962 0.1854 0.0
C109 C 0.23166 0.02667 0.15275 0.0
C110 C 0.25314 0.06154 0.1516 0.0
C111 C 0.24602 0.99575 0.1356 0.0
C112 C 0.22362 0.95883 0.1343 0.0
C113 C 0.18138 0.95739 0.126 0.0
C114 C 0.16043 0.92248 0.12498 0.0
C115 C 0.18151 0.88878 0.13196 0.0
C116 C 0.22363 0.88992 0.13988 0.0
C117 C 0.24472 0.92477 0.14096 0.0
H118 H 0.16523 0.86178 0.13116 0.0
H119 H 0.3616 0.20392 0.12766 0.0
H120 H 0.96222 0.391 0.53782 0.0
H121 H 0.95662 0.34357 0.57574 0.0
H122 H 0.08311 0.36825 0.60181 0.0
H123 H 0.08938 0.41479 0.56321 0.0
H124 H 0.07454 0.29485 0.59362 0.0
H125 H 0.99788 0.38961 0.6452 0.0
H126 H 0.94395 0.43912 0.65322 0.0
H127 H 0.84717 0.35661 0.63902 0.0
H128 H 0.90054 0.30669 0.63051 0.0
H129 H 1.00233 0.18733 0.73061 0.0
H130 H 0.00665 0.24552 0.70233 0.0
H131 H 0.01196 0.17833 0.62486 0.0
H132 H 0.00841 0.11973 0.65315 0.0
H133 H 0.95837 0.27674 0.66311 0.0
H134 H 0.07491 0.22219 0.57657 0.0
H135 H 0.13257 0.17547 0.57166 0.0
H136 H 0.15662 0.18349 0.66176 0.0
H137 H 0.0995 0.23061 0.66714 0.0
C138 C 0.98855 0.38687 0.55201 0.0
C139 C 0.02634 0.40646 0.54738 0.0
C140 C 0.98523 0.35987 0.5738 0.0
C141 C 0.01948 0.35223 0.59163 0.0
C142 C 0.05632 0.37357 0.58825 0.0
C143 C 0.0597 0.40051 0.56638 0.0
C144 C 0.01825 0.31943 0.61167 0.0
C145 C 0.04923 0.29106 0.60892 0.0
C146 C 0.9855 0.31453 0.63186 0.0
C147 C 0.95326 0.34446 0.637 0.0
C148 C 0.96511 0.38208 0.64356 0.0
C149 C 0.93463 0.41021 0.64824 0.0
C150 C 0.89216 0.40104 0.64657 0.0
C151 C 0.88008 0.36368 0.64029 0.0
C152 C 0.91044 0.33544 0.63557 0.0
C153 C 0.00435 0.18484 0.70754 0.0
C154 C 0.00527 0.14884 0.69412 0.0
C155 C 0.00667 0.21821 0.6914 0.0
C156 C 0.01006 0.21635 0.66151 0.0
C157 C 0.01003 0.18046 0.64796 0.0
C158 C 0.00784 0.14699 0.66413 0.0
C159 C 0.01423 0.25199 0.64463 0.0
C160 C 0.98376 0.28074 0.6479 0.0
C161 C 0.04793 0.25766 0.62532 0.0
C162 C 0.08265 0.22963 0.62227 0.0
C163 C 0.09261 0.21407 0.59531 0.0
C164 C 0.12518 0.18751 0.59245 0.0
C165 C 0.14815 0.17643 0.6164 0.0
C166 C 0.1387 0.19199 0.64325 0.0
C167 C 0.1062 0.21859 0.64622 0.0
H168 H 0.17333 0.15584 0.61414 0.0
H169 H 0.86861 0.42286 0.6502 0.0
H170 H 0.69345 0.05225 0.01795 0.0
H171 H 0.74047 0.04431 0.05817 0.0
H172 H 0.6354 0.01852 0.11317 0.0
H173 H 0.58777 0.02518 0.07228 0.0
H174 H 0.74637 0.08258 0.10614 0.0
H175 H 0.67277 0.9559 0.16572 0.0
H176 H 0.62814 0.90007 0.15592 0.0
H177 H 0.67227 0.89701 0.06898 0.0
H178 H 0.71751 0.95247 0.07838 0.0
H179 H 0.86967 0.05953 0.22852 0.0
H180 H 0.80585 0.06351 0.20009 0.0
H181 H 0.84135 0.96049 0.15511 0.0
H182 H 0.90447 0.95553 0.18429 0.0
H183 H 0.75916 0.96254 0.16135 0.0
H184 H 0.86525 0.05061 0.12878 0.0
H185 H 0.91546 0.10342 0.13415 0.0
H186 H 0.81527 0.17893 0.15897 0.0
H187 H 0.76453 0.12639 0.15408 0.0
C188 C 0.68024 0.04428 0.03846 0.0
C189 C 0.6369 0.0387 0.0418 0.0
C190 C 0.70718 0.0402 0.06155 0.0
C191 C 0.69154 0.03064 0.08866 0.0
C192 C 0.64818 0.02553 0.09234 0.0
C193 C 0.62102 0.02956 0.06906 0.0
C194 C 0.7213 0.02632 0.11271 0.0
C195 C 0.74883 0.05646 0.11841 0.0
C196 C 0.72486 0.99212 0.12854 0.0
C197 C 0.69805 0.95862 0.12268 0.0
C198 C 0.67296 0.94325 0.14454 0.0
C199 C 0.64758 0.91168 0.13905 0.0
C200 C 0.64724 0.89511 0.11182 0.0
C201 C 0.67241 0.90998 0.09003 0.0
C202 C 0.69788 0.94151 0.09542 0.0
C203 C 0.8636 0.03743 0.21284 0.0
C204 C 0.8924 1.0075 0.20834 0.0
C205 C 0.82711 0.03975 0.19659 0.0
C206 C 0.81924 0.01276 0.17503 0.0
C207 C 0.84678 0.98171 0.17158 0.0
C208 C 0.88296 0.97899 0.18819 0.0
C209 C 0.78458 0.01863 0.15442 0.0
C210 C 0.75612 0.9889 0.14945 0.0
C211 C 0.7808 0.05286 0.13861 0.0
C212 C 0.81121 0.08451 0.14137 0.0
C213 C 0.85399 0.07843 0.13555 0.0
C214 C 0.88253 0.1083 0.13849 0.0
C215 C 0.86858 0.14448 0.14698 0.0
C216 C 0.82603 0.15087 0.15246 0.0
C217 C 0.79737 0.12107 0.14959 0.0
H218 H 0.89072 0.16757 0.14925 0.0
H219 H 0.62755 0.87068 0.10761 0.0
H220 H 0.02448 0.59801 0.57133 0.0
H221 H 0.02186 0.64638 0.60965 0.0
H222 H 0.07867 0.72825 0.55279 0.0
H223 H 0.08257 0.67999 0.51522 0.0
H224 H 0.10971 0.73652 0.60403 0.0
H225 H 0.97139 0.72435 0.56398 0.0
H226 H 0.90709 0.69009 0.55052 0.0
H227 H 0.88551 0.66059 0.63845 0.0
H228 H 0.95005 0.69428 0.65237 0.0
H229 H 0.04025 0.91638 0.65713 0.0
H230 H 0.04896 0.85897 0.6275 0.0
H231 H 0.00907 0.78913 0.69825 0.0
H232 H 1.00079 0.8462 0.72809 0.0
H233 H 0.97075 0.77046 0.64512 0.0
H234 H 0.10748 0.79009 0.68463 0.0
H235 H 0.17064 0.82719 0.69623 0.0
H236 H 0.19391 0.84564 0.6068 0.0
H237 H 0.13051 0.80912 0.59467 0.0
C238 C 0.03694 0.62619 0.56732 0.0
C239 C 0.05297 0.63559 0.54023 0.0
C240 C 0.03518 0.65385 0.58907 0.0
C241 C 0.04939 0.69119 0.58393 0.0
C242 C 0.06731 0.6998 0.55728 0.0
C243 C 0.06917 0.67231 0.53573 0.0
C244 C 0.04416 0.72212 0.6055 0.0
C245 C 0.07927 0.74399 0.6129 0.0
C246 C 0.00458 0.73161 0.61748 0.0
C247 C 0.96579 0.7114 0.60916 0.0
C248 C 0.9531 0.71029 0.58041 0.0
C249 C 0.91659 0.69102 0.5727 0.0
C250 C 0.8923 0.67306 0.5936 0.0
C251 C 0.90442 0.67443 0.62227 0.0
C252 C 0.94095 0.69361 0.63009 0.0
C253 C 0.03322 0.88881 0.66633 0.0
C254 C 0.01999 0.88579 0.69495 0.0
C255 C 0.03833 0.85607 0.64944 0.0
C256 C 0.02991 0.81984 0.6608 0.0
C257 C 0.01579 0.81682 0.68914 0.0
C258 C 0.01122 0.84946 0.70614 0.0
C259 C 0.03612 0.78509 0.64311 0.0
C260 C 1.00123 0.7626 0.6365 0.0
C261 C 0.07577 0.77531 0.63155 0.0
C262 C 0.11402 0.79716 0.63876 0.0
C263 C 0.12586 0.80233 0.66745 0.0
C264 C 0.16175 0.8232 0.67412 0.0
C265 C 0.18622 0.83884 0.65227 0.0
C266 C 0.1749 0.83355 0.6237 0.0
C267 C 0.13902 0.81273 0.61691 0.0
H268 H 0.21399 0.85498 0.65748 0.0
H269 H 0.86404 0.65817 0.5876 0.0
H270 H 0.37765 0.99107 0.94564 0.0
H271 H 0.33 0.98591 0.90491 0.0
H272 H 0.35183 0.10409 0.88452 0.0
H273 H 0.39991 0.10923 0.9251 0.0
H274 H 0.2673 0.08529 0.8941 0.0
H275 H 0.38343 0.04092 0.83836 0.0
H276 H 0.44518 1.00103 0.8271 0.0
H277 H 0.36869 0.90061 0.82872 0.0
H278 H 0.30654 0.93984 0.84043 0.0
H279 H 0.12524 0.08519 0.7793 0.0
H280 H 0.19001 0.09145 0.80635 0.0
H281 H 0.18874 0.9708 0.82414 0.0
H282 H 0.12433 0.96407 0.79653 0.0
H283 H 0.267 0.99409 0.81266 0.0
H284 H 0.15396 0.03533 0.87363 0.0
H285 H 0.09143 0.07296 0.88716 0.0
H286 H 0.16152 0.17658 0.8784 0.0
H287 H 0.22436 0.13955 0.86444 0.0
C288 C 0.3731 0.0156 0.93195 0.0
C289 C 0.39234 0.05053 0.93841 0.0
C290 C 0.34603 0.01262 0.9087 0.0
C291 C 0.33745 0.04463 0.89174 0.0
C292 C 0.35822 0.07906 0.89732 0.0
C293 C 0.3858 0.0819 0.92035 0.0
C294 C 0.30308 0.04325 0.87065 0.0
C295 C 0.26759 0.06598 0.87589 0.0
C296 C 0.30304 0.01707 0.84756 0.0
C297 C 0.34035 0.99333 0.84053 0.0
C298 C 0.37981 0.0103 0.83659 0.0
C299 C 0.41489 0.98781 0.83006 0.0
C300 C 0.41087 0.9483 0.82726 0.0
C301 C 0.37175 0.93121 0.83092 0.0
C302 C 0.33658 0.95357 0.83747 0.0
C303 C 0.13875 0.05991 0.78887 0.0
C304 C 0.11931 0.02417 0.78598 0.0
C305 C 0.1758 0.06356 0.80434 0.0
C306 C 0.19391 0.03169 0.81761 0.0
C307 C 0.1753 0.99578 0.8141 0.0
C308 C 0.13835 0.99203 0.79843 0.0
C309 C 0.23117 0.03611 0.83617 0.0
C310 C 0.26699 0.0138 0.8306 0.0
C311 C 0.23144 0.06236 0.85926 0.0
C312 C 0.19371 0.0847 0.86767 0.0
C313 C 0.15594 0.06616 0.87436 0.0
C314 C 0.12046 0.08738 0.88215 0.0
C315 C 0.12246 0.12715 0.88355 0.0
C316 C 0.15999 0.14578 0.87725 0.0
C317 C 0.19556 0.12469 0.86941 0.0
H318 H 0.09496 0.14352 0.88959 0.0
H319 H 0.43806 0.93094 0.8222 0.0
H320 H 0.09277 0.40033 0.43041 0.0
H321 H 0.08372 0.35064 0.39415 0.0
H322 H 0.95057 0.35021 0.41095 0.0
H323 H 0.96 0.3989 0.44804 0.0
H324 H 0.9769 0.28185 0.41271 0.0
H325 H 0.99501 0.38222 0.34568 0.0
H326 H 0.02837 0.43818 0.3235 0.0
H327 H 0.13943 0.37221 0.30643 0.0
H328 H 0.10695 0.31596 0.32887 0.0
H329 H 0.98177 0.17827 0.26383 0.0
H330 H 0.9823 0.23634 0.29271 0.0
H331 H 0.03082 0.17271 0.3642 0.0
H332 H 0.02895 0.11407 0.33559 0.0
H333 H 0.04074 0.27563 0.31584 0.0
H334 H 0.99851 0.21121 0.42655 0.0
H335 H 0.95721 0.15809 0.4464 0.0
H336 H 0.87956 0.1578 0.3717 0.0
H337 H 0.92003 0.21123 0.35158 0.0
C338 C 0.06145 0.39043 0.42568 0.0
C339 C 0.02704 0.40347 0.44185 0.0
C340 C 0.05625 0.36197 0.40497 0.0
C341 C 0.0164 0.3466 0.39969 0.0
C342 C 0.98165 0.36138 0.41471 0.0
C343 C 0.98695 0.38939 0.43571 0.0
C344 C 0.01154 0.3128 0.38064 0.0
C345 C 0.99069 0.28066 0.39146 0.0
C346 C 0.02896 0.31119 0.35273 0.0
C347 C 0.04864 0.34494 0.33917 0.0
C348 C 0.02666 0.37971 0.33739 0.0
C349 C 0.0454 0.41147 0.32474 0.0
C350 C 0.08603 0.40877 0.31362 0.0
C351 C 0.10797 0.37427 0.31507 0.0
C352 C 0.08939 0.34242 0.32772 0.0
C353 C 0.99239 0.17655 0.28575 0.0
C354 C 0.00515 0.14152 0.29748 0.0
C355 C 0.99283 0.20986 0.30222 0.0
C356 C 0.00624 0.20898 0.33074 0.0
C357 C 0.01953 0.17406 0.34242 0.0
C358 C 0.01861 0.14056 0.32603 0.0
C359 C 0.00653 0.24466 0.34809 0.0
C360 C 0.02671 0.27701 0.33701 0.0
C361 C 0.98736 0.24691 0.37542 0.0
C362 C 0.9626 0.21497 0.38745 0.0
C363 C 0.97253 0.19989 0.41441 0.0
C364 C 0.94928 0.16972 0.4257 0.0
C365 C 0.91587 0.1545 0.41028 0.0
C366 C 0.90555 0.16952 0.38357 0.0
C367 C 0.92866 0.19972 0.3722 0.0
H368 H 0.89793 0.13112 0.41905 0.0
H369 H 0.10048 0.4334 0.30383 0.0
H370 H 0.61479 0.08713 0.92027 0.0
H371 H 0.6614 0.07583 0.87947 0.0
H372 H 0.67786 0.95886 0.90573 0.0
H373 H 0.63153 0.97024 0.94681 0.0
H374 H 0.75052 0.99286 0.9011 0.0
H375 H 0.63067 0.98209 0.84163 0.0
H376 H 0.5624 1.00048 0.82139 0.0
H377 H 0.61604 0.10353 0.78833 0.0
H378 H 0.68453 0.08606 0.80875 0.0
H379 H 0.89371 0.95146 0.78973 0.0
H380 H 0.82821 0.95019 0.81697 0.0
H381 H 0.81224 0.07104 0.80379 0.0
H382 H 0.87777 0.0727 0.77641 0.0
H383 H 0.73662 0.02961 0.7992 0.0
H384 H 0.85315 0.0434 0.86376 0.0
H385 H 0.9213 0.02561 0.88452 0.0
H386 H 0.87222 0.91633 0.90838 0.0
H387 H 0.8039 0.93329 0.88737 0.0
C388 C 0.62713 0.05865 0.91675 0.0
C389 C 0.61977 0.0296 0.93678 0.0
C390 C 0.65384 0.0522 0.89341 0.0
C391 C 0.67325 0.01649 0.88954 0.0
C392 C 0.66341 0.98668 0.90837 0.0
C393 C 0.63692 0.99317 0.93178 0.0
C394 C 0.70787 0.01182 0.86843 0.0
C395 C 0.74709 1.00004 0.87867 0.0
C396 C 0.70383 0.02227 0.83934 0.0
C397 C 0.66271 0.03288 0.82693 0.0
C398 C 0.62786 0.00883 0.83024 0.0
C399 C 0.58912 0.01906 0.8187 0.0
C400 C 0.58487 0.05319 0.80364 0.0
C401 C 0.61938 0.07711 0.80003 0.0
C402 C 0.65819 0.06703 0.81155 0.0
C403 C 0.87613 0.97775 0.79233 0.0
C404 C 0.89128 0.01228 0.78113 0.0
C405 C 0.83866 0.97693 0.80789 0.0
C406 C 0.8156 0.01057 0.81256 0.0
C407 C 0.82958 0.04477 0.80037 0.0
C408 C 0.86719 0.04567 0.7849 0.0
C409 C 0.77881 0.01064 0.83202 0.0
C410 C 0.73952 0.02182 0.82154 0.0
C411 C 0.7826 0.99963 0.86096 0.0
C412 C 0.8236 0.98943 0.87369 0.0
C413 C 0.85701 0.01545 0.87321 0.0
C414 C 0.89564 1.00554 0.88506 0.0
C415 C 0.90113 0.96981 0.89768 0.0
C416 C 0.86795 0.94396 0.89855 0.0
C417 C 0.82926 0.95371 0.88668 0.0
H418 H 0.93106 0.9622 0.90686 0.0
H419 H 0.55485 0.06106 0.79472 0.0
H420 H 0.09191 0.61174 0.41989 0.0
H421 H 0.08264 0.65945 0.38224 0.0
H422 H 0.95586 0.67961 0.41102 0.0
H423 H 0.96514 0.6321 0.44881 0.0
H424 H 0.96711 0.68745 0.35023 0.0
H425 H 0.02204 0.73333 0.43955 0.0
H426 H 0.07007 0.73221 0.48063 0.0
H427 H 0.17522 0.74599 0.42394 0.0
H428 H 0.12766 0.74706 0.38245 0.0
H429 H 1.00309 0.90745 0.33333 0.0
H430 H 1.00287 0.84926 0.36218 0.0
H431 H 0.02095 0.78146 0.28584 0.0
H432 H 0.02043 0.83921 0.25691 0.0
H433 H 0.06072 0.7968 0.37092 0.0
H434 H 0.97255 0.69566 0.29341 0.0
H435 H 0.91798 0.69931 0.25634 0.0
H436 H 0.86833 0.80114 0.29529 0.0
H437 H 0.92222 0.79781 0.33279 0.0
C438 C 0.06151 0.62513 0.41735 0.0
C439 C 0.02923 0.61838 0.43719 0.0
C440 C 0.05634 0.65255 0.39601 0.0
C441 C 0.01875 0.67334 0.39415 0.0
C442 C 0.98506 0.66383 0.4121 0.0
C443 C 0.99036 0.63672 0.43362 0.0
C444 C 0.01676 0.70855 0.37679 0.0
C445 C 0.98775 0.71128 0.35449 0.0
C446 C 0.04271 0.74006 0.3831 0.0
C447 C 0.07139 0.73988 0.40792 0.0
C448 C 0.05543 0.73586 0.43585 0.0
C449 C 0.08256 0.73526 0.4592 0.0
C450 C 0.12571 0.73878 0.4549 0.0
C451 C 0.14179 0.74316 0.42723 0.0
C452 C 0.11477 0.74386 0.40379 0.0
C453 C 0.00691 0.88014 0.3227 0.0
C454 C 0.01163 0.87797 0.29283 0.0
C455 C 0.00685 0.84691 0.33921 0.0
C456 C 0.01141 0.81093 0.32615 0.0
C457 C 0.0166 0.80879 0.29636 0.0
C458 C 0.01651 0.84192 0.27986 0.0
C459 C 0.01162 0.77569 0.34371 0.0
C460 C 0.04028 0.77295 0.36626 0.0
C461 C 0.98454 0.74463 0.33801 0.0
C462 C 0.95172 0.74668 0.31572 0.0
C463 C 0.9499 0.71875 0.29411 0.0
C464 C 0.9191 0.72077 0.27302 0.0
C465 C 0.8898 0.75051 0.2734 0.0
C466 C 0.89115 0.77821 0.29494 0.0
C467 C 0.92185 0.7763 0.3161 0.0
H468 H 0.866 0.75204 0.25704 0.0
H469 H 0.14667 0.73826 0.47301 0.0
loop_
_geom_bond_atom_site_label_1
_geom_bond_atom_site_label_2
_geom_bond_distance
_geom_bond_site_symmetry_2
_ccdc_geom_bond_type
H0 C8 0.930 . S
H1 C11 0.930 . S
H2 C13 0.930 1_565 S
H3 C14 0.970 . S
H4 C14 0.970 1_556 S
H5 C16 0.930 . S
H6 C18 0.930 1_565 S
H7 C20 0.930 . S
C8 H0 0.930 . S
C8 C9 1.382 . S
C8 C10 1.426 . S
C9 C8 1.382 . S
C9 C13 1.389 . S
C10 C8 1.426 . S
C10 C11 1.375 1_554 S
C10 C14 1.532 . S
C11 H1 0.930 . S
C11 C10 1.375 1_556 S
C11 C12 1.416 . S
C12 C11 1.416 . S
C12 C13 1.371 1_556 S
C13 H2 0.930 1_545 S
C13 C9 1.389 . S
C13 C12 1.371 1_554 S
C14 H3 0.970 . S
C14 H4 0.970 1_554 S
C14 C10 1.532 . S
C14 C15 1.499 . S
C15 C14 1.499 . S
C15 C16 1.370 . S
C15 C20 1.415 1_554 S
C16 H5 0.930 . S
C16 C15 1.370 . S
C16 C17 1.407 . S
C17 C16 1.407 . S
C17 C18 1.365 . S
C18 H6 0.930 1_545 S
C18 C17 1.365 . S
C18 C19 1.393 1_554 S
C19 C18 1.393 1_556 S
C19 C20 1.387 . S
C20 H7 0.930 . S
C20 C15 1.415 1_556 S
C20 C19 1.387 . S
H21 C29 0.930 . S
H22 C32 0.930 . S
H23 C34 0.930 1_655 S
H24 C35 0.970 . S
H25 C35 0.970 . S
H26 C37 0.930 . S
H27 C39 0.930 1_655 S
H28 C41 0.930 . S
C29 H21 0.930 . S
C29 C30 1.382 . S
C29 C31 1.426 . S
C30 C29 1.382 . S
C30 C34 1.389 . S
C31 C29 1.426 . S
C31 C32 1.375 . S
C31 C35 1.532 . S
C32 H22 0.930 . S
C32 C31 1.375 . S
C32 C33 1.416 . S
C33 C32 1.416 . S
C33 C34 1.371 . S
C34 H23 0.930 1_455 S
C34 C30 1.389 . S
C34 C33 1.371 . S
C35 H24 0.970 . S
C35 H25 0.970 . S
C35 C31 1.532 . S
C35 C36 1.499 . S
C36 C35 1.499 . S
C36 C37 1.370 . S
C36 C41 1.415 . S
C37 H26 0.930 . S
C37 C36 1.370 . S
C37 C38 1.407 . S
C38 C37 1.407 . S
C38 C39 1.365 . S
C39 H27 0.930 1_455 S
C39 C38 1.365 . S
C39 C40 1.393 . S
C40 C39 1.393 . S
C40 C41 1.387 . S
C41 H28 0.930 . S
C41 C36 1.415 . S
C41 C40 1.387 . S
O42 Cd43 2.223 1_655 S
O42 C50 1.315 . S
Cd43 O42 2.223 1_455 S
Cd43 O46 2.297 1_455 S
Cd43 O47 2.439 1_455 S
Cd43 O53 2.240 1_565 S
Cd44 O45 2.240 . S
Cd44 O52 2.223 1_655 S
Cd44 O54 2.297 1_655 S
Cd44 O55 2.439 1_655 S
O45 Cd44 2.240 . S
O45 C50 1.279 1_545 S
O46 Cd43 2.297 1_655 S
O46 C48 1.247 . S
O47 Cd43 2.439 1_655 S
O47 C48 1.208 . S
C48 O46 1.247 . S
C48 O47 1.208 . S
C49 O54 1.247 . S
C49 O55 1.208 . S
C50 O42 1.315 . S
C50 O45 1.279 1_565 S
C51 O52 1.315 . S
C51 O53 1.279 . S
O52 Cd44 2.223 1_455 S
O52 C51 1.315 . S
O53 Cd43 2.240 1_545 S
O53 C51 1.279 . S
O54 Cd44 2.297 1_455 S
O54 C49 1.247 . S
O55 Cd44 2.439 1_455 S
O55 C49 1.208 . S
O56 Cd57 2.223 1_655 S
O56 C64 1.315 . S
Cd57 O56 2.223 1_455 S
Cd57 O60 2.297 1_455 S
Cd57 O61 2.439 1_455 S
Cd57 O67 2.240 . S
Cd58 O59 2.240 1_565 S
Cd58 O66 2.223 1_655 S
Cd58 O68 2.297 1_655 S
Cd58 O69 2.439 1_655 S
O59 Cd58 2.240 1_545 S
O59 C64 1.279 . S
O60 Cd57 2.297 1_655 S
O60 C62 1.247 . S
O61 Cd57 2.439 1_655 S
O61 C62 1.208 . S
C62 O60 1.247 . S
C62 O61 1.208 . S
C63 O68 1.247 . S
C63 O69 1.208 . S
C64 O56 1.315 . S
C64 O59 1.279 . S
C65 O66 1.315 . S
C65 O67 1.279 1_565 S
O66 Cd58 2.223 1_455 S
O66 C65 1.315 . S
O67 Cd57 2.240 . S
O67 C65 1.279 1_545 S
O68 Cd58 2.297 1_455 S
O68 C63 1.247 . S
O69 Cd58 2.439 1_455 S
O69 C63 1.208 . S
H70 C88 0.951 . S
H71 C90 0.951 . S
H72 C92 0.950 . S
H73 C93 0.950 . S
H74 C95 0.966 . S
H75 C98 0.950 . S
H76 C99 0.950 . S
H77 C101 0.950 . S
H78 C102 0.950 . S
H79 C103 0.951 . S
H80 C105 0.951 . S
H81 C107 0.950 . S
H82 C108 0.950 . S
H83 C110 0.950 . S
H84 C113 0.950 . S
H85 C114 0.950 . S
H86 C116 0.950 . S
H87 C117 0.950 . S
C88 H70 0.951 . S
C88 C89 1.366 . S
C88 C90 1.388 . S
C89 C88 1.366 . S
C89 C93 1.385 . S
C90 H71 0.951 . S
C90 C88 1.388 . S
C90 C91 1.366 . S
C91 C90 1.366 . S
C91 C92 1.414 . S
C91 C94 1.499 . S
C92 H72 0.950 . S
C92 C91 1.414 . S
C92 C93 1.374 . S
C93 H73 0.950 . S
C93 C89 1.385 . S
C93 C92 1.374 . S
C94 C91 1.499 . S
C94 C95 1.359 1_545 S
C94 C96 1.389 . S
C95 H74 0.966 . S
C95 C94 1.359 1_565 S
C95 C111 1.377 . S
C96 C94 1.389 . S
C96 C97 1.524 . S
C96 C110 1.377 . S
C97 C96 1.524 . S
C97 C98 1.397 . S
C97 C102 1.363 . S
C98 H75 0.950 . S
C98 C97 1.397 . S
C98 C99 1.334 . S
C99 H76 0.950 . S
C99 C98 1.334 . S
C99 C100 1.287 . S
C100 C99 1.287 . S
C100 C101 1.524 . S
C100 H119 0.913 . S
C101 H77 0.950 . S
C101 C100 1.524 . S
C101 C102 1.415 . S
C102 H78 0.950 . S
C102 C97 1.363 . S
C102 C101 1.415 . S
C103 H79 0.951 . S
C103 C104 1.366 . S
C103 C105 1.388 . S
C104 C103 1.366 . S
C104 C108 1.385 . S
C105 H80 0.951 . S
C105 C103 1.388 . S
C105 C106 1.366 . S
C106 C105 1.366 . S
C106 C107 1.414 . S
C106 C109 1.499 . S
C107 H81 0.950 . S
C107 C106 1.414 . S
C107 C108 1.374 . S
C108 H82 0.950 . S
C108 C104 1.385 . S
C108 C107 1.374 . S
C109 C106 1.499 . S
C109 C110 1.373 . S
C109 C111 1.378 1_545 S
C110 H83 0.950 . S
C110 C96 1.377 . S
C110 C109 1.373 . S
C111 C95 1.377 . S
C111 C109 1.378 1_565 S
C111 C112 1.538 . S
C112 C111 1.538 . S
C112 C113 1.397 . S
C112 C117 1.363 . S
C113 H84 0.950 . S
C113 C112 1.397 . S
C113 C114 1.334 . S
C114 H85 0.950 . S
C114 C113 1.334 . S
C114 C115 1.287 . S
C115 C114 1.287 . S
C115 C116 1.524 . S
C115 H118 0.999 . S
C116 H86 0.950 . S
C116 C115 1.524 . S
C116 C117 1.415 . S
C117 H87 0.950 . S
C117 C112 1.363 . S
C117 C116 1.415 . S
H118 C115 0.999 . S
H119 C100 0.913 . S
H120 C138 0.951 . S
H121 C140 0.951 . S
H122 C142 0.950 . S
H123 C143 0.950 . S
H124 C145 0.950 . S
H125 C148 0.950 . S
H126 C149 0.950 . S
H127 C151 0.950 . S
H128 C152 0.950 . S
H129 C153 0.951 . S
H130 C155 0.951 . S
H131 C157 0.950 . S
H132 C158 0.950 . S
H133 C160 0.950 . S
H134 C163 0.950 . S
H135 C164 0.950 . S
H136 C166 0.950 . S
H137 C167 0.950 . S
C138 H120 0.951 . S
C138 C139 1.366 1_655 S
C138 C140 1.388 . S
C139 C138 1.366 1_455 S
C139 C143 1.385 . S
C140 H121 0.951 . S
C140 C138 1.388 . S
C140 C141 1.366 1_655 S
C141 C140 1.366 1_455 S
C141 C142 1.414 . S
C141 C144 1.500 . S
C142 H122 0.950 . S
C142 C141 1.414 . S
C142 C143 1.374 . S
C143 H123 0.950 . S
C143 C139 1.385 . S
C143 C142 1.374 . S
C144 C141 1.500 . S
C144 C145 1.388 . S
C144 C146 1.373 1_455 S
C145 H124 0.950 . S
C145 C144 1.388 . S
C145 C161 1.377 . S
C146 C144 1.373 1_655 S
C146 C147 1.524 . S
C146 C160 1.377 . S
C147 C146 1.524 . S
C147 C148 1.397 . S
C147 C152 1.363 . S
C148 H125 0.950 . S
C148 C147 1.397 . S
C148 C149 1.334 . S
C149 H126 0.950 . S
C149 C148 1.334 . S
C149 C150 1.287 . S
C150 C149 1.287 . S
C150 C151 1.524 . S
C150 H169 0.913 . S
C151 H127 0.950 . S
C151 C150 1.524 . S
C151 C152 1.415 . S
C152 H128 0.950 . S
C152 C147 1.363 . S
C152 C151 1.415 . S
C153 H129 0.951 . S
C153 C154 1.366 1_455 S
C153 C155 1.388 . S
C154 C153 1.366 1_655 S
C154 C158 1.385 . S
C155 H130 0.951 . S
C155 C153 1.388 . S
C155 C156 1.366 1_455 S
C156 C155 1.366 1_655 S
C156 C157 1.414 . S
C156 C159 1.499 . S
C157 H131 0.950 . S
C157 C156 1.414 . S
C157 C158 1.374 . S
C158 H132 0.950 . S
C158 C154 1.385 . S
C158 C157 1.374 . S
C159 C156 1.499 . S
C159 C160 1.373 . S
C159 C161 1.389 1_655 S
C160 H133 0.950 . S
C160 C146 1.377 . S
C160 C159 1.373 . S
C161 C145 1.377 . S
C161 C159 1.389 1_455 S
C161 C162 1.524 . S
C162 C161 1.524 . S
C162 C163 1.397 . S
C162 C167 1.363 . S
C163 H134 0.950 . S
C163 C162 1.397 . S
C163 C164 1.334 . S
C164 H135 0.950 . S
C164 C163 1.334 . S
C164 C165 1.287 . S
C165 C164 1.287 . S
C165 C166 1.524 . S
C165 H168 0.999 . S
C166 H136 0.950 . S
C166 C165 1.524 . S
C166 C167 1.415 . S
C167 H137 0.950 . S
C167 C162 1.363 . S
C167 C166 1.415 . S
H168 C165 0.999 . S
H169 C150 0.913 . S
H170 C188 0.951 . S
H171 C190 0.951 . S
H172 C192 0.950 . S
H173 C193 0.950 . S
H174 C195 0.950 . S
H175 C198 0.950 . S
H176 C199 0.950 . S
H177 C201 0.950 . S
H178 C202 0.950 . S
H179 C203 0.951 . S
H180 C205 0.951 . S
H181 C207 0.950 . S
H182 C208 0.950 . S
H183 C210 0.950 . S
H184 C213 0.950 . S
H185 C214 0.950 . S
H186 C216 0.950 . S
H187 C217 0.950 . S
C188 H170 0.951 . S
C188 C189 1.366 1_565 S
C188 C190 1.388 . S
C189 C188 1.366 1_545 S
C189 C193 1.385 . S
C190 H171 0.951 . S
C190 C188 1.388 . S
C190 C191 1.366 1_565 S
C191 C190 1.366 1_545 S
C191 C192 1.414 . S
C191 C194 1.499 . S
C192 H172 0.950 . S
C192 C191 1.414 . S
C192 C193 1.374 . S
C193 H173 0.950 . S
C193 C189 1.385 . S
C193 C192 1.374 . S
C194 C191 1.499 . S
C194 C195 1.373 . S
C194 C196 1.389 1_545 S
C195 H174 0.950 . S
C195 C194 1.373 . S
C195 C211 1.377 . S
C196 C194 1.389 1_565 S
C196 C197 1.524 . S
C196 C210 1.377 . S
C197 C196 1.524 . S
C197 C198 1.397 . S
C197 C202 1.363 . S
C198 H175 0.950 . S
C198 C197 1.397 . S
C198 C199 1.334 . S
C199 H176 0.950 . S
C199 C198 1.334 . S
C199 C200 1.287 . S
C200 C199 1.287 . S
C200 C201 1.524 . S
C200 H219 0.913 . S
C201 H177 0.950 . S
C201 C200 1.524 . S
C201 C202 1.415 . S
C202 H178 0.950 . S
C202 C197 1.363 . S
C202 C201 1.415 . S
C203 H179 0.951 . S
C203 C204 1.366 1_545 S
C203 C205 1.388 . S
C204 C203 1.366 1_565 S
C204 C208 1.385 . S
C205 H180 0.951 . S
C205 C203 1.388 . S
C205 C206 1.366 . S
C206 C205 1.366 . S
C206 C207 1.414 1_545 S
C206 C209 1.499 . S
C207 H181 0.950 . S
C207 C206 1.414 1_565 S
C207 C208 1.374 . S
C208 H182 0.950 . S
C208 C204 1.385 . S
C208 C207 1.374 . S
C209 C206 1.499 . S
C209 C210 1.373 1_545 S
C209 C211 1.389 . S
C210 H183 0.950 . S
C210 C196 1.377 . S
C210 C209 1.373 1_565 S
C211 C195 1.377 . S
C211 C209 1.389 . S
C211 C212 1.524 . S
C212 C211 1.524 . S
C212 C213 1.397 . S
C212 C217 1.363 . S
C213 H184 0.950 . S
C213 C212 1.397 . S
C213 C214 1.334 . S
C214 H185 0.950 . S
C214 C213 1.334 . S
C214 C215 1.287 . S
C215 C214 1.287 . S
C215 C216 1.524 . S
C215 H218 0.999 . S
C216 H186 0.950 . S
C216 C215 1.524 . S
C216 C217 1.415 . S
C217 H187 0.950 . S
C217 C212 1.363 . S
C217 C216 1.415 . S
H218 C215 0.999 . S
H219 C200 0.913 . S
H220 C238 0.951 . S
H221 C240 0.951 . S
H222 C242 0.950 . S
H223 C243 0.950 . S
H224 C245 0.950 . S
H225 C248 0.950 . S
H226 C249 0.950 . S
H227 C251 0.950 . S
H228 C252 0.950 . S
H229 C253 0.951 . S
H230 C255 0.951 . S
H231 C257 0.950 1_655 S
H232 C258 0.950 1_655 S
H233 C260 0.950 . S
H234 C263 0.950 . S
H235 C264 0.950 . S
H236 C266 0.950 . S
H237 C267 0.950 . S
C238 H220 0.951 . S
C238 C239 1.366 1_655 S
C238 C240 1.388 . S
C239 C238 1.366 1_455 S
C239 C243 1.385 . S
C240 H221 0.951 . S
C240 C238 1.388 . S
C240 C241 1.366 1_655 S
C241 C240 1.366 1_455 S
C241 C242 1.414 . S
C241 C244 1.499 . S
C242 H222 0.950 . S
C242 C241 1.414 . S
C242 C243 1.374 . S
C243 H223 0.950 . S
C243 C239 1.385 . S
C243 C242 1.374 . S
C244 C241 1.499 . S
C244 C245 1.373 . S
C244 C246 1.389 1_455 S
C245 H224 0.950 . S
C245 C244 1.373 . S
C245 C261 1.377 . S
C246 C244 1.389 1_655 S
C246 C247 1.524 . S
C246 C260 1.377 . S
C247 C246 1.524 . S
C247 C248 1.397 . S
C247 C252 1.363 . S
C248 H225 0.950 . S
C248 C247 1.397 . S
C248 C249 1.334 . S
C249 H226 0.950 . S
C249 C248 1.334 . S
C249 C250 1.287 . S
C250 C249 1.287 . S
C250 C251 1.524 . S
C250 H269 0.913 . S
C251 H227 0.950 . S
C251 C250 1.524 . S
C251 C252 1.415 . S
C252 H228 0.950 . S
C252 C247 1.363 . S
C252 C251 1.415 . S
C253 H229 0.951 . S
C253 C254 1.366 . S
C253 C255 1.388 . S
C254 C253 1.366 . S
C254 C258 1.385 . S
C255 H230 0.951 . S
C255 C253 1.388 . S
C255 C256 1.366 . S
C256 C255 1.366 . S
C256 C257 1.414 . S
C256 C259 1.499 . S
C257 H231 0.950 1_455 S
C257 C256 1.414 . S
C257 C258 1.374 . S
C258 H232 0.950 1_455 S
C258 C254 1.385 . S
C258 C257 1.374 . S
C259 C256 1.499 . S
C259 C260 1.373 1_455 S
C259 C261 1.389 . S
C260 H233 0.950 . S
C260 C246 1.377 . S
C260 C259 1.373 1_655 S
C261 C245 1.377 . S
C261 C259 1.389 . S
C261 C262 1.524 . S
C262 C261 1.524 . S
C262 C263 1.397 . S
C262 C267 1.363 . S
C263 H234 0.950 . S
C263 C262 1.397 . S
C263 C264 1.334 . S
C264 H235 0.950 . S
C264 C263 1.334 . S
C264 C265 1.287 . S
C265 C264 1.287 . S
C265 C266 1.524 . S
C265 H268 0.999 . S
C266 H236 0.950 . S
C266 C265 1.524 . S
C266 C267 1.415 . S
C267 H237 0.950 . S
C267 C262 1.363 . S
C267 C266 1.415 . S
H268 C265 0.999 . S
H269 C250 0.913 . S
H270 C288 0.951 . S
H271 C290 0.951 . S
H272 C292 0.950 . S
H273 C293 0.950 . S
H274 C295 0.950 . S
H275 C298 0.950 . S
H276 C299 0.950 . S
H277 C301 0.950 . S
H278 C302 0.950 . S
H279 C303 0.951 . S
H280 C305 0.951 . S
H281 C307 0.950 . S
H282 C308 0.950 . S
H283 C310 0.950 . S
H284 C313 0.950 . S
H285 C314 0.950 . S
H286 C316 0.950 . S
H287 C317 0.950 . S
C288 H270 0.951 . S
C288 C289 1.366 1_565 S
C288 C290 1.388 . S
C289 C288 1.366 1_545 S
C289 C293 1.385 . S
C290 H271 0.951 . S
C290 C288 1.388 . S
C290 C291 1.366 1_565 S
C291 C290 1.366 1_545 S
C291 C292 1.414 . S
C291 C294 1.499 . S
C292 H272 0.950 . S
C292 C291 1.414 . S
C292 C293 1.374 . S
C293 H273 0.950 . S
C293 C289 1.385 . S
C293 C292 1.374 . S
C294 C291 1.499 . S
C294 C295 1.373 . S
C294 C296 1.389 . S
C295 H274 0.950 . S
C295 C294 1.373 . S
C295 C311 1.377 . S
C296 C294 1.389 . S
C296 C297 1.524 . S
C296 C310 1.377 1_545 S
C297 C296 1.524 . S
C297 C298 1.397 . S
C297 C302 1.363 1_545 S
C298 H275 0.950 . S
C298 C297 1.397 . S
C298 C299 1.334 . S
C299 H276 0.950 . S
C299 C298 1.334 . S
C299 C300 1.287 . S
C300 C299 1.287 . S
C300 C301 1.524 1_545 S
C300 H319 0.913 . S
C301 H277 0.950 . S
C301 C300 1.524 1_565 S
C301 C302 1.415 . S
C302 H278 0.950 . S
C302 C297 1.363 1_565 S
C302 C301 1.415 . S
C303 H279 0.951 . S
C303 C304 1.366 1_545 S
C303 C305 1.388 . S
C304 C303 1.366 1_565 S
C304 C308 1.385 . S
C305 H280 0.951 . S
C305 C303 1.388 . S
C305 C306 1.366 1_545 S
C306 C305 1.366 1_565 S
C306 C307 1.414 . S
C306 C309 1.499 . S
C307 H281 0.950 . S
C307 C306 1.414 . S
C307 C308 1.374 . S
C308 H282 0.950 . S
C308 C304 1.385 . S
C308 C307 1.374 . S
C309 C306 1.499 . S
C309 C310 1.374 . S
C309 C311 1.387 1_565 S
C310 H283 0.950 . S
C310 C296 1.377 1_565 S
C310 C309 1.374 . S
C311 C295 1.377 . S
C311 C309 1.387 1_545 S
C311 C312 1.524 . S
C312 C311 1.524 . S
C312 C313 1.397 1_545 S
C312 C317 1.363 . S
C313 H284 0.950 . S
C313 C312 1.397 1_565 S
C313 C314 1.334 . S
C314 H285 0.950 . S
C314 C313 1.334 . S
C314 C315 1.287 . S
C315 C314 1.287 . S
C315 C316 1.524 1_565 S
C315 H318 0.999 . S
C316 H286 0.950 . S
C316 C315 1.524 1_545 S
C316 C317 1.415 . S
C317 H287 0.950 . S
C317 C312 1.363 . S
C317 C316 1.415 . S
H318 C315 0.999 . S
H319 C300 0.913 . S
H320 C338 0.951 . S
H321 C340 0.951 . S
H322 C342 0.950 . S
H323 C343 0.950 . S
H324 C345 0.950 . S
H325 C348 0.950 . S
H326 C349 0.950 . S
H327 C351 0.950 . S
H328 C352 0.950 . S
H329 C353 0.963 . S
H330 C355 0.951 . S
H331 C357 0.950 . S
H332 C358 0.950 . S
H333 C360 0.950 . S
H334 C363 0.950 1_455 S
H335 C364 0.950 . S
H336 C366 0.950 . S
H337 C367 0.950 . S
C338 H320 0.951 . S
C338 C339 1.366 . S
C338 C340 1.388 . S
C339 C338 1.366 . S
C339 C343 1.385 1_455 S
C340 H321 0.951 . S
C340 C338 1.388 . S
C340 C341 1.366 . S
C341 C340 1.366 . S
C341 C342 1.414 1_455 S
C341 C344 1.499 . S
C342 H322 0.950 . S
C342 C341 1.414 1_655 S
C342 C343 1.374 . S
C343 H323 0.950 . S
C343 C339 1.385 1_655 S
C343 C342 1.374 . S
C344 C341 1.499 . S
C344 C345 1.373 1_455 S
C344 C346 1.389 . S
C345 H324 0.950 . S
C345 C344 1.373 1_655 S
C345 C361 1.377 . S
C346 C344 1.389 . S
C346 C347 1.524 . S
C346 C360 1.377 . S
C347 C346 1.524 . S
C347 C348 1.397 . S
C347 C352 1.363 . S
C348 H325 0.950 . S
C348 C347 1.397 . S
C348 C349 1.334 . S
C349 H326 0.950 . S
C349 C348 1.334 . S
C349 C350 1.287 . S
C350 C349 1.287 . S
C350 C351 1.524 . S
C350 H369 0.913 . S
C351 H327 0.950 . S
C351 C350 1.524 . S
C351 C352 1.415 . S
C352 H328 0.950 . S
C352 C347 1.363 . S
C352 C351 1.415 . S
C353 H329 0.963 . S
C353 C354 1.352 1_655 S
C353 C355 1.389 . S
C354 C353 1.352 1_455 S
C354 C358 1.385 . S
C355 H330 0.951 . S
C355 C353 1.389 . S
C355 C356 1.366 1_655 S
C356 C355 1.366 1_455 S
C356 C357 1.414 . S
C356 C359 1.499 . S
C357 H331 0.950 . S
C357 C356 1.414 . S
C357 C358 1.374 . S
C358 H332 0.950 . S
C358 C354 1.385 . S
C358 C357 1.374 . S
C359 C356 1.499 . S
C359 C360 1.373 . S
C359 C361 1.389 1_455 S
C360 H333 0.950 . S
C360 C346 1.377 . S
C360 C359 1.373 . S
C361 C345 1.377 . S
C361 C359 1.389 1_655 S
C361 C362 1.524 . S
C362 C361 1.524 . S
C362 C363 1.397 . S
C362 C367 1.363 . S
C363 H334 0.950 1_655 S
C363 C362 1.397 . S
C363 C364 1.334 . S
C364 H335 0.950 . S
C364 C363 1.334 . S
C364 C365 1.287 . S
C365 C364 1.287 . S
C365 C366 1.524 . S
C365 H368 0.999 . S
C366 H336 0.950 . S
C366 C365 1.524 . S
C366 C367 1.415 . S
C367 H337 0.950 . S
C367 C362 1.363 . S
C367 C366 1.415 . S
H368 C365 0.999 . S
H369 C350 0.913 . S
H370 C388 0.951 . S
H371 C390 0.951 . S
H372 C392 0.950 . S
H373 C393 0.950 . S
H374 C395 0.950 . S
H375 C398 0.950 . S
H376 C399 0.950 . S
H377 C401 0.950 . S
H378 C402 0.950 1_545 S
H379 C403 0.951 . S
H380 C405 0.951 . S
H381 C407 0.950 . S
H382 C408 0.950 . S
H383 C410 0.950 . S
H384 C413 0.950 . S
H385 C414 0.950 . S
H386 C416 0.950 . S
H387 C417 0.950 . S
C388 H370 0.951 . S
C388 C389 1.366 . S
C388 C390 1.388 . S
C389 C388 1.366 . S
C389 C393 1.385 1_545 S
C390 H371 0.951 . S
C390 C388 1.388 . S
C390 C391 1.366 . S
C391 C390 1.366 . S
C391 C392 1.414 1_545 S
C391 C394 1.499 . S
C392 H372 0.950 . S
C392 C391 1.414 1_565 S
C392 C393 1.374 . S
C393 H373 0.950 . S
C393 C389 1.385 1_565 S
C393 C392 1.374 . S
C394 C391 1.499 . S
C394 C395 1.373 . S
C394 C396 1.389 . S
C395 H374 0.950 . S
C395 C394 1.373 . S
C395 C411 1.377 . S
C396 C394 1.389 . S
C396 C397 1.524 1_545 S
C396 C410 1.377 . S
C397 C396 1.524 1_565 S
C397 C398 1.397 . S
C397 C402 1.363 . S
C398 H375 0.950 . S
C398 C397 1.397 . S
C398 C399 1.334 . S
C399 H376 0.950 . S
C399 C398 1.334 . S
C399 C400 1.287 . S
C400 C399 1.287 . S
C400 C401 1.524 . S
C400 H419 0.913 . S
C401 H377 0.950 . S
C401 C400 1.524 . S
C401 C402 1.415 . S
C402 H378 0.950 1_565 S
C402 C397 1.363 . S
C402 C401 1.415 . S
C403 H379 0.951 . S
C403 C404 1.366 . S
C403 C405 1.388 . S
C404 C403 1.366 . S
C404 C408 1.385 . S
C405 H380 0.951 . S
C405 C403 1.388 . S
C405 C406 1.366 . S
C406 C405 1.366 . S
C406 C407 1.414 . S
C406 C409 1.499 . S
C407 H381 0.950 . S
C407 C406 1.414 . S
C407 C408 1.374 . S
C408 H382 0.950 . S
C408 C404 1.385 . S
C408 C407 1.374 . S
C409 C406 1.499 . S
C409 C410 1.373 . S
C409 C411 1.389 . S
C410 H383 0.950 . S
C410 C396 1.377 . S
C410 C409 1.373 . S
C411 C395 1.377 . S
C411 C409 1.389 . S
C411 C412 1.524 . S
C412 C411 1.524 . S
C412 C413 1.397 . S
C412 C417 1.363 . S
C413 H384 0.950 . S
C413 C412 1.397 . S
C413 C414 1.334 . S
C414 H385 0.950 . S
C414 C413 1.334 . S
C414 C415 1.287 . S
C415 C414 1.287 . S
C415 C416 1.524 . S
C415 H418 0.999 . S
C416 H386 0.950 . S
C416 C415 1.524 . S
C416 C417 1.415 . S
C417 H387 0.950 . S
C417 C412 1.363 . S
C417 C416 1.415 . S
H418 C415 0.999 . S
H419 C400 0.913 . S
H420 C438 0.951 . S
H421 C440 0.951 . S
H422 C442 0.950 . S
H423 C443 0.950 . S
H424 C445 0.950 . S
H425 C448 0.950 . S
H426 C449 0.950 . S
H427 C451 0.950 . S
H428 C452 0.950 . S
H429 C453 0.951 . S
H430 C455 0.951 . S
H431 C457 0.950 . S
H432 C458 0.950 . S
H433 C460 0.950 . S
H434 C463 0.950 . S
H435 C464 0.950 . S
H436 C466 0.950 . S
H437 C467 0.950 . S
C438 H420 0.951 . S
C438 C439 1.366 . S
C438 C440 1.388 . S
C439 C438 1.366 . S
C439 C443 1.385 1_455 S
C440 H421 0.951 . S
C440 C438 1.388 . S
C440 C441 1.366 . S
C441 C440 1.366 . S
C441 C442 1.414 1_455 S
C441 C444 1.498 1_455 S
C442 H422 0.950 . S
C442 C441 1.414 1_655 S
C442 C443 1.374 . S
C443 H423 0.950 . S
C443 C439 1.385 1_655 S
C443 C442 1.374 . S
C444 C441 1.498 1_655 S
C444 C445 1.376 . S
C444 C446 1.387 1_655 S
C445 H424 0.950 . S
C445 C444 1.376 . S
C445 C461 1.377 . S
C446 C444 1.387 1_455 S
C446 C447 1.524 . S
C446 C460 1.377 . S
C447 C446 1.524 . S
C447 C448 1.397 . S
C447 C452 1.363 . S
C448 H425 0.950 . S
C448 C447 1.397 . S
C448 C449 1.334 . S
C449 H426 0.950 . S
C449 C448 1.334 . S
C449 C450 1.287 . S
C450 C449 1.287 . S
C450 C451 1.524 . S
C450 H469 0.913 . S
C451 H427 0.950 . S
C451 C450 1.524 . S
C451 C452 1.415 . S
C452 H428 0.950 . S
C452 C447 1.363 . S
C452 C451 1.415 . S
C453 H429 0.951 . S
C453 C454 1.366 . S
C453 C455 1.388 . S
C454 C453 1.366 . S
C454 C458 1.385 1_655 S
C455 H430 0.951 . S
C455 C453 1.388 . S
C455 C456 1.366 . S
C456 C455 1.366 . S
C456 C457 1.414 1_655 S
C456 C459 1.499 . S
C457 H431 0.950 . S
C457 C456 1.414 1_455 S
C457 C458 1.374 . S
C458 H432 0.950 . S
C458 C454 1.385 1_455 S
C458 C457 1.374 . S
C459 C456 1.499 . S
C459 C460 1.373 1_655 S
C459 C461 1.389 . S
C460 H433 0.950 . S
C460 C446 1.377 . S
C460 C459 1.373 1_455 S
C461 C445 1.377 . S
C461 C459 1.389 . S
C461 C462 1.524 . S
C462 C461 1.524 . S
C462 C463 1.397 . S
C462 C467 1.363 . S
C463 H434 0.950 . S
C463 C462 1.397 . S
C463 C464 1.334 . S
C464 H435 0.950 . S
C464 C463 1.334 . S
C464 C465 1.287 . S
C465 C464 1.287 . S
C465 C466 1.524 . S
C465 H468 0.999 . S
C466 H436 0.950 . S
C466 C465 1.524 . S
C466 C467 1.415 . S
C467 H437 0.950 . S
C467 C462 1.363 . S
C467 C466 1.415 . S
H468 C465 0.999 . S
H469 C450 0.913 . S
C104 C51 1.686 . S
C89 C17 1.598 . S
C154 C62 1.580 . S
C139 C40 1.593 . S
C204 C50 1.686 . S
C189 C9 1.627 . S
C254 C63 1.585 . S
C239 C33 1.544 . S
C304 C65 1.674 . S
C289 C19 1.627 . S
C354 C49 1.592 . S
C339 C38 1.560 . S
C404 C64 1.681 . S
C389 C12 1.582 . S
C439 C30 1.596 . S
C454 C48 1.593 . S
