# Generated by pormake.
# Topology zzz, (3,6)-cn, num edge types: 1
# Building blocks:
#     Node 0, Type 0, BuildingBlock: ESEHIV_clean_linker_0, # of connection points: 3
#     Node 1, Type 0, BuildingBlock: ESEHIV_clean_linker_0, # of connection points: 3
#     Node 2, Type 0, BuildingBlock: ESEHIV_clean_linker_0, # of connection points: 3
#     Node 3, Type 0, BuildingBlock: ESEHIV_clean_linker_0, # of connection points: 3
#     Node 4, Type 0, BuildingBlock: ESEHIV_clean_linker_0, # of connection points: 3
#     Node 5, Type 0, BuildingBlock: ESEHIV_clean_linker_0, # of connection points: 3
#     Node 6, Type 0, BuildingBlock: ESEHIV_clean_linker_0, # of connection points: 3
#     Node 7, Type 0, BuildingBlock: ESEHIV_clean_linker_0, # of connection points: 3
#     Node 8, Type 1, BuildingBlock: FUNLAD_clean_sbu_0, # of connection points: 6
#     Node 9, Type 1, BuildingBlock: FUNLAD_clean_sbu_0, # of connection points: 6
#     Node 10, Type 1, BuildingBlock: FUNLAD_clean_sbu_0, # of connection points: 6
#     Node 11, Type 1, BuildingBlock: FUNLAD_clean_sbu_0, # of connection points: 6
#     Edge 12, Type (0, 1), BuildingBlock: ZUJKAS_clean_linker_0, # of connection points: 2
#     Edge 13, Type (0, 1), BuildingBlock: ZUJKAS_clean_linker_0, # of connection points: 2
#     Edge 14, Type (0, 1), BuildingBlock: ZUJKAS_clean_linker_0, # of connection points: 2
#     Edge 15, Type (0, 1), BuildingBlock: ZUJKAS_clean_linker_0, # of connection points: 2
#     Edge 16, Type (0, 1), BuildingBlock: ZUJKAS_clean_linker_0, # of connection points: 2
#     Edge 17, Type (0, 1), BuildingBlock: ZUJKAS_clean_linker_0, # of connection points: 2
#     Edge 18, Type (0, 1), BuildingBlock: ZUJKAS_clean_linker_0, # of connection points: 2
#     Edge 19, Type (0, 1), BuildingBlock: ZUJKAS_clean_linker_0, # of connection points: 2
#     Edge 20, Type (0, 1), BuildingBlock: ZUJKAS_clean_linker_0, # of connection points: 2
#     Edge 21, Type (0, 1), BuildingBlock: ZUJKAS_clean_linker_0, # of connection points: 2
#     Edge 22, Type (0, 1), BuildingBlock: ZUJKAS_clean_linker_0, # of connection points: 2
#     Edge 23, Type (0, 1), BuildingBlock: ZUJKAS_clean_linker_0, # of connection points: 2
#     Edge 24, Type (0, 1), BuildingBlock: ZUJKAS_clean_linker_0, # of connection points: 2
#     Edge 25, Type (0, 1), BuildingBlock: ZUJKAS_clean_linker_0, # of connection points: 2
#     Edge 26, Type (0, 1), BuildingBlock: ZUJKAS_clean_linker_0, # of connection points: 2
#     Edge 27, Type (0, 1), BuildingBlock: ZUJKAS_clean_linker_0, # of connection points: 2
#     Edge 28, Type (0, 1), BuildingBlock: ZUJKAS_clean_linker_0, # of connection points: 2
#     Edge 29, Type (0, 1), BuildingBlock: ZUJKAS_clean_linker_0, # of connection points: 2
#     Edge 30, Type (0, 1), BuildingBlock: ZUJKAS_clean_linker_0, # of connection points: 2
#     Edge 31, Type (0, 1), BuildingBlock: ZUJKAS_clean_linker_0, # of connection points: 2
#     Edge 32, Type (0, 1), BuildingBlock: ZUJKAS_clean_linker_0, # of connection points: 2
#     Edge 33, Type (0, 1), BuildingBlock: ZUJKAS_clean_linker_0, # of connection points: 2
#     Edge 34, Type (0, 1), BuildingBlock: ZUJKAS_clean_linker_0, # of connection points: 2
#     Edge 35, Type (0, 1), BuildingBlock: ZUJKAS_clean_linker_0, # of connection points: 2
# Relax obj value: 0.280
# Max RMSD: 0.225
# Mean RMSD: 0.191
data_MOF--net-zzz--node1-FUNLAD_clean_sbu_0--node2-ESEHIV_clean_linker_0--edge1-ZUJKAS_clean_linker_0
_symmetry_space_group_name_H-M    P1
_symmetry_Int_Tables_number       1
_symmetry_cell_setting            triclinic
loop_
_symmetry_equiv_pos_as_xyz
'x, y, z'
_cell_length_a     58.712058
_cell_length_b     63.553173
_cell_length_c     22.917957
_cell_angle_alpha  86.889542
_cell_angle_beta   87.160532
_cell_angle_gamma 92.184232
loop_
_atom_site_label
_atom_site_type_symbol
_atom_site_fract_x
_atom_site_fract_y
_atom_site_fract_z
_atom_type_partial_charge
H0 H 0.83401 0.42233 0.25608 0.0
H1 H 0.79368 0.42075 0.10539 0.0
H2 H 0.76674 0.447 0.26264 0.0
C3 C 0.81794 0.42491 0.23596 0.0
C4 C 0.8004 0.43459 0.26712 0.0
C5 C 0.81578 0.42011 0.17755 0.0
C6 C 0.79531 0.4241 0.15093 0.0
C7 C 0.77745 0.43368 0.18132 0.0
C8 C 0.78006 0.43889 0.23962 0.0
H9 H 0.93206 0.80689 0.18162 0.0
H10 H 0.93315 0.76032 0.05261 0.0
H11 H 0.90669 0.7436 0.22871 0.0
C12 C 0.92828 0.79095 0.16913 0.0
C13 C 0.91849 0.77604 0.21115 0.0
C14 C 0.93364 0.78548 0.11189 0.0
C15 C 0.92898 0.76475 0.0968 0.0
C16 C 0.91925 0.74955 0.13857 0.0
C17 C 0.91405 0.75523 0.19611 0.0
H18 H 0.69445 0.02096 0.18408 0.0
H19 H 0.74371 0.0211 0.03945 0.0
H20 H 0.7602 0.9953 0.20977 0.0
C21 C 0.71134 0.01747 0.16673 0.0
C22 C 0.72654 0.00781 0.20388 0.0
C23 C 0.71724 0.02205 0.10739 0.0
C24 C 0.73911 0.01756 0.08543 0.0
C25 C 0.75489 0.00802 0.12179 0.0
C26 C 0.74847 0.00305 0.18147 0.0
H27 H 0.54983 0.66798 0.21034 0.0
H28 H 0.5656 0.73197 0.25074 0.0
H29 H 0.53333 0.71886 0.09082 0.0
C30 C 0.55009 0.68471 0.19788 0.0
C31 C 0.54051 0.69165 0.14585 0.0
C32 C 0.5592 0.69909 0.23557 0.0
C33 C 0.55885 0.72083 0.22119 0.0
C34 C 0.54932 0.72806 0.16893 0.0
C35 C 0.54023 0.71336 0.13166 0.0
H36 H 0.17272 0.57895 0.17335 0.0
H37 H 0.22301 0.58436 0.30171 0.0
H38 H 0.23913 0.55413 0.14204 0.0
C39 C 0.19009 0.57704 0.18611 0.0
C40 C 0.20539 0.5665 0.14989 0.0
C41 C 0.19624 0.58342 0.24096 0.0
C42 C 0.21831 0.57982 0.25885 0.0
C43 C 0.23388 0.56923 0.22358 0.0
C44 C 0.22729 0.56251 0.16915 0.0
H45 H 0.0881 0.1898 0.22871 0.0
H46 H 0.08064 0.23822 0.35101 0.0
H47 H 0.10927 0.25377 0.17622 0.0
C48 C 0.09062 0.20609 0.23979 0.0
C49 C 0.10005 0.22091 0.19705 0.0
C50 C 0.08341 0.21216 0.29526 0.0
C51 C 0.08626 0.23337 0.30819 0.0
C52 C 0.09573 0.24849 0.26579 0.0
C53 C 0.10238 0.24222 0.20965 0.0
H54 H 0.31874 0.98229 0.23282 0.0
H55 H 0.26413 0.97186 0.36354 0.0
H56 H 0.25166 0.00272 0.1961 0.0
C57 C 0.30097 0.98382 0.24672 0.0
C58 C 0.28637 0.99362 0.20814 0.0
C59 C 0.29325 0.97614 0.30284 0.0
C60 C 0.2701 0.97741 0.31967 0.0
C61 C 0.25482 0.98685 0.2816 0.0
C62 C 0.2631 0.99511 0.22553 0.0
H63 H 0.4663 0.32896 0.17961 0.0
H64 H 0.44346 0.26563 0.14949 0.0
H65 H 0.46868 0.28036 0.31676 0.0
C66 C 0.46308 0.31271 0.19584 0.0
C67 C 0.4684 0.30651 0.25298 0.0
C68 C 0.45398 0.29815 0.15868 0.0
C69 C 0.45029 0.27695 0.17845 0.0
C70 C 0.45557 0.27045 0.23577 0.0
C71 C 0.46452 0.28534 0.2727 0.0
C72 C 0.01636 0.96322 0.76086 0.0
N73 N 0.97894 0.9719 0.61261 0.0
C74 C 0.99088 0.95578 0.59144 0.0
C75 C 0.98012 0.94041 0.56024 0.0
C76 C 0.95673 0.9414 0.55118 0.0
C77 C 0.94481 0.95838 0.57247 0.0
C78 C 0.95637 0.97364 0.603 0.0
Zn79 Zn 0.99543 0.99109 0.66733 0.0
C80 C 0.96518 -6e-05 0.77253 0.0
N81 N 0.03087 0.02712 0.78853 0.0
C82 C 0.05325 0.02496 0.79969 0.0
C83 C 0.0191 0.04351 0.80864 0.0
C84 C 0.02985 0.05875 0.8403 0.0
C85 C 0.05306 0.05728 0.85126 0.0
C86 C 0.06478 0.04001 0.83101 0.0
Zn87 Zn 0.01443 0.00797 0.73369 0.0
O88 O 0.00489 0.96385 0.71529 0.0
C89 C 0.04471 -0.00086 0.62858 0.0
O90 O 0.02354 0.98033 0.78117 0.0
H91 H 1.00147 0.04523 0.7984 0.0
H92 H 0.00864 0.95432 0.60064 0.0
H93 H 0.06233 0.01188 0.78297 0.0
O94 O 0.02608 0.99084 0.61304 0.0
O95 O 0.04498 0.00751 0.67778 0.0
H96 H 0.94715 0.98649 0.62052 0.0
O97 O 0.00483 0.03522 0.68584 0.0
O98 O 0.98648 0.01868 0.61953 0.0
O99 O 0.98385 0.00808 0.78829 0.0
O100 O 0.96487 0.99174 0.72309 0.0
C101 C 0.99353 0.03581 0.63999 0.0
H102 H 0.98985 0.9274 0.54541 0.0
H103 H 0.92676 0.95971 0.5661 0.0
H104 H 0.02026 0.07198 0.85419 0.0
H105 H 0.08266 0.03824 0.83889 0.0
C106 C 0.47765 0.97577 0.63471 0.0
N107 N 0.49505 0.04041 0.62537 0.0
C108 C 0.49481 0.03874 0.56647 0.0
C109 C 0.48985 0.05604 0.52988 0.0
C110 C 0.48532 0.07543 0.55385 0.0
C111 C 0.48575 0.0767 0.6149 0.0
C112 C 0.49059 0.05891 0.65 0.0
Zn113 Zn 0.50211 0.01426 0.67636 0.0
C114 C 0.46751 0.00534 0.776 0.0
N115 N 0.51603 0.95829 0.77789 0.0
C116 C 0.52236 0.94036 0.75277 0.0
C117 C 0.51469 0.95943 0.83707 0.0
C118 C 0.51979 0.94212 0.87347 0.0
C119 C 0.52644 0.92339 0.84889 0.0
C120 C 0.52768 0.92266 0.78759 0.0
Zn121 Zn 0.50887 0.98443 0.72703 0.0
O122 O 0.48118 0.99555 0.62589 0.0
C123 C 0.54344 0.99346 0.62707 0.0
O124 O 0.48754 0.96604 0.67558 0.0
H125 H 0.50965 0.97384 0.85621 0.0
H126 H 0.4984 0.0239 0.54769 0.0
H127 H 0.5234 0.93982 0.70563 0.0
O128 O 0.53102 0.00925 0.61961 0.0
O129 O 0.53814 0.97994 0.66911 0.0
H130 H 0.49087 0.05989 0.69692 0.0
O131 O 0.5296 0.00307 0.77803 0.0
O132 O 0.52353 0.03258 0.72788 0.0
O133 O 0.47987 0.9895 0.78366 0.0
O134 O 0.47288 0.01884 0.73399 0.0
C135 C 0.53315 0.02285 0.76922 0.0
H136 H 0.48936 0.05413 0.4833 0.0
H137 H 0.48271 0.09136 0.6354 0.0
H138 H 0.51824 0.94334 0.92044 0.0
H139 H 0.53298 0.90864 0.76666 0.0
C140 C 0.51657 0.47127 0.61768 0.0
N141 N 0.4596 0.50821 0.63596 0.0
C142 C 0.46305 0.51229 0.57722 0.0
C143 C 0.44473 0.5162 0.5424 0.0
C144 C 0.42246 0.51575 0.56789 0.0
C145 C 0.41935 0.51162 0.62877 0.0
C146 C 0.43827 0.50788 0.66218 0.0
Zn147 Zn 0.48783 0.50209 0.68211 0.0
C148 C 0.48202 0.4653 0.76471 0.0
N149 N 0.54931 0.4892 0.7668 0.0
C150 C 0.57027 0.48759 0.73968 0.0
C151 C 0.5462 0.4864 0.82598 0.0
C152 C 0.56449 0.48181 0.86033 0.0
C153 C 0.58631 0.47983 0.83376 0.0
C154 C 0.58909 0.48286 0.77248 0.0
Zn155 Zn 0.52109 0.49552 0.72083 0.0
O156 O 0.49809 0.48105 0.61861 0.0
C157 C 0.52698 0.53218 0.6378 0.0
O158 O 0.53075 0.4743 0.65681 0.0
H159 H 0.52942 0.48769 0.84682 0.0
H160 H 0.4801 0.51247 0.55707 0.0
H161 H 0.57235 0.48983 0.69257 0.0
O162 O 0.50589 0.5274 0.63453 0.0
O163 O 0.53882 0.52104 0.67167 0.0
H164 H 0.43591 0.50454 0.70892 0.0
O165 O 0.51083 0.5167 0.78408 0.0
O166 O 0.47802 0.52318 0.7463 0.0
O167 O 0.50305 0.47021 0.76871 0.0
O168 O 0.47024 0.47647 0.73079 0.0
C169 C 0.49225 0.52632 0.78525 0.0
H170 H 0.44806 0.51971 0.49593 0.0
H171 H 0.40248 0.51094 0.65026 0.0
H172 H 0.56153 0.48002 0.90738 0.0
H173 H 0.60554 0.48128 0.74999 0.0
C174 C 0.02307 0.52986 0.61689 0.0
N175 N 0.0263 0.4641 0.62467 0.0
C176 C 0.0247 0.46654 0.56569 0.0
C177 C 0.03331 0.45157 0.52916 0.0
C178 C 0.04345 0.43366 0.55339 0.0
C179 C 0.045 0.4316 0.6145 0.0
C180 C 0.03635 0.44712 0.64945 0.0
Zn181 Zn 0.01277 0.48657 0.67518 0.0
C182 C 0.04511 0.50337 0.75781 0.0
N183 N 0.98417 0.53526 0.77308 0.0
C184 C 0.97298 0.55136 0.74741 0.0
C185 C 0.98643 0.53373 0.83194 0.0
C186 C 0.97727 0.54879 0.86743 0.0
C187 C 0.96576 0.56571 0.84219 0.0
C188 C 0.96365 0.56685 0.78125 0.0
Zn189 Zn 0.99779 0.51271 0.72317 0.0
O190 O 0.02643 0.51031 0.614 0.0
C191 C 0.96541 0.49608 0.64059 0.0
O192 O 0.01085 0.5361 0.65936 0.0
H193 H 0.99536 0.52078 0.85151 0.0
H194 H 0.01662 0.48012 0.54678 0.0
H195 H 0.97138 0.55227 0.70054 0.0
O196 O 0.98226 0.48467 0.62969 0.0
O197 O 0.96697 0.50966 0.67908 0.0
H198 H 0.03743 0.44548 0.69644 0.0
O199 O 0.98517 0.48898 0.78635 0.0
O200 O 0.99873 0.46316 0.73695 0.0
O201 O 0.02863 0.51544 0.76613 0.0
O202 O 0.04323 0.48887 0.72195 0.0
C203 C 0.98763 0.46937 0.78132 0.0
H204 H 0.03206 0.45407 0.48235 0.0
H205 H 0.05237 0.41795 0.63533 0.0
H206 H 0.97906 0.54708 0.91423 0.0
H207 H 0.95524 0.57976 0.75969 0.0
H208 H 0.22952 0.02233 0.28346 0.0
H209 H 0.19271 0.02612 0.33729 0.0
H210 H 0.18915 0.95936 0.38359 0.0
H211 H 0.22591 0.95562 0.33096 0.0
H212 H 0.1485 0.00846 0.33427 0.0
H213 H 0.18662 0.98475 0.54289 0.0
H214 H 0.20366 0.99107 0.47611 0.0
H215 H 0.1896 0.96545 0.48902 0.0
C216 C 0.2206 0.00843 0.30409 0.0
C217 C 0.23068 0.98871 0.30342 0.0
C218 C 0.19964 0.01061 0.33513 0.0
C219 C 0.18843 0.99312 0.36593 0.0
C220 C 0.19774 0.9732 0.36168 0.0
H221 H 0.05056 0.97998 0.52488 0.0
H222 H 0.08506 0.97983 0.46074 0.0
C223 C 0.21867 0.97105 0.33117 0.0
C224 C 0.16762 0.99566 0.40466 0.0
H225 H 0.14619 0.98658 0.54568 0.0
C226 C 0.14802 0.00378 0.38055 0.0
C227 C 0.16706 0.98998 0.46542 0.0
C228 C 0.18792 0.98254 0.49509 0.0
C229 C 0.12773 0.00573 0.41507 0.0
C230 C 0.12684 -0.00099 0.47521 0.0
C231 C 0.14667 0.9915 0.49956 0.0
C232 C 0.10559 -0.00051 0.51376 0.0
C233 C 0.10756 0.01525 0.38685 0.0
C234 C 0.10566 0.01003 0.56615 0.0
C235 C 0.08597 0.00991 0.60347 0.0
C236 C 0.06574 -0.00081 0.58936 0.0
C237 C 0.06575 0.98854 0.53704 0.0
C238 C 0.08547 0.98859 0.49992 0.0
H239 H 0.11297 0.02534 0.34708 0.0
H240 H 0.09595 0.00242 0.37338 0.0
H241 H 0.09786 0.02489 0.41769 0.0
H242 H 0.12097 0.01844 0.57816 0.0
H243 H 0.08662 0.01828 0.64334 0.0
H244 H 0.47206 0.23616 0.18366 0.0
H245 H 0.47364 0.20019 0.22785 0.0
H246 H 0.4356 0.21864 0.38127 0.0
H247 H 0.43402 0.25453 0.33745 0.0
H248 H 0.49467 0.19381 0.34039 0.0
H249 H 0.40584 0.16016 0.34461 0.0
H250 H 0.41621 0.18149 0.29361 0.0
H251 H 0.40891 0.18658 0.36838 0.0
C252 C 0.46349 0.23233 0.22606 0.0
C253 C 0.45296 0.24806 0.25728 0.0
C254 C 0.46448 0.21186 0.25131 0.0
C255 C 0.4546 0.20677 0.30759 0.0
C256 C 0.44305 0.22219 0.33747 0.0
H257 H 0.45493 0.10628 0.57528 0.0
H258 H 0.4479 0.13755 0.51297 0.0
C259 C 0.44226 0.24267 0.31257 0.0
C260 C 0.4587 0.18628 0.33821 0.0
H261 H 0.43181 0.14194 0.40358 0.0
C262 C 0.48101 0.18229 0.3536 0.0
C263 C 0.44075 0.17153 0.35596 0.0
C264 C 0.41657 0.17499 0.33952 0.0
C265 C 0.4858 0.16422 0.38797 0.0
C266 C 0.46785 0.14942 0.40597 0.0
C267 C 0.44555 0.15327 0.38972 0.0
C268 C 0.47181 0.13013 0.4429 0.0
C269 C 0.50989 0.16164 0.40667 0.0
C270 C 0.48738 0.11542 0.42393 0.0
C271 C 0.49179 0.09775 0.45991 0.0
C272 C 0.48041 0.09418 0.51532 0.0
C273 C 0.46436 0.1087 0.53349 0.0
C274 C 0.46012 0.12648 0.49764 0.0
H275 H 0.5199 0.17689 0.4033 0.0
H276 H 0.51 0.15496 0.45243 0.0
H277 H 0.51865 0.15072 0.3777 0.0
H278 H 0.49625 0.11767 0.38136 0.0
H279 H 0.50441 0.08707 0.44455 0.0
H280 H 0.26426 0.59493 0.27522 0.0
H281 H 0.29797 0.58452 0.3268 0.0
H282 H 0.28702 0.52049 0.27795 0.0
H283 H 0.25314 0.53078 0.22655 0.0
H284 H 0.29106 0.52609 0.40183 0.0
H285 H 0.36197 0.56668 0.26466 0.0
H286 H 0.3384 0.58278 0.28283 0.0
H287 H 0.33421 0.56103 0.23715 0.0
C288 C 0.26928 0.57871 0.2747 0.0
C289 C 0.25612 0.56366 0.24686 0.0
C290 C 0.28856 0.57281 0.3039 0.0
C291 C 0.29502 0.55178 0.30584 0.0
C292 C 0.28235 0.53683 0.2766 0.0
H293 H 0.41591 0.50215 0.45834 0.0
H294 H 0.38478 0.51021 0.39493 0.0
C295 C 0.26313 0.54275 0.24696 0.0
C296 C 0.31387 0.54514 0.34229 0.0
H297 H 0.37105 0.55249 0.35846 0.0
C298 C 0.30858 0.53172 0.3922 0.0
C299 C 0.33667 0.55249 0.32939 0.0
C300 C 0.3433 0.56641 0.27536 0.0
C301 C 0.32549 0.52583 0.43038 0.0
C302 C 0.34818 0.53366 0.41836 0.0
C303 C 0.35357 0.54667 0.36772 0.0
C304 C 0.36663 0.52844 0.45772 0.0
C305 C 0.31903 0.51121 0.48316 0.0
C306 C 0.36669 0.53606 0.51404 0.0
C307 C 0.3846 0.53169 0.55029 0.0
C308 C 0.40279 0.51963 0.53076 0.0
C309 C 0.40242 0.51179 0.47448 0.0
C310 C 0.38459 0.51627 0.43823 0.0
H311 H 0.30201 0.50323 0.47979 0.0
H312 H 0.33193 0.49903 0.48886 0.0
H313 H 0.31846 0.52044 0.52291 0.0
H314 H 0.35309 0.54572 0.52952 0.0
H315 H 0.38449 0.53822 0.59297 0.0
H316 H 0.11472 0.26486 0.3601 0.0
H317 H 0.10979 0.30017 0.39551 0.0
H318 H 0.07399 0.31764 0.24158 0.0
H319 H 0.07893 0.28226 0.20575 0.0
H320 H 0.11798 0.34594 0.33322 0.0
H321 H 0.02875 0.3177 0.39819 0.0
H322 H 0.05134 0.29962 0.38689 0.0
H323 H 0.03989 0.31339 0.32533 0.0
C324 C 0.10631 0.27643 0.33316 0.0
C325 C 0.09706 0.27087 0.28044 0.0
C326 C 0.10358 0.29655 0.3533 0.0
C327 C 0.09143 0.31136 0.32124 0.0
C328 C 0.08345 0.30635 0.26675 0.0
H329 H 0.02425 0.41944 0.45551 0.0
H330 H 0.03745 0.39193 0.3936 0.0
C331 C 0.08635 0.28623 0.24628 0.0
C332 C 0.08465 0.33084 0.34855 0.0
H333 H 0.04014 0.35146 0.42428 0.0
C334 C 0.10093 0.34733 0.35273 0.0
C335 C 0.06242 0.33243 0.37394 0.0
C336 C 0.0445 0.31487 0.37136 0.0
C337 C 0.09549 0.36552 0.3819 0.0
C338 C 0.07338 0.36687 0.40883 0.0
C339 C 0.05706 0.35044 0.40367 0.0
C340 C 0.06676 0.38487 0.44375 0.0
C341 C 0.11337 0.38316 0.383 0.0
C342 C 0.07883 0.39009 0.49269 0.0
C343 C 0.07152 0.40612 0.52779 0.0
C344 C 0.05179 0.41705 0.51515 0.0
C345 C 0.03976 0.41171 0.46604 0.0
C346 C 0.04719 0.39585 0.43074 0.0
H347 H 0.12621 0.38271 0.34587 0.0
H348 H 0.10557 0.39881 0.38118 0.0
H349 H 0.12248 0.38141 0.42415 0.0
H350 H 0.09363 0.38149 0.50454 0.0
H351 H 0.08134 0.4099 0.56487 0.0
H352 H 0.79741 0.01851 0.15942 0.0
H353 H 0.83436 0.0158 0.10511 0.0
H354 H 0.8005 0.98403 0.9701 0.0
H355 H 0.76378 0.98689 0.02355 0.0
H356 H 0.85911 0.98201 0.06009 0.0
H357 H 0.83145 0.03572 0.88079 0.0
H358 H 0.81607 0.03237 0.95103 0.0
H359 H 0.81242 0.01317 0.89704 0.0
C360 C 0.79798 0.0106 0.11872 0.0
C361 C 0.77768 0.00314 0.0954 0.0
C362 C 0.81905 0.00915 0.08756 0.0
C363 C 0.82015 0.00021 0.03269 0.0
C364 C 0.80006 0.99151 0.01147 0.0
H365 H 0.92218 0.98431 0.75244 0.0
H366 H 0.88779 0.98402 0.81758 0.0
C367 C 0.77908 0.99305 0.04226 0.0
C368 C 0.84193 0.00071 0.99611 0.0
H369 H 0.86596 0.01833 0.86243 0.0
C370 C 0.86068 0.99007 0.01706 0.0
C371 C 0.84404 0.01128 0.9399 0.0
C372 C 0.82502 0.02396 0.91598 0.0
C373 C 0.88118 0.98917 0.98265 0.0
C374 C 0.88312 -0.00053 0.92609 0.0
C375 C 0.86446 0.01031 0.90554 0.0
C376 C 0.9043 -0.00075 0.88733 0.0
C377 C 0.90035 0.97671 0.00649 0.0
C378 C 0.92503 0.00814 0.90438 0.0
C379 C 0.94473 0.00838 0.86715 0.0
C380 C 0.94415 -0.00019 0.8118 0.0
C381 C 0.92331 0.99103 0.79469 0.0
C382 C 0.90361 0.99084 0.83194 0.0
H383 H 0.89424 0.96549 0.04331 0.0
H384 H 0.90877 0.96774 0.97179 0.0
H385 H 0.91333 0.98772 0.02301 0.0
H386 H 0.92594 0.01515 0.94627 0.0
H387 H 0.96042 0.01536 0.88176 0.0
H388 H 0.51298 0.7496 0.13285 0.0
H389 H 0.51319 0.78563 0.08961 0.0
H390 H 0.58458 0.79404 0.12227 0.0
H391 H 0.58452 0.75773 0.16532 0.0
H392 H 0.52654 0.82617 0.13249 0.0
H393 H 0.58034 0.80323 0.9409 0.0
H394 H 0.56576 0.78394 0.99171 0.0
H395 H 0.59094 0.79796 0.01235 0.0
C396 C 0.52866 0.75923 0.13146 0.0
C397 C 0.5488 0.75085 0.1518 0.0
C398 C 0.52873 0.7798 0.10699 0.0
C399 C 0.54896 0.79235 0.10205 0.0
C400 C 0.56886 0.78448 0.12517 0.0
H401 H 0.54951 0.92261 0.95023 0.0
H402 H 0.55686 0.8919 0.01472 0.0
C403 C 0.56877 0.76385 0.15008 0.0
C404 C 0.54926 0.81301 0.06887 0.0
H405 H 0.56682 0.83754 0.93716 0.0
C406 C 0.53561 0.82884 0.09018 0.0
C407 C 0.56089 0.81624 0.01337 0.0
C408 C 0.57523 0.79946 0.98774 0.0
C409 C 0.53287 0.84768 0.05679 0.0
C410 C 0.54419 0.85074 0.00088 0.0
C411 C 0.55826 0.83513 0.98017 0.0
C412 C 0.54036 0.86937 0.96151 0.0
C413 C 0.51713 0.86379 0.08036 0.0
C414 C 0.52904 0.86679 0.90974 0.0
C415 C 0.52469 0.88428 0.87297 0.0
C416 C 0.53172 0.90471 0.8871 0.0
C417 C 0.54348 0.90716 0.93857 0.0
C418 C 0.54776 0.88964 0.97541 0.0
H419 H 0.50678 0.8575 0.11983 0.0
H420 H 0.52741 0.87776 0.0924 0.0
H421 H 0.50541 0.86913 0.04649 0.0
H422 H 0.52319 0.85124 0.89832 0.0
H423 H 0.51537 0.88181 0.83415 0.0
H424 H 0.73243 0.4259 0.21596 0.0
H425 H 0.69901 0.43343 0.1588 0.0
H426 H 0.74328 0.46302 0.01972 0.0
H427 H 0.77652 0.45522 0.07588 0.0
H428 H 0.68228 0.4703 0.11283 0.0
H429 H 0.70798 0.41951 0.93395 0.0
H430 H 0.72144 0.41878 0.00308 0.0
H431 H 0.72967 0.43905 0.94727 0.0
C432 C 0.73492 0.4341 0.17331 0.0
C433 C 0.75702 0.43966 0.14983 0.0
C434 C 0.71589 0.43835 0.14069 0.0
C435 C 0.71873 0.44827 0.08434 0.0
C436 C 0.74074 0.45474 0.06224 0.0
H437 H 0.63075 0.49518 0.81917 0.0
H438 H 0.66252 0.48713 0.88092 0.0
C439 C 0.75969 0.45035 0.09445 0.0
C440 C 0.69882 0.45188 0.04823 0.0
H441 H 0.67795 0.4428 0.91488 0.0
C442 C 0.68122 0.46414 0.06979 0.0
C443 C 0.69743 0.44373 0.99211 0.0
C444 C 0.71502 0.42936 0.96795 0.0
C445 C 0.6626 0.46897 0.03598 0.0
C446 C 0.66159 0.46128 0.97943 0.0
C447 C 0.67897 0.44882 0.95812 0.0
C448 C 0.64245 0.46587 0.94182 0.0
C449 C 0.64433 0.4826 0.06028 0.0
C450 C 0.62083 0.45623 0.9552 0.0
C451 C 0.60274 0.46053 0.91965 0.0
C452 C 0.60589 0.47466 0.87012 0.0
C453 C 0.62774 0.48407 0.85652 0.0
C454 C 0.64587 0.47962 0.89195 0.0
H455 H 0.64934 0.4899 0.10094 0.0
H456 H 0.6405 0.49528 0.02736 0.0
H457 H 0.62842 0.47282 0.0704 0.0
H458 H 0.618 0.44531 0.99305 0.0
H459 H 0.58631 0.45263 0.93081 0.0
H460 H 0.89377 0.73589 0.05147 0.0
H461 H 0.89436 0.70124 0.00979 0.0
H462 H 0.93944 0.67999 0.14201 0.0
H463 H 0.93808 0.7144 0.18498 0.0
H464 H 0.93174 0.6872 0.96169 0.0
H465 H 0.89932 0.628 0.13469 0.0
H466 H 0.89506 0.65584 0.13974 0.0
H467 H 0.92161 0.64482 0.15954 0.0
C468 C 0.90315 0.72353 0.07266 0.0
C469 C 0.91581 0.72765 0.12142 0.0
C470 C 0.90354 0.70379 0.04881 0.0
C471 C 0.91682 0.68791 0.07291 0.0
C472 C 0.9286 0.69174 0.12348 0.0
H473 H 0.98492 0.58308 0.93602 0.0
H474 H 0.97047 0.61142 0.9937 0.0
C475 C 0.92791 0.71142 0.14791 0.0
C476 C 0.92089 0.66869 0.04049 0.0
H477 H 0.92216 0.61494 0.05504 0.0
C478 C 0.92925 0.6714 0.98192 0.0
C479 C 0.91779 0.64805 0.0669 0.0
C480 C 0.90773 0.64398 0.1285 0.0
C481 C 0.9352 0.65415 0.94966 0.0
C482 C 0.93274 0.63364 0.9766 0.0
C483 C 0.92406 0.63077 0.03474 0.0
C484 C 0.94008 0.61515 0.94527 0.0
C485 C 0.94479 0.65797 0.88749 0.0
C486 C 0.92754 0.60774 0.89957 0.0
C487 C 0.93563 0.59142 0.86674 0.0
C488 C 0.95648 0.5823 0.87895 0.0
C489 C 0.96869 0.58952 0.92582 0.0
C490 C 0.96051 0.60575 0.95877 0.0
H491 H 0.94824 0.675 0.87544 0.0
H492 H 0.96089 0.64956 0.88114 0.0
H493 H 0.93242 0.65165 0.8571 0.0
H494 H 0.91167 0.6148 0.88879 0.0
H495 H 0.92559 0.58601 0.8317 0.0
H496 H 0.09553 0.17184 0.32138 0.0
H497 H 0.07432 0.14477 0.384 0.0
H498 H 0.02419 0.1898 0.42958 0.0
H499 H 0.0449 0.21685 0.36512 0.0
H500 H 0.06301 0.14371 0.50162 0.0
H501 H 0.98521 0.14084 0.37298 0.0
H502 H 0.01166 0.15391 0.34495 0.0
H503 H 0.99346 0.16637 0.39687 0.0
C504 C 0.07994 0.17597 0.34452 0.0
C505 C 0.07179 0.19642 0.33795 0.0
C506 C 0.06789 0.16052 0.38043 0.0
C507 C 0.04748 0.1652 0.4105 0.0
C508 C 0.03967 0.18578 0.40575 0.0
H509 H 0.99282 0.07452 0.68437 0.0
H510 H 1.00121 0.10828 0.62986 0.0
C511 C 0.05169 0.20127 0.36961 0.0
C512 C 0.03467 0.14839 0.44703 0.0
H513 H 0.98485 0.1185 0.45895 0.0
C514 C 0.04586 0.1383 0.49265 0.0
C515 C 0.01239 0.14126 0.43458 0.0
C516 C 0.99997 0.15099 0.3844 0.0
C517 C 0.03558 0.12098 0.52561 0.0
C518 C 0.01321 0.11393 0.51359 0.0
C519 C 1.00186 0.12417 0.46844 0.0
C520 C 1.00227 0.09494 0.54496 0.0
C521 C 0.0492 0.10985 0.57134 0.0
C522 C 0.99822 0.07662 0.51481 0.0
C523 C 0.99296 0.05735 0.54581 0.0
C524 C 0.99195 0.05623 0.60725 0.0
C525 C 0.99376 0.07495 0.63697 0.0
C526 C 0.99866 0.09421 0.60597 0.0
H527 H 0.0677 0.11426 0.56573 0.0
H528 H 0.04309 0.11428 0.61542 0.0
H529 H 0.04702 0.09246 0.56966 0.0
H530 H 1.00079 0.07694 0.46762 0.0
H531 H 0.99169 0.04314 0.5219 0.0
H532 H 0.33534 0.99314 0.32017 0.0
H533 H 0.36417 0.97919 0.38257 0.0
H534 H 0.318 0.92749 0.44429 0.0
H535 H 0.28886 0.94112 0.37986 0.0
H536 H 0.34424 0.95389 0.5328 0.0
H537 H 0.39807 0.92136 0.35681 0.0
H538 H 0.3872 0.94671 0.33733 0.0
H539 H 0.36768 0.92434 0.35201 0.0
C540 C 0.33131 0.97863 0.3463 0.0
C541 C 0.30995 0.96801 0.3442 0.0
C542 C 0.3478 0.97073 0.38206 0.0
C543 C 0.34331 0.95213 0.41695 0.0
C544 C 0.32178 0.94175 0.41696 0.0
H545 H 0.45354 0.93849 0.66391 0.0
H546 H 0.42034 0.92447 0.61482 0.0
C547 C 0.30518 0.94962 0.38054 0.0
C548 C 0.36141 0.94441 0.45404 0.0
H549 H 0.41762 0.93305 0.44055 0.0
C550 C 0.36008 0.94849 0.51355 0.0
C551 C 0.38192 0.93734 0.4285 0.0
C552 C 0.38381 0.93198 0.3652 0.0
C553 C 0.37958 0.94796 0.54663 0.0
C554 C 0.4007 0.94305 0.51921 0.0
C555 C 0.4014 0.93684 0.46138 0.0
C556 C 0.4225 0.94885 0.5449 0.0
C557 C 0.37799 0.95471 0.60876 0.0
C558 C 0.43509 0.96664 0.52045 0.0
C559 C 0.45384 0.97465 0.54818 0.0
C560 C 0.46049 0.96493 0.60078 0.0
C561 C 0.4488 0.94627 0.62333 0.0
C562 C 0.4298 0.93832 0.59562 0.0
H563 H 0.36041 0.95886 0.62274 0.0
H564 H 0.38334 0.94176 0.63882 0.0
H565 H 0.38971 0.9686 0.61327 0.0
H566 H 0.42972 0.97497 0.48129 0.0
H567 H 0.4626 0.98896 0.52955 0.0
H568 H 0.45545 0.34681 0.26627 0.0
H569 H 0.47272 0.3733 0.32542 0.0
H570 H 0.52056 0.32834 0.38664 0.0
H571 H 0.50359 0.30169 0.32649 0.0
H572 H 0.49826 0.3514 0.4757 0.0
H573 H 0.53581 0.40421 0.29297 0.0
H574 H 0.50632 0.39699 0.28479 0.0
H575 H 0.52721 0.37701 0.284 0.0
C576 C 0.46981 0.34259 0.29175 0.0
C577 C 0.47828 0.3222 0.29127 0.0
C578 C 0.47967 0.35775 0.32546 0.0
C579 C 0.49821 0.35287 0.3593 0.0
C580 C 0.5064 0.33242 0.36025 0.0
H581 H 0.54769 0.44008 0.61774 0.0
H582 H 0.54903 0.41047 0.55322 0.0
C583 C 0.49657 0.3172 0.32627 0.0
C584 C 0.50824 0.3691 0.39523 0.0
H585 H 0.53016 0.41972 0.38587 0.0
C586 C 0.50575 0.36617 0.45632 0.0
C587 C 0.5181 0.38825 0.36955 0.0
C588 C 0.52225 0.39177 0.3042 0.0
C589 C 0.51125 0.38258 0.49242 0.0
C590 C 0.51978 0.40221 0.46648 0.0
C591 C 0.52361 0.40464 0.40555 0.0
C592 C 0.52158 0.42116 0.50088 0.0
C593 C 0.50642 0.37929 0.55765 0.0
C594 C 0.50642 0.43732 0.49103 0.0
C595 C 0.50566 0.45416 0.52739 0.0
C596 C 0.52014 0.45522 0.57428 0.0
C597 C 0.5363 0.43965 0.58203 0.0
C598 C 0.53699 0.42269 0.54554 0.0
H599 H 0.49702 0.36406 0.56984 0.0
H600 H 0.52277 0.37939 0.57993 0.0
H601 H 0.49625 0.39229 0.57429 0.0
H602 H 0.49446 0.43645 0.45663 0.0
H603 H 0.49315 0.46598 0.51993 0.0
H604 H 0.1638 0.61251 0.21969 0.0
H605 H 0.13048 0.61941 0.28364 0.0
H606 H 0.15489 0.57698 0.41792 0.0
H607 H 0.18804 0.57039 0.35518 0.0
H608 H 0.09901 0.5912 0.31553 0.0
H609 H 0.1303 0.62039 0.51865 0.0
H610 H 0.14829 0.62101 0.45224 0.0
H611 H 0.14621 0.59785 0.50184 0.0
C612 C 0.1623 0.60515 0.26355 0.0
C613 C 0.17854 0.59093 0.28247 0.0
C614 C 0.14332 0.60916 0.30008 0.0
C615 C 0.1403 0.59901 0.35608 0.0
C616 C 0.15714 0.58563 0.37587 0.0
H617 H 0.04473 0.52078 0.51456 0.0
H618 H 0.06814 0.54446 0.44777 0.0
C619 C 0.17612 0.58175 0.33969 0.0
C620 C 0.1181 0.59915 0.38998 0.0
H621 H 0.09666 0.595 0.53126 0.0
C622 C 0.09833 0.59277 0.36247 0.0
C623 C 0.11678 0.60181 0.45095 0.0
C624 C 0.13655 0.6109 0.48227 0.0
C625 C 0.07824 0.58639 0.39527 0.0
C626 C 0.07817 0.58585 0.45702 0.0
C627 C 0.09688 0.59484 0.48393 0.0
C628 C 0.06119 0.57257 0.49388 0.0
C629 C 0.05775 0.57905 0.36353 0.0
C630 C 0.04958 0.5804 0.54267 0.0
C631 C 0.0362 0.56672 0.58164 0.0
C632 C 0.03456 0.54499 0.5727 0.0
C633 C 0.04562 0.53741 0.52279 0.0
C634 C 0.05884 0.55102 0.48405 0.0
H635 H 0.05673 0.58827 0.32121 0.0
H636 H 0.05948 0.56227 0.35355 0.0
H637 H 0.04162 0.58053 0.39011 0.0
H638 H 0.05139 0.59694 0.55143 0.0
H639 H 0.02793 0.573 0.61987 0.0
H640 H 0.96996 0.7808 0.03447 0.0
H641 H 0.98945 0.80816 0.96833 0.0
H642 H 0.94207 0.85359 0.02793 0.0
H643 H 0.92216 0.82631 0.09254 0.0
H644 H 0.94951 0.85481 0.90726 0.0
H645 H 0.03122 0.85663 0.02031 0.0
H646 H 0.02146 0.8313 0.99777 0.0
H647 H 0.00529 0.844 0.05333 0.0
C648 C 0.96355 0.79657 0.03284 0.0
C649 C 0.94463 0.80147 0.06892 0.0
C650 C 0.97487 0.81221 0.99566 0.0
C651 C 0.96744 0.83294 0.99419 0.0
C652 C 0.94818 0.8377 0.0289 0.0
H653 H 0.02008 0.95567 0.87845 0.0
H654 H 0.01213 0.92173 0.93303 0.0
C655 C 0.93689 0.82214 0.06593 0.0
C656 C 0.97937 0.84985 0.95615 0.0
H657 H 0.02898 0.87987 0.93697 0.0
C658 C 0.96695 0.86018 0.91333 0.0
C659 C 1.00204 0.8569 0.96484 0.0
C660 C 0.01581 0.84679 0.01181 0.0
C661 C 0.9764 0.87768 0.87959 0.0
C662 C 0.99911 0.88472 0.88802 0.0
C663 C 0.01169 0.87423 0.93029 0.0
C664 C 0.00924 0.90387 0.85576 0.0
C665 C 0.96161 0.889 0.8369 0.0
C666 C 0.0116 0.90474 0.79453 0.0
C667 C 0.01587 0.92407 0.7634 0.0
C668 C 0.01824 0.94274 0.79315 0.0
C669 C 0.01835 0.94151 0.8545 0.0
C670 C 0.01376 0.92215 0.88567 0.0
H671 H 0.94324 0.88442 0.84513 0.0
H672 H 0.96376 0.90636 0.83931 0.0
H673 H 0.96672 0.88495 0.79174 0.0
H674 H 0.00862 0.8907 0.77076 0.0
H675 H 0.01596 0.92456 0.71605 0.0
H676 H 0.67302 0.00816 0.10471 0.0
H677 H 0.64389 0.02113 0.04154 0.0
H678 H 0.69261 0.06692 0.95706 0.0
H679 H 0.72213 0.05398 0.02101 0.0
H680 H 0.62778 0.06327 0.0275 0.0
H681 H 0.66659 0.03402 0.82144 0.0
H682 H 0.67526 0.02457 0.89232 0.0
H683 H 0.68371 0.05076 0.86438 0.0
C684 C 0.67754 0.02116 0.07322 0.0
C685 C 0.69983 0.03016 0.06811 0.0
C686 C 0.66088 0.02852 0.03706 0.0
C687 C 0.6661 0.04497 0.99474 0.0
C688 C 0.68832 0.05409 0.98924 0.0
H689 H 0.56045 0.0579 0.73721 0.0
H690 H 0.59295 0.07138 0.79 0.0
C691 C 0.70513 0.04667 0.02561 0.0
C692 C 0.64803 0.05173 0.95598 0.0
H693 H 0.62856 0.04372 0.82088 0.0
C694 C 0.62814 0.05956 0.98182 0.0
C695 C 0.64864 0.04708 0.8963 0.0
C696 C 0.6696 0.03857 0.86662 0.0
C697 C 0.60821 0.06116 0.95092 0.0
C698 C 0.6082 0.05456 0.89307 0.0
C699 C 0.62867 0.04872 0.86538 0.0
C700 C 0.58665 0.04947 0.86518 0.0
C701 C 0.58694 0.06865 0.98153 0.0
C702 C 0.57231 0.03293 0.8904 0.0
C703 C 0.5541 0.02509 0.86027 0.0
C704 C 0.54978 0.03373 0.80444 0.0
C705 C 0.56333 0.0511 0.78046 0.0
C706 C 0.58187 0.05876 0.8104 0.0
H707 H 0.59125 0.07957 0.01598 0.0
H708 H 0.57592 0.07675 0.9501 0.0
H709 H 0.57708 0.05487 0.00302 0.0
H710 H 0.57597 0.02527 0.93209 0.0
H711 H 0.54393 0.01168 0.87974 0.0
H712 H 0.55769 0.65412 0.11625 0.0
H713 H 0.54031 0.62758 0.0573 0.0
H714 H 0.48366 0.66737 0.02809 0.0
H715 H 0.50069 0.69396 0.08834 0.0
H716 H 0.49204 0.60869 0.08039 0.0
H717 H 0.51022 0.65002 0.86103 0.0
H718 H 0.52691 0.6559 0.92268 0.0
H719 H 0.4982 0.66437 0.92011 0.0
C720 C 0.54147 0.65722 0.09763 0.0
C721 C 0.53052 0.67612 0.1072 0.0
C722 C 0.53162 0.64208 0.06382 0.0
C723 C 0.51077 0.6456 0.03851 0.0
C724 C 0.49987 0.66451 0.04708 0.0
H725 H 0.46127 0.55761 0.78513 0.0
H726 H 0.45949 0.58679 0.85104 0.0
C727 C 0.50968 0.67968 0.0812 0.0
C728 C 0.50056 0.62913 0.00379 0.0
H729 H 0.49586 0.615 0.86339 0.0
C730 C 0.49246 0.61015 0.03296 0.0
C731 C 0.50092 0.63126 0.94211 0.0
C732 C 0.50956 0.65142 0.90919 0.0
C733 C 0.48575 0.59279 0.00176 0.0
C734 C 0.48771 0.59439 0.93992 0.0
C735 C 0.4944 0.61382 0.91083 0.0
C736 C 0.48619 0.57552 0.90501 0.0
C737 C 0.47729 0.5727 0.03531 0.0
C738 C 0.50162 0.55949 0.91396 0.0
C739 C 0.50272 0.54297 0.87657 0.0
C740 C 0.48848 0.54217 0.82916 0.0
C741 C 0.47236 0.55776 0.8215 0.0
C742 C 0.47136 0.57444 0.85895 0.0
H743 H 0.4691 0.57606 0.07837 0.0
H744 H 0.46485 0.56367 0.01041 0.0
H745 H 0.49198 0.56268 0.0437 0.0
H746 H 0.51359 0.56025 0.94835 0.0
H747 H 0.51532 0.5312 0.88369 0.0
H748 H 0.85835 0.43831 0.17465 0.0
H749 H 0.8905 0.43235 0.10752 0.0
H750 H 0.85154 0.38269 0.032 0.0
H751 H 0.81878 0.38898 0.09896 0.0
H752 H 0.91696 0.39949 0.08182 0.0
H753 H 0.86569 0.42317 0.89211 0.0
H754 H 0.85533 0.42594 0.9665 0.0
H755 H 0.85551 0.40034 0.93683 0.0
C756 C 0.85673 0.42578 0.14472 0.0
C757 C 0.83603 0.41414 0.14192 0.0
C758 C 0.87515 0.4224 0.10626 0.0
C759 C 0.87333 0.40728 0.06417 0.0
C760 C 0.85314 0.39473 0.06335 0.0
H761 H 0.97312 0.42874 0.76577 0.0
H762 H 0.94819 0.40593 0.83378 0.0
C763 C 0.83451 0.39829 0.10162 0.0
C764 C 0.892 0.40655 0.01846 0.0
H765 H 0.90507 0.42258 0.8758 0.0
C766 C 0.91432 0.40399 0.03639 0.0
C767 C 0.88854 0.4123 0.95905 0.0
C768 C 0.86504 0.41574 0.93721 0.0
C769 C 0.9333 0.40885 0.99778 0.0
C770 C 0.9298 0.41634 0.93997 0.0
C771 C 0.90758 0.41682 0.92037 0.0
C772 C 0.94816 0.42769 0.90313 0.0
C773 C 0.95694 0.40724 0.02 0.0
C774 C 0.95649 0.4473 0.92007 0.0
C775 C 0.97026 0.46044 0.88121 0.0
C776 C 0.97614 0.4541 0.82489 0.0
C777 C 0.96893 0.43393 0.80912 0.0
C778 C 0.95474 0.4209 0.8478 0.0
H779 H 0.95717 0.39552 0.05772 0.0
H780 H 0.96926 0.40277 0.98491 0.0
H781 H 0.9627 0.42281 0.0349 0.0
H782 H 0.95123 0.45298 0.96219 0.0
H783 H 0.97564 0.47588 0.89452 0.0
H784 H 0.07266 0.21974 0.10616 0.0
H785 H 0.07504 0.19422 0.03014 0.0
H786 H 0.14182 0.17786 0.08364 0.0
H787 H 0.1391 0.20303 0.16091 0.0
H788 H 0.10388 0.18129 0.93701 0.0
H789 H 0.10103 0.12556 0.13371 0.0
H790 H 0.09703 0.15337 0.13888 0.0
H791 H 0.12515 0.1439 0.12545 0.0
C792 C 0.08831 0.21148 0.09956 0.0
C793 C 0.10575 0.21332 0.13883 0.0
C794 C 0.08963 0.19681 0.05641 0.0
C795 C 0.10838 0.18381 0.05225 0.0
C796 C 0.12706 0.18752 0.08681 0.0
H797 H 0.09518 0.07641 0.82331 0.0
H798 H 0.11288 0.10652 0.86936 0.0
C799 C 0.12564 0.20206 0.13036 0.0
C800 C 0.10629 0.16428 0.02006 0.0
H801 H 0.09714 0.11101 0.04323 0.0
C802 C 0.10283 0.16586 0.95985 0.0
C803 C 0.10455 0.1442 0.0504 0.0
C804 C 0.10694 0.14153 0.11571 0.0
C805 C 0.09689 0.14796 0.92953 0.0
C806 C 0.09464 0.128 0.96027 0.0
C807 C 0.09903 0.12633 0.01985 0.0
C808 C 0.08501 0.10913 0.93361 0.0
C809 C 0.09177 0.15067 0.86576 0.0
C810 C 0.06391 0.10021 0.95583 0.0
C811 C 0.05393 0.08297 0.93019 0.0
C812 C 0.06487 0.07424 0.88178 0.0
C813 C 0.0864 0.08273 0.86076 0.0
C814 C 0.0964 0.10007 0.88652 0.0
H815 H 0.0909 0.16754 0.85086 0.0
H816 H 0.10539 0.14359 0.83886 0.0
H817 H 0.07532 0.1424 0.8576 0.0
H818 H 0.05492 0.10687 0.99246 0.0
H819 H 0.0375 0.07661 0.94791 0.0
H820 H 0.27673 0.98229 0.09764 0.0
H821 H 0.30227 0.98834 0.0094 0.0
H822 H 0.34659 0.02842 0.10407 0.0
H823 H 0.32068 0.02322 0.19048 0.0
H824 H 0.34832 0.04214 0.99463 0.0
H825 H 0.3588 0.95555 0.00258 0.0
H826 H 0.33041 0.96328 0.98891 0.0
H827 H 0.34232 0.96814 0.05806 0.0
C828 C 0.29141 0.99309 0.09857 0.0
C829 C 0.29678 0.00223 0.15089 0.0
C830 C 0.30628 0.99623 0.04854 0.0
C831 C 0.32691 0.00821 0.05052 0.0
C832 C 0.33101 0.01892 0.10121 0.0
H833 H 0.45756 0.98639 0.88449 0.0
H834 H 0.42278 0.98845 0.94653 0.0
C835 C 0.3161 0.01602 0.15066 0.0
C836 C 0.34534 0.00824 0.00297 0.0
H837 H 0.38124 0.97588 0.93153 0.0
C838 C 0.35541 0.02763 0.98048 0.0
C839 C 0.35498 0.98933 0.98512 0.0
C840 C 0.34626 0.9679 0.01022 0.0
C841 C 0.37503 0.02868 0.94225 0.0
C842 C 0.38452 0.00977 0.92408 0.0
C843 C 0.37403 0.9904 0.94517 0.0
C844 C 0.40605 0.00949 0.88629 0.0
C845 C 0.386 0.05007 0.92429 0.0
C846 C 0.40853 0.02068 0.8315 0.0
C847 C 0.42873 0.01988 0.79635 0.0
C848 C 0.44667 0.00743 0.81454 0.0
C849 C 0.4441 0.99613 0.8691 0.0
C850 C 0.42413 0.99725 0.9046 0.0
H851 H 0.38069 0.0622 0.95477 0.0
H852 H 0.4049 0.04961 0.92271 0.0
H853 H 0.38064 0.05512 0.88012 0.0
H854 H 0.39471 0.02976 0.8153 0.0
H855 H 0.43003 0.02853 0.75421 0.0
H856 H 0.41276 0.30834 0.11902 0.0
H857 H 0.4066 0.33146 0.03222 0.0
H858 H 0.47837 0.33047 0.98208 0.0
H859 H 0.4843 0.30727 0.06786 0.0
H860 H 0.42598 0.37007 0.02341 0.0
H861 H 0.45206 0.33078 0.824 0.0
H862 H 0.44508 0.31619 0.89285 0.0
H863 H 0.47337 0.3278 0.87679 0.0
C864 C 0.42689 0.31226 0.08764 0.0
C865 C 0.44891 0.30586 0.09917 0.0
C866 C 0.42343 0.32555 0.0384 0.0
C867 C 0.44197 0.33255 1.00013 0.0
C868 C 0.46367 0.32487 0.00979 0.0
H869 H 0.50376 0.43804 0.83639 0.0
H870 H 0.48839 0.40547 0.88685 0.0
C871 C 0.4671 0.31164 0.05888 0.0
C872 C 0.43987 0.35064 0.95718 0.0
H873 H 0.45941 0.36927 0.82059 0.0
C874 C 0.43251 0.36972 0.97839 0.0
C875 C 0.44835 0.35026 0.89838 0.0
C876 C 0.45491 0.33005 0.87162 0.0
C877 C 0.4354 0.3887 0.94411 0.0
C878 C 0.44586 0.38854 0.88741 0.0
C879 C 0.45152 0.3693 0.8644 0.0
C880 C 0.45445 0.40833 0.85569 0.0
C881 C 0.42894 0.40908 0.97009 0.0
C882 C 0.44028 0.42077 0.82181 0.0
C883 C 0.44903 0.43955 0.79264 0.0
C884 C 0.47203 0.44609 0.79726 0.0
C885 C 0.48598 0.43355 0.83184 0.0
C886 C 0.47728 0.41486 0.86058 0.0
H887 H 0.41967 0.40642 0.01347 0.0
H888 H 0.4446 0.41903 0.97523 0.0
H889 H 0.41802 0.41798 0.94009 0.0
H890 H 0.42256 0.41592 0.81784 0.0
H891 H 0.43787 0.44883 0.76625 0.0
H892 H 0.18028 0.58661 0.06854 0.0
H893 H 0.16059 0.57094 0.9893 0.0
H894 H 0.19289 0.51215 0.02556 0.0
H895 H 0.21191 0.52751 0.10707 0.0
H896 H 0.17266 0.55204 0.88912 0.0
H897 H 0.12591 0.49451 0.04863 0.0
H898 H 0.14319 0.51628 0.07169 0.0
H899 H 0.15646 0.49341 0.045 0.0
C900 C 0.18333 0.57038 0.05944 0.0
C901 C 0.19731 0.55819 0.09481 0.0
C902 C 0.17218 0.56147 0.01386 0.0
C903 C 0.17483 0.54021 0.00239 0.0
C904 C 0.19017 0.52843 0.03457 0.0
H905 H 0.08095 0.477 0.76849 0.0
H906 H 0.11581 0.48319 0.82156 0.0
C907 C 0.20126 0.53732 0.08065 0.0
C908 C 0.16004 0.53035 0.9599 0.0
H909 H 0.11434 0.49578 0.95232 0.0
C910 C 0.1602 0.53946 0.90264 0.0
C911 C 0.1437 0.51394 0.97761 0.0
C912 C 0.14208 0.50402 0.03913 0.0
C913 C 0.14379 0.53335 0.86369 0.0
C914 C 0.12686 0.51775 0.88246 0.0
C915 C 0.1275 0.50768 0.93823 0.0
C916 C 0.10653 0.51396 0.84837 0.0
C917 C 0.14398 0.54424 0.80354 0.0
C918 C 0.08983 0.52911 0.84671 0.0
C919 C 0.06993 0.52554 0.8174 0.0
C920 C 0.06636 0.50677 0.78874 0.0
C921 C 0.08324 0.49162 0.79006 0.0
C922 C 0.10312 0.49512 0.8202 0.0
H923 H 0.16073 0.55237 0.79101 0.0
H924 H 0.13997 0.53275 0.77031 0.0
H925 H 0.13068 0.55619 0.80304 0.0
H926 H 0.0921 0.54363 0.8688 0.0
H927 H 0.05735 0.53757 0.81711 0.0
H928 H 0.87765 0.78745 0.25752 0.0
H929 H 0.87293 0.81206 0.33588 0.0
H930 H 0.94411 0.80738 0.37109 0.0
H931 H 0.94866 0.78262 0.29382 0.0
H932 H 0.91598 0.81497 0.47174 0.0
H933 H 0.90207 0.87005 0.28019 0.0
H934 H 0.88203 0.84803 0.29347 0.0
H935 H 0.91118 0.84358 0.27163 0.0
C936 C 0.8919 0.79084 0.2843 0.0
C937 C 0.91347 0.78316 0.27026 0.0
C938 C 0.88928 0.80506 0.32847 0.0
C939 C 0.90831 0.81189 0.35828 0.0
C940 C 0.92922 0.80234 0.34858 0.0
H941 H 0.97083 0.92328 0.45141 0.0
H942 H 0.95403 0.89214 0.40942 0.0
C943 C 0.93181 0.78812 0.3047 0.0
C944 C 0.90792 0.83132 0.3912 0.0
H945 H 0.9087 0.88493 0.36887 0.0
C946 C 0.91383 0.83027 0.44984 0.0
C947 C 0.90545 0.85127 0.362 0.0
C948 C 0.89999 0.85347 0.29828 0.0
C949 C 0.91841 0.84868 0.47925 0.0
C950 C 0.91683 0.86857 0.44921 0.0
C951 C 0.90974 0.86962 0.39168 0.0
C952 C 0.92562 0.88823 0.47342 0.0
C953 C 0.92639 0.84678 0.54082 0.0
C954 C 0.91485 0.89663 0.52247 0.0
C955 C 0.92443 0.91452 0.54653 0.0
C956 C 0.94495 0.92414 0.52196 0.0
C957 C 0.95516 0.91607 0.47161 0.0
C958 C 0.94555 0.89834 0.44751 0.0
H959 H 0.92904 0.83016 0.55564 0.0
H960 H 0.94263 0.85611 0.54383 0.0
H961 H 0.91347 0.85326 0.57118 0.0
H962 H 0.89931 0.88917 0.54263 0.0
H963 H 0.91628 0.92033 0.58557 0.0
H964 H 0.71822 0.0337 0.29204 0.0
H965 H 0.6912 0.0262 0.37602 0.0
H966 H 0.68509 0.96115 0.33237 0.0
H967 H 0.71218 0.96875 0.24807 0.0
H968 H 0.64396 0.98069 0.33581 0.0
H969 H 0.68852 0.99553 0.53778 0.0
H970 H 0.69328 0.01645 0.48217 0.0
H971 H 0.7036 0.99072 0.46943 0.0
C972 C 0.71203 0.01758 0.30229 0.0
C973 C 0.71769 0.0017 0.2644 0.0
C974 C 0.69646 0.0133 0.35016 0.0
C975 C 0.68613 0.99306 0.36096 0.0
C976 C 0.69294 0.97684 0.3253 0.0
H977 H 0.57765 0.9653 0.63885 0.0
H978 H 0.61248 0.96316 0.57583 0.0
C979 C 0.70865 0.98111 0.27757 0.0
C980 C 0.66601 0.98974 0.40334 0.0
H981 H 0.64754 0.9964 0.54489 0.0
C982 C 0.64485 0.98382 0.38172 0.0
C983 C 0.66706 0.99374 0.46335 0.0
C984 C 0.68938 -0.00073 0.48978 0.0
C985 C 0.62468 0.98264 0.41771 0.0
C986 C 0.62556 0.98768 0.47695 0.0
C987 C 0.64682 0.99272 0.49934 0.0
C988 C 0.60442 0.98877 0.5153 0.0
C989 C 0.6025 0.97624 0.39181 0.0
C990 C 0.58837 0.00395 0.50251 0.0
C991 C 0.56854 0.00527 0.53842 0.0
C992 C 0.56423 0.9914 0.58809 0.0
C993 C 0.58033 0.97614 0.60082 0.0
C994 C 0.6003 0.97495 0.56497 0.0
H995 H 0.6054 0.96775 0.35114 0.0
H996 H 0.59162 0.966 0.42359 0.0
H997 H 0.59304 0.99058 0.38069 0.0
H998 H 0.5913 0.01497 0.46489 0.0
H999 H 0.55662 0.01727 0.5273 0.0
H1000 H 0.59857 0.67922 0.25294 0.0
H1001 H 0.60473 0.65395 0.33482 0.0
H1002 H 0.54254 0.67235 0.42266 0.0
H1003 H 0.53683 0.69807 0.34172 0.0
H1004 H 0.57574 0.65841 0.50108 0.0
H1005 H 0.56062 0.60289 0.32568 0.0
H1006 H 0.58523 0.62053 0.31362 0.0
H1007 H 0.55713 0.63084 0.31486 0.0
C1008 C 0.58693 0.6786 0.29124 0.0
C1009 C 0.5673 0.69054 0.29152 0.0
C1010 C 0.59031 0.66404 0.33765 0.0
C1011 C 0.57379 0.66092 0.38405 0.0
C1012 C 0.55548 0.67448 0.38723 0.0
H1013 H 0.50597 0.55709 0.55862 0.0
H1014 H 0.52172 0.58805 0.50134 0.0
C1015 C 0.55226 0.68924 0.34117 0.0
C1016 C 0.57303 0.64142 0.42283 0.0
H1017 H 0.56154 0.58837 0.42114 0.0
C1018 C 0.57309 0.64302 0.48372 0.0
C1019 C 0.56923 0.62138 0.39991 0.0
C1020 C 0.56785 0.61869 0.33505 0.0
C1021 C 0.56866 0.62518 0.52232 0.0
C1022 C 0.5642 0.60535 0.49923 0.0
C1023 C 0.56516 0.60362 0.43849 0.0
C1024 C 0.5552 0.58683 0.53642 0.0
C1025 C 0.56744 0.62778 0.58739 0.0
C1026 C 0.5689 0.57578 0.57508 0.0
C1027 C 0.55991 0.55786 0.60814 0.0
C1028 C 0.53711 0.55082 0.60284 0.0
C1029 C 0.52358 0.56202 0.56393 0.0
C1030 C 0.53254 0.57977 0.5311 0.0
H1031 H 0.56962 0.64454 0.59818 0.0
H1032 H 0.55077 0.62132 0.60696 0.0
H1033 H 0.58103 0.61872 0.6079 0.0
H1034 H 0.58653 0.58087 0.57922 0.0
H1035 H 0.57076 0.54958 0.63775 0.0
H1036 H 0.79576 0.47468 0.30187 0.0
H1037 H 0.81551 0.49048 0.38158 0.0
H1038 H 0.83772 0.4292 0.43888 0.0
H1039 H 0.8176 0.41331 0.36036 0.0
H1040 H 0.83019 0.4567 0.53183 0.0
H1041 H 0.88517 0.49346 0.34559 0.0
H1042 H 0.85554 0.49966 0.34742 0.0
H1043 H 0.86363 0.47318 0.3356 0.0
C1044 C 0.80398 0.46447 0.33309 0.0
C1045 C 0.80545 0.44282 0.32457 0.0
C1046 C 0.81545 0.47355 0.37823 0.0
C1047 C 0.82855 0.46107 0.4151 0.0
C1048 C 0.82784 0.43913 0.41066 0.0
H1049 H 0.95794 0.47024 0.5518 0.0
H1050 H 0.92274 0.46454 0.50164 0.0
C1051 C 0.81637 0.43007 0.36576 0.0
C1052 C 0.84586 0.47076 0.45143 0.0
H1053 H 0.89807 0.49667 0.43955 0.0
C1054 C 0.84483 0.46582 0.512 0.0
C1055 C 0.86511 0.48237 0.42508 0.0
C1056 C 0.86766 0.48741 0.35985 0.0
C1057 C 0.86293 0.47159 0.54661 0.0
C1058 C 0.8824 0.48262 0.51982 0.0
C1059 C 0.88302 0.48829 0.4598 0.0
C1060 C 0.90341 0.48634 0.55155 0.0
C1061 C 0.86172 0.46486 0.61085 0.0
C1062 C 0.90424 0.50067 0.59594 0.0
C1063 C 0.92445 0.50404 0.62473 0.0
C1064 C 0.9441 0.49312 0.60951 0.0
C1065 C 0.94315 0.4789 0.56471 0.0
C1066 C 0.92304 0.47561 0.53596 0.0
H1067 H 0.84654 0.45433 0.6235 0.0
H1068 H 0.87733 0.45655 0.62232 0.0
H1069 H 0.86086 0.47903 0.63701 0.0
H1070 H 0.88932 0.50929 0.60804 0.0
H1071 H 0.92463 0.51511 0.65903 0.0
loop_
_geom_bond_atom_site_label_1
_geom_bond_atom_site_label_2
_geom_bond_distance
_geom_bond_site_symmetry_2
_ccdc_geom_bond_type
H0 C3 0.931 . S
H1 C6 0.928 . S
H2 C8 0.930 . S
C3 H0 0.931 . S
C3 C4 1.413 . S
C3 C5 1.360 . S
C4 C3 1.413 . S
C4 C8 1.429 . S
C5 C3 1.360 . S
C5 C6 1.372 . S
C6 H1 0.928 . S
C6 C5 1.372 . S
C6 C7 1.404 . S
C7 C6 1.404 . S
C7 C8 1.391 . S
C8 H2 0.930 . S
C8 C4 1.429 . S
C8 C7 1.391 . S
H9 C12 0.931 . S
H10 C15 0.928 . S
H11 C17 0.930 . S
C12 H9 0.931 . S
C12 C13 1.413 . S
C12 C14 1.360 1_554 S
C13 C12 1.413 . S
C13 C17 1.429 . S
C14 C12 1.360 1_556 S
C14 C15 1.372 . S
C15 H10 0.928 . S
C15 C14 1.372 . S
C15 C16 1.404 . S
C16 C15 1.404 . S
C16 C17 1.391 1_556 S
C17 H11 0.930 . S
C17 C13 1.429 . S
C17 C16 1.391 1_554 S
H18 C21 0.931 . S
H19 C24 0.928 1_556 S
H20 C26 0.929 . S
C21 H18 0.931 . S
C21 C22 1.413 . S
C21 C23 1.360 . S
C22 C21 1.413 . S
C22 C26 1.429 1_565 S
C23 C21 1.360 . S
C23 C24 1.373 . S
C24 H19 0.928 1_554 S
C24 C23 1.373 . S
C24 C25 1.405 . S
C25 C24 1.405 . S
C25 C26 1.390 1_565 S
C26 H20 0.929 . S
C26 C22 1.429 1_545 S
C26 C25 1.390 1_545 S
H27 C30 0.931 . S
H28 C33 0.928 . S
H29 C35 0.930 1_556 S
C30 H27 0.931 . S
C30 C31 1.413 . S
C30 C32 1.360 . S
C31 C30 1.413 . S
C31 C35 1.429 . S
C32 C30 1.360 . S
C32 C33 1.372 . S
C33 H28 0.928 . S
C33 C32 1.372 . S
C33 C34 1.404 . S
C34 C33 1.404 . S
C34 C35 1.391 . S
C35 H29 0.930 1_554 S
C35 C31 1.429 . S
C35 C34 1.391 . S
H36 C39 0.931 . S
H37 C42 0.928 . S
H38 C44 0.930 . S
C39 H36 0.931 . S
C39 C40 1.413 . S
C39 C41 1.360 . S
C40 C39 1.413 . S
C40 C44 1.429 . S
C41 C39 1.360 . S
C41 C42 1.372 . S
C42 H37 0.928 . S
C42 C41 1.372 . S
C42 C43 1.404 . S
C43 C42 1.404 . S
C43 C44 1.391 . S
C44 H38 0.930 . S
C44 C40 1.429 . S
C44 C43 1.391 . S
H45 C48 0.931 . S
H46 C51 0.928 . S
H47 C53 0.930 . S
C48 H45 0.931 . S
C48 C49 1.413 . S
C48 C50 1.360 . S
C49 C48 1.413 . S
C49 C53 1.429 . S
C50 C48 1.360 . S
C50 C51 1.372 . S
C51 H46 0.928 . S
C51 C50 1.372 . S
C51 C52 1.404 . S
C52 C51 1.404 . S
C52 C53 1.391 . S
C53 H47 0.930 . S
C53 C49 1.429 . S
C53 C52 1.391 . S
H54 C57 0.930 . S
H55 C60 0.931 . S
H56 C62 0.930 . S
C57 H54 0.930 . S
C57 C58 1.413 . S
C57 C59 1.360 . S
C58 C57 1.413 . S
C58 C62 1.429 1_565 S
C59 C57 1.360 . S
C59 C60 1.373 . S
C60 H55 0.931 . S
C60 C59 1.373 . S
C60 C61 1.403 . S
C61 C60 1.403 . S
C61 C62 1.391 1_565 S
C62 H56 0.930 . S
C62 C58 1.429 1_545 S
C62 C61 1.391 1_545 S
H63 C66 0.931 . S
H64 C69 0.928 . S
H65 C71 0.930 . S
C66 H63 0.931 . S
C66 C67 1.413 . S
C66 C68 1.360 . S
C67 C66 1.413 . S
C67 C71 1.429 . S
C68 C66 1.360 . S
C68 C69 1.372 . S
C69 H64 0.928 . S
C69 C68 1.372 . S
C69 C70 1.404 . S
C70 C69 1.404 . S
C70 C71 1.391 . S
C71 H65 0.930 . S
C71 C67 1.429 . S
C71 C70 1.391 . S
C72 O88 1.251 . S
C72 O90 1.254 1_655 S
N73 C74 1.333 . S
N73 C78 1.307 . S
N73 Zn79 2.020 . S
C74 N73 1.333 . S
C74 C75 1.379 . S
C74 H92 0.952 . S
C75 C74 1.379 . S
C75 C76 1.390 . S
C75 H102 0.949 . S
C76 C75 1.390 . S
C76 C77 1.357 . S
C77 C76 1.357 . S
C77 C78 1.370 . S
C77 H103 0.950 . S
C78 N73 1.307 . S
C78 C77 1.370 . S
C78 H96 0.964 . S
Zn79 N73 2.020 . S
Zn79 O88 2.039 . S
Zn79 O94 2.034 1_655 S
Zn79 O98 2.025 1_665 S
Zn79 O100 2.039 . S
C80 O99 1.246 . S
C80 O100 1.229 1_545 S
N81 C82 1.307 . S
N81 C83 1.333 . S
N81 Zn87 2.020 . S
C82 N81 1.307 . S
C82 C86 1.370 . S
C82 H93 0.976 . S
C83 N81 1.333 . S
C83 C84 1.379 . S
C83 H91 0.952 . S
C84 C83 1.379 . S
C84 C85 1.390 . S
C84 H104 0.949 . S
C85 C84 1.390 . S
C85 C86 1.357 . S
C86 C82 1.370 . S
C86 C85 1.357 . S
C86 H105 0.950 . S
Zn87 N81 2.020 . S
Zn87 O90 2.025 1_545 S
Zn87 O95 2.043 . S
Zn87 O97 2.039 . S
Zn87 O99 2.034 1_455 S
O88 C72 1.251 . S
O88 Zn79 2.039 . S
C89 O94 1.246 . S
C89 O95 1.224 1_565 S
O90 C72 1.254 1_455 S
O90 Zn87 2.025 1_565 S
H91 C83 0.952 . S
H92 C74 0.952 . S
H93 C82 0.976 . S
O94 Zn79 2.034 1_455 S
O94 C89 1.246 . S
O95 Zn87 2.043 . S
O95 C89 1.224 1_545 S
H96 C78 0.964 . S
O97 Zn87 2.039 . S
O97 C101 1.251 . S
O98 Zn79 2.025 1_445 S
O98 C101 1.255 . S
O99 C80 1.246 . S
O99 Zn87 2.034 1_655 S
O100 Zn79 2.039 . S
O100 C80 1.229 1_565 S
C101 O97 1.251 . S
C101 O98 1.255 . S
H102 C75 0.949 . S
H103 C77 0.950 . S
H104 C84 0.949 . S
H105 C86 0.950 . S
C106 O122 1.251 1_565 S
C106 O124 1.254 . S
N107 C108 1.333 . S
N107 C112 1.307 . S
N107 Zn113 2.020 . S
C108 N107 1.333 . S
C108 C109 1.379 . S
C108 H126 0.952 . S
C109 C108 1.379 . S
C109 C110 1.390 . S
C109 H136 0.949 . S
C110 C109 1.390 . S
C110 C111 1.357 . S
C111 C110 1.357 . S
C111 C112 1.370 . S
C111 H137 0.950 . S
C112 N107 1.307 . S
C112 C111 1.370 . S
C112 H130 0.948 . S
Zn113 N107 2.020 . S
Zn113 O122 2.039 . S
Zn113 O128 2.034 . S
Zn113 O132 2.025 . S
Zn113 O134 2.024 . S
C114 O133 1.246 1_545 S
C114 O134 1.249 . S
N115 C116 1.307 . S
N115 C117 1.333 . S
N115 Zn121 2.020 . S
C116 N115 1.307 . S
C116 C120 1.370 . S
C116 H127 0.948 . S
C117 N115 1.333 . S
C117 C118 1.379 . S
C117 H125 0.952 . S
C118 C117 1.379 . S
C118 C119 1.390 . S
C118 H138 0.949 . S
C119 C118 1.390 . S
C119 C120 1.357 . S
C120 C116 1.370 . S
C120 C119 1.357 . S
C120 H139 0.950 . S
Zn121 N115 2.020 . S
Zn121 O124 2.025 . S
Zn121 O129 2.024 . S
Zn121 O131 2.039 . S
Zn121 O133 2.034 . S
O122 C106 1.251 1_545 S
O122 Zn113 2.039 . S
C123 O128 1.246 1_565 S
C123 O129 1.249 . S
O124 C106 1.254 . S
O124 Zn121 2.025 . S
H125 C117 0.952 . S
H126 C108 0.952 . S
H127 C116 0.948 . S
O128 Zn113 2.034 . S
O128 C123 1.246 1_545 S
O129 Zn121 2.024 . S
O129 C123 1.249 . S
H130 C112 0.948 . S
O131 Zn121 2.039 . S
O131 C135 1.251 1_565 S
O132 Zn113 2.025 . S
O132 C135 1.254 . S
O133 C114 1.246 1_565 S
O133 Zn121 2.034 . S
O134 Zn113 2.024 . S
O134 C114 1.249 . S
C135 O131 1.251 1_545 S
C135 O132 1.254 . S
H136 C109 0.949 . S
H137 C111 0.950 . S
H138 C118 0.949 . S
H139 C120 0.950 . S
C140 O156 1.251 . S
C140 O158 1.254 . S
N141 C142 1.333 . S
N141 C146 1.307 . S
N141 Zn147 2.020 . S
C142 N141 1.333 . S
C142 C143 1.379 . S
C142 H160 0.952 . S
C143 C142 1.379 . S
C143 C144 1.390 . S
C143 H170 0.949 . S
C144 C143 1.390 . S
C144 C145 1.357 . S
C145 C144 1.357 . S
C145 C146 1.370 . S
C145 H171 0.950 . S
C146 N141 1.307 . S
C146 C145 1.370 . S
C146 H164 0.948 . S
Zn147 N141 2.020 . S
Zn147 O156 2.039 . S
Zn147 O162 2.034 . S
Zn147 O166 2.025 . S
Zn147 O168 2.024 . S
C148 O167 1.246 . S
C148 O168 1.249 . S
N149 C150 1.307 . S
N149 C151 1.333 . S
N149 Zn155 2.020 . S
C150 N149 1.307 . S
C150 C154 1.370 . S
C150 H161 0.948 . S
C151 N149 1.333 . S
C151 C152 1.379 . S
C151 H159 0.952 . S
C152 C151 1.379 . S
C152 C153 1.390 . S
C152 H172 0.949 . S
C153 C152 1.390 . S
C153 C154 1.357 . S
C154 C150 1.370 . S
C154 C153 1.357 . S
C154 H173 0.950 . S
Zn155 N149 2.020 . S
Zn155 O158 2.025 . S
Zn155 O163 2.024 . S
Zn155 O165 2.039 . S
Zn155 O167 2.034 . S
O156 C140 1.251 . S
O156 Zn147 2.039 . S
C157 O162 1.246 . S
C157 O163 1.249 . S
O158 C140 1.254 . S
O158 Zn155 2.025 . S
H159 C151 0.952 . S
H160 C142 0.952 . S
H161 C150 0.948 . S
O162 Zn147 2.034 . S
O162 C157 1.246 . S
O163 Zn155 2.024 . S
O163 C157 1.249 . S
H164 C146 0.948 . S
O165 Zn155 2.039 . S
O165 C169 1.251 . S
O166 Zn147 2.025 . S
O166 C169 1.254 . S
O167 C148 1.246 . S
O167 Zn155 2.034 . S
O168 Zn147 2.024 . S
O168 C148 1.249 . S
C169 O165 1.251 . S
C169 O166 1.254 . S
H170 C143 0.949 . S
H171 C145 0.950 . S
H172 C152 0.949 . S
H173 C154 0.950 . S
C174 O190 1.251 . S
C174 O192 1.254 . S
N175 C176 1.333 . S
N175 C180 1.307 . S
N175 Zn181 2.020 . S
C176 N175 1.333 . S
C176 C177 1.379 . S
C176 H194 0.952 . S
C177 C176 1.379 . S
C177 C178 1.390 . S
C177 H204 0.949 . S
C178 C177 1.390 . S
C178 C179 1.357 . S
C179 C178 1.357 . S
C179 C180 1.370 . S
C179 H205 0.950 . S
C180 N175 1.307 . S
C180 C179 1.370 . S
C180 H198 0.948 . S
Zn181 N175 2.020 . S
Zn181 O190 2.039 . S
Zn181 O196 2.034 1_455 S
Zn181 O200 2.025 1_455 S
Zn181 O202 2.024 . S
C182 O201 1.246 . S
C182 O202 1.249 . S
N183 C184 1.307 . S
N183 C185 1.333 . S
N183 Zn189 2.020 . S
C184 N183 1.307 . S
C184 C188 1.370 . S
C184 H195 0.948 . S
C185 N183 1.333 . S
C185 C186 1.379 . S
C185 H193 0.952 . S
C186 C185 1.379 . S
C186 C187 1.390 . S
C186 H206 0.949 . S
C187 C186 1.390 . S
C187 C188 1.357 . S
C188 C184 1.370 . S
C188 C187 1.357 . S
C188 H207 0.950 . S
Zn189 N183 2.020 . S
Zn189 O192 2.025 1_655 S
Zn189 O197 2.024 . S
Zn189 O199 2.039 . S
Zn189 O201 2.034 1_655 S
O190 C174 1.251 . S
O190 Zn181 2.039 . S
C191 O196 1.246 . S
C191 O197 1.249 . S
O192 C174 1.254 . S
O192 Zn189 2.025 1_455 S
H193 C185 0.952 . S
H194 C176 0.952 . S
H195 C184 0.948 . S
O196 Zn181 2.034 1_655 S
O196 C191 1.246 . S
O197 Zn189 2.024 . S
O197 C191 1.249 . S
H198 C180 0.948 . S
O199 Zn189 2.039 . S
O199 C203 1.251 . S
O200 Zn181 2.025 1_655 S
O200 C203 1.254 . S
O201 C182 1.246 . S
O201 Zn189 2.034 1_455 S
O202 Zn181 2.024 . S
O202 C182 1.249 . S
C203 O199 1.251 . S
C203 O200 1.254 . S
H204 C177 0.949 . S
H205 C179 0.950 . S
H206 C186 0.949 . S
H207 C188 0.950 . S
H208 C216 0.929 . S
H209 C218 0.930 . S
H210 C220 0.930 . S
H211 C223 0.929 . S
H212 C226 0.930 . S
H213 C228 0.960 . S
H214 C228 0.960 . S
H215 C228 0.960 . S
C216 H208 0.929 . S
C216 C217 1.362 1_545 S
C216 C218 1.384 . S
C217 C216 1.362 1_565 S
C217 C223 1.404 . S
C218 H209 0.930 . S
C218 C216 1.384 . S
C218 C219 1.372 1_545 S
C219 C218 1.372 1_565 S
C219 C220 1.400 . S
C219 C224 1.490 . S
C220 H210 0.930 . S
C220 C219 1.400 . S
C220 C223 1.386 . S
H221 C237 0.930 . S
H222 C238 0.931 . S
C223 H211 0.929 . S
C223 C217 1.404 . S
C223 C220 1.386 . S
C224 C219 1.490 . S
C224 C226 1.395 1_565 S
C224 C227 1.403 . S
H225 C231 0.930 . S
C226 H212 0.930 . S
C226 C224 1.395 1_545 S
C226 C229 1.403 . S
C227 C224 1.403 . S
C227 C228 1.524 . S
C227 C231 1.400 . S
C228 H213 0.960 . S
C228 H214 0.960 . S
C228 H215 0.960 . S
C228 C227 1.524 . S
C229 C226 1.403 . S
C229 C230 1.392 1_545 S
C229 C233 1.495 . S
C230 C229 1.392 1_565 S
C230 C231 1.385 . S
C230 C232 1.478 . S
C231 H225 0.930 . S
C231 C227 1.400 . S
C231 C230 1.385 . S
C232 C230 1.478 . S
C232 C234 1.381 1_565 S
C232 C238 1.383 . S
C233 C229 1.495 . S
C233 H239 0.959 . S
C233 H240 0.961 . S
C233 H241 0.960 . S
C234 C232 1.381 1_545 S
C234 C235 1.394 . S
C234 H242 0.930 . S
C235 C234 1.394 . S
C235 C236 1.383 1_545 S
C235 H243 0.929 . S
C236 C235 1.383 1_565 S
C236 C237 1.377 . S
C237 H221 0.930 . S
C237 C236 1.377 . S
C237 C238 1.379 . S
C238 H222 0.931 . S
C238 C232 1.383 . S
C238 C237 1.379 . S
H239 C233 0.959 . S
H240 C233 0.961 . S
H241 C233 0.960 . S
H242 C234 0.930 . S
H243 C235 0.929 . S
H244 C252 0.929 . S
H245 C254 0.930 . S
H246 C256 0.930 . S
H247 C259 0.929 . S
H248 C262 0.930 . S
H249 C264 0.960 . S
H250 C264 0.960 . S
H251 C264 0.960 . S
C252 H244 0.929 . S
C252 C253 1.377 . S
C252 C254 1.384 . S
C253 C252 1.377 . S
C253 C259 1.390 . S
C254 H245 0.930 . S
C254 C252 1.384 . S
C254 C255 1.372 . S
C255 C254 1.372 . S
C255 C256 1.400 . S
C255 C260 1.490 . S
C256 H246 0.930 . S
C256 C255 1.400 . S
C256 C259 1.386 . S
H257 C273 0.930 . S
H258 C274 0.931 . S
C259 H247 0.929 . S
C259 C253 1.390 . S
C259 C256 1.386 . S
C260 C255 1.490 . S
C260 C262 1.395 . S
C260 C263 1.403 . S
H261 C267 0.930 . S
C262 H248 0.930 . S
C262 C260 1.395 . S
C262 C265 1.403 . S
C263 C260 1.403 . S
C263 C264 1.524 . S
C263 C267 1.400 . S
C264 H249 0.960 . S
C264 H250 0.960 . S
C264 H251 0.960 . S
C264 C263 1.524 . S
C265 C262 1.403 . S
C265 C266 1.392 . S
C265 C269 1.495 . S
C266 C265 1.392 . S
C266 C267 1.385 . S
C266 C268 1.478 . S
C267 H261 0.930 . S
C267 C263 1.400 . S
C267 C266 1.385 . S
C268 C266 1.478 . S
C268 C270 1.381 . S
C268 C274 1.383 . S
C269 C265 1.495 . S
C269 H275 0.959 . S
C269 H276 0.961 . S
C269 H277 0.960 . S
C270 C268 1.381 . S
C270 C271 1.394 . S
C270 H278 0.930 . S
C271 C270 1.394 . S
C271 C272 1.383 . S
C271 H279 0.929 . S
C272 C271 1.383 . S
C272 C273 1.377 . S
C273 H257 0.930 . S
C273 C272 1.377 . S
C273 C274 1.379 . S
C274 H258 0.931 . S
C274 C268 1.383 . S
C274 C273 1.379 . S
H275 C269 0.959 . S
H276 C269 0.961 . S
H277 C269 0.960 . S
H278 C270 0.930 . S
H279 C271 0.929 . S
H280 C288 0.929 . S
H281 C290 0.930 . S
H282 C292 0.930 . S
H283 C295 0.929 . S
H284 C298 0.930 . S
H285 C300 0.960 . S
H286 C300 0.960 . S
H287 C300 0.960 . S
C288 H280 0.929 . S
C288 C289 1.377 . S
C288 C290 1.384 . S
C289 C288 1.377 . S
C289 C295 1.390 . S
C290 H281 0.930 . S
C290 C288 1.384 . S
C290 C291 1.372 . S
C291 C290 1.372 . S
C291 C292 1.400 . S
C291 C296 1.490 . S
C292 H282 0.930 . S
C292 C291 1.400 . S
C292 C295 1.386 . S
H293 C309 0.930 . S
H294 C310 0.931 . S
C295 H283 0.929 . S
C295 C289 1.390 . S
C295 C292 1.386 . S
C296 C291 1.490 . S
C296 C298 1.395 . S
C296 C299 1.403 . S
H297 C303 0.930 . S
C298 H284 0.930 . S
C298 C296 1.395 . S
C298 C301 1.403 . S
C299 C296 1.403 . S
C299 C300 1.524 . S
C299 C303 1.400 . S
C300 H285 0.960 . S
C300 H286 0.960 . S
C300 H287 0.960 . S
C300 C299 1.524 . S
C301 C298 1.403 . S
C301 C302 1.392 . S
C301 C305 1.495 . S
C302 C301 1.392 . S
C302 C303 1.385 . S
C302 C304 1.478 . S
C303 H297 0.930 . S
C303 C299 1.400 . S
C303 C302 1.385 . S
C304 C302 1.478 . S
C304 C306 1.381 . S
C304 C310 1.383 . S
C305 C301 1.495 . S
C305 H311 0.959 . S
C305 H312 0.961 . S
C305 H313 0.960 . S
C306 C304 1.381 . S
C306 C307 1.394 . S
C306 H314 0.930 . S
C307 C306 1.394 . S
C307 C308 1.383 . S
C307 H315 0.929 . S
C308 C307 1.383 . S
C308 C309 1.377 . S
C309 H293 0.930 . S
C309 C308 1.377 . S
C309 C310 1.379 . S
C310 H294 0.931 . S
C310 C304 1.383 . S
C310 C309 1.379 . S
H311 C305 0.959 . S
H312 C305 0.961 . S
H313 C305 0.960 . S
H314 C306 0.930 . S
H315 C307 0.929 . S
H316 C324 0.929 . S
H317 C326 0.930 . S
H318 C328 0.930 . S
H319 C331 0.929 . S
H320 C334 0.930 . S
H321 C336 0.960 . S
H322 C336 0.960 . S
H323 C336 0.960 . S
C324 H316 0.929 . S
C324 C325 1.377 . S
C324 C326 1.384 . S
C325 C324 1.377 . S
C325 C331 1.390 . S
C326 H317 0.930 . S
C326 C324 1.384 . S
C326 C327 1.372 . S
C327 C326 1.372 . S
C327 C328 1.400 . S
C327 C332 1.490 . S
C328 H318 0.930 . S
C328 C327 1.400 . S
C328 C331 1.386 . S
H329 C345 0.930 . S
H330 C346 0.931 . S
C331 H319 0.929 . S
C331 C325 1.390 . S
C331 C328 1.386 . S
C332 C327 1.490 . S
C332 C334 1.395 . S
C332 C335 1.403 . S
H333 C339 0.930 . S
C334 H320 0.930 . S
C334 C332 1.395 . S
C334 C337 1.403 . S
C335 C332 1.403 . S
C335 C336 1.524 . S
C335 C339 1.400 . S
C336 H321 0.960 . S
C336 H322 0.960 . S
C336 H323 0.960 . S
C336 C335 1.524 . S
C337 C334 1.403 . S
C337 C338 1.392 . S
C337 C341 1.495 . S
C338 C337 1.392 . S
C338 C339 1.385 . S
C338 C340 1.478 . S
C339 H333 0.930 . S
C339 C335 1.400 . S
C339 C338 1.385 . S
C340 C338 1.478 . S
C340 C342 1.381 . S
C340 C346 1.383 . S
C341 C337 1.495 . S
C341 H347 0.959 . S
C341 H348 0.961 . S
C341 H349 0.960 . S
C342 C340 1.381 . S
C342 C343 1.394 . S
C342 H350 0.930 . S
C343 C342 1.394 . S
C343 C344 1.383 . S
C343 H351 0.929 . S
C344 C343 1.383 . S
C344 C345 1.377 . S
C345 H329 0.930 . S
C345 C344 1.377 . S
C345 C346 1.379 . S
C346 H330 0.931 . S
C346 C340 1.383 . S
C346 C345 1.379 . S
H347 C341 0.959 . S
H348 C341 0.961 . S
H349 C341 0.960 . S
H350 C342 0.930 . S
H351 C343 0.929 . S
H352 C360 0.929 . S
H353 C362 0.930 . S
H354 C364 0.930 . S
H355 C367 0.929 . S
H356 C370 0.930 1_554 S
H357 C372 0.960 . S
H358 C372 0.960 1_545 S
H359 C372 0.960 . S
C360 H352 0.929 . S
C360 C361 1.425 . S
C360 C362 1.384 1_554 S
C361 C360 1.425 . S
C361 C367 1.343 1_545 S
C362 H353 0.930 . S
C362 C360 1.384 1_556 S
C362 C363 1.372 . S
C363 C362 1.372 . S
C363 C364 1.400 1_545 S
C363 C368 1.490 . S
C364 H354 0.930 . S
C364 C363 1.400 1_565 S
C364 C367 1.386 1_556 S
H365 C381 0.930 . S
H366 C382 0.931 . S
C367 H355 0.929 . S
C367 C361 1.343 1_565 S
C367 C364 1.386 1_554 S
C368 C363 1.490 . S
C368 C370 1.395 . S
C368 C371 1.403 1_545 S
H369 C375 0.931 . S
C370 H356 0.930 1_556 S
C370 C368 1.395 . S
C370 C373 1.403 . S
C371 C368 1.403 1_565 S
C371 C372 1.524 . S
C371 C375 1.400 . S
C372 H357 0.960 . S
C372 H358 0.960 1_565 S
C372 H359 0.960 . S
C372 C371 1.524 . S
C373 C370 1.403 . S
C373 C374 1.392 . S
C373 C377 1.495 . S
C374 C373 1.392 . S
C374 C375 1.385 1_545 S
C374 C376 1.478 . S
C375 H369 0.931 . S
C375 C371 1.400 . S
C375 C374 1.385 1_565 S
C376 C374 1.478 . S
C376 C378 1.381 . S
C376 C382 1.383 1_545 S
C377 C373 1.495 . S
C377 H383 0.959 1_556 S
C377 H384 0.961 . S
C377 H385 0.960 . S
C378 C376 1.381 . S
C378 C379 1.394 . S
C378 H386 0.930 . S
C379 C378 1.394 . S
C379 C380 1.383 . S
C379 H387 0.929 . S
C380 C379 1.383 . S
C380 C381 1.377 1_545 S
C381 H365 0.930 . S
C381 C380 1.377 1_565 S
C381 C382 1.379 . S
C382 H366 0.931 . S
C382 C376 1.383 1_565 S
C382 C381 1.379 . S
H383 C377 0.959 1_554 S
H384 C377 0.961 . S
H385 C377 0.960 . S
H386 C378 0.930 . S
H387 C379 0.929 . S
H388 C396 0.929 . S
H389 C398 0.930 1_556 S
H390 C400 0.930 1_556 S
H391 C403 0.929 . S
H392 C406 0.930 1_554 S
H393 C408 0.960 . S
H394 C408 0.960 . S
H395 C408 0.960 . S
C396 H388 0.929 . S
C396 C397 1.377 . S
C396 C398 1.384 . S
C397 C396 1.377 . S
C397 C403 1.390 . S
C398 H389 0.930 1_554 S
C398 C396 1.384 . S
C398 C399 1.372 1_554 S
C399 C398 1.372 1_556 S
C399 C400 1.400 1_556 S
C399 C404 1.490 . S
C400 H390 0.930 1_554 S
C400 C399 1.400 1_554 S
C400 C403 1.386 . S
H401 C417 0.930 . S
H402 C418 0.931 . S
C403 H391 0.929 . S
C403 C397 1.390 . S
C403 C400 1.386 . S
C404 C399 1.490 . S
C404 C406 1.395 . S
C404 C407 1.403 . S
H405 C411 0.930 . S
C406 H392 0.930 1_556 S
C406 C404 1.395 . S
C406 C409 1.403 . S
C407 C404 1.403 . S
C407 C408 1.524 . S
C407 C411 1.400 . S
C408 H393 0.960 . S
C408 H394 0.960 . S
C408 H395 0.960 . S
C408 C407 1.524 . S
C409 C406 1.403 . S
C409 C410 1.392 . S
C409 C413 1.495 . S
C410 C409 1.392 . S
C410 C411 1.385 . S
C410 C412 1.478 . S
C411 H405 0.930 . S
C411 C407 1.400 . S
C411 C410 1.385 . S
C412 C410 1.478 . S
C412 C414 1.381 . S
C412 C418 1.383 . S
C413 C409 1.495 . S
C413 H419 0.959 1_556 S
C413 H420 0.961 . S
C413 H421 0.960 . S
C414 C412 1.381 . S
C414 C415 1.394 . S
C414 H422 0.930 . S
C415 C414 1.394 . S
C415 C416 1.383 . S
C415 H423 0.929 . S
C416 C415 1.383 . S
C416 C417 1.377 . S
C417 H401 0.930 . S
C417 C416 1.377 . S
C417 C418 1.379 . S
C418 H402 0.931 . S
C418 C412 1.383 . S
C418 C417 1.379 . S
H419 C413 0.959 1_554 S
H420 C413 0.961 . S
H421 C413 0.960 . S
H422 C414 0.930 . S
H423 C415 0.929 . S
H424 C432 0.929 . S
H425 C434 0.930 . S
H426 C436 0.930 1_556 S
H427 C439 0.929 . S
H428 C442 0.930 . S
H429 C444 0.960 . S
H430 C444 0.960 . S
H431 C444 0.960 . S
C432 H424 0.929 . S
C432 C433 1.377 . S
C432 C434 1.384 . S
C433 C432 1.377 . S
C433 C439 1.390 . S
C434 H425 0.930 . S
C434 C432 1.384 . S
C434 C435 1.372 . S
C435 C434 1.372 . S
C435 C436 1.400 . S
C435 C440 1.490 1_554 S
C436 H426 0.930 1_554 S
C436 C435 1.400 . S
C436 C439 1.386 . S
H437 C453 0.930 . S
H438 C454 0.931 . S
C439 H427 0.929 . S
C439 C433 1.390 . S
C439 C436 1.386 . S
C440 C435 1.490 1_556 S
C440 C442 1.395 1_556 S
C440 C443 1.403 . S
H441 C447 0.930 . S
C442 H428 0.930 . S
C442 C440 1.395 1_554 S
C442 C445 1.403 1_554 S
C443 C440 1.403 . S
C443 C444 1.524 . S
C443 C447 1.400 . S
C444 H429 0.960 . S
C444 H430 0.960 . S
C444 H431 0.960 . S
C444 C443 1.524 . S
C445 C442 1.403 1_556 S
C445 C446 1.392 . S
C445 C449 1.495 1_556 S
C446 C445 1.392 . S
C446 C447 1.385 . S
C446 C448 1.478 . S
C447 H441 0.930 . S
C447 C443 1.400 . S
C447 C446 1.385 . S
C448 C446 1.478 . S
C448 C450 1.381 . S
C448 C454 1.383 . S
C449 C445 1.495 1_554 S
C449 H455 0.959 . S
C449 H456 0.961 1_554 S
C449 H457 0.960 . S
C450 C448 1.381 . S
C450 C451 1.394 . S
C450 H458 0.930 . S
C451 C450 1.394 . S
C451 C452 1.383 . S
C451 H459 0.929 . S
C452 C451 1.383 . S
C452 C453 1.377 . S
C453 H437 0.930 . S
C453 C452 1.377 . S
C453 C454 1.379 . S
C454 H438 0.931 . S
C454 C448 1.383 . S
C454 C453 1.379 . S
H455 C449 0.959 . S
H456 C449 0.961 1_556 S
H457 C449 0.960 . S
H458 C450 0.930 . S
H459 C451 0.929 . S
H460 C468 0.929 . S
H461 C470 0.930 . S
H462 C472 0.930 . S
H463 C475 0.929 1_554 S
H464 C478 0.930 . S
H465 C480 0.960 . S
H466 C480 0.960 . S
H467 C480 0.960 1_554 S
C468 H460 0.929 . S
C468 C469 1.377 . S
C468 C470 1.384 . S
C469 C468 1.377 . S
C469 C475 1.390 . S
C470 H461 0.930 . S
C470 C468 1.384 . S
C470 C471 1.372 . S
C471 C470 1.372 . S
C471 C472 1.400 . S
C471 C476 1.490 . S
C472 H462 0.930 . S
C472 C471 1.400 . S
C472 C475 1.386 . S
H473 C489 0.930 . S
H474 C490 0.931 . S
C475 H463 0.929 1_556 S
C475 C469 1.390 . S
C475 C472 1.386 . S
C476 C471 1.490 . S
C476 C478 1.395 . S
C476 C479 1.403 . S
H477 C483 0.930 . S
C478 H464 0.930 . S
C478 C476 1.395 . S
C478 C481 1.403 . S
C479 C476 1.403 . S
C479 C480 1.524 . S
C479 C483 1.400 . S
C480 H465 0.960 . S
C480 H466 0.960 . S
C480 H467 0.960 1_556 S
C480 C479 1.524 . S
C481 C478 1.403 . S
C481 C482 1.392 . S
C481 C485 1.495 . S
C482 C481 1.392 . S
C482 C483 1.385 . S
C482 C484 1.478 . S
C483 H477 0.930 . S
C483 C479 1.400 . S
C483 C482 1.385 . S
C484 C482 1.478 . S
C484 C486 1.381 . S
C484 C490 1.383 . S
C485 C481 1.495 . S
C485 H491 0.959 . S
C485 H492 0.961 . S
C485 H493 0.960 . S
C486 C484 1.381 . S
C486 C487 1.394 . S
C486 H494 0.930 . S
C487 C486 1.394 . S
C487 C488 1.383 . S
C487 H495 0.929 . S
C488 C487 1.383 . S
C488 C489 1.377 . S
C489 H473 0.930 . S
C489 C488 1.377 . S
C489 C490 1.379 . S
C490 H474 0.931 . S
C490 C484 1.383 . S
C490 C489 1.379 . S
H491 C485 0.959 . S
H492 C485 0.961 . S
H493 C485 0.960 . S
H494 C486 0.930 . S
H495 C487 0.929 . S
H496 C504 0.929 . S
H497 C506 0.930 . S
H498 C508 0.930 . S
H499 C511 0.929 . S
H500 C514 0.930 . S
H501 C516 0.960 . S
H502 C516 0.960 . S
H503 C516 0.960 . S
C504 H496 0.929 . S
C504 C505 1.377 . S
C504 C506 1.384 . S
C505 C504 1.377 . S
C505 C511 1.390 . S
C506 H497 0.930 . S
C506 C504 1.384 . S
C506 C507 1.372 . S
C507 C506 1.372 . S
C507 C508 1.400 . S
C507 C512 1.490 . S
C508 H498 0.930 . S
C508 C507 1.400 . S
C508 C511 1.386 . S
H509 C525 0.930 1_655 S
H510 C526 0.931 . S
C511 H499 0.929 . S
C511 C505 1.390 . S
C511 C508 1.386 . S
C512 C507 1.490 . S
C512 C514 1.395 . S
C512 C515 1.403 . S
H513 C519 0.930 . S
C514 H500 0.930 . S
C514 C512 1.395 . S
C514 C517 1.403 . S
C515 C512 1.403 . S
C515 C516 1.524 . S
C515 C519 1.400 . S
C516 H501 0.960 . S
C516 H502 0.960 . S
C516 H503 0.960 . S
C516 C515 1.524 . S
C517 C514 1.403 . S
C517 C518 1.392 . S
C517 C521 1.495 . S
C518 C517 1.392 . S
C518 C519 1.385 . S
C518 C520 1.478 . S
C519 H513 0.930 . S
C519 C515 1.400 . S
C519 C518 1.385 . S
C520 C518 1.478 . S
C520 C522 1.381 . S
C520 C526 1.383 . S
C521 C517 1.495 . S
C521 H527 0.959 . S
C521 H528 0.961 . S
C521 H529 0.960 . S
C522 C520 1.381 . S
C522 C523 1.394 . S
C522 H530 0.930 . S
C523 C522 1.394 . S
C523 C524 1.383 . S
C523 H531 0.929 . S
C524 C523 1.383 . S
C524 C525 1.377 . S
C525 H509 0.930 1_455 S
C525 C524 1.377 . S
C525 C526 1.379 . S
C526 H510 0.931 . S
C526 C520 1.383 . S
C526 C525 1.379 . S
H527 C521 0.959 . S
H528 C521 0.961 . S
H529 C521 0.960 . S
H530 C522 0.930 . S
H531 C523 0.929 . S
H532 C540 0.929 . S
H533 C542 0.930 . S
H534 C544 0.930 . S
H535 C547 0.929 . S
H536 C550 0.930 . S
H537 C552 0.960 . S
H538 C552 0.960 . S
H539 C552 0.960 . S
C540 H532 0.929 . S
C540 C541 1.380 . S
C540 C542 1.384 . S
C541 C540 1.380 . S
C541 C547 1.387 1_545 S
C542 H533 0.930 . S
C542 C540 1.384 . S
C542 C543 1.372 1_545 S
C543 C542 1.372 1_565 S
C543 C544 1.400 . S
C543 C548 1.490 . S
C544 H534 0.930 . S
C544 C543 1.400 . S
C544 C547 1.386 . S
H545 C561 0.930 . S
H546 C562 0.931 . S
C547 H535 0.929 . S
C547 C541 1.387 1_565 S
C547 C544 1.386 . S
C548 C543 1.490 . S
C548 C550 1.395 1_565 S
C548 C551 1.403 . S
H549 C555 0.930 . S
C550 H536 0.930 . S
C550 C548 1.395 1_545 S
C550 C553 1.403 . S
C551 C548 1.403 . S
C551 C552 1.524 . S
C551 C555 1.400 . S
C552 H537 0.960 . S
C552 H538 0.960 . S
C552 H539 0.960 . S
C552 C551 1.524 . S
C553 C550 1.403 . S
C553 C554 1.392 1_545 S
C553 C557 1.495 . S
C554 C553 1.392 1_565 S
C554 C555 1.385 . S
C554 C556 1.478 . S
C555 H549 0.930 . S
C555 C551 1.400 . S
C555 C554 1.385 . S
C556 C554 1.478 . S
C556 C558 1.381 1_565 S
C556 C562 1.383 . S
C557 C553 1.495 . S
C557 H563 0.959 . S
C557 H564 0.961 . S
C557 H565 0.960 . S
C558 C556 1.381 1_545 S
C558 C559 1.395 1_545 S
C558 H566 0.929 . S
C559 C558 1.395 1_565 S
C559 C560 1.383 . S
C559 H567 0.929 . S
C560 C559 1.383 . S
C560 C561 1.377 . S
C561 H545 0.930 . S
C561 C560 1.377 . S
C561 C562 1.379 . S
C562 H546 0.931 . S
C562 C556 1.383 . S
C562 C561 1.379 . S
H563 C557 0.959 . S
H564 C557 0.961 . S
H565 C557 0.960 . S
H566 C558 0.929 . S
H567 C559 0.929 . S
H568 C576 0.929 . S
H569 C578 0.930 . S
H570 C580 0.930 . S
H571 C583 0.929 . S
H572 C586 0.930 . S
H573 C588 0.960 . S
H574 C588 0.960 . S
H575 C588 0.960 . S
C576 H568 0.929 . S
C576 C577 1.377 . S
C576 C578 1.384 . S
C577 C576 1.377 . S
C577 C583 1.390 . S
C578 H569 0.930 . S
C578 C576 1.384 . S
C578 C579 1.372 . S
C579 C578 1.372 . S
C579 C580 1.400 . S
C579 C584 1.490 . S
C580 H570 0.930 . S
C580 C579 1.400 . S
C580 C583 1.386 . S
H581 C597 0.930 . S
H582 C598 0.931 . S
C583 H571 0.929 . S
C583 C577 1.390 . S
C583 C580 1.386 . S
C584 C579 1.490 . S
C584 C586 1.395 . S
C584 C587 1.403 . S
H585 C591 0.930 . S
C586 H572 0.930 . S
C586 C584 1.395 . S
C586 C589 1.403 . S
C587 C584 1.403 . S
C587 C588 1.524 . S
C587 C591 1.400 . S
C588 H573 0.960 . S
C588 H574 0.960 . S
C588 H575 0.960 . S
C588 C587 1.524 . S
C589 C586 1.403 . S
C589 C590 1.392 . S
C589 C593 1.495 . S
C590 C589 1.392 . S
C590 C591 1.385 . S
C590 C592 1.478 . S
C591 H585 0.930 . S
C591 C587 1.400 . S
C591 C590 1.385 . S
C592 C590 1.478 . S
C592 C594 1.381 . S
C592 C598 1.383 . S
C593 C589 1.495 . S
C593 H599 0.959 . S
C593 H600 0.961 . S
C593 H601 0.960 . S
C594 C592 1.381 . S
C594 C595 1.394 . S
C594 H602 0.930 . S
C595 C594 1.394 . S
C595 C596 1.383 . S
C595 H603 0.929 . S
C596 C595 1.383 . S
C596 C597 1.377 . S
C597 H581 0.930 . S
C597 C596 1.377 . S
C597 C598 1.379 . S
C598 H582 0.931 . S
C598 C592 1.383 . S
C598 C597 1.379 . S
H599 C593 0.959 . S
H600 C593 0.961 . S
H601 C593 0.960 . S
H602 C594 0.930 . S
H603 C595 0.929 . S
H604 C612 0.929 . S
H605 C614 0.930 . S
H606 C616 0.930 . S
H607 C619 0.929 . S
H608 C622 0.930 . S
H609 C624 0.960 . S
H610 C624 0.960 . S
H611 C624 0.960 . S
C612 H604 0.929 . S
C612 C613 1.377 . S
C612 C614 1.384 . S
C613 C612 1.377 . S
C613 C619 1.390 . S
C614 H605 0.930 . S
C614 C612 1.384 . S
C614 C615 1.372 . S
C615 C614 1.372 . S
C615 C616 1.400 . S
C615 C620 1.490 . S
C616 H606 0.930 . S
C616 C615 1.400 . S
C616 C619 1.386 . S
H617 C633 0.930 . S
H618 C634 0.931 . S
C619 H607 0.929 . S
C619 C613 1.390 . S
C619 C616 1.386 . S
C620 C615 1.490 . S
C620 C622 1.395 . S
C620 C623 1.403 . S
H621 C627 0.930 . S
C622 H608 0.930 . S
C622 C620 1.395 . S
C622 C625 1.403 . S
C623 C620 1.403 . S
C623 C624 1.524 . S
C623 C627 1.400 . S
C624 H609 0.960 . S
C624 H610 0.960 . S
C624 H611 0.960 . S
C624 C623 1.524 . S
C625 C622 1.403 . S
C625 C626 1.392 . S
C625 C629 1.495 . S
C626 C625 1.392 . S
C626 C627 1.385 . S
C626 C628 1.478 . S
C627 H621 0.930 . S
C627 C623 1.400 . S
C627 C626 1.385 . S
C628 C626 1.478 . S
C628 C630 1.381 . S
C628 C634 1.383 . S
C629 C625 1.495 . S
C629 H635 0.959 . S
C629 H636 0.961 . S
C629 H637 0.960 . S
C630 C628 1.381 . S
C630 C631 1.394 . S
C630 H638 0.930 . S
C631 C630 1.394 . S
C631 C632 1.383 . S
C631 H639 0.929 . S
C632 C631 1.383 . S
C632 C633 1.377 . S
C633 H617 0.930 . S
C633 C632 1.377 . S
C633 C634 1.379 . S
C634 H618 0.931 . S
C634 C628 1.383 . S
C634 C633 1.379 . S
H635 C629 0.959 . S
H636 C629 0.961 . S
H637 C629 0.960 . S
H638 C630 0.930 . S
H639 C631 0.929 . S
H640 C648 0.929 . S
H641 C650 0.930 . S
H642 C652 0.930 . S
H643 C655 0.929 . S
H644 C658 0.930 . S
H645 C660 0.960 . S
H646 C660 0.960 . S
H647 C660 0.960 . S
C648 H640 0.929 . S
C648 C649 1.377 . S
C648 C650 1.384 . S
C649 C648 1.377 . S
C649 C655 1.390 . S
C650 H641 0.930 . S
C650 C648 1.384 . S
C650 C651 1.372 . S
C651 C650 1.372 . S
C651 C652 1.400 . S
C651 C656 1.490 . S
C652 H642 0.930 . S
C652 C651 1.400 . S
C652 C655 1.386 . S
H653 C669 0.930 . S
H654 C670 0.931 . S
C655 H643 0.929 . S
C655 C649 1.390 . S
C655 C652 1.386 . S
C656 C651 1.490 . S
C656 C658 1.395 . S
C656 C659 1.403 . S
H657 C663 0.930 . S
C658 H644 0.930 . S
C658 C656 1.395 . S
C658 C661 1.403 . S
C659 C656 1.403 . S
C659 C660 1.524 . S
C659 C663 1.400 . S
C660 H645 0.960 . S
C660 H646 0.960 . S
C660 H647 0.960 . S
C660 C659 1.524 . S
C661 C658 1.403 . S
C661 C662 1.392 . S
C661 C665 1.495 . S
C662 C661 1.392 . S
C662 C663 1.385 . S
C662 C664 1.478 . S
C663 H657 0.930 . S
C663 C659 1.400 . S
C663 C662 1.385 . S
C664 C662 1.478 . S
C664 C666 1.381 1_655 S
C664 C670 1.383 . S
C665 C661 1.495 . S
C665 H671 0.959 . S
C665 H672 0.961 . S
C665 H673 1.005 . S
C666 C664 1.381 1_455 S
C666 C667 1.394 . S
C666 H674 0.930 . S
C667 C666 1.394 . S
C667 C668 1.383 . S
C667 H675 0.929 . S
C668 C667 1.383 . S
C668 C669 1.377 1_455 S
C669 H653 0.930 . S
C669 C668 1.377 1_655 S
C669 C670 1.379 . S
C670 H654 0.931 . S
C670 C664 1.383 . S
C670 C669 1.379 . S
H671 C665 0.959 . S
H672 C665 0.961 . S
H673 C665 1.005 . S
H674 C666 0.930 . S
H675 C667 0.929 . S
H676 C684 0.929 . S
H677 C686 0.930 . S
H678 C688 0.930 . S
H679 C691 0.929 . S
H680 C694 0.928 1_564 S
H681 C696 0.960 . S
H682 C696 0.960 1_565 S
H683 C696 0.960 . S
C684 H676 0.929 . S
C684 C685 1.401 . S
C684 C686 1.384 . S
C685 C684 1.401 . S
C685 C691 1.366 1_564 S
C686 H677 0.930 . S
C686 C684 1.384 . S
C686 C687 1.329 1_564 S
C687 C686 1.329 1_546 S
C687 C688 1.441 . S
C687 C692 1.494 . S
C688 H678 0.930 . S
C688 C687 1.441 . S
C688 C691 1.386 . S
H689 C705 0.930 . S
H690 C706 0.931 . S
C691 H679 0.929 . S
C691 C685 1.366 1_546 S
C691 C688 1.386 . S
C692 C687 1.494 . S
C692 C694 1.395 . S
C692 C695 1.403 . S
H693 C699 0.930 . S
C694 H680 0.928 1_546 S
C694 C692 1.395 . S
C694 C697 1.405 . S
C695 C692 1.403 . S
C695 C696 1.524 . S
C695 C699 1.400 . S
C696 H681 0.960 . S
C696 H682 0.960 1_545 S
C696 H683 0.960 . S
C696 C695 1.524 . S
C697 C694 1.405 . S
C697 C698 1.392 . S
C697 C701 1.495 . S
C698 C697 1.392 . S
C698 C699 1.385 . S
C698 C700 1.478 . S
C699 H693 0.930 . S
C699 C695 1.400 . S
C699 C698 1.385 . S
C700 C698 1.478 . S
C700 C702 1.381 1_545 S
C700 C706 1.383 . S
C701 C697 1.495 . S
C701 H707 0.959 1_546 S
C701 H708 0.961 . S
C701 H709 0.960 1_545 S
C702 C700 1.381 1_565 S
C702 C703 1.394 . S
C702 H710 0.930 . S
C703 C702 1.394 . S
C703 C704 1.383 1_565 S
C703 H711 0.929 . S
C704 C703 1.383 1_545 S
C704 C705 1.377 . S
C705 H689 0.930 . S
C705 C704 1.377 . S
C705 C706 1.379 . S
C706 H690 0.931 . S
C706 C700 1.383 . S
C706 C705 1.379 . S
H707 C701 0.959 1_564 S
H708 C701 0.961 . S
H709 C701 0.960 1_565 S
H710 C702 0.930 . S
H711 C703 0.929 . S
H712 C720 0.929 . S
H713 C722 0.930 . S
H714 C724 0.930 . S
H715 C727 0.929 . S
H716 C730 0.930 . S
H717 C732 0.960 . S
H718 C732 0.960 . S
H719 C732 0.960 . S
C720 H712 0.929 . S
C720 C721 1.377 . S
C720 C722 1.384 1_554 S
C721 C720 1.377 . S
C721 C727 1.390 . S
C722 H713 0.930 . S
C722 C720 1.384 1_556 S
C722 C723 1.372 . S
C723 C722 1.372 . S
C723 C724 1.400 . S
C723 C728 1.490 . S
C724 H714 0.930 . S
C724 C723 1.400 . S
C724 C727 1.386 1_556 S
H725 C741 0.930 . S
H726 C742 0.931 . S
C727 H715 0.929 . S
C727 C721 1.390 . S
C727 C724 1.386 1_554 S
C728 C723 1.490 . S
C728 C730 1.395 . S
C728 C731 1.403 . S
H729 C735 0.930 . S
C730 H716 0.930 . S
C730 C728 1.395 . S
C730 C733 1.403 . S
C731 C728 1.403 . S
C731 C732 1.524 . S
C731 C735 1.400 . S
C732 H717 0.960 . S
C732 H718 0.960 . S
C732 H719 0.960 . S
C732 C731 1.524 . S
C733 C730 1.403 . S
C733 C734 1.392 . S
C733 C737 1.495 . S
C734 C733 1.392 . S
C734 C735 1.385 . S
C734 C736 1.478 . S
C735 H729 0.930 . S
C735 C731 1.400 . S
C735 C734 1.385 . S
C736 C734 1.478 . S
C736 C738 1.381 . S
C736 C742 1.383 . S
C737 C733 1.495 . S
C737 H743 0.977 . S
C737 H744 0.961 . S
C737 H745 0.960 . S
C738 C736 1.381 . S
C738 C739 1.394 . S
C738 H746 0.930 . S
C739 C738 1.394 . S
C739 C740 1.383 . S
C739 H747 0.929 . S
C740 C739 1.383 . S
C740 C741 1.377 . S
C741 H725 0.930 . S
C741 C740 1.377 . S
C741 C742 1.379 . S
C742 H726 0.931 . S
C742 C736 1.383 . S
C742 C741 1.379 . S
H743 C737 0.977 . S
H744 C737 0.961 . S
H745 C737 0.960 . S
H746 C738 0.930 . S
H747 C739 0.929 . S
H748 C756 0.929 . S
H749 C758 0.930 . S
H750 C760 0.930 . S
H751 C763 0.929 . S
H752 C766 0.930 1_554 S
H753 C768 0.960 . S
H754 C768 0.960 . S
H755 C768 0.960 . S
C756 H748 0.929 . S
C756 C757 1.377 . S
C756 C758 1.384 . S
C757 C756 1.377 . S
C757 C763 1.390 . S
C758 H749 0.930 . S
C758 C756 1.384 . S
C758 C759 1.372 . S
C759 C758 1.372 . S
C759 C760 1.400 1_554 S
C759 C764 1.490 1_554 S
C760 H750 0.930 . S
C760 C759 1.400 1_556 S
C760 C763 1.386 1_556 S
H761 C777 0.930 . S
H762 C778 0.931 . S
C763 H751 0.929 . S
C763 C757 1.390 . S
C763 C760 1.386 1_554 S
C764 C759 1.490 1_556 S
C764 C766 1.395 . S
C764 C767 1.403 . S
H765 C771 0.930 . S
C766 H752 0.930 1_556 S
C766 C764 1.395 . S
C766 C769 1.403 . S
C767 C764 1.403 . S
C767 C768 1.524 . S
C767 C771 1.400 . S
C768 H753 0.960 . S
C768 H754 0.960 . S
C768 H755 0.960 . S
C768 C767 1.524 . S
C769 C766 1.403 . S
C769 C770 1.392 . S
C769 C773 1.495 . S
C770 C769 1.392 . S
C770 C771 1.385 . S
C770 C772 1.478 . S
C771 H765 0.930 . S
C771 C767 1.400 . S
C771 C770 1.385 . S
C772 C770 1.478 . S
C772 C774 1.381 . S
C772 C778 1.383 . S
C773 C769 1.495 . S
C773 H779 0.959 . S
C773 H780 0.961 . S
C773 H781 0.960 . S
C774 C772 1.381 . S
C774 C775 1.394 . S
C774 H782 0.930 . S
C775 C774 1.394 . S
C775 C776 1.383 . S
C775 H783 0.929 . S
C776 C775 1.383 . S
C776 C777 1.377 . S
C777 H761 0.930 . S
C777 C776 1.377 . S
C777 C778 1.379 . S
C778 H762 0.931 . S
C778 C772 1.383 . S
C778 C777 1.379 . S
H779 C773 0.959 . S
H780 C773 0.961 . S
H781 C773 0.960 . S
H782 C774 0.930 . S
H783 C775 0.929 . S
H784 C792 0.929 . S
H785 C794 0.930 . S
H786 C796 0.930 . S
H787 C799 0.929 . S
H788 C802 0.930 . S
H789 C804 0.960 . S
H790 C804 0.960 . S
H791 C804 0.960 . S
C792 H784 0.929 . S
C792 C793 1.377 . S
C792 C794 1.384 . S
C793 C792 1.377 . S
C793 C799 1.390 . S
C794 H785 0.930 . S
C794 C792 1.384 . S
C794 C795 1.372 . S
C795 C794 1.372 . S
C795 C796 1.400 . S
C795 C800 1.490 . S
C796 H786 0.930 . S
C796 C795 1.400 . S
C796 C799 1.386 . S
H797 C813 0.930 . S
H798 C814 0.931 . S
C799 H787 0.929 . S
C799 C793 1.390 . S
C799 C796 1.386 . S
C800 C795 1.490 . S
C800 C802 1.395 . S
C800 C803 1.403 . S
H801 C807 0.930 . S
C802 H788 0.930 . S
C802 C800 1.395 . S
C802 C805 1.403 . S
C803 C800 1.403 . S
C803 C804 1.524 . S
C803 C807 1.400 . S
C804 H789 0.960 . S
C804 H790 0.960 . S
C804 H791 0.960 . S
C804 C803 1.524 . S
C805 C802 1.403 . S
C805 C806 1.392 . S
C805 C809 1.495 . S
C806 C805 1.392 . S
C806 C807 1.385 . S
C806 C808 1.478 . S
C807 H801 0.930 . S
C807 C803 1.400 . S
C807 C806 1.385 . S
C808 C806 1.478 . S
C808 C810 1.381 . S
C808 C814 1.383 1_554 S
C809 C805 1.495 . S
C809 H815 0.959 . S
C809 H816 0.961 . S
C809 H817 0.960 . S
C810 C808 1.381 . S
C810 C811 1.394 . S
C810 H818 0.930 . S
C811 C810 1.394 . S
C811 C812 1.383 1_554 S
C811 H819 0.929 . S
C812 C811 1.383 1_556 S
C812 C813 1.377 . S
C813 H797 0.930 . S
C813 C812 1.377 . S
C813 C814 1.379 . S
C814 H798 0.931 . S
C814 C808 1.383 1_556 S
C814 C813 1.379 . S
H815 C809 0.959 . S
H816 C809 0.961 . S
H817 C809 0.960 . S
H818 C810 0.930 . S
H819 C811 0.929 . S
H820 C828 0.929 . S
H821 C830 0.930 . S
H822 C832 0.928 . S
H823 C835 0.930 . S
H824 C838 0.930 . S
H825 C840 0.960 . S
H826 C840 0.960 . S
H827 C840 0.960 . S
C828 H820 0.929 . S
C828 C829 1.379 . S
C828 C830 1.383 . S
C829 C828 1.379 . S
C829 C835 1.389 1_545 S
C830 H821 0.930 . S
C830 C828 1.383 . S
C830 C831 1.375 . S
C831 C830 1.375 . S
C831 C832 1.401 1_545 S
C831 C836 1.490 . S
C832 H822 0.928 . S
C832 C831 1.401 1_565 S
C832 C835 1.387 . S
H833 C849 0.930 . S
H834 C850 0.931 . S
C835 H823 0.930 . S
C835 C829 1.389 1_565 S
C835 C832 1.387 . S
C836 C831 1.490 . S
C836 C838 1.395 . S
C836 C839 1.403 1_545 S
H837 C843 0.930 . S
C838 H824 0.930 . S
C838 C836 1.395 . S
C838 C841 1.403 1_554 S
C839 C836 1.403 1_565 S
C839 C840 1.524 . S
C839 C843 1.400 . S
C840 H825 0.960 . S
C840 H826 0.960 . S
C840 H827 0.960 . S
C840 C839 1.524 . S
C841 C838 1.403 1_556 S
C841 C842 1.392 . S
C841 C845 1.495 . S
C842 C841 1.392 . S
C842 C843 1.385 1_546 S
C842 C844 1.478 . S
C843 H837 0.930 . S
C843 C839 1.400 . S
C843 C842 1.385 1_564 S
C844 C842 1.478 . S
C844 C846 1.381 . S
C844 C850 1.383 . S
C845 C841 1.495 . S
C845 H851 0.959 . S
C845 H852 0.961 . S
C845 H853 0.960 . S
C846 C844 1.381 . S
C846 C847 1.394 . S
C846 H854 0.930 . S
C847 C846 1.394 . S
C847 C848 1.383 . S
C847 H855 0.929 . S
C848 C847 1.383 . S
C848 C849 1.377 . S
C849 H833 0.930 . S
C849 C848 1.377 . S
C849 C850 1.379 . S
C850 H834 0.931 . S
C850 C844 1.383 . S
C850 C849 1.379 . S
H851 C845 0.959 . S
H852 C845 0.961 . S
H853 C845 0.960 . S
H854 C846 0.930 . S
H855 C847 0.929 . S
H856 C864 0.929 . S
H857 C866 0.930 . S
H858 C868 0.930 . S
H859 C871 0.929 . S
H860 C874 0.930 . S
H861 C876 0.960 1_556 S
H862 C876 0.960 . S
H863 C876 0.960 . S
C864 H856 0.929 . S
C864 C865 1.377 . S
C864 C866 1.384 . S
C865 C864 1.377 . S
C865 C871 1.390 . S
C866 H857 0.930 . S
C866 C864 1.384 . S
C866 C867 1.372 . S
C867 C866 1.372 . S
C867 C868 1.400 . S
C867 C872 1.490 . S
C868 H858 0.930 . S
C868 C867 1.400 . S
C868 C871 1.386 . S
H869 C885 0.930 . S
H870 C886 0.931 . S
C871 H859 0.929 . S
C871 C865 1.390 . S
C871 C868 1.386 . S
C872 C867 1.490 . S
C872 C874 1.395 . S
C872 C875 1.403 . S
H873 C879 0.930 . S
C874 H860 0.930 . S
C874 C872 1.395 . S
C874 C877 1.403 . S
C875 C872 1.403 . S
C875 C876 1.524 . S
C875 C879 1.400 1_554 S
C876 H861 0.960 1_554 S
C876 H862 0.960 . S
C876 H863 0.960 . S
C876 C875 1.524 . S
C877 C874 1.403 . S
C877 C878 1.392 1_554 S
C877 C881 1.495 . S
C878 C877 1.392 1_556 S
C878 C879 1.385 . S
C878 C880 1.478 . S
C879 H873 0.930 . S
C879 C875 1.400 1_556 S
C879 C878 1.385 . S
C880 C878 1.478 . S
C880 C882 1.381 . S
C880 C886 1.383 . S
C881 C877 1.495 . S
C881 H887 0.959 . S
C881 H888 0.961 . S
C881 H889 0.960 1_554 S
C882 C880 1.381 . S
C882 C883 1.394 . S
C882 H890 0.930 . S
C883 C882 1.394 . S
C883 C884 1.383 . S
C883 H891 0.929 . S
C884 C883 1.383 . S
C884 C885 1.377 . S
C885 H869 0.930 . S
C885 C884 1.377 . S
C885 C886 1.379 . S
C886 H870 0.931 . S
C886 C880 1.383 . S
C886 C885 1.379 . S
H887 C881 0.959 . S
H888 C881 0.961 . S
H889 C881 0.960 1_556 S
H890 C882 0.930 . S
H891 C883 0.929 . S
H892 C900 0.929 . S
H893 C902 0.930 . S
H894 C904 0.930 . S
H895 C907 0.929 . S
H896 C910 0.930 . S
H897 C912 0.960 . S
H898 C912 0.960 . S
H899 C912 0.960 . S
C900 H892 0.929 . S
C900 C901 1.377 . S
C900 C902 1.384 . S
C901 C900 1.377 . S
C901 C907 1.390 . S
C902 H893 0.930 . S
C902 C900 1.384 . S
C902 C903 1.372 . S
C903 C902 1.372 . S
C903 C904 1.400 . S
C903 C908 1.490 . S
C904 H894 0.930 . S
C904 C903 1.400 . S
C904 C907 1.386 . S
H905 C921 0.930 . S
H906 C922 0.931 . S
C907 H895 0.929 . S
C907 C901 1.390 . S
C907 C904 1.386 . S
C908 C903 1.490 . S
C908 C910 1.395 1_554 S
C908 C911 1.403 . S
H909 C915 0.930 . S
C910 H896 0.930 . S
C910 C908 1.395 1_556 S
C910 C913 1.403 . S
C911 C908 1.403 . S
C911 C912 1.524 . S
C911 C915 1.400 1_554 S
C912 H897 0.960 . S
C912 H898 0.960 . S
C912 H899 0.960 . S
C912 C911 1.524 . S
C913 C910 1.403 . S
C913 C914 1.392 . S
C913 C917 1.495 . S
C914 C913 1.392 . S
C914 C915 1.385 . S
C914 C916 1.478 . S
C915 H909 0.930 . S
C915 C911 1.400 1_556 S
C915 C914 1.385 . S
C916 C914 1.478 . S
C916 C918 1.381 . S
C916 C922 1.383 . S
C917 C913 1.495 . S
C917 H923 0.959 . S
C917 H924 0.961 . S
C917 H925 0.960 . S
C918 C916 1.381 . S
C918 C919 1.394 . S
C918 H926 0.930 . S
C919 C918 1.394 . S
C919 C920 1.383 . S
C919 H927 0.929 . S
C920 C919 1.383 . S
C920 C921 1.377 . S
C921 H905 0.930 . S
C921 C920 1.377 . S
C921 C922 1.379 . S
C922 H906 0.931 . S
C922 C916 1.383 . S
C922 C921 1.379 . S
H923 C917 0.959 . S
H924 C917 0.961 . S
H925 C917 0.960 . S
H926 C918 0.930 . S
H927 C919 0.929 . S
H928 C936 0.929 . S
H929 C938 0.930 . S
H930 C940 0.930 . S
H931 C943 0.929 . S
H932 C946 0.930 . S
H933 C948 0.960 . S
H934 C948 0.960 . S
H935 C948 0.960 . S
C936 H928 0.929 . S
C936 C937 1.377 . S
C936 C938 1.384 . S
C937 C936 1.377 . S
C937 C943 1.390 . S
C938 H929 0.930 . S
C938 C936 1.384 . S
C938 C939 1.372 . S
C939 C938 1.372 . S
C939 C940 1.400 . S
C939 C944 1.490 . S
C940 H930 0.930 . S
C940 C939 1.400 . S
C940 C943 1.386 . S
H941 C957 0.930 . S
H942 C958 0.931 . S
C943 H931 0.929 . S
C943 C937 1.390 . S
C943 C940 1.386 . S
C944 C939 1.490 . S
C944 C946 1.395 . S
C944 C947 1.403 . S
H945 C951 0.930 . S
C946 H932 0.930 . S
C946 C944 1.395 . S
C946 C949 1.403 . S
C947 C944 1.403 . S
C947 C948 1.524 . S
C947 C951 1.400 . S
C948 H933 0.960 . S
C948 H934 0.960 . S
C948 H935 0.960 . S
C948 C947 1.524 . S
C949 C946 1.403 . S
C949 C950 1.392 . S
C949 C953 1.495 . S
C950 C949 1.392 . S
C950 C951 1.385 . S
C950 C952 1.478 . S
C951 H945 0.930 . S
C951 C947 1.400 . S
C951 C950 1.385 . S
C952 C950 1.478 . S
C952 C954 1.381 . S
C952 C958 1.383 . S
C953 C949 1.495 . S
C953 H959 0.959 . S
C953 H960 0.961 . S
C953 H961 0.960 . S
C954 C952 1.381 . S
C954 C955 1.394 . S
C954 H962 0.930 . S
C955 C954 1.394 . S
C955 C956 1.383 . S
C955 H963 0.929 . S
C956 C955 1.383 . S
C956 C957 1.377 . S
C957 H941 0.930 . S
C957 C956 1.377 . S
C957 C958 1.379 . S
C958 H942 0.931 . S
C958 C952 1.383 . S
C958 C957 1.379 . S
H959 C953 0.959 . S
H960 C953 0.961 . S
H961 C953 0.960 . S
H962 C954 0.930 . S
H963 C955 0.929 . S
H964 C972 0.929 . S
H965 C974 0.930 . S
H966 C976 0.930 . S
H967 C979 0.929 . S
H968 C982 0.930 . S
H969 C984 0.960 . S
H970 C984 0.960 . S
H971 C984 0.960 . S
C972 H964 0.929 . S
C972 C973 1.373 . S
C972 C974 1.384 . S
C973 C972 1.373 . S
C973 C979 1.394 1_545 S
C974 H965 0.930 . S
C974 C972 1.384 . S
C974 C975 1.380 . S
C975 C974 1.380 . S
C975 C976 1.391 1_545 S
C975 C980 1.490 . S
C976 H966 0.930 . S
C976 C975 1.391 1_565 S
C976 C979 1.386 . S
H977 C993 0.930 . S
H978 C994 0.931 . S
C979 H967 0.929 . S
C979 C973 1.394 1_565 S
C979 C976 1.386 . S
C980 C975 1.490 . S
C980 C982 1.400 . S
C980 C983 1.398 1_545 S
H981 C987 0.930 . S
C982 H968 0.930 . S
C982 C980 1.400 . S
C982 C985 1.403 . S
C983 C980 1.398 1_565 S
C983 C984 1.524 . S
C983 C987 1.400 . S
C984 H969 0.960 . S
C984 H970 0.960 . S
C984 H971 0.960 . S
C984 C983 1.524 . S
C985 C982 1.403 . S
C985 C986 1.411 . S
C985 C989 1.495 . S
C986 C985 1.411 . S
C986 C987 1.365 1_545 S
C986 C988 1.479 1_545 S
C987 H981 0.930 . S
C987 C983 1.400 . S
C987 C986 1.365 1_565 S
C988 C986 1.479 1_565 S
C988 C990 1.384 1_565 S
C988 C994 1.379 . S
C989 C985 1.495 . S
C989 H995 0.959 . S
C989 H996 0.961 . S
C989 H997 0.960 . S
C990 C988 1.384 1_545 S
C990 C991 1.394 . S
C990 H998 0.930 . S
C991 C990 1.394 . S
C991 C992 1.383 1_545 S
C991 H999 0.929 . S
C992 C991 1.383 1_565 S
C992 C993 1.377 . S
C993 H977 0.930 . S
C993 C992 1.377 . S
C993 C994 1.379 . S
C994 H978 0.931 . S
C994 C988 1.379 . S
C994 C993 1.379 . S
H995 C989 0.959 . S
H996 C989 0.961 . S
H997 C989 0.960 . S
H998 C990 0.930 . S
H999 C991 0.929 . S
H1000 C1008 0.929 . S
H1001 C1010 0.930 . S
H1002 C1012 0.930 . S
H1003 C1015 0.929 . S
H1004 C1018 0.930 . S
H1005 C1020 0.960 . S
H1006 C1020 0.960 . S
H1007 C1020 0.960 . S
C1008 H1000 0.929 . S
C1008 C1009 1.377 . S
C1008 C1010 1.384 . S
C1009 C1008 1.377 . S
C1009 C1015 1.390 . S
C1010 H1001 0.930 . S
C1010 C1008 1.384 . S
C1010 C1011 1.372 . S
C1011 C1010 1.372 . S
C1011 C1012 1.400 . S
C1011 C1016 1.490 . S
C1012 H1002 0.930 . S
C1012 C1011 1.400 . S
C1012 C1015 1.386 . S
H1013 C1029 0.930 . S
H1014 C1030 0.931 . S
C1015 H1003 0.929 . S
C1015 C1009 1.390 . S
C1015 C1012 1.386 . S
C1016 C1011 1.490 . S
C1016 C1018 1.395 . S
C1016 C1019 1.403 . S
H1017 C1023 0.930 . S
C1018 H1004 0.930 . S
C1018 C1016 1.395 . S
C1018 C1021 1.403 . S
C1019 C1016 1.403 . S
C1019 C1020 1.524 . S
C1019 C1023 1.400 . S
C1020 H1005 0.960 . S
C1020 H1006 0.960 . S
C1020 H1007 0.960 . S
C1020 C1019 1.524 . S
C1021 C1018 1.403 . S
C1021 C1022 1.392 . S
C1021 C1025 1.495 . S
C1022 C1021 1.392 . S
C1022 C1023 1.385 . S
C1022 C1024 1.478 . S
C1023 H1017 0.930 . S
C1023 C1019 1.400 . S
C1023 C1022 1.385 . S
C1024 C1022 1.478 . S
C1024 C1026 1.381 . S
C1024 C1030 1.383 . S
C1025 C1021 1.495 . S
C1025 H1031 0.959 . S
C1025 H1032 0.961 . S
C1025 H1033 0.960 . S
C1026 C1024 1.381 . S
C1026 C1027 1.394 . S
C1026 H1034 0.930 . S
C1027 C1026 1.394 . S
C1027 C1028 1.383 . S
C1027 H1035 0.929 . S
C1028 C1027 1.383 . S
C1028 C1029 1.377 . S
C1029 H1013 0.930 . S
C1029 C1028 1.377 . S
C1029 C1030 1.379 . S
C1030 H1014 0.931 . S
C1030 C1024 1.383 . S
C1030 C1029 1.379 . S
H1031 C1025 0.959 . S
H1032 C1025 0.961 . S
H1033 C1025 0.960 . S
H1034 C1026 0.930 . S
H1035 C1027 0.929 . S
H1036 C1044 0.929 . S
H1037 C1046 0.930 . S
H1038 C1048 0.930 . S
H1039 C1051 0.929 . S
H1040 C1054 0.930 . S
H1041 C1056 0.960 . S
H1042 C1056 0.960 . S
H1043 C1056 0.960 . S
C1044 H1036 0.929 . S
C1044 C1045 1.377 . S
C1044 C1046 1.384 . S
C1045 C1044 1.377 . S
C1045 C1051 1.390 . S
C1046 H1037 0.930 . S
C1046 C1044 1.384 . S
C1046 C1047 1.372 . S
C1047 C1046 1.372 . S
C1047 C1048 1.400 . S
C1047 C1052 1.490 . S
C1048 H1038 0.930 . S
C1048 C1047 1.400 . S
C1048 C1051 1.386 . S
H1049 C1065 0.930 . S
H1050 C1066 0.931 . S
C1051 H1039 0.929 . S
C1051 C1045 1.390 . S
C1051 C1048 1.386 . S
C1052 C1047 1.490 . S
C1052 C1054 1.395 . S
C1052 C1055 1.403 . S
H1053 C1059 0.930 . S
C1054 H1040 0.930 . S
C1054 C1052 1.395 . S
C1054 C1057 1.403 . S
C1055 C1052 1.403 . S
C1055 C1056 1.524 . S
C1055 C1059 1.400 . S
C1056 H1041 0.960 . S
C1056 H1042 0.960 . S
C1056 H1043 0.960 . S
C1056 C1055 1.524 . S
C1057 C1054 1.403 . S
C1057 C1058 1.392 . S
C1057 C1061 1.495 . S
C1058 C1057 1.392 . S
C1058 C1059 1.385 . S
C1058 C1060 1.478 . S
C1059 H1053 0.930 . S
C1059 C1055 1.400 . S
C1059 C1058 1.385 . S
C1060 C1058 1.478 . S
C1060 C1062 1.381 . S
C1060 C1066 1.383 . S
C1061 C1057 1.495 . S
C1061 H1067 0.959 . S
C1061 H1068 0.961 . S
C1061 H1069 0.960 . S
C1062 C1060 1.381 . S
C1062 C1063 1.394 . S
C1062 H1070 0.930 . S
C1063 C1062 1.394 . S
C1063 C1064 1.383 . S
C1063 H1071 0.929 . S
C1064 C1063 1.383 . S
C1064 C1065 1.377 . S
C1065 H1049 0.930 . S
C1065 C1064 1.377 . S
C1065 C1066 1.379 . S
C1066 H1050 0.931 . S
C1066 C1060 1.383 . S
C1066 C1065 1.379 . S
H1067 C1061 0.959 . S
H1068 C1061 0.961 . S
H1069 C1061 0.960 . S
H1070 C1062 0.930 . S
H1071 C1063 0.929 . S
C217 C61 1.740 . S
C236 C89 1.746 . S
C272 C110 1.529 . S
C253 C70 1.511 . S
C308 C144 1.295 . S
C289 C43 1.264 . S
C344 C178 1.530 . S
C325 C52 1.516 . S
C380 C80 1.750 . S
C361 C25 1.742 1_545 S
C397 C34 1.506 . S
C416 C119 1.525 . S
C433 C7 1.261 . S
C452 C153 1.259 . S
C469 C16 1.525 . S
C488 C187 1.540 . S
C524 C101 0.309 . S
C505 C50 0.580 . S
C560 C106 0.274 . S
C541 C59 0.309 1_545 S
C596 C140 0.343 . S
C577 C67 0.384 . S
C613 C41 0.192 . S
C632 C174 0.108 . S
C649 C14 0.540 . S
C668 C72 0.397 1_455 S
C704 C135 0.330 . S
C685 C23 0.324 . S
C740 C169 0.344 . S
C721 C31 0.405 . S
C757 C5 0.188 . S
C776 C203 0.148 . S
C793 C49 1.320 . S
C812 C85 1.352 . S
C829 C58 1.735 1_545 S
C848 C114 1.781 . S
C884 C148 1.519 . S
C865 C68 1.482 . S
C920 C182 1.512 . S
C901 C40 1.462 . S
C937 C13 1.332 . S
C956 C76 1.361 . S
C992 C123 1.779 . S
C973 C22 1.736 1_545 S
C1028 C157 1.521 . S
C1009 C32 1.469 . S
C1045 C4 1.460 . S
C1064 C191 1.517 . S
