# Generated by pormake.
# Topology llk, (3,12)-cn, num edge types: 1
# Building blocks:
#     Node 0, Type 0, BuildingBlock: PAMTOO_clean_linker_0, # of connection points: 3
#     Node 1, Type 0, BuildingBlock: PAMTOO_clean_linker_0, # of connection points: 3
#     Node 2, Type 0, BuildingBlock: PAMTOO_clean_linker_0, # of connection points: 3
#     Node 3, Type 0, BuildingBlock: PAMTOO_clean_linker_0, # of connection points: 3
#     Node 4, Type 0, BuildingBlock: PAMTOO_clean_linker_0, # of connection points: 3
#     Node 5, Type 0, BuildingBlock: PAMTOO_clean_linker_0, # of connection points: 3
#     Node 6, Type 0, BuildingBlock: PAMTOO_clean_linker_0, # of connection points: 3
#     Node 7, Type 0, BuildingBlock: PAMTOO_clean_linker_0, # of connection points: 3
#     Node 8, Type 0, BuildingBlock: PAMTOO_clean_linker_0, # of connection points: 3
#     Node 9, Type 0, BuildingBlock: PAMTOO_clean_linker_0, # of connection points: 3
#     Node 10, Type 0, BuildingBlock: PAMTOO_clean_linker_0, # of connection points: 3
#     Node 11, Type 0, BuildingBlock: PAMTOO_clean_linker_0, # of connection points: 3
#     Node 12, Type 0, BuildingBlock: PAMTOO_clean_linker_0, # of connection points: 3
#     Node 13, Type 0, BuildingBlock: PAMTOO_clean_linker_0, # of connection points: 3
#     Node 14, Type 0, BuildingBlock: PAMTOO_clean_linker_0, # of connection points: 3
#     Node 15, Type 0, BuildingBlock: PAMTOO_clean_linker_0, # of connection points: 3
#     Node 16, Type 0, BuildingBlock: PAMTOO_clean_linker_0, # of connection points: 3
#     Node 17, Type 0, BuildingBlock: PAMTOO_clean_linker_0, # of connection points: 3
#     Node 18, Type 0, BuildingBlock: PAMTOO_clean_linker_0, # of connection points: 3
#     Node 19, Type 0, BuildingBlock: PAMTOO_clean_linker_0, # of connection points: 3
#     Node 20, Type 0, BuildingBlock: PAMTOO_clean_linker_0, # of connection points: 3
#     Node 21, Type 0, BuildingBlock: PAMTOO_clean_linker_0, # of connection points: 3
#     Node 22, Type 0, BuildingBlock: PAMTOO_clean_linker_0, # of connection points: 3
#     Node 23, Type 0, BuildingBlock: PAMTOO_clean_linker_0, # of connection points: 3
#     Node 24, Type 1, BuildingBlock: EZIPEK_clean_sbu_0, # of connection points: 12
#     Node 25, Type 1, BuildingBlock: EZIPEK_clean_sbu_0, # of connection points: 12
#     Node 26, Type 1, BuildingBlock: EZIPEK_clean_sbu_0, # of connection points: 12
#     Node 27, Type 1, BuildingBlock: EZIPEK_clean_sbu_0, # of connection points: 12
#     Node 28, Type 1, BuildingBlock: EZIPEK_clean_sbu_0, # of connection points: 12
#     Node 29, Type 1, BuildingBlock: EZIPEK_clean_sbu_0, # of connection points: 12
#     Edge 30, Type (0, 1), BuildingBlock: CIFDUS_clean_linker_0, # of connection points: 2
#     Edge 31, Type (0, 1), BuildingBlock: CIFDUS_clean_linker_0, # of connection points: 2
#     Edge 32, Type (0, 1), BuildingBlock: CIFDUS_clean_linker_0, # of connection points: 2
#     Edge 33, Type (0, 1), BuildingBlock: CIFDUS_clean_linker_0, # of connection points: 2
#     Edge 34, Type (0, 1), BuildingBlock: CIFDUS_clean_linker_0, # of connection points: 2
#     Edge 35, Type (0, 1), BuildingBlock: CIFDUS_clean_linker_0, # of connection points: 2
#     Edge 36, Type (0, 1), BuildingBlock: CIFDUS_clean_linker_0, # of connection points: 2
#     Edge 37, Type (0, 1), BuildingBlock: CIFDUS_clean_linker_0, # of connection points: 2
#     Edge 38, Type (0, 1), BuildingBlock: CIFDUS_clean_linker_0, # of connection points: 2
#     Edge 39, Type (0, 1), BuildingBlock: CIFDUS_clean_linker_0, # of connection points: 2
#     Edge 40, Type (0, 1), BuildingBlock: CIFDUS_clean_linker_0, # of connection points: 2
#     Edge 41, Type (0, 1), BuildingBlock: CIFDUS_clean_linker_0, # of connection points: 2
#     Edge 42, Type (0, 1), BuildingBlock: CIFDUS_clean_linker_0, # of connection points: 2
#     Edge 43, Type (0, 1), BuildingBlock: CIFDUS_clean_linker_0, # of connection points: 2
#     Edge 44, Type (0, 1), BuildingBlock: CIFDUS_clean_linker_0, # of connection points: 2
#     Edge 45, Type (0, 1), BuildingBlock: CIFDUS_clean_linker_0, # of connection points: 2
#     Edge 46, Type (0, 1), BuildingBlock: CIFDUS_clean_linker_0, # of connection points: 2
#     Edge 47, Type (0, 1), BuildingBlock: CIFDUS_clean_linker_0, # of connection points: 2
#     Edge 48, Type (0, 1), BuildingBlock: CIFDUS_clean_linker_0, # of connection points: 2
#     Edge 49, Type (0, 1), BuildingBlock: CIFDUS_clean_linker_0, # of connection points: 2
#     Edge 50, Type (0, 1), BuildingBlock: CIFDUS_clean_linker_0, # of connection points: 2
#     Edge 51, Type (0, 1), BuildingBlock: CIFDUS_clean_linker_0, # of connection points: 2
#     Edge 52, Type (0, 1), BuildingBlock: CIFDUS_clean_linker_0, # of connection points: 2
#     Edge 53, Type (0, 1), BuildingBlock: CIFDUS_clean_linker_0, # of connection points: 2
#     Edge 54, Type (0, 1), BuildingBlock: CIFDUS_clean_linker_0, # of connection points: 2
#     Edge 55, Type (0, 1), BuildingBlock: CIFDUS_clean_linker_0, # of connection points: 2
#     Edge 56, Type (0, 1), BuildingBlock: CIFDUS_clean_linker_0, # of connection points: 2
#     Edge 57, Type (0, 1), BuildingBlock: CIFDUS_clean_linker_0, # of connection points: 2
#     Edge 58, Type (0, 1), BuildingBlock: CIFDUS_clean_linker_0, # of connection points: 2
#     Edge 59, Type (0, 1), BuildingBlock: CIFDUS_clean_linker_0, # of connection points: 2
#     Edge 60, Type (0, 1), BuildingBlock: CIFDUS_clean_linker_0, # of connection points: 2
#     Edge 61, Type (0, 1), BuildingBlock: CIFDUS_clean_linker_0, # of connection points: 2
#     Edge 62, Type (0, 1), BuildingBlock: CIFDUS_clean_linker_0, # of connection points: 2
#     Edge 63, Type (0, 1), BuildingBlock: CIFDUS_clean_linker_0, # of connection points: 2
#     Edge 64, Type (0, 1), BuildingBlock: CIFDUS_clean_linker_0, # of connection points: 2
#     Edge 65, Type (0, 1), BuildingBlock: CIFDUS_clean_linker_0, # of connection points: 2
#     Edge 66, Type (0, 1), BuildingBlock: CIFDUS_clean_linker_0, # of connection points: 2
#     Edge 67, Type (0, 1), BuildingBlock: CIFDUS_clean_linker_0, # of connection points: 2
#     Edge 68, Type (0, 1), BuildingBlock: CIFDUS_clean_linker_0, # of connection points: 2
#     Edge 69, Type (0, 1), BuildingBlock: CIFDUS_clean_linker_0, # of connection points: 2
#     Edge 70, Type (0, 1), BuildingBlock: CIFDUS_clean_linker_0, # of connection points: 2
#     Edge 71, Type (0, 1), BuildingBlock: CIFDUS_clean_linker_0, # of connection points: 2
#     Edge 72, Type (0, 1), BuildingBlock: CIFDUS_clean_linker_0, # of connection points: 2
#     Edge 73, Type (0, 1), BuildingBlock: CIFDUS_clean_linker_0, # of connection points: 2
#     Edge 74, Type (0, 1), BuildingBlock: CIFDUS_clean_linker_0, # of connection points: 2
#     Edge 75, Type (0, 1), BuildingBlock: CIFDUS_clean_linker_0, # of connection points: 2
#     Edge 76, Type (0, 1), BuildingBlock: CIFDUS_clean_linker_0, # of connection points: 2
#     Edge 77, Type (0, 1), BuildingBlock: CIFDUS_clean_linker_0, # of connection points: 2
#     Edge 78, Type (0, 1), BuildingBlock: CIFDUS_clean_linker_0, # of connection points: 2
#     Edge 79, Type (0, 1), BuildingBlock: CIFDUS_clean_linker_0, # of connection points: 2
#     Edge 80, Type (0, 1), BuildingBlock: CIFDUS_clean_linker_0, # of connection points: 2
#     Edge 81, Type (0, 1), BuildingBlock: CIFDUS_clean_linker_0, # of connection points: 2
#     Edge 82, Type (0, 1), BuildingBlock: CIFDUS_clean_linker_0, # of connection points: 2
#     Edge 83, Type (0, 1), BuildingBlock: CIFDUS_clean_linker_0, # of connection points: 2
#     Edge 84, Type (0, 1), BuildingBlock: CIFDUS_clean_linker_0, # of connection points: 2
#     Edge 85, Type (0, 1), BuildingBlock: CIFDUS_clean_linker_0, # of connection points: 2
#     Edge 86, Type (0, 1), BuildingBlock: CIFDUS_clean_linker_0, # of connection points: 2
#     Edge 87, Type (0, 1), BuildingBlock: CIFDUS_clean_linker_0, # of connection points: 2
#     Edge 88, Type (0, 1), BuildingBlock: CIFDUS_clean_linker_0, # of connection points: 2
#     Edge 89, Type (0, 1), BuildingBlock: CIFDUS_clean_linker_0, # of connection points: 2
#     Edge 90, Type (0, 1), BuildingBlock: CIFDUS_clean_linker_0, # of connection points: 2
#     Edge 91, Type (0, 1), BuildingBlock: CIFDUS_clean_linker_0, # of connection points: 2
#     Edge 92, Type (0, 1), BuildingBlock: CIFDUS_clean_linker_0, # of connection points: 2
#     Edge 93, Type (0, 1), BuildingBlock: CIFDUS_clean_linker_0, # of connection points: 2
#     Edge 94, Type (0, 1), BuildingBlock: CIFDUS_clean_linker_0, # of connection points: 2
#     Edge 95, Type (0, 1), BuildingBlock: CIFDUS_clean_linker_0, # of connection points: 2
#     Edge 96, Type (0, 1), BuildingBlock: CIFDUS_clean_linker_0, # of connection points: 2
#     Edge 97, Type (0, 1), BuildingBlock: CIFDUS_clean_linker_0, # of connection points: 2
#     Edge 98, Type (0, 1), BuildingBlock: CIFDUS_clean_linker_0, # of connection points: 2
#     Edge 99, Type (0, 1), BuildingBlock: CIFDUS_clean_linker_0, # of connection points: 2
#     Edge 100, Type (0, 1), BuildingBlock: CIFDUS_clean_linker_0, # of connection points: 2
#     Edge 101, Type (0, 1), BuildingBlock: CIFDUS_clean_linker_0, # of connection points: 2
# Relax obj value: 0.069
# Max RMSD: 0.163
# Mean RMSD: 0.123
data_MOF--net-llk--node1-EZIPEK_clean_sbu_0--node2-PAMTOO_clean_linker_0--edge1-CIFDUS_clean_linker_0
_symmetry_space_group_name_H-M    P1
_symmetry_Int_Tables_number       1
_symmetry_cell_setting            triclinic
loop_
_symmetry_equiv_pos_as_xyz
'x, y, z'
_cell_length_a     41.01798
_cell_length_b     42.019802
_cell_length_c     41.53568
_cell_angle_alpha  89.952175
_cell_angle_beta   90.152773
_cell_angle_gamma 90.07078
loop_
_atom_site_label
_atom_site_type_symbol
_atom_site_fract_x
_atom_site_fract_y
_atom_site_fract_z
_atom_type_partial_charge
H0 H 0.01228 0.36032 0.25318 0.0
H1 H 0.01356 0.28075 0.31789 0.0
H2 H 0.02474 0.26529 0.21627 0.0
H3 H 0.99382 0.20242 0.26005 0.0
C4 C 0.99875 0.21717 0.28173 0.0
O5 O 0.02405 0.23792 0.27451 0.0
H6 H 0.97596 0.23043 0.2873 0.0
C7 C 0.0141 0.3349 0.25714 0.0
C8 C 0.01873 0.31466 0.23061 0.0
C9 C 0.01224 0.3231 0.28867 0.0
C10 C 0.01517 0.29029 0.29378 0.0
C11 C 0.01955 0.26935 0.26801 0.0
C12 C 0.02091 0.28145 0.23619 0.0
H13 H 0.76427 0.0273 0.34496 0.0
H14 H 0.71004 1.01167 0.25759 0.0
H15 H 0.81349 0.02814 0.25372 0.0
H16 H 0.76865 0.05135 0.18358 0.0
C17 C 0.74904 0.04554 0.20104 0.0
O18 O 0.75896 0.01967 0.21934 0.0
H19 H 0.74596 0.0672 0.21623 0.0
C20 C 0.76348 0.02482 0.31899 0.0
C21 C 0.79257 0.02763 0.30164 0.0
C22 C 0.73361 0.01881 0.30359 0.0
C23 C 0.73278 0.0165 0.26998 0.0
C24 C 0.76119 0.02062 0.25191 0.0
C25 C 0.79139 0.02557 0.26771 0.0
H26 H 0.02895 0.75807 0.34918 0.0
H27 H 0.03579 0.70092 0.26404 0.0
H28 H 0.03421 0.80272 0.25558 0.0
H29 H 0.00605 0.76013 0.18828 0.0
C30 C 0.01156 0.73945 0.20406 0.0
O31 O 0.03771 0.74764 0.22369 0.0
H32 H 0.9893 0.73464 0.2186 0.0
C33 C 0.03096 0.75656 0.32323 0.0
C34 C 0.03193 0.78467 0.30465 0.0
C35 C 0.03261 0.72635 0.30883 0.0
C36 C 0.03499 0.72407 0.27537 0.0
C37 C 0.03511 0.75128 0.25611 0.0
C38 C 0.03345 0.78169 0.27064 0.0
H39 H 0.3607 0.03204 0.24927 0.0
H40 H 0.279 0.0214 0.31301 0.0
H41 H 0.26663 1.00576 0.21157 0.0
H42 H 0.19392 0.02336 0.25574 0.0
C43 C 0.21312 0.02658 0.27437 0.0
O44 O 0.23789 1.00509 0.26841 0.0
H45 H 0.22212 0.05155 0.27245 0.0
C46 C 0.33496 0.0275 0.253 0.0
C47 C 0.31542 0.01891 0.2266 0.0
C48 C 0.32238 0.02831 0.28429 0.0
C49 C 0.28927 0.02132 0.28901 0.0
C50 C 0.26913 0.01378 0.26285 0.0
C51 C 0.28206 1.01282 0.23153 0.0
H52 H 0.04058 0.68064 0.76431 0.0
H53 H 0.0421 0.76422 0.70505 0.0
H54 H 0.01635 0.77175 0.80531 0.0
H55 H 0.98621 0.8298 0.76024 0.0
C56 C 0.99904 0.81885 0.7395 0.0
O57 O 0.02702 0.80397 0.75075 0.0
H58 H 0.98181 0.80122 0.72883 0.0
C59 C 0.03741 0.70615 0.76194 0.0
C60 C 0.02712 0.72393 0.78857 0.0
C61 C 0.0424 0.72019 0.73187 0.0
C62 C 0.03846 0.75312 0.72834 0.0
C63 C 0.02953 0.77192 0.75476 0.0
C64 C 0.02378 0.75731 0.78503 0.0
H65 H 0.3482 0.03104 0.75405 0.0
H66 H 0.25617 0.03323 0.7048 0.0
H67 H 0.25894 0.03144 0.80848 0.0
H68 H 0.18775 0.99908 0.77081 0.0
C69 C 0.20174 1.00591 0.74899 0.0
O70 O 0.22056 0.03242 0.7562 0.0
H71 H 0.21727 0.98501 0.74291 0.0
C72 C 0.32176 0.03134 0.75495 0.0
C73 C 0.30613 0.03193 0.78493 0.0
C74 C 0.30404 0.03135 0.72608 0.0
C75 C 0.27006 0.03276 0.72701 0.0
C76 C 0.25365 0.03196 0.75647 0.0
C77 C 0.27165 0.03131 0.78567 0.0
H78 H 0.99553 0.2558 0.67131 0.0
H79 H 1.0043 0.31385 0.75581 0.0
H80 H 0.01736 0.21259 0.76306 0.0
H81 H 0.98844 0.25012 0.83131 0.0
C82 C 0.99238 0.27268 0.81789 0.0
O83 O 0.01667 0.26781 0.79522 0.0
H84 H 0.96873 0.27853 0.80602 0.0
C85 C 0.99977 0.25773 0.69698 0.0
C86 C 0.00713 0.23018 0.71482 0.0
C87 C 0.99896 0.28794 0.71124 0.0
C88 C 1.00466 0.2907 0.74438 0.0
C89 C 0.01053 0.26373 0.76327 0.0
C90 C 0.01172 0.23329 0.74855 0.0
H91 H 0.77608 0.03893 0.67196 0.0
H92 H 0.7172 0.04086 0.7573 0.0
H93 H 0.81849 0.01537 0.76386 0.0
H94 H 0.77102 0.98287 0.8217 0.0
C95 C 0.75111 0.99566 0.80894 0.0
O96 O 0.76352 0.02362 0.79626 0.0
H97 H 0.74224 0.9794 0.78959 0.0
C98 C 0.77388 0.03631 0.69783 0.0
C99 C 0.80112 0.02672 0.71586 0.0
C100 C 0.74351 0.0411 0.7123 0.0
C101 C 0.74057 0.03746 0.74569 0.0
C102 C 0.76747 0.02823 0.76425 0.0
C103 C 0.79789 0.02298 0.74944 0.0
H104 H 0.25618 0.35253 0.98544 0.0
H105 H 0.3234 0.2746 0.98002 0.0
H106 H 0.22175 0.25642 0.99793 0.0
H107 H 0.27241 0.20135 0.029 0.0
C108 C 0.29227 0.216 0.01843 0.0
O109 O 0.28064 0.2303 0.99058 0.0
H110 H 0.29885 0.23412 0.03694 0.0
C111 C 0.26077 0.32713 0.986 0.0
C112 C 0.23488 0.30614 0.99206 0.0
C113 C 0.29268 0.3162 0.98215 0.0
C114 C 0.29879 0.28342 0.98303 0.0
C115 C 0.27347 0.2618 0.98876 0.0
C116 C 0.24128 0.2731 0.99312 0.0
H117 H 0.25889 0.67112 0.01792 0.0
H118 H 0.32442 0.75074 0.02387 0.0
H119 H 0.22391 0.76586 0.99848 0.0
H120 H 0.27883 0.8249 0.97101 0.0
C121 C 0.29567 0.80651 0.98062 0.0
O122 O 0.28187 0.79335 1.00804 0.0
H123 H 0.29827 0.78829 0.9613 0.0
C124 C 0.26317 0.69653 0.01627 0.0
C125 C 0.23732 0.71672 1.00768 0.0
C126 C 0.2946 0.70835 0.02187 0.0
C127 C 0.30025 0.74115 0.01956 0.0
C128 C 0.27507 0.76187 0.01094 0.0
C129 C 0.24337 0.74977 1.00523 0.0
H130 H 0.77502 0.34658 0.9914 0.0
H131 H 0.71088 0.26593 0.99463 0.0
H132 H 0.81427 0.25269 1.00655 0.0
H133 H 0.77296 0.19112 0.97152 0.0
C134 C 0.75012 0.2039 0.97774 0.0
O135 O 0.75628 0.22391 1.00353 0.0
H136 H 0.74283 0.21768 0.95593 0.0
C137 C 0.77157 0.32108 0.99367 0.0
C138 C 0.7986 0.30158 0.99984 0.0
C139 C 0.74001 0.30865 0.99186 0.0
C140 C 0.73526 0.27587 0.99555 0.0
C141 C 0.76192 0.25554 0.99998 0.0
C142 C 0.79379 0.26833 1.00205 0.0
H143 H 0.76906 0.67833 1.00085 0.0
H144 H 0.71202 0.76392 0.99938 0.0
H145 H 0.81655 0.76979 0.99728 0.0
H146 H 0.77362 0.83911 0.0268 0.0
C147 C 0.75415 0.82092 0.02394 0.0
O148 O 0.76121 0.80247 0.99726 0.0
H149 H 0.75442 0.80645 0.04645 0.0
C150 C 0.76782 0.70406 1.00005 0.0
C151 C 0.79684 0.72182 0.99842 0.0
C152 C 0.73717 0.71882 1.00057 0.0
C153 C 0.73544 0.75204 0.99911 0.0
C154 C 0.76389 0.77037 0.99847 0.0
C155 C 0.79467 0.75538 0.99835 0.0
H156 H 0.51129 0.84227 0.75428 0.0
H157 H 0.51653 0.76024 0.81485 0.0
H158 H 0.52455 0.74949 0.71189 0.0
H159 H 0.49683 0.68489 0.75221 0.0
C160 C 0.50258 0.69752 0.77504 0.0
O161 O 0.52718 0.71949 0.76907 0.0
H162 H 0.47974 0.70972 0.78257 0.0
C163 C 0.51276 0.81659 0.75632 0.0
C164 C 0.5164 0.79793 0.72858 0.0
C165 C 0.51143 0.80328 0.78705 0.0
C166 C 0.5167 0.77065 0.79098 0.0
C167 C 0.52151 0.75107 0.76409 0.0
C168 C 0.52114 0.76465 0.73266 0.0
H169 H 0.27746 0.49884 0.84711 0.0
H170 H 0.21666 0.50212 0.76279 0.0
H171 H 0.31882 0.52336 0.75526 0.0
H172 H 0.266 0.55904 0.69488 0.0
C173 C 0.24934 0.54867 0.71314 0.0
O174 O 0.26255 0.52035 0.72409 0.0
H175 H 0.24745 0.56643 0.73298 0.0
C176 C 0.27486 0.50179 0.8213 0.0
C177 C 0.30235 0.50972 0.80288 0.0
C178 C 0.24392 0.49883 0.80729 0.0
C179 C 0.24033 0.5044 0.77421 0.0
C180 C 0.26705 0.51393 0.7557 0.0
C181 C 0.29814 0.51659 0.76993 0.0
H182 H 0.50709 0.26738 0.84966 0.0
H183 H 0.50969 0.20938 0.76495 0.0
H184 H 0.51927 0.31098 0.75641 0.0
H185 H 0.48955 0.27066 0.68961 0.0
C186 C 0.49523 0.24865 0.70337 0.0
O187 O 0.52026 0.25528 0.72493 0.0
H188 H 0.47245 0.24195 0.71629 0.0
C189 C 0.50805 0.26571 0.82365 0.0
C190 C 0.51193 0.29349 0.8052 0.0
C191 C 0.50619 0.23555 0.8095 0.0
C192 C 0.51061 0.23259 0.77626 0.0
C193 C 0.51539 0.25951 0.75703 0.0
C194 C 0.51582 0.29016 0.7714 0.0
H195 H 0.84376 0.49586 0.75973 0.0
H196 H 0.75487 0.49214 0.81371 0.0
H197 H 0.75122 0.50596 0.71118 0.0
H198 H 0.67736 0.52884 0.76017 0.0
C199 C 0.69963 0.52621 0.7752 0.0
O200 O 0.71642 0.49951 0.76488 0.0
H201 H 0.71442 0.54812 0.77117 0.0
C202 C 0.81736 0.49708 0.76022 0.0
C203 C 0.79992 0.50162 0.73141 0.0
C204 C 0.80144 0.49434 0.78992 0.0
C205 C 0.76744 0.49412 0.79087 0.0
C206 C 0.74934 0.49851 0.76271 0.0
C207 C 0.76545 0.50224 0.73285 0.0
H208 H 0.52783 0.16587 0.24931 0.0
H209 H 0.53033 0.25627 0.2016 0.0
H210 H 0.53863 0.25208 0.30481 0.0
H211 H 0.51142 0.3279 0.26712 0.0
C212 C 0.51376 0.31184 0.24602 0.0
O213 O 0.53862 0.29025 0.25255 0.0
H214 H 0.48995 0.29936 0.24322 0.0
C215 C 0.52941 0.19159 0.25071 0.0
C216 C 0.53347 0.20626 0.28092 0.0
C217 C 0.52845 0.2094 0.22213 0.0
C218 C 0.53116 0.24244 0.22358 0.0
C219 C 0.53433 0.2581 0.25301 0.0
C220 C 0.53518 0.24005 0.28201 0.0
H221 H 0.86287 0.5271 0.2735 0.0
H222 H 0.782 0.53163 0.20742 0.0
H223 H 0.76477 0.5145 0.30784 0.0
H224 H 0.70693 0.48263 0.25864 0.0
C225 C 0.72423 0.49111 0.23996 0.0
O226 O 0.73778 0.51958 0.25011 0.0
H227 H 0.74313 0.47222 0.23747 0.0
C228 C 0.83686 0.52642 0.26889 0.0
C229 C 0.8154 0.52091 0.29463 0.0
C230 C 0.82533 0.53016 0.23729 0.0
C231 C 0.79162 0.52874 0.23157 0.0
C232 C 0.76993 0.52277 0.25678 0.0
C233 C 0.78169 0.51926 0.28844 0.0
H234 H 0.53728 0.75548 0.16772 0.0
H235 H 0.54669 0.82116 0.24602 0.0
H236 H 0.52921 0.72203 0.26544 0.0
H237 H 0.49624 0.77338 0.31982 0.0
C238 C 0.50812 0.79279 0.30593 0.0
O239 O 0.53571 0.78028 0.2913 0.0
H240 H 0.49016 0.80111 0.28761 0.0
C241 C 0.53847 0.75993 0.19339 0.0
C242 C 0.53463 0.73442 0.21489 0.0
C243 C 0.54321 0.79109 0.2042 0.0
C244 C 0.5428 0.79722 0.23731 0.0
C245 C 0.53683 0.77281 0.25944 0.0
C246 C 0.53285 0.74112 0.24829 0.0
H247 H 0.26691 0.53542 0.1747 0.0
H248 H 0.20673 0.52214 0.25824 0.0
H249 H 0.31098 0.52147 0.26782 0.0
H250 H 0.246 0.56672 0.30695 0.0
C251 C 0.24662 0.54335 0.31969 0.0
O252 O 0.2544 0.51883 0.29885 0.0
H253 H 0.26617 0.5453 0.33815 0.0
C254 C 0.26457 0.53114 0.20033 0.0
C255 C 0.29292 0.5273 0.21901 0.0
C256 C 0.23334 0.52879 0.2139 0.0
C257 C 0.2305 0.52465 0.24722 0.0
C258 C 0.25828 0.52309 0.26674 0.0
C259 C 0.28961 0.52424 0.25272 0.0
H260 H 0.77126 0.8473 0.52958 0.0
H261 H 0.82469 0.7601 0.52147 0.0
H262 H 0.72019 0.75733 0.52614 0.0
H263 H 0.76525 0.68461 0.55107 0.0
C264 C 0.78384 0.70362 0.54806 0.0
O265 O 0.77444 0.72301 0.5227 0.0
H266 H 0.78429 0.71705 0.5712 0.0
C267 C 0.77115 0.82159 0.52758 0.0
C268 C 0.74131 0.80484 0.52716 0.0
C269 C 0.80117 0.80573 0.52539 0.0
C270 C 0.80171 0.77257 0.52388 0.0
C271 C 0.77277 0.75514 0.52495 0.0
C272 C 0.74249 0.77113 0.52659 0.0
H273 H 0.76576 0.1775 0.52531 0.0
H274 H 0.82413 0.26241 0.52631 0.0
H275 H 0.71971 0.26961 0.52362 0.0
H276 H 0.7598 0.33235 0.49286 0.0
C277 C 0.78255 0.32032 0.50084 0.0
O278 O 0.77559 0.30165 0.52746 0.0
H279 H 0.7909 0.3055 0.48021 0.0
C280 C 0.76743 0.20322 0.5244 0.0
C281 C 0.73868 0.22137 0.52324 0.0
C282 C 0.79837 0.21752 0.52461 0.0
C283 C 0.80055 0.25078 0.52605 0.0
C284 C 0.77239 0.26954 0.52592 0.0
C285 C 0.74137 0.25491 0.5243 0.0
H286 H 0.27018 0.8464 0.51604 0.0
H287 H 0.21312 0.76104 0.52482 0.0
H288 H 0.31736 0.75483 0.51858 0.0
H289 H 0.27698 0.6909 0.48914 0.0
C290 C 0.25455 0.70359 0.4968 0.0
O291 O 0.26197 0.7223 0.52328 0.0
H292 H 0.24671 0.71842 0.47591 0.0
C293 C 0.26887 0.82073 0.51762 0.0
C294 C 0.2979 0.80287 0.51718 0.0
C295 C 0.23814 0.8061 0.52001 0.0
C296 C 0.23647 0.77288 0.52241 0.0
C297 C 0.26479 0.75443 0.52155 0.0
C298 C 0.29557 0.76933 0.51913 0.0
H299 H 0.27429 0.17653 0.49911 0.0
H300 H 0.21203 0.25837 0.49439 0.0
H301 H 0.31549 0.27042 0.50786 0.0
H302 H 0.27384 0.32698 0.54115 0.0
C303 C 0.25104 0.31633 0.53144 0.0
O304 O 0.25831 0.30006 0.50336 0.0
H305 H 0.24171 0.29975 0.55026 0.0
C306 C 0.27149 0.20219 0.4989 0.0
C307 C 0.29911 0.22156 0.50253 0.0
C308 C 0.24026 0.21497 0.49512 0.0
C309 C 0.23607 0.24803 0.49717 0.0
C310 C 0.263 0.26807 0.50231 0.0
C311 C 0.29465 0.25485 0.50484 0.0
C312 C 0.01632 0.93715 0.58665 0.0
C313 C 0.02855 0.93015 0.43088 0.0
C314 C 0.01486 0.09273 0.58017 0.0
C315 C 0.01229 0.0842 0.42193 0.0
C316 C 0.93497 0.08499 0.50107 0.0
C317 C 0.94273 0.93194 0.50095 0.0
C318 C 0.09171 0.09386 0.50371 0.0
C319 C 0.10065 0.93987 0.51457 0.0
C320 C 0.09837 0.01859 0.42894 0.0
C321 C 0.9418 1.00711 0.42332 0.0
C322 C 0.09462 0.01735 0.58624 0.0
C323 C 0.93649 1.00894 0.58035 0.0
Eu324 Eu 0.02094 0.95178 0.50783 0.0
O325 O 0.99109 0.98043 0.4765 0.0
O326 O 0.04699 0.9869 0.53572 0.0
Eu327 Eu 0.95662 1.00923 0.50248 0.0
Eu328 Eu 0.0795 0.01555 0.50692 0.0
O329 O 0.9897 0.98395 0.53375 0.0
O330 O 0.04976 0.98354 0.47847 0.0
Eu331 Eu 0.01583 0.01461 0.5665 0.0
Eu332 Eu 0.01982 1.00816 0.44378 0.0
O333 O 0.98651 0.04025 0.53159 0.0
O334 O 0.98902 0.03717 0.47374 0.0
O335 O 0.04559 0.03989 0.47595 0.0
O336 O 0.04411 0.04302 0.53321 0.0
Eu337 Eu 0.01452 0.07225 0.50188 0.0
O338 O 0.018 0.92694 0.55623 0.0
O339 O 0.02754 0.92275 0.46218 0.0
O340 O 0.01485 0.10048 0.54884 0.0
O341 O 0.01278 0.09621 0.45191 0.0
O342 O 0.92676 0.05429 0.5009 0.0
O343 O 0.93195 0.96174 0.49916 0.0
O344 O 0.10366 0.06433 0.50565 0.0
O345 O 0.10895 0.97044 0.51162 0.0
O346 O 0.06779 0.01548 0.41855 0.0
O347 O 0.97297 1.00361 0.41495 0.0
O348 O 0.06327 0.01643 0.59495 0.0
O349 O 0.96673 0.01326 0.5915 0.0
O350 O 0.06035 0.10176 0.50192 0.0
O351 O 0.96525 0.09656 0.50193 0.0
O352 O 0.07037 0.92814 0.51369 0.0
O353 O 0.97375 0.92296 0.50509 0.0
O354 O 0.02568 0.95964 0.41889 0.0
O355 O 0.01441 0.05333 0.41455 0.0
O356 O 0.01583 0.96786 0.59556 0.0
O357 O 0.01438 0.06299 0.59175 0.0
O358 O 0.9281 1.00639 0.54929 0.0
O359 O 0.93089 1.01068 0.45347 0.0
O360 O 0.10538 0.01765 0.55579 0.0
O361 O 0.10825 0.01783 0.4597 0.0
C362 C 0.52817 0.93769 0.08448 0.0
C363 C 0.5112 0.08944 0.07705 0.0
C364 C 0.5184 0.92807 0.92961 0.0
C365 C 0.51016 0.0821 0.92035 0.0
C366 C 0.59147 1.00975 0.91977 0.0
C367 C 0.60256 0.01695 0.07449 0.0
C368 C 0.43257 1.00525 0.92957 0.0
C369 C 0.44432 1.00624 0.08493 0.0
C370 C 0.43231 0.08199 1.00308 0.0
C371 C 0.59153 0.09208 0.99545 0.0
C372 C 0.44241 0.92855 0.01113 0.0
C373 C 0.60186 0.93855 0.99962 0.0
Eu374 Eu 0.52201 1.01294 0.06289 0.0
O375 O 0.54629 0.04237 0.02786 0.0
O376 O 0.49263 0.98139 0.03402 0.0
Eu377 Eu 0.57798 0.01409 0.9983 0.0
Eu378 Eu 0.45624 1.00619 1.00616 0.0
O379 O 0.55009 0.9846 0.03027 0.0
O380 O 0.48894 0.03769 0.03115 0.0
Eu381 Eu 0.52131 0.94914 1.00574 0.0
Eu382 Eu 0.51296 0.07078 0.99954 0.0
O383 O 0.54553 0.98199 0.97375 0.0
O384 O 0.54157 0.03857 0.97057 0.0
O385 O 0.48504 0.03496 0.97427 0.0
O386 O 0.48837 0.97775 0.97692 0.0
Eu387 Eu 0.51314 1.00633 0.94133 0.0
O388 O 0.52695 0.96833 0.09251 0.0
O389 O 0.51522 0.05982 0.08767 0.0
O390 O 0.51286 0.95728 0.91793 0.0
O391 O 0.51261 0.05157 0.91196 0.0
O392 O 0.60245 0.01417 0.94967 0.0
O393 O 0.60917 0.01545 0.04311 0.0
O394 O 0.42512 1.00308 0.96078 0.0
O395 O 0.43192 1.00659 0.0552 0.0
O396 O 0.46236 0.09433 1.0003 0.0
O397 O 0.55994 0.10031 0.9962 0.0
O398 O 0.47379 0.91969 1.00882 0.0
O399 O 0.5721 0.92609 1.00422 0.0
O400 O 0.46278 1.00723 0.91759 0.0
O401 O 0.56011 1.00565 0.91164 0.0
O402 O 0.47597 1.00781 0.09245 0.0
O403 O 0.57244 0.01758 0.08698 0.0
O404 O 0.511 0.09894 0.04632 0.0
O405 O 0.50891 0.09359 0.95031 0.0
O406 O 0.52658 0.92588 0.05468 0.0
O407 O 0.52293 0.92036 0.96035 0.0
O408 O 0.60847 0.96949 0.99646 0.0
O409 O 0.60269 0.06226 0.99603 0.0
O410 O 0.4317 0.95847 0.01089 0.0
O411 O 0.42568 0.05099 1.00582 0.0
C412 C 0.02185 0.43916 0.08474 0.0
C413 C 0.01028 0.43077 0.92763 0.0
C414 C 0.01465 0.59468 0.07638 0.0
C415 C 0.0117 0.58657 0.92085 0.0
C416 C 0.93613 0.58907 0.99736 0.0
C417 C 0.93636 0.4343 0.01101 0.0
C418 C 0.09471 0.58898 0.99366 0.0
C419 C 0.09392 0.43436 1.00592 0.0
C420 C 0.08969 0.50696 0.92114 0.0
C421 C 0.9332 0.51129 0.92809 0.0
C422 C 0.09782 0.5165 0.07629 0.0
C423 C 0.9395 0.51637 0.08293 0.0
Eu424 Eu 0.01501 0.45118 1.00546 0.0
O425 O 0.9848 0.48185 0.97616 0.0
O426 O 0.04436 0.48573 0.03085 0.0
Eu427 Eu 0.9539 0.51182 1.00485 0.0
Eu428 Eu 0.07626 0.51179 0.99962 0.0
O429 O 0.98801 0.48536 0.03384 0.0
O430 O 0.04263 0.48183 0.97387 0.0
Eu431 Eu 0.01801 0.51612 0.06352 0.0
Eu432 Eu 0.01238 0.50922 0.94167 0.0
O433 O 0.98757 0.54225 0.03052 0.0
O434 O 0.98568 0.53887 0.9742 0.0
O435 O 0.04264 0.53919 0.97119 0.0
O436 O 0.04584 0.54252 0.02849 0.0
Eu437 Eu 0.01546 0.57302 0.99938 0.0
O438 O 0.01843 0.4273 0.05498 0.0
O439 O 0.01279 0.42235 0.95868 0.0
O440 O 0.01363 0.60209 0.04515 0.0
O441 O 0.01419 0.59774 0.95083 0.0
O442 O 0.92668 0.5587 1.00008 0.0
O443 O 0.92683 0.46474 0.01023 0.0
O444 O 0.10372 0.55839 0.99347 0.0
O445 O 0.10345 0.46481 1.00459 0.0
O446 O 0.05849 0.50868 0.91245 0.0
O447 O 0.96366 0.51167 0.91718 0.0
O448 O 0.06757 0.51822 0.088 0.0
O449 O 0.97079 0.51698 0.09197 0.0
O450 O 0.06412 0.5995 0.99692 0.0
O451 O 0.96696 0.59942 0.99731 0.0
O452 O 0.06308 0.42418 1.00527 0.0
O453 O 0.96712 0.42419 0.00899 0.0
O454 O 0.0094 0.46082 0.91683 0.0
O455 O 0.01054 0.55567 0.91278 0.0
O456 O 0.02222 0.47015 0.09234 0.0
O457 O 0.0173 0.56512 0.08834 0.0
O458 O 0.92848 0.51484 0.05277 0.0
O459 O 0.92408 0.50957 0.95883 0.0
O460 O 0.10578 0.51432 0.04528 0.0
O461 O 0.10113 0.50667 0.95125 0.0
C462 C 0.51413 0.43752 0.09802 0.0
C463 C 0.5252 0.59101 0.08936 0.0
C464 C 0.51525 0.43031 0.9399 0.0
C465 C 0.52246 0.58512 0.93239 0.0
C466 C 0.60062 0.50318 0.93802 0.0
C467 C 0.59567 0.51216 0.09581 0.0
C468 C 0.44343 0.50782 0.93386 0.0
C469 C 0.43729 0.51379 0.08994 0.0
C470 C 0.44496 0.5904 0.01128 0.0
C471 C 0.60203 0.58401 0.01545 0.0
C472 C 0.43891 0.43573 0.01529 0.0
C473 C 0.59494 0.42987 0.0179 0.0
Eu474 Eu 0.51711 0.51368 0.07573 0.0
O475 O 0.54839 0.53795 0.04211 0.0
O476 O 0.48856 0.48448 0.04394 0.0
Eu477 Eu 0.58186 0.50775 0.01648 0.0
Eu478 Eu 0.45832 0.51251 0.01254 0.0
O479 O 0.54692 0.48271 0.04623 0.0
O480 O 0.49086 0.54162 0.04084 0.0
Eu481 Eu 0.51763 0.45031 0.01836 0.0
Eu482 Eu 0.52272 0.57044 0.01147 0.0
O483 O 0.54819 0.47985 0.98839 0.0
O484 O 0.5516 0.53647 0.98505 0.0
O485 O 0.49285 0.5385 0.98351 0.0
O486 O 0.49158 0.48238 0.98702 0.0
Eu487 Eu 0.52168 0.50804 0.95337 0.0
O488 O 0.51359 0.46844 0.10543 0.0
O489 O 0.51984 0.56179 0.10092 0.0
O490 O 0.51911 0.45981 0.92847 0.0
O491 O 0.52296 0.55435 0.92382 0.0
O492 O 0.61057 0.50572 0.96875 0.0
O493 O 0.60733 0.50855 0.06586 0.0
O494 O 0.43262 0.50946 0.96414 0.0
O495 O 0.42917 0.51201 0.05881 0.0
O496 O 0.47624 0.59895 0.01081 0.0
O497 O 0.57184 0.59502 0.01114 0.0
O498 O 0.46926 0.4254 0.01949 0.0
O499 O 0.56372 0.42148 0.01948 0.0
O500 O 0.47454 0.50773 0.92468 0.0
O501 O 0.56978 0.50316 0.92797 0.0
O502 O 0.46776 0.51604 0.10131 0.0
O503 O 0.56424 0.51429 0.10368 0.0
O504 O 0.52727 0.59868 0.05813 0.0
O505 O 0.52246 0.59554 0.96283 0.0
O506 O 0.51639 0.42575 0.06807 0.0
O507 O 0.51384 0.42231 0.97116 0.0
O508 O 0.60657 0.45952 0.01643 0.0
O509 O 0.61057 0.55353 0.01833 0.0
O510 O 0.4298 0.46603 0.01141 0.0
O511 O 0.43343 0.56064 0.0119 0.0
C512 C 0.01628 0.44047 0.59982 0.0
C513 C 0.02086 0.43418 0.44368 0.0
C514 C 0.01914 0.59475 0.59229 0.0
C515 C 0.01244 0.58843 0.43825 0.0
C516 C 0.93568 0.58819 0.51538 0.0
C517 C 0.93965 0.43438 0.51917 0.0
C518 C 0.09564 0.59199 0.51458 0.0
C519 C 0.0979 0.43673 0.52218 0.0
C520 C 0.09845 0.51177 0.44102 0.0
C521 C 0.93946 0.50655 0.44023 0.0
C522 C 0.09843 0.51528 0.59592 0.0
C523 C 0.93893 0.51718 0.59691 0.0
Eu524 Eu 0.01863 0.45359 0.52092 0.0
O525 O 0.98988 0.48427 0.4908 0.0
O526 O 0.04731 0.48695 0.54843 0.0
Eu527 Eu 0.95601 0.51194 0.51857 0.0
Eu528 Eu 0.07953 0.51427 0.51847 0.0
O529 O 0.9897 0.48622 0.54868 0.0
O530 O 0.04729 0.48473 0.49087 0.0
Eu531 Eu 0.01862 0.51653 0.57986 0.0
Eu532 Eu 0.01865 0.51192 0.45727 0.0
O533 O 0.98822 0.54222 0.54623 0.0
O534 O 0.98828 0.53992 0.48876 0.0
O535 O 0.04653 0.54178 0.48894 0.0
O536 O 0.04643 0.54363 0.54573 0.0
Eu537 Eu 0.01605 0.57382 0.51619 0.0
O538 O 0.01558 0.42954 0.56964 0.0
O539 O 0.02121 0.42529 0.47454 0.0
O540 O 0.01617 0.60279 0.56147 0.0
O541 O 0.01177 0.59864 0.46854 0.0
O542 O 0.92736 0.55753 0.51521 0.0
O543 O 0.92927 0.4645 0.5198 0.0
O544 O 0.10596 0.56188 0.51693 0.0
O545 O 0.10771 0.46709 0.51975 0.0
O546 O 0.0676 0.51263 0.43025 0.0
O547 O 0.97059 0.50722 0.43087 0.0
O548 O 0.0677 0.5169 0.6067 0.0
O549 O 0.97014 0.51923 0.60627 0.0
O550 O 0.06432 0.60108 0.51347 0.0
O551 O 0.96631 0.59938 0.51679 0.0
O552 O 0.06681 0.42733 0.52364 0.0
O553 O 0.97098 0.42554 0.51902 0.0
O554 O 0.0198 0.46403 0.43271 0.0
O555 O 0.01585 0.55823 0.42872 0.0
O556 O 0.0183 0.4709 0.60875 0.0
O557 O 0.02125 0.56517 0.60399 0.0
O558 O 0.92866 0.51357 0.5665 0.0
O559 O 0.92883 0.50878 0.47057 0.0
O560 O 0.1073 0.5143 0.56514 0.0
O561 O 0.10737 0.51192 0.47188 0.0
C562 C 0.51536 0.93498 0.59419 0.0
C563 C 0.51601 0.93357 0.4382 0.0
C564 C 0.51349 0.09134 0.5929 0.0
C565 C 0.52058 0.0902 0.43567 0.0
C566 C 0.43909 0.09034 0.50805 0.0
C567 C 0.43907 0.93485 0.51167 0.0
C568 C 0.59702 0.09042 0.51338 0.0
C569 C 0.59815 0.93601 0.51823 0.0
C570 C 0.5993 1.00921 0.44055 0.0
C571 C 0.44127 1.01296 0.43482 0.0
C572 C 0.59243 0.01713 0.59638 0.0
C573 C 0.43548 1.01127 0.58917 0.0
Eu574 Eu 0.51832 0.95175 0.51623 0.0
O575 O 0.49073 0.98411 0.48611 0.0
O576 O 0.54571 0.98458 0.54565 0.0
Eu577 Eu 0.4566 1.01266 0.51271 0.0
Eu578 Eu 0.57871 0.01314 0.51759 0.0
O579 O 0.48787 0.98423 0.5429 0.0
O580 O 0.54751 0.9841 0.48785 0.0
Eu581 Eu 0.51501 0.01318 0.57612 0.0
Eu582 Eu 0.51995 1.01207 0.45355 0.0
O583 O 0.48761 0.04181 0.54245 0.0
O584 O 0.49037 0.04078 0.48509 0.0
O585 O 0.54723 0.04108 0.48714 0.0
O586 O 0.54497 0.04162 0.54458 0.0
Eu587 Eu 0.5177 0.07384 0.51449 0.0
O588 O 0.51787 0.92486 0.56384 0.0
O589 O 0.5165 0.92491 0.46913 0.0
O590 O 0.51613 0.10077 0.5622 0.0
O591 O 0.51784 0.09991 0.46624 0.0
O592 O 0.42969 0.05982 0.50741 0.0
O593 O 0.4298 0.96534 0.5102 0.0
O594 O 0.60624 0.05991 0.5137 0.0
O595 O 0.60681 0.96668 0.51955 0.0
O596 O 0.56899 1.01019 0.42889 0.0
O597 O 0.47237 0.01457 0.4255 0.0
O598 O 0.56136 0.0144 0.60514 0.0
O599 O 0.46597 1.01058 0.60031 0.0
O600 O 0.56621 0.10072 0.51471 0.0
O601 O 0.46965 0.10063 0.5118 0.0
O602 O 0.56738 0.92532 0.51685 0.0
O603 O 0.46981 0.92473 0.51513 0.0
O604 O 0.51768 0.96365 0.42726 0.0
O605 O 0.52275 0.05972 0.42618 0.0
O606 O 0.51369 0.9656 0.60329 0.0
O607 O 0.51216 0.06091 0.60269 0.0
O608 O 0.42653 0.01328 0.55837 0.0
O609 O 0.43069 1.01099 0.465 0.0
O610 O 0.60367 0.01773 0.56622 0.0
O611 O 0.60768 1.00997 0.47159 0.0
H612 H 0.18006 0.21514 0.52303 0.0
H613 H 0.23885 0.16492 0.45369 0.0
H614 H 0.1983 0.12263 0.45054 0.0
H615 H 0.1479 0.09796 0.47027 0.0
H616 H 0.08712 0.14931 0.53669 0.0
H617 H 0.12646 0.1931 0.53822 0.0
C618 C 0.18361 0.19529 0.50675 0.0
C619 C 0.21269 0.19284 0.48917 0.0
C620 C 0.16007 0.17101 0.50489 0.0
C621 C 0.21695 0.16697 0.46807 0.0
C622 C 0.19382 0.14275 0.46623 0.0
C623 C 0.14341 0.11878 0.48506 0.0
C624 C 0.11511 0.12037 0.50377 0.0
C625 C 0.16571 0.1441 0.48516 0.0
C626 C 0.10896 0.14765 0.52227 0.0
C627 C 0.1314 0.17266 0.52311 0.0
H628 H 0.80616 0.16446 0.48837 0.0
H629 H 0.85765 0.22553 0.55489 0.0
H630 H 0.90558 0.19116 0.5514 0.0
H631 H 0.93174 0.14201 0.53161 0.0
H632 H 0.87765 0.07903 0.46917 0.0
H633 H 0.8315 0.11563 0.46944 0.0
C634 C 0.82764 0.17011 0.50254 0.0
C635 C 0.82807 0.19739 0.52216 0.0
C636 C 0.85459 0.1498 0.50124 0.0
C637 C 0.85663 0.20481 0.53943 0.0
C638 C 0.88399 0.18505 0.53762 0.0
C639 C 0.9099 0.13654 0.51789 0.0
C640 C 0.90797 0.10798 0.50039 0.0
C641 C 0.88311 0.1573 0.51886 0.0
C642 C 0.87951 0.10083 0.48298 0.0
C643 C 0.85319 0.12174 0.48308 0.0
H644 H 0.81318 0.85479 0.48553 0.0
H645 H 0.85801 0.79697 0.55902 0.0
H646 H 0.908 0.82893 0.55564 0.0
H647 H 0.93728 0.87611 0.53423 0.0
H648 H 0.89073 0.93372 0.46141 0.0
H649 H 0.84327 0.89889 0.46177 0.0
C650 C 0.83389 0.84929 0.50086 0.0
C651 C 0.83187 0.82405 0.52284 0.0
C652 C 0.86228 0.86764 0.49877 0.0
C653 C 0.85907 0.81652 0.54203 0.0
C654 C 0.88758 0.83475 0.5401 0.0
C655 C 0.91697 0.88052 0.51805 0.0
C656 C 0.91727 0.90745 0.498 0.0
C657 C 0.88931 0.86069 0.51884 0.0
C658 C 0.8908 0.91323 0.47728 0.0
C659 C 0.86364 0.89341 0.4775 0.0
H660 H 0.22819 0.86393 0.5478 0.0
H661 H 0.17997 0.79248 0.49006 0.0
H662 H 0.13204 0.82657 0.48529 0.0
H663 H 0.10523 0.87837 0.49446 0.0
H664 H 0.15636 0.95121 0.54766 0.0
H665 H 0.20207 0.9152 0.55651 0.0
C666 C 0.2074 0.85584 0.53384 0.0
C667 C 0.20795 0.82573 0.5191 0.0
C668 C 0.18051 0.87601 0.53009 0.0
C669 C 0.18022 0.81538 0.50199 0.0
C670 C 0.15287 0.835 0.49896 0.0
C671 C 0.12634 0.88619 0.50812 0.0
C672 C 0.12757 0.91738 0.52025 0.0
C673 C 0.15294 0.86557 0.51249 0.0
C674 C 0.15507 0.9274 0.53776 0.0
C675 C 0.18114 0.9068 0.54295 0.0
H676 H 0.48739 0.16161 0.20602 0.0
H677 H 0.56348 0.22136 0.16751 0.0
H678 H 0.56159 0.19221 0.11664 0.0
H679 H 0.54207 0.14604 0.08516 0.0
H680 H 0.46877 0.0845 0.12585 0.0
H681 H 0.46554 0.11806 0.17365 0.0
C682 C 0.50354 0.16821 0.18647 0.0
C683 C 0.52574 0.19328 0.19058 0.0
C684 C 0.50277 0.15102 0.15765 0.0
C685 C 0.54607 0.20213 0.16484 0.0
C686 C 0.54511 0.18541 0.13581 0.0
C687 C 0.52494 0.14058 0.10425 0.0
C688 C 0.50572 0.11306 0.10231 0.0
C689 C 0.52403 0.15938 0.13217 0.0
C690 C 0.48384 0.10568 0.12716 0.0
C691 C 0.48208 0.12471 0.15447 0.0
H692 H 0.82136 0.50286 0.17808 0.0
H693 H 0.88238 0.56433 0.23584 0.0
H694 H 0.92361 0.56469 0.1936 0.0
H695 H 0.94296 0.54641 0.14069 0.0
H696 H 0.88003 0.4881 0.08179 0.0
H697 H 0.83868 0.48808 0.1239 0.0
C698 C 0.84333 0.51692 0.18125 0.0
C699 C 0.8488 0.5333 0.21027 0.0
C700 C 0.86671 0.51745 0.15671 0.0
C701 C 0.87776 0.55096 0.21401 0.0
C702 C 0.90132 0.5513 0.18983 0.0
C703 C 0.92021 0.53366 0.1372 0.0
C704 C 0.91463 0.517 0.10841 0.0
C705 C 0.89624 0.53429 0.16125 0.0
C706 C 0.88485 0.50105 0.10382 0.0
C707 C 0.86121 0.50101 0.12787 0.0
H708 H 0.51793 0.85084 0.20694 0.0
H709 H 0.57784 0.78987 0.14797 0.0
H710 H 0.57844 0.82995 0.10554 0.0
H711 H 0.55941 0.88109 0.08406 0.0
H712 H 0.50334 0.94365 0.14469 0.0
H713 H 0.50431 0.90433 0.18796 0.0
C714 C 0.53175 0.84654 0.18516 0.0
C715 C 0.54727 0.81714 0.18045 0.0
C716 C 0.5325 0.86986 0.16109 0.0
C717 C 0.56489 0.81197 0.15188 0.0
C718 C 0.56541 0.83491 0.12765 0.0
C719 C 0.54747 0.88605 0.10679 0.0
C720 C 0.53078 0.91482 0.11109 0.0
C721 C 0.54872 0.86365 0.13174 0.0
C722 C 0.51606 0.92145 0.14082 0.0
C723 C 0.51661 0.89901 0.16554 0.0
H724 H 0.22741 0.50136 0.15528 0.0
H725 H 0.17305 0.55544 0.22525 0.0
H726 H 0.12542 0.55503 0.18961 0.0
H727 H 0.09996 0.54068 0.13743 0.0
H728 H 0.15756 0.49106 0.06653 0.0
H729 H 0.20341 0.48907 0.10347 0.0
C730 C 0.20542 0.51365 0.16263 0.0
C731 C 0.20405 0.52873 0.19277 0.0
C732 C 0.17867 0.51419 0.14177 0.0
C733 C 0.1748 0.54346 0.20224 0.0
C734 C 0.14761 0.54342 0.1818 0.0
C735 C 0.12254 0.52937 0.13019 0.0
C736 C 0.12524 0.51588 0.09933 0.0
C737 C 0.14934 0.529 0.15137 0.0
C738 C 0.15475 0.5016 0.09012 0.0
C739 C 0.18105 0.50042 0.11124 0.0
H740 H 0.54558 0.80828 0.843 0.0
H741 H 0.46282 0.84657 0.79183 0.0
H742 H 0.45775 0.88917 0.83135 0.0
H743 H 0.4794 0.91784 0.87819 0.0
H744 H 0.56068 0.87867 0.93086 0.0
H745 H 0.56395 0.8342 0.89306 0.0
C746 C 0.52603 0.82554 0.84103 0.0
C747 C 0.50487 0.82463 0.81449 0.0
C748 C 0.52338 0.85012 0.86372 0.0
C749 C 0.47964 0.84715 0.81199 0.0
C750 C 0.4768 0.87156 0.83444 0.0
C751 C 0.49782 0.89956 0.88122 0.0
C752 C 0.52004 0.90156 0.90675 0.0
C753 C 0.49909 0.87378 0.85988 0.0
C754 C 0.54341 0.8775 0.9111 0.0
C755 C 0.54526 0.8521 0.88959 0.0
H756 H 0.18391 0.52603 0.80404 0.0
H757 H 0.24002 0.45685 0.85746 0.0
H758 H 0.19679 0.45296 0.89746 0.0
H759 H 0.14501 0.4724 0.9194 0.0
H760 H 0.08749 0.53909 0.86451 0.0
H761 H 0.1292 0.54043 0.82254 0.0
C762 C 0.18637 0.50949 0.82395 0.0
C763 C 0.2154 0.49222 0.82807 0.0
C764 C 0.16135 0.50717 0.84673 0.0
C765 C 0.21821 0.47101 0.85417 0.0
C766 C 0.19352 0.46871 0.87702 0.0
C767 C 0.14166 0.48708 0.89814 0.0
C768 C 0.11368 0.50595 0.89507 0.0
C769 C 0.1654 0.48733 0.87399 0.0
C770 C 0.10905 0.52444 0.86726 0.0
C771 C 0.13284 0.52525 0.84335 0.0
H772 H 0.53426 0.17677 0.80588 0.0
H773 H 0.4633 0.23113 0.85922 0.0
H774 H 0.45746 0.1878 0.8977 0.0
H775 H 0.47532 0.1362 0.91834 0.0
H776 H 0.54386 0.08021 0.86402 0.0
H777 H 0.5473 0.12221 0.82324 0.0
C778 C 0.51705 0.17888 0.82553 0.0
C779 C 0.49983 0.20742 0.83009 0.0
C780 C 0.51345 0.15368 0.84741 0.0
C781 C 0.47759 0.20976 0.85572 0.0
C782 C 0.47407 0.18495 0.87764 0.0
C783 C 0.49082 0.13318 0.89743 0.0
C784 C 0.50963 0.10558 0.89422 0.0
C785 C 0.49244 0.15716 0.87414 0.0
C786 C 0.52919 0.10144 0.86685 0.0
C787 C 0.53126 0.12545 0.84367 0.0
H788 H 0.85003 0.53446 0.80443 0.0
H789 H 0.79509 0.4557 0.84296 0.0
H790 H 0.8292 0.45598 0.89163 0.0
H791 H 0.8776 0.47651 0.92113 0.0
H792 H 0.93309 0.55359 0.8799 0.0
H793 H 0.89576 0.55625 0.83426 0.0
C794 C 0.84567 0.5172 0.8234 0.0
C795 C 0.82067 0.4947 0.82 0.0
C796 C 0.86543 0.5173 0.85076 0.0
C797 C 0.81447 0.47311 0.8451 0.0
C798 C 0.83395 0.47325 0.87281 0.0
C799 C 0.88102 0.4941 0.90231 0.0
C800 C 0.90796 0.51467 0.90343 0.0
C801 C 0.85986 0.49495 0.87567 0.0
C802 C 0.91259 0.53733 0.87906 0.0
C803 C 0.89133 0.53886 0.85305 0.0
H804 H 0.7278 0.66631 0.03723 0.0
H805 H 0.67913 0.72717 0.96854 0.0
H806 H 0.63166 0.69192 0.96897 0.0
H807 H 0.60579 0.6416 0.9859 0.0
H808 H 0.65734 0.57894 0.05079 0.0
H809 H 0.70233 0.61677 0.05415 0.0
C810 C 0.70697 0.67176 0.02207 0.0
C811 C 0.70722 0.69909 1.00256 0.0
C812 C 0.68044 0.65088 0.02149 0.0
C813 C 0.67954 0.70635 0.98392 0.0
C814 C 0.6525 0.68607 0.98393 0.0
C815 C 0.62682 0.63642 1.0009 0.0
C816 C 0.62847 0.60753 0.01787 0.0
C817 C 0.65295 0.65797 1.00219 0.0
C818 C 0.65581 0.60089 0.03714 0.0
C819 C 0.68144 0.62253 0.0392 0.0
H820 H 0.3548 0.71007 0.99514 0.0
H821 H 0.29501 0.65571 0.0606 0.0
H822 H 0.33637 0.61405 0.06279 0.0
H823 H 0.38805 0.59175 0.04359 0.0
H824 H 0.449 0.64718 0.98027 0.0
H825 H 0.4087 0.69005 0.97996 0.0
C826 C 0.35114 0.68948 0.01048 0.0
C827 C 0.32175 0.6858 0.02738 0.0
C828 C 0.37501 0.6657 0.0117 0.0
C829 C 0.31723 0.6588 0.0469 0.0
C830 C 0.34083 0.63499 0.04819 0.0
C831 C 0.39238 0.61323 0.0297 0.0
C832 C 0.42102 0.6163 0.01162 0.0
C833 C 0.36945 0.63789 0.03011 0.0
C834 C 0.42692 0.6444 0.99427 0.0
C835 C 0.40395 0.66885 0.99409 0.0
H836 H 0.34897 0.31456 0.01608 0.0
H837 H 0.29601 0.37093 0.94662 0.0
H838 H 0.33557 0.41409 0.95252 0.0
H839 H 0.38368 0.43661 0.9795 0.0
H840 H 0.43845 0.3788 0.04622 0.0
H841 H 0.39925 0.33549 0.03984 0.0
C842 C 0.34652 0.33596 1.00165 0.0
C843 C 0.31958 0.33964 0.98108 0.0
C844 C 0.36921 0.36064 1.00524 0.0
C845 C 0.31644 0.36772 0.96287 0.0
C846 C 0.33892 0.39242 0.96633 0.0
C847 C 0.38697 0.41454 0.99258 0.0
C848 C 0.41375 0.41087 0.01329 0.0
C849 C 0.36501 0.38937 0.98795 0.0
C850 C 0.41791 0.38212 0.03012 0.0
C851 C 0.39564 0.35732 0.02638 0.0
H852 H 0.68445 0.30897 0.02705 0.0
H853 H 0.73397 0.35855 0.95037 0.0
H854 H 0.6936 0.40112 0.95232 0.0
H855 H 0.64634 0.42583 0.97822 0.0
H856 H 0.59502 0.3753 0.05292 0.0
H857 H 0.63405 0.33135 0.04946 0.0
C858 C 0.68591 0.32871 0.01026 0.0
C859 C 0.71227 0.33087 0.98887 0.0
C860 C 0.66271 0.35312 0.01159 0.0
C861 C 0.71408 0.35668 0.96738 0.0
C862 C 0.69111 0.38103 0.96853 0.0
C863 C 0.64394 0.40522 0.99381 0.0
C864 C 0.61851 0.40381 0.0162 0.0
C865 C 0.66585 0.37988 0.9911 0.0
C866 C 0.61479 0.37679 0.03573 0.0
C867 C 0.63696 0.35171 0.03368 0.0
H868 H 0.00795 0.71841 0.67649 0.0
H869 H 0.08806 0.67353 0.72615 0.0
H870 H 0.08755 0.62977 0.68736 0.0
H871 H 0.06087 0.60199 0.64222 0.0
H872 H 0.98167 0.64762 0.59182 0.0
H873 H 0.9849 0.69326 0.62819 0.0
C874 C 0.02592 0.69954 0.67816 0.0
C875 C 0.04792 0.69902 0.70405 0.0
C876 C 0.02501 0.67422 0.65622 0.0
C877 C 0.07086 0.67426 0.70632 0.0
C878 C 0.07036 0.64914 0.6844 0.0
C879 C 0.04428 0.62191 0.63945 0.0
C880 C 0.02068 0.62141 0.615 0.0
C881 C 0.04683 0.64835 0.65991 0.0
C882 C 0.9998 0.64756 0.61085 0.0
C883 C 1.00174 0.67366 0.63147 0.0
H884 H 0.35064 0.9892 0.71168 0.0
H885 H 0.29633 0.0675 0.67147 0.0
H886 H 0.33037 0.06617 0.62293 0.0
H887 H 0.37949 0.04581 0.59469 0.0
H888 H 0.43442 0.96954 0.63776 0.0
H889 H 0.39641 0.96687 0.68257 0.0
C890 C 0.34625 1.00594 0.69223 0.0
C891 C 0.32158 0.02876 0.69521 0.0
C892 C 0.36619 1.00547 0.6651 0.0
C893 C 0.3154 0.0498 0.66961 0.0
C894 C 0.33493 0.04914 0.64202 0.0
C895 C 0.38267 0.0284 0.61373 0.0
C896 C 0.40985 1.00813 0.61347 0.0
C897 C 0.36095 0.02755 0.63986 0.0
C898 C 0.41398 0.98567 0.63808 0.0
C899 C 0.39222 0.98409 0.66356 0.0
H900 H 0.0312 0.34457 0.71504 0.0
H901 H 0.9564 0.29552 0.66102 0.0
H902 H 0.95513 0.33869 0.62182 0.0
H903 H 0.97794 0.38851 0.60089 0.0
H904 H 0.04994 0.43951 0.65637 0.0
H905 H 0.04928 0.3976 0.69745 0.0
C906 C 0.01405 0.34364 0.69516 0.0
C907 C 0.99439 0.31652 0.69067 0.0
C908 C 0.01316 0.36873 0.67286 0.0
C909 C 0.97243 0.31571 0.6646 0.0
C910 C 0.97159 0.34042 0.64221 0.0
C911 C 0.99337 0.39041 0.62208 0.0
C912 C 0.01432 0.41658 0.62556 0.0
C913 C 0.99242 0.36663 0.64569 0.0
C914 C 0.03373 0.41936 0.65329 0.0
C915 C 0.03338 0.39544 0.67667 0.0
H916 H 0.68527 1.01107 0.7166 0.0
H917 H 0.7374 0.08119 0.6608 0.0
H918 H 0.69479 0.07994 0.61964 0.0
H919 H 0.6453 0.0553 0.59738 0.0
H920 H 0.5921 0.9868 0.65409 0.0
H921 H 0.63257 0.99109 0.69725 0.0
C922 C 0.68684 0.02676 0.69591 0.0
C923 C 0.71458 0.04589 0.69151 0.0
C924 C 0.66243 0.02574 0.67228 0.0
C925 C 0.71644 0.06589 0.66442 0.0
C926 C 0.69219 0.06512 0.64085 0.0
C927 C 0.6427 0.04133 0.61922 0.0
C928 C 0.61632 0.02034 0.6225 0.0
C929 C 0.66564 0.04438 0.64407 0.0
C930 C 0.61251 1.00293 0.65111 0.0
C931 C 0.63555 1.00541 0.67574 0.0
H932 H 0.04024 0.31937 0.34843 0.0
H933 H 0.97488 0.37696 0.29107 0.0
H934 H 0.97265 0.41645 0.33377 0.0
H935 H 0.9909 0.43562 0.38619 0.0
H936 H 0.05124 0.3763 0.44639 0.0
H937 H 0.05342 0.33598 0.40377 0.0
C938 C 0.02495 0.34019 0.34543 0.0
C939 C 0.0083 0.34538 0.31617 0.0
C940 C 0.02298 0.36247 0.37048 0.0
C941 C 0.98882 0.37274 0.31282 0.0
C942 C 0.9873 0.39527 0.33733 0.0
C943 C 1.00426 0.41376 0.39009 0.0
C944 C 0.02102 0.40895 0.41915 0.0
C945 C 1.00467 0.39058 0.36599 0.0
C946 C 0.03813 0.38044 0.4241 0.0
C947 C 0.03942 0.35749 0.39976 0.0
H948 H 0.72746 0.98951 0.36126 0.0
H949 H 0.67196 0.04075 0.28959 0.0
H950 H 0.62424 0.03986 0.32475 0.0
H951 H 0.59992 0.02848 0.37787 0.0
H952 H 0.65921 0.98436 0.45133 0.0
H953 H 0.70415 0.97935 0.41378 0.0
C954 C 0.70509 1.00086 0.35336 0.0
C955 C 0.70352 0.0156 0.32305 0.0
C956 C 0.6785 1.00181 0.3742 0.0
C957 C 0.67386 0.02906 0.31277 0.0
C958 C 0.64665 0.02887 0.33298 0.0
C959 C 0.62261 0.01757 0.38551 0.0
C960 C 0.62612 1.00643 0.41726 0.0
C961 C 0.64893 0.0159 0.36405 0.0
C962 C 0.65579 0.99282 0.42701 0.0
C963 C 0.68154 0.98999 0.40555 0.0
H964 H 0.99214 0.71362 0.35866 0.0
H965 H 0.07041 0.67302 0.30307 0.0
H966 H 0.06871 0.62478 0.33598 0.0
H967 H 0.04702 0.5954 0.38289 0.0
H968 H 0.97088 0.63795 0.4398 0.0
H969 H 0.96955 0.68401 0.40405 0.0
C970 C 0.00899 0.69431 0.3539 0.0
C971 C 0.0315 0.69699 0.32866 0.0
C972 C 0.00813 0.66689 0.37308 0.0
C973 C 0.0527 0.67147 0.32231 0.0
C974 C 0.05182 0.64391 0.34115 0.0
C975 C 0.0298 0.61455 0.38697 0.0
C976 C 0.00907 0.61345 0.41375 0.0
C977 C 0.02981 0.64145 0.36681 0.0
C978 C 0.98713 0.63849 0.41927 0.0
C979 C 0.98642 0.66484 0.39894 0.0
H980 H 0.32243 0.99623 0.34098 0.0
H981 H 0.37355 0.07013 0.28931 0.0
H982 H 0.41581 0.0711 0.33082 0.0
H983 H 0.4395 0.04906 0.38072 0.0
H984 H 0.38594 0.97812 0.43376 0.0
H985 H 0.34314 0.97804 0.3929 0.0
C986 C 0.34231 0.01316 0.33912 0.0
C987 C 0.34495 0.03282 0.31189 0.0
C988 C 0.36632 0.01381 0.36312 0.0
C989 C 0.37124 0.05429 0.30976 0.0
C990 C 0.39541 0.05489 0.33347 0.0
C991 C 0.41848 0.03354 0.38311 0.0
C992 C 0.41596 0.01321 0.40978 0.0
C993 C 0.39354 0.03428 0.35993 0.0
C994 C 0.38837 0.99374 0.41322 0.0
C995 C 0.36389 0.99376 0.38994 0.0
H996 H 0.98424 0.15439 0.28962 0.0
H997 H 0.02932 0.23281 0.33948 0.0
H998 H 0.03643 0.19971 0.38746 0.0
H999 H 0.02934 0.14781 0.41584 0.0
H1000 H 0.98497 0.06969 0.3643 0.0
H1001 H 0.9783 0.10302 0.31695 0.0
C1002 C 0.99607 0.16413 0.31083 0.0
C1003 C 0.00668 0.196 0.31056 0.0
C1004 C 1.0001 0.14488 0.33837 0.0
C1005 C 0.02124 0.20835 0.33864 0.0
C1006 C 0.02524 0.18937 0.36624 0.0
C1007 C 0.01812 0.13817 0.39429 0.0
C1008 C 0.00782 0.1061 0.39387 0.0
C1009 C 0.0146 0.15755 0.36653 0.0
C1010 C 0.99349 0.09408 0.36549 0.0
C1011 C 0.98956 0.11318 0.33824 0.0
H1012 H 0.84691 0.98971 0.30366 0.0
H1013 H 0.80569 0.0752 0.3437 0.0
H1014 H 0.84772 0.07614 0.38544 0.0
H1015 H 0.89341 0.05009 0.41364 0.0
H1016 H 0.93696 0.96627 0.37262 0.0
H1017 H 0.89697 0.96697 0.32858 0.0
C1018 C 0.84783 1.00906 0.32091 0.0
C1019 C 0.82321 0.0324 0.3205 0.0
C1020 C 0.87203 1.00925 0.34526 0.0
C1021 C 0.82443 0.05705 0.3434 0.0
C1022 C 0.84827 0.05742 0.36751 0.0
C1023 C 0.89402 0.03197 0.39506 0.0
C1024 C 0.9176 1.00777 0.3967 0.0
C1025 C 0.87158 0.03312 0.3693 0.0
C1026 C 0.91876 0.98493 0.37203 0.0
C1027 C 0.89597 0.9854 0.34679 0.0
H1028 H 0.06261 0.80108 0.36068 0.0
H1029 H 1.00016 0.84025 0.28701 0.0
H1030 H 0.9953 0.88974 0.31799 0.0
H1031 H 0.00572 0.92066 0.36859 0.0
H1032 H 0.0653 0.87813 0.44282 0.0
H1033 H 0.07373 0.83135 0.40945 0.0
C1034 C 0.04764 0.82024 0.35132 0.0
C1035 C 0.03138 0.81641 0.32156 0.0
C1036 C 0.04419 0.8482 0.36968 0.0
C1037 C 0.01309 0.84226 0.30967 0.0
C1038 C 0.01008 0.87058 0.32758 0.0
C1039 C 0.02077 0.90126 0.37726 0.0
C1040 C 0.03467 0.903 0.40842 0.0
C1041 C 0.02508 0.87368 0.35798 0.0
C1042 C 0.05396 0.87745 0.41924 0.0
C1043 C 0.0589 0.85061 0.40008 0.0
H1044 H 0.16983 0.06464 0.30396 0.0
H1045 H 0.22198 0.97671 0.31835 0.0
H1046 H 0.19389 0.96837 0.36943 0.0
H1047 H 0.15097 0.98413 0.40844 0.0
H1048 H 0.0972 0.07065 0.39186 0.0
H1049 H 0.12953 0.08173 0.34383 0.0
C1050 C 0.17528 0.04385 0.31852 0.0
C1051 C 0.19808 0.02158 0.30733 0.0
C1052 C 0.15869 0.03895 0.34766 0.0
C1053 C 0.20468 0.99447 0.32627 0.0
C1054 C 0.18857 0.98962 0.35558 0.0
C1055 C 0.14701 1.0057 0.39462 0.0
C1056 C 0.1221 0.02677 0.40368 0.0
C1057 C 0.16513 1.01146 0.36634 0.0
C1058 C 0.11652 0.05431 0.38534 0.0
C1059 C 0.13484 0.06055 0.3578 0.0
H1060 H 0.99867 0.8138 0.67372 0.0
H1061 H 0.01701 0.88118 0.74965 0.0
H1062 H 0.02437 0.92377 0.7098 0.0
H1063 H 0.02304 0.94244 0.65293 0.0
H1064 H 1.00428 0.87387 0.57763 0.0
H1065 H 0.9995 0.83177 0.61734 0.0
C1066 C 1.00452 0.83778 0.68148 0.0
C1067 C 0.00694 0.84437 0.71463 0.0
C1068 C 0.00836 0.8622 0.65842 0.0
C1069 C 0.01483 0.87552 0.7243 0.0
C1070 C 0.01889 0.89992 0.70148 0.0
C1071 C 0.01794 0.91832 0.64518 0.0
C1072 C 0.01404 0.91175 0.61201 0.0
C1073 C 0.01523 0.89369 0.6684 0.0
C1074 C 0.00761 0.88005 0.60273 0.0
C1075 C 1.00479 0.85572 0.62553 0.0
H1076 H 0.21251 0.99889 0.68406 0.0
H1077 H 0.13904 0.02818 0.75173 0.0
H1078 H 0.09985 0.03521 0.70769 0.0
H1079 H 0.08568 0.0306 0.65021 0.0
H1080 H 0.15968 1.00276 0.58214 0.0
H1081 H 0.19934 0.99794 0.62584 0.0
C1082 C 0.18803 1.00718 0.68906 0.0
C1083 C 0.17859 1.01268 0.7212 0.0
C1084 C 0.16563 1.01128 0.66351 0.0
C1085 C 0.1468 0.02351 0.72728 0.0
C1086 C 0.12438 0.02748 0.70209 0.0
C1087 C 0.1105 0.02358 0.64482 0.0
C1088 C 0.11941 0.0168 0.61273 0.0
C1089 C 0.13336 0.021 0.67014 0.0
C1090 C 0.15192 1.00813 0.60643 0.0
C1091 C 0.17469 1.00527 0.6315 0.0
H1092 H 0.03588 0.22097 0.65667 0.0
H1093 H 0.98659 0.16935 0.73198 0.0
H1094 H 0.98616 0.12139 0.698 0.0
H1095 H 0.99608 0.09538 0.64446 0.0
H1096 H 0.0393 0.15148 0.56852 0.0
H1097 H 0.04477 0.1964 0.60471 0.0
C1098 C 0.02462 0.19941 0.66577 0.0
C1099 C 0.01064 0.19926 0.69681 0.0
C1100 C 0.02297 0.17264 0.6456 0.0
C1101 C 0.99754 0.17043 0.70831 0.0
C1102 C 0.99698 0.14304 0.68867 0.0
C1103 C 0.00676 0.11742 0.63591 0.0
C1104 C 0.01733 0.11976 0.60353 0.0
C1105 C 0.00899 0.14403 0.65689 0.0
C1106 C 0.0309 0.14871 0.59303 0.0
C1107 C 0.03413 0.17456 0.61382 0.0
H1108 H 0.80812 0.99231 0.66144 0.0
H1109 H 0.86334 0.04674 0.73061 0.0
H1110 H 0.91143 0.04411 0.69555 0.0
H1111 H 0.9356 0.03117 0.64243 0.0
H1112 H 0.87752 0.98039 0.57232 0.0
H1113 H 0.83249 0.97747 0.61025 0.0
C1114 C 0.83074 1.0035 0.66897 0.0
C1115 C 0.83202 0.02013 0.69836 0.0
C1116 C 0.85757 1.00308 0.64819 0.0
C1117 C 0.86173 0.03376 0.70814 0.0
C1118 C 0.88907 0.03256 0.68791 0.0
C1119 C 0.91317 0.01926 0.63556 0.0
C1120 C 0.90988 1.00634 0.60435 0.0
C1121 C 0.88696 0.01809 0.65742 0.0
C1122 C 0.88062 0.991 0.5959 0.0
C1123 C 0.85487 0.98914 0.61766 0.0
H1124 H 0.3705 0.98621 0.21551 0.0
H1125 H 0.29652 0.04094 0.1668 0.0
H1126 H 0.32887 0.03968 0.11702 0.0
H1127 H 0.38124 0.02747 0.08935 0.0
H1128 H 0.45619 0.97702 0.14162 0.0
H1129 H 0.42073 0.97265 0.1882 0.0
C1130 C 0.36138 0.99787 0.19398 0.0
C1131 C 0.33149 0.01416 0.19494 0.0
C1132 C 0.38058 0.99818 0.16624 0.0
C1133 C 0.31952 0.02832 0.16664 0.0
C1134 C 0.33816 0.02783 0.13833 0.0
C1135 C 0.38959 0.01532 0.11089 0.0
C1136 C 0.42145 1.0028 0.11215 0.0
C1137 C 0.3692 0.01358 0.13812 0.0
C1138 C 0.43202 0.9872 0.14019 0.0
C1139 C 0.4117 0.98456 0.16681 0.0
H1140 H 0.05391 0.36684 0.21413 0.0
H1141 H 0.98918 0.29667 0.17344 0.0
H1142 H 0.98612 0.32768 0.12326 0.0
H1143 H 0.99763 0.37811 0.09305 0.0
H1144 H 0.05876 0.44931 0.13772 0.0
H1145 H 0.06678 0.415 0.18423 0.0
C1146 C 0.03913 0.35817 0.19429 0.0
C1147 C 0.02141 0.3296 0.19787 0.0
C1148 C 0.03638 0.37675 0.16627 0.0
C1149 C 1.00316 0.31846 0.17145 0.0
C1150 C 1.00112 0.33644 0.14286 0.0
C1151 C 0.01288 0.38593 0.11289 0.0
C1152 C 0.02726 0.41653 0.11193 0.0
C1153 C 0.01691 0.36614 0.14029 0.0
C1154 C 0.04693 0.42624 0.13792 0.0
C1155 C 0.05171 0.40652 0.16454 0.0
H1156 H 0.74145 0.01878 0.14165 0.0
H1157 H 0.68593 0.05662 0.22059 0.0
H1158 H 0.63527 0.04971 0.18973 0.0
H1159 H 0.60703 0.03593 0.13836 0.0
H1160 H 0.66433 0.99894 0.05969 0.0
H1161 H 0.71341 1.00258 0.09208 0.0
C1162 C 0.7182 0.02528 0.15214 0.0
C1163 C 0.71748 0.03852 0.18317 0.0
C1164 C 0.6893 0.02167 0.13407 0.0
C1165 C 0.68713 0.04656 0.19662 0.0
C1166 C 0.65817 0.04271 0.17891 0.0
C1167 C 0.63019 0.02843 0.12842 0.0
C1168 C 0.63167 0.01757 0.09629 0.0
C1169 C 0.65894 0.03077 0.1473 0.0
C1170 C 0.66213 1.00792 0.08402 0.0
C1171 C 0.69045 1.00986 0.10261 0.0
H1172 H 0.98084 0.72264 0.14902 0.0
H1173 H 0.05636 0.6897 0.21312 0.0
H1174 H 0.06241 0.64122 0.18114 0.0
H1175 H 0.04649 0.6079 0.13376 0.0
H1176 H 0.97278 0.64338 0.06879 0.0
H1177 H 0.96583 0.6906 0.10198 0.0
C1178 C 0.99889 0.70499 0.15581 0.0
C1179 C 0.01823 0.71018 0.18335 0.0
C1180 C 1.00249 0.6773 0.13706 0.0
C1181 C 0.0411 0.68668 0.19209 0.0
C1182 C 0.0446 0.6588 0.17372 0.0
C1183 C 0.02877 0.62589 0.12712 0.0
C1184 C 0.01014 0.622 0.09878 0.0
C1185 C 0.02537 0.65374 0.1461 0.0
C1186 C 0.98755 0.64577 0.09032 0.0
C1187 C 0.98354 0.67287 0.10931 0.0
H1188 H 0.3082 0.99287 0.83856 0.0
H1189 H 0.35267 0.07602 0.7964 0.0
H1190 H 0.39597 0.07471 0.83663 0.0
H1191 H 0.4239 0.04777 0.88135 0.0
H1192 H 0.37863 0.96697 0.9268 0.0
H1193 H 0.33337 0.96928 0.88799 0.0
C1194 C 0.32691 1.01111 0.83876 0.0
C1195 C 0.32726 0.03437 0.81425 0.0
C1196 C 0.3521 1.01022 0.8622 0.0
C1197 C 0.3519 0.05774 0.8148 0.0
C1198 C 0.37685 0.05691 0.83771 0.0
C1199 C 0.40411 0.03065 0.88268 0.0
C1200 C 0.40491 1.00684 0.90644 0.0
C1201 C 0.37774 0.03279 0.86097 0.0
C1202 C 0.3787 0.98533 0.90847 0.0
C1203 C 0.35278 0.98671 0.88632 0.0
H1204 H 0.9851 0.3372 0.8096 0.0
H1205 H 0.01925 0.26809 0.87843 0.0
H1206 H 0.02821 0.3103 0.91818 0.0
H1207 H 0.02384 0.36682 0.93439 0.0
H1208 H 0.99035 0.43596 0.86485 0.0
H1209 H 0.98374 0.39411 0.82477 0.0
C1210 C 0.99485 0.33149 0.83319 0.0
C1211 C 1.00121 0.29945 0.84109 0.0
C1212 C 0.99981 0.35597 0.85604 0.0
C1213 C 0.01397 0.29247 0.87176 0.0
C1214 C 0.01897 0.31664 0.89456 0.0
C1215 C 0.01513 0.37281 0.91048 0.0
C1216 C 0.00747 0.40477 0.903 0.0
C1217 C 0.0115 0.34847 0.88719 0.0
C1218 C 0.99653 0.4118 0.87159 0.0
C1219 C 0.99266 0.38777 0.84851 0.0
H1220 H 0.68509 0.98799 0.80027 0.0
H1221 H 0.75633 0.01978 0.8696 0.0
H1222 H 0.7132 0.02852 0.90927 0.0
H1223 H 0.65601 0.02447 0.92504 0.0
H1224 H 0.58413 0.99192 0.85633 0.0
H1225 H 0.62671 0.98625 0.8156 0.0
C1226 C 0.69104 0.99691 0.82406 0.0
C1227 C 0.72386 1.0028 0.83228 0.0
C1228 C 0.66607 1.00161 0.84683 0.0
C1229 C 0.73128 0.01479 0.86296 0.0
C1230 C 0.70664 0.01973 0.88559 0.0
C1231 C 0.64943 0.01619 0.90117 0.0
C1232 C 0.61672 1.0084 0.89401 0.0
C1233 C 0.67404 1.01277 0.87795 0.0
C1234 C 0.60897 0.99809 0.86269 0.0
C1235 C 0.63337 0.99474 0.83935 0.0
H1236 H 0.99361 0.6686 0.79459 0.0
H1237 H 0.04538 0.73841 0.85106 0.0
H1238 H 0.0434 0.70269 0.89795 0.0
H1239 H 0.03202 0.64905 0.92094 0.0
H1240 H 0.98583 0.57807 0.861 0.0
H1241 H 0.9816 0.61639 0.81719 0.0
C1242 C 1.00446 0.67616 0.81718 0.0
C1243 C 0.02011 0.70606 0.81905 0.0
C1244 C 1.00488 0.65487 0.84325 0.0
C1245 C 0.03312 0.71567 0.84884 0.0
C1246 C 0.03237 0.69501 0.87553 0.0
C1247 C 0.02088 0.64201 0.89834 0.0
C1248 C 0.00935 0.61048 0.89438 0.0
C1249 C 0.01919 0.66413 0.87272 0.0
C1250 C 0.99515 0.60189 0.8648 0.0
C1251 C 0.99257 0.6239 0.83971 0.0
H1252 H 0.22071 0.35442 0.03231 0.0
H1253 H 0.17576 0.29083 0.96404 0.0
H1254 H 0.12608 0.32361 0.96439 0.0
H1255 H 0.0984 0.3746 0.97907 0.0
H1256 H 0.14788 0.44001 0.04258 0.0
H1257 H 0.19298 0.40286 0.0486 0.0
C1258 C 0.19988 0.34747 0.01775 0.0
C1259 C 0.2021 0.32042 0.99788 0.0
C1260 C 0.17246 0.36733 0.01667 0.0
C1261 C 0.17469 0.31144 0.97964 0.0
C1262 C 0.14647 0.33047 0.97952 0.0
C1263 C 0.11898 0.38047 0.9944 0.0
C1264 C 0.12 0.41026 0.01009 0.0
C1265 C 0.14552 0.35914 0.99707 0.0
C1266 C 0.14679 0.41759 0.02984 0.0
C1267 C 0.17251 0.39623 0.03346 0.0
H1268 H 0.2246 0.66557 0.97031 0.0
H1269 H 0.17717 0.73373 0.03174 0.0
H1270 H 0.12706 0.70154 0.03061 0.0
H1271 H 0.09916 0.65025 0.01732 0.0
H1272 H 0.15014 0.58108 0.95949 0.0
H1273 H 0.19638 0.61702 0.95451 0.0
C1274 C 0.20317 0.67361 0.98319 0.0
C1275 C 0.20479 0.70185 1.00139 0.0
C1276 C 0.17519 0.65435 0.98359 0.0
C1277 C 0.17659 0.71219 0.01744 0.0
C1278 C 0.14807 0.69354 0.01711 0.0
C1279 C 0.12026 0.64327 1.00335 0.0
C1280 C 0.12126 0.61275 0.98914 0.0
C1281 C 0.14742 0.66399 1.00111 0.0
C1282 C 0.14885 0.6041 0.97114 0.0
C1283 C 0.17532 0.62474 0.96812 0.0
H1284 H 0.29524 0.15139 0.01121 0.0
H1285 H 0.35606 0.23494 0.01098 0.0
H1286 H 0.4048 0.20164 1.00496 0.0
H1287 H 0.43045 0.14804 1.00275 0.0
H1288 H 0.36807 0.06503 1.00414 0.0
H1289 H 0.32027 0.09862 1.00691 0.0
C1290 C 0.31916 0.1623 0.00957 0.0
C1291 C 0.32203 0.19557 0.01167 0.0
C1292 C 0.34706 0.14297 1.00666 0.0
C1293 C 0.3532 0.20937 0.00938 0.0
C1294 C 0.3811 0.19029 1.00613 0.0
C1295 C 0.40643 0.13728 1.00351 0.0
C1296 C 0.40336 0.10377 1.00346 0.0
C1297 C 0.37843 0.15693 1.00522 0.0
C1298 C 0.37173 0.09055 1.00437 0.0
C1299 C 0.34408 0.1098 1.0059 0.0
H1300 H 0.81066 0.35251 0.03744 0.0
H1301 H 0.8585 0.28729 0.97307 0.0
H1302 H 0.90724 0.32152 0.973 0.0
H1303 H 0.93342 0.37361 0.98637 0.0
H1304 H 0.88111 0.44043 0.04576 0.0
H1305 H 0.8367 0.40244 0.05204 0.0
C1306 C 0.83185 0.3456 0.02352 0.0
C1307 C 0.83074 0.3176 1.00489 0.0
C1308 C 0.85874 0.36615 0.0222 0.0
C1309 C 0.85869 0.30865 0.98765 0.0
C1310 C 0.88638 0.32846 0.98731 0.0
C1311 C 0.91239 0.37964 1.00089 0.0
C1312 C 0.91047 0.40997 0.01541 0.0
C1313 C 0.88626 0.35784 1.00366 0.0
C1314 C 0.88302 0.41751 0.03402 0.0
C1315 C 0.85767 0.39571 0.03776 0.0
H1316 H 0.74035 0.87386 0.98873 0.0
H1317 H 0.69475 0.80393 0.04959 0.0
H1318 H 0.64267 0.83243 0.04574 0.0
H1319 H 0.61094 0.87967 0.02773 0.0
H1320 H 0.65809 0.94953 0.96737 0.0
H1321 H 0.70822 0.91879 0.96821 0.0
C1322 C 0.71891 0.86485 1.00098 0.0
C1323 C 0.72146 0.83722 0.01984 0.0
C1324 C 0.68922 0.88149 0.99884 0.0
C1325 C 0.69344 0.82545 0.03527 0.0
C1326 C 0.66368 0.84174 0.03306 0.0
C1327 C 0.63205 0.88787 0.01442 0.0
C1328 C 0.63068 0.9171 0.9978 0.0
C1329 C 0.66134 0.87014 0.0153 0.0
C1330 C 0.65843 0.9274 0.98078 0.0
C1331 C 0.68723 0.9098 0.98117 0.0
H1332 H 0.81033 0.6683 0.96438 0.0
H1333 H 0.85502 0.73557 0.02933 0.0
H1334 H 0.90363 0.70167 0.03285 0.0
H1335 H 0.93123 0.64996 0.02129 0.0
H1336 H 0.88213 0.58123 0.96108 0.0
H1337 H 0.83719 0.61817 0.95263 0.0
C1338 C 0.83056 0.67561 0.97955 0.0
C1339 C 0.82859 0.70427 0.99705 0.0
C1340 C 0.85754 0.65536 0.98269 0.0
C1341 C 0.85573 0.71373 0.01553 0.0
C1342 C 0.88342 0.69414 0.01783 0.0
C1343 C 0.91073 0.64326 1.00622 0.0
C1344 C 0.90987 0.61275 0.99206 0.0
C1345 C 0.88427 0.66446 1.00215 0.0
C1346 C 0.88315 0.60433 0.97263 0.0
C1347 C 0.8575 0.62552 0.96764 0.0
H1348 H 0.30868 0.85542 0.02199 0.0
H1349 H 0.35583 0.79282 0.95468 0.0
H1350 H 0.4069 0.82259 0.96057 0.0
H1351 H 0.4368 0.87017 0.98097 0.0
H1352 H 0.38827 0.93281 0.04762 0.0
H1353 H 0.33982 0.89933 0.04632 0.0
C1354 C 0.33034 0.848 0.00911 0.0
C1355 C 0.32839 0.82201 0.98791 0.0
C1356 C 0.35955 0.86547 0.01237 0.0
C1357 C 0.35663 0.81276 0.97117 0.0
C1358 C 0.38587 0.82986 0.97447 0.0
C1359 C 0.4159 0.87599 0.99576 0.0
C1360 C 0.41621 0.90413 0.01421 0.0
C1361 C 0.38749 0.85677 0.99447 0.0
C1362 C 0.38868 0.91148 0.03297 0.0
C1363 C 0.36082 0.89236 0.03221 0.0
H1364 H 0.6838 0.21172 0.97239 0.0
H1365 H 0.75646 0.14352 1.00162 0.0
H1366 H 0.71396 0.10359 0.01071 0.0
H1367 H 0.6567 0.08719 1.00768 0.0
H1368 H 0.58328 0.15504 0.97877 0.0
H1369 H 0.62538 0.19592 0.9724 0.0
C1370 C 0.69018 0.18815 0.98094 0.0
C1371 C 0.72328 0.18037 0.98583 0.0
C1372 C 0.66551 0.1652 0.98599 0.0
C1373 C 0.73124 0.14992 0.99733 0.0
C1374 C 0.70694 0.12708 1.00246 0.0
C1375 C 0.64973 0.1109 0.99999 0.0
C1376 C 0.61669 0.11777 0.99341 0.0
C1377 C 0.67407 0.13429 0.99637 0.0
C1378 C 0.60838 0.1489 0.98399 0.0
C1379 C 0.63252 0.17233 0.98025 0.0
H1380 H 0.50139 0.70512 0.84078 0.0
H1381 H 0.52467 0.63608 0.76787 0.0
H1382 H 0.5335 0.59548 0.80938 0.0
H1383 H 0.53161 0.57859 0.86664 0.0
H1384 H 0.50869 0.64846 0.93934 0.0
H1385 H 0.50282 0.68916 0.89808 0.0
C1386 C 0.50883 0.68129 0.83406 0.0
C1387 C 0.51215 0.67368 0.80118 0.0
C1388 C 0.51365 0.65791 0.85816 0.0
C1389 C 0.52184 0.64262 0.79292 0.0
C1390 C 0.52674 0.61931 0.81671 0.0
C1391 C 0.52546 0.60272 0.87354 0.0
C1392 C 0.52055 0.61004 0.90641 0.0
C1393 C 0.52218 0.62647 0.84945 0.0
C1394 C 0.51278 0.64173 0.91451 0.0
C1395 C 0.50931 0.66523 0.8908 0.0
H1396 H 0.3261 0.46759 0.84599 0.0
H1397 H 0.35107 0.55477 0.79705 0.0
H1398 H 0.3993 0.56073 0.83172 0.0
H1399 H 0.43092 0.54379 0.88026 0.0
H1400 H 0.40126 0.45934 0.93125 0.0
H1401 H 0.35779 0.44997 0.89214 0.0
C1402 C 0.34209 0.48794 0.84282 0.0
C1403 C 0.33465 0.51099 0.81934 0.0
C1404 C 0.36858 0.49195 0.86372 0.0
C1405 C 0.3562 0.53666 0.81492 0.0
C1406 C 0.38357 0.54025 0.83499 0.0
C1407 C 0.41494 0.52333 0.88249 0.0
C1408 C 0.41866 0.50247 0.90877 0.0
C1409 C 0.38945 0.51852 0.86014 0.0
C1410 C 0.39812 0.47596 0.91159 0.0
C1411 C 0.37352 0.47051 0.88911 0.0
H1412 H 0.47476 0.31119 0.85646 0.0
H1413 H 0.55037 0.34685 0.79405 0.0
H1414 H 0.55685 0.39357 0.82906 0.0
H1415 H 0.54425 0.42187 0.88062 0.0
H1416 H 0.47356 0.38072 0.94525 0.0
H1417 H 0.46294 0.33803 0.9069 0.0
C1418 C 0.49299 0.32893 0.85045 0.0
C1419 C 0.51251 0.32487 0.82275 0.0
C1420 C 0.49792 0.35457 0.87163 0.0
C1421 C 0.53491 0.34909 0.81501 0.0
C1422 C 0.53891 0.37567 0.83533 0.0
C1423 C 0.52653 0.40352 0.8862 0.0
C1424 C 0.50989 0.4044 0.91598 0.0
C1425 C 0.52113 0.37827 0.86421 0.0
C1426 C 0.48705 0.38042 0.92285 0.0
C1427 C 0.48079 0.35609 0.90079 0.0
H1428 H 0.6657 0.4779 0.80411 0.0
H1429 H 0.70973 0.56878 0.82449 0.0
H1430 H 0.68701 0.56788 0.87894 0.0
H1431 H 0.64917 0.54386 0.91885 0.0
H1432 H 0.60386 0.45385 0.89709 0.0
H1433 H 0.63283 0.45135 0.84585 0.0
C1434 C 0.67082 0.49716 0.82075 0.0
C1435 C 0.68942 0.52331 0.81025 0.0
C1436 C 0.65735 0.49661 0.85197 0.0
C1437 C 0.69556 0.54831 0.83197 0.0
C1438 C 0.6825 0.54784 0.86313 0.0
C1439 C 0.6466 0.52327 0.90332 0.0
C1440 C 0.62475 0.49886 0.9119 0.0
C1441 C 0.66269 0.52245 0.87322 0.0
C1442 C 0.62088 0.47271 0.89114 0.0
C1443 C 0.63721 0.47141 0.86168 0.0
H1444 H 0.48108 0.36469 0.22765 0.0
H1445 H 0.55947 0.30429 0.19594 0.0
H1446 H 0.56475 0.33578 0.14663 0.0
H1447 H 0.54748 0.3818 0.11222 0.0
H1448 H 0.47152 0.44372 0.14689 0.0
H1449 H 0.46499 0.41067 0.19473 0.0
C1450 C 0.49948 0.35851 0.21003 0.0
C1451 C 0.51968 0.33198 0.21578 0.0
C1452 C 0.50279 0.37713 0.18191 0.0
C1453 C 0.54329 0.3243 0.19243 0.0
C1454 C 0.5464 0.34245 0.16408 0.0
C1455 C 0.52933 0.3878 0.13015 0.0
C1456 C 0.50987 0.41521 0.12576 0.0
C1457 C 0.52624 0.36898 0.15843 0.0
C1458 C 0.48684 0.42287 0.14956 0.0
C1459 C 0.48309 0.40397 0.17703 0.0
H1460 H 0.66713 0.52211 0.23018 0.0
H1461 H 0.74146 0.4704 0.17938 0.0
H1462 H 0.70966 0.47399 0.12938 0.0
H1463 H 0.6584 0.48883 0.10097 0.0
H1464 H 0.58469 0.54069 0.15323 0.0
H1465 H 0.61842 0.54023 0.20129 0.0
C1466 C 0.67639 0.51188 0.20804 0.0
C1467 C 0.70622 0.49562 0.2085 0.0
C1468 C 0.65793 0.5139 0.17956 0.0
C1469 C 0.71827 0.48272 0.17965 0.0
C1470 C 0.7001 0.48476 0.15108 0.0
C1471 C 0.64995 0.50033 0.12276 0.0
C1472 C 0.61874 0.51427 0.12345 0.0
C1473 C 0.66954 0.49983 0.15082 0.0
C1474 C 0.60827 0.52917 0.15199 0.0
C1475 C 0.6276 0.52904 0.17962 0.0
H1476 H 0.57283 0.71036 0.16802 0.0
H1477 H 0.49206 0.68488 0.229 0.0
H1478 H 0.48325 0.63632 0.19696 0.0
H1479 H 0.49519 0.60416 0.14742 0.0
H1480 H 0.57195 0.6356 0.08399 0.0
H1481 H 0.58502 0.6791 0.1205 0.0
C1482 C 0.55326 0.69419 0.17448 0.0
C1483 C 0.53282 0.70164 0.20067 0.0
C1484 C 0.5472 0.66763 0.15491 0.0
C1485 C 0.50823 0.67984 0.20909 0.0
C1486 C 0.50294 0.65226 0.19045 0.0
C1487 C 0.51481 0.62054 0.14179 0.0
C1488 C 0.53237 0.61683 0.11279 0.0
C1489 C 0.52166 0.6464 0.16264 0.0
C1490 C 0.55773 0.6382 0.10579 0.0
C1491 C 0.56538 0.66299 0.12678 0.0
H1492 H 0.30552 0.49395 0.16489 0.0
H1493 H 0.35263 0.5544 0.23472 0.0
H1494 H 0.40271 0.55411 0.20219 0.0
H1495 H 0.43162 0.53967 0.1511 0.0
H1496 H 0.38086 0.48192 0.08103 0.0
H1497 H 0.33373 0.47873 0.11609 0.0
C1498 C 0.32665 0.50727 0.17306 0.0
C1499 C 0.32499 0.52467 0.20199 0.0
C1500 C 0.35473 0.50775 0.15387 0.0
C1501 C 0.35309 0.54085 0.21257 0.0
C1502 C 0.38166 0.54087 0.1938 0.0
C1503 C 0.41029 0.52625 0.14369 0.0
C1504 C 0.40978 0.51137 0.11318 0.0
C1505 C 0.38258 0.52489 0.16398 0.0
C1506 C 0.38188 0.49407 0.10401 0.0
C1507 C 0.35486 0.49207 0.12415 0.0
H1508 H 0.85514 0.53636 0.72263 0.0
H1509 H 0.78739 0.47658 0.67102 0.0
H1510 H 0.82318 0.47782 0.6237 0.0
H1511 H 0.87659 0.49216 0.59873 0.0
H1512 H 0.94503 0.54855 0.65362 0.0
H1513 H 0.90656 0.55166 0.69795 0.0
C1514 C 0.84811 0.52343 0.70111 0.0
C1515 C 0.81873 0.50594 0.70075 0.0
C1516 C 0.86931 0.52328 0.67459 0.0
C1517 C 0.80974 0.49029 0.67213 0.0
C1518 C 0.83041 0.49075 0.64513 0.0
C1519 C 0.88293 0.50532 0.62031 0.0
C1520 C 0.91394 0.51987 0.62281 0.0
C1521 C 0.86069 0.50657 0.64632 0.0
C1522 C 0.92168 0.53674 0.65105 0.0
C1523 C 0.89958 0.53867 0.67646 0.0
H1524 H 0.47751 0.84757 0.71162 0.0
H1525 H 0.5531 0.78753 0.67303 0.0
H1526 H 0.55792 0.82331 0.62626 0.0
H1527 H 0.54425 0.87541 0.59927 0.0
H1528 H 0.47803 0.93917 0.64728 0.0
H1529 H 0.46712 0.8992 0.68812 0.0
C1530 C 0.49555 0.84226 0.69335 0.0
C1531 C 0.51552 0.81506 0.69663 0.0
C1532 C 0.50027 0.86427 0.66837 0.0
C1533 C 0.53736 0.80815 0.67149 0.0
C1534 C 0.54047 0.82895 0.64493 0.0
C1535 C 0.52747 0.88045 0.61872 0.0
C1536 C 0.51142 0.9103 0.61979 0.0
C1537 C 0.52274 0.85771 0.6436 0.0
C1538 C 0.49024 0.91651 0.64548 0.0
C1539 C 0.484 0.89356 0.66892 0.0
H1540 H 0.23481 0.50764 0.66475 0.0
H1541 H 0.19046 0.57724 0.7267 0.0
H1542 H 0.13838 0.57098 0.69823 0.0
H1543 H 0.10655 0.54839 0.65252 0.0
H1544 H 0.15249 0.47946 0.59056 0.0
H1545 H 0.20232 0.48225 0.62238 0.0
C1546 C 0.21357 0.52107 0.67224 0.0
C1547 C 0.21642 0.54282 0.6977 0.0
C1548 C 0.18388 0.51744 0.65568 0.0
C1549 C 0.18883 0.56031 0.70711 0.0
C1550 C 0.15906 0.55674 0.69083 0.0
C1551 C 0.12726 0.53354 0.64652 0.0
C1552 C 0.12588 0.51389 0.61913 0.0
C1553 C 0.15637 0.53571 0.66468 0.0
C1554 C 0.15304 0.495 0.61138 0.0
C1555 C 0.18162 0.4966 0.62951 0.0
H1556 H 0.48809 0.18396 0.71157 0.0
H1557 H 0.52285 0.2534 0.64344 0.0
H1558 H 0.53228 0.21132 0.60374 0.0
H1559 H 0.52782 0.15506 0.58723 0.0
H1560 H 0.49365 0.08533 0.65572 0.0
H1561 H 0.48694 0.12697 0.69612 0.0
C1562 C 0.49805 0.18977 0.68814 0.0
C1563 C 0.5044 0.22189 0.68037 0.0
C1564 C 0.50326 0.16535 0.66529 0.0
C1565 C 0.51753 0.22898 0.64996 0.0
C1566 C 0.52281 0.20489 0.6272 0.0
C1567 C 0.51896 0.14885 0.61099 0.0
C1568 C 0.51105 0.11684 0.61807 0.0
C1569 C 0.51524 0.17303 0.63436 0.0
C1570 C 0.49998 0.10954 0.6493 0.0
C1571 C 0.49605 0.13345 0.67254 0.0
H1572 H 0.86426 0.48142 0.31115 0.0
H1573 H 0.79822 0.55032 0.35126 0.0
H1574 H 0.82889 0.54962 0.40221 0.0
H1575 H 0.87897 0.53402 0.43273 0.0
H1576 H 0.94603 0.46804 0.38914 0.0
H1577 H 0.91079 0.46301 0.3423 0.0
C1578 C 0.85637 0.49604 0.33119 0.0
C1579 C 0.82935 0.5162 0.32736 0.0
C1580 C 0.87467 0.49631 0.35969 0.0
C1581 C 0.81897 0.53457 0.35367 0.0
C1582 C 0.8367 0.53438 0.38266 0.0
C1583 C 0.88546 0.51822 0.41314 0.0
C1584 C 0.91529 0.50164 0.41419 0.0
C1585 C 0.86526 0.51608 0.38561 0.0
C1586 C 0.9235 0.48134 0.38865 0.0
C1587 C 0.90331 0.4784 0.36187 0.0
H1588 H 0.48079 0.80673 0.36382 0.0
H1589 H 0.55128 0.84319 0.29657 0.0
H1590 H 0.55871 0.89078 0.32979 0.0
H1591 H 0.545 0.92251 0.3789 0.0
H1592 H 0.4753 0.88397 0.44612 0.0
H1593 H 0.46773 0.83732 0.41223 0.0
C1594 C 0.49817 0.82486 0.35664 0.0
C1595 C 0.51592 0.82086 0.32796 0.0
C1596 C 0.50227 0.85219 0.3759 0.0
C1597 C 0.53765 0.84516 0.31869 0.0
C1598 C 0.5418 0.87257 0.33769 0.0
C1599 C 0.52799 0.904 0.38588 0.0
C1600 C 0.51075 0.90686 0.4151 0.0
C1601 C 0.52413 0.8765 0.36639 0.0
C1602 C 0.48905 0.8824 0.42392 0.0
C1603 C 0.48468 0.8556 0.40455 0.0
H1604 H 0.23447 0.50482 0.37102 0.0
H1605 H 0.18614 0.56762 0.3044 0.0
H1606 H 0.13475 0.56126 0.33389 0.0
H1607 H 0.10462 0.54112 0.38183 0.0
H1608 H 0.1546 0.4792 0.44854 0.0
H1609 H 0.20374 0.48162 0.41594 0.0
C1610 C 0.21257 0.51686 0.36288 0.0
C1611 C 0.2142 0.53709 0.336 0.0
C1612 C 0.18328 0.51332 0.38013 0.0
C1613 C 0.18557 0.55226 0.32535 0.0
C1614 C 0.15619 0.54863 0.34222 0.0
C1615 C 0.12609 0.52772 0.38881 0.0
C1616 C 0.12592 0.51019 0.41776 0.0
C1617 C 0.15484 0.52969 0.37011 0.0
C1618 C 0.15411 0.49316 0.4266 0.0
C1619 C 0.18232 0.49453 0.40796 0.0
H1620 H 0.5031 0.20869 0.34071 0.0
H1621 H 0.57353 0.15508 0.28624 0.0
H1622 H 0.57514 0.11439 0.32796 0.0
H1623 H 0.55471 0.09194 0.37895 0.0
H1624 H 0.48697 0.14634 0.4357 0.0
H1625 H 0.48612 0.18815 0.39459 0.0
C1626 C 0.51922 0.18842 0.33827 0.0
C1627 C 0.53778 0.18497 0.30988 0.0
C1628 C 0.5202 0.16473 0.36275 0.0
C1629 C 0.5585 0.15831 0.3074 0.0
C1630 C 0.55945 0.13485 0.33131 0.0
C1631 C 0.53972 0.11292 0.3823 0.0
C1632 C 0.52068 0.11568 0.41035 0.0
C1633 C 0.53993 0.13738 0.35882 0.0
C1634 C 0.50188 0.14343 0.41442 0.0
C1635 C 0.50137 0.16745 0.39083 0.0
H1636 H 0.72947 0.86126 0.4968 0.0
H1637 H 0.68127 0.7901 0.5546 0.0
H1638 H 0.6317 0.82279 0.55523 0.0
H1639 H 0.60292 0.87401 0.54189 0.0
H1640 H 0.65588 0.94602 0.48955 0.0
H1641 H 0.70259 0.9111 0.48504 0.0
C1642 C 0.70849 0.85287 0.51017 0.0
C1643 C 0.70977 0.82327 0.52619 0.0
C1644 C 0.68065 0.87227 0.51154 0.0
C1645 C 0.68136 0.81264 0.54196 0.0
C1646 C 0.65296 0.83152 0.54255 0.0
C1647 C 0.62465 0.88188 0.52937 0.0
C1648 C 0.62564 0.91281 0.51588 0.0
C1649 C 0.65241 0.86172 0.52779 0.0
C1650 C 0.65422 0.92258 0.50008 0.0
C1651 C 0.6811 0.90254 0.49749 0.0
H1652 H 0.72483 0.16933 0.48697 0.0
H1653 H 0.68021 0.23445 0.55378 0.0
H1654 H 0.63095 0.20112 0.55482 0.0
H1655 H 0.60254 0.15031 0.54031 0.0
H1656 H 0.6513 0.08395 0.47751 0.0
H1657 H 0.69708 0.12044 0.47201 0.0
C1658 C 0.70446 0.1763 0.50198 0.0
C1659 C 0.70666 0.20419 0.52075 0.0
C1660 C 0.67698 0.15641 0.50351 0.0
C1661 C 0.67937 0.21321 0.53906 0.0
C1662 C 0.65128 0.19393 0.5399 0.0
C1663 C 0.62311 0.14406 0.52526 0.0
C1664 C 0.62356 0.11427 0.50953 0.0
C1665 C 0.65008 0.16501 0.5228 0.0
C1666 C 0.65047 0.10646 0.49022 0.0
C1667 C 0.67665 0.12739 0.48693 0.0
H1668 H 0.79788 0.65427 0.50789 0.0
H1669 H 0.84373 0.71961 0.5737 0.0
H1670 H 0.896 0.69201 0.56718 0.0
H1671 H 0.92766 0.64592 0.54612 0.0
H1672 H 0.88022 0.5804 0.48118 0.0
H1673 H 0.83017 0.61134 0.48365 0.0
C1674 C 0.81944 0.66258 0.52053 0.0
C1675 C 0.81684 0.68856 0.54163 0.0
C1676 C 0.84927 0.64639 0.51688 0.0
C1677 C 0.84503 0.69936 0.55764 0.0
C1678 C 0.87492 0.68357 0.55391 0.0
C1679 C 0.90655 0.63886 0.53206 0.0
C1680 C 0.90772 0.61071 0.51366 0.0
C1681 C 0.87726 0.65658 0.53408 0.0
C1682 C 0.87997 0.60175 0.49579 0.0
C1683 C 0.85123 0.61943 0.4972 0.0
H1684 H 0.31242 0.85519 0.48118 0.0
H1685 H 0.35586 0.78986 0.54889 0.0
H1686 H 0.40491 0.82332 0.55137 0.0
H1687 H 0.43341 0.87442 0.53801 0.0
H1688 H 0.38507 0.9413 0.47523 0.0
H1689 H 0.33997 0.90456 0.46781 0.0
C1690 C 0.33242 0.84821 0.49676 0.0
C1691 C 0.32993 0.82018 0.51528 0.0
C1692 C 0.35973 0.86826 0.49927 0.0
C1693 C 0.3569 0.81118 0.53426 0.0
C1694 C 0.38489 0.83055 0.53597 0.0
C1695 C 0.41308 0.88076 0.52257 0.0
C1696 C 0.41271 0.91079 0.50722 0.0
C1697 C 0.38629 0.85964 0.51918 0.0
C1698 C 0.38603 0.91861 0.48745 0.0
C1699 C 0.36016 0.89752 0.48313 0.0
H1700 H 0.18465 0.31226 0.53601 0.0
H1701 H 0.26138 0.37844 0.51315 0.0
H1702 H 0.22139 0.42156 0.50792 0.0
H1703 H 0.16442 0.44095 0.51213 0.0
H1704 H 0.08819 0.37371 0.53532 0.0
H1705 H 0.12791 0.33103 0.53827 0.0
C1706 C 0.19253 0.33612 0.52971 0.0
C1707 C 0.22596 0.34225 0.52538 0.0
C1708 C 0.16942 0.36082 0.52707 0.0
C1709 C 0.2358 0.37319 0.51686 0.0
C1710 C 0.21293 0.39787 0.51399 0.0
C1711 C 0.15645 0.417 0.51786 0.0
C1712 C 0.12308 0.41095 0.52361 0.0
C1713 C 0.17964 0.39211 0.5195 0.0
C1714 C 0.11349 0.37948 0.53073 0.0
C1715 C 0.13628 0.35483 0.53246 0.0
H1716 H 0.31953 0.17347 0.46442 0.0
H1717 H 0.35196 0.23303 0.54268 0.0
H1718 H 0.40017 0.19895 0.54986 0.0
H1719 H 0.42985 0.14839 0.53737 0.0
H1720 H 0.39135 0.08643 0.46366 0.0
H1721 H 0.34826 0.12463 0.45191 0.0
C1722 C 0.33708 0.17911 0.48316 0.0
C1723 C 0.33169 0.20552 0.50339 0.0
C1724 C 0.36336 0.15844 0.48838 0.0
C1725 C 0.35538 0.21294 0.52675 0.0
C1726 C 0.38274 0.19317 0.53111 0.0
C1727 C 0.41202 0.14345 0.5187 0.0
C1728 C 0.41357 0.11447 0.50157 0.0
C1729 C 0.38646 0.16525 0.5127 0.0
C1730 C 0.39037 0.10828 0.47748 0.0
C1731 C 0.36585 0.13021 0.4706 0.0
H1732 H 0.84898 0.31313 0.49936 0.0
H1733 H 0.77444 0.38216 0.52026 0.0
H1734 H 0.81612 0.42312 0.5288 0.0
H1735 H 0.87359 0.43999 0.52763 0.0
H1736 H 0.94841 0.37076 0.507 0.0
H1737 H 0.90697 0.32942 0.50122 0.0
C1738 C 0.84197 0.33711 0.50602 0.0
C1739 C 0.80865 0.34475 0.50872 0.0
C1740 C 0.86614 0.3606 0.51076 0.0
C1741 C 0.79988 0.3758 0.5177 0.0
C1742 C 0.82372 0.39923 0.52252 0.0
C1743 C 0.88097 0.41587 0.52195 0.0
C1744 C 0.91431 0.40879 0.51755 0.0
C1745 C 0.85692 0.39205 0.51863 0.0
C1746 C 0.9231 0.37716 0.51053 0.0
C1747 C 0.89934 0.3534 0.50714 0.0
H1748 H 0.18829 0.71135 0.49197 0.0
H1749 H 0.26116 0.64282 0.51977 0.0
H1750 H 0.21872 0.60271 0.52862 0.0
H1751 H 0.16122 0.58634 0.52589 0.0
H1752 H 0.08796 0.65493 0.49824 0.0
H1753 H 0.13006 0.6956 0.49199 0.0
C1754 C 0.19475 0.68766 0.50016 0.0
C1755 C 0.22785 0.67987 0.50475 0.0
C1756 C 0.17015 0.66464 0.50503 0.0
C1757 C 0.2359 0.64924 0.51575 0.0
C1758 C 0.21164 0.62631 0.52073 0.0
C1759 C 0.15431 0.61017 0.51854 0.0
C1760 C 0.12124 0.61727 0.51234 0.0
C1761 C 0.17871 0.63357 0.51497 0.0
C1762 C 0.11305 0.64854 0.50319 0.0
C1763 C 0.13719 0.67191 0.49953 0.0
loop_
_geom_bond_atom_site_label_1
_geom_bond_atom_site_label_2
_geom_bond_distance
_geom_bond_site_symmetry_2
_ccdc_geom_bond_type
H0 C7 0.929 . S
H1 C10 0.930 . S
H2 C12 0.929 . S
H3 C4 0.969 1_655 S
C4 H3 0.969 1_455 S
C4 O5 1.550 . S
C4 H6 0.973 . S
O5 C4 1.550 . S
O5 C11 1.412 . S
H6 C4 0.973 . S
C7 H0 0.929 . S
C7 C8 1.400 . S
C7 C9 1.364 . S
C8 C7 1.400 . S
C8 C12 1.377 . S
C9 C7 1.364 . S
C9 C10 1.374 . S
C10 H1 0.930 . S
C10 C9 1.374 . S
C10 C11 1.383 . S
C11 O5 1.412 . S
C11 C10 1.383 . S
C11 C12 1.394 . S
C12 H2 0.929 . S
C12 C8 1.377 . S
C12 C11 1.394 . S
H13 C20 0.928 . S
H14 C23 0.930 1_565 S
H15 C25 0.928 1_565 S
H16 C17 0.969 . S
C17 H16 0.969 . S
C17 O18 1.550 1_545 S
C17 H19 0.973 1_545 S
O18 C17 1.550 1_565 S
O18 C24 1.412 1_565 S
H19 C17 0.973 1_565 S
C20 H13 0.928 . S
C20 C21 1.400 . S
C20 C22 1.364 . S
C21 C20 1.400 . S
C21 C25 1.377 . S
C22 C20 1.364 . S
C22 C23 1.374 . S
C23 H14 0.930 1_545 S
C23 C22 1.374 . S
C23 C24 1.383 . S
C24 O18 1.412 1_545 S
C24 C23 1.383 . S
C24 C25 1.395 . S
C25 H15 0.928 1_545 S
C25 C21 1.377 . S
C25 C24 1.395 . S
H26 C33 0.929 . S
H27 C36 0.930 . S
H28 C38 0.929 . S
H29 C30 0.969 1_655 S
C30 H29 0.969 1_455 S
C30 O31 1.550 . S
C30 H32 0.973 . S
O31 C30 1.550 . S
O31 C37 1.412 . S
H32 C30 0.973 . S
C33 H26 0.929 . S
C33 C34 1.400 . S
C33 C35 1.364 . S
C34 C33 1.400 . S
C34 C38 1.377 . S
C35 C33 1.364 . S
C35 C36 1.374 . S
C36 H27 0.930 . S
C36 C35 1.374 . S
C36 C37 1.383 . S
C37 O31 1.412 . S
C37 C36 1.383 . S
C37 C38 1.394 . S
C38 H28 0.929 . S
C38 C34 1.377 . S
C38 C37 1.394 . S
H39 C46 0.928 . S
H40 C49 0.930 1_565 S
H41 C51 0.928 1_565 S
H42 C43 0.969 . S
C43 H42 0.969 . S
C43 O44 1.550 1_545 S
C43 H45 0.973 1_545 S
O44 C43 1.550 1_565 S
O44 C50 1.412 1_565 S
H45 C43 0.973 1_565 S
C46 H39 0.928 . S
C46 C47 1.400 . S
C46 C48 1.364 . S
C47 C46 1.400 . S
C47 C51 1.377 . S
C48 C46 1.364 . S
C48 C49 1.374 . S
C49 H40 0.930 1_545 S
C49 C48 1.374 . S
C49 C50 1.383 . S
C50 O44 1.412 1_545 S
C50 C49 1.383 . S
C50 C51 1.395 . S
C51 H41 0.928 1_545 S
C51 C47 1.377 . S
C51 C50 1.395 . S
H52 C59 0.929 . S
H53 C62 0.930 . S
H54 C64 0.929 . S
H55 C56 0.969 1_655 S
C56 H55 0.969 1_455 S
C56 O57 1.550 . S
C56 H58 0.973 . S
O57 C56 1.550 . S
O57 C63 1.412 . S
H58 C56 0.973 . S
C59 H52 0.929 . S
C59 C60 1.400 . S
C59 C61 1.364 . S
C60 C59 1.400 . S
C60 C64 1.377 . S
C61 C59 1.364 . S
C61 C62 1.374 . S
C62 H53 0.930 . S
C62 C61 1.374 . S
C62 C63 1.383 . S
C63 O57 1.412 . S
C63 C62 1.383 . S
C63 C64 1.394 . S
C64 H54 0.929 . S
C64 C60 1.377 . S
C64 C63 1.394 . S
H65 C72 0.928 1_545 S
H66 C75 0.931 . S
H67 C77 0.928 1_545 S
H68 C69 0.969 . S
C69 H68 0.969 . S
C69 O70 1.550 1_565 S
C69 H71 0.973 1_565 S
O70 C69 1.550 1_545 S
O70 C76 1.404 1_545 S
H71 C69 0.973 1_545 S
C72 H65 0.928 1_565 S
C72 C73 1.400 . S
C72 C74 1.364 . S
C73 C72 1.400 . S
C73 C77 1.377 . S
C74 C72 1.364 . S
C74 C75 1.374 1_565 S
C75 H66 0.931 . S
C75 C74 1.374 1_545 S
C75 C76 1.382 1_545 S
C76 O70 1.404 1_565 S
C76 C75 1.382 1_565 S
C76 C77 1.394 . S
C77 H67 0.928 1_565 S
C77 C73 1.377 . S
C77 C76 1.394 . S
H78 C85 0.929 . S
H79 C88 0.930 . S
H80 C90 0.929 . S
H81 C82 0.969 1_655 S
C82 H81 0.969 1_455 S
C82 O83 1.550 . S
C82 H84 0.973 . S
O83 C82 1.550 . S
O83 C89 1.412 . S
H84 C82 0.973 . S
C85 H78 0.929 . S
C85 C86 1.400 . S
C85 C87 1.364 . S
C86 C85 1.400 . S
C86 C90 1.377 . S
C87 C85 1.364 . S
C87 C88 1.374 . S
C88 H79 0.930 . S
C88 C87 1.374 . S
C88 C89 1.383 . S
C89 O83 1.412 . S
C89 C88 1.383 . S
C89 C90 1.394 . S
C90 H80 0.929 . S
C90 C86 1.377 . S
C90 C89 1.394 . S
H91 C98 0.928 1_545 S
H92 C101 0.931 . S
H93 C103 0.928 1_545 S
H94 C95 0.969 . S
C95 H94 0.969 . S
C95 O96 1.550 1_565 S
C95 H97 0.973 1_565 S
O96 C95 1.550 1_545 S
O96 C102 1.404 1_545 S
H97 C95 0.973 1_545 S
C98 H91 0.928 1_565 S
C98 C99 1.400 . S
C98 C100 1.364 . S
C99 C98 1.400 . S
C99 C103 1.377 . S
C100 C98 1.364 . S
C100 C101 1.374 1_565 S
C101 H92 0.931 . S
C101 C100 1.374 1_545 S
C101 C102 1.382 1_545 S
C102 O96 1.404 1_565 S
C102 C101 1.382 1_565 S
C102 C103 1.394 . S
C103 H93 0.928 1_565 S
C103 C99 1.377 . S
C103 C102 1.394 . S
H104 C111 0.928 1_556 S
H105 C114 0.930 . S
H106 C116 0.928 1_556 S
H107 C108 0.969 . S
C108 H107 0.969 . S
C108 O109 1.550 1_554 S
C108 H110 0.973 1_554 S
O109 C108 1.550 1_556 S
O109 C115 1.412 1_556 S
H110 C108 0.973 1_556 S
C111 H104 0.928 1_554 S
C111 C112 1.400 . S
C111 C113 1.364 . S
C112 C111 1.400 . S
C112 C116 1.377 . S
C113 C111 1.364 . S
C113 C114 1.374 1_554 S
C114 H105 0.930 . S
C114 C113 1.374 1_556 S
C114 C115 1.383 1_556 S
C115 O109 1.412 1_554 S
C115 C114 1.383 1_554 S
C115 C116 1.395 . S
C116 H106 0.928 1_554 S
C116 C112 1.377 . S
C116 C115 1.395 . S
H117 C124 0.928 . S
H118 C127 0.931 . S
H119 C129 0.928 . S
H120 C121 0.969 . S
C121 H120 0.969 . S
C121 O122 1.550 1_556 S
C121 H123 0.973 1_556 S
O122 C121 1.550 1_554 S
O122 C128 1.407 1_554 S
H123 C121 0.973 1_554 S
C124 H117 0.928 . S
C124 C125 1.400 1_554 S
C124 C126 1.364 . S
C125 C124 1.400 1_556 S
C125 C129 1.377 1_556 S
C126 C124 1.364 . S
C126 C127 1.374 . S
C127 H118 0.931 . S
C127 C126 1.374 . S
C127 C128 1.382 1_554 S
C128 O122 1.407 1_556 S
C128 C127 1.382 1_556 S
C128 C129 1.394 1_556 S
C129 H119 0.928 . S
C129 C125 1.377 1_554 S
C129 C128 1.394 1_554 S
H130 C137 0.928 1_554 S
H131 C140 0.931 . S
H132 C142 0.928 1_554 S
H133 C134 0.969 . S
C134 H133 0.969 . S
C134 O135 1.550 1_556 S
C134 H136 0.973 1_556 S
O135 C134 1.550 1_554 S
O135 C141 1.404 1_554 S
H136 C134 0.973 1_554 S
C137 H130 0.928 1_556 S
C137 C138 1.400 . S
C137 C139 1.364 . S
C138 C137 1.400 . S
C138 C142 1.377 . S
C139 C137 1.364 . S
C139 C140 1.374 1_556 S
C140 H131 0.931 . S
C140 C139 1.374 1_554 S
C140 C141 1.382 1_554 S
C141 O135 1.404 1_556 S
C141 C140 1.382 1_556 S
C141 C142 1.394 . S
C142 H132 0.928 1_556 S
C142 C138 1.377 . S
C142 C141 1.394 . S
H143 C150 0.928 . S
H144 C153 0.930 1_556 S
H145 C155 0.928 1_556 S
H146 C147 0.969 . S
C147 H146 0.969 . S
C147 O148 1.550 1_554 S
C147 H149 0.973 1_554 S
O148 C147 1.550 1_556 S
O148 C154 1.412 1_556 S
H149 C147 0.973 1_556 S
C150 H143 0.928 . S
C150 C151 1.400 . S
C150 C152 1.364 . S
C151 C150 1.400 . S
C151 C155 1.377 . S
C152 C150 1.364 . S
C152 C153 1.374 . S
C153 H144 0.930 1_554 S
C153 C152 1.374 . S
C153 C154 1.383 . S
C154 O148 1.412 1_554 S
C154 C153 1.383 . S
C154 C155 1.395 . S
C155 H145 0.928 1_554 S
C155 C151 1.377 . S
C155 C154 1.395 . S
H156 C163 0.929 . S
H157 C166 0.930 . S
H158 C168 0.929 . S
H159 C160 0.969 . S
C160 H159 0.969 . S
C160 O161 1.550 . S
C160 H162 0.973 . S
O161 C160 1.550 . S
O161 C167 1.412 . S
H162 C160 0.973 . S
C163 H156 0.929 . S
C163 C164 1.400 . S
C163 C165 1.364 . S
C164 C163 1.400 . S
C164 C168 1.377 . S
C165 C163 1.364 . S
C165 C166 1.374 . S
C166 H157 0.930 . S
C166 C165 1.374 . S
C166 C167 1.383 . S
C167 O161 1.412 . S
C167 C166 1.383 . S
C167 C168 1.394 . S
C168 H158 0.929 . S
C168 C164 1.377 . S
C168 C167 1.394 . S
H169 C176 0.929 . S
H170 C179 0.930 . S
H171 C181 0.929 . S
H172 C173 0.969 . S
C173 H172 0.969 . S
C173 O174 1.550 . S
C173 H175 0.973 . S
O174 C173 1.550 . S
O174 C180 1.412 . S
H175 C173 0.973 . S
C176 H169 0.929 . S
C176 C177 1.400 . S
C176 C178 1.364 . S
C177 C176 1.400 . S
C177 C181 1.377 . S
C178 C176 1.364 . S
C178 C179 1.374 . S
C179 H170 0.930 . S
C179 C178 1.374 . S
C179 C180 1.383 . S
C180 O174 1.412 . S
C180 C179 1.383 . S
C180 C181 1.394 . S
C181 H171 0.929 . S
C181 C177 1.377 . S
C181 C180 1.394 . S
H182 C189 0.929 . S
H183 C192 0.930 . S
H184 C194 0.929 . S
H185 C186 0.969 . S
C186 H185 0.969 . S
C186 O187 1.550 . S
C186 H188 0.973 . S
O187 C186 1.550 . S
O187 C193 1.412 . S
H188 C186 0.973 . S
C189 H182 0.929 . S
C189 C190 1.400 . S
C189 C191 1.364 . S
C190 C189 1.400 . S
C190 C194 1.377 . S
C191 C189 1.364 . S
C191 C192 1.374 . S
C192 H183 0.930 . S
C192 C191 1.374 . S
C192 C193 1.383 . S
C193 O187 1.412 . S
C193 C192 1.383 . S
C193 C194 1.394 . S
C194 H184 0.929 . S
C194 C190 1.377 . S
C194 C193 1.394 . S
H195 C202 0.929 . S
H196 C205 0.930 . S
H197 C207 0.929 . S
H198 C199 0.969 . S
C199 H198 0.969 . S
C199 O200 1.550 . S
C199 H201 0.973 . S
O200 C199 1.550 . S
O200 C206 1.412 . S
H201 C199 0.973 . S
C202 H195 0.929 . S
C202 C203 1.400 . S
C202 C204 1.364 . S
C203 C202 1.400 . S
C203 C207 1.377 . S
C204 C202 1.364 . S
C204 C205 1.374 . S
C205 H196 0.930 . S
C205 C204 1.374 . S
C205 C206 1.383 . S
C206 O200 1.412 . S
C206 C205 1.383 . S
C206 C207 1.394 . S
C207 H197 0.929 . S
C207 C203 1.377 . S
C207 C206 1.394 . S
H208 C215 0.929 . S
H209 C218 0.930 . S
H210 C220 0.929 . S
H211 C212 0.969 . S
C212 H211 0.969 . S
C212 O213 1.550 . S
C212 H214 0.973 . S
O213 C212 1.550 . S
O213 C219 1.412 . S
H214 C212 0.973 . S
C215 H208 0.929 . S
C215 C216 1.400 . S
C215 C217 1.364 . S
C216 C215 1.400 . S
C216 C220 1.377 . S
C217 C215 1.364 . S
C217 C218 1.374 . S
C218 H209 0.930 . S
C218 C217 1.374 . S
C218 C219 1.383 . S
C219 O213 1.412 . S
C219 C218 1.383 . S
C219 C220 1.394 . S
C220 H210 0.929 . S
C220 C216 1.377 . S
C220 C219 1.394 . S
H221 C228 0.929 . S
H222 C231 0.930 . S
H223 C233 0.929 . S
H224 C225 0.969 . S
C225 H224 0.969 . S
C225 O226 1.550 . S
C225 H227 0.973 . S
O226 C225 1.550 . S
O226 C232 1.412 . S
H227 C225 0.973 . S
C228 H221 0.929 . S
C228 C229 1.400 . S
C228 C230 1.364 . S
C229 C228 1.400 . S
C229 C233 1.377 . S
C230 C228 1.364 . S
C230 C231 1.374 . S
C231 H222 0.930 . S
C231 C230 1.374 . S
C231 C232 1.383 . S
C232 O226 1.412 . S
C232 C231 1.383 . S
C232 C233 1.394 . S
C233 H223 0.929 . S
C233 C229 1.377 . S
C233 C232 1.394 . S
H234 C241 0.929 . S
H235 C244 0.930 . S
H236 C246 0.929 . S
H237 C238 0.969 . S
C238 H237 0.969 . S
C238 O239 1.550 . S
C238 H240 0.973 . S
O239 C238 1.550 . S
O239 C245 1.412 . S
H240 C238 0.973 . S
C241 H234 0.929 . S
C241 C242 1.400 . S
C241 C243 1.364 . S
C242 C241 1.400 . S
C242 C246 1.377 . S
C243 C241 1.364 . S
C243 C244 1.374 . S
C244 H235 0.930 . S
C244 C243 1.374 . S
C244 C245 1.383 . S
C245 O239 1.412 . S
C245 C244 1.383 . S
C245 C246 1.394 . S
C246 H236 0.929 . S
C246 C242 1.377 . S
C246 C245 1.394 . S
H247 C254 0.929 . S
H248 C257 0.930 . S
H249 C259 0.929 . S
H250 C251 0.969 . S
C251 H250 0.969 . S
C251 O252 1.550 . S
C251 H253 0.973 . S
O252 C251 1.550 . S
O252 C258 1.412 . S
H253 C251 0.973 . S
C254 H247 0.929 . S
C254 C255 1.400 . S
C254 C256 1.364 . S
C255 C254 1.400 . S
C255 C259 1.377 . S
C256 C254 1.364 . S
C256 C257 1.374 . S
C257 H248 0.930 . S
C257 C256 1.374 . S
C257 C258 1.383 . S
C258 O252 1.412 . S
C258 C257 1.383 . S
C258 C259 1.394 . S
C259 H249 0.929 . S
C259 C255 1.377 . S
C259 C258 1.394 . S
H260 C267 0.929 . S
H261 C270 0.930 . S
H262 C272 0.929 . S
H263 C264 0.969 . S
C264 H263 0.969 . S
C264 O265 1.550 . S
C264 H266 0.973 . S
O265 C264 1.550 . S
O265 C271 1.412 . S
H266 C264 0.973 . S
C267 H260 0.929 . S
C267 C268 1.400 . S
C267 C269 1.364 . S
C268 C267 1.400 . S
C268 C272 1.377 . S
C269 C267 1.364 . S
C269 C270 1.374 . S
C270 H261 0.930 . S
C270 C269 1.374 . S
C270 C271 1.383 . S
C271 O265 1.412 . S
C271 C270 1.383 . S
C271 C272 1.394 . S
C272 H262 0.929 . S
C272 C268 1.377 . S
C272 C271 1.394 . S
H273 C280 0.929 . S
H274 C283 0.930 . S
H275 C285 0.929 . S
H276 C277 0.969 . S
C277 H276 0.969 . S
C277 O278 1.550 . S
C277 H279 0.973 . S
O278 C277 1.550 . S
O278 C284 1.412 . S
H279 C277 0.973 . S
C280 H273 0.929 . S
C280 C281 1.400 . S
C280 C282 1.364 . S
C281 C280 1.400 . S
C281 C285 1.377 . S
C282 C280 1.364 . S
C282 C283 1.374 . S
C283 H274 0.930 . S
C283 C282 1.374 . S
C283 C284 1.383 . S
C284 O278 1.412 . S
C284 C283 1.383 . S
C284 C285 1.394 . S
C285 H275 0.929 . S
C285 C281 1.377 . S
C285 C284 1.394 . S
H286 C293 0.929 . S
H287 C296 0.930 . S
H288 C298 0.929 . S
H289 C290 0.969 . S
C290 H289 0.969 . S
C290 O291 1.550 . S
C290 H292 0.973 . S
O291 C290 1.550 . S
O291 C297 1.412 . S
H292 C290 0.973 . S
C293 H286 0.929 . S
C293 C294 1.400 . S
C293 C295 1.364 . S
C294 C293 1.400 . S
C294 C298 1.377 . S
C295 C293 1.364 . S
C295 C296 1.374 . S
C296 H287 0.930 . S
C296 C295 1.374 . S
C296 C297 1.383 . S
C297 O291 1.412 . S
C297 C296 1.383 . S
C297 C298 1.394 . S
C298 H288 0.929 . S
C298 C294 1.377 . S
C298 C297 1.394 . S
H299 C306 0.929 . S
H300 C309 0.930 . S
H301 C311 0.929 . S
H302 C303 0.969 . S
C303 H302 0.969 . S
C303 O304 1.550 . S
C303 H305 0.973 . S
O304 C303 1.550 . S
O304 C310 1.412 . S
H305 C303 0.973 . S
C306 H299 0.929 . S
C306 C307 1.400 . S
C306 C308 1.364 . S
C307 C306 1.400 . S
C307 C311 1.377 . S
C308 C306 1.364 . S
C308 C309 1.374 . S
C309 H300 0.930 . S
C309 C308 1.374 . S
C309 C310 1.383 . S
C310 O304 1.412 . S
C310 C309 1.383 . S
C310 C311 1.394 . S
C311 H301 0.929 . S
C311 C307 1.377 . S
C311 C310 1.394 . S
C312 O338 1.283 . S
C312 O356 1.283 . S
C313 O339 1.283 . S
C313 O354 1.283 . S
C314 O340 1.283 . S
C314 O357 1.283 . S
C315 O341 1.283 . S
C315 O355 1.283 . S
C316 O342 1.283 . S
C316 O351 1.283 . S
C317 O343 1.283 . S
C317 O353 1.283 . S
C318 O344 1.283 . S
C318 O350 1.283 . S
C319 O345 1.283 . S
C319 O352 1.283 . S
C320 O346 1.283 . S
C320 O361 1.283 . S
C321 O347 1.283 . S
C321 O359 1.283 . S
C322 O348 1.283 . S
C322 O360 1.283 . S
C323 O349 1.283 . S
C323 O358 1.283 . S
Eu324 O325 2.370 1_455 S
Eu324 O326 2.370 . S
Eu324 O329 2.370 1_455 S
Eu324 O330 2.370 . S
Eu324 O338 2.363 . S
Eu324 O339 2.363 . S
Eu324 O352 2.363 . S
Eu324 O353 2.363 1_455 S
O325 Eu324 2.370 1_655 S
O325 Eu327 2.368 1_565 S
O325 Eu332 2.368 1_665 S
O326 Eu324 2.370 . S
O326 Eu328 2.368 1_565 S
O326 Eu331 2.368 1_565 S
Eu327 O325 2.368 1_545 S
Eu327 O329 2.368 1_545 S
Eu327 O333 2.372 . S
Eu327 O334 2.372 . S
Eu327 O342 2.366 . S
Eu327 O343 2.360 1_545 S
Eu327 O358 2.363 . S
Eu327 O359 2.363 . S
Eu328 O326 2.368 1_545 S
Eu328 O330 2.368 1_545 S
Eu328 O335 2.372 . S
Eu328 O336 2.372 . S
Eu328 O344 2.366 . S
Eu328 O345 2.360 1_545 S
Eu328 O360 2.363 . S
Eu328 O361 2.363 . S
O329 Eu324 2.370 1_655 S
O329 Eu327 2.368 1_565 S
O329 Eu331 2.368 1_665 S
O330 Eu324 2.370 . S
O330 Eu328 2.368 1_565 S
O330 Eu332 2.368 1_565 S
Eu331 O326 2.368 1_545 S
Eu331 O329 2.368 1_445 S
Eu331 O333 2.372 1_455 S
Eu331 O336 2.372 . S
Eu331 O348 2.363 . S
Eu331 O349 2.363 1_455 S
Eu331 O356 2.360 1_545 S
Eu331 O357 2.366 . S
Eu332 O325 2.368 1_445 S
Eu332 O330 2.368 1_545 S
Eu332 O334 2.372 1_455 S
Eu332 O335 2.372 . S
Eu332 O346 2.363 . S
Eu332 O347 2.363 1_455 S
Eu332 O354 2.359 1_545 S
Eu332 O355 2.367 . S
O333 Eu327 2.372 . S
O333 Eu331 2.372 1_655 S
O333 Eu337 2.370 1_655 S
O334 Eu327 2.372 . S
O334 Eu332 2.372 1_655 S
O334 Eu337 2.370 1_655 S
O335 Eu328 2.372 . S
O335 Eu332 2.372 . S
O335 Eu337 2.370 . S
O336 Eu328 2.372 . S
O336 Eu331 2.372 . S
O336 Eu337 2.370 . S
Eu337 O333 2.370 1_455 S
Eu337 O334 2.370 1_455 S
Eu337 O335 2.370 . S
Eu337 O336 2.370 . S
Eu337 O340 2.363 . S
Eu337 O341 2.363 . S
Eu337 O350 2.363 . S
Eu337 O351 2.363 1_455 S
O338 C312 1.283 . S
O338 Eu324 2.363 . S
O339 C313 1.283 . S
O339 Eu324 2.363 . S
O340 C314 1.283 . S
O340 Eu337 2.363 . S
O341 C315 1.283 . S
O341 Eu337 2.363 . S
O342 C316 1.283 . S
O342 Eu327 2.366 . S
O343 C317 1.283 . S
O343 Eu327 2.360 1_565 S
O344 C318 1.283 . S
O344 Eu328 2.366 . S
O345 C319 1.283 . S
O345 Eu328 2.360 1_565 S
O346 C320 1.283 . S
O346 Eu332 2.363 . S
O347 C321 1.283 . S
O347 Eu332 2.363 1_655 S
O348 C322 1.283 . S
O348 Eu331 2.363 . S
O349 C323 1.283 . S
O349 Eu331 2.363 1_655 S
O350 C318 1.283 . S
O350 Eu337 2.363 . S
O351 C316 1.283 . S
O351 Eu337 2.363 1_655 S
O352 C319 1.283 . S
O352 Eu324 2.363 . S
O353 C317 1.283 . S
O353 Eu324 2.363 1_655 S
O354 C313 1.283 . S
O354 Eu332 2.359 1_565 S
O355 C315 1.283 . S
O355 Eu332 2.367 . S
O356 C312 1.283 . S
O356 Eu331 2.360 1_565 S
O357 C314 1.283 . S
O357 Eu331 2.366 . S
O358 C323 1.283 . S
O358 Eu327 2.363 . S
O359 C321 1.283 . S
O359 Eu327 2.363 . S
O360 C322 1.283 . S
O360 Eu328 2.363 . S
O361 C320 1.283 . S
O361 Eu328 2.363 . S
C362 O388 1.283 . S
C362 O406 1.283 . S
C363 O389 1.283 . S
C363 O404 1.283 . S
C364 O390 1.283 . S
C364 O407 1.283 . S
C365 O391 1.283 . S
C365 O405 1.283 . S
C366 O392 1.283 . S
C366 O401 1.283 . S
C367 O393 1.283 . S
C367 O403 1.283 . S
C368 O394 1.283 . S
C368 O400 1.283 . S
C369 O395 1.283 . S
C369 O402 1.283 . S
C370 O396 1.283 . S
C370 O411 1.283 . S
C371 O397 1.283 . S
C371 O409 1.283 . S
C372 O398 1.283 . S
C372 O410 1.283 . S
C373 O399 1.283 . S
C373 O408 1.283 . S
Eu374 O375 2.371 . S
Eu374 O376 2.369 1_545 S
Eu374 O379 2.369 1_545 S
Eu374 O380 2.371 . S
Eu374 O388 2.361 1_545 S
Eu374 O389 2.365 . S
Eu374 O402 2.363 . S
Eu374 O403 2.363 . S
O375 Eu374 2.371 . S
O375 Eu377 2.374 . S
O375 Eu382 2.372 . S
O376 Eu374 2.369 1_565 S
O376 Eu378 2.370 1_565 S
O376 Eu381 2.371 . S
Eu377 O375 2.374 . S
Eu377 O379 2.370 1_545 S
Eu377 O383 2.366 1_544 S
Eu377 O384 2.370 1_554 S
Eu377 O392 2.360 1_554 S
Eu377 O393 2.366 . S
Eu377 O408 2.360 1_545 S
Eu377 O409 2.366 . S
Eu378 O376 2.370 1_545 S
Eu378 O380 2.374 . S
Eu378 O385 2.370 1_554 S
Eu378 O386 2.366 1_544 S
Eu378 O394 2.360 1_554 S
Eu378 O395 2.366 . S
Eu378 O410 2.360 1_545 S
Eu378 O411 2.366 . S
O379 Eu374 2.369 1_565 S
O379 Eu377 2.370 1_565 S
O379 Eu381 2.371 . S
O380 Eu374 2.371 . S
O380 Eu378 2.374 . S
O380 Eu382 2.372 . S
Eu381 O376 2.371 . S
Eu381 O379 2.371 . S
Eu381 O383 2.369 1_554 S
Eu381 O386 2.369 1_554 S
Eu381 O398 2.363 . S
Eu381 O399 2.363 . S
Eu381 O406 2.365 . S
Eu381 O407 2.361 1_554 S
Eu382 O375 2.372 . S
Eu382 O380 2.372 . S
Eu382 O384 2.368 1_554 S
Eu382 O385 2.368 1_554 S
Eu382 O396 2.363 . S
Eu382 O397 2.363 . S
Eu382 O404 2.367 . S
Eu382 O405 2.359 1_554 S
O383 Eu377 2.366 1_566 S
O383 Eu381 2.369 1_556 S
O383 Eu387 2.368 1_565 S
O384 Eu377 2.370 1_556 S
O384 Eu382 2.368 1_556 S
O384 Eu387 2.373 . S
O385 Eu378 2.370 1_556 S
O385 Eu382 2.368 1_556 S
O385 Eu387 2.373 . S
O386 Eu378 2.366 1_566 S
O386 Eu381 2.369 1_556 S
O386 Eu387 2.368 1_565 S
Eu387 O383 2.368 1_545 S
Eu387 O384 2.373 . S
Eu387 O385 2.373 . S
Eu387 O386 2.368 1_545 S
Eu387 O390 2.359 1_545 S
Eu387 O391 2.367 . S
Eu387 O400 2.363 . S
Eu387 O401 2.363 . S
O388 C362 1.283 . S
O388 Eu374 2.361 1_565 S
O389 C363 1.283 . S
O389 Eu374 2.365 . S
O390 C364 1.283 . S
O390 Eu387 2.359 1_565 S
O391 C365 1.283 . S
O391 Eu387 2.367 . S
O392 C366 1.283 . S
O392 Eu377 2.360 1_556 S
O393 C367 1.283 . S
O393 Eu377 2.366 . S
O394 C368 1.283 . S
O394 Eu378 2.360 1_556 S
O395 C369 1.283 . S
O395 Eu378 2.366 . S
O396 C370 1.283 . S
O396 Eu382 2.363 . S
O397 C371 1.283 . S
O397 Eu382 2.363 . S
O398 C372 1.283 . S
O398 Eu381 2.363 . S
O399 C373 1.283 . S
O399 Eu381 2.363 . S
O400 C368 1.283 . S
O400 Eu387 2.363 . S
O401 C366 1.283 . S
O401 Eu387 2.363 . S
O402 C369 1.283 . S
O402 Eu374 2.363 . S
O403 C367 1.283 . S
O403 Eu374 2.363 . S
O404 C363 1.283 . S
O404 Eu382 2.367 . S
O405 C365 1.283 . S
O405 Eu382 2.359 1_556 S
O406 C362 1.283 . S
O406 Eu381 2.365 . S
O407 C364 1.283 . S
O407 Eu381 2.361 1_556 S
O408 C373 1.283 . S
O408 Eu377 2.360 1_565 S
O409 C371 1.283 . S
O409 Eu377 2.366 . S
O410 C372 1.283 . S
O410 Eu378 2.360 1_565 S
O411 C370 1.283 . S
O411 Eu378 2.366 . S
C412 O438 1.283 . S
C412 O456 1.283 . S
C413 O439 1.283 . S
C413 O454 1.283 . S
C414 O440 1.283 . S
C414 O457 1.283 . S
C415 O441 1.283 . S
C415 O455 1.283 . S
C416 O442 1.283 . S
C416 O451 1.283 . S
C417 O443 1.283 . S
C417 O453 1.283 . S
C418 O444 1.283 . S
C418 O450 1.283 . S
C419 O445 1.283 . S
C419 O452 1.283 . S
C420 O446 1.283 . S
C420 O461 1.283 . S
C421 O447 1.283 . S
C421 O459 1.283 . S
C422 O448 1.283 . S
C422 O460 1.283 . S
C423 O449 1.283 . S
C423 O458 1.283 . S
Eu424 O425 2.369 1_454 S
Eu424 O426 2.371 . S
Eu424 O429 2.371 1_455 S
Eu424 O430 2.369 1_554 S
Eu424 O438 2.365 . S
Eu424 O439 2.361 1_554 S
Eu424 O452 2.363 . S
Eu424 O453 2.363 1_455 S
O425 Eu424 2.369 1_656 S
O425 Eu427 2.368 1_556 S
O425 Eu432 2.370 1_655 S
O426 Eu424 2.371 . S
O426 Eu428 2.372 . S
O426 Eu431 2.370 . S
Eu427 O425 2.368 1_554 S
Eu427 O429 2.372 . S
Eu427 O433 2.372 . S
Eu427 O434 2.368 1_554 S
Eu427 O442 2.363 . S
Eu427 O443 2.363 . S
Eu427 O458 2.366 . S
Eu427 O459 2.360 1_554 S
Eu428 O426 2.372 . S
Eu428 O430 2.368 1_554 S
Eu428 O435 2.368 1_554 S
Eu428 O436 2.372 . S
Eu428 O444 2.363 . S
Eu428 O445 2.363 . S
Eu428 O460 2.366 . S
Eu428 O461 2.360 1_554 S
O429 Eu424 2.371 1_655 S
O429 Eu427 2.372 . S
O429 Eu431 2.370 1_655 S
O430 Eu424 2.369 1_556 S
O430 Eu428 2.368 1_556 S
O430 Eu432 2.370 . S
Eu431 O426 2.370 . S
Eu431 O429 2.370 1_455 S
Eu431 O433 2.370 1_455 S
Eu431 O436 2.370 . S
Eu431 O448 2.363 . S
Eu431 O449 2.363 1_455 S
Eu431 O456 2.363 . S
Eu431 O457 2.363 . S
Eu432 O425 2.370 1_455 S
Eu432 O430 2.370 . S
Eu432 O434 2.370 1_455 S
Eu432 O435 2.370 . S
Eu432 O446 2.363 . S
Eu432 O447 2.363 1_455 S
Eu432 O454 2.363 . S
Eu432 O455 2.363 . S
O433 Eu427 2.372 . S
O433 Eu431 2.370 1_655 S
O433 Eu437 2.372 1_655 S
O434 Eu427 2.368 1_556 S
O434 Eu432 2.370 1_655 S
O434 Eu437 2.368 1_656 S
O435 Eu428 2.368 1_556 S
O435 Eu432 2.370 . S
O435 Eu437 2.368 1_556 S
O436 Eu428 2.372 . S
O436 Eu431 2.370 . S
O436 Eu437 2.372 . S
Eu437 O433 2.372 1_455 S
Eu437 O434 2.368 1_454 S
Eu437 O435 2.368 1_554 S
Eu437 O436 2.372 . S
Eu437 O440 2.367 . S
Eu437 O441 2.359 1_554 S
Eu437 O450 2.363 . S
Eu437 O451 2.363 1_455 S
O438 C412 1.283 . S
O438 Eu424 2.365 . S
O439 C413 1.283 . S
O439 Eu424 2.361 1_556 S
O440 C414 1.283 . S
O440 Eu437 2.367 . S
O441 C415 1.283 . S
O441 Eu437 2.359 1_556 S
O442 C416 1.283 . S
O442 Eu427 2.363 . S
O443 C417 1.283 . S
O443 Eu427 2.363 . S
O444 C418 1.283 . S
O444 Eu428 2.363 . S
O445 C419 1.283 . S
O445 Eu428 2.363 . S
O446 C420 1.283 . S
O446 Eu432 2.363 . S
O447 C421 1.283 . S
O447 Eu432 2.363 1_655 S
O448 C422 1.283 . S
O448 Eu431 2.363 . S
O449 C423 1.283 . S
O449 Eu431 2.363 1_655 S
O450 C418 1.283 . S
O450 Eu437 2.363 . S
O451 C416 1.283 . S
O451 Eu437 2.363 1_655 S
O452 C419 1.283 . S
O452 Eu424 2.363 . S
O453 C417 1.283 . S
O453 Eu424 2.363 1_655 S
O454 C413 1.283 . S
O454 Eu432 2.363 . S
O455 C415 1.283 . S
O455 Eu432 2.363 . S
O456 C412 1.283 . S
O456 Eu431 2.363 . S
O457 C414 1.283 . S
O457 Eu431 2.363 . S
O458 C423 1.283 . S
O458 Eu427 2.366 . S
O459 C421 1.283 . S
O459 Eu427 2.360 1_556 S
O460 C422 1.283 . S
O460 Eu428 2.366 . S
O461 C420 1.283 . S
O461 Eu428 2.360 1_556 S
C462 O488 1.283 . S
C462 O506 1.283 . S
C463 O489 1.283 . S
C463 O504 1.283 . S
C464 O490 1.283 . S
C464 O507 1.283 . S
C465 O491 1.283 . S
C465 O505 1.283 . S
C466 O492 1.283 . S
C466 O501 1.283 . S
C467 O493 1.283 . S
C467 O503 1.283 . S
C468 O494 1.283 . S
C468 O500 1.283 . S
C469 O495 1.283 . S
C469 O502 1.283 . S
C470 O496 1.283 . S
C470 O511 1.283 . S
C471 O497 1.283 . S
C471 O509 1.283 . S
C472 O498 1.283 . S
C472 O510 1.283 . S
C473 O499 1.283 . S
C473 O508 1.283 . S
Eu474 O475 2.370 . S
Eu474 O476 2.370 . S
Eu474 O479 2.370 . S
Eu474 O480 2.370 . S
Eu474 O488 2.363 . S
Eu474 O489 2.363 . S
Eu474 O502 2.363 . S
Eu474 O503 2.363 . S
O475 Eu474 2.370 . S
O475 Eu477 2.372 . S
O475 Eu482 2.372 . S
O476 Eu474 2.370 . S
O476 Eu478 2.372 . S
O476 Eu481 2.371 . S
Eu477 O475 2.372 . S
Eu477 O479 2.372 . S
Eu477 O483 2.368 1_554 S
Eu477 O484 2.368 1_554 S
Eu477 O492 2.360 1_554 S
Eu477 O493 2.366 . S
Eu477 O508 2.363 . S
Eu477 O509 2.363 . S
Eu478 O476 2.372 . S
Eu478 O480 2.372 . S
Eu478 O485 2.368 1_554 S
Eu478 O486 2.368 1_554 S
Eu478 O494 2.360 1_554 S
Eu478 O495 2.366 . S
Eu478 O510 2.363 . S
Eu478 O511 2.363 . S
O479 Eu474 2.370 . S
O479 Eu477 2.372 . S
O479 Eu481 2.371 . S
O480 Eu474 2.370 . S
O480 Eu478 2.372 . S
O480 Eu482 2.372 . S
Eu481 O476 2.371 . S
Eu481 O479 2.371 . S
Eu481 O483 2.369 1_554 S
Eu481 O486 2.369 1_554 S
Eu481 O498 2.363 . S
Eu481 O499 2.363 . S
Eu481 O506 2.365 . S
Eu481 O507 2.361 1_554 S
Eu482 O475 2.372 . S
Eu482 O480 2.372 . S
Eu482 O484 2.368 1_554 S
Eu482 O485 2.368 1_554 S
Eu482 O496 2.363 . S
Eu482 O497 2.363 . S
Eu482 O504 2.367 . S
Eu482 O505 2.359 1_554 S
O483 Eu477 2.368 1_556 S
O483 Eu481 2.369 1_556 S
O483 Eu487 2.370 . S
O484 Eu477 2.368 1_556 S
O484 Eu482 2.368 1_556 S
O484 Eu487 2.370 . S
O485 Eu478 2.368 1_556 S
O485 Eu482 2.368 1_556 S
O485 Eu487 2.370 . S
O486 Eu478 2.368 1_556 S
O486 Eu481 2.369 1_556 S
O486 Eu487 2.370 . S
Eu487 O483 2.370 . S
Eu487 O484 2.370 . S
Eu487 O485 2.370 . S
Eu487 O486 2.370 . S
Eu487 O490 2.363 . S
Eu487 O491 2.363 . S
Eu487 O500 2.363 . S
Eu487 O501 2.363 . S
O488 C462 1.283 . S
O488 Eu474 2.363 . S
O489 C463 1.283 . S
O489 Eu474 2.363 . S
O490 C464 1.283 . S
O490 Eu487 2.363 . S
O491 C465 1.283 . S
O491 Eu487 2.363 . S
O492 C466 1.283 . S
O492 Eu477 2.360 1_556 S
O493 C467 1.283 . S
O493 Eu477 2.366 . S
O494 C468 1.283 . S
O494 Eu478 2.360 1_556 S
O495 C469 1.283 . S
O495 Eu478 2.366 . S
O496 C470 1.283 . S
O496 Eu482 2.363 . S
O497 C471 1.283 . S
O497 Eu482 2.363 . S
O498 C472 1.283 . S
O498 Eu481 2.363 . S
O499 C473 1.283 . S
O499 Eu481 2.363 . S
O500 C468 1.283 . S
O500 Eu487 2.363 . S
O501 C466 1.283 . S
O501 Eu487 2.363 . S
O502 C469 1.283 . S
O502 Eu474 2.363 . S
O503 C467 1.283 . S
O503 Eu474 2.363 . S
O504 C463 1.283 . S
O504 Eu482 2.367 . S
O505 C465 1.283 . S
O505 Eu482 2.359 1_556 S
O506 C462 1.283 . S
O506 Eu481 2.365 . S
O507 C464 1.283 . S
O507 Eu481 2.361 1_556 S
O508 C473 1.283 . S
O508 Eu477 2.363 . S
O509 C471 1.283 . S
O509 Eu477 2.363 . S
O510 C472 1.283 . S
O510 Eu478 2.363 . S
O511 C470 1.283 . S
O511 Eu478 2.363 . S
C512 O538 1.283 . S
C512 O556 1.283 . S
C513 O539 1.283 . S
C513 O554 1.283 . S
C514 O540 1.283 . S
C514 O557 1.283 . S
C515 O541 1.283 . S
C515 O555 1.283 . S
C516 O542 1.283 . S
C516 O551 1.283 . S
C517 O543 1.283 . S
C517 O553 1.283 . S
C518 O544 1.283 . S
C518 O550 1.283 . S
C519 O545 1.283 . S
C519 O552 1.283 . S
C520 O546 1.283 . S
C520 O561 1.283 . S
C521 O547 1.283 . S
C521 O559 1.283 . S
C522 O548 1.283 . S
C522 O560 1.283 . S
C523 O549 1.283 . S
C523 O558 1.283 . S
Eu524 O525 2.370 1_455 S
Eu524 O526 2.370 . S
Eu524 O529 2.370 1_455 S
Eu524 O530 2.370 . S
Eu524 O538 2.363 . S
Eu524 O539 2.363 . S
Eu524 O552 2.363 . S
Eu524 O553 2.363 1_455 S
O525 Eu524 2.370 1_655 S
O525 Eu527 2.370 . S
O525 Eu532 2.370 1_655 S
O526 Eu524 2.370 . S
O526 Eu528 2.370 . S
O526 Eu531 2.370 . S
Eu527 O525 2.370 . S
Eu527 O529 2.370 . S
Eu527 O533 2.370 . S
Eu527 O534 2.370 . S
Eu527 O542 2.363 . S
Eu527 O543 2.363 . S
Eu527 O558 2.363 . S
Eu527 O559 2.363 . S
Eu528 O526 2.370 . S
Eu528 O530 2.370 . S
Eu528 O535 2.370 . S
Eu528 O536 2.370 . S
Eu528 O544 2.363 . S
Eu528 O545 2.363 . S
Eu528 O560 2.363 . S
Eu528 O561 2.363 . S
O529 Eu524 2.370 1_655 S
O529 Eu527 2.370 . S
O529 Eu531 2.370 1_655 S
O530 Eu524 2.370 . S
O530 Eu528 2.370 . S
O530 Eu532 2.370 . S
Eu531 O526 2.370 . S
Eu531 O529 2.370 1_455 S
Eu531 O533 2.370 1_455 S
Eu531 O536 2.370 . S
Eu531 O548 2.363 . S
Eu531 O549 2.363 1_455 S
Eu531 O556 2.363 . S
Eu531 O557 2.363 . S
Eu532 O525 2.370 1_455 S
Eu532 O530 2.370 . S
Eu532 O534 2.370 1_455 S
Eu532 O535 2.370 . S
Eu532 O546 2.363 . S
Eu532 O547 2.363 1_455 S
Eu532 O554 2.363 . S
Eu532 O555 2.363 . S
O533 Eu527 2.370 . S
O533 Eu531 2.370 1_655 S
O533 Eu537 2.370 1_655 S
O534 Eu527 2.370 . S
O534 Eu532 2.370 1_655 S
O534 Eu537 2.370 1_655 S
O535 Eu528 2.370 . S
O535 Eu532 2.370 . S
O535 Eu537 2.370 . S
O536 Eu528 2.370 . S
O536 Eu531 2.370 . S
O536 Eu537 2.370 . S
Eu537 O533 2.370 1_455 S
Eu537 O534 2.370 1_455 S
Eu537 O535 2.370 . S
Eu537 O536 2.370 . S
Eu537 O540 2.363 . S
Eu537 O541 2.363 . S
Eu537 O550 2.363 . S
Eu537 O551 2.363 1_455 S
O538 C512 1.283 . S
O538 Eu524 2.363 . S
O539 C513 1.283 . S
O539 Eu524 2.363 . S
O540 C514 1.283 . S
O540 Eu537 2.363 . S
O541 C515 1.283 . S
O541 Eu537 2.363 . S
O542 C516 1.283 . S
O542 Eu527 2.363 . S
O543 C517 1.283 . S
O543 Eu527 2.363 . S
O544 C518 1.283 . S
O544 Eu528 2.363 . S
O545 C519 1.283 . S
O545 Eu528 2.363 . S
O546 C520 1.283 . S
O546 Eu532 2.363 . S
O547 C521 1.283 . S
O547 Eu532 2.363 1_655 S
O548 C522 1.283 . S
O548 Eu531 2.363 . S
O549 C523 1.283 . S
O549 Eu531 2.363 1_655 S
O550 C518 1.283 . S
O550 Eu537 2.363 . S
O551 C516 1.283 . S
O551 Eu537 2.363 1_655 S
O552 C519 1.283 . S
O552 Eu524 2.363 . S
O553 C517 1.283 . S
O553 Eu524 2.363 1_655 S
O554 C513 1.283 . S
O554 Eu532 2.363 . S
O555 C515 1.283 . S
O555 Eu532 2.363 . S
O556 C512 1.283 . S
O556 Eu531 2.363 . S
O557 C514 1.283 . S
O557 Eu531 2.363 . S
O558 C523 1.283 . S
O558 Eu527 2.363 . S
O559 C521 1.283 . S
O559 Eu527 2.363 . S
O560 C522 1.283 . S
O560 Eu528 2.363 . S
O561 C520 1.283 . S
O561 Eu528 2.363 . S
C562 O588 1.283 . S
C562 O606 1.283 . S
C563 O589 1.283 . S
C563 O604 1.283 . S
C564 O590 1.283 . S
C564 O607 1.283 . S
C565 O591 1.283 . S
C565 O605 1.283 . S
C566 O592 1.283 . S
C566 O601 1.283 . S
C567 O593 1.283 . S
C567 O603 1.283 . S
C568 O594 1.283 . S
C568 O600 1.283 . S
C569 O595 1.283 . S
C569 O602 1.283 . S
C570 O596 1.283 . S
C570 O611 1.283 . S
C571 O597 1.283 . S
C571 O609 1.283 . S
C572 O598 1.283 . S
C572 O610 1.283 . S
C573 O599 1.283 . S
C573 O608 1.283 . S
Eu574 O575 2.370 . S
Eu574 O576 2.370 . S
Eu574 O579 2.370 . S
Eu574 O580 2.370 . S
Eu574 O588 2.363 . S
Eu574 O589 2.363 . S
Eu574 O602 2.363 . S
Eu574 O603 2.363 . S
O575 Eu574 2.370 . S
O575 Eu577 2.368 1_565 S
O575 Eu582 2.368 1_565 S
O576 Eu574 2.370 . S
O576 Eu578 2.368 1_565 S
O576 Eu581 2.369 1_565 S
Eu577 O575 2.368 1_545 S
Eu577 O579 2.368 1_545 S
Eu577 O583 2.372 . S
Eu577 O584 2.372 . S
Eu577 O592 2.366 . S
Eu577 O593 2.359 1_545 S
Eu577 O608 2.363 . S
Eu577 O609 2.363 . S
Eu578 O576 2.368 1_545 S
Eu578 O580 2.368 1_545 S
Eu578 O585 2.372 . S
Eu578 O586 2.372 . S
Eu578 O594 2.366 . S
Eu578 O595 2.360 1_545 S
Eu578 O610 2.363 . S
Eu578 O611 2.363 . S
O579 Eu574 2.370 . S
O579 Eu577 2.368 1_565 S
O579 Eu581 2.369 1_565 S
O580 Eu574 2.370 . S
O580 Eu578 2.368 1_565 S
O580 Eu582 2.368 1_565 S
Eu581 O576 2.369 1_545 S
Eu581 O579 2.369 1_545 S
Eu581 O583 2.372 . S
Eu581 O586 2.372 . S
Eu581 O598 2.363 . S
Eu581 O599 2.363 . S
Eu581 O606 2.360 1_545 S
Eu581 O607 2.365 . S
Eu582 O575 2.368 1_545 S
Eu582 O580 2.368 1_545 S
Eu582 O584 2.373 . S
Eu582 O585 2.373 . S
Eu582 O596 2.363 . S
Eu582 O597 2.363 . S
Eu582 O604 2.359 1_545 S
Eu582 O605 2.367 . S
O583 Eu577 2.372 . S
O583 Eu581 2.372 . S
O583 Eu587 2.370 . S
O584 Eu577 2.372 . S
O584 Eu582 2.373 . S
O584 Eu587 2.370 . S
O585 Eu578 2.372 . S
O585 Eu582 2.373 . S
O585 Eu587 2.370 . S
O586 Eu578 2.372 . S
O586 Eu581 2.372 . S
O586 Eu587 2.370 . S
Eu587 O583 2.370 . S
Eu587 O584 2.370 . S
Eu587 O585 2.370 . S
Eu587 O586 2.370 . S
Eu587 O590 2.363 . S
Eu587 O591 2.363 . S
Eu587 O600 2.363 . S
Eu587 O601 2.363 . S
O588 C562 1.283 . S
O588 Eu574 2.363 . S
O589 C563 1.283 . S
O589 Eu574 2.363 . S
O590 C564 1.283 . S
O590 Eu587 2.363 . S
O591 C565 1.283 . S
O591 Eu587 2.363 . S
O592 C566 1.283 . S
O592 Eu577 2.366 . S
O593 C567 1.283 . S
O593 Eu577 2.359 1_565 S
O594 C568 1.283 . S
O594 Eu578 2.366 . S
O595 C569 1.283 . S
O595 Eu578 2.360 1_565 S
O596 C570 1.283 . S
O596 Eu582 2.363 . S
O597 C571 1.283 . S
O597 Eu582 2.363 . S
O598 C572 1.283 . S
O598 Eu581 2.363 . S
O599 C573 1.283 . S
O599 Eu581 2.363 . S
O600 C568 1.283 . S
O600 Eu587 2.363 . S
O601 C566 1.283 . S
O601 Eu587 2.363 . S
O602 C569 1.283 . S
O602 Eu574 2.363 . S
O603 C567 1.283 . S
O603 Eu574 2.363 . S
O604 C563 1.283 . S
O604 Eu582 2.359 1_565 S
O605 C565 1.283 . S
O605 Eu582 2.367 . S
O606 C562 1.283 . S
O606 Eu581 2.360 1_565 S
O607 C564 1.283 . S
O607 Eu581 2.365 . S
O608 C573 1.283 . S
O608 Eu577 2.363 . S
O609 C571 1.283 . S
O609 Eu577 2.363 . S
O610 C572 1.283 . S
O610 Eu578 2.363 . S
O611 C570 1.283 . S
O611 Eu578 2.363 . S
H612 C618 0.930 . S
H613 C621 0.930 . S
H614 C622 0.930 . S
H615 C623 0.930 . S
H616 C626 0.930 . S
H617 C627 0.930 . S
C618 H612 0.930 . S
C618 C619 1.355 . S
C618 C620 1.415 . S
C619 C618 1.355 . S
C619 C621 1.419 . S
C620 C618 1.415 . S
C620 C625 1.425 . S
C620 C627 1.409 . S
C621 H613 0.930 . S
C621 C619 1.419 . S
C621 C622 1.362 . S
C622 H614 0.930 . S
C622 C621 1.362 . S
C622 C625 1.409 . S
C623 H615 0.930 . S
C623 C624 1.355 . S
C623 C625 1.415 . S
C624 C623 1.355 . S
C624 C626 1.419 . S
C625 C620 1.425 . S
C625 C622 1.409 . S
C625 C623 1.415 . S
C626 H616 0.930 . S
C626 C624 1.419 . S
C626 C627 1.362 . S
C627 H617 0.930 . S
C627 C620 1.409 . S
C627 C626 1.362 . S
H628 C634 0.930 . S
H629 C637 0.930 . S
H630 C638 0.930 . S
H631 C639 0.930 . S
H632 C642 0.930 . S
H633 C643 0.930 . S
C634 H628 0.930 . S
C634 C635 1.355 . S
C634 C636 1.415 . S
C635 C634 1.355 . S
C635 C637 1.419 . S
C636 C634 1.415 . S
C636 C641 1.425 . S
C636 C643 1.409 . S
C637 H629 0.930 . S
C637 C635 1.419 . S
C637 C638 1.362 . S
C638 H630 0.930 . S
C638 C637 1.362 . S
C638 C641 1.409 . S
C639 H631 0.930 . S
C639 C640 1.355 . S
C639 C641 1.415 . S
C640 C639 1.355 . S
C640 C642 1.419 . S
C641 C636 1.425 . S
C641 C638 1.409 . S
C641 C639 1.415 . S
C642 H632 0.930 . S
C642 C640 1.419 . S
C642 C643 1.362 . S
C643 H633 0.930 . S
C643 C636 1.409 . S
C643 C642 1.362 . S
H644 C650 0.930 . S
H645 C653 0.930 . S
H646 C654 0.930 . S
H647 C655 0.930 . S
H648 C658 0.930 . S
H649 C659 0.930 . S
C650 H644 0.930 . S
C650 C651 1.355 . S
C650 C652 1.415 . S
C651 C650 1.355 . S
C651 C653 1.419 . S
C652 C650 1.415 . S
C652 C657 1.425 . S
C652 C659 1.409 . S
C653 H645 0.930 . S
C653 C651 1.419 . S
C653 C654 1.362 . S
C654 H646 0.930 . S
C654 C653 1.362 . S
C654 C657 1.409 . S
C655 H647 0.930 . S
C655 C656 1.355 . S
C655 C657 1.415 . S
C656 C655 1.355 . S
C656 C658 1.419 . S
C657 C652 1.425 . S
C657 C654 1.409 . S
C657 C655 1.415 . S
C658 H648 0.930 . S
C658 C656 1.419 . S
C658 C659 1.362 . S
C659 H649 0.930 . S
C659 C652 1.409 . S
C659 C658 1.362 . S
H660 C666 0.930 . S
H661 C669 0.930 . S
H662 C670 0.930 . S
H663 C671 0.930 . S
H664 C674 0.930 . S
H665 C675 0.930 . S
C666 H660 0.930 . S
C666 C667 1.355 . S
C666 C668 1.415 . S
C667 C666 1.355 . S
C667 C669 1.419 . S
C668 C666 1.415 . S
C668 C673 1.425 . S
C668 C675 1.409 . S
C669 H661 0.930 . S
C669 C667 1.419 . S
C669 C670 1.362 . S
C670 H662 0.930 . S
C670 C669 1.362 . S
C670 C673 1.409 . S
C671 H663 0.930 . S
C671 C672 1.355 . S
C671 C673 1.415 . S
C672 C671 1.355 . S
C672 C674 1.419 . S
C673 C668 1.425 . S
C673 C670 1.409 . S
C673 C671 1.415 . S
C674 H664 0.930 . S
C674 C672 1.419 . S
C674 C675 1.362 . S
C675 H665 0.930 . S
C675 C668 1.409 . S
C675 C674 1.362 . S
H676 C682 0.930 . S
H677 C685 0.930 . S
H678 C686 0.930 . S
H679 C687 0.930 . S
H680 C690 0.930 . S
H681 C691 0.930 . S
C682 H676 0.930 . S
C682 C683 1.355 . S
C682 C684 1.415 . S
C683 C682 1.355 . S
C683 C685 1.419 . S
C684 C682 1.415 . S
C684 C689 1.425 . S
C684 C691 1.409 . S
C685 H677 0.930 . S
C685 C683 1.419 . S
C685 C686 1.362 . S
C686 H678 0.930 . S
C686 C685 1.362 . S
C686 C689 1.409 . S
C687 H679 0.930 . S
C687 C688 1.355 . S
C687 C689 1.415 . S
C688 C687 1.355 . S
C688 C690 1.419 . S
C689 C684 1.425 . S
C689 C686 1.409 . S
C689 C687 1.415 . S
C690 H680 0.930 . S
C690 C688 1.419 . S
C690 C691 1.362 . S
C691 H681 0.930 . S
C691 C684 1.409 . S
C691 C690 1.362 . S
H692 C698 0.930 . S
H693 C701 0.930 . S
H694 C702 0.930 . S
H695 C703 0.930 . S
H696 C706 0.930 . S
H697 C707 0.930 . S
C698 H692 0.930 . S
C698 C699 1.355 . S
C698 C700 1.415 . S
C699 C698 1.355 . S
C699 C701 1.419 . S
C700 C698 1.415 . S
C700 C705 1.425 . S
C700 C707 1.409 . S
C701 H693 0.930 . S
C701 C699 1.419 . S
C701 C702 1.362 . S
C702 H694 0.930 . S
C702 C701 1.362 . S
C702 C705 1.409 . S
C703 H695 0.930 . S
C703 C704 1.355 . S
C703 C705 1.415 . S
C704 C703 1.355 . S
C704 C706 1.419 . S
C705 C700 1.425 . S
C705 C702 1.409 . S
C705 C703 1.415 . S
C706 H696 0.930 . S
C706 C704 1.419 . S
C706 C707 1.362 . S
C707 H697 0.930 . S
C707 C700 1.409 . S
C707 C706 1.362 . S
H708 C714 0.930 . S
H709 C717 0.930 . S
H710 C718 0.930 . S
H711 C719 0.930 . S
H712 C722 0.930 . S
H713 C723 0.930 . S
C714 H708 0.930 . S
C714 C715 1.355 . S
C714 C716 1.415 . S
C715 C714 1.355 . S
C715 C717 1.419 . S
C716 C714 1.415 . S
C716 C721 1.425 . S
C716 C723 1.409 . S
C717 H709 0.930 . S
C717 C715 1.419 . S
C717 C718 1.362 . S
C718 H710 0.930 . S
C718 C717 1.362 . S
C718 C721 1.409 . S
C719 H711 0.930 . S
C719 C720 1.355 . S
C719 C721 1.415 . S
C720 C719 1.355 . S
C720 C722 1.419 . S
C721 C716 1.425 . S
C721 C718 1.409 . S
C721 C719 1.415 . S
C722 H712 0.930 . S
C722 C720 1.419 . S
C722 C723 1.362 . S
C723 H713 0.930 . S
C723 C716 1.409 . S
C723 C722 1.362 . S
H724 C730 0.930 . S
H725 C733 0.930 . S
H726 C734 0.930 . S
H727 C735 0.930 . S
H728 C738 0.930 . S
H729 C739 0.930 . S
C730 H724 0.930 . S
C730 C731 1.355 . S
C730 C732 1.415 . S
C731 C730 1.355 . S
C731 C733 1.419 . S
C732 C730 1.415 . S
C732 C737 1.425 . S
C732 C739 1.409 . S
C733 H725 0.930 . S
C733 C731 1.419 . S
C733 C734 1.362 . S
C734 H726 0.930 . S
C734 C733 1.362 . S
C734 C737 1.409 . S
C735 H727 0.930 . S
C735 C736 1.355 . S
C735 C737 1.415 . S
C736 C735 1.355 . S
C736 C738 1.419 . S
C737 C732 1.425 . S
C737 C734 1.409 . S
C737 C735 1.415 . S
C738 H728 0.930 . S
C738 C736 1.419 . S
C738 C739 1.362 . S
C739 H729 0.930 . S
C739 C732 1.409 . S
C739 C738 1.362 . S
H740 C746 0.930 . S
H741 C749 0.930 . S
H742 C750 0.930 . S
H743 C751 0.930 . S
H744 C754 0.930 . S
H745 C755 0.930 . S
C746 H740 0.930 . S
C746 C747 1.355 . S
C746 C748 1.415 . S
C747 C746 1.355 . S
C747 C749 1.419 . S
C748 C746 1.415 . S
C748 C753 1.425 . S
C748 C755 1.409 . S
C749 H741 0.930 . S
C749 C747 1.419 . S
C749 C750 1.362 . S
C750 H742 0.930 . S
C750 C749 1.362 . S
C750 C753 1.409 . S
C751 H743 0.930 . S
C751 C752 1.355 . S
C751 C753 1.415 . S
C752 C751 1.355 . S
C752 C754 1.419 . S
C753 C748 1.425 . S
C753 C750 1.409 . S
C753 C751 1.415 . S
C754 H744 0.930 . S
C754 C752 1.419 . S
C754 C755 1.362 . S
C755 H745 0.930 . S
C755 C748 1.409 . S
C755 C754 1.362 . S
H756 C762 0.930 . S
H757 C765 0.930 . S
H758 C766 0.930 . S
H759 C767 0.930 . S
H760 C770 0.930 . S
H761 C771 0.930 . S
C762 H756 0.930 . S
C762 C763 1.355 . S
C762 C764 1.415 . S
C763 C762 1.355 . S
C763 C765 1.419 . S
C764 C762 1.415 . S
C764 C769 1.425 . S
C764 C771 1.409 . S
C765 H757 0.930 . S
C765 C763 1.419 . S
C765 C766 1.362 . S
C766 H758 0.930 . S
C766 C765 1.362 . S
C766 C769 1.409 . S
C767 H759 0.930 . S
C767 C768 1.355 . S
C767 C769 1.415 . S
C768 C767 1.355 . S
C768 C770 1.419 . S
C769 C764 1.425 . S
C769 C766 1.409 . S
C769 C767 1.415 . S
C770 H760 0.930 . S
C770 C768 1.419 . S
C770 C771 1.362 . S
C771 H761 0.930 . S
C771 C764 1.409 . S
C771 C770 1.362 . S
H772 C778 0.930 . S
H773 C781 0.930 . S
H774 C782 0.930 . S
H775 C783 0.930 . S
H776 C786 0.930 . S
H777 C787 0.930 . S
C778 H772 0.930 . S
C778 C779 1.355 . S
C778 C780 1.415 . S
C779 C778 1.355 . S
C779 C781 1.419 . S
C780 C778 1.415 . S
C780 C785 1.425 . S
C780 C787 1.409 . S
C781 H773 0.930 . S
C781 C779 1.419 . S
C781 C782 1.362 . S
C782 H774 0.930 . S
C782 C781 1.362 . S
C782 C785 1.409 . S
C783 H775 0.930 . S
C783 C784 1.355 . S
C783 C785 1.415 . S
C784 C783 1.355 . S
C784 C786 1.419 . S
C785 C780 1.425 . S
C785 C782 1.409 . S
C785 C783 1.415 . S
C786 H776 0.930 . S
C786 C784 1.419 . S
C786 C787 1.362 . S
C787 H777 0.930 . S
C787 C780 1.409 . S
C787 C786 1.362 . S
H788 C794 0.930 . S
H789 C797 0.930 . S
H790 C798 0.930 . S
H791 C799 0.930 . S
H792 C802 0.930 . S
H793 C803 0.930 . S
C794 H788 0.930 . S
C794 C795 1.355 . S
C794 C796 1.415 . S
C795 C794 1.355 . S
C795 C797 1.419 . S
C796 C794 1.415 . S
C796 C801 1.425 . S
C796 C803 1.409 . S
C797 H789 0.930 . S
C797 C795 1.419 . S
C797 C798 1.362 . S
C798 H790 0.930 . S
C798 C797 1.362 . S
C798 C801 1.409 . S
C799 H791 0.930 . S
C799 C800 1.355 . S
C799 C801 1.415 . S
C800 C799 1.355 . S
C800 C802 1.419 . S
C801 C796 1.425 . S
C801 C798 1.409 . S
C801 C799 1.415 . S
C802 H792 0.930 . S
C802 C800 1.419 . S
C802 C803 1.362 . S
C803 H793 0.930 . S
C803 C796 1.409 . S
C803 C802 1.362 . S
H804 C810 0.930 . S
H805 C813 0.930 . S
H806 C814 0.930 . S
H807 C815 0.930 . S
H808 C818 0.930 . S
H809 C819 0.930 . S
C810 H804 0.930 . S
C810 C811 1.355 1_554 S
C810 C812 1.415 . S
C811 C810 1.355 1_556 S
C811 C813 1.419 . S
C812 C810 1.415 . S
C812 C817 1.425 1_554 S
C812 C819 1.409 . S
C813 H805 0.930 . S
C813 C811 1.419 . S
C813 C814 1.362 . S
C814 H806 0.930 . S
C814 C813 1.362 . S
C814 C817 1.409 . S
C815 H807 0.930 . S
C815 C816 1.355 1_556 S
C815 C817 1.415 . S
C816 C815 1.355 1_554 S
C816 C818 1.419 . S
C817 C812 1.425 1_556 S
C817 C814 1.409 . S
C817 C815 1.415 . S
C818 H808 0.930 . S
C818 C816 1.419 . S
C818 C819 1.362 . S
C819 H809 0.930 . S
C819 C812 1.409 . S
C819 C818 1.362 . S
H820 C826 0.930 . S
H821 C829 0.930 . S
H822 C830 0.930 . S
H823 C831 0.930 . S
H824 C834 0.930 . S
H825 C835 0.930 . S
C826 H820 0.930 . S
C826 C827 1.355 1_554 S
C826 C828 1.415 . S
C827 C826 1.355 1_556 S
C827 C829 1.419 . S
C828 C826 1.415 . S
C828 C833 1.425 1_554 S
C828 C835 1.409 . S
C829 H821 0.930 . S
C829 C827 1.419 . S
C829 C830 1.362 . S
C830 H822 0.930 . S
C830 C829 1.362 . S
C830 C833 1.409 . S
C831 H823 0.930 . S
C831 C832 1.355 1_556 S
C831 C833 1.415 . S
C832 C831 1.355 1_554 S
C832 C834 1.419 . S
C833 C828 1.425 1_556 S
C833 C830 1.409 . S
C833 C831 1.415 . S
C834 H824 0.930 . S
C834 C832 1.419 . S
C834 C835 1.362 . S
C835 H825 0.930 . S
C835 C828 1.409 . S
C835 C834 1.362 . S
H836 C842 0.930 . S
H837 C845 0.930 . S
H838 C846 0.930 . S
H839 C847 0.930 . S
H840 C850 0.930 . S
H841 C851 0.930 . S
C842 H836 0.930 . S
C842 C843 1.356 . S
C842 C844 1.415 . S
C843 C842 1.356 . S
C843 C845 1.418 1_554 S
C844 C842 1.415 . S
C844 C849 1.425 1_554 S
C844 C851 1.409 . S
C845 H837 0.930 . S
C845 C843 1.418 1_556 S
C845 C846 1.362 . S
C846 H838 0.930 . S
C846 C845 1.362 . S
C846 C849 1.409 . S
C847 H839 0.930 . S
C847 C848 1.354 1_556 S
C847 C849 1.415 . S
C848 C847 1.354 1_554 S
C848 C850 1.420 . S
C849 C844 1.425 1_556 S
C849 C846 1.409 . S
C849 C847 1.415 . S
C850 H840 0.930 . S
C850 C848 1.420 . S
C850 C851 1.362 . S
C851 H841 0.930 . S
C851 C844 1.409 . S
C851 C850 1.362 . S
H852 C858 0.930 . S
H853 C861 0.930 . S
H854 C862 0.930 . S
H855 C863 0.930 . S
H856 C866 0.930 . S
H857 C867 0.930 . S
C858 H852 0.930 . S
C858 C859 1.355 1_554 S
C858 C860 1.415 . S
C859 C858 1.355 1_556 S
C859 C861 1.419 . S
C860 C858 1.415 . S
C860 C865 1.425 1_554 S
C860 C867 1.409 . S
C861 H853 0.930 . S
C861 C859 1.419 . S
C861 C862 1.362 . S
C862 H854 0.930 . S
C862 C861 1.362 . S
C862 C865 1.409 . S
C863 H855 0.930 . S
C863 C864 1.355 1_556 S
C863 C865 1.415 . S
C864 C863 1.355 1_554 S
C864 C866 1.419 . S
C865 C860 1.425 1_556 S
C865 C862 1.409 . S
C865 C863 1.415 . S
C866 H856 0.930 . S
C866 C864 1.419 . S
C866 C867 1.362 . S
C867 H857 0.930 . S
C867 C860 1.409 . S
C867 C866 1.362 . S
H868 C874 0.930 . S
H869 C877 0.930 . S
H870 C878 0.930 . S
H871 C879 0.930 . S
H872 C882 0.930 . S
H873 C883 0.930 . S
C874 H868 0.930 . S
C874 C875 1.355 1_655 S
C874 C876 1.411 1_655 S
C875 C874 1.355 1_455 S
C875 C877 1.419 . S
C876 C874 1.411 1_455 S
C876 C881 1.446 . S
C876 C883 1.394 1_455 S
C877 H869 0.930 . S
C877 C875 1.419 . S
C877 C878 1.362 . S
C878 H870 0.930 . S
C878 C877 1.362 . S
C878 C881 1.409 . S
C879 H871 0.930 . S
C879 C880 1.355 . S
C879 C881 1.415 . S
C880 C879 1.355 . S
C880 C882 1.419 1_455 S
C881 C876 1.446 . S
C881 C878 1.409 . S
C881 C879 1.415 . S
C882 H872 0.930 . S
C882 C880 1.419 1_655 S
C882 C883 1.362 . S
C883 H873 0.930 . S
C883 C876 1.394 1_655 S
C883 C882 1.362 . S
H884 C890 0.930 . S
H885 C893 0.930 . S
H886 C894 0.930 . S
H887 C895 0.930 . S
H888 C898 0.930 . S
H889 C899 0.930 . S
C890 H884 0.930 . S
C890 C891 1.355 1_565 S
C890 C892 1.415 . S
C891 C890 1.355 1_545 S
C891 C893 1.419 . S
C892 C890 1.415 . S
C892 C897 1.425 1_565 S
C892 C899 1.409 . S
C893 H885 0.930 . S
C893 C891 1.419 . S
C893 C894 1.362 . S
C894 H886 0.930 . S
C894 C893 1.362 . S
C894 C897 1.409 . S
C895 H887 0.930 . S
C895 C896 1.355 1_545 S
C895 C897 1.415 . S
C896 C895 1.355 1_565 S
C896 C898 1.419 . S
C897 C892 1.425 1_545 S
C897 C894 1.409 . S
C897 C895 1.415 . S
C898 H888 0.930 . S
C898 C896 1.419 . S
C898 C899 1.362 . S
C899 H889 0.930 . S
C899 C892 1.409 . S
C899 C898 1.362 . S
H900 C906 0.930 . S
H901 C909 0.930 . S
H902 C910 0.930 . S
H903 C911 0.930 . S
H904 C914 0.930 . S
H905 C915 0.930 . S
C906 H900 0.930 . S
C906 C907 1.355 . S
C906 C908 1.415 . S
C907 C906 1.355 . S
C907 C909 1.419 1_455 S
C908 C906 1.415 . S
C908 C913 1.447 . S
C908 C915 1.409 . S
C909 H901 0.930 . S
C909 C907 1.419 1_655 S
C909 C910 1.362 . S
C910 H902 0.930 . S
C910 C909 1.362 . S
C910 C913 1.392 1_655 S
C911 H903 0.930 . S
C911 C912 1.355 1_655 S
C911 C913 1.412 1_655 S
C912 C911 1.355 1_455 S
C912 C914 1.419 . S
C913 C908 1.447 . S
C913 C910 1.392 1_455 S
C913 C911 1.412 1_455 S
C914 H904 0.930 . S
C914 C912 1.419 . S
C914 C915 1.362 . S
C915 H905 0.930 . S
C915 C908 1.409 . S
C915 C914 1.362 . S
H916 C922 0.930 . S
H917 C925 0.930 . S
H918 C926 0.930 . S
H919 C927 0.930 . S
H920 C930 0.930 . S
H921 C931 0.930 . S
C922 H916 0.930 . S
C922 C923 1.350 1_565 S
C922 C924 1.415 . S
C923 C922 1.350 1_545 S
C923 C925 1.425 . S
C924 C922 1.415 . S
C924 C929 1.425 1_565 S
C924 C931 1.409 . S
C925 H917 0.930 . S
C925 C923 1.425 . S
C925 C926 1.362 . S
C926 H918 0.930 . S
C926 C925 1.362 . S
C926 C929 1.409 . S
C927 H919 0.930 . S
C927 C928 1.355 1_545 S
C927 C929 1.415 . S
C928 C927 1.355 1_565 S
C928 C930 1.419 . S
C929 C924 1.425 1_545 S
C929 C926 1.409 . S
C929 C927 1.415 . S
C930 H920 0.930 . S
C930 C928 1.419 . S
C930 C931 1.362 . S
C931 H921 0.930 . S
C931 C924 1.409 . S
C931 C930 1.362 . S
H932 C938 0.930 . S
H933 C941 0.930 . S
H934 C942 0.930 . S
H935 C943 0.930 . S
H936 C946 0.930 . S
H937 C947 0.930 . S
C938 H932 0.930 . S
C938 C939 1.355 . S
C938 C940 1.415 . S
C939 C938 1.355 . S
C939 C941 1.419 1_455 S
C940 C938 1.415 . S
C940 C945 1.425 1_455 S
C940 C947 1.409 . S
C941 H933 0.930 . S
C941 C939 1.419 1_655 S
C941 C942 1.362 . S
C942 H934 0.930 . S
C942 C941 1.362 . S
C942 C945 1.409 . S
C943 H935 0.930 . S
C943 C944 1.355 1_655 S
C943 C945 1.415 . S
C944 C943 1.355 1_455 S
C944 C946 1.419 . S
C945 C940 1.425 1_655 S
C945 C942 1.409 . S
C945 C943 1.415 . S
C946 H936 0.930 . S
C946 C944 1.419 . S
C946 C947 1.362 . S
C947 H937 0.930 . S
C947 C940 1.409 . S
C947 C946 1.362 . S
H948 C954 0.930 . S
H949 C957 0.931 . S
H950 C958 0.931 . S
H951 C959 0.930 . S
H952 C962 0.929 . S
H953 C963 0.930 . S
C954 H948 0.930 . S
C954 C955 1.355 . S
C954 C956 1.415 . S
C955 C954 1.355 . S
C955 C957 1.418 1_565 S
C956 C954 1.415 . S
C956 C961 1.424 1_565 S
C956 C963 1.409 . S
C957 H949 0.931 . S
C957 C955 1.418 1_545 S
C957 C958 1.362 . S
C958 H950 0.931 . S
C958 C957 1.362 . S
C958 C961 1.409 . S
C959 H951 0.930 . S
C959 C960 1.355 . S
C959 C961 1.416 . S
C960 C959 1.355 . S
C960 C962 1.419 1_545 S
C961 C956 1.424 1_545 S
C961 C958 1.409 . S
C961 C959 1.416 . S
C962 H952 0.929 . S
C962 C960 1.419 1_565 S
C962 C963 1.362 . S
C963 H953 0.930 . S
C963 C956 1.409 . S
C963 C962 1.362 . S
H964 C970 0.918 1_655 S
H965 C973 0.930 . S
H966 C974 0.930 . S
H967 C975 0.930 . S
H968 C978 0.930 . S
H969 C979 0.930 . S
C970 H964 0.918 1_455 S
C970 C971 1.365 . S
C970 C972 1.416 . S
C971 C970 1.365 . S
C971 C973 1.419 . S
C972 C970 1.416 . S
C972 C977 1.425 . S
C972 C979 1.409 1_455 S
C973 H965 0.930 . S
C973 C971 1.419 . S
C973 C974 1.362 . S
C974 H966 0.930 . S
C974 C973 1.362 . S
C974 C977 1.409 . S
C975 H967 0.930 . S
C975 C976 1.355 . S
C975 C977 1.415 . S
C976 C975 1.355 . S
C976 C978 1.419 1_455 S
C977 C972 1.425 . S
C977 C974 1.409 . S
C977 C975 1.415 . S
C978 H968 0.930 . S
C978 C976 1.419 1_655 S
C978 C979 1.362 . S
C979 H969 0.930 . S
C979 C972 1.409 1_655 S
C979 C978 1.362 . S
H980 C986 0.930 . S
H981 C989 0.930 . S
H982 C990 0.930 . S
H983 C991 0.930 . S
H984 C994 0.930 . S
H985 C995 0.930 . S
C986 H980 0.930 . S
C986 C987 1.355 1_565 S
C986 C988 1.415 . S
C987 C986 1.355 1_545 S
C987 C989 1.419 . S
C988 C986 1.415 . S
C988 C993 1.425 1_565 S
C988 C995 1.409 . S
C989 H981 0.930 . S
C989 C987 1.419 . S
C989 C990 1.362 . S
C990 H982 0.930 . S
C990 C989 1.362 . S
C990 C993 1.409 . S
C991 H983 0.930 . S
C991 C992 1.355 1_545 S
C991 C993 1.415 . S
C992 C991 1.355 1_565 S
C992 C994 1.419 . S
C993 C988 1.425 1_545 S
C993 C990 1.409 . S
C993 C991 1.415 . S
C994 H984 0.930 . S
C994 C992 1.419 . S
C994 C995 1.362 . S
C995 H985 0.930 . S
C995 C988 1.409 . S
C995 C994 1.362 . S
H996 C1002 0.930 1_655 S
H997 C1005 0.930 . S
H998 C1006 0.930 . S
H999 C1007 0.930 . S
H1000 C1010 0.930 . S
H1001 C1011 0.930 . S
C1002 H996 0.930 1_455 S
C1002 C1003 1.355 . S
C1002 C1004 1.415 . S
C1003 C1002 1.355 . S
C1003 C1005 1.419 . S
C1004 C1002 1.415 . S
C1004 C1009 1.425 . S
C1004 C1011 1.409 1_455 S
C1005 H997 0.930 . S
C1005 C1003 1.419 . S
C1005 C1006 1.362 . S
C1006 H998 0.930 . S
C1006 C1005 1.362 . S
C1006 C1009 1.409 . S
C1007 H999 0.930 . S
C1007 C1008 1.355 . S
C1007 C1009 1.415 . S
C1008 C1007 1.355 . S
C1008 C1010 1.419 1_455 S
C1009 C1004 1.425 . S
C1009 C1006 1.409 . S
C1009 C1007 1.415 . S
C1010 H1000 0.930 . S
C1010 C1008 1.419 1_655 S
C1010 C1011 1.362 . S
C1011 H1001 0.930 . S
C1011 C1004 1.409 1_655 S
C1011 C1010 1.362 . S
H1012 C1018 0.930 . S
H1013 C1021 0.930 . S
H1014 C1022 0.930 . S
H1015 C1023 0.930 . S
H1016 C1026 0.930 . S
H1017 C1027 0.930 . S
C1018 H1012 0.930 . S
C1018 C1019 1.355 1_565 S
C1018 C1020 1.415 . S
C1019 C1018 1.355 1_545 S
C1019 C1021 1.419 . S
C1020 C1018 1.415 . S
C1020 C1025 1.425 1_565 S
C1020 C1027 1.409 . S
C1021 H1013 0.930 . S
C1021 C1019 1.419 . S
C1021 C1022 1.362 . S
C1022 H1014 0.930 . S
C1022 C1021 1.362 . S
C1022 C1025 1.409 . S
C1023 H1015 0.930 . S
C1023 C1024 1.355 1_545 S
C1023 C1025 1.415 . S
C1024 C1023 1.355 1_565 S
C1024 C1026 1.419 . S
C1025 C1020 1.425 1_545 S
C1025 C1022 1.409 . S
C1025 C1023 1.415 . S
C1026 H1016 0.930 . S
C1026 C1024 1.419 . S
C1026 C1027 1.362 . S
C1027 H1017 0.930 . S
C1027 C1020 1.409 . S
C1027 C1026 1.362 . S
H1028 C1034 0.930 . S
H1029 C1037 0.930 . S
H1030 C1038 0.930 . S
H1031 C1039 0.930 . S
H1032 C1042 0.930 . S
H1033 C1043 0.930 . S
C1034 H1028 0.930 . S
C1034 C1035 1.355 . S
C1034 C1036 1.415 . S
C1035 C1034 1.355 . S
C1035 C1037 1.419 1_455 S
C1036 C1034 1.415 . S
C1036 C1041 1.425 1_455 S
C1036 C1043 1.409 . S
C1037 H1029 0.930 . S
C1037 C1035 1.419 1_655 S
C1037 C1038 1.362 . S
C1038 H1030 0.930 . S
C1038 C1037 1.362 . S
C1038 C1041 1.409 . S
C1039 H1031 0.930 . S
C1039 C1040 1.355 1_655 S
C1039 C1041 1.415 . S
C1040 C1039 1.355 1_455 S
C1040 C1042 1.419 . S
C1041 C1036 1.425 1_655 S
C1041 C1038 1.409 . S
C1041 C1039 1.415 . S
C1042 H1032 0.930 . S
C1042 C1040 1.419 . S
C1042 C1043 1.362 . S
C1043 H1033 0.930 . S
C1043 C1036 1.409 . S
C1043 C1042 1.362 . S
H1044 C1050 0.930 . S
H1045 C1053 0.930 . S
H1046 C1054 0.930 . S
H1047 C1055 0.930 . S
H1048 C1058 0.930 . S
H1049 C1059 0.930 . S
C1050 H1044 0.930 . S
C1050 C1051 1.357 . S
C1050 C1052 1.415 . S
C1051 C1050 1.357 . S
C1051 C1053 1.416 1_545 S
C1052 C1050 1.415 . S
C1052 C1057 1.425 1_545 S
C1052 C1059 1.409 . S
C1053 H1045 0.930 . S
C1053 C1051 1.416 1_565 S
C1053 C1054 1.362 . S
C1054 H1046 0.930 . S
C1054 C1053 1.362 . S
C1054 C1057 1.409 . S
C1055 H1047 0.930 . S
C1055 C1056 1.352 1_565 S
C1055 C1057 1.415 . S
C1056 C1055 1.352 1_545 S
C1056 C1058 1.423 . S
C1057 C1052 1.425 1_565 S
C1057 C1054 1.409 . S
C1057 C1055 1.415 . S
C1058 H1048 0.930 . S
C1058 C1056 1.423 . S
C1058 C1059 1.362 . S
C1059 H1049 0.930 . S
C1059 C1052 1.409 . S
C1059 C1058 1.362 . S
H1060 C1066 0.930 1_655 S
H1061 C1069 0.930 . S
H1062 C1070 0.930 . S
H1063 C1071 0.930 . S
H1064 C1074 0.930 . S
H1065 C1075 0.930 . S
C1066 H1060 0.930 1_455 S
C1066 C1067 1.355 . S
C1066 C1068 1.415 . S
C1067 C1066 1.355 . S
C1067 C1069 1.419 . S
C1068 C1066 1.415 . S
C1068 C1073 1.425 . S
C1068 C1075 1.409 1_455 S
C1069 H1061 0.930 . S
C1069 C1067 1.419 . S
C1069 C1070 1.362 . S
C1070 H1062 0.930 . S
C1070 C1069 1.362 . S
C1070 C1073 1.409 . S
C1071 H1063 0.930 . S
C1071 C1072 1.355 . S
C1071 C1073 1.415 . S
C1072 C1071 1.355 . S
C1072 C1074 1.419 1_455 S
C1073 C1068 1.425 . S
C1073 C1070 1.409 . S
C1073 C1071 1.415 . S
C1074 H1064 0.930 . S
C1074 C1072 1.419 1_655 S
C1074 C1075 1.362 . S
C1075 H1065 0.930 . S
C1075 C1068 1.409 1_655 S
C1075 C1074 1.362 . S
H1076 C1082 0.930 . S
H1077 C1085 0.930 . S
H1078 C1086 0.930 . S
H1079 C1087 0.930 . S
H1080 C1090 0.930 . S
H1081 C1091 0.930 . S
C1082 H1076 0.930 . S
C1082 C1083 1.351 1_545 S
C1082 C1084 1.415 . S
C1083 C1082 1.351 1_565 S
C1083 C1085 1.424 . S
C1084 C1082 1.415 . S
C1084 C1089 1.425 1_545 S
C1084 C1091 1.409 . S
C1085 H1077 0.930 . S
C1085 C1083 1.424 . S
C1085 C1086 1.362 . S
C1086 H1078 0.930 . S
C1086 C1085 1.362 . S
C1086 C1089 1.409 . S
C1087 H1079 0.930 . S
C1087 C1088 1.348 1_565 S
C1087 C1089 1.415 . S
C1088 C1087 1.348 1_545 S
C1088 C1090 1.427 . S
C1089 C1084 1.425 1_565 S
C1089 C1086 1.409 . S
C1089 C1087 1.415 . S
C1090 H1080 0.930 . S
C1090 C1088 1.427 . S
C1090 C1091 1.362 . S
C1091 H1081 0.930 . S
C1091 C1084 1.409 . S
C1091 C1090 1.362 . S
H1092 C1098 0.930 . S
H1093 C1101 0.930 . S
H1094 C1102 0.930 . S
H1095 C1103 0.930 . S
H1096 C1106 0.930 . S
H1097 C1107 0.930 . S
C1098 H1092 0.930 . S
C1098 C1099 1.355 . S
C1098 C1100 1.415 . S
C1099 C1098 1.355 . S
C1099 C1101 1.419 1_455 S
C1100 C1098 1.415 . S
C1100 C1105 1.425 1_455 S
C1100 C1107 1.409 . S
C1101 H1093 0.930 . S
C1101 C1099 1.419 1_655 S
C1101 C1102 1.362 . S
C1102 H1094 0.930 . S
C1102 C1101 1.362 . S
C1102 C1105 1.409 . S
C1103 H1095 0.930 . S
C1103 C1104 1.355 1_655 S
C1103 C1105 1.415 . S
C1104 C1103 1.355 1_455 S
C1104 C1106 1.419 . S
C1105 C1100 1.425 1_655 S
C1105 C1102 1.409 . S
C1105 C1103 1.415 . S
C1106 H1096 0.930 . S
C1106 C1104 1.419 . S
C1106 C1107 1.362 . S
C1107 H1097 0.930 . S
C1107 C1100 1.409 . S
C1107 C1106 1.362 . S
H1108 C1114 0.930 . S
H1109 C1117 0.930 . S
H1110 C1118 0.930 . S
H1111 C1119 0.930 . S
H1112 C1122 0.930 . S
H1113 C1123 0.930 . S
C1114 H1108 0.930 . S
C1114 C1115 1.355 1_565 S
C1114 C1116 1.415 . S
C1115 C1114 1.355 1_545 S
C1115 C1117 1.419 . S
C1116 C1114 1.415 . S
C1116 C1121 1.425 1_565 S
C1116 C1123 1.409 . S
C1117 H1109 0.930 . S
C1117 C1115 1.419 . S
C1117 C1118 1.362 . S
C1118 H1110 0.930 . S
C1118 C1117 1.362 . S
C1118 C1121 1.409 . S
C1119 H1111 0.930 . S
C1119 C1120 1.355 1_545 S
C1119 C1121 1.415 . S
C1120 C1119 1.355 1_565 S
C1120 C1122 1.419 . S
C1121 C1116 1.425 1_545 S
C1121 C1118 1.409 . S
C1121 C1119 1.415 . S
C1122 H1112 0.930 . S
C1122 C1120 1.419 . S
C1122 C1123 1.362 . S
C1123 H1113 0.930 . S
C1123 C1116 1.409 . S
C1123 C1122 1.362 . S
H1124 C1130 0.930 . S
H1125 C1133 0.930 . S
H1126 C1134 0.930 . S
H1127 C1135 0.930 . S
H1128 C1138 0.930 . S
H1129 C1139 0.930 . S
C1130 H1124 0.930 . S
C1130 C1131 1.355 1_565 S
C1130 C1132 1.415 . S
C1131 C1130 1.355 1_545 S
C1131 C1133 1.419 . S
C1132 C1130 1.415 . S
C1132 C1137 1.425 1_565 S
C1132 C1139 1.409 . S
C1133 H1125 0.930 . S
C1133 C1131 1.419 . S
C1133 C1134 1.362 . S
C1134 H1126 0.930 . S
C1134 C1133 1.362 . S
C1134 C1137 1.409 . S
C1135 H1127 0.930 . S
C1135 C1136 1.355 1_545 S
C1135 C1137 1.415 . S
C1136 C1135 1.355 1_565 S
C1136 C1138 1.419 . S
C1137 C1132 1.425 1_545 S
C1137 C1134 1.409 . S
C1137 C1135 1.415 . S
C1138 H1128 0.930 . S
C1138 C1136 1.419 . S
C1138 C1139 1.362 . S
C1139 H1129 0.930 . S
C1139 C1132 1.409 . S
C1139 C1138 1.362 . S
H1140 C1146 0.930 . S
H1141 C1149 0.930 . S
H1142 C1150 0.930 . S
H1143 C1151 0.930 . S
H1144 C1154 0.930 . S
H1145 C1155 0.930 . S
C1146 H1140 0.930 . S
C1146 C1147 1.355 . S
C1146 C1148 1.415 . S
C1147 C1146 1.355 . S
C1147 C1149 1.419 1_455 S
C1148 C1146 1.415 . S
C1148 C1153 1.425 . S
C1148 C1155 1.409 . S
C1149 H1141 0.930 . S
C1149 C1147 1.419 1_655 S
C1149 C1150 1.362 . S
C1150 H1142 0.930 . S
C1150 C1149 1.362 . S
C1150 C1153 1.409 1_655 S
C1151 H1143 0.930 . S
C1151 C1152 1.355 1_655 S
C1151 C1153 1.415 1_655 S
C1152 C1151 1.355 1_455 S
C1152 C1154 1.419 . S
C1153 C1148 1.425 . S
C1153 C1150 1.409 1_455 S
C1153 C1151 1.415 1_455 S
C1154 H1144 0.930 . S
C1154 C1152 1.419 . S
C1154 C1155 1.362 . S
C1155 H1145 0.930 . S
C1155 C1148 1.409 . S
C1155 C1154 1.362 . S
H1156 C1162 0.930 . S
H1157 C1165 0.930 . S
H1158 C1166 0.930 . S
H1159 C1167 0.930 . S
H1160 C1170 0.930 1_545 S
H1161 C1171 0.930 1_565 S
C1162 H1156 0.930 . S
C1162 C1163 1.355 . S
C1162 C1164 1.416 . S
C1163 C1162 1.355 . S
C1163 C1165 1.420 . S
C1164 C1162 1.416 . S
C1164 C1169 1.425 1_545 S
C1164 C1171 1.409 . S
C1165 H1157 0.930 . S
C1165 C1163 1.420 . S
C1165 C1166 1.362 . S
C1166 H1158 0.930 . S
C1166 C1165 1.362 . S
C1166 C1169 1.409 1_545 S
C1167 H1159 0.930 . S
C1167 C1168 1.355 . S
C1167 C1169 1.415 . S
C1168 C1167 1.355 . S
C1168 C1170 1.419 . S
C1169 C1164 1.425 1_565 S
C1169 C1166 1.409 1_565 S
C1169 C1167 1.415 . S
C1170 H1160 0.930 1_565 S
C1170 C1168 1.419 . S
C1170 C1171 1.362 1_565 S
C1171 H1161 0.930 1_545 S
C1171 C1164 1.409 . S
C1171 C1170 1.362 1_545 S
H1172 C1178 0.930 1_655 S
H1173 C1181 0.930 . S
H1174 C1182 0.930 . S
H1175 C1183 0.930 . S
H1176 C1186 0.940 . S
H1177 C1187 0.930 . S
C1178 H1172 0.930 1_455 S
C1178 C1179 1.355 . S
C1178 C1180 1.415 . S
C1179 C1178 1.355 . S
C1179 C1181 1.419 . S
C1180 C1178 1.415 . S
C1180 C1185 1.425 . S
C1180 C1187 1.409 1_455 S
C1181 H1173 0.930 . S
C1181 C1179 1.419 . S
C1181 C1182 1.362 . S
C1182 H1174 0.930 . S
C1182 C1181 1.362 . S
C1182 C1185 1.409 . S
C1183 H1175 0.930 . S
C1183 C1184 1.355 . S
C1183 C1185 1.415 . S
C1184 C1183 1.355 . S
C1184 C1186 1.405 1_455 S
C1185 C1180 1.425 . S
C1185 C1182 1.409 . S
C1185 C1183 1.415 . S
C1186 H1176 0.940 . S
C1186 C1184 1.405 1_655 S
C1186 C1187 1.366 . S
C1187 H1177 0.930 . S
C1187 C1180 1.409 1_655 S
C1187 C1186 1.366 . S
H1188 C1194 0.930 . S
H1189 C1197 0.930 . S
H1190 C1198 0.930 . S
H1191 C1199 0.930 . S
H1192 C1202 0.930 . S
H1193 C1203 0.930 . S
C1194 H1188 0.930 . S
C1194 C1195 1.355 1_565 S
C1194 C1196 1.415 . S
C1195 C1194 1.355 1_545 S
C1195 C1197 1.419 . S
C1196 C1194 1.415 . S
C1196 C1201 1.425 1_565 S
C1196 C1203 1.409 . S
C1197 H1189 0.930 . S
C1197 C1195 1.419 . S
C1197 C1198 1.362 . S
C1198 H1190 0.930 . S
C1198 C1197 1.362 . S
C1198 C1201 1.409 . S
C1199 H1191 0.930 . S
C1199 C1200 1.355 1_545 S
C1199 C1201 1.415 . S
C1200 C1199 1.355 1_565 S
C1200 C1202 1.419 . S
C1201 C1196 1.425 1_545 S
C1201 C1198 1.409 . S
C1201 C1199 1.415 . S
C1202 H1192 0.930 . S
C1202 C1200 1.419 . S
C1202 C1203 1.362 . S
C1203 H1193 0.930 . S
C1203 C1196 1.409 . S
C1203 C1202 1.362 . S
H1204 C1210 0.930 1_655 S
H1205 C1213 0.930 . S
H1206 C1214 0.930 . S
H1207 C1215 0.930 . S
H1208 C1218 0.930 1_655 S
H1209 C1219 0.930 . S
C1210 H1204 0.930 1_455 S
C1210 C1211 1.355 . S
C1210 C1212 1.415 . S
C1211 C1210 1.355 . S
C1211 C1213 1.419 . S
C1212 C1210 1.415 . S
C1212 C1217 1.425 . S
C1212 C1219 1.409 1_455 S
C1213 H1205 0.930 . S
C1213 C1211 1.419 . S
C1213 C1214 1.362 . S
C1214 H1206 0.930 . S
C1214 C1213 1.362 . S
C1214 C1217 1.409 . S
C1215 H1207 0.930 . S
C1215 C1216 1.355 . S
C1215 C1217 1.415 . S
C1216 C1215 1.355 . S
C1216 C1218 1.419 . S
C1217 C1212 1.425 . S
C1217 C1214 1.409 . S
C1217 C1215 1.415 . S
C1218 H1208 0.930 1_455 S
C1218 C1216 1.419 . S
C1218 C1219 1.362 1_455 S
C1219 H1209 0.930 . S
C1219 C1212 1.409 1_655 S
C1219 C1218 1.362 1_655 S
H1220 C1226 0.930 . S
H1221 C1229 0.930 . S
H1222 C1230 0.930 . S
H1223 C1231 0.930 . S
H1224 C1234 0.930 . S
H1225 C1235 0.930 . S
C1226 H1220 0.930 . S
C1226 C1227 1.355 1_565 S
C1226 C1228 1.415 . S
C1227 C1226 1.355 1_545 S
C1227 C1229 1.419 . S
C1228 C1226 1.415 . S
C1228 C1233 1.425 1_565 S
C1228 C1235 1.409 . S
C1229 H1221 0.930 . S
C1229 C1227 1.419 . S
C1229 C1230 1.362 . S
C1230 H1222 0.930 . S
C1230 C1229 1.362 . S
C1230 C1233 1.409 . S
C1231 H1223 0.930 . S
C1231 C1232 1.355 1_545 S
C1231 C1233 1.415 . S
C1232 C1231 1.355 1_565 S
C1232 C1234 1.419 . S
C1233 C1228 1.425 1_545 S
C1233 C1230 1.409 . S
C1233 C1231 1.415 . S
C1234 H1224 0.930 . S
C1234 C1232 1.419 . S
C1234 C1235 1.362 . S
C1235 H1225 0.930 . S
C1235 C1228 1.409 . S
C1235 C1234 1.362 . S
H1236 C1242 0.930 . S
H1237 C1245 0.930 . S
H1238 C1246 0.930 . S
H1239 C1247 0.930 . S
H1240 C1250 0.930 . S
H1241 C1251 0.930 . S
C1242 H1236 0.930 . S
C1242 C1243 1.355 1_655 S
C1242 C1244 1.415 1_655 S
C1243 C1242 1.355 1_455 S
C1243 C1245 1.419 . S
C1244 C1242 1.415 1_455 S
C1244 C1249 1.425 . S
C1244 C1251 1.409 1_455 S
C1245 H1237 0.930 . S
C1245 C1243 1.419 . S
C1245 C1246 1.362 . S
C1246 H1238 0.930 . S
C1246 C1245 1.362 . S
C1246 C1249 1.409 . S
C1247 H1239 0.930 . S
C1247 C1248 1.355 . S
C1247 C1249 1.415 . S
C1248 C1247 1.355 . S
C1248 C1250 1.419 1_455 S
C1249 C1244 1.425 . S
C1249 C1246 1.409 . S
C1249 C1247 1.415 . S
C1250 H1240 0.930 . S
C1250 C1248 1.419 1_655 S
C1250 C1251 1.362 . S
C1251 H1241 0.930 . S
C1251 C1244 1.409 1_655 S
C1251 C1250 1.362 . S
H1252 C1258 0.930 . S
H1253 C1261 0.930 . S
H1254 C1262 0.930 . S
H1255 C1263 0.930 . S
H1256 C1266 0.930 . S
H1257 C1267 0.930 . S
C1258 H1252 0.930 . S
C1258 C1259 1.355 1_554 S
C1258 C1260 1.415 . S
C1259 C1258 1.355 1_556 S
C1259 C1261 1.419 . S
C1260 C1258 1.415 . S
C1260 C1265 1.425 1_554 S
C1260 C1267 1.409 . S
C1261 H1253 0.930 . S
C1261 C1259 1.419 . S
C1261 C1262 1.362 . S
C1262 H1254 0.930 . S
C1262 C1261 1.362 . S
C1262 C1265 1.409 . S
C1263 H1255 0.930 . S
C1263 C1264 1.355 1_556 S
C1263 C1265 1.415 . S
C1264 C1263 1.355 1_554 S
C1264 C1266 1.419 . S
C1265 C1260 1.425 1_556 S
C1265 C1262 1.409 . S
C1265 C1263 1.415 . S
C1266 H1256 0.930 . S
C1266 C1264 1.419 . S
C1266 C1267 1.362 . S
C1267 H1257 0.930 . S
C1267 C1260 1.409 . S
C1267 C1266 1.362 . S
H1268 C1274 0.930 . S
H1269 C1277 0.930 . S
H1270 C1278 0.930 . S
H1271 C1279 0.930 . S
H1272 C1282 0.930 . S
H1273 C1283 0.930 . S
C1274 H1268 0.930 . S
C1274 C1275 1.355 1_556 S
C1274 C1276 1.415 . S
C1275 C1274 1.355 1_554 S
C1275 C1277 1.419 . S
C1276 C1274 1.415 . S
C1276 C1281 1.425 1_556 S
C1276 C1283 1.409 . S
C1277 H1269 0.930 . S
C1277 C1275 1.419 . S
C1277 C1278 1.362 . S
C1278 H1270 0.930 . S
C1278 C1277 1.362 . S
C1278 C1281 1.409 . S
C1279 H1271 0.930 . S
C1279 C1280 1.355 1_554 S
C1279 C1281 1.415 . S
C1280 C1279 1.355 1_556 S
C1280 C1282 1.419 . S
C1281 C1276 1.425 1_554 S
C1281 C1278 1.409 . S
C1281 C1279 1.415 . S
C1282 H1272 0.930 . S
C1282 C1280 1.419 . S
C1282 C1283 1.362 . S
C1283 H1273 0.930 . S
C1283 C1276 1.409 . S
C1283 C1282 1.362 . S
H1284 C1290 0.930 . S
H1285 C1293 0.930 . S
H1286 C1294 0.930 . S
H1287 C1295 0.930 . S
H1288 C1298 0.930 . S
H1289 C1299 0.930 . S
C1290 H1284 0.930 . S
C1290 C1291 1.355 1_554 S
C1290 C1292 1.415 . S
C1291 C1290 1.355 1_556 S
C1291 C1293 1.419 . S
C1292 C1290 1.415 . S
C1292 C1297 1.425 1_554 S
C1292 C1299 1.409 . S
C1293 H1285 0.930 . S
C1293 C1291 1.419 . S
C1293 C1294 1.362 . S
C1294 H1286 0.930 . S
C1294 C1293 1.362 . S
C1294 C1297 1.409 . S
C1295 H1287 0.930 . S
C1295 C1296 1.355 1_556 S
C1295 C1297 1.415 . S
C1296 C1295 1.355 1_554 S
C1296 C1298 1.419 . S
C1297 C1292 1.425 1_556 S
C1297 C1294 1.409 . S
C1297 C1295 1.415 . S
C1298 H1288 0.930 . S
C1298 C1296 1.419 . S
C1298 C1299 1.362 . S
C1299 H1289 0.930 . S
C1299 C1292 1.409 . S
C1299 C1298 1.362 . S
H1300 C1306 0.930 . S
H1301 C1309 0.930 . S
H1302 C1310 0.930 . S
H1303 C1311 0.930 . S
H1304 C1314 0.930 . S
H1305 C1315 0.930 . S
C1306 H1300 0.930 . S
C1306 C1307 1.357 . S
C1306 C1308 1.415 . S
C1307 C1306 1.357 . S
C1307 C1309 1.416 1_554 S
C1308 C1306 1.415 . S
C1308 C1313 1.425 1_554 S
C1308 C1315 1.409 . S
C1309 H1301 0.930 . S
C1309 C1307 1.416 1_556 S
C1309 C1310 1.362 . S
C1310 H1302 0.930 . S
C1310 C1309 1.362 . S
C1310 C1313 1.409 . S
C1311 H1303 0.930 . S
C1311 C1312 1.356 . S
C1311 C1313 1.415 . S
C1312 C1311 1.356 . S
C1312 C1314 1.417 1_556 S
C1313 C1308 1.425 1_556 S
C1313 C1310 1.409 . S
C1313 C1311 1.415 . S
C1314 H1304 0.930 . S
C1314 C1312 1.417 1_554 S
C1314 C1315 1.362 . S
C1315 H1305 0.930 . S
C1315 C1308 1.409 . S
C1315 C1314 1.362 . S
H1316 C1322 0.930 . S
H1317 C1325 0.930 . S
H1318 C1326 0.930 . S
H1319 C1327 0.930 . S
H1320 C1330 0.930 . S
H1321 C1331 0.930 . S
C1322 H1316 0.930 . S
C1322 C1323 1.355 1_556 S
C1322 C1324 1.415 . S
C1323 C1322 1.355 1_554 S
C1323 C1325 1.419 . S
C1324 C1322 1.415 . S
C1324 C1329 1.425 1_556 S
C1324 C1331 1.409 . S
C1325 H1317 0.930 . S
C1325 C1323 1.419 . S
C1325 C1326 1.362 . S
C1326 H1318 0.930 . S
C1326 C1325 1.362 . S
C1326 C1329 1.409 . S
C1327 H1319 0.930 . S
C1327 C1328 1.355 1_554 S
C1327 C1329 1.415 . S
C1328 C1327 1.355 1_556 S
C1328 C1330 1.419 . S
C1329 C1324 1.425 1_554 S
C1329 C1326 1.409 . S
C1329 C1327 1.415 . S
C1330 H1320 0.930 . S
C1330 C1328 1.419 . S
C1330 C1331 1.362 . S
C1331 H1321 0.930 . S
C1331 C1324 1.409 . S
C1331 C1330 1.362 . S
H1332 C1338 0.930 . S
H1333 C1341 0.930 . S
H1334 C1342 0.930 . S
H1335 C1343 0.930 . S
H1336 C1346 0.930 . S
H1337 C1347 0.930 . S
C1338 H1332 0.930 . S
C1338 C1339 1.355 1_556 S
C1338 C1340 1.415 . S
C1339 C1338 1.355 1_554 S
C1339 C1341 1.419 . S
C1340 C1338 1.415 . S
C1340 C1345 1.425 1_556 S
C1340 C1347 1.409 . S
C1341 H1333 0.930 . S
C1341 C1339 1.419 . S
C1341 C1342 1.362 . S
C1342 H1334 0.930 . S
C1342 C1341 1.362 . S
C1342 C1345 1.409 . S
C1343 H1335 0.930 . S
C1343 C1344 1.355 1_554 S
C1343 C1345 1.415 . S
C1344 C1343 1.355 1_556 S
C1344 C1346 1.419 . S
C1345 C1340 1.425 1_554 S
C1345 C1342 1.409 . S
C1345 C1343 1.415 . S
C1346 H1336 0.930 . S
C1346 C1344 1.419 . S
C1346 C1347 1.362 . S
C1347 H1337 0.930 . S
C1347 C1340 1.409 . S
C1347 C1346 1.362 . S
H1348 C1354 0.930 . S
H1349 C1357 0.930 . S
H1350 C1358 0.930 . S
H1351 C1359 0.930 . S
H1352 C1362 0.930 . S
H1353 C1363 0.930 . S
C1354 H1348 0.930 . S
C1354 C1355 1.355 1_554 S
C1354 C1356 1.415 . S
C1355 C1354 1.355 1_556 S
C1355 C1357 1.419 . S
C1356 C1354 1.415 . S
C1356 C1361 1.425 1_554 S
C1356 C1363 1.409 . S
C1357 H1349 0.930 . S
C1357 C1355 1.419 . S
C1357 C1358 1.362 . S
C1358 H1350 0.930 . S
C1358 C1357 1.362 . S
C1358 C1361 1.409 . S
C1359 H1351 0.930 . S
C1359 C1360 1.355 1_556 S
C1359 C1361 1.415 . S
C1360 C1359 1.355 1_554 S
C1360 C1362 1.419 . S
C1361 C1356 1.425 1_556 S
C1361 C1358 1.409 . S
C1361 C1359 1.415 . S
C1362 H1352 0.930 . S
C1362 C1360 1.419 . S
C1362 C1363 1.362 . S
C1363 H1353 0.930 . S
C1363 C1356 1.409 . S
C1363 C1362 1.362 . S
H1364 C1370 0.930 . S
H1365 C1373 0.930 . S
H1366 C1374 0.931 . S
H1367 C1375 0.930 . S
H1368 C1378 0.930 . S
H1369 C1379 0.930 . S
C1370 H1364 0.930 . S
C1370 C1371 1.355 . S
C1370 C1372 1.415 . S
C1371 C1370 1.355 . S
C1371 C1373 1.420 . S
C1372 C1370 1.415 . S
C1372 C1377 1.425 1_554 S
C1372 C1379 1.409 1_554 S
C1373 H1365 0.930 . S
C1373 C1371 1.420 . S
C1373 C1374 1.362 . S
C1374 H1366 0.931 . S
C1374 C1373 1.362 . S
C1374 C1377 1.409 1_554 S
C1375 H1367 0.930 . S
C1375 C1376 1.355 . S
C1375 C1377 1.415 . S
C1376 C1375 1.355 . S
C1376 C1378 1.419 . S
C1377 C1372 1.425 1_556 S
C1377 C1374 1.409 1_556 S
C1377 C1375 1.415 . S
C1378 H1368 0.930 . S
C1378 C1376 1.419 . S
C1378 C1379 1.362 . S
C1379 H1369 0.930 . S
C1379 C1372 1.409 1_556 S
C1379 C1378 1.362 . S
H1380 C1386 0.930 . S
H1381 C1389 0.930 . S
H1382 C1390 0.930 . S
H1383 C1391 0.930 . S
H1384 C1394 0.930 . S
H1385 C1395 0.930 . S
C1386 H1380 0.930 . S
C1386 C1387 1.355 . S
C1386 C1388 1.415 . S
C1387 C1386 1.355 . S
C1387 C1389 1.419 . S
C1388 C1386 1.415 . S
C1388 C1393 1.425 . S
C1388 C1395 1.409 . S
C1389 H1381 0.930 . S
C1389 C1387 1.419 . S
C1389 C1390 1.362 . S
C1390 H1382 0.930 . S
C1390 C1389 1.362 . S
C1390 C1393 1.409 . S
C1391 H1383 0.930 . S
C1391 C1392 1.355 . S
C1391 C1393 1.415 . S
C1392 C1391 1.355 . S
C1392 C1394 1.419 . S
C1393 C1388 1.425 . S
C1393 C1390 1.409 . S
C1393 C1391 1.415 . S
C1394 H1384 0.930 . S
C1394 C1392 1.419 . S
C1394 C1395 1.362 . S
C1395 H1385 0.930 . S
C1395 C1388 1.409 . S
C1395 C1394 1.362 . S
H1396 C1402 0.930 . S
H1397 C1405 0.930 . S
H1398 C1406 0.930 . S
H1399 C1407 0.930 . S
H1400 C1410 0.930 . S
H1401 C1411 0.930 . S
C1402 H1396 0.930 . S
C1402 C1403 1.355 . S
C1402 C1404 1.415 . S
C1403 C1402 1.355 . S
C1403 C1405 1.419 . S
C1404 C1402 1.415 . S
C1404 C1409 1.425 . S
C1404 C1411 1.409 . S
C1405 H1397 0.930 . S
C1405 C1403 1.419 . S
C1405 C1406 1.362 . S
C1406 H1398 0.930 . S
C1406 C1405 1.362 . S
C1406 C1409 1.409 . S
C1407 H1399 0.930 . S
C1407 C1408 1.355 . S
C1407 C1409 1.415 . S
C1408 C1407 1.355 . S
C1408 C1410 1.419 . S
C1409 C1404 1.425 . S
C1409 C1406 1.409 . S
C1409 C1407 1.415 . S
C1410 H1400 0.930 . S
C1410 C1408 1.419 . S
C1410 C1411 1.362 . S
C1411 H1401 0.930 . S
C1411 C1404 1.409 . S
C1411 C1410 1.362 . S
H1412 C1418 0.930 . S
H1413 C1421 0.930 . S
H1414 C1422 0.930 . S
H1415 C1423 0.930 . S
H1416 C1426 0.930 . S
H1417 C1427 0.930 . S
C1418 H1412 0.930 . S
C1418 C1419 1.355 . S
C1418 C1420 1.415 . S
C1419 C1418 1.355 . S
C1419 C1421 1.419 . S
C1420 C1418 1.415 . S
C1420 C1425 1.425 . S
C1420 C1427 1.409 . S
C1421 H1413 0.930 . S
C1421 C1419 1.419 . S
C1421 C1422 1.362 . S
C1422 H1414 0.930 . S
C1422 C1421 1.362 . S
C1422 C1425 1.409 . S
C1423 H1415 0.930 . S
C1423 C1424 1.355 . S
C1423 C1425 1.415 . S
C1424 C1423 1.355 . S
C1424 C1426 1.419 . S
C1425 C1420 1.425 . S
C1425 C1422 1.409 . S
C1425 C1423 1.415 . S
C1426 H1416 0.930 . S
C1426 C1424 1.419 . S
C1426 C1427 1.362 . S
C1427 H1417 0.930 . S
C1427 C1420 1.409 . S
C1427 C1426 1.362 . S
H1428 C1434 0.930 . S
H1429 C1437 0.930 . S
H1430 C1438 0.930 . S
H1431 C1439 0.930 . S
H1432 C1442 0.930 . S
H1433 C1443 0.930 . S
C1434 H1428 0.930 . S
C1434 C1435 1.355 . S
C1434 C1436 1.415 . S
C1435 C1434 1.355 . S
C1435 C1437 1.419 . S
C1436 C1434 1.415 . S
C1436 C1441 1.425 . S
C1436 C1443 1.409 . S
C1437 H1429 0.930 . S
C1437 C1435 1.419 . S
C1437 C1438 1.362 . S
C1438 H1430 0.930 . S
C1438 C1437 1.362 . S
C1438 C1441 1.409 . S
C1439 H1431 0.930 . S
C1439 C1440 1.355 . S
C1439 C1441 1.415 . S
C1440 C1439 1.355 . S
C1440 C1442 1.419 . S
C1441 C1436 1.425 . S
C1441 C1438 1.409 . S
C1441 C1439 1.415 . S
C1442 H1432 0.930 . S
C1442 C1440 1.419 . S
C1442 C1443 1.362 . S
C1443 H1433 0.930 . S
C1443 C1436 1.409 . S
C1443 C1442 1.362 . S
H1444 C1450 0.930 . S
H1445 C1453 0.930 . S
H1446 C1454 0.930 . S
H1447 C1455 0.930 . S
H1448 C1458 0.930 . S
H1449 C1459 0.930 . S
C1450 H1444 0.930 . S
C1450 C1451 1.355 . S
C1450 C1452 1.415 . S
C1451 C1450 1.355 . S
C1451 C1453 1.419 . S
C1452 C1450 1.415 . S
C1452 C1457 1.425 . S
C1452 C1459 1.409 . S
C1453 H1445 0.930 . S
C1453 C1451 1.419 . S
C1453 C1454 1.362 . S
C1454 H1446 0.930 . S
C1454 C1453 1.362 . S
C1454 C1457 1.409 . S
C1455 H1447 0.930 . S
C1455 C1456 1.355 . S
C1455 C1457 1.415 . S
C1456 C1455 1.355 . S
C1456 C1458 1.419 . S
C1457 C1452 1.425 . S
C1457 C1454 1.409 . S
C1457 C1455 1.415 . S
C1458 H1448 0.930 . S
C1458 C1456 1.419 . S
C1458 C1459 1.362 . S
C1459 H1449 0.930 . S
C1459 C1452 1.409 . S
C1459 C1458 1.362 . S
H1460 C1466 0.930 . S
H1461 C1469 0.930 . S
H1462 C1470 0.930 . S
H1463 C1471 0.930 . S
H1464 C1474 0.930 . S
H1465 C1475 0.930 . S
C1466 H1460 0.930 . S
C1466 C1467 1.355 . S
C1466 C1468 1.415 . S
C1467 C1466 1.355 . S
C1467 C1469 1.419 . S
C1468 C1466 1.415 . S
C1468 C1473 1.425 . S
C1468 C1475 1.409 . S
C1469 H1461 0.930 . S
C1469 C1467 1.419 . S
C1469 C1470 1.362 . S
C1470 H1462 0.930 . S
C1470 C1469 1.362 . S
C1470 C1473 1.409 . S
C1471 H1463 0.930 . S
C1471 C1472 1.355 . S
C1471 C1473 1.415 . S
C1472 C1471 1.355 . S
C1472 C1474 1.419 . S
C1473 C1468 1.425 . S
C1473 C1470 1.409 . S
C1473 C1471 1.415 . S
C1474 H1464 0.930 . S
C1474 C1472 1.419 . S
C1474 C1475 1.362 . S
C1475 H1465 0.930 . S
C1475 C1468 1.409 . S
C1475 C1474 1.362 . S
H1476 C1482 0.930 . S
H1477 C1485 0.930 . S
H1478 C1486 0.930 . S
H1479 C1487 0.930 . S
H1480 C1490 0.930 . S
H1481 C1491 0.930 . S
C1482 H1476 0.930 . S
C1482 C1483 1.355 . S
C1482 C1484 1.415 . S
C1483 C1482 1.355 . S
C1483 C1485 1.419 . S
C1484 C1482 1.415 . S
C1484 C1489 1.425 . S
C1484 C1491 1.409 . S
C1485 H1477 0.930 . S
C1485 C1483 1.419 . S
C1485 C1486 1.362 . S
C1486 H1478 0.930 . S
C1486 C1485 1.362 . S
C1486 C1489 1.409 . S
C1487 H1479 0.930 . S
C1487 C1488 1.355 . S
C1487 C1489 1.415 . S
C1488 C1487 1.355 . S
C1488 C1490 1.419 . S
C1489 C1484 1.425 . S
C1489 C1486 1.409 . S
C1489 C1487 1.415 . S
C1490 H1480 0.930 . S
C1490 C1488 1.419 . S
C1490 C1491 1.362 . S
C1491 H1481 0.930 . S
C1491 C1484 1.409 . S
C1491 C1490 1.362 . S
H1492 C1498 0.930 . S
H1493 C1501 0.930 . S
H1494 C1502 0.930 . S
H1495 C1503 0.930 . S
H1496 C1506 0.930 . S
H1497 C1507 0.930 . S
C1498 H1492 0.930 . S
C1498 C1499 1.355 . S
C1498 C1500 1.415 . S
C1499 C1498 1.355 . S
C1499 C1501 1.419 . S
C1500 C1498 1.415 . S
C1500 C1505 1.425 . S
C1500 C1507 1.409 . S
C1501 H1493 0.930 . S
C1501 C1499 1.419 . S
C1501 C1502 1.362 . S
C1502 H1494 0.930 . S
C1502 C1501 1.362 . S
C1502 C1505 1.409 . S
C1503 H1495 0.930 . S
C1503 C1504 1.355 . S
C1503 C1505 1.415 . S
C1504 C1503 1.355 . S
C1504 C1506 1.419 . S
C1505 C1500 1.425 . S
C1505 C1502 1.409 . S
C1505 C1503 1.415 . S
C1506 H1496 0.930 . S
C1506 C1504 1.419 . S
C1506 C1507 1.362 . S
C1507 H1497 0.930 . S
C1507 C1500 1.409 . S
C1507 C1506 1.362 . S
H1508 C1514 0.930 . S
H1509 C1517 0.930 . S
H1510 C1518 0.930 . S
H1511 C1519 0.930 . S
H1512 C1522 0.930 . S
H1513 C1523 0.930 . S
C1514 H1508 0.930 . S
C1514 C1515 1.355 . S
C1514 C1516 1.415 . S
C1515 C1514 1.355 . S
C1515 C1517 1.419 . S
C1516 C1514 1.415 . S
C1516 C1521 1.425 . S
C1516 C1523 1.409 . S
C1517 H1509 0.930 . S
C1517 C1515 1.419 . S
C1517 C1518 1.362 . S
C1518 H1510 0.930 . S
C1518 C1517 1.362 . S
C1518 C1521 1.409 . S
C1519 H1511 0.930 . S
C1519 C1520 1.355 . S
C1519 C1521 1.415 . S
C1520 C1519 1.355 . S
C1520 C1522 1.419 . S
C1521 C1516 1.425 . S
C1521 C1518 1.409 . S
C1521 C1519 1.415 . S
C1522 H1512 0.930 . S
C1522 C1520 1.419 . S
C1522 C1523 1.362 . S
C1523 H1513 0.930 . S
C1523 C1516 1.409 . S
C1523 C1522 1.362 . S
H1524 C1530 0.930 . S
H1525 C1533 0.930 . S
H1526 C1534 0.930 . S
H1527 C1535 0.930 . S
H1528 C1538 0.930 . S
H1529 C1539 0.930 . S
C1530 H1524 0.930 . S
C1530 C1531 1.355 . S
C1530 C1532 1.415 . S
C1531 C1530 1.355 . S
C1531 C1533 1.419 . S
C1532 C1530 1.415 . S
C1532 C1537 1.425 . S
C1532 C1539 1.409 . S
C1533 H1525 0.930 . S
C1533 C1531 1.419 . S
C1533 C1534 1.362 . S
C1534 H1526 0.930 . S
C1534 C1533 1.362 . S
C1534 C1537 1.409 . S
C1535 H1527 0.930 . S
C1535 C1536 1.355 . S
C1535 C1537 1.415 . S
C1536 C1535 1.355 . S
C1536 C1538 1.419 . S
C1537 C1532 1.425 . S
C1537 C1534 1.409 . S
C1537 C1535 1.415 . S
C1538 H1528 0.930 . S
C1538 C1536 1.419 . S
C1538 C1539 1.362 . S
C1539 H1529 0.930 . S
C1539 C1532 1.409 . S
C1539 C1538 1.362 . S
H1540 C1546 0.930 . S
H1541 C1549 0.930 . S
H1542 C1550 0.930 . S
H1543 C1551 0.930 . S
H1544 C1554 0.930 . S
H1545 C1555 0.930 . S
C1546 H1540 0.930 . S
C1546 C1547 1.355 . S
C1546 C1548 1.415 . S
C1547 C1546 1.355 . S
C1547 C1549 1.419 . S
C1548 C1546 1.415 . S
C1548 C1553 1.425 . S
C1548 C1555 1.409 . S
C1549 H1541 0.930 . S
C1549 C1547 1.419 . S
C1549 C1550 1.362 . S
C1550 H1542 0.930 . S
C1550 C1549 1.362 . S
C1550 C1553 1.409 . S
C1551 H1543 0.930 . S
C1551 C1552 1.355 . S
C1551 C1553 1.415 . S
C1552 C1551 1.355 . S
C1552 C1554 1.419 . S
C1553 C1548 1.425 . S
C1553 C1550 1.409 . S
C1553 C1551 1.415 . S
C1554 H1544 0.930 . S
C1554 C1552 1.419 . S
C1554 C1555 1.362 . S
C1555 H1545 0.930 . S
C1555 C1548 1.409 . S
C1555 C1554 1.362 . S
H1556 C1562 0.930 . S
H1557 C1565 0.930 . S
H1558 C1566 0.930 . S
H1559 C1567 0.930 . S
H1560 C1570 0.930 . S
H1561 C1571 0.930 . S
C1562 H1556 0.930 . S
C1562 C1563 1.355 . S
C1562 C1564 1.415 . S
C1563 C1562 1.355 . S
C1563 C1565 1.419 . S
C1564 C1562 1.415 . S
C1564 C1569 1.425 . S
C1564 C1571 1.409 . S
C1565 H1557 0.930 . S
C1565 C1563 1.419 . S
C1565 C1566 1.362 . S
C1566 H1558 0.930 . S
C1566 C1565 1.362 . S
C1566 C1569 1.409 . S
C1567 H1559 0.930 . S
C1567 C1568 1.355 . S
C1567 C1569 1.415 . S
C1568 C1567 1.355 . S
C1568 C1570 1.419 . S
C1569 C1564 1.425 . S
C1569 C1566 1.409 . S
C1569 C1567 1.415 . S
C1570 H1560 0.930 . S
C1570 C1568 1.419 . S
C1570 C1571 1.362 . S
C1571 H1561 0.930 . S
C1571 C1564 1.409 . S
C1571 C1570 1.362 . S
H1572 C1578 0.930 . S
H1573 C1581 0.930 . S
H1574 C1582 0.930 . S
H1575 C1583 0.930 . S
H1576 C1586 0.930 . S
H1577 C1587 0.930 . S
C1578 H1572 0.930 . S
C1578 C1579 1.355 . S
C1578 C1580 1.415 . S
C1579 C1578 1.355 . S
C1579 C1581 1.419 . S
C1580 C1578 1.415 . S
C1580 C1585 1.425 . S
C1580 C1587 1.409 . S
C1581 H1573 0.930 . S
C1581 C1579 1.419 . S
C1581 C1582 1.362 . S
C1582 H1574 0.930 . S
C1582 C1581 1.362 . S
C1582 C1585 1.409 . S
C1583 H1575 0.930 . S
C1583 C1584 1.355 . S
C1583 C1585 1.415 . S
C1584 C1583 1.355 . S
C1584 C1586 1.419 . S
C1585 C1580 1.425 . S
C1585 C1582 1.409 . S
C1585 C1583 1.415 . S
C1586 H1576 0.930 . S
C1586 C1584 1.419 . S
C1586 C1587 1.362 . S
C1587 H1577 0.930 . S
C1587 C1580 1.409 . S
C1587 C1586 1.362 . S
H1588 C1594 0.930 . S
H1589 C1597 0.930 . S
H1590 C1598 0.930 . S
H1591 C1599 0.930 . S
H1592 C1602 0.930 . S
H1593 C1603 0.930 . S
C1594 H1588 0.930 . S
C1594 C1595 1.355 . S
C1594 C1596 1.415 . S
C1595 C1594 1.355 . S
C1595 C1597 1.419 . S
C1596 C1594 1.415 . S
C1596 C1601 1.425 . S
C1596 C1603 1.409 . S
C1597 H1589 0.930 . S
C1597 C1595 1.419 . S
C1597 C1598 1.362 . S
C1598 H1590 0.930 . S
C1598 C1597 1.362 . S
C1598 C1601 1.409 . S
C1599 H1591 0.930 . S
C1599 C1600 1.355 . S
C1599 C1601 1.415 . S
C1600 C1599 1.355 . S
C1600 C1602 1.419 . S
C1601 C1596 1.425 . S
C1601 C1598 1.409 . S
C1601 C1599 1.415 . S
C1602 H1592 0.930 . S
C1602 C1600 1.419 . S
C1602 C1603 1.362 . S
C1603 H1593 0.930 . S
C1603 C1596 1.409 . S
C1603 C1602 1.362 . S
H1604 C1610 0.930 . S
H1605 C1613 0.930 . S
H1606 C1614 0.930 . S
H1607 C1615 0.930 . S
H1608 C1618 0.930 . S
H1609 C1619 0.930 . S
C1610 H1604 0.930 . S
C1610 C1611 1.355 . S
C1610 C1612 1.415 . S
C1611 C1610 1.355 . S
C1611 C1613 1.419 . S
C1612 C1610 1.415 . S
C1612 C1617 1.425 . S
C1612 C1619 1.409 . S
C1613 H1605 0.930 . S
C1613 C1611 1.419 . S
C1613 C1614 1.362 . S
C1614 H1606 0.930 . S
C1614 C1613 1.362 . S
C1614 C1617 1.409 . S
C1615 H1607 0.930 . S
C1615 C1616 1.355 . S
C1615 C1617 1.415 . S
C1616 C1615 1.355 . S
C1616 C1618 1.419 . S
C1617 C1612 1.425 . S
C1617 C1614 1.409 . S
C1617 C1615 1.415 . S
C1618 H1608 0.930 . S
C1618 C1616 1.419 . S
C1618 C1619 1.362 . S
C1619 H1609 0.930 . S
C1619 C1612 1.409 . S
C1619 C1618 1.362 . S
H1620 C1626 0.930 . S
H1621 C1629 0.930 . S
H1622 C1630 0.930 . S
H1623 C1631 0.930 . S
H1624 C1634 0.930 . S
H1625 C1635 0.930 . S
C1626 H1620 0.930 . S
C1626 C1627 1.355 . S
C1626 C1628 1.415 . S
C1627 C1626 1.355 . S
C1627 C1629 1.419 . S
C1628 C1626 1.415 . S
C1628 C1633 1.425 . S
C1628 C1635 1.409 . S
C1629 H1621 0.930 . S
C1629 C1627 1.419 . S
C1629 C1630 1.362 . S
C1630 H1622 0.930 . S
C1630 C1629 1.362 . S
C1630 C1633 1.409 . S
C1631 H1623 0.930 . S
C1631 C1632 1.355 . S
C1631 C1633 1.415 . S
C1632 C1631 1.355 . S
C1632 C1634 1.419 . S
C1633 C1628 1.425 . S
C1633 C1630 1.409 . S
C1633 C1631 1.415 . S
C1634 H1624 0.930 . S
C1634 C1632 1.419 . S
C1634 C1635 1.362 . S
C1635 H1625 0.930 . S
C1635 C1628 1.409 . S
C1635 C1634 1.362 . S
H1636 C1642 0.930 . S
H1637 C1645 0.930 . S
H1638 C1646 0.930 . S
H1639 C1647 0.930 . S
H1640 C1650 0.930 . S
H1641 C1651 0.930 . S
C1642 H1636 0.930 . S
C1642 C1643 1.355 . S
C1642 C1644 1.415 . S
C1643 C1642 1.355 . S
C1643 C1645 1.419 . S
C1644 C1642 1.415 . S
C1644 C1649 1.425 . S
C1644 C1651 1.409 . S
C1645 H1637 0.930 . S
C1645 C1643 1.419 . S
C1645 C1646 1.362 . S
C1646 H1638 0.930 . S
C1646 C1645 1.362 . S
C1646 C1649 1.409 . S
C1647 H1639 0.930 . S
C1647 C1648 1.355 . S
C1647 C1649 1.415 . S
C1648 C1647 1.355 . S
C1648 C1650 1.419 . S
C1649 C1644 1.425 . S
C1649 C1646 1.409 . S
C1649 C1647 1.415 . S
C1650 H1640 0.930 . S
C1650 C1648 1.419 . S
C1650 C1651 1.362 . S
C1651 H1641 0.930 . S
C1651 C1644 1.409 . S
C1651 C1650 1.362 . S
H1652 C1658 0.930 . S
H1653 C1661 0.930 . S
H1654 C1662 0.930 . S
H1655 C1663 0.930 . S
H1656 C1666 0.930 . S
H1657 C1667 0.930 . S
C1658 H1652 0.930 . S
C1658 C1659 1.355 . S
C1658 C1660 1.415 . S
C1659 C1658 1.355 . S
C1659 C1661 1.419 . S
C1660 C1658 1.415 . S
C1660 C1665 1.425 . S
C1660 C1667 1.409 . S
C1661 H1653 0.930 . S
C1661 C1659 1.419 . S
C1661 C1662 1.362 . S
C1662 H1654 0.930 . S
C1662 C1661 1.362 . S
C1662 C1665 1.409 . S
C1663 H1655 0.930 . S
C1663 C1664 1.355 . S
C1663 C1665 1.415 . S
C1664 C1663 1.355 . S
C1664 C1666 1.419 . S
C1665 C1660 1.425 . S
C1665 C1662 1.409 . S
C1665 C1663 1.415 . S
C1666 H1656 0.930 . S
C1666 C1664 1.419 . S
C1666 C1667 1.362 . S
C1667 H1657 0.930 . S
C1667 C1660 1.409 . S
C1667 C1666 1.362 . S
H1668 C1674 0.930 . S
H1669 C1677 0.930 . S
H1670 C1678 0.930 . S
H1671 C1679 0.930 . S
H1672 C1682 0.930 . S
H1673 C1683 0.930 . S
C1674 H1668 0.930 . S
C1674 C1675 1.355 . S
C1674 C1676 1.415 . S
C1675 C1674 1.355 . S
C1675 C1677 1.419 . S
C1676 C1674 1.415 . S
C1676 C1681 1.425 . S
C1676 C1683 1.409 . S
C1677 H1669 0.930 . S
C1677 C1675 1.419 . S
C1677 C1678 1.362 . S
C1678 H1670 0.930 . S
C1678 C1677 1.362 . S
C1678 C1681 1.409 . S
C1679 H1671 0.930 . S
C1679 C1680 1.355 . S
C1679 C1681 1.415 . S
C1680 C1679 1.355 . S
C1680 C1682 1.419 . S
C1681 C1676 1.425 . S
C1681 C1678 1.409 . S
C1681 C1679 1.415 . S
C1682 H1672 0.930 . S
C1682 C1680 1.419 . S
C1682 C1683 1.362 . S
C1683 H1673 0.930 . S
C1683 C1676 1.409 . S
C1683 C1682 1.362 . S
H1684 C1690 0.930 . S
H1685 C1693 0.930 . S
H1686 C1694 0.930 . S
H1687 C1695 0.930 . S
H1688 C1698 0.930 . S
H1689 C1699 0.930 . S
C1690 H1684 0.930 . S
C1690 C1691 1.355 . S
C1690 C1692 1.415 . S
C1691 C1690 1.355 . S
C1691 C1693 1.419 . S
C1692 C1690 1.415 . S
C1692 C1697 1.425 . S
C1692 C1699 1.409 . S
C1693 H1685 0.930 . S
C1693 C1691 1.419 . S
C1693 C1694 1.362 . S
C1694 H1686 0.930 . S
C1694 C1693 1.362 . S
C1694 C1697 1.409 . S
C1695 H1687 0.930 . S
C1695 C1696 1.355 . S
C1695 C1697 1.415 . S
C1696 C1695 1.355 . S
C1696 C1698 1.419 . S
C1697 C1692 1.425 . S
C1697 C1694 1.409 . S
C1697 C1695 1.415 . S
C1698 H1688 0.930 . S
C1698 C1696 1.419 . S
C1698 C1699 1.362 . S
C1699 H1689 0.930 . S
C1699 C1692 1.409 . S
C1699 C1698 1.362 . S
H1700 C1706 0.930 . S
H1701 C1709 0.930 . S
H1702 C1710 0.930 . S
H1703 C1711 0.930 . S
H1704 C1714 0.930 . S
H1705 C1715 0.930 . S
C1706 H1700 0.930 . S
C1706 C1707 1.355 . S
C1706 C1708 1.415 . S
C1707 C1706 1.355 . S
C1707 C1709 1.419 . S
C1708 C1706 1.415 . S
C1708 C1713 1.425 . S
C1708 C1715 1.409 . S
C1709 H1701 0.930 . S
C1709 C1707 1.419 . S
C1709 C1710 1.362 . S
C1710 H1702 0.930 . S
C1710 C1709 1.362 . S
C1710 C1713 1.409 . S
C1711 H1703 0.930 . S
C1711 C1712 1.355 . S
C1711 C1713 1.415 . S
C1712 C1711 1.355 . S
C1712 C1714 1.419 . S
C1713 C1708 1.425 . S
C1713 C1710 1.409 . S
C1713 C1711 1.415 . S
C1714 H1704 0.930 . S
C1714 C1712 1.419 . S
C1714 C1715 1.362 . S
C1715 H1705 0.930 . S
C1715 C1708 1.409 . S
C1715 C1714 1.362 . S
H1716 C1722 0.930 . S
H1717 C1725 0.930 . S
H1718 C1726 0.930 . S
H1719 C1727 0.930 . S
H1720 C1730 0.930 . S
H1721 C1731 0.930 . S
C1722 H1716 0.930 . S
C1722 C1723 1.355 . S
C1722 C1724 1.415 . S
C1723 C1722 1.355 . S
C1723 C1725 1.419 . S
C1724 C1722 1.415 . S
C1724 C1729 1.425 . S
C1724 C1731 1.409 . S
C1725 H1717 0.930 . S
C1725 C1723 1.419 . S
C1725 C1726 1.362 . S
C1726 H1718 0.930 . S
C1726 C1725 1.362 . S
C1726 C1729 1.409 . S
C1727 H1719 0.930 . S
C1727 C1728 1.355 . S
C1727 C1729 1.415 . S
C1728 C1727 1.355 . S
C1728 C1730 1.419 . S
C1729 C1724 1.425 . S
C1729 C1726 1.409 . S
C1729 C1727 1.415 . S
C1730 H1720 0.930 . S
C1730 C1728 1.419 . S
C1730 C1731 1.362 . S
C1731 H1721 0.930 . S
C1731 C1724 1.409 . S
C1731 C1730 1.362 . S
H1732 C1738 0.930 . S
H1733 C1741 0.930 . S
H1734 C1742 0.930 . S
H1735 C1743 0.930 . S
H1736 C1746 0.930 . S
H1737 C1747 0.930 . S
C1738 H1732 0.930 . S
C1738 C1739 1.355 . S
C1738 C1740 1.415 . S
C1739 C1738 1.355 . S
C1739 C1741 1.419 . S
C1740 C1738 1.415 . S
C1740 C1745 1.425 . S
C1740 C1747 1.409 . S
C1741 H1733 0.930 . S
C1741 C1739 1.419 . S
C1741 C1742 1.362 . S
C1742 H1734 0.930 . S
C1742 C1741 1.362 . S
C1742 C1745 1.409 . S
C1743 H1735 0.930 . S
C1743 C1744 1.355 . S
C1743 C1745 1.415 . S
C1744 C1743 1.355 . S
C1744 C1746 1.419 . S
C1745 C1740 1.425 . S
C1745 C1742 1.409 . S
C1745 C1743 1.415 . S
C1746 H1736 0.930 . S
C1746 C1744 1.419 . S
C1746 C1747 1.362 . S
C1747 H1737 0.930 . S
C1747 C1740 1.409 . S
C1747 C1746 1.362 . S
H1748 C1754 0.930 . S
H1749 C1757 0.930 . S
H1750 C1758 0.930 . S
H1751 C1759 0.930 . S
H1752 C1762 0.930 . S
H1753 C1763 0.930 . S
C1754 H1748 0.930 . S
C1754 C1755 1.355 . S
C1754 C1756 1.415 . S
C1755 C1754 1.355 . S
C1755 C1757 1.419 . S
C1756 C1754 1.415 . S
C1756 C1761 1.425 . S
C1756 C1763 1.409 . S
C1757 H1749 0.930 . S
C1757 C1755 1.419 . S
C1757 C1758 1.362 . S
C1758 H1750 0.930 . S
C1758 C1757 1.362 . S
C1758 C1761 1.409 . S
C1759 H1751 0.930 . S
C1759 C1760 1.355 . S
C1759 C1761 1.415 . S
C1760 C1759 1.355 . S
C1760 C1762 1.419 . S
C1761 C1756 1.425 . S
C1761 C1758 1.409 . S
C1761 C1759 1.415 . S
C1762 H1752 0.930 . S
C1762 C1760 1.419 . S
C1762 C1763 1.362 . S
C1763 H1753 0.930 . S
C1763 C1756 1.409 . S
C1763 C1762 1.362 . S
C624 C318 1.596 . S
C619 C308 1.593 . S
C635 C282 1.424 . S
C640 C316 1.419 . S
C656 C317 1.419 . S
C651 C269 1.424 . S
C667 C295 1.593 . S
C672 C319 1.588 . S
C688 C363 1.543 . S
C683 C217 1.545 . S
C704 C423 1.555 . S
C699 C230 1.550 . S
C715 C243 1.553 . S
C720 C362 1.556 . S
C736 C422 1.385 . S
C731 C256 1.390 . S
C747 C165 1.542 . S
C752 C364 1.546 . S
C768 C420 1.387 . S
C763 C178 1.380 . S
C779 C191 1.552 . S
C784 C365 1.556 . S
C795 C204 1.554 . S
C800 C421 1.550 . S
C816 C471 1.592 . S
C811 C152 1.592 1_556 S
C827 C126 1.413 1_556 S
C832 C470 1.421 . S
C843 C113 1.413 . S
C848 C472 1.421 . S
C864 C473 1.596 . S
C859 C139 1.592 . S
C875 C61 1.543 . S
C880 C514 1.547 . S
C891 C74 1.554 1_545 S
C896 C573 1.549 1_565 S
C907 C87 1.551 . S
C912 C512 1.553 . S
C923 C100 1.380 1_545 S
C928 C572 1.387 1_565 S
C944 C513 1.542 . S
C939 C9 1.544 . S
C960 C570 1.384 . S
C955 C22 1.389 1_565 S
C971 C35 1.553 . S
C976 C515 1.547 . S
C992 C571 1.553 1_565 S
C987 C48 1.552 . S
C1008 C315 1.499 . S
C1003 C4 1.219 . S
C1019 C21 1.372 . S
C1024 C321 1.443 1_565 S
C1035 C34 1.689 . S
C1040 C313 1.713 . S
C1051 C43 1.102 . S
C1056 C320 1.366 . S
C1067 C56 1.351 . S
C1072 C312 1.515 . S
C1088 C322 1.387 . S
C1083 C69 1.246 . S
C1099 C86 1.663 . S
C1104 C314 1.714 . S
C1120 C323 1.453 1_565 S
C1115 C99 1.429 1_545 S
C1136 C369 1.607 1_565 S
C1131 C47 1.595 . S
C1147 C8 1.616 . S
C1152 C412 1.664 . S
C1168 C367 1.316 1_565 S
C1163 C17 1.048 . S
C1184 C414 1.458 . S
C1179 C30 1.186 . S
C1195 C73 1.559 1_545 S
C1200 C368 1.607 1_565 S
C1216 C413 1.475 . S
C1211 C82 1.310 . S
C1232 C366 1.318 1_565 S
C1227 C95 1.088 1_545 S
C1248 C415 1.661 . S
C1243 C60 1.642 . S
C1264 C419 1.469 . S
C1259 C112 1.411 1_556 S
C1275 C125 1.389 1_554 S
C1280 C418 1.464 1_556 S
C1296 C370 1.442 . S
C1291 C108 1.218 1_556 S
C1312 C417 1.653 1_556 S
C1307 C138 1.590 1_554 S
C1323 C147 1.187 . S
C1328 C373 1.459 1_556 S
C1339 C151 1.607 . S
C1344 C416 1.653 1_556 S
C1360 C372 1.439 . S
C1355 C121 1.168 . S
C1376 C371 1.471 1_556 S
C1371 C134 1.327 1_554 S
C1392 C465 1.515 . S
C1387 C160 1.349 . S
C1408 C468 1.454 . S
C1403 C177 1.433 . S
C1419 C190 1.668 . S
C1424 C464 1.718 . S
C1440 C466 1.370 . S
C1435 C199 1.107 . S
C1456 C462 1.503 . S
C1451 C212 1.254 . S
C1467 C225 1.149 . S
C1472 C467 1.377 . S
C1483 C242 1.666 . S
C1488 C463 1.714 . S
C1504 C469 1.454 . S
C1499 C255 1.436 . S
C1520 C523 1.607 . S
C1515 C203 1.598 . S
C1531 C164 1.648 . S
C1536 C562 1.664 . S
C1552 C522 1.316 . S
C1547 C173 1.048 . S
C1568 C564 1.477 . S
C1563 C186 1.316 . S
C1584 C521 1.607 . S
C1579 C229 1.598 . S
C1595 C238 1.193 . S
C1600 C563 1.458 . S
C1616 C520 1.316 . S
C1611 C251 1.049 . S
C1632 C565 1.659 . S
C1627 C216 1.607 . S
C1648 C569 1.477 . S
C1643 C268 1.453 . S
C1659 C281 1.457 . S
C1664 C568 1.477 . S
C1680 C516 1.440 . S
C1675 C264 1.172 . S
C1691 C294 1.642 . S
C1696 C567 1.654 . S
C1712 C519 1.471 . S
C1707 C303 1.327 . S
C1728 C566 1.653 . S
C1723 C307 1.590 . S
C1744 C517 1.454 . S
C1739 C277 1.310 . S
C1755 C290 1.266 . S
C1760 C518 1.463 . S
