# Generated by pormake.
# Topology pth, (4,4)-cn, num edge types: 1
# Building blocks:
#     Node 0, Type 0, BuildingBlock: GALJAG_clean_sbu_0, # of connection points: 4
#     Node 1, Type 0, BuildingBlock: GALJAG_clean_sbu_0, # of connection points: 4
#     Node 2, Type 0, BuildingBlock: GALJAG_clean_sbu_0, # of connection points: 4
#     Node 3, Type 1, BuildingBlock: AZAVOO_clean_linker_0, # of connection points: 4
#     Node 4, Type 1, BuildingBlock: AZAVOO_clean_linker_0, # of connection points: 4
#     Node 5, Type 1, BuildingBlock: AZAVOO_clean_linker_0, # of connection points: 4
#     Edge 6, Type (0, 1), BuildingBlock: MIFKUJ_clean_linker_0, # of connection points: 2
#     Edge 7, Type (0, 1), BuildingBlock: MIFKUJ_clean_linker_0, # of connection points: 2
#     Edge 8, Type (0, 1), BuildingBlock: MIFKUJ_clean_linker_0, # of connection points: 2
#     Edge 9, Type (0, 1), BuildingBlock: MIFKUJ_clean_linker_0, # of connection points: 2
#     Edge 10, Type (0, 1), BuildingBlock: MIFKUJ_clean_linker_0, # of connection points: 2
#     Edge 11, Type (0, 1), BuildingBlock: MIFKUJ_clean_linker_0, # of connection points: 2
#     Edge 12, Type (0, 1), BuildingBlock: MIFKUJ_clean_linker_0, # of connection points: 2
#     Edge 13, Type (0, 1), BuildingBlock: MIFKUJ_clean_linker_0, # of connection points: 2
#     Edge 14, Type (0, 1), BuildingBlock: MIFKUJ_clean_linker_0, # of connection points: 2
#     Edge 15, Type (0, 1), BuildingBlock: MIFKUJ_clean_linker_0, # of connection points: 2
#     Edge 16, Type (0, 1), BuildingBlock: MIFKUJ_clean_linker_0, # of connection points: 2
#     Edge 17, Type (0, 1), BuildingBlock: MIFKUJ_clean_linker_0, # of connection points: 2
# Relax obj value: 0.120
# Max RMSD: 0.232
# Mean RMSD: 0.161
data_MOF--net-pth--node1-GALJAG_clean_sbu_0--node2-AZAVOO_clean_linker_0--edge1-MIFKUJ_clean_linker_0
_symmetry_space_group_name_H-M    P1
_symmetry_Int_Tables_number       1
_symmetry_cell_setting            triclinic
loop_
_symmetry_equiv_pos_as_xyz
'x, y, z'
_cell_length_a     33.621454
_cell_length_b     33.995338
_cell_length_c     86.854724
_cell_angle_alpha  92.700754
_cell_angle_beta   89.228388
_cell_angle_gamma 120.08811
loop_
_atom_site_label
_atom_site_type_symbol
_atom_site_fract_x
_atom_site_fract_y
_atom_site_fract_z
_atom_type_partial_charge
In0 In 0.06049 0.0512 0.06191 0.0
O1 O 0.02687 0.08952 0.07304 0.0
O2 O 0.0654 0.07155 0.08738 0.0
C3 C 0.00222 0.01342 0.03762 0.0
C4 C 0.1373 0.11925 0.05013 0.0
C5 C 0.06321 0.98101 0.07384 0.0
O6 O 0.98874 0.01697 0.05097 0.0
O7 O 0.04492 0.02921 0.03654 0.0
O8 O 0.09867 0.01952 0.07258 0.0
O9 O 0.02656 0.97778 0.06887 0.0
C10 C 0.04151 0.09042 0.08643 0.0
O11 O 0.13131 0.07977 0.05122 0.0
O12 O 0.10475 0.12444 0.05512 0.0
In13 In 0.02138 0.04488 0.39318 0.0
O14 O 0.05984 0.10627 0.3782 0.0
O15 O 0.98721 0.07489 0.37906 0.0
C16 C 0.09026 0.05743 0.4118 0.0
C17 C 0.96291 0.0371 0.41582 0.0
C18 C 0.0121 0.97528 0.37445 0.0
O19 O 0.09067 0.09008 0.40527 0.0
O20 O 0.05524 0.01897 0.40893 0.0
O21 O 0.97826 0.97422 0.38131 0.0
O22 O 0.04974 0.01178 0.37664 0.0
C23 C 0.02416 0.10602 0.37379 0.0
O24 O 0.95266 0.00633 0.40536 0.0
O25 O 0.00209 0.07188 0.41464 0.0
In26 In 0.0468 0.05436 0.72913 0.0
O27 O -0.00027 0.98103 0.73537 0.0
O28 O 0.02185 0.03228 0.75344 0.0
C29 C 0.09116 0.02279 0.71099 0.0
C30 C 0.98713 0.06704 0.71246 0.0
C31 C 0.11275 0.13347 0.74263 0.0
O32 O 0.08838 0.01866 0.72539 0.0
O33 O 0.07005 0.04128 0.7057 0.0
O34 O 0.07058 0.12035 0.74403 0.0
O35 O 0.12116 0.10674 0.73464 0.0
C36 C -0.00186 0.99052 0.7495 0.0
O37 O 0.97464 0.03943 0.72307 0.0
O38 O 0.02988 0.08878 0.7103 0.0
H39 H 0.99586 0.46237 0.12819 0.0
H40 H 0.08684 0.83056 0.25313 0.0
H41 H 0.95694 0.43211 0.21268 0.0
H42 H 0.9552 0.36526 0.20004 0.0
H43 H 0.0996 0.42284 0.21056 0.0
H44 H 0.10089 0.48943 0.22337 0.0
H45 H 0.96653 0.51174 0.19104 0.0
H46 H 0.96588 0.48879 0.16385 0.0
H47 H 0.10408 0.5126 0.16915 0.0
H48 H 0.10445 0.53606 0.19625 0.0
H49 H 0.97425 0.60218 0.20785 0.0
H50 H 0.9802 0.65217 0.1875 0.0
H51 H 0.1166 0.67644 0.17699 0.0
H52 H 0.11094 0.62787 0.19779 0.0
H53 H 0.96816 0.60396 0.24428 0.0
H54 H 0.97161 0.67528 0.25276 0.0
H55 H 0.11292 0.75022 0.23803 0.0
H56 H 0.10919 0.67857 0.22982 0.0
H57 H 0.96156 0.52392 0.26289 0.0
H58 H 0.95285 0.55648 0.28758 0.0
H59 H 0.09355 0.66639 0.28481 0.0
H60 H 0.10233 0.63227 0.2607 0.0
H61 H 0.96105 0.43841 0.24623 0.0
H62 H 0.96096 0.38685 0.26498 0.0
H63 H 0.10049 0.48697 0.27832 0.0
H64 H 0.10064 0.53764 0.25917 0.0
O65 O 0.99692 0.47178 0.13894 0.0
O66 O 0.06782 0.48417 0.14232 0.0
O67 O 0.01178 0.76172 0.25721 0.0
O68 O 0.08441 0.80189 0.24975 0.0
C69 C 0.03204 0.50915 0.22361 0.0
C70 C 0.03541 0.53867 0.21213 0.0
C71 C 0.03815 0.58051 0.21635 0.0
C72 C 0.03686 0.59258 0.23204 0.0
C73 C 0.03413 0.56319 0.24355 0.0
C74 C 0.03196 0.52157 0.23933 0.0
C75 C 0.02903 0.46537 0.21889 0.0
C76 C 0.98779 0.42955 0.21265 0.0
C77 C 0.98687 0.39152 0.20547 0.0
C78 C 0.02735 0.38922 0.20427 0.0
C79 C 0.06804 0.42407 0.21128 0.0
C80 C 0.06878 0.46182 0.21866 0.0
C81 C 0.03544 0.52536 0.19559 0.0
C82 C 0.99665 0.51211 0.18627 0.0
C83 C 0.99636 0.49894 0.17077 0.0
C84 C 0.0349 0.49876 0.16433 0.0
C85 C 0.07381 0.51227 0.17374 0.0
C86 C 0.07408 0.52557 0.18922 0.0
C87 C 0.04217 0.61153 0.20426 0.0
C88 C 0.00551 0.61866 0.20122 0.0
C89 C 0.00883 0.64682 0.1895 0.0
C90 C 0.04879 0.66804 0.18057 0.0
C91 C 0.08558 0.66098 0.18376 0.0
C92 C 0.08231 0.63305 0.19554 0.0
C93 C 0.03843 0.63613 0.23646 0.0
C94 C -0.0002 0.63583 0.24288 0.0
C95 C 0.00187 0.67661 0.24771 0.0
C96 C 0.04259 0.71848 0.24609 0.0
C97 C 0.08105 0.71861 0.23945 0.0
C98 C 0.07898 0.67777 0.23469 0.0
C99 C 0.03239 0.57613 0.25996 0.0
C100 C 0.99092 0.55406 0.26797 0.0
C101 C 0.98589 0.57303 0.28196 0.0
C102 C 0.02218 0.61456 0.28806 0.0
C103 C 0.06491 0.63424 0.2806 0.0
C104 C 0.07001 0.61497 0.26674 0.0
C105 C 0.03091 0.49156 0.25132 0.0
C106 C 0.99152 0.44912 0.25323 0.0
C107 C 0.99144 0.41993 0.26402 0.0
C108 C 0.03077 0.43282 0.27312 0.0
C109 C 0.0699 0.47582 0.27134 0.0
C110 C 0.06995 0.50492 0.26052 0.0
C111 C 0.03439 0.48451 0.14789 0.0
C112 C 0.04513 0.76188 0.25136 0.0
H113 H 0.55627 0.98575 0.46585 0.0
H114 H 0.32826 0.14258 0.59252 0.0
H115 H 0.5683 0.97845 0.55415 0.0
H116 H 0.62406 0.96305 0.54086 0.0
H117 H 0.71774 0.10789 0.53876 0.0
H118 H 0.6624 0.12262 0.55257 0.0
H119 H 0.49756 0.98545 0.52959 0.0
H120 H 0.5112 0.97258 0.50254 0.0
H121 H 0.62478 0.11091 0.50197 0.0
H122 H 0.61045 0.12334 0.52898 0.0
H123 H 0.41898 0.00704 0.54579 0.0
H124 H 0.36913 0.01153 0.52662 0.0
H125 H 0.48292 0.13882 0.51216 0.0
H126 H 0.53173 0.13511 0.532 0.0
H127 H 0.41906 0.00867 0.58047 0.0
H128 H 0.35635 0.01942 0.59017 0.0
H129 H 0.42867 0.15804 0.57563 0.0
H130 H 0.49157 0.14705 0.56622 0.0
H131 H 0.48909 -0.00132 0.59797 0.0
H132 H 0.44687 0.99478 0.62145 0.0
H133 H 0.49621 0.13893 0.62042 0.0
H134 H 0.53891 0.14262 0.59694 0.0
H135 H 0.55967 0.99378 0.59011 0.0
H136 H 0.61382 0.99632 0.60936 0.0
H137 H 0.69893 0.14126 0.60448 0.0
H138 H 0.64434 0.13843 0.5854 0.0
O139 O 0.55118 0.9917 0.47649 0.0
O140 O 0.60925 0.06308 0.4768 0.0
O141 O 0.31714 0.06609 0.5962 0.0
O142 O 0.35225 0.13721 0.58856 0.0
C143 C 0.57427 0.06038 0.55908 0.0
C144 C 0.5456 0.0622 0.54774 0.0
C145 C 0.50861 0.06848 0.55219 0.0
C146 C 0.49952 0.07161 0.56796 0.0
C147 C 0.52829 0.06967 0.57929 0.0
C148 C 0.56602 0.06473 0.57482 0.0
C149 C 0.61147 0.05158 0.55422 0.0
C150 C 0.60152 0.00671 0.55123 0.0
C151 C 0.63319 -0.00195 0.54351 0.0
C152 C 0.67506 0.03423 0.53852 0.0
C153 C 0.68606 0.07921 0.54254 0.0
C154 C 0.65449 0.08778 0.55039 0.0
C155 C 0.55311 0.05524 0.5312 0.0
C156 C 0.5252 0.01294 0.52355 0.0
C157 C 0.53315 0.00569 0.50813 0.0
C158 C 0.56918 0.04068 0.5001 0.0
C159 C 0.59681 0.0832 0.50782 0.0
C160 C 0.58876 0.09041 0.52323 0.0
C161 C 0.47882 0.0708 0.54029 0.0
C162 C 0.43295 0.03599 0.53854 0.0
C163 C 0.40473 0.03842 0.52746 0.0
C164 C 0.42209 0.07547 0.51779 0.0
C165 C 0.46829 0.11014 0.51953 0.0
C166 C 0.49635 0.10789 0.53075 0.0
C167 C 0.45991 0.07716 0.57272 0.0
C168 C 0.42123 0.0413 0.57937 0.0
C169 C 0.38546 0.04752 0.58489 0.0
C170 C 0.38757 0.08967 0.58372 0.0
C171 C 0.42599 0.1252 0.57674 0.0
C172 C 0.46187 0.11899 0.57129 0.0
C173 C 0.51691 0.07089 0.59576 0.0
C174 C 0.49282 0.02986 0.60326 0.0
C175 C 0.4685 0.02766 0.61665 0.0
C176 C 0.46775 0.06644 0.62259 0.0
C177 C 0.49588 0.10847 0.61595 0.0
C178 C 0.52052 0.11072 0.60264 0.0
C179 C 0.59805 0.066 0.58655 0.0
C180 C 0.58979 0.02606 0.59334 0.0
C181 C 0.62063 0.0276 0.6043 0.0
C182 C 0.66044 0.06902 0.6084 0.0
C183 C 0.66865 0.10889 0.60145 0.0
C184 C 0.63754 0.10738 0.59064 0.0
C185 C 0.57787 0.03269 0.48377 0.0
C186 C 0.3501 0.09674 0.58987 0.0
H187 H 0.59755 0.63758 0.99435 0.0
H188 H 0.3373 0.25609 0.87161 0.0
H189 H 0.577 0.65643 0.91067 0.0
H190 H 0.6346 0.72659 0.92415 0.0
H191 H 0.73912 0.69189 0.9127 0.0
H192 H 0.68113 0.62191 0.89902 0.0
H193 H 0.51704 0.57754 0.93243 0.0
H194 H 0.53913 0.60326 0.95937 0.0
H195 H 0.66211 0.59421 0.95288 0.0
H196 H 0.63928 0.56797 0.92602 0.0
H197 H 0.4396 0.48785 0.91525 0.0
H198 H 0.39617 0.4395 0.93627 0.0
H199 H 0.51162 0.42245 0.94715 0.0
H200 H 0.5542 0.46967 0.92569 0.0
H201 H 0.43003 0.48148 0.88019 0.0
H202 H 0.36493 0.40695 0.8724 0.0
H203 H 0.44277 0.34334 0.88506 0.0
H204 H 0.50788 0.4182 0.89258 0.0
H205 H 0.49831 0.56731 0.86286 0.0
H206 H 0.45503 0.53554 0.83866 0.0
H207 H 0.49746 0.43462 0.83617 0.0
H208 H 0.5412 0.4671 0.86022 0.0
H209 H 0.58574 0.65621 0.87668 0.0
H210 H 0.63766 0.70915 0.85785 0.0
H211 H 0.68328 0.6141 0.84464 0.0
H212 H 0.63137 0.56153 0.86346 0.0
O213 O 0.58921 0.62688 0.98371 0.0
O214 O 0.65212 0.62202 0.97973 0.0
O215 O 0.32405 0.32039 0.86821 0.0
O216 O 0.36248 0.28598 0.87464 0.0
C217 C 0.58842 0.5876 0.89928 0.0
C218 C 0.56385 0.55682 0.91083 0.0
C219 C 0.52671 0.51327 0.90673 0.0
C220 C 0.51375 0.50064 0.8911 0.0
C221 C 0.53875 0.53137 0.87953 0.0
C222 C 0.5766 0.57457 0.88361 0.0
C223 C 0.62501 0.63418 0.90399 0.0
C224 C 0.61262 0.66475 0.91068 0.0
C225 C 0.64542 0.70452 0.91846 0.0
C226 C 0.69113 0.71425 0.91968 0.0
C227 C 0.70418 0.68533 0.91188 0.0
C228 C 0.67121 0.64542 0.90407 0.0
C229 C 0.57654 0.57087 0.92732 0.0
C230 C 0.54854 0.58081 0.9369 0.0
C231 C 0.56134 0.59564 0.95226 0.0
C232 C 0.60245 0.60089 0.95827 0.0
C233 C 0.63027 0.59059 0.94861 0.0
C234 C 0.61734 0.57562 0.93328 0.0
C235 C 0.49986 0.48201 0.91895 0.0
C236 C 0.45521 0.47316 0.92206 0.0
C237 C 0.43073 0.44601 0.93417 0.0
C238 C 0.45066 0.42751 0.94345 0.0
C239 C 0.49524 0.43593 0.94013 0.0
C240 C 0.51964 0.46298 0.92796 0.0
C241 C 0.47371 0.45521 0.88686 0.0
C242 C 0.43297 0.45141 0.88123 0.0
C243 C 0.39583 0.4088 0.87682 0.0
C244 C 0.39868 0.36916 0.87809 0.0
C245 C 0.43944 0.37315 0.88391 0.0
C246 C 0.47663 0.41582 0.88826 0.0
C247 C 0.52253 0.51923 0.8633 0.0
C248 C 0.4995 0.53934 0.85679 0.0
C249 C 0.4745 0.52092 0.84307 0.0
C250 C 0.47241 0.48228 0.83565 0.0
C251 C 0.49867 0.4646 0.84157 0.0
C252 C 0.52358 0.48298 0.85531 0.0
C253 C 0.60513 0.60527 0.87148 0.0
C254 C 0.60687 0.64686 0.86967 0.0
C255 C 0.63655 0.67701 0.85896 0.0
C256 C 0.66465 0.66581 0.84983 0.0
C257 C 0.66172 0.62346 0.85139 0.0
C258 C 0.63224 0.59349 0.86214 0.0
C259 C 0.61623 0.61719 0.97453 0.0
C260 C 0.3594 0.32382 0.87334 0.0
H261 H 0.06079 0.08721 0.11649 0.0
H262 H 0.05202 0.12896 0.13869 0.0
H263 H 0.99681 0.18855 0.1089 0.0
H264 H 0.00431 0.14577 0.0867 0.0
H265 H 0.09334 0.21572 0.14449 0.0
H266 H 0.92558 0.21533 0.12852 0.0
H267 H 0.85119 0.16425 0.11551 0.0
H268 H 0.8627 0.04826 0.12616 0.0
H269 H 0.93682 0.09856 0.13941 0.0
H270 H 0.08677 0.4004 0.18125 0.0
H271 H 0.0849 0.34218 0.16325 0.0
H272 H 0.96755 0.2386 0.1867 0.0
H273 H 0.96853 0.29735 0.2045 0.0
H274 H 0.95351 0.22434 0.15713 0.0
H275 H 0.07737 0.25228 0.19047 0.0
H276 H 0.14987 0.29865 0.20509 0.0
H277 H 0.22229 0.34894 0.16293 0.0
H278 H 0.15011 0.30336 0.14807 0.0
C279 C 0.04627 0.10881 0.11471 0.0
C280 C 0.03329 0.11336 0.09988 0.0
C281 C 0.04135 0.13269 0.12739 0.0
C282 C 0.02353 0.16169 0.12549 0.0
C283 C 0.00987 0.16575 0.1107 0.0
C284 C 0.01438 0.14149 0.09801 0.0
C285 C 0.02201 0.18984 0.1388 0.0
C286 C 0.06266 0.21736 0.14731 0.0
C287 C 0.98178 0.19139 0.14268 0.0
C288 C 0.93698 0.1608 0.13484 0.0
C289 C 0.91215 0.17892 0.12814 0.0
C290 C 0.87004 0.1501 0.12071 0.0
C291 C 0.85229 0.10305 0.11997 0.0
C292 C 0.87656 0.08472 0.12669 0.0
C293 C 0.91866 0.11338 0.13414 0.0
C294 C 0.06108 0.3651 0.18271 0.0
C295 C 0.02813 0.35315 0.19435 0.0
C296 C 0.06001 0.33185 0.17243 0.0
C297 C 0.02656 0.28589 0.17378 0.0
C298 C 0.99374 0.27384 0.18547 0.0
C299 C 0.99439 0.30727 0.19565 0.0
C300 C 0.0251 0.25084 0.16259 0.0
C301 C 0.98399 0.22222 0.15443 0.0
C302 C 0.06463 0.24745 0.15927 0.0
C303 C 0.10824 0.27458 0.16816 0.0
C304 C 0.10871 0.27341 0.18432 0.0
C305 C 0.14975 0.29954 0.19266 0.0
C306 C 0.19064 0.32677 0.18495 0.0
C307 C 0.19059 0.32784 0.16889 0.0
C308 C 0.14963 0.3018 0.1605 0.0
H309 H 0.22238 0.347 0.19142 0.0
H310 H 0.8197 0.0808 0.11421 0.0
H311 H 0.87337 0.97087 0.41926 0.0
H312 H 0.82305 0.96339 0.44098 0.0
H313 H 0.93322 0.08472 0.46328 0.0
H314 H 0.98355 0.09258 0.44163 0.0
H315 H 0.8864 0.01238 0.48312 0.0
H316 H 0.85339 0.09306 0.44563 0.0
H317 H 0.83093 0.10415 0.41999 0.0
H318 H 0.70141 0.9803 0.42288 0.0
H319 H 0.72341 0.96814 0.44846 0.0
H320 H 0.76936 0.07847 0.53774 0.0
H321 H 0.8169 0.07104 0.51761 0.0
H322 H 0.69542 0.96222 0.49494 0.0
H323 H 0.64758 0.97109 0.51452 0.0
H324 H 0.74568 0.02187 0.47513 0.0
H325 H 0.77505 0.94305 0.51332 0.0
H326 H 0.79673 0.93075 0.53889 0.0
H327 H 0.9312 0.04772 0.53485 0.0
H328 H 0.91012 0.06111 0.50933 0.0
C329 C 0.88678 0.99592 0.4288 0.0
C330 C 0.93222 0.03243 0.42875 0.0
C331 C 0.85808 0.99161 0.44117 0.0
C332 C 0.87452 0.02359 0.45367 0.0
C333 C 0.92003 0.05967 0.45374 0.0
C334 C 0.94858 0.06424 0.44133 0.0
C335 C 0.84402 0.02018 0.46657 0.0
C336 C 0.85577 0.01478 0.48145 0.0
C337 C 0.80355 0.02211 0.46423 0.0
C338 C 0.79027 0.02941 0.44887 0.0
C339 C 0.8203 0.06797 0.44073 0.0
C340 C 0.80762 0.0745 0.42622 0.0
C341 C 0.76483 0.04287 0.41979 0.0
C342 C 0.73458 0.00472 0.42786 0.0
C343 C 0.74713 -0.002 0.44237 0.0
C344 C 0.7528 0.05277 0.52853 0.0
C345 C 0.70466 0.02543 0.52775 0.0
C346 C 0.78006 0.0482 0.51711 0.0
C347 C 0.75973 0.01582 0.50482 0.0
C348 C 0.71184 0.98736 0.50434 0.0
C349 C 0.68457 0.99215 0.51566 0.0
C350 C 0.78796 0.01419 0.49182 0.0
C351 C 0.77592 0.01885 0.47687 0.0
C352 C 0.82798 0.01126 0.49411 0.0
C353 C 0.84084 0.0033 0.50946 0.0
C354 C 0.80912 0.96637 0.51793 0.0
C355 C 0.82133 0.95916 0.53241 0.0
C356 C 0.86528 0.98849 0.53851 0.0
C357 C 0.89715 0.02504 0.53012 0.0
C358 C 0.88511 0.03243 0.51564 0.0
H359 H 0.87466 0.98285 0.54972 0.0
H360 H 0.75507 0.04799 0.40855 0.0
H361 H 0.94512 0.89908 0.74354 0.0
H362 H 0.89034 0.84249 0.76077 0.0
H363 H 0.92775 0.94697 0.79689 0.0
H364 H 0.98323 0.00367 0.77979 0.0
H365 H 0.91701 0.86943 0.80806 0.0
H366 H 0.83175 0.91144 0.77521 0.0
H367 H 0.80574 0.92352 0.75037 0.0
H368 H 0.74859 0.78191 0.73722 0.0
H369 H 0.77488 0.76912 0.7619 0.0
H370 H 0.72199 0.75701 0.8553 0.0
H371 H 0.77986 0.81089 0.8381 0.0
H372 H 0.74219 0.70296 0.80328 0.0
H373 H 0.68343 0.64901 0.82031 0.0
H374 H 0.75342 0.78075 0.79129 0.0
H375 H 0.83717 0.7386 0.8246 0.0
H376 H 0.86263 0.72688 0.84959 0.0
H377 H 0.92201 0.86916 0.86208 0.0
H378 H 0.8963 0.88162 0.83722 0.0
C379 C 0.942 0.90991 0.75521 0.0
C380 C 0.96817 0.95581 0.76031 0.0
C381 C 0.91057 0.8776 0.765 0.0
C382 C 0.90445 0.89071 0.78001 0.0
C383 C 0.93185 0.9362 0.78533 0.0
C384 C 0.96344 0.96854 0.77555 0.0
C385 C 0.8684 0.85732 0.78998 0.0
C386 C 0.88117 0.85041 0.80448 0.0
C387 C 0.82178 0.83187 0.78515 0.0
C388 C 0.8057 0.83943 0.77034 0.0
C389 C 0.81395 0.88295 0.76697 0.0
C390 C 0.79911 0.88991 0.75293 0.0
C391 C 0.77564 0.85353 0.74221 0.0
C392 C 0.76684 0.81007 0.74553 0.0
C393 C 0.78168 0.80294 0.75954 0.0
C394 C 0.72562 0.74488 0.8439 0.0
C395 C 0.69825 0.69879 0.83914 0.0
C396 C 0.75898 0.77558 0.83416 0.0
C397 C 0.76566 0.76073 0.81951 0.0
C398 C 0.73768 0.715 0.81458 0.0
C399 C 0.70438 0.68422 0.82434 0.0
C400 C 0.80202 0.79296 0.80937 0.0
C401 C 0.78929 0.79967 0.79485 0.0
C402 C 0.84862 0.81828 0.8142 0.0
C403 C 0.86443 0.81096 0.8291 0.0
C404 C 0.85535 0.76733 0.83272 0.0
C405 C 0.86988 0.76056 0.84685 0.0
C406 C 0.89382 0.79723 0.85743 0.0
C407 C 0.90341 0.84078 0.85388 0.0
C408 C 0.88891 0.84772 0.83976 0.0
H409 H 0.90504 0.79193 0.86837 0.0
H410 H 0.76417 0.85899 0.73135 0.0
H411 H 0.13605 0.98318 0.08812 0.0
H412 H 0.13457 0.92488 0.10393 0.0
H413 H 0.99035 0.83702 0.09328 0.0
H414 H 0.99142 0.89553 0.07767 0.0
H415 H 0.00617 0.8454 0.12351 0.0
H416 H 0.07128 0.8127 0.07879 0.0
H417 H 0.12602 0.83019 0.05749 0.0
H418 H 0.23745 0.87747 0.09005 0.0
H419 H 0.18345 0.86085 0.11156 0.0
H420 H 0.98193 0.65295 0.1597 0.0
H421 H 0.98603 0.70281 0.13963 0.0
H422 H 0.12688 0.79836 0.15249 0.0
H423 H 0.12286 0.74914 0.17284 0.0
H424 H 0.11227 0.78368 0.12047 0.0
H425 H 0.04838 0.82045 0.16489 0.0
H426 H 0.99432 0.80374 0.18637 0.0
H427 H 0.88115 0.74975 0.15423 0.0
H428 H 0.93452 0.76553 0.13255 0.0
C429 C 0.10421 0.95115 0.08895 0.0
C430 C 0.06378 0.94391 0.08175 0.0
C431 C 0.10346 0.9178 0.09793 0.0
C432 C 0.06239 0.87655 0.09971 0.0
C433 C 0.02238 0.86866 0.09206 0.0
C434 C 0.02306 0.90204 0.08313 0.0
C435 C 0.06026 0.84329 0.11055 0.0
C436 C 0.02878 0.83124 0.12265 0.0
C437 C 0.09077 0.82597 0.1097 0.0
C438 C 0.12334 0.83589 0.09679 0.0
C439 C 0.1075 0.82717 0.08141 0.0
C440 C 0.13839 0.83686 0.0693 0.0
C441 C 0.1852 0.85503 0.07241 0.0
C442 C 0.20119 0.86344 0.08765 0.0
C443 C 0.17045 0.85383 0.09981 0.0
C444 C 0.0137 0.6847 0.15834 0.0
C445 C 0.05194 0.69732 0.16795 0.0
C446 C 0.01606 0.71296 0.14681 0.0
C447 C 0.05665 0.7543 0.14469 0.0
C448 C 0.09532 0.76644 0.15394 0.0
C449 C 0.09295 0.73827 0.16553 0.0
C450 C 0.05801 0.78576 0.13327 0.0
C451 C 0.08944 0.79761 0.12117 0.0
C452 C 0.02754 0.80304 0.1341 0.0
C453 C 0.99539 0.79371 0.14711 0.0
C454 C 0.01192 0.80465 0.16241 0.0
C455 C 0.98142 0.79541 0.17462 0.0
C456 C 0.93432 0.77557 0.17167 0.0
C457 C 0.91764 0.76505 0.1565 0.0
C458 C 0.948 0.77415 0.14424 0.0
H459 H 0.91075 0.76846 0.18113 0.0
H460 H 0.20906 0.86251 0.06302 0.0
H461 H 0.16471 0.13707 0.4225 0.0
H462 H 0.22477 0.14578 0.44035 0.0
H463 H 0.15977 -0.00032 0.44191 0.0
H464 H 0.09937 0.99085 0.42445 0.0
H465 H 0.18152 0.03742 0.46989 0.0
H466 H 0.25822 0.06284 0.42112 0.0
H467 H 0.28707 0.09991 0.39648 0.0
H468 H 0.37047 0.22839 0.42089 0.0
H469 H 0.34161 0.19216 0.44568 0.0
H470 H 0.35666 0.0058 0.49952 0.0
H471 H 0.30351 0.00902 0.48145 0.0
H472 H 0.36674 0.1538 0.49085 0.0
H473 H 0.41916 0.15081 0.50942 0.0
H474 H 0.34817 0.12375 0.45844 0.0
H475 H 0.27309 0.09484 0.50748 0.0
H476 H 0.24519 0.05498 0.53169 0.0
H477 H 0.1588 0.92965 0.506 0.0
H478 H 0.18677 0.96864 0.48161 0.0
C479 C 0.16342 0.10689 0.42664 0.0
C480 C 0.12741 0.0633 0.42213 0.0
C481 C 0.19778 0.11189 0.43677 0.0
C482 C 0.19687 0.07335 0.44237 0.0
C483 C 0.16105 0.02987 0.43777 0.0
C484 C 0.12663 0.02488 0.42777 0.0
C485 C 0.23242 0.07788 0.45333 0.0
C486 C 0.21791 0.05597 0.4673 0.0
C487 C 0.27998 0.10305 0.45013 0.0
C488 C 0.29735 0.12489 0.43524 0.0
C489 C 0.2824 0.09907 0.42123 0.0
C490 C 0.29882 0.11992 0.40724 0.0
C491 C 0.33047 0.16651 0.40712 0.0
C492 C 0.34587 0.19232 0.421 0.0
C493 C 0.32953 0.17165 0.43502 0.0
C494 C 0.35911 0.03832 0.49787 0.0
C495 C 0.39186 0.07797 0.50606 0.0
C496 C 0.32896 0.04012 0.48745 0.0
C497 C 0.33116 0.08159 0.48495 0.0
C498 C 0.36473 0.12153 0.49264 0.0
C499 C 0.39469 0.11973 0.5032 0.0
C500 C 0.29698 0.08256 0.47475 0.0
C501 C 0.31175 0.10556 0.46101 0.0
C502 C 0.24958 0.05806 0.47807 0.0
C503 C 0.23234 0.03459 0.49272 0.0
C504 C 0.24843 0.0587 0.50699 0.0
C505 C 0.23256 0.03628 0.52075 0.0
C506 C 0.20032 0.98979 0.52038 0.0
C507 C 0.1838 0.96565 0.50626 0.0
C508 C 0.19963 0.98791 0.49247 0.0
H509 H 0.18807 0.97249 0.53105 0.0
H510 H 0.34315 0.18258 0.39627 0.0
H511 H 0.20413 0.17297 0.73715 0.0
H512 H 0.26653 0.24002 0.7504 0.0
H513 H 0.16802 0.25662 0.77813 0.0
H514 H 0.10498 0.1898 0.76455 0.0
H515 H 0.23915 0.33848 0.76974 0.0
H516 H 0.22141 0.20418 0.79228 0.0
H517 H 0.21513 0.12869 0.79202 0.0
H518 H 0.34974 0.1843 0.77253 0.0
H519 H 0.35657 0.26004 0.77248 0.0
H520 H 0.38304 0.46123 0.83441 0.0
H521 H 0.32421 0.41029 0.81569 0.0
H522 H 0.42593 0.39376 0.78992 0.0
H523 H 0.48512 0.4447 0.80876 0.0
H524 H 0.35446 0.31405 0.79614 0.0
H525 H 0.37404 0.45067 0.77548 0.0
H526 H 0.37946 0.52581 0.77629 0.0
H527 H 0.24129 0.46636 0.79294 0.0
H528 H 0.23524 0.39093 0.79243 0.0
C529 C 0.19568 0.19108 0.74598 0.0
C530 C 0.14977 0.17592 0.74997 0.0
C531 C 0.23138 0.22936 0.75355 0.0
C532 C 0.22192 0.25275 0.76543 0.0
C533 C 0.17601 0.23889 0.76901 0.0
C534 C 0.14011 0.2007 0.76131 0.0
C535 C 0.26009 0.28997 0.77465 0.0
C536 C 0.26417 0.33316 0.77565 0.0
C537 C 0.29317 0.2831 0.78209 0.0
C538 C 0.28931 0.23767 0.78224 0.0
C539 C 0.24954 0.20024 0.78784 0.0
C540 C 0.2459 0.15742 0.78776 0.0
C541 C 0.28197 0.15168 0.78223 0.0
C542 C 0.32181 0.18879 0.7768 0.0
C543 C 0.3256 0.23167 0.77683 0.0
C544 C 0.39318 0.44784 0.82451 0.0
C545 C 0.43872 0.45704 0.82301 0.0
C546 C 0.35947 0.41867 0.81381 0.0
C547 C 0.37071 0.39848 0.80133 0.0
C548 C 0.41653 0.40901 0.79947 0.0
C549 C 0.45027 0.43802 0.81023 0.0
C550 C 0.33393 0.36291 0.79119 0.0
C551 C 0.32986 0.31974 0.79011 0.0
C552 C 0.30086 0.36987 0.78377 0.0
C553 C 0.30433 0.41518 0.78403 0.0
C554 C 0.34492 0.45366 0.77942 0.0
C555 C 0.34809 0.4963 0.77981 0.0
C556 C 0.31078 0.50087 0.78469 0.0
C557 C 0.27018 0.46278 0.78917 0.0
C558 C 0.26684 0.42006 0.78881 0.0
H559 H 0.31331 0.53391 0.78499 0.0
H560 H 0.27908 0.1185 0.78217 0.0
H561 H 0.00392 0.11238 0.6859 0.0
H562 H 0.94776 0.11546 0.66915 0.0
H563 H 0.83974 0.03603 0.7008 0.0
H564 H 0.89553 0.03166 0.71733 0.0
H565 H 0.81384 0.00342 0.67254 0.0
H566 H 0.88292 0.15256 0.69739 0.0
H567 H 0.94684 0.22792 0.70599 0.0
H568 H 0.98585 0.26008 0.65896 0.0
H569 H 0.92251 0.18466 0.65009 0.0
H570 H 0.64215 0.03137 0.63651 0.0
H571 H 0.69729 0.03387 0.65521 0.0
H572 H 0.80851 0.11211 0.62443 0.0
H573 H 0.75356 0.11049 0.60586 0.0
H574 H 0.83156 0.14606 0.65298 0.0
H575 H 0.76446 0.99618 0.62824 0.0
H576 H 0.70082 0.92074 0.61955 0.0
H577 H 0.65848 0.89001 0.66642 0.0
H578 H 0.72153 0.96553 0.67536 0.0
C579 C 0.96825 0.09595 0.68934 0.0
C580 C 0.95403 0.07179 0.7029 0.0
C581 C 0.93623 0.09789 0.6798 0.0
C582 C 0.88959 0.07639 0.6838 0.0
C583 C 0.87552 0.05285 0.69748 0.0
C584 C 0.90743 0.05049 0.70693 0.0
C585 C 0.85511 0.07661 0.6734 0.0
C586 C 0.81734 0.03468 0.66846 0.0
C587 C 0.86026 0.11731 0.66778 0.0
C588 C 0.89819 0.1628 0.67309 0.0
C589 C 0.90532 0.17558 0.68889 0.0
C590 C 0.94141 0.21833 0.69381 0.0
C591 C 0.97045 0.24873 0.68303 0.0
C592 C 0.96336 0.23649 0.6673 0.0
C593 C 0.92733 0.19377 0.66232 0.0
C594 C 0.67837 0.04893 0.63374 0.0
C595 C 0.69366 0.0706 0.61975 0.0
C596 C 0.70981 0.05032 0.64441 0.0
C597 C 0.75697 0.07266 0.64112 0.0
C598 C 0.7723 0.09474 0.62721 0.0
C599 C 0.74094 0.09379 0.61662 0.0
C600 C 0.79042 0.07289 0.65212 0.0
C601 C 0.82799 0.11485 0.65714 0.0
C602 C 0.78513 0.03223 0.65781 0.0
C603 C 0.74744 0.98667 0.65245 0.0
C604 C 0.74139 0.97345 0.63668 0.0
C605 C 0.70545 0.93066 0.63171 0.0
C606 C 0.67556 0.90064 0.64242 0.0
C607 C 0.68163 0.91331 0.65813 0.0
C608 C 0.71748 0.95608 0.66316 0.0
H609 H 0.64775 0.86754 0.63855 0.0
H610 H -0.00162 0.2818 0.68687 0.0
H611 H 0.90856 0.96472 0.03811 0.0
H612 H 0.85648 0.91941 0.01676 0.0
H613 H 0.97191 0.96354 0.98622 0.0
H614 H 0.02426 0.00889 0.00753 0.0
H615 H 0.89467 0.96077 0.97261 0.0
H616 H 0.93287 0.86553 0.00052 0.0
H617 H 0.9418 0.83119 0.02365 0.0
H618 H 0.79713 0.76967 0.03222 0.0
H619 H 0.78745 0.8043 0.00926 0.0
H620 H 0.7818 0.77755 0.91526 0.0
H621 H 0.83578 0.83429 0.93434 0.0
H622 H 0.72704 0.78988 0.96766 0.0
H623 H 0.67348 0.73287 0.94887 0.0
H624 H 0.80356 0.79425 0.97923 0.0
H625 H 0.76532 0.88945 0.9511 0.0
H626 H 0.75676 0.92382 0.92792 0.0
H627 H 0.90145 0.98474 0.91946 0.0
H628 H 0.91076 0.95016 0.9425 0.0
C629 C 0.92277 0.96522 0.0268 0.0
C630 C 0.97043 0.98995 0.02448 0.0
C631 C 0.89304 0.93932 0.01464 0.0
C632 C 0.91052 0.93786 -1e-05 0.0
C633 C 0.95786 0.96426 -0.00254 0.0
C634 C 0.98766 0.98993 0.00965 0.0
C635 C 0.87967 0.90644 0.98761 0.0
C636 C 0.87508 0.9243 0.97394 0.0
C637 C 0.85389 0.85899 0.98949 0.0
C638 C 0.85953 0.83793 0.00327 0.0
C639 C 0.90302 0.84502 0.00742 0.0
C640 C 0.90821 0.82545 0.02048 0.0
C641 C 0.87008 0.79838 0.02943 0.0
C642 C 0.82665 0.79073 0.0253 0.0
C643 C 0.82129 0.8103 0.01226 0.0
C644 C 0.76949 0.78021 0.92663 0.0
C645 C 0.72341 0.75113 0.93054 0.0
C646 C 0.8002 0.81271 0.93747 0.0
C647 C 0.78524 0.81639 0.95237 0.0
C648 C 0.73918 0.78767 0.95621 0.0
C649 C 0.70854 0.75543 0.94541 0.0
C650 C 0.81785 0.84852 0.96427 0.0
C651 C 0.82302 0.83071 0.97786 0.0
C652 C 0.84413 0.89591 0.96227 0.0
C653 C 0.83865 0.9168 0.94843 0.0
C654 C 0.79524 0.90983 0.94422 0.0
C655 C 0.79027 0.92942 0.93112 0.0
C656 C 0.82851 0.95634 0.9222 0.0
C657 C 0.87184 0.96382 0.92638 0.0
C658 C 0.877 0.94426 0.93946 0.0
H659 H 0.82459 0.97148 0.91206 0.0
H660 H 0.87416 0.78323 0.03954 0.0
H661 H 0.08281 0.9623 0.36625 0.0
H662 H 0.07893 0.89556 0.35317 0.0
H663 H 0.93129 0.83236 0.34944 0.0
H664 H 0.93493 0.8987 0.36333 0.0
H665 H 0.95175 0.77168 0.35685 0.0
H666 H 0.00386 0.87988 0.31791 0.0
H667 H 0.05157 0.95361 0.30607 0.0
H668 H 0.17146 0.94125 0.31174 0.0
H669 H 0.12457 0.86772 0.32381 0.0
H670 H 0.94527 0.62146 0.293 0.0
H671 H 0.93788 0.67578 0.3104 0.0
H672 H 0.07431 0.72398 0.32834 0.0
H673 H 0.08138 0.66811 0.31152 0.0
H674 H 0.05543 0.78968 0.31321 0.0
H675 H 0.99704 0.67731 0.35206 0.0
H676 H 0.94436 0.60192 0.36207 0.0
H677 H 0.82931 0.62037 0.35369 0.0
H678 H 0.88126 0.69564 0.34342 0.0
C679 C 0.04952 0.93435 0.36254 0.0
C680 C 0.00918 0.93579 0.36565 0.0
C681 C 0.04734 0.89623 0.35501 0.0
C682 C 0.0049 0.85925 0.35002 0.0
C683 C 0.96444 0.86055 0.35314 0.0
C684 C 0.96654 0.89849 0.36097 0.0
C685 C 0.00318 0.8192 0.34175 0.0
C686 C 0.97394 0.7756 0.34716 0.0
C687 C 0.03235 0.82421 0.32917 0.0
C688 C 0.06073 0.86845 0.32189 0.0
C689 C 0.04045 0.89304 0.31674 0.0
C690 C 0.06735 0.93477 0.30997 0.0
C691 C 0.11453 0.95215 0.30819 0.0
C692 C 0.13491 0.92777 0.31314 0.0
C693 C 0.10818 0.88603 0.31993 0.0
C694 C 0.97306 0.64218 0.30107 0.0
C695 C 0.01417 0.64063 0.30074 0.0
C696 C 0.96881 0.67345 0.31094 0.0
C697 C 0.00565 0.70388 0.32053 0.0
C698 C 0.0456 0.70071 0.32094 0.0
C699 C 0.04964 0.66898 0.31126 0.0
C700 C 0.00484 0.74271 0.32853 0.0
C701 C 0.03336 0.786 0.32293 0.0
C702 C 0.97426 0.73716 0.34063 0.0
C703 C 0.94301 0.69192 0.34681 0.0
C704 C 0.96047 0.66511 0.3522 0.0
C705 C 0.93074 0.62243 0.35796 0.0
C706 C 0.8835 0.6063 0.35847 0.0
C707 C 0.8659 0.63288 0.35327 0.0
C708 C 0.89548 0.67557 0.34749 0.0
H709 H 0.86055 0.57326 0.36294 0.0
H710 H 0.1353 0.98447 0.30295 0.0
H711 H 0.11497 0.04392 0.6812 0.0
H712 H 0.17586 0.03998 0.66697 0.0
H713 H 0.19835 0.97562 0.70493 0.0
H714 H 0.13823 0.98097 0.71949 0.0
H715 H 0.27625 0.04289 0.69666 0.0
H716 H 0.15325 0.91762 0.66934 0.0
H717 H 0.07968 0.87488 0.65506 0.0
H718 H 0.13348 0.97061 0.61925 0.0
H719 H 0.20718 0.01433 0.63341 0.0
H720 H 0.44359 0.01991 0.64925 0.0
H721 H 0.37694 0.00333 0.66544 0.0
H722 H 0.34357 0.08291 0.6366 0.0
H723 H 0.40955 0.09934 0.62044 0.0
H724 H 0.26962 0.99595 0.64138 0.0
H725 H 0.38919 0.12504 0.67094 0.0
H726 H 0.46252 0.16651 0.68543 0.0
H727 H 0.41379 0.05923 0.71721 0.0
H728 H 0.34035 0.01681 0.70277 0.0
C729 C 0.13219 0.02804 0.6864 0.0
C730 C 0.12198 0.01287 0.70146 0.0
C731 C 0.16692 0.02561 0.67821 0.0
C732 C 0.1915 0.00714 0.68482 0.0
C733 C 0.17986 0.99002 0.69961 0.0
C734 C 0.1454 0.9929 0.70788 0.0
C735 C 0.23199 0.00981 0.67682 0.0
C736 C 0.27453 0.0316 0.68467 0.0
C737 C 0.22998 0.9957 0.66111 0.0
C738 C 0.18571 0.96942 0.6525 0.0
C739 C 0.14931 0.92975 0.65847 0.0
C740 C 0.10758 0.90532 0.65039 0.0
C741 C 0.10189 0.92006 0.63627 0.0
C742 C 0.13794 0.95923 0.63019 0.0
C743 C 0.17973 0.98382 0.63823 0.0
C744 C 0.42234 0.03434 0.64655 0.0
C745 C 0.43196 0.06129 0.63372 0.0
C746 C 0.3844 0.02487 0.65577 0.0
C747 C 0.35544 0.04189 0.65216 0.0
C748 C 0.36555 0.06948 0.63954 0.0
C749 C 0.40357 0.07928 0.63044 0.0
C750 C 0.31356 0.02993 0.66114 0.0
C751 C 0.27091 0.00636 0.65345 0.0
C752 C 0.31539 0.04201 0.67701 0.0
C753 C 0.35953 0.0675 0.68567 0.0
C754 C 0.39428 0.11009 0.68093 0.0
C755 C 0.43583 0.13382 0.68915 0.0
C756 C 0.44288 0.11545 0.7022 0.0
C757 C 0.40833 0.07337 0.70708 0.0
C758 C 0.36673 0.04949 0.69889 0.0
H759 H 0.47505 0.13388 0.70856 0.0
H760 H 0.06955 0.90109 0.63003 0.0
H761 H 0.15777 0.20673 0.047 0.0
H762 H 0.21863 0.26383 0.03145 0.0
H763 H 0.26734 0.17047 0.02 0.0
H764 H 0.20691 0.11333 0.03576 0.0
H765 H 0.33852 0.2586 0.02434 0.0
H766 H 0.1964 0.17763 0.99579 0.0
H767 H 0.11357 0.14693 0.9912 0.0
H768 H 0.1341 0.28234 0.99391 0.0
H769 H 0.21701 0.31382 -0.00124 0.0
H770 H 0.44484 0.34863 0.9524 0.0
H771 H 0.39889 0.30116 0.97331 0.0
H772 H 0.35207 0.39595 0.98487 0.0
H773 H 0.3984 0.44393 0.96419 0.0
H774 H 0.28166 0.30841 0.98114 0.0
H775 H 0.4263 0.38924 0.00821 0.0
H776 H 0.50901 0.41807 0.01226 0.0
H777 H 0.48409 0.28113 0.0114 0.0
H778 H 0.40126 0.25146 0.00712 0.0
C779 C 0.18188 0.19861 0.04137 0.0
C780 C 0.17733 0.15545 0.04241 0.0
C781 C 0.21655 0.23122 0.03248 0.0
C782 C 0.2469 0.22099 0.02439 0.0
C783 C 0.24413 0.17889 0.02614 0.0
C784 C 0.20952 0.14628 0.03508 0.0
C785 C 0.27888 0.2527 0.01313 0.0
C786 C 0.32618 0.26926 0.0148 0.0
C787 C 0.26261 0.26684 0.00082 0.0
C788 C 0.21282 0.24804 -0.0022 0.0
C789 C 0.18319 0.20084 0.99553 0.0
C790 C 0.13624 0.1833 0.99286 0.0
C791 C 0.11856 0.21266 0.9923 0.0
C792 C 0.14783 0.25964 0.99437 0.0
C793 C 0.19481 0.27735 0.99707 0.0
C794 C 0.42538 0.35975 0.95957 0.0
C795 C 0.42494 0.39982 0.95659 0.0
C796 C 0.39917 0.33261 0.97149 0.0
C797 C 0.37229 0.34521 0.98064 0.0
C798 C 0.37253 0.38563 0.97789 0.0
C799 C 0.39876 0.41281 0.96602 0.0
C800 C 0.34146 0.3148 0.99239 0.0
C801 C 0.29418 0.29815 0.99074 0.0
C802 C 0.35782 0.30039 0.0046 0.0
C803 C 0.40761 0.31814 0.00719 0.0
C804 C 0.43849 0.36527 0.00875 0.0
C805 C 0.48539 0.38177 0.01111 0.0
C806 C 0.50181 0.35146 0.01204 0.0
C807 C 0.47133 0.30457 0.01065 0.0
C808 C 0.4244 0.2879 0.00827 0.0
H809 H 0.53813 0.36429 0.01388 0.0
H810 H 0.0822 0.19902 0.99023 0.0
H811 H 0.09706 0.1673 0.35738 0.0
H812 H 0.09901 0.2235 0.34034 0.0
H813 H 0.95669 0.17815 0.35028 0.0
H814 H 0.95416 0.12087 0.36688 0.0
H815 H 0.97055 0.19019 0.32089 0.0
H816 H 0.04758 0.27872 0.36693 0.0
H817 H 0.10541 0.30776 0.38793 0.0
H818 H 0.21383 0.36497 0.35489 0.0
H819 H 0.15664 0.33575 0.33368 0.0
H820 H 0.96254 0.37833 0.29261 0.0
H821 H 0.96248 0.32355 0.30989 0.0
H822 H 0.1001 0.36083 0.29589 0.0
H823 H 0.10027 0.41532 0.27845 0.0
H824 H 0.08934 0.35354 0.32717 0.0
H825 H 0.01091 0.2649 0.2812 0.0
H826 H 0.95224 0.23679 0.26049 0.0
H827 H 0.84516 0.18058 0.29403 0.0
H828 H 0.90322 0.20895 0.31496 0.0
C829 C 0.06622 0.16936 0.35591 0.0
C830 C 0.0255 0.13986 0.36347 0.0
C831 C 0.06743 0.20163 0.34624 0.0
C832 C 0.02819 0.20555 0.34422 0.0
C833 C 0.98739 0.17579 0.35168 0.0
C834 C 0.98601 0.14315 0.36118 0.0
C835 C 0.02937 0.24027 0.3342 0.0
C836 C 0.99616 0.22599 0.32242 0.0
C837 C 0.06339 0.28688 0.33596 0.0
C838 C 0.09783 0.30467 0.34871 0.0
C839 C 0.08376 0.29722 0.36414 0.0
C840 C 0.11642 0.31375 0.37608 0.0
C841 C 0.16327 0.33809 0.37274 0.0
C842 C 0.17754 0.34606 0.35746 0.0
C843 C 0.14502 0.32956 0.34547 0.0
C844 C 0.99269 0.37469 0.29315 0.0
C845 C 0.03133 0.401 0.28411 0.0
C846 C 0.99265 0.34349 0.30305 0.0
C847 C 0.03111 0.33786 0.30402 0.0
C848 C 0.07011 0.36476 0.2953 0.0
C849 C 0.07018 0.39596 0.28539 0.0
C850 C 0.03042 0.30338 0.31398 0.0
C851 C 0.06374 0.31772 0.32571 0.0
C852 C 0.99636 0.25687 0.31224 0.0
C853 C 0.96141 0.23941 0.29965 0.0
C854 C 0.97485 0.24683 0.28416 0.0
C855 C 0.94171 0.23081 0.27239 0.0
C856 C 0.895 0.20701 0.27594 0.0
C857 C 0.88135 0.19907 0.29129 0.0
C858 C 0.91436 0.21507 0.30311 0.0
H859 H 0.86939 0.19464 0.26681 0.0
H860 H 0.1885 0.35086 0.382 0.0
loop_
_geom_bond_atom_site_label_1
_geom_bond_atom_site_label_2
_geom_bond_distance
_geom_bond_site_symmetry_2
_ccdc_geom_bond_type
In0 O1 2.294 . S
In0 O2 2.326 . S
In0 O6 2.266 1_455 S
In0 O7 2.326 1_545 S
In0 O8 2.266 . S
In0 O9 2.326 1_545 S
In0 O11 2.294 . S
In0 O12 2.326 . S
O1 In0 2.294 . S
O1 C10 1.240 . S
O2 In0 2.326 . S
O2 C10 1.252 . S
C3 O6 1.252 1_465 S
C3 O7 1.260 . S
C4 O11 1.240 . S
C4 O12 1.252 . S
C5 O8 1.252 1_565 S
C5 O9 1.260 . S
O6 In0 2.266 1_655 S
O6 C3 1.252 1_645 S
O7 In0 2.326 1_565 S
O7 C3 1.260 . S
O8 In0 2.266 . S
O8 C5 1.252 1_545 S
O9 In0 2.326 1_565 S
O9 C5 1.260 . S
C10 O1 1.240 . S
C10 O2 1.252 . S
O11 In0 2.294 . S
O11 C4 1.240 . S
O12 In0 2.326 . S
O12 C4 1.252 . S
In13 O14 2.294 . S
In13 O15 2.326 1_455 S
In13 O19 2.266 . S
In13 O20 2.326 1_545 S
In13 O21 2.266 1_445 S
In13 O22 2.326 . S
In13 O24 2.294 1_455 S
In13 O25 2.326 . S
O14 In13 2.294 . S
O14 C23 1.240 . S
O15 In13 2.326 1_655 S
O15 C23 1.252 1_655 S
C16 O19 1.252 . S
C16 O20 1.260 1_545 S
C17 O24 1.240 . S
C17 O25 1.252 1_655 S
C18 O21 1.252 1_455 S
C18 O22 1.260 1_565 S
O19 In13 2.266 . S
O19 C16 1.252 . S
O20 In13 2.326 1_565 S
O20 C16 1.260 1_565 S
O21 In13 2.266 1_665 S
O21 C18 1.252 1_655 S
O22 In13 2.326 . S
O22 C18 1.260 1_545 S
C23 O14 1.240 . S
C23 O15 1.252 1_455 S
O24 In13 2.294 1_655 S
O24 C17 1.240 . S
O25 In13 2.326 . S
O25 C17 1.252 1_455 S
In26 O27 2.294 1_545 S
In26 O28 2.326 . S
In26 O32 2.266 . S
In26 O33 2.326 . S
In26 O34 2.266 . S
In26 O35 2.326 . S
In26 O37 2.294 . S
In26 O38 2.326 . S
O27 In26 2.294 1_565 S
O27 C36 1.240 1_565 S
O28 In26 2.326 . S
O28 C36 1.252 . S
C29 O32 1.252 . S
C29 O33 1.260 . S
C30 O37 1.240 . S
C30 O38 1.252 . S
C31 O34 1.252 . S
C31 O35 1.260 . S
O32 In26 2.266 . S
O32 C29 1.252 . S
O33 In26 2.326 . S
O33 C29 1.260 . S
O34 In26 2.266 . S
O34 C31 1.252 . S
O35 In26 2.326 . S
O35 C31 1.260 . S
C36 O27 1.240 1_545 S
C36 O28 1.252 . S
O37 In26 2.294 . S
O37 C30 1.240 . S
O38 In26 2.326 . S
O38 C30 1.252 . S
H39 O65 0.856 . S
H40 O68 0.854 . S
H41 C76 0.930 . S
H42 C77 0.930 . S
H43 C79 0.930 . S
H44 C80 0.930 . S
H45 C82 0.931 1_655 S
H46 C83 0.930 1_655 S
H47 C85 0.930 . S
H48 C86 0.929 . S
H49 C88 0.930 1_655 S
H50 C89 0.931 1_655 S
H51 C91 0.930 . S
H52 C92 0.929 . S
H53 C94 0.931 1_655 S
H54 C95 0.930 1_655 S
H55 C97 0.930 . S
H56 C98 0.932 . S
H57 C100 0.930 . S
H58 C101 0.929 . S
H59 C103 0.931 . S
H60 C104 0.930 . S
H61 C106 0.929 1_655 S
H62 C107 0.931 1_655 S
H63 C109 0.930 . S
H64 C110 0.929 . S
O65 H39 0.856 . S
O65 C111 1.300 . S
O66 C111 1.209 . S
O67 C112 1.199 . S
O68 H40 0.854 . S
O68 C112 1.297 . S
C69 C70 1.404 . S
C69 C74 1.397 . S
C69 C75 1.492 . S
C70 C69 1.404 . S
C70 C71 1.396 . S
C70 C81 1.492 . S
C71 C70 1.396 . S
C71 C72 1.397 . S
C71 C87 1.509 . S
C72 C71 1.397 . S
C72 C73 1.412 . S
C72 C93 1.485 . S
C73 C72 1.412 . S
C73 C74 1.388 . S
C73 C99 1.490 . S
C74 C69 1.397 . S
C74 C73 1.388 . S
C74 C105 1.519 . S
C75 C69 1.492 . S
C75 C76 1.363 1_455 S
C75 C80 1.390 . S
C76 H41 0.930 . S
C76 C75 1.363 1_655 S
C76 C77 1.372 . S
C77 H42 0.930 . S
C77 C76 1.372 . S
C77 C78 1.383 1_655 S
C78 C77 1.383 1_455 S
C78 C79 1.395 . S
C79 H43 0.930 . S
C79 C78 1.395 . S
C79 C80 1.362 . S
C80 H44 0.930 . S
C80 C75 1.390 . S
C80 C79 1.362 . S
C81 C70 1.492 . S
C81 C82 1.377 . S
C81 C86 1.397 . S
C82 H45 0.931 1_455 S
C82 C81 1.377 . S
C82 C83 1.376 . S
C83 H46 0.930 1_455 S
C83 C82 1.376 . S
C83 C84 1.376 . S
C84 C83 1.376 . S
C84 C85 1.378 . S
C84 C111 1.486 . S
C85 H47 0.930 . S
C85 C84 1.378 . S
C85 C86 1.376 . S
C86 H48 0.929 . S
C86 C81 1.397 . S
C86 C85 1.376 . S
C87 C71 1.509 . S
C87 C88 1.391 . S
C87 C92 1.386 . S
C88 H49 0.930 1_455 S
C88 C87 1.391 . S
C88 C89 1.375 . S
C89 H50 0.931 1_455 S
C89 C88 1.375 . S
C89 C90 1.375 . S
C90 C89 1.375 . S
C90 C91 1.361 . S
C91 H51 0.930 . S
C91 C90 1.361 . S
C91 C92 1.399 . S
C92 H52 0.929 . S
C92 C87 1.386 . S
C92 C91 1.399 . S
C93 C72 1.485 . S
C93 C94 1.394 . S
C93 C98 1.360 . S
C94 H53 0.931 1_455 S
C94 C93 1.394 . S
C94 C95 1.372 . S
C95 H54 0.930 1_455 S
C95 C94 1.372 . S
C95 C96 1.397 . S
C96 C95 1.397 . S
C96 C97 1.390 . S
C96 C112 1.476 . S
C97 H55 0.930 . S
C97 C96 1.390 . S
C97 C98 1.366 . S
C98 H56 0.932 . S
C98 C93 1.360 . S
C98 C97 1.366 . S
C99 C73 1.490 . S
C99 C100 1.380 1_455 S
C99 C104 1.386 . S
C100 H57 0.930 . S
C100 C99 1.380 1_655 S
C100 C101 1.381 . S
C101 H58 0.929 . S
C101 C100 1.381 . S
C101 C102 1.371 1_655 S
C102 C101 1.371 1_455 S
C102 C103 1.380 . S
C103 H59 0.931 . S
C103 C102 1.380 . S
C103 C104 1.387 . S
C104 H60 0.930 . S
C104 C99 1.386 . S
C104 C103 1.387 . S
C105 C74 1.519 . S
C105 C106 1.377 . S
C105 C110 1.361 . S
C106 H61 0.929 1_455 S
C106 C105 1.377 . S
C106 C107 1.386 . S
C107 H62 0.931 1_455 S
C107 C106 1.386 . S
C107 C108 1.363 . S
C108 C107 1.363 . S
C108 C109 1.385 . S
C109 H63 0.930 . S
C109 C108 1.385 . S
C109 C110 1.396 . S
C110 H64 0.929 . S
C110 C105 1.361 . S
C110 C109 1.396 . S
C111 O65 1.300 . S
C111 O66 1.209 . S
C111 C84 1.486 . S
C112 O67 1.199 . S
C112 O68 1.297 . S
C112 C96 1.476 . S
H113 O139 0.856 . S
H114 O142 0.854 . S
H115 C150 0.930 1_565 S
H116 C151 0.930 1_565 S
H117 C153 0.930 . S
H118 C154 0.930 . S
H119 C156 0.931 . S
H120 C157 0.930 . S
H121 C159 0.930 . S
H122 C160 0.929 . S
H123 C162 0.930 . S
H124 C163 0.931 . S
H125 C165 0.930 . S
H126 C166 0.929 . S
H127 C168 0.931 . S
H128 C169 0.930 . S
H129 C171 0.930 . S
H130 C172 0.932 . S
H131 C174 0.930 1_565 S
H132 C175 0.929 1_565 S
H133 C177 0.931 . S
H134 C178 0.930 . S
H135 C180 0.929 1_565 S
H136 C181 0.931 . S
H137 C183 0.930 . S
H138 C184 0.929 . S
O139 H113 0.856 . S
O139 C185 1.300 . S
O140 C185 1.209 . S
O141 C186 1.199 . S
O142 H114 0.854 . S
O142 C186 1.297 . S
C143 C144 1.404 . S
C143 C148 1.397 . S
C143 C149 1.492 . S
C144 C143 1.404 . S
C144 C145 1.396 . S
C144 C155 1.492 . S
C145 C144 1.396 . S
C145 C146 1.397 . S
C145 C161 1.509 . S
C146 C145 1.397 . S
C146 C147 1.412 . S
C146 C167 1.485 . S
C147 C146 1.412 . S
C147 C148 1.388 . S
C147 C173 1.490 . S
C148 C143 1.397 . S
C148 C147 1.388 . S
C148 C179 1.519 . S
C149 C143 1.492 . S
C149 C150 1.363 . S
C149 C154 1.390 . S
C150 H115 0.930 1_545 S
C150 C149 1.363 . S
C150 C151 1.372 . S
C151 H116 0.930 1_545 S
C151 C150 1.372 . S
C151 C152 1.383 . S
C152 C151 1.383 . S
C152 C153 1.395 . S
C153 H117 0.930 . S
C153 C152 1.395 . S
C153 C154 1.362 . S
C154 H118 0.930 . S
C154 C149 1.390 . S
C154 C153 1.362 . S
C155 C144 1.492 . S
C155 C156 1.377 . S
C155 C160 1.397 . S
C156 H119 0.931 . S
C156 C155 1.377 . S
C156 C157 1.376 . S
C157 H120 0.930 . S
C157 C156 1.376 . S
C157 C158 1.376 . S
C158 C157 1.376 . S
C158 C159 1.378 . S
C158 C185 1.486 . S
C159 H121 0.930 . S
C159 C158 1.378 . S
C159 C160 1.376 . S
C160 H122 0.929 . S
C160 C155 1.397 . S
C160 C159 1.376 . S
C161 C145 1.509 . S
C161 C162 1.391 . S
C161 C166 1.386 . S
C162 H123 0.930 . S
C162 C161 1.391 . S
C162 C163 1.375 . S
C163 H124 0.931 . S
C163 C162 1.375 . S
C163 C164 1.375 . S
C164 C163 1.375 . S
C164 C165 1.361 . S
C165 H125 0.930 . S
C165 C164 1.361 . S
C165 C166 1.399 . S
C166 H126 0.929 . S
C166 C161 1.386 . S
C166 C165 1.399 . S
C167 C146 1.485 . S
C167 C168 1.394 . S
C167 C172 1.360 . S
C168 H127 0.931 . S
C168 C167 1.394 . S
C168 C169 1.372 . S
C169 H128 0.930 . S
C169 C168 1.372 . S
C169 C170 1.397 . S
C170 C169 1.397 . S
C170 C171 1.390 . S
C170 C186 1.476 . S
C171 H129 0.930 . S
C171 C170 1.390 . S
C171 C172 1.366 . S
C172 H130 0.932 . S
C172 C167 1.360 . S
C172 C171 1.366 . S
C173 C147 1.490 . S
C173 C174 1.380 . S
C173 C178 1.386 . S
C174 H131 0.930 1_545 S
C174 C173 1.380 . S
C174 C175 1.381 . S
C175 H132 0.929 1_545 S
C175 C174 1.381 . S
C175 C176 1.371 . S
C176 C175 1.371 . S
C176 C177 1.380 . S
C177 H133 0.931 . S
C177 C176 1.380 . S
C177 C178 1.387 . S
C178 H134 0.930 . S
C178 C173 1.386 . S
C178 C177 1.387 . S
C179 C148 1.519 . S
C179 C180 1.377 . S
C179 C184 1.361 . S
C180 H135 0.929 1_545 S
C180 C179 1.377 . S
C180 C181 1.386 . S
C181 H136 0.931 . S
C181 C180 1.386 . S
C181 C182 1.363 . S
C182 C181 1.363 . S
C182 C183 1.385 . S
C183 H137 0.930 . S
C183 C182 1.385 . S
C183 C184 1.396 . S
C184 H138 0.929 . S
C184 C179 1.361 . S
C184 C183 1.396 . S
C185 O139 1.300 . S
C185 O140 1.209 . S
C185 C158 1.486 . S
C186 O141 1.199 . S
C186 O142 1.297 . S
C186 C170 1.476 . S
H187 O213 0.903 . S
H188 O216 0.854 . S
H189 C224 0.930 . S
H190 C225 0.930 . S
H191 C227 0.930 . S
H192 C228 0.930 . S
H193 C230 0.931 . S
H194 C231 0.930 . S
H195 C233 0.930 . S
H196 C234 0.929 . S
H197 C236 0.930 . S
H198 C237 0.931 . S
H199 C239 0.930 . S
H200 C240 0.929 . S
H201 C242 0.931 . S
H202 C243 0.930 . S
H203 C245 0.930 . S
H204 C246 0.932 . S
H205 C248 0.930 . S
H206 C249 0.929 . S
H207 C251 0.931 . S
H208 C252 0.930 . S
H209 C254 0.929 . S
H210 C255 0.931 . S
H211 C257 0.930 . S
H212 C258 0.929 . S
O213 H187 0.903 . S
O213 C259 1.270 1_554 S
O214 C259 1.209 . S
O215 C260 1.199 . S
O216 H188 0.854 . S
O216 C260 1.297 . S
C217 C218 1.404 . S
C217 C222 1.397 . S
C217 C223 1.492 . S
C218 C217 1.404 . S
C218 C219 1.396 . S
C218 C229 1.492 . S
C219 C218 1.396 . S
C219 C220 1.397 . S
C219 C235 1.509 . S
C220 C219 1.397 . S
C220 C221 1.412 . S
C220 C241 1.485 . S
C221 C220 1.412 . S
C221 C222 1.388 . S
C221 C247 1.490 . S
C222 C217 1.397 . S
C222 C221 1.388 . S
C222 C253 1.519 . S
C223 C217 1.492 . S
C223 C224 1.363 . S
C223 C228 1.390 . S
C224 H189 0.930 . S
C224 C223 1.363 . S
C224 C225 1.372 . S
C225 H190 0.930 . S
C225 C224 1.372 . S
C225 C226 1.383 . S
C226 C225 1.383 . S
C226 C227 1.395 . S
C227 H191 0.930 . S
C227 C226 1.395 . S
C227 C228 1.362 . S
C228 H192 0.930 . S
C228 C223 1.390 . S
C228 C227 1.362 . S
C229 C218 1.492 . S
C229 C230 1.377 . S
C229 C234 1.397 . S
C230 H193 0.931 . S
C230 C229 1.377 . S
C230 C231 1.376 . S
C231 H194 0.930 . S
C231 C230 1.376 . S
C231 C232 1.376 . S
C232 C231 1.376 . S
C232 C233 1.378 . S
C232 C259 1.486 . S
C233 H195 0.930 . S
C233 C232 1.378 . S
C233 C234 1.376 . S
C234 H196 0.929 . S
C234 C229 1.397 . S
C234 C233 1.376 . S
C235 C219 1.509 . S
C235 C236 1.391 . S
C235 C240 1.386 . S
C236 H197 0.930 . S
C236 C235 1.391 . S
C236 C237 1.375 . S
C237 H198 0.931 . S
C237 C236 1.375 . S
C237 C238 1.375 . S
C238 C237 1.375 . S
C238 C239 1.361 . S
C239 H199 0.930 . S
C239 C238 1.361 . S
C239 C240 1.399 . S
C240 H200 0.929 . S
C240 C235 1.386 . S
C240 C239 1.399 . S
C241 C220 1.485 . S
C241 C242 1.394 . S
C241 C246 1.360 . S
C242 H201 0.931 . S
C242 C241 1.394 . S
C242 C243 1.372 . S
C243 H202 0.930 . S
C243 C242 1.372 . S
C243 C244 1.397 . S
C244 C243 1.397 . S
C244 C245 1.390 . S
C244 C260 1.476 . S
C245 H203 0.930 . S
C245 C244 1.390 . S
C245 C246 1.366 . S
C246 H204 0.932 . S
C246 C241 1.360 . S
C246 C245 1.366 . S
C247 C221 1.490 . S
C247 C248 1.380 . S
C247 C252 1.386 . S
C248 H205 0.930 . S
C248 C247 1.380 . S
C248 C249 1.381 . S
C249 H206 0.929 . S
C249 C248 1.381 . S
C249 C250 1.371 . S
C250 C249 1.371 . S
C250 C251 1.380 . S
C251 H207 0.931 . S
C251 C250 1.380 . S
C251 C252 1.387 . S
C252 H208 0.930 . S
C252 C247 1.386 . S
C252 C251 1.387 . S
C253 C222 1.519 . S
C253 C254 1.377 . S
C253 C258 1.361 . S
C254 H209 0.929 . S
C254 C253 1.377 . S
C254 C255 1.386 . S
C255 H210 0.931 . S
C255 C254 1.386 . S
C255 C256 1.363 . S
C256 C255 1.363 . S
C256 C257 1.385 . S
C257 H211 0.930 . S
C257 C256 1.385 . S
C257 C258 1.396 . S
C258 H212 0.929 . S
C258 C253 1.361 . S
C258 C257 1.396 . S
C259 O213 1.270 1_556 S
C259 O214 1.209 . S
C259 C232 1.486 . S
C260 O215 1.199 . S
C260 O216 1.297 . S
C260 C244 1.476 . S
H261 C279 0.951 . S
H262 C281 0.951 . S
H263 C283 0.950 . S
H264 C284 0.950 . S
H265 C286 0.950 . S
H266 C289 0.950 . S
H267 C290 0.950 . S
H268 C292 0.950 . S
H269 C293 0.950 . S
H270 C294 0.951 . S
H271 C296 0.951 . S
H272 C298 0.950 1_655 S
H273 C299 0.950 1_655 S
H274 C301 0.950 1_655 S
H275 C304 0.950 . S
H276 C305 0.950 . S
H277 C307 0.950 . S
H278 C308 0.950 . S
C279 H261 0.951 . S
C279 C280 1.366 . S
C279 C281 1.388 . S
C280 C279 1.366 . S
C280 C284 1.385 . S
C281 H262 0.951 . S
C281 C279 1.388 . S
C281 C282 1.366 . S
C282 C281 1.366 . S
C282 C283 1.414 . S
C282 C285 1.499 . S
C283 H263 0.950 . S
C283 C282 1.414 . S
C283 C284 1.374 . S
C284 H264 0.950 . S
C284 C280 1.385 . S
C284 C283 1.374 . S
C285 C282 1.499 . S
C285 C286 1.373 . S
C285 C287 1.389 . S
C286 H265 0.950 . S
C286 C285 1.373 . S
C286 C302 1.377 . S
C287 C285 1.389 . S
C287 C288 1.524 1_455 S
C287 C301 1.377 . S
C288 C287 1.524 1_655 S
C288 C289 1.397 . S
C288 C293 1.363 . S
C289 H266 0.950 . S
C289 C288 1.397 . S
C289 C290 1.334 . S
C290 H267 0.950 . S
C290 C289 1.334 . S
C290 C291 1.287 . S
C291 C290 1.287 . S
C291 C292 1.524 . S
C291 H310 0.913 . S
C292 H268 0.950 . S
C292 C291 1.524 . S
C292 C293 1.415 . S
C293 H269 0.950 . S
C293 C288 1.363 . S
C293 C292 1.415 . S
C294 H270 0.951 . S
C294 C295 1.366 . S
C294 C296 1.388 . S
C295 C294 1.366 . S
C295 C299 1.385 . S
C296 H271 0.951 . S
C296 C294 1.388 . S
C296 C297 1.366 . S
C297 C296 1.366 . S
C297 C298 1.414 . S
C297 C300 1.499 . S
C298 H272 0.950 1_455 S
C298 C297 1.414 . S
C298 C299 1.374 . S
C299 H273 0.950 1_455 S
C299 C295 1.385 . S
C299 C298 1.374 . S
C300 C297 1.499 . S
C300 C301 1.373 . S
C300 C302 1.389 . S
C301 H274 0.950 1_455 S
C301 C287 1.377 . S
C301 C300 1.373 . S
C302 C286 1.377 . S
C302 C300 1.389 . S
C302 C303 1.524 . S
C303 C302 1.524 . S
C303 C304 1.397 . S
C303 C308 1.363 . S
C304 H275 0.950 . S
C304 C303 1.397 . S
C304 C305 1.334 . S
C305 H276 0.950 . S
C305 C304 1.334 . S
C305 C306 1.287 . S
C306 C305 1.287 . S
C306 C307 1.524 . S
C306 H309 0.999 . S
C307 H277 0.950 . S
C307 C306 1.524 . S
C307 C308 1.415 . S
C308 H278 0.950 . S
C308 C303 1.363 . S
C308 C307 1.415 . S
H309 C306 0.999 . S
H310 C291 0.913 . S
H311 C329 0.951 1_565 S
H312 C331 0.951 1_565 S
H313 C333 0.950 . S
H314 C334 0.950 . S
H315 C336 0.950 . S
H316 C339 0.950 . S
H317 C340 0.950 . S
H318 C342 0.950 . S
H319 C343 0.950 . S
H320 C344 0.951 . S
H321 C346 0.951 . S
H322 C348 0.950 1_565 S
H323 C349 0.950 1_565 S
H324 C351 0.950 . S
H325 C354 0.950 . S
H326 C355 0.950 . S
H327 C357 0.950 . S
H328 C358 0.950 . S
C329 H311 0.951 1_545 S
C329 C330 1.366 . S
C329 C331 1.388 . S
C330 C329 1.366 . S
C330 C334 1.385 . S
C331 H312 0.951 1_545 S
C331 C329 1.388 . S
C331 C332 1.366 . S
C332 C331 1.366 . S
C332 C333 1.414 . S
C332 C335 1.499 . S
C333 H313 0.950 . S
C333 C332 1.414 . S
C333 C334 1.374 . S
C334 H314 0.950 . S
C334 C330 1.385 . S
C334 C333 1.374 . S
C335 C332 1.499 . S
C335 C336 1.373 . S
C335 C337 1.389 . S
C336 H315 0.950 . S
C336 C335 1.373 . S
C336 C352 1.377 . S
C337 C335 1.389 . S
C337 C338 1.524 . S
C337 C351 1.377 . S
C338 C337 1.524 . S
C338 C339 1.397 . S
C338 C343 1.363 . S
C339 H316 0.950 . S
C339 C338 1.397 . S
C339 C340 1.334 . S
C340 H317 0.950 . S
C340 C339 1.334 . S
C340 C341 1.287 . S
C341 C340 1.287 . S
C341 C342 1.524 . S
C341 H360 0.913 . S
C342 H318 0.950 . S
C342 C341 1.524 . S
C342 C343 1.415 . S
C343 H319 0.950 . S
C343 C338 1.363 . S
C343 C342 1.415 . S
C344 H320 0.951 . S
C344 C345 1.366 . S
C344 C346 1.388 . S
C345 C344 1.366 . S
C345 C349 1.385 . S
C346 H321 0.951 . S
C346 C344 1.388 . S
C346 C347 1.366 . S
C347 C346 1.366 . S
C347 C348 1.414 . S
C347 C350 1.499 . S
C348 H322 0.950 1_545 S
C348 C347 1.414 . S
C348 C349 1.374 . S
C349 H323 0.950 1_545 S
C349 C345 1.385 . S
C349 C348 1.374 . S
C350 C347 1.499 . S
C350 C351 1.373 . S
C350 C352 1.389 . S
C351 H324 0.950 . S
C351 C337 1.377 . S
C351 C350 1.373 . S
C352 C336 1.377 . S
C352 C350 1.389 . S
C352 C353 1.524 . S
C353 C352 1.524 . S
C353 C354 1.397 1_545 S
C353 C358 1.363 . S
C354 H325 0.950 . S
C354 C353 1.397 1_565 S
C354 C355 1.334 . S
C355 H326 0.950 . S
C355 C354 1.334 . S
C355 C356 1.287 . S
C356 C355 1.287 . S
C356 C357 1.524 1_565 S
C356 H359 0.999 . S
C357 H327 0.950 . S
C357 C356 1.524 1_545 S
C357 C358 1.415 . S
C358 H328 0.950 . S
C358 C353 1.363 . S
C358 C357 1.415 . S
H359 C356 0.999 . S
H360 C341 0.913 . S
H361 C379 0.951 . S
H362 C381 0.951 . S
H363 C383 0.950 . S
H364 C384 0.950 1_545 S
H365 C386 0.950 . S
H366 C389 0.950 . S
H367 C390 0.950 . S
H368 C392 0.950 . S
H369 C393 0.950 . S
H370 C394 0.951 . S
H371 C396 0.951 . S
H372 C398 0.950 . S
H373 C399 0.950 . S
H374 C401 0.950 . S
H375 C404 0.950 . S
H376 C405 0.950 . S
H377 C407 0.950 . S
H378 C408 0.950 . S
C379 H361 0.951 . S
C379 C380 1.366 . S
C379 C381 1.388 . S
C380 C379 1.366 . S
C380 C384 1.385 . S
C381 H362 0.951 . S
C381 C379 1.388 . S
C381 C382 1.366 . S
C382 C381 1.366 . S
C382 C383 1.414 . S
C382 C385 1.499 . S
C383 H363 0.950 . S
C383 C382 1.414 . S
C383 C384 1.374 . S
C384 H364 0.950 1_565 S
C384 C380 1.385 . S
C384 C383 1.374 . S
C385 C382 1.499 . S
C385 C386 1.373 . S
C385 C387 1.389 . S
C386 H365 0.950 . S
C386 C385 1.373 . S
C386 C402 1.377 . S
C387 C385 1.389 . S
C387 C388 1.524 . S
C387 C401 1.377 . S
C388 C387 1.524 . S
C388 C389 1.397 . S
C388 C393 1.363 . S
C389 H366 0.950 . S
C389 C388 1.397 . S
C389 C390 1.334 . S
C390 H367 0.950 . S
C390 C389 1.334 . S
C390 C391 1.287 . S
C391 C390 1.287 . S
C391 C392 1.524 . S
C391 H410 0.913 . S
C392 H368 0.950 . S
C392 C391 1.524 . S
C392 C393 1.415 . S
C393 H369 0.950 . S
C393 C388 1.363 . S
C393 C392 1.415 . S
C394 H370 0.951 . S
C394 C395 1.366 . S
C394 C396 1.388 . S
C395 C394 1.366 . S
C395 C399 1.385 . S
C396 H371 0.951 . S
C396 C394 1.388 . S
C396 C397 1.366 . S
C397 C396 1.366 . S
C397 C398 1.414 . S
C397 C400 1.499 . S
C398 H372 0.950 . S
C398 C397 1.414 . S
C398 C399 1.374 . S
C399 H373 0.950 . S
C399 C395 1.385 . S
C399 C398 1.374 . S
C400 C397 1.499 . S
C400 C401 1.373 . S
C400 C402 1.389 . S
C401 H374 0.950 . S
C401 C387 1.377 . S
C401 C400 1.373 . S
C402 C386 1.377 . S
C402 C400 1.389 . S
C402 C403 1.524 . S
C403 C402 1.524 . S
C403 C404 1.397 . S
C403 C408 1.363 . S
C404 H375 0.950 . S
C404 C403 1.397 . S
C404 C405 1.334 . S
C405 H376 0.950 . S
C405 C404 1.334 . S
C405 C406 1.287 . S
C406 C405 1.287 . S
C406 C407 1.524 . S
C406 H409 0.999 . S
C407 H377 0.950 . S
C407 C406 1.524 . S
C407 C408 1.415 . S
C408 H378 0.950 . S
C408 C403 1.363 . S
C408 C407 1.415 . S
H409 C406 0.999 . S
H410 C391 0.913 . S
H411 C429 0.951 . S
H412 C431 0.951 . S
H413 C433 0.950 1_655 S
H414 C434 0.950 1_655 S
H415 C436 0.950 . S
H416 C439 0.950 . S
H417 C440 0.950 . S
H418 C442 0.950 . S
H419 C443 0.950 . S
H420 C444 0.951 . S
H421 C446 0.951 1_655 S
H422 C448 0.950 . S
H423 C449 0.950 . S
H424 C451 0.950 . S
H425 C454 0.950 . S
H426 C455 0.950 . S
H427 C457 0.950 . S
H428 C458 0.950 . S
C429 H411 0.951 . S
C429 C430 1.366 . S
C429 C431 1.388 . S
C430 C429 1.366 . S
C430 C434 1.385 . S
C431 H412 0.951 . S
C431 C429 1.388 . S
C431 C432 1.366 . S
C432 C431 1.366 . S
C432 C433 1.414 . S
C432 C435 1.499 . S
C433 H413 0.950 1_455 S
C433 C432 1.414 . S
C433 C434 1.374 . S
C434 H414 0.950 1_455 S
C434 C430 1.385 . S
C434 C433 1.374 . S
C435 C432 1.499 . S
C435 C436 1.373 . S
C435 C437 1.389 . S
C436 H415 0.950 . S
C436 C435 1.373 . S
C436 C452 1.377 . S
C437 C435 1.389 . S
C437 C438 1.524 . S
C437 C451 1.377 . S
C438 C437 1.524 . S
C438 C439 1.397 . S
C438 C443 1.363 . S
C439 H416 0.950 . S
C439 C438 1.397 . S
C439 C440 1.334 . S
C440 H417 0.950 . S
C440 C439 1.334 . S
C440 C441 1.287 . S
C441 C440 1.287 . S
C441 C442 1.524 . S
C441 H460 0.913 . S
C442 H418 0.950 . S
C442 C441 1.524 . S
C442 C443 1.415 . S
C443 H419 0.950 . S
C443 C438 1.363 . S
C443 C442 1.415 . S
C444 H420 0.951 . S
C444 C445 1.366 . S
C444 C446 1.388 . S
C445 C444 1.366 . S
C445 C449 1.385 . S
C446 H421 0.951 1_455 S
C446 C444 1.388 . S
C446 C447 1.366 . S
C447 C446 1.366 . S
C447 C448 1.414 . S
C447 C450 1.499 . S
C448 H422 0.950 . S
C448 C447 1.414 . S
C448 C449 1.374 . S
C449 H423 0.950 . S
C449 C445 1.385 . S
C449 C448 1.374 . S
C450 C447 1.499 . S
C450 C451 1.373 . S
C450 C452 1.389 . S
C451 H424 0.950 . S
C451 C437 1.377 . S
C451 C450 1.373 . S
C452 C436 1.377 . S
C452 C450 1.389 . S
C452 C453 1.524 . S
C453 C452 1.524 . S
C453 C454 1.397 . S
C453 C458 1.363 1_455 S
C454 H425 0.950 . S
C454 C453 1.397 . S
C454 C455 1.334 . S
C455 H426 0.950 . S
C455 C454 1.334 . S
C455 C456 1.287 1_455 S
C456 C455 1.287 1_655 S
C456 C457 1.524 . S
C456 H459 0.999 . S
C457 H427 0.950 . S
C457 C456 1.524 . S
C457 C458 1.415 . S
C458 H428 0.950 . S
C458 C453 1.363 1_655 S
C458 C457 1.415 . S
H459 C456 0.999 . S
H460 C441 0.913 . S
H461 C479 0.951 . S
H462 C481 0.951 . S
H463 C483 0.950 . S
H464 C484 0.950 . S
H465 C486 0.950 . S
H466 C489 0.950 . S
H467 C490 0.950 . S
H468 C492 0.950 . S
H469 C493 0.950 . S
H470 C494 0.951 . S
H471 C496 0.951 1_565 S
H472 C498 0.950 . S
H473 C499 0.950 . S
H474 C501 0.950 . S
H475 C504 0.950 . S
H476 C505 0.950 . S
H477 C507 0.950 . S
H478 C508 0.950 . S
C479 H461 0.951 . S
C479 C480 1.366 . S
C479 C481 1.388 . S
C480 C479 1.366 . S
C480 C484 1.385 1_545 S
C481 H462 0.951 . S
C481 C479 1.388 . S
C481 C482 1.366 . S
C482 C481 1.366 . S
C482 C483 1.414 1_545 S
C482 C485 1.499 . S
C483 H463 0.950 . S
C483 C482 1.414 1_565 S
C483 C484 1.374 . S
C484 H464 0.950 . S
C484 C480 1.385 1_565 S
C484 C483 1.374 . S
C485 C482 1.499 . S
C485 C486 1.373 . S
C485 C487 1.389 . S
C486 H465 0.950 . S
C486 C485 1.373 . S
C486 C502 1.377 . S
C487 C485 1.389 . S
C487 C488 1.524 . S
C487 C501 1.377 . S
C488 C487 1.524 . S
C488 C489 1.397 . S
C488 C493 1.363 . S
C489 H466 0.950 . S
C489 C488 1.397 . S
C489 C490 1.334 . S
C490 H467 0.950 . S
C490 C489 1.334 . S
C490 C491 1.287 . S
C491 C490 1.287 . S
C491 C492 1.524 . S
C491 H510 0.913 . S
C492 H468 0.950 . S
C492 C491 1.524 . S
C492 C493 1.415 . S
C493 H469 0.950 . S
C493 C488 1.363 . S
C493 C492 1.415 . S
C494 H470 0.951 . S
C494 C495 1.366 . S
C494 C496 1.388 . S
C495 C494 1.366 . S
C495 C499 1.385 . S
C496 H471 0.951 1_545 S
C496 C494 1.388 . S
C496 C497 1.366 . S
C497 C496 1.366 . S
C497 C498 1.414 . S
C497 C500 1.499 . S
C498 H472 0.950 . S
C498 C497 1.414 . S
C498 C499 1.374 . S
C499 H473 0.950 . S
C499 C495 1.385 . S
C499 C498 1.374 . S
C500 C497 1.499 . S
C500 C501 1.373 . S
C500 C502 1.389 . S
C501 H474 0.950 . S
C501 C487 1.377 . S
C501 C500 1.373 . S
C502 C486 1.377 . S
C502 C500 1.389 . S
C502 C503 1.524 . S
C503 C502 1.524 . S
C503 C504 1.397 . S
C503 C508 1.363 1_545 S
C504 H475 0.950 . S
C504 C503 1.397 . S
C504 C505 1.334 . S
C505 H476 0.950 . S
C505 C504 1.334 . S
C505 C506 1.287 1_545 S
C506 C505 1.287 1_565 S
C506 C507 1.524 . S
C506 H509 0.999 . S
C507 H477 0.950 . S
C507 C506 1.524 . S
C507 C508 1.415 . S
C508 H478 0.950 . S
C508 C503 1.363 1_565 S
C508 C507 1.415 . S
H509 C506 0.999 . S
H510 C491 0.913 . S
H511 C529 0.951 . S
H512 C531 0.951 . S
H513 C533 0.950 . S
H514 C534 0.950 . S
H515 C536 0.950 . S
H516 C539 0.950 . S
H517 C540 0.950 . S
H518 C542 0.950 . S
H519 C543 0.950 . S
H520 C544 0.951 . S
H521 C546 0.951 . S
H522 C548 0.950 . S
H523 C549 0.950 . S
H524 C551 0.950 . S
H525 C554 0.950 . S
H526 C555 0.950 . S
H527 C557 0.950 . S
H528 C558 0.950 . S
C529 H511 0.951 . S
C529 C530 1.366 . S
C529 C531 1.388 . S
C530 C529 1.366 . S
C530 C534 1.385 . S
C531 H512 0.951 . S
C531 C529 1.388 . S
C531 C532 1.366 . S
C532 C531 1.366 . S
C532 C533 1.414 . S
C532 C535 1.499 . S
C533 H513 0.950 . S
C533 C532 1.414 . S
C533 C534 1.374 . S
C534 H514 0.950 . S
C534 C530 1.385 . S
C534 C533 1.374 . S
C535 C532 1.499 . S
C535 C536 1.373 . S
C535 C537 1.389 . S
C536 H515 0.950 . S
C536 C535 1.373 . S
C536 C552 1.377 . S
C537 C535 1.389 . S
C537 C538 1.524 . S
C537 C551 1.377 . S
C538 C537 1.524 . S
C538 C539 1.397 . S
C538 C543 1.363 . S
C539 H516 0.950 . S
C539 C538 1.397 . S
C539 C540 1.334 . S
C540 H517 0.950 . S
C540 C539 1.334 . S
C540 C541 1.287 . S
C541 C540 1.287 . S
C541 C542 1.524 . S
C541 H560 0.913 . S
C542 H518 0.950 . S
C542 C541 1.524 . S
C542 C543 1.415 . S
C543 H519 0.950 . S
C543 C538 1.363 . S
C543 C542 1.415 . S
C544 H520 0.951 . S
C544 C545 1.366 . S
C544 C546 1.388 . S
C545 C544 1.366 . S
C545 C549 1.385 . S
C546 H521 0.951 . S
C546 C544 1.388 . S
C546 C547 1.366 . S
C547 C546 1.366 . S
C547 C548 1.414 . S
C547 C550 1.499 . S
C548 H522 0.950 . S
C548 C547 1.414 . S
C548 C549 1.374 . S
C549 H523 0.950 . S
C549 C545 1.385 . S
C549 C548 1.374 . S
C550 C547 1.499 . S
C550 C551 1.373 . S
C550 C552 1.389 . S
C551 H524 0.950 . S
C551 C537 1.377 . S
C551 C550 1.373 . S
C552 C536 1.377 . S
C552 C550 1.389 . S
C552 C553 1.524 . S
C553 C552 1.524 . S
C553 C554 1.397 . S
C553 C558 1.363 . S
C554 H525 0.950 . S
C554 C553 1.397 . S
C554 C555 1.334 . S
C555 H526 0.950 . S
C555 C554 1.334 . S
C555 C556 1.287 . S
C556 C555 1.287 . S
C556 C557 1.524 . S
C556 H559 0.999 . S
C557 H527 0.950 . S
C557 C556 1.524 . S
C557 C558 1.415 . S
C558 H528 0.950 . S
C558 C553 1.363 . S
C558 C557 1.415 . S
H559 C556 0.999 . S
H560 C541 0.913 . S
H561 C579 0.951 . S
H562 C581 0.951 . S
H563 C583 0.950 . S
H564 C584 0.950 . S
H565 C586 0.950 . S
H566 C589 0.950 . S
H567 C590 0.950 . S
H568 C592 0.950 1_455 S
H569 C593 0.950 . S
H570 C594 0.951 . S
H571 C596 0.951 . S
H572 C598 0.950 . S
H573 C599 0.950 . S
H574 C601 0.950 . S
H575 C604 0.950 . S
H576 C605 0.950 . S
H577 C607 0.950 . S
H578 C608 0.950 . S
C579 H561 0.951 . S
C579 C580 1.366 . S
C579 C581 1.388 . S
C580 C579 1.366 . S
C580 C584 1.385 . S
C581 H562 0.951 . S
C581 C579 1.388 . S
C581 C582 1.366 . S
C582 C581 1.366 . S
C582 C583 1.414 . S
C582 C585 1.499 . S
C583 H563 0.950 . S
C583 C582 1.414 . S
C583 C584 1.374 . S
C584 H564 0.950 . S
C584 C580 1.385 . S
C584 C583 1.374 . S
C585 C582 1.499 . S
C585 C586 1.373 . S
C585 C587 1.389 . S
C586 H565 0.950 . S
C586 C585 1.373 . S
C586 C602 1.377 . S
C587 C585 1.389 . S
C587 C588 1.524 . S
C587 C601 1.377 . S
C588 C587 1.524 . S
C588 C589 1.397 . S
C588 C593 1.363 . S
C589 H566 0.950 . S
C589 C588 1.397 . S
C589 C590 1.334 . S
C590 H567 0.950 . S
C590 C589 1.334 . S
C590 C591 1.287 . S
C591 C590 1.287 . S
C591 C592 1.524 . S
C591 H610 0.913 1_655 S
C592 H568 0.950 1_655 S
C592 C591 1.524 . S
C592 C593 1.415 . S
C593 H569 0.950 . S
C593 C588 1.363 . S
C593 C592 1.415 . S
C594 H570 0.951 . S
C594 C595 1.366 . S
C594 C596 1.388 . S
C595 C594 1.366 . S
C595 C599 1.385 . S
C596 H571 0.951 . S
C596 C594 1.388 . S
C596 C597 1.366 . S
C597 C596 1.366 . S
C597 C598 1.414 . S
C597 C600 1.499 . S
C598 H572 0.950 . S
C598 C597 1.414 . S
C598 C599 1.374 . S
C599 H573 0.950 . S
C599 C595 1.385 . S
C599 C598 1.374 . S
C600 C597 1.499 . S
C600 C601 1.373 . S
C600 C602 1.389 . S
C601 H574 0.950 . S
C601 C587 1.377 . S
C601 C600 1.373 . S
C602 C586 1.377 . S
C602 C600 1.389 . S
C602 C603 1.524 1_545 S
C603 C602 1.524 1_565 S
C603 C604 1.397 . S
C603 C608 1.363 . S
C604 H575 0.950 . S
C604 C603 1.397 . S
C604 C605 1.334 . S
C605 H576 0.950 . S
C605 C604 1.334 . S
C605 C606 1.287 . S
C606 C605 1.287 . S
C606 C607 1.524 . S
C606 H609 0.999 . S
C607 H577 0.950 . S
C607 C606 1.524 . S
C607 C608 1.415 . S
C608 H578 0.950 . S
C608 C603 1.363 . S
C608 C607 1.415 . S
H609 C606 0.999 . S
H610 C591 0.913 1_455 S
H611 C629 0.951 . S
H612 C631 0.951 . S
H613 C633 0.906 1_556 S
H614 C634 0.950 1_455 S
H615 C636 0.950 . S
H616 C639 0.950 . S
H617 C640 0.950 . S
H618 C642 0.950 . S
H619 C643 0.950 . S
H620 C644 0.951 . S
H621 C646 0.951 . S
H622 C648 0.950 . S
H623 C649 0.950 . S
H624 C651 0.950 . S
H625 C654 0.950 . S
H626 C655 0.950 . S
H627 C657 0.950 . S
H628 C658 0.950 . S
C629 H611 0.951 . S
C629 C630 1.366 . S
C629 C631 1.388 . S
C630 C629 1.366 . S
C630 C634 1.385 . S
C631 H612 0.951 . S
C631 C629 1.388 . S
C631 C632 1.366 . S
C632 C631 1.366 . S
C632 C633 1.414 . S
C632 C635 1.464 1_554 S
C633 H613 0.906 1_554 S
C633 C632 1.414 . S
C633 C634 1.374 . S
C634 H614 0.950 1_655 S
C634 C630 1.385 . S
C634 C633 1.374 . S
C635 C632 1.464 1_556 S
C635 C636 1.406 . S
C635 C637 1.392 . S
C636 H615 0.950 . S
C636 C635 1.406 . S
C636 C652 1.377 . S
C637 C635 1.392 . S
C637 C638 1.524 1_556 S
C637 C651 1.377 . S
C638 C637 1.524 1_554 S
C638 C639 1.397 . S
C638 C643 1.363 . S
C639 H616 0.950 . S
C639 C638 1.397 . S
C639 C640 1.334 . S
C640 H617 0.950 . S
C640 C639 1.334 . S
C640 C641 1.287 . S
C641 C640 1.287 . S
C641 C642 1.524 . S
C641 H660 0.913 . S
C642 H618 0.950 . S
C642 C641 1.524 . S
C642 C643 1.415 . S
C643 H619 0.950 . S
C643 C638 1.363 . S
C643 C642 1.415 . S
C644 H620 0.951 . S
C644 C645 1.366 . S
C644 C646 1.388 . S
C645 C644 1.366 . S
C645 C649 1.385 . S
C646 H621 0.951 . S
C646 C644 1.388 . S
C646 C647 1.366 . S
C647 C646 1.366 . S
C647 C648 1.414 . S
C647 C650 1.499 . S
C648 H622 0.950 . S
C648 C647 1.414 . S
C648 C649 1.374 . S
C649 H623 0.950 . S
C649 C645 1.385 . S
C649 C648 1.374 . S
C650 C647 1.499 . S
C650 C651 1.373 . S
C650 C652 1.389 . S
C651 H624 0.950 . S
C651 C637 1.377 . S
C651 C650 1.373 . S
C652 C636 1.377 . S
C652 C650 1.389 . S
C652 C653 1.524 . S
C653 C652 1.524 . S
C653 C654 1.397 . S
C653 C658 1.363 . S
C654 H625 0.950 . S
C654 C653 1.397 . S
C654 C655 1.334 . S
C655 H626 0.950 . S
C655 C654 1.334 . S
C655 C656 1.287 . S
C656 C655 1.287 . S
C656 C657 1.524 . S
C656 H659 0.999 . S
C657 H627 0.950 . S
C657 C656 1.524 . S
C657 C658 1.415 . S
C658 H628 0.950 . S
C658 C653 1.363 . S
C658 C657 1.415 . S
H659 C656 0.999 . S
H660 C641 0.913 . S
H661 C679 0.951 . S
H662 C681 0.951 . S
H663 C683 0.950 . S
H664 C684 0.950 . S
H665 C686 0.950 . S
H666 C689 0.950 . S
H667 C690 0.950 . S
H668 C692 0.950 . S
H669 C693 0.950 . S
H670 C694 0.951 . S
H671 C696 0.951 . S
H672 C698 0.950 . S
H673 C699 0.950 . S
H674 C701 0.950 . S
H675 C704 0.950 . S
H676 C705 0.950 . S
H677 C707 0.950 . S
H678 C708 0.950 . S
C679 H661 0.951 . S
C679 C680 1.366 . S
C679 C681 1.388 . S
C680 C679 1.366 . S
C680 C684 1.385 1_455 S
C681 H662 0.951 . S
C681 C679 1.388 . S
C681 C682 1.366 . S
C682 C681 1.366 . S
C682 C683 1.414 1_455 S
C682 C685 1.499 . S
C683 H663 0.950 . S
C683 C682 1.414 1_655 S
C683 C684 1.374 . S
C684 H664 0.950 . S
C684 C680 1.385 1_655 S
C684 C683 1.374 . S
C685 C682 1.499 . S
C685 C686 1.373 1_455 S
C685 C687 1.389 . S
C686 H665 0.950 . S
C686 C685 1.373 1_655 S
C686 C702 1.377 . S
C687 C685 1.389 . S
C687 C688 1.524 . S
C687 C701 1.377 . S
C688 C687 1.524 . S
C688 C689 1.397 . S
C688 C693 1.363 . S
C689 H666 0.950 . S
C689 C688 1.397 . S
C689 C690 1.334 . S
C690 H667 0.950 . S
C690 C689 1.334 . S
C690 C691 1.287 . S
C691 C690 1.287 . S
C691 C692 1.524 . S
C691 H710 0.913 . S
C692 H668 0.950 . S
C692 C691 1.524 . S
C692 C693 1.415 . S
C693 H669 0.950 . S
C693 C688 1.363 . S
C693 C692 1.415 . S
C694 H670 0.951 . S
C694 C695 1.366 1_655 S
C694 C696 1.388 . S
C695 C694 1.366 1_455 S
C695 C699 1.385 . S
C696 H671 0.951 . S
C696 C694 1.388 . S
C696 C697 1.366 1_655 S
C697 C696 1.366 1_455 S
C697 C698 1.414 . S
C697 C700 1.499 . S
C698 H672 0.950 . S
C698 C697 1.414 . S
C698 C699 1.374 . S
C699 H673 0.950 . S
C699 C695 1.385 . S
C699 C698 1.374 . S
C700 C697 1.499 . S
C700 C701 1.373 . S
C700 C702 1.389 1_455 S
C701 H674 0.950 . S
C701 C687 1.377 . S
C701 C700 1.373 . S
C702 C686 1.377 . S
C702 C700 1.389 1_655 S
C702 C703 1.524 . S
C703 C702 1.524 . S
C703 C704 1.397 . S
C703 C708 1.363 . S
C704 H675 0.950 . S
C704 C703 1.397 . S
C704 C705 1.334 . S
C705 H676 0.950 . S
C705 C704 1.334 . S
C705 C706 1.287 . S
C706 C705 1.287 . S
C706 C707 1.524 . S
C706 H709 0.999 . S
C707 H677 0.950 . S
C707 C706 1.524 . S
C707 C708 1.415 . S
C708 H678 0.950 . S
C708 C703 1.363 . S
C708 C707 1.415 . S
H709 C706 0.999 . S
H710 C691 0.913 . S
H711 C729 0.951 . S
H712 C731 0.951 . S
H713 C733 0.950 . S
H714 C734 0.950 . S
H715 C736 0.950 . S
H716 C739 0.950 . S
H717 C740 0.950 . S
H718 C742 0.950 . S
H719 C743 0.950 . S
H720 C744 0.951 . S
H721 C746 0.951 . S
H722 C748 0.950 . S
H723 C749 0.950 . S
H724 C751 0.950 . S
H725 C754 0.950 . S
H726 C755 0.950 . S
H727 C757 0.950 . S
H728 C758 0.950 . S
C729 H711 0.951 . S
C729 C730 1.366 . S
C729 C731 1.388 . S
C730 C729 1.366 . S
C730 C734 1.385 . S
C731 H712 0.951 . S
C731 C729 1.388 . S
C731 C732 1.366 . S
C732 C731 1.366 . S
C732 C733 1.414 . S
C732 C735 1.499 . S
C733 H713 0.950 . S
C733 C732 1.414 . S
C733 C734 1.374 . S
C734 H714 0.950 . S
C734 C730 1.385 . S
C734 C733 1.374 . S
C735 C732 1.499 . S
C735 C736 1.373 . S
C735 C737 1.389 . S
C736 H715 0.950 . S
C736 C735 1.373 . S
C736 C752 1.377 . S
C737 C735 1.389 . S
C737 C738 1.524 . S
C737 C751 1.377 . S
C738 C737 1.524 . S
C738 C739 1.397 1_545 S
C738 C743 1.363 . S
C739 H716 0.950 . S
C739 C738 1.397 1_565 S
C739 C740 1.334 . S
C740 H717 0.950 . S
C740 C739 1.334 . S
C740 C741 1.287 . S
C741 C740 1.287 . S
C741 C742 1.524 1_565 S
C741 H760 0.913 . S
C742 H718 0.950 . S
C742 C741 1.524 1_545 S
C742 C743 1.415 . S
C743 H719 0.950 . S
C743 C738 1.363 . S
C743 C742 1.415 . S
C744 H720 0.951 . S
C744 C745 1.366 . S
C744 C746 1.388 . S
C745 C744 1.366 . S
C745 C749 1.385 . S
C746 H721 0.951 . S
C746 C744 1.388 . S
C746 C747 1.366 . S
C747 C746 1.366 . S
C747 C748 1.414 . S
C747 C750 1.499 . S
C748 H722 0.950 . S
C748 C747 1.414 . S
C748 C749 1.374 . S
C749 H723 0.950 . S
C749 C745 1.385 . S
C749 C748 1.374 . S
C750 C747 1.499 . S
C750 C751 1.373 . S
C750 C752 1.389 . S
C751 H724 0.950 . S
C751 C737 1.377 . S
C751 C750 1.373 . S
C752 C736 1.377 . S
C752 C750 1.389 . S
C752 C753 1.524 . S
C753 C752 1.524 . S
C753 C754 1.397 . S
C753 C758 1.363 . S
C754 H725 0.950 . S
C754 C753 1.397 . S
C754 C755 1.334 . S
C755 H726 0.950 . S
C755 C754 1.334 . S
C755 C756 1.287 . S
C756 C755 1.287 . S
C756 C757 1.524 . S
C756 H759 0.999 . S
C757 H727 0.950 . S
C757 C756 1.524 . S
C757 C758 1.415 . S
C758 H728 0.950 . S
C758 C753 1.363 . S
C758 C757 1.415 . S
H759 C756 0.999 . S
H760 C741 0.913 . S
H761 C779 0.951 . S
H762 C781 0.951 . S
H763 C783 0.950 . S
H764 C784 0.950 . S
H765 C786 0.950 . S
H766 C789 0.950 . S
H767 C790 0.950 . S
H768 C792 0.950 . S
H769 C793 0.950 . S
H770 C794 0.951 . S
H771 C796 0.951 . S
H772 C798 0.950 . S
H773 C799 0.950 . S
H774 C801 0.950 . S
H775 C804 0.950 . S
H776 C805 0.950 . S
H777 C807 0.950 . S
H778 C808 0.950 . S
C779 H761 0.951 . S
C779 C780 1.366 . S
C779 C781 1.388 . S
C780 C779 1.366 . S
C780 C784 1.385 . S
C781 H762 0.951 . S
C781 C779 1.388 . S
C781 C782 1.366 . S
C782 C781 1.366 . S
C782 C783 1.414 . S
C782 C785 1.499 . S
C783 H763 0.950 . S
C783 C782 1.414 . S
C783 C784 1.374 . S
C784 H764 0.950 . S
C784 C780 1.385 . S
C784 C783 1.374 . S
C785 C782 1.499 . S
C785 C786 1.373 . S
C785 C787 1.409 . S
C786 H765 0.950 . S
C786 C785 1.373 . S
C786 C802 1.377 . S
C787 C785 1.409 . S
C787 C788 1.517 1_554 S
C787 C801 1.363 1_554 S
C788 C787 1.517 1_556 S
C788 C789 1.397 . S
C788 C793 1.363 . S
C789 H766 0.950 . S
C789 C788 1.397 . S
C789 C790 1.334 . S
C790 H767 0.950 . S
C790 C789 1.334 . S
C790 C791 1.287 . S
C791 C790 1.287 . S
C791 C792 1.524 . S
C791 H810 0.913 . S
C792 H768 0.950 . S
C792 C791 1.524 . S
C792 C793 1.415 . S
C793 H769 0.950 . S
C793 C788 1.363 . S
C793 C792 1.415 . S
C794 H770 0.951 . S
C794 C795 1.366 . S
C794 C796 1.388 . S
C795 C794 1.366 . S
C795 C799 1.385 . S
C796 H771 0.951 . S
C796 C794 1.388 . S
C796 C797 1.366 . S
C797 C796 1.366 . S
C797 C798 1.414 . S
C797 C800 1.499 . S
C798 H772 0.950 . S
C798 C797 1.414 . S
C798 C799 1.374 . S
C799 H773 0.950 . S
C799 C795 1.385 . S
C799 C798 1.374 . S
C800 C797 1.499 . S
C800 C801 1.373 . S
C800 C802 1.389 1_556 S
C801 H774 0.950 . S
C801 C787 1.363 1_556 S
C801 C800 1.373 . S
C802 C786 1.377 . S
C802 C800 1.389 1_554 S
C802 C803 1.524 . S
C803 C802 1.524 . S
C803 C804 1.397 . S
C803 C808 1.363 . S
C804 H775 0.950 . S
C804 C803 1.397 . S
C804 C805 1.334 . S
C805 H776 0.950 . S
C805 C804 1.334 . S
C805 C806 1.287 . S
C806 C805 1.287 . S
C806 C807 1.524 . S
C806 H809 0.999 . S
C807 H777 0.950 . S
C807 C806 1.524 . S
C807 C808 1.415 . S
C808 H778 0.950 . S
C808 C803 1.363 . S
C808 C807 1.415 . S
H809 C806 0.999 . S
H810 C791 0.913 . S
H811 C829 0.951 . S
H812 C831 0.951 . S
H813 C833 0.950 . S
H814 C834 0.950 . S
H815 C836 0.950 . S
H816 C839 0.950 . S
H817 C840 0.950 . S
H818 C842 0.950 . S
H819 C843 0.950 . S
H820 C844 0.951 1_655 S
H821 C846 0.951 1_655 S
H822 C848 0.950 . S
H823 C849 0.950 . S
H824 C851 0.950 . S
H825 C854 0.950 . S
H826 C855 0.950 . S
H827 C857 0.950 . S
H828 C858 0.950 . S
C829 H811 0.951 . S
C829 C830 1.366 . S
C829 C831 1.388 . S
C830 C829 1.366 . S
C830 C834 1.385 1_455 S
C831 H812 0.951 . S
C831 C829 1.388 . S
C831 C832 1.366 . S
C832 C831 1.366 . S
C832 C833 1.414 1_455 S
C832 C835 1.499 . S
C833 H813 0.950 . S
C833 C832 1.414 1_655 S
C833 C834 1.374 . S
C834 H814 0.950 . S
C834 C830 1.385 1_655 S
C834 C833 1.374 . S
C835 C832 1.499 . S
C835 C836 1.373 1_455 S
C835 C837 1.389 . S
C836 H815 0.950 . S
C836 C835 1.373 1_655 S
C836 C852 1.377 . S
C837 C835 1.389 . S
C837 C838 1.524 . S
C837 C851 1.377 . S
C838 C837 1.524 . S
C838 C839 1.397 . S
C838 C843 1.363 . S
C839 H816 0.950 . S
C839 C838 1.397 . S
C839 C840 1.334 . S
C840 H817 0.950 . S
C840 C839 1.334 . S
C840 C841 1.287 . S
C841 C840 1.287 . S
C841 C842 1.524 . S
C841 H860 0.913 . S
C842 H818 0.950 . S
C842 C841 1.524 . S
C842 C843 1.415 . S
C843 H819 0.950 . S
C843 C838 1.363 . S
C843 C842 1.415 . S
C844 H820 0.951 1_455 S
C844 C845 1.366 . S
C844 C846 1.388 . S
C845 C844 1.366 . S
C845 C849 1.385 . S
C846 H821 0.951 1_455 S
C846 C844 1.388 . S
C846 C847 1.366 . S
C847 C846 1.366 . S
C847 C848 1.414 . S
C847 C850 1.499 . S
C848 H822 0.950 . S
C848 C847 1.414 . S
C848 C849 1.374 . S
C849 H823 0.950 . S
C849 C845 1.385 . S
C849 C848 1.374 . S
C850 C847 1.499 . S
C850 C851 1.373 . S
C850 C852 1.389 1_455 S
C851 H824 0.950 . S
C851 C837 1.377 . S
C851 C850 1.373 . S
C852 C836 1.377 . S
C852 C850 1.389 1_655 S
C852 C853 1.524 . S
C853 C852 1.524 . S
C853 C854 1.397 . S
C853 C858 1.363 . S
C854 H825 0.950 . S
C854 C853 1.397 . S
C854 C855 1.334 . S
C855 H826 0.950 . S
C855 C854 1.334 . S
C855 C856 1.287 . S
C856 C855 1.287 . S
C856 C857 1.524 . S
C856 H859 0.999 . S
C857 H827 0.950 . S
C857 C856 1.524 . S
C857 C858 1.415 . S
C858 H828 0.950 . S
C858 C853 1.363 . S
C858 C857 1.415 . S
H859 C856 0.999 . S
H860 C841 0.913 . S
C295 C78 1.417 . S
C280 C10 1.479 . S
C330 C17 1.383 . S
C345 C152 1.326 . S
C380 C36 2.268 1_665 S
C395 C256 2.263 . S
C430 C5 0.771 . S
C445 C90 0.771 . S
C495 C164 0.732 . S
C480 C16 0.731 . S
C530 C31 1.519 . S
C545 C250 1.418 . S
C595 C182 2.242 . S
C580 C30 2.249 1_655 S
C630 C3 1.464 1_655 S
C645 C226 1.404 . S
C695 C102 1.464 . S
C680 C18 1.568 . S
C745 C176 1.399 . S
C730 C29 1.495 . S
C795 C238 0.753 . S
C780 C4 0.754 . S
C830 C23 2.323 . S
C845 C108 2.319 . S
