# Generated by pormake.
# Topology ptr, (4,4)-cn, num edge types: 1
# Building blocks:
#     Node 0, Type 0, BuildingBlock: CEKHIL_clean_sbu_0, # of connection points: 4
#     Node 1, Type 0, BuildingBlock: CEKHIL_clean_sbu_0, # of connection points: 4
#     Node 2, Type 0, BuildingBlock: CEKHIL_clean_sbu_0, # of connection points: 4
#     Node 3, Type 0, BuildingBlock: CEKHIL_clean_sbu_0, # of connection points: 4
#     Node 4, Type 0, BuildingBlock: CEKHIL_clean_sbu_0, # of connection points: 4
#     Node 5, Type 0, BuildingBlock: CEKHIL_clean_sbu_0, # of connection points: 4
#     Node 6, Type 0, BuildingBlock: CEKHIL_clean_sbu_0, # of connection points: 4
#     Node 7, Type 0, BuildingBlock: CEKHIL_clean_sbu_0, # of connection points: 4
#     Node 8, Type 0, BuildingBlock: CEKHIL_clean_sbu_0, # of connection points: 4
#     Node 9, Type 0, BuildingBlock: CEKHIL_clean_sbu_0, # of connection points: 4
#     Node 10, Type 0, BuildingBlock: CEKHIL_clean_sbu_0, # of connection points: 4
#     Node 11, Type 0, BuildingBlock: CEKHIL_clean_sbu_0, # of connection points: 4
#     Node 12, Type 0, BuildingBlock: CEKHIL_clean_sbu_0, # of connection points: 4
#     Node 13, Type 0, BuildingBlock: CEKHIL_clean_sbu_0, # of connection points: 4
#     Node 14, Type 0, BuildingBlock: CEKHIL_clean_sbu_0, # of connection points: 4
#     Node 15, Type 0, BuildingBlock: CEKHIL_clean_sbu_0, # of connection points: 4
#     Node 16, Type 0, BuildingBlock: CEKHIL_clean_sbu_0, # of connection points: 4
#     Node 17, Type 0, BuildingBlock: CEKHIL_clean_sbu_0, # of connection points: 4
#     Node 18, Type 1, BuildingBlock: NAWXER_clean_linker_0, # of connection points: 4
#     Node 19, Type 1, BuildingBlock: NAWXER_clean_linker_0, # of connection points: 4
#     Node 20, Type 1, BuildingBlock: NAWXER_clean_linker_0, # of connection points: 4
#     Node 21, Type 1, BuildingBlock: NAWXER_clean_linker_0, # of connection points: 4
#     Node 22, Type 1, BuildingBlock: NAWXER_clean_linker_0, # of connection points: 4
#     Node 23, Type 1, BuildingBlock: NAWXER_clean_linker_0, # of connection points: 4
#     Node 24, Type 1, BuildingBlock: NAWXER_clean_linker_0, # of connection points: 4
#     Node 25, Type 1, BuildingBlock: NAWXER_clean_linker_0, # of connection points: 4
#     Node 26, Type 1, BuildingBlock: NAWXER_clean_linker_0, # of connection points: 4
#     Node 27, Type 1, BuildingBlock: NAWXER_clean_linker_0, # of connection points: 4
#     Node 28, Type 1, BuildingBlock: NAWXER_clean_linker_0, # of connection points: 4
#     Node 29, Type 1, BuildingBlock: NAWXER_clean_linker_0, # of connection points: 4
#     Node 30, Type 1, BuildingBlock: NAWXER_clean_linker_0, # of connection points: 4
#     Node 31, Type 1, BuildingBlock: NAWXER_clean_linker_0, # of connection points: 4
#     Node 32, Type 1, BuildingBlock: NAWXER_clean_linker_0, # of connection points: 4
#     Node 33, Type 1, BuildingBlock: NAWXER_clean_linker_0, # of connection points: 4
#     Node 34, Type 1, BuildingBlock: NAWXER_clean_linker_0, # of connection points: 4
#     Node 35, Type 1, BuildingBlock: NAWXER_clean_linker_0, # of connection points: 4
#     Edge 36, Type (0, 1), BuildingBlock: XUDNAN_clean_linker_2, # of connection points: 2
#     Edge 37, Type (0, 1), BuildingBlock: XUDNAN_clean_linker_2, # of connection points: 2
#     Edge 38, Type (0, 1), BuildingBlock: XUDNAN_clean_linker_2, # of connection points: 2
#     Edge 39, Type (0, 1), BuildingBlock: XUDNAN_clean_linker_2, # of connection points: 2
#     Edge 40, Type (0, 1), BuildingBlock: XUDNAN_clean_linker_2, # of connection points: 2
#     Edge 41, Type (0, 1), BuildingBlock: XUDNAN_clean_linker_2, # of connection points: 2
#     Edge 42, Type (0, 1), BuildingBlock: XUDNAN_clean_linker_2, # of connection points: 2
#     Edge 43, Type (0, 1), BuildingBlock: XUDNAN_clean_linker_2, # of connection points: 2
#     Edge 44, Type (0, 1), BuildingBlock: XUDNAN_clean_linker_2, # of connection points: 2
#     Edge 45, Type (0, 1), BuildingBlock: XUDNAN_clean_linker_2, # of connection points: 2
#     Edge 46, Type (0, 1), BuildingBlock: XUDNAN_clean_linker_2, # of connection points: 2
#     Edge 47, Type (0, 1), BuildingBlock: XUDNAN_clean_linker_2, # of connection points: 2
#     Edge 48, Type (0, 1), BuildingBlock: XUDNAN_clean_linker_2, # of connection points: 2
#     Edge 49, Type (0, 1), BuildingBlock: XUDNAN_clean_linker_2, # of connection points: 2
#     Edge 50, Type (0, 1), BuildingBlock: XUDNAN_clean_linker_2, # of connection points: 2
#     Edge 51, Type (0, 1), BuildingBlock: XUDNAN_clean_linker_2, # of connection points: 2
#     Edge 52, Type (0, 1), BuildingBlock: XUDNAN_clean_linker_2, # of connection points: 2
#     Edge 53, Type (0, 1), BuildingBlock: XUDNAN_clean_linker_2, # of connection points: 2
#     Edge 54, Type (0, 1), BuildingBlock: XUDNAN_clean_linker_2, # of connection points: 2
#     Edge 55, Type (0, 1), BuildingBlock: XUDNAN_clean_linker_2, # of connection points: 2
#     Edge 56, Type (0, 1), BuildingBlock: XUDNAN_clean_linker_2, # of connection points: 2
#     Edge 57, Type (0, 1), BuildingBlock: XUDNAN_clean_linker_2, # of connection points: 2
#     Edge 58, Type (0, 1), BuildingBlock: XUDNAN_clean_linker_2, # of connection points: 2
#     Edge 59, Type (0, 1), BuildingBlock: XUDNAN_clean_linker_2, # of connection points: 2
#     Edge 60, Type (0, 1), BuildingBlock: XUDNAN_clean_linker_2, # of connection points: 2
#     Edge 61, Type (0, 1), BuildingBlock: XUDNAN_clean_linker_2, # of connection points: 2
#     Edge 62, Type (0, 1), BuildingBlock: XUDNAN_clean_linker_2, # of connection points: 2
#     Edge 63, Type (0, 1), BuildingBlock: XUDNAN_clean_linker_2, # of connection points: 2
#     Edge 64, Type (0, 1), BuildingBlock: XUDNAN_clean_linker_2, # of connection points: 2
#     Edge 65, Type (0, 1), BuildingBlock: XUDNAN_clean_linker_2, # of connection points: 2
#     Edge 66, Type (0, 1), BuildingBlock: XUDNAN_clean_linker_2, # of connection points: 2
#     Edge 67, Type (0, 1), BuildingBlock: XUDNAN_clean_linker_2, # of connection points: 2
#     Edge 68, Type (0, 1), BuildingBlock: XUDNAN_clean_linker_2, # of connection points: 2
#     Edge 69, Type (0, 1), BuildingBlock: XUDNAN_clean_linker_2, # of connection points: 2
#     Edge 70, Type (0, 1), BuildingBlock: XUDNAN_clean_linker_2, # of connection points: 2
#     Edge 71, Type (0, 1), BuildingBlock: XUDNAN_clean_linker_2, # of connection points: 2
#     Edge 72, Type (0, 1), BuildingBlock: XUDNAN_clean_linker_2, # of connection points: 2
#     Edge 73, Type (0, 1), BuildingBlock: XUDNAN_clean_linker_2, # of connection points: 2
#     Edge 74, Type (0, 1), BuildingBlock: XUDNAN_clean_linker_2, # of connection points: 2
#     Edge 75, Type (0, 1), BuildingBlock: XUDNAN_clean_linker_2, # of connection points: 2
#     Edge 76, Type (0, 1), BuildingBlock: XUDNAN_clean_linker_2, # of connection points: 2
#     Edge 77, Type (0, 1), BuildingBlock: XUDNAN_clean_linker_2, # of connection points: 2
#     Edge 78, Type (0, 1), BuildingBlock: XUDNAN_clean_linker_2, # of connection points: 2
#     Edge 79, Type (0, 1), BuildingBlock: XUDNAN_clean_linker_2, # of connection points: 2
#     Edge 80, Type (0, 1), BuildingBlock: XUDNAN_clean_linker_2, # of connection points: 2
#     Edge 81, Type (0, 1), BuildingBlock: XUDNAN_clean_linker_2, # of connection points: 2
#     Edge 82, Type (0, 1), BuildingBlock: XUDNAN_clean_linker_2, # of connection points: 2
#     Edge 83, Type (0, 1), BuildingBlock: XUDNAN_clean_linker_2, # of connection points: 2
#     Edge 84, Type (0, 1), BuildingBlock: XUDNAN_clean_linker_2, # of connection points: 2
#     Edge 85, Type (0, 1), BuildingBlock: XUDNAN_clean_linker_2, # of connection points: 2
#     Edge 86, Type (0, 1), BuildingBlock: XUDNAN_clean_linker_2, # of connection points: 2
#     Edge 87, Type (0, 1), BuildingBlock: XUDNAN_clean_linker_2, # of connection points: 2
#     Edge 88, Type (0, 1), BuildingBlock: XUDNAN_clean_linker_2, # of connection points: 2
#     Edge 89, Type (0, 1), BuildingBlock: XUDNAN_clean_linker_2, # of connection points: 2
#     Edge 90, Type (0, 1), BuildingBlock: XUDNAN_clean_linker_2, # of connection points: 2
#     Edge 91, Type (0, 1), BuildingBlock: XUDNAN_clean_linker_2, # of connection points: 2
#     Edge 92, Type (0, 1), BuildingBlock: XUDNAN_clean_linker_2, # of connection points: 2
#     Edge 93, Type (0, 1), BuildingBlock: XUDNAN_clean_linker_2, # of connection points: 2
#     Edge 94, Type (0, 1), BuildingBlock: XUDNAN_clean_linker_2, # of connection points: 2
#     Edge 95, Type (0, 1), BuildingBlock: XUDNAN_clean_linker_2, # of connection points: 2
#     Edge 96, Type (0, 1), BuildingBlock: XUDNAN_clean_linker_2, # of connection points: 2
#     Edge 97, Type (0, 1), BuildingBlock: XUDNAN_clean_linker_2, # of connection points: 2
#     Edge 98, Type (0, 1), BuildingBlock: XUDNAN_clean_linker_2, # of connection points: 2
#     Edge 99, Type (0, 1), BuildingBlock: XUDNAN_clean_linker_2, # of connection points: 2
#     Edge 100, Type (0, 1), BuildingBlock: XUDNAN_clean_linker_2, # of connection points: 2
#     Edge 101, Type (0, 1), BuildingBlock: XUDNAN_clean_linker_2, # of connection points: 2
#     Edge 102, Type (0, 1), BuildingBlock: XUDNAN_clean_linker_2, # of connection points: 2
#     Edge 103, Type (0, 1), BuildingBlock: XUDNAN_clean_linker_2, # of connection points: 2
#     Edge 104, Type (0, 1), BuildingBlock: XUDNAN_clean_linker_2, # of connection points: 2
#     Edge 105, Type (0, 1), BuildingBlock: XUDNAN_clean_linker_2, # of connection points: 2
#     Edge 106, Type (0, 1), BuildingBlock: XUDNAN_clean_linker_2, # of connection points: 2
#     Edge 107, Type (0, 1), BuildingBlock: XUDNAN_clean_linker_2, # of connection points: 2
# Relax obj value: 0.032
# Max RMSD: 0.131
# Mean RMSD: 0.053
data_MOF--net-ptr--node1-CEKHIL_clean_sbu_0--node2-NAWXER_clean_linker_0--edge1-XUDNAN_clean_linker_2
_symmetry_space_group_name_H-M    P1
_symmetry_Int_Tables_number       1
_symmetry_cell_setting            triclinic
loop_
_symmetry_equiv_pos_as_xyz
'x, y, z'
_cell_length_a     87.537719
_cell_length_b     86.537283
_cell_length_c     64.553904
_cell_angle_alpha  91.026338
_cell_angle_beta   89.498128
_cell_angle_gamma 120.98687
loop_
_atom_site_label
_atom_site_type_symbol
_atom_site_fract_x
_atom_site_fract_y
_atom_site_fract_z
_atom_type_partial_charge
Co0 Co 0.01011 0.35311 0.00894 0.0
O1 O 0.0177 0.34215 0.02903 0.0
O2 O 0.03496 0.36909 0.01547 0.0
C3 C 0.99504 0.32876 0.98803 0.0
O4 O 0.00766 0.36856 0.98723 0.0
Co5 Co 0.97012 0.33977 0.00194 0.0
O6 O 0.97886 0.35698 0.97872 0.0
C7 C 0.98792 0.35993 0.04006 0.0
C8 C 0.03331 0.35671 0.028 0.0
C9 C 0.99538 0.36842 0.97623 0.0
O10 O 0.00312 0.36428 0.03208 0.0
O11 O 0.97307 0.34883 0.03131 0.0
O12 O 0.01229 0.33875 0.98666 0.0
O13 O 0.98784 0.33273 0.00313 0.0
Co14 Co 0.65896 0.66455 0.01319 0.0
O15 O 0.678 0.67643 0.9932 0.0
O16 O 0.67485 0.65562 0.0153 0.0
C17 C 0.65923 0.68907 0.02588 0.0
O18 O 0.64227 0.64969 0.03631 0.0
Co19 Co 0.62338 0.66411 0.01111 0.0
O20 O 0.61863 0.65313 0.03896 0.0
C21 C 0.63006 0.64169 0.98175 0.0
C22 C 0.68396 0.6666 1.00055 0.0
C23 C 0.62807 0.64694 0.04561 0.0
O24 O 0.6441 0.64528 0.99198 0.0
O25 O 0.62088 0.64905 0.9859 0.0
O26 O 0.67088 0.68516 0.03223 0.0
O27 O 0.64916 0.67924 0.01073 0.0
Co28 Co 0.34662 0.99779 0.00133 0.0
O29 O 0.33753 0.00976 0.98516 0.0
O30 O 0.36097 0.02369 0.00587 0.0
C31 C 0.32013 0.97576 0.01342 0.0
O32 O 0.35926 0.98958 0.02098 0.0
Co33 Co 0.33607 0.95866 0.98912 0.0
O34 O 0.34642 0.95957 0.01664 0.0
C35 C 0.36307 0.98865 0.96446 0.0
C36 C 0.35044 0.02483 0.99264 0.0
C37 C 0.35687 0.9742 0.02641 0.0
O38 O 0.36274 0.99979 0.97766 0.0
O39 O 0.35254 0.97156 0.96542 0.0
O40 O 0.32819 0.99157 0.02242 0.0
O41 O 0.32732 0.97451 0.99642 0.0
Co42 Co 0.99097 0.64965 0.01436 0.0
O43 O 0.98699 0.66562 0.99826 0.0
O44 O 0.96548 0.6397 0.01062 0.0
C45 C 0.01157 0.67101 0.03552 0.0
O46 O 0.99059 0.63037 0.0327 0.0
Co47 Co 0.02825 0.65374 0.01276 0.0
O48 O 0.01914 0.63815 0.03741 0.0
C49 C 0.00363 0.63583 0.97797 0.0
C50 C 0.9701 0.65421 1.00017 0.0
C51 C 0.00262 0.62857 0.04187 0.0
O52 O 0.99146 0.63664 0.98837 0.0
O53 O 0.01973 0.64307 0.98431 0.0
O54 O 0.99471 0.66431 0.03919 0.0
O55 O 0.01538 0.66608 0.01818 0.0
Co56 Co 0.34085 0.34695 0.01053 0.0
O57 O 0.32226 0.3375 0.03114 0.0
O58 O 0.32824 0.35982 0.01 0.0
C59 C 0.33523 0.32005 0.99817 0.0
O60 O 0.3581 0.35991 0.98684 0.0
Co61 Co 0.37223 0.34019 0.01149 0.0
O62 O 0.37829 0.35139 0.98375 0.0
C63 C 0.37137 0.36595 0.04132 0.0
C64 C 0.31867 0.34951 0.02508 0.0
C65 C 0.37113 0.36002 0.97728 0.0
O66 O 0.35809 0.36483 0.03152 0.0
O67 O 0.37802 0.35616 0.03673 0.0
O68 O 0.32599 0.32687 0.99158 0.0
O69 O 0.34652 0.32896 0.01276 0.0
Co70 Co 0.66231 0.0064 0.00965 0.0
O71 O 0.67601 0.00469 0.03151 0.0
O72 O 0.6548 0.98127 0.0141 0.0
C73 C 0.6851 0.02929 0.99271 0.0
O74 O 0.64578 0.00359 0.98576 0.0
Co75 Co 0.66139 0.04196 0.00767 0.0
O76 O 0.6467 0.03005 0.9827 0.0
C77 C 0.64144 0.01596 0.04012 0.0
C78 C 0.66655 0.98734 0.02897 0.0
C79 C 0.64121 0.01386 0.97686 0.0
O80 O 0.64424 0.00443 0.03067 0.0
O81 O 0.6487 0.0324 0.03462 0.0
O82 O 0.6817 0.0129 0.98979 0.0
O83 O 0.67616 0.03135 0.00734 0.0
Co84 Co 0.67217 0.68318 0.34707 0.0
O85 O 0.68006 0.6726 0.36735 0.0
O86 O 0.69696 0.69948 0.35353 0.0
C87 C 0.65727 0.65851 0.32654 0.0
O88 O 0.66941 0.69838 0.32527 0.0
Co89 Co 0.63212 0.66931 0.33964 0.0
O90 O 0.64072 0.68616 0.31604 0.0
C91 C 0.64971 0.69006 0.37762 0.0
C92 C 0.69553 0.68733 0.36624 0.0
C93 C 0.65717 0.69798 0.3139 0.0
O94 O 0.66498 0.69435 0.36994 0.0
O95 O 0.63493 0.67882 0.36881 0.0
O96 O 0.67449 0.66871 0.32498 0.0
O97 O 0.65003 0.66259 0.34148 0.0
Co98 Co 0.31929 0.98767 0.33597 0.0
O99 O 0.33796 0.99883 0.31544 0.0
O100 O 0.32887 0.97255 0.33028 0.0
C101 C 0.32752 0.01216 0.35598 0.0
O102 O 0.30177 0.97198 0.35812 0.0
Co103 Co 0.29042 0.9975 0.34349 0.0
O104 O 0.28465 0.98285 0.36884 0.0
C105 C 0.28837 0.9765 0.30622 0.0
C106 C 0.33929 0.98459 0.31707 0.0
C107 C 0.2903 0.97201 0.37066 0.0
O108 O 0.30131 0.97513 0.3132 0.0
O109 O 0.28243 0.98558 0.31542 0.0
O110 O 0.33559 0.00313 0.35763 0.0
O111 O 0.316 0.00714 0.34113 0.0
Co112 Co 0.0179 0.33757 0.3519 0.0
O113 O 0.00941 0.3469 0.33084 0.0
O114 O 0.03544 0.36256 0.34676 0.0
C115 C 0.99223 0.32364 0.3702 0.0
O116 O 0.03101 0.33312 0.37496 0.0
Co117 Co 1.00103 0.29652 0.35869 0.0
O118 O 0.01396 0.30451 0.38552 0.0
C119 C 0.02492 0.31377 0.32291 0.0
C120 C 0.02427 0.36214 0.33328 0.0
C121 C 0.02729 0.32043 0.3878 0.0
O122 O 0.02903 0.32945 0.33002 0.0
O123 O 0.01309 0.29905 0.33126 0.0
O124 O 0.00333 0.34084 0.37271 0.0
O125 O 0.9963 0.31588 0.35577 0.0
Co126 Co 0.66058 0.9937 0.34692 0.0
O127 O 0.65232 0.00341 0.32588 0.0
O128 O 0.63571 0.9772 0.34125 0.0
C129 C 0.67533 0.01914 0.3664 0.0
O130 O 0.66345 0.97921 0.36953 0.0
Co131 Co 0.70054 0.0081 0.35567 0.0
O132 O 0.6919 0.99186 0.37981 0.0
C133 C 0.68342 0.98597 0.31804 0.0
C134 C 0.63678 0.98893 0.32814 0.0
C135 C 0.67546 0.97989 0.38154 0.0
O136 O 0.66793 0.98198 0.3248 0.0
O137 O 0.69796 0.99735 0.3272 0.0
O138 O 0.65816 0.00874 0.36816 0.0
O139 O 0.68268 0.01465 0.35198 0.0
Co140 Co 0.01033 0.68086 0.33709 0.0
O141 O 0.99134 0.67083 0.35717 0.0
O142 O 0.99892 0.69487 0.33824 0.0
C143 C 0.00388 0.65517 0.32048 0.0
O144 O 0.02847 0.6947 0.31451 0.0
Co145 Co 0.04005 0.67156 0.33776 0.0
O146 O 0.04479 0.68165 0.30934 0.0
C147 C 0.041 0.69754 0.3684 0.0
C148 C 0.98852 0.68364 0.3522 0.0
C149 C 0.03967 0.69236 0.30395 0.0
O150 O 0.02769 0.69676 0.3591 0.0
O151 O 0.04728 0.68751 0.36337 0.0
O152 O 0.99518 0.66319 0.31636 0.0
O153 O 0.01446 0.66154 0.33633 0.0
Co154 Co 0.32702 0.3376 0.34664 0.0
O155 O 0.33991 0.33378 0.36779 0.0
O156 O 0.31329 0.31289 0.35633 0.0
C157 C 0.35031 0.35175 0.32477 0.0
O158 O 0.31013 0.33672 0.32429 0.0
Co159 Co 0.33843 0.37679 0.33463 0.0
O160 O 0.32151 0.36456 0.31144 0.0
C161 C 0.31813 0.36141 0.3732 0.0
C162 C 0.32671 0.31729 0.36862 0.0
C163 C 0.30999 0.34773 0.31115 0.0
O164 O 0.31575 0.34582 0.36827 0.0
O165 O 0.32795 0.37559 0.36268 0.0
O166 O 0.34099 0.33425 0.32507 0.0
O167 O 0.34624 0.3599 0.33867 0.0
Co168 Co 0.34157 0.01544 0.67525 0.0
O169 O 0.35163 0.00559 0.69362 0.0
O170 O 0.36718 0.02862 0.6728 0.0
C171 C 0.31945 0.98891 0.66256 0.0
O172 O 0.33648 0.02909 0.65367 0.0
Co173 Co 0.30338 0.00839 0.6802 0.0
O174 O 0.30749 0.02028 0.65297 0.0
C175 C 0.33154 0.03366 0.70901 0.0
C176 C 0.36711 0.01802 0.68687 0.0
C177 C 0.32321 0.02936 0.64564 0.0
O178 O 0.34322 0.03257 0.69788 0.0
O179 O 0.31477 0.02407 0.70543 0.0
O180 O 0.33543 0.99609 0.65489 0.0
O181 O 0.31769 0.99716 0.67842 0.0
Co182 Co 0.99867 0.32753 0.67363 0.0
O183 O 0.01694 0.33643 0.65257 0.0
O184 O 0.01051 0.31409 0.67398 0.0
C185 C 0.00475 0.35444 0.68623 0.0
O186 O 0.98205 0.31487 0.69759 0.0
Co187 Co 0.96735 0.33422 0.67467 0.0
O188 O 0.96155 0.3227 0.7023 0.0
C189 C 0.9675 0.30877 0.64381 0.0
C190 C 0.01993 0.32395 0.6586 0.0
C191 C 0.96923 0.31435 0.70795 0.0
O192 O 0.98095 0.30979 0.65303 0.0
O193 O 0.9609 0.31846 0.6491 0.0
O194 O 0.01403 0.34749 0.69232 0.0
O195 O 0.99311 0.34567 0.67189 0.0
Co196 Co 0.6796 0.67311 0.67941 0.0
O197 O 0.66749 0.67475 0.65571 0.0
O198 O 0.68924 0.69828 0.67239 0.0
C199 C 0.65504 0.65291 0.69671 0.0
O200 O 0.69474 0.67615 0.70484 0.0
Co201 Co 0.6772 0.63669 0.68684 0.0
O202 O 0.68973 0.64865 0.71301 0.0
C203 C 0.70075 0.66001 0.65417 0.0
C204 C 0.6778 0.6921 0.65719 0.0
C205 C 0.69678 0.66549 0.71665 0.0
O206 O 0.69758 0.6722 0.66066 0.0
O207 O 0.69277 0.64403 0.66137 0.0
O208 O 0.66042 0.66997 0.69749 0.0
O209 O 0.66344 0.64836 0.68368 0.0
Co210 Co 0.33151 0.31812 0.68195 0.0
O211 O 0.32032 0.32714 0.66444 0.0
O212 O 0.30592 0.30471 0.68637 0.0
C213 C 0.35415 0.34518 0.69247 0.0
O214 O 0.33904 0.30593 0.70316 0.0
Co215 Co 0.3696 0.32632 0.67112 0.0
O216 O 0.36873 0.3185 0.70003 0.0
C217 C 0.33913 0.29909 0.64662 0.0
C218 C 0.30527 0.31486 0.67215 0.0
C219 C 0.35417 0.3088 0.70976 0.0
O220 O 0.32851 0.30023 0.65958 0.0
O221 O 0.3561 0.30925 0.64764 0.0
O222 O 0.33873 0.33822 0.70161 0.0
O223 O 0.35471 0.33648 0.67635 0.0
Co224 Co 0.68854 0.01802 0.67728 0.0
O225 O 0.66963 0.00995 0.69714 0.0
O226 O 0.68233 0.03633 0.68156 0.0
C227 C 0.67648 0.99233 0.65836 0.0
O228 O 0.7077 0.03027 0.65501 0.0
Co229 Co 0.71063 0.99913 0.67444 0.0
O230 O 0.71824 0.01193 0.64773 0.0
C231 C 0.71629 0.0237 0.7095 0.0
C232 C 0.67035 0.02512 0.69442 0.0
C233 C 0.71675 0.02545 0.64359 0.0
O234 O 0.70675 0.02891 0.70034 0.0
O235 O 0.71818 0.01083 0.70255 0.0
O236 O 0.67138 0.00382 0.6555 0.0
O237 O 0.68704 0.99582 0.67388 0.0
Co238 Co 0.98812 0.66805 0.67554 0.0
O239 O 0.99604 0.65667 0.69432 0.0
O240 O 0.97392 0.64202 0.67192 0.0
C241 C 0.01536 0.68919 0.66451 0.0
O242 O 0.9768 0.67567 0.65338 0.0
Co243 Co 0.99879 0.7077 0.68436 0.0
O244 O 0.99007 0.70587 0.65565 0.0
C245 C 0.97058 0.67891 0.70932 0.0
C246 C 0.98365 0.64139 0.68667 0.0
C247 C 0.97986 0.69088 0.64637 0.0
O248 O 0.97098 0.66714 0.69723 0.0
O249 O 0.98152 0.69588 0.70775 0.0
O250 O 0.0074 0.67311 0.65624 0.0
O251 O 0.00751 0.69136 0.68035 0.0
C252 C 0.2279 0.35768 0.13037 0.0
C253 C 0.2251 0.34598 0.11355 0.0
C254 C 0.21376 0.35453 0.1434 0.0
C255 C 0.19657 0.33978 0.13962 0.0
C256 C 0.20798 0.33098 0.1101 0.0
C257 C 0.19377 0.32805 0.12287 0.0
C258 C 0.18129 0.3374 0.15207 0.0
C259 C 0.21142 0.32049 0.19337 0.0
C260 C 0.21855 0.33137 0.21126 0.0
C261 C 0.19929 0.32205 0.18089 0.0
C262 C 0.19404 0.33449 0.18611 0.0
C263 C 0.21327 0.34379 0.2164 0.0
C264 C 0.20104 0.34523 0.20405 0.0
C265 C 0.18046 0.33567 0.17381 0.0
C266 C 0.10577 0.31788 0.19284 0.0
C267 C 0.10863 0.32595 0.21265 0.0
C268 C 0.12014 0.32126 0.18014 0.0
C269 C 0.13773 0.33307 0.18678 0.0
C270 C 0.12624 0.33793 0.21918 0.0
C271 C 0.14062 0.34138 0.20641 0.0
C272 C 0.15311 0.33557 0.17422 0.0
C273 C 0.1281 0.359 0.13474 0.0
C274 C 0.12007 0.34908 0.11649 0.0
C275 C 0.13885 0.35506 0.14672 0.0
C276 C 0.14186 0.34118 0.14062 0.0
C277 C 0.1229 0.33505 0.11055 0.0
C278 C 0.13388 0.33128 0.12239 0.0
C279 C 0.15423 0.33781 0.15251 0.0
H280 H 0.241 0.36931 0.13335 0.0
H281 H 0.21614 0.36389 0.15607 0.0
H282 H 0.2055 0.32187 0.09713 0.0
H283 H 0.18056 0.3167 0.11961 0.0
H284 H 0.21527 0.31082 0.189 0.0
H285 H 0.19375 0.31329 0.1674 0.0
H286 H 0.21831 0.35217 0.23025 0.0
H287 H 0.19704 0.35476 0.20852 0.0
H288 H 0.09239 0.30871 0.18723 0.0
H289 H 0.11744 0.31418 0.16539 0.0
H290 H 0.12896 0.34416 0.23445 0.0
H291 H 0.15405 0.35037 0.21201 0.0
H292 H 0.1261 0.36985 0.13971 0.0
H293 H 0.14514 0.36312 0.16051 0.0
H294 H 0.11702 0.32731 0.09644 0.0
H295 H 0.13617 0.32063 0.1173 0.0
N296 N 0.16817 0.33844 0.14225 0.0
N297 N 0.16638 0.33478 0.18402 0.0
C298 C 0.6511 0.88647 0.13433 0.0
C299 C 0.66128 0.89254 0.11615 0.0
C300 C 0.65064 0.87264 0.1457 0.0
C301 C 0.66095 0.86515 0.13955 0.0
C302 C 0.67054 0.88421 0.10914 0.0
C303 C 0.67041 0.87064 0.12077 0.0
C304 C 0.66198 0.85164 0.15246 0.0
C305 C 0.68327 0.90159 0.1923 0.0
C306 C 0.67414 0.89951 0.21106 0.0
C307 C 0.67997 0.88657 0.18036 0.0
C308 C 0.66703 0.86913 0.18653 0.0
C309 C 0.66136 0.88199 0.21734 0.0
C310 C 0.65787 0.86698 0.20521 0.0
C311 C 0.66379 0.85304 0.17433 0.0
C312 C 0.67747 0.79388 0.19566 0.0
C313 C 0.6669 0.7871 0.21354 0.0
C314 C 0.6759 0.80589 0.18291 0.0
C315 C 0.66361 0.81128 0.18765 0.0
C316 C 0.65459 0.79251 0.21823 0.0
C317 C 0.65306 0.80457 0.2055 0.0
C318 C 0.66252 0.8248 0.17492 0.0
C319 C 0.64278 0.77646 0.13165 0.0
C320 C 0.65516 0.77939 0.11596 0.0
C321 C 0.645 0.7908 0.1442 0.0
C322 C 0.65947 0.80827 0.14099 0.0
C323 C 0.66985 0.79681 0.11308 0.0
C324 C 0.67185 0.8112 0.12534 0.0
C325 C 0.66125 0.8237 0.15311 0.0
H326 H 0.64374 0.89265 0.13989 0.0
H327 H 0.64255 0.86813 0.15957 0.0
H328 H 0.67851 0.88874 0.09516 0.0
H329 H 0.67822 0.86488 0.11546 0.0
H330 H 0.69308 0.91484 0.18683 0.0
H331 H 0.68767 0.88862 0.16637 0.0
H332 H 0.65435 0.8798 0.23189 0.0
H333 H 0.64806 0.85364 0.21048 0.0
H334 H 0.68703 0.78994 0.19154 0.0
H335 H 0.68459 0.81125 0.16959 0.0
H336 H 0.64644 0.78777 0.23204 0.0
H337 H 0.64366 0.80871 0.20964 0.0
H338 H 0.63136 0.76311 0.1341 0.0
H339 H 0.6352 0.78834 0.15607 0.0
H340 H 0.67945 0.79937 0.10093 0.0
H341 H 0.68304 0.82463 0.12259 0.0
N342 N 0.66101 0.8371 0.14274 0.0
N343 N 0.66374 0.83945 0.18467 0.0
C344 C 0.12223 0.76882 0.12834 0.0
C345 C 0.1127 0.76879 0.11096 0.0
C346 C 0.1358 0.78506 0.13681 0.0
C347 C 0.13962 0.80157 0.12845 0.0
C348 C 0.11751 0.78523 0.10161 0.0
C349 C 0.13088 0.80151 0.11031 0.0
C350 C 0.15208 0.81884 0.13907 0.0
C351 C 0.10541 0.78572 0.17996 0.0
C352 C 0.10997 0.78146 0.19892 0.0
C353 C 0.11847 0.7995 0.16785 0.0
C354 C 0.13645 0.80868 0.17407 0.0
C355 C 0.12768 0.79151 0.20586 0.0
C356 C 0.14081 0.80497 0.1935 0.0
C357 C 0.15085 0.82194 0.16043 0.0
C358 C 0.20967 0.89978 0.17393 0.0
C359 C 0.21522 0.89749 0.19336 0.0
C360 C 0.19717 0.88474 0.16235 0.0
C361 C 0.19064 0.86722 0.16976 0.0
C362 C 0.20826 0.88011 0.20107 0.0
C363 C 0.19615 0.86512 0.18935 0.0
C364 C 0.17744 0.85087 0.15809 0.0
C365 C 0.22437 0.88034 0.11447 0.0
C366 C 0.2199 0.88376 0.09492 0.0
C367 C 0.21099 0.86876 0.12816 0.0
C368 C 0.19291 0.86088 0.1228 0.0
C369 C 0.20186 0.87569 0.08948 0.0
C370 C 0.18852 0.8644 0.10328 0.0
C371 C 0.17841 0.84796 0.13656 0.0
H372 H 0.11895 0.75629 0.13562 0.0
H373 H 0.1428 0.78475 0.1504 0.0
H374 H 0.11034 0.78555 0.08818 0.0
H375 H 0.13382 0.81408 0.10343 0.0
H376 H 0.09177 0.77829 0.17446 0.0
H377 H 0.11458 0.80261 0.15336 0.0
H378 H 0.13147 0.78845 0.22046 0.0
H379 H 0.15451 0.81204 0.19882 0.0
H380 H 0.21484 0.91317 0.16786 0.0
H381 H 0.19263 0.88683 0.1477 0.0
H382 H 0.21244 0.87812 0.21604 0.0
H383 H 0.19119 0.85181 0.19557 0.0
H384 H 0.2382 0.88618 0.11889 0.0
H385 H 0.21481 0.86576 0.14278 0.0
H386 H 0.19806 0.87814 0.07452 0.0
H387 H 0.1747 0.85834 0.09865 0.0
N388 N 0.16561 0.83206 0.12794 0.0
N389 N 0.1637 0.83771 0.16906 0.0
C390 C 0.36073 0.14073 0.81557 0.0
C391 C 0.34921 0.12206 0.81779 0.0
C392 C 0.35924 0.1529 0.82868 0.0
C393 C 0.34639 0.14666 0.84446 0.0
C394 C 0.3363 0.11582 0.83357 0.0
C395 C 0.3349 0.12801 0.84678 0.0
C396 C 0.34453 0.15977 0.85761 0.0
C397 C 0.33596 0.12367 0.91877 0.0
C398 C 0.35143 0.1227 0.91651 0.0
C399 C 0.33333 0.1353 0.90654 0.0
C400 C 0.34591 0.14587 0.89148 0.0
C401 C 0.36406 0.13336 0.90148 0.0
C402 C 0.3613 0.14478 0.88903 0.0
C403 C 0.3435 0.15888 0.87942 0.0
C404 C 0.32292 0.21348 0.90372 0.0
C405 C 0.33391 0.22086 0.92129 0.0
C406 C 0.32491 0.20177 0.89023 0.0
C407 C 0.33806 0.19743 0.89401 0.0
C408 C 0.34712 0.21657 0.92482 0.0
C409 C 0.34907 0.20491 0.91143 0.0
C410 C 0.34017 0.18462 0.88058 0.0
C411 C 0.35534 0.23294 0.84089 0.0
C412 C 0.34681 0.22929 0.82149 0.0
C413 C 0.35357 0.21897 0.85317 0.0
C414 C 0.34271 0.20089 0.84675 0.0
C415 C 0.33585 0.21117 0.81515 0.0
C416 C 0.33386 0.19717 0.82762 0.0
C417 C 0.34187 0.18594 0.85875 0.0
H418 H 0.37061 0.14595 0.80335 0.0
H419 H 0.36813 0.16723 0.82648 0.0
H420 H 0.32727 0.10151 0.83567 0.0
H421 H 0.32461 0.12286 0.85854 0.0
H422 H 0.32608 0.11574 0.93035 0.0
H423 H 0.32146 0.13607 0.90885 0.0
H424 H 0.37607 0.13283 0.89933 0.0
H425 H 0.37136 0.15305 0.87779 0.0
H426 H 0.31252 0.21641 0.90069 0.0
H427 H 0.31604 0.19589 0.87707 0.0
H428 H 0.35605 0.2223 0.93795 0.0
H429 H 0.35933 0.2018 0.91463 0.0
H430 H 0.36372 0.24667 0.84649 0.0
H431 H 0.36115 0.22241 0.86741 0.0
H432 H 0.3293 0.20776 0.8002 0.0
H433 H 0.32562 0.18338 0.82211 0.0
N434 N 0.3438 0.17331 0.84816 0.0
N435 N 0.34121 0.17125 0.89 0.0
C436 C 0.89753 0.2103 0.90834 0.0
C437 C 0.90212 0.22829 0.90591 0.0
C438 C 0.88247 0.19634 0.89848 0.0
C439 C 0.87207 0.2002 0.88562 0.0
C440 C 0.89123 0.23208 0.8938 0.0
C441 C 0.87635 0.21812 0.88357 0.0
C442 C 0.85753 0.18551 0.8734 0.0
C443 C 0.88111 0.21843 0.80925 0.0
C444 C 0.89925 0.22572 0.81397 0.0
C445 C 0.86788 0.20507 0.82156 0.0
C446 C 0.87242 0.19863 0.83881 0.0
C447 C 0.90375 0.21907 0.83115 0.0
C448 C 0.89049 0.20546 0.84323 0.0
C449 C 0.85804 0.18448 0.85158 0.0
C450 C 0.78656 0.12138 0.82712 0.0
C451 C 0.79193 0.11076 0.8162 0.0
C452 C 0.79897 0.13644 0.83876 0.0
C453 C 0.81688 0.14109 0.83946 0.0
C454 C 0.80994 0.11572 0.81667 0.0
C455 C 0.8223 0.13082 0.82805 0.0
C456 C 0.83028 0.15662 0.85185 0.0
C457 C 0.79076 0.11444 0.89491 0.0
C458 C 0.78342 0.12122 0.90934 0.0
C459 C 0.80606 0.12618 0.8837 0.0
C460 C 0.81402 0.14494 0.88622 0.0
C461 C 0.7921 0.13999 0.91266 0.0
C462 C 0.80713 0.15167 0.90119 0.0
C463 C 0.82949 0.15789 0.87366 0.0
H464 H 0.90567 0.20708 0.91776 0.0
H465 H 0.87934 0.18258 0.90021 0.0
H466 H 0.89456 0.24587 0.89173 0.0
H467 H 0.86842 0.22132 0.87373 0.0
H468 H 0.87708 0.22281 0.79584 0.0
H469 H 0.85403 0.19981 0.81763 0.0
H470 H 0.91754 0.22437 0.83536 0.0
H471 H 0.89442 0.20026 0.85592 0.0
H472 H 0.77276 0.11784 0.82695 0.0
H473 H 0.7946 0.14437 0.84729 0.0
H474 H 0.81448 0.10795 0.80812 0.0
H475 H 0.8361 0.13431 0.82825 0.0
H476 H 0.78453 0.10009 0.89194 0.0
H477 H 0.81153 0.12054 0.87295 0.0
H478 H 0.78727 0.14574 0.92413 0.0
H479 H 0.81321 0.16607 0.90377 0.0
N480 N 0.84326 0.17227 0.8836 0.0
N481 N 0.84445 0.16999 0.84168 0.0
C482 C 0.78857 0.68029 0.90612 0.0
C483 C 0.77934 0.66629 0.92031 0.0
C484 C 0.80048 0.67974 0.89196 0.0
C485 C 0.80319 0.66508 0.89164 0.0
C486 C 0.78199 0.65158 0.91973 0.0
C487 C 0.79389 0.65106 0.90565 0.0
C488 C 0.81653 0.6647 0.87783 0.0
C489 C 0.7736 0.66149 0.8369 0.0
C490 C 0.7796 0.67484 0.82173 0.0
C491 C 0.78573 0.65894 0.84808 0.0
C492 C 0.80417 0.67002 0.84472 0.0
C493 C 0.79799 0.68564 0.81806 0.0
C494 C 0.81014 0.68326 0.82943 0.0
C495 C 0.81731 0.66743 0.85623 0.0
C496 C 0.87223 0.64897 0.82894 0.0
C497 C 0.88047 0.66157 0.81305 0.0
C498 C 0.86015 0.64995 0.84239 0.0
C499 C 0.85627 0.66372 0.84045 0.0
C500 C 0.87638 0.67521 0.811 0.0
C501 C 0.86437 0.67622 0.82452 0.0
C502 C 0.8431 0.66465 0.85417 0.0
C503 C 0.8877 0.67483 0.89736 0.0
C504 C 0.88296 0.66265 0.91373 0.0
C505 C 0.87466 0.6744 0.88463 0.0
C506 C 0.85656 0.6616 0.88776 0.0
C507 C 0.86488 0.64959 0.91657 0.0
C508 C 0.85181 0.64916 0.9038 0.0
C509 C 0.84252 0.66233 0.87586 0.0
H510 H 0.78697 0.69189 0.90635 0.0
H511 H 0.80785 0.69092 0.8816 0.0
H512 H 0.77487 0.64043 0.9302 0.0
H513 H 0.79584 0.63967 0.9057 0.0
H514 H 0.75948 0.65268 0.83974 0.0
H515 H 0.78064 0.64811 0.8591 0.0
H516 H 0.803 0.69603 0.80646 0.0
H517 H 0.82425 0.69185 0.82635 0.0
H518 H 0.87513 0.63835 0.83102 0.0
H519 H 0.85369 0.63979 0.85414 0.0
H520 H 0.8822 0.68492 0.79869 0.0
H521 H 0.86141 0.68682 0.82252 0.0
H522 H 0.90152 0.68495 0.89461 0.0
H523 H 0.87872 0.68449 0.87279 0.0
H524 H 0.86077 0.64015 0.92916 0.0
H525 H 0.83793 0.6393 0.90669 0.0
N526 N 0.82913 0.66226 0.88673 0.0
N527 N 0.83059 0.66729 0.84529 0.0
C528 C 0.78096 0.66946 0.46403 0.0
C529 C 0.78719 0.68357 0.44973 0.0
C530 C 0.79294 0.66614 0.4745 0.0
C531 C 0.8114 0.67706 0.47114 0.0
C532 C 0.80561 0.69396 0.44589 0.0
C533 C 0.81751 0.69077 0.45645 0.0
C534 C 0.82467 0.67435 0.48214 0.0
C535 C 0.7959 0.68653 0.53196 0.0
C536 C 0.78827 0.67371 0.54776 0.0
C537 C 0.80764 0.68594 0.51763 0.0
C538 C 0.81157 0.67214 0.51826 0.0
C539 C 0.79243 0.66003 0.54851 0.0
C540 C 0.80397 0.65929 0.53393 0.0
C541 C 0.82465 0.67184 0.50376 0.0
C542 C 0.89938 0.68874 0.51875 0.0
C543 C 0.89649 0.67883 0.53692 0.0
C544 C 0.8851 0.68637 0.50679 0.0
C545 C 0.86748 0.67332 0.51193 0.0
C546 C 0.87886 0.66564 0.54202 0.0
C547 C 0.86456 0.66291 0.52964 0.0
C548 C 0.85207 0.67203 0.50061 0.0
C549 C 0.88337 0.66436 0.44877 0.0
C550 C 0.89188 0.67944 0.43576 0.0
C551 C 0.87052 0.66265 0.46315 0.0
C552 C 0.86583 0.67588 0.46462 0.0
C553 C 0.88726 0.69276 0.43769 0.0
C554 C 0.87422 0.69086 0.4517 0.0
C555 C 0.8518 0.67413 0.47896 0.0
H556 H 0.76687 0.66116 0.46737 0.0
H557 H 0.78778 0.65511 0.48527 0.0
H558 H 0.81091 0.70458 0.43457 0.0
H559 H 0.83163 0.69923 0.45328 0.0
H560 H 0.7929 0.69715 0.53066 0.0
H561 H 0.81382 0.69646 0.50624 0.0
H562 H 0.78714 0.65013 0.56066 0.0
H563 H 0.80708 0.64872 0.53501 0.0
H564 H 0.9127 0.6988 0.51396 0.0
H565 H 0.888 0.69541 0.49405 0.0
H566 H 0.87597 0.6579 0.556 0.0
H567 H 0.85112 0.65297 0.53427 0.0
H568 H 0.88633 0.65367 0.44759 0.0
H569 H 0.86402 0.65087 0.47284 0.0
H570 H 0.89379 0.70481 0.42845 0.0
H571 H 0.87085 0.70127 0.45268 0.0
N572 N 0.83825 0.67535 0.47072 0.0
N573 N 0.83831 0.67073 0.51205 0.0
C574 C 0.30498 0.20446 0.45379 0.0
C575 C 0.32052 0.21566 0.44247 0.0
C576 C 0.30311 0.18942 0.46401 0.0
C577 C 0.3167 0.18533 0.46292 0.0
C578 C 0.33371 0.21104 0.44067 0.0
C579 C 0.33173 0.19592 0.45064 0.0
C580 C 0.31585 0.1706 0.4752 0.0
C581 C 0.32433 0.21396 0.52145 0.0
C582 C 0.31104 0.20846 0.53672 0.0
C583 C 0.32477 0.20132 0.50813 0.0
C584 C 0.31173 0.18295 0.50952 0.0
C585 C 0.2979 0.19008 0.53795 0.0
C586 C 0.29831 0.17745 0.52453 0.0
C587 C 0.31303 0.16927 0.49684 0.0
C588 C 0.33461 0.11639 0.52045 0.0
C589 C 0.32312 0.10816 0.53736 0.0
C590 C 0.33222 0.1276 0.50728 0.0
C591 C 0.31787 0.13039 0.51015 0.0
C592 C 0.30881 0.11104 0.54029 0.0
C593 C 0.30624 0.12203 0.52685 0.0
C594 C 0.31596 0.14333 0.49716 0.0
C595 C 0.3115 0.10059 0.45326 0.0
C596 C 0.3271 0.10663 0.44154 0.0
C597 C 0.30855 0.11292 0.46414 0.0
C598 C 0.32107 0.13146 0.46325 0.0
C599 C 0.33949 0.1252 0.44042 0.0
C600 C 0.33637 0.13754 0.45098 0.0
C601 C 0.31851 0.14452 0.47545 0.0
H602 H 0.29465 0.20774 0.45543 0.0
H603 H 0.29126 0.18125 0.47315 0.0
H604 H 0.34573 0.21936 0.43186 0.0
H605 H 0.34231 0.19295 0.44946 0.0
H606 H 0.33458 0.22802 0.52001 0.0
H607 H 0.33562 0.20587 0.49715 0.0
H608 H 0.28767 0.18535 0.54976 0.0
H609 H 0.2883 0.16331 0.5261 0.0
H610 H 0.34567 0.11439 0.51747 0.0
H611 H 0.34195 0.13446 0.4952 0.0
H612 H 0.29986 0.10526 0.55333 0.0
H613 H 0.29527 0.12422 0.5297 0.0
H614 H 0.30178 0.08633 0.45433 0.0
H615 H 0.29658 0.108 0.47338 0.0
H616 H 0.35153 0.13014 0.43131 0.0
H617 H 0.34614 0.15181 0.45007 0.0
N618 N 0.31856 0.1582 0.46533 0.0
N619 N 0.31313 0.15567 0.50694 0.0
C620 C 0.78041 0.11786 0.45414 0.0
C621 C 0.76777 0.12184 0.44677 0.0
C622 C 0.79577 0.1311 0.46422 0.0
C623 C 0.79882 0.14858 0.46712 0.0
C624 C 0.77095 0.13943 0.44947 0.0
C625 C 0.78647 0.15275 0.4594 0.0
C626 C 0.81482 0.16234 0.47843 0.0
C627 C 0.77756 0.12334 0.52671 0.0
C628 C 0.78426 0.1132 0.53531 0.0
C629 C 0.78853 0.13834 0.51454 0.0
C630 C 0.80639 0.14347 0.51099 0.0
C631 C 0.80214 0.11844 0.53176 0.0
C632 C 0.81312 0.13351 0.51988 0.0
C633 C 0.81849 0.1596 0.49885 0.0
C634 C 0.88285 0.23068 0.52227 0.0
C635 C 0.89186 0.22443 0.53426 0.0
C636 C 0.86829 0.21869 0.51005 0.0
C637 C 0.8626 0.20027 0.50937 0.0
C638 C 0.88625 0.20601 0.53337 0.0
C639 C 0.87171 0.19405 0.52112 0.0
C640 C 0.84637 0.18719 0.49781 0.0
C641 C 0.88708 0.22075 0.45132 0.0
C642 C 0.88435 0.23416 0.44338 0.0
C643 C 0.87343 0.20611 0.46179 0.0
C644 C 0.85675 0.20451 0.46451 0.0
C645 C 0.86748 0.23231 0.44563 0.0
C646 C 0.85371 0.21748 0.45594 0.0
C647 C 0.84295 0.18977 0.47721 0.0
H648 H 0.77827 0.10441 0.45239 0.0
H649 H 0.80525 0.12766 0.46987 0.0
H650 H 0.76151 0.14289 0.44376 0.0
H651 H 0.78866 0.1662 0.46141 0.0
H652 H 0.76382 0.11956 0.52923 0.0
H653 H 0.78315 0.14604 0.50813 0.0
H654 H 0.80771 0.11101 0.53842 0.0
H655 H 0.82689 0.13733 0.51749 0.0
H656 H 0.88691 0.2448 0.52255 0.0
H657 H 0.8612 0.22377 0.50159 0.0
H658 H 0.89272 0.20073 0.54268 0.0
H659 H 0.86744 0.17986 0.52101 0.0
H660 H 0.89994 0.22185 0.44997 0.0
H661 H 0.87601 0.19616 0.46815 0.0
H662 H 0.86496 0.24236 0.4395 0.0
H663 H 0.84091 0.21645 0.45783 0.0
N664 N 0.8272 0.17733 0.46827 0.0
N665 N 0.83411 0.17213 0.50773 0.0
C666 C 0.98727 0.53902 0.16626 0.0
C667 C 0.99685 0.54516 0.14761 0.0
C668 C 0.99059 0.52862 0.17983 0.0
C669 C 0.00368 0.52428 0.17509 0.0
C670 C 0.00966 0.54046 0.14277 0.0
C671 C 0.01296 0.53009 0.1563 0.0
C672 C 0.00729 0.51301 0.18895 0.0
C673 C 0.02139 0.56392 0.22255 0.0
C674 C 0.01148 0.5615 0.24069 0.0
C675 C 0.02161 0.54938 0.21317 0.0
C676 C 0.01145 0.532 0.22138 0.0
C677 C 0.0023 0.54439 0.2497 0.0
C678 C 0.00227 0.52975 0.24009 0.0
C679 C 0.01032 0.51618 0.21054 0.0
C680 C 0.03488 0.46538 0.23347 0.0
C681 C 0.02434 0.45681 0.25091 0.0
C682 C 0.03126 0.47627 0.22118 0.0
C683 C 0.01711 0.47891 0.22618 0.0
C684 C 0.01027 0.45961 0.256 0.0
C685 C 0.00683 0.47073 0.24387 0.0
C686 C 0.013 0.49014 0.21296 0.0
C687 C 0.99523 0.43885 0.17581 0.0
C688 C 0.00272 0.44117 0.15591 0.0
C689 C 0.99802 0.45372 0.18774 0.0
C690 C 0.00869 0.47128 0.18021 0.0
C691 C 0.01371 0.45879 0.14862 0.0
C692 C 0.01662 0.47365 0.16063 0.0
C693 C 0.01004 0.48705 0.1914 0.0
H694 H 0.97734 0.54242 0.17048 0.0
H695 H 0.9829 0.52391 0.19396 0.0
H696 H 0.01702 0.54462 0.12836 0.0
H697 H 0.02291 0.52669 0.15213 0.0
H698 H 0.02883 0.57706 0.21552 0.0
H699 H 0.02946 0.55168 0.19927 0.0
H700 H 0.99457 0.54221 0.2637 0.0
H701 H 0.99458 0.51654 0.24691 0.0
H702 H 0.04576 0.46342 0.22915 0.0
H703 H 0.03951 0.48263 0.20775 0.0
H704 H 0.00205 0.45332 0.26947 0.0
H705 H 0.99591 0.47268 0.24806 0.0
H706 H 0.98682 0.42549 0.18199 0.0
H707 H 0.99124 0.45139 0.20248 0.0
H708 H 0.01945 0.46112 0.13324 0.0
H709 H 0.02472 0.48703 0.15435 0.0
N710 N 0.0074 0.49866 0.18031 0.0
N711 N 0.01291 0.50452 0.22174 0.0
C712 C 0.46598 0.45825 0.14379 0.0
C713 C 0.44815 0.45239 0.14875 0.0
C714 C 0.47978 0.47016 0.15695 0.0
C715 C 0.47607 0.47637 0.17542 0.0
C716 C 0.44445 0.45872 0.16721 0.0
C717 C 0.45829 0.47068 0.18036 0.0
C718 C 0.49097 0.48962 0.18865 0.0
C719 C 0.45302 0.4587 0.24544 0.0
C720 C 0.44959 0.44126 0.24043 0.0
C721 C 0.46711 0.47387 0.23616 0.0
C722 C 0.47775 0.47192 0.22129 0.0
C723 C 0.46078 0.43951 0.22598 0.0
C724 C 0.47463 0.45468 0.21639 0.0
C725 C 0.4916 0.48782 0.21026 0.0
C726 C 0.55257 0.56099 0.23575 0.0
C727 C 0.56383 0.5567 0.24633 0.0
C728 C 0.53767 0.54759 0.22506 0.0
C729 C 0.53371 0.52968 0.22498 0.0
C730 C 0.55953 0.53867 0.24674 0.0
C731 C 0.54444 0.52521 0.23635 0.0
C732 C 0.51915 0.51582 0.21195 0.0
C733 C 0.56446 0.5521 0.16976 0.0
C734 C 0.55995 0.55981 0.15367 0.0
C735 C 0.55121 0.53834 0.18168 0.0
C736 C 0.53316 0.53242 0.17834 0.0
C737 C 0.54183 0.55363 0.15018 0.0
C738 C 0.52863 0.54015 0.16241 0.0
C739 C 0.5188 0.51735 0.19021 0.0
H740 H 0.46933 0.45392 0.1295 0.0
H741 H 0.49341 0.47457 0.15267 0.0
H742 H 0.43086 0.45443 0.17151 0.0
H743 H 0.45509 0.47571 0.19419 0.0
H744 H 0.44457 0.46068 0.25614 0.0
H745 H 0.46928 0.4871 0.24002 0.0
H746 H 0.45891 0.42644 0.22205 0.0
H747 H 0.48286 0.45295 0.20506 0.0
H748 H 0.55563 0.57481 0.23519 0.0
H749 H 0.52946 0.55126 0.21645 0.0
H750 H 0.56792 0.53502 0.25498 0.0
H751 H 0.54157 0.51145 0.23647 0.0
H752 H 0.57823 0.55655 0.17307 0.0
H753 H 0.55514 0.53214 0.19321 0.0
H754 H 0.53773 0.55883 0.13763 0.0
H755 H 0.51479 0.53562 0.15925 0.0
N756 N 0.50465 0.50424 0.17946 0.0
N757 N 0.50561 0.50103 0.22119 0.0
C758 C 0.44239 0.99993 0.2186 0.0
C759 C 0.43471 0.98668 0.23391 0.0
C760 C 0.45759 0.00281 0.20788 0.0
C761 C 0.46516 0.99228 0.21208 0.0
C762 C 0.44284 0.97678 0.23867 0.0
C763 C 0.45787 0.97955 0.22787 0.0
C764 C 0.48075 0.99437 0.20044 0.0
C765 C 0.43669 0.97507 0.15383 0.0
C766 C 0.44019 0.98584 0.13629 0.0
C767 C 0.45029 0.97837 0.16758 0.0
C768 C 0.46769 0.99298 0.1647 0.0
C769 C 0.45763 0.00048 0.13337 0.0
C770 C 0.47124 0.00396 0.14739 0.0
C771 C 0.4824 0.99577 0.17861 0.0
C772 C 0.54364 0.98508 0.16057 0.0
C773 C 0.55201 0.99754 0.14458 0.0
C774 C 0.53033 0.98516 0.17253 0.0
C775 C 0.52545 0.99805 0.16923 0.0
C776 C 0.54697 0.01033 0.14119 0.0
C777 C 0.53384 0.01057 0.15339 0.0
C778 C 0.51055 0.99757 0.1808 0.0
C779 C 0.55021 0.00591 0.23206 0.0
C780 C 0.54402 0.98991 0.24328 0.0
C781 C 0.53888 0.00776 0.21841 0.0
C782 C 0.52111 0.99377 0.21596 0.0
C783 C 0.52629 0.97578 0.24014 0.0
C784 C 0.51493 0.97783 0.22697 0.0
C785 C 0.50854 0.99553 0.20247 0.0
H786 H 0.43648 0.00781 0.21459 0.0
H787 H 0.46329 0.01311 0.19619 0.0
H788 H 0.43759 0.96684 0.25077 0.0
H789 H 0.4636 0.97144 0.23164 0.0
H790 H 0.42342 0.96383 0.15685 0.0
H791 H 0.4472 0.96919 0.18026 0.0
H792 H 0.46093 0.00891 0.1199 0.0
H793 H 0.48461 0.01511 0.14458 0.0
H794 H 0.54722 0.97509 0.16373 0.0
H795 H 0.52354 0.97477 0.18395 0.0
H796 H 0.55279 0.01987 0.12872 0.0
H797 H 0.53005 0.02041 0.15025 0.0
H798 H 0.56365 0.0172 0.23415 0.0
H799 H 0.54385 0.02023 0.21011 0.0
H800 H 0.52107 0.96302 0.24782 0.0
H801 H 0.5013 0.9668 0.22513 0.0
N802 N 0.49378 0.99407 0.2114 0.0
N803 N 0.4974 0.99762 0.16973 0.0
C804 C 0.57399 0.03389 0.78929 0.0
C805 C 0.57244 0.02323 0.77187 0.0
C806 C 0.55893 0.03017 0.80082 0.0
C807 C 0.54203 0.01575 0.7951 0.0
C808 C 0.55554 0.00873 0.76622 0.0
C809 C 0.54042 0.00516 0.77762 0.0
C810 C 0.52602 0.01269 0.80652 0.0
C811 C 0.55265 0.99348 0.84996 0.0
C812 C 0.56099 0.00513 0.86707 0.0
C813 C 0.54121 0.99579 0.83709 0.0
C814 C 0.53769 0.00966 0.84115 0.0
C815 C 0.55763 0.01923 0.87077 0.0
C816 C 0.54593 0.02129 0.85813 0.0
C817 C 0.52483 0.01156 0.82831 0.0
C818 C 0.45248 0.00113 0.84685 0.0
C819 C 0.45708 0.0134 0.86355 0.0
C820 C 0.46574 0.00088 0.83484 0.0
C821 C 0.48382 0.01294 0.83929 0.0
C822 C 0.47519 0.02541 0.86796 0.0
C823 C 0.48841 0.02509 0.85603 0.0
C824 C 0.49809 0.01251 0.82729 0.0
C825 C 0.47299 0.03235 0.78209 0.0
C826 C 0.4628 0.01929 0.76688 0.0
C827 C 0.48447 0.0301 0.79492 0.0
C828 C 0.48612 0.01486 0.79258 0.0
C829 C 0.46428 0.00392 0.76475 0.0
C830 C 0.47603 0.00185 0.77733 0.0
C831 C 0.4989 0.01291 0.80542 0.0
H832 H 0.58686 0.04508 0.79404 0.0
H833 H 0.56045 0.03881 0.81396 0.0
H834 H 0.55398 1.0004 0.75275 0.0
H835 H 0.52747 0.99413 0.7728 0.0
H836 H 0.55459 0.98229 0.84674 0.0
H837 H 0.53476 0.98645 0.82424 0.0
H838 H 0.56408 0.0288 0.88339 0.0
H839 H 0.54343 0.03211 0.86151 0.0
H840 H 0.43864 0.99173 0.84307 0.0
H841 H 0.46184 0.99108 0.82231 0.0
H842 H 0.47917 0.03481 0.88093 0.0
H843 H 0.50228 0.03439 0.85987 0.0
H844 H 0.47205 0.04429 0.78407 0.0
H845 H 0.4923 0.04041 0.80644 0.0
H846 H 0.45666 0.99374 0.75303 0.0
H847 H 0.47722 0.99006 0.77522 0.0
N848 N 0.51289 0.01309 0.79585 0.0
N849 N 0.51105 0.01176 0.8379 0.0
C850 C 0.97169 0.52678 0.7664 0.0
C851 C 0.98433 0.54535 0.76526 0.0
C852 C 0.97423 0.51579 0.77979 0.0
C853 C 0.98919 0.52315 0.79276 0.0
C854 C 0.99941 0.55264 0.7783 0.0
C855 C 0.00176 0.54165 0.79198 0.0
C856 C 0.99195 0.51112 0.80614 0.0
C857 C 0.00289 0.54829 0.86899 0.0
C858 C 0.99011 0.55309 0.86497 0.0
C859 C 0.00386 0.53542 0.85666 0.0
C860 C 0.99205 0.52691 0.84005 0.0
C861 C 0.97826 0.54456 0.84828 0.0
C862 C 0.97907 0.53144 0.83612 0.0
C863 C 0.99299 0.51266 0.82799 0.0
C864 C 0.01919 0.46914 0.86275 0.0
C865 C 0.00443 0.45287 0.86968 0.0
C866 C 0.01688 0.48017 0.84909 0.0
C867 C 0.9998 0.47527 0.84227 0.0
C868 C 0.98734 0.44802 0.8625 0.0
C869 C 0.98505 0.45927 0.84927 0.0
C870 C 0.99716 0.48748 0.82918 0.0
C871 C 0.99301 0.44381 0.78457 0.0
C872 C 0.00587 0.45102 0.76879 0.0
C873 C 0.99019 0.45521 0.79759 0.0
C874 C 1.00048 0.474 0.79533 0.0
C875 C 0.01633 0.4698 0.76679 0.0
C876 C 0.01366 0.48116 0.77993 0.0
C877 C 0.99674 0.48636 0.80737 0.0
H878 H 0.95973 0.52067 0.75702 0.0
H879 H 0.9644 0.50151 0.78016 0.0
H880 H 0.00964 0.56676 0.77766 0.0
H881 H 0.01356 0.54752 0.80164 0.0
H882 H 0.01193 0.55412 0.882 0.0
H883 H 0.01384 0.53202 0.86024 0.0
H884 H 0.96828 0.54792 0.84463 0.0
H885 H 0.9693 0.52464 0.82397 0.0
H886 H 0.03251 0.47362 0.8682 0.0
H887 H 0.02839 0.4927 0.84416 0.0
H888 H 0.97565 0.43551 0.86704 0.0
H889 H 0.97172 0.45543 0.84439 0.0
H890 H 0.98454 0.42935 0.78615 0.0
H891 H 0.97941 0.44928 0.80867 0.0
H892 H 0.02636 0.47568 0.75477 0.0
H893 H 0.02168 0.4956 0.7778 0.0
N894 N 0.99403 0.49816 0.79672 0.0
N895 N 0.99548 0.50068 0.83864 0.0
C896 C 0.55253 0.55762 0.79715 0.0
C897 C 0.56024 0.55526 0.77906 0.0
C898 C 0.54019 0.54283 0.80858 0.0
C899 C 0.53564 0.52526 0.80268 0.0
C900 C 0.55562 0.53765 0.77307 0.0
C901 C 0.5434 0.52281 0.78473 0.0
C902 C 0.5218 0.50947 0.81426 0.0
C903 C 0.56609 0.54134 0.85965 0.0
C904 C 0.56144 0.5484 0.87673 0.0
C905 C 0.55291 0.52849 0.84645 0.0
C906 C 0.53487 0.52265 0.84991 0.0
C907 C 0.54333 0.54217 0.88041 0.0
C908 C 0.53021 0.52942 0.86718 0.0
C909 C 0.52068 0.50905 0.83615 0.0
C910 C 0.45615 0.43697 0.85541 0.0
C911 C 0.44746 0.44262 0.86931 0.0
C912 C 0.47061 0.44959 0.84362 0.0
C913 C 0.47666 0.46806 0.84567 0.0
C914 C 0.45355 0.46111 0.87124 0.0
C915 C 0.46809 0.47369 0.85967 0.0
C916 C 0.49237 0.4818 0.83413 0.0
C917 C 0.44955 0.45085 0.78606 0.0
C918 C 0.45433 0.44213 0.77102 0.0
C919 C 0.46231 0.46352 0.79978 0.0
C920 C 0.48004 0.46759 0.7988 0.0
C921 C 0.47209 0.44618 0.77024 0.0
C922 C 0.48482 0.45888 0.78389 0.0
C923 C 0.49394 0.48163 0.81236 0.0
H924 H 0.5559 0.57094 0.80248 0.0
H925 H 0.53397 0.54519 0.82185 0.0
H926 H 0.56106 0.53526 0.75908 0.0
H927 H 0.53988 0.50938 0.77963 0.0
H928 H 0.57991 0.54587 0.85636 0.0
H929 H 0.55684 0.5231 0.83357 0.0
H930 H 0.53924 0.54701 0.89368 0.0
H931 H 0.51637 0.52494 0.87035 0.0
H932 H 0.45173 0.4228 0.85362 0.0
H933 H 0.47722 0.44496 0.83316 0.0
H934 H 0.44732 0.4659 0.88206 0.0
H935 H 0.47263 0.48788 0.86163 0.0
H936 H 0.43607 0.44826 0.78687 0.0
H937 H 0.45841 0.47043 0.81082 0.0
H938 H 0.47618 0.43951 0.75908 0.0
H939 H 0.49844 0.46188 0.78282 0.0
N940 N 0.50853 0.49552 0.80326 0.0
N941 N 0.50586 0.49543 0.84515 0.0
C942 C 0.67582 0.78644 0.49569 0.0
C943 C 0.6604 0.77671 0.48349 0.0
C944 C 0.67897 0.80188 0.50673 0.0
C945 C 0.66681 0.80784 0.50556 0.0
C946 C 0.64845 0.78293 0.48211 0.0
C947 C 0.65171 0.79842 0.49291 0.0
C948 C 0.66933 0.82361 0.51767 0.0
C949 C 0.65573 0.77867 0.56113 0.0
C950 C 0.67067 0.78201 0.57282 0.0
C951 C 0.65558 0.79261 0.55075 0.0
C952 C 0.67033 0.81021 0.55183 0.0
C953 C 0.68513 0.79984 0.57461 0.0
C954 C 0.68491 0.81384 0.56427 0.0
C955 C 0.67071 0.82465 0.5395 0.0
C956 C 0.6546 0.87614 0.57407 0.0
C957 C 0.66823 0.89418 0.57197 0.0
C958 C 0.65589 0.86243 0.56404 0.0
C959 C 0.67058 0.86667 0.55136 0.0
C960 C 0.68323 0.89838 0.55985 0.0
C961 C 0.68432 0.8847 0.54941 0.0
C962 C 0.67088 0.85225 0.53929 0.0
C963 C 0.67859 0.88559 0.4763 0.0
C964 C 0.66487 0.88925 0.47989 0.0
C965 C 0.68017 0.87336 0.48865 0.0
C966 C 0.66826 0.86475 0.50502 0.0
C967 C 0.65291 0.88054 0.49627 0.0
C968 C 0.65455 0.86837 0.50866 0.0
C969 C 0.66966 0.85131 0.51747 0.0
H970 H 0.68524 0.78193 0.49694 0.0
H971 H 0.69082 0.80911 0.51623 0.0
H972 H 0.63662 0.77584 0.47255 0.0
H973 H 0.6422 0.80284 0.49175 0.0
H974 H 0.64415 0.76522 0.55984 0.0
H975 H 0.64402 0.78959 0.54159 0.0
H976 H 0.69687 0.8029 0.5834 0.0
H977 H 0.69639 0.82738 0.5654 0.0
H978 H 0.64297 0.87269 0.58345 0.0
H979 H 0.64514 0.84858 0.56559 0.0
H980 H 0.69386 0.91227 0.55811 0.0
H981 H 0.69575 0.88816 0.53966 0.0
H982 H 0.68785 0.89185 0.46362 0.0
H983 H 0.69071 0.8706 0.48541 0.0
H984 H 0.64224 0.8831 0.49951 0.0
H985 H 0.6449 0.86155 0.52084 0.0
N986 N 0.66888 0.83698 0.50747 0.0
N987 N 0.67139 0.83893 0.54956 0.0
C988 C 0.12864 0.7802 0.4852 0.0
C989 C 0.11467 0.78286 0.47935 0.0
C990 C 0.14126 0.79155 0.49997 0.0
C991 C 0.14033 0.8059 0.50896 0.0
C992 C 0.1135 0.7969 0.4892 0.0
C993 C 0.12648 0.80858 0.50332 0.0
C994 C 0.15518 0.81964 0.52166 0.0
C995 C 0.11204 0.78551 0.56794 0.0
C996 C 0.11741 0.77841 0.58373 0.0
C997 C 0.1246 0.79826 0.55446 0.0
C998 C 0.1427 0.80367 0.55602 0.0
C999 C 0.13547 0.78382 0.58544 0.0
C1000 C 0.14798 0.79627 0.57164 0.0
C1001 C 0.15651 0.81845 0.54327 0.0
C1002 C 0.21916 0.89187 0.56607 0.0
C1003 C 0.2254 0.88667 0.58295 0.0
C1004 C 0.20604 0.87883 0.55293 0.0
C1005 C 0.19939 0.86037 0.55603 0.0
C1006 C 0.21872 0.86827 0.58614 0.0
C1007 C 0.2059 0.85527 0.57277 0.0
C1008 C 0.18464 0.84619 0.54319 0.0
C1009 C 0.22823 0.8787 0.49685 0.0
C1010 C 0.2234 0.88649 0.4812 0.0
C1011 C 0.21537 0.86612 0.51026 0.0
C1012 C 0.19746 0.86131 0.50847 0.0
C1013 C 0.20545 0.88165 0.47953 0.0
C1014 C 0.19264 0.86916 0.49298 0.0
C1015 C 0.18339 0.8471 0.52146 0.0
H1016 H 0.13035 0.76987 0.47783 0.0
H1017 H 0.15219 0.78961 0.50372 0.0
H1018 H 0.10276 0.79919 0.48578 0.0
H1019 H 0.12577 0.81984 0.50979 0.0
H1020 H 0.09823 0.78185 0.56668 0.0
H1021 H 0.12018 0.80451 0.54364 0.0
H1022 H 0.13992 0.77858 0.59761 0.0
H1023 H 0.16187 0.80041 0.57346 0.0
H1024 H 0.22388 0.90597 0.56356 0.0
H1025 H 0.20078 0.88322 0.54077 0.0
H1026 H 0.22331 0.86395 0.59911 0.0
H1027 H 0.2009 0.84116 0.5757 0.0
H1028 H 0.24195 0.8822 0.49865 0.0
H1029 H 0.21937 0.8599 0.52173 0.0
H1030 H 0.20117 0.88708 0.46742 0.0
H1031 H 0.17888 0.86549 0.49112 0.0
N1032 N 0.16866 0.83383 0.51164 0.0
N1033 N 0.17122 0.83178 0.55312 0.0
C1034 C 0.2334 0.36011 0.49694 0.0
C1035 C 0.23348 0.34739 0.48308 0.0
C1036 C 0.21871 0.35548 0.50956 0.0
C1037 C 0.20419 0.33778 0.5096 0.0
C1038 C 0.21882 0.32955 0.48323 0.0
C1039 C 0.20432 0.32479 0.49645 0.0
C1040 C 0.18795 0.33379 0.52095 0.0
C1041 C 0.19766 0.30497 0.58083 0.0
C1042 C 0.21631 0.31616 0.58211 0.0
C1043 C 0.18778 0.30879 0.56717 0.0
C1044 C 0.19613 0.32405 0.55455 0.0
C1045 C 0.2247 0.33133 0.56923 0.0
C1046 C 0.21471 0.3354 0.55597 0.0
C1047 C 0.18476 0.32848 0.54192 0.0
C1048 C 0.10966 0.30833 0.55801 0.0
C1049 C 0.11167 0.31968 0.57491 0.0
C1050 C 0.12454 0.31123 0.54662 0.0
C1051 C 0.14159 0.32536 0.55222 0.0
C1052 C 0.12875 0.33386 0.58037 0.0
C1053 C 0.14363 0.33653 0.56926 0.0
C1054 C 0.15747 0.32844 0.5407 0.0
C1055 C 0.12622 0.34532 0.50318 0.0
C1056 C 0.12059 0.33623 0.48399 0.0
C1057 C 0.13974 0.34514 0.51437 0.0
C1058 C 0.14749 0.33535 0.50693 0.0
C1059 C 0.12919 0.32752 0.47585 0.0
C1060 C 0.14249 0.32706 0.48725 0.0
C1061 C 0.16041 0.33329 0.51965 0.0
H1062 H 0.24454 0.37384 0.49781 0.0
H1063 H 0.21863 0.36577 0.5193 0.0
H1064 H 0.21813 0.31941 0.47258 0.0
H1065 H 0.19294 0.31117 0.49585 0.0
H1066 H 0.19048 0.29344 0.59075 0.0
H1067 H 0.17344 0.2999 0.56678 0.0
H1068 H 0.23901 0.34027 0.56946 0.0
H1069 H 0.2216 0.34782 0.54759 0.0
H1070 H 0.09658 0.29731 0.55357 0.0
H1071 H 0.12279 0.30241 0.53359 0.0
H1072 H 0.1306 0.34264 0.59349 0.0
H1073 H 0.15673 0.34744 0.57381 0.0
H1074 H 0.12004 0.35242 0.50963 0.0
H1075 H 0.14389 0.35242 0.52901 0.0
H1076 H 0.1251 0.32041 0.46109 0.0
H1077 H 0.14841 0.31963 0.481 0.0
N1078 N 0.1756 0.33579 0.5106 0.0
N1079 N 0.16963 0.32613 0.5509 0.0
H1080 H 0.01549 0.3895 0.05993 0.0
H1081 H 0.95902 0.34981 0.06511 0.0
H1082 H 0.95747 0.36483 0.09712 0.0
H1083 H 0.02528 0.39526 0.116 0.0
H1084 H 0.04068 0.41916 0.11395 0.0
H1085 H 0.03784 0.40429 0.09249 0.0
H1086 H 0.03024 0.42309 0.06847 0.0
H1087 H 0.033 0.43796 0.08983 0.0
H1088 H 0.01238 0.42679 0.0755 0.0
H1089 H 0.96128 0.38527 0.12677 0.0
H1090 H 0.97012 0.41024 0.1518 0.0
H1091 H 0.02426 0.43659 0.12809 0.0
C1092 C 0.00286 0.38378 0.06797 0.0
C1093 C 0.98739 0.36844 0.05997 0.0
C1094 C 0.97106 0.36156 0.07085 0.0
C1095 C 0.97005 0.36994 0.08913 0.0
C1096 C 0.98546 0.38517 0.09641 0.0
C1097 C 0.00158 0.39204 0.08623 0.0
C1098 C 0.01586 0.40926 0.09665 0.0
C1099 C 0.0308 0.40684 0.10529 0.0
C1100 C 0.0233 0.42521 0.08172 0.0
C1101 C 0.00513 0.41121 0.11394 0.0
C1102 C 0.98768 0.39705 0.11365 0.0
C1103 C 0.97498 0.39629 0.1274 0.0
C1104 C 0.98018 0.41052 0.14168 0.0
C1105 C 0.99794 0.42536 0.1421 0.0
C1106 C 0.01058 0.42549 0.12818 0.0
H1107 H 0.59963 0.63879 0.07128 0.0
H1108 H 0.64255 0.62812 0.06125 0.0
H1109 H 0.63106 0.60643 0.08967 0.0
H1110 H 0.59823 0.63465 0.12839 0.0
H1111 H 0.57431 0.62399 0.12919 0.0
H1112 H 0.58683 0.63996 0.10924 0.0
H1113 H 0.56766 0.61608 0.08118 0.0
H1114 H 0.55518 0.60001 0.101 0.0
H1115 H 0.56616 0.5945 0.08098 0.0
H1116 H 0.6132 0.58352 0.11624 0.0
H1117 H 0.5909 0.56187 0.14041 0.0
H1118 H 0.56056 0.58863 0.13507 0.0
C1119 C 0.60679 0.63212 0.07525 0.0
C1120 C 0.62199 0.63518 0.06395 0.0
C1121 C 0.6309 0.62608 0.06965 0.0
C1122 C 0.62449 0.61371 0.08581 0.0
C1123 C 0.6093 0.61074 0.09633 0.0
C1124 C 0.60067 0.61982 0.09148 0.0
C1125 C 0.58416 0.61355 0.10467 0.0
C1126 C 0.586 0.62895 0.11871 0.0
C1127 C 0.5673 0.60556 0.09115 0.0
C1128 C 0.58458 0.59913 0.11718 0.0
C1129 C 0.59924 0.59781 0.1122 0.0
C1130 C 0.60188 0.58467 0.12065 0.0
C1131 C 0.58914 0.57249 0.13452 0.0
C1132 C 0.57396 0.57355 0.13994 0.0
C1133 C 0.57189 0.58728 0.13127 0.0
H1134 H 0.38502 0.002 0.04867 0.0
H1135 H 0.35153 0.94361 0.04451 0.0
H1136 H 0.3688 0.94071 0.07221 0.0
H1137 H 0.42592 0.0035 0.05759 0.0
H1138 H 0.43461 0.022 0.07601 0.0
H1139 H 0.41919 0.01996 0.05632 0.0
H1140 H 0.3982 0.02041 0.08452 0.0
H1141 H 0.41362 0.02258 0.10431 0.0
H1142 H 0.39072 0.0044 0.10522 0.0
H1143 H 0.39033 0.94351 0.09846 0.0
H1144 H 0.41432 0.95202 0.1236 0.0
H1145 H 0.43382 0.00866 0.11289 0.0
C1146 C 0.38121 0.98863 0.05375 0.0
C1147 C 0.36689 0.97305 0.04422 0.0
C1148 C 0.36245 0.9558 0.05134 0.0
C1149 C 0.37218 0.95396 0.06714 0.0
C1150 C 0.38634 0.96948 0.0759 0.0
C1151 C 0.39083 0.9865 0.06967 0.0
C1152 C 0.40693 0.00086 0.08168 0.0
C1153 C 0.42259 0.01225 0.06702 0.0
C1154 C 0.40207 0.01276 0.09471 0.0
C1155 C 0.41082 0.98916 0.09535 0.0
C1156 C 0.39872 0.97112 0.09167 0.0
C1157 C 0.39973 0.95761 0.10177 0.0
C1158 C 0.41339 0.96262 0.11619 0.0
C1159 C 0.42587 0.98104 0.12066 0.0
C1160 C 0.42455 0.99447 0.10992 0.0
H1161 H 0.37215 0.96969 0.93755 0.0
H1162 H 0.38543 0.02408 0.95425 0.0
H1163 H 0.40967 0.03623 0.92846 0.0
H1164 H 0.41615 0.97946 0.9321 0.0
H1165 H 0.41161 0.96425 0.91044 0.0
H1166 H 0.39429 0.95973 0.92885 0.0
H1167 H 0.37397 0.95857 0.89915 0.0
H1168 H 0.39124 0.96307 0.88061 0.0
H1169 H 0.38196 0.97744 0.88204 0.0
H1170 H 0.43375 0.04258 0.90257 0.0
H1171 H 0.45584 0.04259 0.87845 0.0
H1172 H 0.42699 0.98412 0.879 0.0
C1173 C 0.37994 0.98415 0.93559 0.0
C1174 C 0.3768 0.9959 0.94794 0.0
C1175 C 0.38753 0.01477 0.94501 0.0
C1176 C 0.40132 0.02181 0.93034 0.0
C1177 C 0.4042 0.00985 0.91868 0.0
C1178 C 0.39378 0.99141 0.92108 0.0
C1179 C 0.40024 0.98152 0.90742 0.0
C1180 C 0.40591 0.9706 0.92048 0.0
C1181 C 0.386 0.96944 0.89135 0.0
C1182 C 0.41612 0.99729 0.89721 0.0
C1183 C 0.41811 0.0135 0.9038 0.0
C1184 C 0.43225 0.02996 0.89718 0.0
C1185 C 0.44478 0.02983 0.88359 0.0
C1186 C 0.44311 0.01336 0.87682 0.0
C1187 C 0.42845 0.99691 0.8836 0.0
H1188 H 0.97554 0.38185 0.961 0.0
H1189 H 0.02688 0.38593 0.95481 0.0
H1190 H 0.03496 0.40799 0.92678 0.0
H1191 H 0.96805 0.38517 0.90753 0.0
H1192 H 0.95819 0.39879 0.91204 0.0
H1193 H 0.95649 0.38331 0.93147 0.0
H1194 H 0.97082 0.40942 0.95857 0.0
H1195 H 0.97246 0.42496 0.93926 0.0
H1196 H 0.99209 0.4292 0.95308 0.0
H1197 H 0.03659 0.42845 0.89803 0.0
H1198 H 0.03272 0.4473 0.87293 0.0
H1199 H 0.98134 0.4317 0.90046 0.0
C1200 C 0.98849 0.38737 0.95374 0.0
C1201 C 1.00055 0.38209 0.95997 0.0
C1202 C 0.01746 0.38981 0.95029 0.0
C1203 C 0.02213 0.4023 0.93432 0.0
C1204 C 0.00985 0.40712 0.92846 0.0
C1205 C 0.99348 0.40006 0.93808 0.0
C1206 C 0.98287 0.40779 0.92934 0.0
C1207 C 0.96537 0.39287 0.91951 0.0
C1208 C 0.97936 0.41848 0.94606 0.0
C1209 C 0.99571 0.42011 0.91306 0.0
C1210 C 0.01114 0.41946 0.91267 0.0
C1211 C 0.02466 0.42926 0.89842 0.0
C1212 C 0.02237 0.44007 0.88429 0.0
C1213 C 0.00675 0.44121 0.88462 0.0
C1214 C 0.99335 0.43106 0.89938 0.0
H1215 H 0.60206 0.6318 0.95537 0.0
H1216 H 0.64357 0.62033 0.96989 0.0
H1217 H 0.63164 0.59623 0.94301 0.0
H1218 H 0.56755 0.58704 0.94816 0.0
H1219 H 0.55723 0.59173 0.92709 0.0
H1220 H 0.56986 0.60891 0.94631 0.0
H1221 H 0.58983 0.63061 0.91752 0.0
H1222 H 0.57719 0.6135 0.89818 0.0
H1223 H 0.60102 0.62351 0.89959 0.0
H1224 H 0.61371 0.5719 0.91608 0.0
H1225 H 0.59156 0.54975 0.89129 0.0
H1226 H 0.56257 0.57804 0.8942 0.0
C1227 C 0.60881 0.62439 0.95283 0.0
C1228 C 0.62376 0.62798 0.96482 0.0
C1229 C 0.63212 0.61787 0.96091 0.0
C1230 C 0.62545 0.60416 0.94566 0.0
C1231 C 0.61052 0.60083 0.93437 0.0
C1232 C 0.6024 0.61075 0.9377 0.0
C1233 C 0.58617 0.60415 0.92409 0.0
C1234 C 0.5692 0.59756 0.9372 0.0
C1235 C 0.58871 0.61882 0.90894 0.0
C1236 C 0.58616 0.58868 0.91286 0.0
C1237 C 0.60035 0.58701 0.91886 0.0
C1238 C 0.60267 0.57322 0.91109 0.0
C1239 C 0.59006 0.56075 0.89695 0.0
C1240 C 0.57531 0.56214 0.89079 0.0
C1241 C 0.57357 0.57647 0.89874 0.0
H1242 H 0.02524 0.63092 0.95084 0.0
H1243 H 0.97014 0.6157 0.96116 0.0
H1244 H 0.961 0.59495 0.93103 0.0
H1245 H 0.02272 0.62798 0.89331 0.0
H1246 H 0.03732 0.61907 0.89173 0.0
H1247 H 0.03977 0.63429 0.91262 0.0
H1248 H 0.03655 0.61071 0.93922 0.0
H1249 H 0.03395 0.59539 0.91848 0.0
H1250 H 0.01712 0.58834 0.93829 0.0
H1251 H 0.95737 0.57307 0.90269 0.0
H1252 H 0.95973 0.55263 0.87757 0.0
H1253 H 0.01734 0.58331 0.88433 0.0
C1254 C 0.01129 0.62351 0.94656 0.0
C1255 C 0.99843 0.62497 0.95846 0.0
C1256 C 0.98029 0.61489 0.95233 0.0
C1257 C 0.97494 0.60306 0.93519 0.0
C1258 C 0.9879 0.60161 0.92415 0.0
C1259 C 0.00573 0.61173 0.92942 0.0
C1260 C 0.01686 0.6069 0.91577 0.0
C1261 C 0.02994 0.62302 0.90257 0.0
C1262 C 0.02669 0.59992 0.92872 0.0
C1263 C 0.00243 0.59203 0.90251 0.0
C1264 C 0.98583 0.58927 0.90746 0.0
C1265 C 0.97034 0.57536 0.89835 0.0
C1266 C 0.97184 0.56386 0.88397 0.0
C1267 C 0.98873 0.56633 0.87878 0.0
C1268 C 0.00419 0.58088 0.88798 0.0
H1269 H 0.40106 0.3671 0.95518 0.0
H1270 H 0.35854 0.37903 0.9574 0.0
H1271 H 0.37227 0.39965 0.9281 0.0
H1272 H 0.43572 0.41113 0.94533 0.0
H1273 H 0.44784 0.40462 0.92811 0.0
H1274 H 0.43383 0.38949 0.94794 0.0
H1275 H 0.41649 0.36455 0.92015 0.0
H1276 H 0.43049 0.37962 0.9002 0.0
H1277 H 0.40663 0.36913 0.89851 0.0
H1278 H 0.39181 0.4208 0.90049 0.0
H1279 H 0.41574 0.44083 0.87642 0.0
H1280 H 0.44548 0.41515 0.89205 0.0
C1281 C 0.39444 0.3738 0.94933 0.0
C1282 C 0.37866 0.37136 0.95865 0.0
C1283 C 0.37061 0.38061 0.95058 0.0
C1284 C 0.37828 0.39234 0.93388 0.0
C1285 C 0.39397 0.39464 0.9253 0.0
C1286 C 0.40192 0.38557 0.93268 0.0
C1287 C 0.41925 0.39118 0.92145 0.0
C1288 C 0.43509 0.39961 0.93661 0.0
C1289 C 0.41814 0.37516 0.90936 0.0
C1290 C 0.42 0.40511 0.90693 0.0
C1291 C 0.40522 0.4068 0.9093 0.0
C1292 C 0.40335 0.41947 0.89835 0.0
C1293 C 0.41704 0.43083 0.8848 0.0
C1294 C 0.43241 0.42948 0.88231 0.0
C1295 C 0.43373 0.41625 0.89334 0.0
H1296 H 0.61233 0.017 0.97263 0.0
H1297 H 0.64199 0.99586 0.94168 0.0
H1298 H 0.62325 0.98923 0.91023 0.0
H1299 H 0.56834 0.98432 0.94918 0.0
H1300 H 0.56213 0.00118 0.94802 0.0
H1301 H 0.57667 0.00226 0.96832 0.0
H1302 H 0.60008 0.03485 0.9577 0.0
H1303 H 0.5858 0.03379 0.93718 0.0
H1304 H 0.60816 0.0391 0.9314 0.0
H1305 H 0.60377 0.98917 0.88075 0.0
H1306 H 0.58378 0.99279 0.85724 0.0
H1307 H 0.56551 0.01171 0.90916 0.0
C1308 C 0.61458 0.01057 0.95938 0.0
C1309 C 0.6285 0.00686 0.95945 0.0
C1310 C 0.63121 0.99856 0.9419 0.0
C1311 C 0.6207 0.99486 0.924 0.0
C1312 C 0.60737 0.99921 0.92422 0.0
C1313 C 0.60406 0.00651 0.94169 0.0
C1314 C 0.58946 0.01057 0.93795 0.0
C1315 C 0.57318 0.99888 0.95168 0.0
C1316 C 0.59629 0.03077 0.94125 0.0
C1317 C 0.58545 0.00508 0.91539 0.0
C1318 C 0.59585 0.99854 0.90768 0.0
C1319 C 0.59528 0.99388 0.88679 0.0
C1320 C 0.58378 0.99592 0.87355 0.0
C1321 C 0.57289 0.0025 0.88121 0.0
C1322 C 0.57371 0.00688 0.90254 0.0
H1323 H 0.63374 0.03649 0.06612 0.0
H1324 H 0.61973 0.98125 0.05323 0.0
H1325 H 0.59659 0.97068 0.08031 0.0
H1326 H 0.6264 0.03157 0.12242 0.0
H1327 H 0.61749 0.04627 0.12339 0.0
H1328 H 0.6339 0.04958 0.10414 0.0
H1329 H 0.61249 0.04735 0.07518 0.0
H1330 H 0.59599 0.04391 0.09429 0.0
H1331 H 0.59042 0.02768 0.07351 0.0
H1332 H 0.57313 0.9659 0.10628 0.0
H1333 H 0.55182 0.96733 0.13022 0.0
H1334 H 0.58218 0.02581 0.12742 0.0
C1335 C 0.62598 0.02218 0.06912 0.0
C1336 C 0.62855 0.00971 0.05747 0.0
C1337 C 0.61806 0.99109 0.06194 0.0
C1338 C 0.60488 0.98494 0.07731 0.0
C1339 C 0.60249 0.99758 0.08821 0.0
C1340 C 0.61287 0.01582 0.08447 0.0
C1341 C 0.60718 0.02654 0.09781 0.0
C1342 C 0.62213 0.03924 0.11283 0.0
C1343 C 0.60116 0.03698 0.08439 0.0
C1344 C 0.59166 0.01143 0.10922 0.0
C1345 C 0.58922 0.99484 0.10355 0.0
C1346 C 0.57511 0.97884 0.11116 0.0
C1347 C 0.56312 0.97982 0.12487 0.0
C1348 C 0.56534 0.9967 0.13092 0.0
C1349 C 0.57998 0.01268 0.12308 0.0
H1350 H 0.02486 0.62217 0.06479 0.0
H1351 H 0.96886 0.60375 0.05604 0.0
H1352 H 0.96103 0.58083 0.08306 0.0
H1353 H 0.0197 0.57922 0.07171 0.0
H1354 H 0.03705 0.5871 0.09094 0.0
H1355 H 0.03802 0.60223 0.0715 0.0
H1356 H 0.0401 0.62458 0.10021 0.0
H1357 H 0.03915 0.60952 0.11976 0.0
H1358 H 0.02323 0.61683 0.12006 0.0
H1359 H 0.95963 0.55931 0.11093 0.0
H1360 H 0.96473 0.54119 0.13617 0.0
H1361 H 0.02172 0.5746 0.12618 0.0
C1362 C 0.0109 0.6134 0.06848 0.0
C1363 C 0.99748 0.61481 0.05818 0.0
C1364 C 0.97941 0.60297 0.06366 0.0
C1365 C 0.97484 0.58992 0.07901 0.0
C1366 C 0.98849 0.58893 0.08876 0.0
C1367 C 0.00615 0.60041 0.08366 0.0
C1368 C 0.01839 0.59656 0.09601 0.0
C1369 C 0.02891 0.59094 0.08168 0.0
C1370 C 0.03095 0.61284 0.10983 0.0
C1371 C 0.00489 0.58095 0.10879 0.0
C1372 C 0.9877 0.57674 0.10454 0.0
C1373 C 0.97306 0.56258 0.11441 0.0
C1374 C 0.97609 0.55242 0.1288 0.0
C1375 C 0.99362 0.55641 0.13314 0.0
C1376 C 0.00814 0.57101 0.12306 0.0
H1377 H 0.40054 0.37342 0.06458 0.0
H1378 H 0.36112 0.3891 0.05675 0.0
H1379 H 0.37564 0.41208 0.08456 0.0
H1380 H 0.40451 0.37926 0.12048 0.0
H1381 H 0.42815 0.38789 0.12025 0.0
H1382 H 0.41413 0.37216 0.1004 0.0
H1383 H 0.43378 0.39476 0.07214 0.0
H1384 H 0.44783 0.41056 0.09187 0.0
H1385 H 0.43752 0.4173 0.07285 0.0
H1386 H 0.39535 0.43424 0.11236 0.0
H1387 H 0.41876 0.45392 0.13754 0.0
H1388 H 0.44473 0.42315 0.12726 0.0
C1389 C 0.39482 0.38155 0.06875 0.0
C1390 C 0.37965 0.3794 0.05842 0.0
C1391 C 0.37272 0.39046 0.06439 0.0
C1392 C 0.38086 0.40353 0.08021 0.0
C1393 C 0.39586 0.40535 0.08993 0.0
C1394 C 0.40274 0.39463 0.08445 0.0
C1395 C 0.41928 0.39958 0.09683 0.0
C1396 C 0.41633 0.38378 0.11029 0.0
C1397 C 0.43556 0.40593 0.08257 0.0
C1398 C 0.42081 0.41495 0.10996 0.0
C1399 C 0.40713 0.41802 0.10588 0.0
C1400 C 0.40603 0.43185 0.11581 0.0
C1401 C 0.41933 0.44289 0.13017 0.0
C1402 C 0.43358 0.44007 0.1344 0.0
C1403 C 0.43413 0.42577 0.12424 0.0
H1404 H 0.67661 0.72119 0.39565 0.0
H1405 H 0.62105 0.67948 0.40318 0.0
H1406 H 0.61892 0.69571 0.43374 0.0
H1407 H 0.68722 0.73145 0.45175 0.0
H1408 H 0.70135 0.75527 0.44735 0.0
H1409 H 0.69928 0.73922 0.42772 0.0
H1410 H 0.68971 0.75467 0.40104 0.0
H1411 H 0.6917 0.7707 0.42055 0.0
H1412 H 0.67098 0.75732 0.40677 0.0
H1413 H 0.62168 0.7177 0.46084 0.0
H1414 H 0.62923 0.74437 0.48278 0.0
H1415 H 0.68289 0.77204 0.45789 0.0
C1416 C 0.66412 0.71525 0.40401 0.0
C1417 C 0.64901 0.69902 0.39704 0.0
C1418 C 0.6328 0.6919 0.40819 0.0
C1419 C 0.63148 0.70097 0.42565 0.0
C1420 C 0.64648 0.71712 0.43183 0.0
C1421 C 0.66252 0.7242 0.42143 0.0
C1422 C 0.67617 0.74254 0.43025 0.0
C1423 C 0.69194 0.74209 0.43984 0.0
C1424 C 0.6825 0.75716 0.41367 0.0
C1425 C 0.66509 0.74489 0.44677 0.0
C1426 C 0.64808 0.72995 0.44758 0.0
C1427 C 0.63503 0.72938 0.46058 0.0
C1428 C 0.63939 0.74459 0.47288 0.0
C1429 C 0.65663 0.76016 0.47203 0.0
C1430 C 0.66972 0.76016 0.45909 0.0
H1431 H 0.2646 0.96622 0.39959 0.0
H1432 H 0.30002 0.94747 0.37997 0.0
H1433 H 0.28798 0.92481 0.40742 0.0
H1434 H 0.26706 0.96018 0.45502 0.0
H1435 H 0.2439 0.95268 0.45934 0.0
H1436 H 0.25594 0.96813 0.43879 0.0
H1437 H 0.2323 0.94617 0.41228 0.0
H1438 H 0.2202 0.93066 0.43273 0.0
H1439 H 0.22729 0.9232 0.41037 0.0
H1440 H 0.27118 0.9032 0.43582 0.0
H1441 H 0.25036 0.88384 0.46286 0.0
H1442 H 0.22635 0.91701 0.46462 0.0
C1443 C 0.26994 0.95746 0.40113 0.0
C1444 C 0.28327 0.95868 0.38755 0.0
C1445 C 0.2898 0.94685 0.39011 0.0
C1446 C 0.28309 0.93393 0.40572 0.0
C1447 C 0.26989 0.93303 0.41872 0.0
C1448 C 0.26339 0.94447 0.41663 0.0
C1449 C 0.24876 0.94026 0.43221 0.0
C1450 C 0.25425 0.95626 0.44723 0.0
C1451 C 0.23109 0.93474 0.42124 0.0
C1452 C 0.24785 0.92446 0.44311 0.0
C1453 C 0.26024 0.92059 0.4352 0.0
C1454 C 0.26155 0.90621 0.44232 0.0
C1455 C 0.24972 0.89536 0.45779 0.0
C1456 C 0.23674 0.89892 0.46598 0.0
C1457 C 0.23602 0.91383 0.45862 0.0
H1458 H 0.06355 0.33579 0.38727 0.0
H1459 H 0.01766 0.3122 0.42798 0.0
H1460 H 0.0371 0.31591 0.45761 0.0
H1461 H 0.08336 0.31309 0.40909 0.0
H1462 H 0.10602 0.33138 0.40611 0.0
H1463 H 0.08903 0.32911 0.38867 0.0
H1464 H 0.09688 0.36164 0.39794 0.0
H1465 H 0.11397 0.36405 0.41537 0.0
H1466 H 0.09674 0.36792 0.42469 0.0
H1467 H 0.06123 0.3213 0.48247 0.0
H1468 H 0.08799 0.3256 0.50046 0.0
H1469 H 0.11797 0.34337 0.44317 0.0
C1470 C 0.05774 0.33182 0.40255 0.0
C1471 C 0.03922 0.32404 0.40556 0.0
C1472 C 0.03188 0.31837 0.42553 0.0
C1473 C 0.04281 0.32046 0.4424 0.0
C1474 C 0.061 0.32795 0.43894 0.0
C1475 C 0.06842 0.33339 0.41948 0.0
C1476 C 0.08806 0.33943 0.41962 0.0
C1477 C 0.09183 0.32754 0.40501 0.0
C1478 C 0.09959 0.35945 0.41408 0.0
C1479 C 0.09048 0.33641 0.44213 0.0
C1480 C 0.07477 0.3301 0.45306 0.0
C1481 C 0.07362 0.32628 0.47409 0.0
C1482 C 0.08888 0.32881 0.48418 0.0
C1483 C 0.10501 0.33483 0.4732 0.0
C1484 C 0.10578 0.33871 0.4519 0.0
H1485 H 0.05502 0.34106 0.30413 0.0
H1486 H 0.01669 0.28351 0.30006 0.0
H1487 H 0.03317 0.28084 0.27051 0.0
H1488 H 0.06258 0.34835 0.24839 0.0
H1489 H 0.08604 0.36444 0.25142 0.0
H1490 H 0.07066 0.36215 0.27157 0.0
H1491 H 0.08895 0.35616 0.29817 0.0
H1492 H 0.10434 0.35837 0.27811 0.0
H1493 H 0.09326 0.33817 0.29325 0.0
H1494 H 0.05436 0.28389 0.24265 0.0
H1495 H 0.07914 0.29252 0.21824 0.0
H1496 H 0.10377 0.34814 0.23975 0.0
C1497 C 0.04996 0.32792 0.29689 0.0
C1498 C 0.03451 0.3125 0.30448 0.0
C1499 C 0.02849 0.29554 0.29464 0.0
C1500 C 0.03774 0.29387 0.27777 0.0
C1501 C 0.05299 0.30926 0.27086 0.0
C1502 C 0.05908 0.32597 0.28005 0.0
C1503 C 0.07625 0.34022 0.27003 0.0
C1504 C 0.07372 0.35464 0.25974 0.0
C1505 C 0.0916 0.34873 0.28584 0.0
C1506 C 0.07895 0.32882 0.25399 0.0
C1507 C 0.0653 0.31103 0.25467 0.0
C1508 C 0.06503 0.29782 0.24179 0.0
C1509 C 0.07914 0.3029 0.22786 0.0
C1510 C 0.09337 0.32105 0.22688 0.0
C1511 C 0.09315 0.33415 0.24013 0.0
H1512 H 0.63508 0.705 0.29107 0.0
H1513 H 0.69091 0.72331 0.30123 0.0
H1514 H 0.69942 0.74749 0.27592 0.0
H1515 H 0.63839 0.71384 0.236 0.0
H1516 H 0.6226 0.72131 0.23688 0.0
H1517 H 0.6209 0.705 0.25514 0.0
H1518 H 0.6222 0.72563 0.28552 0.0
H1519 H 0.62396 0.74202 0.26737 0.0
H1520 H 0.64064 0.74856 0.28721 0.0
H1521 H 0.70187 0.77017 0.25003 0.0
H1522 H 0.69809 0.7899 0.22609 0.0
H1523 H 0.64069 0.75683 0.233 0.0
C1524 C 0.64911 0.71397 0.28788 0.0
C1525 C 0.66232 0.71216 0.29816 0.0
C1526 C 0.68052 0.72437 0.2936 0.0
C1527 C 0.6855 0.73814 0.27921 0.0
C1528 C 0.67214 0.7396 0.26951 0.0
C1529 C 0.65432 0.72785 0.27367 0.0
C1530 C 0.64258 0.73264 0.2616 0.0
C1531 C 0.6304 0.71728 0.24651 0.0
C1532 C 0.63171 0.7375 0.27631 0.0
C1533 C 0.65659 0.74901 0.25011 0.0
C1534 C 0.67355 0.75274 0.25478 0.0
C1535 C 0.68865 0.76731 0.24618 0.0
C1536 C 0.68636 0.77839 0.2325 0.0
C1537 C 0.66909 0.77491 0.22759 0.0
C1538 C 0.65406 0.75995 0.23654 0.0
H1539 H 0.25299 0.95719 0.29604 0.0
H1540 H 0.30583 0.97514 0.27194 0.0
H1541 H 0.2927 0.95962 0.23856 0.0
H1542 H 0.23348 0.91334 0.27436 0.0
H1543 H 0.21223 0.91107 0.26909 0.0
H1544 H 0.22586 0.92554 0.28997 0.0
H1545 H 0.22491 0.95232 0.27404 0.0
H1546 H 0.21134 0.93793 0.25301 0.0
H1547 H 0.23196 0.95848 0.24762 0.0
H1548 H 0.27386 0.94141 0.20831 0.0
H1549 H 0.25049 0.91856 0.18495 0.0
H1550 H 0.21 0.91043 0.22978 0.0
C1551 C 0.26174 0.95808 0.28356 0.0
C1552 C 0.28038 0.96751 0.28632 0.0
C1553 C 0.29149 0.96801 0.26997 0.0
C1554 C 0.28417 0.95935 0.25097 0.0
C1555 C 0.26571 0.95005 0.24871 0.0
C1556 C 0.25462 0.94912 0.26467 0.0
C1557 C 0.23521 0.93662 0.25903 0.0
C1558 C 0.22617 0.9207 0.274 0.0
C1559 C 0.22527 0.94696 0.25839 0.0
C1560 C 0.23714 0.93051 0.23755 0.0
C1561 C 0.25483 0.93875 0.23169 0.0
C1562 C 0.25996 0.93495 0.21266 0.0
C1563 C 0.24667 0.92207 0.19949 0.0
C1564 C 0.22861 0.91301 0.20564 0.0
C1565 C 0.22377 0.91742 0.22475 0.0
H1566 H 0.65662 0.9558 0.29786 0.0
H1567 H 0.71354 0.99463 0.29609 0.0
H1568 H 0.7168 0.97777 0.26711 0.0
H1569 H 0.65956 0.91739 0.28863 0.0
H1570 H 0.64007 0.90579 0.27238 0.0
H1571 H 0.64163 0.92176 0.29174 0.0
H1572 H 0.63654 0.93967 0.26365 0.0
H1573 H 0.63483 0.92365 0.2442 0.0
H1574 H 0.65081 0.94732 0.2412 0.0
H1575 H 0.71467 0.95555 0.24082 0.0
H1576 H 0.70703 0.92959 0.21784 0.0
H1577 H 0.65133 0.9054 0.23524 0.0
C1578 C 0.66971 0.96094 0.29113 0.0
C1579 C 0.68481 0.97656 0.29934 0.0
C1580 C 0.70174 0.98269 0.2902 0.0
C1581 C 0.70376 0.97323 0.27365 0.0
C1582 C 0.68872 0.95771 0.26626 0.0
C1583 C 0.67199 0.95164 0.27454 0.0
C1584 C 0.65821 0.93403 0.26429 0.0
C1585 C 0.64935 0.91885 0.28021 0.0
C1586 C 0.64428 0.93631 0.25264 0.0
C1587 C 0.66993 0.93098 0.24939 0.0
C1588 C 0.68745 0.94488 0.25071 0.0
C1589 C 0.70094 0.94472 0.23931 0.0
C1590 C 0.69642 0.92993 0.22619 0.0
C1591 C 0.67853 0.91546 0.22446 0.0
C1592 C 0.66514 0.91616 0.23619 0.0
H1593 H 0.058 0.7289 0.30061 0.0
H1594 H 0.03913 0.67932 0.26525 0.0
H1595 H 0.05307 0.69694 0.23357 0.0
H1596 H 0.05449 0.75594 0.26005 0.0
H1597 H 0.075 0.77607 0.2674 0.0
H1598 H 0.06185 0.75959 0.28663 0.0
H1599 H 0.08919 0.75722 0.29656 0.0
H1600 H 0.10241 0.77368 0.27739 0.0
H1601 H 0.1005 0.75192 0.27675 0.0
H1602 H 0.06944 0.72001 0.20603 0.0
H1603 H 0.08986 0.74672 0.18537 0.0
H1604 H 0.10033 0.78117 0.23945 0.0
C1605 C 0.05659 0.72184 0.28607 0.0
C1606 C 0.04733 0.70285 0.28508 0.0
C1607 C 0.04611 0.69391 0.26609 0.0
C1608 C 0.0539 0.70379 0.24808 0.0
C1609 C 0.06311 0.72256 0.24953 0.0
C1610 C 0.0647 0.73151 0.2681 0.0
C1611 C 0.07671 0.75171 0.2659 0.0
C1612 C 0.06639 0.76139 0.27025 0.0
C1613 C 0.09318 0.75906 0.27998 0.0
C1614 C 0.08171 0.75273 0.24324 0.0
C1615 C 0.07343 0.7358 0.23397 0.0
C1616 C 0.07599 0.73332 0.21311 0.0
C1617 C 0.08753 0.74853 0.2015 0.0
C1618 C 0.09658 0.76588 0.21089 0.0
C1619 C 0.09354 0.768 0.23197 0.0
H1620 H 0.30225 0.36791 0.28605 0.0
H1621 H 0.28459 0.31247 0.30112 0.0
H1622 H 0.25994 0.30196 0.2758 0.0
H1623 H 0.25943 0.36209 0.28204 0.0
H1624 H 0.26529 0.3776 0.26103 0.0
H1625 H 0.28206 0.38052 0.27925 0.0
H1626 H 0.30142 0.37971 0.24911 0.0
H1627 H 0.28472 0.37682 0.23077 0.0
H1628 H 0.29201 0.36078 0.23126 0.0
H1629 H 0.23663 0.29778 0.2491 0.0
H1630 H 0.21627 0.30034 0.22489 0.0
H1631 H 0.24944 0.35862 0.22839 0.0
C1632 C 0.29337 0.35352 0.28395 0.0
C1633 C 0.29547 0.34101 0.29555 0.0
C1634 C 0.28331 0.32232 0.29241 0.0
C1635 C 0.2693 0.31623 0.27802 0.0
C1636 C 0.2676 0.329 0.26697 0.0
C1637 C 0.27932 0.34725 0.26986 0.0
C1638 C 0.27428 0.35833 0.25687 0.0
C1639 C 0.27001 0.37034 0.27062 0.0
C1640 C 0.28898 0.36957 0.24107 0.0
C1641 C 0.25775 0.34349 0.24629 0.0
C1642 C 0.25416 0.32664 0.25211 0.0
C1643 C 0.23939 0.31091 0.24441 0.0
C1644 C 0.22795 0.3125 0.2306 0.0
C1645 C 0.23125 0.32968 0.2248 0.0
C1646 C 0.24646 0.3453 0.23267 0.0
H1647 H 0.29626 0.33528 0.40123 0.0
H1648 H 0.31736 0.39137 0.38548 0.0
H1649 H 0.29917 0.39395 0.41285 0.0
H1650 H 0.25224 0.32438 0.41121 0.0
H1651 H 0.24865 0.31015 0.433 0.0
H1652 H 0.26429 0.31271 0.41309 0.0
H1653 H 0.28922 0.32319 0.44059 0.0
H1654 H 0.27361 0.32052 0.46064 0.0
H1655 H 0.29405 0.34185 0.45772 0.0
H1656 H 0.27668 0.38992 0.4388 0.0
H1657 H 0.25269 0.38022 0.46424 0.0
H1658 H 0.24733 0.32739 0.466 0.0
C1659 C 0.29725 0.34817 0.40373 0.0
C1660 C 0.30827 0.36309 0.39107 0.0
C1661 C 0.30909 0.37971 0.39487 0.0
C1662 C 0.29878 0.38135 0.41042 0.0
C1663 C 0.28783 0.36635 0.42228 0.0
C1664 C 0.28713 0.35014 0.41939 0.0
C1665 C 0.27384 0.33606 0.43412 0.0
C1666 C 0.25887 0.31987 0.42213 0.0
C1667 C 0.28325 0.33005 0.44916 0.0
C1668 C 0.26692 0.34682 0.44529 0.0
C1669 C 0.27522 0.36424 0.43814 0.0
C1670 C 0.2704 0.37646 0.44498 0.0
C1671 C 0.25678 0.3708 0.45965 0.0
C1672 C 0.24822 0.35311 0.46771 0.0
C1673 C 0.2535 0.34101 0.46033 0.0
H1674 H 0.69708 0.97475 0.40775 0.0
H1675 H 0.64162 0.95244 0.3907 0.0
H1676 H 0.63281 0.92763 0.41512 0.0
H1677 H 0.69547 0.93333 0.41125 0.0
H1678 H 0.71023 0.93998 0.43322 0.0
H1679 H 0.71215 0.95673 0.41554 0.0
H1680 H 0.7083 0.97439 0.44597 0.0
H1681 H 0.70647 0.95772 0.46379 0.0
H1682 H 0.68911 0.96302 0.46262 0.0
H1683 H 0.63012 0.90439 0.44014 0.0
H1684 H 0.63381 0.88445 0.46382 0.0
H1685 H 0.69097 0.92187 0.4646 0.0
C1686 C 0.68305 0.9648 0.40929 0.0
C1687 C 0.67006 0.96564 0.39726 0.0
C1688 C 0.65186 0.95218 0.39972 0.0
C1689 C 0.6467 0.93801 0.41358 0.0
C1690 C 0.65987 0.93748 0.42496 0.0
C1691 C 0.67766 0.95055 0.42303 0.0
C1692 C 0.68923 0.9465 0.43652 0.0
C1693 C 0.70255 0.94398 0.42334 0.0
C1694 C 0.69884 0.96128 0.45321 0.0
C1695 C 0.6752 0.92891 0.446 0.0
C1696 C 0.65833 0.92404 0.43929 0.0
C1697 C 0.64325 0.90816 0.44565 0.0
C1698 C 0.64548 0.89696 0.45918 0.0
C1699 C 0.66267 0.9016 0.46615 0.0
C1700 C 0.67767 0.91787 0.45946 0.0
H1701 H 0.06135 0.69818 0.40134 0.0
H1702 H 0.04131 0.72903 0.37193 0.0
H1703 H 0.0574 0.75362 0.39742 0.0
H1704 H 0.05801 0.71206 0.45439 0.0
H1705 H 0.07797 0.71292 0.463 0.0
H1706 H 0.06472 0.69746 0.44253 0.0
H1707 H 0.09245 0.71109 0.41864 0.0
H1708 H 0.10575 0.72665 0.439 0.0
H1709 H 0.10461 0.735 0.41403 0.0
H1710 H 0.07747 0.77582 0.42374 0.0
H1711 H 0.09816 0.79348 0.4517 0.0
H1712 H 0.10289 0.74737 0.46724 0.0
C1713 C 0.06031 0.71009 0.40036 0.0
C1714 C 0.0501 0.71169 0.3846 0.0
C1715 C 0.04895 0.72743 0.38391 0.0
C1716 C 0.0581 0.74152 0.39828 0.0
C1717 C 0.06812 0.7396 0.4135 0.0
C1718 C 0.06909 0.72421 0.41491 0.0
C1719 C 0.08065 0.72564 0.4331 0.0
C1720 C 0.06968 0.71116 0.44921 0.0
C1721 C 0.09682 0.72453 0.42574 0.0
C1722 C 0.08627 0.74436 0.44135 0.0
C1723 C 0.07896 0.75216 0.42967 0.0
C1724 C 0.08294 0.76972 0.43338 0.0
C1725 C 0.09463 0.7796 0.44956 0.0
C1726 C 0.10202 0.77186 0.4623 0.0
C1727 C 0.09764 0.75389 0.45799 0.0
H1728 H 0.31126 0.04142 0.73501 0.0
H1729 H 0.36597 0.05634 0.7222 0.0
H1730 H 0.37636 0.07955 0.74995 0.0
H1731 H 0.3199 0.08552 0.74407 0.0
H1732 H 0.30374 0.07931 0.76456 0.0
H1733 H 0.30053 0.06312 0.7446 0.0
H1734 H 0.29825 0.04084 0.7725 0.0
H1735 H 0.30145 0.05698 0.79257 0.0
H1736 H 0.31601 0.04802 0.79106 0.0
H1737 H 0.38091 0.10232 0.77778 0.0
H1738 H 0.37918 0.12267 0.80384 0.0
H1739 H 0.32155 0.09273 0.79828 0.0
C1740 C 0.32543 0.04941 0.73812 0.0
C1741 C 0.33777 0.047 0.72636 0.0
C1742 C 0.35621 0.05788 0.73095 0.0
C1743 C 0.36226 0.0711 0.74672 0.0
C1744 C 0.34972 0.07322 0.75783 0.0
C1745 C 0.33169 0.06262 0.75379 0.0
C1746 C 0.32101 0.06803 0.76746 0.0
C1747 C 0.3107 0.07437 0.75439 0.0
C1748 C 0.30844 0.05254 0.78174 0.0
C1749 C 0.33587 0.0835 0.77962 0.0
C1750 C 0.35233 0.08624 0.77392 0.0
C1751 C 0.36809 0.10022 0.78248 0.0
C1752 C 0.36698 0.11175 0.79717 0.0
C1753 C 0.35024 0.10922 0.80313 0.0
C1754 C 0.33452 0.0948 0.79432 0.0
H1755 H 0.93929 0.30492 0.73161 0.0
H1756 H 0.98439 0.29711 0.72586 0.0
H1757 H 0.97245 0.27535 0.75412 0.0
H1758 H 0.93504 0.30031 0.78881 0.0
H1759 H 0.91105 0.28848 0.78782 0.0
H1760 H 0.92401 0.30491 0.76846 0.0
H1761 H 0.90724 0.28087 0.73961 0.0
H1762 H 0.89435 0.26435 0.75885 0.0
H1763 H 0.90704 0.25994 0.74006 0.0
H1764 H 0.95428 0.25209 0.78003 0.0
H1765 H 0.9315 0.22967 0.8032 0.0
H1766 H 0.89879 0.25339 0.79389 0.0
C1767 C 0.94684 0.29891 0.73656 0.0
C1768 C 0.96277 0.30275 0.72642 0.0
C1769 C 0.97213 0.29441 0.73328 0.0
C1770 C 0.96549 0.28203 0.74939 0.0
C1771 C 0.94956 0.27822 0.75869 0.0
C1772 C 0.94042 0.28652 0.75273 0.0
C1773 C 0.92312 0.27926 0.76464 0.0
C1774 C 0.92333 0.29413 0.77824 0.0
C1775 C 0.90699 0.27059 0.74991 0.0
C1776 C 0.92376 0.26523 0.77771 0.0
C1777 C 0.93918 0.26495 0.77411 0.0
C1778 C 0.94231 0.25242 0.78335 0.0
C1779 C 0.92929 0.23977 0.79661 0.0
C1780 C 0.91334 0.23978 0.80062 0.0
C1781 C 0.91074 0.25288 0.79113 0.0
H1782 H 0.73089 0.67356 0.71787 0.0
H1783 H 0.68901 0.67184 0.75568 0.0
H1784 H 0.70726 0.67724 0.7872 0.0
H1785 H 0.74123 0.64937 0.74995 0.0
H1786 H 0.76496 0.66183 0.74565 0.0
H1787 H 0.75017 0.66112 0.726 0.0
H1788 H 0.76674 0.69601 0.72602 0.0
H1789 H 0.7818 0.69687 0.7455 0.0
H1790 H 0.76958 0.70817 0.75003 0.0
H1791 H 0.72811 0.67804 0.81464 0.0
H1792 H 0.75064 0.67624 0.83567 0.0
H1793 H 0.77902 0.67775 0.77964 0.0
C1794 C 0.72597 0.67511 0.73274 0.0
C1795 C 0.70887 0.67283 0.73449 0.0
C1796 C 0.70235 0.67411 0.75414 0.0
C1797 C 0.71258 0.67706 0.77206 0.0
C1798 C 0.72927 0.67877 0.76992 0.0
C1799 C 0.73603 0.67812 0.75069 0.0
C1800 C 0.75358 0.67875 0.75263 0.0
C1801 C 0.7524 0.66176 0.74299 0.0
C1802 C 0.76883 0.69598 0.74298 0.0
C1803 C 0.75535 0.67919 0.77596 0.0
C1804 C 0.74128 0.67931 0.78569 0.0
C1805 C 0.73936 0.67831 0.80718 0.0
C1806 C 0.75213 0.67715 0.81898 0.0
C1807 C 0.76665 0.67702 0.80929 0.0
C1808 C 0.7683 0.67824 0.78751 0.0
H1809 H 0.70807 0.6379 0.62986 0.0
H1810 H 0.72552 0.69411 0.64251 0.0
H1811 H 0.7495 0.70342 0.6169 0.0
H1812 H 0.7516 0.64399 0.62266 0.0
H1813 H 0.74497 0.62779 0.60165 0.0
H1814 H 0.72898 0.62525 0.62109 0.0
H1815 H 0.70805 0.62465 0.59254 0.0
H1816 H 0.72395 0.62713 0.57302 0.0
H1817 H 0.71638 0.64294 0.57453 0.0
H1818 H 0.77224 0.70696 0.59113 0.0
H1819 H 0.79157 0.70446 0.56515 0.0
H1820 H 0.75866 0.64603 0.56713 0.0
C1821 C 0.71693 0.65215 0.62724 0.0
C1822 C 0.71487 0.66524 0.63829 0.0
C1823 C 0.72672 0.68378 0.63426 0.0
C1824 C 0.74046 0.68925 0.61976 0.0
C1825 C 0.74215 0.67606 0.60921 0.0
C1826 C 0.73067 0.6579 0.61258 0.0
C1827 C 0.73538 0.64656 0.5988 0.0
C1828 C 0.74054 0.63523 0.61183 0.0
C1829 C 0.72003 0.63462 0.58383 0.0
C1830 C 0.75136 0.66123 0.58734 0.0
C1831 C 0.75504 0.67812 0.5937 0.0
C1832 C 0.76936 0.6938 0.58579 0.0
C1833 C 0.7802 0.69222 0.57087 0.0
C1834 C 0.77659 0.67505 0.56375 0.0
C1835 C 0.76193 0.65937 0.57223 0.0
H1836 H 0.29866 0.03222 0.62204 0.0
H1837 H 0.35554 0.05432 0.62944 0.0
H1838 H 0.36151 0.07602 0.60185 0.0
H1839 H 0.2996 0.03678 0.56563 0.0
H1840 H 0.28264 0.04271 0.56582 0.0
H1841 H 0.28274 0.02827 0.58553 0.0
H1842 H 0.28336 0.05012 0.61394 0.0
H1843 H 0.28339 0.06468 0.59433 0.0
H1844 H 0.30078 0.07354 0.6136 0.0
H1845 H 0.36152 0.09678 0.57543 0.0
H1846 H 0.35556 0.11425 0.55059 0.0
H1847 H 0.29862 0.0778 0.55871 0.0
C1848 C 0.31237 0.04149 0.61775 0.0
C1849 C 0.32662 0.04152 0.62801 0.0
C1850 C 0.34436 0.05394 0.62185 0.0
C1851 C 0.34792 0.06637 0.60619 0.0
C1852 C 0.3336 0.06614 0.59664 0.0
C1853 C 0.31617 0.05393 0.60201 0.0
C1854 C 0.30326 0.05677 0.5895 0.0
C1855 C 0.29136 0.04014 0.5758 0.0
C1856 C 0.29204 0.06157 0.60369 0.0
C1857 C 0.31618 0.07271 0.57655 0.0
C1858 C 0.3336 0.07787 0.58093 0.0
C1859 C 0.34792 0.09267 0.57159 0.0
C1860 C 0.34436 0.10245 0.55734 0.0
C1861 C 0.32659 0.09735 0.55233 0.0
C1862 C 0.31236 0.08219 0.56215 0.0
H1863 H 0.93659 0.29952 0.62318 0.0
H1864 H 0.97965 0.28843 0.62493 0.0
H1865 H 0.96569 0.26656 0.59602 0.0
H1866 H 0.90184 0.2544 0.61315 0.0
H1867 H 0.88968 0.26065 0.59625 0.0
H1868 H 0.90349 0.27594 0.6165 0.0
H1869 H 0.92071 0.30081 0.58937 0.0
H1870 H 0.90699 0.28556 0.56901 0.0
H1871 H 0.9309 0.29631 0.56753 0.0
H1872 H 0.94659 0.24533 0.56739 0.0
H1873 H 0.92344 0.22593 0.54178 0.0
H1874 H 0.89287 0.25073 0.55944 0.0
C1875 C 0.94318 0.2926 0.61744 0.0
C1876 C 0.95925 0.29574 0.62635 0.0
C1877 C 0.96732 0.28626 0.61842 0.0
C1878 C 0.95953 0.27384 0.60195 0.0
C1879 C 0.94368 0.27107 0.59358 0.0
C1880 C 0.93559 0.28016 0.60109 0.0
C1881 C 0.91832 0.27434 0.58983 0.0
C1882 C 0.9024 0.26582 0.60483 0.0
C1883 C 0.9193 0.2902 0.57825 0.0
C1884 C 0.91789 0.26046 0.57491 0.0
C1885 C 0.93266 0.25881 0.57722 0.0
C1886 C 0.93497 0.24653 0.56541 0.0
C1887 C 0.92173 0.23552 0.55099 0.0
C1888 C 0.90638 0.23685 0.54857 0.0
C1889 C 0.90459 0.24961 0.56063 0.0
H1890 H 0.35673 0.2886 0.61982 0.0
H1891 H 0.30388 0.27804 0.63566 0.0
H1892 H 0.29096 0.25453 0.60822 0.0
H1893 H 0.34989 0.28198 0.56435 0.0
H1894 H 0.3628 0.27122 0.56173 0.0
H1895 H 0.36795 0.28774 0.58204 0.0
H1896 H 0.36451 0.26461 0.60944 0.0
H1897 H 0.35941 0.24805 0.58923 0.0
H1898 H 0.3441 0.24302 0.61044 0.0
H1899 H 0.28375 0.23155 0.57954 0.0
H1900 H 0.28284 0.21058 0.55237 0.0
H1901 H 0.34035 0.23598 0.55621 0.0
C1902 C 0.34245 0.28148 0.61746 0.0
C1903 C 0.33135 0.28521 0.62991 0.0
C1904 C 0.31269 0.27541 0.62637 0.0
C1905 C 0.30522 0.26206 0.61077 0.0
C1906 C 0.31656 0.25868 0.59886 0.0
C1907 C 0.33477 0.26809 0.60205 0.0
C1908 C 0.34399 0.26148 0.58765 0.0
C1909 C 0.35692 0.2765 0.57308 0.0
C1910 C 0.35356 0.25383 0.59993 0.0
C1911 C 0.32811 0.24677 0.57595 0.0
C1912 C 0.31241 0.24541 0.58253 0.0
C1913 C 0.29597 0.23251 0.57423 0.0
C1914 C 0.29557 0.22061 0.5589 0.0
C1915 C 0.31152 0.22166 0.5521 0.0
C1916 C 0.32796 0.23502 0.56075 0.0
H1917 H 0.72364 0.05918 0.6322 0.0
H1918 H 0.73068 0.01501 0.61224 0.0
H1919 H 0.74678 0.03193 0.58139 0.0
H1920 H 0.71781 0.07199 0.58017 0.0
H1921 H 0.73015 0.0958 0.5862 0.0
H1922 H 0.71806 0.07983 0.6063 0.0
H1923 H 0.74695 0.0931 0.62811 0.0
H1924 H 0.75911 0.1091 0.60811 0.0
H1925 H 0.76647 0.09433 0.61687 0.0
H1926 H 0.76351 0.05383 0.55388 0.0
H1927 H 0.78037 0.08002 0.53123 0.0
H1928 H 0.76278 0.11034 0.5682 0.0
C1929 C 0.7284 0.053 0.62122 0.0
C1930 C 0.7259 0.03575 0.62475 0.0
C1931 C 0.73249 0.02823 0.61005 0.0
C1932 C 0.74159 0.03769 0.59236 0.0
C1933 C 0.744 0.05469 0.58946 0.0
C1934 C 0.73762 0.06233 0.6034 0.0
C1935 C 0.74282 0.08119 0.5969 0.0
C1936 C 0.72622 0.08226 0.59211 0.0
C1937 C 0.75453 0.09526 0.61349 0.0
C1938 C 0.75335 0.08299 0.57736 0.0
C1939 C 0.75373 0.06746 0.57334 0.0
C1940 C 0.76322 0.06603 0.55674 0.0
C1941 C 0.7728 0.08098 0.54403 0.0
C1942 C 0.77282 0.09713 0.54796 0.0
C1943 C 0.76275 0.09804 0.56468 0.0
H1944 H 0.95003 0.66295 0.6267 0.0
H1945 H 0.98895 0.72026 0.62304 0.0
H1946 H 0.97266 0.72269 0.59377 0.0
H1947 H 0.94223 0.65513 0.56993 0.0
H1948 H 0.91874 0.63927 0.573 0.0
H1949 H 0.93421 0.64146 0.59274 0.0
H1950 H 0.91627 0.64778 0.62019 0.0
H1951 H 0.90086 0.64577 0.60053 0.0
H1952 H 0.91227 0.66599 0.61631 0.0
H1953 H 0.95104 0.72006 0.56781 0.0
H1954 H 0.92606 0.71211 0.54454 0.0
H1955 H 0.90129 0.65602 0.56249 0.0
C1956 C 0.9553 0.67592 0.61947 0.0
C1957 C 0.97077 0.69143 0.62731 0.0
C1958 C 0.97709 0.70819 0.61751 0.0
C1959 C 0.96795 0.70974 0.60078 0.0
C1960 C 0.95254 0.69438 0.59381 0.0
C1961 C 0.9463 0.67773 0.6026 0.0
C1962 C 0.92894 0.6636 0.59242 0.0
C1963 C 0.93117 0.649 0.58136 0.0
C1964 C 0.91368 0.6553 0.60831 0.0
C1965 C 0.92628 0.67506 0.57696 0.0
C1966 C 0.94013 0.69275 0.57809 0.0
C1967 C 0.94032 0.70617 0.56637 0.0
C1968 C 0.92604 0.70142 0.55299 0.0
C1969 C 0.91172 0.6833 0.5511 0.0
C1970 C 0.91195 0.66998 0.56337 0.0
H1971 H 0.96374 0.69941 0.73655 0.0
H1972 H 0.94529 0.64393 0.71835 0.0
H1973 H 0.92098 0.63341 0.74393 0.0
H1974 H 0.95383 0.69116 0.79157 0.0
H1975 H 0.94683 0.70738 0.79405 0.0
H1976 H 0.96333 0.7105 0.77502 0.0
H1977 H 0.94391 0.71232 0.74618 0.0
H1978 H 0.92734 0.70913 0.76508 0.0
H1979 H 0.92118 0.69413 0.74292 0.0
H1980 H 0.89776 0.62897 0.77027 0.0
H1981 H 0.87751 0.63099 0.79553 0.0
H1982 H 0.91159 0.6893 0.79701 0.0
C1983 C 0.95472 0.68503 0.73803 0.0
C1984 C 0.95648 0.67253 0.72537 0.0
C1985 C 0.94426 0.65382 0.72781 0.0
C1986 C 0.9304 0.64768 0.74234 0.0
C1987 C 0.92896 0.66039 0.75437 0.0
C1988 C 0.94083 0.67867 0.75243 0.0
C1989 C 0.93605 0.68956 0.76681 0.0
C1990 C 0.95089 0.70028 0.78281 0.0
C1991 C 0.93187 0.70201 0.75451 0.0
C1992 C 0.91948 0.67456 0.77691 0.0
C1993 C 0.91566 0.65783 0.76961 0.0
C1994 C 0.90072 0.64198 0.77627 0.0
C1995 C 0.88935 0.64327 0.79071 0.0
C1996 C 0.89296 0.6603 0.79835 0.0
C1997 C 0.90834 0.67609 0.79137 0.0
H1998 H 0.32774 0.27781 0.72858 0.0
H1999 H 0.38309 0.32067 0.73462 0.0
H2000 H 0.38639 0.3059 0.76499 0.0
H2001 H 0.31868 0.27024 0.78492 0.0
H2002 H 0.30478 0.24615 0.78162 0.0
H2003 H 0.30608 0.26086 0.76137 0.0
H2004 H 0.3154 0.24413 0.73526 0.0
H2005 H 0.31425 0.22946 0.75542 0.0
H2006 H 0.33453 0.24226 0.74083 0.0
H2007 H 0.38483 0.28565 0.79248 0.0
H2008 H 0.37828 0.26122 0.81633 0.0
H2009 H 0.32363 0.23128 0.794 0.0
C2010 C 0.34042 0.28423 0.73656 0.0
C2011 C 0.35516 0.3004 0.72916 0.0
C2012 C 0.37163 0.30824 0.73987 0.0
C2013 C 0.37365 0.3 0.75722 0.0
C2014 C 0.35906 0.28389 0.76381 0.0
C2015 C 0.34273 0.27608 0.75397 0.0
C2016 C 0.32955 0.25819 0.76375 0.0
C2017 C 0.31384 0.25891 0.7735 0.0
C2018 C 0.32305 0.24259 0.74786 0.0
C2019 C 0.3412 0.25706 0.78025 0.0
C2020 C 0.35812 0.27212 0.78005 0.0
C2021 C 0.37153 0.27393 0.79309 0.0
C2022 C 0.36761 0.25996 0.80674 0.0
C2023 C 0.35034 0.24431 0.80742 0.0
C2024 C 0.33697 0.24299 0.79396 0.0
H2025 H 0.72319 0.05663 0.72482 0.0
H2026 H 0.73174 0.01249 0.73741 0.0
H2027 H 0.74962 0.02897 0.76806 0.0
H2028 H 0.76645 0.09134 0.73724 0.0
H2029 H 0.75995 0.10613 0.74907 0.0
H2030 H 0.74613 0.09011 0.72939 0.0
H2031 H 0.71919 0.07681 0.75448 0.0
H2032 H 0.73295 0.09283 0.77428 0.0
H2033 H 0.7211 0.06903 0.7795 0.0
H2034 H 0.76855 0.05092 0.79536 0.0
H2035 H 0.78778 0.0774 0.81756 0.0
H2036 H 0.76734 0.10759 0.78765 0.0
C2037 C 0.72855 0.05029 0.73424 0.0
C2038 C 0.72601 0.03323 0.72868 0.0
C2039 C 0.7335 0.02554 0.74126 0.0
C2040 C 0.74362 0.03476 0.75879 0.0
C2041 C 0.74612 0.05164 0.76363 0.0
C2042 C 0.73879 0.05936 0.75178 0.0
C2043 C 0.74457 0.07822 0.75962 0.0
C2044 C 0.75489 0.09228 0.74283 0.0
C2045 C 0.72849 0.07928 0.76744 0.0
C2046 C 0.75665 0.08004 0.77737 0.0
C2047 C 0.75717 0.06445 0.77951 0.0
C2048 C 0.76812 0.06313 0.79401 0.0
C2049 C 0.77904 0.07825 0.80646 0.0
C2050 C 0.77898 0.09447 0.80432 0.0
C2051 C 0.7674 0.09524 0.78983 0.0
H2052 H 0.03613 0.33089 0.04873 0.0
H2053 H 0.06463 0.38813 0.03587 0.0
H2054 H 0.08976 0.39245 0.05746 0.0
H2055 H 0.05032 0.33446 0.10161 0.0
H2056 H 0.0525 0.31487 0.09991 0.0
H2057 H 0.03663 0.31633 0.08375 0.0
H2058 H 0.05104 0.3113 0.05107 0.0
H2059 H 0.06695 0.30982 0.06713 0.0
H2060 H 0.07458 0.32599 0.0466 0.0
H2061 H 0.11146 0.39064 0.08109 0.0
H2062 H 0.129 0.38255 0.10346 0.0
H2063 H 0.08694 0.32633 0.09981 0.0
C2064 C 0.04765 0.34434 0.0505 0.0
C2065 C 0.04842 0.3592 0.04069 0.0
C2066 C 0.06378 0.37655 0.04322 0.0
C2067 C 0.07809 0.37914 0.05549 0.0
C2068 C 0.0769 0.36421 0.06496 0.0
C2069 C 0.06214 0.34712 0.06247 0.0
C2070 C 0.06441 0.33329 0.07392 0.0
C2071 C 0.05012 0.32421 0.0908 0.0
C2072 C 0.06424 0.31927 0.05877 0.0
C2073 C 0.08273 0.34528 0.0833 0.0
C2074 C 0.08963 0.36309 0.07807 0.0
C2075 C 0.10622 0.37673 0.08523 0.0
C2076 C 0.11603 0.37203 0.09799 0.0
C2077 C 0.10932 0.35383 0.10331 0.0
C2078 C 0.09245 0.34032 0.09581 0.0
H2079 H 0.68061 0.7147 0.05473 0.0
H2080 H 0.63002 0.69244 0.02263 0.0
H2081 H 0.62322 0.71253 0.04294 0.0
H2082 H 0.66593 0.7206 0.10464 0.0
H2083 H 0.68597 0.74181 0.11027 0.0
H2084 H 0.68687 0.72545 0.09346 0.0
H2085 H 0.70118 0.7492 0.06457 0.0
H2086 H 0.70042 0.76566 0.08133 0.0
H2087 H 0.6901 0.7607 0.05613 0.0
H2088 H 0.62124 0.73396 0.06766 0.0
H2089 H 0.62567 0.75784 0.09283 0.0
H2090 H 0.67827 0.7677 0.10729 0.0
C2091 C 0.66812 0.7141 0.05197 0.0
C2092 C 0.65576 0.70189 0.03725 0.0
C2093 C 0.63965 0.70161 0.0339 0.0
C2094 C 0.63564 0.71295 0.04539 0.0
C2095 C 0.648 0.72468 0.05994 0.0
C2096 C 0.66403 0.72556 0.06306 0.0
C2097 C 0.67523 0.73984 0.07918 0.0
C2098 C 0.6787 0.73142 0.098 0.0
C2099 C 0.69277 0.75473 0.06973 0.0
C2100 C 0.66291 0.74674 0.08469 0.0
C2101 C 0.64719 0.73765 0.07358 0.0
C2102 C 0.63353 0.74128 0.07636 0.0
C2103 C 0.63611 0.75475 0.09071 0.0
C2104 C 0.65229 0.76453 0.10184 0.0
C2105 C 0.66583 0.76045 0.09881 0.0
H2106 H 0.30703 0.97201 0.05309 0.0
H2107 H 0.29764 0.94381 0.994 0.0
H2108 H 0.27115 0.91725 0.00854 0.0
H2109 H 0.29443 0.93313 0.08473 0.0
H2110 H 0.28411 0.93964 0.10455 0.0
H2111 H 0.3022 0.95664 0.08946 0.0
H2112 H 0.28244 0.96942 0.07873 0.0
H2113 H 0.2643 0.95248 0.0938 0.0
H2114 H 0.26114 0.95464 0.06668 0.0
H2115 H 0.24526 0.89417 0.02897 0.0
H2116 H 0.2223 0.87535 0.05465 0.0
H2117 H 0.24903 0.91775 0.10109 0.0
C2118 C 0.29935 0.96025 0.04322 0.0
C2119 C 0.3043 0.95998 0.02237 0.0
C2120 C 0.29406 0.9443 0.01 0.0
C2121 C 0.27899 0.92916 0.01811 0.0
C2122 C 0.27445 0.92983 0.0387 0.0
C2123 C 0.28437 0.9449 0.05116 0.0
C2124 C 0.27674 0.94192 0.07291 0.0
C2125 C 0.29017 0.94289 0.08885 0.0
C2126 C 0.2708 0.95542 0.07834 0.0
C2127 C 0.26089 0.92289 0.07063 0.0
C2128 C 0.25979 0.91624 0.05072 0.0
C2129 C 0.24603 0.89919 0.04464 0.0
C2130 C 0.23303 0.88864 0.05928 0.0
C2131 C 0.23395 0.8951 0.0798 0.0
C2132 C 0.24814 0.91242 0.08555 0.0
H2133 H 0.32755 0.0305 0.97014 0.0
H2134 H 0.38033 0.05846 0.9976 0.0
H2135 H 0.38619 0.08691 0.98181 0.0
H2136 H 0.33928 0.0528 0.92241 0.0
H2137 H 0.31925 0.05369 0.92 0.0
H2138 H 0.3189 0.03589 0.93439 0.0
H2139 H 0.30686 0.04452 0.96663 0.0
H2140 H 0.30704 0.06228 0.95228 0.0
H2141 H 0.31887 0.06737 0.97652 0.0
H2142 H 0.38695 0.11176 0.96057 0.0
H2143 H 0.38177 0.13144 0.93796 0.0
H2144 H 0.32814 0.08719 0.92545 0.0
C2145 C 0.34028 0.04264 0.97307 0.0
C2146 C 0.3535 0.04228 0.98512 0.0
C2147 C 0.36997 0.05846 0.98854 0.0
C2148 C 0.37343 0.07465 0.97957 0.0
C2149 C 0.3602 0.07445 0.96743 0.0
C2150 C 0.34386 0.05889 0.96442 0.0
C2151 C 0.33196 0.06212 0.95052 0.0
C2152 C 0.32707 0.05043 0.93065 0.0
C2153 C 0.31519 0.05888 0.96219 0.0
C2154 C 0.34422 0.08189 0.94588 0.0
C2155 C 0.36048 0.08877 0.9557 0.0
C2156 C 0.37421 0.10655 0.95299 0.0
C2157 C 0.37119 0.11759 0.94003 0.0
C2158 C 0.35454 0.11086 0.93005 0.0
C2159 C 0.34091 0.09278 0.93312 0.0
H2160 H 0.95929 0.31272 0.98103 0.0
H2161 H 0.00628 0.31169 0.96136 0.0
H2162 H 0.98766 0.2861 0.93752 0.0
H2163 H 0.9289 0.26561 0.9805 0.0
H2164 H 0.91052 0.26706 0.97051 0.0
H2165 H 0.9276 0.28545 0.98563 0.0
H2166 H 0.93328 0.30743 0.95578 0.0
H2167 H 0.91616 0.28911 0.94058 0.0
H2168 H 0.93833 0.30255 0.93022 0.0
H2169 H 0.96347 0.2593 0.9177 0.0
H2170 H 0.93589 0.23482 0.9013 0.0
H2171 H 0.90517 0.25471 0.93244 0.0
C2172 C 0.96569 0.30717 0.97165 0.0
C2173 C 0.98419 0.31408 0.97308 0.0
C2174 C 0.9921 0.30657 0.96044 0.0
C2175 C 0.98164 0.29203 0.94691 0.0
C2176 C 0.96338 0.28542 0.94602 0.0
C2177 C 0.95551 0.29291 0.95785 0.0
C2178 C 0.93565 0.28344 0.95391 0.0
C2179 C 0.92505 0.27488 0.97382 0.0
C2180 C 0.93056 0.29641 0.94456 0.0
C2181 C 0.93348 0.26922 0.93826 0.0
C2182 C 0.94961 0.27052 0.934 0.0
C2183 C 0.95081 0.25829 0.92074 0.0
C2184 C 0.93512 0.24443 0.91158 0.0
C2185 C 0.91854 0.24305 0.91557 0.0
C2186 C 0.91776 0.25567 0.92897 0.0
H2187 H 0.69973 0.67825 0.96248 0.0
H2188 H 0.7045 0.65647 0.02049 0.0
H2189 H 0.73071 0.65608 0.00692 0.0
H2190 H 0.70988 0.65124 0.93033 0.0
H2191 H 0.72219 0.66837 0.91139 0.0
H2192 H 0.70488 0.66873 0.92625 0.0
H2193 H 0.72731 0.70136 0.93874 0.0
H2194 H 0.7447 0.7011 0.92387 0.0
H2195 H 0.74768 0.7062 0.95126 0.0
H2196 H 0.75528 0.65667 0.98693 0.0
H2197 H 0.77638 0.65716 0.96107 0.0
H2198 H 0.75509 0.6772 0.91519 0.0
C2199 C 0.70652 0.67372 0.97241 0.0
C2200 C 0.70022 0.66752 0.99257 0.0
C2201 C 0.70915 0.6613 0.00499 0.0
C2202 C 0.72408 0.66109 0.99746 0.0
C2203 C 0.72983 0.66704 0.97744 0.0
C2204 C 0.72134 0.67319 0.96501 0.0
C2205 C 0.72956 0.67762 0.94356 0.0
C2206 C 0.71581 0.66578 0.92691 0.0
C2207 C 0.7378 0.69777 0.9391 0.0
C2208 C 0.74381 0.67278 0.94585 0.0
C2209 C 0.74382 0.6669 0.9656 0.0
C2210 C 0.75543 0.66125 0.9714 0.0
C2211 C 0.76726 0.66145 0.95655 0.0
C2212 C 0.7673 0.66708 0.93606 0.0
C2213 C 0.75552 0.67301 0.93077 0.0
H2214 H 0.93702 0.63037 0.98316 0.0
H2215 H 0.97458 0.68715 0.99516 0.0
H2216 H 0.95537 0.69509 0.97619 0.0
H2217 H 0.92754 0.63578 0.93171 0.0
H2218 H 0.90421 0.61873 0.93238 0.0
H2219 H 0.91968 0.61703 0.94899 0.0
H2220 H 0.90099 0.61537 0.98113 0.0
H2221 H 0.88538 0.61694 0.96458 0.0
H2222 H 0.89588 0.63284 0.98569 0.0
H2223 H 0.93373 0.69733 0.95424 0.0
H2224 H 0.91035 0.69376 0.93032 0.0
H2225 H 0.88671 0.63564 0.93081 0.0
C2226 C 0.94089 0.64441 0.98219 0.0
C2227 C 0.95718 0.65816 0.99077 0.0
C2228 C 0.96212 0.67642 0.98874 0.0
C2229 C 0.95129 0.68108 0.97803 0.0
C2230 C 0.93556 0.66732 0.9693 0.0
C2231 C 0.93027 0.64935 0.97123 0.0
C2232 C 0.9133 0.63741 0.95899 0.0
C2233 C 0.91637 0.6266 0.94201 0.0
C2234 C 0.89798 0.6249 0.97347 0.0
C2235 C 0.91011 0.65153 0.94972 0.0
C2236 C 0.92308 0.66866 0.95606 0.0
C2237 C 0.92344 0.68399 0.9492 0.0
C2238 C 0.91018 0.68182 0.93544 0.0
C2239 C 0.89676 0.66444 0.92852 0.0
C2240 C 0.89669 0.64909 0.93594 0.0
H2241 H 0.32761 0.30632 0.9583 0.0
H2242 H 0.33823 0.29558 0.02026 0.0
H2243 H 0.33606 0.26747 0.0076 0.0
H2244 H 0.2971 0.25902 0.94161 0.0
H2245 H 0.3062 0.26264 0.91579 0.0
H2246 H 0.30636 0.28085 0.92999 0.0
H2247 H 0.34051 0.30068 0.92488 0.0
H2248 H 0.34045 0.28256 0.91067 0.0
H2249 H 0.35462 0.2924 0.93305 0.0
H2250 H 0.33419 0.24161 0.98852 0.0
H2251 H 0.33501 0.22028 0.96348 0.0
H2252 H 0.32768 0.24837 0.913 0.0
C2253 C 0.32909 0.29779 0.96919 0.0
C2254 C 0.33285 0.30289 0.99028 0.0
C2255 C 0.33526 0.29179 0.00405 0.0
C2256 C 0.33396 0.27578 0.99704 0.0
C2257 C 0.33047 0.27118 0.97614 0.0
C2258 C 0.32821 0.28188 0.96232 0.0
C2259 C 0.3263 0.27458 0.94033 0.0
C2260 C 0.30789 0.26894 0.93141 0.0
C2261 C 0.34137 0.28837 0.92642 0.0
C2262 C 0.32808 0.2583 0.944 0.0
C2263 C 0.33018 0.25649 0.96483 0.0
C2264 C 0.33256 0.24286 0.97216 0.0
C2265 C 0.33314 0.2309 0.95778 0.0
C2266 C 0.33161 0.23275 0.93625 0.0
C2267 C 0.32872 0.24649 0.92935 0.0
H2268 H 0.71388 0.03283 0.9713 0.0
H2269 H 0.68471 0.05989 0.98496 0.0
H2270 H 0.7058 0.08551 0.96358 0.0
H2271 H 0.757 0.07256 0.97504 0.0
H2272 H 0.76666 0.06592 0.95455 0.0
H2273 H 0.74846 0.049 0.96954 0.0
H2274 H 0.73041 0.03456 0.93585 0.0
H2275 H 0.74856 0.05148 0.92075 0.0
H2276 H 0.7266 0.04824 0.91835 0.0
H2277 H 0.72979 0.10803 0.94085 0.0
H2278 H 0.75662 0.12736 0.92038 0.0
H2279 H 0.77203 0.08707 0.92396 0.0
C2280 C 0.71186 0.04408 0.96956 0.0
C2281 C 0.69761 0.04436 0.9796 0.0
C2282 C 0.69554 0.05942 0.97737 0.0
C2283 C 0.7074 0.07399 0.96519 0.0
C2284 C 0.72139 0.07339 0.9556 0.0
C2285 C 0.72382 0.05894 0.95779 0.0
C2286 C 0.74065 0.06227 0.94692 0.0
C2287 C 0.75398 0.06245 0.96244 0.0
C2288 C 0.73629 0.04831 0.92943 0.0
C2289 C 0.74729 0.08087 0.93834 0.0
C2290 C 0.73583 0.08688 0.94331 0.0
C2291 C 0.73898 0.10356 0.93703 0.0
C2292 C 0.7544 0.11453 0.92556 0.0
C2293 C 0.76671 0.10896 0.92076 0.0
C2294 C 0.76292 0.09177 0.92716 0.0
H2295 H 0.65359 0.9506 0.0255 0.0
H2296 H 0.68306 0.99718 0.06629 0.0
H2297 H 0.68471 0.97792 0.09257 0.0
H2298 H 0.62803 0.91873 0.06474 0.0
H2299 H 0.6294 0.90037 0.05315 0.0
H2300 H 0.63049 0.91771 0.03707 0.0
H2301 H 0.66062 0.92395 0.02196 0.0
H2302 H 0.65958 0.90656 0.03792 0.0
H2303 H 0.67873 0.92908 0.0393 0.0
H2304 H 0.68174 0.95387 0.11538 0.0
H2305 H 0.67674 0.92624 0.13233 0.0
H2306 H 0.65109 0.89505 0.07667 0.0
C2307 C 0.66047 0.95671 0.03992 0.0
C2308 C 0.66818 0.97541 0.04382 0.0
C2309 C 0.67712 0.98292 0.06285 0.0
C2310 C 0.67808 0.97208 0.07796 0.0
C2311 C 0.67026 0.95373 0.07377 0.0
C2312 C 0.66185 0.94607 0.05515 0.0
C2313 C 0.65487 0.92595 0.05467 0.0
C2314 C 0.63449 0.91505 0.05227 0.0
C2315 C 0.664 0.9211 0.03744 0.0
C2316 C 0.66051 0.92357 0.076 0.0
C2317 C 0.66922 0.9398 0.08677 0.0
C2318 C 0.67511 0.94109 0.10706 0.0
C2319 C 0.67217 0.92538 0.11658 0.0
C2320 C 0.66363 0.90868 0.10574 0.0
C2321 C 0.65777 0.90775 0.08517 0.0
H2322 H 0.04587 0.69736 0.02721 0.0
H2323 H 0.00809 0.67218 0.07735 0.0
H2324 H 0.0308 0.69317 0.10248 0.0
H2325 H 0.08621 0.70776 0.05549 0.0
H2326 H 0.09963 0.72931 0.0434 0.0
H2327 H 0.08103 0.71119 0.02963 0.0
H2328 H 0.06779 0.73158 0.02418 0.0
H2329 H 0.08632 0.74974 0.03792 0.0
H2330 H 0.06386 0.74204 0.04634 0.0
H2331 H 0.05726 0.71724 0.12194 0.0
H2332 H 0.08484 0.74443 0.13419 0.0
H2333 H 0.1048 0.75527 0.07116 0.0
C2334 C 0.04252 0.69613 0.04353 0.0
C2335 C 0.02535 0.68311 0.05046 0.0
C2336 C 0.02122 0.6821 0.07181 0.0
C2337 C 0.03404 0.69388 0.08617 0.0
C2338 C 0.05082 0.70672 0.07885 0.0
C2339 C 0.05504 0.70805 0.05801 0.0
C2340 C 0.07355 0.72397 0.05403 0.0
C2341 C 0.08583 0.71767 0.04511 0.0
C2342 C 0.07283 0.73764 0.03978 0.0
C2343 C 0.079 0.73147 0.07585 0.0
C2344 C 0.06581 0.72113 0.08996 0.0
C2345 C 0.0677 0.72541 0.11105 0.0
C2346 C 0.08342 0.7408 0.11787 0.0
C2347 C 0.0969 0.75184 0.1036 0.0
C2348 C 0.09467 0.74704 0.08235 0.0
H2349 H 0.29179 0.32564 0.05025 0.0
H2350 H 0.31484 0.37892 0.02406 0.0
H2351 H 0.2933 0.3838 0.0438 0.0
H2352 H 0.24581 0.31516 0.04911 0.0
H2353 H 0.24008 0.303 0.07306 0.0
H2354 H 0.25716 0.30369 0.05664 0.0
H2355 H 0.2794 0.31635 0.08736 0.0
H2356 H 0.26244 0.31581 0.10383 0.0
H2357 H 0.28339 0.33658 0.10069 0.0
H2358 H 0.27055 0.38359 0.0682 0.0
H2359 H 0.24633 0.37719 0.09301 0.0
H2360 H 0.23703 0.32345 0.10171 0.0
C2361 C 0.29222 0.33829 0.04857 0.0
C2362 C 0.305 0.35193 0.03568 0.0
C2363 C 0.3051 0.36826 0.03379 0.0
C2364 C 0.29298 0.37118 0.04499 0.0
C2365 C 0.28069 0.35753 0.05777 0.0
C2366 C 0.28005 0.34131 0.05938 0.0
C2367 C 0.2654 0.32876 0.07401 0.0
C2368 C 0.25128 0.31164 0.06251 0.0
C2369 C 0.27313 0.32411 0.09257 0.0
C2370 C 0.25805 0.34055 0.0806 0.0
C2371 C 0.26714 0.35715 0.07119 0.0
C2372 C 0.26322 0.37058 0.07549 0.0
C2373 C 0.24954 0.36687 0.08965 0.0
C2374 C 0.23984 0.34983 0.09912 0.0
C2375 C 0.24415 0.33652 0.09448 0.0
H2376 H 0.69986 0.66196 0.38602 0.0
H2377 H 0.72557 0.71943 0.37546 0.0
H2378 H 0.75099 0.72471 0.39712 0.0
H2379 H 0.71439 0.66477 0.43916 0.0
H2380 H 0.71807 0.64618 0.4362 0.0
H2381 H 0.70142 0.64689 0.42071 0.0
H2382 H 0.71648 0.64414 0.38725 0.0
H2383 H 0.73311 0.64334 0.40263 0.0
H2384 H 0.73978 0.66009 0.38289 0.0
H2385 H 0.77343 0.72383 0.41994 0.0
H2386 H 0.79267 0.71683 0.44031 0.0
H2387 H 0.75344 0.65966 0.43438 0.0
C2388 C 0.7108 0.67566 0.38839 0.0
C2389 C 0.71073 0.69032 0.37915 0.0
C2390 C 0.72537 0.70802 0.38237 0.0
C2391 C 0.73982 0.71115 0.39472 0.0
C2392 C 0.7395 0.69643 0.40359 0.0
C2393 C 0.72547 0.67901 0.40045 0.0
C2394 C 0.7289 0.66553 0.41095 0.0
C2395 C 0.71486 0.65524 0.42775 0.0
C2396 C 0.72961 0.65251 0.39497 0.0
C2397 C 0.74707 0.6781 0.42044 0.0
C2398 C 0.75282 0.69586 0.41617 0.0
C2399 C 0.76914 0.70996 0.42324 0.0
C2400 C 0.78005 0.7058 0.43469 0.0
C2401 C 0.77476 0.68765 0.43877 0.0
C2402 C 0.75788 0.67367 0.43171 0.0
H2403 H 0.30578 0.02553 0.36375 0.0
H2404 H 0.35629 0.03154 0.38138 0.0
H2405 H 0.36185 0.05657 0.40536 0.0
H2406 H 0.31934 0.07204 0.36493 0.0
H2407 H 0.2987 0.06834 0.3758 0.0
H2408 H 0.29886 0.05105 0.36002 0.0
H2409 H 0.28399 0.02825 0.38977 0.0
H2410 H 0.28374 0.04545 0.40563 0.0
H2411 H 0.29426 0.03369 0.41502 0.0
H2412 H 0.36238 0.08188 0.42608 0.0
H2413 H 0.35677 0.104 0.44414 0.0
H2414 H 0.30513 0.08002 0.41432 0.0
C2415 C 0.31802 0.03212 0.37264 0.0
C2416 C 0.33069 0.02674 0.37066 0.0
C2417 C 0.34644 0.03551 0.38272 0.0
C2418 C 0.34971 0.04973 0.39631 0.0
C2419 C 0.33696 0.05477 0.39783 0.0
C2420 C 0.32133 0.04608 0.3865 0.0
C2421 C 0.30957 0.05376 0.39132 0.0
C2422 C 0.30644 0.06177 0.37186 0.0
C2423 C 0.29184 0.03943 0.40101 0.0
C2424 C 0.32112 0.06831 0.40692 0.0
C2425 C 0.33693 0.06879 0.41037 0.0
C2426 C 0.34999 0.08154 0.42364 0.0
C2427 C 0.34674 0.09406 0.43373 0.0
C2428 C 0.33051 0.09356 0.43064 0.0
C2429 C 0.31756 0.0805 0.41711 0.0
H2430 H 0.97081 0.28705 0.37249 0.0
H2431 H 0.97728 0.33705 0.39712 0.0
H2432 H 0.94974 0.31967 0.4178 0.0
H2433 H 0.92321 0.26248 0.36844 0.0
H2434 H 0.92075 0.24144 0.37632 0.0
H2435 H 0.94076 0.25785 0.36333 0.0
H2436 H 0.95983 0.25785 0.39382 0.0
H2437 H 0.9399 0.24136 0.40685 0.0
H2438 H 0.95522 0.26233 0.41979 0.0
H2439 H 0.92098 0.29651 0.43529 0.0
H2440 H 0.89479 0.26962 0.45008 0.0
H2441 H 0.90792 0.23504 0.41449 0.0
C2442 C 0.96646 0.29437 0.38222 0.0
C2443 C 0.97613 0.31341 0.38315 0.0
C2444 C 0.97006 0.32246 0.3962 0.0
C2445 C 0.95441 0.3127 0.40794 0.0
C2446 C 0.94511 0.29392 0.40655 0.0
C2447 C 0.95103 0.28486 0.39416 0.0
C2448 C 0.93894 0.26464 0.39578 0.0
C2449 C 0.93041 0.25611 0.37472 0.0
C2450 C 0.94908 0.25604 0.40459 0.0
C2451 C 0.92524 0.26367 0.41099 0.0
C2452 C 0.92892 0.28068 0.41691 0.0
C2453 C 0.918 0.28313 0.43077 0.0
C2454 C 0.9031 0.2678 0.43898 0.0
C2455 C 0.89934 0.25026 0.43345 0.0
C2456 C 0.91054 0.24827 0.41914 0.0
H2457 H 1.00065 0.36735 0.31144 0.0
H2458 H 0.05641 0.39344 0.32873 0.0
H2459 H 0.06262 0.42046 0.30926 0.0
H2460 H 0.00713 0.38501 0.2599 0.0
H2461 H 0.98818 0.38791 0.26114 0.0
H2462 H 0.98829 0.37052 0.27593 0.0
H2463 H 0.98243 0.38351 0.30952 0.0
H2464 H 0.98233 0.40096 0.29484 0.0
H2465 H 0.9973 0.40687 0.3165 0.0
H2466 H 0.06274 0.44447 0.28735 0.0
H2467 H 0.05652 0.46414 0.26611 0.0
H2468 H 1.00047 0.42278 0.26445 0.0
C2469 C 0.01419 0.3787 0.31104 0.0
C2470 C 0.02809 0.37827 0.3215 0.0
C2471 C 0.04558 0.39349 0.32082 0.0
C2472 C 0.04923 0.40887 0.30977 0.0
C2473 C 0.03521 0.40888 0.29968 0.0
C2474 C 0.01802 0.39423 0.30033 0.0
C2475 C 0.00525 0.39783 0.28866 0.0
C2476 C 0.99671 0.38453 0.27032 0.0
C2477 C 0.99099 0.39726 0.30326 0.0
C2478 C 0.01793 0.41679 0.28128 0.0
C2479 C 0.03518 0.42287 0.28765 0.0
C2480 C 0.04927 0.43986 0.28234 0.0
C2481 C 0.04563 0.45091 0.27023 0.0
C2482 C 0.02802 0.44501 0.26374 0.0
C2483 C 0.01403 0.42772 0.26942 0.0
H2484 H 0.62142 0.64175 0.32039 0.0
H2485 H 0.66853 0.64128 0.30001 0.0
H2486 H 0.64973 0.61497 0.27708 0.0
H2487 H 0.59164 0.59446 0.32142 0.0
H2488 H 0.57288 0.59538 0.31175 0.0
H2489 H 0.59008 0.61419 0.32626 0.0
H2490 H 0.59486 0.6355 0.29597 0.0
H2491 H 0.57758 0.61677 0.2814 0.0
H2492 H 0.59951 0.63024 0.27039 0.0
H2493 H 0.6253 0.58762 0.25789 0.0
H2494 H 0.59763 0.56306 0.24171 0.0
H2495 H 0.56702 0.58272 0.27363 0.0
C2496 C 0.62782 0.63617 0.31106 0.0
C2497 C 0.64641 0.64346 0.31202 0.0
C2498 C 0.6543 0.63588 0.29945 0.0
C2499 C 0.64373 0.62093 0.28646 0.0
C2500 C 0.62538 0.61396 0.28605 0.0
C2501 C 0.61754 0.6215 0.29784 0.0
C2502 C 0.59761 0.61172 0.29443 0.0
C2503 C 0.58746 0.60345 0.31467 0.0
C2504 C 0.59207 0.62431 0.28498 0.0
C2505 C 0.59535 0.5973 0.27907 0.0
C2506 C 0.61149 0.59872 0.27452 0.0
C2507 C 0.61263 0.58648 0.26121 0.0
C2508 C 0.59687 0.57255 0.25221 0.0
C2509 C 0.58028 0.5711 0.25642 0.0
C2510 C 0.57958 0.58366 0.27 0.0
H2511 H 0.3692 0.00978 0.29625 0.0
H2512 H 0.33671 0.95254 0.30853 0.0
H2513 H 0.35671 0.94688 0.28694 0.0
H2514 H 0.38101 0.00568 0.24295 0.0
H2515 H 0.40357 0.02437 0.24539 0.0
H2516 H 0.38611 0.024 0.26077 0.0
H2517 H 0.40388 0.02768 0.29425 0.0
H2518 H 0.4214 0.02812 0.27898 0.0
H2519 H 0.41097 0.01189 0.29928 0.0
H2520 H 0.37997 0.94721 0.26459 0.0
H2521 H 0.40656 0.95373 0.24442 0.0
H2522 H 0.42531 0.01097 0.24802 0.0
C2523 C 0.36625 0.99606 0.2942 0.0
C2524 C 0.3514 0.98158 0.30396 0.0
C2525 C 0.34806 0.96383 0.30122 0.0
C2526 C 0.35928 0.96046 0.28891 0.0
C2527 C 0.37385 0.975 0.27957 0.0
C2528 C 0.3775 0.99247 0.28216 0.0
C2529 C 0.39466 0.0057 0.27129 0.0
C2530 C 0.39112 0.01552 0.25408 0.0
C2531 C 0.40855 0.01914 0.28688 0.0
C2532 C 0.40008 0.99291 0.26235 0.0
C2533 C 0.38775 0.97526 0.26714 0.0
C2534 C 0.3898 0.96098 0.26081 0.0
C2535 C 0.40503 0.96485 0.24949 0.0
C2536 C 0.41816 0.98288 0.24483 0.0
C2537 C 0.41548 0.99705 0.25117 0.0
H2538 H 0.63502 0.00476 0.29223 0.0
H2539 H 0.60233 0.96732 0.33996 0.0
H2540 H 0.57538 0.96398 0.3237 0.0
H2541 H 0.6101 0.02671 0.28636 0.0
H2542 H 0.61231 0.02834 0.25858 0.0
H2543 H 0.62924 0.02802 0.2739 0.0
H2544 H 0.6254 0.00063 0.25249 0.0
H2545 H 0.60856 0.00096 0.237 0.0
H2546 H 0.6036 0.98067 0.2501 0.0
H2547 H 0.55236 0.96625 0.30395 0.0
H2548 H 0.5339 0.97108 0.27966 0.0
H2549 H 0.58077 0.00461 0.24218 0.0
C2550 C 0.62216 0.99583 0.29918 0.0
C2551 C 0.62075 0.98635 0.31742 0.0
C2552 C 0.60371 0.97466 0.32597 0.0
C2553 C 0.58833 0.97273 0.3169 0.0
C2554 C 0.59017 0.98236 0.29906 0.0
C2555 C 0.60658 0.99344 0.29005 0.0
C2556 C 0.60464 0.00176 0.27046 0.0
C2557 C 0.61467 0.02243 0.27246 0.0
C2558 C 0.61092 0.99564 0.25138 0.0
C2559 C 0.58461 0.9938 0.2701 0.0
C2560 C 0.57661 0.98281 0.28688 0.0
C2561 C 0.5584 0.9745 0.29048 0.0
C2562 C 0.54798 0.97723 0.27638 0.0
C2563 C 0.55565 0.98789 0.25852 0.0
C2564 C 0.57434 0.99639 0.25556 0.0
H2565 H 0.01357 0.63003 0.32754 0.0
H2566 H 0.99441 0.65072 0.27994 0.0
H2567 H 0.99495 0.62949 0.25447 0.0
H2568 H 0.04279 0.62227 0.29497 0.0
H2569 H 0.03749 0.60151 0.30719 0.0
H2570 H 0.03612 0.6187 0.32179 0.0
H2571 H 0.00328 0.59563 0.33109 0.0
H2572 H 0.00456 0.57837 0.31655 0.0
H2573 H 0.98751 0.5834 0.31062 0.0
H2574 H 0.99816 0.60679 0.23393 0.0
H2575 H 0.00183 0.58214 0.21994 0.0
H2576 H 0.01728 0.57457 0.28085 0.0
C2577 C 0.0095 0.63004 0.31175 0.0
C2578 C 0.00392 0.64198 0.3057 0.0
C2579 C 0.99859 0.64159 0.28495 0.0
C2580 C 0.99894 0.62964 0.27033 0.0
C2581 C 0.00444 0.618 0.27674 0.0
C2582 C 0.00945 0.61792 0.29697 0.0
C2583 C 0.01422 0.60354 0.29982 0.0
C2584 C 0.03382 0.61201 0.30633 0.0
C2585 C 0.00164 0.5894 0.31544 0.0
C2586 C 0.01114 0.59563 0.27803 0.0
C2587 C 0.00569 0.60435 0.26495 0.0
C2588 C 0.00235 0.5998 0.244 0.0
C2589 C 0.00454 0.58586 0.23619 0.0
C2590 C 0.00982 0.57652 0.24933 0.0
C2591 C 0.01312 0.58145 0.27053 0.0
H2592 H 0.37731 0.38667 0.32777 0.0
H2593 H 0.35491 0.33965 0.28703 0.0
H2594 H 0.37811 0.35729 0.26086 0.0
H2595 H 0.38913 0.41981 0.28923 0.0
H2596 H 0.40967 0.43623 0.30166 0.0
H2597 H 0.39133 0.41987 0.31698 0.0
H2598 H 0.41165 0.40943 0.33266 0.0
H2599 H 0.43008 0.42582 0.31745 0.0
H2600 H 0.42343 0.40237 0.31564 0.0
H2601 H 0.4029 0.38085 0.23854 0.0
H2602 H 0.42826 0.40753 0.22272 0.0
H2603 H 0.4358 0.4381 0.27978 0.0
C2604 C 0.37729 0.38008 0.31333 0.0
C2605 C 0.36431 0.36187 0.30929 0.0
C2606 C 0.36479 0.35362 0.29037 0.0
C2607 C 0.37787 0.36353 0.27544 0.0
C2608 C 0.39047 0.38154 0.2799 0.0
C2609 C 0.39039 0.38965 0.2985 0.0
C2610 C 0.40556 0.40904 0.29974 0.0
C2611 C 0.39849 0.42199 0.30203 0.0
C2612 C 0.41844 0.41182 0.31742 0.0
C2613 C 0.41407 0.4107 0.27878 0.0
C2614 C 0.40514 0.39476 0.2675 0.0
C2615 C 0.41017 0.39332 0.24737 0.0
C2616 C 0.42473 0.40856 0.23858 0.0
C2617 C 0.43428 0.42503 0.24998 0.0
C2618 C 0.4288 0.42591 0.27043 0.0
H2619 H 0.30206 0.28088 0.37371 0.0
H2620 H 0.35375 0.3244 0.39473 0.0
H2621 H 0.35704 0.30327 0.41641 0.0
H2622 H 0.28864 0.25741 0.42348 0.0
H2623 H 0.27766 0.23527 0.41158 0.0
H2624 H 0.27878 0.25391 0.39814 0.0
H2625 H 0.29353 0.24763 0.36674 0.0
H2626 H 0.29252 0.22903 0.3801 0.0
H2627 H 0.31355 0.24696 0.37058 0.0
H2628 H 0.356 0.27771 0.43405 0.0
H2629 H 0.34983 0.24879 0.4483 0.0
H2630 H 0.29851 0.22128 0.41731 0.0
C2631 C 0.31396 0.28596 0.38305 0.0
C2632 C 0.32765 0.30433 0.38247 0.0
C2633 C 0.34306 0.31042 0.39486 0.0
C2634 C 0.34509 0.29852 0.40727 0.0
C2635 C 0.33153 0.28052 0.40731 0.0
C2636 C 0.31619 0.27421 0.39572 0.0
C2637 C 0.30386 0.25404 0.39849 0.0
C2638 C 0.28619 0.24992 0.40852 0.0
C2639 C 0.30068 0.24382 0.37774 0.0
C2640 C 0.31486 0.25008 0.41316 0.0
C2641 C 0.33078 0.26561 0.41797 0.0
C2642 C 0.34353 0.26546 0.43055 0.0
C2643 C 0.33996 0.24897 0.43846 0.0
C2644 C 0.32374 0.23286 0.43388 0.0
C2645 C 0.31096 0.23346 0.42119 0.0
H2646 H 0.71152 0.03842 0.37012 0.0
H2647 H 0.66346 0.03484 0.39447 0.0
H2648 H 0.68186 0.06129 0.41737 0.0
H2649 H 0.73525 0.05027 0.41839 0.0
H2650 H 0.75654 0.06516 0.40662 0.0
H2651 H 0.7395 0.04626 0.39205 0.0
H2652 H 0.74167 0.06781 0.36327 0.0
H2653 H 0.75867 0.0868 0.37777 0.0
H2654 H 0.7388 0.08649 0.36991 0.0
H2655 H 0.70593 0.08872 0.43711 0.0
H2656 H 0.73336 0.11343 0.45354 0.0
H2657 H 0.76518 0.09805 0.41658 0.0
C2658 C 0.70482 0.04318 0.38025 0.0
C2659 C 0.68606 0.03464 0.38049 0.0
C2660 C 0.67783 0.0412 0.39407 0.0
C2661 C 0.68817 0.05623 0.40708 0.0
C2662 C 0.70667 0.06439 0.40637 0.0
C2663 C 0.71489 0.05797 0.39341 0.0
C2664 C 0.73493 0.06879 0.39586 0.0
C2665 C 0.74196 0.05691 0.4037 0.0
C2666 C 0.74405 0.07802 0.37549 0.0
C2667 C 0.73678 0.08239 0.41218 0.0
C2668 C 0.72037 0.07975 0.41798 0.0
C2669 C 0.71883 0.09086 0.43271 0.0
C2670 C 0.73446 0.1049 0.44186 0.0
C2671 C 0.75136 0.10758 0.43636 0.0
C2672 C 0.75244 0.09619 0.42125 0.0
H2673 H 0.97211 0.6702 0.38938 0.0
H2674 H 0.97213 0.70048 0.33653 0.0
H2675 H 0.94696 0.70207 0.35181 0.0
H2676 H 0.9249 0.64437 0.39757 0.0
H2677 H 0.92647 0.64573 0.42544 0.0
H2678 H 0.94425 0.64663 0.41021 0.0
H2679 H 0.96688 0.67705 0.42788 0.0
H2680 H 0.9492 0.67618 0.44326 0.0
H2681 H 0.96291 0.69552 0.4275 0.0
H2682 H 0.92098 0.69904 0.37196 0.0
H2683 H 0.89779 0.69438 0.3971 0.0
H2684 H 0.91646 0.66848 0.43853 0.0
C2685 C 0.96678 0.67713 0.38103 0.0
C2686 C 0.97393 0.68512 0.36172 0.0
C2687 C 0.96682 0.69429 0.35135 0.0
C2688 C 0.95249 0.6952 0.35987 0.0
C2689 C 0.94566 0.68709 0.37888 0.0
C2690 C 0.95272 0.67846 0.3895 0.0
C2691 C 0.94335 0.67147 0.41005 0.0
C2692 C 0.9342 0.65083 0.41085 0.0
C2693 C 0.95636 0.6806 0.42824 0.0
C2694 C 0.9298 0.67737 0.40923 0.0
C2695 C 0.93126 0.68618 0.39102 0.0
C2696 C 0.9199 0.69243 0.38644 0.0
C2697 C 0.90683 0.68983 0.40096 0.0
C2698 C 0.90537 0.68133 0.42011 0.0
C2699 C 0.91703 0.67493 0.4241 0.0
H2700 H 0.37137 0.9953 0.71217 0.0
H2701 H 0.40069 0.04701 0.68185 0.0
H2702 H 0.42843 0.05268 0.69852 0.0
H2703 H 0.39447 0.00903 0.76014 0.0
H2704 H 0.39447 0.98845 0.76389 0.0
H2705 H 0.37698 0.98812 0.74907 0.0
H2706 H 0.38409 0.97355 0.71792 0.0
H2707 H 0.40156 0.97375 0.73269 0.0
H2708 H 0.40647 0.98442 0.70781 0.0
H2709 H 0.45255 0.05367 0.72033 0.0
H2710 H 0.47189 0.04884 0.74375 0.0
H2711 H 0.42734 0.99595 0.75865 0.0
C2712 C 0.38366 0.00775 0.7089 0.0
C2713 C 0.38387 0.02073 0.69572 0.0
C2714 C 0.40022 0.03684 0.69182 0.0
C2715 C 0.41604 0.0402 0.70126 0.0
C2716 C 0.41534 0.02723 0.71437 0.0
C2717 C 0.39963 0.01123 0.718 0.0
C2718 C 0.40254 0.99955 0.73278 0.0
C2719 C 0.39146 0.99609 0.75264 0.0
C2720 C 0.39842 0.98177 0.72216 0.0
C2721 C 0.42229 0.0116 0.73711 0.0
C2722 C 0.42939 0.02755 0.72642 0.0
C2723 C 0.44719 0.04116 0.7286 0.0
C2724 C 0.45804 0.03835 0.74199 0.0
C2725 C 0.4511 0.02201 0.75286 0.0
C2726 C 0.43301 0.00846 0.75029 0.0
H2727 H 0.01031 0.3657 0.72694 0.0
H2728 H 0.00323 0.38036 0.66542 0.0
H2729 H 0.00484 0.40779 0.67983 0.0
H2730 H 0.98206 0.37843 0.75177 0.0
H2731 H 0.99497 0.38671 0.77527 0.0
H2732 H 0.99542 0.36932 0.76002 0.0
H2733 H 0.02982 0.38895 0.75754 0.0
H2734 H 0.02949 0.4064 0.77285 0.0
H2735 H 0.03999 0.41152 0.74774 0.0
H2736 H 0.00631 0.43287 0.70058 0.0
H2737 H 0.00533 0.45332 0.72696 0.0
H2738 H 0.00928 0.42162 0.77564 0.0
C2739 C 0.00949 0.37494 0.71655 0.0
C2740 C 0.00695 0.37121 0.69507 0.0
C2741 C 0.00532 0.38317 0.68191 0.0
C2742 C 0.00627 0.39877 0.68993 0.0
C2743 C 0.00856 0.40201 0.7112 0.0
C2744 C 0.00997 0.3904 0.7244 0.0
C2745 C 0.01077 0.39632 0.74683 0.0
C2746 C 0.99486 0.38183 0.75919 0.0
C2747 C 0.02858 0.40108 0.75683 0.0
C2748 C 0.00947 0.41297 0.74411 0.0
C2749 C 0.0085 0.41613 0.72339 0.0
C2750 C 0.00713 0.43061 0.71686 0.0
C2751 C 0.00665 0.44217 0.73193 0.0
C2752 C 0.0073 0.43905 0.75326 0.0
C2753 C 0.00874 0.42426 0.75941 0.0
H2754 H 0.64561 0.61846 0.70828 0.0
H2755 H 0.62912 0.65791 0.71236 0.0
H2756 H 0.60276 0.63677 0.73253 0.0
H2757 H 0.6013 0.57847 0.7044 0.0
H2758 H 0.60645 0.56503 0.72065 0.0
H2759 H 0.62377 0.58285 0.70555 0.0
H2760 H 0.64249 0.59724 0.73881 0.0
H2761 H 0.62526 0.57943 0.75399 0.0
H2762 H 0.6328 0.60263 0.76043 0.0
H2763 H 0.57819 0.61175 0.75169 0.0
H2764 H 0.55754 0.58475 0.7712 0.0
H2765 H 0.59047 0.56168 0.75743 0.0
C2766 C 0.63634 0.62252 0.71331 0.0
C2767 C 0.63933 0.63977 0.70865 0.0
C2768 C 0.6271 0.64477 0.71576 0.0
C2769 C 0.61204 0.63283 0.72717 0.0
C2770 C 0.60946 0.61598 0.73157 0.0
C2771 C 0.6213 0.61082 0.72509 0.0
C2772 C 0.61566 0.59217 0.73294 0.0
C2773 C 0.61155 0.57884 0.7148 0.0
C2774 C 0.6299 0.59292 0.74741 0.0
C2775 C 0.59884 0.58775 0.74477 0.0
C2776 C 0.59549 0.60166 0.74355 0.0
C2777 C 0.58075 0.60082 0.75297 0.0
C2778 C 0.56916 0.58545 0.7642 0.0
C2779 C 0.57246 0.57112 0.76625 0.0
C2780 C 0.58747 0.5723 0.75615 0.0
H2781 H 0.68941 0.72855 0.66023 0.0
H2782 H 0.66329 0.68189 0.61893 0.0
H2783 H 0.65991 0.70019 0.59274 0.0
H2784 H 0.66128 0.74584 0.64784 0.0
H2785 H 0.67873 0.76923 0.6491 0.0
H2786 H 0.68032 0.75291 0.66439 0.0
H2787 H 0.711 0.76261 0.64791 0.0
H2788 H 0.7095 0.77898 0.63257 0.0
H2789 H 0.71296 0.76223 0.6201 0.0
H2790 H 0.65868 0.7228 0.57123 0.0
H2791 H 0.65877 0.7486 0.55577 0.0
H2792 H 0.68431 0.78088 0.61103 0.0
C2793 C 0.68317 0.7223 0.64558 0.0
C2794 C 0.67665 0.70379 0.6416 0.0
C2795 C 0.66834 0.69601 0.62236 0.0
C2796 C 0.66641 0.7063 0.60732 0.0
C2797 C 0.67275 0.7244 0.61174 0.0
C2798 C 0.68091 0.73239 0.63037 0.0
C2799 C 0.68573 0.75196 0.63132 0.0
C2800 C 0.67593 0.75517 0.64922 0.0
C2801 C 0.70601 0.7647 0.63308 0.0
C2802 C 0.67887 0.75356 0.61041 0.0
C2803 C 0.67158 0.7375 0.59937 0.0
C2804 C 0.66426 0.73545 0.57975 0.0
C2805 C 0.66424 0.75017 0.57117 0.0
C2806 C 0.67132 0.76676 0.58224 0.0
C2807 C 0.67888 0.76845 0.60209 0.0
H2808 H 0.31406 0.97592 0.62239 0.0
H2809 H 0.29002 0.96471 0.6835 0.0
H2810 H 0.26386 0.93693 0.66987 0.0
H2811 H 0.27312 0.96145 0.5949 0.0
H2812 H 0.27873 0.95194 0.57316 0.0
H2813 H 0.29613 0.97044 0.58786 0.0
H2814 H 0.3109 0.95161 0.59449 0.0
H2815 H 0.29354 0.93305 0.5798 0.0
H2816 H 0.29799 0.92974 0.60605 0.0
H2817 H 0.2407 0.91022 0.65007 0.0
H2818 H 0.22056 0.88729 0.62446 0.0
H2819 H 0.25822 0.91663 0.57547 0.0
C2820 C 0.30333 0.96749 0.63287 0.0
C2821 C 0.30407 0.97229 0.65403 0.0
C2822 C 0.28968 0.9612 0.66725 0.0
C2823 C 0.27481 0.94538 0.65967 0.0
C2824 C 0.2744 0.94101 0.63875 0.0
C2825 C 0.28815 0.9518 0.62544 0.0
C2826 C 0.28384 0.94442 0.60341 0.0
C2827 C 0.2829 0.95787 0.58898 0.0
C2828 C 0.29737 0.93941 0.59548 0.0
C2829 C 0.2656 0.92777 0.60648 0.0
C2830 C 0.26054 0.92597 0.62706 0.0
C2831 C 0.24446 0.9115 0.6339 0.0
C2832 C 0.23315 0.89854 0.6193 0.0
C2833 C 0.23787 0.90028 0.59809 0.0
C2834 C 0.25429 0.9151 0.59161 0.0
H2835 H 0.04759 0.34642 0.63319 0.0
H2836 H 0.02041 0.29279 0.65911 0.0
H2837 H 0.04028 0.28552 0.63949 0.0
H2838 H 0.05556 0.33426 0.58247 0.0
H2839 H 0.07746 0.35399 0.58003 0.0
H2840 H 0.06084 0.35494 0.59573 0.0
H2841 H 0.08221 0.36589 0.62729 0.0
H2842 H 0.09893 0.36508 0.61165 0.0
H2843 H 0.09166 0.35276 0.63547 0.0
H2844 H 0.06232 0.28367 0.61622 0.0
H2845 H 0.0873 0.28851 0.59349 0.0
H2846 H 0.10126 0.34379 0.58432 0.0
C2847 C 0.04586 0.33317 0.63472 0.0
C2848 C 0.03247 0.32014 0.64759 0.0
C2849 C 0.03066 0.30299 0.64938 0.0
C2850 C 0.04181 0.2987 0.63822 0.0
C2851 C 0.05482 0.31178 0.62556 0.0
C2852 C 0.05708 0.32875 0.62396 0.0
C2853 C 0.07255 0.34056 0.60987 0.0
C2854 C 0.06622 0.34627 0.5909 0.0
C2855 C 0.08721 0.35704 0.62179 0.0
C2856 C 0.07857 0.32755 0.60378 0.0
C2857 C 0.06801 0.31095 0.61278 0.0
C2858 C 0.07075 0.29663 0.60915 0.0
C2859 C 0.08486 0.29945 0.59619 0.0
C2860 C 0.09611 0.3165 0.58731 0.0
C2861 C 0.09286 0.33067 0.59108 0.0
H2862 H 0.29923 0.33965 0.6548 0.0
H2863 H 0.27365 0.2828 0.66857 0.0
H2864 H 0.24733 0.27686 0.64799 0.0
H2865 H 0.25783 0.34174 0.65667 0.0
H2866 H 0.26542 0.35784 0.63607 0.0
H2867 H 0.28132 0.35752 0.65333 0.0
H2868 H 0.29776 0.35393 0.62173 0.0
H2869 H 0.28174 0.35389 0.6044 0.0
H2870 H 0.28562 0.33534 0.6038 0.0
H2871 H 0.22591 0.27687 0.62177 0.0
H2872 H 0.20921 0.28303 0.59608 0.0
H2873 H 0.24761 0.34046 0.60248 0.0
C2874 C 0.28789 0.32601 0.65389 0.0
C2875 C 0.28838 0.31166 0.6633 0.0
C2876 C 0.2734 0.29399 0.66169 0.0
C2877 C 0.25848 0.2905 0.64992 0.0
C2878 C 0.25865 0.3049 0.64029 0.0
C2879 C 0.2728 0.32238 0.6426 0.0
C2880 C 0.2699 0.33544 0.63041 0.0
C2881 C 0.26853 0.34893 0.64499 0.0
C2882 C 0.28463 0.34522 0.61412 0.0
C2883 C 0.25216 0.32254 0.62031 0.0
C2884 C 0.24592 0.30499 0.6261 0.0
C2885 C 0.23043 0.29063 0.61758 0.0
C2886 C 0.22095 0.29432 0.60302 0.0
C2887 C 0.22679 0.31231 0.59723 0.0
C2888 C 0.24266 0.32652 0.60619 0.0
H2889 H 0.6927 0.97262 0.65472 0.0
H2890 H 0.65061 0.97864 0.6285 0.0
H2891 H 0.64372 0.95394 0.60336 0.0
H2892 H 0.70815 0.96482 0.60629 0.0
H2893 H 0.71333 0.94889 0.6168 0.0
H2894 H 0.71439 0.96651 0.63314 0.0
H2895 H 0.69239 0.94263 0.65893 0.0
H2896 H 0.69128 0.92493 0.64271 0.0
H2897 H 0.67113 0.92459 0.6497 0.0
H2898 H 0.64096 0.92792 0.58188 0.0
H2899 H 0.64378 0.90379 0.56424 0.0
H2900 H 0.68903 0.91656 0.60308 0.0
C2901 C 0.68198 0.96872 0.64376 0.0
C2902 C 0.6721 0.97743 0.64359 0.0
C2903 C 0.6583 0.97207 0.62887 0.0
C2904 C 0.6543 0.95807 0.61458 0.0
C2905 C 0.66439 0.94981 0.61511 0.0
C2906 C 0.67804 0.95505 0.6292 0.0
C2907 C 0.68727 0.94445 0.62615 0.0
C2908 C 0.70695 0.95691 0.62024 0.0
C2909 C 0.6854 0.9335 0.64553 0.0
C2910 C 0.6766 0.9323 0.60821 0.0
C2911 C 0.66334 0.93547 0.60217 0.0
C2912 C 0.65137 0.92542 0.58636 0.0
C2913 C 0.65303 0.91179 0.57649 0.0
C2914 C 0.66668 0.90859 0.58231 0.0
C2915 C 0.67863 0.919 0.59827 0.0
H2916 H 0.02701 0.69371 0.6244 0.0
H2917 H 0.04113 0.71839 0.68568 0.0
H2918 H 0.06948 0.74331 0.67187 0.0
H2919 H 0.07102 0.70571 0.6072 0.0
H2920 H 0.06773 0.7106 0.58115 0.0
H2921 H 0.04899 0.69424 0.59602 0.0
H2922 H 0.03285 0.71189 0.59028 0.0
H2923 H 0.0515 0.72826 0.57533 0.0
H2924 H 0.04389 0.73545 0.59744 0.0
H2925 H 0.09659 0.76496 0.65159 0.0
H2926 H 0.11918 0.78379 0.62547 0.0
H2927 H 0.08632 0.74635 0.57692 0.0
C2928 C 0.03616 0.70432 0.63489 0.0
C2929 C 0.03209 0.70411 0.65612 0.0
C2930 C 0.04412 0.71835 0.66937 0.0
C2931 C 0.06024 0.73249 0.66169 0.0
C2932 C 0.06393 0.7323 0.64067 0.0
C2933 C 0.05211 0.71875 0.62738 0.0
C2934 C 0.05881 0.72231 0.60524 0.0
C2935 C 0.06182 0.70732 0.59692 0.0
C2936 C 0.046 0.72462 0.59125 0.0
C2937 C 0.07629 0.73992 0.60818 0.0
C2938 C 0.0791 0.74531 0.62878 0.0
C2939 C 0.0945 0.76094 0.6354 0.0
C2940 C 0.10726 0.77148 0.62053 0.0
C2941 C 0.10439 0.76646 0.5993 0.0
C2942 C 0.08873 0.75047 0.59308 0.0
H2943 H 0.99442 0.63665 0.72414 0.0
H2944 H 0.96641 0.60766 0.66826 0.0
H2945 H 0.96317 0.57961 0.68232 0.0
H2946 H 0.01867 0.61476 0.73207 0.0
H2947 H 0.0165 0.61435 0.75988 0.0
H2948 H 0.0163 0.63187 0.74547 0.0
H2949 H 0.98582 0.62344 0.76168 0.0
H2950 H 0.98598 0.60596 0.77625 0.0
H2951 H 0.96741 0.60053 0.75955 0.0
H2952 H 0.96485 0.55527 0.70202 0.0
H2953 H 0.9692 0.5362 0.72626 0.0
H2954 H 0.99409 0.58106 0.77026 0.0
C2955 C 0.98758 0.6244 0.71483 0.0
C2956 C 0.98078 0.6243 0.69503 0.0
C2957 C 0.97171 0.60798 0.68347 0.0
C2958 C 0.96986 0.59203 0.69131 0.0
C2959 C 0.97692 0.59266 0.71085 0.0
C2960 C 0.98538 0.6084 0.72254 0.0
C2961 C 0.99159 0.60556 0.74317 0.0
C2962 C 0.01197 0.61734 0.74526 0.0
C2963 C 0.98213 0.60908 0.76123 0.0
C2964 C 0.98558 0.5858 0.7412 0.0
C2965 C 0.97721 0.57859 0.72244 0.0
C2966 C 0.97112 0.56072 0.71688 0.0
C2967 C 0.97356 0.54994 0.73089 0.0
C2968 C 0.98186 0.55696 0.75042 0.0
C2969 C 0.98786 0.57518 0.75549 0.0
H2970 H 0.36014 0.36023 0.73166 0.0
H2971 H 0.38489 0.36602 0.67149 0.0
H2972 H 0.41274 0.39214 0.68477 0.0
H2973 H 0.38185 0.40813 0.7449 0.0
H2974 H 0.38467 0.40491 0.7718 0.0
H2975 H 0.36623 0.38731 0.75729 0.0
H2976 H 0.37614 0.36485 0.76697 0.0
H2977 H 0.39462 0.38236 0.78148 0.0
H2978 H 0.39853 0.37027 0.76113 0.0
H2979 H 0.43792 0.41704 0.70441 0.0
H2980 H 0.45947 0.4389 0.72967 0.0
H2981 H 0.4191 0.4163 0.77779 0.0
C2982 C 0.37136 0.36717 0.72125 0.0
C2983 C 0.37037 0.36124 0.70051 0.0
C2984 C 0.3854 0.3704 0.68742 0.0
C2985 C 0.40125 0.38526 0.6948 0.0
C2986 C 0.40189 0.3907 0.71535 0.0
C2987 C 0.38741 0.38194 0.72845 0.0
C2988 C 0.39201 0.39005 0.75014 0.0
C2989 C 0.38051 0.39808 0.75639 0.0
C2990 C 0.39023 0.37605 0.76585 0.0
C2991 C 0.41133 0.40468 0.74713 0.0
C2992 C 0.41668 0.40486 0.72691 0.0
C2993 C 0.43393 0.41701 0.72033 0.0
C2994 C 0.44611 0.42929 0.73484 0.0
C2995 C 0.44105 0.42925 0.75577 0.0
C2996 C 0.42335 0.4168 0.76189 0.0
H2997 H 0.64007 0.00116 0.71461 0.0
H2998 H 0.67181 0.05756 0.69825 0.0
H2999 H 0.65017 0.06341 0.71641 0.0
H3000 H 0.59748 0.99681 0.70727 0.0
H3001 H 0.58721 0.98165 0.72857 0.0
H3002 H 0.6054 0.98216 0.7147 0.0
H3003 H 0.62288 0.98851 0.74909 0.0
H3004 H 0.60474 0.988 0.76307 0.0
H3005 H 0.62688 0.00749 0.76518 0.0
H3006 H 0.62516 0.06294 0.73719 0.0
H3007 H 0.59828 0.05604 0.75745 0.0
H3008 H 0.58272 0.99971 0.7588 0.0
C3009 C 0.64255 0.01478 0.7149 0.0
C3010 C 0.65767 0.02896 0.70515 0.0
C3011 C 0.66031 0.04653 0.70566 0.0
C3012 C 0.64811 0.04996 0.71595 0.0
C3013 C 0.63331 0.03563 0.72541 0.0
C3014 C 0.63046 0.01837 0.72484 0.0
C3015 C 0.61339 0.00521 0.7358 0.0
C3016 C 0.60009 0.9906 0.72068 0.0
C3017 C 0.61721 0.99682 0.75439 0.0
C3018 C 0.60706 0.01774 0.74278 0.0
C3019 C 0.61877 0.03526 0.73676 0.0
C3020 C 0.61588 0.04927 0.7419 0.0
C3021 C 0.60064 0.04524 0.75345 0.0
C3022 C 0.58843 0.02734 0.75957 0.0
C3023 C 0.59172 0.01346 0.75408 0.0
loop_
_geom_bond_atom_site_label_1
_geom_bond_atom_site_label_2
_geom_bond_distance
_geom_bond_site_symmetry_2
_ccdc_geom_bond_type
Co0 O1 2.216 . S
Co0 O2 2.091 . S
Co0 O4 2.004 1_554 S
Co0 O10 2.021 . S
Co0 O12 2.137 1_454 S
Co0 O13 2.244 1_455 S
O1 Co0 2.216 . S
O1 C8 1.247 . S
O2 Co0 2.091 . S
O2 C8 1.261 . S
C3 O12 1.247 . S
C3 O13 1.272 1_556 S
O4 Co0 2.004 1_556 S
O4 C9 1.259 . S
Co5 O6 2.061 1_554 S
Co5 O11 2.052 . S
Co5 O13 2.135 . S
O6 Co5 2.061 1_556 S
O6 C9 1.235 1_655 S
C7 O10 1.238 1_655 S
C7 O11 1.241 . S
C8 O1 1.247 . S
C8 O2 1.261 . S
C9 O4 1.259 . S
C9 O6 1.235 1_455 S
O10 Co0 2.021 . S
O10 C7 1.238 1_455 S
O11 Co5 2.052 . S
O11 C7 1.241 . S
O12 Co0 2.137 1_656 S
O12 C3 1.247 . S
O13 Co0 2.244 1_655 S
O13 C3 1.272 1_554 S
O13 Co5 2.135 . S
Co14 O15 2.216 1_554 S
Co14 O16 2.091 . S
Co14 O18 2.004 . S
Co14 O24 2.021 1_554 S
Co14 O26 2.137 . S
Co14 O27 2.244 . S
O15 Co14 2.216 1_556 S
O15 C22 1.247 . S
O16 Co14 2.091 . S
O16 C22 1.261 1_554 S
C17 O26 1.247 . S
C17 O27 1.272 . S
O18 Co14 2.004 . S
O18 C23 1.259 . S
Co19 O20 2.061 . S
Co19 O25 2.052 1_554 S
Co19 O27 2.135 . S
O20 Co19 2.061 . S
O20 C23 1.235 . S
C21 O24 1.238 . S
C21 O25 1.241 . S
C22 O15 1.247 . S
C22 O16 1.261 1_556 S
C23 O18 1.259 . S
C23 O20 1.235 . S
O24 Co14 2.021 1_556 S
O24 C21 1.238 . S
O25 Co19 2.052 1_556 S
O25 C21 1.241 . S
O26 Co14 2.137 . S
O26 C17 1.247 . S
O27 Co14 2.244 . S
O27 C17 1.272 . S
O27 Co19 2.135 . S
Co28 O29 2.216 1_554 S
Co28 O30 2.091 . S
Co28 O32 2.004 . S
Co28 O38 2.021 1_554 S
Co28 O40 2.136 . S
Co28 O41 2.244 1_545 S
O29 Co28 2.216 1_556 S
O29 C36 1.247 . S
O30 Co28 2.091 . S
O30 C36 1.261 1_554 S
C31 O40 1.232 1_565 S
C31 O41 1.272 . S
O32 Co28 2.004 . S
O32 C37 1.259 . S
Co33 O34 2.061 . S
Co33 O39 2.052 1_554 S
Co33 O41 2.135 . S
O34 Co33 2.061 . S
O34 C37 1.235 1_565 S
C35 O38 1.238 1_565 S
C35 O39 1.241 . S
C36 O29 1.247 . S
C36 O30 1.261 1_556 S
C37 O32 1.259 . S
C37 O34 1.235 1_545 S
O38 Co28 2.021 1_556 S
O38 C35 1.238 1_545 S
O39 Co33 2.052 1_556 S
O39 C35 1.241 . S
O40 Co28 2.136 . S
O40 C31 1.232 1_545 S
O41 Co28 2.244 1_565 S
O41 C31 1.272 . S
O41 Co33 2.135 . S
Co42 O43 2.216 1_554 S
Co42 O44 2.091 . S
Co42 O46 2.004 . S
Co42 O52 2.021 1_554 S
Co42 O54 2.137 1_655 S
Co42 O55 2.244 1_655 S
O43 Co42 2.216 1_556 S
O43 C50 1.247 . S
O44 Co42 2.091 . S
O44 C50 1.261 1_554 S
C45 O54 1.247 . S
C45 O55 1.272 . S
O46 Co42 2.004 . S
O46 C51 1.302 . S
Co47 O48 2.061 . S
Co47 O53 2.052 1_554 S
Co47 O55 2.135 . S
O48 Co47 2.061 . S
O48 C51 1.192 1_455 S
C49 O52 1.238 1_455 S
C49 O53 1.241 . S
C50 O43 1.247 . S
C50 O44 1.261 1_556 S
C51 O46 1.302 . S
C51 O48 1.192 1_655 S
O52 Co42 2.021 1_556 S
O52 C49 1.238 1_655 S
O53 Co47 2.052 1_556 S
O53 C49 1.241 . S
O54 Co42 2.137 1_455 S
O54 C45 1.247 . S
O55 Co42 2.244 1_455 S
O55 C45 1.272 . S
O55 Co47 2.135 . S
Co56 O57 2.216 . S
Co56 O58 2.091 . S
Co56 O60 2.004 1_554 S
Co56 O66 2.021 . S
Co56 O68 2.137 1_554 S
Co56 O69 2.244 1_554 S
O57 Co56 2.216 . S
O57 C64 1.247 . S
O58 Co56 2.091 . S
O58 C64 1.261 . S
C59 O68 1.247 . S
C59 O69 1.272 . S
O60 Co56 2.004 1_556 S
O60 C65 1.259 . S
Co61 O62 2.061 . S
Co61 O67 2.052 1_556 S
Co61 O69 2.135 . S
O62 Co61 2.061 . S
O62 C65 1.235 . S
C63 O66 1.238 . S
C63 O67 1.241 . S
C64 O57 1.247 . S
C64 O58 1.261 . S
C65 O60 1.259 . S
C65 O62 1.235 . S
O66 Co56 2.021 . S
O66 C63 1.238 . S
O67 Co61 2.052 1_554 S
O67 C63 1.241 . S
O68 Co56 2.137 1_556 S
O68 C59 1.247 . S
O69 Co56 2.244 1_556 S
O69 C59 1.272 . S
O69 Co61 2.135 . S
Co70 O71 2.216 . S
Co70 O72 2.091 . S
Co70 O74 2.004 1_554 S
Co70 O80 2.021 . S
Co70 O82 2.137 1_564 S
Co70 O83 2.244 1_565 S
O71 Co70 2.216 . S
O71 C78 1.247 . S
O72 Co70 2.091 . S
O72 C78 1.261 . S
C73 O82 1.247 . S
C73 O83 1.272 1_556 S
O74 Co70 2.004 1_556 S
O74 C79 1.302 . S
Co75 O76 2.061 1_554 S
Co75 O81 2.052 . S
Co75 O83 2.135 . S
O76 Co75 2.061 1_556 S
O76 C79 1.192 1_545 S
C77 O80 1.238 1_545 S
C77 O81 1.241 . S
C78 O71 1.247 . S
C78 O72 1.261 . S
C79 O74 1.302 . S
C79 O76 1.192 1_565 S
O80 Co70 2.021 . S
O80 C77 1.238 1_565 S
O81 Co75 2.052 . S
O81 C77 1.241 . S
O82 Co70 2.137 1_546 S
O82 C73 1.247 . S
O83 Co70 2.244 1_545 S
O83 C73 1.272 1_554 S
O83 Co75 2.135 . S
Co84 O85 2.216 . S
Co84 O86 2.091 . S
Co84 O88 2.004 . S
Co84 O94 2.021 . S
Co84 O96 2.137 . S
Co84 O97 2.244 . S
O85 Co84 2.216 . S
O85 C92 1.247 . S
O86 Co84 2.091 . S
O86 C92 1.261 . S
C87 O96 1.247 . S
C87 O97 1.272 . S
O88 Co84 2.004 . S
O88 C93 1.259 . S
Co89 O90 2.061 . S
Co89 O95 2.052 . S
Co89 O97 2.135 . S
O90 Co89 2.061 . S
O90 C93 1.235 . S
C91 O94 1.238 . S
C91 O95 1.241 . S
C92 O85 1.247 . S
C92 O86 1.261 . S
C93 O88 1.259 . S
C93 O90 1.235 . S
O94 Co84 2.021 . S
O94 C91 1.238 . S
O95 Co89 2.052 . S
O95 C91 1.241 . S
O96 Co84 2.137 . S
O96 C87 1.247 . S
O97 Co84 2.244 . S
O97 C87 1.272 . S
O97 Co89 2.135 . S
Co98 O99 2.212 1_565 S
Co98 O100 2.091 . S
Co98 O102 2.004 . S
Co98 O108 2.021 . S
Co98 O110 2.137 1_565 S
Co98 O111 2.244 1_565 S
O99 Co98 2.212 1_545 S
O99 C106 1.233 1_545 S
O100 Co98 2.091 . S
O100 C106 1.261 . S
C101 O110 1.247 . S
C101 O111 1.272 . S
O102 Co98 2.004 . S
O102 C107 1.259 . S
Co103 O104 2.061 . S
Co103 O109 2.052 . S
Co103 O111 2.135 1_565 S
O104 Co103 2.061 . S
O104 C107 1.235 . S
C105 O108 1.238 . S
C105 O109 1.241 . S
C106 O99 1.233 1_565 S
C106 O100 1.261 . S
C107 O102 1.259 . S
C107 O104 1.235 . S
O108 Co98 2.021 . S
O108 C105 1.238 . S
O109 Co103 2.052 . S
O109 C105 1.241 . S
O110 Co98 2.137 1_545 S
O110 C101 1.247 . S
O111 Co98 2.244 1_545 S
O111 C101 1.272 . S
O111 Co103 2.135 1_545 S
Co112 O113 2.216 . S
Co112 O114 2.091 . S
Co112 O116 2.004 . S
Co112 O122 2.021 . S
Co112 O124 2.137 1_455 S
Co112 O125 2.244 . S
O113 Co112 2.216 . S
O113 C120 1.247 . S
O114 Co112 2.091 . S
O114 C120 1.261 . S
C115 O124 1.247 . S
C115 O125 1.272 1_655 S
O116 Co112 2.004 . S
O116 C121 1.259 . S
Co117 O118 2.061 . S
Co117 O123 2.052 . S
Co117 O125 2.135 . S
O118 Co117 2.061 . S
O118 C121 1.235 . S
C119 O122 1.238 . S
C119 O123 1.241 . S
C120 O113 1.247 . S
C120 O114 1.261 . S
C121 O116 1.259 . S
C121 O118 1.235 . S
O122 Co112 2.021 . S
O122 C119 1.238 . S
O123 Co117 2.052 . S
O123 C119 1.241 . S
O124 Co112 2.137 1_655 S
O124 C115 1.247 . S
O125 Co112 2.244 . S
O125 C115 1.272 1_455 S
O125 Co117 2.135 . S
Co126 O127 2.222 . S
Co126 O128 2.091 . S
Co126 O130 2.004 . S
Co126 O136 2.021 . S
Co126 O138 2.137 1_565 S
Co126 O139 2.244 1_565 S
O127 Co126 2.222 . S
O127 C134 1.247 . S
O128 Co126 2.091 . S
O128 C134 1.261 . S
C129 O138 1.247 . S
C129 O139 1.272 . S
O130 Co126 2.004 . S
O130 C135 1.259 . S
Co131 O132 2.061 . S
Co131 O137 2.052 . S
Co131 O139 2.135 1_565 S
O132 Co131 2.061 . S
O132 C135 1.235 . S
C133 O136 1.238 . S
C133 O137 1.241 . S
C134 O127 1.247 . S
C134 O128 1.261 . S
C135 O130 1.259 . S
C135 O132 1.235 . S
O136 Co126 2.021 . S
O136 C133 1.238 . S
O137 Co131 2.052 . S
O137 C133 1.241 . S
O138 Co126 2.137 1_545 S
O138 C129 1.247 . S
O139 Co126 2.244 1_545 S
O139 C129 1.272 . S
O139 Co131 2.135 1_545 S
Co140 O141 2.216 1_455 S
Co140 O142 2.091 1_455 S
Co140 O144 2.004 . S
Co140 O150 2.021 . S
Co140 O152 2.137 1_455 S
Co140 O153 2.244 . S
O141 Co140 2.216 1_655 S
O141 C148 1.247 . S
O142 Co140 2.091 1_655 S
O142 C148 1.261 . S
C143 O152 1.247 1_455 S
C143 O153 1.272 . S
O144 Co140 2.004 . S
O144 C149 1.259 . S
Co145 O146 2.061 . S
Co145 O151 2.052 . S
Co145 O153 2.135 . S
O146 Co145 2.061 . S
O146 C149 1.235 . S
C147 O150 1.238 . S
C147 O151 1.241 . S
C148 O141 1.247 . S
C148 O142 1.261 . S
C149 O144 1.259 . S
C149 O146 1.235 . S
O150 Co140 2.021 . S
O150 C147 1.238 . S
O151 Co145 2.052 . S
O151 C147 1.241 . S
O152 Co140 2.137 1_655 S
O152 C143 1.247 1_655 S
O153 Co140 2.244 . S
O153 C143 1.272 . S
O153 Co145 2.135 . S
Co154 O155 2.216 . S
Co154 O156 2.091 . S
Co154 O158 2.004 . S
Co154 O164 2.021 . S
Co154 O166 2.137 . S
Co154 O167 2.244 . S
O155 Co154 2.216 . S
O155 C162 1.247 . S
O156 Co154 2.091 . S
O156 C162 1.261 . S
C157 O166 1.247 . S
C157 O167 1.272 . S
O158 Co154 2.004 . S
O158 C163 1.259 . S
Co159 O160 2.061 . S
Co159 O165 2.052 . S
Co159 O167 2.135 . S
O160 Co159 2.061 . S
O160 C163 1.235 . S
C161 O164 1.238 . S
C161 O165 1.241 . S
C162 O155 1.247 . S
C162 O156 1.261 . S
C163 O158 1.259 . S
C163 O160 1.235 . S
O164 Co154 2.021 . S
O164 C161 1.238 . S
O165 Co159 2.052 . S
O165 C161 1.241 . S
O166 Co154 2.137 . S
O166 C157 1.247 . S
O167 Co154 2.244 . S
O167 C157 1.272 . S
O167 Co159 2.135 . S
Co168 O169 2.216 . S
Co168 O170 2.091 . S
Co168 O172 2.004 . S
Co168 O178 2.021 . S
Co168 O180 2.137 1_545 S
Co168 O181 2.246 . S
O169 Co168 2.216 . S
O169 C176 1.247 . S
O170 Co168 2.091 . S
O170 C176 1.261 . S
C171 O180 1.247 . S
C171 O181 1.259 1_565 S
O172 Co168 2.004 . S
O172 C177 1.259 . S
Co173 O174 2.061 . S
Co173 O179 2.052 . S
Co173 O181 2.149 . S
O174 Co173 2.061 . S
O174 C177 1.235 . S
C175 O178 1.238 . S
C175 O179 1.241 . S
C176 O169 1.247 . S
C176 O170 1.261 . S
C177 O172 1.259 . S
C177 O174 1.235 . S
O178 Co168 2.021 . S
O178 C175 1.238 . S
O179 Co173 2.052 . S
O179 C175 1.241 . S
O180 Co168 2.137 1_565 S
O180 C171 1.247 . S
O181 Co168 2.246 . S
O181 C171 1.259 1_545 S
O181 Co173 2.149 . S
Co182 O183 2.216 1_655 S
Co182 O184 2.091 1_655 S
Co182 O186 2.004 . S
Co182 O192 2.021 . S
Co182 O194 2.137 1_655 S
Co182 O195 2.244 . S
O183 Co182 2.216 1_455 S
O183 C190 1.247 . S
O184 Co182 2.091 1_455 S
O184 C190 1.261 . S
C185 O194 1.247 1_655 S
C185 O195 1.272 . S
O186 Co182 2.004 . S
O186 C191 1.259 . S
Co187 O188 2.061 . S
Co187 O193 2.052 . S
Co187 O195 2.135 . S
O188 Co187 2.061 . S
O188 C191 1.235 . S
C189 O192 1.238 . S
C189 O193 1.241 . S
C190 O183 1.247 . S
C190 O184 1.261 . S
C191 O186 1.259 . S
C191 O188 1.235 . S
O192 Co182 2.021 . S
O192 C189 1.238 . S
O193 Co187 2.052 . S
O193 C189 1.241 . S
O194 Co182 2.137 1_455 S
O194 C185 1.247 1_455 S
O195 Co182 2.244 . S
O195 C185 1.272 . S
O195 Co187 2.135 . S
Co196 O197 2.216 . S
Co196 O198 2.091 . S
Co196 O200 2.004 . S
Co196 O206 2.021 . S
Co196 O208 2.137 . S
Co196 O209 2.244 . S
O197 Co196 2.216 . S
O197 C204 1.247 . S
O198 Co196 2.091 . S
O198 C204 1.261 . S
C199 O208 1.247 . S
C199 O209 1.272 . S
O200 Co196 2.004 . S
O200 C205 1.259 . S
Co201 O202 2.061 . S
Co201 O207 2.052 . S
Co201 O209 2.135 . S
O202 Co201 2.061 . S
O202 C205 1.235 . S
C203 O206 1.238 . S
C203 O207 1.241 . S
C204 O197 1.247 . S
C204 O198 1.261 . S
C205 O200 1.259 . S
C205 O202 1.235 . S
O206 Co196 2.021 . S
O206 C203 1.238 . S
O207 Co201 2.052 . S
O207 C203 1.241 . S
O208 Co196 2.137 . S
O208 C199 1.247 . S
O209 Co196 2.244 . S
O209 C199 1.272 . S
O209 Co201 2.135 . S
Co210 O211 2.216 . S
Co210 O212 2.091 . S
Co210 O214 2.004 . S
Co210 O220 2.021 . S
Co210 O222 2.137 . S
Co210 O223 2.244 . S
O211 Co210 2.216 . S
O211 C218 1.247 . S
O212 Co210 2.091 . S
O212 C218 1.261 . S
C213 O222 1.247 . S
C213 O223 1.272 . S
O214 Co210 2.004 . S
O214 C219 1.259 . S
Co215 O216 2.061 . S
Co215 O221 2.052 . S
Co215 O223 2.135 . S
O216 Co215 2.061 . S
O216 C219 1.235 . S
C217 O220 1.238 . S
C217 O221 1.241 . S
C218 O211 1.247 . S
C218 O212 1.261 . S
C219 O214 1.259 . S
C219 O216 1.235 . S
O220 Co210 2.021 . S
O220 C217 1.238 . S
O221 Co215 2.052 . S
O221 C217 1.241 . S
O222 Co210 2.137 . S
O222 C213 1.247 . S
O223 Co210 2.244 . S
O223 C213 1.272 . S
O223 Co215 2.135 . S
Co224 O225 2.216 . S
Co224 O226 2.091 . S
Co224 O228 2.004 . S
Co224 O234 2.021 . S
Co224 O236 2.137 1_545 S
Co224 O237 2.245 1_545 S
O225 Co224 2.216 . S
O225 C232 1.247 . S
O226 Co224 2.091 . S
O226 C232 1.261 . S
C227 O236 1.247 . S
C227 O237 1.271 . S
O228 Co224 2.004 . S
O228 C233 1.259 . S
Co229 O230 2.061 . S
Co229 O235 2.052 . S
Co229 O237 2.135 1_545 S
O230 Co229 2.061 . S
O230 C233 1.235 . S
C231 O234 1.238 . S
C231 O235 1.241 . S
C232 O225 1.247 . S
C232 O226 1.261 . S
C233 O228 1.259 . S
C233 O230 1.235 . S
O234 Co224 2.021 . S
O234 C231 1.238 . S
O235 Co229 2.052 . S
O235 C231 1.241 . S
O236 Co224 2.137 1_565 S
O236 C227 1.247 . S
O237 Co224 2.245 1_565 S
O237 C227 1.271 . S
O237 Co229 2.135 1_565 S
Co238 O239 2.216 . S
Co238 O240 2.091 . S
Co238 O242 2.004 . S
Co238 O248 2.021 . S
Co238 O250 2.137 1_655 S
Co238 O251 2.245 . S
O239 Co238 2.216 . S
O239 C246 1.247 . S
O240 Co238 2.091 . S
O240 C246 1.261 . S
C241 O250 1.247 . S
C241 O251 1.264 1_455 S
O242 Co238 2.004 . S
O242 C247 1.259 . S
Co243 O244 2.061 . S
Co243 O249 2.052 . S
Co243 O251 2.143 . S
O244 Co243 2.061 . S
O244 C247 1.235 . S
C245 O248 1.238 . S
C245 O249 1.241 . S
C246 O239 1.247 . S
C246 O240 1.261 . S
C247 O242 1.259 . S
C247 O244 1.235 . S
O248 Co238 2.021 . S
O248 C245 1.238 . S
O249 Co243 2.052 . S
O249 C245 1.241 . S
O250 Co238 2.137 1_455 S
O250 C241 1.247 . S
O251 Co238 2.245 . S
O251 C241 1.264 1_655 S
O251 Co243 2.143 . S
C252 C253 1.384 . S
C252 C254 1.384 . S
C252 H280 0.931 . S
C253 C252 1.384 . S
C253 C256 1.382 . S
C254 C252 1.384 . S
C254 C255 1.381 . S
C254 H281 0.930 . S
C255 C254 1.381 . S
C255 C257 1.381 . S
C255 C258 1.487 . S
C256 C253 1.382 . S
C256 C257 1.387 . S
C256 H282 0.930 . S
C257 C255 1.381 . S
C257 C256 1.387 . S
C257 H283 0.931 . S
C258 C255 1.487 . S
C258 C265 1.399 . S
C258 N296 1.343 . S
C259 C260 1.384 . S
C259 C261 1.384 . S
C259 H284 0.931 . S
C260 C259 1.384 . S
C260 C263 1.382 . S
C261 C259 1.384 . S
C261 C262 1.381 . S
C261 H285 0.930 . S
C262 C261 1.381 . S
C262 C264 1.381 . S
C262 C265 1.487 . S
C263 C260 1.382 . S
C263 C264 1.387 . S
C263 H286 0.930 . S
C264 C262 1.381 . S
C264 C263 1.387 . S
C264 H287 0.931 . S
C265 C258 1.399 . S
C265 C262 1.487 . S
C265 N297 1.343 . S
C266 C267 1.384 . S
C266 C268 1.384 . S
C266 H288 0.931 . S
C267 C266 1.384 . S
C267 C270 1.382 . S
C268 C266 1.384 . S
C268 C269 1.381 . S
C268 H289 0.930 . S
C269 C268 1.381 . S
C269 C271 1.381 . S
C269 C272 1.487 . S
C270 C267 1.382 . S
C270 C271 1.387 . S
C270 H290 0.930 . S
C271 C269 1.381 . S
C271 C270 1.387 . S
C271 H291 0.931 . S
C272 C269 1.487 . S
C272 C279 1.399 . S
C272 N297 1.343 . S
C273 C274 1.384 . S
C273 C275 1.384 . S
C273 H292 0.931 . S
C274 C273 1.384 . S
C274 C277 1.382 . S
C275 C273 1.384 . S
C275 C276 1.381 . S
C275 H293 0.930 . S
C276 C275 1.381 . S
C276 C278 1.381 . S
C276 C279 1.487 . S
C277 C274 1.382 . S
C277 C278 1.387 . S
C277 H294 0.930 . S
C278 C276 1.381 . S
C278 C277 1.387 . S
C278 H295 0.931 . S
C279 C272 1.399 . S
C279 C276 1.487 . S
C279 N296 1.343 . S
H280 C252 0.931 . S
H281 C254 0.930 . S
H282 C256 0.930 . S
H283 C257 0.931 . S
H284 C259 0.931 . S
H285 C261 0.930 . S
H286 C263 0.930 . S
H287 C264 0.931 . S
H288 C266 0.931 . S
H289 C268 0.930 . S
H290 C270 0.930 . S
H291 C271 0.931 . S
H292 C273 0.931 . S
H293 C275 0.930 . S
H294 C277 0.930 . S
H295 C278 0.931 . S
N296 C258 1.343 . S
N296 C279 1.343 . S
N297 C265 1.343 . S
N297 C272 1.343 . S
C298 C299 1.384 . S
C298 C300 1.384 . S
C298 H326 0.931 . S
C299 C298 1.384 . S
C299 C302 1.382 . S
C300 C298 1.384 . S
C300 C301 1.381 . S
C300 H327 0.930 . S
C301 C300 1.381 . S
C301 C303 1.381 . S
C301 C304 1.487 . S
C302 C299 1.382 . S
C302 C303 1.387 . S
C302 H328 0.930 . S
C303 C301 1.381 . S
C303 C302 1.387 . S
C303 H329 0.931 . S
C304 C301 1.487 . S
C304 C311 1.399 . S
C304 N342 1.343 . S
C305 C306 1.384 . S
C305 C307 1.384 . S
C305 H330 0.931 . S
C306 C305 1.384 . S
C306 C309 1.382 . S
C307 C305 1.384 . S
C307 C308 1.381 . S
C307 H331 0.930 . S
C308 C307 1.381 . S
C308 C310 1.381 . S
C308 C311 1.487 . S
C309 C306 1.382 . S
C309 C310 1.387 . S
C309 H332 0.930 . S
C310 C308 1.381 . S
C310 C309 1.387 . S
C310 H333 0.931 . S
C311 C304 1.399 . S
C311 C308 1.487 . S
C311 N343 1.343 . S
C312 C313 1.384 . S
C312 C314 1.384 . S
C312 H334 0.931 . S
C313 C312 1.384 . S
C313 C316 1.382 . S
C314 C312 1.384 . S
C314 C315 1.381 . S
C314 H335 0.930 . S
C315 C314 1.381 . S
C315 C317 1.381 . S
C315 C318 1.487 . S
C316 C313 1.382 . S
C316 C317 1.387 . S
C316 H336 0.930 . S
C317 C315 1.381 . S
C317 C316 1.387 . S
C317 H337 0.931 . S
C318 C315 1.487 . S
C318 C325 1.399 . S
C318 N343 1.343 . S
C319 C320 1.384 . S
C319 C321 1.384 . S
C319 H338 0.931 . S
C320 C319 1.384 . S
C320 C323 1.382 . S
C321 C319 1.384 . S
C321 C322 1.381 . S
C321 H339 0.930 . S
C322 C321 1.381 . S
C322 C324 1.381 . S
C322 C325 1.487 . S
C323 C320 1.382 . S
C323 C324 1.387 . S
C323 H340 0.930 . S
C324 C322 1.381 . S
C324 C323 1.387 . S
C324 H341 0.931 . S
C325 C318 1.399 . S
C325 C322 1.487 . S
C325 N342 1.343 . S
H326 C298 0.931 . S
H327 C300 0.930 . S
H328 C302 0.930 . S
H329 C303 0.931 . S
H330 C305 0.931 . S
H331 C307 0.930 . S
H332 C309 0.930 . S
H333 C310 0.931 . S
H334 C312 0.931 . S
H335 C314 0.930 . S
H336 C316 0.930 . S
H337 C317 0.931 . S
H338 C319 0.931 . S
H339 C321 0.930 . S
H340 C323 0.930 . S
H341 C324 0.931 . S
N342 C304 1.343 . S
N342 C325 1.343 . S
N343 C311 1.343 . S
N343 C318 1.343 . S
C344 C345 1.384 . S
C344 C346 1.384 . S
C344 H372 0.931 . S
C345 C344 1.384 . S
C345 C348 1.382 . S
C346 C344 1.384 . S
C346 C347 1.381 . S
C346 H373 0.930 . S
C347 C346 1.381 . S
C347 C349 1.381 . S
C347 C350 1.487 . S
C348 C345 1.382 . S
C348 C349 1.387 . S
C348 H374 0.930 . S
C349 C347 1.381 . S
C349 C348 1.387 . S
C349 H375 0.931 . S
C350 C347 1.487 . S
C350 C357 1.399 . S
C350 N388 1.343 . S
C351 C352 1.384 . S
C351 C353 1.384 . S
C351 H376 0.931 . S
C352 C351 1.384 . S
C352 C355 1.382 . S
C353 C351 1.384 . S
C353 C354 1.381 . S
C353 H377 0.930 . S
C354 C353 1.381 . S
C354 C356 1.381 . S
C354 C357 1.487 . S
C355 C352 1.382 . S
C355 C356 1.387 . S
C355 H378 0.930 . S
C356 C354 1.381 . S
C356 C355 1.387 . S
C356 H379 0.931 . S
C357 C350 1.399 . S
C357 C354 1.487 . S
C357 N389 1.343 . S
C358 C359 1.384 . S
C358 C360 1.384 . S
C358 H380 0.931 . S
C359 C358 1.384 . S
C359 C362 1.382 . S
C360 C358 1.384 . S
C360 C361 1.381 . S
C360 H381 0.930 . S
C361 C360 1.381 . S
C361 C363 1.381 . S
C361 C364 1.487 . S
C362 C359 1.382 . S
C362 C363 1.387 . S
C362 H382 0.930 . S
C363 C361 1.381 . S
C363 C362 1.387 . S
C363 H383 0.931 . S
C364 C361 1.487 . S
C364 C371 1.399 . S
C364 N389 1.343 . S
C365 C366 1.384 . S
C365 C367 1.384 . S
C365 H384 0.931 . S
C366 C365 1.384 . S
C366 C369 1.382 . S
C367 C365 1.384 . S
C367 C368 1.381 . S
C367 H385 0.930 . S
C368 C367 1.381 . S
C368 C370 1.381 . S
C368 C371 1.487 . S
C369 C366 1.382 . S
C369 C370 1.387 . S
C369 H386 0.930 . S
C370 C368 1.381 . S
C370 C369 1.387 . S
C370 H387 0.931 . S
C371 C364 1.399 . S
C371 C368 1.487 . S
C371 N388 1.343 . S
H372 C344 0.931 . S
H373 C346 0.930 . S
H374 C348 0.930 . S
H375 C349 0.931 . S
H376 C351 0.931 . S
H377 C353 0.930 . S
H378 C355 0.930 . S
H379 C356 0.931 . S
H380 C358 0.931 . S
H381 C360 0.930 . S
H382 C362 0.930 . S
H383 C363 0.931 . S
H384 C365 0.931 . S
H385 C367 0.930 . S
H386 C369 0.930 . S
H387 C370 0.931 . S
N388 C350 1.343 . S
N388 C371 1.343 . S
N389 C357 1.343 . S
N389 C364 1.343 . S
C390 C391 1.384 . S
C390 C392 1.384 . S
C390 H418 0.931 . S
C391 C390 1.384 . S
C391 C394 1.382 . S
C392 C390 1.384 . S
C392 C393 1.381 . S
C392 H419 0.930 . S
C393 C392 1.381 . S
C393 C395 1.381 . S
C393 C396 1.487 . S
C394 C391 1.382 . S
C394 C395 1.387 . S
C394 H420 0.930 . S
C395 C393 1.381 . S
C395 C394 1.387 . S
C395 H421 0.931 . S
C396 C393 1.487 . S
C396 C403 1.399 . S
C396 N434 1.343 . S
C397 C398 1.384 . S
C397 C399 1.384 . S
C397 H422 0.931 . S
C398 C397 1.384 . S
C398 C401 1.382 . S
C399 C397 1.384 . S
C399 C400 1.381 . S
C399 H423 0.930 . S
C400 C399 1.381 . S
C400 C402 1.381 . S
C400 C403 1.487 . S
C401 C398 1.382 . S
C401 C402 1.387 . S
C401 H424 0.930 . S
C402 C400 1.381 . S
C402 C401 1.387 . S
C402 H425 0.931 . S
C403 C396 1.399 . S
C403 C400 1.487 . S
C403 N435 1.343 . S
C404 C405 1.384 . S
C404 C406 1.384 . S
C404 H426 0.931 . S
C405 C404 1.384 . S
C405 C408 1.382 . S
C406 C404 1.384 . S
C406 C407 1.381 . S
C406 H427 0.930 . S
C407 C406 1.381 . S
C407 C409 1.381 . S
C407 C410 1.487 . S
C408 C405 1.382 . S
C408 C409 1.387 . S
C408 H428 0.930 . S
C409 C407 1.381 . S
C409 C408 1.387 . S
C409 H429 0.931 . S
C410 C407 1.487 . S
C410 C417 1.399 . S
C410 N435 1.343 . S
C411 C412 1.384 . S
C411 C413 1.384 . S
C411 H430 0.931 . S
C412 C411 1.384 . S
C412 C415 1.382 . S
C413 C411 1.384 . S
C413 C414 1.381 . S
C413 H431 0.930 . S
C414 C413 1.381 . S
C414 C416 1.381 . S
C414 C417 1.487 . S
C415 C412 1.382 . S
C415 C416 1.387 . S
C415 H432 0.930 . S
C416 C414 1.381 . S
C416 C415 1.387 . S
C416 H433 0.931 . S
C417 C410 1.399 . S
C417 C414 1.487 . S
C417 N434 1.343 . S
H418 C390 0.931 . S
H419 C392 0.930 . S
H420 C394 0.930 . S
H421 C395 0.931 . S
H422 C397 0.931 . S
H423 C399 0.930 . S
H424 C401 0.930 . S
H425 C402 0.931 . S
H426 C404 0.931 . S
H427 C406 0.930 . S
H428 C408 0.930 . S
H429 C409 0.931 . S
H430 C411 0.931 . S
H431 C413 0.930 . S
H432 C415 0.930 . S
H433 C416 0.931 . S
N434 C396 1.343 . S
N434 C417 1.343 . S
N435 C403 1.343 . S
N435 C410 1.343 . S
C436 C437 1.384 . S
C436 C438 1.384 . S
C436 H464 0.931 . S
C437 C436 1.384 . S
C437 C440 1.382 . S
C438 C436 1.384 . S
C438 C439 1.381 . S
C438 H465 0.930 . S
C439 C438 1.381 . S
C439 C441 1.381 . S
C439 C442 1.487 . S
C440 C437 1.382 . S
C440 C441 1.387 . S
C440 H466 0.930 . S
C441 C439 1.381 . S
C441 C440 1.387 . S
C441 H467 0.931 . S
C442 C439 1.487 . S
C442 C449 1.399 . S
C442 N480 1.343 . S
C443 C444 1.384 . S
C443 C445 1.384 . S
C443 H468 0.931 . S
C444 C443 1.384 . S
C444 C447 1.382 . S
C445 C443 1.384 . S
C445 C446 1.381 . S
C445 H469 0.930 . S
C446 C445 1.381 . S
C446 C448 1.381 . S
C446 C449 1.487 . S
C447 C444 1.382 . S
C447 C448 1.387 . S
C447 H470 0.930 . S
C448 C446 1.381 . S
C448 C447 1.387 . S
C448 H471 0.931 . S
C449 C442 1.399 . S
C449 C446 1.487 . S
C449 N481 1.343 . S
C450 C451 1.384 . S
C450 C452 1.384 . S
C450 H472 0.931 . S
C451 C450 1.384 . S
C451 C454 1.382 . S
C452 C450 1.384 . S
C452 C453 1.381 . S
C452 H473 0.930 . S
C453 C452 1.381 . S
C453 C455 1.381 . S
C453 C456 1.487 . S
C454 C451 1.382 . S
C454 C455 1.387 . S
C454 H474 0.930 . S
C455 C453 1.381 . S
C455 C454 1.387 . S
C455 H475 0.931 . S
C456 C453 1.487 . S
C456 C463 1.399 . S
C456 N481 1.343 . S
C457 C458 1.384 . S
C457 C459 1.384 . S
C457 H476 0.931 . S
C458 C457 1.384 . S
C458 C461 1.382 . S
C459 C457 1.384 . S
C459 C460 1.381 . S
C459 H477 0.930 . S
C460 C459 1.381 . S
C460 C462 1.381 . S
C460 C463 1.487 . S
C461 C458 1.382 . S
C461 C462 1.387 . S
C461 H478 0.930 . S
C462 C460 1.381 . S
C462 C461 1.387 . S
C462 H479 0.931 . S
C463 C456 1.399 . S
C463 C460 1.487 . S
C463 N480 1.343 . S
H464 C436 0.931 . S
H465 C438 0.930 . S
H466 C440 0.930 . S
H467 C441 0.931 . S
H468 C443 0.931 . S
H469 C445 0.930 . S
H470 C447 0.930 . S
H471 C448 0.931 . S
H472 C450 0.931 . S
H473 C452 0.930 . S
H474 C454 0.930 . S
H475 C455 0.931 . S
H476 C457 0.931 . S
H477 C459 0.930 . S
H478 C461 0.930 . S
H479 C462 0.931 . S
N480 C442 1.343 . S
N480 C463 1.343 . S
N481 C449 1.343 . S
N481 C456 1.343 . S
C482 C483 1.384 . S
C482 C484 1.384 . S
C482 H510 0.931 . S
C483 C482 1.384 . S
C483 C486 1.382 . S
C484 C482 1.384 . S
C484 C485 1.381 . S
C484 H511 0.930 . S
C485 C484 1.381 . S
C485 C487 1.381 . S
C485 C488 1.487 . S
C486 C483 1.382 . S
C486 C487 1.387 . S
C486 H512 0.930 . S
C487 C485 1.381 . S
C487 C486 1.387 . S
C487 H513 0.931 . S
C488 C485 1.487 . S
C488 C495 1.399 . S
C488 N526 1.343 . S
C489 C490 1.384 . S
C489 C491 1.384 . S
C489 H514 0.931 . S
C490 C489 1.384 . S
C490 C493 1.382 . S
C491 C489 1.384 . S
C491 C492 1.381 . S
C491 H515 0.930 . S
C492 C491 1.381 . S
C492 C494 1.381 . S
C492 C495 1.487 . S
C493 C490 1.382 . S
C493 C494 1.387 . S
C493 H516 0.930 . S
C494 C492 1.381 . S
C494 C493 1.387 . S
C494 H517 0.931 . S
C495 C488 1.399 . S
C495 C492 1.487 . S
C495 N527 1.343 . S
C496 C497 1.384 . S
C496 C498 1.384 . S
C496 H518 0.931 . S
C497 C496 1.384 . S
C497 C500 1.382 . S
C498 C496 1.384 . S
C498 C499 1.381 . S
C498 H519 0.930 . S
C499 C498 1.381 . S
C499 C501 1.381 . S
C499 C502 1.487 . S
C500 C497 1.382 . S
C500 C501 1.387 . S
C500 H520 0.930 . S
C501 C499 1.381 . S
C501 C500 1.387 . S
C501 H521 0.931 . S
C502 C499 1.487 . S
C502 C509 1.399 . S
C502 N527 1.343 . S
C503 C504 1.384 . S
C503 C505 1.384 . S
C503 H522 0.931 . S
C504 C503 1.384 . S
C504 C507 1.382 . S
C505 C503 1.384 . S
C505 C506 1.381 . S
C505 H523 0.930 . S
C506 C505 1.381 . S
C506 C508 1.381 . S
C506 C509 1.487 . S
C507 C504 1.382 . S
C507 C508 1.387 . S
C507 H524 0.930 . S
C508 C506 1.381 . S
C508 C507 1.387 . S
C508 H525 0.931 . S
C509 C502 1.399 . S
C509 C506 1.487 . S
C509 N526 1.343 . S
H510 C482 0.931 . S
H511 C484 0.930 . S
H512 C486 0.930 . S
H513 C487 0.931 . S
H514 C489 0.931 . S
H515 C491 0.930 . S
H516 C493 0.930 . S
H517 C494 0.931 . S
H518 C496 0.931 . S
H519 C498 0.930 . S
H520 C500 0.930 . S
H521 C501 0.931 . S
H522 C503 0.931 . S
H523 C505 0.930 . S
H524 C507 0.930 . S
H525 C508 0.931 . S
N526 C488 1.343 . S
N526 C509 1.343 . S
N527 C495 1.343 . S
N527 C502 1.343 . S
C528 C529 1.384 . S
C528 C530 1.384 . S
C528 H556 0.931 . S
C529 C528 1.384 . S
C529 C532 1.382 . S
C530 C528 1.384 . S
C530 C531 1.381 . S
C530 H557 0.930 . S
C531 C530 1.381 . S
C531 C533 1.381 . S
C531 C534 1.487 . S
C532 C529 1.382 . S
C532 C533 1.387 . S
C532 H558 0.930 . S
C533 C531 1.381 . S
C533 C532 1.387 . S
C533 H559 0.931 . S
C534 C531 1.487 . S
C534 C541 1.399 . S
C534 N572 1.343 . S
C535 C536 1.384 . S
C535 C537 1.384 . S
C535 H560 0.931 . S
C536 C535 1.384 . S
C536 C539 1.382 . S
C537 C535 1.384 . S
C537 C538 1.381 . S
C537 H561 0.930 . S
C538 C537 1.381 . S
C538 C540 1.381 . S
C538 C541 1.487 . S
C539 C536 1.382 . S
C539 C540 1.387 . S
C539 H562 0.930 . S
C540 C538 1.381 . S
C540 C539 1.387 . S
C540 H563 0.931 . S
C541 C534 1.399 . S
C541 C538 1.487 . S
C541 N573 1.343 . S
C542 C543 1.384 . S
C542 C544 1.384 . S
C542 H564 0.931 . S
C543 C542 1.384 . S
C543 C546 1.382 . S
C544 C542 1.384 . S
C544 C545 1.381 . S
C544 H565 0.930 . S
C545 C544 1.381 . S
C545 C547 1.381 . S
C545 C548 1.487 . S
C546 C543 1.382 . S
C546 C547 1.387 . S
C546 H566 0.930 . S
C547 C545 1.381 . S
C547 C546 1.387 . S
C547 H567 0.931 . S
C548 C545 1.487 . S
C548 C555 1.399 . S
C548 N573 1.343 . S
C549 C550 1.384 . S
C549 C551 1.384 . S
C549 H568 0.931 . S
C550 C549 1.384 . S
C550 C553 1.382 . S
C551 C549 1.384 . S
C551 C552 1.381 . S
C551 H569 0.930 . S
C552 C551 1.381 . S
C552 C554 1.381 . S
C552 C555 1.487 . S
C553 C550 1.382 . S
C553 C554 1.387 . S
C553 H570 0.930 . S
C554 C552 1.381 . S
C554 C553 1.387 . S
C554 H571 0.931 . S
C555 C548 1.399 . S
C555 C552 1.487 . S
C555 N572 1.343 . S
H556 C528 0.931 . S
H557 C530 0.930 . S
H558 C532 0.930 . S
H559 C533 0.931 . S
H560 C535 0.931 . S
H561 C537 0.930 . S
H562 C539 0.930 . S
H563 C540 0.931 . S
H564 C542 0.931 . S
H565 C544 0.930 . S
H566 C546 0.930 . S
H567 C547 0.931 . S
H568 C549 0.931 . S
H569 C551 0.930 . S
H570 C553 0.930 . S
H571 C554 0.931 . S
N572 C534 1.343 . S
N572 C555 1.343 . S
N573 C541 1.343 . S
N573 C548 1.343 . S
C574 C575 1.384 . S
C574 C576 1.384 . S
C574 H602 0.931 . S
C575 C574 1.384 . S
C575 C578 1.382 . S
C576 C574 1.384 . S
C576 C577 1.381 . S
C576 H603 0.930 . S
C577 C576 1.381 . S
C577 C579 1.381 . S
C577 C580 1.487 . S
C578 C575 1.382 . S
C578 C579 1.387 . S
C578 H604 0.930 . S
C579 C577 1.381 . S
C579 C578 1.387 . S
C579 H605 0.931 . S
C580 C577 1.487 . S
C580 C587 1.399 . S
C580 N618 1.343 . S
C581 C582 1.384 . S
C581 C583 1.384 . S
C581 H606 0.931 . S
C582 C581 1.384 . S
C582 C585 1.382 . S
C583 C581 1.384 . S
C583 C584 1.381 . S
C583 H607 0.930 . S
C584 C583 1.381 . S
C584 C586 1.381 . S
C584 C587 1.487 . S
C585 C582 1.382 . S
C585 C586 1.387 . S
C585 H608 0.930 . S
C586 C584 1.381 . S
C586 C585 1.387 . S
C586 H609 0.931 . S
C587 C580 1.399 . S
C587 C584 1.487 . S
C587 N619 1.343 . S
C588 C589 1.384 . S
C588 C590 1.384 . S
C588 H610 0.931 . S
C589 C588 1.384 . S
C589 C592 1.382 . S
C590 C588 1.384 . S
C590 C591 1.381 . S
C590 H611 0.930 . S
C591 C590 1.381 . S
C591 C593 1.381 . S
C591 C594 1.487 . S
C592 C589 1.382 . S
C592 C593 1.387 . S
C592 H612 0.930 . S
C593 C591 1.381 . S
C593 C592 1.387 . S
C593 H613 0.931 . S
C594 C591 1.487 . S
C594 C601 1.399 . S
C594 N619 1.343 . S
C595 C596 1.384 . S
C595 C597 1.384 . S
C595 H614 0.931 . S
C596 C595 1.384 . S
C596 C599 1.382 . S
C597 C595 1.384 . S
C597 C598 1.381 . S
C597 H615 0.930 . S
C598 C597 1.381 . S
C598 C600 1.381 . S
C598 C601 1.487 . S
C599 C596 1.382 . S
C599 C600 1.387 . S
C599 H616 0.930 . S
C600 C598 1.381 . S
C600 C599 1.387 . S
C600 H617 0.931 . S
C601 C594 1.399 . S
C601 C598 1.487 . S
C601 N618 1.343 . S
H602 C574 0.931 . S
H603 C576 0.930 . S
H604 C578 0.930 . S
H605 C579 0.931 . S
H606 C581 0.931 . S
H607 C583 0.930 . S
H608 C585 0.930 . S
H609 C586 0.931 . S
H610 C588 0.931 . S
H611 C590 0.930 . S
H612 C592 0.930 . S
H613 C593 0.931 . S
H614 C595 0.931 . S
H615 C597 0.930 . S
H616 C599 0.930 . S
H617 C600 0.931 . S
N618 C580 1.343 . S
N618 C601 1.343 . S
N619 C587 1.343 . S
N619 C594 1.343 . S
C620 C621 1.384 . S
C620 C622 1.384 . S
C620 H648 0.931 . S
C621 C620 1.384 . S
C621 C624 1.382 . S
C622 C620 1.384 . S
C622 C623 1.381 . S
C622 H649 0.930 . S
C623 C622 1.381 . S
C623 C625 1.381 . S
C623 C626 1.487 . S
C624 C621 1.382 . S
C624 C625 1.387 . S
C624 H650 0.930 . S
C625 C623 1.381 . S
C625 C624 1.387 . S
C625 H651 0.931 . S
C626 C623 1.487 . S
C626 C633 1.399 . S
C626 N664 1.343 . S
C627 C628 1.384 . S
C627 C629 1.384 . S
C627 H652 0.931 . S
C628 C627 1.384 . S
C628 C631 1.382 . S
C629 C627 1.384 . S
C629 C630 1.381 . S
C629 H653 0.930 . S
C630 C629 1.381 . S
C630 C632 1.381 . S
C630 C633 1.487 . S
C631 C628 1.382 . S
C631 C632 1.387 . S
C631 H654 0.930 . S
C632 C630 1.381 . S
C632 C631 1.387 . S
C632 H655 0.931 . S
C633 C626 1.399 . S
C633 C630 1.487 . S
C633 N665 1.343 . S
C634 C635 1.384 . S
C634 C636 1.384 . S
C634 H656 0.931 . S
C635 C634 1.384 . S
C635 C638 1.382 . S
C636 C634 1.384 . S
C636 C637 1.381 . S
C636 H657 0.930 . S
C637 C636 1.381 . S
C637 C639 1.381 . S
C637 C640 1.487 . S
C638 C635 1.382 . S
C638 C639 1.387 . S
C638 H658 0.930 . S
C639 C637 1.381 . S
C639 C638 1.387 . S
C639 H659 0.931 . S
C640 C637 1.487 . S
C640 C647 1.399 . S
C640 N665 1.343 . S
C641 C642 1.384 . S
C641 C643 1.384 . S
C641 H660 0.931 . S
C642 C641 1.384 . S
C642 C645 1.382 . S
C643 C641 1.384 . S
C643 C644 1.381 . S
C643 H661 0.930 . S
C644 C643 1.381 . S
C644 C646 1.381 . S
C644 C647 1.487 . S
C645 C642 1.382 . S
C645 C646 1.387 . S
C645 H662 0.930 . S
C646 C644 1.381 . S
C646 C645 1.387 . S
C646 H663 0.931 . S
C647 C640 1.399 . S
C647 C644 1.487 . S
C647 N664 1.343 . S
H648 C620 0.931 . S
H649 C622 0.930 . S
H650 C624 0.930 . S
H651 C625 0.931 . S
H652 C627 0.931 . S
H653 C629 0.930 . S
H654 C631 0.930 . S
H655 C632 0.931 . S
H656 C634 0.931 . S
H657 C636 0.930 . S
H658 C638 0.930 . S
H659 C639 0.931 . S
H660 C641 0.931 . S
H661 C643 0.930 . S
H662 C645 0.930 . S
H663 C646 0.931 . S
N664 C626 1.343 . S
N664 C647 1.343 . S
N665 C633 1.343 . S
N665 C640 1.343 . S
C666 C667 1.384 . S
C666 C668 1.384 . S
C666 H694 0.931 . S
C667 C666 1.384 . S
C667 C670 1.382 1_655 S
C668 C666 1.384 . S
C668 C669 1.405 . S
C668 H695 0.930 . S
C669 C668 1.405 . S
C669 C671 1.369 1_655 S
C669 C672 1.473 1_655 S
C670 C667 1.382 1_455 S
C670 C671 1.387 . S
C670 H696 0.930 . S
C671 C669 1.369 1_455 S
C671 C670 1.387 . S
C671 H697 0.931 . S
C672 C669 1.473 1_455 S
C672 C679 1.399 1_455 S
C672 N710 1.312 . S
C673 C674 1.384 . S
C673 C675 1.384 . S
C673 H698 0.931 . S
C674 C673 1.384 . S
C674 C677 1.382 1_455 S
C675 C673 1.384 . S
C675 C676 1.382 1_455 S
C675 H699 0.930 . S
C676 C675 1.382 1_655 S
C676 C678 1.378 . S
C676 C679 1.496 . S
C677 C674 1.382 1_655 S
C677 C678 1.387 . S
C677 H700 0.930 . S
C678 C676 1.378 . S
C678 C677 1.387 . S
C678 H701 0.931 . S
C679 C672 1.399 1_655 S
C679 C676 1.496 . S
C679 N711 1.361 . S
C680 C681 1.384 . S
C680 C682 1.384 . S
C680 H702 0.931 . S
C681 C680 1.384 . S
C681 C684 1.382 1_455 S
C682 C680 1.384 . S
C682 C683 1.422 . S
C682 H703 0.930 . S
C683 C682 1.422 . S
C683 C685 1.361 1_455 S
C683 C686 1.465 . S
C684 C681 1.382 1_655 S
C684 C685 1.387 . S
C684 H704 0.930 . S
C685 C683 1.361 1_655 S
C685 C684 1.387 . S
C685 H705 0.931 . S
C686 C683 1.465 . S
C686 C693 1.399 . S
C686 N711 1.319 1_455 S
C687 C688 1.384 . S
C687 C689 1.384 . S
C687 H706 0.931 . S
C688 C687 1.384 . S
C688 C691 1.382 1_655 S
C689 C687 1.384 . S
C689 C690 1.379 1_655 S
C689 H707 0.930 . S
C690 C689 1.379 1_455 S
C690 C692 1.387 . S
C690 C693 1.496 . S
C691 C688 1.382 1_455 S
C691 C692 1.387 . S
C691 H708 0.930 . S
C692 C690 1.387 . S
C692 C691 1.387 . S
C692 H709 0.931 . S
C693 C686 1.399 . S
C693 C690 1.496 . S
C693 N710 1.361 . S
H694 C666 0.931 . S
H695 C668 0.930 . S
H696 C670 0.930 . S
H697 C671 0.931 . S
H698 C673 0.931 . S
H699 C675 0.930 . S
H700 C677 0.930 . S
H701 C678 0.931 . S
H702 C680 0.931 . S
H703 C682 0.930 . S
H704 C684 0.930 . S
H705 C685 0.931 . S
H706 C687 0.931 . S
H707 C689 0.930 . S
H708 C691 0.930 . S
H709 C692 0.931 . S
N710 C672 1.312 . S
N710 C693 1.361 . S
N711 C679 1.361 . S
N711 C686 1.319 1_655 S
C712 C713 1.384 . S
C712 C714 1.384 . S
C712 H740 0.931 . S
C713 C712 1.384 . S
C713 C716 1.382 . S
C714 C712 1.384 . S
C714 C715 1.381 . S
C714 H741 0.930 . S
C715 C714 1.381 . S
C715 C717 1.381 . S
C715 C718 1.487 . S
C716 C713 1.382 . S
C716 C717 1.387 . S
C716 H742 0.930 . S
C717 C715 1.381 . S
C717 C716 1.387 . S
C717 H743 0.931 . S
C718 C715 1.487 . S
C718 C725 1.399 . S
C718 N756 1.343 . S
C719 C720 1.384 . S
C719 C721 1.384 . S
C719 H744 0.931 . S
C720 C719 1.384 . S
C720 C723 1.382 . S
C721 C719 1.384 . S
C721 C722 1.381 . S
C721 H745 0.930 . S
C722 C721 1.381 . S
C722 C724 1.381 . S
C722 C725 1.487 . S
C723 C720 1.382 . S
C723 C724 1.387 . S
C723 H746 0.930 . S
C724 C722 1.381 . S
C724 C723 1.387 . S
C724 H747 0.931 . S
C725 C718 1.399 . S
C725 C722 1.487 . S
C725 N757 1.343 . S
C726 C727 1.384 . S
C726 C728 1.384 . S
C726 H748 0.931 . S
C727 C726 1.384 . S
C727 C730 1.382 . S
C728 C726 1.384 . S
C728 C729 1.381 . S
C728 H749 0.930 . S
C729 C728 1.381 . S
C729 C731 1.381 . S
C729 C732 1.487 . S
C730 C727 1.382 . S
C730 C731 1.387 . S
C730 H750 0.930 . S
C731 C729 1.381 . S
C731 C730 1.387 . S
C731 H751 0.931 . S
C732 C729 1.487 . S
C732 C739 1.399 . S
C732 N757 1.343 . S
C733 C734 1.384 . S
C733 C735 1.384 . S
C733 H752 0.931 . S
C734 C733 1.384 . S
C734 C737 1.382 . S
C735 C733 1.384 . S
C735 C736 1.381 . S
C735 H753 0.930 . S
C736 C735 1.381 . S
C736 C738 1.381 . S
C736 C739 1.487 . S
C737 C734 1.382 . S
C737 C738 1.387 . S
C737 H754 0.930 . S
C738 C736 1.381 . S
C738 C737 1.387 . S
C738 H755 0.931 . S
C739 C732 1.399 . S
C739 C736 1.487 . S
C739 N756 1.343 . S
H740 C712 0.931 . S
H741 C714 0.930 . S
H742 C716 0.930 . S
H743 C717 0.931 . S
H744 C719 0.931 . S
H745 C721 0.930 . S
H746 C723 0.930 . S
H747 C724 0.931 . S
H748 C726 0.931 . S
H749 C728 0.930 . S
H750 C730 0.930 . S
H751 C731 0.931 . S
H752 C733 0.931 . S
H753 C735 0.930 . S
H754 C737 0.930 . S
H755 C738 0.931 . S
N756 C718 1.343 . S
N756 C739 1.343 . S
N757 C725 1.343 . S
N757 C732 1.343 . S
C758 C759 1.384 1_545 S
C758 C760 1.384 . S
C758 H786 0.931 . S
C759 C758 1.384 1_565 S
C759 C762 1.382 . S
C760 C758 1.384 . S
C760 C761 1.381 1_545 S
C760 H787 0.930 . S
C761 C760 1.381 1_565 S
C761 C763 1.381 . S
C761 C764 1.487 . S
C762 C759 1.382 . S
C762 C763 1.387 . S
C762 H788 0.930 . S
C763 C761 1.381 . S
C763 C762 1.387 . S
C763 H789 0.931 . S
C764 C761 1.487 . S
C764 C771 1.399 1_565 S
C764 N802 1.343 . S
C765 C766 1.384 1_565 S
C765 C767 1.384 . S
C765 H790 0.931 . S
C766 C765 1.384 1_545 S
C766 C769 1.382 . S
C767 C765 1.384 . S
C767 C768 1.381 1_565 S
C767 H791 0.930 . S
C768 C767 1.381 1_545 S
C768 C770 1.381 . S
C768 C771 1.487 . S
C769 C766 1.382 . S
C769 C770 1.387 . S
C769 H792 0.930 . S
C770 C768 1.381 . S
C770 C769 1.387 . S
C770 H793 0.931 . S
C771 C764 1.399 1_545 S
C771 C768 1.487 . S
C771 N803 1.343 . S
C772 C773 1.384 1_565 S
C772 C774 1.384 . S
C772 H794 0.931 . S
C773 C772 1.384 1_545 S
C773 C776 1.382 . S
C774 C772 1.384 . S
C774 C775 1.381 1_565 S
C774 H795 0.930 . S
C775 C774 1.381 1_545 S
C775 C777 1.381 . S
C775 C778 1.487 . S
C776 C773 1.382 . S
C776 C777 1.387 . S
C776 H796 0.930 . S
C777 C775 1.381 . S
C777 C776 1.387 . S
C777 H797 0.931 . S
C778 C775 1.487 . S
C778 C785 1.399 1_545 S
C778 N803 1.343 . S
C779 C780 1.384 1_545 S
C779 C781 1.384 . S
C779 H798 0.931 . S
C780 C779 1.384 1_565 S
C780 C783 1.382 . S
C781 C779 1.384 . S
C781 C782 1.381 1_545 S
C781 H799 0.930 . S
C782 C781 1.381 1_565 S
C782 C784 1.381 . S
C782 C785 1.487 . S
C783 C780 1.382 . S
C783 C784 1.387 . S
C783 H800 0.930 . S
C784 C782 1.381 . S
C784 C783 1.387 . S
C784 H801 0.931 . S
C785 C778 1.399 1_565 S
C785 C782 1.487 . S
C785 N802 1.343 . S
H786 C758 0.931 . S
H787 C760 0.930 . S
H788 C762 0.930 . S
H789 C763 0.931 . S
H790 C765 0.931 . S
H791 C767 0.930 . S
H792 C769 0.930 . S
H793 C770 0.931 . S
H794 C772 0.931 . S
H795 C774 0.930 . S
H796 C776 0.930 . S
H797 C777 0.931 . S
H798 C779 0.931 . S
H799 C781 0.930 . S
H800 C783 0.930 . S
H801 C784 0.931 . S
N802 C764 1.343 . S
N802 C785 1.343 . S
N803 C771 1.343 . S
N803 C778 1.343 . S
C804 C805 1.384 . S
C804 C806 1.384 . S
C804 H832 0.931 . S
C805 C804 1.384 . S
C805 C808 1.382 1_545 S
C806 C804 1.384 . S
C806 C807 1.380 . S
C806 H833 0.930 . S
C807 C806 1.380 . S
C807 C809 1.385 1_545 S
C807 C810 1.490 1_545 S
C808 C805 1.382 1_565 S
C808 C809 1.387 . S
C808 H834 0.930 . S
C809 C807 1.385 1_565 S
C809 C808 1.387 . S
C809 H835 0.931 . S
C810 C807 1.490 1_565 S
C810 C817 1.399 1_565 S
C810 N848 1.363 . S
C811 C812 1.384 . S
C811 C813 1.384 . S
C811 H836 0.931 . S
C812 C811 1.384 . S
C812 C815 1.382 1_565 S
C813 C811 1.384 . S
C813 C814 1.400 . S
C813 H837 0.930 . S
C814 C813 1.400 . S
C814 C816 1.372 1_565 S
C814 C817 1.474 1_565 S
C815 C812 1.382 1_545 S
C815 C816 1.387 . S
C815 H838 0.930 . S
C816 C814 1.372 1_545 S
C816 C815 1.387 . S
C816 H839 0.931 . S
C817 C810 1.399 1_545 S
C817 C814 1.474 1_545 S
C817 N849 1.313 . S
C818 C819 1.384 . S
C818 C820 1.384 . S
C818 H840 0.931 . S
C819 C818 1.384 . S
C819 C822 1.382 1_565 S
C820 C818 1.384 . S
C820 C821 1.380 1_565 S
C820 H841 0.930 . S
C821 C820 1.380 1_545 S
C821 C823 1.385 . S
C821 C824 1.497 . S
C822 C819 1.382 1_545 S
C822 C823 1.387 . S
C822 H842 0.930 . S
C823 C821 1.385 . S
C823 C822 1.387 . S
C823 H843 0.931 . S
C824 C821 1.497 . S
C824 C831 1.399 1_545 S
C824 N849 1.363 . S
C825 C826 1.384 . S
C825 C827 1.384 . S
C825 H844 0.931 . S
C826 C825 1.384 . S
C826 C829 1.382 1_545 S
C827 C825 1.384 . S
C827 C828 1.416 . S
C827 H845 0.930 . S
C828 C827 1.416 . S
C828 C830 1.364 1_545 S
C828 C831 1.474 1_545 S
C829 C826 1.382 1_565 S
C829 C830 1.387 . S
C829 H846 0.930 . S
C830 C828 1.364 1_565 S
C830 C829 1.387 . S
C830 H847 0.931 . S
C831 C824 1.399 1_565 S
C831 C828 1.474 1_565 S
C831 N848 1.313 . S
H832 C804 0.931 . S
H833 C806 0.930 . S
H834 C808 0.930 . S
H835 C809 0.931 . S
H836 C811 0.931 . S
H837 C813 0.930 . S
H838 C815 0.930 . S
H839 C816 0.931 . S
H840 C818 0.931 . S
H841 C820 0.930 . S
H842 C822 0.930 . S
H843 C823 0.931 . S
H844 C825 0.931 . S
H845 C827 0.930 . S
H846 C829 0.930 . S
H847 C830 0.931 . S
N848 C810 1.363 . S
N848 C831 1.313 . S
N849 C817 1.313 . S
N849 C824 1.363 . S
C850 C851 1.384 . S
C850 C852 1.384 . S
C850 H878 0.931 . S
C851 C850 1.384 . S
C851 C854 1.382 1_655 S
C852 C850 1.384 . S
C852 C853 1.430 . S
C852 H879 0.930 . S
C853 C852 1.430 . S
C853 C855 1.357 1_655 S
C853 C856 1.463 . S
C854 C851 1.382 1_455 S
C854 C855 1.387 . S
C854 H880 0.930 . S
C855 C853 1.357 1_455 S
C855 C854 1.387 . S
C855 H881 0.931 . S
C856 C853 1.463 . S
C856 C863 1.399 . S
C856 N894 1.321 1_655 S
C857 C858 1.384 . S
C857 C859 1.384 . S
C857 H882 0.931 . S
C858 C857 1.384 . S
C858 C861 1.382 1_455 S
C859 C857 1.384 . S
C859 C860 1.381 1_455 S
C859 H883 0.930 . S
C860 C859 1.381 1_655 S
C860 C862 1.382 . S
C860 C863 1.498 . S
C861 C858 1.382 1_655 S
C861 C862 1.387 . S
C861 H884 0.930 . S
C862 C860 1.382 . S
C862 C861 1.387 . S
C862 H885 0.931 . S
C863 C856 1.399 . S
C863 C860 1.498 . S
C863 N895 1.360 . S
C864 C865 1.384 . S
C864 C866 1.384 . S
C864 H886 0.931 . S
C865 C864 1.384 . S
C865 C868 1.382 1_455 S
C866 C864 1.384 . S
C866 C867 1.414 . S
C866 H887 0.930 . S
C867 C866 1.414 . S
C867 C869 1.365 1_455 S
C867 C870 1.470 1_455 S
C868 C865 1.382 1_655 S
C868 C869 1.387 . S
C868 H888 0.930 . S
C869 C867 1.365 1_655 S
C869 C868 1.387 . S
C869 H889 0.931 . S
C870 C867 1.470 1_655 S
C870 C877 1.399 1_655 S
C870 N895 1.314 . S
C871 C872 1.384 . S
C871 C873 1.384 . S
C871 H890 0.931 . S
C872 C871 1.384 . S
C872 C875 1.382 1_655 S
C873 C871 1.384 . S
C873 C874 1.381 . S
C873 H891 0.930 . S
C874 C873 1.381 . S
C874 C876 1.382 1_655 S
C874 C877 1.491 1_655 S
C875 C872 1.382 1_455 S
C875 C876 1.387 . S
C875 H892 0.930 . S
C876 C874 1.382 1_455 S
C876 C875 1.387 . S
C876 H893 0.931 . S
C877 C870 1.399 1_455 S
C877 C874 1.491 1_455 S
C877 N894 1.360 . S
H878 C850 0.931 . S
H879 C852 0.930 . S
H880 C854 0.930 . S
H881 C855 0.931 . S
H882 C857 0.931 . S
H883 C859 0.930 . S
H884 C861 0.930 . S
H885 C862 0.931 . S
H886 C864 0.931 . S
H887 C866 0.930 . S
H888 C868 0.930 . S
H889 C869 0.931 . S
H890 C871 0.931 . S
H891 C873 0.930 . S
H892 C875 0.930 . S
H893 C876 0.931 . S
N894 C856 1.321 1_455 S
N894 C877 1.360 . S
N895 C863 1.360 . S
N895 C870 1.314 . S
C896 C897 1.384 . S
C896 C898 1.384 . S
C896 H924 0.931 . S
C897 C896 1.384 . S
C897 C900 1.382 . S
C898 C896 1.384 . S
C898 C899 1.381 . S
C898 H925 0.930 . S
C899 C898 1.381 . S
C899 C901 1.381 . S
C899 C902 1.487 . S
C900 C897 1.382 . S
C900 C901 1.387 . S
C900 H926 0.930 . S
C901 C899 1.381 . S
C901 C900 1.387 . S
C901 H927 0.931 . S
C902 C899 1.487 . S
C902 C909 1.399 . S
C902 N940 1.343 . S
C903 C904 1.384 . S
C903 C905 1.384 . S
C903 H928 0.931 . S
C904 C903 1.384 . S
C904 C907 1.382 . S
C905 C903 1.384 . S
C905 C906 1.381 . S
C905 H929 0.930 . S
C906 C905 1.381 . S
C906 C908 1.381 . S
C906 C909 1.487 . S
C907 C904 1.382 . S
C907 C908 1.387 . S
C907 H930 0.930 . S
C908 C906 1.381 . S
C908 C907 1.387 . S
C908 H931 0.931 . S
C909 C902 1.399 . S
C909 C906 1.487 . S
C909 N941 1.343 . S
C910 C911 1.384 . S
C910 C912 1.384 . S
C910 H932 0.931 . S
C911 C910 1.384 . S
C911 C914 1.382 . S
C912 C910 1.384 . S
C912 C913 1.381 . S
C912 H933 0.930 . S
C913 C912 1.381 . S
C913 C915 1.381 . S
C913 C916 1.487 . S
C914 C911 1.382 . S
C914 C915 1.387 . S
C914 H934 0.930 . S
C915 C913 1.381 . S
C915 C914 1.387 . S
C915 H935 0.931 . S
C916 C913 1.487 . S
C916 C923 1.399 . S
C916 N941 1.343 . S
C917 C918 1.384 . S
C917 C919 1.384 . S
C917 H936 0.931 . S
C918 C917 1.384 . S
C918 C921 1.382 . S
C919 C917 1.384 . S
C919 C920 1.381 . S
C919 H937 0.930 . S
C920 C919 1.381 . S
C920 C922 1.381 . S
C920 C923 1.487 . S
C921 C918 1.382 . S
C921 C922 1.387 . S
C921 H938 0.930 . S
C922 C920 1.381 . S
C922 C921 1.387 . S
C922 H939 0.931 . S
C923 C916 1.399 . S
C923 C920 1.487 . S
C923 N940 1.343 . S
H924 C896 0.931 . S
H925 C898 0.930 . S
H926 C900 0.930 . S
H927 C901 0.931 . S
H928 C903 0.931 . S
H929 C905 0.930 . S
H930 C907 0.930 . S
H931 C908 0.931 . S
H932 C910 0.931 . S
H933 C912 0.930 . S
H934 C914 0.930 . S
H935 C915 0.931 . S
H936 C917 0.931 . S
H937 C919 0.930 . S
H938 C921 0.930 . S
H939 C922 0.931 . S
N940 C902 1.343 . S
N940 C923 1.343 . S
N941 C909 1.343 . S
N941 C916 1.343 . S
C942 C943 1.384 . S
C942 C944 1.384 . S
C942 H970 0.931 . S
C943 C942 1.384 . S
C943 C946 1.382 . S
C944 C942 1.384 . S
C944 C945 1.381 . S
C944 H971 0.930 . S
C945 C944 1.381 . S
C945 C947 1.381 . S
C945 C948 1.487 . S
C946 C943 1.382 . S
C946 C947 1.387 . S
C946 H972 0.930 . S
C947 C945 1.381 . S
C947 C946 1.387 . S
C947 H973 0.931 . S
C948 C945 1.487 . S
C948 C955 1.399 . S
C948 N986 1.343 . S
C949 C950 1.384 . S
C949 C951 1.384 . S
C949 H974 0.931 . S
C950 C949 1.384 . S
C950 C953 1.382 . S
C951 C949 1.384 . S
C951 C952 1.381 . S
C951 H975 0.930 . S
C952 C951 1.381 . S
C952 C954 1.381 . S
C952 C955 1.487 . S
C953 C950 1.382 . S
C953 C954 1.387 . S
C953 H976 0.930 . S
C954 C952 1.381 . S
C954 C953 1.387 . S
C954 H977 0.931 . S
C955 C948 1.399 . S
C955 C952 1.487 . S
C955 N987 1.343 . S
C956 C957 1.384 . S
C956 C958 1.384 . S
C956 H978 0.931 . S
C957 C956 1.384 . S
C957 C960 1.382 . S
C958 C956 1.384 . S
C958 C959 1.381 . S
C958 H979 0.930 . S
C959 C958 1.381 . S
C959 C961 1.381 . S
C959 C962 1.487 . S
C960 C957 1.382 . S
C960 C961 1.387 . S
C960 H980 0.930 . S
C961 C959 1.381 . S
C961 C960 1.387 . S
C961 H981 0.931 . S
C962 C959 1.487 . S
C962 C969 1.399 . S
C962 N987 1.343 . S
C963 C964 1.384 . S
C963 C965 1.384 . S
C963 H982 0.931 . S
C964 C963 1.384 . S
C964 C967 1.382 . S
C965 C963 1.384 . S
C965 C966 1.381 . S
C965 H983 0.930 . S
C966 C965 1.381 . S
C966 C968 1.381 . S
C966 C969 1.487 . S
C967 C964 1.382 . S
C967 C968 1.387 . S
C967 H984 0.930 . S
C968 C966 1.381 . S
C968 C967 1.387 . S
C968 H985 0.931 . S
C969 C962 1.399 . S
C969 C966 1.487 . S
C969 N986 1.343 . S
H970 C942 0.931 . S
H971 C944 0.930 . S
H972 C946 0.930 . S
H973 C947 0.931 . S
H974 C949 0.931 . S
H975 C951 0.930 . S
H976 C953 0.930 . S
H977 C954 0.931 . S
H978 C956 0.931 . S
H979 C958 0.930 . S
H980 C960 0.930 . S
H981 C961 0.931 . S
H982 C963 0.931 . S
H983 C965 0.930 . S
H984 C967 0.930 . S
H985 C968 0.931 . S
N986 C948 1.343 . S
N986 C969 1.343 . S
N987 C955 1.343 . S
N987 C962 1.343 . S
C988 C989 1.384 . S
C988 C990 1.384 . S
C988 H1016 0.931 . S
C989 C988 1.384 . S
C989 C992 1.382 . S
C990 C988 1.384 . S
C990 C991 1.381 . S
C990 H1017 0.930 . S
C991 C990 1.381 . S
C991 C993 1.381 . S
C991 C994 1.487 . S
C992 C989 1.382 . S
C992 C993 1.387 . S
C992 H1018 0.930 . S
C993 C991 1.381 . S
C993 C992 1.387 . S
C993 H1019 0.931 . S
C994 C991 1.487 . S
C994 C1001 1.399 . S
C994 N1032 1.343 . S
C995 C996 1.384 . S
C995 C997 1.384 . S
C995 H1020 0.931 . S
C996 C995 1.384 . S
C996 C999 1.382 . S
C997 C995 1.384 . S
C997 C998 1.381 . S
C997 H1021 0.930 . S
C998 C997 1.381 . S
C998 C1000 1.381 . S
C998 C1001 1.487 . S
C999 C996 1.382 . S
C999 C1000 1.387 . S
C999 H1022 0.930 . S
C1000 C998 1.381 . S
C1000 C999 1.387 . S
C1000 H1023 0.931 . S
C1001 C994 1.399 . S
C1001 C998 1.487 . S
C1001 N1033 1.343 . S
C1002 C1003 1.384 . S
C1002 C1004 1.384 . S
C1002 H1024 0.931 . S
C1003 C1002 1.384 . S
C1003 C1006 1.382 . S
C1004 C1002 1.384 . S
C1004 C1005 1.381 . S
C1004 H1025 0.930 . S
C1005 C1004 1.381 . S
C1005 C1007 1.381 . S
C1005 C1008 1.487 . S
C1006 C1003 1.382 . S
C1006 C1007 1.387 . S
C1006 H1026 0.930 . S
C1007 C1005 1.381 . S
C1007 C1006 1.387 . S
C1007 H1027 0.931 . S
C1008 C1005 1.487 . S
C1008 C1015 1.399 . S
C1008 N1033 1.343 . S
C1009 C1010 1.384 . S
C1009 C1011 1.384 . S
C1009 H1028 0.931 . S
C1010 C1009 1.384 . S
C1010 C1013 1.382 . S
C1011 C1009 1.384 . S
C1011 C1012 1.381 . S
C1011 H1029 0.930 . S
C1012 C1011 1.381 . S
C1012 C1014 1.381 . S
C1012 C1015 1.487 . S
C1013 C1010 1.382 . S
C1013 C1014 1.387 . S
C1013 H1030 0.930 . S
C1014 C1012 1.381 . S
C1014 C1013 1.387 . S
C1014 H1031 0.931 . S
C1015 C1008 1.399 . S
C1015 C1012 1.487 . S
C1015 N1032 1.343 . S
H1016 C988 0.931 . S
H1017 C990 0.930 . S
H1018 C992 0.930 . S
H1019 C993 0.931 . S
H1020 C995 0.931 . S
H1021 C997 0.930 . S
H1022 C999 0.930 . S
H1023 C1000 0.931 . S
H1024 C1002 0.931 . S
H1025 C1004 0.930 . S
H1026 C1006 0.930 . S
H1027 C1007 0.931 . S
H1028 C1009 0.931 . S
H1029 C1011 0.930 . S
H1030 C1013 0.930 . S
H1031 C1014 0.931 . S
N1032 C994 1.343 . S
N1032 C1015 1.343 . S
N1033 C1001 1.343 . S
N1033 C1008 1.343 . S
C1034 C1035 1.384 . S
C1034 C1036 1.384 . S
C1034 H1062 0.931 . S
C1035 C1034 1.384 . S
C1035 C1038 1.382 . S
C1036 C1034 1.384 . S
C1036 C1037 1.381 . S
C1036 H1063 0.930 . S
C1037 C1036 1.381 . S
C1037 C1039 1.381 . S
C1037 C1040 1.487 . S
C1038 C1035 1.382 . S
C1038 C1039 1.387 . S
C1038 H1064 0.930 . S
C1039 C1037 1.381 . S
C1039 C1038 1.387 . S
C1039 H1065 0.931 . S
C1040 C1037 1.487 . S
C1040 C1047 1.399 . S
C1040 N1078 1.343 . S
C1041 C1042 1.384 . S
C1041 C1043 1.384 . S
C1041 H1066 0.931 . S
C1042 C1041 1.384 . S
C1042 C1045 1.382 . S
C1043 C1041 1.384 . S
C1043 C1044 1.381 . S
C1043 H1067 0.930 . S
C1044 C1043 1.381 . S
C1044 C1046 1.381 . S
C1044 C1047 1.487 . S
C1045 C1042 1.382 . S
C1045 C1046 1.387 . S
C1045 H1068 0.930 . S
C1046 C1044 1.381 . S
C1046 C1045 1.387 . S
C1046 H1069 0.931 . S
C1047 C1040 1.399 . S
C1047 C1044 1.487 . S
C1047 N1079 1.343 . S
C1048 C1049 1.384 . S
C1048 C1050 1.384 . S
C1048 H1070 0.931 . S
C1049 C1048 1.384 . S
C1049 C1052 1.382 . S
C1050 C1048 1.384 . S
C1050 C1051 1.381 . S
C1050 H1071 0.930 . S
C1051 C1050 1.381 . S
C1051 C1053 1.381 . S
C1051 C1054 1.487 . S
C1052 C1049 1.382 . S
C1052 C1053 1.387 . S
C1052 H1072 0.930 . S
C1053 C1051 1.381 . S
C1053 C1052 1.387 . S
C1053 H1073 0.931 . S
C1054 C1051 1.487 . S
C1054 C1061 1.399 . S
C1054 N1079 1.343 . S
C1055 C1056 1.384 . S
C1055 C1057 1.384 . S
C1055 H1074 0.931 . S
C1056 C1055 1.384 . S
C1056 C1059 1.382 . S
C1057 C1055 1.384 . S
C1057 C1058 1.381 . S
C1057 H1075 0.930 . S
C1058 C1057 1.381 . S
C1058 C1060 1.381 . S
C1058 C1061 1.487 . S
C1059 C1056 1.382 . S
C1059 C1060 1.387 . S
C1059 H1076 0.930 . S
C1060 C1058 1.381 . S
C1060 C1059 1.387 . S
C1060 H1077 0.931 . S
C1061 C1054 1.399 . S
C1061 C1058 1.487 . S
C1061 N1078 1.343 . S
H1062 C1034 0.931 . S
H1063 C1036 0.930 . S
H1064 C1038 0.930 . S
H1065 C1039 0.931 . S
H1066 C1041 0.931 . S
H1067 C1043 0.930 . S
H1068 C1045 0.930 . S
H1069 C1046 0.931 . S
H1070 C1048 0.931 . S
H1071 C1050 0.930 . S
H1072 C1052 0.930 . S
H1073 C1053 0.931 . S
H1074 C1055 0.931 . S
H1075 C1057 0.930 . S
H1076 C1059 0.930 . S
H1077 C1060 0.931 . S
N1078 C1040 1.343 . S
N1078 C1061 1.343 . S
N1079 C1047 1.343 . S
N1079 C1054 1.343 . S
H1080 C1092 0.930 . S
H1081 C1094 0.930 . S
H1082 C1095 0.930 . S
H1083 C1099 0.959 . S
H1084 C1099 0.959 . S
H1085 C1099 0.961 . S
H1086 C1100 0.960 . S
H1087 C1100 0.961 . S
H1088 C1100 0.959 . S
H1089 C1103 0.929 . S
H1090 C1104 0.931 . S
H1091 C1106 0.930 . S
C1092 H1080 0.930 . S
C1092 C1093 1.399 1_455 S
C1092 C1097 1.399 . S
C1093 C1092 1.399 1_655 S
C1093 C1094 1.376 . S
C1094 H1081 0.930 . S
C1094 C1093 1.376 . S
C1094 C1095 1.388 . S
C1095 H1082 0.930 . S
C1095 C1094 1.388 . S
C1095 C1096 1.390 . S
C1096 C1095 1.390 . S
C1096 C1097 1.394 1_655 S
C1096 C1102 1.465 . S
C1097 C1092 1.399 . S
C1097 C1096 1.394 1_455 S
C1097 C1098 1.516 . S
C1098 C1097 1.516 . S
C1098 C1099 1.502 1_455 S
C1098 C1100 1.561 . S
C1098 C1101 1.526 . S
C1099 H1083 0.959 . S
C1099 H1084 0.959 . S
C1099 H1085 0.961 . S
C1099 C1098 1.502 1_655 S
C1100 H1086 0.960 . S
C1100 H1087 0.961 . S
C1100 H1088 0.959 . S
C1100 C1098 1.561 . S
C1101 C1098 1.526 . S
C1101 C1102 1.396 1_455 S
C1101 C1106 1.390 . S
C1102 C1096 1.465 . S
C1102 C1101 1.396 1_655 S
C1102 C1103 1.399 . S
C1103 H1089 0.929 . S
C1103 C1102 1.399 . S
C1103 C1104 1.385 . S
C1104 H1090 0.931 . S
C1104 C1103 1.385 . S
C1104 C1105 1.389 . S
C1105 C1104 1.389 . S
C1105 C1106 1.387 1_655 S
C1106 H1091 0.930 . S
C1106 C1101 1.390 . S
C1106 C1105 1.387 1_455 S
H1107 C1119 0.930 . S
H1108 C1121 0.930 . S
H1109 C1122 0.930 . S
H1110 C1126 0.959 . S
H1111 C1126 0.959 . S
H1112 C1126 0.961 . S
H1113 C1127 0.960 . S
H1114 C1127 0.961 . S
H1115 C1127 0.959 . S
H1116 C1130 0.929 . S
H1117 C1131 0.931 . S
H1118 C1133 0.930 . S
C1119 H1107 0.930 . S
C1119 C1120 1.399 . S
C1119 C1124 1.399 . S
C1120 C1119 1.399 . S
C1120 C1121 1.376 . S
C1121 H1108 0.930 . S
C1121 C1120 1.376 . S
C1121 C1122 1.388 . S
C1122 H1109 0.930 . S
C1122 C1121 1.388 . S
C1122 C1123 1.390 . S
C1123 C1122 1.390 . S
C1123 C1124 1.394 . S
C1123 C1129 1.465 . S
C1124 C1119 1.399 . S
C1124 C1123 1.394 . S
C1124 C1125 1.516 . S
C1125 C1124 1.516 . S
C1125 C1126 1.502 . S
C1125 C1127 1.561 . S
C1125 C1128 1.526 . S
C1126 H1110 0.959 . S
C1126 H1111 0.959 . S
C1126 H1112 0.961 . S
C1126 C1125 1.502 . S
C1127 H1113 0.960 . S
C1127 H1114 0.961 . S
C1127 H1115 0.959 . S
C1127 C1125 1.561 . S
C1128 C1125 1.526 . S
C1128 C1129 1.396 . S
C1128 C1133 1.390 . S
C1129 C1123 1.465 . S
C1129 C1128 1.396 . S
C1129 C1130 1.399 . S
C1130 H1116 0.929 . S
C1130 C1129 1.399 . S
C1130 C1131 1.385 . S
C1131 H1117 0.931 . S
C1131 C1130 1.385 . S
C1131 C1132 1.389 . S
C1132 C1131 1.389 . S
C1132 C1133 1.387 . S
C1133 H1118 0.930 . S
C1133 C1128 1.390 . S
C1133 C1132 1.387 . S
H1134 C1146 0.930 . S
H1135 C1148 0.930 . S
H1136 C1149 0.930 . S
H1137 C1153 0.959 . S
H1138 C1153 0.959 . S
H1139 C1153 0.961 . S
H1140 C1154 0.960 . S
H1141 C1154 0.961 . S
H1142 C1154 0.959 . S
H1143 C1157 0.929 . S
H1144 C1158 0.931 . S
H1145 C1160 0.930 . S
C1146 H1134 0.930 . S
C1146 C1147 1.399 . S
C1146 C1151 1.399 . S
C1147 C1146 1.399 . S
C1147 C1148 1.376 1_545 S
C1148 H1135 0.930 . S
C1148 C1147 1.376 1_565 S
C1148 C1149 1.388 . S
C1149 H1136 0.930 . S
C1149 C1148 1.388 . S
C1149 C1150 1.391 1_565 S
C1150 C1149 1.391 1_545 S
C1150 C1151 1.388 . S
C1150 C1156 1.469 1_545 S
C1151 C1146 1.399 . S
C1151 C1150 1.388 . S
C1151 C1152 1.516 . S
C1152 C1151 1.516 . S
C1152 C1153 1.502 . S
C1152 C1154 1.561 . S
C1152 C1155 1.526 . S
C1153 H1137 0.959 . S
C1153 H1138 0.959 . S
C1153 H1139 0.961 . S
C1153 C1152 1.502 . S
C1154 H1140 0.960 . S
C1154 H1141 0.961 . S
C1154 H1142 0.959 . S
C1154 C1152 1.561 . S
C1155 C1152 1.526 . S
C1155 C1156 1.396 1_545 S
C1155 C1160 1.390 . S
C1156 C1150 1.469 1_565 S
C1156 C1155 1.396 1_565 S
C1156 C1157 1.399 . S
C1157 H1143 0.929 . S
C1157 C1156 1.399 . S
C1157 C1158 1.385 . S
C1158 H1144 0.931 . S
C1158 C1157 1.385 . S
C1158 C1159 1.389 1_565 S
C1159 C1158 1.389 1_545 S
C1159 C1160 1.387 . S
C1160 H1145 0.930 . S
C1160 C1155 1.390 . S
C1160 C1159 1.387 . S
H1161 C1173 0.930 . S
H1162 C1175 0.930 . S
H1163 C1176 0.930 . S
H1164 C1180 0.959 . S
H1165 C1180 0.959 . S
H1166 C1180 0.961 . S
H1167 C1181 0.960 . S
H1168 C1181 0.961 . S
H1169 C1181 0.959 . S
H1170 C1184 0.929 . S
H1171 C1185 0.931 . S
H1172 C1187 0.930 . S
C1173 H1161 0.930 . S
C1173 C1174 1.343 1_565 S
C1173 C1178 1.399 . S
C1174 C1173 1.343 1_545 S
C1174 C1175 1.421 . S
C1175 H1162 0.930 . S
C1175 C1174 1.421 . S
C1175 C1176 1.388 . S
C1176 H1163 0.930 . S
C1176 C1175 1.388 . S
C1176 C1177 1.390 . S
C1177 C1176 1.390 . S
C1177 C1178 1.394 1_545 S
C1177 C1183 1.465 . S
C1178 C1173 1.399 . S
C1178 C1177 1.394 1_565 S
C1178 C1179 1.516 . S
C1179 C1178 1.516 . S
C1179 C1180 1.502 . S
C1179 C1181 1.561 . S
C1179 C1182 1.526 . S
C1180 H1164 0.959 . S
C1180 H1165 0.959 . S
C1180 H1166 0.961 . S
C1180 C1179 1.502 . S
C1181 H1167 0.960 . S
C1181 H1168 0.961 . S
C1181 H1169 0.959 . S
C1181 C1179 1.561 . S
C1182 C1179 1.526 . S
C1182 C1183 1.396 1_565 S
C1182 C1187 1.390 . S
C1183 C1177 1.465 . S
C1183 C1182 1.396 1_545 S
C1183 C1184 1.399 . S
C1184 H1170 0.929 . S
C1184 C1183 1.399 . S
C1184 C1185 1.385 . S
C1185 H1171 0.931 . S
C1185 C1184 1.385 . S
C1185 C1186 1.344 1_545 S
C1186 C1185 1.344 1_565 S
C1186 C1187 1.408 . S
C1187 H1172 0.930 . S
C1187 C1182 1.390 . S
C1187 C1186 1.408 . S
H1188 C1200 0.930 . S
H1189 C1202 0.930 . S
H1190 C1203 0.930 . S
H1191 C1207 0.959 . S
H1192 C1207 0.959 . S
H1193 C1207 0.961 . S
H1194 C1208 0.960 . S
H1195 C1208 0.961 . S
H1196 C1208 0.959 . S
H1197 C1211 0.929 . S
H1198 C1212 0.931 . S
H1199 C1214 0.930 . S
C1200 H1188 0.930 . S
C1200 C1201 1.399 . S
C1200 C1205 1.399 . S
C1201 C1200 1.399 . S
C1201 C1202 1.376 . S
C1202 H1189 0.930 . S
C1202 C1201 1.376 . S
C1202 C1203 1.388 . S
C1203 H1190 0.930 . S
C1203 C1202 1.388 . S
C1203 C1204 1.390 . S
C1204 C1203 1.390 . S
C1204 C1205 1.394 . S
C1204 C1210 1.465 . S
C1205 C1200 1.399 . S
C1205 C1204 1.394 . S
C1205 C1206 1.516 . S
C1206 C1205 1.516 . S
C1206 C1207 1.502 1_455 S
C1206 C1208 1.561 . S
C1206 C1209 1.526 . S
C1207 H1191 0.959 . S
C1207 H1192 0.959 . S
C1207 H1193 0.961 . S
C1207 C1206 1.502 1_655 S
C1208 H1194 0.960 . S
C1208 H1195 0.961 . S
C1208 H1196 0.959 . S
C1208 C1206 1.561 . S
C1209 C1206 1.526 . S
C1209 C1210 1.396 . S
C1209 C1214 1.390 . S
C1210 C1204 1.465 . S
C1210 C1209 1.396 . S
C1210 C1211 1.399 . S
C1211 H1197 0.929 . S
C1211 C1210 1.399 . S
C1211 C1212 1.385 . S
C1212 H1198 0.931 . S
C1212 C1211 1.385 . S
C1212 C1213 1.389 . S
C1213 C1212 1.389 . S
C1213 C1214 1.387 . S
C1214 H1199 0.930 . S
C1214 C1209 1.390 . S
C1214 C1213 1.387 . S
H1215 C1227 0.930 . S
H1216 C1229 0.930 . S
H1217 C1230 0.930 . S
H1218 C1234 0.959 . S
H1219 C1234 0.959 . S
H1220 C1234 0.961 . S
H1221 C1235 0.960 . S
H1222 C1235 0.961 . S
H1223 C1235 0.959 . S
H1224 C1238 0.929 . S
H1225 C1239 0.931 . S
H1226 C1241 0.930 . S
C1227 H1215 0.930 . S
C1227 C1228 1.399 . S
C1227 C1232 1.399 . S
C1228 C1227 1.399 . S
C1228 C1229 1.376 . S
C1229 H1216 0.930 . S
C1229 C1228 1.376 . S
C1229 C1230 1.388 . S
C1230 H1217 0.930 . S
C1230 C1229 1.388 . S
C1230 C1231 1.390 . S
C1231 C1230 1.390 . S
C1231 C1232 1.394 . S
C1231 C1237 1.465 . S
C1232 C1227 1.399 . S
C1232 C1231 1.394 . S
C1232 C1233 1.516 . S
C1233 C1232 1.516 . S
C1233 C1234 1.502 . S
C1233 C1235 1.561 . S
C1233 C1236 1.526 . S
C1234 H1218 0.959 . S
C1234 H1219 0.959 . S
C1234 H1220 0.961 . S
C1234 C1233 1.502 . S
C1235 H1221 0.960 . S
C1235 H1222 0.961 . S
C1235 H1223 0.959 . S
C1235 C1233 1.561 . S
C1236 C1233 1.526 . S
C1236 C1237 1.396 . S
C1236 C1241 1.390 . S
C1237 C1231 1.465 . S
C1237 C1236 1.396 . S
C1237 C1238 1.399 . S
C1238 H1224 0.929 . S
C1238 C1237 1.399 . S
C1238 C1239 1.385 . S
C1239 H1225 0.931 . S
C1239 C1238 1.385 . S
C1239 C1240 1.389 . S
C1240 C1239 1.389 . S
C1240 C1241 1.387 . S
C1241 H1226 0.930 . S
C1241 C1236 1.390 . S
C1241 C1240 1.387 . S
H1242 C1254 0.930 . S
H1243 C1256 0.941 . S
H1244 C1257 0.930 . S
H1245 C1261 0.959 1_655 S
H1246 C1261 0.959 . S
H1247 C1261 0.961 . S
H1248 C1262 0.960 . S
H1249 C1262 0.961 . S
H1250 C1262 0.959 . S
H1251 C1265 0.929 . S
H1252 C1266 0.931 . S
H1253 C1268 0.930 . S
C1254 H1242 0.930 . S
C1254 C1255 1.399 . S
C1254 C1259 1.399 . S
C1255 C1254 1.399 . S
C1255 C1256 1.385 1_455 S
C1256 H1243 0.941 . S
C1256 C1255 1.385 1_655 S
C1256 C1257 1.372 . S
C1257 H1244 0.930 . S
C1257 C1256 1.372 . S
C1257 C1258 1.390 1_655 S
C1258 C1257 1.390 1_455 S
C1258 C1259 1.394 . S
C1258 C1264 1.465 . S
C1259 C1254 1.399 . S
C1259 C1258 1.394 . S
C1259 C1260 1.516 . S
C1260 C1259 1.516 . S
C1260 C1261 1.502 . S
C1260 C1262 1.561 . S
C1260 C1263 1.526 . S
C1261 H1245 0.959 1_455 S
C1261 H1246 0.959 . S
C1261 H1247 0.961 . S
C1261 C1260 1.502 . S
C1262 H1248 0.960 . S
C1262 H1249 0.961 . S
C1262 H1250 0.959 . S
C1262 C1260 1.561 . S
C1263 C1260 1.526 . S
C1263 C1264 1.396 . S
C1263 C1268 1.390 . S
C1264 C1258 1.465 . S
C1264 C1263 1.396 . S
C1264 C1265 1.399 1_455 S
C1265 H1251 0.929 . S
C1265 C1264 1.399 1_655 S
C1265 C1266 1.385 . S
C1266 H1252 0.931 . S
C1266 C1265 1.385 . S
C1266 C1267 1.389 1_655 S
C1267 C1266 1.389 1_455 S
C1267 C1268 1.387 . S
C1268 H1253 0.930 . S
C1268 C1263 1.390 . S
C1268 C1267 1.387 . S
H1269 C1281 0.930 . S
H1270 C1283 0.930 . S
H1271 C1284 0.930 . S
H1272 C1288 0.959 . S
H1273 C1288 0.959 . S
H1274 C1288 0.961 . S
H1275 C1289 0.960 . S
H1276 C1289 0.961 . S
H1277 C1289 0.959 . S
H1278 C1292 0.929 . S
H1279 C1293 0.931 . S
H1280 C1295 0.930 . S
C1281 H1269 0.930 . S
C1281 C1282 1.399 . S
C1281 C1286 1.399 . S
C1282 C1281 1.399 . S
C1282 C1283 1.376 . S
C1283 H1270 0.930 . S
C1283 C1282 1.376 . S
C1283 C1284 1.388 . S
C1284 H1271 0.930 . S
C1284 C1283 1.388 . S
C1284 C1285 1.390 . S
C1285 C1284 1.390 . S
C1285 C1286 1.394 . S
C1285 C1291 1.465 . S
C1286 C1281 1.399 . S
C1286 C1285 1.394 . S
C1286 C1287 1.516 . S
C1287 C1286 1.516 . S
C1287 C1288 1.502 . S
C1287 C1289 1.561 . S
C1287 C1290 1.526 . S
C1288 H1272 0.959 . S
C1288 H1273 0.959 . S
C1288 H1274 0.961 . S
C1288 C1287 1.502 . S
C1289 H1275 0.960 . S
C1289 H1276 0.961 . S
C1289 H1277 0.959 . S
C1289 C1287 1.561 . S
C1290 C1287 1.526 . S
C1290 C1291 1.396 . S
C1290 C1295 1.390 . S
C1291 C1285 1.465 . S
C1291 C1290 1.396 . S
C1291 C1292 1.399 . S
C1292 H1278 0.929 . S
C1292 C1291 1.399 . S
C1292 C1293 1.385 . S
C1293 H1279 0.931 . S
C1293 C1292 1.385 . S
C1293 C1294 1.389 . S
C1294 C1293 1.389 . S
C1294 C1295 1.387 . S
C1295 H1280 0.930 . S
C1295 C1290 1.390 . S
C1295 C1294 1.387 . S
H1296 C1308 0.930 . S
H1297 C1310 0.930 . S
H1298 C1311 0.930 . S
H1299 C1315 0.959 . S
H1300 C1315 0.959 . S
H1301 C1315 0.961 . S
H1302 C1316 0.960 . S
H1303 C1316 0.961 . S
H1304 C1316 0.959 . S
H1305 C1319 0.929 . S
H1306 C1320 0.931 . S
H1307 C1322 0.930 . S
C1308 H1296 0.930 . S
C1308 C1309 1.399 . S
C1308 C1313 1.399 . S
C1309 C1308 1.399 . S
C1309 C1310 1.376 1_565 S
C1310 H1297 0.930 . S
C1310 C1309 1.376 1_545 S
C1310 C1311 1.388 . S
C1311 H1298 0.930 . S
C1311 C1310 1.388 . S
C1311 C1312 1.390 . S
C1312 C1311 1.390 . S
C1312 C1313 1.394 1_545 S
C1312 C1318 1.465 . S
C1313 C1308 1.399 . S
C1313 C1312 1.394 1_565 S
C1313 C1314 1.516 . S
C1314 C1313 1.516 . S
C1314 C1315 1.502 . S
C1314 C1316 1.561 . S
C1314 C1317 1.526 . S
C1315 H1299 0.959 . S
C1315 H1300 0.959 . S
C1315 H1301 0.961 . S
C1315 C1314 1.502 . S
C1316 H1302 0.960 . S
C1316 H1303 0.961 . S
C1316 H1304 0.959 . S
C1316 C1314 1.561 . S
C1317 C1314 1.526 . S
C1317 C1318 1.396 1_565 S
C1317 C1322 1.390 . S
C1318 C1312 1.465 . S
C1318 C1317 1.396 1_545 S
C1318 C1319 1.399 . S
C1319 H1305 0.929 . S
C1319 C1318 1.399 . S
C1319 C1320 1.385 . S
C1320 H1306 0.931 . S
C1320 C1319 1.385 . S
C1320 C1321 1.389 1_545 S
C1321 C1320 1.389 1_565 S
C1321 C1322 1.387 . S
C1322 H1307 0.930 . S
C1322 C1317 1.390 . S
C1322 C1321 1.387 . S
H1323 C1335 0.930 . S
H1324 C1337 0.930 . S
H1325 C1338 0.930 . S
H1326 C1342 0.959 . S
H1327 C1342 0.959 . S
H1328 C1342 0.961 . S
H1329 C1343 0.960 . S
H1330 C1343 0.961 . S
H1331 C1343 0.959 . S
H1332 C1346 0.929 . S
H1333 C1347 0.931 . S
H1334 C1349 0.930 . S
C1335 H1323 0.930 . S
C1335 C1336 1.399 . S
C1335 C1340 1.399 . S
C1336 C1335 1.399 . S
C1336 C1337 1.376 1_545 S
C1337 H1324 0.930 . S
C1337 C1336 1.376 1_565 S
C1337 C1338 1.388 . S
C1338 H1325 0.930 . S
C1338 C1337 1.388 . S
C1338 C1339 1.390 . S
C1339 C1338 1.390 . S
C1339 C1340 1.394 1_565 S
C1339 C1345 1.465 . S
C1340 C1335 1.399 . S
C1340 C1339 1.394 1_545 S
C1340 C1341 1.516 . S
C1341 C1340 1.516 . S
C1341 C1342 1.502 . S
C1341 C1343 1.561 . S
C1341 C1344 1.526 . S
C1342 H1326 0.959 . S
C1342 H1327 0.959 . S
C1342 H1328 0.961 . S
C1342 C1341 1.502 . S
C1343 H1329 0.960 . S
C1343 H1330 0.961 . S
C1343 H1331 0.959 . S
C1343 C1341 1.561 . S
C1344 C1341 1.526 . S
C1344 C1345 1.396 1_545 S
C1344 C1349 1.390 . S
C1345 C1339 1.465 . S
C1345 C1344 1.396 1_565 S
C1345 C1346 1.399 . S
C1346 H1332 0.929 . S
C1346 C1345 1.399 . S
C1346 C1347 1.385 . S
C1347 H1333 0.931 . S
C1347 C1346 1.385 . S
C1347 C1348 1.389 1_565 S
C1348 C1347 1.389 1_545 S
C1348 C1349 1.387 . S
C1349 H1334 0.930 . S
C1349 C1344 1.390 . S
C1349 C1348 1.387 . S
H1350 C1362 0.930 . S
H1351 C1364 0.930 . S
H1352 C1365 0.930 . S
H1353 C1369 0.959 . S
H1354 C1369 0.959 . S
H1355 C1369 0.961 . S
H1356 C1370 0.960 . S
H1357 C1370 0.961 . S
H1358 C1370 0.959 1_655 S
H1359 C1373 0.929 . S
H1360 C1374 0.931 . S
H1361 C1376 0.930 . S
C1362 H1350 0.930 . S
C1362 C1363 1.399 1_455 S
C1362 C1367 1.399 . S
C1363 C1362 1.399 1_655 S
C1363 C1364 1.376 . S
C1364 H1351 0.930 . S
C1364 C1363 1.376 . S
C1364 C1365 1.388 . S
C1365 H1352 0.930 . S
C1365 C1364 1.388 . S
C1365 C1366 1.390 . S
C1366 C1365 1.390 . S
C1366 C1367 1.394 1_655 S
C1366 C1372 1.465 . S
C1367 C1362 1.399 . S
C1367 C1366 1.394 1_455 S
C1367 C1368 1.516 . S
C1368 C1367 1.516 . S
C1368 C1369 1.502 . S
C1368 C1370 1.561 . S
C1368 C1371 1.526 . S
C1369 H1353 0.959 . S
C1369 H1354 0.959 . S
C1369 H1355 0.961 . S
C1369 C1368 1.502 . S
C1370 H1356 0.960 . S
C1370 H1357 0.961 . S
C1370 H1358 0.959 1_455 S
C1370 C1368 1.561 . S
C1371 C1368 1.526 . S
C1371 C1372 1.396 1_455 S
C1371 C1376 1.390 . S
C1372 C1366 1.465 . S
C1372 C1371 1.396 1_655 S
C1372 C1373 1.399 . S
C1373 H1359 0.929 . S
C1373 C1372 1.399 . S
C1373 C1374 1.385 . S
C1374 H1360 0.931 . S
C1374 C1373 1.385 . S
C1374 C1375 1.389 . S
C1375 C1374 1.389 . S
C1375 C1376 1.387 1_655 S
C1376 H1361 0.930 . S
C1376 C1371 1.390 . S
C1376 C1375 1.387 1_455 S
H1377 C1389 0.930 . S
H1378 C1391 0.930 . S
H1379 C1392 0.930 . S
H1380 C1396 0.959 . S
H1381 C1396 0.959 . S
H1382 C1396 0.961 . S
H1383 C1397 0.960 . S
H1384 C1397 0.961 . S
H1385 C1397 0.959 . S
H1386 C1400 0.929 . S
H1387 C1401 0.931 . S
H1388 C1403 0.930 . S
C1389 H1377 0.930 . S
C1389 C1390 1.399 . S
C1389 C1394 1.399 . S
C1390 C1389 1.399 . S
C1390 C1391 1.376 . S
C1391 H1378 0.930 . S
C1391 C1390 1.376 . S
C1391 C1392 1.388 . S
C1392 H1379 0.930 . S
C1392 C1391 1.388 . S
C1392 C1393 1.390 . S
C1393 C1392 1.390 . S
C1393 C1394 1.394 . S
C1393 C1399 1.465 . S
C1394 C1389 1.399 . S
C1394 C1393 1.394 . S
C1394 C1395 1.516 . S
C1395 C1394 1.516 . S
C1395 C1396 1.502 . S
C1395 C1397 1.561 . S
C1395 C1398 1.526 . S
C1396 H1380 0.959 . S
C1396 H1381 0.959 . S
C1396 H1382 0.961 . S
C1396 C1395 1.502 . S
C1397 H1383 0.960 . S
C1397 H1384 0.961 . S
C1397 H1385 0.959 . S
C1397 C1395 1.561 . S
C1398 C1395 1.526 . S
C1398 C1399 1.396 . S
C1398 C1403 1.390 . S
C1399 C1393 1.465 . S
C1399 C1398 1.396 . S
C1399 C1400 1.399 . S
C1400 H1386 0.929 . S
C1400 C1399 1.399 . S
C1400 C1401 1.385 . S
C1401 H1387 0.931 . S
C1401 C1400 1.385 . S
C1401 C1402 1.389 . S
C1402 C1401 1.389 . S
C1402 C1403 1.387 . S
C1403 H1388 0.930 . S
C1403 C1398 1.390 . S
C1403 C1402 1.387 . S
H1404 C1416 0.930 . S
H1405 C1418 0.930 . S
H1406 C1419 0.930 . S
H1407 C1423 0.959 . S
H1408 C1423 0.959 . S
H1409 C1423 0.961 . S
H1410 C1424 0.960 . S
H1411 C1424 0.961 . S
H1412 C1424 0.959 . S
H1413 C1427 0.929 . S
H1414 C1428 0.931 . S
H1415 C1430 0.930 . S
C1416 H1404 0.930 . S
C1416 C1417 1.399 . S
C1416 C1421 1.399 . S
C1417 C1416 1.399 . S
C1417 C1418 1.376 . S
C1418 H1405 0.930 . S
C1418 C1417 1.376 . S
C1418 C1419 1.388 . S
C1419 H1406 0.930 . S
C1419 C1418 1.388 . S
C1419 C1420 1.390 . S
C1420 C1419 1.390 . S
C1420 C1421 1.394 . S
C1420 C1426 1.465 . S
C1421 C1416 1.399 . S
C1421 C1420 1.394 . S
C1421 C1422 1.516 . S
C1422 C1421 1.516 . S
C1422 C1423 1.502 . S
C1422 C1424 1.561 . S
C1422 C1425 1.526 . S
C1423 H1407 0.959 . S
C1423 H1408 0.959 . S
C1423 H1409 0.961 . S
C1423 C1422 1.502 . S
C1424 H1410 0.960 . S
C1424 H1411 0.961 . S
C1424 H1412 0.959 . S
C1424 C1422 1.561 . S
C1425 C1422 1.526 . S
C1425 C1426 1.396 . S
C1425 C1430 1.390 . S
C1426 C1420 1.465 . S
C1426 C1425 1.396 . S
C1426 C1427 1.399 . S
C1427 H1413 0.929 . S
C1427 C1426 1.399 . S
C1427 C1428 1.385 . S
C1428 H1414 0.931 . S
C1428 C1427 1.385 . S
C1428 C1429 1.389 . S
C1429 C1428 1.389 . S
C1429 C1430 1.387 . S
C1430 H1415 0.930 . S
C1430 C1425 1.390 . S
C1430 C1429 1.387 . S
H1431 C1443 0.930 . S
H1432 C1445 0.930 . S
H1433 C1446 0.930 . S
H1434 C1450 0.959 . S
H1435 C1450 0.959 . S
H1436 C1450 0.961 . S
H1437 C1451 0.960 . S
H1438 C1451 0.961 . S
H1439 C1451 0.959 . S
H1440 C1454 0.929 . S
H1441 C1455 0.931 . S
H1442 C1457 0.930 . S
C1443 H1431 0.930 . S
C1443 C1444 1.399 . S
C1443 C1448 1.399 . S
C1444 C1443 1.399 . S
C1444 C1445 1.376 . S
C1445 H1432 0.930 . S
C1445 C1444 1.376 . S
C1445 C1446 1.388 . S
C1446 H1433 0.930 . S
C1446 C1445 1.388 . S
C1446 C1447 1.390 . S
C1447 C1446 1.390 . S
C1447 C1448 1.394 . S
C1447 C1453 1.465 . S
C1448 C1443 1.399 . S
C1448 C1447 1.394 . S
C1448 C1449 1.516 . S
C1449 C1448 1.516 . S
C1449 C1450 1.502 . S
C1449 C1451 1.561 . S
C1449 C1452 1.526 . S
C1450 H1434 0.959 . S
C1450 H1435 0.959 . S
C1450 H1436 0.961 . S
C1450 C1449 1.502 . S
C1451 H1437 0.960 . S
C1451 H1438 0.961 . S
C1451 H1439 0.959 . S
C1451 C1449 1.561 . S
C1452 C1449 1.526 . S
C1452 C1453 1.396 . S
C1452 C1457 1.390 . S
C1453 C1447 1.465 . S
C1453 C1452 1.396 . S
C1453 C1454 1.399 . S
C1454 H1440 0.929 . S
C1454 C1453 1.399 . S
C1454 C1455 1.385 . S
C1455 H1441 0.931 . S
C1455 C1454 1.385 . S
C1455 C1456 1.389 . S
C1456 C1455 1.389 . S
C1456 C1457 1.387 . S
C1457 H1442 0.930 . S
C1457 C1452 1.390 . S
C1457 C1456 1.387 . S
H1458 C1470 0.930 . S
H1459 C1472 0.930 . S
H1460 C1473 0.930 . S
H1461 C1477 0.959 . S
H1462 C1477 0.959 . S
H1463 C1477 0.961 . S
H1464 C1478 0.960 . S
H1465 C1478 0.961 . S
H1466 C1478 0.959 . S
H1467 C1481 0.929 . S
H1468 C1482 0.931 . S
H1469 C1484 0.930 . S
C1470 H1458 0.930 . S
C1470 C1471 1.399 . S
C1470 C1475 1.399 . S
C1471 C1470 1.399 . S
C1471 C1472 1.376 . S
C1472 H1459 0.930 . S
C1472 C1471 1.376 . S
C1472 C1473 1.388 . S
C1473 H1460 0.930 . S
C1473 C1472 1.388 . S
C1473 C1474 1.390 . S
C1474 C1473 1.390 . S
C1474 C1475 1.394 . S
C1474 C1480 1.465 . S
C1475 C1470 1.399 . S
C1475 C1474 1.394 . S
C1475 C1476 1.516 . S
C1476 C1475 1.516 . S
C1476 C1477 1.502 . S
C1476 C1478 1.561 . S
C1476 C1479 1.526 . S
C1477 H1461 0.959 . S
C1477 H1462 0.959 . S
C1477 H1463 0.961 . S
C1477 C1476 1.502 . S
C1478 H1464 0.960 . S
C1478 H1465 0.961 . S
C1478 H1466 0.959 . S
C1478 C1476 1.561 . S
C1479 C1476 1.526 . S
C1479 C1480 1.396 . S
C1479 C1484 1.390 . S
C1480 C1474 1.465 . S
C1480 C1479 1.396 . S
C1480 C1481 1.399 . S
C1481 H1467 0.929 . S
C1481 C1480 1.399 . S
C1481 C1482 1.385 . S
C1482 H1468 0.931 . S
C1482 C1481 1.385 . S
C1482 C1483 1.389 . S
C1483 C1482 1.389 . S
C1483 C1484 1.387 . S
C1484 H1469 0.930 . S
C1484 C1479 1.390 . S
C1484 C1483 1.387 . S
H1485 C1497 0.930 . S
H1486 C1499 0.930 . S
H1487 C1500 0.930 . S
H1488 C1504 0.959 . S
H1489 C1504 0.959 . S
H1490 C1504 0.961 . S
H1491 C1505 0.960 . S
H1492 C1505 0.961 . S
H1493 C1505 0.959 . S
H1494 C1508 0.929 . S
H1495 C1509 0.931 . S
H1496 C1511 0.930 . S
C1497 H1485 0.930 . S
C1497 C1498 1.399 . S
C1497 C1502 1.399 . S
C1498 C1497 1.399 . S
C1498 C1499 1.376 . S
C1499 H1486 0.930 . S
C1499 C1498 1.376 . S
C1499 C1500 1.388 . S
C1500 H1487 0.930 . S
C1500 C1499 1.388 . S
C1500 C1501 1.390 . S
C1501 C1500 1.390 . S
C1501 C1502 1.394 . S
C1501 C1507 1.465 . S
C1502 C1497 1.399 . S
C1502 C1501 1.394 . S
C1502 C1503 1.516 . S
C1503 C1502 1.516 . S
C1503 C1504 1.502 . S
C1503 C1505 1.561 . S
C1503 C1506 1.526 . S
C1504 H1488 0.959 . S
C1504 H1489 0.959 . S
C1504 H1490 0.961 . S
C1504 C1503 1.502 . S
C1505 H1491 0.960 . S
C1505 H1492 0.961 . S
C1505 H1493 0.959 . S
C1505 C1503 1.561 . S
C1506 C1503 1.526 . S
C1506 C1507 1.396 . S
C1506 C1511 1.390 . S
C1507 C1501 1.465 . S
C1507 C1506 1.396 . S
C1507 C1508 1.399 . S
C1508 H1494 0.929 . S
C1508 C1507 1.399 . S
C1508 C1509 1.385 . S
C1509 H1495 0.931 . S
C1509 C1508 1.385 . S
C1509 C1510 1.389 . S
C1510 C1509 1.389 . S
C1510 C1511 1.387 . S
C1511 H1496 0.930 . S
C1511 C1506 1.390 . S
C1511 C1510 1.387 . S
H1512 C1524 0.930 . S
H1513 C1526 0.930 . S
H1514 C1527 0.930 . S
H1515 C1531 0.959 . S
H1516 C1531 0.959 . S
H1517 C1531 0.961 . S
H1518 C1532 0.960 . S
H1519 C1532 0.961 . S
H1520 C1532 0.959 . S
H1521 C1535 0.929 . S
H1522 C1536 0.931 . S
H1523 C1538 0.930 . S
C1524 H1512 0.930 . S
C1524 C1525 1.399 . S
C1524 C1529 1.399 . S
C1525 C1524 1.399 . S
C1525 C1526 1.376 . S
C1526 H1513 0.930 . S
C1526 C1525 1.376 . S
C1526 C1527 1.388 . S
C1527 H1514 0.930 . S
C1527 C1526 1.388 . S
C1527 C1528 1.390 . S
C1528 C1527 1.390 . S
C1528 C1529 1.394 . S
C1528 C1534 1.465 . S
C1529 C1524 1.399 . S
C1529 C1528 1.394 . S
C1529 C1530 1.516 . S
C1530 C1529 1.516 . S
C1530 C1531 1.502 . S
C1530 C1532 1.561 . S
C1530 C1533 1.526 . S
C1531 H1515 0.959 . S
C1531 H1516 0.959 . S
C1531 H1517 0.961 . S
C1531 C1530 1.502 . S
C1532 H1518 0.960 . S
C1532 H1519 0.961 . S
C1532 H1520 0.959 . S
C1532 C1530 1.561 . S
C1533 C1530 1.526 . S
C1533 C1534 1.396 . S
C1533 C1538 1.390 . S
C1534 C1528 1.465 . S
C1534 C1533 1.396 . S
C1534 C1535 1.399 . S
C1535 H1521 0.929 . S
C1535 C1534 1.399 . S
C1535 C1536 1.385 . S
C1536 H1522 0.931 . S
C1536 C1535 1.385 . S
C1536 C1537 1.389 . S
C1537 C1536 1.389 . S
C1537 C1538 1.387 . S
C1538 H1523 0.930 . S
C1538 C1533 1.390 . S
C1538 C1537 1.387 . S
H1539 C1551 0.930 . S
H1540 C1553 0.930 . S
H1541 C1554 0.930 . S
H1542 C1558 0.959 . S
H1543 C1558 0.959 . S
H1544 C1558 0.961 . S
H1545 C1559 0.960 . S
H1546 C1559 0.961 . S
H1547 C1559 0.959 . S
H1548 C1562 0.929 . S
H1549 C1563 0.931 . S
H1550 C1565 0.930 . S
C1551 H1539 0.930 . S
C1551 C1552 1.399 . S
C1551 C1556 1.399 . S
C1552 C1551 1.399 . S
C1552 C1553 1.376 . S
C1553 H1540 0.930 . S
C1553 C1552 1.376 . S
C1553 C1554 1.388 . S
C1554 H1541 0.930 . S
C1554 C1553 1.388 . S
C1554 C1555 1.390 . S
C1555 C1554 1.390 . S
C1555 C1556 1.394 . S
C1555 C1561 1.465 . S
C1556 C1551 1.399 . S
C1556 C1555 1.394 . S
C1556 C1557 1.516 . S
C1557 C1556 1.516 . S
C1557 C1558 1.502 . S
C1557 C1559 1.561 . S
C1557 C1560 1.526 . S
C1558 H1542 0.959 . S
C1558 H1543 0.959 . S
C1558 H1544 0.961 . S
C1558 C1557 1.502 . S
C1559 H1545 0.960 . S
C1559 H1546 0.961 . S
C1559 H1547 0.959 . S
C1559 C1557 1.561 . S
C1560 C1557 1.526 . S
C1560 C1561 1.396 . S
C1560 C1565 1.390 . S
C1561 C1555 1.465 . S
C1561 C1560 1.396 . S
C1561 C1562 1.399 . S
C1562 H1548 0.929 . S
C1562 C1561 1.399 . S
C1562 C1563 1.385 . S
C1563 H1549 0.931 . S
C1563 C1562 1.385 . S
C1563 C1564 1.389 . S
C1564 C1563 1.389 . S
C1564 C1565 1.387 . S
C1565 H1550 0.930 . S
C1565 C1560 1.390 . S
C1565 C1564 1.387 . S
H1566 C1578 0.930 . S
H1567 C1580 0.930 . S
H1568 C1581 0.930 . S
H1569 C1585 0.959 . S
H1570 C1585 0.959 . S
H1571 C1585 0.961 . S
H1572 C1586 0.960 . S
H1573 C1586 0.961 . S
H1574 C1586 0.959 . S
H1575 C1589 0.929 . S
H1576 C1590 0.931 . S
H1577 C1592 0.930 . S
C1578 H1566 0.930 . S
C1578 C1579 1.399 . S
C1578 C1583 1.399 . S
C1579 C1578 1.399 . S
C1579 C1580 1.376 . S
C1580 H1567 0.930 . S
C1580 C1579 1.376 . S
C1580 C1581 1.388 . S
C1581 H1568 0.930 . S
C1581 C1580 1.388 . S
C1581 C1582 1.390 . S
C1582 C1581 1.390 . S
C1582 C1583 1.394 . S
C1582 C1588 1.465 . S
C1583 C1578 1.399 . S
C1583 C1582 1.394 . S
C1583 C1584 1.516 . S
C1584 C1583 1.516 . S
C1584 C1585 1.502 . S
C1584 C1586 1.561 . S
C1584 C1587 1.526 . S
C1585 H1569 0.959 . S
C1585 H1570 0.959 . S
C1585 H1571 0.961 . S
C1585 C1584 1.502 . S
C1586 H1572 0.960 . S
C1586 H1573 0.961 . S
C1586 H1574 0.959 . S
C1586 C1584 1.561 . S
C1587 C1584 1.526 . S
C1587 C1588 1.396 . S
C1587 C1592 1.390 . S
C1588 C1582 1.465 . S
C1588 C1587 1.396 . S
C1588 C1589 1.399 . S
C1589 H1575 0.929 . S
C1589 C1588 1.399 . S
C1589 C1590 1.385 . S
C1590 H1576 0.931 . S
C1590 C1589 1.385 . S
C1590 C1591 1.389 . S
C1591 C1590 1.389 . S
C1591 C1592 1.387 . S
C1592 H1577 0.930 . S
C1592 C1587 1.390 . S
C1592 C1591 1.387 . S
H1593 C1605 0.930 . S
H1594 C1607 0.930 . S
H1595 C1608 0.930 . S
H1596 C1612 0.959 . S
H1597 C1612 0.959 . S
H1598 C1612 0.961 . S
H1599 C1613 0.960 . S
H1600 C1613 0.961 . S
H1601 C1613 0.959 . S
H1602 C1616 0.929 . S
H1603 C1617 0.931 . S
H1604 C1619 0.930 . S
C1605 H1593 0.930 . S
C1605 C1606 1.399 . S
C1605 C1610 1.399 . S
C1606 C1605 1.399 . S
C1606 C1607 1.376 . S
C1607 H1594 0.930 . S
C1607 C1606 1.376 . S
C1607 C1608 1.388 . S
C1608 H1595 0.930 . S
C1608 C1607 1.388 . S
C1608 C1609 1.390 . S
C1609 C1608 1.390 . S
C1609 C1610 1.394 . S
C1609 C1615 1.465 . S
C1610 C1605 1.399 . S
C1610 C1609 1.394 . S
C1610 C1611 1.516 . S
C1611 C1610 1.516 . S
C1611 C1612 1.502 . S
C1611 C1613 1.561 . S
C1611 C1614 1.526 . S
C1612 H1596 0.959 . S
C1612 H1597 0.959 . S
C1612 H1598 0.961 . S
C1612 C1611 1.502 . S
C1613 H1599 0.960 . S
C1613 H1600 0.961 . S
C1613 H1601 0.959 . S
C1613 C1611 1.561 . S
C1614 C1611 1.526 . S
C1614 C1615 1.396 . S
C1614 C1619 1.390 . S
C1615 C1609 1.465 . S
C1615 C1614 1.396 . S
C1615 C1616 1.399 . S
C1616 H1602 0.929 . S
C1616 C1615 1.399 . S
C1616 C1617 1.385 . S
C1617 H1603 0.931 . S
C1617 C1616 1.385 . S
C1617 C1618 1.389 . S
C1618 C1617 1.389 . S
C1618 C1619 1.387 . S
C1619 H1604 0.930 . S
C1619 C1614 1.390 . S
C1619 C1618 1.387 . S
H1620 C1632 0.930 . S
H1621 C1634 0.930 . S
H1622 C1635 0.930 . S
H1623 C1639 0.959 . S
H1624 C1639 0.959 . S
H1625 C1639 0.961 . S
H1626 C1640 0.960 . S
H1627 C1640 0.961 . S
H1628 C1640 0.959 . S
H1629 C1643 0.929 . S
H1630 C1644 0.931 . S
H1631 C1646 0.930 . S
C1632 H1620 0.930 . S
C1632 C1633 1.399 . S
C1632 C1637 1.399 . S
C1633 C1632 1.399 . S
C1633 C1634 1.376 . S
C1634 H1621 0.930 . S
C1634 C1633 1.376 . S
C1634 C1635 1.388 . S
C1635 H1622 0.930 . S
C1635 C1634 1.388 . S
C1635 C1636 1.390 . S
C1636 C1635 1.390 . S
C1636 C1637 1.394 . S
C1636 C1642 1.465 . S
C1637 C1632 1.399 . S
C1637 C1636 1.394 . S
C1637 C1638 1.516 . S
C1638 C1637 1.516 . S
C1638 C1639 1.502 . S
C1638 C1640 1.561 . S
C1638 C1641 1.526 . S
C1639 H1623 0.959 . S
C1639 H1624 0.959 . S
C1639 H1625 0.961 . S
C1639 C1638 1.502 . S
C1640 H1626 0.960 . S
C1640 H1627 0.961 . S
C1640 H1628 0.959 . S
C1640 C1638 1.561 . S
C1641 C1638 1.526 . S
C1641 C1642 1.396 . S
C1641 C1646 1.390 . S
C1642 C1636 1.465 . S
C1642 C1641 1.396 . S
C1642 C1643 1.399 . S
C1643 H1629 0.929 . S
C1643 C1642 1.399 . S
C1643 C1644 1.385 . S
C1644 H1630 0.931 . S
C1644 C1643 1.385 . S
C1644 C1645 1.389 . S
C1645 C1644 1.389 . S
C1645 C1646 1.387 . S
C1646 H1631 0.930 . S
C1646 C1641 1.390 . S
C1646 C1645 1.387 . S
H1647 C1659 0.930 . S
H1648 C1661 0.930 . S
H1649 C1662 0.930 . S
H1650 C1666 0.959 . S
H1651 C1666 0.959 . S
H1652 C1666 0.961 . S
H1653 C1667 0.960 . S
H1654 C1667 0.961 . S
H1655 C1667 0.959 . S
H1656 C1670 0.929 . S
H1657 C1671 0.931 . S
H1658 C1673 0.930 . S
C1659 H1647 0.930 . S
C1659 C1660 1.399 . S
C1659 C1664 1.399 . S
C1660 C1659 1.399 . S
C1660 C1661 1.376 . S
C1661 H1648 0.930 . S
C1661 C1660 1.376 . S
C1661 C1662 1.388 . S
C1662 H1649 0.930 . S
C1662 C1661 1.388 . S
C1662 C1663 1.390 . S
C1663 C1662 1.390 . S
C1663 C1664 1.394 . S
C1663 C1669 1.465 . S
C1664 C1659 1.399 . S
C1664 C1663 1.394 . S
C1664 C1665 1.516 . S
C1665 C1664 1.516 . S
C1665 C1666 1.502 . S
C1665 C1667 1.561 . S
C1665 C1668 1.526 . S
C1666 H1650 0.959 . S
C1666 H1651 0.959 . S
C1666 H1652 0.961 . S
C1666 C1665 1.502 . S
C1667 H1653 0.960 . S
C1667 H1654 0.961 . S
C1667 H1655 0.959 . S
C1667 C1665 1.561 . S
C1668 C1665 1.526 . S
C1668 C1669 1.396 . S
C1668 C1673 1.390 . S
C1669 C1663 1.465 . S
C1669 C1668 1.396 . S
C1669 C1670 1.399 . S
C1670 H1656 0.929 . S
C1670 C1669 1.399 . S
C1670 C1671 1.385 . S
C1671 H1657 0.931 . S
C1671 C1670 1.385 . S
C1671 C1672 1.389 . S
C1672 C1671 1.389 . S
C1672 C1673 1.387 . S
C1673 H1658 0.930 . S
C1673 C1668 1.390 . S
C1673 C1672 1.387 . S
H1674 C1686 0.930 . S
H1675 C1688 0.930 . S
H1676 C1689 0.930 . S
H1677 C1693 0.959 . S
H1678 C1693 0.959 . S
H1679 C1693 0.961 . S
H1680 C1694 0.960 . S
H1681 C1694 0.961 . S
H1682 C1694 0.959 . S
H1683 C1697 0.929 . S
H1684 C1698 0.931 . S
H1685 C1700 0.930 . S
C1686 H1674 0.930 . S
C1686 C1687 1.399 . S
C1686 C1691 1.399 . S
C1687 C1686 1.399 . S
C1687 C1688 1.376 . S
C1688 H1675 0.930 . S
C1688 C1687 1.376 . S
C1688 C1689 1.388 . S
C1689 H1676 0.930 . S
C1689 C1688 1.388 . S
C1689 C1690 1.390 . S
C1690 C1689 1.390 . S
C1690 C1691 1.394 . S
C1690 C1696 1.465 . S
C1691 C1686 1.399 . S
C1691 C1690 1.394 . S
C1691 C1692 1.516 . S
C1692 C1691 1.516 . S
C1692 C1693 1.502 . S
C1692 C1694 1.561 . S
C1692 C1695 1.526 . S
C1693 H1677 0.959 . S
C1693 H1678 0.959 . S
C1693 H1679 0.961 . S
C1693 C1692 1.502 . S
C1694 H1680 0.960 . S
C1694 H1681 0.961 . S
C1694 H1682 0.959 . S
C1694 C1692 1.561 . S
C1695 C1692 1.526 . S
C1695 C1696 1.396 . S
C1695 C1700 1.390 . S
C1696 C1690 1.465 . S
C1696 C1695 1.396 . S
C1696 C1697 1.399 . S
C1697 H1683 0.929 . S
C1697 C1696 1.399 . S
C1697 C1698 1.385 . S
C1698 H1684 0.931 . S
C1698 C1697 1.385 . S
C1698 C1699 1.389 . S
C1699 C1698 1.389 . S
C1699 C1700 1.387 . S
C1700 H1685 0.930 . S
C1700 C1695 1.390 . S
C1700 C1699 1.387 . S
H1701 C1713 0.930 . S
H1702 C1715 0.930 . S
H1703 C1716 0.930 . S
H1704 C1720 0.959 . S
H1705 C1720 0.959 . S
H1706 C1720 0.961 . S
H1707 C1721 0.960 . S
H1708 C1721 0.961 . S
H1709 C1721 0.959 . S
H1710 C1724 0.929 . S
H1711 C1725 0.931 . S
H1712 C1727 0.930 . S
C1713 H1701 0.930 . S
C1713 C1714 1.399 . S
C1713 C1718 1.399 . S
C1714 C1713 1.399 . S
C1714 C1715 1.376 . S
C1715 H1702 0.930 . S
C1715 C1714 1.376 . S
C1715 C1716 1.388 . S
C1716 H1703 0.930 . S
C1716 C1715 1.388 . S
C1716 C1717 1.390 . S
C1717 C1716 1.390 . S
C1717 C1718 1.394 . S
C1717 C1723 1.465 . S
C1718 C1713 1.399 . S
C1718 C1717 1.394 . S
C1718 C1719 1.516 . S
C1719 C1718 1.516 . S
C1719 C1720 1.502 . S
C1719 C1721 1.561 . S
C1719 C1722 1.526 . S
C1720 H1704 0.959 . S
C1720 H1705 0.959 . S
C1720 H1706 0.961 . S
C1720 C1719 1.502 . S
C1721 H1707 0.960 . S
C1721 H1708 0.961 . S
C1721 H1709 0.959 . S
C1721 C1719 1.561 . S
C1722 C1719 1.526 . S
C1722 C1723 1.396 . S
C1722 C1727 1.390 . S
C1723 C1717 1.465 . S
C1723 C1722 1.396 . S
C1723 C1724 1.399 . S
C1724 H1710 0.929 . S
C1724 C1723 1.399 . S
C1724 C1725 1.385 . S
C1725 H1711 0.931 . S
C1725 C1724 1.385 . S
C1725 C1726 1.389 . S
C1726 C1725 1.389 . S
C1726 C1727 1.387 . S
C1727 H1712 0.930 . S
C1727 C1722 1.390 . S
C1727 C1726 1.387 . S
H1728 C1740 0.930 . S
H1729 C1742 0.930 . S
H1730 C1743 0.930 . S
H1731 C1747 0.959 . S
H1732 C1747 0.959 . S
H1733 C1747 0.961 . S
H1734 C1748 0.960 . S
H1735 C1748 0.961 . S
H1736 C1748 0.959 . S
H1737 C1751 0.929 . S
H1738 C1752 0.931 . S
H1739 C1754 0.930 . S
C1740 H1728 0.930 . S
C1740 C1741 1.399 . S
C1740 C1745 1.399 . S
C1741 C1740 1.399 . S
C1741 C1742 1.376 . S
C1742 H1729 0.930 . S
C1742 C1741 1.376 . S
C1742 C1743 1.388 . S
C1743 H1730 0.930 . S
C1743 C1742 1.388 . S
C1743 C1744 1.390 . S
C1744 C1743 1.390 . S
C1744 C1745 1.394 . S
C1744 C1750 1.465 . S
C1745 C1740 1.399 . S
C1745 C1744 1.394 . S
C1745 C1746 1.516 . S
C1746 C1745 1.516 . S
C1746 C1747 1.502 . S
C1746 C1748 1.561 . S
C1746 C1749 1.526 . S
C1747 H1731 0.959 . S
C1747 H1732 0.959 . S
C1747 H1733 0.961 . S
C1747 C1746 1.502 . S
C1748 H1734 0.960 . S
C1748 H1735 0.961 . S
C1748 H1736 0.959 . S
C1748 C1746 1.561 . S
C1749 C1746 1.526 . S
C1749 C1750 1.396 . S
C1749 C1754 1.390 . S
C1750 C1744 1.465 . S
C1750 C1749 1.396 . S
C1750 C1751 1.399 . S
C1751 H1737 0.929 . S
C1751 C1750 1.399 . S
C1751 C1752 1.385 . S
C1752 H1738 0.931 . S
C1752 C1751 1.385 . S
C1752 C1753 1.389 . S
C1753 C1752 1.389 . S
C1753 C1754 1.387 . S
C1754 H1739 0.930 . S
C1754 C1749 1.390 . S
C1754 C1753 1.387 . S
H1755 C1767 0.930 . S
H1756 C1769 0.930 . S
H1757 C1770 0.930 . S
H1758 C1774 0.959 . S
H1759 C1774 0.959 . S
H1760 C1774 0.961 . S
H1761 C1775 0.960 . S
H1762 C1775 0.961 . S
H1763 C1775 0.959 . S
H1764 C1778 0.929 . S
H1765 C1779 0.931 . S
H1766 C1781 0.930 . S
C1767 H1755 0.930 . S
C1767 C1768 1.399 . S
C1767 C1772 1.399 . S
C1768 C1767 1.399 . S
C1768 C1769 1.376 . S
C1769 H1756 0.930 . S
C1769 C1768 1.376 . S
C1769 C1770 1.388 . S
C1770 H1757 0.930 . S
C1770 C1769 1.388 . S
C1770 C1771 1.390 . S
C1771 C1770 1.390 . S
C1771 C1772 1.394 . S
C1771 C1777 1.465 . S
C1772 C1767 1.399 . S
C1772 C1771 1.394 . S
C1772 C1773 1.516 . S
C1773 C1772 1.516 . S
C1773 C1774 1.502 . S
C1773 C1775 1.561 . S
C1773 C1776 1.526 . S
C1774 H1758 0.959 . S
C1774 H1759 0.959 . S
C1774 H1760 0.961 . S
C1774 C1773 1.502 . S
C1775 H1761 0.960 . S
C1775 H1762 0.961 . S
C1775 H1763 0.959 . S
C1775 C1773 1.561 . S
C1776 C1773 1.526 . S
C1776 C1777 1.396 . S
C1776 C1781 1.390 . S
C1777 C1771 1.465 . S
C1777 C1776 1.396 . S
C1777 C1778 1.399 . S
C1778 H1764 0.929 . S
C1778 C1777 1.399 . S
C1778 C1779 1.385 . S
C1779 H1765 0.931 . S
C1779 C1778 1.385 . S
C1779 C1780 1.389 . S
C1780 C1779 1.389 . S
C1780 C1781 1.387 . S
C1781 H1766 0.930 . S
C1781 C1776 1.390 . S
C1781 C1780 1.387 . S
H1782 C1794 0.930 . S
H1783 C1796 0.930 . S
H1784 C1797 0.930 . S
H1785 C1801 0.959 . S
H1786 C1801 0.959 . S
H1787 C1801 0.961 . S
H1788 C1802 0.960 . S
H1789 C1802 0.961 . S
H1790 C1802 0.959 . S
H1791 C1805 0.929 . S
H1792 C1806 0.931 . S
H1793 C1808 0.930 . S
C1794 H1782 0.930 . S
C1794 C1795 1.399 . S
C1794 C1799 1.399 . S
C1795 C1794 1.399 . S
C1795 C1796 1.376 . S
C1796 H1783 0.930 . S
C1796 C1795 1.376 . S
C1796 C1797 1.388 . S
C1797 H1784 0.930 . S
C1797 C1796 1.388 . S
C1797 C1798 1.390 . S
C1798 C1797 1.390 . S
C1798 C1799 1.394 . S
C1798 C1804 1.465 . S
C1799 C1794 1.399 . S
C1799 C1798 1.394 . S
C1799 C1800 1.516 . S
C1800 C1799 1.516 . S
C1800 C1801 1.502 . S
C1800 C1802 1.561 . S
C1800 C1803 1.526 . S
C1801 H1785 0.959 . S
C1801 H1786 0.959 . S
C1801 H1787 0.961 . S
C1801 C1800 1.502 . S
C1802 H1788 0.960 . S
C1802 H1789 0.961 . S
C1802 H1790 0.959 . S
C1802 C1800 1.561 . S
C1803 C1800 1.526 . S
C1803 C1804 1.396 . S
C1803 C1808 1.390 . S
C1804 C1798 1.465 . S
C1804 C1803 1.396 . S
C1804 C1805 1.399 . S
C1805 H1791 0.929 . S
C1805 C1804 1.399 . S
C1805 C1806 1.385 . S
C1806 H1792 0.931 . S
C1806 C1805 1.385 . S
C1806 C1807 1.389 . S
C1807 C1806 1.389 . S
C1807 C1808 1.387 . S
C1808 H1793 0.930 . S
C1808 C1803 1.390 . S
C1808 C1807 1.387 . S
H1809 C1821 0.930 . S
H1810 C1823 0.930 . S
H1811 C1824 0.930 . S
H1812 C1828 0.959 . S
H1813 C1828 0.959 . S
H1814 C1828 0.961 . S
H1815 C1829 0.960 . S
H1816 C1829 0.961 . S
H1817 C1829 0.959 . S
H1818 C1832 0.929 . S
H1819 C1833 0.931 . S
H1820 C1835 0.930 . S
C1821 H1809 0.930 . S
C1821 C1822 1.399 . S
C1821 C1826 1.399 . S
C1822 C1821 1.399 . S
C1822 C1823 1.376 . S
C1823 H1810 0.930 . S
C1823 C1822 1.376 . S
C1823 C1824 1.388 . S
C1824 H1811 0.930 . S
C1824 C1823 1.388 . S
C1824 C1825 1.390 . S
C1825 C1824 1.390 . S
C1825 C1826 1.394 . S
C1825 C1831 1.465 . S
C1826 C1821 1.399 . S
C1826 C1825 1.394 . S
C1826 C1827 1.516 . S
C1827 C1826 1.516 . S
C1827 C1828 1.502 . S
C1827 C1829 1.561 . S
C1827 C1830 1.526 . S
C1828 H1812 0.959 . S
C1828 H1813 0.959 . S
C1828 H1814 0.961 . S
C1828 C1827 1.502 . S
C1829 H1815 0.960 . S
C1829 H1816 0.961 . S
C1829 H1817 0.959 . S
C1829 C1827 1.561 . S
C1830 C1827 1.526 . S
C1830 C1831 1.396 . S
C1830 C1835 1.390 . S
C1831 C1825 1.465 . S
C1831 C1830 1.396 . S
C1831 C1832 1.399 . S
C1832 H1818 0.929 . S
C1832 C1831 1.399 . S
C1832 C1833 1.385 . S
C1833 H1819 0.931 . S
C1833 C1832 1.385 . S
C1833 C1834 1.389 . S
C1834 C1833 1.389 . S
C1834 C1835 1.387 . S
C1835 H1820 0.930 . S
C1835 C1830 1.390 . S
C1835 C1834 1.387 . S
H1836 C1848 0.930 . S
H1837 C1850 0.930 . S
H1838 C1851 0.930 . S
H1839 C1855 0.959 . S
H1840 C1855 0.959 . S
H1841 C1855 0.961 . S
H1842 C1856 0.960 . S
H1843 C1856 0.961 . S
H1844 C1856 0.959 . S
H1845 C1859 0.929 . S
H1846 C1860 0.931 . S
H1847 C1862 0.930 . S
C1848 H1836 0.930 . S
C1848 C1849 1.399 . S
C1848 C1853 1.399 . S
C1849 C1848 1.399 . S
C1849 C1850 1.376 . S
C1850 H1837 0.930 . S
C1850 C1849 1.376 . S
C1850 C1851 1.388 . S
C1851 H1838 0.930 . S
C1851 C1850 1.388 . S
C1851 C1852 1.390 . S
C1852 C1851 1.390 . S
C1852 C1853 1.394 . S
C1852 C1858 1.465 . S
C1853 C1848 1.399 . S
C1853 C1852 1.394 . S
C1853 C1854 1.516 . S
C1854 C1853 1.516 . S
C1854 C1855 1.502 . S
C1854 C1856 1.561 . S
C1854 C1857 1.526 . S
C1855 H1839 0.959 . S
C1855 H1840 0.959 . S
C1855 H1841 0.961 . S
C1855 C1854 1.502 . S
C1856 H1842 0.960 . S
C1856 H1843 0.961 . S
C1856 H1844 0.959 . S
C1856 C1854 1.561 . S
C1857 C1854 1.526 . S
C1857 C1858 1.396 . S
C1857 C1862 1.390 . S
C1858 C1852 1.465 . S
C1858 C1857 1.396 . S
C1858 C1859 1.399 . S
C1859 H1845 0.929 . S
C1859 C1858 1.399 . S
C1859 C1860 1.385 . S
C1860 H1846 0.931 . S
C1860 C1859 1.385 . S
C1860 C1861 1.389 . S
C1861 C1860 1.389 . S
C1861 C1862 1.387 . S
C1862 H1847 0.930 . S
C1862 C1857 1.390 . S
C1862 C1861 1.387 . S
H1863 C1875 0.930 . S
H1864 C1877 0.930 . S
H1865 C1878 0.930 . S
H1866 C1882 0.959 . S
H1867 C1882 0.959 . S
H1868 C1882 0.961 . S
H1869 C1883 0.960 . S
H1870 C1883 0.961 . S
H1871 C1883 0.959 . S
H1872 C1886 0.929 . S
H1873 C1887 0.931 . S
H1874 C1889 0.930 . S
C1875 H1863 0.930 . S
C1875 C1876 1.399 . S
C1875 C1880 1.399 . S
C1876 C1875 1.399 . S
C1876 C1877 1.376 . S
C1877 H1864 0.930 . S
C1877 C1876 1.376 . S
C1877 C1878 1.388 . S
C1878 H1865 0.930 . S
C1878 C1877 1.388 . S
C1878 C1879 1.390 . S
C1879 C1878 1.390 . S
C1879 C1880 1.394 . S
C1879 C1885 1.465 . S
C1880 C1875 1.399 . S
C1880 C1879 1.394 . S
C1880 C1881 1.516 . S
C1881 C1880 1.516 . S
C1881 C1882 1.502 . S
C1881 C1883 1.561 . S
C1881 C1884 1.526 . S
C1882 H1866 0.959 . S
C1882 H1867 0.959 . S
C1882 H1868 0.961 . S
C1882 C1881 1.502 . S
C1883 H1869 0.960 . S
C1883 H1870 0.961 . S
C1883 H1871 0.959 . S
C1883 C1881 1.561 . S
C1884 C1881 1.526 . S
C1884 C1885 1.396 . S
C1884 C1889 1.390 . S
C1885 C1879 1.465 . S
C1885 C1884 1.396 . S
C1885 C1886 1.399 . S
C1886 H1872 0.929 . S
C1886 C1885 1.399 . S
C1886 C1887 1.385 . S
C1887 H1873 0.931 . S
C1887 C1886 1.385 . S
C1887 C1888 1.389 . S
C1888 C1887 1.389 . S
C1888 C1889 1.387 . S
C1889 H1874 0.930 . S
C1889 C1884 1.390 . S
C1889 C1888 1.387 . S
H1890 C1902 0.930 . S
H1891 C1904 0.930 . S
H1892 C1905 0.930 . S
H1893 C1909 0.959 . S
H1894 C1909 0.959 . S
H1895 C1909 0.961 . S
H1896 C1910 0.960 . S
H1897 C1910 0.961 . S
H1898 C1910 0.959 . S
H1899 C1913 0.929 . S
H1900 C1914 0.931 . S
H1901 C1916 0.930 . S
C1902 H1890 0.930 . S
C1902 C1903 1.399 . S
C1902 C1907 1.399 . S
C1903 C1902 1.399 . S
C1903 C1904 1.376 . S
C1904 H1891 0.930 . S
C1904 C1903 1.376 . S
C1904 C1905 1.388 . S
C1905 H1892 0.930 . S
C1905 C1904 1.388 . S
C1905 C1906 1.390 . S
C1906 C1905 1.390 . S
C1906 C1907 1.394 . S
C1906 C1912 1.465 . S
C1907 C1902 1.399 . S
C1907 C1906 1.394 . S
C1907 C1908 1.516 . S
C1908 C1907 1.516 . S
C1908 C1909 1.502 . S
C1908 C1910 1.561 . S
C1908 C1911 1.526 . S
C1909 H1893 0.959 . S
C1909 H1894 0.959 . S
C1909 H1895 0.961 . S
C1909 C1908 1.502 . S
C1910 H1896 0.960 . S
C1910 H1897 0.961 . S
C1910 H1898 0.959 . S
C1910 C1908 1.561 . S
C1911 C1908 1.526 . S
C1911 C1912 1.396 . S
C1911 C1916 1.390 . S
C1912 C1906 1.465 . S
C1912 C1911 1.396 . S
C1912 C1913 1.399 . S
C1913 H1899 0.929 . S
C1913 C1912 1.399 . S
C1913 C1914 1.385 . S
C1914 H1900 0.931 . S
C1914 C1913 1.385 . S
C1914 C1915 1.389 . S
C1915 C1914 1.389 . S
C1915 C1916 1.387 . S
C1916 H1901 0.930 . S
C1916 C1911 1.390 . S
C1916 C1915 1.387 . S
H1917 C1929 0.930 . S
H1918 C1931 0.930 . S
H1919 C1932 0.930 . S
H1920 C1936 0.959 . S
H1921 C1936 0.959 . S
H1922 C1936 0.961 . S
H1923 C1937 0.960 . S
H1924 C1937 0.961 . S
H1925 C1937 0.959 . S
H1926 C1940 0.929 . S
H1927 C1941 0.931 . S
H1928 C1943 0.930 . S
C1929 H1917 0.930 . S
C1929 C1930 1.399 . S
C1929 C1934 1.399 . S
C1930 C1929 1.399 . S
C1930 C1931 1.376 . S
C1931 H1918 0.930 . S
C1931 C1930 1.376 . S
C1931 C1932 1.388 . S
C1932 H1919 0.930 . S
C1932 C1931 1.388 . S
C1932 C1933 1.390 . S
C1933 C1932 1.390 . S
C1933 C1934 1.394 . S
C1933 C1939 1.465 . S
C1934 C1929 1.399 . S
C1934 C1933 1.394 . S
C1934 C1935 1.516 . S
C1935 C1934 1.516 . S
C1935 C1936 1.502 . S
C1935 C1937 1.561 . S
C1935 C1938 1.526 . S
C1936 H1920 0.959 . S
C1936 H1921 0.959 . S
C1936 H1922 0.961 . S
C1936 C1935 1.502 . S
C1937 H1923 0.960 . S
C1937 H1924 0.961 . S
C1937 H1925 0.959 . S
C1937 C1935 1.561 . S
C1938 C1935 1.526 . S
C1938 C1939 1.396 . S
C1938 C1943 1.390 . S
C1939 C1933 1.465 . S
C1939 C1938 1.396 . S
C1939 C1940 1.399 . S
C1940 H1926 0.929 . S
C1940 C1939 1.399 . S
C1940 C1941 1.385 . S
C1941 H1927 0.931 . S
C1941 C1940 1.385 . S
C1941 C1942 1.389 . S
C1942 C1941 1.389 . S
C1942 C1943 1.387 . S
C1943 H1928 0.930 . S
C1943 C1938 1.390 . S
C1943 C1942 1.387 . S
H1944 C1956 0.930 . S
H1945 C1958 0.930 . S
H1946 C1959 0.930 . S
H1947 C1963 0.959 . S
H1948 C1963 0.959 . S
H1949 C1963 0.961 . S
H1950 C1964 0.960 . S
H1951 C1964 0.961 . S
H1952 C1964 0.959 . S
H1953 C1967 0.929 . S
H1954 C1968 0.931 . S
H1955 C1970 0.930 . S
C1956 H1944 0.930 . S
C1956 C1957 1.399 . S
C1956 C1961 1.399 . S
C1957 C1956 1.399 . S
C1957 C1958 1.376 . S
C1958 H1945 0.930 . S
C1958 C1957 1.376 . S
C1958 C1959 1.388 . S
C1959 H1946 0.930 . S
C1959 C1958 1.388 . S
C1959 C1960 1.390 . S
C1960 C1959 1.390 . S
C1960 C1961 1.394 . S
C1960 C1966 1.465 . S
C1961 C1956 1.399 . S
C1961 C1960 1.394 . S
C1961 C1962 1.516 . S
C1962 C1961 1.516 . S
C1962 C1963 1.502 . S
C1962 C1964 1.561 . S
C1962 C1965 1.526 . S
C1963 H1947 0.959 . S
C1963 H1948 0.959 . S
C1963 H1949 0.961 . S
C1963 C1962 1.502 . S
C1964 H1950 0.960 . S
C1964 H1951 0.961 . S
C1964 H1952 0.959 . S
C1964 C1962 1.561 . S
C1965 C1962 1.526 . S
C1965 C1966 1.396 . S
C1965 C1970 1.390 . S
C1966 C1960 1.465 . S
C1966 C1965 1.396 . S
C1966 C1967 1.399 . S
C1967 H1953 0.929 . S
C1967 C1966 1.399 . S
C1967 C1968 1.385 . S
C1968 H1954 0.931 . S
C1968 C1967 1.385 . S
C1968 C1969 1.389 . S
C1969 C1968 1.389 . S
C1969 C1970 1.387 . S
C1970 H1955 0.930 . S
C1970 C1965 1.390 . S
C1970 C1969 1.387 . S
H1971 C1983 0.930 . S
H1972 C1985 0.930 . S
H1973 C1986 0.930 . S
H1974 C1990 0.959 . S
H1975 C1990 0.959 . S
H1976 C1990 0.961 . S
H1977 C1991 0.960 . S
H1978 C1991 0.961 . S
H1979 C1991 0.959 . S
H1980 C1994 0.929 . S
H1981 C1995 0.931 . S
H1982 C1997 0.930 . S
C1983 H1971 0.930 . S
C1983 C1984 1.399 . S
C1983 C1988 1.399 . S
C1984 C1983 1.399 . S
C1984 C1985 1.376 . S
C1985 H1972 0.930 . S
C1985 C1984 1.376 . S
C1985 C1986 1.388 . S
C1986 H1973 0.930 . S
C1986 C1985 1.388 . S
C1986 C1987 1.390 . S
C1987 C1986 1.390 . S
C1987 C1988 1.394 . S
C1987 C1993 1.465 . S
C1988 C1983 1.399 . S
C1988 C1987 1.394 . S
C1988 C1989 1.516 . S
C1989 C1988 1.516 . S
C1989 C1990 1.502 . S
C1989 C1991 1.561 . S
C1989 C1992 1.526 . S
C1990 H1974 0.959 . S
C1990 H1975 0.959 . S
C1990 H1976 0.961 . S
C1990 C1989 1.502 . S
C1991 H1977 0.960 . S
C1991 H1978 0.961 . S
C1991 H1979 0.959 . S
C1991 C1989 1.561 . S
C1992 C1989 1.526 . S
C1992 C1993 1.396 . S
C1992 C1997 1.390 . S
C1993 C1987 1.465 . S
C1993 C1992 1.396 . S
C1993 C1994 1.399 . S
C1994 H1980 0.929 . S
C1994 C1993 1.399 . S
C1994 C1995 1.385 . S
C1995 H1981 0.931 . S
C1995 C1994 1.385 . S
C1995 C1996 1.389 . S
C1996 C1995 1.389 . S
C1996 C1997 1.387 . S
C1997 H1982 0.930 . S
C1997 C1992 1.390 . S
C1997 C1996 1.387 . S
H1998 C2010 0.930 . S
H1999 C2012 0.930 . S
H2000 C2013 0.930 . S
H2001 C2017 0.959 . S
H2002 C2017 0.959 . S
H2003 C2017 0.961 . S
H2004 C2018 0.960 . S
H2005 C2018 0.961 . S
H2006 C2018 0.959 . S
H2007 C2021 0.929 . S
H2008 C2022 0.931 . S
H2009 C2024 0.930 . S
C2010 H1998 0.930 . S
C2010 C2011 1.399 . S
C2010 C2015 1.399 . S
C2011 C2010 1.399 . S
C2011 C2012 1.376 . S
C2012 H1999 0.930 . S
C2012 C2011 1.376 . S
C2012 C2013 1.388 . S
C2013 H2000 0.930 . S
C2013 C2012 1.388 . S
C2013 C2014 1.390 . S
C2014 C2013 1.390 . S
C2014 C2015 1.394 . S
C2014 C2020 1.465 . S
C2015 C2010 1.399 . S
C2015 C2014 1.394 . S
C2015 C2016 1.516 . S
C2016 C2015 1.516 . S
C2016 C2017 1.502 . S
C2016 C2018 1.561 . S
C2016 C2019 1.526 . S
C2017 H2001 0.959 . S
C2017 H2002 0.959 . S
C2017 H2003 0.961 . S
C2017 C2016 1.502 . S
C2018 H2004 0.960 . S
C2018 H2005 0.961 . S
C2018 H2006 0.959 . S
C2018 C2016 1.561 . S
C2019 C2016 1.526 . S
C2019 C2020 1.396 . S
C2019 C2024 1.390 . S
C2020 C2014 1.465 . S
C2020 C2019 1.396 . S
C2020 C2021 1.399 . S
C2021 H2007 0.929 . S
C2021 C2020 1.399 . S
C2021 C2022 1.385 . S
C2022 H2008 0.931 . S
C2022 C2021 1.385 . S
C2022 C2023 1.389 . S
C2023 C2022 1.389 . S
C2023 C2024 1.387 . S
C2024 H2009 0.930 . S
C2024 C2019 1.390 . S
C2024 C2023 1.387 . S
H2025 C2037 0.930 . S
H2026 C2039 0.930 . S
H2027 C2040 0.930 . S
H2028 C2044 0.959 . S
H2029 C2044 0.959 . S
H2030 C2044 0.961 . S
H2031 C2045 0.960 . S
H2032 C2045 0.961 . S
H2033 C2045 0.959 . S
H2034 C2048 0.929 . S
H2035 C2049 0.931 . S
H2036 C2051 0.930 . S
C2037 H2025 0.930 . S
C2037 C2038 1.399 . S
C2037 C2042 1.399 . S
C2038 C2037 1.399 . S
C2038 C2039 1.376 . S
C2039 H2026 0.930 . S
C2039 C2038 1.376 . S
C2039 C2040 1.388 . S
C2040 H2027 0.930 . S
C2040 C2039 1.388 . S
C2040 C2041 1.390 . S
C2041 C2040 1.390 . S
C2041 C2042 1.394 . S
C2041 C2047 1.465 . S
C2042 C2037 1.399 . S
C2042 C2041 1.394 . S
C2042 C2043 1.516 . S
C2043 C2042 1.516 . S
C2043 C2044 1.502 . S
C2043 C2045 1.561 . S
C2043 C2046 1.526 . S
C2044 H2028 0.959 . S
C2044 H2029 0.959 . S
C2044 H2030 0.961 . S
C2044 C2043 1.502 . S
C2045 H2031 0.960 . S
C2045 H2032 0.961 . S
C2045 H2033 0.959 . S
C2045 C2043 1.561 . S
C2046 C2043 1.526 . S
C2046 C2047 1.396 . S
C2046 C2051 1.390 . S
C2047 C2041 1.465 . S
C2047 C2046 1.396 . S
C2047 C2048 1.399 . S
C2048 H2034 0.929 . S
C2048 C2047 1.399 . S
C2048 C2049 1.385 . S
C2049 H2035 0.931 . S
C2049 C2048 1.385 . S
C2049 C2050 1.389 . S
C2050 C2049 1.389 . S
C2050 C2051 1.387 . S
C2051 H2036 0.930 . S
C2051 C2046 1.390 . S
C2051 C2050 1.387 . S
H2052 C2064 0.930 . S
H2053 C2066 0.930 . S
H2054 C2067 0.930 . S
H2055 C2071 0.959 . S
H2056 C2071 0.959 . S
H2057 C2071 0.961 . S
H2058 C2072 0.960 . S
H2059 C2072 0.961 . S
H2060 C2072 0.959 . S
H2061 C2075 0.929 . S
H2062 C2076 0.931 . S
H2063 C2078 0.930 . S
C2064 H2052 0.930 . S
C2064 C2065 1.399 . S
C2064 C2069 1.399 . S
C2065 C2064 1.399 . S
C2065 C2066 1.376 . S
C2066 H2053 0.930 . S
C2066 C2065 1.376 . S
C2066 C2067 1.388 . S
C2067 H2054 0.930 . S
C2067 C2066 1.388 . S
C2067 C2068 1.390 . S
C2068 C2067 1.390 . S
C2068 C2069 1.394 . S
C2068 C2074 1.465 . S
C2069 C2064 1.399 . S
C2069 C2068 1.394 . S
C2069 C2070 1.516 . S
C2070 C2069 1.516 . S
C2070 C2071 1.502 . S
C2070 C2072 1.561 . S
C2070 C2073 1.526 . S
C2071 H2055 0.959 . S
C2071 H2056 0.959 . S
C2071 H2057 0.961 . S
C2071 C2070 1.502 . S
C2072 H2058 0.960 . S
C2072 H2059 0.961 . S
C2072 H2060 0.959 . S
C2072 C2070 1.561 . S
C2073 C2070 1.526 . S
C2073 C2074 1.396 . S
C2073 C2078 1.390 . S
C2074 C2068 1.465 . S
C2074 C2073 1.396 . S
C2074 C2075 1.399 . S
C2075 H2061 0.929 . S
C2075 C2074 1.399 . S
C2075 C2076 1.385 . S
C2076 H2062 0.931 . S
C2076 C2075 1.385 . S
C2076 C2077 1.389 . S
C2077 C2076 1.389 . S
C2077 C2078 1.387 . S
C2078 H2063 0.930 . S
C2078 C2073 1.390 . S
C2078 C2077 1.387 . S
H2079 C2091 0.930 . S
H2080 C2093 0.930 . S
H2081 C2094 0.930 . S
H2082 C2098 0.959 . S
H2083 C2098 0.959 . S
H2084 C2098 0.961 . S
H2085 C2099 0.960 . S
H2086 C2099 0.961 . S
H2087 C2099 0.959 . S
H2088 C2102 0.929 . S
H2089 C2103 0.931 . S
H2090 C2105 0.930 . S
C2091 H2079 0.930 . S
C2091 C2092 1.399 . S
C2091 C2096 1.399 . S
C2092 C2091 1.399 . S
C2092 C2093 1.376 . S
C2093 H2080 0.930 . S
C2093 C2092 1.376 . S
C2093 C2094 1.388 . S
C2094 H2081 0.930 . S
C2094 C2093 1.388 . S
C2094 C2095 1.390 . S
C2095 C2094 1.390 . S
C2095 C2096 1.394 . S
C2095 C2101 1.465 . S
C2096 C2091 1.399 . S
C2096 C2095 1.394 . S
C2096 C2097 1.516 . S
C2097 C2096 1.516 . S
C2097 C2098 1.502 . S
C2097 C2099 1.561 . S
C2097 C2100 1.526 . S
C2098 H2082 0.959 . S
C2098 H2083 0.959 . S
C2098 H2084 0.961 . S
C2098 C2097 1.502 . S
C2099 H2085 0.960 . S
C2099 H2086 0.961 . S
C2099 H2087 0.959 . S
C2099 C2097 1.561 . S
C2100 C2097 1.526 . S
C2100 C2101 1.396 . S
C2100 C2105 1.390 . S
C2101 C2095 1.465 . S
C2101 C2100 1.396 . S
C2101 C2102 1.399 . S
C2102 H2088 0.929 . S
C2102 C2101 1.399 . S
C2102 C2103 1.385 . S
C2103 H2089 0.931 . S
C2103 C2102 1.385 . S
C2103 C2104 1.389 . S
C2104 C2103 1.389 . S
C2104 C2105 1.387 . S
C2105 H2090 0.930 . S
C2105 C2100 1.390 . S
C2105 C2104 1.387 . S
H2106 C2118 0.930 . S
H2107 C2120 0.930 . S
H2108 C2121 0.930 . S
H2109 C2125 0.959 . S
H2110 C2125 0.959 . S
H2111 C2125 0.961 . S
H2112 C2126 0.960 . S
H2113 C2126 0.961 . S
H2114 C2126 0.959 . S
H2115 C2129 0.929 . S
H2116 C2130 0.931 . S
H2117 C2132 0.930 . S
C2118 H2106 0.930 . S
C2118 C2119 1.399 . S
C2118 C2123 1.399 . S
C2119 C2118 1.399 . S
C2119 C2120 1.376 . S
C2120 H2107 0.930 . S
C2120 C2119 1.376 . S
C2120 C2121 1.388 . S
C2121 H2108 0.930 . S
C2121 C2120 1.388 . S
C2121 C2122 1.390 . S
C2122 C2121 1.390 . S
C2122 C2123 1.394 . S
C2122 C2128 1.465 . S
C2123 C2118 1.399 . S
C2123 C2122 1.394 . S
C2123 C2124 1.516 . S
C2124 C2123 1.516 . S
C2124 C2125 1.502 . S
C2124 C2126 1.561 . S
C2124 C2127 1.526 . S
C2125 H2109 0.959 . S
C2125 H2110 0.959 . S
C2125 H2111 0.961 . S
C2125 C2124 1.502 . S
C2126 H2112 0.960 . S
C2126 H2113 0.961 . S
C2126 H2114 0.959 . S
C2126 C2124 1.561 . S
C2127 C2124 1.526 . S
C2127 C2128 1.396 . S
C2127 C2132 1.390 . S
C2128 C2122 1.465 . S
C2128 C2127 1.396 . S
C2128 C2129 1.399 . S
C2129 H2115 0.929 . S
C2129 C2128 1.399 . S
C2129 C2130 1.385 . S
C2130 H2116 0.931 . S
C2130 C2129 1.385 . S
C2130 C2131 1.389 . S
C2131 C2130 1.389 . S
C2131 C2132 1.387 . S
C2132 H2117 0.930 . S
C2132 C2127 1.390 . S
C2132 C2131 1.387 . S
H2133 C2145 0.930 . S
H2134 C2147 0.930 1_554 S
H2135 C2148 0.930 . S
H2136 C2152 0.959 . S
H2137 C2152 0.959 . S
H2138 C2152 0.961 . S
H2139 C2153 0.960 . S
H2140 C2153 0.961 . S
H2141 C2153 0.959 . S
H2142 C2156 0.929 . S
H2143 C2157 0.931 . S
H2144 C2159 0.930 . S
C2145 H2133 0.930 . S
C2145 C2146 1.399 . S
C2145 C2150 1.399 . S
C2146 C2145 1.399 . S
C2146 C2147 1.376 . S
C2147 H2134 0.930 1_556 S
C2147 C2146 1.376 . S
C2147 C2148 1.388 . S
C2148 H2135 0.930 . S
C2148 C2147 1.388 . S
C2148 C2149 1.390 . S
C2149 C2148 1.390 . S
C2149 C2150 1.394 . S
C2149 C2155 1.465 . S
C2150 C2145 1.399 . S
C2150 C2149 1.394 . S
C2150 C2151 1.516 . S
C2151 C2150 1.516 . S
C2151 C2152 1.502 . S
C2151 C2153 1.561 . S
C2151 C2154 1.526 . S
C2152 H2136 0.959 . S
C2152 H2137 0.959 . S
C2152 H2138 0.961 . S
C2152 C2151 1.502 . S
C2153 H2139 0.960 . S
C2153 H2140 0.961 . S
C2153 H2141 0.959 . S
C2153 C2151 1.561 . S
C2154 C2151 1.526 . S
C2154 C2155 1.396 . S
C2154 C2159 1.390 . S
C2155 C2149 1.465 . S
C2155 C2154 1.396 . S
C2155 C2156 1.399 . S
C2156 H2142 0.929 . S
C2156 C2155 1.399 . S
C2156 C2157 1.385 . S
C2157 H2143 0.931 . S
C2157 C2156 1.385 . S
C2157 C2158 1.389 . S
C2158 C2157 1.389 . S
C2158 C2159 1.387 . S
C2159 H2144 0.930 . S
C2159 C2154 1.390 . S
C2159 C2158 1.387 . S
H2160 C2172 0.889 1_554 S
H2161 C2174 0.930 . S
H2162 C2175 0.930 . S
H2163 C2179 0.959 . S
H2164 C2179 0.959 . S
H2165 C2179 0.929 1_554 S
H2166 C2180 0.960 1_554 S
H2167 C2180 0.961 . S
H2168 C2180 0.959 . S
H2169 C2183 0.929 . S
H2170 C2184 0.931 . S
H2171 C2186 0.930 . S
C2172 H2160 0.889 1_556 S
C2172 C2173 1.399 . S
C2172 C2177 1.399 . S
C2173 C2172 1.399 . S
C2173 C2174 1.376 . S
C2174 H2161 0.930 . S
C2174 C2173 1.376 . S
C2174 C2175 1.388 . S
C2175 H2162 0.930 . S
C2175 C2174 1.388 . S
C2175 C2176 1.390 . S
C2176 C2175 1.390 . S
C2176 C2177 1.394 . S
C2176 C2182 1.465 . S
C2177 C2172 1.399 . S
C2177 C2176 1.394 . S
C2177 C2178 1.516 . S
C2178 C2177 1.516 . S
C2178 C2179 1.502 . S
C2178 C2180 1.561 . S
C2178 C2181 1.526 . S
C2179 H2163 0.959 . S
C2179 H2164 0.959 . S
C2179 H2165 0.929 1_556 S
C2179 C2178 1.502 . S
C2180 H2166 0.960 1_556 S
C2180 H2167 0.961 . S
C2180 H2168 0.959 . S
C2180 C2178 1.561 . S
C2181 C2178 1.526 . S
C2181 C2182 1.396 . S
C2181 C2186 1.390 . S
C2182 C2176 1.465 . S
C2182 C2181 1.396 . S
C2182 C2183 1.399 . S
C2183 H2169 0.929 . S
C2183 C2182 1.399 . S
C2183 C2184 1.385 . S
C2184 H2170 0.931 . S
C2184 C2183 1.385 . S
C2184 C2185 1.389 . S
C2185 C2184 1.389 . S
C2185 C2186 1.387 . S
C2186 H2171 0.930 . S
C2186 C2181 1.390 . S
C2186 C2185 1.387 . S
H2187 C2199 0.930 . S
H2188 C2201 0.930 . S
H2189 C2202 0.930 . S
H2190 C2206 0.959 . S
H2191 C2206 0.959 . S
H2192 C2206 0.961 . S
H2193 C2207 0.960 . S
H2194 C2207 0.961 . S
H2195 C2207 0.959 . S
H2196 C2210 0.929 . S
H2197 C2211 0.931 . S
H2198 C2213 0.930 . S
C2199 H2187 0.930 . S
C2199 C2200 1.399 . S
C2199 C2204 1.399 . S
C2200 C2199 1.399 . S
C2200 C2201 1.376 . S
C2201 H2188 0.930 . S
C2201 C2200 1.376 . S
C2201 C2202 1.388 . S
C2202 H2189 0.930 . S
C2202 C2201 1.388 . S
C2202 C2203 1.390 . S
C2203 C2202 1.390 . S
C2203 C2204 1.394 . S
C2203 C2209 1.465 . S
C2204 C2199 1.399 . S
C2204 C2203 1.394 . S
C2204 C2205 1.516 . S
C2205 C2204 1.516 . S
C2205 C2206 1.502 . S
C2205 C2207 1.561 . S
C2205 C2208 1.526 . S
C2206 H2190 0.959 . S
C2206 H2191 0.959 . S
C2206 H2192 0.961 . S
C2206 C2205 1.502 . S
C2207 H2193 0.960 . S
C2207 H2194 0.961 . S
C2207 H2195 0.959 . S
C2207 C2205 1.561 . S
C2208 C2205 1.526 . S
C2208 C2209 1.396 . S
C2208 C2213 1.390 . S
C2209 C2203 1.465 . S
C2209 C2208 1.396 . S
C2209 C2210 1.399 . S
C2210 H2196 0.929 . S
C2210 C2209 1.399 . S
C2210 C2211 1.385 . S
C2211 H2197 0.931 . S
C2211 C2210 1.385 . S
C2211 C2212 1.389 . S
C2212 C2211 1.389 . S
C2212 C2213 1.387 . S
C2213 H2198 0.930 . S
C2213 C2208 1.390 . S
C2213 C2212 1.387 . S
H2214 C2226 0.930 . S
H2215 C2228 0.930 1_554 S
H2216 C2229 0.930 . S
H2217 C2233 0.959 . S
H2218 C2233 0.959 . S
H2219 C2233 0.961 . S
H2220 C2234 0.960 . S
H2221 C2234 0.961 . S
H2222 C2234 0.959 . S
H2223 C2237 0.929 . S
H2224 C2238 0.931 . S
H2225 C2240 0.930 . S
C2226 H2214 0.930 . S
C2226 C2227 1.399 . S
C2226 C2231 1.399 . S
C2227 C2226 1.399 . S
C2227 C2228 1.376 . S
C2228 H2215 0.930 1_556 S
C2228 C2227 1.376 . S
C2228 C2229 1.388 . S
C2229 H2216 0.930 . S
C2229 C2228 1.388 . S
C2229 C2230 1.390 . S
C2230 C2229 1.390 . S
C2230 C2231 1.394 . S
C2230 C2236 1.465 . S
C2231 C2226 1.399 . S
C2231 C2230 1.394 . S
C2231 C2232 1.516 . S
C2232 C2231 1.516 . S
C2232 C2233 1.502 . S
C2232 C2234 1.561 . S
C2232 C2235 1.526 . S
C2233 H2217 0.959 . S
C2233 H2218 0.959 . S
C2233 H2219 0.961 . S
C2233 C2232 1.502 . S
C2234 H2220 0.960 . S
C2234 H2221 0.961 . S
C2234 H2222 0.959 . S
C2234 C2232 1.561 . S
C2235 C2232 1.526 . S
C2235 C2236 1.396 . S
C2235 C2240 1.390 . S
C2236 C2230 1.465 . S
C2236 C2235 1.396 . S
C2236 C2237 1.399 . S
C2237 H2223 0.929 . S
C2237 C2236 1.399 . S
C2237 C2238 1.385 . S
C2238 H2224 0.931 . S
C2238 C2237 1.385 . S
C2238 C2239 1.389 . S
C2239 C2238 1.389 . S
C2239 C2240 1.387 . S
C2240 H2225 0.930 . S
C2240 C2235 1.390 . S
C2240 C2239 1.387 . S
H2241 C2253 0.930 . S
H2242 C2255 0.930 1_554 S
H2243 C2256 0.930 . S
H2244 C2260 0.959 . S
H2245 C2260 0.959 . S
H2246 C2260 0.961 . S
H2247 C2261 0.960 . S
H2248 C2261 0.961 . S
H2249 C2261 0.959 . S
H2250 C2264 0.929 . S
H2251 C2265 0.931 . S
H2252 C2267 0.930 . S
C2253 H2241 0.930 . S
C2253 C2254 1.399 . S
C2253 C2258 1.399 . S
C2254 C2253 1.399 . S
C2254 C2255 1.376 . S
C2255 H2242 0.930 1_556 S
C2255 C2254 1.376 . S
C2255 C2256 1.388 . S
C2256 H2243 0.930 . S
C2256 C2255 1.388 . S
C2256 C2257 1.390 . S
C2257 C2256 1.390 . S
C2257 C2258 1.394 . S
C2257 C2263 1.465 . S
C2258 C2253 1.399 . S
C2258 C2257 1.394 . S
C2258 C2259 1.516 . S
C2259 C2258 1.516 . S
C2259 C2260 1.502 . S
C2259 C2261 1.561 . S
C2259 C2262 1.526 . S
C2260 H2244 0.959 . S
C2260 H2245 0.959 . S
C2260 H2246 0.961 . S
C2260 C2259 1.502 . S
C2261 H2247 0.960 . S
C2261 H2248 0.961 . S
C2261 H2249 0.959 . S
C2261 C2259 1.561 . S
C2262 C2259 1.526 . S
C2262 C2263 1.396 . S
C2262 C2267 1.390 . S
C2263 C2257 1.465 . S
C2263 C2262 1.396 . S
C2263 C2264 1.399 . S
C2264 H2250 0.929 . S
C2264 C2263 1.399 . S
C2264 C2265 1.385 . S
C2265 H2251 0.931 . S
C2265 C2264 1.385 . S
C2265 C2266 1.389 . S
C2266 C2265 1.389 . S
C2266 C2267 1.387 . S
C2267 H2252 0.930 . S
C2267 C2262 1.390 . S
C2267 C2266 1.387 . S
H2268 C2280 0.930 . S
H2269 C2282 0.930 . S
H2270 C2283 0.930 . S
H2271 C2287 0.959 . S
H2272 C2287 0.959 . S
H2273 C2287 0.961 . S
H2274 C2288 0.960 . S
H2275 C2288 0.961 . S
H2276 C2288 0.959 . S
H2277 C2291 0.929 . S
H2278 C2292 0.931 . S
H2279 C2294 0.930 . S
C2280 H2268 0.930 . S
C2280 C2281 1.399 . S
C2280 C2285 1.399 . S
C2281 C2280 1.399 . S
C2281 C2282 1.376 . S
C2282 H2269 0.930 . S
C2282 C2281 1.376 . S
C2282 C2283 1.388 . S
C2283 H2270 0.930 . S
C2283 C2282 1.388 . S
C2283 C2284 1.390 . S
C2284 C2283 1.390 . S
C2284 C2285 1.394 . S
C2284 C2290 1.465 . S
C2285 C2280 1.399 . S
C2285 C2284 1.394 . S
C2285 C2286 1.516 . S
C2286 C2285 1.516 . S
C2286 C2287 1.502 . S
C2286 C2288 1.561 . S
C2286 C2289 1.526 . S
C2287 H2271 0.959 . S
C2287 H2272 0.959 . S
C2287 H2273 0.961 . S
C2287 C2286 1.502 . S
C2288 H2274 0.960 . S
C2288 H2275 0.961 . S
C2288 H2276 0.959 . S
C2288 C2286 1.561 . S
C2289 C2286 1.526 . S
C2289 C2290 1.396 . S
C2289 C2294 1.390 . S
C2290 C2284 1.465 . S
C2290 C2289 1.396 . S
C2290 C2291 1.399 . S
C2291 H2277 0.929 . S
C2291 C2290 1.399 . S
C2291 C2292 1.385 . S
C2292 H2278 0.931 . S
C2292 C2291 1.385 . S
C2292 C2293 1.389 . S
C2293 C2292 1.389 . S
C2293 C2294 1.387 . S
C2294 H2279 0.930 . S
C2294 C2289 1.390 . S
C2294 C2293 1.387 . S
H2295 C2307 0.930 . S
H2296 C2309 0.930 . S
H2297 C2310 0.930 . S
H2298 C2314 0.959 . S
H2299 C2314 0.959 . S
H2300 C2314 0.961 . S
H2301 C2315 0.960 . S
H2302 C2315 0.961 . S
H2303 C2315 0.959 . S
H2304 C2318 0.929 . S
H2305 C2319 0.931 . S
H2306 C2321 0.930 . S
C2307 H2295 0.930 . S
C2307 C2308 1.399 . S
C2307 C2312 1.399 . S
C2308 C2307 1.399 . S
C2308 C2309 1.376 . S
C2309 H2296 0.930 . S
C2309 C2308 1.376 . S
C2309 C2310 1.388 . S
C2310 H2297 0.930 . S
C2310 C2309 1.388 . S
C2310 C2311 1.390 . S
C2311 C2310 1.390 . S
C2311 C2312 1.394 . S
C2311 C2317 1.465 . S
C2312 C2307 1.399 . S
C2312 C2311 1.394 . S
C2312 C2313 1.516 . S
C2313 C2312 1.516 . S
C2313 C2314 1.502 . S
C2313 C2315 1.561 . S
C2313 C2316 1.526 . S
C2314 H2298 0.959 . S
C2314 H2299 0.959 . S
C2314 H2300 0.961 . S
C2314 C2313 1.502 . S
C2315 H2301 0.960 . S
C2315 H2302 0.961 . S
C2315 H2303 0.959 . S
C2315 C2313 1.561 . S
C2316 C2313 1.526 . S
C2316 C2317 1.396 . S
C2316 C2321 1.390 . S
C2317 C2311 1.465 . S
C2317 C2316 1.396 . S
C2317 C2318 1.399 . S
C2318 H2304 0.929 . S
C2318 C2317 1.399 . S
C2318 C2319 1.385 . S
C2319 H2305 0.931 . S
C2319 C2318 1.385 . S
C2319 C2320 1.389 . S
C2320 C2319 1.389 . S
C2320 C2321 1.387 . S
C2321 H2306 0.930 . S
C2321 C2316 1.390 . S
C2321 C2320 1.387 . S
H2322 C2334 0.930 . S
H2323 C2336 0.930 . S
H2324 C2337 0.930 . S
H2325 C2341 0.959 . S
H2326 C2341 0.959 . S
H2327 C2341 0.961 . S
H2328 C2342 0.960 . S
H2329 C2342 0.961 . S
H2330 C2342 0.959 . S
H2331 C2345 0.929 . S
H2332 C2346 0.931 . S
H2333 C2348 0.930 . S
C2334 H2322 0.930 . S
C2334 C2335 1.399 . S
C2334 C2339 1.399 . S
C2335 C2334 1.399 . S
C2335 C2336 1.376 . S
C2336 H2323 0.930 . S
C2336 C2335 1.376 . S
C2336 C2337 1.388 . S
C2337 H2324 0.930 . S
C2337 C2336 1.388 . S
C2337 C2338 1.390 . S
C2338 C2337 1.390 . S
C2338 C2339 1.394 . S
C2338 C2344 1.465 . S
C2339 C2334 1.399 . S
C2339 C2338 1.394 . S
C2339 C2340 1.516 . S
C2340 C2339 1.516 . S
C2340 C2341 1.502 . S
C2340 C2342 1.561 . S
C2340 C2343 1.526 . S
C2341 H2325 0.959 . S
C2341 H2326 0.959 . S
C2341 H2327 0.961 . S
C2341 C2340 1.502 . S
C2342 H2328 0.960 . S
C2342 H2329 0.961 . S
C2342 H2330 0.959 . S
C2342 C2340 1.561 . S
C2343 C2340 1.526 . S
C2343 C2344 1.396 . S
C2343 C2348 1.390 . S
C2344 C2338 1.465 . S
C2344 C2343 1.396 . S
C2344 C2345 1.399 . S
C2345 H2331 0.929 . S
C2345 C2344 1.399 . S
C2345 C2346 1.385 . S
C2346 H2332 0.931 . S
C2346 C2345 1.385 . S
C2346 C2347 1.389 . S
C2347 C2346 1.389 . S
C2347 C2348 1.387 . S
C2348 H2333 0.930 . S
C2348 C2343 1.390 . S
C2348 C2347 1.387 . S
H2349 C2361 0.930 . S
H2350 C2363 0.930 . S
H2351 C2364 0.930 . S
H2352 C2368 0.959 . S
H2353 C2368 0.959 . S
H2354 C2368 0.961 . S
H2355 C2369 0.960 . S
H2356 C2369 0.961 . S
H2357 C2369 0.959 . S
H2358 C2372 0.929 . S
H2359 C2373 0.931 . S
H2360 C2375 0.930 . S
C2361 H2349 0.930 . S
C2361 C2362 1.399 . S
C2361 C2366 1.399 . S
C2362 C2361 1.399 . S
C2362 C2363 1.376 . S
C2363 H2350 0.930 . S
C2363 C2362 1.376 . S
C2363 C2364 1.388 . S
C2364 H2351 0.930 . S
C2364 C2363 1.388 . S
C2364 C2365 1.390 . S
C2365 C2364 1.390 . S
C2365 C2366 1.394 . S
C2365 C2371 1.465 . S
C2366 C2361 1.399 . S
C2366 C2365 1.394 . S
C2366 C2367 1.516 . S
C2367 C2366 1.516 . S
C2367 C2368 1.502 . S
C2367 C2369 1.561 . S
C2367 C2370 1.526 . S
C2368 H2352 0.959 . S
C2368 H2353 0.959 . S
C2368 H2354 0.961 . S
C2368 C2367 1.502 . S
C2369 H2355 0.960 . S
C2369 H2356 0.961 . S
C2369 H2357 0.959 . S
C2369 C2367 1.561 . S
C2370 C2367 1.526 . S
C2370 C2371 1.396 . S
C2370 C2375 1.390 . S
C2371 C2365 1.465 . S
C2371 C2370 1.396 . S
C2371 C2372 1.399 . S
C2372 H2358 0.929 . S
C2372 C2371 1.399 . S
C2372 C2373 1.385 . S
C2373 H2359 0.931 . S
C2373 C2372 1.385 . S
C2373 C2374 1.389 . S
C2374 C2373 1.389 . S
C2374 C2375 1.387 . S
C2375 H2360 0.930 . S
C2375 C2370 1.390 . S
C2375 C2374 1.387 . S
H2376 C2388 0.930 . S
H2377 C2390 0.930 . S
H2378 C2391 0.930 . S
H2379 C2395 0.959 . S
H2380 C2395 0.959 . S
H2381 C2395 0.961 . S
H2382 C2396 0.960 . S
H2383 C2396 0.961 . S
H2384 C2396 0.959 . S
H2385 C2399 0.929 . S
H2386 C2400 0.931 . S
H2387 C2402 0.930 . S
C2388 H2376 0.930 . S
C2388 C2389 1.399 . S
C2388 C2393 1.399 . S
C2389 C2388 1.399 . S
C2389 C2390 1.376 . S
C2390 H2377 0.930 . S
C2390 C2389 1.376 . S
C2390 C2391 1.388 . S
C2391 H2378 0.930 . S
C2391 C2390 1.388 . S
C2391 C2392 1.390 . S
C2392 C2391 1.390 . S
C2392 C2393 1.394 . S
C2392 C2398 1.465 . S
C2393 C2388 1.399 . S
C2393 C2392 1.394 . S
C2393 C2394 1.516 . S
C2394 C2393 1.516 . S
C2394 C2395 1.502 . S
C2394 C2396 1.561 . S
C2394 C2397 1.526 . S
C2395 H2379 0.959 . S
C2395 H2380 0.959 . S
C2395 H2381 0.961 . S
C2395 C2394 1.502 . S
C2396 H2382 0.960 . S
C2396 H2383 0.961 . S
C2396 H2384 0.959 . S
C2396 C2394 1.561 . S
C2397 C2394 1.526 . S
C2397 C2398 1.396 . S
C2397 C2402 1.390 . S
C2398 C2392 1.465 . S
C2398 C2397 1.396 . S
C2398 C2399 1.399 . S
C2399 H2385 0.929 . S
C2399 C2398 1.399 . S
C2399 C2400 1.385 . S
C2400 H2386 0.931 . S
C2400 C2399 1.385 . S
C2400 C2401 1.389 . S
C2401 C2400 1.389 . S
C2401 C2402 1.387 . S
C2402 H2387 0.930 . S
C2402 C2397 1.390 . S
C2402 C2401 1.387 . S
H2403 C2415 0.930 . S
H2404 C2417 0.930 . S
H2405 C2418 0.930 . S
H2406 C2422 0.959 . S
H2407 C2422 0.959 . S
H2408 C2422 0.961 . S
H2409 C2423 0.960 . S
H2410 C2423 0.961 . S
H2411 C2423 0.959 . S
H2412 C2426 0.929 . S
H2413 C2427 0.931 . S
H2414 C2429 0.930 . S
C2415 H2403 0.930 . S
C2415 C2416 1.399 . S
C2415 C2420 1.399 . S
C2416 C2415 1.399 . S
C2416 C2417 1.376 . S
C2417 H2404 0.930 . S
C2417 C2416 1.376 . S
C2417 C2418 1.388 . S
C2418 H2405 0.930 . S
C2418 C2417 1.388 . S
C2418 C2419 1.390 . S
C2419 C2418 1.390 . S
C2419 C2420 1.394 . S
C2419 C2425 1.465 . S
C2420 C2415 1.399 . S
C2420 C2419 1.394 . S
C2420 C2421 1.516 . S
C2421 C2420 1.516 . S
C2421 C2422 1.502 . S
C2421 C2423 1.561 . S
C2421 C2424 1.526 . S
C2422 H2406 0.959 . S
C2422 H2407 0.959 . S
C2422 H2408 0.961 . S
C2422 C2421 1.502 . S
C2423 H2409 0.960 . S
C2423 H2410 0.961 . S
C2423 H2411 0.959 . S
C2423 C2421 1.561 . S
C2424 C2421 1.526 . S
C2424 C2425 1.396 . S
C2424 C2429 1.390 . S
C2425 C2419 1.465 . S
C2425 C2424 1.396 . S
C2425 C2426 1.399 . S
C2426 H2412 0.929 . S
C2426 C2425 1.399 . S
C2426 C2427 1.385 . S
C2427 H2413 0.931 . S
C2427 C2426 1.385 . S
C2427 C2428 1.389 . S
C2428 C2427 1.389 . S
C2428 C2429 1.387 . S
C2429 H2414 0.930 . S
C2429 C2424 1.390 . S
C2429 C2428 1.387 . S
H2430 C2442 0.930 . S
H2431 C2444 0.930 . S
H2432 C2445 0.930 . S
H2433 C2449 0.959 . S
H2434 C2449 0.959 . S
H2435 C2449 0.961 . S
H2436 C2450 0.960 . S
H2437 C2450 0.961 . S
H2438 C2450 0.959 . S
H2439 C2453 0.929 . S
H2440 C2454 0.931 . S
H2441 C2456 0.930 . S
C2442 H2430 0.930 . S
C2442 C2443 1.399 . S
C2442 C2447 1.399 . S
C2443 C2442 1.399 . S
C2443 C2444 1.376 . S
C2444 H2431 0.930 . S
C2444 C2443 1.376 . S
C2444 C2445 1.388 . S
C2445 H2432 0.930 . S
C2445 C2444 1.388 . S
C2445 C2446 1.390 . S
C2446 C2445 1.390 . S
C2446 C2447 1.394 . S
C2446 C2452 1.465 . S
C2447 C2442 1.399 . S
C2447 C2446 1.394 . S
C2447 C2448 1.516 . S
C2448 C2447 1.516 . S
C2448 C2449 1.502 . S
C2448 C2450 1.561 . S
C2448 C2451 1.526 . S
C2449 H2433 0.959 . S
C2449 H2434 0.959 . S
C2449 H2435 0.961 . S
C2449 C2448 1.502 . S
C2450 H2436 0.960 . S
C2450 H2437 0.961 . S
C2450 H2438 0.959 . S
C2450 C2448 1.561 . S
C2451 C2448 1.526 . S
C2451 C2452 1.396 . S
C2451 C2456 1.390 . S
C2452 C2446 1.465 . S
C2452 C2451 1.396 . S
C2452 C2453 1.399 . S
C2453 H2439 0.929 . S
C2453 C2452 1.399 . S
C2453 C2454 1.385 . S
C2454 H2440 0.931 . S
C2454 C2453 1.385 . S
C2454 C2455 1.389 . S
C2455 C2454 1.389 . S
C2455 C2456 1.387 . S
C2456 H2441 0.930 . S
C2456 C2451 1.390 . S
C2456 C2455 1.387 . S
H2457 C2469 0.930 . S
H2458 C2471 0.930 . S
H2459 C2472 0.930 . S
H2460 C2476 0.959 . S
H2461 C2476 0.959 . S
H2462 C2476 0.961 . S
H2463 C2477 0.960 . S
H2464 C2477 0.961 . S
H2465 C2477 0.959 . S
H2466 C2480 0.946 . S
H2467 C2481 0.931 . S
H2468 C2483 0.930 . S
C2469 H2457 0.930 . S
C2469 C2470 1.399 . S
C2469 C2474 1.399 . S
C2470 C2469 1.399 . S
C2470 C2471 1.376 . S
C2471 H2458 0.930 . S
C2471 C2470 1.376 . S
C2471 C2472 1.388 . S
C2472 H2459 0.930 . S
C2472 C2471 1.388 . S
C2472 C2473 1.390 . S
C2473 C2472 1.390 . S
C2473 C2474 1.394 . S
C2473 C2479 1.465 . S
C2474 C2469 1.399 . S
C2474 C2473 1.394 . S
C2474 C2475 1.516 . S
C2475 C2474 1.516 . S
C2475 C2476 1.502 . S
C2475 C2477 1.561 1_455 S
C2475 C2478 1.526 . S
C2476 H2460 0.959 . S
C2476 H2461 0.959 . S
C2476 H2462 0.961 . S
C2476 C2475 1.502 . S
C2477 H2463 0.960 . S
C2477 H2464 0.961 . S
C2477 H2465 0.959 . S
C2477 C2475 1.561 1_655 S
C2478 C2475 1.526 . S
C2478 C2479 1.396 . S
C2478 C2483 1.390 . S
C2479 C2473 1.465 . S
C2479 C2478 1.396 . S
C2479 C2480 1.399 . S
C2480 H2466 0.946 . S
C2480 C2479 1.399 . S
C2480 C2481 1.385 . S
C2481 H2467 0.931 . S
C2481 C2480 1.385 . S
C2481 C2482 1.389 . S
C2482 C2481 1.389 . S
C2482 C2483 1.387 . S
C2483 H2468 0.930 . S
C2483 C2478 1.390 . S
C2483 C2482 1.387 . S
H2484 C2496 0.930 . S
H2485 C2498 0.930 . S
H2486 C2499 0.930 . S
H2487 C2503 0.959 . S
H2488 C2503 0.959 . S
H2489 C2503 0.961 . S
H2490 C2504 0.960 . S
H2491 C2504 0.961 . S
H2492 C2504 0.959 . S
H2493 C2507 0.929 . S
H2494 C2508 0.931 . S
H2495 C2510 0.930 . S
C2496 H2484 0.930 . S
C2496 C2497 1.399 . S
C2496 C2501 1.399 . S
C2497 C2496 1.399 . S
C2497 C2498 1.376 . S
C2498 H2485 0.930 . S
C2498 C2497 1.376 . S
C2498 C2499 1.388 . S
C2499 H2486 0.930 . S
C2499 C2498 1.388 . S
C2499 C2500 1.390 . S
C2500 C2499 1.390 . S
C2500 C2501 1.394 . S
C2500 C2506 1.465 . S
C2501 C2496 1.399 . S
C2501 C2500 1.394 . S
C2501 C2502 1.516 . S
C2502 C2501 1.516 . S
C2502 C2503 1.502 . S
C2502 C2504 1.561 . S
C2502 C2505 1.526 . S
C2503 H2487 0.959 . S
C2503 H2488 0.959 . S
C2503 H2489 0.961 . S
C2503 C2502 1.502 . S
C2504 H2490 0.960 . S
C2504 H2491 0.961 . S
C2504 H2492 0.959 . S
C2504 C2502 1.561 . S
C2505 C2502 1.526 . S
C2505 C2506 1.396 . S
C2505 C2510 1.390 . S
C2506 C2500 1.465 . S
C2506 C2505 1.396 . S
C2506 C2507 1.399 . S
C2507 H2493 0.929 . S
C2507 C2506 1.399 . S
C2507 C2508 1.385 . S
C2508 H2494 0.931 . S
C2508 C2507 1.385 . S
C2508 C2509 1.389 . S
C2509 C2508 1.389 . S
C2509 C2510 1.387 . S
C2510 H2495 0.930 . S
C2510 C2505 1.390 . S
C2510 C2509 1.387 . S
H2511 C2523 0.930 . S
H2512 C2525 0.930 . S
H2513 C2526 0.930 . S
H2514 C2530 0.959 . S
H2515 C2530 0.959 . S
H2516 C2530 0.961 . S
H2517 C2531 0.960 . S
H2518 C2531 0.961 . S
H2519 C2531 0.959 . S
H2520 C2534 0.929 . S
H2521 C2535 0.931 . S
H2522 C2537 0.930 . S
C2523 H2511 0.930 . S
C2523 C2524 1.399 1_545 S
C2523 C2528 1.399 . S
C2524 C2523 1.399 1_565 S
C2524 C2525 1.376 . S
C2525 H2512 0.930 . S
C2525 C2524 1.376 . S
C2525 C2526 1.388 . S
C2526 H2513 0.930 . S
C2526 C2525 1.388 . S
C2526 C2527 1.390 . S
C2527 C2526 1.390 . S
C2527 C2528 1.394 1_565 S
C2527 C2533 1.465 . S
C2528 C2523 1.399 . S
C2528 C2527 1.394 1_545 S
C2528 C2529 1.516 . S
C2529 C2528 1.516 . S
C2529 C2530 1.502 . S
C2529 C2531 1.561 . S
C2529 C2532 1.526 . S
C2530 H2514 0.959 . S
C2530 H2515 0.959 . S
C2530 H2516 0.961 . S
C2530 C2529 1.502 . S
C2531 H2517 0.960 . S
C2531 H2518 0.961 . S
C2531 H2519 0.959 . S
C2531 C2529 1.561 . S
C2532 C2529 1.526 . S
C2532 C2533 1.396 1_545 S
C2532 C2537 1.390 . S
C2533 C2527 1.465 . S
C2533 C2532 1.396 1_565 S
C2533 C2534 1.399 . S
C2534 H2520 0.929 . S
C2534 C2533 1.399 . S
C2534 C2535 1.385 . S
C2535 H2521 0.931 . S
C2535 C2534 1.385 . S
C2535 C2536 1.389 . S
C2536 C2535 1.389 . S
C2536 C2537 1.387 1_565 S
C2537 H2522 0.930 . S
C2537 C2532 1.390 . S
C2537 C2536 1.387 1_545 S
H2538 C2550 0.927 . S
H2539 C2552 0.930 . S
H2540 C2553 0.930 . S
H2541 C2557 0.959 . S
H2542 C2557 0.959 . S
H2543 C2557 0.961 . S
H2544 C2558 0.960 . S
H2545 C2558 0.961 . S
H2546 C2558 0.959 . S
H2547 C2561 0.929 . S
H2548 C2562 0.931 . S
H2549 C2564 0.930 1_545 S
C2550 H2538 0.927 . S
C2550 C2551 1.399 . S
C2550 C2555 1.399 . S
C2551 C2550 1.399 . S
C2551 C2552 1.376 . S
C2552 H2539 0.930 . S
C2552 C2551 1.376 . S
C2552 C2553 1.388 . S
C2553 H2540 0.930 . S
C2553 C2552 1.388 . S
C2553 C2554 1.390 . S
C2554 C2553 1.390 . S
C2554 C2555 1.394 . S
C2554 C2560 1.465 . S
C2555 C2550 1.399 . S
C2555 C2554 1.394 . S
C2555 C2556 1.516 . S
C2556 C2555 1.516 . S
C2556 C2557 1.502 1_565 S
C2556 C2558 1.561 . S
C2556 C2559 1.526 . S
C2557 H2541 0.959 . S
C2557 H2542 0.959 . S
C2557 H2543 0.961 . S
C2557 C2556 1.502 1_545 S
C2558 H2544 0.960 . S
C2558 H2545 0.961 . S
C2558 H2546 0.959 . S
C2558 C2556 1.561 . S
C2559 C2556 1.526 . S
C2559 C2560 1.396 . S
C2559 C2564 1.390 . S
C2560 C2554 1.465 . S
C2560 C2559 1.396 . S
C2560 C2561 1.399 . S
C2561 H2547 0.929 . S
C2561 C2560 1.399 . S
C2561 C2562 1.385 . S
C2562 H2548 0.931 . S
C2562 C2561 1.385 . S
C2562 C2563 1.389 . S
C2563 C2562 1.389 . S
C2563 C2564 1.387 . S
C2564 H2549 0.930 1_565 S
C2564 C2559 1.390 . S
C2564 C2563 1.387 . S
H2565 C2577 0.930 . S
H2566 C2579 0.930 . S
H2567 C2580 0.930 . S
H2568 C2584 0.959 . S
H2569 C2584 0.959 . S
H2570 C2584 0.961 . S
H2571 C2585 0.960 . S
H2572 C2585 0.961 . S
H2573 C2585 0.959 . S
H2574 C2588 0.929 . S
H2575 C2589 0.931 . S
H2576 C2591 0.930 1_655 S
C2577 H2565 0.930 . S
C2577 C2578 1.399 . S
C2577 C2582 1.399 . S
C2578 C2577 1.399 . S
C2578 C2579 1.376 . S
C2579 H2566 0.930 . S
C2579 C2578 1.376 . S
C2579 C2580 1.388 . S
C2580 H2567 0.930 . S
C2580 C2579 1.388 . S
C2580 C2581 1.390 . S
C2581 C2580 1.390 . S
C2581 C2582 1.394 . S
C2581 C2587 1.465 . S
C2582 C2577 1.399 . S
C2582 C2581 1.394 . S
C2582 C2583 1.508 . S
C2583 C2582 1.508 . S
C2583 C2584 1.518 . S
C2583 C2585 1.546 1_455 S
C2583 C2586 1.531 . S
C2584 H2568 0.959 . S
C2584 H2569 0.959 . S
C2584 H2570 0.961 . S
C2584 C2583 1.518 . S
C2585 H2571 0.960 . S
C2585 H2572 0.961 . S
C2585 H2573 0.959 . S
C2585 C2583 1.546 1_655 S
C2586 C2583 1.531 . S
C2586 C2587 1.396 . S
C2586 C2591 1.390 . S
C2587 C2581 1.465 . S
C2587 C2586 1.396 . S
C2587 C2588 1.399 . S
C2588 H2574 0.929 . S
C2588 C2587 1.399 . S
C2588 C2589 1.385 . S
C2589 H2575 0.931 . S
C2589 C2588 1.385 . S
C2589 C2590 1.389 . S
C2590 C2589 1.389 . S
C2590 C2591 1.387 . S
C2591 H2576 0.930 1_455 S
C2591 C2586 1.390 . S
C2591 C2590 1.387 . S
H2592 C2604 0.930 . S
H2593 C2606 0.930 . S
H2594 C2607 0.930 . S
H2595 C2611 0.959 . S
H2596 C2611 0.959 . S
H2597 C2611 0.961 . S
H2598 C2612 0.960 . S
H2599 C2612 0.961 . S
H2600 C2612 0.959 . S
H2601 C2615 0.929 . S
H2602 C2616 0.931 . S
H2603 C2618 0.930 . S
C2604 H2592 0.930 . S
C2604 C2605 1.399 . S
C2604 C2609 1.399 . S
C2605 C2604 1.399 . S
C2605 C2606 1.376 . S
C2606 H2593 0.930 . S
C2606 C2605 1.376 . S
C2606 C2607 1.388 . S
C2607 H2594 0.930 . S
C2607 C2606 1.388 . S
C2607 C2608 1.390 . S
C2608 C2607 1.390 . S
C2608 C2609 1.394 . S
C2608 C2614 1.465 . S
C2609 C2604 1.399 . S
C2609 C2608 1.394 . S
C2609 C2610 1.516 . S
C2610 C2609 1.516 . S
C2610 C2611 1.502 . S
C2610 C2612 1.561 . S
C2610 C2613 1.526 . S
C2611 H2595 0.959 . S
C2611 H2596 0.959 . S
C2611 H2597 0.961 . S
C2611 C2610 1.502 . S
C2612 H2598 0.960 . S
C2612 H2599 0.961 . S
C2612 H2600 0.959 . S
C2612 C2610 1.561 . S
C2613 C2610 1.526 . S
C2613 C2614 1.396 . S
C2613 C2618 1.390 . S
C2614 C2608 1.465 . S
C2614 C2613 1.396 . S
C2614 C2615 1.399 . S
C2615 H2601 0.929 . S
C2615 C2614 1.399 . S
C2615 C2616 1.385 . S
C2616 H2602 0.931 . S
C2616 C2615 1.385 . S
C2616 C2617 1.389 . S
C2617 C2616 1.389 . S
C2617 C2618 1.387 . S
C2618 H2603 0.930 . S
C2618 C2613 1.390 . S
C2618 C2617 1.387 . S
H2619 C2631 0.930 . S
H2620 C2633 0.930 . S
H2621 C2634 0.930 . S
H2622 C2638 0.959 . S
H2623 C2638 0.959 . S
H2624 C2638 0.961 . S
H2625 C2639 0.960 . S
H2626 C2639 0.961 . S
H2627 C2639 0.959 . S
H2628 C2642 0.929 . S
H2629 C2643 0.931 . S
H2630 C2645 0.930 . S
C2631 H2619 0.930 . S
C2631 C2632 1.399 . S
C2631 C2636 1.399 . S
C2632 C2631 1.399 . S
C2632 C2633 1.376 . S
C2633 H2620 0.930 . S
C2633 C2632 1.376 . S
C2633 C2634 1.388 . S
C2634 H2621 0.930 . S
C2634 C2633 1.388 . S
C2634 C2635 1.390 . S
C2635 C2634 1.390 . S
C2635 C2636 1.394 . S
C2635 C2641 1.465 . S
C2636 C2631 1.399 . S
C2636 C2635 1.394 . S
C2636 C2637 1.516 . S
C2637 C2636 1.516 . S
C2637 C2638 1.502 . S
C2637 C2639 1.561 . S
C2637 C2640 1.526 . S
C2638 H2622 0.959 . S
C2638 H2623 0.959 . S
C2638 H2624 0.961 . S
C2638 C2637 1.502 . S
C2639 H2625 0.960 . S
C2639 H2626 0.961 . S
C2639 H2627 0.959 . S
C2639 C2637 1.561 . S
C2640 C2637 1.526 . S
C2640 C2641 1.396 . S
C2640 C2645 1.390 . S
C2641 C2635 1.465 . S
C2641 C2640 1.396 . S
C2641 C2642 1.399 . S
C2642 H2628 0.929 . S
C2642 C2641 1.399 . S
C2642 C2643 1.385 . S
C2643 H2629 0.931 . S
C2643 C2642 1.385 . S
C2643 C2644 1.389 . S
C2644 C2643 1.389 . S
C2644 C2645 1.387 . S
C2645 H2630 0.930 . S
C2645 C2640 1.390 . S
C2645 C2644 1.387 . S
H2646 C2658 0.930 . S
H2647 C2660 0.930 . S
H2648 C2661 0.930 . S
H2649 C2665 0.959 . S
H2650 C2665 0.959 . S
H2651 C2665 0.961 . S
H2652 C2666 0.960 . S
H2653 C2666 0.961 . S
H2654 C2666 0.959 . S
H2655 C2669 0.929 . S
H2656 C2670 0.931 . S
H2657 C2672 0.930 . S
C2658 H2646 0.930 . S
C2658 C2659 1.399 . S
C2658 C2663 1.399 . S
C2659 C2658 1.399 . S
C2659 C2660 1.376 . S
C2660 H2647 0.930 . S
C2660 C2659 1.376 . S
C2660 C2661 1.388 . S
C2661 H2648 0.930 . S
C2661 C2660 1.388 . S
C2661 C2662 1.390 . S
C2662 C2661 1.390 . S
C2662 C2663 1.394 . S
C2662 C2668 1.465 . S
C2663 C2658 1.399 . S
C2663 C2662 1.394 . S
C2663 C2664 1.516 . S
C2664 C2663 1.516 . S
C2664 C2665 1.502 . S
C2664 C2666 1.561 . S
C2664 C2667 1.526 . S
C2665 H2649 0.959 . S
C2665 H2650 0.959 . S
C2665 H2651 0.961 . S
C2665 C2664 1.502 . S
C2666 H2652 0.960 . S
C2666 H2653 0.961 . S
C2666 H2654 0.959 . S
C2666 C2664 1.561 . S
C2667 C2664 1.526 . S
C2667 C2668 1.396 . S
C2667 C2672 1.390 . S
C2668 C2662 1.465 . S
C2668 C2667 1.396 . S
C2668 C2669 1.399 . S
C2669 H2655 0.929 . S
C2669 C2668 1.399 . S
C2669 C2670 1.385 . S
C2670 H2656 0.931 . S
C2670 C2669 1.385 . S
C2670 C2671 1.389 . S
C2671 C2670 1.389 . S
C2671 C2672 1.387 . S
C2672 H2657 0.930 . S
C2672 C2667 1.390 . S
C2672 C2671 1.387 . S
H2673 C2685 0.930 . S
H2674 C2687 0.930 . S
H2675 C2688 0.930 . S
H2676 C2692 0.959 . S
H2677 C2692 0.959 . S
H2678 C2692 0.961 . S
H2679 C2693 0.960 . S
H2680 C2693 0.961 . S
H2681 C2693 0.959 . S
H2682 C2696 0.929 . S
H2683 C2697 0.931 . S
H2684 C2699 0.930 . S
C2685 H2673 0.930 . S
C2685 C2686 1.399 . S
C2685 C2690 1.399 . S
C2686 C2685 1.399 . S
C2686 C2687 1.376 . S
C2687 H2674 0.930 . S
C2687 C2686 1.376 . S
C2687 C2688 1.388 . S
C2688 H2675 0.930 . S
C2688 C2687 1.388 . S
C2688 C2689 1.390 . S
C2689 C2688 1.390 . S
C2689 C2690 1.394 . S
C2689 C2695 1.465 . S
C2690 C2685 1.399 . S
C2690 C2689 1.394 . S
C2690 C2691 1.516 . S
C2691 C2690 1.516 . S
C2691 C2692 1.502 . S
C2691 C2693 1.561 . S
C2691 C2694 1.526 . S
C2692 H2676 0.959 . S
C2692 H2677 0.959 . S
C2692 H2678 0.961 . S
C2692 C2691 1.502 . S
C2693 H2679 0.960 . S
C2693 H2680 0.961 . S
C2693 H2681 0.959 . S
C2693 C2691 1.561 . S
C2694 C2691 1.526 . S
C2694 C2695 1.396 . S
C2694 C2699 1.390 . S
C2695 C2689 1.465 . S
C2695 C2694 1.396 . S
C2695 C2696 1.399 . S
C2696 H2682 0.929 . S
C2696 C2695 1.399 . S
C2696 C2697 1.385 . S
C2697 H2683 0.931 . S
C2697 C2696 1.385 . S
C2697 C2698 1.389 . S
C2698 C2697 1.389 . S
C2698 C2699 1.387 . S
C2699 H2684 0.930 . S
C2699 C2694 1.390 . S
C2699 C2698 1.387 . S
H2700 C2712 0.930 . S
H2701 C2714 0.930 . S
H2702 C2715 0.930 . S
H2703 C2719 0.959 . S
H2704 C2719 0.959 . S
H2705 C2719 0.961 . S
H2706 C2720 0.960 . S
H2707 C2720 0.961 . S
H2708 C2720 0.959 . S
H2709 C2723 0.929 . S
H2710 C2724 0.931 . S
H2711 C2726 0.930 . S
C2712 H2700 0.930 . S
C2712 C2713 1.399 1_565 S
C2712 C2717 1.379 . S
C2713 C2712 1.399 1_545 S
C2713 C2714 1.376 . S
C2714 H2701 0.930 . S
C2714 C2713 1.376 . S
C2714 C2715 1.388 . S
C2715 H2702 0.930 . S
C2715 C2714 1.388 . S
C2715 C2716 1.390 . S
C2716 C2715 1.390 . S
C2716 C2717 1.362 1_545 S
C2716 C2722 1.465 . S
C2717 C2712 1.379 . S
C2717 C2716 1.362 1_565 S
C2717 C2718 1.570 . S
C2718 C2717 1.570 . S
C2718 C2719 1.502 . S
C2718 C2720 1.561 . S
C2718 C2721 1.526 . S
C2719 H2703 0.959 . S
C2719 H2704 0.959 . S
C2719 H2705 0.961 . S
C2719 C2718 1.502 . S
C2720 H2706 0.960 . S
C2720 H2707 0.961 . S
C2720 H2708 0.959 . S
C2720 C2718 1.561 . S
C2721 C2718 1.526 . S
C2721 C2722 1.396 1_565 S
C2721 C2726 1.390 . S
C2722 C2716 1.465 . S
C2722 C2721 1.396 1_545 S
C2722 C2723 1.399 . S
C2723 H2709 0.929 . S
C2723 C2722 1.399 . S
C2723 C2724 1.385 . S
C2724 H2710 0.931 . S
C2724 C2723 1.385 . S
C2724 C2725 1.389 . S
C2725 C2724 1.389 . S
C2725 C2726 1.387 1_545 S
C2726 H2711 0.930 . S
C2726 C2721 1.390 . S
C2726 C2725 1.387 1_565 S
H2727 C2739 0.930 . S
H2728 C2741 0.930 . S
H2729 C2742 0.930 . S
H2730 C2746 0.959 . S
H2731 C2746 0.959 . S
H2732 C2746 0.961 . S
H2733 C2747 0.960 . S
H2734 C2747 0.961 . S
H2735 C2747 0.959 1_455 S
H2736 C2750 0.929 . S
H2737 C2751 0.931 . S
H2738 C2753 0.930 . S
C2739 H2727 0.930 . S
C2739 C2740 1.399 . S
C2739 C2744 1.399 . S
C2740 C2739 1.399 . S
C2740 C2741 1.376 1_655 S
C2741 H2728 0.930 . S
C2741 C2740 1.376 1_455 S
C2741 C2742 1.388 . S
C2742 H2729 0.930 . S
C2742 C2741 1.388 . S
C2742 C2743 1.390 . S
C2743 C2742 1.390 . S
C2743 C2744 1.394 1_455 S
C2743 C2749 1.465 . S
C2744 C2739 1.399 . S
C2744 C2743 1.394 1_655 S
C2744 C2745 1.516 . S
C2745 C2744 1.516 . S
C2745 C2746 1.502 . S
C2745 C2747 1.561 . S
C2745 C2748 1.526 . S
C2746 H2730 0.959 . S
C2746 H2731 0.959 . S
C2746 H2732 0.961 . S
C2746 C2745 1.502 . S
C2747 H2733 0.960 . S
C2747 H2734 0.961 . S
C2747 H2735 0.959 1_655 S
C2747 C2745 1.561 . S
C2748 C2745 1.526 . S
C2748 C2749 1.396 1_655 S
C2748 C2753 1.390 . S
C2749 C2743 1.465 . S
C2749 C2748 1.396 1_455 S
C2749 C2750 1.399 . S
C2750 H2736 0.929 . S
C2750 C2749 1.399 . S
C2750 C2751 1.385 . S
C2751 H2737 0.931 . S
C2751 C2750 1.385 . S
C2751 C2752 1.389 1_455 S
C2752 C2751 1.389 1_655 S
C2752 C2753 1.387 . S
C2753 H2738 0.930 . S
C2753 C2748 1.390 . S
C2753 C2752 1.387 . S
H2754 C2766 0.930 . S
H2755 C2768 0.930 . S
H2756 C2769 0.930 . S
H2757 C2773 0.959 . S
H2758 C2773 0.959 . S
H2759 C2773 0.961 . S
H2760 C2774 0.960 . S
H2761 C2774 0.961 . S
H2762 C2774 0.959 . S
H2763 C2777 0.929 . S
H2764 C2778 0.931 . S
H2765 C2780 0.930 . S
C2766 H2754 0.930 . S
C2766 C2767 1.399 . S
C2766 C2771 1.399 . S
C2767 C2766 1.399 . S
C2767 C2768 1.376 . S
C2768 H2755 0.930 . S
C2768 C2767 1.376 . S
C2768 C2769 1.388 . S
C2769 H2756 0.930 . S
C2769 C2768 1.388 . S
C2769 C2770 1.390 . S
C2770 C2769 1.390 . S
C2770 C2771 1.394 . S
C2770 C2776 1.465 . S
C2771 C2766 1.399 . S
C2771 C2770 1.394 . S
C2771 C2772 1.516 . S
C2772 C2771 1.516 . S
C2772 C2773 1.502 . S
C2772 C2774 1.561 . S
C2772 C2775 1.526 . S
C2773 H2757 0.959 . S
C2773 H2758 0.959 . S
C2773 H2759 0.961 . S
C2773 C2772 1.502 . S
C2774 H2760 0.960 . S
C2774 H2761 0.961 . S
C2774 H2762 0.959 . S
C2774 C2772 1.561 . S
C2775 C2772 1.526 . S
C2775 C2776 1.396 . S
C2775 C2780 1.390 . S
C2776 C2770 1.465 . S
C2776 C2775 1.396 . S
C2776 C2777 1.399 . S
C2777 H2763 0.929 . S
C2777 C2776 1.399 . S
C2777 C2778 1.385 . S
C2778 H2764 0.931 . S
C2778 C2777 1.385 . S
C2778 C2779 1.389 . S
C2779 C2778 1.389 . S
C2779 C2780 1.387 . S
C2780 H2765 0.930 . S
C2780 C2775 1.390 . S
C2780 C2779 1.387 . S
H2781 C2793 0.930 . S
H2782 C2795 0.930 . S
H2783 C2796 0.930 . S
H2784 C2800 0.959 . S
H2785 C2800 0.959 . S
H2786 C2800 0.961 . S
H2787 C2801 0.960 . S
H2788 C2801 0.961 . S
H2789 C2801 0.959 . S
H2790 C2804 0.929 . S
H2791 C2805 0.931 . S
H2792 C2807 0.930 . S
C2793 H2781 0.930 . S
C2793 C2794 1.399 . S
C2793 C2798 1.399 . S
C2794 C2793 1.399 . S
C2794 C2795 1.376 . S
C2795 H2782 0.930 . S
C2795 C2794 1.376 . S
C2795 C2796 1.388 . S
C2796 H2783 0.930 . S
C2796 C2795 1.388 . S
C2796 C2797 1.390 . S
C2797 C2796 1.390 . S
C2797 C2798 1.394 . S
C2797 C2803 1.465 . S
C2798 C2793 1.399 . S
C2798 C2797 1.394 . S
C2798 C2799 1.516 . S
C2799 C2798 1.516 . S
C2799 C2800 1.502 . S
C2799 C2801 1.561 . S
C2799 C2802 1.526 . S
C2800 H2784 0.959 . S
C2800 H2785 0.959 . S
C2800 H2786 0.961 . S
C2800 C2799 1.502 . S
C2801 H2787 0.960 . S
C2801 H2788 0.961 . S
C2801 H2789 0.959 . S
C2801 C2799 1.561 . S
C2802 C2799 1.526 . S
C2802 C2803 1.396 . S
C2802 C2807 1.390 . S
C2803 C2797 1.465 . S
C2803 C2802 1.396 . S
C2803 C2804 1.399 . S
C2804 H2790 0.929 . S
C2804 C2803 1.399 . S
C2804 C2805 1.385 . S
C2805 H2791 0.931 . S
C2805 C2804 1.385 . S
C2805 C2806 1.389 . S
C2806 C2805 1.389 . S
C2806 C2807 1.387 . S
C2807 H2792 0.930 . S
C2807 C2802 1.390 . S
C2807 C2806 1.387 . S
H2808 C2820 0.930 . S
H2809 C2822 0.930 . S
H2810 C2823 0.930 . S
H2811 C2827 0.959 . S
H2812 C2827 0.959 . S
H2813 C2827 0.961 . S
H2814 C2828 0.960 . S
H2815 C2828 0.961 . S
H2816 C2828 0.959 . S
H2817 C2831 0.929 . S
H2818 C2832 0.931 . S
H2819 C2834 0.930 . S
C2820 H2808 0.930 . S
C2820 C2821 1.399 . S
C2820 C2825 1.399 . S
C2821 C2820 1.399 . S
C2821 C2822 1.376 . S
C2822 H2809 0.930 . S
C2822 C2821 1.376 . S
C2822 C2823 1.388 . S
C2823 H2810 0.930 . S
C2823 C2822 1.388 . S
C2823 C2824 1.390 . S
C2824 C2823 1.390 . S
C2824 C2825 1.394 . S
C2824 C2830 1.465 . S
C2825 C2820 1.399 . S
C2825 C2824 1.394 . S
C2825 C2826 1.516 . S
C2826 C2825 1.516 . S
C2826 C2827 1.502 . S
C2826 C2828 1.561 . S
C2826 C2829 1.526 . S
C2827 H2811 0.959 . S
C2827 H2812 0.959 . S
C2827 H2813 0.961 . S
C2827 C2826 1.502 . S
C2828 H2814 0.960 . S
C2828 H2815 0.961 . S
C2828 H2816 0.959 . S
C2828 C2826 1.561 . S
C2829 C2826 1.526 . S
C2829 C2830 1.396 . S
C2829 C2834 1.390 . S
C2830 C2824 1.465 . S
C2830 C2829 1.396 . S
C2830 C2831 1.399 . S
C2831 H2817 0.929 . S
C2831 C2830 1.399 . S
C2831 C2832 1.385 . S
C2832 H2818 0.931 . S
C2832 C2831 1.385 . S
C2832 C2833 1.389 . S
C2833 C2832 1.389 . S
C2833 C2834 1.387 . S
C2834 H2819 0.930 . S
C2834 C2829 1.390 . S
C2834 C2833 1.387 . S
H2835 C2847 0.930 . S
H2836 C2849 0.930 . S
H2837 C2850 0.930 . S
H2838 C2854 0.959 . S
H2839 C2854 0.959 . S
H2840 C2854 0.961 . S
H2841 C2855 0.960 . S
H2842 C2855 0.961 . S
H2843 C2855 0.959 . S
H2844 C2858 0.929 . S
H2845 C2859 0.931 . S
H2846 C2861 0.930 . S
C2847 H2835 0.930 . S
C2847 C2848 1.399 . S
C2847 C2852 1.399 . S
C2848 C2847 1.399 . S
C2848 C2849 1.376 . S
C2849 H2836 0.930 . S
C2849 C2848 1.376 . S
C2849 C2850 1.388 . S
C2850 H2837 0.930 . S
C2850 C2849 1.388 . S
C2850 C2851 1.390 . S
C2851 C2850 1.390 . S
C2851 C2852 1.394 . S
C2851 C2857 1.465 . S
C2852 C2847 1.399 . S
C2852 C2851 1.394 . S
C2852 C2853 1.516 . S
C2853 C2852 1.516 . S
C2853 C2854 1.502 . S
C2853 C2855 1.561 . S
C2853 C2856 1.526 . S
C2854 H2838 0.959 . S
C2854 H2839 0.959 . S
C2854 H2840 0.961 . S
C2854 C2853 1.502 . S
C2855 H2841 0.960 . S
C2855 H2842 0.961 . S
C2855 H2843 0.959 . S
C2855 C2853 1.561 . S
C2856 C2853 1.526 . S
C2856 C2857 1.396 . S
C2856 C2861 1.390 . S
C2857 C2851 1.465 . S
C2857 C2856 1.396 . S
C2857 C2858 1.399 . S
C2858 H2844 0.929 . S
C2858 C2857 1.399 . S
C2858 C2859 1.385 . S
C2859 H2845 0.931 . S
C2859 C2858 1.385 . S
C2859 C2860 1.389 . S
C2860 C2859 1.389 . S
C2860 C2861 1.387 . S
C2861 H2846 0.930 . S
C2861 C2856 1.390 . S
C2861 C2860 1.387 . S
H2862 C2874 0.930 . S
H2863 C2876 0.930 . S
H2864 C2877 0.930 . S
H2865 C2881 0.959 . S
H2866 C2881 0.959 . S
H2867 C2881 0.961 . S
H2868 C2882 0.960 . S
H2869 C2882 0.961 . S
H2870 C2882 0.959 . S
H2871 C2885 0.929 . S
H2872 C2886 0.931 . S
H2873 C2888 0.930 . S
C2874 H2862 0.930 . S
C2874 C2875 1.399 . S
C2874 C2879 1.399 . S
C2875 C2874 1.399 . S
C2875 C2876 1.376 . S
C2876 H2863 0.930 . S
C2876 C2875 1.376 . S
C2876 C2877 1.388 . S
C2877 H2864 0.930 . S
C2877 C2876 1.388 . S
C2877 C2878 1.390 . S
C2878 C2877 1.390 . S
C2878 C2879 1.394 . S
C2878 C2884 1.465 . S
C2879 C2874 1.399 . S
C2879 C2878 1.394 . S
C2879 C2880 1.516 . S
C2880 C2879 1.516 . S
C2880 C2881 1.502 . S
C2880 C2882 1.561 . S
C2880 C2883 1.526 . S
C2881 H2865 0.959 . S
C2881 H2866 0.959 . S
C2881 H2867 0.961 . S
C2881 C2880 1.502 . S
C2882 H2868 0.960 . S
C2882 H2869 0.961 . S
C2882 H2870 0.959 . S
C2882 C2880 1.561 . S
C2883 C2880 1.526 . S
C2883 C2884 1.396 . S
C2883 C2888 1.390 . S
C2884 C2878 1.465 . S
C2884 C2883 1.396 . S
C2884 C2885 1.399 . S
C2885 H2871 0.929 . S
C2885 C2884 1.399 . S
C2885 C2886 1.385 . S
C2886 H2872 0.931 . S
C2886 C2885 1.385 . S
C2886 C2887 1.389 . S
C2887 C2886 1.389 . S
C2887 C2888 1.387 . S
C2888 H2873 0.930 . S
C2888 C2883 1.390 . S
C2888 C2887 1.387 . S
H2889 C2901 0.930 . S
H2890 C2903 0.930 . S
H2891 C2904 0.930 . S
H2892 C2908 0.959 . S
H2893 C2908 0.959 . S
H2894 C2908 0.961 . S
H2895 C2909 0.960 . S
H2896 C2909 0.961 . S
H2897 C2909 0.959 . S
H2898 C2912 0.929 . S
H2899 C2913 0.931 . S
H2900 C2915 0.930 . S
C2901 H2889 0.930 . S
C2901 C2902 1.399 . S
C2901 C2906 1.399 . S
C2902 C2901 1.399 . S
C2902 C2903 1.376 . S
C2903 H2890 0.930 . S
C2903 C2902 1.376 . S
C2903 C2904 1.388 . S
C2904 H2891 0.930 . S
C2904 C2903 1.388 . S
C2904 C2905 1.390 . S
C2905 C2904 1.390 . S
C2905 C2906 1.394 . S
C2905 C2911 1.465 . S
C2906 C2901 1.399 . S
C2906 C2905 1.394 . S
C2906 C2907 1.516 . S
C2907 C2906 1.516 . S
C2907 C2908 1.502 . S
C2907 C2909 1.561 . S
C2907 C2910 1.526 . S
C2908 H2892 0.959 . S
C2908 H2893 0.959 . S
C2908 H2894 0.961 . S
C2908 C2907 1.502 . S
C2909 H2895 0.960 . S
C2909 H2896 0.961 . S
C2909 H2897 0.959 . S
C2909 C2907 1.561 . S
C2910 C2907 1.526 . S
C2910 C2911 1.396 . S
C2910 C2915 1.390 . S
C2911 C2905 1.465 . S
C2911 C2910 1.396 . S
C2911 C2912 1.399 . S
C2912 H2898 0.929 . S
C2912 C2911 1.399 . S
C2912 C2913 1.385 . S
C2913 H2899 0.931 . S
C2913 C2912 1.385 . S
C2913 C2914 1.389 . S
C2914 C2913 1.389 . S
C2914 C2915 1.387 . S
C2915 H2900 0.930 . S
C2915 C2910 1.390 . S
C2915 C2914 1.387 . S
H2916 C2928 0.930 . S
H2917 C2930 0.930 . S
H2918 C2931 0.930 . S
H2919 C2935 0.959 . S
H2920 C2935 0.959 . S
H2921 C2935 0.961 . S
H2922 C2936 0.960 . S
H2923 C2936 0.961 . S
H2924 C2936 0.959 . S
H2925 C2939 0.929 . S
H2926 C2940 0.931 . S
H2927 C2942 0.930 . S
C2928 H2916 0.930 . S
C2928 C2929 1.399 . S
C2928 C2933 1.399 . S
C2929 C2928 1.399 . S
C2929 C2930 1.376 . S
C2930 H2917 0.930 . S
C2930 C2929 1.376 . S
C2930 C2931 1.388 . S
C2931 H2918 0.930 . S
C2931 C2930 1.388 . S
C2931 C2932 1.390 . S
C2932 C2931 1.390 . S
C2932 C2933 1.394 . S
C2932 C2938 1.465 . S
C2933 C2928 1.399 . S
C2933 C2932 1.394 . S
C2933 C2934 1.516 . S
C2934 C2933 1.516 . S
C2934 C2935 1.502 . S
C2934 C2936 1.561 . S
C2934 C2937 1.526 . S
C2935 H2919 0.959 . S
C2935 H2920 0.959 . S
C2935 H2921 0.961 . S
C2935 C2934 1.502 . S
C2936 H2922 0.960 . S
C2936 H2923 0.961 . S
C2936 H2924 0.959 . S
C2936 C2934 1.561 . S
C2937 C2934 1.526 . S
C2937 C2938 1.396 . S
C2937 C2942 1.390 . S
C2938 C2932 1.465 . S
C2938 C2937 1.396 . S
C2938 C2939 1.399 . S
C2939 H2925 0.929 . S
C2939 C2938 1.399 . S
C2939 C2940 1.385 . S
C2940 H2926 0.931 . S
C2940 C2939 1.385 . S
C2940 C2941 1.389 . S
C2941 C2940 1.389 . S
C2941 C2942 1.387 . S
C2942 H2927 0.930 . S
C2942 C2937 1.390 . S
C2942 C2941 1.387 . S
H2943 C2955 0.930 . S
H2944 C2957 0.930 . S
H2945 C2958 0.930 . S
H2946 C2962 0.959 . S
H2947 C2962 0.959 . S
H2948 C2962 0.961 . S
H2949 C2963 0.960 . S
H2950 C2963 0.961 . S
H2951 C2963 0.959 . S
H2952 C2966 0.929 . S
H2953 C2967 0.931 . S
H2954 C2969 0.933 . S
C2955 H2943 0.930 . S
C2955 C2956 1.399 . S
C2955 C2960 1.399 . S
C2956 C2955 1.399 . S
C2956 C2957 1.376 . S
C2957 H2944 0.930 . S
C2957 C2956 1.376 . S
C2957 C2958 1.388 . S
C2958 H2945 0.930 . S
C2958 C2957 1.388 . S
C2958 C2959 1.390 . S
C2959 C2958 1.390 . S
C2959 C2960 1.394 . S
C2959 C2965 1.465 . S
C2960 C2955 1.399 . S
C2960 C2959 1.394 . S
C2960 C2961 1.516 . S
C2961 C2960 1.516 . S
C2961 C2962 1.502 1_655 S
C2961 C2963 1.561 . S
C2961 C2964 1.526 . S
C2962 H2946 0.959 . S
C2962 H2947 0.959 . S
C2962 H2948 0.961 . S
C2962 C2961 1.502 1_455 S
C2963 H2949 0.960 . S
C2963 H2950 0.961 . S
C2963 H2951 0.959 . S
C2963 C2961 1.561 . S
C2964 C2961 1.526 . S
C2964 C2965 1.396 . S
C2964 C2969 1.390 . S
C2965 C2959 1.465 . S
C2965 C2964 1.396 . S
C2965 C2966 1.399 . S
C2966 H2952 0.929 . S
C2966 C2965 1.399 . S
C2966 C2967 1.385 . S
C2967 H2953 0.931 . S
C2967 C2966 1.385 . S
C2967 C2968 1.389 . S
C2968 C2967 1.389 . S
C2968 C2969 1.387 . S
C2969 H2954 0.933 . S
C2969 C2964 1.390 . S
C2969 C2968 1.387 . S
H2970 C2982 0.930 . S
H2971 C2984 0.930 . S
H2972 C2985 0.930 . S
H2973 C2989 0.959 . S
H2974 C2989 0.959 . S
H2975 C2989 0.961 . S
H2976 C2990 0.960 . S
H2977 C2990 0.961 . S
H2978 C2990 0.959 . S
H2979 C2993 0.929 . S
H2980 C2994 0.931 . S
H2981 C2996 0.930 . S
C2982 H2970 0.930 . S
C2982 C2983 1.399 . S
C2982 C2987 1.399 . S
C2983 C2982 1.399 . S
C2983 C2984 1.376 . S
C2984 H2971 0.930 . S
C2984 C2983 1.376 . S
C2984 C2985 1.388 . S
C2985 H2972 0.930 . S
C2985 C2984 1.388 . S
C2985 C2986 1.390 . S
C2986 C2985 1.390 . S
C2986 C2987 1.394 . S
C2986 C2992 1.465 . S
C2987 C2982 1.399 . S
C2987 C2986 1.394 . S
C2987 C2988 1.516 . S
C2988 C2987 1.516 . S
C2988 C2989 1.502 . S
C2988 C2990 1.561 . S
C2988 C2991 1.526 . S
C2989 H2973 0.959 . S
C2989 H2974 0.959 . S
C2989 H2975 0.961 . S
C2989 C2988 1.502 . S
C2990 H2976 0.960 . S
C2990 H2977 0.961 . S
C2990 H2978 0.959 . S
C2990 C2988 1.561 . S
C2991 C2988 1.526 . S
C2991 C2992 1.396 . S
C2991 C2996 1.390 . S
C2992 C2986 1.465 . S
C2992 C2991 1.396 . S
C2992 C2993 1.399 . S
C2993 H2979 0.929 . S
C2993 C2992 1.399 . S
C2993 C2994 1.385 . S
C2994 H2980 0.931 . S
C2994 C2993 1.385 . S
C2994 C2995 1.389 . S
C2995 C2994 1.389 . S
C2995 C2996 1.387 . S
C2996 H2981 0.930 . S
C2996 C2991 1.390 . S
C2996 C2995 1.387 . S
H2997 C3009 0.930 . S
H2998 C3011 0.930 . S
H2999 C3012 0.930 . S
H3000 C3016 0.959 . S
H3001 C3016 0.959 . S
H3002 C3016 0.961 . S
H3003 C3017 0.960 . S
H3004 C3017 0.961 . S
H3005 C3017 0.959 . S
H3006 C3020 0.929 . S
H3007 C3021 0.931 . S
H3008 C3023 0.930 . S
C3009 H2997 0.930 . S
C3009 C3010 1.399 1_565 S
C3009 C3014 1.399 . S
C3010 C3009 1.399 1_545 S
C3010 C3011 1.376 . S
C3011 H2998 0.930 . S
C3011 C3010 1.376 . S
C3011 C3012 1.388 . S
C3012 H2999 0.930 . S
C3012 C3011 1.388 . S
C3012 C3013 1.390 . S
C3013 C3012 1.390 . S
C3013 C3014 1.394 1_545 S
C3013 C3019 1.465 . S
C3014 C3009 1.399 . S
C3014 C3013 1.394 1_565 S
C3014 C3015 1.516 . S
C3015 C3014 1.516 . S
C3015 C3016 1.502 . S
C3015 C3017 1.561 . S
C3015 C3018 1.526 . S
C3016 H3000 0.959 . S
C3016 H3001 0.959 . S
C3016 H3002 0.961 . S
C3016 C3015 1.502 . S
C3017 H3003 0.960 . S
C3017 H3004 0.961 . S
C3017 H3005 0.959 . S
C3017 C3015 1.561 . S
C3018 C3015 1.526 . S
C3018 C3019 1.396 1_565 S
C3018 C3023 1.390 . S
C3019 C3013 1.465 . S
C3019 C3018 1.396 1_545 S
C3019 C3020 1.399 . S
C3020 H3006 0.929 . S
C3020 C3019 1.399 . S
C3020 C3021 1.385 . S
C3021 H3007 0.931 . S
C3021 C3020 1.385 . S
C3021 C3022 1.389 . S
C3022 C3021 1.389 . S
C3022 C3023 1.387 1_545 S
C3023 H3008 0.930 . S
C3023 C3018 1.390 . S
C3023 C3022 1.387 1_565 S
C1093 C7 1.403 . S
C1105 C688 1.448 . S
C1120 C23 1.580 . S
C1132 C734 1.569 . S
C1159 C766 1.474 . S
C1147 C37 1.424 . S
C1174 C35 1.468 1_545 S
C1186 C819 1.468 . S
C1201 C9 1.463 . S
C1213 C865 1.481 . S
C1228 C21 1.582 . S
C1240 C904 1.585 . S
C1255 C49 1.394 . S
C1267 C858 1.438 . S
C1294 C911 1.596 . S
C1282 C65 1.594 . S
C1321 C812 1.479 . S
C1309 C79 1.408 . S
C1336 C77 1.423 . S
C1348 C773 1.436 . S
C1375 C667 1.485 . S
C1363 C51 1.472 . S
C1390 C63 1.556 . S
C1402 C713 1.568 . S
C1417 C91 1.630 . S
C1429 C943 1.698 . S
C1444 C107 1.656 . S
C1456 C1010 1.626 . S
C1483 C1056 1.618 . S
C1471 C121 1.661 . S
C1498 C119 1.567 . S
C1510 C267 1.621 . S
C1525 C93 1.655 . S
C1537 C313 1.634 . S
C1552 C105 1.607 . S
C1564 C359 1.649 . S
C1579 C133 1.518 . S
C1591 C306 1.566 . S
C1606 C149 1.630 . S
C1618 C352 1.609 . S
C1645 C260 1.660 . S
C1633 C163 1.673 . S
C1672 C1035 1.733 . S
C1660 C161 1.680 . S
C1699 C964 1.634 . S
C1687 C135 1.650 . S
C1726 C989 1.649 . S
C1714 C147 1.622 . S
C1741 C175 1.549 . S
C1753 C391 1.594 . S
C1768 C191 1.621 . S
C1780 C444 1.611 . S
C1795 C205 1.666 . S
C1807 C490 1.651 . S
C1822 C203 1.716 . S
C1834 C536 1.708 . S
C1861 C589 1.621 . S
C1849 C177 1.653 . S
C1888 C635 1.646 . S
C1876 C189 1.677 . S
C1915 C582 1.668 . S
C1903 C217 1.686 . S
C1942 C628 1.636 . S
C1930 C233 1.665 . S
C1957 C247 1.647 . S
C1969 C543 1.626 . S
C1996 C497 1.604 . S
C1984 C245 1.572 . S
C2011 C219 1.649 . S
C2023 C412 1.640 . S
C2050 C451 1.660 . S
C2038 C231 1.634 . S
C2077 C274 1.608 . S
C2065 C8 1.638 . S
C2092 C17 1.546 . S
C2104 C320 1.497 . S
C2131 C366 1.634 . S
C2119 C31 1.636 . S
C2158 C398 1.618 . S
C2146 C36 1.646 . S
C2185 C437 1.569 . S
C2173 C3 1.615 . S
C2212 C483 1.501 . S
C2200 C22 1.544 . S
C2227 C50 1.635 . S
C2239 C504 1.639 . S
C2254 C59 1.536 . S
C2266 C405 1.511 . S
C2281 C73 1.628 . S
C2293 C458 1.576 . S
C2308 C78 1.660 . S
C2320 C299 1.645 . S
C2347 C345 1.600 . S
C2335 C45 1.587 . S
C2362 C64 1.554 . S
C2374 C253 1.503 . S
C2401 C529 1.537 . S
C2389 C92 1.593 . S
C2416 C101 1.665 . S
C2428 C596 1.677 . S
C2443 C115 1.673 . S
C2455 C642 1.683 . S
C2482 C681 1.436 . S
C2470 C120 1.418 . S
C2497 C87 1.573 . S
C2509 C727 1.593 . S
C2524 C106 1.368 . S
C2536 C759 1.385 . S
C2551 C134 1.388 . S
C2563 C780 1.409 . S
C2578 C143 1.402 . S
C2590 C674 1.393 . S
C2617 C720 1.583 . S
C2605 C157 1.593 . S
C2632 C162 1.607 . S
C2644 C575 1.588 . S
C2659 C129 1.669 . S
C2671 C621 1.643 . S
C2698 C550 1.652 . S
C2686 C148 1.667 . S
C2725 C826 1.416 . S
C2713 C176 1.394 . S
C2740 C185 1.408 . S
C2752 C872 1.409 . S
C2767 C199 1.586 . S
C2779 C897 1.590 . S
C2806 C950 1.542 . S
C2794 C204 1.602 . S
C2833 C1003 1.679 . S
C2821 C171 1.669 . S
C2848 C190 1.676 . S
C2860 C1049 1.637 . S
C2875 C218 1.605 . S
C2887 C1042 1.560 . S
C2902 C227 1.663 . S
C2914 C957 1.625 . S
C2941 C996 1.656 . S
C2929 C241 1.678 . S
C2968 C851 1.428 . S
C2956 C246 1.400 . S
C2995 C918 1.571 . S
C2983 C213 1.604 . S
C3010 C232 1.387 . S
C3022 C805 1.386 . S
