# Generated by pormake.
# Topology tbo, (3,4)-cn, num edge types: 1
# Building blocks:
#     Node 0, Type 0, BuildingBlock: WUSLED_clean_sbu_0, # of connection points: 3
#     Node 1, Type 0, BuildingBlock: WUSLED_clean_sbu_0, # of connection points: 3
#     Node 2, Type 0, BuildingBlock: WUSLED_clean_sbu_0, # of connection points: 3
#     Node 3, Type 0, BuildingBlock: WUSLED_clean_sbu_0, # of connection points: 3
#     Node 4, Type 0, BuildingBlock: WUSLED_clean_sbu_0, # of connection points: 3
#     Node 5, Type 0, BuildingBlock: WUSLED_clean_sbu_0, # of connection points: 3
#     Node 6, Type 0, BuildingBlock: WUSLED_clean_sbu_0, # of connection points: 3
#     Node 7, Type 0, BuildingBlock: WUSLED_clean_sbu_0, # of connection points: 3
#     Node 8, Type 0, BuildingBlock: WUSLED_clean_sbu_0, # of connection points: 3
#     Node 9, Type 0, BuildingBlock: WUSLED_clean_sbu_0, # of connection points: 3
#     Node 10, Type 0, BuildingBlock: WUSLED_clean_sbu_0, # of connection points: 3
#     Node 11, Type 0, BuildingBlock: WUSLED_clean_sbu_0, # of connection points: 3
#     Node 12, Type 0, BuildingBlock: WUSLED_clean_sbu_0, # of connection points: 3
#     Node 13, Type 0, BuildingBlock: WUSLED_clean_sbu_0, # of connection points: 3
#     Node 14, Type 0, BuildingBlock: WUSLED_clean_sbu_0, # of connection points: 3
#     Node 15, Type 0, BuildingBlock: WUSLED_clean_sbu_0, # of connection points: 3
#     Node 16, Type 0, BuildingBlock: WUSLED_clean_sbu_0, # of connection points: 3
#     Node 17, Type 0, BuildingBlock: WUSLED_clean_sbu_0, # of connection points: 3
#     Node 18, Type 0, BuildingBlock: WUSLED_clean_sbu_0, # of connection points: 3
#     Node 19, Type 0, BuildingBlock: WUSLED_clean_sbu_0, # of connection points: 3
#     Node 20, Type 0, BuildingBlock: WUSLED_clean_sbu_0, # of connection points: 3
#     Node 21, Type 0, BuildingBlock: WUSLED_clean_sbu_0, # of connection points: 3
#     Node 22, Type 0, BuildingBlock: WUSLED_clean_sbu_0, # of connection points: 3
#     Node 23, Type 0, BuildingBlock: WUSLED_clean_sbu_0, # of connection points: 3
#     Node 24, Type 0, BuildingBlock: WUSLED_clean_sbu_0, # of connection points: 3
#     Node 25, Type 0, BuildingBlock: WUSLED_clean_sbu_0, # of connection points: 3
#     Node 26, Type 0, BuildingBlock: WUSLED_clean_sbu_0, # of connection points: 3
#     Node 27, Type 0, BuildingBlock: WUSLED_clean_sbu_0, # of connection points: 3
#     Node 28, Type 0, BuildingBlock: WUSLED_clean_sbu_0, # of connection points: 3
#     Node 29, Type 0, BuildingBlock: WUSLED_clean_sbu_0, # of connection points: 3
#     Node 30, Type 0, BuildingBlock: WUSLED_clean_sbu_0, # of connection points: 3
#     Node 31, Type 0, BuildingBlock: WUSLED_clean_sbu_0, # of connection points: 3
#     Node 32, Type 1, BuildingBlock: KUFVIS_clean_linker_0, # of connection points: 4
#     Node 33, Type 1, BuildingBlock: KUFVIS_clean_linker_0, # of connection points: 4
#     Node 34, Type 1, BuildingBlock: KUFVIS_clean_linker_0, # of connection points: 4
#     Node 35, Type 1, BuildingBlock: KUFVIS_clean_linker_0, # of connection points: 4
#     Node 36, Type 1, BuildingBlock: KUFVIS_clean_linker_0, # of connection points: 4
#     Node 37, Type 1, BuildingBlock: KUFVIS_clean_linker_0, # of connection points: 4
#     Node 38, Type 1, BuildingBlock: KUFVIS_clean_linker_0, # of connection points: 4
#     Node 39, Type 1, BuildingBlock: KUFVIS_clean_linker_0, # of connection points: 4
#     Node 40, Type 1, BuildingBlock: KUFVIS_clean_linker_0, # of connection points: 4
#     Node 41, Type 1, BuildingBlock: KUFVIS_clean_linker_0, # of connection points: 4
#     Node 42, Type 1, BuildingBlock: KUFVIS_clean_linker_0, # of connection points: 4
#     Node 43, Type 1, BuildingBlock: KUFVIS_clean_linker_0, # of connection points: 4
#     Node 44, Type 1, BuildingBlock: KUFVIS_clean_linker_0, # of connection points: 4
#     Node 45, Type 1, BuildingBlock: KUFVIS_clean_linker_0, # of connection points: 4
#     Node 46, Type 1, BuildingBlock: KUFVIS_clean_linker_0, # of connection points: 4
#     Node 47, Type 1, BuildingBlock: KUFVIS_clean_linker_0, # of connection points: 4
#     Node 48, Type 1, BuildingBlock: KUFVIS_clean_linker_0, # of connection points: 4
#     Node 49, Type 1, BuildingBlock: KUFVIS_clean_linker_0, # of connection points: 4
#     Node 50, Type 1, BuildingBlock: KUFVIS_clean_linker_0, # of connection points: 4
#     Node 51, Type 1, BuildingBlock: KUFVIS_clean_linker_0, # of connection points: 4
#     Node 52, Type 1, BuildingBlock: KUFVIS_clean_linker_0, # of connection points: 4
#     Node 53, Type 1, BuildingBlock: KUFVIS_clean_linker_0, # of connection points: 4
#     Node 54, Type 1, BuildingBlock: KUFVIS_clean_linker_0, # of connection points: 4
#     Node 55, Type 1, BuildingBlock: KUFVIS_clean_linker_0, # of connection points: 4
#     Edge 56, Type (0, 1), BuildingBlock: XIVTED_clean_linker_0, # of connection points: 2
#     Edge 57, Type (0, 1), BuildingBlock: XIVTED_clean_linker_0, # of connection points: 2
#     Edge 58, Type (0, 1), BuildingBlock: XIVTED_clean_linker_0, # of connection points: 2
#     Edge 59, Type (0, 1), BuildingBlock: XIVTED_clean_linker_0, # of connection points: 2
#     Edge 60, Type (0, 1), BuildingBlock: XIVTED_clean_linker_0, # of connection points: 2
#     Edge 61, Type (0, 1), BuildingBlock: XIVTED_clean_linker_0, # of connection points: 2
#     Edge 62, Type (0, 1), BuildingBlock: XIVTED_clean_linker_0, # of connection points: 2
#     Edge 63, Type (0, 1), BuildingBlock: XIVTED_clean_linker_0, # of connection points: 2
#     Edge 64, Type (0, 1), BuildingBlock: XIVTED_clean_linker_0, # of connection points: 2
#     Edge 65, Type (0, 1), BuildingBlock: XIVTED_clean_linker_0, # of connection points: 2
#     Edge 66, Type (0, 1), BuildingBlock: XIVTED_clean_linker_0, # of connection points: 2
#     Edge 67, Type (0, 1), BuildingBlock: XIVTED_clean_linker_0, # of connection points: 2
#     Edge 68, Type (0, 1), BuildingBlock: XIVTED_clean_linker_0, # of connection points: 2
#     Edge 69, Type (0, 1), BuildingBlock: XIVTED_clean_linker_0, # of connection points: 2
#     Edge 70, Type (0, 1), BuildingBlock: XIVTED_clean_linker_0, # of connection points: 2
#     Edge 71, Type (0, 1), BuildingBlock: XIVTED_clean_linker_0, # of connection points: 2
#     Edge 72, Type (0, 1), BuildingBlock: XIVTED_clean_linker_0, # of connection points: 2
#     Edge 73, Type (0, 1), BuildingBlock: XIVTED_clean_linker_0, # of connection points: 2
#     Edge 74, Type (0, 1), BuildingBlock: XIVTED_clean_linker_0, # of connection points: 2
#     Edge 75, Type (0, 1), BuildingBlock: XIVTED_clean_linker_0, # of connection points: 2
#     Edge 76, Type (0, 1), BuildingBlock: XIVTED_clean_linker_0, # of connection points: 2
#     Edge 77, Type (0, 1), BuildingBlock: XIVTED_clean_linker_0, # of connection points: 2
#     Edge 78, Type (0, 1), BuildingBlock: XIVTED_clean_linker_0, # of connection points: 2
#     Edge 79, Type (0, 1), BuildingBlock: XIVTED_clean_linker_0, # of connection points: 2
#     Edge 80, Type (0, 1), BuildingBlock: XIVTED_clean_linker_0, # of connection points: 2
#     Edge 81, Type (0, 1), BuildingBlock: XIVTED_clean_linker_0, # of connection points: 2
#     Edge 82, Type (0, 1), BuildingBlock: XIVTED_clean_linker_0, # of connection points: 2
#     Edge 83, Type (0, 1), BuildingBlock: XIVTED_clean_linker_0, # of connection points: 2
#     Edge 84, Type (0, 1), BuildingBlock: XIVTED_clean_linker_0, # of connection points: 2
#     Edge 85, Type (0, 1), BuildingBlock: XIVTED_clean_linker_0, # of connection points: 2
#     Edge 86, Type (0, 1), BuildingBlock: XIVTED_clean_linker_0, # of connection points: 2
#     Edge 87, Type (0, 1), BuildingBlock: XIVTED_clean_linker_0, # of connection points: 2
#     Edge 88, Type (0, 1), BuildingBlock: XIVTED_clean_linker_0, # of connection points: 2
#     Edge 89, Type (0, 1), BuildingBlock: XIVTED_clean_linker_0, # of connection points: 2
#     Edge 90, Type (0, 1), BuildingBlock: XIVTED_clean_linker_0, # of connection points: 2
#     Edge 91, Type (0, 1), BuildingBlock: XIVTED_clean_linker_0, # of connection points: 2
#     Edge 92, Type (0, 1), BuildingBlock: XIVTED_clean_linker_0, # of connection points: 2
#     Edge 93, Type (0, 1), BuildingBlock: XIVTED_clean_linker_0, # of connection points: 2
#     Edge 94, Type (0, 1), BuildingBlock: XIVTED_clean_linker_0, # of connection points: 2
#     Edge 95, Type (0, 1), BuildingBlock: XIVTED_clean_linker_0, # of connection points: 2
#     Edge 96, Type (0, 1), BuildingBlock: XIVTED_clean_linker_0, # of connection points: 2
#     Edge 97, Type (0, 1), BuildingBlock: XIVTED_clean_linker_0, # of connection points: 2
#     Edge 98, Type (0, 1), BuildingBlock: XIVTED_clean_linker_0, # of connection points: 2
#     Edge 99, Type (0, 1), BuildingBlock: XIVTED_clean_linker_0, # of connection points: 2
#     Edge 100, Type (0, 1), BuildingBlock: XIVTED_clean_linker_0, # of connection points: 2
#     Edge 101, Type (0, 1), BuildingBlock: XIVTED_clean_linker_0, # of connection points: 2
#     Edge 102, Type (0, 1), BuildingBlock: XIVTED_clean_linker_0, # of connection points: 2
#     Edge 103, Type (0, 1), BuildingBlock: XIVTED_clean_linker_0, # of connection points: 2
#     Edge 104, Type (0, 1), BuildingBlock: XIVTED_clean_linker_0, # of connection points: 2
#     Edge 105, Type (0, 1), BuildingBlock: XIVTED_clean_linker_0, # of connection points: 2
#     Edge 106, Type (0, 1), BuildingBlock: XIVTED_clean_linker_0, # of connection points: 2
#     Edge 107, Type (0, 1), BuildingBlock: XIVTED_clean_linker_0, # of connection points: 2
#     Edge 108, Type (0, 1), BuildingBlock: XIVTED_clean_linker_0, # of connection points: 2
#     Edge 109, Type (0, 1), BuildingBlock: XIVTED_clean_linker_0, # of connection points: 2
#     Edge 110, Type (0, 1), BuildingBlock: XIVTED_clean_linker_0, # of connection points: 2
#     Edge 111, Type (0, 1), BuildingBlock: XIVTED_clean_linker_0, # of connection points: 2
#     Edge 112, Type (0, 1), BuildingBlock: XIVTED_clean_linker_0, # of connection points: 2
#     Edge 113, Type (0, 1), BuildingBlock: XIVTED_clean_linker_0, # of connection points: 2
#     Edge 114, Type (0, 1), BuildingBlock: XIVTED_clean_linker_0, # of connection points: 2
#     Edge 115, Type (0, 1), BuildingBlock: XIVTED_clean_linker_0, # of connection points: 2
#     Edge 116, Type (0, 1), BuildingBlock: XIVTED_clean_linker_0, # of connection points: 2
#     Edge 117, Type (0, 1), BuildingBlock: XIVTED_clean_linker_0, # of connection points: 2
#     Edge 118, Type (0, 1), BuildingBlock: XIVTED_clean_linker_0, # of connection points: 2
#     Edge 119, Type (0, 1), BuildingBlock: XIVTED_clean_linker_0, # of connection points: 2
#     Edge 120, Type (0, 1), BuildingBlock: XIVTED_clean_linker_0, # of connection points: 2
#     Edge 121, Type (0, 1), BuildingBlock: XIVTED_clean_linker_0, # of connection points: 2
#     Edge 122, Type (0, 1), BuildingBlock: XIVTED_clean_linker_0, # of connection points: 2
#     Edge 123, Type (0, 1), BuildingBlock: XIVTED_clean_linker_0, # of connection points: 2
#     Edge 124, Type (0, 1), BuildingBlock: XIVTED_clean_linker_0, # of connection points: 2
#     Edge 125, Type (0, 1), BuildingBlock: XIVTED_clean_linker_0, # of connection points: 2
#     Edge 126, Type (0, 1), BuildingBlock: XIVTED_clean_linker_0, # of connection points: 2
#     Edge 127, Type (0, 1), BuildingBlock: XIVTED_clean_linker_0, # of connection points: 2
#     Edge 128, Type (0, 1), BuildingBlock: XIVTED_clean_linker_0, # of connection points: 2
#     Edge 129, Type (0, 1), BuildingBlock: XIVTED_clean_linker_0, # of connection points: 2
#     Edge 130, Type (0, 1), BuildingBlock: XIVTED_clean_linker_0, # of connection points: 2
#     Edge 131, Type (0, 1), BuildingBlock: XIVTED_clean_linker_0, # of connection points: 2
#     Edge 132, Type (0, 1), BuildingBlock: XIVTED_clean_linker_0, # of connection points: 2
#     Edge 133, Type (0, 1), BuildingBlock: XIVTED_clean_linker_0, # of connection points: 2
#     Edge 134, Type (0, 1), BuildingBlock: XIVTED_clean_linker_0, # of connection points: 2
#     Edge 135, Type (0, 1), BuildingBlock: XIVTED_clean_linker_0, # of connection points: 2
#     Edge 136, Type (0, 1), BuildingBlock: XIVTED_clean_linker_0, # of connection points: 2
#     Edge 137, Type (0, 1), BuildingBlock: XIVTED_clean_linker_0, # of connection points: 2
#     Edge 138, Type (0, 1), BuildingBlock: XIVTED_clean_linker_0, # of connection points: 2
#     Edge 139, Type (0, 1), BuildingBlock: XIVTED_clean_linker_0, # of connection points: 2
#     Edge 140, Type (0, 1), BuildingBlock: XIVTED_clean_linker_0, # of connection points: 2
#     Edge 141, Type (0, 1), BuildingBlock: XIVTED_clean_linker_0, # of connection points: 2
#     Edge 142, Type (0, 1), BuildingBlock: XIVTED_clean_linker_0, # of connection points: 2
#     Edge 143, Type (0, 1), BuildingBlock: XIVTED_clean_linker_0, # of connection points: 2
#     Edge 144, Type (0, 1), BuildingBlock: XIVTED_clean_linker_0, # of connection points: 2
#     Edge 145, Type (0, 1), BuildingBlock: XIVTED_clean_linker_0, # of connection points: 2
#     Edge 146, Type (0, 1), BuildingBlock: XIVTED_clean_linker_0, # of connection points: 2
#     Edge 147, Type (0, 1), BuildingBlock: XIVTED_clean_linker_0, # of connection points: 2
#     Edge 148, Type (0, 1), BuildingBlock: XIVTED_clean_linker_0, # of connection points: 2
#     Edge 149, Type (0, 1), BuildingBlock: XIVTED_clean_linker_0, # of connection points: 2
#     Edge 150, Type (0, 1), BuildingBlock: XIVTED_clean_linker_0, # of connection points: 2
#     Edge 151, Type (0, 1), BuildingBlock: XIVTED_clean_linker_0, # of connection points: 2
# Relax obj value: 0.000
# Max RMSD: 0.055
# Mean RMSD: 0.026
data_MOF--net-tbo--node1-WUSLED_clean_sbu_0--node2-KUFVIS_clean_linker_0--edge1-XIVTED_clean_linker_0
_symmetry_space_group_name_H-M    P1
_symmetry_Int_Tables_number       1
_symmetry_cell_setting            triclinic
loop_
_symmetry_equiv_pos_as_xyz
'x, y, z'
_cell_length_a     94.329673
_cell_length_b     94.681305
_cell_length_c     94.480497
_cell_angle_alpha  89.634841
_cell_angle_beta   90.314046
_cell_angle_gamma 90.742262
loop_
_atom_site_label
_atom_site_type_symbol
_atom_site_fract_x
_atom_site_fract_y
_atom_site_fract_z
_atom_type_partial_charge
C0 C 0.17855 0.13989 0.20492 0.0
C1 C 0.19194 0.13625 0.19976 0.0
C2 C 0.19321 0.11671 0.21674 0.0
C3 C 0.1992 0.12473 0.2056 0.0
C4 C 0.17963 0.12026 0.22157 0.0
C5 C 0.17241 0.13171 0.21572 0.0
U6 U 0.17235 0.17147 0.17935 0.0
O7 O 0.15199 0.17969 0.17151 0.0
O8 O 0.16581 0.19301 0.1847 0.0
C9 C 0.1534 0.19162 0.17844 0.0
C10 C 0.17092 0.1524 0.1997 0.0
C11 C 0.14109 0.19586 0.18691 0.0
C12 C 0.12621 0.1935 0.20778 0.0
C13 C 0.13763 0.18892 0.19963 0.0
C14 C 0.12145 0.21182 0.19047 0.0
C15 C 0.11801 0.20508 0.20335 0.0
C16 C 0.13286 0.20725 0.18236 0.0
C17 C 0.1972 0.17905 0.14791 0.0
C18 C 0.19332 0.1974 0.1302 0.0
C19 C 0.21534 0.18454 0.13043 0.0
C20 C 0.21057 0.17663 0.14207 0.0
C21 C 0.2068 0.19508 0.12433 0.0
C22 C 0.18858 0.18948 0.14189 0.0
C23 C 0.19259 0.17069 0.16032 0.0
O24 O 0.17761 0.16459 0.20101 0.0
O25 O 0.16424 0.15107 0.18753 0.0
O26 O 0.18045 0.16382 0.15902 0.0
O27 O 0.19408 0.17692 0.17264 0.0
H28 H 0.19686 0.14246 0.19141 0.0
H29 H 0.20967 0.12236 0.20169 0.0
H30 H 0.17459 0.1142 0.22995 0.0
H31 H 0.16206 0.13432 0.2198 0.0
H32 H 0.12379 0.18794 0.21754 0.0
H33 H 0.14385 0.18007 0.2033 0.0
H34 H 0.11555 0.22089 0.18681 0.0
H35 H 0.1354 0.21277 0.17259 0.0
H36 H 0.18637 0.2053 0.12572 0.0
H37 H 0.22585 0.18259 0.12641 0.0
H38 H 0.21742 0.16867 0.14661 0.0
H39 H 0.1782 0.19151 0.14624 0.0
C40 C 0.8342 0.17865 0.14364 0.0
C41 C 0.83343 0.19344 0.14431 0.0
C42 C 0.82354 0.19438 0.12038 0.0
C43 C 0.82811 0.20119 0.13285 0.0
C44 C 0.82456 0.17957 0.11969 0.0
C45 C 0.82979 0.17181 0.13121 0.0
U46 U 0.86005 0.17197 0.17435 0.0
O47 O 0.85598 0.16494 0.19617 0.0
O48 O 0.86907 0.15204 0.18228 0.0
C49 C 0.86283 0.15305 0.19463 0.0
C50 C 0.83926 0.17018 0.15582 0.0
C51 C 0.85549 0.14026 0.19989 0.0
C52 C 0.83466 0.12489 0.20131 0.0
C53 C 0.84176 0.13656 0.1953 0.0
C54 C 0.85507 0.12037 0.21625 0.0
C55 C 0.84116 0.1168 0.21204 0.0
C56 C 0.86214 0.13198 0.21024 0.0
C57 C 0.89066 0.19797 0.18115 0.0
C58 C 0.9081 0.19428 0.1998 0.0
C59 C 0.90808 0.2163 0.18661 0.0
C60 C 0.89654 0.2114 0.17858 0.0
C61 C 0.91398 0.20785 0.19739 0.0
C62 C 0.89654 0.18941 0.19177 0.0
C63 C 0.87823 0.1932 0.1729 0.0
O64 O 0.85147 0.16388 0.15415 0.0
O65 O 0.8379 0.1759 0.16838 0.0
O66 O 0.86602 0.19391 0.17948 0.0
O67 O 0.87974 0.18138 0.16589 0.0
H68 H 0.8368 0.19901 0.15375 0.0
H69 H 0.8273 0.21253 0.13391 0.0
H70 H 0.82138 0.17395 0.11023 0.0
H71 H 0.83033 0.16041 0.13044 0.0
H72 H 0.82392 0.12251 0.1979 0.0
H73 H 0.83645 0.14285 0.18731 0.0
H74 H 0.86048 0.11425 0.2243 0.0
H75 H 0.87275 0.13466 0.21388 0.0
H76 H 0.91245 0.18741 0.20788 0.0
H77 H 0.91215 0.22687 0.18459 0.0
H78 H 0.89209 0.21818 0.17046 0.0
H79 H 0.89212 0.17899 0.19391 0.0
C80 C 0.83185 0.85402 0.14375 0.0
C81 C 0.83596 0.84016 0.14073 0.0
C82 C 0.81992 0.83959 0.12032 0.0
C83 C 0.83007 0.83301 0.12907 0.0
C84 C 0.81618 0.85361 0.12325 0.0
C85 C 0.82208 0.86071 0.13483 0.0
U86 U 0.85691 0.86055 0.17596 0.0
O87 O 0.86462 0.881 0.18414 0.0
O88 O 0.85103 0.8674 0.19732 0.0
C89 C 0.85736 0.87978 0.19593 0.0
C90 C 0.83697 0.8616 0.15641 0.0
C91 C 0.84877 0.89206 0.19974 0.0
C92 C 0.8281 0.90684 0.19635 0.0
C93 C 0.83633 0.89534 0.19227 0.0
C94 C 0.84479 0.91199 0.21525 0.0
C95 C 0.83219 0.91528 0.20794 0.0
C96 C 0.85297 0.9005 0.21118 0.0
C97 C 0.88833 0.83663 0.18481 0.0
C98 C 0.90397 0.84057 0.20502 0.0
C99 C 0.90732 0.82024 0.19004 0.0
C100 C 0.89584 0.82441 0.18161 0.0
C101 C 0.91153 0.82823 0.2019 0.0
C102 C 0.89248 0.84473 0.19655 0.0
C103 C 0.87611 0.84064 0.17591 0.0
O104 O 0.83541 0.855 0.1686 0.0
O105 O 0.84921 0.8683 0.15528 0.0
O106 O 0.87749 0.85257 0.16882 0.0
O107 O 0.8636 0.83909 0.18182 0.0
H108 H 0.8435 0.83481 0.14752 0.0
H109 H 0.83311 0.8222 0.12719 0.0
H110 H 0.8086 0.85908 0.11662 0.0
H111 H 0.81881 0.87142 0.13695 0.0
H112 H 0.81856 0.90914 0.19038 0.0
H113 H 0.83294 0.88895 0.18337 0.0
H114 H 0.84817 0.91808 0.22435 0.0
H115 H 0.86253 0.8981 0.2171 0.0
H116 H 0.90698 0.84707 0.21396 0.0
H117 H 0.91269 0.81057 0.18743 0.0
H118 H 0.89276 0.81799 0.17262 0.0
H119 H 0.88681 0.85423 0.19919 0.0
C120 C 0.1411 0.83379 0.1823 0.0
C121 C 0.13819 0.83774 0.19628 0.0
C122 C 0.11732 0.82215 0.19656 0.0
C123 C 0.12637 0.83199 0.20335 0.0
C124 C 0.12014 0.81859 0.18242 0.0
C125 C 0.13189 0.82434 0.1754 0.0
U126 U 0.17329 0.859 0.17591 0.0
O127 O 0.19497 0.85358 0.16973 0.0
O128 O 0.18189 0.86637 0.15543 0.0
C129 C 0.19373 0.85937 0.1571 0.0
C130 C 0.15391 0.8388 0.17479 0.0
C131 C 0.19822 0.85072 0.14494 0.0
C132 C 0.20423 0.82811 0.13457 0.0
C133 C 0.19921 0.83596 0.14596 0.0
C134 C 0.207 0.84958 0.12078 0.0
C135 C 0.20827 0.83481 0.12182 0.0
C136 C 0.20207 0.85743 0.13222 0.0
C137 C 0.18114 0.89087 0.19975 0.0
C138 C 0.20218 0.90582 0.19727 0.0
C139 C 0.18509 0.9107 0.21558 0.0
C140 C 0.1768 0.89919 0.2111 0.0
C141 C 0.19795 0.91413 0.20879 0.0
C142 C 0.19385 0.8943 0.19279 0.0
C143 C 0.17247 0.87851 0.19557 0.0
O144 O 0.15285 0.85078 0.1678 0.0
O145 O 0.16601 0.83757 0.18163 0.0
O146 O 0.17844 0.86617 0.19746 0.0
O147 O 0.16575 0.87957 0.18339 0.0
H148 H 0.14519 0.84504 0.20179 0.0
H149 H 0.12459 0.83489 0.21425 0.0
H150 H 0.11328 0.81126 0.17678 0.0
H151 H 0.13392 0.82121 0.16459 0.0
H152 H 0.20524 0.8168 0.1359 0.0
H153 H 0.19631 0.83047 0.15564 0.0
H154 H 0.20977 0.85512 0.1111 0.0
H155 H 0.20138 0.86881 0.13117 0.0
H156 H 0.21192 0.90822 0.19169 0.0
H157 H 0.18159 0.91668 0.22461 0.0
H158 H 0.16705 0.89667 0.21664 0.0
H159 H 0.19736 0.888 0.18397 0.0
C160 C 0.13995 0.83694 0.85617 0.0
C161 C 0.13737 0.84414 0.8434 0.0
C162 C 0.11687 0.82883 0.83869 0.0
C163 C 0.12593 0.84011 0.83473 0.0
C164 C 0.11943 0.82184 0.85164 0.0
C165 C 0.13086 0.82586 0.86027 0.0
U166 U 0.17261 0.85975 0.86538 0.0
O167 O 0.18072 0.86641 0.88622 0.0
O168 O 0.19372 0.85315 0.87261 0.0
C169 C 0.19238 0.85905 0.88508 0.0
C170 C 0.15228 0.8405 0.86512 0.0
C171 C 0.19599 0.85008 0.89732 0.0
C172 C 0.19228 0.82904 0.9118 0.0
C173 C 0.18832 0.83764 0.90035 0.0
C174 C 0.21148 0.84535 0.91737 0.0
C175 C 0.20397 0.83275 0.92042 0.0
C176 C 0.20752 0.8539 0.90594 0.0
C177 C 0.18292 0.89178 0.84204 0.0
C178 C 0.20527 0.90137 0.83313 0.0
C179 C 0.18583 0.91707 0.83781 0.0
C180 C 0.17749 0.90551 0.84217 0.0
C181 C 0.1998 0.91515 0.83309 0.0
C182 C 0.19696 0.88984 0.83757 0.0
C183 C 0.17358 0.87962 0.84585 0.0
O184 O 0.16472 0.83871 0.85924 0.0
O185 O 0.1515 0.85233 0.87227 0.0
O186 O 0.16631 0.88079 0.85761 0.0
O187 O 0.17879 0.86693 0.8441 0.0
H188 H 0.14428 0.85276 0.84009 0.0
H189 H 0.1242 0.84582 0.82492 0.0
H190 H 0.11285 0.81298 0.85493 0.0
H191 H 0.13273 0.82016 0.87006 0.0
H192 H 0.18618 0.8195 0.91391 0.0
H193 H 0.17935 0.83455 0.8938 0.0
H194 H 0.22067 0.84844 0.9236 0.0
H195 H 0.2136 0.86345 0.90371 0.0
H196 H 0.21587 0.8994 0.82936 0.0
H197 H 0.1813 0.92751 0.83812 0.0
H198 H 0.16669 0.90731 0.84551 0.0
H199 H 0.20148 0.8794 0.83725 0.0
C200 C 0.13841 0.18095 0.83848 0.0
C201 C 0.13508 0.19303 0.84625 0.0
C202 C 0.11492 0.19758 0.8306 0.0
C203 C 0.12344 0.20128 0.84234 0.0
C204 C 0.11828 0.18534 0.82298 0.0
C205 C 0.1299 0.17713 0.8269 0.0
U206 U 0.17091 0.17225 0.86152 0.0
O207 O 0.17909 0.15152 0.8681 0.0
O208 O 0.19217 0.16567 0.85498 0.0
C209 C 0.19085 0.1531 0.86083 0.0
C210 C 0.15087 0.17237 0.84205 0.0
C211 C 0.19477 0.14109 0.85187 0.0
C212 C 0.19133 0.12646 0.83101 0.0
C213 C 0.18715 0.13776 0.83951 0.0
C214 C 0.21067 0.12167 0.84723 0.0
C215 C 0.20319 0.11829 0.83474 0.0
C216 C 0.20649 0.13294 0.85568 0.0
C217 C 0.17987 0.19543 0.89402 0.0
C218 C 0.20253 0.20194 0.90481 0.0
C219 C 0.181 0.20325 0.91852 0.0
C220 C 0.17315 0.19845 0.90684 0.0
C221 C 0.19579 0.20523 0.91763 0.0
C222 C 0.19467 0.19706 0.89315 0.0
C223 C 0.17113 0.19136 0.88159 0.0
O224 O 0.16324 0.1787 0.84044 0.0
O225 O 0.15001 0.16491 0.8538 0.0
O226 O 0.16408 0.17933 0.88259 0.0
O227 O 0.17681 0.19345 0.86906 0.0
H228 H 0.14153 0.19612 0.85526 0.0
H229 H 0.12109 0.21054 0.84854 0.0
H230 H 0.11214 0.18227 0.81376 0.0
H231 H 0.13235 0.16786 0.82074 0.0
H232 H 0.18523 0.12409 0.82156 0.0
H233 H 0.17803 0.14392 0.83641 0.0
H234 H 0.21997 0.11581 0.85033 0.0
H235 H 0.21253 0.13539 0.86516 0.0
H236 H 0.21385 0.20349 0.90361 0.0
H237 H 0.17544 0.20542 0.92825 0.0
H238 H 0.16176 0.19726 0.90778 0.0
H239 H 0.20017 0.19482 0.8834 0.0
C240 C 0.83131 0.14116 0.8571 0.0
C241 C 0.83996 0.13566 0.84648 0.0
C242 C 0.82204 0.1176 0.84103 0.0
C243 C 0.83539 0.12399 0.83855 0.0
C244 C 0.81349 0.12312 0.8518 0.0
C245 C 0.81809 0.13477 0.85973 0.0
U246 U 0.85645 0.17253 0.86355 0.0
O247 O 0.85179 0.19444 0.86935 0.0
O248 O 0.86478 0.18139 0.88349 0.0
C249 C 0.85839 0.19352 0.8816 0.0
C250 C 0.83577 0.1537 0.86526 0.0
C251 C 0.85077 0.19914 0.8939 0.0
C252 C 0.83065 0.19921 0.90995 0.0
C253 C 0.8379 0.19318 0.89858 0.0
C254 C 0.84917 0.21703 0.91214 0.0
C255 C 0.83613 0.21134 0.91676 0.0
C256 C 0.85639 0.21099 0.90084 0.0
C257 C 0.88773 0.17782 0.83759 0.0
C258 C 0.90374 0.19819 0.83678 0.0
C259 C 0.90669 0.17898 0.82029 0.0
C260 C 0.89518 0.17182 0.82638 0.0
C261 C 0.91103 0.19234 0.82527 0.0
C262 C 0.89215 0.19099 0.84287 0.0
C263 C 0.87513 0.17031 0.84312 0.0
O264 O 0.84778 0.15261 0.87227 0.0
O265 O 0.83453 0.16585 0.85861 0.0
O266 O 0.86302 0.17687 0.84163 0.0
O267 O 0.87654 0.16412 0.85554 0.0
H268 H 0.85022 0.14045 0.84429 0.0
H269 H 0.84235 0.11995 0.83049 0.0
H270 H 0.80308 0.11866 0.85389 0.0
H271 H 0.81124 0.13891 0.86784 0.0
H272 H 0.82059 0.19462 0.91314 0.0
H273 H 0.83339 0.18402 0.89333 0.0
H274 H 0.85383 0.2262 0.91725 0.0
H275 H 0.86634 0.21571 0.89742 0.0
H276 H 0.90672 0.20849 0.84081 0.0
H277 H 0.91218 0.17405 0.81162 0.0
H278 H 0.89195 0.16164 0.8222 0.0
H279 H 0.88651 0.1958 0.85152 0.0
C280 C 0.85247 0.88766 0.83608 0.0
C281 C 0.8419 0.89334 0.84466 0.0
C282 C 0.83662 0.91115 0.82657 0.0
C283 C 0.83406 0.90498 0.83996 0.0
C284 C 0.84728 0.90538 0.81807 0.0
C285 C 0.8551 0.89378 0.82279 0.0
U286 U 0.85997 0.85628 0.86107 0.0
O287 O 0.86679 0.83478 0.85596 0.0
O288 O 0.88042 0.8484 0.86909 0.0
C289 C 0.87899 0.83622 0.8626 0.0
C290 C 0.86079 0.87535 0.84068 0.0
C291 C 0.89156 0.83103 0.85513 0.0
C292 C 0.90683 0.82995 0.83446 0.0
C293 C 0.89524 0.83581 0.84152 0.0
C294 C 0.91125 0.81472 0.85466 0.0
C295 C 0.91484 0.81917 0.84089 0.0
C296 C 0.89975 0.82059 0.86168 0.0
C297 C 0.83571 0.84831 0.89267 0.0
C298 C 0.83896 0.8281 0.90835 0.0
C299 C 0.81949 0.84401 0.91219 0.0
C300 C 0.82383 0.85214 0.90053 0.0
C301 C 0.82695 0.83184 0.91624 0.0
C302 C 0.8433 0.83626 0.89668 0.0
C303 C 0.83985 0.85685 0.88022 0.0
O304 O 0.86776 0.87669 0.8527 0.0
O305 O 0.85445 0.86298 0.83937 0.0
O306 O 0.83837 0.85058 0.86792 0.0
O307 O 0.85183 0.864 0.88137 0.0
H308 H 0.8397 0.88877 0.85497 0.0
H309 H 0.82606 0.9092 0.84688 0.0
H310 H 0.84941 0.90963 0.80763 0.0
H311 H 0.86318 0.88951 0.81598 0.0
H312 H 0.90923 0.83355 0.82383 0.0
H313 H 0.88903 0.84386 0.83628 0.0
H314 H 0.9173 0.80664 0.86003 0.0
H315 H 0.89711 0.8168 0.8722 0.0
H316 H 0.84506 0.8189 0.91124 0.0
H317 H 0.81007 0.84711 0.91782 0.0
H318 H 0.8178 0.86137 0.89756 0.0
H319 H 0.85253 0.83314 0.89074 0.0
C320 C 0.18328 0.63887 0.70207 0.0
C321 C 0.19773 0.6405 0.70553 0.0
C322 C 0.19948 0.61528 0.71084 0.0
C323 C 0.20571 0.62886 0.70989 0.0
C324 C 0.18508 0.61367 0.70712 0.0
C325 C 0.17708 0.62533 0.70285 0.0
U326 U 0.17403 0.67109 0.67879 0.0
O327 O 0.15317 0.67881 0.67175 0.0
O328 O 0.16696 0.69223 0.68491 0.0
C329 C 0.15448 0.69067 0.67883 0.0
C330 C 0.17436 0.65116 0.69829 0.0
C331 C 0.14219 0.69474 0.68743 0.0
C332 C 0.128 0.69291 0.70882 0.0
C333 C 0.13935 0.68832 0.70056 0.0
C334 C 0.12209 0.71017 0.69078 0.0
C335 C 0.11927 0.70399 0.70408 0.0
C336 C 0.13343 0.70559 0.68257 0.0
C337 C 0.19818 0.67989 0.64691 0.0
C338 C 0.19389 0.69821 0.62928 0.0
C339 C 0.21603 0.68556 0.62922 0.0
C340 C 0.2115 0.67761 0.64091 0.0
C341 C 0.20731 0.69599 0.62322 0.0
C342 C 0.18937 0.69024 0.64102 0.0
C343 C 0.19383 0.67135 0.65928 0.0
O344 O 0.18007 0.66378 0.70009 0.0
O345 O 0.16694 0.65012 0.68651 0.0
O346 O 0.18181 0.66427 0.65804 0.0
O347 O 0.19539 0.67743 0.67166 0.0
H348 H 0.20286 0.65079 0.7051 0.0
H349 H 0.21668 0.63062 0.71286 0.0
H350 H 0.17994 0.60339 0.7075 0.0
H351 H 0.16596 0.62377 0.70027 0.0
H352 H 0.12606 0.68779 0.71891 0.0
H353 H 0.146 0.67989 0.70448 0.0
H354 H 0.11579 0.71885 0.68686 0.0
H355 H 0.13549 0.71071 0.67249 0.0
H356 H 0.18682 0.70604 0.62488 0.0
H357 H 0.22652 0.68371 0.62506 0.0
H358 H 0.21848 0.66971 0.64535 0.0
H359 H 0.17903 0.69215 0.64551 0.0
C360 C 0.83603 0.6802 0.64325 0.0
C361 C 0.84326 0.69282 0.63988 0.0
C362 C 0.82692 0.69708 0.62024 0.0
C363 C 0.83874 0.70119 0.62849 0.0
C364 C 0.81987 0.6843 0.62358 0.0
C365 C 0.82439 0.67596 0.63498 0.0
U366 U 0.86062 0.67295 0.67461 0.0
O367 O 0.85562 0.66639 0.69641 0.0
O368 O 0.86867 0.65285 0.68312 0.0
C369 C 0.86213 0.65427 0.69527 0.0
C370 C 0.84025 0.67161 0.65557 0.0
C371 C 0.85431 0.64176 0.70053 0.0
C372 C 0.83361 0.62616 0.70065 0.0
C373 C 0.8411 0.63771 0.69487 0.0
C374 C 0.85261 0.62252 0.71759 0.0
C375 C 0.8392 0.61855 0.71223 0.0
C376 C 0.86006 0.63401 0.7118 0.0
C377 C 0.89207 0.69797 0.68187 0.0
C378 C 0.90351 0.70238 0.70459 0.0
C379 C 0.91585 0.7082 0.68287 0.0
C380 C 0.90417 0.70332 0.67503 0.0
C381 C 0.91565 0.70792 0.69778 0.0
C382 C 0.89189 0.6974 0.69673 0.0
C383 C 0.87968 0.69338 0.67337 0.0
O384 O 0.85227 0.66486 0.65436 0.0
O385 O 0.83884 0.67774 0.66791 0.0
O386 O 0.86722 0.69474 0.67936 0.0
O387 O 0.88099 0.68138 0.66661 0.0
H388 H 0.85231 0.69624 0.64615 0.0
H389 H 0.84451 0.71088 0.62613 0.0
H390 H 0.81061 0.6809 0.61762 0.0
H391 H 0.81865 0.66628 0.63746 0.0
H392 H 0.82327 0.62346 0.69634 0.0
H393 H 0.83649 0.6436 0.68616 0.0
H394 H 0.85734 0.61678 0.72633 0.0
H395 H 0.87027 0.63696 0.71627 0.0
H396 H 0.90283 0.70217 0.71602 0.0
H397 H 0.92506 0.71216 0.67724 0.0
H398 H 0.90456 0.70379 0.66357 0.0
H399 H 0.8827 0.69328 0.70228 0.0
C400 C 0.83362 0.35089 0.64418 0.0
C401 C 0.84033 0.33801 0.64169 0.0
C402 C 0.82523 0.33392 0.62096 0.0
C403 C 0.83617 0.32959 0.63019 0.0
C404 C 0.81872 0.34696 0.62346 0.0
C405 C 0.82288 0.35533 0.63494 0.0
U406 U 0.85627 0.36008 0.67704 0.0
O407 O 0.86309 0.38098 0.68487 0.0
O408 O 0.8493 0.36742 0.6979 0.0
C409 C 0.85552 0.37985 0.69647 0.0
C410 C 0.8373 0.35968 0.65652 0.0
C411 C 0.84683 0.39214 0.70003 0.0
C412 C 0.82594 0.40662 0.69665 0.0
C413 C 0.83424 0.39513 0.69268 0.0
C414 C 0.84285 0.41234 0.71519 0.0
C415 C 0.83011 0.41534 0.70803 0.0
C416 C 0.8511 0.40086 0.71123 0.0
C417 C 0.88801 0.33693 0.68804 0.0
C418 C 0.89717 0.32676 0.70998 0.0
C419 C 0.91343 0.33374 0.69143 0.0
C420 C 0.90199 0.33816 0.68306 0.0
C421 C 0.91118 0.32785 0.70496 0.0
C422 C 0.88575 0.33124 0.70164 0.0
C423 C 0.87596 0.34072 0.6786 0.0
O424 O 0.83523 0.35375 0.66897 0.0
O425 O 0.84932 0.36683 0.65577 0.0
O426 O 0.8774 0.35242 0.67113 0.0
O427 O 0.86312 0.33895 0.68372 0.0
H428 H 0.84868 0.33441 0.6487 0.0
H429 H 0.84153 0.3197 0.62852 0.0
H430 H 0.81012 0.35056 0.61677 0.0
H431 H 0.81753 0.36522 0.63673 0.0
H432 H 0.81628 0.40869 0.6908 0.0
H433 H 0.83079 0.38852 0.68397 0.0
H434 H 0.8463 0.41863 0.72413 0.0
H435 H 0.86076 0.39869 0.71706 0.0
H436 H 0.89495 0.32206 0.72022 0.0
H437 H 0.92405 0.33493 0.68725 0.0
H438 H 0.90407 0.3424 0.67259 0.0
H439 H 0.87513 0.32997 0.7058 0.0
C440 C 0.14099 0.33196 0.68396 0.0
C441 C 0.13559 0.34045 0.69474 0.0
C442 C 0.11745 0.32255 0.70008 0.0
C443 C 0.12392 0.3358 0.70271 0.0
C444 C 0.12289 0.31418 0.68915 0.0
C445 C 0.13453 0.31885 0.68119 0.0
U446 U 0.17239 0.3571 0.67681 0.0
O447 O 0.19423 0.3524 0.67056 0.0
O448 O 0.1808 0.36504 0.65646 0.0
C449 C 0.19284 0.35835 0.65802 0.0
C450 C 0.15346 0.33649 0.67567 0.0
C451 C 0.19746 0.34992 0.64578 0.0
C452 C 0.20203 0.32733 0.63462 0.0
C453 C 0.19702 0.33509 0.64609 0.0
C454 C 0.20769 0.34909 0.62219 0.0
C455 C 0.2075 0.33421 0.62251 0.0
C456 C 0.20276 0.35684 0.63371 0.0
C457 C 0.17813 0.38854 0.70244 0.0
C458 C 0.19862 0.40442 0.70317 0.0
C459 C 0.17931 0.40754 0.7196 0.0
C460 C 0.1721 0.39606 0.71357 0.0
C461 C 0.19275 0.41177 0.71462 0.0
C462 C 0.19138 0.39286 0.69715 0.0
C463 C 0.17058 0.37594 0.69705 0.0
O464 O 0.15221 0.34842 0.66862 0.0
O465 O 0.16574 0.33535 0.68217 0.0
O466 O 0.17721 0.3639 0.69853 0.0
O467 O 0.16419 0.37726 0.68472 0.0
H468 H 0.14043 0.35062 0.69702 0.0
H469 H 0.11994 0.34261 0.7109 0.0
H470 H 0.11838 0.30385 0.68696 0.0
H471 H 0.1386 0.31213 0.67295 0.0
H472 H 0.20188 0.31592 0.63541 0.0
H473 H 0.19296 0.32947 0.65526 0.0
H474 H 0.21158 0.3548 0.613 0.0
H475 H 0.20316 0.36827 0.63322 0.0
H476 H 0.209 0.40732 0.69916 0.0
H477 H 0.17437 0.41307 0.72823 0.0
H478 H 0.16186 0.3929 0.71776 0.0
H479 H 0.19622 0.38716 0.68856 0.0
C480 C 0.1396 0.33657 0.35494 0.0
C481 C 0.13683 0.344 0.34235 0.0
C482 C 0.11663 0.32838 0.33735 0.0
C483 C 0.12544 0.33993 0.33362 0.0
C484 C 0.1194 0.32114 0.35011 0.0
C485 C 0.13076 0.32521 0.3588 0.0
U486 U 0.17222 0.35944 0.36416 0.0
O487 O 0.18021 0.36629 0.385 0.0
O488 O 0.19328 0.35289 0.37161 0.0
C489 C 0.19187 0.35893 0.384 0.0
C490 C 0.15187 0.3402 0.36396 0.0
C491 C 0.19545 0.3501 0.39635 0.0
C492 C 0.19177 0.32919 0.41103 0.0
C493 C 0.18781 0.33767 0.39948 0.0
C494 C 0.21089 0.34562 0.41651 0.0
C495 C 0.20343 0.33302 0.41965 0.0
C496 C 0.20693 0.35405 0.40498 0.0
C497 C 0.18279 0.39118 0.34057 0.0
C498 C 0.20528 0.40059 0.33182 0.0
C499 C 0.18584 0.41641 0.33605 0.0
C500 C 0.1774 0.40494 0.34045 0.0
C501 C 0.19986 0.41438 0.33154 0.0
C502 C 0.19687 0.38915 0.3363 0.0
C503 C 0.17337 0.3791 0.34444 0.0
O504 O 0.16435 0.33833 0.35819 0.0
O505 O 0.15105 0.35211 0.37097 0.0
O506 O 0.16602 0.38042 0.35614 0.0
O507 O 0.17855 0.36638 0.34286 0.0
H508 H 0.14355 0.35283 0.33922 0.0
H509 H 0.12355 0.34584 0.32396 0.0
H510 H 0.11302 0.31206 0.35323 0.0
H511 H 0.13279 0.31931 0.36846 0.0
H512 H 0.18569 0.31965 0.41321 0.0
H513 H 0.17888 0.33447 0.39294 0.0
H514 H 0.22005 0.3488 0.42273 0.0
H515 H 0.21298 0.36359 0.40269 0.0
H516 H 0.21592 0.39853 0.32822 0.0
H517 H 0.18134 0.42687 0.33617 0.0
H518 H 0.16657 0.40682 0.34363 0.0
H519 H 0.20137 0.37868 0.33617 0.0
C520 C 0.1385 0.68054 0.33715 0.0
C521 C 0.13758 0.69517 0.33933 0.0
C522 C 0.11484 0.69563 0.32683 0.0
C523 C 0.12583 0.70265 0.33423 0.0
C524 C 0.11562 0.68089 0.32519 0.0
C525 C 0.12732 0.67346 0.33027 0.0
U526 U 0.17157 0.67232 0.36025 0.0
O527 O 0.17994 0.65149 0.36633 0.0
O528 O 0.19278 0.66599 0.35335 0.0
C529 C 0.19146 0.65317 0.35868 0.0
C530 C 0.15127 0.6725 0.34106 0.0
C531 C 0.19536 0.64121 0.34937 0.0
C532 C 0.20689 0.63223 0.32825 0.0
C533 C 0.2023 0.64358 0.33641 0.0
C534 C 0.19762 0.61584 0.34573 0.0
C535 C 0.20471 0.61819 0.33283 0.0
C536 C 0.19306 0.6272 0.3539 0.0
C537 C 0.18083 0.69513 0.39303 0.0
C538 C 0.20349 0.70203 0.40358 0.0
C539 C 0.18213 0.70269 0.41761 0.0
C540 C 0.17423 0.69784 0.40599 0.0
C541 C 0.19686 0.70503 0.41654 0.0
C542 C 0.19559 0.69711 0.39198 0.0
C543 C 0.17199 0.69111 0.38065 0.0
O544 O 0.16354 0.67903 0.33942 0.0
O545 O 0.15056 0.66494 0.35275 0.0
O546 O 0.16505 0.67901 0.38157 0.0
O547 O 0.17746 0.69342 0.36806 0.0
H548 H 0.14608 0.70086 0.34464 0.0
H549 H 0.12563 0.71399 0.33561 0.0
H550 H 0.10725 0.6751 0.31979 0.0
H551 H 0.12778 0.66218 0.32853 0.0
H552 H 0.21252 0.63451 0.31854 0.0
H553 H 0.20446 0.65421 0.33264 0.0
H554 H 0.1956 0.6052 0.34955 0.0
H555 H 0.18789 0.62499 0.3639 0.0
H556 H 0.21476 0.70385 0.40225 0.0
H557 H 0.17666 0.70463 0.42744 0.0
H558 H 0.16287 0.6964 0.40706 0.0
H559 H 0.20099 0.69512 0.38212 0.0
C560 C 0.83292 0.64177 0.356 0.0
C561 C 0.83255 0.64249 0.34114 0.0
C562 C 0.82368 0.61816 0.33994 0.0
C563 C 0.82794 0.63084 0.33322 0.0
C564 C 0.82435 0.61743 0.35482 0.0
C565 C 0.82888 0.62911 0.36274 0.0
U566 U 0.85647 0.67422 0.36436 0.0
O567 O 0.85039 0.69536 0.3715 0.0
O568 O 0.86392 0.6822 0.38499 0.0
C569 C 0.85662 0.69389 0.38389 0.0
C570 C 0.83695 0.65416 0.36467 0.0
C571 C 0.84791 0.69751 0.39623 0.0
C572 C 0.82743 0.69344 0.41133 0.0
C573 C 0.83584 0.68949 0.39986 0.0
C574 C 0.84318 0.71335 0.41575 0.0
C575 C 0.83094 0.70549 0.41938 0.0
C576 C 0.85156 0.70939 0.4043 0.0
C577 C 0.88789 0.68308 0.33956 0.0
C578 C 0.90453 0.70269 0.34264 0.0
C579 C 0.90618 0.68771 0.32204 0.0
C580 C 0.89461 0.67968 0.32687 0.0
C581 C 0.9113 0.69935 0.32983 0.0
C582 C 0.89292 0.69461 0.34746 0.0
C583 C 0.87561 0.67447 0.34419 0.0
O584 O 0.84897 0.65326 0.37171 0.0
O585 O 0.83505 0.66664 0.35884 0.0
O586 O 0.86315 0.68041 0.34288 0.0
O587 O 0.87713 0.66753 0.35618 0.0
H588 H 0.83563 0.65212 0.33565 0.0
H589 H 0.8274 0.63193 0.32181 0.0
H590 H 0.82141 0.60781 0.36039 0.0
H591 H 0.82911 0.6283 0.37418 0.0
H592 H 0.81818 0.68705 0.4139 0.0
H593 H 0.83287 0.68026 0.39375 0.0
H594 H 0.84611 0.72279 0.42152 0.0
H595 H 0.86081 0.71574 0.40161 0.0
H596 H 0.90825 0.71148 0.34899 0.0
H597 H 0.91091 0.68495 0.31203 0.0
H598 H 0.89084 0.67084 0.3206 0.0
H599 H 0.88786 0.69739 0.35731 0.0
C600 C 0.85264 0.38889 0.33663 0.0
C601 C 0.84188 0.39445 0.34506 0.0
C602 C 0.8369 0.41239 0.32704 0.0
C603 C 0.8341 0.4061 0.34032 0.0
C604 C 0.84778 0.40677 0.31871 0.0
C605 C 0.85555 0.39516 0.32347 0.0
U606 U 0.85938 0.35732 0.36149 0.0
O607 O 0.86583 0.33573 0.35633 0.0
O608 O 0.87958 0.34902 0.36966 0.0
C609 C 0.87802 0.33693 0.36305 0.0
C610 C 0.86079 0.37647 0.34122 0.0
C611 C 0.89056 0.33167 0.35556 0.0
C612 C 0.90571 0.33046 0.33483 0.0
C613 C 0.89415 0.33634 0.34189 0.0
C614 C 0.91032 0.31546 0.35516 0.0
C615 C 0.91382 0.31979 0.34132 0.0
C616 C 0.89883 0.32134 0.36218 0.0
C617 C 0.83448 0.34966 0.39286 0.0
C618 C 0.8287 0.32708 0.40407 0.0
C619 C 0.8252 0.3488 0.41688 0.0
C620 C 0.83022 0.35655 0.40521 0.0
C621 C 0.82425 0.33395 0.41644 0.0
C622 C 0.83381 0.33483 0.39245 0.0
C623 C 0.83911 0.35814 0.38046 0.0
O624 O 0.86762 0.37765 0.35333 0.0
O625 O 0.85429 0.3642 0.33976 0.0
O626 O 0.83757 0.35219 0.368 0.0
O627 O 0.8512 0.36507 0.38184 0.0
H628 H 0.83948 0.38975 0.35527 0.0
H629 H 0.82592 0.4102 0.3471 0.0
H630 H 0.8501 0.41113 0.30835 0.0
H631 H 0.86377 0.39097 0.31678 0.0
H632 H 0.90804 0.33396 0.32415 0.0
H633 H 0.88788 0.34432 0.33661 0.0
H634 H 0.91645 0.30746 0.36057 0.0
H635 H 0.89627 0.31765 0.37275 0.0
H636 H 0.82795 0.3157 0.40319 0.0
H637 H 0.82212 0.35448 0.42625 0.0
H638 H 0.83068 0.36797 0.4058 0.0
H639 H 0.83704 0.32922 0.38307 0.0
C640 C 0.68247 0.13871 0.70097 0.0
C641 C 0.69467 0.1355 0.69325 0.0
C642 C 0.69957 0.11566 0.70916 0.0
C643 C 0.70315 0.12408 0.69731 0.0
C644 C 0.68724 0.11892 0.71674 0.0
C645 C 0.6788 0.13031 0.71268 0.0
U646 U 0.67277 0.17075 0.67763 0.0
O647 O 0.65168 0.17811 0.67094 0.0
O648 O 0.66535 0.19169 0.68404 0.0
C649 C 0.65283 0.18994 0.67808 0.0
C650 C 0.67355 0.15087 0.6972 0.0
C651 C 0.64055 0.19367 0.68683 0.0
C652 C 0.6259 0.19056 0.70778 0.0
C653 C 0.63741 0.18645 0.69947 0.0
C654 C 0.62049 0.209 0.69078 0.0
C655 C 0.61731 0.20195 0.70356 0.0
C656 C 0.63197 0.20489 0.68252 0.0
C657 C 0.69568 0.18053 0.64529 0.0
C658 C 0.69219 0.20141 0.63059 0.0
C659 C 0.71098 0.18517 0.62511 0.0
C660 C 0.70701 0.1767 0.63665 0.0
C661 C 0.70368 0.19769 0.62194 0.0
C662 C 0.68822 0.1929 0.64215 0.0
C663 C 0.69207 0.17161 0.65764 0.0
O664 O 0.6795 0.16339 0.69874 0.0
O665 O 0.66614 0.14971 0.68543 0.0
O666 O 0.68025 0.16418 0.65665 0.0
O667 O 0.69381 0.17754 0.67007 0.0
H668 H 0.69767 0.14187 0.68415 0.0
H669 H 0.71247 0.12182 0.69113 0.0
H670 H 0.68425 0.11287 0.72604 0.0
H671 H 0.66945 0.13266 0.71881 0.0
H672 H 0.6237 0.18479 0.71747 0.0
H673 H 0.64391 0.17773 0.70295 0.0
H674 H 0.61431 0.21794 0.68729 0.0
H675 H 0.63426 0.21062 0.67282 0.0
H676 H 0.68623 0.21088 0.6284 0.0
H677 H 0.72001 0.18207 0.61889 0.0
H678 H 0.71293 0.16722 0.63894 0.0
H679 H 0.67941 0.19601 0.64869 0.0
C680 C 0.33228 0.17551 0.64377 0.0
C681 C 0.33793 0.18848 0.63904 0.0
C682 C 0.31961 0.18987 0.62074 0.0
C683 C 0.33166 0.19559 0.62759 0.0
C684 C 0.31423 0.17671 0.62538 0.0
C685 C 0.3205 0.16962 0.63678 0.0
U686 U 0.35947 0.17125 0.674 0.0
O687 O 0.35568 0.16531 0.69623 0.0
O688 O 0.3686 0.15179 0.68283 0.0
C689 C 0.36219 0.15319 0.69505 0.0
C690 C 0.33812 0.16816 0.65623 0.0
C691 C 0.35407 0.14075 0.70004 0.0
C692 C 0.3349 0.12361 0.69704 0.0
C693 C 0.34291 0.13508 0.69192 0.0
C694 C 0.34921 0.12328 0.7184 0.0
C695 C 0.33786 0.11763 0.71042 0.0
C696 C 0.35722 0.13473 0.71326 0.0
C697 C 0.39012 0.19815 0.67821 0.0
C698 C 0.40619 0.19894 0.69843 0.0
C699 C 0.40917 0.21564 0.67911 0.0
C700 C 0.39758 0.2095 0.67209 0.0
C701 C 0.41353 0.21057 0.69246 0.0
C702 C 0.39456 0.1928 0.69137 0.0
C703 C 0.37751 0.19242 0.67089 0.0
O704 O 0.35042 0.16206 0.65452 0.0
O705 O 0.33721 0.17497 0.66826 0.0
O706 O 0.3655 0.19342 0.67778 0.0
O707 O 0.37902 0.18015 0.66469 0.0
H708 H 0.34702 0.19319 0.64435 0.0
H709 H 0.336 0.20575 0.62439 0.0
H710 H 0.30511 0.17188 0.62023 0.0
H711 H 0.31603 0.1596 0.64026 0.0
H712 H 0.32638 0.11943 0.69052 0.0
H713 H 0.34032 0.1396 0.68168 0.0
H714 H 0.35168 0.11911 0.72881 0.0
H715 H 0.36576 0.13903 0.7197 0.0
H716 H 0.40917 0.19485 0.70874 0.0
H717 H 0.41469 0.22442 0.67409 0.0
H718 H 0.39433 0.21373 0.66191 0.0
H719 H 0.3889 0.18404 0.69627 0.0
C720 C 0.33059 0.85465 0.64431 0.0
C721 C 0.33497 0.84089 0.64122 0.0
C722 C 0.31881 0.84003 0.62092 0.0
C723 C 0.32915 0.83365 0.62959 0.0
C724 C 0.3148 0.85396 0.6239 0.0
C725 C 0.32063 0.86116 0.63546 0.0
U726 U 0.35573 0.86126 0.67637 0.0
O727 O 0.3634 0.8817 0.68464 0.0
O728 O 0.34998 0.86795 0.69783 0.0
C729 C 0.35625 0.88036 0.69648 0.0
C730 C 0.33568 0.8623 0.65694 0.0
C731 C 0.34767 0.89258 0.7005 0.0
C732 C 0.32679 0.90717 0.69764 0.0
C733 C 0.33504 0.89579 0.69331 0.0
C734 C 0.34382 0.91237 0.71623 0.0
C735 C 0.33103 0.91557 0.70922 0.0
C736 C 0.35203 0.90099 0.7119 0.0
C737 C 0.38723 0.83732 0.68487 0.0
C738 C 0.4026 0.84073 0.70538 0.0
C739 C 0.40646 0.82108 0.68965 0.0
C740 C 0.39501 0.82538 0.68126 0.0
C741 C 0.41039 0.82865 0.70187 0.0
C742 C 0.39113 0.84503 0.69696 0.0
C743 C 0.37497 0.8414 0.67607 0.0
O744 O 0.3342 0.85569 0.66913 0.0
O745 O 0.34787 0.86907 0.65578 0.0
O746 O 0.3763 0.85339 0.66908 0.0
O747 O 0.36249 0.83978 0.68203 0.0
H748 H 0.34267 0.83568 0.64795 0.0
H749 H 0.33241 0.82291 0.62766 0.0
H750 H 0.30707 0.85929 0.61734 0.0
H751 H 0.31715 0.87179 0.63764 0.0
H752 H 0.3171 0.90941 0.6919 0.0
H753 H 0.33152 0.88942 0.68444 0.0
H754 H 0.34732 0.91843 0.7253 0.0
H755 H 0.36172 0.89864 0.71761 0.0
H756 H 0.40539 0.84691 0.71461 0.0
H757 H 0.41203 0.81161 0.68672 0.0
H758 H 0.39212 0.81927 0.672 0.0
H759 H 0.38525 0.85431 0.69991 0.0
C760 C 0.6395 0.83332 0.68291 0.0
C761 C 0.63415 0.84173 0.69377 0.0
C762 C 0.6157 0.82404 0.6987 0.0
C763 C 0.62234 0.83714 0.70158 0.0
C764 C 0.6211 0.81574 0.6877 0.0
C765 C 0.63287 0.82035 0.6799 0.0
U766 U 0.6714 0.85801 0.67602 0.0
O767 O 0.69309 0.85272 0.66966 0.0
O768 O 0.67996 0.86585 0.65575 0.0
C769 C 0.69185 0.85889 0.65722 0.0
C770 C 0.65209 0.83775 0.67477 0.0
C771 C 0.69605 0.85032 0.645 0.0
C772 C 0.69337 0.8294 0.63034 0.0
C773 C 0.68895 0.83762 0.64175 0.0
C774 C 0.7119 0.84658 0.6252 0.0
C775 C 0.70496 0.83373 0.62195 0.0
C776 C 0.70748 0.85477 0.63661 0.0
C777 C 0.67772 0.88941 0.70165 0.0
C778 C 0.69876 0.90453 0.70313 0.0
C779 C 0.67855 0.9091 0.71805 0.0
C780 C 0.6713 0.89764 0.71202 0.0
C781 C 0.69245 0.9126 0.71383 0.0
C782 C 0.69146 0.893 0.69711 0.0
C783 C 0.67001 0.87689 0.69628 0.0
O784 O 0.65106 0.84975 0.6678 0.0
O785 O 0.66431 0.83638 0.68134 0.0
O786 O 0.67645 0.86474 0.69773 0.0
O787 O 0.66357 0.8783 0.68399 0.0
H788 H 0.63913 0.85179 0.69625 0.0
H789 H 0.6184 0.84389 0.70985 0.0
H790 H 0.61645 0.80551 0.68531 0.0
H791 H 0.6369 0.81369 0.67159 0.0
H792 H 0.68767 0.81966 0.62807 0.0
H793 H 0.68005 0.83403 0.64809 0.0
H794 H 0.72098 0.85017 0.61914 0.0
H795 H 0.71312 0.86452 0.63898 0.0
H796 H 0.70947 0.90686 0.6997 0.0
H797 H 0.67327 0.91519 0.72607 0.0
H798 H 0.66068 0.89506 0.71564 0.0
H799 H 0.69661 0.88676 0.68911 0.0
C800 C 0.63977 0.83598 0.35588 0.0
C801 C 0.63702 0.8427 0.3429 0.0
C802 C 0.61687 0.8268 0.33869 0.0
C803 C 0.62568 0.83814 0.33437 0.0
C804 C 0.61957 0.8203 0.35186 0.0
C805 C 0.63091 0.82485 0.36035 0.0
U806 U 0.672 0.85974 0.36394 0.0
O807 O 0.68033 0.86735 0.38437 0.0
O808 O 0.69341 0.8539 0.37103 0.0
C809 C 0.69218 0.86031 0.38325 0.0
C810 C 0.65209 0.84006 0.36465 0.0
C811 C 0.69646 0.85204 0.39576 0.0
C812 C 0.69269 0.83278 0.41252 0.0
C813 C 0.68813 0.84073 0.40083 0.0
C814 C 0.71385 0.84745 0.41424 0.0
C815 C 0.70566 0.83599 0.41933 0.0
C816 C 0.70928 0.85538 0.40258 0.0
C817 C 0.68151 0.89096 0.33938 0.0
C818 C 0.70375 0.90044 0.3301 0.0
C819 C 0.6843 0.91617 0.3346 0.0
C820 C 0.67602 0.90468 0.33924 0.0
C821 C 0.69825 0.9142 0.32986 0.0
C822 C 0.69551 0.88898 0.33482 0.0
C823 C 0.67232 0.87886 0.34367 0.0
O824 O 0.66452 0.8383 0.35875 0.0
O825 O 0.65114 0.85213 0.37137 0.0
O826 O 0.66518 0.88034 0.35547 0.0
O827 O 0.67766 0.86618 0.3423 0.0
H828 H 0.64375 0.85134 0.33929 0.0
H829 H 0.62382 0.8435 0.32438 0.0
H830 H 0.61317 0.81142 0.35545 0.0
H831 H 0.63292 0.8195 0.37032 0.0
H832 H 0.68603 0.82414 0.41623 0.0
H833 H 0.67818 0.83802 0.39568 0.0
H834 H 0.72399 0.8501 0.41903 0.0
H835 H 0.71587 0.86404 0.39877 0.0
H836 H 0.71434 0.89842 0.3263 0.0
H837 H 0.67974 0.92661 0.33474 0.0
H838 H 0.66525 0.90652 0.34264 0.0
H839 H 0.70008 0.87855 0.33469 0.0
C840 C 0.63964 0.18183 0.33694 0.0
C841 C 0.6411 0.19653 0.3352 0.0
C842 C 0.61649 0.19815 0.32716 0.0
C843 C 0.62968 0.20458 0.33034 0.0
C844 C 0.61501 0.18346 0.32923 0.0
C845 C 0.62646 0.17541 0.33401 0.0
U846 U 0.67189 0.17217 0.36039 0.0
O847 O 0.67899 0.15117 0.36753 0.0
O848 O 0.69278 0.16441 0.35413 0.0
C849 C 0.69088 0.15208 0.36038 0.0
C850 C 0.6518 0.17287 0.341 0.0
C851 C 0.69491 0.13951 0.35224 0.0
C852 C 0.69837 0.12719 0.32999 0.0
C853 C 0.69307 0.13871 0.3375 0.0
C854 C 0.70691 0.11694 0.35192 0.0
C855 C 0.70563 0.11631 0.33709 0.0
C856 C 0.70162 0.12841 0.35939 0.0
C857 C 0.68255 0.19525 0.39243 0.0
C858 C 0.70481 0.20419 0.40237 0.0
C859 C 0.68502 0.1991 0.41783 0.0
C860 C 0.67686 0.19486 0.40614 0.0
C861 C 0.69908 0.20397 0.41611 0.0
C862 C 0.69667 0.19989 0.39069 0.0
C863 C 0.67337 0.19164 0.3801 0.0
O864 O 0.66454 0.17835 0.33915 0.0
O865 O 0.65057 0.16572 0.35291 0.0
O866 O 0.66553 0.18011 0.38129 0.0
O867 O 0.67893 0.19323 0.36744 0.0
H868 H 0.65114 0.2018 0.33735 0.0
H869 H 0.63135 0.2158 0.32872 0.0
H870 H 0.605 0.17814 0.32715 0.0
H871 H 0.62505 0.1641 0.33526 0.0
H872 H 0.69727 0.12709 0.31857 0.0
H873 H 0.6879 0.14715 0.33176 0.0
H874 H 0.7122 0.10865 0.35777 0.0
H875 H 0.70311 0.12879 0.37076 0.0
H876 H 0.7155 0.20807 0.40054 0.0
H877 H 0.68028 0.19857 0.42823 0.0
H878 H 0.666 0.19142 0.40781 0.0
H879 H 0.7014 0.20044 0.38028 0.0
C880 C 0.33491 0.14076 0.3558 0.0
C881 C 0.34223 0.13782 0.34329 0.0
C882 C 0.32662 0.11751 0.33883 0.0
C883 C 0.33812 0.12631 0.33488 0.0
C884 C 0.31947 0.12044 0.3515 0.0
C885 C 0.32358 0.13195 0.35988 0.0
U886 U 0.35834 0.17306 0.36433 0.0
O887 O 0.35226 0.19434 0.3711 0.0
O888 O 0.36557 0.18129 0.38493 0.0
C889 C 0.35851 0.19311 0.3835 0.0
C890 C 0.33867 0.15311 0.36453 0.0
C891 C 0.35007 0.19742 0.39579 0.0
C892 C 0.33089 0.19353 0.41253 0.0
C893 C 0.33892 0.18897 0.40101 0.0
C894 C 0.34513 0.21496 0.41373 0.0
C895 C 0.33384 0.20663 0.419 0.0
C896 C 0.35314 0.21039 0.40225 0.0
C897 C 0.39009 0.1821 0.34046 0.0
C898 C 0.40438 0.20354 0.34271 0.0
C899 C 0.41012 0.18632 0.32486 0.0
C900 C 0.39877 0.1778 0.32934 0.0
C901 C 0.41303 0.19936 0.3314 0.0
C902 C 0.39302 0.19498 0.34721 0.0
C903 C 0.37787 0.17318 0.34457 0.0
O904 O 0.35058 0.15226 0.37176 0.0
O905 O 0.337 0.16548 0.35839 0.0
O906 O 0.36537 0.17895 0.34291 0.0
O907 O 0.37913 0.16623 0.35658 0.0
H908 H 0.35104 0.14449 0.33999 0.0
H909 H 0.34397 0.12429 0.32529 0.0
H910 H 0.31045 0.11407 0.35479 0.0
H911 H 0.31776 0.13408 0.36948 0.0
H912 H 0.32239 0.18676 0.41638 0.0
H913 H 0.33641 0.1789 0.39616 0.0
H914 H 0.34758 0.22519 0.41823 0.0
H915 H 0.36167 0.21708 0.39832 0.0
H916 H 0.4064 0.21343 0.3481 0.0
H917 H 0.41638 0.18284 0.31599 0.0
H918 H 0.39663 0.16791 0.32398 0.0
H919 H 0.38644 0.19845 0.35585 0.0
C920 C 0.35055 0.88874 0.33851 0.0
C921 C 0.33809 0.89177 0.34589 0.0
C922 C 0.33372 0.91198 0.33029 0.0
C923 C 0.32974 0.90328 0.34181 0.0
C924 C 0.34634 0.90893 0.32308 0.0
C925 C 0.35464 0.89744 0.32716 0.0
U926 U 0.35977 0.85663 0.3619 0.0
O927 O 0.36677 0.8355 0.35571 0.0
O928 O 0.38079 0.84896 0.3686 0.0
C929 C 0.37943 0.83717 0.36142 0.0
C930 C 0.35931 0.87647 0.34227 0.0
C931 C 0.39169 0.83313 0.35266 0.0
C932 C 0.4022 0.82746 0.32993 0.0
C933 C 0.39075 0.83233 0.33784 0.0
C934 C 0.41586 0.82446 0.35147 0.0
C935 C 0.41489 0.82333 0.33664 0.0
C936 C 0.40438 0.82926 0.35936 0.0
C937 C 0.33666 0.84735 0.39421 0.0
C938 C 0.34032 0.82686 0.40941 0.0
C939 C 0.32077 0.84253 0.41387 0.0
C940 C 0.32488 0.85093 0.40234 0.0
C941 C 0.32839 0.83033 0.41755 0.0
C942 C 0.34442 0.8353 0.39784 0.0
C943 C 0.34044 0.85619 0.38187 0.0
O944 O 0.36674 0.87754 0.35403 0.0
O945 O 0.35318 0.86402 0.34076 0.0
O946 O 0.3386 0.85026 0.36945 0.0
O947 O 0.35241 0.86339 0.38285 0.0
H948 H 0.33478 0.88519 0.35472 0.0
H949 H 0.3202 0.90538 0.34771 0.0
H950 H 0.34964 0.91521 0.31403 0.0
H951 H 0.3642 0.89524 0.3213 0.0
H952 H 0.40094 0.82658 0.31857 0.0
H953 H 0.38109 0.83523 0.33236 0.0
H954 H 0.4255 0.82163 0.35701 0.0
H955 H 0.40537 0.82979 0.37078 0.0
H956 H 0.34652 0.81764 0.41199 0.0
H957 H 0.31141 0.84542 0.4197 0.0
H958 H 0.31872 0.86016 0.39965 0.0
H959 H 0.35357 0.83238 0.39168 0.0
C960 C 0.68311 0.63958 0.20125 0.0
C961 C 0.69527 0.63638 0.19345 0.0
C962 C 0.70027 0.61656 0.20933 0.0
C963 C 0.70378 0.62498 0.19746 0.0
C964 C 0.68798 0.6198 0.21699 0.0
C965 C 0.67951 0.63118 0.21298 0.0
U966 U 0.674 0.67153 0.17783 0.0
O967 O 0.65315 0.67918 0.17076 0.0
O968 O 0.66684 0.69264 0.18396 0.0
C969 C 0.65436 0.69102 0.17789 0.0
C970 C 0.67422 0.65175 0.1975 0.0
C971 C 0.64205 0.69487 0.18656 0.0
C972 C 0.62723 0.69184 0.2074 0.0
C973 C 0.63873 0.68762 0.19913 0.0
C974 C 0.62218 0.71046 0.19051 0.0
C975 C 0.61884 0.70338 0.20323 0.0
C976 C 0.63365 0.70625 0.18228 0.0
C977 C 0.69812 0.68029 0.14589 0.0
C978 C 0.69394 0.6988 0.12842 0.0
C979 C 0.7159 0.68584 0.12808 0.0
C980 C 0.71135 0.67786 0.13976 0.0
C981 C 0.70728 0.69644 0.12225 0.0
C982 C 0.68941 0.6908 0.14015 0.0
C983 C 0.69378 0.67178 0.15828 0.0
O984 O 0.68023 0.66424 0.1991 0.0
O985 O 0.66693 0.65065 0.18566 0.0
O986 O 0.68178 0.66466 0.15708 0.0
O987 O 0.69533 0.67789 0.17065 0.0
H988 H 0.6982 0.64274 0.18433 0.0
H989 H 0.71306 0.62272 0.19122 0.0
H990 H 0.68506 0.61374 0.22631 0.0
H991 H 0.6702 0.63353 0.21916 0.0
H992 H 0.6249 0.68603 0.21704 0.0
H993 H 0.64508 0.67878 0.20259 0.0
H994 H 0.61616 0.71952 0.18705 0.0
H995 H 0.63609 0.71201 0.17263 0.0
H996 H 0.68695 0.70676 0.12415 0.0
H997 H 0.72632 0.68387 0.12383 0.0
H998 H 0.71825 0.66984 0.14408 0.0
H999 H 0.67914 0.69282 0.14474 0.0
C1000 C 0.33476 0.67689 0.14469 0.0
C1001 C 0.34274 0.68822 0.13917 0.0
C1002 C 0.32419 0.69293 0.12169 0.0
C1003 C 0.33752 0.69615 0.12776 0.0
C1004 C 0.31636 0.6814 0.12719 0.0
C1005 C 0.3216 0.67347 0.13858 0.0
U1006 U 0.36113 0.67137 0.17496 0.0
O1007 O 0.35743 0.66533 0.19716 0.0
O1008 O 0.37022 0.6518 0.18362 0.0
C1009 C 0.36411 0.65331 0.19598 0.0
C1010 C 0.33984 0.66882 0.15705 0.0
C1011 C 0.35658 0.64078 0.20161 0.0
C1012 C 0.33644 0.62446 0.20167 0.0
C1013 C 0.34371 0.63603 0.19568 0.0
C1014 C 0.35495 0.62219 0.21938 0.0
C1015 C 0.3419 0.6175 0.21371 0.0
C1016 C 0.36219 0.63371 0.21339 0.0
C1017 C 0.39189 0.69826 0.17914 0.0
C1018 C 0.4079 0.69937 0.19939 0.0
C1019 C 0.41099 0.7157 0.17978 0.0
C1020 C 0.39942 0.70946 0.17283 0.0
C1021 C 0.41529 0.71087 0.19324 0.0
C1022 C 0.39628 0.69313 0.19241 0.0
C1023 C 0.37923 0.69251 0.1719 0.0
O1024 O 0.35199 0.66238 0.15546 0.0
O1025 O 0.33888 0.67533 0.16925 0.0
O1026 O 0.36727 0.69349 0.17886 0.0
O1027 O 0.38071 0.68025 0.16566 0.0
H1028 H 0.35294 0.69101 0.14376 0.0
H1029 H 0.34393 0.70483 0.1237 0.0
H1030 H 0.30598 0.67873 0.12296 0.0
H1031 H 0.31527 0.66479 0.14276 0.0
H1032 H 0.32636 0.62123 0.19712 0.0
H1033 H 0.3392 0.6414 0.18659 0.0
H1034 H 0.35957 0.61697 0.2285 0.0
H1035 H 0.37214 0.63721 0.21807 0.0
H1036 H 0.41083 0.69547 0.20979 0.0
H1037 H 0.41655 0.72437 0.17462 0.0
H1038 H 0.39621 0.71352 0.16257 0.0
H1039 H 0.39056 0.68448 0.19745 0.0
C1040 C 0.33046 0.35447 0.14488 0.0
C1041 C 0.33524 0.341 0.14122 0.0
C1042 C 0.31827 0.34001 0.1216 0.0
C1043 C 0.32922 0.33384 0.12965 0.0
C1044 C 0.31381 0.35365 0.12517 0.0
C1045 C 0.31984 0.36078 0.13668 0.0
U1046 U 0.35657 0.35999 0.17615 0.0
O1047 O 0.36516 0.38001 0.18457 0.0
O1048 O 0.35178 0.36639 0.19794 0.0
C1049 C 0.35828 0.37868 0.19658 0.0
C1050 C 0.33592 0.36199 0.15743 0.0
C1051 C 0.35002 0.39104 0.2009 0.0
C1052 C 0.32963 0.40634 0.19819 0.0
C1053 C 0.33757 0.3948 0.19369 0.0
C1054 C 0.34661 0.4106 0.21705 0.0
C1055 C 0.33401 0.41437 0.20999 0.0
C1056 C 0.35451 0.39906 0.21255 0.0
C1057 C 0.38743 0.33378 0.18179 0.0
C1058 C 0.40348 0.33292 0.20205 0.0
C1059 C 0.40629 0.31655 0.18272 0.0
C1060 C 0.3948 0.32263 0.17568 0.0
C1061 C 0.4107 0.32148 0.19608 0.0
C1062 C 0.3919 0.33901 0.19497 0.0
C1063 C 0.3749 0.33937 0.17431 0.0
O1064 O 0.33462 0.35527 0.16958 0.0
O1065 O 0.34824 0.36848 0.15602 0.0
O1066 O 0.37656 0.35162 0.16786 0.0
O1067 O 0.36276 0.33816 0.18099 0.0
H1068 H 0.34344 0.33596 0.14745 0.0
H1069 H 0.33283 0.32331 0.12728 0.0
H1070 H 0.30559 0.35883 0.11909 0.0
H1071 H 0.31605 0.37119 0.13931 0.0
H1072 H 0.3201 0.40901 0.19239 0.0
H1073 H 0.33395 0.38876 0.18463 0.0
H1074 H 0.35021 0.41636 0.22629 0.0
H1075 H 0.36407 0.39629 0.21828 0.0
H1076 H 0.40651 0.33692 0.21236 0.0
H1077 H 0.41172 0.30793 0.17769 0.0
H1078 H 0.39154 0.31849 0.16548 0.0
H1079 H 0.38633 0.34762 0.19987 0.0
C1080 C 0.64118 0.33444 0.18365 0.0
C1081 C 0.64267 0.33142 0.19817 0.0
C1082 C 0.61742 0.32571 0.19997 0.0
C1083 C 0.63096 0.32707 0.2062 0.0
C1084 C 0.61594 0.32891 0.18546 0.0
C1085 C 0.62769 0.33317 0.1774 0.0
U1086 U 0.67288 0.35877 0.17518 0.0
O1087 O 0.69455 0.35373 0.16854 0.0
O1088 O 0.68102 0.36655 0.15472 0.0
C1089 C 0.69311 0.35992 0.15613 0.0
C1090 C 0.65354 0.33855 0.17481 0.0
C1091 C 0.69764 0.35158 0.14386 0.0
C1092 C 0.69448 0.33187 0.12769 0.0
C1093 C 0.68969 0.3399 0.13909 0.0
C1094 C 0.71514 0.34718 0.12564 0.0
C1095 C 0.70733 0.33534 0.12086 0.0
C1096 C 0.71033 0.35519 0.13701 0.0
C1097 C 0.67899 0.39031 0.2008 0.0
C1098 C 0.69997 0.40539 0.20299 0.0
C1099 C 0.67912 0.41021 0.21691 0.0
C1100 C 0.67211 0.3987 0.21072 0.0
C1101 C 0.69321 0.41359 0.2133 0.0
C1102 C 0.69293 0.39381 0.19681 0.0
C1103 C 0.67153 0.37767 0.1954 0.0
O1104 O 0.65233 0.35034 0.16749 0.0
O1105 O 0.66615 0.3371 0.18061 0.0
O1106 O 0.6782 0.36563 0.19677 0.0
O1107 O 0.66496 0.37901 0.18317 0.0
H1108 H 0.65292 0.33226 0.20335 0.0
H1109 H 0.63263 0.32448 0.21726 0.0
H1110 H 0.60568 0.3282 0.18029 0.0
H1111 H 0.62623 0.33543 0.16624 0.0
H1112 H 0.68809 0.32295 0.12422 0.0
H1113 H 0.67984 0.33696 0.14424 0.0
H1114 H 0.72517 0.35006 0.12084 0.0
H1115 H 0.71665 0.36413 0.14058 0.0
H1116 H 0.71085 0.40765 0.20005 0.0
H1117 H 0.67351 0.41642 0.22462 0.0
H1118 H 0.66134 0.3962 0.2139 0.0
H1119 H 0.69842 0.38743 0.18916 0.0
C1120 C 0.63953 0.33607 0.85289 0.0
C1121 C 0.62555 0.3368 0.85785 0.0
C1122 C 0.61648 0.32643 0.83596 0.0
C1123 C 0.61415 0.3321 0.84947 0.0
C1124 C 0.6305 0.32587 0.83095 0.0
C1125 C 0.64187 0.33063 0.83929 0.0
U1126 U 0.67142 0.35976 0.86352 0.0
O1127 O 0.67849 0.36663 0.88468 0.0
O1128 O 0.6924 0.35375 0.87161 0.0
C1129 C 0.69039 0.35959 0.884 0.0
C1130 C 0.65152 0.34011 0.86234 0.0
C1131 C 0.6938 0.3507 0.89637 0.0
C1132 C 0.69075 0.32914 0.91021 0.0
C1133 C 0.68681 0.33773 0.89874 0.0
C1134 C 0.70848 0.34653 0.91714 0.0
C1135 C 0.70172 0.33339 0.9195 0.0
C1136 C 0.70455 0.35508 0.90569 0.0
C1137 C 0.68184 0.39185 0.84017 0.0
C1138 C 0.704 0.40189 0.83128 0.0
C1139 C 0.68415 0.41716 0.83567 0.0
C1140 C 0.67607 0.40546 0.84012 0.0
C1141 C 0.69819 0.41552 0.83102 0.0
C1142 C 0.69595 0.39022 0.83581 0.0
C1143 C 0.67272 0.37949 0.84387 0.0
O1144 O 0.66437 0.33846 0.85734 0.0
O1145 O 0.65015 0.35188 0.86951 0.0
O1146 O 0.66499 0.3806 0.85534 0.0
O1147 O 0.67831 0.36693 0.84246 0.0
H1148 H 0.62342 0.34084 0.86832 0.0
H1149 H 0.60352 0.33287 0.85363 0.0
H1150 H 0.63277 0.32136 0.82072 0.0
H1151 H 0.6525 0.32978 0.83515 0.0
H1152 H 0.68521 0.31917 0.91178 0.0
H1153 H 0.67845 0.3342 0.89165 0.0
H1154 H 0.71711 0.35005 0.92391 0.0
H1155 H 0.7101 0.36503 0.90398 0.0
H1156 H 0.71467 0.40013 0.82757 0.0
H1157 H 0.67935 0.42748 0.83582 0.0
H1158 H 0.6652 0.40703 0.84335 0.0
H1159 H 0.70073 0.37988 0.8356 0.0
C1160 C 0.63728 0.68317 0.83732 0.0
C1161 C 0.63414 0.69531 0.84509 0.0
C1162 C 0.61374 0.69989 0.82974 0.0
C1163 C 0.62248 0.70361 0.84133 0.0
C1164 C 0.61691 0.68759 0.82214 0.0
C1165 C 0.62855 0.67934 0.8259 0.0
U1166 U 0.67004 0.67377 0.85986 0.0
O1167 O 0.67817 0.65275 0.86563 0.0
O1168 O 0.6912 0.66732 0.85291 0.0
C1169 C 0.68972 0.65443 0.85803 0.0
C1170 C 0.64976 0.67454 0.84066 0.0
C1171 C 0.69348 0.64259 0.84853 0.0
C1172 C 0.70429 0.63385 0.82694 0.0
C1173 C 0.69985 0.6451 0.83531 0.0
C1174 C 0.69599 0.61727 0.84472 0.0
C1175 C 0.70251 0.61977 0.83156 0.0
C1176 C 0.69158 0.62854 0.85311 0.0
C1177 C 0.67961 0.69613 0.89286 0.0
C1178 C 0.70237 0.7027 0.90339 0.0
C1179 C 0.68104 0.70362 0.91745 0.0
C1180 C 0.67306 0.69889 0.90583 0.0
C1181 C 0.69579 0.70579 0.91635 0.0
C1182 C 0.69438 0.6979 0.89179 0.0
C1183 C 0.67069 0.69232 0.88047 0.0
O1184 O 0.66213 0.68088 0.8391 0.0
O1185 O 0.64898 0.66682 0.85224 0.0
O1186 O 0.66364 0.68027 0.88127 0.0
O1187 O 0.67617 0.69471 0.8679 0.0
H1188 H 0.64077 0.69842 0.85397 0.0
H1189 H 0.62029 0.71291 0.84751 0.0
H1190 H 0.6106 0.68451 0.81303 0.0
H1191 H 0.63084 0.67004 0.81975 0.0
H1192 H 0.7095 0.63625 0.81701 0.0
H1193 H 0.70167 0.65578 0.83149 0.0
H1194 H 0.69428 0.6066 0.84857 0.0
H1195 H 0.68684 0.62623 0.8633 0.0
H1196 H 0.71365 0.70439 0.90204 0.0
H1197 H 0.67561 0.70563 0.92729 0.0
H1198 H 0.66169 0.69761 0.90692 0.0
H1199 H 0.69974 0.69587 0.88192 0.0
C1200 C 0.33271 0.63986 0.85715 0.0
C1201 C 0.34119 0.63469 0.84623 0.0
C1202 C 0.3235 0.61632 0.84106 0.0
C1203 C 0.33663 0.62302 0.83827 0.0
C1204 C 0.31513 0.62153 0.85212 0.0
C1205 C 0.31971 0.63317 0.86007 0.0
U1206 U 0.35724 0.67177 0.8641 0.0
O1207 O 0.35183 0.69335 0.87052 0.0
O1208 O 0.36523 0.68034 0.88428 0.0
C1209 C 0.3583 0.69222 0.88282 0.0
C1210 C 0.33708 0.65235 0.8654 0.0
C1211 C 0.35008 0.69673 0.89518 0.0
C1212 C 0.33119 0.69298 0.91229 0.0
C1213 C 0.33909 0.68829 0.90074 0.0
C1214 C 0.34526 0.71455 0.91287 0.0
C1215 C 0.33412 0.70623 0.91847 0.0
C1216 C 0.35313 0.70984 0.90136 0.0
C1217 C 0.38842 0.67939 0.83897 0.0
C1218 C 0.40494 0.69912 0.84176 0.0
C1219 C 0.40647 0.68406 0.82121 0.0
C1220 C 0.39503 0.67595 0.82623 0.0
C1221 C 0.41155 0.69581 0.82886 0.0
C1222 C 0.39347 0.69099 0.84676 0.0
C1223 C 0.37611 0.67092 0.84374 0.0
O1224 O 0.34919 0.65139 0.87228 0.0
O1225 O 0.33554 0.66458 0.85896 0.0
O1226 O 0.36373 0.67699 0.84233 0.0
O1227 O 0.37759 0.66426 0.8559 0.0
H1228 H 0.35127 0.63973 0.84382 0.0
H1229 H 0.34344 0.61922 0.82997 0.0
H1230 H 0.30487 0.61684 0.85445 0.0
H1231 H 0.31299 0.63706 0.86841 0.0
H1232 H 0.32282 0.68621 0.91639 0.0
H1233 H 0.33658 0.67811 0.8961 0.0
H1234 H 0.34769 0.72489 0.91716 0.0
H1235 H 0.36154 0.71653 0.89717 0.0
H1236 H 0.40865 0.70798 0.84802 0.0
H1237 H 0.4111 0.68131 0.81115 0.0
H1238 H 0.39123 0.66707 0.82004 0.0
H1239 H 0.3885 0.69379 0.85664 0.0
C1240 C 0.35265 0.38647 0.83695 0.0
C1241 C 0.33954 0.39045 0.84255 0.0
C1242 C 0.33802 0.40978 0.82533 0.0
C1243 C 0.3323 0.40205 0.8368 0.0
C1244 C 0.35131 0.40587 0.82004 0.0
C1245 C 0.35852 0.39435 0.82579 0.0
U1246 U 0.35936 0.35484 0.86247 0.0
O1247 O 0.36587 0.33334 0.8571 0.0
O1248 O 0.37998 0.34677 0.8699 0.0
C1249 C 0.37846 0.33485 0.86297 0.0
C1250 C 0.36029 0.37394 0.84212 0.0
C1251 C 0.39072 0.33046 0.85441 0.0
C1252 C 0.40155 0.32507 0.83176 0.0
C1253 C 0.3901 0.33011 0.83956 0.0
C1254 C 0.41461 0.32103 0.8535 0.0
C1255 C 0.41394 0.32036 0.83862 0.0
C1256 C 0.40312 0.32598 0.86128 0.0
C1257 C 0.33556 0.34674 0.89442 0.0
C1258 C 0.33904 0.3265 0.91002 0.0
C1259 C 0.31929 0.34209 0.91382 0.0
C1260 C 0.32358 0.35035 0.90223 0.0
C1261 C 0.32691 0.33001 0.91786 0.0
C1262 C 0.34332 0.33479 0.89841 0.0
C1263 C 0.3396 0.35538 0.882 0.0
O1264 O 0.36718 0.3753 0.85418 0.0
O1265 O 0.35358 0.36175 0.84095 0.0
O1266 O 0.33783 0.34928 0.86965 0.0
O1267 O 0.35169 0.36238 0.88304 0.0
H1268 H 0.33484 0.38447 0.85118 0.0
H1269 H 0.32204 0.4047 0.84107 0.0
H1270 H 0.35615 0.41169 0.81138 0.0
H1271 H 0.36865 0.39149 0.82136 0.0
H1272 H 0.40051 0.32456 0.82036 0.0
H1273 H 0.38068 0.33351 0.83396 0.0
H1274 H 0.42402 0.31774 0.85917 0.0
H1275 H 0.40386 0.32619 0.87273 0.0
H1276 H 0.34526 0.31738 0.91288 0.0
H1277 H 0.30978 0.34501 0.91941 0.0
H1278 H 0.31742 0.3595 0.89927 0.0
H1279 H 0.35263 0.33184 0.8925 0.0
H1280 H 0.26885 0.2601 0.97152 0.0
H1281 H 0.28411 0.27737 1.01052 0.0
H1282 H 0.24671 0.25013 1.00965 0.0
H1283 H 0.25126 0.24597 0.03169 0.0
H1284 H 0.25963 0.26933 0.06945 0.0
H1285 H 0.27616 0.28487 0.0303 0.0
C1286 C 0.26808 0.26095 0.98294 0.0
C1287 C 0.25722 0.25363 0.98996 0.0
C1288 C 0.27748 0.26987 0.99025 0.0
C1289 C 0.27626 0.271 1.00505 0.0
C1290 C 0.26529 0.26383 1.01258 0.0
C1291 C 0.25559 0.25541 1.00463 0.0
C1292 C 0.26387 0.26523 0.02851 0.0
C1293 C 0.256 0.25516 0.03661 0.0
C1294 C 0.254 0.2569 0.05126 0.0
C1295 C 0.26062 0.2683 0.05807 0.0
C1296 C 0.26891 0.27811 0.05059 0.0
C1297 C 0.2703 0.27671 0.03586 0.0
H1298 H 0.76507 0.26434 0.06857 0.0
H1299 H 0.77773 0.24638 0.02935 0.0
H1300 H 0.75024 0.28283 0.02991 0.0
H1301 H 0.74403 0.27629 1.00887 0.0
H1302 H 0.76381 0.26604 0.96972 0.0
H1303 H 0.78378 0.25368 1.00847 0.0
C1304 C 0.76469 0.26443 0.05709 0.0
C1305 C 0.75617 0.27422 0.05002 0.0
C1306 C 0.77271 0.25469 0.04963 0.0
C1307 C 0.77195 0.25448 0.03478 0.0
C1308 C 0.76403 0.2647 0.02717 0.0
C1309 C 0.7563 0.27469 0.03512 0.0
C1310 C 0.76389 0.26492 1.01112 0.0
C1311 C 0.75287 0.27164 1.00346 0.0
C1312 C 0.75287 0.27219 0.98858 0.0
C1313 C 0.76378 0.26565 0.9812 0.0
C1314 C 0.77474 0.25876 0.98834 0.0
C1315 C 0.77485 0.25853 1.00323 0.0
H1316 H 0.76946 0.76087 0.96952 0.0
H1317 H 0.7473 0.7512 1.00769 0.0
H1318 H 0.78477 0.77836 1.00837 0.0
H1319 H 0.77734 0.78564 0.02836 0.0
H1320 H 0.76048 0.77038 0.06748 0.0
H1321 H 0.75163 0.74724 0.0297 0.0
C1322 C 0.76869 0.76179 0.98092 0.0
C1323 C 0.7781 0.77073 0.98818 0.0
C1324 C 0.75781 0.75455 0.98799 0.0
C1325 C 0.7562 0.75642 1.00265 0.0
C1326 C 0.76595 0.76484 1.01056 0.0
C1327 C 0.77691 0.77196 1.00297 0.0
C1328 C 0.7646 0.76627 0.02651 0.0
C1329 C 0.77129 0.77759 0.03389 0.0
C1330 C 0.76993 0.77899 0.04863 0.0
C1331 C 0.76144 0.76935 0.05609 0.0
C1332 C 0.7546 0.75809 0.04926 0.0
C1333 C 0.75654 0.75635 0.0346 0.0
H1334 H 0.26561 0.76468 0.07 0.0
H1335 H 0.27866 0.74562 0.03144 0.0
H1336 H 0.25176 0.78258 0.03086 0.0
H1337 H 0.24555 0.77641 1.01017 0.0
H1338 H 0.26194 0.76125 0.97119 0.0
H1339 H 0.28292 0.75006 1.00972 0.0
C1340 C 0.26556 0.76453 0.05852 0.0
C1341 C 0.2574 0.77431 0.05109 0.0
C1342 C 0.27364 0.75456 0.05141 0.0
C1343 C 0.27293 0.75394 0.03655 0.0
C1344 C 0.26506 0.76396 0.02857 0.0
C1345 C 0.25763 0.7744 0.03622 0.0
C1346 C 0.26437 0.76336 1.0125 0.0
C1347 C 0.25363 0.77053 1.00483 0.0
C1348 C 0.25283 0.76996 0.98998 0.0
C1349 C 0.26243 0.76162 0.98266 0.0
C1350 C 0.27302 0.75417 0.98979 0.0
C1351 C 0.27426 0.75543 1.00459 0.0
H1352 H 0.06539 0.26765 0.26842 0.0
H1353 H 0.02659 0.24712 0.2564 0.0
H1354 H 0.02613 0.28541 0.28137 0.0
H1355 H 1.00581 0.27776 0.28887 0.0
H1356 H 0.96662 0.26193 0.27211 0.0
H1357 H 1.00511 0.25272 0.25052 0.0
C1358 C 0.0539 0.2673 0.26849 0.0
C1359 C 0.04651 0.27753 0.276 0.0
C1360 C 0.04675 0.25652 0.26119 0.0
C1361 C 0.03183 0.25592 0.26156 0.0
C1362 C 0.02394 0.26618 0.26894 0.0
C1363 C 0.0316 0.27707 0.27599 0.0
C1364 C 1.0079 0.26536 0.26958 0.0
C1365 C 1.00033 0.27202 0.2806 0.0
C1366 C 0.98547 0.27092 0.28144 0.0
C1367 C 0.97809 0.26276 0.2715 0.0
C1368 C 0.98516 0.25596 0.26054 0.0
C1369 C 0.99995 0.25764 0.25936 0.0
H1370 H 0.76337 0.96704 0.26649 0.0
H1371 H 0.77769 1.00604 0.24812 0.0
H1372 H 0.75209 1.0057 0.2862 0.0
H1373 H 0.74744 0.02729 0.28116 0.0
H1374 H 0.77074 0.06522 0.27216 0.0
H1375 H 0.78519 0.02636 0.25505 0.0
C1376 C 0.76375 0.9785 0.26659 0.0
C1377 C 0.75649 0.9857 0.27713 0.0
C1378 C 0.77158 0.9858 0.2563 0.0
C1379 C 0.77199 1.00067 0.2565 0.0
C1380 C 0.76497 1.00836 0.2672 0.0
C1381 C 0.75724 1.00052 0.2775 0.0
C1382 C 0.76612 0.02433 0.26796 0.0
C1383 C 0.75641 0.03229 0.27604 0.0
C1384 C 0.75838 0.0469 0.27796 0.0
C1385 C 0.76949 0.05388 0.27099 0.0
C1386 C 0.77884 0.04654 0.26238 0.0
C1387 C 0.77729 0.03182 0.26108 0.0
H1388 H 0.0625 0.76161 0.26377 0.0
H1389 H 0.02463 0.75306 0.28682 0.0
H1390 H 0.0243 0.78124 0.25022 0.0
H1391 H 1.00367 0.78705 0.25581 0.0
H1392 H 0.96455 0.77257 0.27348 0.0
H1393 H 1.00246 0.75114 0.28473 0.0
C1394 C 0.05121 0.76317 0.26507 0.0
C1395 C 0.04412 0.77256 0.25613 0.0
C1396 C 0.0441 0.75602 0.27593 0.0
C1397 C 0.02957 0.75843 0.278 0.0
C1398 C 0.02174 0.76733 0.2687 0.0
C1399 C 0.02945 0.77445 0.2578 0.0
C1400 C 1.00574 0.76894 0.27016 0.0
C1401 C 0.99825 0.77953 0.26255 0.0
C1402 C 0.98343 0.78079 0.2636 0.0
C1403 C 0.97599 0.77181 0.27281 0.0
C1404 C 0.98291 0.76136 0.28063 0.0
C1405 C 0.99762 0.75971 0.279 0.0
H1406 H 0.26524 0.06411 0.27273 0.0
H1407 H 0.24657 0.02507 0.25927 0.0
H1408 H 0.28584 0.02547 0.28348 0.0
H1409 H 0.27952 1.0042 0.2899 0.0
H1410 H 0.26693 0.96555 0.27001 0.0
H1411 H 0.2536 1.00466 0.2518 0.0
C1412 C 0.26561 0.05267 0.27227 0.0
C1413 C 0.2766 0.04555 0.27914 0.0
C1414 C 0.25497 0.04533 0.26491 0.0
C1415 C 0.25526 0.03049 0.26453 0.0
C1416 C 0.26628 0.02285 0.27129 0.0
C1417 C 0.27698 0.0307 0.27852 0.0
C1418 C 0.26653 1.00684 0.2709 0.0
C1419 C 0.27409 0.99897 0.28126 0.0
C1420 C 0.27436 0.98411 0.2809 0.0
C1421 C 0.26683 0.977 0.27025 0.0
C1422 C 0.25915 0.98436 0.25993 0.0
C1423 C 0.25915 0.99922 0.2602 0.0
H1424 H 0.06709 0.76813 0.76857 0.0
H1425 H 0.02841 0.74719 0.75675 0.0
H1426 H 0.02767 0.78568 0.78137 0.0
H1427 H 1.00733 0.77766 0.78896 0.0
H1428 H 0.9684 0.76145 0.77179 0.0
H1429 H 1.00711 0.75328 0.75019 0.0
C1430 C 0.0556 0.76766 0.76865 0.0
C1431 C 0.04813 0.77791 0.77605 0.0
C1432 C 0.04854 0.75674 0.76147 0.0
C1433 C 0.03362 0.75607 0.76181 0.0
C1434 C 0.02566 0.76638 0.76904 0.0
C1435 C 0.03322 0.77735 0.77604 0.0
C1436 C 1.00964 0.7655 0.76955 0.0
C1437 C 1.00193 0.77195 0.78061 0.0
C1438 C 0.98707 0.77066 0.78134 0.0
C1439 C 0.97985 0.76251 0.77126 0.0
C1440 C 0.98709 0.75609 0.7602 0.0
C1441 C 1.00184 0.75794 0.75912 0.0
H1442 H 0.26555 0.96814 0.77099 0.0
H1443 H 0.2771 1.00668 0.74999 0.0
H1444 H 0.25216 1.0072 0.78847 0.0
H1445 H 0.24509 0.0275 0.78137 0.0
H1446 H 0.26218 0.0666 0.76583 0.0
H1447 H 0.28272 0.02822 0.75509 0.0
C1448 C 0.26533 0.97958 0.77048 0.0
C1449 C 0.25775 0.98696 0.78066 0.0
C1450 C 0.27251 0.98668 0.75958 0.0
C1451 C 0.272 1.00152 0.75886 0.0
C1452 C 0.2646 1.00942 0.76914 0.0
C1453 C 0.2576 1.0018 0.7801 0.0
C1454 C 0.26401 0.0254 0.76835 0.0
C1455 C 0.25327 0.03296 0.77544 0.0
C1456 C 0.25267 0.0478 0.77474 0.0
C1457 C 0.26248 0.05516 0.76634 0.0
C1458 C 0.27306 0.04809 0.75898 0.0
C1459 C 0.27408 0.03334 0.76038 0.0
H1460 H 0.06323 0.26813 0.77325 0.0
H1461 H 0.02381 0.25262 0.78959 0.0
H1462 H 0.0248 0.2795 0.75219 0.0
H1463 H 1.00343 0.28508 0.75804 0.0
H1464 H 0.96434 0.26431 0.76848 0.0
H1465 H 1.00325 0.24569 0.78187 0.0
C1466 C 0.05174 0.26774 0.77275 0.0
C1467 C 0.04475 0.27528 0.76207 0.0
C1468 C 0.04426 0.25928 0.7824 0.0
C1469 C 0.02936 0.25866 0.78157 0.0
C1470 C 0.02186 0.26602 0.77081 0.0
C1471 C 0.0299 0.27405 0.76087 0.0
C1472 C 1.0058 0.26547 0.77006 0.0
C1473 C 0.99807 0.27613 0.76287 0.0
C1474 C 0.98317 0.27567 0.76218 0.0
C1475 C 0.97583 0.26464 0.76893 0.0
C1476 C 0.98304 0.254 0.77621 0.0
C1477 C 0.99795 0.25435 0.77665 0.0
H1478 H 0.76897 0.06311 0.76737 0.0
H1479 H 0.75321 0.02392 0.75108 0.0
H1480 H 0.77975 0.02484 0.78879 0.0
H1481 H 0.78436 1.00307 0.78405 0.0
H1482 H 0.76156 0.96483 0.77505 0.0
H1483 H 0.74585 1.00372 0.7586 0.0
C1484 C 0.7685 0.05167 0.76789 0.0
C1485 C 0.77588 0.04468 0.77868 0.0
C1486 C 0.76002 0.04425 0.7582 0.0
C1487 C 0.75926 0.02941 0.75912 0.0
C1488 C 0.76639 0.02189 0.77005 0.0
C1489 C 0.77447 0.0299 0.77998 0.0
C1490 C 0.76525 1.0059 0.77121 0.0
C1491 C 0.77531 0.99798 0.77912 0.0
C1492 C 0.77372 0.98326 0.78094 0.0
C1493 C 0.7625 0.97623 0.77413 0.0
C1494 C 0.75275 0.98355 0.76576 0.0
C1495 C 0.75399 0.99832 0.76452 0.0
H1496 H 0.27003 0.76015 0.47047 0.0
H1497 H 0.24748 0.75047 0.50843 0.0
H1498 H 0.28511 0.77738 0.50954 0.0
H1499 H 0.27715 0.78507 0.5292 0.0
H1500 H 0.26005 0.76992 0.56826 0.0
H1501 H 0.25172 0.74649 0.53054 0.0
C1502 C 0.26918 0.76103 0.48187 0.0
C1503 C 0.27858 0.76989 0.48925 0.0
C1504 C 0.25821 0.75379 0.48882 0.0
C1505 C 0.25645 0.75566 0.50347 0.0
C1506 C 0.26614 0.76405 0.51147 0.0
C1507 C 0.27725 0.77107 0.50403 0.0
C1508 C 0.2646 0.76558 0.52738 0.0
C1509 C 0.27111 0.77701 0.53474 0.0
C1510 C 0.26961 0.7785 0.54945 0.0
C1511 C 0.26112 0.76883 0.5569 0.0
C1512 C 0.25443 0.75748 0.55007 0.0
C1513 C 0.25653 0.75566 0.53545 0.0
H1514 H 0.76552 0.76629 0.5702 0.0
H1515 H 0.78333 0.75305 0.5311 0.0
H1516 H 0.74496 0.77792 0.53155 0.0
H1517 H 0.74952 0.78282 0.50986 0.0
H1518 H 0.76081 0.76238 0.47147 0.0
H1519 H 0.77679 0.7462 0.51061 0.0
C1520 C 0.76516 0.7661 0.55872 0.0
C1521 C 0.7544 0.77332 0.55158 0.0
C1522 C 0.77537 0.75856 0.55135 0.0
C1523 C 0.77492 0.75843 0.53647 0.0
C1524 C 0.76403 0.76537 0.5288 0.0
C1525 C 0.75377 0.7728 0.5367 0.0
C1526 C 0.76327 0.76464 0.51275 0.0
C1527 C 0.75504 0.77434 0.50478 0.0
C1528 C 0.75366 0.77315 0.49 0.0
C1529 C 0.76129 0.7628 0.48293 0.0
C1530 C 0.76996 0.75337 0.49031 0.0
C1531 C 0.77065 0.75412 0.50517 0.0
H1532 H 0.76819 0.26234 0.47028 0.0
H1533 H 0.75163 0.24588 0.50911 0.0
H1534 H 0.77856 0.28346 0.50885 0.0
H1535 H 0.7838 0.27791 0.53036 0.0
H1536 H 0.76363 0.26567 0.56897 0.0
H1537 H 0.74516 0.25244 0.52977 0.0
C1538 C 0.76745 0.26286 0.48173 0.0
C1539 C 0.77476 0.27358 0.48892 0.0
C1540 C 0.75875 0.2532 0.48895 0.0
C1541 C 0.75783 0.25395 0.50379 0.0
C1542 C 0.76513 0.26466 0.51151 0.0
C1543 C 0.77324 0.27473 0.50367 0.0
C1544 C 0.76451 0.26517 0.52756 0.0
C1545 C 0.77499 0.27264 0.53551 0.0
C1546 C 0.7746 0.27298 0.5504 0.0
C1547 C 0.76383 0.26558 0.5575 0.0
C1548 C 0.7534 0.25796 0.5501 0.0
C1549 C 0.75366 0.25795 0.5352 0.0
H1550 H 0.26002 0.26103 0.56968 0.0
H1551 H 0.25127 0.28285 0.53095 0.0
H1552 H 0.27443 0.2435 0.53084 0.0
H1553 H 0.2814 0.24992 0.50997 0.0
H1554 H 0.26172 0.26225 0.47103 0.0
H1555 H 0.24444 0.27677 0.50993 0.0
C1556 C 0.26078 0.26159 0.55823 0.0
C1557 C 0.26839 0.25133 0.55101 0.0
C1558 C 0.25442 0.27278 0.55099 0.0
C1559 C 0.25588 0.27383 0.53621 0.0
C1560 C 0.26288 0.26321 0.52843 0.0
C1561 C 0.26922 0.25203 0.53617 0.0
C1562 C 0.26298 0.2634 0.51239 0.0
C1563 C 0.27303 0.25557 0.50462 0.0
C1564 C 0.27223 0.25467 0.48977 0.0
C1565 C 0.26193 0.26241 0.48251 0.0
C1566 C 0.25219 0.27068 0.48973 0.0
C1567 C 0.25259 0.27095 0.50461 0.0
H1568 H 0.76419 0.46823 0.76854 0.0
H1569 H 0.7515 0.50717 0.78687 0.0
H1570 H 0.77698 0.50713 0.74877 0.0
H1571 H 0.78435 0.52788 0.7562 0.0
H1572 H 0.76567 0.56679 0.76849 0.0
H1573 H 0.74477 0.5279 0.77941 0.0
C1574 C 0.76419 0.47968 0.76827 0.0
C1575 C 0.77165 0.48689 0.75762 0.0
C1576 C 0.75672 0.48697 0.7786 0.0
C1577 C 0.75688 0.50181 0.77842 0.0
C1578 C 0.76428 0.50952 0.7678 0.0
C1579 C 0.77157 0.50177 0.75736 0.0
C1580 C 0.76449 0.52551 0.76775 0.0
C1581 C 0.77562 0.53324 0.76112 0.0
C1582 C 0.77597 0.54808 0.76127 0.0
C1583 C 0.76525 0.55534 0.7682 0.0
C1584 C 0.75414 0.5481 0.77493 0.0
C1585 C 0.75371 0.53324 0.77456 0.0
H1586 H 0.26876 0.56218 0.76841 0.0
H1587 H 0.25251 0.52304 0.75251 0.0
H1588 H 0.2805 0.52373 0.78914 0.0
H1589 H 0.28612 0.50244 0.78266 0.0
H1590 H 0.26495 0.46363 0.7723 0.0
H1591 H 0.24565 0.50259 0.7605 0.0
C1592 C 0.26831 0.55073 0.76897 0.0
C1593 C 0.27607 0.5437 0.77946 0.0
C1594 C 0.25954 0.54334 0.75954 0.0
C1595 C 0.25883 0.52851 0.76037 0.0
C1596 C 0.26649 0.52096 0.77089 0.0
C1597 C 0.27483 0.5289 0.78064 0.0
C1598 C 0.26593 0.50496 0.77155 0.0
C1599 C 0.27694 0.49716 0.77816 0.0
C1600 C 0.27654 0.4823 0.77852 0.0
C1601 C 0.26519 0.47509 0.77215 0.0
C1602 C 0.25422 0.48239 0.76547 0.0
C1603 C 0.25453 0.49724 0.7653 0.0
H1604 H 0.26662 0.467 0.26979 0.0
H1605 H 0.25394 0.506 0.28804 0.0
H1606 H 0.28039 0.50584 0.2506 0.0
H1607 H 0.28745 0.52667 0.258 0.0
H1608 H 0.26844 0.56561 0.26974 0.0
H1609 H 0.24747 0.52674 0.28056 0.0
C1610 C 0.26679 0.47846 0.26963 0.0
C1611 C 0.27461 0.48564 0.25923 0.0
C1612 C 0.25915 0.48578 0.27982 0.0
C1613 C 0.25947 0.50062 0.27971 0.0
C1614 C 0.26717 0.50831 0.26929 0.0
C1615 C 0.2747 0.50052 0.25902 0.0
C1616 C 0.2674 0.5243 0.26923 0.0
C1617 C 0.27863 0.53203 0.26275 0.0
C1618 C 0.27895 0.54688 0.26283 0.0
C1619 C 0.26809 0.55415 0.26954 0.0
C1620 C 0.25689 0.54692 0.27612 0.0
C1621 C 0.25649 0.53207 0.27583 0.0
H1622 H 0.77036 0.5639 0.26697 0.0
H1623 H 0.75416 0.52489 0.25059 0.0
H1624 H 0.78028 0.52553 0.28858 0.0
H1625 H 0.78489 0.50381 0.28378 0.0
H1626 H 0.76204 0.4657 0.27442 0.0
H1627 H 0.74663 0.50472 0.258 0.0
C1628 C 0.76968 0.55246 0.26748 0.0
C1629 C 0.7768 0.54537 0.27836 0.0
C1630 C 0.76113 0.54515 0.25777 0.0
C1631 C 0.76022 0.53031 0.25867 0.0
C1632 C 0.76718 0.52272 0.26965 0.0
C1633 C 0.7752 0.53063 0.27968 0.0
C1634 C 0.76592 0.50675 0.27078 0.0
C1635 C 0.77586 0.49877 0.27877 0.0
C1636 C 0.77418 0.48406 0.28053 0.0
C1637 C 0.76301 0.4771 0.27358 0.0
C1638 C 0.75338 0.4845 0.26514 0.0
C1639 C 0.75469 0.49926 0.26398 0.0
H1640 H 0.46626 0.26811 0.76389 0.0
H1641 H 0.50459 0.27601 0.78699 0.0
H1642 H 0.50523 0.25225 0.74786 0.0
H1643 H 0.52534 0.24418 0.75586 0.0
H1644 H 0.56475 0.26252 0.76965 0.0
H1645 H 0.52608 0.28231 0.78111 0.0
C1646 C 0.47766 0.26705 0.76482 0.0
C1647 C 0.48496 0.25909 0.75486 0.0
C1648 C 0.48475 0.27334 0.77623 0.0
C1649 C 0.49944 0.27146 0.77782 0.0
C1650 C 0.50732 0.26404 0.76754 0.0
C1651 C 0.49975 0.2578 0.75611 0.0
C1652 C 0.52332 0.26328 0.76844 0.0
C1653 C 0.53089 0.25254 0.76143 0.0
C1654 C 0.54582 0.25226 0.76173 0.0
C1655 C 0.55325 0.26263 0.76937 0.0
C1656 C 0.54613 0.27324 0.77657 0.0
C1657 C 0.53126 0.27361 0.77599 0.0
H1658 H 0.56191 0.7704 0.7725 0.0
H1659 H 0.52268 0.75547 0.78956 0.0
H1660 H 0.52341 0.78235 0.75206 0.0
H1661 H 0.50206 0.78739 0.75672 0.0
H1662 H 0.46283 0.77009 0.77155 0.0
H1663 H 0.50132 0.75049 0.78434 0.0
C1664 C 0.55041 0.77012 0.77216 0.0
C1665 C 0.54334 0.77777 0.76164 0.0
C1666 C 0.54297 0.76177 0.78192 0.0
C1667 C 0.52806 0.7614 0.78137 0.0
C1668 C 0.52043 0.76891 0.77076 0.0
C1669 C 0.52847 0.77676 0.76066 0.0
C1670 C 0.50429 0.76892 0.77055 0.0
C1671 C 0.49665 0.77926 0.76274 0.0
C1672 C 0.48174 0.77962 0.76294 0.0
C1673 C 0.47432 0.76991 0.7714 0.0
C1674 C 0.4814 0.75967 0.77937 0.0
C1675 C 0.49625 0.75888 0.77852 0.0
H1676 H 0.46794 0.76962 0.26379 0.0
H1677 H 0.50633 0.77801 0.28666 0.0
H1678 H 0.50691 0.75374 0.24783 0.0
H1679 H 0.52704 0.74589 0.25564 0.0
H1680 H 0.56647 0.76378 0.2698 0.0
H1681 H 0.5279 0.78396 0.28099 0.0
C1682 C 0.47936 0.76866 0.26469 0.0
C1683 C 0.48665 0.76059 0.25482 0.0
C1684 C 0.48646 0.77515 0.27599 0.0
C1685 C 0.50117 0.77333 0.27755 0.0
C1686 C 0.50905 0.76578 0.26736 0.0
C1687 C 0.50145 0.75938 0.25604 0.0
C1688 C 0.52506 0.76497 0.26829 0.0
C1689 C 0.5326 0.7542 0.26127 0.0
C1690 C 0.54753 0.75381 0.26165 0.0
C1691 C 0.55499 0.76405 0.26942 0.0
C1692 C 0.54792 0.77473 0.27661 0.0
C1693 C 0.53304 0.77522 0.27591 0.0
H1694 H 0.56345 0.26978 0.27059 0.0
H1695 H 0.52439 0.2855 0.25414 0.0
H1696 H 0.52475 0.24886 0.28204 0.0
H1697 H 0.50349 0.25483 0.28754 0.0
H1698 H 0.46451 0.26485 0.26676 0.0
H1699 H 0.50351 0.27829 0.24789 0.0
C1700 C 0.55197 0.26919 0.27006 0.0
C1701 C 0.54479 0.25867 0.27774 0.0
C1702 C 0.54465 0.27851 0.26121 0.0
C1703 C 0.52976 0.27769 0.26051 0.0
C1704 C 0.52206 0.26721 0.26819 0.0
C1705 C 0.52995 0.25744 0.27645 0.0
C1706 C 0.50598 0.26656 0.26773 0.0
C1707 C 0.49818 0.25951 0.27854 0.0
C1708 C 0.48328 0.25875 0.27817 0.0
C1709 C 0.476 0.26538 0.26708 0.0
C1710 C 0.48327 0.27264 0.25636 0.0
C1711 C 0.49819 0.27309 0.25662 0.0
H1712 H 0.20303 0.22344 0.11941 0.0
H1713 H 0.25422 0.22773 0.05192 0.0
H1714 H 0.22294 0.18686 0.10158 0.0
H1715 H 0.2336 0.26355 0.07033 0.0
H1716 H 0.24144 0.21214 0.06857 0.0
H1717 H 0.21275 0.23784 0.10023 0.0
C1718 C 0.2093 0.21837 0.11139 0.0
C1719 C 0.21216 0.20386 0.11222 0.0
C1720 C 0.23963 0.22341 0.06887 0.0
C1721 C 0.22361 0.22047 0.09019 0.0
C1722 C 0.24685 0.23228 0.0593 0.0
C1723 C 0.24508 0.24697 0.05983 0.0
C1724 C 0.23056 0.22928 0.07899 0.0
C1725 C 0.23546 0.25231 0.06969 0.0
C1726 C 0.21495 0.22665 0.10045 0.0
C1727 C 0.22062 0.19802 0.10156 0.0
N1728 N 0.22866 0.24351 0.0789 0.0
N1729 N 0.22608 0.20634 0.09105 0.0
H1730 H 0.83172 0.22075 0.11079 0.0
H1731 H 0.77257 0.22566 0.04973 0.0
H1732 H 0.80165 0.18704 0.10225 0.0
H1733 H 0.79367 0.26182 0.06814 0.0
H1734 H 0.78619 0.21018 0.0657 0.0
H1735 H 0.82071 0.23481 0.09212 0.0
C1736 C 0.82279 0.21628 0.10504 0.0
C1737 C 0.81753 0.20269 0.10831 0.0
C1738 C 0.78792 0.22149 0.06612 0.0
C1739 C 0.80503 0.21874 0.0866 0.0
C1740 C 0.78025 0.23029 0.05696 0.0
C1741 C 0.78201 0.24499 0.0577 0.0
C1742 C 0.79751 0.22749 0.07591 0.0
C1743 C 0.79197 0.25052 0.06732 0.0
C1744 C 0.81657 0.22431 0.0943 0.0
C1745 C 0.80617 0.19739 0.10011 0.0
N1746 N 0.79932 0.24179 0.07605 0.0
N1747 N 0.80027 0.20543 0.08969 0.0
H1748 H 0.79182 0.83985 0.11297 0.0
H1749 H 0.79841 0.78531 0.04876 0.0
H1750 H 0.83154 0.82144 0.1009 0.0
H1751 H 0.75884 0.79775 0.06721 0.0
H1752 H 0.81108 0.80111 0.06526 0.0
H1753 H 0.77998 0.82694 0.09396 0.0
C1754 C 0.7981 0.83319 0.10624 0.0
C1755 C 0.81274 0.83178 0.10857 0.0
C1756 C 0.79961 0.80049 0.06558 0.0
C1757 C 0.79913 0.81678 0.08671 0.0
C1758 C 0.79239 0.7916 0.05608 0.0
C1759 C 0.77757 0.79022 0.05666 0.0
C1760 C 0.79192 0.80813 0.07562 0.0
C1761 C 0.77027 0.79846 0.06646 0.0
C1762 C 0.7913 0.82574 0.0954 0.0
C1763 C 0.82023 0.82276 0.0996 0.0
N1764 N 0.77751 0.80699 0.07557 0.0
N1765 N 0.81335 0.8156 0.08907 0.0
H1766 H 0.20027 0.80817 0.11307 0.0
H1767 H 0.25755 0.80339 0.05085 0.0
H1768 H 0.22947 0.84224 0.10303 0.0
H1769 H 0.23701 0.76723 0.07009 0.0
H1770 H 0.2444 0.81887 0.06688 0.0
H1771 H 0.21087 0.79407 0.09449 0.0
C1772 C 0.20893 0.81271 0.10701 0.0
C1773 C 0.21405 0.82642 0.10983 0.0
C1774 C 0.24269 0.80756 0.06748 0.0
C1775 C 0.2261 0.81031 0.08822 0.0
C1776 C 0.2501 0.79876 0.05829 0.0
C1777 C 0.24837 0.78405 0.05923 0.0
C1778 C 0.23338 0.80156 0.07751 0.0
C1779 C 0.23868 0.77853 0.0691 0.0
C1780 C 0.21492 0.80466 0.09632 0.0
C1781 C 0.22505 0.8318 0.10125 0.0
N1782 N 0.23159 0.78726 0.07786 0.0
N1783 N 0.23073 0.82373 0.09089 0.0
H1784 H 0.21384 0.84026 0.94682 0.0
H1785 H 0.23601 0.76152 0.96778 0.0
H1786 H 0.20502 0.80376 0.92093 0.0
H1787 H 0.24624 0.79789 0.99329 0.0
H1788 H 0.22207 0.77653 0.952 0.0
H1789 H 0.22345 0.82473 0.96519 0.0
C1790 C 0.21389 0.82898 0.94499 0.0
C1791 C 0.20871 0.82335 0.93221 0.0
C1792 C 0.22723 0.78123 0.96112 0.0
C1793 C 0.21962 0.80546 0.95331 0.0
C1794 C 0.23519 0.77266 0.97014 0.0
C1795 C 0.24243 0.77849 0.98179 0.0
C1796 C 0.22653 0.7958 0.96368 0.0
C1797 C 0.24081 0.79295 0.98446 0.0
C1798 C 0.21931 0.82011 0.95554 0.0
C1799 C 0.20879 0.80861 0.93061 0.0
N1800 N 0.23318 0.80114 0.97538 0.0
N1801 N 0.21425 0.80021 0.94097 0.0
H1802 H 0.1879 0.2256 0.93667 0.0
H1803 H 0.26456 0.23253 0.97213 0.0
H1804 H 0.22271 0.19834 0.92655 0.0
H1805 H 0.22809 0.25397 0.98831 0.0
H1806 H 0.24916 0.21951 0.95578 0.0
H1807 H 0.20206 0.23573 0.95591 0.0
C1808 C 0.19845 0.2216 0.93856 0.0
C1809 C 0.20409 0.21109 0.92984 0.0
C1810 C 0.24446 0.22693 0.96299 0.0
C1811 C 0.22049 0.2229 0.95182 0.0
C1812 C 0.25325 0.23435 0.97233 0.0
C1813 C 0.24758 0.24436 0.98155 0.0
C1814 C 0.22985 0.22963 0.96267 0.0
C1815 C 0.23286 0.24629 0.98142 0.0
C1816 C 0.20656 0.22746 0.94954 0.0
C1817 C 0.21795 0.20658 0.93275 0.0
N1818 N 0.22451 0.23912 0.97199 0.0
N1819 N 0.22567 0.21255 0.9434 0.0
H1820 H 0.83262 0.23969 0.92084 0.0
H1821 H 0.7842 0.23145 0.99009 0.0
H1822 H 0.82126 0.19916 0.93892 0.0
H1823 H 0.79047 0.27043 0.96702 0.0
H1824 H 0.80014 0.21966 0.97349 0.0
H1825 H 0.81947 0.25125 0.93952 0.0
C1826 C 0.82747 0.23319 0.92881 0.0
C1827 C 0.82811 0.21839 0.92827 0.0
C1828 C 0.79812 0.23082 0.97215 0.0
C1829 C 0.8128 0.23166 0.94977 0.0
C1830 C 0.78914 0.23756 0.98169 0.0
C1831 C 0.78597 0.25191 0.97987 0.0
C1832 C 0.80405 0.23852 0.96081 0.0
C1833 C 0.79253 0.25932 0.96873 0.0
C1834 C 0.81986 0.23982 0.93946 0.0
C1835 C 0.82095 0.21058 0.93881 0.0
N1836 N 0.80119 0.25255 0.95962 0.0
N1837 N 0.81361 0.2173 0.94912 0.0
H1838 H 0.81595 0.8404 0.94171 0.0
H1839 H 0.7956 0.76188 0.96704 0.0
H1840 H 0.8264 0.80284 0.91852 0.0
H1841 H 0.78406 0.79913 0.99008 0.0
H1842 H 0.80931 0.77667 0.95067 0.0
H1843 H 0.80627 0.82553 0.96068 0.0
C1844 C 0.81623 0.82903 0.94058 0.0
C1845 C 0.82193 0.82291 0.92837 0.0
C1846 C 0.80392 0.78163 0.95939 0.0
C1847 C 0.81095 0.80576 0.95023 0.0
C1848 C 0.79611 0.77318 0.96876 0.0
C1849 C 0.78856 0.77929 0.97988 0.0
C1850 C 0.80416 0.79637 0.96104 0.0
C1851 C 0.78974 0.79397 0.98169 0.0
C1852 C 0.81077 0.82054 0.95149 0.0
C1853 C 0.82224 0.80809 0.92772 0.0
N1854 N 0.79724 0.80203 0.97227 0.0
N1855 N 0.81675 0.80006 0.93842 0.0
H1856 H 0.11728 0.20746 0.23231 0.0
H1857 H 0.04288 0.24756 0.2338 0.0
H1858 H 0.09196 0.21515 0.19493 0.0
H1859 H 0.07003 0.24198 0.27021 0.0
H1860 H 0.05913 0.2332 0.21984 0.0
H1861 H 0.09864 0.21764 0.24671 0.0
C1862 C 0.10773 0.21112 0.22712 0.0
C1863 C 0.10628 0.21048 0.21233 0.0
C1864 C 0.06146 0.23501 0.23092 0.0
C1865 C 0.08485 0.22239 0.22883 0.0
C1866 C 0.05212 0.2431 0.23891 0.0
C1867 C 0.05518 0.24609 0.25314 0.0
C1868 C 0.0739 0.22981 0.23724 0.0
C1869 C 0.06737 0.24013 0.25921 0.0
C1870 C 0.0971 0.21703 0.23536 0.0
C1871 C 0.09369 0.21562 0.20625 0.0
N1872 N 0.0763 0.23238 0.25122 0.0
N1873 N 0.08352 0.22141 0.2145 0.0
H1874 H 0.84089 0.11053 0.24035 0.0
H1875 H 0.78537 0.04596 0.23412 0.0
H1876 H 0.82336 0.09654 0.20047 0.0
H1877 H 0.7977 0.06565 0.2734 0.0
H1878 H 0.80174 0.06198 0.22146 0.0
H1879 H 0.82753 0.09187 0.2524 0.0
C1880 C 0.83434 0.10343 0.23408 0.0
C1881 C 0.83328 0.10513 0.21934 0.0
C1882 C 0.80095 0.06269 0.23286 0.0
C1883 C 0.81774 0.08373 0.23318 0.0
C1884 C 0.79172 0.05349 0.24009 0.0
C1885 C 0.79014 0.05457 0.2548 0.0
C1886 C 0.80872 0.07295 0.24045 0.0
C1887 C 0.7985 0.06457 0.26203 0.0
C1888 C 0.82663 0.09282 0.241 0.0
C1889 C 0.82439 0.09573 0.21186 0.0
N1890 N 0.80737 0.07339 0.25479 0.0
N1891 N 0.81695 0.08544 0.21886 0.0
H1892 H 0.91365 0.82928 0.23093 0.0
H1893 H 0.98589 0.78574 0.23502 0.0
H1894 H 0.93672 0.81616 0.19405 0.0
H1895 H 0.9621 0.79842 0.27155 0.0
H1896 H 0.96962 0.79915 0.21988 0.0
H1897 H 0.93266 0.82021 0.24592 0.0
C1898 C 0.92278 0.82465 0.22594 0.0
C1899 C 0.92348 0.82344 0.21115 0.0
C1900 C 0.96805 0.79913 0.23123 0.0
C1901 C 0.94533 0.8128 0.22837 0.0
C1902 C 0.97743 0.79158 0.23988 0.0
C1903 C 0.97529 0.79085 0.25457 0.0
C1904 C 0.95646 0.80602 0.23729 0.0
C1905 C 0.96403 0.79852 0.26026 0.0
C1906 C 0.93363 0.81938 0.23454 0.0
C1907 C 0.93555 0.81712 0.20539 0.0
N1908 N 0.955 0.80566 0.25163 0.0
N1909 N 0.94594 0.81198 0.21399 0.0
H1910 H 0.1898 0.94013 0.21862 0.0
H1911 H 0.26808 0.96233 0.24382 0.0
H1912 H 0.22701 0.91525 0.21116 0.0
H1913 H 0.23127 0.98744 0.25205 0.0
H1914 H 0.25345 0.94638 0.22951 0.0
H1915 H 0.2049 0.95865 0.22889 0.0
C1916 C 0.20114 0.93855 0.21911 0.0
C1917 C 0.20709 0.926 0.21408 0.0
C1918 C 0.24856 0.95545 0.2343 0.0
C1919 C 0.2245 0.94731 0.22575 0.0
C1920 C 0.25692 0.96457 0.24246 0.0
C1921 C 0.25086 0.97616 0.24925 0.0
C1922 C 0.23394 0.95781 0.23295 0.0
C1923 C 0.23638 0.97865 0.24698 0.0
C1924 C 0.20977 0.94919 0.2249 0.0
C1925 C 0.22191 0.92474 0.21476 0.0
N1926 N 0.22837 0.96945 0.23917 0.0
N1927 N 0.23005 0.93518 0.22057 0.0
H1928 H 0.08998 0.81982 0.84587 0.0
H1929 H 0.07089 0.79399 0.76751 0.0
H1930 H 0.1171 0.82648 0.80972 0.0
H1931 H 0.04396 0.78609 0.80351 0.0
H1932 H 0.08646 0.80853 0.78235 0.0
H1933 H 0.07179 0.80979 0.83021 0.0
C1934 C 0.09211 0.81922 0.83464 0.0
C1935 C 0.10519 0.8239 0.82916 0.0
C1936 C 0.07707 0.80376 0.787 0.0
C1937 C 0.0843 0.81251 0.81111 0.0
C1938 C 0.06817 0.79546 0.77852 0.0
C1939 C 0.05619 0.78869 0.78432 0.0
C1940 C 0.07406 0.80526 0.80145 0.0
C1941 C 0.05307 0.79113 0.7986 0.0
C1942 C 0.08167 0.81356 0.82569 0.0
C1943 C 0.10718 0.82311 0.81446 0.0
N1944 N 0.06205 0.79907 0.80673 0.0
N1945 N 0.09692 0.81742 0.80599 0.0
H1946 H 0.20394 0.11748 0.80566 0.0
H1947 H 0.24548 0.04425 0.80268 0.0
H1948 H 0.21369 0.09238 0.84266 0.0
H1949 H 0.23648 0.07015 0.76609 0.0
H1950 H 0.23141 0.06019 0.81718 0.0
H1951 H 0.21346 0.0989 0.79078 0.0
C1952 C 0.20791 0.108 0.81067 0.0
C1953 C 0.20807 0.1066 0.82549 0.0
C1954 C 0.23239 0.0623 0.80595 0.0
C1955 C 0.21923 0.08525 0.80844 0.0
C1956 C 0.24032 0.05313 0.79765 0.0
C1957 C 0.24229 0.05594 0.78318 0.0
C1958 C 0.22635 0.07438 0.79973 0.0
C1959 C 0.23545 0.0677 0.77725 0.0
C1960 C 0.21344 0.0974 0.80216 0.0
C1961 C 0.21357 0.09408 0.83132 0.0
N1962 N 0.22791 0.07652 0.78555 0.0
N1963 N 0.21898 0.08396 0.82281 0.0
H1964 H 0.91593 0.1947 0.79682 0.0
H1965 H 0.98451 0.24525 0.80396 0.0
H1966 H 0.93274 0.20823 0.83715 0.0
H1967 H 0.96209 0.23742 0.76487 0.0
H1968 H 0.96787 0.22917 0.81622 0.0
H1969 H 0.93482 0.20788 0.78495 0.0
C1970 C 0.92368 0.20034 0.80321 0.0
C1971 C 0.92271 0.2003 0.81804 0.0
C1972 C 0.96669 0.23087 0.80494 0.0
C1973 C 0.94443 0.21564 0.80441 0.0
C1974 C 0.97626 0.23993 0.79793 0.0
C1975 C 0.97462 0.24269 0.7834 0.0
C1976 C 0.95552 0.22446 0.79731 0.0
C1977 C 0.96366 0.23566 0.7761 0.0
C1978 C 0.93444 0.20795 0.7964 0.0
C1979 C 0.93296 0.20806 0.8257 0.0
N1980 N 0.95452 0.22693 0.78312 0.0
N1981 N 0.94339 0.21541 0.81881 0.0
H1982 H 0.84532 0.93429 0.81079 0.0
H1983 H 0.76673 0.96426 0.80157 0.0
H1984 H 0.80812 0.91571 0.83017 0.0
H1985 H 0.80298 0.98277 0.78055 0.0
H1986 H 0.78234 0.94789 0.81392 0.0
H1987 H 0.83062 0.95321 0.80112 0.0
C1988 C 0.83407 0.93415 0.81303 0.0
C1989 C 0.82798 0.92326 0.82128 0.0
C1990 C 0.78696 0.95557 0.80671 0.0
C1991 C 0.81109 0.94508 0.81033 0.0
C1992 C 0.77804 0.96495 0.79966 0.0
C1993 C 0.78355 0.97482 0.78992 0.0
C1994 C 0.80158 0.95593 0.80399 0.0
C1995 C 0.7983 0.97535 0.78799 0.0
C1996 C 0.8257 0.94504 0.80756 0.0
C1997 C 0.81337 0.92388 0.82402 0.0
N1998 N 0.8068 0.96592 0.79484 0.0
N1999 N 0.80546 0.93453 0.81851 0.0
H2000 H 0.19505 0.11072 0.24506 0.0
H2001 H 0.24667 0.04455 0.237 0.0
H2002 H 0.20973 0.09624 0.20454 0.0
H2003 H 0.23796 0.06517 0.27649 0.0
H2004 H 0.2306 0.06105 0.22488 0.0
H2005 H 0.20828 0.09192 0.25662 0.0
C2006 C 0.20096 0.1035 0.23856 0.0
C2007 C 0.20122 0.10509 0.22377 0.0
C2008 C 0.2321 0.06185 0.23622 0.0
C2009 C 0.21661 0.08348 0.23705 0.0
C2010 C 0.24115 0.05237 0.24314 0.0
C2011 C 0.24365 0.05355 0.25774 0.0
C2012 C 0.22544 0.07247 0.24402 0.0
C2013 C 0.23638 0.06396 0.2652 0.0
C2014 C 0.20859 0.09279 0.2452 0.0
C2015 C 0.20931 0.09552 0.21597 0.0
N2016 N 0.22767 0.07302 0.25826 0.0
N2017 N 0.21668 0.08513 0.2227 0.0
H2018 H 0.22849 0.92003 0.83627 0.0
H2019 H 0.22979 0.98974 0.78764 0.0
H2020 H 0.19099 0.93813 0.81748 0.0
H2021 H 0.26687 0.96544 0.79773 0.0
H2022 H 0.21552 0.9736 0.80239 0.0
H2023 H 0.24272 0.93903 0.8257 0.0
C2024 C 0.22321 0.92797 0.82994 0.0
C2025 C 0.20848 0.92731 0.82767 0.0
C2026 C 0.22681 0.97191 0.80151 0.0
C2027 C 0.22477 0.94932 0.81571 0.0
C2028 C 0.23497 0.98118 0.7932 0.0
C2029 C 0.2495 0.97885 0.7914 0.0
C2030 C 0.23328 0.9603 0.80814 0.0
C2031 C 0.25567 0.96752 0.79874 0.0
C2032 C 0.23136 0.93888 0.82397 0.0
C2033 C 0.20227 0.93819 0.81965 0.0
N2034 N 0.24752 0.95863 0.80671 0.0
N2035 N 0.21044 0.94868 0.81391 0.0
H2036 H 0.0887 0.18934 0.82039 0.0
H2037 H 0.06612 0.26798 0.79953 0.0
H2038 H 0.11371 0.22658 0.83003 0.0
H2039 H 0.04118 0.23107 0.78876 0.0
H2040 H 0.08211 0.2531 0.81331 0.0
H2041 H 0.06997 0.20444 0.811 0.0
C2042 C 0.09026 0.20069 0.82057 0.0
C2043 C 0.10291 0.20665 0.82592 0.0
C2044 C 0.07307 0.24823 0.80808 0.0
C2045 C 0.08137 0.22405 0.81528 0.0
C2046 C 0.06391 0.25674 0.80023 0.0
C2047 C 0.05237 0.25073 0.79287 0.0
C2048 C 0.07078 0.23355 0.80854 0.0
C2049 C 0.04993 0.23614 0.79429 0.0
C2050 C 0.07951 0.20931 0.81528 0.0
C2051 C 0.10415 0.22146 0.82613 0.0
N2052 N 0.05916 0.22801 0.8018 0.0
N2053 N 0.09359 0.22961 0.82079 0.0
H2054 H 0.82559 0.11373 0.81248 0.0
H2055 H 0.77644 0.04408 0.80789 0.0
H2056 H 0.80645 0.09404 0.84915 0.0
H2057 H 0.79542 0.06502 0.7719 0.0
H2058 H 0.78899 0.06076 0.82358 0.0
H2059 H 0.81621 0.09463 0.79788 0.0
C2060 C 0.81956 0.10532 0.81753 0.0
C2061 C 0.81683 0.10559 0.83212 0.0
C2062 C 0.7905 0.06161 0.81225 0.0
C2063 C 0.80577 0.08363 0.81529 0.0
C2064 C 0.78342 0.05202 0.80332 0.0
C2065 C 0.78479 0.05324 0.78857 0.0
C2066 C 0.79904 0.07243 0.80638 0.0
C2067 C 0.7939 0.06381 0.7832 0.0
C2068 C 0.8141 0.09442 0.80913 0.0
C2069 C 0.80867 0.09444 0.83793 0.0
N2070 N 0.80057 0.07301 0.79206 0.0
N2071 N 0.8034 0.08396 0.8295 0.0
H2072 H 0.92082 0.79097 0.84023 0.0
H2073 H 0.98769 0.79874 0.78847 0.0
H2074 H 0.93548 0.83118 0.82383 0.0
H2075 H 0.96706 0.75916 0.79887 0.0
H2076 H 0.97096 0.81095 0.80395 0.0
H2077 H 0.93979 0.77937 0.82753 0.0
C2078 C 0.92811 0.7974 0.83405 0.0
C2079 C 0.92653 0.81211 0.83315 0.0
C2080 C 0.9702 0.79958 0.80295 0.0
C2081 C 0.94834 0.79878 0.81839 0.0
C2082 C 0.97982 0.7926 0.79424 0.0
C2083 C 0.97871 0.77793 0.79237 0.0
C2084 C 0.9595 0.79178 0.80992 0.0
C2085 C 0.96822 0.7705 0.79995 0.0
C2086 C 0.93892 0.79074 0.82673 0.0
C2087 C 0.9362 0.81981 0.82474 0.0
N2088 N 0.95902 0.77749 0.80832 0.0
N2089 N 0.94669 0.81306 0.8177 0.0
H2090 H 0.84065 0.94146 0.21764 0.0
H2091 H 0.76241 0.96345 0.24032 0.0
H2092 H 0.80312 0.91625 0.20932 0.0
H2093 H 0.79955 0.98906 0.2489 0.0
H2094 H 0.77693 0.9474 0.22659 0.0
H2095 H 0.82571 0.96005 0.22711 0.0
C2096 C 0.82927 0.93982 0.21777 0.0
C2097 C 0.82318 0.92716 0.21275 0.0
C2098 C 0.78192 0.9566 0.23132 0.0
C2099 C 0.80595 0.94854 0.2235 0.0
C2100 C 0.77362 0.96579 0.23914 0.0
C2101 C 0.7798 0.97755 0.24587 0.0
C2102 C 0.79659 0.95909 0.23026 0.0
C2103 C 0.79434 0.98015 0.24386 0.0
C2104 C 0.82073 0.9505 0.22311 0.0
C2105 C 0.80833 0.92582 0.21295 0.0
N2106 N 0.80228 0.97089 0.23639 0.0
N2107 N 0.80027 0.9363 0.21833 0.0
H2108 H 0.10902 0.79436 0.19554 0.0
H2109 H 0.04564 0.80118 0.25132 0.0
H2110 H 0.09837 0.83379 0.21526 0.0
H2111 H 0.06195 0.76165 0.23648 0.0
H2112 H 0.06252 0.81381 0.23584 0.0
H2113 H 0.08969 0.78276 0.20828 0.0
C2114 C 0.10253 0.80064 0.20245 0.0
C2115 C 0.10536 0.81512 0.20427 0.0
C2116 C 0.06229 0.80238 0.23587 0.0
C2117 C 0.08314 0.80177 0.21911 0.0
C2118 C 0.05258 0.79518 0.24459 0.0
C2119 C 0.05245 0.78036 0.2452 0.0
C2120 C 0.07184 0.79467 0.22764 0.0
C2121 C 0.06177 0.77309 0.23639 0.0
C2122 C 0.09151 0.79397 0.20981 0.0
C2123 C 0.09669 0.82259 0.21362 0.0
N2124 N 0.0711 0.78029 0.22806 0.0
N2125 N 0.08598 0.81584 0.22068 0.0
H2126 H 0.91788 0.20421 0.22598 0.0
H2127 H 0.98574 0.25583 0.23136 0.0
H2128 H 0.93704 0.22424 0.18951 0.0
H2129 H 0.96532 0.23588 0.26712 0.0
H2130 H 0.96957 0.2428 0.21548 0.0
H2131 H 0.93661 0.21419 0.24083 0.0
C2132 C 0.92611 0.21057 0.22103 0.0
C2133 C 0.9258 0.21338 0.20643 0.0
C2134 C 0.96871 0.2412 0.2268 0.0
C2135 C 0.9473 0.22513 0.22352 0.0
C2136 C 0.978 0.24856 0.23584 0.0
C2137 C 0.97676 0.24704 0.25057 0.0
C2138 C 0.95819 0.23224 0.23256 0.0
C2139 C 0.96649 0.23754 0.25584 0.0
C2140 C 0.93679 0.21637 0.22956 0.0
C2141 C 0.93669 0.22195 0.20073 0.0
N2142 N 0.95758 0.2306 0.24687 0.0
N2143 N 0.94695 0.22756 0.20929 0.0
H2144 H 0.20338 0.72432 0.61828 0.0
H2145 H 0.25435 0.72834 0.55066 0.0
H2146 H 0.22302 0.68769 0.60026 0.0
H2147 H 0.23404 0.76432 0.5691 0.0
H2148 H 0.2414 0.71285 0.56724 0.0
H2149 H 0.21297 0.73871 0.59899 0.0
C2150 C 0.20957 0.71924 0.61019 0.0
C2151 C 0.21243 0.70474 0.61101 0.0
C2152 C 0.23969 0.72413 0.56756 0.0
C2153 C 0.2237 0.72129 0.58888 0.0
C2154 C 0.24701 0.73295 0.55803 0.0
C2155 C 0.24538 0.74765 0.5586 0.0
C2156 C 0.23067 0.73006 0.57768 0.0
C2157 C 0.23579 0.75307 0.56844 0.0
C2158 C 0.21514 0.7275 0.59919 0.0
C2159 C 0.22073 0.69886 0.60026 0.0
N2160 N 0.2289 0.74431 0.57762 0.0
N2161 N 0.22612 0.70715 0.5897 0.0
H2162 H 0.81654 0.68928 0.5941 0.0
H2163 H 0.79158 0.76731 0.57384 0.0
H2164 H 0.82497 0.726 0.6198 0.0
H2165 H 0.78315 0.73101 0.54763 0.0
H2166 H 0.80604 0.75266 0.58948 0.0
H2167 H 0.80618 0.70456 0.57592 0.0
C2168 C 0.81625 0.70055 0.59592 0.0
C2169 C 0.82157 0.70632 0.60859 0.0
C2170 C 0.80117 0.7479 0.58024 0.0
C2171 C 0.80979 0.72392 0.58771 0.0
C2172 C 0.79292 0.75627 0.5713 0.0
C2173 C 0.78604 0.75034 0.55949 0.0
C2174 C 0.8025 0.73342 0.57745 0.0
C2175 C 0.78829 0.73601 0.5566 0.0
C2176 C 0.8104 0.70928 0.58548 0.0
C2177 C 0.82113 0.72105 0.6102 0.0
N2178 N 0.79618 0.728 0.56561 0.0
N2179 N 0.81525 0.7293 0.59995 0.0
H2180 H 0.81694 0.34174 0.59404 0.0
H2181 H 0.78959 0.2641 0.57357 0.0
H2182 H 0.82187 0.30503 0.62084 0.0
H2183 H 0.78348 0.30052 0.54673 0.0
H2184 H 0.80386 0.27857 0.58968 0.0
H2185 H 0.80683 0.32663 0.57556 0.0
C2186 C 0.81594 0.33051 0.59605 0.0
C2187 C 0.82019 0.32471 0.60913 0.0
C2188 C 0.79954 0.28341 0.58021 0.0
C2189 C 0.80869 0.30727 0.58788 0.0
C2190 C 0.7914 0.27514 0.571 0.0
C2191 C 0.78521 0.28115 0.55886 0.0
C2192 C 0.8015 0.29788 0.57737 0.0
C2193 C 0.78807 0.29546 0.55595 0.0
C2194 C 0.81023 0.32186 0.58544 0.0
C2195 C 0.81887 0.31001 0.61094 0.0
N2196 N 0.79586 0.30339 0.56523 0.0
N2197 N 0.81316 0.30185 0.60051 0.0
H2198 H 0.19754 0.30892 0.6119 0.0
H2199 H 0.25757 0.30168 0.55259 0.0
H2200 H 0.23039 0.34044 0.60533 0.0
H2201 H 0.23223 0.26685 0.56832 0.0
H2202 H 0.24515 0.31754 0.56883 0.0
H2203 H 0.20776 0.2948 0.59312 0.0
C2204 C 0.20692 0.31289 0.60657 0.0
C2205 C 0.21316 0.32589 0.61042 0.0
C2206 C 0.24224 0.30645 0.56861 0.0
C2207 C 0.2248 0.30978 0.58856 0.0
C2208 C 0.24923 0.29745 0.55929 0.0
C2209 C 0.24593 0.28296 0.55919 0.0
C2210 C 0.23177 0.30091 0.57773 0.0
C2211 C 0.23514 0.27795 0.56815 0.0
C2212 C 0.2127 0.30484 0.59575 0.0
C2213 C 0.2251 0.33058 0.60273 0.0
N2214 N 0.22848 0.28688 0.57705 0.0
N2215 N 0.23055 0.32252 0.59224 0.0
H2216 H 0.21328 0.34074 0.44601 0.0
H2217 H 0.23566 0.26219 0.46739 0.0
H2218 H 0.20457 0.30404 0.42036 0.0
H2219 H 0.2455 0.29861 0.49296 0.0
H2220 H 0.22179 0.2771 0.45149 0.0
H2221 H 0.22293 0.32535 0.46449 0.0
C2222 C 0.21335 0.32945 0.44426 0.0
C2223 C 0.20819 0.32372 0.43151 0.0
C2224 C 0.22685 0.28184 0.46064 0.0
C2225 C 0.21914 0.306 0.45274 0.0
C2226 C 0.23477 0.27332 0.46973 0.0
C2227 C 0.24189 0.2792 0.48143 0.0
C2228 C 0.22606 0.29641 0.46318 0.0
C2229 C 0.24018 0.29365 0.48407 0.0
C2230 C 0.2188 0.32066 0.45487 0.0
C2231 C 0.20832 0.30897 0.43001 0.0
N2232 N 0.23259 0.3018 0.47492 0.0
N2233 N 0.2138 0.30066 0.44043 0.0
H2234 H 0.18877 0.72505 0.43587 0.0
H2235 H 0.26563 0.73278 0.47091 0.0
H2236 H 0.22405 0.69868 0.42505 0.0
H2237 H 0.22905 0.75399 0.48714 0.0
H2238 H 0.2503 0.71972 0.45453 0.0
H2239 H 0.20293 0.7353 0.45504 0.0
C2240 C 0.19942 0.72127 0.43759 0.0
C2241 C 0.20519 0.71097 0.4287 0.0
C2242 C 0.24556 0.72711 0.46175 0.0
C2243 C 0.2216 0.72292 0.45061 0.0
C2244 C 0.25431 0.73456 0.47111 0.0
C2245 C 0.2486 0.74452 0.48035 0.0
C2246 C 0.23093 0.72972 0.46145 0.0
C2247 C 0.23386 0.74637 0.48023 0.0
C2248 C 0.20754 0.7272 0.44853 0.0
C2249 C 0.21918 0.70675 0.43139 0.0
N2250 N 0.22554 0.73916 0.4708 0.0
N2251 N 0.2269 0.71278 0.44202 0.0
H2252 H 0.80182 0.70514 0.42055 0.0
H2253 H 0.79818 0.74731 0.49369 0.0
H2254 H 0.83882 0.71667 0.44516 0.0
H2255 H 0.76164 0.73666 0.4681 0.0
H2256 H 0.81302 0.73367 0.47766 0.0
H2257 H 0.78682 0.71428 0.43926 0.0
C2258 C 0.80682 0.70942 0.42996 0.0
C2259 C 0.82166 0.71018 0.43118 0.0
C2260 C 0.80173 0.73419 0.47563 0.0
C2261 C 0.80445 0.72092 0.45268 0.0
C2262 C 0.79324 0.74188 0.48486 0.0
C2263 C 0.77867 0.74325 0.48216 0.0
C2264 C 0.7956 0.72781 0.46362 0.0
C2265 C 0.77286 0.73608 0.47047 0.0
C2266 C 0.79822 0.71474 0.44063 0.0
C2267 C 0.82746 0.71607 0.4436 0.0
N2268 N 0.78134 0.72879 0.46159 0.0
N2269 N 0.81886 0.72127 0.4538 0.0
H2270 H 0.83255 0.30793 0.42647 0.0
H2271 H 0.77396 0.3026 0.48763 0.0
H2272 H 0.80255 0.34097 0.4345 0.0
H2273 H 0.79611 0.26684 0.47105 0.0
H2274 H 0.78718 0.3181 0.47119 0.0
H2275 H 0.8219 0.29396 0.44551 0.0
C2276 C 0.82371 0.31228 0.43218 0.0
C2277 C 0.81839 0.32566 0.42867 0.0
C2278 C 0.78923 0.30688 0.47126 0.0
C2279 C 0.80627 0.3097 0.45081 0.0
C2280 C 0.78179 0.29807 0.48071 0.0
C2281 C 0.78393 0.28344 0.48063 0.0
C2282 C 0.79898 0.30099 0.46182 0.0
C2283 C 0.79409 0.27806 0.47137 0.0
C2284 C 0.81768 0.3043 0.44314 0.0
C2285 C 0.80713 0.3308 0.43682 0.0
N2286 N 0.80119 0.28681 0.46233 0.0
N2287 N 0.80143 0.3228 0.44744 0.0
H2288 H 0.11931 0.70778 0.73291 0.0
H2289 H 0.0444 0.7469 0.7344 0.0
H2290 H 0.09272 0.71296 0.69596 0.0
H2291 H 0.0722 0.7428 0.77053 0.0
H2292 H 0.06054 0.7322 0.72069 0.0
H2293 H 0.10089 0.71833 0.7473 0.0
C2294 C 0.10953 0.71096 0.72782 0.0
C2295 C 0.10766 0.70951 0.71313 0.0
C2296 C 0.06304 0.73442 0.73166 0.0
C2297 C 0.08648 0.72188 0.72963 0.0
C2298 C 0.05377 0.74272 0.73951 0.0
C2299 C 0.05703 0.74622 0.75359 0.0
C2300 C 0.07563 0.72954 0.73795 0.0
C2301 C 0.06938 0.74058 0.75964 0.0
C2302 C 0.09903 0.71709 0.73606 0.0
C2303 C 0.09478 0.71407 0.70718 0.0
N2304 N 0.07825 0.73263 0.75178 0.0
N2305 N 0.08474 0.7201 0.71542 0.0
H2306 H 0.82309 0.59751 0.69968 0.0
H2307 H 0.79312 0.56802 0.77328 0.0
H2308 H 0.83633 0.61309 0.74055 0.0
H2309 H 0.78464 0.54731 0.73359 0.0
H2310 H 0.80957 0.58416 0.76129 0.0
H2311 H 0.80914 0.5789 0.71156 0.0
C2312 C 0.82307 0.59702 0.71114 0.0
C2313 C 0.83092 0.6069 0.71911 0.0
C2314 C 0.80426 0.57602 0.75517 0.0
C2315 C 0.81505 0.58559 0.73277 0.0
C2316 C 0.79489 0.56679 0.76204 0.0
C2317 C 0.78752 0.55636 0.75439 0.0
C2318 C 0.80616 0.57499 0.74048 0.0
C2319 C 0.7902 0.55518 0.73985 0.0
C2320 C 0.8152 0.58633 0.7179 0.0
C2321 C 0.83062 0.60564 0.73393 0.0
N2322 N 0.79918 0.5645 0.73331 0.0
N2323 N 0.82278 0.59527 0.74025 0.0
H2324 H 0.91495 0.3291 0.73386 0.0
H2325 H 0.98661 0.28434 0.73464 0.0
H2326 H 0.93513 0.31418 0.69597 0.0
H2327 H 0.96071 0.29097 0.77138 0.0
H2328 H 0.97033 0.29899 0.72063 0.0
H2329 H 0.93388 0.31858 0.74797 0.0
C2330 C 0.92333 0.32362 0.72847 0.0
C2331 C 0.92328 0.32243 0.71365 0.0
C2332 C 0.96831 0.29737 0.7318 0.0
C2333 C 0.94521 0.31051 0.72984 0.0
C2334 C 0.97766 0.28913 0.7398 0.0
C2335 C 0.97494 0.28639 0.75415 0.0
C2336 C 0.95623 0.303 0.73823 0.0
C2337 C 0.96311 0.29273 0.76031 0.0
C2338 C 0.93421 0.31768 0.73656 0.0
C2339 C 0.93471 0.3155 0.70732 0.0
N2340 N 0.95417 0.30065 0.75232 0.0
N2341 N 0.94515 0.30975 0.71544 0.0
H2342 H 0.20873 0.4333 0.70264 0.0
H2343 H 0.23749 0.46175 0.77705 0.0
H2344 H 0.19515 0.41671 0.74306 0.0
H2345 H 0.24537 0.4838 0.73778 0.0
H2346 H 0.22146 0.44552 0.76462 0.0
H2347 H 0.22214 0.45193 0.71499 0.0
C2348 C 0.20856 0.43356 0.71409 0.0
C2349 C 0.20077 0.4234 0.7218 0.0
C2350 C 0.22653 0.45399 0.7587 0.0
C2351 C 0.21604 0.44473 0.736 0.0
C2352 C 0.23565 0.46328 0.76581 0.0
C2353 C 0.24274 0.47412 0.75842 0.0
C2354 C 0.22462 0.45537 0.744 0.0
C2355 C 0.24001 0.47563 0.74387 0.0
C2356 C 0.21613 0.44427 0.72113 0.0
C2357 C 0.20083 0.42438 0.73664 0.0
N2358 N 0.2313 0.46625 0.73708 0.0
N2359 N 0.20839 0.43477 0.74322 0.0
H2360 H 0.11673 0.32682 0.30832 0.0
H2361 H 0.04211 0.28579 0.30341 0.0
H2362 H 0.08997 0.31857 0.34443 0.0
H2363 H 0.06969 0.29325 0.2678 0.0
H2364 H 0.05796 0.30036 0.31809 0.0
H2365 H 0.09825 0.31707 0.29293 0.0
C2366 C 0.1069 0.32314 0.31302 0.0
C2367 C 0.10499 0.32345 0.32775 0.0
C2368 C 0.06046 0.29894 0.30702 0.0
C2369 C 0.08377 0.31203 0.31011 0.0
C2370 C 0.05135 0.29071 0.29861 0.0
C2371 C 0.05466 0.28817 0.28439 0.0
C2372 C 0.07296 0.30467 0.30117 0.0
C2373 C 0.06685 0.29473 0.27877 0.0
C2374 C 0.09636 0.31748 0.30421 0.0
C2375 C 0.09205 0.31832 0.33319 0.0
N2376 N 0.0756 0.30255 0.28719 0.0
N2377 N 0.08199 0.31275 0.32439 0.0
H2378 H 0.21665 0.59348 0.34253 0.0
H2379 H 0.24173 0.56923 0.26598 0.0
H2380 H 0.20552 0.61529 0.30385 0.0
H2381 H 0.2478 0.5439 0.30354 0.0
H2382 H 0.22717 0.5854 0.27955 0.0
H2383 H 0.22688 0.57458 0.32851 0.0
C2384 C 0.21618 0.59425 0.3311 0.0
C2385 C 0.21025 0.60613 0.32441 0.0
C2386 C 0.23151 0.57623 0.28483 0.0
C2387 C 0.22221 0.58451 0.30825 0.0
C2388 C 0.2398 0.56697 0.27707 0.0
C2389 C 0.24603 0.55524 0.28367 0.0
C2390 C 0.22954 0.57388 0.29939 0.0
C2391 C 0.24314 0.55279 0.29804 0.0
C2392 C 0.2221 0.58345 0.32309 0.0
C2393 C 0.21019 0.60654 0.30953 0.0
N2394 N 0.23526 0.56213 0.30547 0.0
N2395 N 0.21615 0.59597 0.30199 0.0
H2396 H 0.93539 0.69061 0.3162 0.0
H2397 H 0.9631 0.76933 0.29983 0.0
H2398 H 0.9148 0.72822 0.33082 0.0
H2399 H 0.983 0.7323 0.28309 0.0
H2400 H 0.94684 0.75418 0.31324 0.0
H2401 H 0.95412 0.70539 0.3058 0.0
C2402 C 0.93478 0.70197 0.31724 0.0
C2403 C 0.92336 0.70815 0.32434 0.0
C2404 C 0.95481 0.74932 0.30673 0.0
C2405 C 0.94496 0.72516 0.31253 0.0
C2406 C 0.96411 0.75798 0.29907 0.0
C2407 C 0.97435 0.75208 0.29021 0.0
C2408 C 0.95565 0.73458 0.30555 0.0
C2409 C 0.9753 0.7373 0.28981 0.0
C2410 C 0.94555 0.7104 0.31136 0.0
C2411 C 0.92339 0.72293 0.32558 0.0
N2412 N 0.96597 0.72905 0.29725 0.0
N2413 N 0.93394 0.73089 0.31968 0.0
H2414 H 0.84569 0.43575 0.31164 0.0
H2415 H 0.76696 0.4648 0.30084 0.0
H2416 H 0.80828 0.41656 0.33002 0.0
H2417 H 0.80345 0.48379 0.28066 0.0
H2418 H 0.78248 0.44853 0.31342 0.0
H2419 H 0.83098 0.45454 0.30175 0.0
C2420 C 0.8344 0.43545 0.31362 0.0
C2421 C 0.82825 0.42443 0.32165 0.0
C2422 C 0.78717 0.4563 0.30634 0.0
C2423 C 0.81134 0.44609 0.31044 0.0
C2424 C 0.77829 0.46561 0.29916 0.0
C2425 C 0.78391 0.47558 0.28959 0.0
C2426 C 0.80184 0.45684 0.30394 0.0
C2427 C 0.79869 0.47628 0.28796 0.0
C2428 C 0.82602 0.44626 0.30802 0.0
C2429 C 0.81357 0.42485 0.32405 0.0
N2430 N 0.80714 0.46692 0.29495 0.0
N2431 N 0.80565 0.43541 0.31842 0.0
H2432 H 0.19061 0.59299 0.72767 0.0
H2433 H 0.26839 0.56384 0.74102 0.0
H2434 H 0.22763 0.60942 0.70613 0.0
H2435 H 0.23079 0.5418 0.75525 0.0
H2436 H 0.25355 0.58006 0.72741 0.0
H2437 H 0.20487 0.57374 0.73717 0.0
C2438 C 0.20168 0.5925 0.72476 0.0
C2439 C 0.20788 0.603 0.7161 0.0
C2440 C 0.24851 0.57157 0.73333 0.0
C2441 C 0.22438 0.58099 0.72724 0.0
C2442 C 0.25699 0.5623 0.74108 0.0
C2443 C 0.2508 0.55149 0.74929 0.0
C2444 C 0.23368 0.57021 0.73395 0.0
C2445 C 0.23598 0.54994 0.74899 0.0
C2446 C 0.20984 0.5815 0.73027 0.0
C2447 C 0.22238 0.60181 0.71297 0.0
N2448 N 0.22791 0.55932 0.74162 0.0
N2449 N 0.23012 0.59111 0.71861 0.0
H2450 H 0.22852 0.41915 0.33509 0.0
H2451 H 0.23107 0.48875 0.2863 0.0
H2452 H 0.1914 0.43728 0.31558 0.0
H2453 H 0.26773 0.46396 0.29673 0.0
H2454 H 0.21642 0.47267 0.30078 0.0
H2455 H 0.243 0.43797 0.32456 0.0
C2456 C 0.22338 0.42706 0.3286 0.0
C2457 C 0.20868 0.42646 0.32612 0.0
C2458 C 0.2277 0.47085 0.30002 0.0
C2459 C 0.22526 0.44827 0.31421 0.0
C2460 C 0.23606 0.48009 0.29187 0.0
C2461 C 0.25059 0.47761 0.29027 0.0
C2462 C 0.23395 0.45915 0.30671 0.0
C2463 C 0.25653 0.46615 0.2976 0.0
C2464 C 0.23167 0.43787 0.32266 0.0
C2465 C 0.20264 0.43731 0.31791 0.0
N2466 N 0.24819 0.45732 0.30543 0.0
N2467 N 0.21095 0.4477 0.3122 0.0
H2468 H 0.10291 0.69147 0.30071 0.0
H2469 H 0.04826 0.75558 0.30483 0.0
H2470 H 0.09992 0.71818 0.33738 0.0
H2471 H 0.05858 0.73337 0.26666 0.0
H2472 H 0.0645 0.74012 0.31815 0.0
H2473 H 0.08413 0.70485 0.28933 0.0
C2474 C 0.0982 0.70006 0.30646 0.0
C2475 C 0.10303 0.70364 0.32008 0.0
C2476 C 0.06309 0.73856 0.30688 0.0
C2477 C 0.08148 0.71926 0.30691 0.0
C2478 C 0.05375 0.74729 0.29933 0.0
C2479 C 0.05214 0.74573 0.28465 0.0
C2480 C 0.0707 0.72816 0.29967 0.0
C2481 C 0.05959 0.73494 0.27796 0.0
C2482 C 0.08751 0.70779 0.29989 0.0
C2483 C 0.09664 0.71511 0.32683 0.0
N2484 N 0.06854 0.72663 0.28549 0.0
N2485 N 0.0862 0.72252 0.32019 0.0
H2486 H 0.83276 0.60903 0.31393 0.0
H2487 H 0.7754 0.54606 0.30741 0.0
H2488 H 0.80223 0.59919 0.34655 0.0
H2489 H 0.79801 0.56405 0.27196 0.0
H2490 H 0.78805 0.56258 0.3232 0.0
H2491 H 0.82279 0.58992 0.29964 0.0
C2492 C 0.82395 0.6029 0.31811 0.0
C2493 C 0.81828 0.60591 0.33147 0.0
C2494 C 0.79033 0.5628 0.31199 0.0
C2495 C 0.80694 0.58372 0.31517 0.0
C2496 C 0.78321 0.55331 0.30301 0.0
C2497 C 0.78564 0.55376 0.28838 0.0
C2498 C 0.80004 0.57266 0.30627 0.0
C2499 C 0.79577 0.56344 0.28318 0.0
C2500 C 0.81832 0.59191 0.30996 0.0
C2501 C 0.80708 0.59726 0.33641 0.0
N2502 N 0.80255 0.57252 0.29209 0.0
N2503 N 0.80176 0.58661 0.32825 0.0
H2504 H 0.91999 0.29162 0.34097 0.0
H2505 H 0.9861 0.29909 0.28822 0.0
H2506 H 0.93424 0.33171 0.32394 0.0
H2507 H 0.96581 0.25956 0.29941 0.0
H2508 H 0.96957 0.31142 0.30382 0.0
H2509 H 0.93889 0.27997 0.32822 0.0
C2510 C 0.92718 0.29802 0.33465 0.0
C2511 C 0.92549 0.31271 0.33358 0.0
C2512 C 0.96884 0.30003 0.30296 0.0
C2513 C 0.94722 0.29932 0.31874 0.0
C2514 C 0.97836 0.293 0.29419 0.0
C2515 C 0.97727 0.2783 0.29251 0.0
C2516 C 0.95829 0.29228 0.31019 0.0
C2517 C 0.96694 0.27091 0.30034 0.0
C2518 C 0.93794 0.29133 0.32728 0.0
C2519 C 0.93503 0.32036 0.32498 0.0
N2520 N 0.95784 0.27797 0.30877 0.0
N2521 N 0.94548 0.31359 0.31789 0.0
H2522 H 0.80104 0.41597 0.70979 0.0
H2523 H 0.79922 0.49078 0.74899 0.0
H2524 H 0.83836 0.44175 0.71733 0.0
H2525 H 0.7626 0.46378 0.74269 0.0
H2526 H 0.8133 0.47452 0.73481 0.0
H2527 H 0.78646 0.43476 0.71927 0.0
C2528 C 0.80618 0.42565 0.71326 0.0
C2529 C 0.82101 0.42718 0.71282 0.0
C2530 C 0.80214 0.47223 0.7364 0.0
C2531 C 0.8043 0.44878 0.72394 0.0
C2532 C 0.79408 0.48158 0.74439 0.0
C2533 C 0.77975 0.47856 0.74715 0.0
C2534 C 0.79581 0.4598 0.73109 0.0
C2535 C 0.77367 0.46641 0.74102 0.0
C2536 C 0.79784 0.43637 0.71877 0.0
C2537 C 0.82701 0.43995 0.71769 0.0
N2538 N 0.78173 0.45745 0.7334 0.0
N2539 N 0.81867 0.4502 0.72311 0.0
H2540 H 0.11378 0.32557 0.72871 0.0
H2541 H 0.04391 0.27652 0.73289 0.0
H2542 H 0.0937 0.30731 0.69184 0.0
H2543 H 0.06534 0.29445 0.76911 0.0
H2544 H 0.06049 0.28941 0.71733 0.0
H2545 H 0.09473 0.31592 0.7433 0.0
C2546 C 0.10529 0.31967 0.72363 0.0
C2547 C 0.10544 0.31725 0.70898 0.0
C2548 C 0.06148 0.29061 0.72868 0.0
C2549 C 0.08354 0.30589 0.72578 0.0
C2550 C 0.05195 0.28334 0.73755 0.0
C2551 C 0.05334 0.28431 0.75231 0.0
C2552 C 0.0724 0.29895 0.73465 0.0
C2553 C 0.06402 0.29322 0.75779 0.0
C2554 C 0.09442 0.31406 0.73201 0.0
C2555 C 0.09419 0.30928 0.70311 0.0
N2556 N 0.07316 0.3001 0.74899 0.0
N2557 N 0.08375 0.30384 0.71152 0.0
H2558 H 0.92639 0.69796 0.72303 0.0
H2559 H 0.98586 0.75867 0.73124 0.0
H2560 H 0.93289 0.73094 0.69185 0.0
H2561 H 0.96948 0.7339 0.76606 0.0
H2562 H 0.96975 0.74581 0.7151 0.0
H2563 H 0.94526 0.70842 0.73745 0.0
C2564 C 0.93174 0.70741 0.71919 0.0
C2565 C 0.92784 0.71363 0.70622 0.0
C2566 C 0.9698 0.74311 0.72626 0.0
C2567 C 0.94976 0.72553 0.72265 0.0
C2568 C 0.97904 0.75037 0.73542 0.0
C2569 C 0.9789 0.74735 0.74997 0.0
C2570 C 0.96055 0.73269 0.73171 0.0
C2571 C 0.96981 0.73659 0.75491 0.0
C2572 C 0.94259 0.71332 0.72741 0.0
C2573 C 0.93553 0.72567 0.70169 0.0
N2574 N 0.96099 0.72967 0.74582 0.0
N2575 N 0.94606 0.73125 0.70991 0.0
H2576 H 0.70503 0.22672 0.62098 0.0
H2577 H 0.74513 0.23029 0.54644 0.0
H2578 H 0.71329 0.19 0.59562 0.0
H2579 H 0.7377 0.26647 0.57274 0.0
H2580 H 0.73086 0.21573 0.56272 0.0
H2581 H 0.71442 0.2417 0.60202 0.0
C2582 C 0.70864 0.22178 0.61136 0.0
C2583 C 0.70843 0.20701 0.61 0.0
C2584 C 0.73221 0.22689 0.56483 0.0
C2585 C 0.71945 0.2242 0.58821 0.0
C2586 C 0.74025 0.23523 0.55547 0.0
C2587 C 0.74273 0.24959 0.55831 0.0
C2588 C 0.72658 0.23297 0.57711 0.0
C2589 C 0.73624 0.2554 0.57025 0.0
C2590 C 0.7141 0.23037 0.60054 0.0
C2591 C 0.71347 0.2013 0.5973 0.0
N2592 N 0.7286 0.24707 0.57925 0.0
N2593 N 0.71884 0.20987 0.58696 0.0
H2594 H 0.33142 0.20514 0.59872 0.0
H2595 H 0.25685 0.23432 0.57144 0.0
H2596 H 0.29105 0.19276 0.61647 0.0
H2597 H 0.2961 0.24296 0.54971 0.0
H2598 H 0.26929 0.21826 0.58741 0.0
H2599 H 0.31893 0.21861 0.58035 0.0
C2600 C 0.31995 0.20524 0.59876 0.0
C2601 C 0.31229 0.19778 0.60919 0.0
C2602 C 0.27521 0.22354 0.57908 0.0
C2603 C 0.29792 0.21313 0.58814 0.0
C2604 C 0.26809 0.23269 0.56996 0.0
C2605 C 0.27548 0.24002 0.55929 0.0
C2606 C 0.2899 0.22177 0.57768 0.0
C2607 C 0.29001 0.23746 0.55776 0.0
C2608 C 0.31282 0.21286 0.58821 0.0
C2609 C 0.29742 0.19817 0.60859 0.0
N2610 N 0.2968 0.22867 0.56697 0.0
N2611 N 0.29076 0.20576 0.59832 0.0
H2612 H 0.29067 0.83977 0.61368 0.0
H2613 H 0.29801 0.78521 0.54958 0.0
H2614 H 0.33069 0.82211 0.60144 0.0
H2615 H 0.25826 0.79715 0.56801 0.0
H2616 H 0.31046 0.80125 0.566 0.0
H2617 H 0.27899 0.82663 0.59473 0.0
C2618 C 0.29705 0.83323 0.60692 0.0
C2619 C 0.31173 0.8321 0.60919 0.0
C2620 C 0.299 0.80046 0.56633 0.0
C2621 C 0.2983 0.81682 0.58741 0.0
C2622 C 0.2919 0.79143 0.55688 0.0
C2623 C 0.2771 0.78984 0.55748 0.0
C2624 C 0.29121 0.80802 0.57636 0.0
C2625 C 0.26969 0.79801 0.56726 0.0
C2626 C 0.29034 0.82565 0.59613 0.0
C2627 C 0.31935 0.82321 0.60019 0.0
N2628 N 0.27681 0.80667 0.57632 0.0
N2629 N 0.31255 0.81592 0.5897 0.0
H2630 H 0.71476 0.84202 0.5957 0.0
H2631 H 0.73931 0.76437 0.57463 0.0
H2632 H 0.70712 0.80482 0.62132 0.0
H2633 H 0.74629 0.80088 0.54797 0.0
H2634 H 0.72552 0.7788 0.59072 0.0
H2635 H 0.72468 0.82709 0.57727 0.0
C2636 C 0.71514 0.83072 0.59747 0.0
C2637 C 0.71015 0.82472 0.61018 0.0
C2638 C 0.72992 0.78367 0.58129 0.0
C2639 C 0.72143 0.80751 0.58899 0.0
C2640 C 0.73778 0.77542 0.57209 0.0
C2641 C 0.74406 0.78147 0.56 0.0
C2642 C 0.72836 0.79817 0.57851 0.0
C2643 C 0.74161 0.7958 0.55715 0.0
C2644 C 0.72073 0.82219 0.58688 0.0
C2645 C 0.7107 0.80996 0.61169 0.0
N2646 N 0.7341 0.80371 0.56642 0.0
N2647 N 0.71631 0.80191 0.6013 0.0
H2648 H 0.71978 0.84455 0.44349 0.0
H2649 H 0.73422 0.76553 0.46998 0.0
H2650 H 0.70376 0.80718 0.42256 0.0
H2651 H 0.75198 0.8022 0.49068 0.0
H2652 H 0.72103 0.78094 0.45402 0.0
H2653 H 0.72991 0.82959 0.46207 0.0
C2654 C 0.71836 0.83321 0.44279 0.0
C2655 C 0.71095 0.82715 0.43133 0.0
C2656 C 0.72772 0.78567 0.46209 0.0
C2657 C 0.72244 0.80994 0.45271 0.0
C2658 C 0.73526 0.77687 0.47121 0.0
C2659 C 0.74433 0.7826 0.48157 0.0
C2660 C 0.72927 0.80039 0.46323 0.0
C2661 C 0.7451 0.79735 0.48285 0.0
C2662 C 0.72409 0.82468 0.45347 0.0
C2663 C 0.70924 0.81239 0.4312 0.0
N2664 N 0.73778 0.80576 0.47368 0.0
N2665 N 0.715 0.80433 0.44165 0.0
H2666 H 0.68997 0.21907 0.43913 0.0
H2667 H 0.76793 0.2355 0.46824 0.0
H2668 H 0.72768 0.20101 0.42139 0.0
H2669 H 0.73016 0.24774 0.49025 0.0
H2670 H 0.75331 0.22175 0.45176 0.0
H2671 H 0.70427 0.22864 0.45852 0.0
C2672 C 0.70121 0.21694 0.43936 0.0
C2673 C 0.70758 0.20923 0.42847 0.0
C2674 C 0.74819 0.22727 0.46029 0.0
C2675 C 0.72412 0.22045 0.45066 0.0
C2676 C 0.75655 0.2351 0.46972 0.0
C2677 C 0.75024 0.24282 0.48059 0.0
C2678 C 0.73336 0.22727 0.46158 0.0
C2679 C 0.73545 0.24189 0.48206 0.0
C2680 C 0.7094 0.22249 0.45045 0.0
C2681 C 0.72229 0.20709 0.42934 0.0
N2682 N 0.7275 0.23443 0.47254 0.0
N2683 N 0.73004 0.21274 0.44015 0.0
H2684 H 0.305 0.20399 0.42225 0.0
H2685 H 0.3014 0.25281 0.49123 0.0
H2686 H 0.34223 0.22142 0.44276 0.0
H2687 H 0.26485 0.23584 0.46927 0.0
H2688 H 0.31679 0.23965 0.47519 0.0
H2689 H 0.29041 0.21381 0.44088 0.0
C2690 C 0.31016 0.20973 0.43075 0.0
C2691 C 0.32492 0.21189 0.43083 0.0
C2692 C 0.30539 0.23872 0.47397 0.0
C2693 C 0.30813 0.22346 0.45223 0.0
C2694 C 0.29662 0.24616 0.48318 0.0
C2695 C 0.28184 0.24553 0.48148 0.0
C2696 C 0.29931 0.23056 0.46305 0.0
C2697 C 0.27621 0.2368 0.47082 0.0
C2698 C 0.30178 0.21545 0.44137 0.0
C2699 C 0.33089 0.21967 0.44209 0.0
N2700 N 0.28492 0.22976 0.46199 0.0
N2701 N 0.32249 0.22521 0.45227 0.0
H2702 H 0.32804 0.80131 0.41913 0.0
H2703 H 0.28519 0.79807 0.49205 0.0
H2704 H 0.31759 0.83823 0.44332 0.0
H2705 H 0.29574 0.7614 0.46761 0.0
H2706 H 0.29941 0.81274 0.4759 0.0
H2707 H 0.31853 0.78641 0.43811 0.0
C2708 C 0.32392 0.80631 0.4285 0.0
C2709 C 0.32355 0.8211 0.42952 0.0
C2710 C 0.29875 0.80146 0.47416 0.0
C2711 C 0.31241 0.80402 0.45132 0.0
C2712 C 0.29073 0.79306 0.48346 0.0
C2713 C 0.28914 0.77849 0.48111 0.0
C2714 C 0.30524 0.79526 0.4624 0.0
C2715 C 0.29647 0.77261 0.4697 0.0
C2716 C 0.3184 0.79778 0.43933 0.0
C2717 C 0.31787 0.82691 0.4419 0.0
N2718 N 0.30407 0.78101 0.46072 0.0
N2719 N 0.31246 0.81838 0.45224 0.0
H2720 H 0.61645 0.20377 0.73259 0.0
H2721 H 0.54217 0.2439 0.73413 0.0
H2722 H 0.59101 0.21145 0.69529 0.0
H2723 H 0.56842 0.23674 0.77092 0.0
H2724 H 0.55836 0.22956 0.72013 0.0
H2725 H 0.59761 0.21342 0.7471 0.0
C2726 C 0.60684 0.20731 0.72744 0.0
C2727 C 0.60543 0.20685 0.71263 0.0
C2728 C 0.56049 0.23099 0.73131 0.0
C2729 C 0.58376 0.21817 0.72926 0.0
C2730 C 0.55118 0.23908 0.73932 0.0
C2731 C 0.55402 0.24165 0.75368 0.0
C2732 C 0.57272 0.2254 0.73771 0.0
C2733 C 0.56593 0.23523 0.75983 0.0
C2734 C 0.59609 0.21291 0.73574 0.0
C2735 C 0.59273 0.21181 0.70661 0.0
N2736 N 0.57488 0.22753 0.75181 0.0
N2737 N 0.58246 0.21732 0.71492 0.0
H2738 H 0.34599 0.09436 0.72608 0.0
H2739 H 0.26614 0.06792 0.73927 0.0
H2740 H 0.309 0.11427 0.70823 0.0
H2741 H 0.30228 0.04747 0.75806 0.0
H2742 H 0.28208 0.08371 0.72628 0.0
H2743 H 0.33061 0.07613 0.7366 0.0
C2744 C 0.33465 0.09492 0.72435 0.0
C2745 C 0.32881 0.10595 0.71626 0.0
C2746 C 0.28659 0.07574 0.73316 0.0
C2747 C 0.31115 0.08499 0.72819 0.0
C2748 C 0.27748 0.06671 0.74058 0.0
C2749 C 0.2829 0.05646 0.74987 0.0
C2750 C 0.30131 0.07462 0.73503 0.0
C2751 C 0.29768 0.05523 0.751 0.0
C2752 C 0.32589 0.08444 0.7303 0.0
C2753 C 0.31405 0.10593 0.71421 0.0
N2754 N 0.30639 0.06431 0.74378 0.0
N2755 N 0.30577 0.09569 0.72018 0.0
H2756 H 0.41194 0.82848 0.73094 0.0
H2757 H 0.48495 0.78612 0.73474 0.0
H2758 H 0.43591 0.81727 0.69398 0.0
H2759 H 0.45961 0.79607 0.7711 0.0
H2760 H 0.46877 0.79993 0.71982 0.0
H2761 H 0.43075 0.81899 0.7459 0.0
C2762 C 0.42122 0.82419 0.72594 0.0
C2763 C 0.42224 0.82364 0.71112 0.0
C2764 C 0.46684 0.79922 0.73109 0.0
C2765 C 0.44387 0.81251 0.7283 0.0
C2766 C 0.47615 0.79144 0.73962 0.0
C2767 C 0.47355 0.78983 0.75416 0.0
C2768 C 0.45488 0.80547 0.73715 0.0
C2769 C 0.4619 0.79686 0.7599 0.0
C2770 C 0.43196 0.81867 0.73451 0.0
C2771 C 0.43451 0.81772 0.70533 0.0
N2772 N 0.45296 0.80425 0.75139 0.0
N2773 N 0.44478 0.81233 0.71391 0.0
H2774 H 0.71017 0.93289 0.70207 0.0
H2775 H 0.73399 0.96448 0.77697 0.0
H2776 H 0.69303 0.91889 0.74209 0.0
H2777 H 0.74648 0.98354 0.73735 0.0
H2778 H 0.71835 0.94819 0.76414 0.0
H2779 H 0.72338 0.95163 0.71445 0.0
C2780 C 0.70918 0.93374 0.71344 0.0
C2781 C 0.70043 0.92427 0.72102 0.0
C2782 C 0.72436 0.95602 0.75821 0.0
C2783 C 0.71548 0.94576 0.73526 0.0
C2784 C 0.73325 0.96535 0.76555 0.0
C2785 C 0.74153 0.97535 0.7582 0.0
C2786 C 0.72384 0.95652 0.74335 0.0
C2787 C 0.74019 0.97603 0.7434 0.0
C2788 C 0.71665 0.94451 0.72049 0.0
C2789 C 0.69946 0.92602 0.73575 0.0
N2790 N 0.73165 0.96662 0.73643 0.0
N2791 N 0.70693 0.93646 0.74235 0.0
H2792 H 0.59013 0.8174 0.34606 0.0
H2793 H 0.57153 0.78955 0.26826 0.0
H2794 H 0.61725 0.82352 0.30983 0.0
H2795 H 0.54371 0.78352 0.30391 0.0
H2796 H 0.58728 0.804 0.28298 0.0
H2797 H 0.57211 0.80672 0.33061 0.0
C2798 C 0.5923 0.81654 0.33486 0.0
C2799 C 0.60531 0.82131 0.32929 0.0
C2800 C 0.57768 0.79964 0.28759 0.0
C2801 C 0.58463 0.80915 0.31149 0.0
C2802 C 0.56869 0.79138 0.27918 0.0
C2803 C 0.55637 0.78519 0.28492 0.0
C2804 C 0.57444 0.8017 0.30192 0.0
C2805 C 0.55309 0.7881 0.29907 0.0
C2806 C 0.58196 0.8105 0.32602 0.0
C2807 C 0.60737 0.82013 0.31463 0.0
N2808 N 0.56216 0.79601 0.30714 0.0
N2809 N 0.59721 0.81409 0.30629 0.0
H2810 H 0.73185 0.10525 0.34189 0.0
H2811 H 0.72935 0.0501 0.27775 0.0
H2812 H 0.69565 0.10129 0.314 0.0
H2813 H 0.7673 0.06257 0.30026 0.0
H2814 H 0.71561 0.06612 0.29276 0.0
H2815 H 0.74373 0.08696 0.3286 0.0
C2816 C 0.72631 0.10042 0.33305 0.0
C2817 C 0.71268 0.10483 0.32911 0.0
C2818 C 0.72693 0.06525 0.29446 0.0
C2819 C 0.72641 0.08386 0.31362 0.0
C2820 C 0.73472 0.05605 0.28598 0.0
C2821 C 0.74946 0.05509 0.28777 0.0
C2822 C 0.73395 0.07335 0.30486 0.0
C2823 C 0.75596 0.06309 0.29849 0.0
C2824 C 0.73316 0.09002 0.32538 0.0
C2825 C 0.7062 0.09832 0.31735 0.0
N2826 N 0.74819 0.07186 0.30659 0.0
N2827 N 0.71312 0.08816 0.31001 0.0
H2828 H 0.41303 0.22822 0.32819 0.0
H2829 H 0.48787 0.23198 0.28844 0.0
H2830 H 0.43958 0.19198 0.32219 0.0
H2831 H 0.45969 0.26723 0.29239 0.0
H2832 H 0.47193 0.21783 0.3035 0.0
H2833 H 0.43148 0.24322 0.31775 0.0
C2834 C 0.42281 0.22342 0.32486 0.0
C2835 C 0.42466 0.20876 0.32602 0.0
C2836 C 0.46931 0.22871 0.30119 0.0
C2837 C 0.44586 0.22594 0.31381 0.0
C2838 C 0.47847 0.23682 0.29269 0.0
C2839 C 0.47502 0.25075 0.28904 0.0
C2840 C 0.45665 0.23461 0.3061 0.0
C2841 C 0.46264 0.25645 0.29476 0.0
C2842 C 0.43333 0.232 0.3188 0.0
C2843 C 0.43754 0.20317 0.3213 0.0
N2844 N 0.45388 0.24834 0.30289 0.0
N2845 N 0.44759 0.21174 0.31535 0.0
H2846 H 0.30462 0.91274 0.32881 0.0
H2847 H 0.3021 0.98791 0.28928 0.0
H2848 H 0.34187 0.93837 0.32054 0.0
H2849 H 0.26562 0.96083 0.29594 0.0
H2850 H 0.31648 0.97146 0.30333 0.0
H2851 H 0.28991 0.93164 0.31935 0.0
C2852 C 0.30973 0.9224 0.32518 0.0
C2853 C 0.32457 0.92386 0.32542 0.0
C2854 C 0.30529 0.9692 0.30185 0.0
C2855 C 0.30769 0.94559 0.31432 0.0
C2856 C 0.29706 0.97865 0.29393 0.0
C2857 C 0.28267 0.97567 0.29132 0.0
C2858 C 0.29906 0.9567 0.30723 0.0
C2859 C 0.27672 0.96345 0.29751 0.0
C2860 C 0.3013 0.93319 0.31968 0.0
C2861 C 0.33051 0.93662 0.32035 0.0
N2862 N 0.28494 0.95439 0.30506 0.0
N2863 N 0.32208 0.94694 0.31495 0.0
H2864 H 0.72871 0.11466 0.70954 0.0
H2865 H 0.73185 0.04082 0.75133 0.0
H2866 H 0.6916 0.08957 0.71978 0.0
H2867 H 0.76859 0.06655 0.74151 0.0
H2868 H 0.71717 0.057 0.73735 0.0
H2869 H 0.74361 0.09583 0.71886 0.0
C2870 C 0.72367 0.10513 0.71358 0.0
C2871 C 0.70882 0.10381 0.71393 0.0
C2872 C 0.72847 0.05901 0.73811 0.0
C2873 C 0.72592 0.08216 0.72487 0.0
C2874 C 0.73688 0.0497 0.74599 0.0
C2875 C 0.75145 0.0524 0.74772 0.0
C2876 C 0.73469 0.07112 0.73189 0.0
C2877 C 0.75736 0.06417 0.74066 0.0
C2878 C 0.73221 0.09439 0.71899 0.0
C2879 C 0.70297 0.09122 0.71951 0.0
N2880 N 0.74896 0.07313 0.73319 0.0
N2881 N 0.71151 0.08095 0.72481 0.0
H2882 H 0.72693 0.91908 0.33296 0.0
H2883 H 0.7286 0.98876 0.28429 0.0
H2884 H 0.68945 0.93703 0.31397 0.0
H2885 H 0.76532 0.96362 0.29352 0.0
H2886 H 0.71421 0.97264 0.299 0.0
H2887 H 0.74119 0.93791 0.32214 0.0
C2888 C 0.72166 0.92695 0.32653 0.0
C2889 C 0.70693 0.92629 0.32427 0.0
C2890 C 0.72545 0.97075 0.29792 0.0
C2891 C 0.72325 0.94811 0.31203 0.0
C2892 C 0.73366 0.98 0.28964 0.0
C2893 C 0.74812 0.97744 0.28764 0.0
C2894 C 0.7318 0.95897 0.30436 0.0
C2895 C 0.75416 0.96588 0.2947 0.0
C2896 C 0.72982 0.93776 0.32042 0.0
C2897 C 0.70073 0.93709 0.31613 0.0
N2898 N 0.74598 0.95705 0.30268 0.0
N2899 N 0.70892 0.94749 0.31025 0.0
H2900 H 0.60895 0.22527 0.33404 0.0
H2901 H 0.54459 0.22959 0.27828 0.0
H2902 H 0.59653 0.19056 0.30704 0.0
H2903 H 0.56429 0.2659 0.29788 0.0
H2904 H 0.56089 0.21425 0.29154 0.0
H2905 H 0.59022 0.23946 0.32344 0.0
C2906 C 0.60233 0.2206 0.32587 0.0
C2907 C 0.6045 0.20667 0.32138 0.0
C2908 C 0.56155 0.22557 0.29302 0.0
C2909 C 0.58274 0.2229 0.30932 0.0
C2910 C 0.55218 0.2343 0.28555 0.0
C2911 C 0.55316 0.24902 0.28694 0.0
C2912 C 0.57184 0.23163 0.30204 0.0
C2913 C 0.56327 0.2546 0.29641 0.0
C2914 C 0.59155 0.22871 0.31988 0.0
C2915 C 0.59525 0.20117 0.31098 0.0
N2916 N 0.57222 0.24592 0.30354 0.0
N2917 N 0.58484 0.2093 0.30528 0.0
H2918 H 0.32486 0.117 0.30979 0.0
H2919 H 0.28579 0.04135 0.30647 0.0
H2920 H 0.31702 0.09097 0.34666 0.0
H2921 H 0.2913 0.06914 0.27054 0.0
H2922 H 0.30005 0.05778 0.32088 0.0
H2923 H 0.31534 0.09814 0.29489 0.0
C2924 C 0.32132 0.10726 0.31477 0.0
C2925 C 0.3217 0.10567 0.32956 0.0
C2926 C 0.29828 0.06019 0.3098 0.0
C2927 C 0.31054 0.08398 0.31247 0.0
C2928 C 0.29025 0.05076 0.30155 0.0
C2929 C 0.28725 0.05395 0.28733 0.0
C2930 C 0.30339 0.07288 0.30375 0.0
C2931 C 0.2932 0.06636 0.28152 0.0
C2932 C 0.31578 0.0965 0.30624 0.0
C2933 C 0.31672 0.09281 0.33535 0.0
N2934 N 0.30086 0.07539 0.28976 0.0
N2935 N 0.3113 0.08251 0.32682 0.0
H2936 H 0.42407 0.83152 0.31016 0.0
H2937 H 0.48514 0.77347 0.30508 0.0
H2938 H 0.43324 0.80195 0.34386 0.0
H2939 H 0.46865 0.79659 0.2693 0.0
H2940 H 0.46887 0.78628 0.32059 0.0
H2941 H 0.44281 0.82108 0.2961 0.0
C2942 C 0.42997 0.82282 0.31463 0.0
C2943 C 0.42689 0.81757 0.32823 0.0
C2944 C 0.46891 0.78862 0.30935 0.0
C2945 C 0.44866 0.80566 0.31217 0.0
C2946 C 0.47826 0.7814 0.30055 0.0
C2947 C 0.47816 0.78393 0.2859 0.0
C2948 C 0.45954 0.79853 0.30346 0.0
C2949 C 0.46897 0.79423 0.28052 0.0
C2950 C 0.44076 0.81691 0.3066 0.0
C2951 C 0.43525 0.80648 0.33351 0.0
N2952 N 0.46002 0.8011 0.28927 0.0
N2953 N 0.44568 0.80087 0.32547 0.0
H2954 H 0.302 0.91604 0.71125 0.0
H2955 H 0.29992 0.99081 0.75058 0.0
H2956 H 0.33929 0.94179 0.71904 0.0
H2957 H 0.26363 0.96318 0.74518 0.0
H2958 H 0.31404 0.97459 0.73638 0.0
H2959 H 0.28741 0.93465 0.72105 0.0
C2960 C 0.30713 0.92568 0.71485 0.0
C2961 C 0.32195 0.92726 0.71436 0.0
C2962 C 0.30295 0.97215 0.73818 0.0
C2963 C 0.30523 0.94865 0.72584 0.0
C2964 C 0.29486 0.98147 0.74619 0.0
C2965 C 0.28062 0.97827 0.74918 0.0
C2966 C 0.29671 0.95958 0.73309 0.0
C2967 C 0.27463 0.96596 0.74331 0.0
C2968 C 0.29878 0.93629 0.72055 0.0
C2969 C 0.32795 0.93996 0.71941 0.0
N2970 N 0.28271 0.95704 0.73565 0.0
N2971 N 0.31959 0.95012 0.72499 0.0
H2972 H 0.5918 0.80931 0.69 0.0
H2973 H 0.56335 0.79735 0.76892 0.0
H2974 H 0.6118 0.82665 0.72735 0.0
H2975 H 0.54303 0.77874 0.73243 0.0
H2976 H 0.57977 0.80998 0.75336 0.0
H2977 H 0.57279 0.79956 0.70482 0.0
C2978 C 0.59222 0.81109 0.7013 0.0
C2979 C 0.60353 0.81878 0.7074 0.0
C2980 C 0.57167 0.80324 0.74868 0.0
C2981 C 0.58164 0.80775 0.72443 0.0
C2982 C 0.56228 0.79604 0.75757 0.0
C2983 C 0.55189 0.78689 0.75196 0.0
C2984 C 0.57081 0.80127 0.73398 0.0
C2985 C 0.55087 0.7857 0.73718 0.0
C2986 C 0.58129 0.80558 0.70974 0.0
C2987 C 0.60329 0.82095 0.7221 0.0
N2988 N 0.56033 0.79269 0.72869 0.0
N2989 N 0.5926 0.81541 0.73007 0.0
H2990 H 0.41889 0.23898 0.69458 0.0
H2991 H 0.48583 0.23136 0.74665 0.0
H2992 H 0.43499 0.19867 0.70831 0.0
H2993 H 0.46516 0.27069 0.73725 0.0
H2994 H 0.46951 0.2193 0.73019 0.0
H2995 H 0.43779 0.25078 0.70783 0.0
C2996 C 0.42648 0.23258 0.70026 0.0
C2997 C 0.42531 0.21778 0.70029 0.0
C2998 C 0.46865 0.23059 0.73163 0.0
C2999 C 0.44701 0.23131 0.71573 0.0
C3000 C 0.47803 0.23748 0.74092 0.0
C3001 C 0.47677 0.25201 0.74337 0.0
C3002 C 0.45801 0.23833 0.72469 0.0
C3003 C 0.4664 0.25944 0.73577 0.0
C3004 C 0.43725 0.23935 0.70792 0.0
C3005 C 0.43537 0.2101 0.70811 0.0
N3006 N 0.4574 0.25252 0.72686 0.0
N3007 N 0.44578 0.21695 0.71552 0.0
H3008 H 0.7037 0.72488 0.11759 0.0
H3009 H 0.75424 0.72893 0.04963 0.0
H3010 H 0.72277 0.68818 0.0991 0.0
H3011 H 0.73447 0.76497 0.06855 0.0
H3012 H 0.74126 0.71344 0.06619 0.0
H3013 H 0.71335 0.73933 0.09839 0.0
C3014 C 0.70977 0.71979 0.10942 0.0
C3015 C 0.71244 0.70524 0.11008 0.0
C3016 C 0.73967 0.72473 0.06663 0.0
C3017 C 0.7238 0.72188 0.08804 0.0
C3018 C 0.74701 0.73356 0.05711 0.0
C3019 C 0.74554 0.74828 0.05781 0.0
C3020 C 0.7308 0.73067 0.07687 0.0
C3021 C 0.73609 0.7537 0.06779 0.0
C3022 C 0.71538 0.7281 0.09847 0.0
C3023 C 0.72061 0.69937 0.09922 0.0
N3024 N 0.72919 0.74494 0.07695 0.0
N3025 N 0.72605 0.7077 0.08871 0.0
H3026 H 0.32588 0.72174 0.11877 0.0
H3027 H 0.27601 0.72558 0.04982 0.0
H3028 H 0.30874 0.68463 0.09821 0.0
H3029 H 0.29215 0.76187 0.07238 0.0
H3030 H 0.28957 0.7102 0.06588 0.0
H3031 H 0.31525 0.73638 0.1004 0.0
C3032 C 0.32002 0.71663 0.1103 0.0
C3033 C 0.31822 0.70188 0.1101 0.0
C3034 C 0.2902 0.72154 0.06723 0.0
C3035 C 0.30572 0.71873 0.08901 0.0
C3036 C 0.28254 0.7303 0.05802 0.0
C3037 C 0.28285 0.745 0.05987 0.0
C3038 C 0.29827 0.72756 0.07829 0.0
C3039 C 0.29144 0.75058 0.07071 0.0
C3040 C 0.31384 0.72503 0.09983 0.0
C3041 C 0.31025 0.69595 0.09894 0.0
N3042 N 0.29871 0.74188 0.07952 0.0
N3043 N 0.30426 0.70439 0.08888 0.0
H3044 H 0.28991 0.33886 0.1153 0.0
H3045 H 0.29714 0.28553 0.05015 0.0
H3046 H 0.33014 0.32306 0.10127 0.0
H3047 H 0.25752 0.2963 0.06959 0.0
H3048 H 0.30954 0.30174 0.06642 0.0
H3049 H 0.27809 0.32569 0.09646 0.0
C3050 C 0.2963 0.33273 0.10817 0.0
C3051 C 0.31108 0.33211 0.10991 0.0
C3052 C 0.29812 0.30066 0.06701 0.0
C3053 C 0.2975 0.31679 0.08826 0.0
C3054 C 0.29104 0.29153 0.05765 0.0
C3055 C 0.2763 0.28954 0.05858 0.0
C3056 C 0.29037 0.30793 0.07728 0.0
C3057 C 0.26891 0.29744 0.0686 0.0
C3058 C 0.28951 0.32513 0.09743 0.0
C3059 C 0.31872 0.32374 0.10044 0.0
N3060 N 0.27601 0.30621 0.07757 0.0
N3061 N 0.31185 0.31641 0.09004 0.0
H3062 H 0.70619 0.30644 0.11856 0.0
H3063 H 0.75298 0.30315 0.04793 0.0
H3064 H 0.7213 0.34373 0.09653 0.0
H3065 H 0.7387 0.26669 0.07171 0.0
H3066 H 0.73976 0.31833 0.06414 0.0
H3067 H 0.71633 0.29188 0.10011 0.0
C3068 C 0.71149 0.31161 0.10976 0.0
C3069 C 0.71288 0.32639 0.10919 0.0
C3070 C 0.73945 0.30699 0.06573 0.0
C3071 C 0.72482 0.30964 0.08798 0.0
C3072 C 0.74692 0.29834 0.05643 0.0
C3073 C 0.74706 0.28365 0.05856 0.0
C3074 C 0.73202 0.30089 0.07717 0.0
C3075 C 0.73907 0.27798 0.0698 0.0
C3076 C 0.71739 0.30325 0.09924 0.0
C3077 C 0.72013 0.33238 0.09758 0.0
N3078 N 0.73197 0.28657 0.07868 0.0
N3079 N 0.72586 0.324 0.08748 0.0
H3080 H 0.70983 0.34063 0.94656 0.0
H3081 H 0.7378 0.26334 0.9654 0.0
H3082 H 0.70485 0.30459 0.91916 0.0
H3083 H 0.74341 0.29908 0.99301 0.0
H3084 H 0.72312 0.27773 0.94972 0.0
H3085 H 0.71984 0.3252 0.96481 0.0
C3086 C 0.71079 0.32947 0.94438 0.0
C3087 C 0.70659 0.32395 0.93121 0.0
C3088 C 0.72741 0.28242 0.95928 0.0
C3089 C 0.71796 0.30618 0.95217 0.0
C3090 C 0.73578 0.27419 0.96824 0.0
C3091 C 0.74195 0.28007 0.98045 0.0
C3092 C 0.72524 0.2967 0.96245 0.0
C3093 C 0.73884 0.29413 0.98372 0.0
C3094 C 0.71644 0.32065 0.95486 0.0
C3095 C 0.70783 0.30934 0.92915 0.0
N3096 N 0.73085 0.30203 0.97467 0.0
N3097 N 0.7135 0.30101 0.93944 0.0
H3098 H 0.68794 0.72593 0.93565 0.0
H3099 H 0.76506 0.73349 0.97006 0.0
H3100 H 0.72293 0.69918 0.92482 0.0
H3101 H 0.72865 0.75475 0.98662 0.0
H3102 H 0.74955 0.72038 0.95389 0.0
H3103 H 0.70228 0.73615 0.95471 0.0
C3104 C 0.69856 0.72205 0.93735 0.0
C3105 C 0.7042 0.71166 0.92848 0.0
C3106 C 0.74488 0.72778 0.96114 0.0
C3107 C 0.72081 0.72358 0.95025 0.0
C3108 C 0.75374 0.73526 0.97038 0.0
C3109 C 0.74812 0.74525 0.97965 0.0
C3110 C 0.73026 0.7304 0.96098 0.0
C3111 C 0.73339 0.7471 0.97968 0.0
C3112 C 0.70678 0.72797 0.94822 0.0
C3113 C 0.71817 0.70732 0.93114 0.0
N3114 N 0.72497 0.73987 0.97036 0.0
N3115 N 0.72598 0.71335 0.9417 0.0
H3116 H 0.30536 0.70334 0.92218 0.0
H3117 H 0.30224 0.75294 0.99062 0.0
H3118 H 0.3427 0.72154 0.94184 0.0
H3119 H 0.26558 0.73491 0.9697 0.0
H3120 H 0.31755 0.73989 0.9744 0.0
H3121 H 0.29095 0.7132 0.94092 0.0
C3122 C 0.31059 0.70926 0.93052 0.0
C3123 C 0.32532 0.71161 0.93033 0.0
C3124 C 0.30615 0.73871 0.97345 0.0
C3125 C 0.30873 0.72322 0.95186 0.0
C3126 C 0.29743 0.74608 0.98277 0.0
C3127 C 0.28262 0.74511 0.98141 0.0
C3128 C 0.3 0.73028 0.96278 0.0
C3129 C 0.27694 0.73613 0.97099 0.0
C3130 C 0.30231 0.715 0.94121 0.0
C3131 C 0.33138 0.71962 0.94138 0.0
N3132 N 0.28561 0.72917 0.96205 0.0
N3133 N 0.32307 0.72518 0.95164 0.0
H3134 H 0.32686 0.30101 0.91991 0.0
H3135 H 0.28372 0.29817 0.99274 0.0
H3136 H 0.31547 0.33817 0.94328 0.0
H3137 H 0.2947 0.26138 0.96868 0.0
H3138 H 0.29768 0.31286 0.97635 0.0
H3139 H 0.31736 0.2863 0.93902 0.0
C3140 C 0.32253 0.30611 0.92912 0.0
C3141 C 0.32192 0.32091 0.92988 0.0
C3142 C 0.29717 0.30155 0.97475 0.0
C3143 C 0.31079 0.30401 0.95185 0.0
C3144 C 0.2893 0.29314 0.98419 0.0
C3145 C 0.28792 0.27853 0.98202 0.0
C3146 C 0.30373 0.2953 0.96304 0.0
C3147 C 0.29529 0.27262 0.97065 0.0
C3148 C 0.31701 0.29767 0.94003 0.0
C3149 C 0.31596 0.32683 0.94207 0.0
N3150 N 0.30274 0.28102 0.96155 0.0
N3151 N 0.31057 0.31838 0.9525 0.0
H3152 H 0.61786 0.70496 0.23228 0.0
H3153 H 0.54395 0.74578 0.23394 0.0
H3154 H 0.59272 0.71337 0.19493 0.0
H3155 H 0.56998 0.73802 0.27076 0.0
H3156 H 0.5601 0.73149 0.21984 0.0
H3157 H 0.59906 0.71468 0.24679 0.0
C3158 C 0.60833 0.70868 0.22711 0.0
C3159 C 0.60699 0.70839 0.21229 0.0
C3160 C 0.56219 0.73278 0.23104 0.0
C3161 C 0.58537 0.71979 0.22895 0.0
C3162 C 0.5529 0.74084 0.23911 0.0
C3163 C 0.55569 0.74322 0.25352 0.0
C3164 C 0.57435 0.72703 0.23743 0.0
C3165 C 0.56753 0.73665 0.25964 0.0
C3166 C 0.5976 0.71432 0.23543 0.0
C3167 C 0.59439 0.71358 0.20627 0.0
N3168 N 0.57646 0.72899 0.25156 0.0
N3169 N 0.58414 0.71912 0.21459 0.0
H3170 H 0.32693 0.59555 0.20134 0.0
H3171 H 0.29564 0.56721 0.27485 0.0
H3172 H 0.3383 0.61276 0.2421 0.0
H3173 H 0.28825 0.54572 0.23538 0.0
H3174 H 0.31212 0.58336 0.26292 0.0
H3175 H 0.31316 0.57691 0.21332 0.0
C3176 C 0.32655 0.59542 0.21279 0.0
C3177 C 0.33381 0.60578 0.2207 0.0
C3178 C 0.30704 0.57504 0.25684 0.0
C3179 C 0.31812 0.58441 0.23448 0.0
C3180 C 0.29766 0.56581 0.26367 0.0
C3181 C 0.29057 0.55516 0.25606 0.0
C3182 C 0.30926 0.57379 0.24221 0.0
C3183 C 0.29357 0.55376 0.24161 0.0
C3184 C 0.31876 0.58471 0.21962 0.0
C3185 C 0.33305 0.60494 0.23553 0.0
N3186 N 0.30257 0.56309 0.2351 0.0
N3187 N 0.32531 0.59453 0.2419 0.0
H3188 H 0.41564 0.2931 0.19819 0.0
H3189 H 0.48459 0.30044 0.24791 0.0
H3190 H 0.4325 0.33338 0.21183 0.0
H3191 H 0.46244 0.26123 0.23971 0.0
H3192 H 0.46778 0.31268 0.23218 0.0
H3193 H 0.43467 0.28132 0.21098 0.0
C3194 C 0.42342 0.2995 0.20377 0.0
C3195 C 0.42243 0.3143 0.20387 0.0
C3196 C 0.46671 0.30137 0.23372 0.0
C3197 C 0.44433 0.30076 0.21876 0.0
C3198 C 0.47637 0.29438 0.24256 0.0
C3199 C 0.47487 0.27982 0.24512 0.0
C3200 C 0.45555 0.2937 0.22731 0.0
C3201 C 0.46393 0.27248 0.23808 0.0
C3202 C 0.43427 0.29274 0.21116 0.0
C3203 C 0.43274 0.32196 0.21156 0.0
N3204 N 0.45469 0.27949 0.22957 0.0
N3205 N 0.44325 0.31512 0.21868 0.0
H3206 H 0.6927 0.41975 0.24154 0.0
H3207 H 0.74711 0.48538 0.23676 0.0
H3208 H 0.71138 0.43387 0.20225 0.0
H3209 H 0.73478 0.46486 0.27573 0.0
H3210 H 0.73138 0.46909 0.2237 0.0
H3211 H 0.70551 0.43852 0.25391 0.0
C3212 C 0.6994 0.42689 0.23547 0.0
C3213 C 0.70093 0.42521 0.2208 0.0
C3214 C 0.73201 0.46826 0.23512 0.0
C3215 C 0.71581 0.44676 0.23501 0.0
C3216 C 0.74087 0.47763 0.24257 0.0
C3217 C 0.74226 0.47641 0.25733 0.0
C3218 C 0.72442 0.4577 0.24251 0.0
C3219 C 0.73408 0.46609 0.26434 0.0
C3220 C 0.70679 0.43757 0.24258 0.0
C3221 C 0.70999 0.43467 0.21358 0.0
N3222 N 0.72557 0.45712 0.25688 0.0
N3223 N 0.71708 0.44504 0.22075 0.0
H3224 H 0.59277 0.31174 0.84502 0.0
H3225 H 0.56852 0.28933 0.76742 0.0
H3226 H 0.61272 0.32778 0.80706 0.0
H3227 H 0.54307 0.28084 0.80433 0.0
H3228 H 0.5844 0.30407 0.78176 0.0
H3229 H 0.57409 0.30101 0.83049 0.0
C3230 C 0.59316 0.31319 0.83366 0.0
C3231 C 0.60448 0.32064 0.8273 0.0
C3232 C 0.57527 0.29914 0.78673 0.0
C3233 C 0.58315 0.3081 0.81054 0.0
C3234 C 0.56621 0.29073 0.77854 0.0
C3235 C 0.55453 0.28381 0.78474 0.0
C3236 C 0.57277 0.30052 0.8013 0.0
C3237 C 0.55195 0.28604 0.79916 0.0
C3238 C 0.5825 0.30699 0.82535 0.0
C3239 C 0.60443 0.32191 0.81246 0.0
N3240 N 0.56111 0.29405 0.80701 0.0
N3241 N 0.59403 0.31563 0.80462 0.0
H3242 H 0.70215 0.61702 0.80256 0.0
H3243 H 0.74512 0.54441 0.80228 0.0
H3244 H 0.71515 0.59519 0.84063 0.0
H3245 H 0.73923 0.57091 0.7655 0.0
H3246 H 0.73062 0.56069 0.81606 0.0
H3247 H 0.7125 0.59825 0.78851 0.0
C3248 C 0.70717 0.6083 0.808 0.0
C3249 C 0.70787 0.60784 0.82286 0.0
C3250 C 0.73237 0.56284 0.80493 0.0
C3251 C 0.71961 0.58609 0.80674 0.0
C3252 C 0.74052 0.55349 0.79705 0.0
C3253 C 0.74344 0.55637 0.78276 0.0
C3254 C 0.72701 0.5751 0.79845 0.0
C3255 C 0.73735 0.56837 0.77653 0.0
C3256 C 0.71302 0.59752 0.79995 0.0
C3257 C 0.71423 0.59601 0.82924 0.0
N3258 N 0.72952 0.57732 0.78441 0.0
N3259 N 0.71992 0.58568 0.82116 0.0
H3260 H 0.43559 0.68759 0.81476 0.0
H3261 H 0.46099 0.76698 0.7981 0.0
H3262 H 0.41436 0.72472 0.82969 0.0
H3263 H 0.48239 0.7306 0.78179 0.0
H3264 H 0.44514 0.75137 0.81141 0.0
H3265 H 0.45384 0.7028 0.80409 0.0
C3266 C 0.43474 0.69893 0.81582 0.0
C3267 C 0.42331 0.70484 0.82311 0.0
C3268 C 0.45333 0.74674 0.80501 0.0
C3269 C 0.44433 0.72234 0.81099 0.0
C3270 C 0.46239 0.75566 0.79739 0.0
C3271 C 0.47293 0.75008 0.78869 0.0
C3272 C 0.45471 0.73204 0.80394 0.0
C3273 C 0.47441 0.73535 0.78837 0.0
C3274 C 0.44524 0.7076 0.80978 0.0
C3275 C 0.423 0.71961 0.82434 0.0
N3276 N 0.4653 0.72682 0.79577 0.0
N3277 N 0.43327 0.72781 0.81829 0.0
H3278 H 0.33518 0.41541 0.79701 0.0
H3279 H 0.28613 0.48339 0.80602 0.0
H3280 H 0.32252 0.43085 0.83785 0.0
H3281 H 0.29231 0.46169 0.76663 0.0
H3282 H 0.30214 0.46655 0.81777 0.0
H3283 H 0.32207 0.43443 0.78569 0.0
C3284 C 0.32974 0.42288 0.80363 0.0
C3285 C 0.33001 0.42149 0.81844 0.0
C3286 C 0.3001 0.46558 0.80653 0.0
C3287 C 0.31477 0.44338 0.80545 0.0
C3288 C 0.29109 0.47526 0.79981 0.0
C3289 C 0.28791 0.47389 0.78536 0.0
C3290 C 0.30603 0.45458 0.79866 0.0
C3291 C 0.29446 0.46307 0.77781 0.0
C3292 C 0.32217 0.43372 0.79714 0.0
C3293 C 0.32251 0.4314 0.82641 0.0
N3294 N 0.30314 0.45383 0.78454 0.0
N3295 N 0.31521 0.44193 0.81982 0.0
H3296 H 0.72941 0.61571 0.2096 0.0
H3297 H 0.73299 0.54165 0.25089 0.0
H3298 H 0.69245 0.59042 0.21991 0.0
H3299 H 0.76959 0.56766 0.24128 0.0
H3300 H 0.71823 0.55784 0.23705 0.0
H3301 H 0.74443 0.59691 0.21877 0.0
C3302 C 0.72443 0.60615 0.21362 0.0
C3303 C 0.70959 0.60475 0.21404 0.0
C3304 C 0.72952 0.55992 0.23783 0.0
C3305 C 0.72682 0.58314 0.22478 0.0
C3306 C 0.73797 0.5506 0.24563 0.0
C3307 C 0.75254 0.55336 0.24737 0.0
C3308 C 0.73567 0.5721 0.23171 0.0
C3309 C 0.75838 0.56523 0.24041 0.0
C3310 C 0.73304 0.59542 0.21895 0.0
C3311 C 0.70381 0.59212 0.21959 0.0
N3312 N 0.74993 0.5742 0.23302 0.0
N3313 N 0.71241 0.58187 0.2248 0.0
H3314 H 0.68879 0.43801 0.81503 0.0
H3315 H 0.76625 0.46592 0.7959 0.0
H3316 H 0.72677 0.42117 0.83405 0.0
H3317 H 0.72858 0.489 0.78516 0.0
H3318 H 0.75197 0.44988 0.81057 0.0
H3319 H 0.70296 0.45714 0.80464 0.0
C3320 C 0.70007 0.4384 0.81721 0.0
C3321 C 0.70656 0.42782 0.8254 0.0
C3322 C 0.74681 0.45855 0.80518 0.0
C3323 C 0.72293 0.44967 0.81324 0.0
C3324 C 0.75497 0.46771 0.79682 0.0
C3325 C 0.74855 0.47875 0.78929 0.0
C3326 C 0.73206 0.46029 0.80585 0.0
C3327 C 0.73392 0.48065 0.79086 0.0
C3328 C 0.70817 0.44933 0.8112 0.0
C3329 C 0.72129 0.42886 0.82759 0.0
N3330 N 0.72612 0.47138 0.79881 0.0
N3331 N 0.72896 0.43949 0.82146 0.0
H3332 H 0.58733 0.69175 0.81994 0.0
H3333 H 0.56506 0.77041 0.79878 0.0
H3334 H 0.61269 0.7289 0.82904 0.0
H3335 H 0.5398 0.73359 0.78844 0.0
H3336 H 0.58109 0.75551 0.8125 0.0
H3337 H 0.56861 0.70691 0.81065 0.0
C3338 C 0.58897 0.70309 0.82003 0.0
C3339 C 0.60172 0.70901 0.82519 0.0
C3340 C 0.57197 0.75067 0.80738 0.0
C3341 C 0.58019 0.72648 0.81465 0.0
C3342 C 0.56279 0.75918 0.79956 0.0
C3343 C 0.55115 0.75321 0.79234 0.0
C3344 C 0.56959 0.736 0.80794 0.0
C3345 C 0.54863 0.73863 0.79386 0.0
C3346 C 0.57822 0.71175 0.81479 0.0
C3347 C 0.60306 0.72381 0.82528 0.0
N3348 N 0.55788 0.73049 0.80134 0.0
N3349 N 0.5925 0.73199 0.82 0.0
H3350 H 0.32623 0.61284 0.81236 0.0
H3351 H 0.27774 0.54271 0.80861 0.0
H3352 H 0.3087 0.59237 0.84941 0.0
H3353 H 0.29518 0.56429 0.77222 0.0
H3354 H 0.29074 0.55927 0.82405 0.0
H3355 H 0.31664 0.59378 0.79783 0.0
C3356 C 0.32051 0.60426 0.8175 0.0
C3357 C 0.31827 0.6043 0.83218 0.0
C3358 C 0.29182 0.56029 0.81268 0.0
C3359 C 0.30698 0.5824 0.81545 0.0
C3360 C 0.28448 0.55078 0.80389 0.0
C3361 C 0.28528 0.55221 0.78911 0.0
C3362 C 0.30004 0.57126 0.80664 0.0
C3363 C 0.2941 0.56292 0.78355 0.0
C3364 C 0.31494 0.59338 0.80915 0.0
C3365 C 0.31052 0.59294 0.83812 0.0
N3366 N 0.30103 0.57205 0.79228 0.0
N3367 N 0.30511 0.5825 0.82975 0.0
H3368 H 0.43148 0.29825 0.84564 0.0
H3369 H 0.46776 0.29544 0.76973 0.0
H3370 H 0.4239 0.32894 0.81254 0.0
H3371 H 0.48265 0.27084 0.80521 0.0
H3372 H 0.45181 0.30794 0.78546 0.0
H3373 H 0.45035 0.2882 0.83138 0.0
C3374 C 0.43385 0.30301 0.83546 0.0
C3375 C 0.42594 0.31447 0.83031 0.0
C3376 C 0.45864 0.29992 0.78989 0.0
C3377 C 0.44747 0.30276 0.81378 0.0
C3378 C 0.46775 0.29278 0.7809 0.0
C3379 C 0.47649 0.28207 0.78619 0.0
C3380 C 0.45807 0.29621 0.80429 0.0
C3381 C 0.47611 0.27907 0.80075 0.0
C3382 C 0.44461 0.29719 0.82729 0.0
C3383 C 0.42944 0.31995 0.81689 0.0
N3384 N 0.46692 0.28599 0.80928 0.0
N3385 N 0.43984 0.314 0.8091 0.0
H3386 H 0.34306 0.44008 0.22048 0.0
H3387 H 0.26522 0.46337 0.24336 0.0
H3388 H 0.30497 0.41593 0.21155 0.0
H3389 H 0.3027 0.48847 0.25196 0.0
H3390 H 0.27951 0.4471 0.22966 0.0
H3391 H 0.32852 0.45879 0.23039 0.0
C3392 C 0.33165 0.43869 0.22058 0.0
C3393 C 0.32528 0.4263 0.21522 0.0
C3394 C 0.28464 0.45623 0.23439 0.0
C3395 C 0.30852 0.44783 0.22647 0.0
C3396 C 0.27646 0.46554 0.2422 0.0
C3397 C 0.2828 0.47723 0.2489 0.0
C3398 C 0.29934 0.45849 0.23333 0.0
C3399 C 0.29738 0.4796 0.24694 0.0
C3400 C 0.32334 0.44944 0.22616 0.0
C3401 C 0.3104 0.42529 0.21541 0.0
N3402 N 0.3052 0.47022 0.23948 0.0
N3403 N 0.30257 0.43583 0.22102 0.0
H3404 H 0.59516 0.30841 0.19167 0.0
H3405 H 0.56544 0.29706 0.26961 0.0
H3406 H 0.61126 0.33134 0.22785 0.0
H3407 H 0.54316 0.28232 0.23249 0.0
H3408 H 0.58187 0.31032 0.25443 0.0
H3409 H 0.57572 0.29929 0.20619 0.0
C3410 C 0.59456 0.3117 0.2026 0.0
C3411 C 0.60502 0.32064 0.2085 0.0
C3412 C 0.57328 0.30436 0.24957 0.0
C3413 C 0.58279 0.30994 0.22531 0.0
C3414 C 0.56388 0.29682 0.25825 0.0
C3415 C 0.55295 0.28858 0.25228 0.0
C3416 C 0.5719 0.30348 0.23479 0.0
C3417 C 0.5514 0.28862 0.2375 0.0
C3418 C 0.58345 0.30641 0.21091 0.0
C3419 C 0.60368 0.32426 0.22285 0.0
N3420 N 0.56089 0.29579 0.22924 0.0
N3421 N 0.59288 0.31882 0.23075 0.0
H3422 H 0.4206 0.73932 0.19487 0.0
H3423 H 0.48758 0.73273 0.24706 0.0
H3424 H 0.4367 0.69928 0.2094 0.0
H3425 H 0.46675 0.77184 0.23709 0.0
H3426 H 0.47125 0.72035 0.23085 0.0
H3427 H 0.43946 0.75138 0.20796 0.0
C3428 C 0.42819 0.73303 0.2007 0.0
C3429 C 0.42702 0.71823 0.201 0.0
C3430 C 0.47035 0.73166 0.23211 0.0
C3431 C 0.44868 0.73206 0.21623 0.0
C3432 C 0.47974 0.73874 0.24125 0.0
C3433 C 0.47845 0.75331 0.24347 0.0
C3434 C 0.45967 0.73926 0.22507 0.0
C3435 C 0.46802 0.76057 0.23579 0.0
C3436 C 0.43893 0.73995 0.20826 0.0
C3437 C 0.43707 0.7107 0.20898 0.0
N3438 N 0.45901 0.75348 0.22701 0.0
N3439 N 0.44746 0.71769 0.21629 0.0
loop_
_geom_bond_atom_site_label_1
_geom_bond_atom_site_label_2
_geom_bond_distance
_geom_bond_site_symmetry_2
_ccdc_geom_bond_type
C0 C1 1.264 . S
C0 C5 1.479 . S
C0 C10 1.465 . S
C1 C0 1.264 . S
C1 C3 1.339 . S
C1 H28 0.931 . S
C2 C3 1.395 . S
C2 C4 1.320 . S
C3 C1 1.339 . S
C3 C2 1.395 . S
C3 H29 0.929 . S
C4 C2 1.320 . S
C4 C5 1.405 . S
C4 H30 0.930 . S
C5 C0 1.479 . S
C5 C4 1.405 . S
C5 H31 0.931 . S
U6 O7 2.454 . S
U6 O8 2.458 . S
U6 C9 2.984 . S
U6 C10 2.847 . S
U6 C23 2.882 . S
U6 O24 2.441 . S
U6 O25 2.420 . S
U6 O26 2.455 . S
U6 O27 2.449 . S
O7 U6 2.454 . S
O7 C9 1.353 . S
O8 U6 2.458 . S
O8 C9 1.286 . S
C9 U6 2.984 . S
C9 O7 1.353 . S
C9 O8 1.286 . S
C9 C11 1.363 . S
C10 C0 1.465 . S
C10 U6 2.847 . S
C10 O24 1.249 . S
C10 O25 1.202 . S
C11 C9 1.363 . S
C11 C13 1.408 . S
C11 C16 1.342 . S
C12 C13 1.310 . S
C12 C15 1.461 . S
C12 H32 0.932 . S
C13 C11 1.408 . S
C13 C12 1.310 . S
C13 H33 0.930 . S
C14 C15 1.474 . S
C14 C16 1.285 . S
C14 H34 0.929 . S
C15 C12 1.461 . S
C15 C14 1.474 . S
C16 C11 1.342 . S
C16 C14 1.285 . S
C16 H35 0.930 . S
C17 C20 1.424 . S
C17 C22 1.245 . S
C17 C23 1.428 . S
C18 C21 1.260 . S
C18 C22 1.477 . S
C18 H36 0.932 . S
C19 C20 1.384 . S
C19 C21 1.479 . S
C19 H37 0.929 . S
C20 C17 1.424 . S
C20 C19 1.384 . S
C20 H38 0.928 . S
C21 C18 1.260 . S
C21 C19 1.479 . S
C22 C17 1.245 . S
C22 C18 1.477 . S
C22 H39 0.932 . S
C23 U6 2.882 . S
C23 C17 1.428 . S
C23 O26 1.301 . S
C23 O27 1.282 . S
O24 U6 2.441 . S
O24 C10 1.249 . S
O25 U6 2.420 . S
O25 C10 1.202 . S
O26 U6 2.455 . S
O26 C23 1.301 . S
O27 U6 2.449 . S
O27 C23 1.282 . S
H28 C1 0.931 . S
H29 C3 0.929 . S
H30 C4 0.930 . S
H31 C5 0.931 . S
H32 C12 0.932 . S
H33 C13 0.930 . S
H34 C14 0.929 . S
H35 C16 0.930 . S
H36 C18 0.932 . S
H37 C19 0.929 . S
H38 C20 0.928 . S
H39 C22 0.932 . S
C40 C41 1.264 . S
C40 C45 1.479 . S
C40 C50 1.465 . S
C41 C40 1.264 . S
C41 C43 1.339 . S
C41 H68 0.931 . S
C42 C43 1.395 . S
C42 C44 1.320 . S
C43 C41 1.339 . S
C43 C42 1.395 . S
C43 H69 0.929 . S
C44 C42 1.320 . S
C44 C45 1.405 . S
C44 H70 0.930 . S
C45 C40 1.479 . S
C45 C44 1.405 . S
C45 H71 0.931 . S
U46 O47 2.454 . S
U46 O48 2.458 . S
U46 C49 2.984 . S
U46 C50 2.847 . S
U46 C63 2.882 . S
U46 O64 2.441 . S
U46 O65 2.420 . S
U46 O66 2.455 . S
U46 O67 2.449 . S
O47 U46 2.454 . S
O47 C49 1.353 . S
O48 U46 2.458 . S
O48 C49 1.286 . S
C49 U46 2.984 . S
C49 O47 1.353 . S
C49 O48 1.286 . S
C49 C51 1.363 . S
C50 C40 1.465 . S
C50 U46 2.847 . S
C50 O64 1.249 . S
C50 O65 1.202 . S
C51 C49 1.363 . S
C51 C53 1.408 . S
C51 C56 1.342 . S
C52 C53 1.310 . S
C52 C55 1.461 . S
C52 H72 0.932 . S
C53 C51 1.408 . S
C53 C52 1.310 . S
C53 H73 0.930 . S
C54 C55 1.474 . S
C54 C56 1.285 . S
C54 H74 0.929 . S
C55 C52 1.461 . S
C55 C54 1.474 . S
C56 C51 1.342 . S
C56 C54 1.285 . S
C56 H75 0.930 . S
C57 C60 1.424 . S
C57 C62 1.245 . S
C57 C63 1.428 . S
C58 C61 1.260 . S
C58 C62 1.477 . S
C58 H76 0.932 . S
C59 C60 1.384 . S
C59 C61 1.479 . S
C59 H77 0.929 . S
C60 C57 1.424 . S
C60 C59 1.384 . S
C60 H78 0.928 . S
C61 C58 1.260 . S
C61 C59 1.479 . S
C62 C57 1.245 . S
C62 C58 1.477 . S
C62 H79 0.932 . S
C63 U46 2.882 . S
C63 C57 1.428 . S
C63 O66 1.301 . S
C63 O67 1.282 . S
O64 U46 2.441 . S
O64 C50 1.249 . S
O65 U46 2.420 . S
O65 C50 1.202 . S
O66 U46 2.455 . S
O66 C63 1.301 . S
O67 U46 2.449 . S
O67 C63 1.282 . S
H68 C41 0.931 . S
H69 C43 0.929 . S
H70 C44 0.930 . S
H71 C45 0.931 . S
H72 C52 0.932 . S
H73 C53 0.930 . S
H74 C54 0.929 . S
H75 C56 0.930 . S
H76 C58 0.932 . S
H77 C59 0.929 . S
H78 C60 0.928 . S
H79 C62 0.932 . S
C80 C81 1.264 . S
C80 C85 1.479 . S
C80 C90 1.465 . S
C81 C80 1.264 . S
C81 C83 1.339 . S
C81 H108 0.931 . S
C82 C83 1.395 . S
C82 C84 1.320 . S
C83 C81 1.339 . S
C83 C82 1.395 . S
C83 H109 0.929 . S
C84 C82 1.320 . S
C84 C85 1.405 . S
C84 H110 0.930 . S
C85 C80 1.479 . S
C85 C84 1.405 . S
C85 H111 0.931 . S
U86 O87 2.454 . S
U86 O88 2.458 . S
U86 C89 2.984 . S
U86 C90 2.847 . S
U86 C103 2.882 . S
U86 O104 2.441 . S
U86 O105 2.420 . S
U86 O106 2.455 . S
U86 O107 2.449 . S
O87 U86 2.454 . S
O87 C89 1.353 . S
O88 U86 2.458 . S
O88 C89 1.286 . S
C89 U86 2.984 . S
C89 O87 1.353 . S
C89 O88 1.286 . S
C89 C91 1.363 . S
C90 C80 1.465 . S
C90 U86 2.847 . S
C90 O104 1.249 . S
C90 O105 1.202 . S
C91 C89 1.363 . S
C91 C93 1.408 . S
C91 C96 1.342 . S
C92 C93 1.310 . S
C92 C95 1.461 . S
C92 H112 0.932 . S
C93 C91 1.408 . S
C93 C92 1.310 . S
C93 H113 0.930 . S
C94 C95 1.474 . S
C94 C96 1.285 . S
C94 H114 0.929 . S
C95 C92 1.461 . S
C95 C94 1.474 . S
C96 C91 1.342 . S
C96 C94 1.285 . S
C96 H115 0.930 . S
C97 C100 1.424 . S
C97 C102 1.245 . S
C97 C103 1.428 . S
C98 C101 1.260 . S
C98 C102 1.477 . S
C98 H116 0.932 . S
C99 C100 1.384 . S
C99 C101 1.479 . S
C99 H117 0.929 . S
C100 C97 1.424 . S
C100 C99 1.384 . S
C100 H118 0.928 . S
C101 C98 1.260 . S
C101 C99 1.479 . S
C102 C97 1.245 . S
C102 C98 1.477 . S
C102 H119 0.932 . S
C103 U86 2.882 . S
C103 C97 1.428 . S
C103 O106 1.301 . S
C103 O107 1.282 . S
O104 U86 2.441 . S
O104 C90 1.249 . S
O105 U86 2.420 . S
O105 C90 1.202 . S
O106 U86 2.455 . S
O106 C103 1.301 . S
O107 U86 2.449 . S
O107 C103 1.282 . S
H108 C81 0.931 . S
H109 C83 0.929 . S
H110 C84 0.930 . S
H111 C85 0.931 . S
H112 C92 0.932 . S
H113 C93 0.930 . S
H114 C94 0.929 . S
H115 C96 0.930 . S
H116 C98 0.932 . S
H117 C99 0.929 . S
H118 C100 0.928 . S
H119 C102 0.932 . S
C120 C121 1.264 . S
C120 C125 1.479 . S
C120 C130 1.465 . S
C121 C120 1.264 . S
C121 C123 1.339 . S
C121 H148 0.931 . S
C122 C123 1.395 . S
C122 C124 1.320 . S
C123 C121 1.339 . S
C123 C122 1.395 . S
C123 H149 0.929 . S
C124 C122 1.320 . S
C124 C125 1.405 . S
C124 H150 0.930 . S
C125 C120 1.479 . S
C125 C124 1.405 . S
C125 H151 0.931 . S
U126 O127 2.454 . S
U126 O128 2.458 . S
U126 C129 2.984 . S
U126 C130 2.847 . S
U126 C143 2.882 . S
U126 O144 2.441 . S
U126 O145 2.420 . S
U126 O146 2.455 . S
U126 O147 2.449 . S
O127 U126 2.454 . S
O127 C129 1.353 . S
O128 U126 2.458 . S
O128 C129 1.286 . S
C129 U126 2.984 . S
C129 O127 1.353 . S
C129 O128 1.286 . S
C129 C131 1.363 . S
C130 C120 1.465 . S
C130 U126 2.847 . S
C130 O144 1.249 . S
C130 O145 1.202 . S
C131 C129 1.363 . S
C131 C133 1.408 . S
C131 C136 1.342 . S
C132 C133 1.310 . S
C132 C135 1.461 . S
C132 H152 0.932 . S
C133 C131 1.408 . S
C133 C132 1.310 . S
C133 H153 0.930 . S
C134 C135 1.474 . S
C134 C136 1.285 . S
C134 H154 0.929 . S
C135 C132 1.461 . S
C135 C134 1.474 . S
C136 C131 1.342 . S
C136 C134 1.285 . S
C136 H155 0.930 . S
C137 C140 1.424 . S
C137 C142 1.245 . S
C137 C143 1.428 . S
C138 C141 1.260 . S
C138 C142 1.477 . S
C138 H156 0.932 . S
C139 C140 1.384 . S
C139 C141 1.479 . S
C139 H157 0.929 . S
C140 C137 1.424 . S
C140 C139 1.384 . S
C140 H158 0.928 . S
C141 C138 1.260 . S
C141 C139 1.479 . S
C142 C137 1.245 . S
C142 C138 1.477 . S
C142 H159 0.932 . S
C143 U126 2.882 . S
C143 C137 1.428 . S
C143 O146 1.301 . S
C143 O147 1.282 . S
O144 U126 2.441 . S
O144 C130 1.249 . S
O145 U126 2.420 . S
O145 C130 1.202 . S
O146 U126 2.455 . S
O146 C143 1.301 . S
O147 U126 2.449 . S
O147 C143 1.282 . S
H148 C121 0.931 . S
H149 C123 0.929 . S
H150 C124 0.930 . S
H151 C125 0.931 . S
H152 C132 0.932 . S
H153 C133 0.930 . S
H154 C134 0.929 . S
H155 C136 0.930 . S
H156 C138 0.932 . S
H157 C139 0.929 . S
H158 C140 0.928 . S
H159 C142 0.932 . S
C160 C161 1.264 . S
C160 C165 1.479 . S
C160 C170 1.465 . S
C161 C160 1.264 . S
C161 C163 1.339 . S
C161 H188 0.931 . S
C162 C163 1.395 . S
C162 C164 1.320 . S
C163 C161 1.339 . S
C163 C162 1.395 . S
C163 H189 0.929 . S
C164 C162 1.320 . S
C164 C165 1.405 . S
C164 H190 0.930 . S
C165 C160 1.479 . S
C165 C164 1.405 . S
C165 H191 0.931 . S
U166 O167 2.454 . S
U166 O168 2.458 . S
U166 C169 2.984 . S
U166 C170 2.847 . S
U166 C183 2.882 . S
U166 O184 2.441 . S
U166 O185 2.420 . S
U166 O186 2.455 . S
U166 O187 2.449 . S
O167 U166 2.454 . S
O167 C169 1.353 . S
O168 U166 2.458 . S
O168 C169 1.286 . S
C169 U166 2.984 . S
C169 O167 1.353 . S
C169 O168 1.286 . S
C169 C171 1.363 . S
C170 C160 1.465 . S
C170 U166 2.847 . S
C170 O184 1.249 . S
C170 O185 1.202 . S
C171 C169 1.363 . S
C171 C173 1.408 . S
C171 C176 1.342 . S
C172 C173 1.310 . S
C172 C175 1.461 . S
C172 H192 0.932 . S
C173 C171 1.408 . S
C173 C172 1.310 . S
C173 H193 0.930 . S
C174 C175 1.474 . S
C174 C176 1.285 . S
C174 H194 0.929 . S
C175 C172 1.461 . S
C175 C174 1.474 . S
C176 C171 1.342 . S
C176 C174 1.285 . S
C176 H195 0.930 . S
C177 C180 1.424 . S
C177 C182 1.245 . S
C177 C183 1.428 . S
C178 C181 1.260 . S
C178 C182 1.477 . S
C178 H196 0.932 . S
C179 C180 1.384 . S
C179 C181 1.479 . S
C179 H197 0.929 . S
C180 C177 1.424 . S
C180 C179 1.384 . S
C180 H198 0.928 . S
C181 C178 1.260 . S
C181 C179 1.479 . S
C182 C177 1.245 . S
C182 C178 1.477 . S
C182 H199 0.932 . S
C183 U166 2.882 . S
C183 C177 1.428 . S
C183 O186 1.301 . S
C183 O187 1.282 . S
O184 U166 2.441 . S
O184 C170 1.249 . S
O185 U166 2.420 . S
O185 C170 1.202 . S
O186 U166 2.455 . S
O186 C183 1.301 . S
O187 U166 2.449 . S
O187 C183 1.282 . S
H188 C161 0.931 . S
H189 C163 0.929 . S
H190 C164 0.930 . S
H191 C165 0.931 . S
H192 C172 0.932 . S
H193 C173 0.930 . S
H194 C174 0.929 . S
H195 C176 0.930 . S
H196 C178 0.932 . S
H197 C179 0.929 . S
H198 C180 0.928 . S
H199 C182 0.932 . S
C200 C201 1.264 . S
C200 C205 1.479 . S
C200 C210 1.465 . S
C201 C200 1.264 . S
C201 C203 1.339 . S
C201 H228 0.931 . S
C202 C203 1.395 . S
C202 C204 1.320 . S
C203 C201 1.339 . S
C203 C202 1.395 . S
C203 H229 0.929 . S
C204 C202 1.320 . S
C204 C205 1.405 . S
C204 H230 0.930 . S
C205 C200 1.479 . S
C205 C204 1.405 . S
C205 H231 0.931 . S
U206 O207 2.454 . S
U206 O208 2.458 . S
U206 C209 2.984 . S
U206 C210 2.847 . S
U206 C223 2.882 . S
U206 O224 2.441 . S
U206 O225 2.420 . S
U206 O226 2.455 . S
U206 O227 2.449 . S
O207 U206 2.454 . S
O207 C209 1.353 . S
O208 U206 2.458 . S
O208 C209 1.286 . S
C209 U206 2.984 . S
C209 O207 1.353 . S
C209 O208 1.286 . S
C209 C211 1.363 . S
C210 C200 1.465 . S
C210 U206 2.847 . S
C210 O224 1.249 . S
C210 O225 1.202 . S
C211 C209 1.363 . S
C211 C213 1.408 . S
C211 C216 1.342 . S
C212 C213 1.310 . S
C212 C215 1.461 . S
C212 H232 0.932 . S
C213 C211 1.408 . S
C213 C212 1.310 . S
C213 H233 0.930 . S
C214 C215 1.474 . S
C214 C216 1.285 . S
C214 H234 0.929 . S
C215 C212 1.461 . S
C215 C214 1.474 . S
C216 C211 1.342 . S
C216 C214 1.285 . S
C216 H235 0.930 . S
C217 C220 1.424 . S
C217 C222 1.245 . S
C217 C223 1.428 . S
C218 C221 1.260 . S
C218 C222 1.477 . S
C218 H236 0.932 . S
C219 C220 1.384 . S
C219 C221 1.479 . S
C219 H237 0.929 . S
C220 C217 1.424 . S
C220 C219 1.384 . S
C220 H238 0.928 . S
C221 C218 1.260 . S
C221 C219 1.479 . S
C222 C217 1.245 . S
C222 C218 1.477 . S
C222 H239 0.932 . S
C223 U206 2.882 . S
C223 C217 1.428 . S
C223 O226 1.301 . S
C223 O227 1.282 . S
O224 U206 2.441 . S
O224 C210 1.249 . S
O225 U206 2.420 . S
O225 C210 1.202 . S
O226 U206 2.455 . S
O226 C223 1.301 . S
O227 U206 2.449 . S
O227 C223 1.282 . S
H228 C201 0.931 . S
H229 C203 0.929 . S
H230 C204 0.930 . S
H231 C205 0.931 . S
H232 C212 0.932 . S
H233 C213 0.930 . S
H234 C214 0.929 . S
H235 C216 0.930 . S
H236 C218 0.932 . S
H237 C219 0.929 . S
H238 C220 0.928 . S
H239 C222 0.932 . S
C240 C241 1.264 . S
C240 C245 1.479 . S
C240 C250 1.465 . S
C241 C240 1.264 . S
C241 C243 1.339 . S
C241 H268 0.931 . S
C242 C243 1.395 . S
C242 C244 1.320 . S
C243 C241 1.339 . S
C243 C242 1.395 . S
C243 H269 0.929 . S
C244 C242 1.320 . S
C244 C245 1.405 . S
C244 H270 0.930 . S
C245 C240 1.479 . S
C245 C244 1.405 . S
C245 H271 0.931 . S
U246 O247 2.454 . S
U246 O248 2.458 . S
U246 C249 2.984 . S
U246 C250 2.847 . S
U246 C263 2.882 . S
U246 O264 2.441 . S
U246 O265 2.420 . S
U246 O266 2.455 . S
U246 O267 2.449 . S
O247 U246 2.454 . S
O247 C249 1.353 . S
O248 U246 2.458 . S
O248 C249 1.286 . S
C249 U246 2.984 . S
C249 O247 1.353 . S
C249 O248 1.286 . S
C249 C251 1.363 . S
C250 C240 1.465 . S
C250 U246 2.847 . S
C250 O264 1.249 . S
C250 O265 1.202 . S
C251 C249 1.363 . S
C251 C253 1.408 . S
C251 C256 1.342 . S
C252 C253 1.310 . S
C252 C255 1.461 . S
C252 H272 0.932 . S
C253 C251 1.408 . S
C253 C252 1.310 . S
C253 H273 0.930 . S
C254 C255 1.474 . S
C254 C256 1.285 . S
C254 H274 0.929 . S
C255 C252 1.461 . S
C255 C254 1.474 . S
C256 C251 1.342 . S
C256 C254 1.285 . S
C256 H275 0.930 . S
C257 C260 1.424 . S
C257 C262 1.245 . S
C257 C263 1.428 . S
C258 C261 1.260 . S
C258 C262 1.477 . S
C258 H276 0.932 . S
C259 C260 1.384 . S
C259 C261 1.479 . S
C259 H277 0.929 . S
C260 C257 1.424 . S
C260 C259 1.384 . S
C260 H278 0.928 . S
C261 C258 1.260 . S
C261 C259 1.479 . S
C262 C257 1.245 . S
C262 C258 1.477 . S
C262 H279 0.932 . S
C263 U246 2.882 . S
C263 C257 1.428 . S
C263 O266 1.301 . S
C263 O267 1.282 . S
O264 U246 2.441 . S
O264 C250 1.249 . S
O265 U246 2.420 . S
O265 C250 1.202 . S
O266 U246 2.455 . S
O266 C263 1.301 . S
O267 U246 2.449 . S
O267 C263 1.282 . S
H268 C241 0.931 . S
H269 C243 0.929 . S
H270 C244 0.930 . S
H271 C245 0.931 . S
H272 C252 0.932 . S
H273 C253 0.930 . S
H274 C254 0.929 . S
H275 C256 0.930 . S
H276 C258 0.932 . S
H277 C259 0.929 . S
H278 C260 0.928 . S
H279 C262 0.932 . S
C280 C281 1.264 . S
C280 C285 1.479 . S
C280 C290 1.465 . S
C281 C280 1.264 . S
C281 C283 1.339 . S
C281 H308 0.931 . S
C282 C283 1.395 . S
C282 C284 1.320 . S
C283 C281 1.339 . S
C283 C282 1.395 . S
C283 H309 0.929 . S
C284 C282 1.320 . S
C284 C285 1.405 . S
C284 H310 0.930 . S
C285 C280 1.479 . S
C285 C284 1.405 . S
C285 H311 0.931 . S
U286 O287 2.454 . S
U286 O288 2.458 . S
U286 C289 2.984 . S
U286 C290 2.847 . S
U286 C303 2.882 . S
U286 O304 2.441 . S
U286 O305 2.420 . S
U286 O306 2.455 . S
U286 O307 2.449 . S
O287 U286 2.454 . S
O287 C289 1.353 . S
O288 U286 2.458 . S
O288 C289 1.286 . S
C289 U286 2.984 . S
C289 O287 1.353 . S
C289 O288 1.286 . S
C289 C291 1.363 . S
C290 C280 1.465 . S
C290 U286 2.847 . S
C290 O304 1.249 . S
C290 O305 1.202 . S
C291 C289 1.363 . S
C291 C293 1.408 . S
C291 C296 1.342 . S
C292 C293 1.310 . S
C292 C295 1.461 . S
C292 H312 0.932 . S
C293 C291 1.408 . S
C293 C292 1.310 . S
C293 H313 0.930 . S
C294 C295 1.474 . S
C294 C296 1.285 . S
C294 H314 0.929 . S
C295 C292 1.461 . S
C295 C294 1.474 . S
C296 C291 1.342 . S
C296 C294 1.285 . S
C296 H315 0.930 . S
C297 C300 1.424 . S
C297 C302 1.245 . S
C297 C303 1.428 . S
C298 C301 1.260 . S
C298 C302 1.477 . S
C298 H316 0.932 . S
C299 C300 1.384 . S
C299 C301 1.479 . S
C299 H317 0.929 . S
C300 C297 1.424 . S
C300 C299 1.384 . S
C300 H318 0.928 . S
C301 C298 1.260 . S
C301 C299 1.479 . S
C302 C297 1.245 . S
C302 C298 1.477 . S
C302 H319 0.932 . S
C303 U286 2.882 . S
C303 C297 1.428 . S
C303 O306 1.301 . S
C303 O307 1.282 . S
O304 U286 2.441 . S
O304 C290 1.249 . S
O305 U286 2.420 . S
O305 C290 1.202 . S
O306 U286 2.455 . S
O306 C303 1.301 . S
O307 U286 2.449 . S
O307 C303 1.282 . S
H308 C281 0.931 . S
H309 C283 0.929 . S
H310 C284 0.930 . S
H311 C285 0.931 . S
H312 C292 0.932 . S
H313 C293 0.930 . S
H314 C294 0.929 . S
H315 C296 0.930 . S
H316 C298 0.932 . S
H317 C299 0.929 . S
H318 C300 0.928 . S
H319 C302 0.932 . S
C320 C321 1.264 . S
C320 C325 1.479 . S
C320 C330 1.465 . S
C321 C320 1.264 . S
C321 C323 1.339 . S
C321 H348 0.931 . S
C322 C323 1.395 . S
C322 C324 1.320 . S
C323 C321 1.339 . S
C323 C322 1.395 . S
C323 H349 0.929 . S
C324 C322 1.320 . S
C324 C325 1.405 . S
C324 H350 0.930 . S
C325 C320 1.479 . S
C325 C324 1.405 . S
C325 H351 0.931 . S
U326 O327 2.454 . S
U326 O328 2.458 . S
U326 C329 2.984 . S
U326 C330 2.847 . S
U326 C343 2.882 . S
U326 O344 2.441 . S
U326 O345 2.420 . S
U326 O346 2.455 . S
U326 O347 2.449 . S
O327 U326 2.454 . S
O327 C329 1.353 . S
O328 U326 2.458 . S
O328 C329 1.286 . S
C329 U326 2.984 . S
C329 O327 1.353 . S
C329 O328 1.286 . S
C329 C331 1.363 . S
C330 C320 1.465 . S
C330 U326 2.847 . S
C330 O344 1.249 . S
C330 O345 1.202 . S
C331 C329 1.363 . S
C331 C333 1.408 . S
C331 C336 1.342 . S
C332 C333 1.310 . S
C332 C335 1.461 . S
C332 H352 0.932 . S
C333 C331 1.408 . S
C333 C332 1.310 . S
C333 H353 0.930 . S
C334 C335 1.474 . S
C334 C336 1.285 . S
C334 H354 0.929 . S
C335 C332 1.461 . S
C335 C334 1.474 . S
C336 C331 1.342 . S
C336 C334 1.285 . S
C336 H355 0.930 . S
C337 C340 1.424 . S
C337 C342 1.245 . S
C337 C343 1.428 . S
C338 C341 1.260 . S
C338 C342 1.477 . S
C338 H356 0.932 . S
C339 C340 1.384 . S
C339 C341 1.479 . S
C339 H357 0.929 . S
C340 C337 1.424 . S
C340 C339 1.384 . S
C340 H358 0.928 . S
C341 C338 1.260 . S
C341 C339 1.479 . S
C342 C337 1.245 . S
C342 C338 1.477 . S
C342 H359 0.932 . S
C343 U326 2.882 . S
C343 C337 1.428 . S
C343 O346 1.301 . S
C343 O347 1.282 . S
O344 U326 2.441 . S
O344 C330 1.249 . S
O345 U326 2.420 . S
O345 C330 1.202 . S
O346 U326 2.455 . S
O346 C343 1.301 . S
O347 U326 2.449 . S
O347 C343 1.282 . S
H348 C321 0.931 . S
H349 C323 0.929 . S
H350 C324 0.930 . S
H351 C325 0.931 . S
H352 C332 0.932 . S
H353 C333 0.930 . S
H354 C334 0.929 . S
H355 C336 0.930 . S
H356 C338 0.932 . S
H357 C339 0.929 . S
H358 C340 0.928 . S
H359 C342 0.932 . S
C360 C361 1.264 . S
C360 C365 1.479 . S
C360 C370 1.465 . S
C361 C360 1.264 . S
C361 C363 1.339 . S
C361 H388 0.931 . S
C362 C363 1.395 . S
C362 C364 1.320 . S
C363 C361 1.339 . S
C363 C362 1.395 . S
C363 H389 0.929 . S
C364 C362 1.320 . S
C364 C365 1.405 . S
C364 H390 0.930 . S
C365 C360 1.479 . S
C365 C364 1.405 . S
C365 H391 0.931 . S
U366 O367 2.454 . S
U366 O368 2.458 . S
U366 C369 2.984 . S
U366 C370 2.847 . S
U366 C383 2.882 . S
U366 O384 2.441 . S
U366 O385 2.420 . S
U366 O386 2.455 . S
U366 O387 2.449 . S
O367 U366 2.454 . S
O367 C369 1.353 . S
O368 U366 2.458 . S
O368 C369 1.286 . S
C369 U366 2.984 . S
C369 O367 1.353 . S
C369 O368 1.286 . S
C369 C371 1.363 . S
C370 C360 1.465 . S
C370 U366 2.847 . S
C370 O384 1.249 . S
C370 O385 1.202 . S
C371 C369 1.363 . S
C371 C373 1.408 . S
C371 C376 1.342 . S
C372 C373 1.310 . S
C372 C375 1.461 . S
C372 H392 0.932 . S
C373 C371 1.408 . S
C373 C372 1.310 . S
C373 H393 0.930 . S
C374 C375 1.474 . S
C374 C376 1.285 . S
C374 H394 0.929 . S
C375 C372 1.461 . S
C375 C374 1.474 . S
C376 C371 1.342 . S
C376 C374 1.285 . S
C376 H395 0.930 . S
C377 C380 1.424 . S
C377 C382 1.245 . S
C377 C383 1.428 . S
C378 C381 1.260 . S
C378 C382 1.477 . S
C378 H396 0.932 . S
C379 C380 1.384 . S
C379 C381 1.479 . S
C379 H397 0.929 . S
C380 C377 1.424 . S
C380 C379 1.384 . S
C380 H398 0.928 . S
C381 C378 1.260 . S
C381 C379 1.479 . S
C382 C377 1.245 . S
C382 C378 1.477 . S
C382 H399 0.932 . S
C383 U366 2.882 . S
C383 C377 1.428 . S
C383 O386 1.301 . S
C383 O387 1.282 . S
O384 U366 2.441 . S
O384 C370 1.249 . S
O385 U366 2.420 . S
O385 C370 1.202 . S
O386 U366 2.455 . S
O386 C383 1.301 . S
O387 U366 2.449 . S
O387 C383 1.282 . S
H388 C361 0.931 . S
H389 C363 0.929 . S
H390 C364 0.930 . S
H391 C365 0.931 . S
H392 C372 0.932 . S
H393 C373 0.930 . S
H394 C374 0.929 . S
H395 C376 0.930 . S
H396 C378 0.932 . S
H397 C379 0.929 . S
H398 C380 0.928 . S
H399 C382 0.932 . S
C400 C401 1.264 . S
C400 C405 1.479 . S
C400 C410 1.465 . S
C401 C400 1.264 . S
C401 C403 1.339 . S
C401 H428 0.931 . S
C402 C403 1.395 . S
C402 C404 1.320 . S
C403 C401 1.339 . S
C403 C402 1.395 . S
C403 H429 0.929 . S
C404 C402 1.320 . S
C404 C405 1.405 . S
C404 H430 0.930 . S
C405 C400 1.479 . S
C405 C404 1.405 . S
C405 H431 0.931 . S
U406 O407 2.454 . S
U406 O408 2.458 . S
U406 C409 2.984 . S
U406 C410 2.847 . S
U406 C423 2.882 . S
U406 O424 2.441 . S
U406 O425 2.420 . S
U406 O426 2.455 . S
U406 O427 2.449 . S
O407 U406 2.454 . S
O407 C409 1.353 . S
O408 U406 2.458 . S
O408 C409 1.286 . S
C409 U406 2.984 . S
C409 O407 1.353 . S
C409 O408 1.286 . S
C409 C411 1.363 . S
C410 C400 1.465 . S
C410 U406 2.847 . S
C410 O424 1.249 . S
C410 O425 1.202 . S
C411 C409 1.363 . S
C411 C413 1.408 . S
C411 C416 1.342 . S
C412 C413 1.310 . S
C412 C415 1.461 . S
C412 H432 0.932 . S
C413 C411 1.408 . S
C413 C412 1.310 . S
C413 H433 0.930 . S
C414 C415 1.474 . S
C414 C416 1.285 . S
C414 H434 0.929 . S
C415 C412 1.461 . S
C415 C414 1.474 . S
C416 C411 1.342 . S
C416 C414 1.285 . S
C416 H435 0.930 . S
C417 C420 1.424 . S
C417 C422 1.245 . S
C417 C423 1.428 . S
C418 C421 1.260 . S
C418 C422 1.477 . S
C418 H436 0.932 . S
C419 C420 1.384 . S
C419 C421 1.479 . S
C419 H437 0.929 . S
C420 C417 1.424 . S
C420 C419 1.384 . S
C420 H438 0.928 . S
C421 C418 1.260 . S
C421 C419 1.479 . S
C422 C417 1.245 . S
C422 C418 1.477 . S
C422 H439 0.932 . S
C423 U406 2.882 . S
C423 C417 1.428 . S
C423 O426 1.301 . S
C423 O427 1.282 . S
O424 U406 2.441 . S
O424 C410 1.249 . S
O425 U406 2.420 . S
O425 C410 1.202 . S
O426 U406 2.455 . S
O426 C423 1.301 . S
O427 U406 2.449 . S
O427 C423 1.282 . S
H428 C401 0.931 . S
H429 C403 0.929 . S
H430 C404 0.930 . S
H431 C405 0.931 . S
H432 C412 0.932 . S
H433 C413 0.930 . S
H434 C414 0.929 . S
H435 C416 0.930 . S
H436 C418 0.932 . S
H437 C419 0.929 . S
H438 C420 0.928 . S
H439 C422 0.932 . S
C440 C441 1.264 . S
C440 C445 1.479 . S
C440 C450 1.465 . S
C441 C440 1.264 . S
C441 C443 1.339 . S
C441 H468 0.931 . S
C442 C443 1.395 . S
C442 C444 1.320 . S
C443 C441 1.339 . S
C443 C442 1.395 . S
C443 H469 0.929 . S
C444 C442 1.320 . S
C444 C445 1.405 . S
C444 H470 0.930 . S
C445 C440 1.479 . S
C445 C444 1.405 . S
C445 H471 0.931 . S
U446 O447 2.454 . S
U446 O448 2.458 . S
U446 C449 2.984 . S
U446 C450 2.847 . S
U446 C463 2.882 . S
U446 O464 2.441 . S
U446 O465 2.420 . S
U446 O466 2.455 . S
U446 O467 2.449 . S
O447 U446 2.454 . S
O447 C449 1.353 . S
O448 U446 2.458 . S
O448 C449 1.286 . S
C449 U446 2.984 . S
C449 O447 1.353 . S
C449 O448 1.286 . S
C449 C451 1.363 . S
C450 C440 1.465 . S
C450 U446 2.847 . S
C450 O464 1.249 . S
C450 O465 1.202 . S
C451 C449 1.363 . S
C451 C453 1.408 . S
C451 C456 1.342 . S
C452 C453 1.310 . S
C452 C455 1.461 . S
C452 H472 0.932 . S
C453 C451 1.408 . S
C453 C452 1.310 . S
C453 H473 0.930 . S
C454 C455 1.474 . S
C454 C456 1.285 . S
C454 H474 0.929 . S
C455 C452 1.461 . S
C455 C454 1.474 . S
C456 C451 1.342 . S
C456 C454 1.285 . S
C456 H475 0.930 . S
C457 C460 1.424 . S
C457 C462 1.245 . S
C457 C463 1.428 . S
C458 C461 1.260 . S
C458 C462 1.477 . S
C458 H476 0.932 . S
C459 C460 1.384 . S
C459 C461 1.479 . S
C459 H477 0.929 . S
C460 C457 1.424 . S
C460 C459 1.384 . S
C460 H478 0.928 . S
C461 C458 1.260 . S
C461 C459 1.479 . S
C462 C457 1.245 . S
C462 C458 1.477 . S
C462 H479 0.932 . S
C463 U446 2.882 . S
C463 C457 1.428 . S
C463 O466 1.301 . S
C463 O467 1.282 . S
O464 U446 2.441 . S
O464 C450 1.249 . S
O465 U446 2.420 . S
O465 C450 1.202 . S
O466 U446 2.455 . S
O466 C463 1.301 . S
O467 U446 2.449 . S
O467 C463 1.282 . S
H468 C441 0.931 . S
H469 C443 0.929 . S
H470 C444 0.930 . S
H471 C445 0.931 . S
H472 C452 0.932 . S
H473 C453 0.930 . S
H474 C454 0.929 . S
H475 C456 0.930 . S
H476 C458 0.932 . S
H477 C459 0.929 . S
H478 C460 0.928 . S
H479 C462 0.932 . S
C480 C481 1.264 . S
C480 C485 1.479 . S
C480 C490 1.465 . S
C481 C480 1.264 . S
C481 C483 1.339 . S
C481 H508 0.931 . S
C482 C483 1.395 . S
C482 C484 1.320 . S
C483 C481 1.339 . S
C483 C482 1.395 . S
C483 H509 0.929 . S
C484 C482 1.320 . S
C484 C485 1.405 . S
C484 H510 0.930 . S
C485 C480 1.479 . S
C485 C484 1.405 . S
C485 H511 0.931 . S
U486 O487 2.454 . S
U486 O488 2.458 . S
U486 C489 2.984 . S
U486 C490 2.847 . S
U486 C503 2.882 . S
U486 O504 2.441 . S
U486 O505 2.420 . S
U486 O506 2.455 . S
U486 O507 2.449 . S
O487 U486 2.454 . S
O487 C489 1.353 . S
O488 U486 2.458 . S
O488 C489 1.286 . S
C489 U486 2.984 . S
C489 O487 1.353 . S
C489 O488 1.286 . S
C489 C491 1.363 . S
C490 C480 1.465 . S
C490 U486 2.847 . S
C490 O504 1.249 . S
C490 O505 1.202 . S
C491 C489 1.363 . S
C491 C493 1.408 . S
C491 C496 1.342 . S
C492 C493 1.310 . S
C492 C495 1.461 . S
C492 H512 0.932 . S
C493 C491 1.408 . S
C493 C492 1.310 . S
C493 H513 0.930 . S
C494 C495 1.474 . S
C494 C496 1.285 . S
C494 H514 0.929 . S
C495 C492 1.461 . S
C495 C494 1.474 . S
C496 C491 1.342 . S
C496 C494 1.285 . S
C496 H515 0.930 . S
C497 C500 1.424 . S
C497 C502 1.245 . S
C497 C503 1.428 . S
C498 C501 1.260 . S
C498 C502 1.477 . S
C498 H516 0.932 . S
C499 C500 1.384 . S
C499 C501 1.479 . S
C499 H517 0.929 . S
C500 C497 1.424 . S
C500 C499 1.384 . S
C500 H518 0.928 . S
C501 C498 1.260 . S
C501 C499 1.479 . S
C502 C497 1.245 . S
C502 C498 1.477 . S
C502 H519 0.932 . S
C503 U486 2.882 . S
C503 C497 1.428 . S
C503 O506 1.301 . S
C503 O507 1.282 . S
O504 U486 2.441 . S
O504 C490 1.249 . S
O505 U486 2.420 . S
O505 C490 1.202 . S
O506 U486 2.455 . S
O506 C503 1.301 . S
O507 U486 2.449 . S
O507 C503 1.282 . S
H508 C481 0.931 . S
H509 C483 0.929 . S
H510 C484 0.930 . S
H511 C485 0.931 . S
H512 C492 0.932 . S
H513 C493 0.930 . S
H514 C494 0.929 . S
H515 C496 0.930 . S
H516 C498 0.932 . S
H517 C499 0.929 . S
H518 C500 0.928 . S
H519 C502 0.932 . S
C520 C521 1.264 . S
C520 C525 1.479 . S
C520 C530 1.465 . S
C521 C520 1.264 . S
C521 C523 1.339 . S
C521 H548 0.931 . S
C522 C523 1.395 . S
C522 C524 1.320 . S
C523 C521 1.339 . S
C523 C522 1.395 . S
C523 H549 0.929 . S
C524 C522 1.320 . S
C524 C525 1.405 . S
C524 H550 0.930 . S
C525 C520 1.479 . S
C525 C524 1.405 . S
C525 H551 0.931 . S
U526 O527 2.454 . S
U526 O528 2.458 . S
U526 C529 2.984 . S
U526 C530 2.847 . S
U526 C543 2.882 . S
U526 O544 2.441 . S
U526 O545 2.420 . S
U526 O546 2.455 . S
U526 O547 2.449 . S
O527 U526 2.454 . S
O527 C529 1.353 . S
O528 U526 2.458 . S
O528 C529 1.286 . S
C529 U526 2.984 . S
C529 O527 1.353 . S
C529 O528 1.286 . S
C529 C531 1.363 . S
C530 C520 1.465 . S
C530 U526 2.847 . S
C530 O544 1.249 . S
C530 O545 1.202 . S
C531 C529 1.363 . S
C531 C533 1.408 . S
C531 C536 1.342 . S
C532 C533 1.310 . S
C532 C535 1.461 . S
C532 H552 0.932 . S
C533 C531 1.408 . S
C533 C532 1.310 . S
C533 H553 0.930 . S
C534 C535 1.474 . S
C534 C536 1.285 . S
C534 H554 0.929 . S
C535 C532 1.461 . S
C535 C534 1.474 . S
C536 C531 1.342 . S
C536 C534 1.285 . S
C536 H555 0.930 . S
C537 C540 1.424 . S
C537 C542 1.245 . S
C537 C543 1.428 . S
C538 C541 1.260 . S
C538 C542 1.477 . S
C538 H556 0.932 . S
C539 C540 1.384 . S
C539 C541 1.479 . S
C539 H557 0.929 . S
C540 C537 1.424 . S
C540 C539 1.384 . S
C540 H558 0.928 . S
C541 C538 1.260 . S
C541 C539 1.479 . S
C542 C537 1.245 . S
C542 C538 1.477 . S
C542 H559 0.932 . S
C543 U526 2.882 . S
C543 C537 1.428 . S
C543 O546 1.301 . S
C543 O547 1.282 . S
O544 U526 2.441 . S
O544 C530 1.249 . S
O545 U526 2.420 . S
O545 C530 1.202 . S
O546 U526 2.455 . S
O546 C543 1.301 . S
O547 U526 2.449 . S
O547 C543 1.282 . S
H548 C521 0.931 . S
H549 C523 0.929 . S
H550 C524 0.930 . S
H551 C525 0.931 . S
H552 C532 0.932 . S
H553 C533 0.930 . S
H554 C534 0.929 . S
H555 C536 0.930 . S
H556 C538 0.932 . S
H557 C539 0.929 . S
H558 C540 0.928 . S
H559 C542 0.932 . S
C560 C561 1.264 . S
C560 C565 1.479 . S
C560 C570 1.465 . S
C561 C560 1.264 . S
C561 C563 1.339 . S
C561 H588 0.931 . S
C562 C563 1.395 . S
C562 C564 1.320 . S
C563 C561 1.339 . S
C563 C562 1.395 . S
C563 H589 0.929 . S
C564 C562 1.320 . S
C564 C565 1.405 . S
C564 H590 0.930 . S
C565 C560 1.479 . S
C565 C564 1.405 . S
C565 H591 0.931 . S
U566 O567 2.454 . S
U566 O568 2.458 . S
U566 C569 2.984 . S
U566 C570 2.847 . S
U566 C583 2.882 . S
U566 O584 2.441 . S
U566 O585 2.420 . S
U566 O586 2.455 . S
U566 O587 2.449 . S
O567 U566 2.454 . S
O567 C569 1.353 . S
O568 U566 2.458 . S
O568 C569 1.286 . S
C569 U566 2.984 . S
C569 O567 1.353 . S
C569 O568 1.286 . S
C569 C571 1.363 . S
C570 C560 1.465 . S
C570 U566 2.847 . S
C570 O584 1.249 . S
C570 O585 1.202 . S
C571 C569 1.363 . S
C571 C573 1.408 . S
C571 C576 1.342 . S
C572 C573 1.310 . S
C572 C575 1.461 . S
C572 H592 0.932 . S
C573 C571 1.408 . S
C573 C572 1.310 . S
C573 H593 0.930 . S
C574 C575 1.474 . S
C574 C576 1.285 . S
C574 H594 0.929 . S
C575 C572 1.461 . S
C575 C574 1.474 . S
C576 C571 1.342 . S
C576 C574 1.285 . S
C576 H595 0.930 . S
C577 C580 1.424 . S
C577 C582 1.245 . S
C577 C583 1.428 . S
C578 C581 1.260 . S
C578 C582 1.477 . S
C578 H596 0.932 . S
C579 C580 1.384 . S
C579 C581 1.479 . S
C579 H597 0.929 . S
C580 C577 1.424 . S
C580 C579 1.384 . S
C580 H598 0.928 . S
C581 C578 1.260 . S
C581 C579 1.479 . S
C582 C577 1.245 . S
C582 C578 1.477 . S
C582 H599 0.932 . S
C583 U566 2.882 . S
C583 C577 1.428 . S
C583 O586 1.301 . S
C583 O587 1.282 . S
O584 U566 2.441 . S
O584 C570 1.249 . S
O585 U566 2.420 . S
O585 C570 1.202 . S
O586 U566 2.455 . S
O586 C583 1.301 . S
O587 U566 2.449 . S
O587 C583 1.282 . S
H588 C561 0.931 . S
H589 C563 0.929 . S
H590 C564 0.930 . S
H591 C565 0.931 . S
H592 C572 0.932 . S
H593 C573 0.930 . S
H594 C574 0.929 . S
H595 C576 0.930 . S
H596 C578 0.932 . S
H597 C579 0.929 . S
H598 C580 0.928 . S
H599 C582 0.932 . S
C600 C601 1.264 . S
C600 C605 1.479 . S
C600 C610 1.465 . S
C601 C600 1.264 . S
C601 C603 1.339 . S
C601 H628 0.931 . S
C602 C603 1.395 . S
C602 C604 1.320 . S
C603 C601 1.339 . S
C603 C602 1.395 . S
C603 H629 0.929 . S
C604 C602 1.320 . S
C604 C605 1.405 . S
C604 H630 0.930 . S
C605 C600 1.479 . S
C605 C604 1.405 . S
C605 H631 0.931 . S
U606 O607 2.454 . S
U606 O608 2.458 . S
U606 C609 2.984 . S
U606 C610 2.847 . S
U606 C623 2.882 . S
U606 O624 2.441 . S
U606 O625 2.420 . S
U606 O626 2.455 . S
U606 O627 2.449 . S
O607 U606 2.454 . S
O607 C609 1.353 . S
O608 U606 2.458 . S
O608 C609 1.286 . S
C609 U606 2.984 . S
C609 O607 1.353 . S
C609 O608 1.286 . S
C609 C611 1.363 . S
C610 C600 1.465 . S
C610 U606 2.847 . S
C610 O624 1.249 . S
C610 O625 1.202 . S
C611 C609 1.363 . S
C611 C613 1.408 . S
C611 C616 1.342 . S
C612 C613 1.310 . S
C612 C615 1.461 . S
C612 H632 0.932 . S
C613 C611 1.408 . S
C613 C612 1.310 . S
C613 H633 0.930 . S
C614 C615 1.474 . S
C614 C616 1.285 . S
C614 H634 0.929 . S
C615 C612 1.461 . S
C615 C614 1.474 . S
C616 C611 1.342 . S
C616 C614 1.285 . S
C616 H635 0.930 . S
C617 C620 1.424 . S
C617 C622 1.245 . S
C617 C623 1.428 . S
C618 C621 1.260 . S
C618 C622 1.477 . S
C618 H636 0.932 . S
C619 C620 1.384 . S
C619 C621 1.479 . S
C619 H637 0.929 . S
C620 C617 1.424 . S
C620 C619 1.384 . S
C620 H638 0.928 . S
C621 C618 1.260 . S
C621 C619 1.479 . S
C622 C617 1.245 . S
C622 C618 1.477 . S
C622 H639 0.932 . S
C623 U606 2.882 . S
C623 C617 1.428 . S
C623 O626 1.301 . S
C623 O627 1.282 . S
O624 U606 2.441 . S
O624 C610 1.249 . S
O625 U606 2.420 . S
O625 C610 1.202 . S
O626 U606 2.455 . S
O626 C623 1.301 . S
O627 U606 2.449 . S
O627 C623 1.282 . S
H628 C601 0.931 . S
H629 C603 0.929 . S
H630 C604 0.930 . S
H631 C605 0.931 . S
H632 C612 0.932 . S
H633 C613 0.930 . S
H634 C614 0.929 . S
H635 C616 0.930 . S
H636 C618 0.932 . S
H637 C619 0.929 . S
H638 C620 0.928 . S
H639 C622 0.932 . S
C640 C641 1.264 . S
C640 C645 1.479 . S
C640 C650 1.465 . S
C641 C640 1.264 . S
C641 C643 1.339 . S
C641 H668 0.931 . S
C642 C643 1.395 . S
C642 C644 1.320 . S
C643 C641 1.339 . S
C643 C642 1.395 . S
C643 H669 0.929 . S
C644 C642 1.320 . S
C644 C645 1.405 . S
C644 H670 0.930 . S
C645 C640 1.479 . S
C645 C644 1.405 . S
C645 H671 0.931 . S
U646 O647 2.454 . S
U646 O648 2.458 . S
U646 C649 2.984 . S
U646 C650 2.847 . S
U646 C663 2.882 . S
U646 O664 2.441 . S
U646 O665 2.420 . S
U646 O666 2.455 . S
U646 O667 2.449 . S
O647 U646 2.454 . S
O647 C649 1.353 . S
O648 U646 2.458 . S
O648 C649 1.286 . S
C649 U646 2.984 . S
C649 O647 1.353 . S
C649 O648 1.286 . S
C649 C651 1.363 . S
C650 C640 1.465 . S
C650 U646 2.847 . S
C650 O664 1.249 . S
C650 O665 1.202 . S
C651 C649 1.363 . S
C651 C653 1.408 . S
C651 C656 1.342 . S
C652 C653 1.310 . S
C652 C655 1.461 . S
C652 H672 0.932 . S
C653 C651 1.408 . S
C653 C652 1.310 . S
C653 H673 0.930 . S
C654 C655 1.474 . S
C654 C656 1.285 . S
C654 H674 0.929 . S
C655 C652 1.461 . S
C655 C654 1.474 . S
C656 C651 1.342 . S
C656 C654 1.285 . S
C656 H675 0.930 . S
C657 C660 1.424 . S
C657 C662 1.245 . S
C657 C663 1.428 . S
C658 C661 1.260 . S
C658 C662 1.477 . S
C658 H676 0.932 . S
C659 C660 1.384 . S
C659 C661 1.479 . S
C659 H677 0.929 . S
C660 C657 1.424 . S
C660 C659 1.384 . S
C660 H678 0.928 . S
C661 C658 1.260 . S
C661 C659 1.479 . S
C662 C657 1.245 . S
C662 C658 1.477 . S
C662 H679 0.932 . S
C663 U646 2.882 . S
C663 C657 1.428 . S
C663 O666 1.301 . S
C663 O667 1.282 . S
O664 U646 2.441 . S
O664 C650 1.249 . S
O665 U646 2.420 . S
O665 C650 1.202 . S
O666 U646 2.455 . S
O666 C663 1.301 . S
O667 U646 2.449 . S
O667 C663 1.282 . S
H668 C641 0.931 . S
H669 C643 0.929 . S
H670 C644 0.930 . S
H671 C645 0.931 . S
H672 C652 0.932 . S
H673 C653 0.930 . S
H674 C654 0.929 . S
H675 C656 0.930 . S
H676 C658 0.932 . S
H677 C659 0.929 . S
H678 C660 0.928 . S
H679 C662 0.932 . S
C680 C681 1.264 . S
C680 C685 1.479 . S
C680 C690 1.465 . S
C681 C680 1.264 . S
C681 C683 1.339 . S
C681 H708 0.931 . S
C682 C683 1.395 . S
C682 C684 1.320 . S
C683 C681 1.339 . S
C683 C682 1.395 . S
C683 H709 0.929 . S
C684 C682 1.320 . S
C684 C685 1.405 . S
C684 H710 0.930 . S
C685 C680 1.479 . S
C685 C684 1.405 . S
C685 H711 0.931 . S
U686 O687 2.454 . S
U686 O688 2.458 . S
U686 C689 2.984 . S
U686 C690 2.847 . S
U686 C703 2.882 . S
U686 O704 2.441 . S
U686 O705 2.420 . S
U686 O706 2.455 . S
U686 O707 2.449 . S
O687 U686 2.454 . S
O687 C689 1.353 . S
O688 U686 2.458 . S
O688 C689 1.286 . S
C689 U686 2.984 . S
C689 O687 1.353 . S
C689 O688 1.286 . S
C689 C691 1.363 . S
C690 C680 1.465 . S
C690 U686 2.847 . S
C690 O704 1.249 . S
C690 O705 1.202 . S
C691 C689 1.363 . S
C691 C693 1.408 . S
C691 C696 1.342 . S
C692 C693 1.310 . S
C692 C695 1.461 . S
C692 H712 0.932 . S
C693 C691 1.408 . S
C693 C692 1.310 . S
C693 H713 0.930 . S
C694 C695 1.474 . S
C694 C696 1.285 . S
C694 H714 0.929 . S
C695 C692 1.461 . S
C695 C694 1.474 . S
C696 C691 1.342 . S
C696 C694 1.285 . S
C696 H715 0.930 . S
C697 C700 1.424 . S
C697 C702 1.245 . S
C697 C703 1.428 . S
C698 C701 1.260 . S
C698 C702 1.477 . S
C698 H716 0.932 . S
C699 C700 1.384 . S
C699 C701 1.479 . S
C699 H717 0.929 . S
C700 C697 1.424 . S
C700 C699 1.384 . S
C700 H718 0.928 . S
C701 C698 1.260 . S
C701 C699 1.479 . S
C702 C697 1.245 . S
C702 C698 1.477 . S
C702 H719 0.932 . S
C703 U686 2.882 . S
C703 C697 1.428 . S
C703 O706 1.301 . S
C703 O707 1.282 . S
O704 U686 2.441 . S
O704 C690 1.249 . S
O705 U686 2.420 . S
O705 C690 1.202 . S
O706 U686 2.455 . S
O706 C703 1.301 . S
O707 U686 2.449 . S
O707 C703 1.282 . S
H708 C681 0.931 . S
H709 C683 0.929 . S
H710 C684 0.930 . S
H711 C685 0.931 . S
H712 C692 0.932 . S
H713 C693 0.930 . S
H714 C694 0.929 . S
H715 C696 0.930 . S
H716 C698 0.932 . S
H717 C699 0.929 . S
H718 C700 0.928 . S
H719 C702 0.932 . S
C720 C721 1.264 . S
C720 C725 1.479 . S
C720 C730 1.465 . S
C721 C720 1.264 . S
C721 C723 1.339 . S
C721 H748 0.931 . S
C722 C723 1.395 . S
C722 C724 1.320 . S
C723 C721 1.339 . S
C723 C722 1.395 . S
C723 H749 0.929 . S
C724 C722 1.320 . S
C724 C725 1.405 . S
C724 H750 0.930 . S
C725 C720 1.479 . S
C725 C724 1.405 . S
C725 H751 0.931 . S
U726 O727 2.454 . S
U726 O728 2.458 . S
U726 C729 2.984 . S
U726 C730 2.847 . S
U726 C743 2.882 . S
U726 O744 2.441 . S
U726 O745 2.420 . S
U726 O746 2.455 . S
U726 O747 2.449 . S
O727 U726 2.454 . S
O727 C729 1.353 . S
O728 U726 2.458 . S
O728 C729 1.286 . S
C729 U726 2.984 . S
C729 O727 1.353 . S
C729 O728 1.286 . S
C729 C731 1.363 . S
C730 C720 1.465 . S
C730 U726 2.847 . S
C730 O744 1.249 . S
C730 O745 1.202 . S
C731 C729 1.363 . S
C731 C733 1.408 . S
C731 C736 1.342 . S
C732 C733 1.310 . S
C732 C735 1.461 . S
C732 H752 0.932 . S
C733 C731 1.408 . S
C733 C732 1.310 . S
C733 H753 0.930 . S
C734 C735 1.474 . S
C734 C736 1.285 . S
C734 H754 0.929 . S
C735 C732 1.461 . S
C735 C734 1.474 . S
C736 C731 1.342 . S
C736 C734 1.285 . S
C736 H755 0.930 . S
C737 C740 1.424 . S
C737 C742 1.245 . S
C737 C743 1.428 . S
C738 C741 1.260 . S
C738 C742 1.477 . S
C738 H756 0.932 . S
C739 C740 1.384 . S
C739 C741 1.479 . S
C739 H757 0.929 . S
C740 C737 1.424 . S
C740 C739 1.384 . S
C740 H758 0.928 . S
C741 C738 1.260 . S
C741 C739 1.479 . S
C742 C737 1.245 . S
C742 C738 1.477 . S
C742 H759 0.932 . S
C743 U726 2.882 . S
C743 C737 1.428 . S
C743 O746 1.301 . S
C743 O747 1.282 . S
O744 U726 2.441 . S
O744 C730 1.249 . S
O745 U726 2.420 . S
O745 C730 1.202 . S
O746 U726 2.455 . S
O746 C743 1.301 . S
O747 U726 2.449 . S
O747 C743 1.282 . S
H748 C721 0.931 . S
H749 C723 0.929 . S
H750 C724 0.930 . S
H751 C725 0.931 . S
H752 C732 0.932 . S
H753 C733 0.930 . S
H754 C734 0.929 . S
H755 C736 0.930 . S
H756 C738 0.932 . S
H757 C739 0.929 . S
H758 C740 0.928 . S
H759 C742 0.932 . S
C760 C761 1.264 . S
C760 C765 1.479 . S
C760 C770 1.465 . S
C761 C760 1.264 . S
C761 C763 1.339 . S
C761 H788 0.931 . S
C762 C763 1.395 . S
C762 C764 1.320 . S
C763 C761 1.339 . S
C763 C762 1.395 . S
C763 H789 0.929 . S
C764 C762 1.320 . S
C764 C765 1.405 . S
C764 H790 0.930 . S
C765 C760 1.479 . S
C765 C764 1.405 . S
C765 H791 0.931 . S
U766 O767 2.454 . S
U766 O768 2.458 . S
U766 C769 2.984 . S
U766 C770 2.847 . S
U766 C783 2.882 . S
U766 O784 2.441 . S
U766 O785 2.420 . S
U766 O786 2.455 . S
U766 O787 2.449 . S
O767 U766 2.454 . S
O767 C769 1.353 . S
O768 U766 2.458 . S
O768 C769 1.286 . S
C769 U766 2.984 . S
C769 O767 1.353 . S
C769 O768 1.286 . S
C769 C771 1.363 . S
C770 C760 1.465 . S
C770 U766 2.847 . S
C770 O784 1.249 . S
C770 O785 1.202 . S
C771 C769 1.363 . S
C771 C773 1.408 . S
C771 C776 1.342 . S
C772 C773 1.310 . S
C772 C775 1.461 . S
C772 H792 0.932 . S
C773 C771 1.408 . S
C773 C772 1.310 . S
C773 H793 0.930 . S
C774 C775 1.474 . S
C774 C776 1.285 . S
C774 H794 0.929 . S
C775 C772 1.461 . S
C775 C774 1.474 . S
C776 C771 1.342 . S
C776 C774 1.285 . S
C776 H795 0.930 . S
C777 C780 1.424 . S
C777 C782 1.245 . S
C777 C783 1.428 . S
C778 C781 1.260 . S
C778 C782 1.477 . S
C778 H796 0.932 . S
C779 C780 1.384 . S
C779 C781 1.479 . S
C779 H797 0.929 . S
C780 C777 1.424 . S
C780 C779 1.384 . S
C780 H798 0.928 . S
C781 C778 1.260 . S
C781 C779 1.479 . S
C782 C777 1.245 . S
C782 C778 1.477 . S
C782 H799 0.932 . S
C783 U766 2.882 . S
C783 C777 1.428 . S
C783 O786 1.301 . S
C783 O787 1.282 . S
O784 U766 2.441 . S
O784 C770 1.249 . S
O785 U766 2.420 . S
O785 C770 1.202 . S
O786 U766 2.455 . S
O786 C783 1.301 . S
O787 U766 2.449 . S
O787 C783 1.282 . S
H788 C761 0.931 . S
H789 C763 0.929 . S
H790 C764 0.930 . S
H791 C765 0.931 . S
H792 C772 0.932 . S
H793 C773 0.930 . S
H794 C774 0.929 . S
H795 C776 0.930 . S
H796 C778 0.932 . S
H797 C779 0.929 . S
H798 C780 0.928 . S
H799 C782 0.932 . S
C800 C801 1.264 . S
C800 C805 1.479 . S
C800 C810 1.465 . S
C801 C800 1.264 . S
C801 C803 1.339 . S
C801 H828 0.931 . S
C802 C803 1.395 . S
C802 C804 1.320 . S
C803 C801 1.339 . S
C803 C802 1.395 . S
C803 H829 0.929 . S
C804 C802 1.320 . S
C804 C805 1.405 . S
C804 H830 0.930 . S
C805 C800 1.479 . S
C805 C804 1.405 . S
C805 H831 0.931 . S
U806 O807 2.454 . S
U806 O808 2.458 . S
U806 C809 2.984 . S
U806 C810 2.847 . S
U806 C823 2.882 . S
U806 O824 2.441 . S
U806 O825 2.420 . S
U806 O826 2.455 . S
U806 O827 2.449 . S
O807 U806 2.454 . S
O807 C809 1.353 . S
O808 U806 2.458 . S
O808 C809 1.286 . S
C809 U806 2.984 . S
C809 O807 1.353 . S
C809 O808 1.286 . S
C809 C811 1.363 . S
C810 C800 1.465 . S
C810 U806 2.847 . S
C810 O824 1.249 . S
C810 O825 1.202 . S
C811 C809 1.363 . S
C811 C813 1.408 . S
C811 C816 1.342 . S
C812 C813 1.310 . S
C812 C815 1.461 . S
C812 H832 0.932 . S
C813 C811 1.408 . S
C813 C812 1.310 . S
C813 H833 0.930 . S
C814 C815 1.474 . S
C814 C816 1.285 . S
C814 H834 0.929 . S
C815 C812 1.461 . S
C815 C814 1.474 . S
C816 C811 1.342 . S
C816 C814 1.285 . S
C816 H835 0.930 . S
C817 C820 1.424 . S
C817 C822 1.245 . S
C817 C823 1.428 . S
C818 C821 1.260 . S
C818 C822 1.477 . S
C818 H836 0.932 . S
C819 C820 1.384 . S
C819 C821 1.479 . S
C819 H837 0.929 . S
C820 C817 1.424 . S
C820 C819 1.384 . S
C820 H838 0.928 . S
C821 C818 1.260 . S
C821 C819 1.479 . S
C822 C817 1.245 . S
C822 C818 1.477 . S
C822 H839 0.932 . S
C823 U806 2.882 . S
C823 C817 1.428 . S
C823 O826 1.301 . S
C823 O827 1.282 . S
O824 U806 2.441 . S
O824 C810 1.249 . S
O825 U806 2.420 . S
O825 C810 1.202 . S
O826 U806 2.455 . S
O826 C823 1.301 . S
O827 U806 2.449 . S
O827 C823 1.282 . S
H828 C801 0.931 . S
H829 C803 0.929 . S
H830 C804 0.930 . S
H831 C805 0.931 . S
H832 C812 0.932 . S
H833 C813 0.930 . S
H834 C814 0.929 . S
H835 C816 0.930 . S
H836 C818 0.932 . S
H837 C819 0.929 . S
H838 C820 0.928 . S
H839 C822 0.932 . S
C840 C841 1.264 . S
C840 C845 1.479 . S
C840 C850 1.465 . S
C841 C840 1.264 . S
C841 C843 1.339 . S
C841 H868 0.931 . S
C842 C843 1.395 . S
C842 C844 1.320 . S
C843 C841 1.339 . S
C843 C842 1.395 . S
C843 H869 0.929 . S
C844 C842 1.320 . S
C844 C845 1.405 . S
C844 H870 0.930 . S
C845 C840 1.479 . S
C845 C844 1.405 . S
C845 H871 0.931 . S
U846 O847 2.454 . S
U846 O848 2.458 . S
U846 C849 2.984 . S
U846 C850 2.847 . S
U846 C863 2.882 . S
U846 O864 2.441 . S
U846 O865 2.420 . S
U846 O866 2.455 . S
U846 O867 2.449 . S
O847 U846 2.454 . S
O847 C849 1.353 . S
O848 U846 2.458 . S
O848 C849 1.286 . S
C849 U846 2.984 . S
C849 O847 1.353 . S
C849 O848 1.286 . S
C849 C851 1.363 . S
C850 C840 1.465 . S
C850 U846 2.847 . S
C850 O864 1.249 . S
C850 O865 1.202 . S
C851 C849 1.363 . S
C851 C853 1.408 . S
C851 C856 1.342 . S
C852 C853 1.310 . S
C852 C855 1.461 . S
C852 H872 0.932 . S
C853 C851 1.408 . S
C853 C852 1.310 . S
C853 H873 0.930 . S
C854 C855 1.474 . S
C854 C856 1.285 . S
C854 H874 0.929 . S
C855 C852 1.461 . S
C855 C854 1.474 . S
C856 C851 1.342 . S
C856 C854 1.285 . S
C856 H875 0.930 . S
C857 C860 1.424 . S
C857 C862 1.245 . S
C857 C863 1.428 . S
C858 C861 1.260 . S
C858 C862 1.477 . S
C858 H876 0.932 . S
C859 C860 1.384 . S
C859 C861 1.479 . S
C859 H877 0.929 . S
C860 C857 1.424 . S
C860 C859 1.384 . S
C860 H878 0.928 . S
C861 C858 1.260 . S
C861 C859 1.479 . S
C862 C857 1.245 . S
C862 C858 1.477 . S
C862 H879 0.932 . S
C863 U846 2.882 . S
C863 C857 1.428 . S
C863 O866 1.301 . S
C863 O867 1.282 . S
O864 U846 2.441 . S
O864 C850 1.249 . S
O865 U846 2.420 . S
O865 C850 1.202 . S
O866 U846 2.455 . S
O866 C863 1.301 . S
O867 U846 2.449 . S
O867 C863 1.282 . S
H868 C841 0.931 . S
H869 C843 0.929 . S
H870 C844 0.930 . S
H871 C845 0.931 . S
H872 C852 0.932 . S
H873 C853 0.930 . S
H874 C854 0.929 . S
H875 C856 0.930 . S
H876 C858 0.932 . S
H877 C859 0.929 . S
H878 C860 0.928 . S
H879 C862 0.932 . S
C880 C881 1.264 . S
C880 C885 1.479 . S
C880 C890 1.465 . S
C881 C880 1.264 . S
C881 C883 1.339 . S
C881 H908 0.931 . S
C882 C883 1.395 . S
C882 C884 1.320 . S
C883 C881 1.339 . S
C883 C882 1.395 . S
C883 H909 0.929 . S
C884 C882 1.320 . S
C884 C885 1.405 . S
C884 H910 0.930 . S
C885 C880 1.479 . S
C885 C884 1.405 . S
C885 H911 0.931 . S
U886 O887 2.454 . S
U886 O888 2.458 . S
U886 C889 2.984 . S
U886 C890 2.847 . S
U886 C903 2.882 . S
U886 O904 2.441 . S
U886 O905 2.420 . S
U886 O906 2.455 . S
U886 O907 2.449 . S
O887 U886 2.454 . S
O887 C889 1.353 . S
O888 U886 2.458 . S
O888 C889 1.286 . S
C889 U886 2.984 . S
C889 O887 1.353 . S
C889 O888 1.286 . S
C889 C891 1.363 . S
C890 C880 1.465 . S
C890 U886 2.847 . S
C890 O904 1.249 . S
C890 O905 1.202 . S
C891 C889 1.363 . S
C891 C893 1.408 . S
C891 C896 1.342 . S
C892 C893 1.310 . S
C892 C895 1.461 . S
C892 H912 0.932 . S
C893 C891 1.408 . S
C893 C892 1.310 . S
C893 H913 0.930 . S
C894 C895 1.474 . S
C894 C896 1.285 . S
C894 H914 0.929 . S
C895 C892 1.461 . S
C895 C894 1.474 . S
C896 C891 1.342 . S
C896 C894 1.285 . S
C896 H915 0.930 . S
C897 C900 1.424 . S
C897 C902 1.245 . S
C897 C903 1.428 . S
C898 C901 1.260 . S
C898 C902 1.477 . S
C898 H916 0.932 . S
C899 C900 1.384 . S
C899 C901 1.479 . S
C899 H917 0.929 . S
C900 C897 1.424 . S
C900 C899 1.384 . S
C900 H918 0.928 . S
C901 C898 1.260 . S
C901 C899 1.479 . S
C902 C897 1.245 . S
C902 C898 1.477 . S
C902 H919 0.932 . S
C903 U886 2.882 . S
C903 C897 1.428 . S
C903 O906 1.301 . S
C903 O907 1.282 . S
O904 U886 2.441 . S
O904 C890 1.249 . S
O905 U886 2.420 . S
O905 C890 1.202 . S
O906 U886 2.455 . S
O906 C903 1.301 . S
O907 U886 2.449 . S
O907 C903 1.282 . S
H908 C881 0.931 . S
H909 C883 0.929 . S
H910 C884 0.930 . S
H911 C885 0.931 . S
H912 C892 0.932 . S
H913 C893 0.930 . S
H914 C894 0.929 . S
H915 C896 0.930 . S
H916 C898 0.932 . S
H917 C899 0.929 . S
H918 C900 0.928 . S
H919 C902 0.932 . S
C920 C921 1.264 . S
C920 C925 1.479 . S
C920 C930 1.465 . S
C921 C920 1.264 . S
C921 C923 1.339 . S
C921 H948 0.931 . S
C922 C923 1.395 . S
C922 C924 1.320 . S
C923 C921 1.339 . S
C923 C922 1.395 . S
C923 H949 0.929 . S
C924 C922 1.320 . S
C924 C925 1.405 . S
C924 H950 0.930 . S
C925 C920 1.479 . S
C925 C924 1.405 . S
C925 H951 0.931 . S
U926 O927 2.454 . S
U926 O928 2.458 . S
U926 C929 2.984 . S
U926 C930 2.847 . S
U926 C943 2.882 . S
U926 O944 2.441 . S
U926 O945 2.420 . S
U926 O946 2.455 . S
U926 O947 2.449 . S
O927 U926 2.454 . S
O927 C929 1.353 . S
O928 U926 2.458 . S
O928 C929 1.286 . S
C929 U926 2.984 . S
C929 O927 1.353 . S
C929 O928 1.286 . S
C929 C931 1.363 . S
C930 C920 1.465 . S
C930 U926 2.847 . S
C930 O944 1.249 . S
C930 O945 1.202 . S
C931 C929 1.363 . S
C931 C933 1.408 . S
C931 C936 1.342 . S
C932 C933 1.310 . S
C932 C935 1.461 . S
C932 H952 0.932 . S
C933 C931 1.408 . S
C933 C932 1.310 . S
C933 H953 0.930 . S
C934 C935 1.474 . S
C934 C936 1.285 . S
C934 H954 0.929 . S
C935 C932 1.461 . S
C935 C934 1.474 . S
C936 C931 1.342 . S
C936 C934 1.285 . S
C936 H955 0.930 . S
C937 C940 1.424 . S
C937 C942 1.245 . S
C937 C943 1.428 . S
C938 C941 1.260 . S
C938 C942 1.477 . S
C938 H956 0.932 . S
C939 C940 1.384 . S
C939 C941 1.479 . S
C939 H957 0.929 . S
C940 C937 1.424 . S
C940 C939 1.384 . S
C940 H958 0.928 . S
C941 C938 1.260 . S
C941 C939 1.479 . S
C942 C937 1.245 . S
C942 C938 1.477 . S
C942 H959 0.932 . S
C943 U926 2.882 . S
C943 C937 1.428 . S
C943 O946 1.301 . S
C943 O947 1.282 . S
O944 U926 2.441 . S
O944 C930 1.249 . S
O945 U926 2.420 . S
O945 C930 1.202 . S
O946 U926 2.455 . S
O946 C943 1.301 . S
O947 U926 2.449 . S
O947 C943 1.282 . S
H948 C921 0.931 . S
H949 C923 0.929 . S
H950 C924 0.930 . S
H951 C925 0.931 . S
H952 C932 0.932 . S
H953 C933 0.930 . S
H954 C934 0.929 . S
H955 C936 0.930 . S
H956 C938 0.932 . S
H957 C939 0.929 . S
H958 C940 0.928 . S
H959 C942 0.932 . S
C960 C961 1.264 . S
C960 C965 1.479 . S
C960 C970 1.465 . S
C961 C960 1.264 . S
C961 C963 1.339 . S
C961 H988 0.931 . S
C962 C963 1.395 . S
C962 C964 1.320 . S
C963 C961 1.339 . S
C963 C962 1.395 . S
C963 H989 0.929 . S
C964 C962 1.320 . S
C964 C965 1.405 . S
C964 H990 0.930 . S
C965 C960 1.479 . S
C965 C964 1.405 . S
C965 H991 0.931 . S
U966 O967 2.454 . S
U966 O968 2.458 . S
U966 C969 2.984 . S
U966 C970 2.847 . S
U966 C983 2.882 . S
U966 O984 2.441 . S
U966 O985 2.420 . S
U966 O986 2.455 . S
U966 O987 2.449 . S
O967 U966 2.454 . S
O967 C969 1.353 . S
O968 U966 2.458 . S
O968 C969 1.286 . S
C969 U966 2.984 . S
C969 O967 1.353 . S
C969 O968 1.286 . S
C969 C971 1.363 . S
C970 C960 1.465 . S
C970 U966 2.847 . S
C970 O984 1.249 . S
C970 O985 1.202 . S
C971 C969 1.363 . S
C971 C973 1.408 . S
C971 C976 1.342 . S
C972 C973 1.310 . S
C972 C975 1.461 . S
C972 H992 0.932 . S
C973 C971 1.408 . S
C973 C972 1.310 . S
C973 H993 0.930 . S
C974 C975 1.474 . S
C974 C976 1.285 . S
C974 H994 0.929 . S
C975 C972 1.461 . S
C975 C974 1.474 . S
C976 C971 1.342 . S
C976 C974 1.285 . S
C976 H995 0.930 . S
C977 C980 1.424 . S
C977 C982 1.245 . S
C977 C983 1.428 . S
C978 C981 1.260 . S
C978 C982 1.477 . S
C978 H996 0.932 . S
C979 C980 1.384 . S
C979 C981 1.479 . S
C979 H997 0.929 . S
C980 C977 1.424 . S
C980 C979 1.384 . S
C980 H998 0.928 . S
C981 C978 1.260 . S
C981 C979 1.479 . S
C982 C977 1.245 . S
C982 C978 1.477 . S
C982 H999 0.932 . S
C983 U966 2.882 . S
C983 C977 1.428 . S
C983 O986 1.301 . S
C983 O987 1.282 . S
O984 U966 2.441 . S
O984 C970 1.249 . S
O985 U966 2.420 . S
O985 C970 1.202 . S
O986 U966 2.455 . S
O986 C983 1.301 . S
O987 U966 2.449 . S
O987 C983 1.282 . S
H988 C961 0.931 . S
H989 C963 0.929 . S
H990 C964 0.930 . S
H991 C965 0.931 . S
H992 C972 0.932 . S
H993 C973 0.930 . S
H994 C974 0.929 . S
H995 C976 0.930 . S
H996 C978 0.932 . S
H997 C979 0.929 . S
H998 C980 0.928 . S
H999 C982 0.932 . S
C1000 C1001 1.264 . S
C1000 C1005 1.479 . S
C1000 C1010 1.465 . S
C1001 C1000 1.264 . S
C1001 C1003 1.339 . S
C1001 H1028 0.931 . S
C1002 C1003 1.395 . S
C1002 C1004 1.320 . S
C1003 C1001 1.339 . S
C1003 C1002 1.395 . S
C1003 H1029 0.929 . S
C1004 C1002 1.320 . S
C1004 C1005 1.405 . S
C1004 H1030 0.930 . S
C1005 C1000 1.479 . S
C1005 C1004 1.405 . S
C1005 H1031 0.931 . S
U1006 O1007 2.454 . S
U1006 O1008 2.458 . S
U1006 C1009 2.984 . S
U1006 C1010 2.847 . S
U1006 C1023 2.882 . S
U1006 O1024 2.441 . S
U1006 O1025 2.420 . S
U1006 O1026 2.455 . S
U1006 O1027 2.449 . S
O1007 U1006 2.454 . S
O1007 C1009 1.353 . S
O1008 U1006 2.458 . S
O1008 C1009 1.286 . S
C1009 U1006 2.984 . S
C1009 O1007 1.353 . S
C1009 O1008 1.286 . S
C1009 C1011 1.363 . S
C1010 C1000 1.465 . S
C1010 U1006 2.847 . S
C1010 O1024 1.249 . S
C1010 O1025 1.202 . S
C1011 C1009 1.363 . S
C1011 C1013 1.408 . S
C1011 C1016 1.342 . S
C1012 C1013 1.310 . S
C1012 C1015 1.461 . S
C1012 H1032 0.932 . S
C1013 C1011 1.408 . S
C1013 C1012 1.310 . S
C1013 H1033 0.930 . S
C1014 C1015 1.474 . S
C1014 C1016 1.285 . S
C1014 H1034 0.929 . S
C1015 C1012 1.461 . S
C1015 C1014 1.474 . S
C1016 C1011 1.342 . S
C1016 C1014 1.285 . S
C1016 H1035 0.930 . S
C1017 C1020 1.424 . S
C1017 C1022 1.245 . S
C1017 C1023 1.428 . S
C1018 C1021 1.260 . S
C1018 C1022 1.477 . S
C1018 H1036 0.932 . S
C1019 C1020 1.384 . S
C1019 C1021 1.479 . S
C1019 H1037 0.929 . S
C1020 C1017 1.424 . S
C1020 C1019 1.384 . S
C1020 H1038 0.928 . S
C1021 C1018 1.260 . S
C1021 C1019 1.479 . S
C1022 C1017 1.245 . S
C1022 C1018 1.477 . S
C1022 H1039 0.932 . S
C1023 U1006 2.882 . S
C1023 C1017 1.428 . S
C1023 O1026 1.301 . S
C1023 O1027 1.282 . S
O1024 U1006 2.441 . S
O1024 C1010 1.249 . S
O1025 U1006 2.420 . S
O1025 C1010 1.202 . S
O1026 U1006 2.455 . S
O1026 C1023 1.301 . S
O1027 U1006 2.449 . S
O1027 C1023 1.282 . S
H1028 C1001 0.931 . S
H1029 C1003 0.929 . S
H1030 C1004 0.930 . S
H1031 C1005 0.931 . S
H1032 C1012 0.932 . S
H1033 C1013 0.930 . S
H1034 C1014 0.929 . S
H1035 C1016 0.930 . S
H1036 C1018 0.932 . S
H1037 C1019 0.929 . S
H1038 C1020 0.928 . S
H1039 C1022 0.932 . S
C1040 C1041 1.264 . S
C1040 C1045 1.479 . S
C1040 C1050 1.465 . S
C1041 C1040 1.264 . S
C1041 C1043 1.339 . S
C1041 H1068 0.931 . S
C1042 C1043 1.395 . S
C1042 C1044 1.320 . S
C1043 C1041 1.339 . S
C1043 C1042 1.395 . S
C1043 H1069 0.929 . S
C1044 C1042 1.320 . S
C1044 C1045 1.405 . S
C1044 H1070 0.930 . S
C1045 C1040 1.479 . S
C1045 C1044 1.405 . S
C1045 H1071 0.931 . S
U1046 O1047 2.454 . S
U1046 O1048 2.458 . S
U1046 C1049 2.984 . S
U1046 C1050 2.847 . S
U1046 C1063 2.882 . S
U1046 O1064 2.441 . S
U1046 O1065 2.420 . S
U1046 O1066 2.455 . S
U1046 O1067 2.449 . S
O1047 U1046 2.454 . S
O1047 C1049 1.353 . S
O1048 U1046 2.458 . S
O1048 C1049 1.286 . S
C1049 U1046 2.984 . S
C1049 O1047 1.353 . S
C1049 O1048 1.286 . S
C1049 C1051 1.363 . S
C1050 C1040 1.465 . S
C1050 U1046 2.847 . S
C1050 O1064 1.249 . S
C1050 O1065 1.202 . S
C1051 C1049 1.363 . S
C1051 C1053 1.408 . S
C1051 C1056 1.342 . S
C1052 C1053 1.310 . S
C1052 C1055 1.461 . S
C1052 H1072 0.932 . S
C1053 C1051 1.408 . S
C1053 C1052 1.310 . S
C1053 H1073 0.930 . S
C1054 C1055 1.474 . S
C1054 C1056 1.285 . S
C1054 H1074 0.929 . S
C1055 C1052 1.461 . S
C1055 C1054 1.474 . S
C1056 C1051 1.342 . S
C1056 C1054 1.285 . S
C1056 H1075 0.930 . S
C1057 C1060 1.424 . S
C1057 C1062 1.245 . S
C1057 C1063 1.428 . S
C1058 C1061 1.260 . S
C1058 C1062 1.477 . S
C1058 H1076 0.932 . S
C1059 C1060 1.384 . S
C1059 C1061 1.479 . S
C1059 H1077 0.929 . S
C1060 C1057 1.424 . S
C1060 C1059 1.384 . S
C1060 H1078 0.928 . S
C1061 C1058 1.260 . S
C1061 C1059 1.479 . S
C1062 C1057 1.245 . S
C1062 C1058 1.477 . S
C1062 H1079 0.932 . S
C1063 U1046 2.882 . S
C1063 C1057 1.428 . S
C1063 O1066 1.301 . S
C1063 O1067 1.282 . S
O1064 U1046 2.441 . S
O1064 C1050 1.249 . S
O1065 U1046 2.420 . S
O1065 C1050 1.202 . S
O1066 U1046 2.455 . S
O1066 C1063 1.301 . S
O1067 U1046 2.449 . S
O1067 C1063 1.282 . S
H1068 C1041 0.931 . S
H1069 C1043 0.929 . S
H1070 C1044 0.930 . S
H1071 C1045 0.931 . S
H1072 C1052 0.932 . S
H1073 C1053 0.930 . S
H1074 C1054 0.929 . S
H1075 C1056 0.930 . S
H1076 C1058 0.932 . S
H1077 C1059 0.929 . S
H1078 C1060 0.928 . S
H1079 C1062 0.932 . S
C1080 C1081 1.264 . S
C1080 C1085 1.479 . S
C1080 C1090 1.465 . S
C1081 C1080 1.264 . S
C1081 C1083 1.339 . S
C1081 H1108 0.931 . S
C1082 C1083 1.395 . S
C1082 C1084 1.320 . S
C1083 C1081 1.339 . S
C1083 C1082 1.395 . S
C1083 H1109 0.929 . S
C1084 C1082 1.320 . S
C1084 C1085 1.405 . S
C1084 H1110 0.930 . S
C1085 C1080 1.479 . S
C1085 C1084 1.405 . S
C1085 H1111 0.931 . S
U1086 O1087 2.454 . S
U1086 O1088 2.458 . S
U1086 C1089 2.984 . S
U1086 C1090 2.847 . S
U1086 C1103 2.882 . S
U1086 O1104 2.441 . S
U1086 O1105 2.420 . S
U1086 O1106 2.455 . S
U1086 O1107 2.449 . S
O1087 U1086 2.454 . S
O1087 C1089 1.353 . S
O1088 U1086 2.458 . S
O1088 C1089 1.286 . S
C1089 U1086 2.984 . S
C1089 O1087 1.353 . S
C1089 O1088 1.286 . S
C1089 C1091 1.363 . S
C1090 C1080 1.465 . S
C1090 U1086 2.847 . S
C1090 O1104 1.249 . S
C1090 O1105 1.202 . S
C1091 C1089 1.363 . S
C1091 C1093 1.408 . S
C1091 C1096 1.342 . S
C1092 C1093 1.310 . S
C1092 C1095 1.461 . S
C1092 H1112 0.932 . S
C1093 C1091 1.408 . S
C1093 C1092 1.310 . S
C1093 H1113 0.930 . S
C1094 C1095 1.474 . S
C1094 C1096 1.285 . S
C1094 H1114 0.929 . S
C1095 C1092 1.461 . S
C1095 C1094 1.474 . S
C1096 C1091 1.342 . S
C1096 C1094 1.285 . S
C1096 H1115 0.930 . S
C1097 C1100 1.424 . S
C1097 C1102 1.245 . S
C1097 C1103 1.428 . S
C1098 C1101 1.260 . S
C1098 C1102 1.477 . S
C1098 H1116 0.932 . S
C1099 C1100 1.384 . S
C1099 C1101 1.479 . S
C1099 H1117 0.929 . S
C1100 C1097 1.424 . S
C1100 C1099 1.384 . S
C1100 H1118 0.928 . S
C1101 C1098 1.260 . S
C1101 C1099 1.479 . S
C1102 C1097 1.245 . S
C1102 C1098 1.477 . S
C1102 H1119 0.932 . S
C1103 U1086 2.882 . S
C1103 C1097 1.428 . S
C1103 O1106 1.301 . S
C1103 O1107 1.282 . S
O1104 U1086 2.441 . S
O1104 C1090 1.249 . S
O1105 U1086 2.420 . S
O1105 C1090 1.202 . S
O1106 U1086 2.455 . S
O1106 C1103 1.301 . S
O1107 U1086 2.449 . S
O1107 C1103 1.282 . S
H1108 C1081 0.931 . S
H1109 C1083 0.929 . S
H1110 C1084 0.930 . S
H1111 C1085 0.931 . S
H1112 C1092 0.932 . S
H1113 C1093 0.930 . S
H1114 C1094 0.929 . S
H1115 C1096 0.930 . S
H1116 C1098 0.932 . S
H1117 C1099 0.929 . S
H1118 C1100 0.928 . S
H1119 C1102 0.932 . S
C1120 C1121 1.264 . S
C1120 C1125 1.479 . S
C1120 C1130 1.465 . S
C1121 C1120 1.264 . S
C1121 C1123 1.339 . S
C1121 H1148 0.931 . S
C1122 C1123 1.395 . S
C1122 C1124 1.320 . S
C1123 C1121 1.339 . S
C1123 C1122 1.395 . S
C1123 H1149 0.929 . S
C1124 C1122 1.320 . S
C1124 C1125 1.405 . S
C1124 H1150 0.930 . S
C1125 C1120 1.479 . S
C1125 C1124 1.405 . S
C1125 H1151 0.931 . S
U1126 O1127 2.454 . S
U1126 O1128 2.458 . S
U1126 C1129 2.984 . S
U1126 C1130 2.847 . S
U1126 C1143 2.882 . S
U1126 O1144 2.441 . S
U1126 O1145 2.420 . S
U1126 O1146 2.455 . S
U1126 O1147 2.449 . S
O1127 U1126 2.454 . S
O1127 C1129 1.353 . S
O1128 U1126 2.458 . S
O1128 C1129 1.286 . S
C1129 U1126 2.984 . S
C1129 O1127 1.353 . S
C1129 O1128 1.286 . S
C1129 C1131 1.363 . S
C1130 C1120 1.465 . S
C1130 U1126 2.847 . S
C1130 O1144 1.249 . S
C1130 O1145 1.202 . S
C1131 C1129 1.363 . S
C1131 C1133 1.408 . S
C1131 C1136 1.342 . S
C1132 C1133 1.310 . S
C1132 C1135 1.461 . S
C1132 H1152 0.932 . S
C1133 C1131 1.408 . S
C1133 C1132 1.310 . S
C1133 H1153 0.930 . S
C1134 C1135 1.474 . S
C1134 C1136 1.285 . S
C1134 H1154 0.929 . S
C1135 C1132 1.461 . S
C1135 C1134 1.474 . S
C1136 C1131 1.342 . S
C1136 C1134 1.285 . S
C1136 H1155 0.930 . S
C1137 C1140 1.424 . S
C1137 C1142 1.245 . S
C1137 C1143 1.428 . S
C1138 C1141 1.260 . S
C1138 C1142 1.477 . S
C1138 H1156 0.932 . S
C1139 C1140 1.384 . S
C1139 C1141 1.479 . S
C1139 H1157 0.929 . S
C1140 C1137 1.424 . S
C1140 C1139 1.384 . S
C1140 H1158 0.928 . S
C1141 C1138 1.260 . S
C1141 C1139 1.479 . S
C1142 C1137 1.245 . S
C1142 C1138 1.477 . S
C1142 H1159 0.932 . S
C1143 U1126 2.882 . S
C1143 C1137 1.428 . S
C1143 O1146 1.301 . S
C1143 O1147 1.282 . S
O1144 U1126 2.441 . S
O1144 C1130 1.249 . S
O1145 U1126 2.420 . S
O1145 C1130 1.202 . S
O1146 U1126 2.455 . S
O1146 C1143 1.301 . S
O1147 U1126 2.449 . S
O1147 C1143 1.282 . S
H1148 C1121 0.931 . S
H1149 C1123 0.929 . S
H1150 C1124 0.930 . S
H1151 C1125 0.931 . S
H1152 C1132 0.932 . S
H1153 C1133 0.930 . S
H1154 C1134 0.929 . S
H1155 C1136 0.930 . S
H1156 C1138 0.932 . S
H1157 C1139 0.929 . S
H1158 C1140 0.928 . S
H1159 C1142 0.932 . S
C1160 C1161 1.264 . S
C1160 C1165 1.479 . S
C1160 C1170 1.465 . S
C1161 C1160 1.264 . S
C1161 C1163 1.339 . S
C1161 H1188 0.931 . S
C1162 C1163 1.395 . S
C1162 C1164 1.320 . S
C1163 C1161 1.339 . S
C1163 C1162 1.395 . S
C1163 H1189 0.929 . S
C1164 C1162 1.320 . S
C1164 C1165 1.405 . S
C1164 H1190 0.930 . S
C1165 C1160 1.479 . S
C1165 C1164 1.405 . S
C1165 H1191 0.931 . S
U1166 O1167 2.454 . S
U1166 O1168 2.458 . S
U1166 C1169 2.984 . S
U1166 C1170 2.847 . S
U1166 C1183 2.882 . S
U1166 O1184 2.441 . S
U1166 O1185 2.420 . S
U1166 O1186 2.455 . S
U1166 O1187 2.449 . S
O1167 U1166 2.454 . S
O1167 C1169 1.353 . S
O1168 U1166 2.458 . S
O1168 C1169 1.286 . S
C1169 U1166 2.984 . S
C1169 O1167 1.353 . S
C1169 O1168 1.286 . S
C1169 C1171 1.363 . S
C1170 C1160 1.465 . S
C1170 U1166 2.847 . S
C1170 O1184 1.249 . S
C1170 O1185 1.202 . S
C1171 C1169 1.363 . S
C1171 C1173 1.408 . S
C1171 C1176 1.342 . S
C1172 C1173 1.310 . S
C1172 C1175 1.461 . S
C1172 H1192 0.932 . S
C1173 C1171 1.408 . S
C1173 C1172 1.310 . S
C1173 H1193 0.930 . S
C1174 C1175 1.474 . S
C1174 C1176 1.285 . S
C1174 H1194 0.929 . S
C1175 C1172 1.461 . S
C1175 C1174 1.474 . S
C1176 C1171 1.342 . S
C1176 C1174 1.285 . S
C1176 H1195 0.930 . S
C1177 C1180 1.424 . S
C1177 C1182 1.245 . S
C1177 C1183 1.428 . S
C1178 C1181 1.260 . S
C1178 C1182 1.477 . S
C1178 H1196 0.932 . S
C1179 C1180 1.384 . S
C1179 C1181 1.479 . S
C1179 H1197 0.929 . S
C1180 C1177 1.424 . S
C1180 C1179 1.384 . S
C1180 H1198 0.928 . S
C1181 C1178 1.260 . S
C1181 C1179 1.479 . S
C1182 C1177 1.245 . S
C1182 C1178 1.477 . S
C1182 H1199 0.932 . S
C1183 U1166 2.882 . S
C1183 C1177 1.428 . S
C1183 O1186 1.301 . S
C1183 O1187 1.282 . S
O1184 U1166 2.441 . S
O1184 C1170 1.249 . S
O1185 U1166 2.420 . S
O1185 C1170 1.202 . S
O1186 U1166 2.455 . S
O1186 C1183 1.301 . S
O1187 U1166 2.449 . S
O1187 C1183 1.282 . S
H1188 C1161 0.931 . S
H1189 C1163 0.929 . S
H1190 C1164 0.930 . S
H1191 C1165 0.931 . S
H1192 C1172 0.932 . S
H1193 C1173 0.930 . S
H1194 C1174 0.929 . S
H1195 C1176 0.930 . S
H1196 C1178 0.932 . S
H1197 C1179 0.929 . S
H1198 C1180 0.928 . S
H1199 C1182 0.932 . S
C1200 C1201 1.264 . S
C1200 C1205 1.479 . S
C1200 C1210 1.465 . S
C1201 C1200 1.264 . S
C1201 C1203 1.339 . S
C1201 H1228 0.931 . S
C1202 C1203 1.395 . S
C1202 C1204 1.320 . S
C1203 C1201 1.339 . S
C1203 C1202 1.395 . S
C1203 H1229 0.929 . S
C1204 C1202 1.320 . S
C1204 C1205 1.405 . S
C1204 H1230 0.930 . S
C1205 C1200 1.479 . S
C1205 C1204 1.405 . S
C1205 H1231 0.931 . S
U1206 O1207 2.454 . S
U1206 O1208 2.458 . S
U1206 C1209 2.984 . S
U1206 C1210 2.847 . S
U1206 C1223 2.882 . S
U1206 O1224 2.441 . S
U1206 O1225 2.420 . S
U1206 O1226 2.455 . S
U1206 O1227 2.449 . S
O1207 U1206 2.454 . S
O1207 C1209 1.353 . S
O1208 U1206 2.458 . S
O1208 C1209 1.286 . S
C1209 U1206 2.984 . S
C1209 O1207 1.353 . S
C1209 O1208 1.286 . S
C1209 C1211 1.363 . S
C1210 C1200 1.465 . S
C1210 U1206 2.847 . S
C1210 O1224 1.249 . S
C1210 O1225 1.202 . S
C1211 C1209 1.363 . S
C1211 C1213 1.408 . S
C1211 C1216 1.342 . S
C1212 C1213 1.310 . S
C1212 C1215 1.461 . S
C1212 H1232 0.932 . S
C1213 C1211 1.408 . S
C1213 C1212 1.310 . S
C1213 H1233 0.930 . S
C1214 C1215 1.474 . S
C1214 C1216 1.285 . S
C1214 H1234 0.929 . S
C1215 C1212 1.461 . S
C1215 C1214 1.474 . S
C1216 C1211 1.342 . S
C1216 C1214 1.285 . S
C1216 H1235 0.930 . S
C1217 C1220 1.424 . S
C1217 C1222 1.245 . S
C1217 C1223 1.428 . S
C1218 C1221 1.260 . S
C1218 C1222 1.477 . S
C1218 H1236 0.932 . S
C1219 C1220 1.384 . S
C1219 C1221 1.479 . S
C1219 H1237 0.929 . S
C1220 C1217 1.424 . S
C1220 C1219 1.384 . S
C1220 H1238 0.928 . S
C1221 C1218 1.260 . S
C1221 C1219 1.479 . S
C1222 C1217 1.245 . S
C1222 C1218 1.477 . S
C1222 H1239 0.932 . S
C1223 U1206 2.882 . S
C1223 C1217 1.428 . S
C1223 O1226 1.301 . S
C1223 O1227 1.282 . S
O1224 U1206 2.441 . S
O1224 C1210 1.249 . S
O1225 U1206 2.420 . S
O1225 C1210 1.202 . S
O1226 U1206 2.455 . S
O1226 C1223 1.301 . S
O1227 U1206 2.449 . S
O1227 C1223 1.282 . S
H1228 C1201 0.931 . S
H1229 C1203 0.929 . S
H1230 C1204 0.930 . S
H1231 C1205 0.931 . S
H1232 C1212 0.932 . S
H1233 C1213 0.930 . S
H1234 C1214 0.929 . S
H1235 C1216 0.930 . S
H1236 C1218 0.932 . S
H1237 C1219 0.929 . S
H1238 C1220 0.928 . S
H1239 C1222 0.932 . S
C1240 C1241 1.264 . S
C1240 C1245 1.479 . S
C1240 C1250 1.465 . S
C1241 C1240 1.264 . S
C1241 C1243 1.339 . S
C1241 H1268 0.931 . S
C1242 C1243 1.395 . S
C1242 C1244 1.320 . S
C1243 C1241 1.339 . S
C1243 C1242 1.395 . S
C1243 H1269 0.929 . S
C1244 C1242 1.320 . S
C1244 C1245 1.405 . S
C1244 H1270 0.930 . S
C1245 C1240 1.479 . S
C1245 C1244 1.405 . S
C1245 H1271 0.931 . S
U1246 O1247 2.454 . S
U1246 O1248 2.458 . S
U1246 C1249 2.984 . S
U1246 C1250 2.847 . S
U1246 C1263 2.882 . S
U1246 O1264 2.441 . S
U1246 O1265 2.420 . S
U1246 O1266 2.455 . S
U1246 O1267 2.449 . S
O1247 U1246 2.454 . S
O1247 C1249 1.353 . S
O1248 U1246 2.458 . S
O1248 C1249 1.286 . S
C1249 U1246 2.984 . S
C1249 O1247 1.353 . S
C1249 O1248 1.286 . S
C1249 C1251 1.363 . S
C1250 C1240 1.465 . S
C1250 U1246 2.847 . S
C1250 O1264 1.249 . S
C1250 O1265 1.202 . S
C1251 C1249 1.363 . S
C1251 C1253 1.408 . S
C1251 C1256 1.342 . S
C1252 C1253 1.310 . S
C1252 C1255 1.461 . S
C1252 H1272 0.932 . S
C1253 C1251 1.408 . S
C1253 C1252 1.310 . S
C1253 H1273 0.930 . S
C1254 C1255 1.474 . S
C1254 C1256 1.285 . S
C1254 H1274 0.929 . S
C1255 C1252 1.461 . S
C1255 C1254 1.474 . S
C1256 C1251 1.342 . S
C1256 C1254 1.285 . S
C1256 H1275 0.930 . S
C1257 C1260 1.424 . S
C1257 C1262 1.245 . S
C1257 C1263 1.428 . S
C1258 C1261 1.260 . S
C1258 C1262 1.477 . S
C1258 H1276 0.932 . S
C1259 C1260 1.384 . S
C1259 C1261 1.479 . S
C1259 H1277 0.929 . S
C1260 C1257 1.424 . S
C1260 C1259 1.384 . S
C1260 H1278 0.928 . S
C1261 C1258 1.260 . S
C1261 C1259 1.479 . S
C1262 C1257 1.245 . S
C1262 C1258 1.477 . S
C1262 H1279 0.932 . S
C1263 U1246 2.882 . S
C1263 C1257 1.428 . S
C1263 O1266 1.301 . S
C1263 O1267 1.282 . S
O1264 U1246 2.441 . S
O1264 C1250 1.249 . S
O1265 U1246 2.420 . S
O1265 C1250 1.202 . S
O1266 U1246 2.455 . S
O1266 C1263 1.301 . S
O1267 U1246 2.449 . S
O1267 C1263 1.282 . S
H1268 C1241 0.931 . S
H1269 C1243 0.929 . S
H1270 C1244 0.930 . S
H1271 C1245 0.931 . S
H1272 C1252 0.932 . S
H1273 C1253 0.930 . S
H1274 C1254 0.929 . S
H1275 C1256 0.930 . S
H1276 C1258 0.932 . S
H1277 C1259 0.929 . S
H1278 C1260 0.928 . S
H1279 C1262 0.932 . S
H1280 C1286 0.930 . S
H1281 C1289 0.931 . S
H1282 C1291 0.931 . S
H1283 C1293 0.930 . S
H1284 C1295 0.930 . S
H1285 C1297 0.931 . S
C1286 H1280 0.930 . S
C1286 C1287 1.380 . S
C1286 C1288 1.394 . S
C1287 C1286 1.380 . S
C1287 C1291 1.382 . S
C1288 C1286 1.394 . S
C1288 C1289 1.400 . S
C1289 H1281 0.931 . S
C1289 C1288 1.400 . S
C1289 C1290 1.375 . S
C1290 C1289 1.375 . S
C1290 C1291 1.415 . S
C1290 C1292 1.501 1_556 S
C1291 H1282 0.931 . S
C1291 C1287 1.382 . S
C1291 C1290 1.415 . S
C1292 C1290 1.501 1_554 S
C1292 C1293 1.384 . S
C1292 C1297 1.408 . S
C1293 H1283 0.930 . S
C1293 C1292 1.384 . S
C1293 C1294 1.389 . S
C1294 C1293 1.389 . S
C1294 C1295 1.405 . S
C1295 H1284 0.930 . S
C1295 C1294 1.405 . S
C1295 C1296 1.364 . S
C1296 C1295 1.364 . S
C1296 C1297 1.400 . S
C1297 H1285 0.931 . S
C1297 C1292 1.408 . S
C1297 C1296 1.400 . S
H1298 C1304 0.930 . S
H1299 C1307 0.931 . S
H1300 C1309 0.931 . S
H1301 C1311 0.930 . S
H1302 C1313 0.930 . S
H1303 C1315 0.931 . S
C1304 H1298 0.930 . S
C1304 C1305 1.380 . S
C1304 C1306 1.394 . S
C1305 C1304 1.380 . S
C1305 C1309 1.382 . S
C1306 C1304 1.394 . S
C1306 C1307 1.400 . S
C1307 H1299 0.931 . S
C1307 C1306 1.400 . S
C1307 C1308 1.375 . S
C1308 C1307 1.375 . S
C1308 C1309 1.415 . S
C1308 C1310 1.491 1_554 S
C1309 H1300 0.931 . S
C1309 C1305 1.382 . S
C1309 C1308 1.415 . S
C1310 C1308 1.491 1_556 S
C1310 C1311 1.389 . S
C1310 C1315 1.412 . S
C1311 H1301 0.930 . S
C1311 C1310 1.389 . S
C1311 C1312 1.389 . S
C1312 C1311 1.389 . S
C1312 C1313 1.405 . S
C1313 H1302 0.930 . S
C1313 C1312 1.405 . S
C1313 C1314 1.364 . S
C1314 C1313 1.364 . S
C1314 C1315 1.400 . S
C1315 H1303 0.931 . S
C1315 C1310 1.412 . S
C1315 C1314 1.400 . S
H1316 C1322 0.930 . S
H1317 C1325 0.931 . S
H1318 C1327 0.931 . S
H1319 C1329 0.930 . S
H1320 C1331 0.930 . S
H1321 C1333 0.931 . S
C1322 H1316 0.930 . S
C1322 C1323 1.380 . S
C1322 C1324 1.394 . S
C1323 C1322 1.380 . S
C1323 C1327 1.382 . S
C1324 C1322 1.394 . S
C1324 C1325 1.400 . S
C1325 H1317 0.931 . S
C1325 C1324 1.400 . S
C1325 C1326 1.375 . S
C1326 C1325 1.375 . S
C1326 C1327 1.415 . S
C1326 C1328 1.501 1_556 S
C1327 H1318 0.931 . S
C1327 C1323 1.382 . S
C1327 C1326 1.415 . S
C1328 C1326 1.501 1_554 S
C1328 C1329 1.384 . S
C1328 C1333 1.408 . S
C1329 H1319 0.930 . S
C1329 C1328 1.384 . S
C1329 C1330 1.389 . S
C1330 C1329 1.389 . S
C1330 C1331 1.405 . S
C1331 H1320 0.930 . S
C1331 C1330 1.405 . S
C1331 C1332 1.364 . S
C1332 C1331 1.364 . S
C1332 C1333 1.400 . S
C1333 H1321 0.931 . S
C1333 C1328 1.408 . S
C1333 C1332 1.400 . S
H1334 C1340 0.930 . S
H1335 C1343 0.931 . S
H1336 C1345 0.931 . S
H1337 C1347 0.930 . S
H1338 C1349 0.930 . S
H1339 C1351 0.931 . S
C1340 H1334 0.930 . S
C1340 C1341 1.380 . S
C1340 C1342 1.394 . S
C1341 C1340 1.380 . S
C1341 C1345 1.382 . S
C1342 C1340 1.394 . S
C1342 C1343 1.400 . S
C1343 H1335 0.931 . S
C1343 C1342 1.400 . S
C1343 C1344 1.375 . S
C1344 C1343 1.375 . S
C1344 C1345 1.415 . S
C1344 C1346 1.487 1_554 S
C1345 H1336 0.931 . S
C1345 C1341 1.382 . S
C1345 C1344 1.415 . S
C1346 C1344 1.487 1_556 S
C1346 C1347 1.391 . S
C1346 C1351 1.415 . S
C1347 H1337 0.930 . S
C1347 C1346 1.391 . S
C1347 C1348 1.389 . S
C1348 C1347 1.389 . S
C1348 C1349 1.405 . S
C1349 H1338 0.930 . S
C1349 C1348 1.405 . S
C1349 C1350 1.364 . S
C1350 C1349 1.364 . S
C1350 C1351 1.400 . S
C1351 H1339 0.931 . S
C1351 C1346 1.415 . S
C1351 C1350 1.400 . S
H1352 C1358 0.930 . S
H1353 C1361 0.931 . S
H1354 C1363 0.931 . S
H1355 C1365 0.930 . S
H1356 C1367 0.930 . S
H1357 C1369 0.931 . S
C1358 H1352 0.930 . S
C1358 C1359 1.380 . S
C1358 C1360 1.394 . S
C1359 C1358 1.380 . S
C1359 C1363 1.382 . S
C1360 C1358 1.394 . S
C1360 C1361 1.400 . S
C1361 H1353 0.931 . S
C1361 C1360 1.400 . S
C1361 C1362 1.375 . S
C1362 C1361 1.375 . S
C1362 C1363 1.415 . S
C1362 C1364 1.501 1_455 S
C1363 H1354 0.931 . S
C1363 C1359 1.382 . S
C1363 C1362 1.415 . S
C1364 C1362 1.501 1_655 S
C1364 C1365 1.384 . S
C1364 C1369 1.408 . S
C1365 H1355 0.930 . S
C1365 C1364 1.384 . S
C1365 C1366 1.389 . S
C1366 C1365 1.389 . S
C1366 C1367 1.405 . S
C1367 H1356 0.930 . S
C1367 C1366 1.405 . S
C1367 C1368 1.364 . S
C1368 C1367 1.364 . S
C1368 C1369 1.400 . S
C1369 H1357 0.931 . S
C1369 C1364 1.408 . S
C1369 C1368 1.400 . S
H1370 C1376 0.930 . S
H1371 C1379 0.931 . S
H1372 C1381 0.931 . S
H1373 C1383 0.930 . S
H1374 C1385 0.930 . S
H1375 C1387 0.931 . S
C1376 H1370 0.930 . S
C1376 C1377 1.380 . S
C1376 C1378 1.394 . S
C1377 C1376 1.380 . S
C1377 C1381 1.382 . S
C1378 C1376 1.394 . S
C1378 C1379 1.400 . S
C1379 H1371 0.931 . S
C1379 C1378 1.400 . S
C1379 C1380 1.375 . S
C1380 C1379 1.375 . S
C1380 C1381 1.415 . S
C1380 C1382 1.501 1_565 S
C1381 H1372 0.931 . S
C1381 C1377 1.382 . S
C1381 C1380 1.415 . S
C1382 C1380 1.501 1_545 S
C1382 C1383 1.384 . S
C1382 C1387 1.408 . S
C1383 H1373 0.930 . S
C1383 C1382 1.384 . S
C1383 C1384 1.389 . S
C1384 C1383 1.389 . S
C1384 C1385 1.405 . S
C1385 H1374 0.930 . S
C1385 C1384 1.405 . S
C1385 C1386 1.364 . S
C1386 C1385 1.364 . S
C1386 C1387 1.400 . S
C1387 H1375 0.931 . S
C1387 C1382 1.408 . S
C1387 C1386 1.400 . S
H1388 C1394 0.930 . S
H1389 C1397 0.931 . S
H1390 C1399 0.931 . S
H1391 C1401 0.930 . S
H1392 C1403 0.930 . S
H1393 C1405 0.931 . S
C1394 H1388 0.930 . S
C1394 C1395 1.380 . S
C1394 C1396 1.394 . S
C1395 C1394 1.380 . S
C1395 C1399 1.382 . S
C1396 C1394 1.394 . S
C1396 C1397 1.400 . S
C1397 H1389 0.931 . S
C1397 C1396 1.400 . S
C1397 C1398 1.375 . S
C1398 C1397 1.375 . S
C1398 C1399 1.415 . S
C1398 C1400 1.501 1_455 S
C1399 H1390 0.931 . S
C1399 C1395 1.382 . S
C1399 C1398 1.415 . S
C1400 C1398 1.501 1_655 S
C1400 C1401 1.384 . S
C1400 C1405 1.408 . S
C1401 H1391 0.930 . S
C1401 C1400 1.384 . S
C1401 C1402 1.389 . S
C1402 C1401 1.389 . S
C1402 C1403 1.405 . S
C1403 H1392 0.930 . S
C1403 C1402 1.405 . S
C1403 C1404 1.364 . S
C1404 C1403 1.364 . S
C1404 C1405 1.400 . S
C1405 H1393 0.931 . S
C1405 C1400 1.408 . S
C1405 C1404 1.400 . S
H1406 C1412 0.930 . S
H1407 C1415 0.931 . S
H1408 C1417 0.931 . S
H1409 C1419 0.930 . S
H1410 C1421 0.930 . S
H1411 C1423 0.931 . S
C1412 H1406 0.930 . S
C1412 C1413 1.380 . S
C1412 C1414 1.394 . S
C1413 C1412 1.380 . S
C1413 C1417 1.382 . S
C1414 C1412 1.394 . S
C1414 C1415 1.400 . S
C1415 H1407 0.931 . S
C1415 C1414 1.400 . S
C1415 C1416 1.375 . S
C1416 C1415 1.375 . S
C1416 C1417 1.415 . S
C1416 C1418 1.501 1_545 S
C1417 H1408 0.931 . S
C1417 C1413 1.382 . S
C1417 C1416 1.415 . S
C1418 C1416 1.501 1_565 S
C1418 C1419 1.384 . S
C1418 C1423 1.408 . S
C1419 H1409 0.930 . S
C1419 C1418 1.384 . S
C1419 C1420 1.389 . S
C1420 C1419 1.389 . S
C1420 C1421 1.405 . S
C1421 H1410 0.930 . S
C1421 C1420 1.405 . S
C1421 C1422 1.364 . S
C1422 C1421 1.364 . S
C1422 C1423 1.400 . S
C1423 H1411 0.931 . S
C1423 C1418 1.408 . S
C1423 C1422 1.400 . S
H1424 C1430 0.930 . S
H1425 C1433 0.931 . S
H1426 C1435 0.931 . S
H1427 C1437 0.930 . S
H1428 C1439 0.930 . S
H1429 C1441 0.931 . S
C1430 H1424 0.930 . S
C1430 C1431 1.380 . S
C1430 C1432 1.394 . S
C1431 C1430 1.380 . S
C1431 C1435 1.382 . S
C1432 C1430 1.394 . S
C1432 C1433 1.400 . S
C1433 H1425 0.931 . S
C1433 C1432 1.400 . S
C1433 C1434 1.375 . S
C1434 C1433 1.375 . S
C1434 C1435 1.415 . S
C1434 C1436 1.501 1_455 S
C1435 H1426 0.931 . S
C1435 C1431 1.382 . S
C1435 C1434 1.415 . S
C1436 C1434 1.501 1_655 S
C1436 C1437 1.384 . S
C1436 C1441 1.408 . S
C1437 H1427 0.930 . S
C1437 C1436 1.384 . S
C1437 C1438 1.389 . S
C1438 C1437 1.389 . S
C1438 C1439 1.405 . S
C1439 H1428 0.930 . S
C1439 C1438 1.405 . S
C1439 C1440 1.364 . S
C1440 C1439 1.364 . S
C1440 C1441 1.400 . S
C1441 H1429 0.931 . S
C1441 C1436 1.408 . S
C1441 C1440 1.400 . S
H1442 C1448 0.930 . S
H1443 C1451 0.931 . S
H1444 C1453 0.931 . S
H1445 C1455 0.930 . S
H1446 C1457 0.930 . S
H1447 C1459 0.931 . S
C1448 H1442 0.930 . S
C1448 C1449 1.380 . S
C1448 C1450 1.394 . S
C1449 C1448 1.380 . S
C1449 C1453 1.382 . S
C1450 C1448 1.394 . S
C1450 C1451 1.400 . S
C1451 H1443 0.931 . S
C1451 C1450 1.400 . S
C1451 C1452 1.375 . S
C1452 C1451 1.375 . S
C1452 C1453 1.415 . S
C1452 C1454 1.501 1_565 S
C1453 H1444 0.931 . S
C1453 C1449 1.382 . S
C1453 C1452 1.415 . S
C1454 C1452 1.501 1_545 S
C1454 C1455 1.384 . S
C1454 C1459 1.408 . S
C1455 H1445 0.930 . S
C1455 C1454 1.384 . S
C1455 C1456 1.389 . S
C1456 C1455 1.389 . S
C1456 C1457 1.405 . S
C1457 H1446 0.930 . S
C1457 C1456 1.405 . S
C1457 C1458 1.364 . S
C1458 C1457 1.364 . S
C1458 C1459 1.400 . S
C1459 H1447 0.931 . S
C1459 C1454 1.408 . S
C1459 C1458 1.400 . S
H1460 C1466 0.930 . S
H1461 C1469 0.931 . S
H1462 C1471 0.931 . S
H1463 C1473 0.930 . S
H1464 C1475 0.930 . S
H1465 C1477 0.931 . S
C1466 H1460 0.930 . S
C1466 C1467 1.380 . S
C1466 C1468 1.394 . S
C1467 C1466 1.380 . S
C1467 C1471 1.382 . S
C1468 C1466 1.394 . S
C1468 C1469 1.400 . S
C1469 H1461 0.931 . S
C1469 C1468 1.400 . S
C1469 C1470 1.375 . S
C1470 C1469 1.375 . S
C1470 C1471 1.415 . S
C1470 C1472 1.501 1_455 S
C1471 H1462 0.931 . S
C1471 C1467 1.382 . S
C1471 C1470 1.415 . S
C1472 C1470 1.501 1_655 S
C1472 C1473 1.384 . S
C1472 C1477 1.408 . S
C1473 H1463 0.930 . S
C1473 C1472 1.384 . S
C1473 C1474 1.389 . S
C1474 C1473 1.389 . S
C1474 C1475 1.405 . S
C1475 H1464 0.930 . S
C1475 C1474 1.405 . S
C1475 C1476 1.364 . S
C1476 C1475 1.364 . S
C1476 C1477 1.400 . S
C1477 H1465 0.931 . S
C1477 C1472 1.408 . S
C1477 C1476 1.400 . S
H1478 C1484 0.930 . S
H1479 C1487 0.931 . S
H1480 C1489 0.931 . S
H1481 C1491 0.930 . S
H1482 C1493 0.930 . S
H1483 C1495 0.931 . S
C1484 H1478 0.930 . S
C1484 C1485 1.380 . S
C1484 C1486 1.394 . S
C1485 C1484 1.380 . S
C1485 C1489 1.382 . S
C1486 C1484 1.394 . S
C1486 C1487 1.400 . S
C1487 H1479 0.931 . S
C1487 C1486 1.400 . S
C1487 C1488 1.375 . S
C1488 C1487 1.375 . S
C1488 C1489 1.415 . S
C1488 C1490 1.501 1_545 S
C1489 H1480 0.931 . S
C1489 C1485 1.382 . S
C1489 C1488 1.415 . S
C1490 C1488 1.501 1_565 S
C1490 C1491 1.384 . S
C1490 C1495 1.408 . S
C1491 H1481 0.930 . S
C1491 C1490 1.384 . S
C1491 C1492 1.389 . S
C1492 C1491 1.389 . S
C1492 C1493 1.405 . S
C1493 H1482 0.930 . S
C1493 C1492 1.405 . S
C1493 C1494 1.364 . S
C1494 C1493 1.364 . S
C1494 C1495 1.400 . S
C1495 H1483 0.931 . S
C1495 C1490 1.408 . S
C1495 C1494 1.400 . S
H1496 C1502 0.930 . S
H1497 C1505 0.931 . S
H1498 C1507 0.931 . S
H1499 C1509 0.930 . S
H1500 C1511 0.930 . S
H1501 C1513 0.931 . S
C1502 H1496 0.930 . S
C1502 C1503 1.380 . S
C1502 C1504 1.394 . S
C1503 C1502 1.380 . S
C1503 C1507 1.382 . S
C1504 C1502 1.394 . S
C1504 C1505 1.400 . S
C1505 H1497 0.931 . S
C1505 C1504 1.400 . S
C1505 C1506 1.375 . S
C1506 C1505 1.375 . S
C1506 C1507 1.415 . S
C1506 C1508 1.501 . S
C1507 H1498 0.931 . S
C1507 C1503 1.382 . S
C1507 C1506 1.415 . S
C1508 C1506 1.501 . S
C1508 C1509 1.384 . S
C1508 C1513 1.408 . S
C1509 H1499 0.930 . S
C1509 C1508 1.384 . S
C1509 C1510 1.389 . S
C1510 C1509 1.389 . S
C1510 C1511 1.405 . S
C1511 H1500 0.930 . S
C1511 C1510 1.405 . S
C1511 C1512 1.364 . S
C1512 C1511 1.364 . S
C1512 C1513 1.400 . S
C1513 H1501 0.931 . S
C1513 C1508 1.408 . S
C1513 C1512 1.400 . S
H1514 C1520 0.930 . S
H1515 C1523 0.931 . S
H1516 C1525 0.931 . S
H1517 C1527 0.930 . S
H1518 C1529 0.930 . S
H1519 C1531 0.931 . S
C1520 H1514 0.930 . S
C1520 C1521 1.380 . S
C1520 C1522 1.394 . S
C1521 C1520 1.380 . S
C1521 C1525 1.382 . S
C1522 C1520 1.394 . S
C1522 C1523 1.400 . S
C1523 H1515 0.931 . S
C1523 C1522 1.400 . S
C1523 C1524 1.375 . S
C1524 C1523 1.375 . S
C1524 C1525 1.415 . S
C1524 C1526 1.501 . S
C1525 H1516 0.931 . S
C1525 C1521 1.382 . S
C1525 C1524 1.415 . S
C1526 C1524 1.501 . S
C1526 C1527 1.384 . S
C1526 C1531 1.408 . S
C1527 H1517 0.930 . S
C1527 C1526 1.384 . S
C1527 C1528 1.389 . S
C1528 C1527 1.389 . S
C1528 C1529 1.405 . S
C1529 H1518 0.930 . S
C1529 C1528 1.405 . S
C1529 C1530 1.364 . S
C1530 C1529 1.364 . S
C1530 C1531 1.400 . S
C1531 H1519 0.931 . S
C1531 C1526 1.408 . S
C1531 C1530 1.400 . S
H1532 C1538 0.930 . S
H1533 C1541 0.931 . S
H1534 C1543 0.931 . S
H1535 C1545 0.930 . S
H1536 C1547 0.930 . S
H1537 C1549 0.931 . S
C1538 H1532 0.930 . S
C1538 C1539 1.380 . S
C1538 C1540 1.394 . S
C1539 C1538 1.380 . S
C1539 C1543 1.382 . S
C1540 C1538 1.394 . S
C1540 C1541 1.400 . S
C1541 H1533 0.931 . S
C1541 C1540 1.400 . S
C1541 C1542 1.375 . S
C1542 C1541 1.375 . S
C1542 C1543 1.415 . S
C1542 C1544 1.501 . S
C1543 H1534 0.931 . S
C1543 C1539 1.382 . S
C1543 C1542 1.415 . S
C1544 C1542 1.501 . S
C1544 C1545 1.384 . S
C1544 C1549 1.408 . S
C1545 H1535 0.930 . S
C1545 C1544 1.384 . S
C1545 C1546 1.389 . S
C1546 C1545 1.389 . S
C1546 C1547 1.405 . S
C1547 H1536 0.930 . S
C1547 C1546 1.405 . S
C1547 C1548 1.364 . S
C1548 C1547 1.364 . S
C1548 C1549 1.400 . S
C1549 H1537 0.931 . S
C1549 C1544 1.408 . S
C1549 C1548 1.400 . S
H1550 C1556 0.930 . S
H1551 C1559 0.931 . S
H1552 C1561 0.931 . S
H1553 C1563 0.930 . S
H1554 C1565 0.930 . S
H1555 C1567 0.931 . S
C1556 H1550 0.930 . S
C1556 C1557 1.380 . S
C1556 C1558 1.394 . S
C1557 C1556 1.380 . S
C1557 C1561 1.382 . S
C1558 C1556 1.394 . S
C1558 C1559 1.400 . S
C1559 H1551 0.931 . S
C1559 C1558 1.400 . S
C1559 C1560 1.375 . S
C1560 C1559 1.375 . S
C1560 C1561 1.415 . S
C1560 C1562 1.501 . S
C1561 H1552 0.931 . S
C1561 C1557 1.382 . S
C1561 C1560 1.415 . S
C1562 C1560 1.501 . S
C1562 C1563 1.384 . S
C1562 C1567 1.408 . S
C1563 H1553 0.930 . S
C1563 C1562 1.384 . S
C1563 C1564 1.389 . S
C1564 C1563 1.389 . S
C1564 C1565 1.405 . S
C1565 H1554 0.930 . S
C1565 C1564 1.405 . S
C1565 C1566 1.364 . S
C1566 C1565 1.364 . S
C1566 C1567 1.400 . S
C1567 H1555 0.931 . S
C1567 C1562 1.408 . S
C1567 C1566 1.400 . S
H1568 C1574 0.930 . S
H1569 C1577 0.931 . S
H1570 C1579 0.931 . S
H1571 C1581 0.930 . S
H1572 C1583 0.930 . S
H1573 C1585 0.931 . S
C1574 H1568 0.930 . S
C1574 C1575 1.380 . S
C1574 C1576 1.394 . S
C1575 C1574 1.380 . S
C1575 C1579 1.382 . S
C1576 C1574 1.394 . S
C1576 C1577 1.400 . S
C1577 H1569 0.931 . S
C1577 C1576 1.400 . S
C1577 C1578 1.375 . S
C1578 C1577 1.375 . S
C1578 C1579 1.415 . S
C1578 C1580 1.501 . S
C1579 H1570 0.931 . S
C1579 C1575 1.382 . S
C1579 C1578 1.415 . S
C1580 C1578 1.501 . S
C1580 C1581 1.384 . S
C1580 C1585 1.408 . S
C1581 H1571 0.930 . S
C1581 C1580 1.384 . S
C1581 C1582 1.389 . S
C1582 C1581 1.389 . S
C1582 C1583 1.405 . S
C1583 H1572 0.930 . S
C1583 C1582 1.405 . S
C1583 C1584 1.364 . S
C1584 C1583 1.364 . S
C1584 C1585 1.400 . S
C1585 H1573 0.931 . S
C1585 C1580 1.408 . S
C1585 C1584 1.400 . S
H1586 C1592 0.930 . S
H1587 C1595 0.931 . S
H1588 C1597 0.931 . S
H1589 C1599 0.930 . S
H1590 C1601 0.930 . S
H1591 C1603 0.931 . S
C1592 H1586 0.930 . S
C1592 C1593 1.380 . S
C1592 C1594 1.394 . S
C1593 C1592 1.380 . S
C1593 C1597 1.382 . S
C1594 C1592 1.394 . S
C1594 C1595 1.400 . S
C1595 H1587 0.931 . S
C1595 C1594 1.400 . S
C1595 C1596 1.375 . S
C1596 C1595 1.375 . S
C1596 C1597 1.415 . S
C1596 C1598 1.501 . S
C1597 H1588 0.931 . S
C1597 C1593 1.382 . S
C1597 C1596 1.415 . S
C1598 C1596 1.501 . S
C1598 C1599 1.384 . S
C1598 C1603 1.408 . S
C1599 H1589 0.930 . S
C1599 C1598 1.384 . S
C1599 C1600 1.389 . S
C1600 C1599 1.389 . S
C1600 C1601 1.405 . S
C1601 H1590 0.930 . S
C1601 C1600 1.405 . S
C1601 C1602 1.364 . S
C1602 C1601 1.364 . S
C1602 C1603 1.400 . S
C1603 H1591 0.931 . S
C1603 C1598 1.408 . S
C1603 C1602 1.400 . S
H1604 C1610 0.930 . S
H1605 C1613 0.931 . S
H1606 C1615 0.931 . S
H1607 C1617 0.930 . S
H1608 C1619 0.930 . S
H1609 C1621 0.931 . S
C1610 H1604 0.930 . S
C1610 C1611 1.380 . S
C1610 C1612 1.394 . S
C1611 C1610 1.380 . S
C1611 C1615 1.382 . S
C1612 C1610 1.394 . S
C1612 C1613 1.400 . S
C1613 H1605 0.931 . S
C1613 C1612 1.400 . S
C1613 C1614 1.375 . S
C1614 C1613 1.375 . S
C1614 C1615 1.415 . S
C1614 C1616 1.501 . S
C1615 H1606 0.931 . S
C1615 C1611 1.382 . S
C1615 C1614 1.415 . S
C1616 C1614 1.501 . S
C1616 C1617 1.384 . S
C1616 C1621 1.408 . S
C1617 H1607 0.930 . S
C1617 C1616 1.384 . S
C1617 C1618 1.389 . S
C1618 C1617 1.389 . S
C1618 C1619 1.405 . S
C1619 H1608 0.930 . S
C1619 C1618 1.405 . S
C1619 C1620 1.364 . S
C1620 C1619 1.364 . S
C1620 C1621 1.400 . S
C1621 H1609 0.931 . S
C1621 C1616 1.408 . S
C1621 C1620 1.400 . S
H1622 C1628 0.930 . S
H1623 C1631 0.931 . S
H1624 C1633 0.931 . S
H1625 C1635 0.930 . S
H1626 C1637 0.930 . S
H1627 C1639 0.931 . S
C1628 H1622 0.930 . S
C1628 C1629 1.380 . S
C1628 C1630 1.394 . S
C1629 C1628 1.380 . S
C1629 C1633 1.382 . S
C1630 C1628 1.394 . S
C1630 C1631 1.400 . S
C1631 H1623 0.931 . S
C1631 C1630 1.400 . S
C1631 C1632 1.375 . S
C1632 C1631 1.375 . S
C1632 C1633 1.415 . S
C1632 C1634 1.501 . S
C1633 H1624 0.931 . S
C1633 C1629 1.382 . S
C1633 C1632 1.415 . S
C1634 C1632 1.501 . S
C1634 C1635 1.384 . S
C1634 C1639 1.408 . S
C1635 H1625 0.930 . S
C1635 C1634 1.384 . S
C1635 C1636 1.389 . S
C1636 C1635 1.389 . S
C1636 C1637 1.405 . S
C1637 H1626 0.930 . S
C1637 C1636 1.405 . S
C1637 C1638 1.364 . S
C1638 C1637 1.364 . S
C1638 C1639 1.400 . S
C1639 H1627 0.931 . S
C1639 C1634 1.408 . S
C1639 C1638 1.400 . S
H1640 C1646 0.930 . S
H1641 C1649 0.931 . S
H1642 C1651 0.931 . S
H1643 C1653 0.930 . S
H1644 C1655 0.930 . S
H1645 C1657 0.931 . S
C1646 H1640 0.930 . S
C1646 C1647 1.380 . S
C1646 C1648 1.394 . S
C1647 C1646 1.380 . S
C1647 C1651 1.382 . S
C1648 C1646 1.394 . S
C1648 C1649 1.400 . S
C1649 H1641 0.931 . S
C1649 C1648 1.400 . S
C1649 C1650 1.375 . S
C1650 C1649 1.375 . S
C1650 C1651 1.415 . S
C1650 C1652 1.501 . S
C1651 H1642 0.931 . S
C1651 C1647 1.382 . S
C1651 C1650 1.415 . S
C1652 C1650 1.501 . S
C1652 C1653 1.384 . S
C1652 C1657 1.408 . S
C1653 H1643 0.930 . S
C1653 C1652 1.384 . S
C1653 C1654 1.389 . S
C1654 C1653 1.389 . S
C1654 C1655 1.405 . S
C1655 H1644 0.930 . S
C1655 C1654 1.405 . S
C1655 C1656 1.364 . S
C1656 C1655 1.364 . S
C1656 C1657 1.400 . S
C1657 H1645 0.931 . S
C1657 C1652 1.408 . S
C1657 C1656 1.400 . S
H1658 C1664 0.930 . S
H1659 C1667 0.931 . S
H1660 C1669 0.931 . S
H1661 C1671 0.930 . S
H1662 C1673 0.930 . S
H1663 C1675 0.931 . S
C1664 H1658 0.930 . S
C1664 C1665 1.380 . S
C1664 C1666 1.394 . S
C1665 C1664 1.380 . S
C1665 C1669 1.382 . S
C1666 C1664 1.394 . S
C1666 C1667 1.400 . S
C1667 H1659 0.931 . S
C1667 C1666 1.400 . S
C1667 C1668 1.375 . S
C1668 C1667 1.375 . S
C1668 C1669 1.415 . S
C1668 C1670 1.501 . S
C1669 H1660 0.931 . S
C1669 C1665 1.382 . S
C1669 C1668 1.415 . S
C1670 C1668 1.501 . S
C1670 C1671 1.384 . S
C1670 C1675 1.408 . S
C1671 H1661 0.930 . S
C1671 C1670 1.384 . S
C1671 C1672 1.389 . S
C1672 C1671 1.389 . S
C1672 C1673 1.405 . S
C1673 H1662 0.930 . S
C1673 C1672 1.405 . S
C1673 C1674 1.364 . S
C1674 C1673 1.364 . S
C1674 C1675 1.400 . S
C1675 H1663 0.931 . S
C1675 C1670 1.408 . S
C1675 C1674 1.400 . S
H1676 C1682 0.930 . S
H1677 C1685 0.931 . S
H1678 C1687 0.931 . S
H1679 C1689 0.930 . S
H1680 C1691 0.930 . S
H1681 C1693 0.931 . S
C1682 H1676 0.930 . S
C1682 C1683 1.380 . S
C1682 C1684 1.394 . S
C1683 C1682 1.380 . S
C1683 C1687 1.382 . S
C1684 C1682 1.394 . S
C1684 C1685 1.400 . S
C1685 H1677 0.931 . S
C1685 C1684 1.400 . S
C1685 C1686 1.375 . S
C1686 C1685 1.375 . S
C1686 C1687 1.415 . S
C1686 C1688 1.501 . S
C1687 H1678 0.931 . S
C1687 C1683 1.382 . S
C1687 C1686 1.415 . S
C1688 C1686 1.501 . S
C1688 C1689 1.384 . S
C1688 C1693 1.408 . S
C1689 H1679 0.930 . S
C1689 C1688 1.384 . S
C1689 C1690 1.389 . S
C1690 C1689 1.389 . S
C1690 C1691 1.405 . S
C1691 H1680 0.930 . S
C1691 C1690 1.405 . S
C1691 C1692 1.364 . S
C1692 C1691 1.364 . S
C1692 C1693 1.400 . S
C1693 H1681 0.931 . S
C1693 C1688 1.408 . S
C1693 C1692 1.400 . S
H1694 C1700 0.930 . S
H1695 C1703 0.931 . S
H1696 C1705 0.931 . S
H1697 C1707 0.930 . S
H1698 C1709 0.930 . S
H1699 C1711 0.931 . S
C1700 H1694 0.930 . S
C1700 C1701 1.380 . S
C1700 C1702 1.394 . S
C1701 C1700 1.380 . S
C1701 C1705 1.382 . S
C1702 C1700 1.394 . S
C1702 C1703 1.400 . S
C1703 H1695 0.931 . S
C1703 C1702 1.400 . S
C1703 C1704 1.375 . S
C1704 C1703 1.375 . S
C1704 C1705 1.415 . S
C1704 C1706 1.501 . S
C1705 H1696 0.931 . S
C1705 C1701 1.382 . S
C1705 C1704 1.415 . S
C1706 C1704 1.501 . S
C1706 C1707 1.384 . S
C1706 C1711 1.408 . S
C1707 H1697 0.930 . S
C1707 C1706 1.384 . S
C1707 C1708 1.389 . S
C1708 C1707 1.389 . S
C1708 C1709 1.405 . S
C1709 H1698 0.930 . S
C1709 C1708 1.405 . S
C1709 C1710 1.364 . S
C1710 C1709 1.364 . S
C1710 C1711 1.400 . S
C1711 H1699 0.931 . S
C1711 C1706 1.408 . S
C1711 C1710 1.400 . S
H1712 C1718 0.930 . S
H1713 C1722 0.930 . S
H1714 C1727 0.929 . S
H1715 C1725 0.929 . S
H1716 C1720 0.929 . S
H1717 C1726 0.929 . S
C1718 H1712 0.930 . S
C1718 C1719 1.367 . S
C1718 C1726 1.378 . S
C1719 C1718 1.367 . S
C1719 C1727 1.433 . S
C1720 H1716 0.929 . S
C1720 C1722 1.378 . S
C1720 C1724 1.350 . S
C1721 C1724 1.463 . S
C1721 C1726 1.350 . S
C1721 N1729 1.427 . S
C1722 H1713 0.930 . S
C1722 C1720 1.378 . S
C1722 C1723 1.367 . S
C1723 C1722 1.367 . S
C1723 C1725 1.433 . S
C1724 C1720 1.350 . S
C1724 C1721 1.463 . S
C1724 N1728 1.427 . S
C1725 H1715 0.929 . S
C1725 C1723 1.433 . S
C1725 N1728 1.384 . S
C1726 H1717 0.929 . S
C1726 C1718 1.378 . S
C1726 C1721 1.350 . S
C1727 H1714 0.929 . S
C1727 C1719 1.433 . S
C1727 N1729 1.384 . S
N1728 C1724 1.427 . S
N1728 C1725 1.384 . S
N1729 C1721 1.427 . S
N1729 C1727 1.384 . S
H1730 C1736 0.930 . S
H1731 C1740 0.930 . S
H1732 C1745 0.929 . S
H1733 C1743 0.929 . S
H1734 C1738 0.929 . S
H1735 C1744 0.929 . S
C1736 H1730 0.930 . S
C1736 C1737 1.367 . S
C1736 C1744 1.378 . S
C1737 C1736 1.367 . S
C1737 C1745 1.433 . S
C1738 H1734 0.929 . S
C1738 C1740 1.378 . S
C1738 C1742 1.350 . S
C1739 C1742 1.463 . S
C1739 C1744 1.350 . S
C1739 N1747 1.427 . S
C1740 H1731 0.930 . S
C1740 C1738 1.378 . S
C1740 C1741 1.367 . S
C1741 C1740 1.367 . S
C1741 C1743 1.433 . S
C1742 C1738 1.350 . S
C1742 C1739 1.463 . S
C1742 N1746 1.427 . S
C1743 H1733 0.929 . S
C1743 C1741 1.433 . S
C1743 N1746 1.384 . S
C1744 H1735 0.929 . S
C1744 C1736 1.378 . S
C1744 C1739 1.350 . S
C1745 H1732 0.929 . S
C1745 C1737 1.433 . S
C1745 N1747 1.384 . S
N1746 C1742 1.427 . S
N1746 C1743 1.384 . S
N1747 C1739 1.427 . S
N1747 C1745 1.384 . S
H1748 C1754 0.930 . S
H1749 C1758 0.930 . S
H1750 C1763 0.929 . S
H1751 C1761 0.929 . S
H1752 C1756 0.929 . S
H1753 C1762 0.929 . S
C1754 H1748 0.930 . S
C1754 C1755 1.367 . S
C1754 C1762 1.378 . S
C1755 C1754 1.367 . S
C1755 C1763 1.433 . S
C1756 H1752 0.929 . S
C1756 C1758 1.378 . S
C1756 C1760 1.350 . S
C1757 C1760 1.463 . S
C1757 C1762 1.350 . S
C1757 N1765 1.427 . S
C1758 H1749 0.930 . S
C1758 C1756 1.378 . S
C1758 C1759 1.367 . S
C1759 C1758 1.367 . S
C1759 C1761 1.433 . S
C1760 C1756 1.350 . S
C1760 C1757 1.463 . S
C1760 N1764 1.427 . S
C1761 H1751 0.929 . S
C1761 C1759 1.433 . S
C1761 N1764 1.384 . S
C1762 H1753 0.929 . S
C1762 C1754 1.378 . S
C1762 C1757 1.350 . S
C1763 H1750 0.929 . S
C1763 C1755 1.433 . S
C1763 N1765 1.384 . S
N1764 C1760 1.427 . S
N1764 C1761 1.384 . S
N1765 C1757 1.427 . S
N1765 C1763 1.384 . S
H1766 C1772 0.930 . S
H1767 C1776 0.930 . S
H1768 C1781 0.929 . S
H1769 C1779 0.929 . S
H1770 C1774 0.929 . S
H1771 C1780 0.929 . S
C1772 H1766 0.930 . S
C1772 C1773 1.367 . S
C1772 C1780 1.378 . S
C1773 C1772 1.367 . S
C1773 C1781 1.433 . S
C1774 H1770 0.929 . S
C1774 C1776 1.378 . S
C1774 C1778 1.350 . S
C1775 C1778 1.463 . S
C1775 C1780 1.350 . S
C1775 N1783 1.427 . S
C1776 H1767 0.930 . S
C1776 C1774 1.378 . S
C1776 C1777 1.367 . S
C1777 C1776 1.367 . S
C1777 C1779 1.433 . S
C1778 C1774 1.350 . S
C1778 C1775 1.463 . S
C1778 N1782 1.427 . S
C1779 H1769 0.929 . S
C1779 C1777 1.433 . S
C1779 N1782 1.384 . S
C1780 H1771 0.929 . S
C1780 C1772 1.378 . S
C1780 C1775 1.350 . S
C1781 H1768 0.929 . S
C1781 C1773 1.433 . S
C1781 N1783 1.384 . S
N1782 C1778 1.427 . S
N1782 C1779 1.384 . S
N1783 C1775 1.427 . S
N1783 C1781 1.384 . S
H1784 C1790 0.930 . S
H1785 C1794 0.930 . S
H1786 C1799 0.929 . S
H1787 C1797 0.929 . S
H1788 C1792 0.929 . S
H1789 C1798 0.929 . S
C1790 H1784 0.930 . S
C1790 C1791 1.367 . S
C1790 C1798 1.378 . S
C1791 C1790 1.367 . S
C1791 C1799 1.433 . S
C1792 H1788 0.929 . S
C1792 C1794 1.378 . S
C1792 C1796 1.350 . S
C1793 C1796 1.463 . S
C1793 C1798 1.350 . S
C1793 N1801 1.427 . S
C1794 H1785 0.930 . S
C1794 C1792 1.378 . S
C1794 C1795 1.367 . S
C1795 C1794 1.367 . S
C1795 C1797 1.433 . S
C1796 C1792 1.350 . S
C1796 C1793 1.463 . S
C1796 N1800 1.427 . S
C1797 H1787 0.929 . S
C1797 C1795 1.433 . S
C1797 N1800 1.384 . S
C1798 H1789 0.929 . S
C1798 C1790 1.378 . S
C1798 C1793 1.350 . S
C1799 H1786 0.929 . S
C1799 C1791 1.433 . S
C1799 N1801 1.384 . S
N1800 C1796 1.427 . S
N1800 C1797 1.384 . S
N1801 C1793 1.427 . S
N1801 C1799 1.384 . S
H1802 C1808 0.930 . S
H1803 C1812 0.930 . S
H1804 C1817 0.929 . S
H1805 C1815 0.929 . S
H1806 C1810 0.929 . S
H1807 C1816 0.929 . S
C1808 H1802 0.930 . S
C1808 C1809 1.367 . S
C1808 C1816 1.378 . S
C1809 C1808 1.367 . S
C1809 C1817 1.433 . S
C1810 H1806 0.929 . S
C1810 C1812 1.378 . S
C1810 C1814 1.350 . S
C1811 C1814 1.463 . S
C1811 C1816 1.350 . S
C1811 N1819 1.427 . S
C1812 H1803 0.930 . S
C1812 C1810 1.378 . S
C1812 C1813 1.367 . S
C1813 C1812 1.367 . S
C1813 C1815 1.433 . S
C1814 C1810 1.350 . S
C1814 C1811 1.463 . S
C1814 N1818 1.427 . S
C1815 H1805 0.929 . S
C1815 C1813 1.433 . S
C1815 N1818 1.384 . S
C1816 H1807 0.929 . S
C1816 C1808 1.378 . S
C1816 C1811 1.350 . S
C1817 H1804 0.929 . S
C1817 C1809 1.433 . S
C1817 N1819 1.384 . S
N1818 C1814 1.427 . S
N1818 C1815 1.384 . S
N1819 C1811 1.427 . S
N1819 C1817 1.384 . S
H1820 C1826 0.930 . S
H1821 C1830 0.930 . S
H1822 C1835 0.929 . S
H1823 C1833 0.929 . S
H1824 C1828 0.929 . S
H1825 C1834 0.929 . S
C1826 H1820 0.930 . S
C1826 C1827 1.367 . S
C1826 C1834 1.378 . S
C1827 C1826 1.367 . S
C1827 C1835 1.433 . S
C1828 H1824 0.929 . S
C1828 C1830 1.378 . S
C1828 C1832 1.350 . S
C1829 C1832 1.463 . S
C1829 C1834 1.350 . S
C1829 N1837 1.427 . S
C1830 H1821 0.930 . S
C1830 C1828 1.378 . S
C1830 C1831 1.367 . S
C1831 C1830 1.367 . S
C1831 C1833 1.433 . S
C1832 C1828 1.350 . S
C1832 C1829 1.463 . S
C1832 N1836 1.427 . S
C1833 H1823 0.929 . S
C1833 C1831 1.433 . S
C1833 N1836 1.384 . S
C1834 H1825 0.929 . S
C1834 C1826 1.378 . S
C1834 C1829 1.350 . S
C1835 H1822 0.929 . S
C1835 C1827 1.433 . S
C1835 N1837 1.384 . S
N1836 C1832 1.427 . S
N1836 C1833 1.384 . S
N1837 C1829 1.427 . S
N1837 C1835 1.384 . S
H1838 C1844 0.930 . S
H1839 C1848 0.930 . S
H1840 C1853 0.929 . S
H1841 C1851 0.929 . S
H1842 C1846 0.929 . S
H1843 C1852 0.929 . S
C1844 H1838 0.930 . S
C1844 C1845 1.367 . S
C1844 C1852 1.378 . S
C1845 C1844 1.367 . S
C1845 C1853 1.433 . S
C1846 H1842 0.929 . S
C1846 C1848 1.378 . S
C1846 C1850 1.350 . S
C1847 C1850 1.463 . S
C1847 C1852 1.350 . S
C1847 N1855 1.427 . S
C1848 H1839 0.930 . S
C1848 C1846 1.378 . S
C1848 C1849 1.367 . S
C1849 C1848 1.367 . S
C1849 C1851 1.433 . S
C1850 C1846 1.350 . S
C1850 C1847 1.463 . S
C1850 N1854 1.427 . S
C1851 H1841 0.929 . S
C1851 C1849 1.433 . S
C1851 N1854 1.384 . S
C1852 H1843 0.929 . S
C1852 C1844 1.378 . S
C1852 C1847 1.350 . S
C1853 H1840 0.929 . S
C1853 C1845 1.433 . S
C1853 N1855 1.384 . S
N1854 C1850 1.427 . S
N1854 C1851 1.384 . S
N1855 C1847 1.427 . S
N1855 C1853 1.384 . S
H1856 C1862 0.930 . S
H1857 C1866 0.930 . S
H1858 C1871 0.929 . S
H1859 C1869 0.929 . S
H1860 C1864 0.929 . S
H1861 C1870 0.929 . S
C1862 H1856 0.930 . S
C1862 C1863 1.367 . S
C1862 C1870 1.378 . S
C1863 C1862 1.367 . S
C1863 C1871 1.433 . S
C1864 H1860 0.929 . S
C1864 C1866 1.378 . S
C1864 C1868 1.350 . S
C1865 C1868 1.463 . S
C1865 C1870 1.350 . S
C1865 N1873 1.427 . S
C1866 H1857 0.930 . S
C1866 C1864 1.378 . S
C1866 C1867 1.367 . S
C1867 C1866 1.367 . S
C1867 C1869 1.433 . S
C1868 C1864 1.350 . S
C1868 C1865 1.463 . S
C1868 N1872 1.427 . S
C1869 H1859 0.929 . S
C1869 C1867 1.433 . S
C1869 N1872 1.384 . S
C1870 H1861 0.929 . S
C1870 C1862 1.378 . S
C1870 C1865 1.350 . S
C1871 H1858 0.929 . S
C1871 C1863 1.433 . S
C1871 N1873 1.384 . S
N1872 C1868 1.427 . S
N1872 C1869 1.384 . S
N1873 C1865 1.427 . S
N1873 C1871 1.384 . S
H1874 C1880 0.930 . S
H1875 C1884 0.930 . S
H1876 C1889 0.929 . S
H1877 C1887 0.929 . S
H1878 C1882 0.929 . S
H1879 C1888 0.929 . S
C1880 H1874 0.930 . S
C1880 C1881 1.367 . S
C1880 C1888 1.378 . S
C1881 C1880 1.367 . S
C1881 C1889 1.433 . S
C1882 H1878 0.929 . S
C1882 C1884 1.378 . S
C1882 C1886 1.350 . S
C1883 C1886 1.463 . S
C1883 C1888 1.350 . S
C1883 N1891 1.427 . S
C1884 H1875 0.930 . S
C1884 C1882 1.378 . S
C1884 C1885 1.367 . S
C1885 C1884 1.367 . S
C1885 C1887 1.433 . S
C1886 C1882 1.350 . S
C1886 C1883 1.463 . S
C1886 N1890 1.427 . S
C1887 H1877 0.929 . S
C1887 C1885 1.433 . S
C1887 N1890 1.384 . S
C1888 H1879 0.929 . S
C1888 C1880 1.378 . S
C1888 C1883 1.350 . S
C1889 H1876 0.929 . S
C1889 C1881 1.433 . S
C1889 N1891 1.384 . S
N1890 C1886 1.427 . S
N1890 C1887 1.384 . S
N1891 C1883 1.427 . S
N1891 C1889 1.384 . S
H1892 C1898 0.930 . S
H1893 C1902 0.930 . S
H1894 C1907 0.929 . S
H1895 C1905 0.929 . S
H1896 C1900 0.929 . S
H1897 C1906 0.929 . S
C1898 H1892 0.930 . S
C1898 C1899 1.367 . S
C1898 C1906 1.378 . S
C1899 C1898 1.367 . S
C1899 C1907 1.433 . S
C1900 H1896 0.929 . S
C1900 C1902 1.378 . S
C1900 C1904 1.350 . S
C1901 C1904 1.463 . S
C1901 C1906 1.350 . S
C1901 N1909 1.427 . S
C1902 H1893 0.930 . S
C1902 C1900 1.378 . S
C1902 C1903 1.367 . S
C1903 C1902 1.367 . S
C1903 C1905 1.433 . S
C1904 C1900 1.350 . S
C1904 C1901 1.463 . S
C1904 N1908 1.427 . S
C1905 H1895 0.929 . S
C1905 C1903 1.433 . S
C1905 N1908 1.384 . S
C1906 H1897 0.929 . S
C1906 C1898 1.378 . S
C1906 C1901 1.350 . S
C1907 H1894 0.929 . S
C1907 C1899 1.433 . S
C1907 N1909 1.384 . S
N1908 C1904 1.427 . S
N1908 C1905 1.384 . S
N1909 C1901 1.427 . S
N1909 C1907 1.384 . S
H1910 C1916 0.930 . S
H1911 C1920 0.930 . S
H1912 C1925 0.929 . S
H1913 C1923 0.929 . S
H1914 C1918 0.929 . S
H1915 C1924 0.929 . S
C1916 H1910 0.930 . S
C1916 C1917 1.367 . S
C1916 C1924 1.378 . S
C1917 C1916 1.367 . S
C1917 C1925 1.433 . S
C1918 H1914 0.929 . S
C1918 C1920 1.378 . S
C1918 C1922 1.350 . S
C1919 C1922 1.463 . S
C1919 C1924 1.350 . S
C1919 N1927 1.427 . S
C1920 H1911 0.930 . S
C1920 C1918 1.378 . S
C1920 C1921 1.367 . S
C1921 C1920 1.367 . S
C1921 C1923 1.433 . S
C1922 C1918 1.350 . S
C1922 C1919 1.463 . S
C1922 N1926 1.427 . S
C1923 H1913 0.929 . S
C1923 C1921 1.433 . S
C1923 N1926 1.384 . S
C1924 H1915 0.929 . S
C1924 C1916 1.378 . S
C1924 C1919 1.350 . S
C1925 H1912 0.929 . S
C1925 C1917 1.433 . S
C1925 N1927 1.384 . S
N1926 C1922 1.427 . S
N1926 C1923 1.384 . S
N1927 C1919 1.427 . S
N1927 C1925 1.384 . S
H1928 C1934 0.930 . S
H1929 C1938 0.930 . S
H1930 C1943 0.929 . S
H1931 C1941 0.929 . S
H1932 C1936 0.929 . S
H1933 C1942 0.929 . S
C1934 H1928 0.930 . S
C1934 C1935 1.367 . S
C1934 C1942 1.378 . S
C1935 C1934 1.367 . S
C1935 C1943 1.433 . S
C1936 H1932 0.929 . S
C1936 C1938 1.378 . S
C1936 C1940 1.350 . S
C1937 C1940 1.463 . S
C1937 C1942 1.350 . S
C1937 N1945 1.427 . S
C1938 H1929 0.930 . S
C1938 C1936 1.378 . S
C1938 C1939 1.367 . S
C1939 C1938 1.367 . S
C1939 C1941 1.433 . S
C1940 C1936 1.350 . S
C1940 C1937 1.463 . S
C1940 N1944 1.427 . S
C1941 H1931 0.929 . S
C1941 C1939 1.433 . S
C1941 N1944 1.384 . S
C1942 H1933 0.929 . S
C1942 C1934 1.378 . S
C1942 C1937 1.350 . S
C1943 H1930 0.929 . S
C1943 C1935 1.433 . S
C1943 N1945 1.384 . S
N1944 C1940 1.427 . S
N1944 C1941 1.384 . S
N1945 C1937 1.427 . S
N1945 C1943 1.384 . S
H1946 C1952 0.930 . S
H1947 C1956 0.930 . S
H1948 C1961 0.929 . S
H1949 C1959 0.929 . S
H1950 C1954 0.929 . S
H1951 C1960 0.929 . S
C1952 H1946 0.930 . S
C1952 C1953 1.367 . S
C1952 C1960 1.378 . S
C1953 C1952 1.367 . S
C1953 C1961 1.433 . S
C1954 H1950 0.929 . S
C1954 C1956 1.378 . S
C1954 C1958 1.350 . S
C1955 C1958 1.463 . S
C1955 C1960 1.350 . S
C1955 N1963 1.427 . S
C1956 H1947 0.930 . S
C1956 C1954 1.378 . S
C1956 C1957 1.367 . S
C1957 C1956 1.367 . S
C1957 C1959 1.433 . S
C1958 C1954 1.350 . S
C1958 C1955 1.463 . S
C1958 N1962 1.427 . S
C1959 H1949 0.929 . S
C1959 C1957 1.433 . S
C1959 N1962 1.384 . S
C1960 H1951 0.929 . S
C1960 C1952 1.378 . S
C1960 C1955 1.350 . S
C1961 H1948 0.929 . S
C1961 C1953 1.433 . S
C1961 N1963 1.384 . S
N1962 C1958 1.427 . S
N1962 C1959 1.384 . S
N1963 C1955 1.427 . S
N1963 C1961 1.384 . S
H1964 C1970 0.930 . S
H1965 C1974 0.930 . S
H1966 C1979 0.929 . S
H1967 C1977 0.929 . S
H1968 C1972 0.929 . S
H1969 C1978 0.929 . S
C1970 H1964 0.930 . S
C1970 C1971 1.367 . S
C1970 C1978 1.378 . S
C1971 C1970 1.367 . S
C1971 C1979 1.433 . S
C1972 H1968 0.929 . S
C1972 C1974 1.378 . S
C1972 C1976 1.350 . S
C1973 C1976 1.463 . S
C1973 C1978 1.350 . S
C1973 N1981 1.427 . S
C1974 H1965 0.930 . S
C1974 C1972 1.378 . S
C1974 C1975 1.367 . S
C1975 C1974 1.367 . S
C1975 C1977 1.433 . S
C1976 C1972 1.350 . S
C1976 C1973 1.463 . S
C1976 N1980 1.427 . S
C1977 H1967 0.929 . S
C1977 C1975 1.433 . S
C1977 N1980 1.384 . S
C1978 H1969 0.929 . S
C1978 C1970 1.378 . S
C1978 C1973 1.350 . S
C1979 H1966 0.929 . S
C1979 C1971 1.433 . S
C1979 N1981 1.384 . S
N1980 C1976 1.427 . S
N1980 C1977 1.384 . S
N1981 C1973 1.427 . S
N1981 C1979 1.384 . S
H1982 C1988 0.930 . S
H1983 C1992 0.930 . S
H1984 C1997 0.929 . S
H1985 C1995 0.929 . S
H1986 C1990 0.929 . S
H1987 C1996 0.929 . S
C1988 H1982 0.930 . S
C1988 C1989 1.367 . S
C1988 C1996 1.378 . S
C1989 C1988 1.367 . S
C1989 C1997 1.433 . S
C1990 H1986 0.929 . S
C1990 C1992 1.378 . S
C1990 C1994 1.350 . S
C1991 C1994 1.463 . S
C1991 C1996 1.350 . S
C1991 N1999 1.427 . S
C1992 H1983 0.930 . S
C1992 C1990 1.378 . S
C1992 C1993 1.367 . S
C1993 C1992 1.367 . S
C1993 C1995 1.433 . S
C1994 C1990 1.350 . S
C1994 C1991 1.463 . S
C1994 N1998 1.427 . S
C1995 H1985 0.929 . S
C1995 C1993 1.433 . S
C1995 N1998 1.384 . S
C1996 H1987 0.929 . S
C1996 C1988 1.378 . S
C1996 C1991 1.350 . S
C1997 H1984 0.929 . S
C1997 C1989 1.433 . S
C1997 N1999 1.384 . S
N1998 C1994 1.427 . S
N1998 C1995 1.384 . S
N1999 C1991 1.427 . S
N1999 C1997 1.384 . S
H2000 C2006 0.930 . S
H2001 C2010 0.930 . S
H2002 C2015 0.929 . S
H2003 C2013 0.929 . S
H2004 C2008 0.929 . S
H2005 C2014 0.929 . S
C2006 H2000 0.930 . S
C2006 C2007 1.367 . S
C2006 C2014 1.378 . S
C2007 C2006 1.367 . S
C2007 C2015 1.433 . S
C2008 H2004 0.929 . S
C2008 C2010 1.378 . S
C2008 C2012 1.350 . S
C2009 C2012 1.463 . S
C2009 C2014 1.350 . S
C2009 N2017 1.427 . S
C2010 H2001 0.930 . S
C2010 C2008 1.378 . S
C2010 C2011 1.367 . S
C2011 C2010 1.367 . S
C2011 C2013 1.433 . S
C2012 C2008 1.350 . S
C2012 C2009 1.463 . S
C2012 N2016 1.427 . S
C2013 H2003 0.929 . S
C2013 C2011 1.433 . S
C2013 N2016 1.384 . S
C2014 H2005 0.929 . S
C2014 C2006 1.378 . S
C2014 C2009 1.350 . S
C2015 H2002 0.929 . S
C2015 C2007 1.433 . S
C2015 N2017 1.384 . S
N2016 C2012 1.427 . S
N2016 C2013 1.384 . S
N2017 C2009 1.427 . S
N2017 C2015 1.384 . S
H2018 C2024 0.930 . S
H2019 C2028 0.930 . S
H2020 C2033 0.929 . S
H2021 C2031 0.929 . S
H2022 C2026 0.929 . S
H2023 C2032 0.929 . S
C2024 H2018 0.930 . S
C2024 C2025 1.367 . S
C2024 C2032 1.378 . S
C2025 C2024 1.367 . S
C2025 C2033 1.433 . S
C2026 H2022 0.929 . S
C2026 C2028 1.378 . S
C2026 C2030 1.350 . S
C2027 C2030 1.463 . S
C2027 C2032 1.350 . S
C2027 N2035 1.427 . S
C2028 H2019 0.930 . S
C2028 C2026 1.378 . S
C2028 C2029 1.367 . S
C2029 C2028 1.367 . S
C2029 C2031 1.433 . S
C2030 C2026 1.350 . S
C2030 C2027 1.463 . S
C2030 N2034 1.427 . S
C2031 H2021 0.929 . S
C2031 C2029 1.433 . S
C2031 N2034 1.384 . S
C2032 H2023 0.929 . S
C2032 C2024 1.378 . S
C2032 C2027 1.350 . S
C2033 H2020 0.929 . S
C2033 C2025 1.433 . S
C2033 N2035 1.384 . S
N2034 C2030 1.427 . S
N2034 C2031 1.384 . S
N2035 C2027 1.427 . S
N2035 C2033 1.384 . S
H2036 C2042 0.930 . S
H2037 C2046 0.930 . S
H2038 C2051 0.929 . S
H2039 C2049 0.929 . S
H2040 C2044 0.929 . S
H2041 C2050 0.929 . S
C2042 H2036 0.930 . S
C2042 C2043 1.367 . S
C2042 C2050 1.378 . S
C2043 C2042 1.367 . S
C2043 C2051 1.433 . S
C2044 H2040 0.929 . S
C2044 C2046 1.378 . S
C2044 C2048 1.350 . S
C2045 C2048 1.463 . S
C2045 C2050 1.350 . S
C2045 N2053 1.427 . S
C2046 H2037 0.930 . S
C2046 C2044 1.378 . S
C2046 C2047 1.367 . S
C2047 C2046 1.367 . S
C2047 C2049 1.433 . S
C2048 C2044 1.350 . S
C2048 C2045 1.463 . S
C2048 N2052 1.427 . S
C2049 H2039 0.929 . S
C2049 C2047 1.433 . S
C2049 N2052 1.384 . S
C2050 H2041 0.929 . S
C2050 C2042 1.378 . S
C2050 C2045 1.350 . S
C2051 H2038 0.929 . S
C2051 C2043 1.433 . S
C2051 N2053 1.384 . S
N2052 C2048 1.427 . S
N2052 C2049 1.384 . S
N2053 C2045 1.427 . S
N2053 C2051 1.384 . S
H2054 C2060 0.930 . S
H2055 C2064 0.930 . S
H2056 C2069 0.929 . S
H2057 C2067 0.929 . S
H2058 C2062 0.929 . S
H2059 C2068 0.929 . S
C2060 H2054 0.930 . S
C2060 C2061 1.367 . S
C2060 C2068 1.378 . S
C2061 C2060 1.367 . S
C2061 C2069 1.433 . S
C2062 H2058 0.929 . S
C2062 C2064 1.378 . S
C2062 C2066 1.350 . S
C2063 C2066 1.463 . S
C2063 C2068 1.350 . S
C2063 N2071 1.427 . S
C2064 H2055 0.930 . S
C2064 C2062 1.378 . S
C2064 C2065 1.367 . S
C2065 C2064 1.367 . S
C2065 C2067 1.433 . S
C2066 C2062 1.350 . S
C2066 C2063 1.463 . S
C2066 N2070 1.427 . S
C2067 H2057 0.929 . S
C2067 C2065 1.433 . S
C2067 N2070 1.384 . S
C2068 H2059 0.929 . S
C2068 C2060 1.378 . S
C2068 C2063 1.350 . S
C2069 H2056 0.929 . S
C2069 C2061 1.433 . S
C2069 N2071 1.384 . S
N2070 C2066 1.427 . S
N2070 C2067 1.384 . S
N2071 C2063 1.427 . S
N2071 C2069 1.384 . S
H2072 C2078 0.930 . S
H2073 C2082 0.930 . S
H2074 C2087 0.929 . S
H2075 C2085 0.929 . S
H2076 C2080 0.929 . S
H2077 C2086 0.929 . S
C2078 H2072 0.930 . S
C2078 C2079 1.367 . S
C2078 C2086 1.378 . S
C2079 C2078 1.367 . S
C2079 C2087 1.433 . S
C2080 H2076 0.929 . S
C2080 C2082 1.378 . S
C2080 C2084 1.350 . S
C2081 C2084 1.463 . S
C2081 C2086 1.350 . S
C2081 N2089 1.427 . S
C2082 H2073 0.930 . S
C2082 C2080 1.378 . S
C2082 C2083 1.367 . S
C2083 C2082 1.367 . S
C2083 C2085 1.433 . S
C2084 C2080 1.350 . S
C2084 C2081 1.463 . S
C2084 N2088 1.427 . S
C2085 H2075 0.929 . S
C2085 C2083 1.433 . S
C2085 N2088 1.384 . S
C2086 H2077 0.929 . S
C2086 C2078 1.378 . S
C2086 C2081 1.350 . S
C2087 H2074 0.929 . S
C2087 C2079 1.433 . S
C2087 N2089 1.384 . S
N2088 C2084 1.427 . S
N2088 C2085 1.384 . S
N2089 C2081 1.427 . S
N2089 C2087 1.384 . S
H2090 C2096 0.930 . S
H2091 C2100 0.930 . S
H2092 C2105 0.929 . S
H2093 C2103 0.929 . S
H2094 C2098 0.929 . S
H2095 C2104 0.929 . S
C2096 H2090 0.930 . S
C2096 C2097 1.367 . S
C2096 C2104 1.378 . S
C2097 C2096 1.367 . S
C2097 C2105 1.433 . S
C2098 H2094 0.929 . S
C2098 C2100 1.378 . S
C2098 C2102 1.350 . S
C2099 C2102 1.463 . S
C2099 C2104 1.350 . S
C2099 N2107 1.427 . S
C2100 H2091 0.930 . S
C2100 C2098 1.378 . S
C2100 C2101 1.367 . S
C2101 C2100 1.367 . S
C2101 C2103 1.433 . S
C2102 C2098 1.350 . S
C2102 C2099 1.463 . S
C2102 N2106 1.427 . S
C2103 H2093 0.929 . S
C2103 C2101 1.433 . S
C2103 N2106 1.384 . S
C2104 H2095 0.929 . S
C2104 C2096 1.378 . S
C2104 C2099 1.350 . S
C2105 H2092 0.929 . S
C2105 C2097 1.433 . S
C2105 N2107 1.384 . S
N2106 C2102 1.427 . S
N2106 C2103 1.384 . S
N2107 C2099 1.427 . S
N2107 C2105 1.384 . S
H2108 C2114 0.930 . S
H2109 C2118 0.930 . S
H2110 C2123 0.929 . S
H2111 C2121 0.929 . S
H2112 C2116 0.929 . S
H2113 C2122 0.929 . S
C2114 H2108 0.930 . S
C2114 C2115 1.367 . S
C2114 C2122 1.378 . S
C2115 C2114 1.367 . S
C2115 C2123 1.433 . S
C2116 H2112 0.929 . S
C2116 C2118 1.378 . S
C2116 C2120 1.350 . S
C2117 C2120 1.463 . S
C2117 C2122 1.350 . S
C2117 N2125 1.427 . S
C2118 H2109 0.930 . S
C2118 C2116 1.378 . S
C2118 C2119 1.367 . S
C2119 C2118 1.367 . S
C2119 C2121 1.433 . S
C2120 C2116 1.350 . S
C2120 C2117 1.463 . S
C2120 N2124 1.427 . S
C2121 H2111 0.929 . S
C2121 C2119 1.433 . S
C2121 N2124 1.384 . S
C2122 H2113 0.929 . S
C2122 C2114 1.378 . S
C2122 C2117 1.350 . S
C2123 H2110 0.929 . S
C2123 C2115 1.433 . S
C2123 N2125 1.384 . S
N2124 C2120 1.427 . S
N2124 C2121 1.384 . S
N2125 C2117 1.427 . S
N2125 C2123 1.384 . S
H2126 C2132 0.930 . S
H2127 C2136 0.930 . S
H2128 C2141 0.929 . S
H2129 C2139 0.929 . S
H2130 C2134 0.929 . S
H2131 C2140 0.929 . S
C2132 H2126 0.930 . S
C2132 C2133 1.367 . S
C2132 C2140 1.378 . S
C2133 C2132 1.367 . S
C2133 C2141 1.433 . S
C2134 H2130 0.929 . S
C2134 C2136 1.378 . S
C2134 C2138 1.350 . S
C2135 C2138 1.463 . S
C2135 C2140 1.350 . S
C2135 N2143 1.427 . S
C2136 H2127 0.930 . S
C2136 C2134 1.378 . S
C2136 C2137 1.367 . S
C2137 C2136 1.367 . S
C2137 C2139 1.433 . S
C2138 C2134 1.350 . S
C2138 C2135 1.463 . S
C2138 N2142 1.427 . S
C2139 H2129 0.929 . S
C2139 C2137 1.433 . S
C2139 N2142 1.384 . S
C2140 H2131 0.929 . S
C2140 C2132 1.378 . S
C2140 C2135 1.350 . S
C2141 H2128 0.929 . S
C2141 C2133 1.433 . S
C2141 N2143 1.384 . S
N2142 C2138 1.427 . S
N2142 C2139 1.384 . S
N2143 C2135 1.427 . S
N2143 C2141 1.384 . S
H2144 C2150 0.930 . S
H2145 C2154 0.930 . S
H2146 C2159 0.929 . S
H2147 C2157 0.929 . S
H2148 C2152 0.929 . S
H2149 C2158 0.929 . S
C2150 H2144 0.930 . S
C2150 C2151 1.367 . S
C2150 C2158 1.378 . S
C2151 C2150 1.367 . S
C2151 C2159 1.433 . S
C2152 H2148 0.929 . S
C2152 C2154 1.378 . S
C2152 C2156 1.350 . S
C2153 C2156 1.463 . S
C2153 C2158 1.350 . S
C2153 N2161 1.427 . S
C2154 H2145 0.930 . S
C2154 C2152 1.378 . S
C2154 C2155 1.367 . S
C2155 C2154 1.367 . S
C2155 C2157 1.433 . S
C2156 C2152 1.350 . S
C2156 C2153 1.463 . S
C2156 N2160 1.427 . S
C2157 H2147 0.929 . S
C2157 C2155 1.433 . S
C2157 N2160 1.384 . S
C2158 H2149 0.929 . S
C2158 C2150 1.378 . S
C2158 C2153 1.350 . S
C2159 H2146 0.929 . S
C2159 C2151 1.433 . S
C2159 N2161 1.384 . S
N2160 C2156 1.427 . S
N2160 C2157 1.384 . S
N2161 C2153 1.427 . S
N2161 C2159 1.384 . S
H2162 C2168 0.930 . S
H2163 C2172 0.930 . S
H2164 C2177 0.929 . S
H2165 C2175 0.929 . S
H2166 C2170 0.929 . S
H2167 C2176 0.929 . S
C2168 H2162 0.930 . S
C2168 C2169 1.367 . S
C2168 C2176 1.378 . S
C2169 C2168 1.367 . S
C2169 C2177 1.433 . S
C2170 H2166 0.929 . S
C2170 C2172 1.378 . S
C2170 C2174 1.350 . S
C2171 C2174 1.463 . S
C2171 C2176 1.350 . S
C2171 N2179 1.427 . S
C2172 H2163 0.930 . S
C2172 C2170 1.378 . S
C2172 C2173 1.367 . S
C2173 C2172 1.367 . S
C2173 C2175 1.433 . S
C2174 C2170 1.350 . S
C2174 C2171 1.463 . S
C2174 N2178 1.427 . S
C2175 H2165 0.929 . S
C2175 C2173 1.433 . S
C2175 N2178 1.384 . S
C2176 H2167 0.929 . S
C2176 C2168 1.378 . S
C2176 C2171 1.350 . S
C2177 H2164 0.929 . S
C2177 C2169 1.433 . S
C2177 N2179 1.384 . S
N2178 C2174 1.427 . S
N2178 C2175 1.384 . S
N2179 C2171 1.427 . S
N2179 C2177 1.384 . S
H2180 C2186 0.930 . S
H2181 C2190 0.930 . S
H2182 C2195 0.929 . S
H2183 C2193 0.929 . S
H2184 C2188 0.929 . S
H2185 C2194 0.929 . S
C2186 H2180 0.930 . S
C2186 C2187 1.367 . S
C2186 C2194 1.378 . S
C2187 C2186 1.367 . S
C2187 C2195 1.433 . S
C2188 H2184 0.929 . S
C2188 C2190 1.378 . S
C2188 C2192 1.350 . S
C2189 C2192 1.463 . S
C2189 C2194 1.350 . S
C2189 N2197 1.427 . S
C2190 H2181 0.930 . S
C2190 C2188 1.378 . S
C2190 C2191 1.367 . S
C2191 C2190 1.367 . S
C2191 C2193 1.433 . S
C2192 C2188 1.350 . S
C2192 C2189 1.463 . S
C2192 N2196 1.427 . S
C2193 H2183 0.929 . S
C2193 C2191 1.433 . S
C2193 N2196 1.384 . S
C2194 H2185 0.929 . S
C2194 C2186 1.378 . S
C2194 C2189 1.350 . S
C2195 H2182 0.929 . S
C2195 C2187 1.433 . S
C2195 N2197 1.384 . S
N2196 C2192 1.427 . S
N2196 C2193 1.384 . S
N2197 C2189 1.427 . S
N2197 C2195 1.384 . S
H2198 C2204 0.930 . S
H2199 C2208 0.930 . S
H2200 C2213 0.929 . S
H2201 C2211 0.929 . S
H2202 C2206 0.929 . S
H2203 C2212 0.929 . S
C2204 H2198 0.930 . S
C2204 C2205 1.367 . S
C2204 C2212 1.378 . S
C2205 C2204 1.367 . S
C2205 C2213 1.433 . S
C2206 H2202 0.929 . S
C2206 C2208 1.378 . S
C2206 C2210 1.350 . S
C2207 C2210 1.463 . S
C2207 C2212 1.350 . S
C2207 N2215 1.427 . S
C2208 H2199 0.930 . S
C2208 C2206 1.378 . S
C2208 C2209 1.367 . S
C2209 C2208 1.367 . S
C2209 C2211 1.433 . S
C2210 C2206 1.350 . S
C2210 C2207 1.463 . S
C2210 N2214 1.427 . S
C2211 H2201 0.929 . S
C2211 C2209 1.433 . S
C2211 N2214 1.384 . S
C2212 H2203 0.929 . S
C2212 C2204 1.378 . S
C2212 C2207 1.350 . S
C2213 H2200 0.929 . S
C2213 C2205 1.433 . S
C2213 N2215 1.384 . S
N2214 C2210 1.427 . S
N2214 C2211 1.384 . S
N2215 C2207 1.427 . S
N2215 C2213 1.384 . S
H2216 C2222 0.930 . S
H2217 C2226 0.930 . S
H2218 C2231 0.929 . S
H2219 C2229 0.929 . S
H2220 C2224 0.929 . S
H2221 C2230 0.929 . S
C2222 H2216 0.930 . S
C2222 C2223 1.367 . S
C2222 C2230 1.378 . S
C2223 C2222 1.367 . S
C2223 C2231 1.433 . S
C2224 H2220 0.929 . S
C2224 C2226 1.378 . S
C2224 C2228 1.350 . S
C2225 C2228 1.463 . S
C2225 C2230 1.350 . S
C2225 N2233 1.427 . S
C2226 H2217 0.930 . S
C2226 C2224 1.378 . S
C2226 C2227 1.367 . S
C2227 C2226 1.367 . S
C2227 C2229 1.433 . S
C2228 C2224 1.350 . S
C2228 C2225 1.463 . S
C2228 N2232 1.427 . S
C2229 H2219 0.929 . S
C2229 C2227 1.433 . S
C2229 N2232 1.384 . S
C2230 H2221 0.929 . S
C2230 C2222 1.378 . S
C2230 C2225 1.350 . S
C2231 H2218 0.929 . S
C2231 C2223 1.433 . S
C2231 N2233 1.384 . S
N2232 C2228 1.427 . S
N2232 C2229 1.384 . S
N2233 C2225 1.427 . S
N2233 C2231 1.384 . S
H2234 C2240 0.930 . S
H2235 C2244 0.930 . S
H2236 C2249 0.929 . S
H2237 C2247 0.929 . S
H2238 C2242 0.929 . S
H2239 C2248 0.929 . S
C2240 H2234 0.930 . S
C2240 C2241 1.367 . S
C2240 C2248 1.378 . S
C2241 C2240 1.367 . S
C2241 C2249 1.433 . S
C2242 H2238 0.929 . S
C2242 C2244 1.378 . S
C2242 C2246 1.350 . S
C2243 C2246 1.463 . S
C2243 C2248 1.350 . S
C2243 N2251 1.427 . S
C2244 H2235 0.930 . S
C2244 C2242 1.378 . S
C2244 C2245 1.367 . S
C2245 C2244 1.367 . S
C2245 C2247 1.433 . S
C2246 C2242 1.350 . S
C2246 C2243 1.463 . S
C2246 N2250 1.427 . S
C2247 H2237 0.929 . S
C2247 C2245 1.433 . S
C2247 N2250 1.384 . S
C2248 H2239 0.929 . S
C2248 C2240 1.378 . S
C2248 C2243 1.350 . S
C2249 H2236 0.929 . S
C2249 C2241 1.433 . S
C2249 N2251 1.384 . S
N2250 C2246 1.427 . S
N2250 C2247 1.384 . S
N2251 C2243 1.427 . S
N2251 C2249 1.384 . S
H2252 C2258 0.930 . S
H2253 C2262 0.930 . S
H2254 C2267 0.929 . S
H2255 C2265 0.929 . S
H2256 C2260 0.929 . S
H2257 C2266 0.929 . S
C2258 H2252 0.930 . S
C2258 C2259 1.367 . S
C2258 C2266 1.378 . S
C2259 C2258 1.367 . S
C2259 C2267 1.433 . S
C2260 H2256 0.929 . S
C2260 C2262 1.378 . S
C2260 C2264 1.350 . S
C2261 C2264 1.463 . S
C2261 C2266 1.350 . S
C2261 N2269 1.427 . S
C2262 H2253 0.930 . S
C2262 C2260 1.378 . S
C2262 C2263 1.367 . S
C2263 C2262 1.367 . S
C2263 C2265 1.433 . S
C2264 C2260 1.350 . S
C2264 C2261 1.463 . S
C2264 N2268 1.427 . S
C2265 H2255 0.929 . S
C2265 C2263 1.433 . S
C2265 N2268 1.384 . S
C2266 H2257 0.929 . S
C2266 C2258 1.378 . S
C2266 C2261 1.350 . S
C2267 H2254 0.929 . S
C2267 C2259 1.433 . S
C2267 N2269 1.384 . S
N2268 C2264 1.427 . S
N2268 C2265 1.384 . S
N2269 C2261 1.427 . S
N2269 C2267 1.384 . S
H2270 C2276 0.930 . S
H2271 C2280 0.930 . S
H2272 C2285 0.929 . S
H2273 C2283 0.929 . S
H2274 C2278 0.929 . S
H2275 C2284 0.929 . S
C2276 H2270 0.930 . S
C2276 C2277 1.367 . S
C2276 C2284 1.378 . S
C2277 C2276 1.367 . S
C2277 C2285 1.433 . S
C2278 H2274 0.929 . S
C2278 C2280 1.378 . S
C2278 C2282 1.350 . S
C2279 C2282 1.463 . S
C2279 C2284 1.350 . S
C2279 N2287 1.427 . S
C2280 H2271 0.930 . S
C2280 C2278 1.378 . S
C2280 C2281 1.367 . S
C2281 C2280 1.367 . S
C2281 C2283 1.433 . S
C2282 C2278 1.350 . S
C2282 C2279 1.463 . S
C2282 N2286 1.427 . S
C2283 H2273 0.929 . S
C2283 C2281 1.433 . S
C2283 N2286 1.384 . S
C2284 H2275 0.929 . S
C2284 C2276 1.378 . S
C2284 C2279 1.350 . S
C2285 H2272 0.929 . S
C2285 C2277 1.433 . S
C2285 N2287 1.384 . S
N2286 C2282 1.427 . S
N2286 C2283 1.384 . S
N2287 C2279 1.427 . S
N2287 C2285 1.384 . S
H2288 C2294 0.930 . S
H2289 C2298 0.930 . S
H2290 C2303 0.929 . S
H2291 C2301 0.929 . S
H2292 C2296 0.929 . S
H2293 C2302 0.929 . S
C2294 H2288 0.930 . S
C2294 C2295 1.367 . S
C2294 C2302 1.378 . S
C2295 C2294 1.367 . S
C2295 C2303 1.433 . S
C2296 H2292 0.929 . S
C2296 C2298 1.378 . S
C2296 C2300 1.350 . S
C2297 C2300 1.463 . S
C2297 C2302 1.350 . S
C2297 N2305 1.427 . S
C2298 H2289 0.930 . S
C2298 C2296 1.378 . S
C2298 C2299 1.367 . S
C2299 C2298 1.367 . S
C2299 C2301 1.433 . S
C2300 C2296 1.350 . S
C2300 C2297 1.463 . S
C2300 N2304 1.427 . S
C2301 H2291 0.929 . S
C2301 C2299 1.433 . S
C2301 N2304 1.384 . S
C2302 H2293 0.929 . S
C2302 C2294 1.378 . S
C2302 C2297 1.350 . S
C2303 H2290 0.929 . S
C2303 C2295 1.433 . S
C2303 N2305 1.384 . S
N2304 C2300 1.427 . S
N2304 C2301 1.384 . S
N2305 C2297 1.427 . S
N2305 C2303 1.384 . S
H2306 C2312 0.930 . S
H2307 C2316 0.930 . S
H2308 C2321 0.929 . S
H2309 C2319 0.929 . S
H2310 C2314 0.929 . S
H2311 C2320 0.929 . S
C2312 H2306 0.930 . S
C2312 C2313 1.367 . S
C2312 C2320 1.378 . S
C2313 C2312 1.367 . S
C2313 C2321 1.433 . S
C2314 H2310 0.929 . S
C2314 C2316 1.378 . S
C2314 C2318 1.350 . S
C2315 C2318 1.463 . S
C2315 C2320 1.350 . S
C2315 N2323 1.427 . S
C2316 H2307 0.930 . S
C2316 C2314 1.378 . S
C2316 C2317 1.367 . S
C2317 C2316 1.367 . S
C2317 C2319 1.433 . S
C2318 C2314 1.350 . S
C2318 C2315 1.463 . S
C2318 N2322 1.427 . S
C2319 H2309 0.929 . S
C2319 C2317 1.433 . S
C2319 N2322 1.384 . S
C2320 H2311 0.929 . S
C2320 C2312 1.378 . S
C2320 C2315 1.350 . S
C2321 H2308 0.929 . S
C2321 C2313 1.433 . S
C2321 N2323 1.384 . S
N2322 C2318 1.427 . S
N2322 C2319 1.384 . S
N2323 C2315 1.427 . S
N2323 C2321 1.384 . S
H2324 C2330 0.930 . S
H2325 C2334 0.930 . S
H2326 C2339 0.929 . S
H2327 C2337 0.929 . S
H2328 C2332 0.929 . S
H2329 C2338 0.929 . S
C2330 H2324 0.930 . S
C2330 C2331 1.367 . S
C2330 C2338 1.378 . S
C2331 C2330 1.367 . S
C2331 C2339 1.433 . S
C2332 H2328 0.929 . S
C2332 C2334 1.378 . S
C2332 C2336 1.350 . S
C2333 C2336 1.463 . S
C2333 C2338 1.350 . S
C2333 N2341 1.427 . S
C2334 H2325 0.930 . S
C2334 C2332 1.378 . S
C2334 C2335 1.367 . S
C2335 C2334 1.367 . S
C2335 C2337 1.433 . S
C2336 C2332 1.350 . S
C2336 C2333 1.463 . S
C2336 N2340 1.427 . S
C2337 H2327 0.929 . S
C2337 C2335 1.433 . S
C2337 N2340 1.384 . S
C2338 H2329 0.929 . S
C2338 C2330 1.378 . S
C2338 C2333 1.350 . S
C2339 H2326 0.929 . S
C2339 C2331 1.433 . S
C2339 N2341 1.384 . S
N2340 C2336 1.427 . S
N2340 C2337 1.384 . S
N2341 C2333 1.427 . S
N2341 C2339 1.384 . S
H2342 C2348 0.930 . S
H2343 C2352 0.930 . S
H2344 C2357 0.929 . S
H2345 C2355 0.929 . S
H2346 C2350 0.929 . S
H2347 C2356 0.929 . S
C2348 H2342 0.930 . S
C2348 C2349 1.367 . S
C2348 C2356 1.378 . S
C2349 C2348 1.367 . S
C2349 C2357 1.433 . S
C2350 H2346 0.929 . S
C2350 C2352 1.378 . S
C2350 C2354 1.350 . S
C2351 C2354 1.463 . S
C2351 C2356 1.350 . S
C2351 N2359 1.427 . S
C2352 H2343 0.930 . S
C2352 C2350 1.378 . S
C2352 C2353 1.367 . S
C2353 C2352 1.367 . S
C2353 C2355 1.433 . S
C2354 C2350 1.350 . S
C2354 C2351 1.463 . S
C2354 N2358 1.427 . S
C2355 H2345 0.929 . S
C2355 C2353 1.433 . S
C2355 N2358 1.384 . S
C2356 H2347 0.929 . S
C2356 C2348 1.378 . S
C2356 C2351 1.350 . S
C2357 H2344 0.929 . S
C2357 C2349 1.433 . S
C2357 N2359 1.384 . S
N2358 C2354 1.427 . S
N2358 C2355 1.384 . S
N2359 C2351 1.427 . S
N2359 C2357 1.384 . S
H2360 C2366 0.930 . S
H2361 C2370 0.930 . S
H2362 C2375 0.929 . S
H2363 C2373 0.929 . S
H2364 C2368 0.929 . S
H2365 C2374 0.929 . S
C2366 H2360 0.930 . S
C2366 C2367 1.367 . S
C2366 C2374 1.378 . S
C2367 C2366 1.367 . S
C2367 C2375 1.433 . S
C2368 H2364 0.929 . S
C2368 C2370 1.378 . S
C2368 C2372 1.350 . S
C2369 C2372 1.463 . S
C2369 C2374 1.350 . S
C2369 N2377 1.427 . S
C2370 H2361 0.930 . S
C2370 C2368 1.378 . S
C2370 C2371 1.367 . S
C2371 C2370 1.367 . S
C2371 C2373 1.433 . S
C2372 C2368 1.350 . S
C2372 C2369 1.463 . S
C2372 N2376 1.427 . S
C2373 H2363 0.929 . S
C2373 C2371 1.433 . S
C2373 N2376 1.384 . S
C2374 H2365 0.929 . S
C2374 C2366 1.378 . S
C2374 C2369 1.350 . S
C2375 H2362 0.929 . S
C2375 C2367 1.433 . S
C2375 N2377 1.384 . S
N2376 C2372 1.427 . S
N2376 C2373 1.384 . S
N2377 C2369 1.427 . S
N2377 C2375 1.384 . S
H2378 C2384 0.930 . S
H2379 C2388 0.930 . S
H2380 C2393 0.929 . S
H2381 C2391 0.929 . S
H2382 C2386 0.929 . S
H2383 C2392 0.929 . S
C2384 H2378 0.930 . S
C2384 C2385 1.367 . S
C2384 C2392 1.378 . S
C2385 C2384 1.367 . S
C2385 C2393 1.433 . S
C2386 H2382 0.929 . S
C2386 C2388 1.378 . S
C2386 C2390 1.350 . S
C2387 C2390 1.463 . S
C2387 C2392 1.350 . S
C2387 N2395 1.427 . S
C2388 H2379 0.930 . S
C2388 C2386 1.378 . S
C2388 C2389 1.367 . S
C2389 C2388 1.367 . S
C2389 C2391 1.433 . S
C2390 C2386 1.350 . S
C2390 C2387 1.463 . S
C2390 N2394 1.427 . S
C2391 H2381 0.929 . S
C2391 C2389 1.433 . S
C2391 N2394 1.384 . S
C2392 H2383 0.929 . S
C2392 C2384 1.378 . S
C2392 C2387 1.350 . S
C2393 H2380 0.929 . S
C2393 C2385 1.433 . S
C2393 N2395 1.384 . S
N2394 C2390 1.427 . S
N2394 C2391 1.384 . S
N2395 C2387 1.427 . S
N2395 C2393 1.384 . S
H2396 C2402 0.930 . S
H2397 C2406 0.930 . S
H2398 C2411 0.929 . S
H2399 C2409 0.929 . S
H2400 C2404 0.929 . S
H2401 C2410 0.929 . S
C2402 H2396 0.930 . S
C2402 C2403 1.367 . S
C2402 C2410 1.378 . S
C2403 C2402 1.367 . S
C2403 C2411 1.433 . S
C2404 H2400 0.929 . S
C2404 C2406 1.378 . S
C2404 C2408 1.350 . S
C2405 C2408 1.463 . S
C2405 C2410 1.350 . S
C2405 N2413 1.427 . S
C2406 H2397 0.930 . S
C2406 C2404 1.378 . S
C2406 C2407 1.367 . S
C2407 C2406 1.367 . S
C2407 C2409 1.433 . S
C2408 C2404 1.350 . S
C2408 C2405 1.463 . S
C2408 N2412 1.427 . S
C2409 H2399 0.929 . S
C2409 C2407 1.433 . S
C2409 N2412 1.384 . S
C2410 H2401 0.929 . S
C2410 C2402 1.378 . S
C2410 C2405 1.350 . S
C2411 H2398 0.929 . S
C2411 C2403 1.433 . S
C2411 N2413 1.384 . S
N2412 C2408 1.427 . S
N2412 C2409 1.384 . S
N2413 C2405 1.427 . S
N2413 C2411 1.384 . S
H2414 C2420 0.930 . S
H2415 C2424 0.930 . S
H2416 C2429 0.929 . S
H2417 C2427 0.929 . S
H2418 C2422 0.929 . S
H2419 C2428 0.929 . S
C2420 H2414 0.930 . S
C2420 C2421 1.367 . S
C2420 C2428 1.378 . S
C2421 C2420 1.367 . S
C2421 C2429 1.433 . S
C2422 H2418 0.929 . S
C2422 C2424 1.378 . S
C2422 C2426 1.350 . S
C2423 C2426 1.463 . S
C2423 C2428 1.350 . S
C2423 N2431 1.427 . S
C2424 H2415 0.930 . S
C2424 C2422 1.378 . S
C2424 C2425 1.367 . S
C2425 C2424 1.367 . S
C2425 C2427 1.433 . S
C2426 C2422 1.350 . S
C2426 C2423 1.463 . S
C2426 N2430 1.427 . S
C2427 H2417 0.929 . S
C2427 C2425 1.433 . S
C2427 N2430 1.384 . S
C2428 H2419 0.929 . S
C2428 C2420 1.378 . S
C2428 C2423 1.350 . S
C2429 H2416 0.929 . S
C2429 C2421 1.433 . S
C2429 N2431 1.384 . S
N2430 C2426 1.427 . S
N2430 C2427 1.384 . S
N2431 C2423 1.427 . S
N2431 C2429 1.384 . S
H2432 C2438 0.930 . S
H2433 C2442 0.930 . S
H2434 C2447 0.929 . S
H2435 C2445 0.929 . S
H2436 C2440 0.929 . S
H2437 C2446 0.929 . S
C2438 H2432 0.930 . S
C2438 C2439 1.367 . S
C2438 C2446 1.378 . S
C2439 C2438 1.367 . S
C2439 C2447 1.433 . S
C2440 H2436 0.929 . S
C2440 C2442 1.378 . S
C2440 C2444 1.350 . S
C2441 C2444 1.463 . S
C2441 C2446 1.350 . S
C2441 N2449 1.427 . S
C2442 H2433 0.930 . S
C2442 C2440 1.378 . S
C2442 C2443 1.367 . S
C2443 C2442 1.367 . S
C2443 C2445 1.433 . S
C2444 C2440 1.350 . S
C2444 C2441 1.463 . S
C2444 N2448 1.427 . S
C2445 H2435 0.929 . S
C2445 C2443 1.433 . S
C2445 N2448 1.384 . S
C2446 H2437 0.929 . S
C2446 C2438 1.378 . S
C2446 C2441 1.350 . S
C2447 H2434 0.929 . S
C2447 C2439 1.433 . S
C2447 N2449 1.384 . S
N2448 C2444 1.427 . S
N2448 C2445 1.384 . S
N2449 C2441 1.427 . S
N2449 C2447 1.384 . S
H2450 C2456 0.930 . S
H2451 C2460 0.930 . S
H2452 C2465 0.929 . S
H2453 C2463 0.929 . S
H2454 C2458 0.929 . S
H2455 C2464 0.929 . S
C2456 H2450 0.930 . S
C2456 C2457 1.367 . S
C2456 C2464 1.378 . S
C2457 C2456 1.367 . S
C2457 C2465 1.433 . S
C2458 H2454 0.929 . S
C2458 C2460 1.378 . S
C2458 C2462 1.350 . S
C2459 C2462 1.463 . S
C2459 C2464 1.350 . S
C2459 N2467 1.427 . S
C2460 H2451 0.930 . S
C2460 C2458 1.378 . S
C2460 C2461 1.367 . S
C2461 C2460 1.367 . S
C2461 C2463 1.433 . S
C2462 C2458 1.350 . S
C2462 C2459 1.463 . S
C2462 N2466 1.427 . S
C2463 H2453 0.929 . S
C2463 C2461 1.433 . S
C2463 N2466 1.384 . S
C2464 H2455 0.929 . S
C2464 C2456 1.378 . S
C2464 C2459 1.350 . S
C2465 H2452 0.929 . S
C2465 C2457 1.433 . S
C2465 N2467 1.384 . S
N2466 C2462 1.427 . S
N2466 C2463 1.384 . S
N2467 C2459 1.427 . S
N2467 C2465 1.384 . S
H2468 C2474 0.930 . S
H2469 C2478 0.930 . S
H2470 C2483 0.929 . S
H2471 C2481 0.929 . S
H2472 C2476 0.929 . S
H2473 C2482 0.929 . S
C2474 H2468 0.930 . S
C2474 C2475 1.367 . S
C2474 C2482 1.378 . S
C2475 C2474 1.367 . S
C2475 C2483 1.433 . S
C2476 H2472 0.929 . S
C2476 C2478 1.378 . S
C2476 C2480 1.350 . S
C2477 C2480 1.463 . S
C2477 C2482 1.350 . S
C2477 N2485 1.427 . S
C2478 H2469 0.930 . S
C2478 C2476 1.378 . S
C2478 C2479 1.367 . S
C2479 C2478 1.367 . S
C2479 C2481 1.433 . S
C2480 C2476 1.350 . S
C2480 C2477 1.463 . S
C2480 N2484 1.427 . S
C2481 H2471 0.929 . S
C2481 C2479 1.433 . S
C2481 N2484 1.384 . S
C2482 H2473 0.929 . S
C2482 C2474 1.378 . S
C2482 C2477 1.350 . S
C2483 H2470 0.929 . S
C2483 C2475 1.433 . S
C2483 N2485 1.384 . S
N2484 C2480 1.427 . S
N2484 C2481 1.384 . S
N2485 C2477 1.427 . S
N2485 C2483 1.384 . S
H2486 C2492 0.930 . S
H2487 C2496 0.930 . S
H2488 C2501 0.929 . S
H2489 C2499 0.929 . S
H2490 C2494 0.929 . S
H2491 C2500 0.929 . S
C2492 H2486 0.930 . S
C2492 C2493 1.367 . S
C2492 C2500 1.378 . S
C2493 C2492 1.367 . S
C2493 C2501 1.433 . S
C2494 H2490 0.929 . S
C2494 C2496 1.378 . S
C2494 C2498 1.350 . S
C2495 C2498 1.463 . S
C2495 C2500 1.350 . S
C2495 N2503 1.427 . S
C2496 H2487 0.930 . S
C2496 C2494 1.378 . S
C2496 C2497 1.367 . S
C2497 C2496 1.367 . S
C2497 C2499 1.433 . S
C2498 C2494 1.350 . S
C2498 C2495 1.463 . S
C2498 N2502 1.427 . S
C2499 H2489 0.929 . S
C2499 C2497 1.433 . S
C2499 N2502 1.384 . S
C2500 H2491 0.929 . S
C2500 C2492 1.378 . S
C2500 C2495 1.350 . S
C2501 H2488 0.929 . S
C2501 C2493 1.433 . S
C2501 N2503 1.384 . S
N2502 C2498 1.427 . S
N2502 C2499 1.384 . S
N2503 C2495 1.427 . S
N2503 C2501 1.384 . S
H2504 C2510 0.930 . S
H2505 C2514 0.930 . S
H2506 C2519 0.929 . S
H2507 C2517 0.929 . S
H2508 C2512 0.929 . S
H2509 C2518 0.929 . S
C2510 H2504 0.930 . S
C2510 C2511 1.367 . S
C2510 C2518 1.378 . S
C2511 C2510 1.367 . S
C2511 C2519 1.433 . S
C2512 H2508 0.929 . S
C2512 C2514 1.378 . S
C2512 C2516 1.350 . S
C2513 C2516 1.463 . S
C2513 C2518 1.350 . S
C2513 N2521 1.427 . S
C2514 H2505 0.930 . S
C2514 C2512 1.378 . S
C2514 C2515 1.367 . S
C2515 C2514 1.367 . S
C2515 C2517 1.433 . S
C2516 C2512 1.350 . S
C2516 C2513 1.463 . S
C2516 N2520 1.427 . S
C2517 H2507 0.929 . S
C2517 C2515 1.433 . S
C2517 N2520 1.384 . S
C2518 H2509 0.929 . S
C2518 C2510 1.378 . S
C2518 C2513 1.350 . S
C2519 H2506 0.929 . S
C2519 C2511 1.433 . S
C2519 N2521 1.384 . S
N2520 C2516 1.427 . S
N2520 C2517 1.384 . S
N2521 C2513 1.427 . S
N2521 C2519 1.384 . S
H2522 C2528 0.930 . S
H2523 C2532 0.930 . S
H2524 C2537 0.929 . S
H2525 C2535 0.929 . S
H2526 C2530 0.929 . S
H2527 C2536 0.929 . S
C2528 H2522 0.930 . S
C2528 C2529 1.367 . S
C2528 C2536 1.378 . S
C2529 C2528 1.367 . S
C2529 C2537 1.433 . S
C2530 H2526 0.929 . S
C2530 C2532 1.378 . S
C2530 C2534 1.350 . S
C2531 C2534 1.463 . S
C2531 C2536 1.350 . S
C2531 N2539 1.427 . S
C2532 H2523 0.930 . S
C2532 C2530 1.378 . S
C2532 C2533 1.367 . S
C2533 C2532 1.367 . S
C2533 C2535 1.433 . S
C2534 C2530 1.350 . S
C2534 C2531 1.463 . S
C2534 N2538 1.427 . S
C2535 H2525 0.929 . S
C2535 C2533 1.433 . S
C2535 N2538 1.384 . S
C2536 H2527 0.929 . S
C2536 C2528 1.378 . S
C2536 C2531 1.350 . S
C2537 H2524 0.929 . S
C2537 C2529 1.433 . S
C2537 N2539 1.384 . S
N2538 C2534 1.427 . S
N2538 C2535 1.384 . S
N2539 C2531 1.427 . S
N2539 C2537 1.384 . S
H2540 C2546 0.930 . S
H2541 C2550 0.930 . S
H2542 C2555 0.929 . S
H2543 C2553 0.929 . S
H2544 C2548 0.929 . S
H2545 C2554 0.929 . S
C2546 H2540 0.930 . S
C2546 C2547 1.367 . S
C2546 C2554 1.378 . S
C2547 C2546 1.367 . S
C2547 C2555 1.433 . S
C2548 H2544 0.929 . S
C2548 C2550 1.378 . S
C2548 C2552 1.350 . S
C2549 C2552 1.463 . S
C2549 C2554 1.350 . S
C2549 N2557 1.427 . S
C2550 H2541 0.930 . S
C2550 C2548 1.378 . S
C2550 C2551 1.367 . S
C2551 C2550 1.367 . S
C2551 C2553 1.433 . S
C2552 C2548 1.350 . S
C2552 C2549 1.463 . S
C2552 N2556 1.427 . S
C2553 H2543 0.929 . S
C2553 C2551 1.433 . S
C2553 N2556 1.384 . S
C2554 H2545 0.929 . S
C2554 C2546 1.378 . S
C2554 C2549 1.350 . S
C2555 H2542 0.929 . S
C2555 C2547 1.433 . S
C2555 N2557 1.384 . S
N2556 C2552 1.427 . S
N2556 C2553 1.384 . S
N2557 C2549 1.427 . S
N2557 C2555 1.384 . S
H2558 C2564 0.930 . S
H2559 C2568 0.930 . S
H2560 C2573 0.929 . S
H2561 C2571 0.929 . S
H2562 C2566 0.929 . S
H2563 C2572 0.929 . S
C2564 H2558 0.930 . S
C2564 C2565 1.367 . S
C2564 C2572 1.378 . S
C2565 C2564 1.367 . S
C2565 C2573 1.433 . S
C2566 H2562 0.929 . S
C2566 C2568 1.378 . S
C2566 C2570 1.350 . S
C2567 C2570 1.463 . S
C2567 C2572 1.350 . S
C2567 N2575 1.427 . S
C2568 H2559 0.930 . S
C2568 C2566 1.378 . S
C2568 C2569 1.367 . S
C2569 C2568 1.367 . S
C2569 C2571 1.433 . S
C2570 C2566 1.350 . S
C2570 C2567 1.463 . S
C2570 N2574 1.427 . S
C2571 H2561 0.929 . S
C2571 C2569 1.433 . S
C2571 N2574 1.384 . S
C2572 H2563 0.929 . S
C2572 C2564 1.378 . S
C2572 C2567 1.350 . S
C2573 H2560 0.929 . S
C2573 C2565 1.433 . S
C2573 N2575 1.384 . S
N2574 C2570 1.427 . S
N2574 C2571 1.384 . S
N2575 C2567 1.427 . S
N2575 C2573 1.384 . S
H2576 C2582 0.930 . S
H2577 C2586 0.930 . S
H2578 C2591 0.929 . S
H2579 C2589 0.929 . S
H2580 C2584 0.929 . S
H2581 C2590 0.929 . S
C2582 H2576 0.930 . S
C2582 C2583 1.367 . S
C2582 C2590 1.378 . S
C2583 C2582 1.367 . S
C2583 C2591 1.433 . S
C2584 H2580 0.929 . S
C2584 C2586 1.378 . S
C2584 C2588 1.350 . S
C2585 C2588 1.463 . S
C2585 C2590 1.350 . S
C2585 N2593 1.427 . S
C2586 H2577 0.930 . S
C2586 C2584 1.378 . S
C2586 C2587 1.367 . S
C2587 C2586 1.367 . S
C2587 C2589 1.433 . S
C2588 C2584 1.350 . S
C2588 C2585 1.463 . S
C2588 N2592 1.427 . S
C2589 H2579 0.929 . S
C2589 C2587 1.433 . S
C2589 N2592 1.384 . S
C2590 H2581 0.929 . S
C2590 C2582 1.378 . S
C2590 C2585 1.350 . S
C2591 H2578 0.929 . S
C2591 C2583 1.433 . S
C2591 N2593 1.384 . S
N2592 C2588 1.427 . S
N2592 C2589 1.384 . S
N2593 C2585 1.427 . S
N2593 C2591 1.384 . S
H2594 C2600 0.930 . S
H2595 C2604 0.930 . S
H2596 C2609 0.929 . S
H2597 C2607 0.929 . S
H2598 C2602 0.929 . S
H2599 C2608 0.929 . S
C2600 H2594 0.930 . S
C2600 C2601 1.367 . S
C2600 C2608 1.378 . S
C2601 C2600 1.367 . S
C2601 C2609 1.433 . S
C2602 H2598 0.929 . S
C2602 C2604 1.378 . S
C2602 C2606 1.350 . S
C2603 C2606 1.463 . S
C2603 C2608 1.350 . S
C2603 N2611 1.427 . S
C2604 H2595 0.930 . S
C2604 C2602 1.378 . S
C2604 C2605 1.367 . S
C2605 C2604 1.367 . S
C2605 C2607 1.433 . S
C2606 C2602 1.350 . S
C2606 C2603 1.463 . S
C2606 N2610 1.427 . S
C2607 H2597 0.929 . S
C2607 C2605 1.433 . S
C2607 N2610 1.384 . S
C2608 H2599 0.929 . S
C2608 C2600 1.378 . S
C2608 C2603 1.350 . S
C2609 H2596 0.929 . S
C2609 C2601 1.433 . S
C2609 N2611 1.384 . S
N2610 C2606 1.427 . S
N2610 C2607 1.384 . S
N2611 C2603 1.427 . S
N2611 C2609 1.384 . S
H2612 C2618 0.930 . S
H2613 C2622 0.930 . S
H2614 C2627 0.929 . S
H2615 C2625 0.929 . S
H2616 C2620 0.929 . S
H2617 C2626 0.929 . S
C2618 H2612 0.930 . S
C2618 C2619 1.367 . S
C2618 C2626 1.378 . S
C2619 C2618 1.367 . S
C2619 C2627 1.433 . S
C2620 H2616 0.929 . S
C2620 C2622 1.378 . S
C2620 C2624 1.350 . S
C2621 C2624 1.463 . S
C2621 C2626 1.350 . S
C2621 N2629 1.427 . S
C2622 H2613 0.930 . S
C2622 C2620 1.378 . S
C2622 C2623 1.367 . S
C2623 C2622 1.367 . S
C2623 C2625 1.433 . S
C2624 C2620 1.350 . S
C2624 C2621 1.463 . S
C2624 N2628 1.427 . S
C2625 H2615 0.929 . S
C2625 C2623 1.433 . S
C2625 N2628 1.384 . S
C2626 H2617 0.929 . S
C2626 C2618 1.378 . S
C2626 C2621 1.350 . S
C2627 H2614 0.929 . S
C2627 C2619 1.433 . S
C2627 N2629 1.384 . S
N2628 C2624 1.427 . S
N2628 C2625 1.384 . S
N2629 C2621 1.427 . S
N2629 C2627 1.384 . S
H2630 C2636 0.930 . S
H2631 C2640 0.930 . S
H2632 C2645 0.929 . S
H2633 C2643 0.929 . S
H2634 C2638 0.929 . S
H2635 C2644 0.929 . S
C2636 H2630 0.930 . S
C2636 C2637 1.367 . S
C2636 C2644 1.378 . S
C2637 C2636 1.367 . S
C2637 C2645 1.433 . S
C2638 H2634 0.929 . S
C2638 C2640 1.378 . S
C2638 C2642 1.350 . S
C2639 C2642 1.463 . S
C2639 C2644 1.350 . S
C2639 N2647 1.427 . S
C2640 H2631 0.930 . S
C2640 C2638 1.378 . S
C2640 C2641 1.367 . S
C2641 C2640 1.367 . S
C2641 C2643 1.433 . S
C2642 C2638 1.350 . S
C2642 C2639 1.463 . S
C2642 N2646 1.427 . S
C2643 H2633 0.929 . S
C2643 C2641 1.433 . S
C2643 N2646 1.384 . S
C2644 H2635 0.929 . S
C2644 C2636 1.378 . S
C2644 C2639 1.350 . S
C2645 H2632 0.929 . S
C2645 C2637 1.433 . S
C2645 N2647 1.384 . S
N2646 C2642 1.427 . S
N2646 C2643 1.384 . S
N2647 C2639 1.427 . S
N2647 C2645 1.384 . S
H2648 C2654 0.930 . S
H2649 C2658 0.930 . S
H2650 C2663 0.929 . S
H2651 C2661 0.929 . S
H2652 C2656 0.929 . S
H2653 C2662 0.929 . S
C2654 H2648 0.930 . S
C2654 C2655 1.367 . S
C2654 C2662 1.378 . S
C2655 C2654 1.367 . S
C2655 C2663 1.433 . S
C2656 H2652 0.929 . S
C2656 C2658 1.378 . S
C2656 C2660 1.350 . S
C2657 C2660 1.463 . S
C2657 C2662 1.350 . S
C2657 N2665 1.427 . S
C2658 H2649 0.930 . S
C2658 C2656 1.378 . S
C2658 C2659 1.367 . S
C2659 C2658 1.367 . S
C2659 C2661 1.433 . S
C2660 C2656 1.350 . S
C2660 C2657 1.463 . S
C2660 N2664 1.427 . S
C2661 H2651 0.929 . S
C2661 C2659 1.433 . S
C2661 N2664 1.384 . S
C2662 H2653 0.929 . S
C2662 C2654 1.378 . S
C2662 C2657 1.350 . S
C2663 H2650 0.929 . S
C2663 C2655 1.433 . S
C2663 N2665 1.384 . S
N2664 C2660 1.427 . S
N2664 C2661 1.384 . S
N2665 C2657 1.427 . S
N2665 C2663 1.384 . S
H2666 C2672 0.930 . S
H2667 C2676 0.930 . S
H2668 C2681 0.929 . S
H2669 C2679 0.929 . S
H2670 C2674 0.929 . S
H2671 C2680 0.929 . S
C2672 H2666 0.930 . S
C2672 C2673 1.367 . S
C2672 C2680 1.378 . S
C2673 C2672 1.367 . S
C2673 C2681 1.433 . S
C2674 H2670 0.929 . S
C2674 C2676 1.378 . S
C2674 C2678 1.350 . S
C2675 C2678 1.463 . S
C2675 C2680 1.350 . S
C2675 N2683 1.427 . S
C2676 H2667 0.930 . S
C2676 C2674 1.378 . S
C2676 C2677 1.367 . S
C2677 C2676 1.367 . S
C2677 C2679 1.433 . S
C2678 C2674 1.350 . S
C2678 C2675 1.463 . S
C2678 N2682 1.427 . S
C2679 H2669 0.929 . S
C2679 C2677 1.433 . S
C2679 N2682 1.384 . S
C2680 H2671 0.929 . S
C2680 C2672 1.378 . S
C2680 C2675 1.350 . S
C2681 H2668 0.929 . S
C2681 C2673 1.433 . S
C2681 N2683 1.384 . S
N2682 C2678 1.427 . S
N2682 C2679 1.384 . S
N2683 C2675 1.427 . S
N2683 C2681 1.384 . S
H2684 C2690 0.930 . S
H2685 C2694 0.930 . S
H2686 C2699 0.929 . S
H2687 C2697 0.929 . S
H2688 C2692 0.929 . S
H2689 C2698 0.929 . S
C2690 H2684 0.930 . S
C2690 C2691 1.367 . S
C2690 C2698 1.378 . S
C2691 C2690 1.367 . S
C2691 C2699 1.433 . S
C2692 H2688 0.929 . S
C2692 C2694 1.378 . S
C2692 C2696 1.350 . S
C2693 C2696 1.463 . S
C2693 C2698 1.350 . S
C2693 N2701 1.427 . S
C2694 H2685 0.930 . S
C2694 C2692 1.378 . S
C2694 C2695 1.367 . S
C2695 C2694 1.367 . S
C2695 C2697 1.433 . S
C2696 C2692 1.350 . S
C2696 C2693 1.463 . S
C2696 N2700 1.427 . S
C2697 H2687 0.929 . S
C2697 C2695 1.433 . S
C2697 N2700 1.384 . S
C2698 H2689 0.929 . S
C2698 C2690 1.378 . S
C2698 C2693 1.350 . S
C2699 H2686 0.929 . S
C2699 C2691 1.433 . S
C2699 N2701 1.384 . S
N2700 C2696 1.427 . S
N2700 C2697 1.384 . S
N2701 C2693 1.427 . S
N2701 C2699 1.384 . S
H2702 C2708 0.930 . S
H2703 C2712 0.930 . S
H2704 C2717 0.929 . S
H2705 C2715 0.929 . S
H2706 C2710 0.929 . S
H2707 C2716 0.929 . S
C2708 H2702 0.930 . S
C2708 C2709 1.367 . S
C2708 C2716 1.378 . S
C2709 C2708 1.367 . S
C2709 C2717 1.433 . S
C2710 H2706 0.929 . S
C2710 C2712 1.378 . S
C2710 C2714 1.350 . S
C2711 C2714 1.463 . S
C2711 C2716 1.350 . S
C2711 N2719 1.427 . S
C2712 H2703 0.930 . S
C2712 C2710 1.378 . S
C2712 C2713 1.367 . S
C2713 C2712 1.367 . S
C2713 C2715 1.433 . S
C2714 C2710 1.350 . S
C2714 C2711 1.463 . S
C2714 N2718 1.427 . S
C2715 H2705 0.929 . S
C2715 C2713 1.433 . S
C2715 N2718 1.384 . S
C2716 H2707 0.929 . S
C2716 C2708 1.378 . S
C2716 C2711 1.350 . S
C2717 H2704 0.929 . S
C2717 C2709 1.433 . S
C2717 N2719 1.384 . S
N2718 C2714 1.427 . S
N2718 C2715 1.384 . S
N2719 C2711 1.427 . S
N2719 C2717 1.384 . S
H2720 C2726 0.930 . S
H2721 C2730 0.930 . S
H2722 C2735 0.929 . S
H2723 C2733 0.929 . S
H2724 C2728 0.929 . S
H2725 C2734 0.929 . S
C2726 H2720 0.930 . S
C2726 C2727 1.367 . S
C2726 C2734 1.378 . S
C2727 C2726 1.367 . S
C2727 C2735 1.433 . S
C2728 H2724 0.929 . S
C2728 C2730 1.378 . S
C2728 C2732 1.350 . S
C2729 C2732 1.463 . S
C2729 C2734 1.350 . S
C2729 N2737 1.427 . S
C2730 H2721 0.930 . S
C2730 C2728 1.378 . S
C2730 C2731 1.367 . S
C2731 C2730 1.367 . S
C2731 C2733 1.433 . S
C2732 C2728 1.350 . S
C2732 C2729 1.463 . S
C2732 N2736 1.427 . S
C2733 H2723 0.929 . S
C2733 C2731 1.433 . S
C2733 N2736 1.384 . S
C2734 H2725 0.929 . S
C2734 C2726 1.378 . S
C2734 C2729 1.350 . S
C2735 H2722 0.929 . S
C2735 C2727 1.433 . S
C2735 N2737 1.384 . S
N2736 C2732 1.427 . S
N2736 C2733 1.384 . S
N2737 C2729 1.427 . S
N2737 C2735 1.384 . S
H2738 C2744 0.930 . S
H2739 C2748 0.930 . S
H2740 C2753 0.929 . S
H2741 C2751 0.929 . S
H2742 C2746 0.929 . S
H2743 C2752 0.929 . S
C2744 H2738 0.930 . S
C2744 C2745 1.367 . S
C2744 C2752 1.378 . S
C2745 C2744 1.367 . S
C2745 C2753 1.433 . S
C2746 H2742 0.929 . S
C2746 C2748 1.378 . S
C2746 C2750 1.350 . S
C2747 C2750 1.463 . S
C2747 C2752 1.350 . S
C2747 N2755 1.427 . S
C2748 H2739 0.930 . S
C2748 C2746 1.378 . S
C2748 C2749 1.367 . S
C2749 C2748 1.367 . S
C2749 C2751 1.433 . S
C2750 C2746 1.350 . S
C2750 C2747 1.463 . S
C2750 N2754 1.427 . S
C2751 H2741 0.929 . S
C2751 C2749 1.433 . S
C2751 N2754 1.384 . S
C2752 H2743 0.929 . S
C2752 C2744 1.378 . S
C2752 C2747 1.350 . S
C2753 H2740 0.929 . S
C2753 C2745 1.433 . S
C2753 N2755 1.384 . S
N2754 C2750 1.427 . S
N2754 C2751 1.384 . S
N2755 C2747 1.427 . S
N2755 C2753 1.384 . S
H2756 C2762 0.930 . S
H2757 C2766 0.930 . S
H2758 C2771 0.929 . S
H2759 C2769 0.929 . S
H2760 C2764 0.929 . S
H2761 C2770 0.929 . S
C2762 H2756 0.930 . S
C2762 C2763 1.367 . S
C2762 C2770 1.378 . S
C2763 C2762 1.367 . S
C2763 C2771 1.433 . S
C2764 H2760 0.929 . S
C2764 C2766 1.378 . S
C2764 C2768 1.350 . S
C2765 C2768 1.463 . S
C2765 C2770 1.350 . S
C2765 N2773 1.427 . S
C2766 H2757 0.930 . S
C2766 C2764 1.378 . S
C2766 C2767 1.367 . S
C2767 C2766 1.367 . S
C2767 C2769 1.433 . S
C2768 C2764 1.350 . S
C2768 C2765 1.463 . S
C2768 N2772 1.427 . S
C2769 H2759 0.929 . S
C2769 C2767 1.433 . S
C2769 N2772 1.384 . S
C2770 H2761 0.929 . S
C2770 C2762 1.378 . S
C2770 C2765 1.350 . S
C2771 H2758 0.929 . S
C2771 C2763 1.433 . S
C2771 N2773 1.384 . S
N2772 C2768 1.427 . S
N2772 C2769 1.384 . S
N2773 C2765 1.427 . S
N2773 C2771 1.384 . S
H2774 C2780 0.930 . S
H2775 C2784 0.930 . S
H2776 C2789 0.929 . S
H2777 C2787 0.929 . S
H2778 C2782 0.929 . S
H2779 C2788 0.929 . S
C2780 H2774 0.930 . S
C2780 C2781 1.367 . S
C2780 C2788 1.378 . S
C2781 C2780 1.367 . S
C2781 C2789 1.433 . S
C2782 H2778 0.929 . S
C2782 C2784 1.378 . S
C2782 C2786 1.350 . S
C2783 C2786 1.463 . S
C2783 C2788 1.350 . S
C2783 N2791 1.427 . S
C2784 H2775 0.930 . S
C2784 C2782 1.378 . S
C2784 C2785 1.367 . S
C2785 C2784 1.367 . S
C2785 C2787 1.433 . S
C2786 C2782 1.350 . S
C2786 C2783 1.463 . S
C2786 N2790 1.427 . S
C2787 H2777 0.929 . S
C2787 C2785 1.433 . S
C2787 N2790 1.384 . S
C2788 H2779 0.929 . S
C2788 C2780 1.378 . S
C2788 C2783 1.350 . S
C2789 H2776 0.929 . S
C2789 C2781 1.433 . S
C2789 N2791 1.384 . S
N2790 C2786 1.427 . S
N2790 C2787 1.384 . S
N2791 C2783 1.427 . S
N2791 C2789 1.384 . S
H2792 C2798 0.930 . S
H2793 C2802 0.930 . S
H2794 C2807 0.929 . S
H2795 C2805 0.929 . S
H2796 C2800 0.929 . S
H2797 C2806 0.929 . S
C2798 H2792 0.930 . S
C2798 C2799 1.367 . S
C2798 C2806 1.378 . S
C2799 C2798 1.367 . S
C2799 C2807 1.433 . S
C2800 H2796 0.929 . S
C2800 C2802 1.378 . S
C2800 C2804 1.350 . S
C2801 C2804 1.463 . S
C2801 C2806 1.350 . S
C2801 N2809 1.427 . S
C2802 H2793 0.930 . S
C2802 C2800 1.378 . S
C2802 C2803 1.367 . S
C2803 C2802 1.367 . S
C2803 C2805 1.433 . S
C2804 C2800 1.350 . S
C2804 C2801 1.463 . S
C2804 N2808 1.427 . S
C2805 H2795 0.929 . S
C2805 C2803 1.433 . S
C2805 N2808 1.384 . S
C2806 H2797 0.929 . S
C2806 C2798 1.378 . S
C2806 C2801 1.350 . S
C2807 H2794 0.929 . S
C2807 C2799 1.433 . S
C2807 N2809 1.384 . S
N2808 C2804 1.427 . S
N2808 C2805 1.384 . S
N2809 C2801 1.427 . S
N2809 C2807 1.384 . S
H2810 C2816 0.930 . S
H2811 C2820 0.930 . S
H2812 C2825 0.929 . S
H2813 C2823 0.929 . S
H2814 C2818 0.929 . S
H2815 C2824 0.929 . S
C2816 H2810 0.930 . S
C2816 C2817 1.367 . S
C2816 C2824 1.378 . S
C2817 C2816 1.367 . S
C2817 C2825 1.433 . S
C2818 H2814 0.929 . S
C2818 C2820 1.378 . S
C2818 C2822 1.350 . S
C2819 C2822 1.463 . S
C2819 C2824 1.350 . S
C2819 N2827 1.427 . S
C2820 H2811 0.930 . S
C2820 C2818 1.378 . S
C2820 C2821 1.367 . S
C2821 C2820 1.367 . S
C2821 C2823 1.433 . S
C2822 C2818 1.350 . S
C2822 C2819 1.463 . S
C2822 N2826 1.427 . S
C2823 H2813 0.929 . S
C2823 C2821 1.433 . S
C2823 N2826 1.384 . S
C2824 H2815 0.929 . S
C2824 C2816 1.378 . S
C2824 C2819 1.350 . S
C2825 H2812 0.929 . S
C2825 C2817 1.433 . S
C2825 N2827 1.384 . S
N2826 C2822 1.427 . S
N2826 C2823 1.384 . S
N2827 C2819 1.427 . S
N2827 C2825 1.384 . S
H2828 C2834 0.930 . S
H2829 C2838 0.930 . S
H2830 C2843 0.929 . S
H2831 C2841 0.929 . S
H2832 C2836 0.929 . S
H2833 C2842 0.929 . S
C2834 H2828 0.930 . S
C2834 C2835 1.367 . S
C2834 C2842 1.378 . S
C2835 C2834 1.367 . S
C2835 C2843 1.433 . S
C2836 H2832 0.929 . S
C2836 C2838 1.378 . S
C2836 C2840 1.350 . S
C2837 C2840 1.463 . S
C2837 C2842 1.350 . S
C2837 N2845 1.427 . S
C2838 H2829 0.930 . S
C2838 C2836 1.378 . S
C2838 C2839 1.367 . S
C2839 C2838 1.367 . S
C2839 C2841 1.433 . S
C2840 C2836 1.350 . S
C2840 C2837 1.463 . S
C2840 N2844 1.427 . S
C2841 H2831 0.929 . S
C2841 C2839 1.433 . S
C2841 N2844 1.384 . S
C2842 H2833 0.929 . S
C2842 C2834 1.378 . S
C2842 C2837 1.350 . S
C2843 H2830 0.929 . S
C2843 C2835 1.433 . S
C2843 N2845 1.384 . S
N2844 C2840 1.427 . S
N2844 C2841 1.384 . S
N2845 C2837 1.427 . S
N2845 C2843 1.384 . S
H2846 C2852 0.930 . S
H2847 C2856 0.930 . S
H2848 C2861 0.929 . S
H2849 C2859 0.929 . S
H2850 C2854 0.929 . S
H2851 C2860 0.929 . S
C2852 H2846 0.930 . S
C2852 C2853 1.367 . S
C2852 C2860 1.378 . S
C2853 C2852 1.367 . S
C2853 C2861 1.433 . S
C2854 H2850 0.929 . S
C2854 C2856 1.378 . S
C2854 C2858 1.350 . S
C2855 C2858 1.463 . S
C2855 C2860 1.350 . S
C2855 N2863 1.427 . S
C2856 H2847 0.930 . S
C2856 C2854 1.378 . S
C2856 C2857 1.367 . S
C2857 C2856 1.367 . S
C2857 C2859 1.433 . S
C2858 C2854 1.350 . S
C2858 C2855 1.463 . S
C2858 N2862 1.427 . S
C2859 H2849 0.929 . S
C2859 C2857 1.433 . S
C2859 N2862 1.384 . S
C2860 H2851 0.929 . S
C2860 C2852 1.378 . S
C2860 C2855 1.350 . S
C2861 H2848 0.929 . S
C2861 C2853 1.433 . S
C2861 N2863 1.384 . S
N2862 C2858 1.427 . S
N2862 C2859 1.384 . S
N2863 C2855 1.427 . S
N2863 C2861 1.384 . S
H2864 C2870 0.930 . S
H2865 C2874 0.930 . S
H2866 C2879 0.929 . S
H2867 C2877 0.929 . S
H2868 C2872 0.929 . S
H2869 C2878 0.929 . S
C2870 H2864 0.930 . S
C2870 C2871 1.367 . S
C2870 C2878 1.378 . S
C2871 C2870 1.367 . S
C2871 C2879 1.433 . S
C2872 H2868 0.929 . S
C2872 C2874 1.378 . S
C2872 C2876 1.350 . S
C2873 C2876 1.463 . S
C2873 C2878 1.350 . S
C2873 N2881 1.427 . S
C2874 H2865 0.930 . S
C2874 C2872 1.378 . S
C2874 C2875 1.367 . S
C2875 C2874 1.367 . S
C2875 C2877 1.433 . S
C2876 C2872 1.350 . S
C2876 C2873 1.463 . S
C2876 N2880 1.427 . S
C2877 H2867 0.929 . S
C2877 C2875 1.433 . S
C2877 N2880 1.384 . S
C2878 H2869 0.929 . S
C2878 C2870 1.378 . S
C2878 C2873 1.350 . S
C2879 H2866 0.929 . S
C2879 C2871 1.433 . S
C2879 N2881 1.384 . S
N2880 C2876 1.427 . S
N2880 C2877 1.384 . S
N2881 C2873 1.427 . S
N2881 C2879 1.384 . S
H2882 C2888 0.930 . S
H2883 C2892 0.930 . S
H2884 C2897 0.929 . S
H2885 C2895 0.929 . S
H2886 C2890 0.929 . S
H2887 C2896 0.929 . S
C2888 H2882 0.930 . S
C2888 C2889 1.367 . S
C2888 C2896 1.378 . S
C2889 C2888 1.367 . S
C2889 C2897 1.433 . S
C2890 H2886 0.929 . S
C2890 C2892 1.378 . S
C2890 C2894 1.350 . S
C2891 C2894 1.463 . S
C2891 C2896 1.350 . S
C2891 N2899 1.427 . S
C2892 H2883 0.930 . S
C2892 C2890 1.378 . S
C2892 C2893 1.367 . S
C2893 C2892 1.367 . S
C2893 C2895 1.433 . S
C2894 C2890 1.350 . S
C2894 C2891 1.463 . S
C2894 N2898 1.427 . S
C2895 H2885 0.929 . S
C2895 C2893 1.433 . S
C2895 N2898 1.384 . S
C2896 H2887 0.929 . S
C2896 C2888 1.378 . S
C2896 C2891 1.350 . S
C2897 H2884 0.929 . S
C2897 C2889 1.433 . S
C2897 N2899 1.384 . S
N2898 C2894 1.427 . S
N2898 C2895 1.384 . S
N2899 C2891 1.427 . S
N2899 C2897 1.384 . S
H2900 C2906 0.930 . S
H2901 C2910 0.930 . S
H2902 C2915 0.929 . S
H2903 C2913 0.929 . S
H2904 C2908 0.929 . S
H2905 C2914 0.929 . S
C2906 H2900 0.930 . S
C2906 C2907 1.367 . S
C2906 C2914 1.378 . S
C2907 C2906 1.367 . S
C2907 C2915 1.433 . S
C2908 H2904 0.929 . S
C2908 C2910 1.378 . S
C2908 C2912 1.350 . S
C2909 C2912 1.463 . S
C2909 C2914 1.350 . S
C2909 N2917 1.427 . S
C2910 H2901 0.930 . S
C2910 C2908 1.378 . S
C2910 C2911 1.367 . S
C2911 C2910 1.367 . S
C2911 C2913 1.433 . S
C2912 C2908 1.350 . S
C2912 C2909 1.463 . S
C2912 N2916 1.427 . S
C2913 H2903 0.929 . S
C2913 C2911 1.433 . S
C2913 N2916 1.384 . S
C2914 H2905 0.929 . S
C2914 C2906 1.378 . S
C2914 C2909 1.350 . S
C2915 H2902 0.929 . S
C2915 C2907 1.433 . S
C2915 N2917 1.384 . S
N2916 C2912 1.427 . S
N2916 C2913 1.384 . S
N2917 C2909 1.427 . S
N2917 C2915 1.384 . S
H2918 C2924 0.930 . S
H2919 C2928 0.930 . S
H2920 C2933 0.929 . S
H2921 C2931 0.929 . S
H2922 C2926 0.929 . S
H2923 C2932 0.929 . S
C2924 H2918 0.930 . S
C2924 C2925 1.367 . S
C2924 C2932 1.378 . S
C2925 C2924 1.367 . S
C2925 C2933 1.433 . S
C2926 H2922 0.929 . S
C2926 C2928 1.378 . S
C2926 C2930 1.350 . S
C2927 C2930 1.463 . S
C2927 C2932 1.350 . S
C2927 N2935 1.427 . S
C2928 H2919 0.930 . S
C2928 C2926 1.378 . S
C2928 C2929 1.367 . S
C2929 C2928 1.367 . S
C2929 C2931 1.433 . S
C2930 C2926 1.350 . S
C2930 C2927 1.463 . S
C2930 N2934 1.427 . S
C2931 H2921 0.929 . S
C2931 C2929 1.433 . S
C2931 N2934 1.384 . S
C2932 H2923 0.929 . S
C2932 C2924 1.378 . S
C2932 C2927 1.350 . S
C2933 H2920 0.929 . S
C2933 C2925 1.433 . S
C2933 N2935 1.384 . S
N2934 C2930 1.427 . S
N2934 C2931 1.384 . S
N2935 C2927 1.427 . S
N2935 C2933 1.384 . S
H2936 C2942 0.930 . S
H2937 C2946 0.930 . S
H2938 C2951 0.929 . S
H2939 C2949 0.929 . S
H2940 C2944 0.929 . S
H2941 C2950 0.929 . S
C2942 H2936 0.930 . S
C2942 C2943 1.367 . S
C2942 C2950 1.378 . S
C2943 C2942 1.367 . S
C2943 C2951 1.433 . S
C2944 H2940 0.929 . S
C2944 C2946 1.378 . S
C2944 C2948 1.350 . S
C2945 C2948 1.463 . S
C2945 C2950 1.350 . S
C2945 N2953 1.427 . S
C2946 H2937 0.930 . S
C2946 C2944 1.378 . S
C2946 C2947 1.367 . S
C2947 C2946 1.367 . S
C2947 C2949 1.433 . S
C2948 C2944 1.350 . S
C2948 C2945 1.463 . S
C2948 N2952 1.427 . S
C2949 H2939 0.929 . S
C2949 C2947 1.433 . S
C2949 N2952 1.384 . S
C2950 H2941 0.929 . S
C2950 C2942 1.378 . S
C2950 C2945 1.350 . S
C2951 H2938 0.929 . S
C2951 C2943 1.433 . S
C2951 N2953 1.384 . S
N2952 C2948 1.427 . S
N2952 C2949 1.384 . S
N2953 C2945 1.427 . S
N2953 C2951 1.384 . S
H2954 C2960 0.930 . S
H2955 C2964 0.930 . S
H2956 C2969 0.929 . S
H2957 C2967 0.929 . S
H2958 C2962 0.929 . S
H2959 C2968 0.929 . S
C2960 H2954 0.930 . S
C2960 C2961 1.367 . S
C2960 C2968 1.378 . S
C2961 C2960 1.367 . S
C2961 C2969 1.433 . S
C2962 H2958 0.929 . S
C2962 C2964 1.378 . S
C2962 C2966 1.350 . S
C2963 C2966 1.463 . S
C2963 C2968 1.350 . S
C2963 N2971 1.427 . S
C2964 H2955 0.930 . S
C2964 C2962 1.378 . S
C2964 C2965 1.367 . S
C2965 C2964 1.367 . S
C2965 C2967 1.433 . S
C2966 C2962 1.350 . S
C2966 C2963 1.463 . S
C2966 N2970 1.427 . S
C2967 H2957 0.929 . S
C2967 C2965 1.433 . S
C2967 N2970 1.384 . S
C2968 H2959 0.929 . S
C2968 C2960 1.378 . S
C2968 C2963 1.350 . S
C2969 H2956 0.929 . S
C2969 C2961 1.433 . S
C2969 N2971 1.384 . S
N2970 C2966 1.427 . S
N2970 C2967 1.384 . S
N2971 C2963 1.427 . S
N2971 C2969 1.384 . S
H2972 C2978 0.930 . S
H2973 C2982 0.930 . S
H2974 C2987 0.929 . S
H2975 C2985 0.929 . S
H2976 C2980 0.929 . S
H2977 C2986 0.929 . S
C2978 H2972 0.930 . S
C2978 C2979 1.367 . S
C2978 C2986 1.378 . S
C2979 C2978 1.367 . S
C2979 C2987 1.433 . S
C2980 H2976 0.929 . S
C2980 C2982 1.378 . S
C2980 C2984 1.350 . S
C2981 C2984 1.463 . S
C2981 C2986 1.350 . S
C2981 N2989 1.427 . S
C2982 H2973 0.930 . S
C2982 C2980 1.378 . S
C2982 C2983 1.367 . S
C2983 C2982 1.367 . S
C2983 C2985 1.433 . S
C2984 C2980 1.350 . S
C2984 C2981 1.463 . S
C2984 N2988 1.427 . S
C2985 H2975 0.929 . S
C2985 C2983 1.433 . S
C2985 N2988 1.384 . S
C2986 H2977 0.929 . S
C2986 C2978 1.378 . S
C2986 C2981 1.350 . S
C2987 H2974 0.929 . S
C2987 C2979 1.433 . S
C2987 N2989 1.384 . S
N2988 C2984 1.427 . S
N2988 C2985 1.384 . S
N2989 C2981 1.427 . S
N2989 C2987 1.384 . S
H2990 C2996 0.930 . S
H2991 C3000 0.930 . S
H2992 C3005 0.929 . S
H2993 C3003 0.929 . S
H2994 C2998 0.929 . S
H2995 C3004 0.929 . S
C2996 H2990 0.930 . S
C2996 C2997 1.367 . S
C2996 C3004 1.378 . S
C2997 C2996 1.367 . S
C2997 C3005 1.433 . S
C2998 H2994 0.929 . S
C2998 C3000 1.378 . S
C2998 C3002 1.350 . S
C2999 C3002 1.463 . S
C2999 C3004 1.350 . S
C2999 N3007 1.427 . S
C3000 H2991 0.930 . S
C3000 C2998 1.378 . S
C3000 C3001 1.367 . S
C3001 C3000 1.367 . S
C3001 C3003 1.433 . S
C3002 C2998 1.350 . S
C3002 C2999 1.463 . S
C3002 N3006 1.427 . S
C3003 H2993 0.929 . S
C3003 C3001 1.433 . S
C3003 N3006 1.384 . S
C3004 H2995 0.929 . S
C3004 C2996 1.378 . S
C3004 C2999 1.350 . S
C3005 H2992 0.929 . S
C3005 C2997 1.433 . S
C3005 N3007 1.384 . S
N3006 C3002 1.427 . S
N3006 C3003 1.384 . S
N3007 C2999 1.427 . S
N3007 C3005 1.384 . S
H3008 C3014 0.930 . S
H3009 C3018 0.930 . S
H3010 C3023 0.929 . S
H3011 C3021 0.929 . S
H3012 C3016 0.929 . S
H3013 C3022 0.929 . S
C3014 H3008 0.930 . S
C3014 C3015 1.367 . S
C3014 C3022 1.378 . S
C3015 C3014 1.367 . S
C3015 C3023 1.433 . S
C3016 H3012 0.929 . S
C3016 C3018 1.378 . S
C3016 C3020 1.350 . S
C3017 C3020 1.463 . S
C3017 C3022 1.350 . S
C3017 N3025 1.427 . S
C3018 H3009 0.930 . S
C3018 C3016 1.378 . S
C3018 C3019 1.367 . S
C3019 C3018 1.367 . S
C3019 C3021 1.433 . S
C3020 C3016 1.350 . S
C3020 C3017 1.463 . S
C3020 N3024 1.427 . S
C3021 H3011 0.929 . S
C3021 C3019 1.433 . S
C3021 N3024 1.384 . S
C3022 H3013 0.929 . S
C3022 C3014 1.378 . S
C3022 C3017 1.350 . S
C3023 H3010 0.929 . S
C3023 C3015 1.433 . S
C3023 N3025 1.384 . S
N3024 C3020 1.427 . S
N3024 C3021 1.384 . S
N3025 C3017 1.427 . S
N3025 C3023 1.384 . S
H3026 C3032 0.930 . S
H3027 C3036 0.930 . S
H3028 C3041 0.929 . S
H3029 C3039 0.929 . S
H3030 C3034 0.929 . S
H3031 C3040 0.929 . S
C3032 H3026 0.930 . S
C3032 C3033 1.367 . S
C3032 C3040 1.378 . S
C3033 C3032 1.367 . S
C3033 C3041 1.433 . S
C3034 H3030 0.929 . S
C3034 C3036 1.378 . S
C3034 C3038 1.350 . S
C3035 C3038 1.463 . S
C3035 C3040 1.350 . S
C3035 N3043 1.427 . S
C3036 H3027 0.930 . S
C3036 C3034 1.378 . S
C3036 C3037 1.367 . S
C3037 C3036 1.367 . S
C3037 C3039 1.433 . S
C3038 C3034 1.350 . S
C3038 C3035 1.463 . S
C3038 N3042 1.427 . S
C3039 H3029 0.929 . S
C3039 C3037 1.433 . S
C3039 N3042 1.384 . S
C3040 H3031 0.929 . S
C3040 C3032 1.378 . S
C3040 C3035 1.350 . S
C3041 H3028 0.929 . S
C3041 C3033 1.433 . S
C3041 N3043 1.384 . S
N3042 C3038 1.427 . S
N3042 C3039 1.384 . S
N3043 C3035 1.427 . S
N3043 C3041 1.384 . S
H3044 C3050 0.930 . S
H3045 C3054 0.930 . S
H3046 C3059 0.929 . S
H3047 C3057 0.929 . S
H3048 C3052 0.929 . S
H3049 C3058 0.929 . S
C3050 H3044 0.930 . S
C3050 C3051 1.367 . S
C3050 C3058 1.378 . S
C3051 C3050 1.367 . S
C3051 C3059 1.433 . S
C3052 H3048 0.929 . S
C3052 C3054 1.378 . S
C3052 C3056 1.350 . S
C3053 C3056 1.463 . S
C3053 C3058 1.350 . S
C3053 N3061 1.427 . S
C3054 H3045 0.930 . S
C3054 C3052 1.378 . S
C3054 C3055 1.367 . S
C3055 C3054 1.367 . S
C3055 C3057 1.433 . S
C3056 C3052 1.350 . S
C3056 C3053 1.463 . S
C3056 N3060 1.427 . S
C3057 H3047 0.929 . S
C3057 C3055 1.433 . S
C3057 N3060 1.384 . S
C3058 H3049 0.929 . S
C3058 C3050 1.378 . S
C3058 C3053 1.350 . S
C3059 H3046 0.929 . S
C3059 C3051 1.433 . S
C3059 N3061 1.384 . S
N3060 C3056 1.427 . S
N3060 C3057 1.384 . S
N3061 C3053 1.427 . S
N3061 C3059 1.384 . S
H3062 C3068 0.930 . S
H3063 C3072 0.930 . S
H3064 C3077 0.929 . S
H3065 C3075 0.929 . S
H3066 C3070 0.929 . S
H3067 C3076 0.929 . S
C3068 H3062 0.930 . S
C3068 C3069 1.367 . S
C3068 C3076 1.378 . S
C3069 C3068 1.367 . S
C3069 C3077 1.433 . S
C3070 H3066 0.929 . S
C3070 C3072 1.378 . S
C3070 C3074 1.350 . S
C3071 C3074 1.463 . S
C3071 C3076 1.350 . S
C3071 N3079 1.427 . S
C3072 H3063 0.930 . S
C3072 C3070 1.378 . S
C3072 C3073 1.367 . S
C3073 C3072 1.367 . S
C3073 C3075 1.433 . S
C3074 C3070 1.350 . S
C3074 C3071 1.463 . S
C3074 N3078 1.427 . S
C3075 H3065 0.929 . S
C3075 C3073 1.433 . S
C3075 N3078 1.384 . S
C3076 H3067 0.929 . S
C3076 C3068 1.378 . S
C3076 C3071 1.350 . S
C3077 H3064 0.929 . S
C3077 C3069 1.433 . S
C3077 N3079 1.384 . S
N3078 C3074 1.427 . S
N3078 C3075 1.384 . S
N3079 C3071 1.427 . S
N3079 C3077 1.384 . S
H3080 C3086 0.930 . S
H3081 C3090 0.930 . S
H3082 C3095 0.929 . S
H3083 C3093 0.929 . S
H3084 C3088 0.929 . S
H3085 C3094 0.929 . S
C3086 H3080 0.930 . S
C3086 C3087 1.367 . S
C3086 C3094 1.378 . S
C3087 C3086 1.367 . S
C3087 C3095 1.433 . S
C3088 H3084 0.929 . S
C3088 C3090 1.378 . S
C3088 C3092 1.350 . S
C3089 C3092 1.463 . S
C3089 C3094 1.350 . S
C3089 N3097 1.427 . S
C3090 H3081 0.930 . S
C3090 C3088 1.378 . S
C3090 C3091 1.367 . S
C3091 C3090 1.367 . S
C3091 C3093 1.433 . S
C3092 C3088 1.350 . S
C3092 C3089 1.463 . S
C3092 N3096 1.427 . S
C3093 H3083 0.929 . S
C3093 C3091 1.433 . S
C3093 N3096 1.384 . S
C3094 H3085 0.929 . S
C3094 C3086 1.378 . S
C3094 C3089 1.350 . S
C3095 H3082 0.929 . S
C3095 C3087 1.433 . S
C3095 N3097 1.384 . S
N3096 C3092 1.427 . S
N3096 C3093 1.384 . S
N3097 C3089 1.427 . S
N3097 C3095 1.384 . S
H3098 C3104 0.930 . S
H3099 C3108 0.930 . S
H3100 C3113 0.929 . S
H3101 C3111 0.929 . S
H3102 C3106 0.929 . S
H3103 C3112 0.929 . S
C3104 H3098 0.930 . S
C3104 C3105 1.367 . S
C3104 C3112 1.378 . S
C3105 C3104 1.367 . S
C3105 C3113 1.433 . S
C3106 H3102 0.929 . S
C3106 C3108 1.378 . S
C3106 C3110 1.350 . S
C3107 C3110 1.463 . S
C3107 C3112 1.350 . S
C3107 N3115 1.427 . S
C3108 H3099 0.930 . S
C3108 C3106 1.378 . S
C3108 C3109 1.367 . S
C3109 C3108 1.367 . S
C3109 C3111 1.433 . S
C3110 C3106 1.350 . S
C3110 C3107 1.463 . S
C3110 N3114 1.427 . S
C3111 H3101 0.929 . S
C3111 C3109 1.433 . S
C3111 N3114 1.384 . S
C3112 H3103 0.929 . S
C3112 C3104 1.378 . S
C3112 C3107 1.350 . S
C3113 H3100 0.929 . S
C3113 C3105 1.433 . S
C3113 N3115 1.384 . S
N3114 C3110 1.427 . S
N3114 C3111 1.384 . S
N3115 C3107 1.427 . S
N3115 C3113 1.384 . S
H3116 C3122 0.930 . S
H3117 C3126 0.930 . S
H3118 C3131 0.929 . S
H3119 C3129 0.929 . S
H3120 C3124 0.929 . S
H3121 C3130 0.929 . S
C3122 H3116 0.930 . S
C3122 C3123 1.367 . S
C3122 C3130 1.378 . S
C3123 C3122 1.367 . S
C3123 C3131 1.433 . S
C3124 H3120 0.929 . S
C3124 C3126 1.378 . S
C3124 C3128 1.350 . S
C3125 C3128 1.463 . S
C3125 C3130 1.350 . S
C3125 N3133 1.427 . S
C3126 H3117 0.930 . S
C3126 C3124 1.378 . S
C3126 C3127 1.367 . S
C3127 C3126 1.367 . S
C3127 C3129 1.433 . S
C3128 C3124 1.350 . S
C3128 C3125 1.463 . S
C3128 N3132 1.427 . S
C3129 H3119 0.929 . S
C3129 C3127 1.433 . S
C3129 N3132 1.384 . S
C3130 H3121 0.929 . S
C3130 C3122 1.378 . S
C3130 C3125 1.350 . S
C3131 H3118 0.929 . S
C3131 C3123 1.433 . S
C3131 N3133 1.384 . S
N3132 C3128 1.427 . S
N3132 C3129 1.384 . S
N3133 C3125 1.427 . S
N3133 C3131 1.384 . S
H3134 C3140 0.930 . S
H3135 C3144 0.930 . S
H3136 C3149 0.929 . S
H3137 C3147 0.929 . S
H3138 C3142 0.929 . S
H3139 C3148 0.929 . S
C3140 H3134 0.930 . S
C3140 C3141 1.367 . S
C3140 C3148 1.378 . S
C3141 C3140 1.367 . S
C3141 C3149 1.433 . S
C3142 H3138 0.929 . S
C3142 C3144 1.378 . S
C3142 C3146 1.350 . S
C3143 C3146 1.463 . S
C3143 C3148 1.350 . S
C3143 N3151 1.427 . S
C3144 H3135 0.930 . S
C3144 C3142 1.378 . S
C3144 C3145 1.367 . S
C3145 C3144 1.367 . S
C3145 C3147 1.433 . S
C3146 C3142 1.350 . S
C3146 C3143 1.463 . S
C3146 N3150 1.427 . S
C3147 H3137 0.929 . S
C3147 C3145 1.433 . S
C3147 N3150 1.384 . S
C3148 H3139 0.929 . S
C3148 C3140 1.378 . S
C3148 C3143 1.350 . S
C3149 H3136 0.929 . S
C3149 C3141 1.433 . S
C3149 N3151 1.384 . S
N3150 C3146 1.427 . S
N3150 C3147 1.384 . S
N3151 C3143 1.427 . S
N3151 C3149 1.384 . S
H3152 C3158 0.930 . S
H3153 C3162 0.930 . S
H3154 C3167 0.929 . S
H3155 C3165 0.929 . S
H3156 C3160 0.929 . S
H3157 C3166 0.929 . S
C3158 H3152 0.930 . S
C3158 C3159 1.367 . S
C3158 C3166 1.378 . S
C3159 C3158 1.367 . S
C3159 C3167 1.433 . S
C3160 H3156 0.929 . S
C3160 C3162 1.378 . S
C3160 C3164 1.350 . S
C3161 C3164 1.463 . S
C3161 C3166 1.350 . S
C3161 N3169 1.427 . S
C3162 H3153 0.930 . S
C3162 C3160 1.378 . S
C3162 C3163 1.367 . S
C3163 C3162 1.367 . S
C3163 C3165 1.433 . S
C3164 C3160 1.350 . S
C3164 C3161 1.463 . S
C3164 N3168 1.427 . S
C3165 H3155 0.929 . S
C3165 C3163 1.433 . S
C3165 N3168 1.384 . S
C3166 H3157 0.929 . S
C3166 C3158 1.378 . S
C3166 C3161 1.350 . S
C3167 H3154 0.929 . S
C3167 C3159 1.433 . S
C3167 N3169 1.384 . S
N3168 C3164 1.427 . S
N3168 C3165 1.384 . S
N3169 C3161 1.427 . S
N3169 C3167 1.384 . S
H3170 C3176 0.930 . S
H3171 C3180 0.930 . S
H3172 C3185 0.929 . S
H3173 C3183 0.929 . S
H3174 C3178 0.929 . S
H3175 C3184 0.929 . S
C3176 H3170 0.930 . S
C3176 C3177 1.367 . S
C3176 C3184 1.378 . S
C3177 C3176 1.367 . S
C3177 C3185 1.433 . S
C3178 H3174 0.929 . S
C3178 C3180 1.378 . S
C3178 C3182 1.350 . S
C3179 C3182 1.463 . S
C3179 C3184 1.350 . S
C3179 N3187 1.427 . S
C3180 H3171 0.930 . S
C3180 C3178 1.378 . S
C3180 C3181 1.367 . S
C3181 C3180 1.367 . S
C3181 C3183 1.433 . S
C3182 C3178 1.350 . S
C3182 C3179 1.463 . S
C3182 N3186 1.427 . S
C3183 H3173 0.929 . S
C3183 C3181 1.433 . S
C3183 N3186 1.384 . S
C3184 H3175 0.929 . S
C3184 C3176 1.378 . S
C3184 C3179 1.350 . S
C3185 H3172 0.929 . S
C3185 C3177 1.433 . S
C3185 N3187 1.384 . S
N3186 C3182 1.427 . S
N3186 C3183 1.384 . S
N3187 C3179 1.427 . S
N3187 C3185 1.384 . S
H3188 C3194 0.930 . S
H3189 C3198 0.930 . S
H3190 C3203 0.929 . S
H3191 C3201 0.929 . S
H3192 C3196 0.929 . S
H3193 C3202 0.929 . S
C3194 H3188 0.930 . S
C3194 C3195 1.367 . S
C3194 C3202 1.378 . S
C3195 C3194 1.367 . S
C3195 C3203 1.433 . S
C3196 H3192 0.929 . S
C3196 C3198 1.378 . S
C3196 C3200 1.350 . S
C3197 C3200 1.463 . S
C3197 C3202 1.350 . S
C3197 N3205 1.427 . S
C3198 H3189 0.930 . S
C3198 C3196 1.378 . S
C3198 C3199 1.367 . S
C3199 C3198 1.367 . S
C3199 C3201 1.433 . S
C3200 C3196 1.350 . S
C3200 C3197 1.463 . S
C3200 N3204 1.427 . S
C3201 H3191 0.929 . S
C3201 C3199 1.433 . S
C3201 N3204 1.384 . S
C3202 H3193 0.929 . S
C3202 C3194 1.378 . S
C3202 C3197 1.350 . S
C3203 H3190 0.929 . S
C3203 C3195 1.433 . S
C3203 N3205 1.384 . S
N3204 C3200 1.427 . S
N3204 C3201 1.384 . S
N3205 C3197 1.427 . S
N3205 C3203 1.384 . S
H3206 C3212 0.930 . S
H3207 C3216 0.930 . S
H3208 C3221 0.929 . S
H3209 C3219 0.929 . S
H3210 C3214 0.929 . S
H3211 C3220 0.929 . S
C3212 H3206 0.930 . S
C3212 C3213 1.367 . S
C3212 C3220 1.378 . S
C3213 C3212 1.367 . S
C3213 C3221 1.433 . S
C3214 H3210 0.929 . S
C3214 C3216 1.378 . S
C3214 C3218 1.350 . S
C3215 C3218 1.463 . S
C3215 C3220 1.350 . S
C3215 N3223 1.427 . S
C3216 H3207 0.930 . S
C3216 C3214 1.378 . S
C3216 C3217 1.367 . S
C3217 C3216 1.367 . S
C3217 C3219 1.433 . S
C3218 C3214 1.350 . S
C3218 C3215 1.463 . S
C3218 N3222 1.427 . S
C3219 H3209 0.929 . S
C3219 C3217 1.433 . S
C3219 N3222 1.384 . S
C3220 H3211 0.929 . S
C3220 C3212 1.378 . S
C3220 C3215 1.350 . S
C3221 H3208 0.929 . S
C3221 C3213 1.433 . S
C3221 N3223 1.384 . S
N3222 C3218 1.427 . S
N3222 C3219 1.384 . S
N3223 C3215 1.427 . S
N3223 C3221 1.384 . S
H3224 C3230 0.930 . S
H3225 C3234 0.930 . S
H3226 C3239 0.929 . S
H3227 C3237 0.929 . S
H3228 C3232 0.929 . S
H3229 C3238 0.929 . S
C3230 H3224 0.930 . S
C3230 C3231 1.367 . S
C3230 C3238 1.378 . S
C3231 C3230 1.367 . S
C3231 C3239 1.433 . S
C3232 H3228 0.929 . S
C3232 C3234 1.378 . S
C3232 C3236 1.350 . S
C3233 C3236 1.463 . S
C3233 C3238 1.350 . S
C3233 N3241 1.427 . S
C3234 H3225 0.930 . S
C3234 C3232 1.378 . S
C3234 C3235 1.367 . S
C3235 C3234 1.367 . S
C3235 C3237 1.433 . S
C3236 C3232 1.350 . S
C3236 C3233 1.463 . S
C3236 N3240 1.427 . S
C3237 H3227 0.929 . S
C3237 C3235 1.433 . S
C3237 N3240 1.384 . S
C3238 H3229 0.929 . S
C3238 C3230 1.378 . S
C3238 C3233 1.350 . S
C3239 H3226 0.929 . S
C3239 C3231 1.433 . S
C3239 N3241 1.384 . S
N3240 C3236 1.427 . S
N3240 C3237 1.384 . S
N3241 C3233 1.427 . S
N3241 C3239 1.384 . S
H3242 C3248 0.930 . S
H3243 C3252 0.930 . S
H3244 C3257 0.929 . S
H3245 C3255 0.929 . S
H3246 C3250 0.929 . S
H3247 C3256 0.929 . S
C3248 H3242 0.930 . S
C3248 C3249 1.367 . S
C3248 C3256 1.378 . S
C3249 C3248 1.367 . S
C3249 C3257 1.433 . S
C3250 H3246 0.929 . S
C3250 C3252 1.378 . S
C3250 C3254 1.350 . S
C3251 C3254 1.463 . S
C3251 C3256 1.350 . S
C3251 N3259 1.427 . S
C3252 H3243 0.930 . S
C3252 C3250 1.378 . S
C3252 C3253 1.367 . S
C3253 C3252 1.367 . S
C3253 C3255 1.433 . S
C3254 C3250 1.350 . S
C3254 C3251 1.463 . S
C3254 N3258 1.427 . S
C3255 H3245 0.929 . S
C3255 C3253 1.433 . S
C3255 N3258 1.384 . S
C3256 H3247 0.929 . S
C3256 C3248 1.378 . S
C3256 C3251 1.350 . S
C3257 H3244 0.929 . S
C3257 C3249 1.433 . S
C3257 N3259 1.384 . S
N3258 C3254 1.427 . S
N3258 C3255 1.384 . S
N3259 C3251 1.427 . S
N3259 C3257 1.384 . S
H3260 C3266 0.930 . S
H3261 C3270 0.930 . S
H3262 C3275 0.929 . S
H3263 C3273 0.929 . S
H3264 C3268 0.929 . S
H3265 C3274 0.929 . S
C3266 H3260 0.930 . S
C3266 C3267 1.367 . S
C3266 C3274 1.378 . S
C3267 C3266 1.367 . S
C3267 C3275 1.433 . S
C3268 H3264 0.929 . S
C3268 C3270 1.378 . S
C3268 C3272 1.350 . S
C3269 C3272 1.463 . S
C3269 C3274 1.350 . S
C3269 N3277 1.427 . S
C3270 H3261 0.930 . S
C3270 C3268 1.378 . S
C3270 C3271 1.367 . S
C3271 C3270 1.367 . S
C3271 C3273 1.433 . S
C3272 C3268 1.350 . S
C3272 C3269 1.463 . S
C3272 N3276 1.427 . S
C3273 H3263 0.929 . S
C3273 C3271 1.433 . S
C3273 N3276 1.384 . S
C3274 H3265 0.929 . S
C3274 C3266 1.378 . S
C3274 C3269 1.350 . S
C3275 H3262 0.929 . S
C3275 C3267 1.433 . S
C3275 N3277 1.384 . S
N3276 C3272 1.427 . S
N3276 C3273 1.384 . S
N3277 C3269 1.427 . S
N3277 C3275 1.384 . S
H3278 C3284 0.930 . S
H3279 C3288 0.930 . S
H3280 C3293 0.929 . S
H3281 C3291 0.929 . S
H3282 C3286 0.929 . S
H3283 C3292 0.929 . S
C3284 H3278 0.930 . S
C3284 C3285 1.367 . S
C3284 C3292 1.378 . S
C3285 C3284 1.367 . S
C3285 C3293 1.433 . S
C3286 H3282 0.929 . S
C3286 C3288 1.378 . S
C3286 C3290 1.350 . S
C3287 C3290 1.463 . S
C3287 C3292 1.350 . S
C3287 N3295 1.427 . S
C3288 H3279 0.930 . S
C3288 C3286 1.378 . S
C3288 C3289 1.367 . S
C3289 C3288 1.367 . S
C3289 C3291 1.433 . S
C3290 C3286 1.350 . S
C3290 C3287 1.463 . S
C3290 N3294 1.427 . S
C3291 H3281 0.929 . S
C3291 C3289 1.433 . S
C3291 N3294 1.384 . S
C3292 H3283 0.929 . S
C3292 C3284 1.378 . S
C3292 C3287 1.350 . S
C3293 H3280 0.929 . S
C3293 C3285 1.433 . S
C3293 N3295 1.384 . S
N3294 C3290 1.427 . S
N3294 C3291 1.384 . S
N3295 C3287 1.427 . S
N3295 C3293 1.384 . S
H3296 C3302 0.930 . S
H3297 C3306 0.930 . S
H3298 C3311 0.929 . S
H3299 C3309 0.929 . S
H3300 C3304 0.929 . S
H3301 C3310 0.929 . S
C3302 H3296 0.930 . S
C3302 C3303 1.367 . S
C3302 C3310 1.378 . S
C3303 C3302 1.367 . S
C3303 C3311 1.433 . S
C3304 H3300 0.929 . S
C3304 C3306 1.378 . S
C3304 C3308 1.350 . S
C3305 C3308 1.463 . S
C3305 C3310 1.350 . S
C3305 N3313 1.427 . S
C3306 H3297 0.930 . S
C3306 C3304 1.378 . S
C3306 C3307 1.367 . S
C3307 C3306 1.367 . S
C3307 C3309 1.433 . S
C3308 C3304 1.350 . S
C3308 C3305 1.463 . S
C3308 N3312 1.427 . S
C3309 H3299 0.929 . S
C3309 C3307 1.433 . S
C3309 N3312 1.384 . S
C3310 H3301 0.929 . S
C3310 C3302 1.378 . S
C3310 C3305 1.350 . S
C3311 H3298 0.929 . S
C3311 C3303 1.433 . S
C3311 N3313 1.384 . S
N3312 C3308 1.427 . S
N3312 C3309 1.384 . S
N3313 C3305 1.427 . S
N3313 C3311 1.384 . S
H3314 C3320 0.930 . S
H3315 C3324 0.930 . S
H3316 C3329 0.929 . S
H3317 C3327 0.929 . S
H3318 C3322 0.929 . S
H3319 C3328 0.929 . S
C3320 H3314 0.930 . S
C3320 C3321 1.367 . S
C3320 C3328 1.378 . S
C3321 C3320 1.367 . S
C3321 C3329 1.433 . S
C3322 H3318 0.929 . S
C3322 C3324 1.378 . S
C3322 C3326 1.350 . S
C3323 C3326 1.463 . S
C3323 C3328 1.350 . S
C3323 N3331 1.427 . S
C3324 H3315 0.930 . S
C3324 C3322 1.378 . S
C3324 C3325 1.367 . S
C3325 C3324 1.367 . S
C3325 C3327 1.433 . S
C3326 C3322 1.350 . S
C3326 C3323 1.463 . S
C3326 N3330 1.427 . S
C3327 H3317 0.929 . S
C3327 C3325 1.433 . S
C3327 N3330 1.384 . S
C3328 H3319 0.929 . S
C3328 C3320 1.378 . S
C3328 C3323 1.350 . S
C3329 H3316 0.929 . S
C3329 C3321 1.433 . S
C3329 N3331 1.384 . S
N3330 C3326 1.427 . S
N3330 C3327 1.384 . S
N3331 C3323 1.427 . S
N3331 C3329 1.384 . S
H3332 C3338 0.930 . S
H3333 C3342 0.930 . S
H3334 C3347 0.929 . S
H3335 C3345 0.929 . S
H3336 C3340 0.929 . S
H3337 C3346 0.929 . S
C3338 H3332 0.930 . S
C3338 C3339 1.367 . S
C3338 C3346 1.378 . S
C3339 C3338 1.367 . S
C3339 C3347 1.433 . S
C3340 H3336 0.929 . S
C3340 C3342 1.378 . S
C3340 C3344 1.350 . S
C3341 C3344 1.463 . S
C3341 C3346 1.350 . S
C3341 N3349 1.427 . S
C3342 H3333 0.930 . S
C3342 C3340 1.378 . S
C3342 C3343 1.367 . S
C3343 C3342 1.367 . S
C3343 C3345 1.433 . S
C3344 C3340 1.350 . S
C3344 C3341 1.463 . S
C3344 N3348 1.427 . S
C3345 H3335 0.929 . S
C3345 C3343 1.433 . S
C3345 N3348 1.384 . S
C3346 H3337 0.929 . S
C3346 C3338 1.378 . S
C3346 C3341 1.350 . S
C3347 H3334 0.929 . S
C3347 C3339 1.433 . S
C3347 N3349 1.384 . S
N3348 C3344 1.427 . S
N3348 C3345 1.384 . S
N3349 C3341 1.427 . S
N3349 C3347 1.384 . S
H3350 C3356 0.930 . S
H3351 C3360 0.930 . S
H3352 C3365 0.929 . S
H3353 C3363 0.929 . S
H3354 C3358 0.929 . S
H3355 C3364 0.929 . S
C3356 H3350 0.930 . S
C3356 C3357 1.367 . S
C3356 C3364 1.378 . S
C3357 C3356 1.367 . S
C3357 C3365 1.433 . S
C3358 H3354 0.929 . S
C3358 C3360 1.378 . S
C3358 C3362 1.350 . S
C3359 C3362 1.463 . S
C3359 C3364 1.350 . S
C3359 N3367 1.427 . S
C3360 H3351 0.930 . S
C3360 C3358 1.378 . S
C3360 C3361 1.367 . S
C3361 C3360 1.367 . S
C3361 C3363 1.433 . S
C3362 C3358 1.350 . S
C3362 C3359 1.463 . S
C3362 N3366 1.427 . S
C3363 H3353 0.929 . S
C3363 C3361 1.433 . S
C3363 N3366 1.384 . S
C3364 H3355 0.929 . S
C3364 C3356 1.378 . S
C3364 C3359 1.350 . S
C3365 H3352 0.929 . S
C3365 C3357 1.433 . S
C3365 N3367 1.384 . S
N3366 C3362 1.427 . S
N3366 C3363 1.384 . S
N3367 C3359 1.427 . S
N3367 C3365 1.384 . S
H3368 C3374 0.930 . S
H3369 C3378 0.930 . S
H3370 C3383 0.929 . S
H3371 C3381 0.929 . S
H3372 C3376 0.929 . S
H3373 C3382 0.929 . S
C3374 H3368 0.930 . S
C3374 C3375 1.367 . S
C3374 C3382 1.378 . S
C3375 C3374 1.367 . S
C3375 C3383 1.433 . S
C3376 H3372 0.929 . S
C3376 C3378 1.378 . S
C3376 C3380 1.350 . S
C3377 C3380 1.463 . S
C3377 C3382 1.350 . S
C3377 N3385 1.427 . S
C3378 H3369 0.930 . S
C3378 C3376 1.378 . S
C3378 C3379 1.367 . S
C3379 C3378 1.367 . S
C3379 C3381 1.433 . S
C3380 C3376 1.350 . S
C3380 C3377 1.463 . S
C3380 N3384 1.427 . S
C3381 H3371 0.929 . S
C3381 C3379 1.433 . S
C3381 N3384 1.384 . S
C3382 H3373 0.929 . S
C3382 C3374 1.378 . S
C3382 C3377 1.350 . S
C3383 H3370 0.929 . S
C3383 C3375 1.433 . S
C3383 N3385 1.384 . S
N3384 C3380 1.427 . S
N3384 C3381 1.384 . S
N3385 C3377 1.427 . S
N3385 C3383 1.384 . S
H3386 C3392 0.930 . S
H3387 C3396 0.930 . S
H3388 C3401 0.929 . S
H3389 C3399 0.929 . S
H3390 C3394 0.929 . S
H3391 C3400 0.929 . S
C3392 H3386 0.930 . S
C3392 C3393 1.367 . S
C3392 C3400 1.378 . S
C3393 C3392 1.367 . S
C3393 C3401 1.433 . S
C3394 H3390 0.929 . S
C3394 C3396 1.378 . S
C3394 C3398 1.350 . S
C3395 C3398 1.463 . S
C3395 C3400 1.350 . S
C3395 N3403 1.427 . S
C3396 H3387 0.930 . S
C3396 C3394 1.378 . S
C3396 C3397 1.367 . S
C3397 C3396 1.367 . S
C3397 C3399 1.433 . S
C3398 C3394 1.350 . S
C3398 C3395 1.463 . S
C3398 N3402 1.427 . S
C3399 H3389 0.929 . S
C3399 C3397 1.433 . S
C3399 N3402 1.384 . S
C3400 H3391 0.929 . S
C3400 C3392 1.378 . S
C3400 C3395 1.350 . S
C3401 H3388 0.929 . S
C3401 C3393 1.433 . S
C3401 N3403 1.384 . S
N3402 C3398 1.427 . S
N3402 C3399 1.384 . S
N3403 C3395 1.427 . S
N3403 C3401 1.384 . S
H3404 C3410 0.930 . S
H3405 C3414 0.930 . S
H3406 C3419 0.929 . S
H3407 C3417 0.929 . S
H3408 C3412 0.929 . S
H3409 C3418 0.929 . S
C3410 H3404 0.930 . S
C3410 C3411 1.367 . S
C3410 C3418 1.378 . S
C3411 C3410 1.367 . S
C3411 C3419 1.433 . S
C3412 H3408 0.929 . S
C3412 C3414 1.378 . S
C3412 C3416 1.350 . S
C3413 C3416 1.463 . S
C3413 C3418 1.350 . S
C3413 N3421 1.427 . S
C3414 H3405 0.930 . S
C3414 C3412 1.378 . S
C3414 C3415 1.367 . S
C3415 C3414 1.367 . S
C3415 C3417 1.433 . S
C3416 C3412 1.350 . S
C3416 C3413 1.463 . S
C3416 N3420 1.427 . S
C3417 H3407 0.929 . S
C3417 C3415 1.433 . S
C3417 N3420 1.384 . S
C3418 H3409 0.929 . S
C3418 C3410 1.378 . S
C3418 C3413 1.350 . S
C3419 H3406 0.929 . S
C3419 C3411 1.433 . S
C3419 N3421 1.384 . S
N3420 C3416 1.427 . S
N3420 C3417 1.384 . S
N3421 C3413 1.427 . S
N3421 C3419 1.384 . S
H3422 C3428 0.930 . S
H3423 C3432 0.930 . S
H3424 C3437 0.929 . S
H3425 C3435 0.929 . S
H3426 C3430 0.929 . S
H3427 C3436 0.929 . S
C3428 H3422 0.930 . S
C3428 C3429 1.367 . S
C3428 C3436 1.378 . S
C3429 C3428 1.367 . S
C3429 C3437 1.433 . S
C3430 H3426 0.929 . S
C3430 C3432 1.378 . S
C3430 C3434 1.350 . S
C3431 C3434 1.463 . S
C3431 C3436 1.350 . S
C3431 N3439 1.427 . S
C3432 H3423 0.930 . S
C3432 C3430 1.378 . S
C3432 C3433 1.367 . S
C3433 C3432 1.367 . S
C3433 C3435 1.433 . S
C3434 C3430 1.350 . S
C3434 C3431 1.463 . S
C3434 N3438 1.427 . S
C3435 H3425 0.929 . S
C3435 C3433 1.433 . S
C3435 N3438 1.384 . S
C3436 H3427 0.929 . S
C3436 C3428 1.378 . S
C3436 C3431 1.350 . S
C3437 H3424 0.929 . S
C3437 C3429 1.433 . S
C3437 N3439 1.384 . S
N3438 C3434 1.427 . S
N3438 C3435 1.384 . S
N3439 C3431 1.427 . S
N3439 C3437 1.384 . S
C1723 C1294 1.511 . S
C1719 C21 1.549 . S
C1741 C1306 1.430 . S
C1737 C42 1.502 . S
C1755 C82 1.531 . S
C1759 C1330 1.494 . S
C1777 C1341 1.460 . S
C1773 C135 1.539 . S
C1791 C175 1.484 . S
C1795 C1348 1.412 . S
C1809 C221 1.542 . S
C1813 C1287 1.499 . S
C1827 C255 1.532 . S
C1831 C1314 1.459 . S
C1849 C1323 1.504 . S
C1845 C301 1.586 . S
C1867 C1360 1.478 . S
C1863 C15 1.541 . S
C1881 C55 1.502 . S
C1885 C1386 1.427 . S
C1899 C101 1.554 . S
C1903 C1402 1.517 . S
C1921 C1422 1.466 . S
C1917 C141 1.548 . S
C1935 C162 1.486 . S
C1939 C1431 1.444 . S
C1957 C1456 1.485 . S
C1953 C215 1.547 . S
C1971 C261 1.548 . S
C1975 C1476 1.479 . S
C1993 C1492 1.483 . S
C1989 C282 1.551 . S
C2007 C2 1.528 . S
C2011 C1414 1.495 . S
C2025 C181 1.468 . S
C2029 C1449 1.423 . S
C2047 C1468 1.501 . S
C2043 C202 1.540 . S
C2061 C242 1.551 . S
C2065 C1485 1.479 . S
C2083 C1438 1.479 . S
C2079 C295 1.543 . S
C2101 C1378 1.477 . S
C2097 C95 1.544 . S
C2115 C122 1.538 . S
C2119 C1395 1.469 . S
C2137 C1368 1.443 . S
C2133 C61 1.522 . S
C2155 C1512 1.506 . S
C2151 C341 1.549 . S
C2169 C362 1.498 . S
C2173 C1522 1.429 . S
C2187 C402 1.525 . S
C2191 C1546 1.484 . S
C2209 C1558 1.470 . S
C2205 C455 1.537 . S
C2223 C495 1.484 . S
C2227 C1566 1.413 . S
C2241 C541 1.538 . S
C2245 C1504 1.502 . S
C2259 C575 1.535 . S
C2263 C1530 1.463 . S
C2277 C621 1.588 . S
C2281 C1539 1.506 . S
C2299 C1432 1.485 . S
C2295 C335 1.543 . S
C2313 C375 1.499 . S
C2317 C1582 1.423 . S
C2335 C1474 1.509 . S
C2331 C421 1.549 . S
C2349 C461 1.548 . S
C2353 C1602 1.461 . S
C2367 C482 1.495 . S
C2371 C1359 1.453 . S
C2389 C1620 1.479 . S
C2385 C535 1.544 . S
C2403 C581 1.548 . S
C2407 C1404 1.468 . S
C2425 C1636 1.480 . S
C2421 C602 1.551 . S
C2439 C322 1.524 . S
C2443 C1594 1.491 . S
C2461 C1612 1.430 . S
C2457 C501 1.467 . S
C2475 C522 1.543 . S
C2479 C1396 1.508 . S
C2497 C1629 1.472 . S
C2493 C562 1.550 . S
C2511 C615 1.542 . S
C2515 C1366 1.477 . S
C2529 C415 1.548 . S
C2533 C1575 1.481 . S
C2547 C442 1.541 . S
C2551 C1467 1.470 . S
C2565 C381 1.523 . S
C2569 C1440 1.442 . S
C2583 C661 1.550 . S
C2587 C1548 1.507 . S
C2605 C1557 1.419 . S
C2601 C682 1.502 . S
C2619 C722 1.532 . S
C2623 C1510 1.495 . S
C2637 C775 1.539 . S
C2641 C1521 1.460 . S
C2655 C815 1.483 . S
C2659 C1528 1.411 . S
C2673 C861 1.541 . S
C2677 C1540 1.506 . S
C2695 C1564 1.468 . S
C2691 C895 1.534 . S
C2709 C941 1.583 . S
C2713 C1503 1.514 . S
C2731 C1654 1.483 . S
C2727 C655 1.545 . S
C2745 C695 1.501 . S
C2749 C1458 1.420 . S
C2767 C1672 1.510 . S
C2763 C741 1.549 . S
C2781 C781 1.550 . S
C2785 C1494 1.465 . S
C2799 C802 1.484 . S
C2803 C1692 1.442 . S
C2817 C855 1.546 . S
C2821 C1384 1.485 . S
C2839 C1708 1.480 . S
C2835 C901 1.549 . S
C2853 C922 1.552 . S
C2857 C1420 1.488 . S
C2875 C1486 1.496 . S
C2871 C642 1.531 . S
C2893 C1377 1.425 . S
C2889 C821 1.469 . S
C2907 C842 1.541 . S
C2911 C1701 1.491 . S
C2925 C882 1.550 . S
C2929 C1413 1.481 . S
C2947 C1684 1.472 . S
C2943 C935 1.538 . S
C2965 C1450 1.490 . S
C2961 C735 1.548 . S
C2983 C1665 1.463 . S
C2979 C762 1.538 . S
C3001 C1647 1.437 . S
C2997 C701 1.521 . S
C3015 C981 1.552 . S
C3019 C1332 1.509 . S
C3033 C1002 1.500 . S
C3037 C1342 1.439 . S
C3055 C1296 1.492 . S
C3051 C1042 1.533 . S
C3073 C1305 1.466 . S
C3069 C1095 1.538 . S
C3091 C1312 1.409 . S
C3087 C1135 1.482 . S
C3109 C1324 1.502 . S
C3105 C1181 1.538 . S
C3127 C1350 1.463 . S
C3123 C1215 1.535 . S
C3141 C1261 1.581 . S
C3145 C1288 1.514 . S
C3159 C975 1.547 . S
C3163 C1690 1.487 . S
C3181 C1618 1.422 . S
C3177 C1015 1.499 . S
C3199 C1710 1.514 . S
C3195 C1061 1.556 . S
C3217 C1638 1.478 . S
C3213 C1101 1.546 . S
C3231 C1122 1.483 . S
C3235 C1656 1.437 . S
C3253 C1584 1.463 . S
C3249 C1175 1.538 . S
C3271 C1674 1.466 . S
C3267 C1221 1.549 . S
C3285 C1242 1.546 . S
C3289 C1600 1.489 . S
C3307 C1630 1.493 . S
C3303 C962 1.530 . S
C3325 C1576 1.439 . S
C3321 C1141 1.472 . S
C3343 C1666 1.494 . S
C3339 C1162 1.535 . S
C3357 C1202 1.548 . S
C3361 C1593 1.482 . S
C3375 C1255 1.537 . S
C3379 C1648 1.471 . S
C3393 C1055 1.545 . S
C3397 C1611 1.472 . S
C3411 C1082 1.535 . S
C3415 C1702 1.477 . S
C3433 C1683 1.439 . S
C3429 C1021 1.519 . S
