# Generated by pormake.
# Topology zzz, (3,6)-cn, num edge types: 1
# Building blocks:
#     Node 0, Type 0, BuildingBlock: BETDAH_clean_linker_0, # of connection points: 3
#     Node 1, Type 0, BuildingBlock: BETDAH_clean_linker_0, # of connection points: 3
#     Node 2, Type 0, BuildingBlock: BETDAH_clean_linker_0, # of connection points: 3
#     Node 3, Type 0, BuildingBlock: BETDAH_clean_linker_0, # of connection points: 3
#     Node 4, Type 0, BuildingBlock: BETDAH_clean_linker_0, # of connection points: 3
#     Node 5, Type 0, BuildingBlock: BETDAH_clean_linker_0, # of connection points: 3
#     Node 6, Type 0, BuildingBlock: BETDAH_clean_linker_0, # of connection points: 3
#     Node 7, Type 0, BuildingBlock: BETDAH_clean_linker_0, # of connection points: 3
#     Node 8, Type 1, BuildingBlock: BETDEL_clean_sbu_0, # of connection points: 6
#     Node 9, Type 1, BuildingBlock: BETDEL_clean_sbu_0, # of connection points: 6
#     Node 10, Type 1, BuildingBlock: BETDEL_clean_sbu_0, # of connection points: 6
#     Node 11, Type 1, BuildingBlock: BETDEL_clean_sbu_0, # of connection points: 6
#     Edge 12, Type (0, 1), BuildingBlock: UVAHIK_clean_linker_0, # of connection points: 2
#     Edge 13, Type (0, 1), BuildingBlock: UVAHIK_clean_linker_0, # of connection points: 2
#     Edge 14, Type (0, 1), BuildingBlock: UVAHIK_clean_linker_0, # of connection points: 2
#     Edge 15, Type (0, 1), BuildingBlock: UVAHIK_clean_linker_0, # of connection points: 2
#     Edge 16, Type (0, 1), BuildingBlock: UVAHIK_clean_linker_0, # of connection points: 2
#     Edge 17, Type (0, 1), BuildingBlock: UVAHIK_clean_linker_0, # of connection points: 2
#     Edge 18, Type (0, 1), BuildingBlock: UVAHIK_clean_linker_0, # of connection points: 2
#     Edge 19, Type (0, 1), BuildingBlock: UVAHIK_clean_linker_0, # of connection points: 2
#     Edge 20, Type (0, 1), BuildingBlock: UVAHIK_clean_linker_0, # of connection points: 2
#     Edge 21, Type (0, 1), BuildingBlock: UVAHIK_clean_linker_0, # of connection points: 2
#     Edge 22, Type (0, 1), BuildingBlock: UVAHIK_clean_linker_0, # of connection points: 2
#     Edge 23, Type (0, 1), BuildingBlock: UVAHIK_clean_linker_0, # of connection points: 2
#     Edge 24, Type (0, 1), BuildingBlock: UVAHIK_clean_linker_0, # of connection points: 2
#     Edge 25, Type (0, 1), BuildingBlock: UVAHIK_clean_linker_0, # of connection points: 2
#     Edge 26, Type (0, 1), BuildingBlock: UVAHIK_clean_linker_0, # of connection points: 2
#     Edge 27, Type (0, 1), BuildingBlock: UVAHIK_clean_linker_0, # of connection points: 2
#     Edge 28, Type (0, 1), BuildingBlock: UVAHIK_clean_linker_0, # of connection points: 2
#     Edge 29, Type (0, 1), BuildingBlock: UVAHIK_clean_linker_0, # of connection points: 2
#     Edge 30, Type (0, 1), BuildingBlock: UVAHIK_clean_linker_0, # of connection points: 2
#     Edge 31, Type (0, 1), BuildingBlock: UVAHIK_clean_linker_0, # of connection points: 2
#     Edge 32, Type (0, 1), BuildingBlock: UVAHIK_clean_linker_0, # of connection points: 2
#     Edge 33, Type (0, 1), BuildingBlock: UVAHIK_clean_linker_0, # of connection points: 2
#     Edge 34, Type (0, 1), BuildingBlock: UVAHIK_clean_linker_0, # of connection points: 2
#     Edge 35, Type (0, 1), BuildingBlock: UVAHIK_clean_linker_0, # of connection points: 2
# Relax obj value: 0.151
# Max RMSD: 0.173
# Mean RMSD: 0.113
data_MOF--net-zzz--node1-BETDEL_clean_sbu_0--node2-BETDAH_clean_linker_0--edge1-UVAHIK_clean_linker_0
_symmetry_space_group_name_H-M    P1
_symmetry_Int_Tables_number       1
_symmetry_cell_setting            triclinic
loop_
_symmetry_equiv_pos_as_xyz
'x, y, z'
_cell_length_a     64.575071
_cell_length_b     65.93372
_cell_length_c     19.302137
_cell_angle_alpha  91.770165
_cell_angle_beta   88.162248
_cell_angle_gamma 95.105271
loop_
_atom_site_label
_atom_site_type_symbol
_atom_site_fract_x
_atom_site_fract_y
_atom_site_fract_z
_atom_type_partial_charge
H0 H 0.7955 0.50063 0.10273 0.0
H1 H 0.73697 0.51402 0.02527 0.0
H2 H 0.74566 0.51299 0.24635 0.0
C3 C 0.77942 0.50371 0.11282 0.0
C4 C 0.77206 0.50599 0.18125 0.0
C5 C 0.76695 0.50665 0.05686 0.0
C6 C 0.74646 0.51153 0.06897 0.0
C7 C 0.73851 0.51344 0.13773 0.0
C8 C 0.75156 0.51107 0.19358 0.0
N9 N 0.71768 0.518 0.15242 0.0
C10 C 0.70265 0.51804 0.10233 0.0
H11 H 0.96644 0.801 0.05757 0.0
H12 H 0.98395 0.74173 -0.00275 0.0
H13 H 0.95805 0.75263 0.20279 0.0
C14 C 0.967 0.78508 0.0695 0.0
C15 C 0.96081 0.77839 0.13564 0.0
C16 C 0.97538 0.77201 0.01988 0.0
C17 C 0.97716 0.75167 0.03566 0.0
C18 C 0.9704 0.74446 0.10151 0.0
C19 C 0.96266 0.75801 0.1516 0.0
N20 N 0.97149 0.72385 0.11941 0.0
C21 C 0.97574 0.70848 0.07155 0.0
H22 H 0.70423 0.99544 0.1034 0.0
H23 H 0.76226 0.98117 0.00755 0.0
H24 H 0.74585 0.96214 0.21561 0.0
C25 C 0.7191 0.9891 0.1067 0.0
C26 C 0.72351 0.97906 0.16664 0.0
C27 C 0.73287 0.98972 0.04906 0.0
C28 C 0.75174 0.9808 0.05241 0.0
C29 C 0.7567 0.97117 0.11326 0.0
C30 C 0.7423 0.96998 0.16948 0.0
N31 N 0.77578 0.96225 0.11924 0.0
C32 C 0.79243 0.96495 0.07188 0.0
H33 H 0.52717 0.70477 0.08824 0.0
H34 H 0.51554 0.76435 0.02526 0.0
H35 H 0.53665 0.75564 0.23176 0.0
C36 C 0.52736 0.72101 0.09986 0.0
C37 C 0.53304 0.72863 0.16557 0.0
C38 C 0.52099 0.73373 0.04965 0.0
C39 C 0.52058 0.75462 0.06445 0.0
C40 C 0.52657 0.76269 0.13018 0.0
C41 C 0.53237 0.74953 0.18094 0.0
N42 N 0.52687 0.78386 0.14693 0.0
C43 C 0.5248 0.79866 0.09835 0.0
H44 H 0.20696 0.47531 0.04777 0.0
H45 H 0.26781 0.48899 0.12879 0.0
H46 H 0.25985 0.48262 0.9075 0.0
C47 C 0.2237 0.47757 0.03911 0.0
C48 C 0.23184 0.4781 0.97127 0.0
C49 C 0.23651 0.48164 0.09578 0.0
C50 C 0.25804 0.48551 0.08472 0.0
C51 C 0.26667 0.48524 0.01655 0.0
C52 C 0.25339 0.48205 0.96 0.0
N53 N 0.28846 0.48857 0.00299 0.0
C54 C 0.30332 0.48958 0.05396 0.0
H55 H 0.99935 0.20492 0.0871 0.0
H56 H 0.01624 0.26492 0.16972 0.0
H57 H 0.01727 0.25348 0.94814 0.0
C58 C 0.00353 0.22097 0.07837 0.0
C59 C 0.00736 0.2276 0.01066 0.0
C60 C 0.00678 0.23425 0.13558 0.0
C61 C 0.01336 0.25479 0.12521 0.0
C62 C 0.0167 0.2619 0.0571 0.0
C63 C 0.01409 0.24814 0.00028 0.0
N64 N 0.02324 0.28259 0.04386 0.0
C65 C 0.02256 0.29829 0.09337 0.0
H66 H 0.31227 0.03643 0.0551 0.0
H67 H 0.24978 0.0226 0.13322 0.0
H68 H 0.26167 0.03299 0.91518 0.0
C69 C 0.29567 0.03456 0.04652 0.0
C70 C 0.2886 0.03556 0.97917 0.0
C71 C 0.2818 0.02971 0.10202 0.0
C72 C 0.26041 0.02655 0.09028 0.0
C73 C 0.25298 0.02828 0.02289 0.0
C74 C 0.26724 0.03233 0.96737 0.0
N75 N 0.23142 0.02571 0.00884 0.0
C76 C 0.21564 0.02396 0.05967 0.0
H77 H 0.50586 0.30103 0.04003 0.0
H78 H 0.4948 0.24278 0.134 0.0
H79 H 0.48047 0.24955 0.91919 0.0
C80 C 0.50131 0.28479 0.03527 0.0
C81 C 0.49351 0.2767 0.97274 0.0
C82 C 0.50161 0.27274 0.0935 0.0
C83 C 0.49485 0.25195 0.08839 0.0
C84 C 0.48774 0.24333 0.02461 0.0
C85 C 0.48665 0.25593 0.96747 0.0
N86 N 0.48108 0.22227 0.01663 0.0
C87 C 0.48305 0.20797 0.06699 0.0
Dy88 Dy 0.01185 0.98901 0.63507 0.0
C89 C 1.00011 0.04507 0.42469 0.0
C90 C 0.01125 0.95833 0.72696 0.0
Dy91 Dy 0.99932 0.01424 0.5162 0.0
O92 O 0.02794 0.96879 0.7041 0.0
O93 O 0.99497 0.96537 0.70218 0.0
O94 O 0.0454 0.99939 0.61353 0.0
O95 O 0.02469 0.99548 0.53129 0.0
C96 C 0.043 1.00157 0.54764 0.0
C97 C 0.96807 1.00132 0.60264 0.0
O98 O 0.99565 0.98424 0.45912 0.0
O99 O 0.99776 0.96571 0.55885 0.0
O100 O 0.98349 0.03662 0.45528 0.0
O101 O 0.01614 0.0359 0.44141 0.0
O102 O 0.96575 0.00386 0.5369 0.0
O103 O 0.98631 0.00753 0.6195 0.0
O104 O 0.0125 0.01888 0.69288 0.0
O105 O 0.01435 0.03726 0.59203 0.0
C106 C 0.99386 0.96677 0.49206 0.0
C107 C 0.01595 0.03628 0.6601 0.0
Dy108 Dy 0.4873 0.9918 0.54018 0.0
C109 C 0.56395 0.0233 0.66712 0.0
C110 C 0.44837 0.98275 0.49046 0.0
Dy111 Dy 0.52513 0.01396 0.61712 0.0
O112 O 0.46559 0.98149 0.45438 0.0
O113 O 0.45252 0.98851 0.55369 0.0
O114 O 0.50895 0.97106 0.48533 0.0
O115 O 0.51947 1.00117 0.51412 0.0
C116 C 0.52494 0.98454 0.48917 0.0
C117 C 0.48761 0.0215 0.66812 0.0
O118 O 0.52073 0.03803 0.54167 0.0
O119 O 0.48825 0.02427 0.50495 0.0
O120 O 0.54695 0.02087 0.70499 0.0
O121 O 0.55965 0.02109 0.60198 0.0
O122 O 0.50377 0.03476 0.67255 0.0
O123 O 0.49291 0.00479 0.6432 0.0
O124 O 0.49134 0.96816 0.61742 0.0
O125 O 0.52457 0.98115 0.64887 0.0
C126 C 0.50352 0.03922 0.50677 0.0
C127 C 0.5089 0.96659 0.64989 0.0
Dy128 Dy 0.49411 0.51495 0.64445 0.0
C129 C 0.51209 0.46416 0.41273 0.0
C130 C 0.49176 0.54391 0.74779 0.0
Dy131 Dy 0.5106 0.49298 0.51678 0.0
O132 O 0.47587 0.53405 0.71866 0.0
O133 O 0.50878 0.53702 0.72303 0.0
O134 O 0.46143 0.50389 0.61764 0.0
O135 O 0.48389 0.51025 0.53812 0.0
C136 C 0.46542 0.5032 0.55118 0.0
C137 C 0.53935 0.50484 0.60989 0.0
O138 O 0.51369 0.52386 0.47165 0.0
O139 O 0.50861 0.54036 0.57805 0.0
O140 O 0.5282 0.47295 0.44376 0.0
O141 O 0.49542 0.47199 0.43613 0.0
O142 O 0.54334 0.5039 0.54343 0.0
O143 O 0.52088 0.49777 0.623 0.0
O144 O 0.4921 0.48395 0.68979 0.0
O145 O 0.49557 0.46777 0.58227 0.0
C146 C 0.51383 0.54072 0.51097 0.0
C147 C 0.49124 0.46717 0.64983 0.0
Dy148 Dy 0.99126 0.50029 0.64456 0.0
C149 C 0.04535 0.50955 0.40552 0.0
C150 C 0.96195 0.50274 0.74871 0.0
Dy151 Dy 0.01588 0.51086 0.50958 0.0
O152 O 0.96808 0.4859 0.72184 0.0
O153 O 0.97275 0.51816 0.72123 0.0
O154 O 0.99739 0.46742 0.62935 0.0
O155 O 0.99448 0.4856 0.54297 0.0
C156 C 0.99894 0.46846 0.56214 0.0
C157 C 0.00807 0.54249 0.59302 0.0
O158 O 0.98424 0.50943 0.4654 0.0
O159 O 0.96756 0.51116 0.57373 0.0
O160 O 0.03943 0.52609 0.4353 0.0
O161 O 0.03428 0.49386 0.43009 0.0
O162 O 0.00908 0.54356 0.52577 0.0
O163 O 0.01281 0.52538 0.61139 0.0
O164 O 0.023 0.50057 0.68793 0.0
O165 O 0.03931 0.49921 0.579 0.0
C166 C 0.96743 0.51188 0.50504 0.0
C167 C 0.03964 0.49796 0.64747 0.0
C168 C 0.20156 0.02534 0.1801 0.0
C169 C 0.19834 0.02236 0.10896 0.0
C170 C 0.18463 0.02391 0.22741 0.0
C171 C 0.12966 0.00266 0.24485 0.0
H172 H 0.12795 0.04037 0.40271 0.0
C173 C 0.05688 0.00476 0.42557 0.0
C174 C 0.06033 0.00609 0.49708 0.0
C175 C 0.07352 0.0078 0.37773 0.0
C176 C 0.12828 0.02962 0.35919 0.0
H177 H 0.17537 0.01579 0.03048 0.0
H178 H 0.14569 0.0135 0.11272 0.0
H179 H 0.1575 0.04335 0.32046 0.0
H180 H 0.08373 0.01215 0.57478 0.0
H181 H 0.11282 0.01735 0.49138 0.0
H182 H 0.10048 0.98891 0.28357 0.0
C183 C 0.16118 0.01661 0.13255 0.0
C184 C 0.14524 0.0313 0.31209 0.0
C185 C 0.17811 0.01802 0.08541 0.0
C186 C 0.08063 0.01102 0.51991 0.0
C187 C 0.09728 0.0141 0.47211 0.0
C188 C 0.11271 1.00101 0.29183 0.0
C189 C 0.16421 0.0195 0.20421 0.0
C190 C 0.14616 0.01781 0.25436 0.0
C191 C 0.09396 0.01228 0.40042 0.0
C192 C 0.11181 0.01444 0.34965 0.0
H193 H 0.21711 0.02875 0.19917 0.0
H194 H 0.18757 0.02599 0.28221 0.0
H195 H 0.13 0.9918 0.20167 0.0
H196 H 0.04136 1.00106 0.40651 0.0
H197 H 0.07038 0.0066 0.3229 0.0
C198 C 0.50274 0.19256 0.15617 0.0
C199 C 0.48492 0.19235 0.11659 0.0
C200 C 0.50484 0.17693 0.20225 0.0
C201 C 0.47444 0.13555 0.29718 0.0
H202 H 0.52756 0.11265 0.30471 0.0
C203 C 0.48336 0.05945 0.42866 0.0
C204 C 0.50133 0.05774 0.46661 0.0
C205 C 0.48146 0.0766 0.38929 0.0
C206 C 0.51269 0.11904 0.30401 0.0
H207 H 0.45531 0.17609 0.0932 0.0
H208 H 0.4589 0.14863 0.17327 0.0
H209 H 0.52406 0.14133 0.2304 0.0
H210 H 0.53132 0.07298 0.49332 0.0
H211 H 0.52789 0.10297 0.42512 0.0
H212 H 0.46302 0.11319 0.37037 0.0
C213 C 0.47118 0.1609 0.16983 0.0
C214 C 0.51068 0.1355 0.26135 0.0
C215 C 0.46913 0.17652 0.12378 0.0
C216 C 0.51728 0.07373 0.46465 0.0
C217 C 0.51537 0.09089 0.42517 0.0
C218 C 0.47645 0.11911 0.33983 0.0
C219 C 0.48911 0.16084 0.20945 0.0
C220 C 0.49148 0.14386 0.25698 0.0
C221 C 0.49746 0.09251 0.38679 0.0
C222 C 0.49555 0.11054 0.34341 0.0
H223 H 0.51509 0.20473 0.15115 0.0
H224 H 0.51873 0.17749 0.23249 0.0
H225 H 0.45952 0.14183 0.296 0.0
H226 H 0.47076 0.04746 0.42872 0.0
H227 H 0.46757 0.07719 0.35967 0.0
C228 C 0.34024 0.4959 0.08252 0.0
C229 C 0.31961 0.49046 0.10377 0.0
C230 C 0.35619 0.49656 0.13011 0.0
C231 C 0.36881 0.4778 0.30175 0.0
H232 H 0.41324 0.52135 0.29366 0.0
C233 C 0.42856 0.49384 0.51854 0.0
C234 C 0.44928 0.49966 0.49848 0.0
C235 C 0.413 0.49172 0.46937 0.0
C236 C 0.40111 0.50893 0.2961 0.0
H237 H 0.29916 0.48138 0.19039 0.0
H238 H 0.32694 0.48283 0.2743 0.0
H239 H 0.38548 0.51997 0.21068 0.0
H240 H 0.47011 0.5073 0.4111 0.0
H241 H 0.44299 0.50346 0.32502 0.0
H242 H 0.3844 0.46689 0.38767 0.0
C243 C 0.33096 0.48634 0.22085 0.0
C244 C 0.38516 0.50814 0.24849 0.0
C245 C 0.31503 0.48566 0.17308 0.0
C246 C 0.45424 0.50287 0.42808 0.0
C247 C 0.43868 0.5008 0.37889 0.0
C248 C 0.38475 0.47862 0.34949 0.0
C249 C 0.35177 0.4918 0.19997 0.0
C250 C 0.36878 0.49258 0.2507 0.0
C251 C 0.41783 0.49542 0.39903 0.0
C252 C 0.40109 0.49421 0.34731 0.0
H253 H 0.34405 0.49954 0.02898 0.0
H254 H 0.37202 0.50053 0.11191 0.0
H255 H 0.35665 0.46541 0.30433 0.0
H256 H 0.42429 0.49126 0.57249 0.0
H257 H 0.39709 0.48774 0.48681 0.0
C258 C 0.02394 0.31312 0.21227 0.0
C259 C 0.02123 0.31533 0.14129 0.0
C260 C 0.02218 0.3297 0.2585 0.0
C261 C 0.99949 0.37924 0.2746 0.0
H262 H 0.03751 0.38981 0.4256 0.0
C263 C 1.00099 0.45303 0.44262 0.0
C264 C 1.00264 0.45117 0.51443 0.0
C265 C 0.0039 0.4365 0.39744 0.0
C266 C 0.02664 0.38694 0.38409 0.0
H267 H 0.01485 0.33613 0.06185 0.0
H268 H 0.01198 0.36523 0.14218 0.0
H269 H 0.04133 0.36074 0.34619 0.0
H270 H 0.00886 0.43072 0.59546 0.0
H271 H 0.01377 0.4017 0.51657 0.0
H272 H 0.98478 0.40538 0.31236 0.0
C273 C 0.01516 0.35076 0.16272 0.0
C274 C 0.02882 0.37028 0.33863 0.0
C275 C 0.01692 0.3342 0.11669 0.0
C276 C 0.0075 0.43255 0.54026 0.0
C277 C 0.01044 0.41599 0.49505 0.0
C278 C 0.99732 0.39588 0.31995 0.0
C279 C 0.01765 0.3487 0.23426 0.0
C280 C 0.0153 0.36627 0.28321 0.0
C281 C 0.00851 0.41774 0.42314 0.0
C282 C 0.0109 0.39997 0.37512 0.0
H283 H 0.02727 0.2986 0.23204 0.0
H284 H 0.02398 0.32754 0.3133 0.0
H285 H 0.98856 0.37637 0.23326 0.0
H286 H 0.99725 0.46722 0.42131 0.0
H287 H 1.00261 0.43845 0.34228 0.0
C288 C 0.83017 0.97194 0.05209 0.0
C289 C 0.81029 0.96783 0.02532 0.0
C290 C 0.84759 0.97475 0.00736 0.0
C291 C 0.86581 0.96435 0.82697 0.0
H292 H 0.90892 0.00738 0.8685 0.0
C293 C 0.93066 0.99049 0.62796 0.0
C294 C 0.95075 0.99577 0.65219 0.0
C295 C 0.91396 0.98608 0.67451 0.0
C296 C 0.89718 0.9951 0.85661 0.0
H297 H 0.79262 0.96342 0.93199 0.0
H298 H 0.82305 0.96851 0.85316 0.0
H299 H 0.87883 0.00188 0.9473 0.0
H300 H 0.96927 1.00018 0.74393 0.0
H301 H 0.9401 0.99228 0.82554 0.0
H302 H 0.88412 0.95765 0.73606 0.0
C303 C 0.82533 0.96932 0.90855 0.0
C304 C 0.8799 0.99197 0.90177 0.0
C305 C 0.80791 0.96653 0.95344 0.0
C306 C 0.95391 0.99622 0.72387 0.0
C307 C 0.93719 0.99182 0.77054 0.0
C308 C 0.8831 0.96748 0.78181 0.0
C309 C 0.8454 0.97349 0.93498 0.0
C310 C 0.86395 0.97661 0.88737 0.0
C311 C 0.91697 0.98684 0.74643 0.0
C312 C 0.89896 0.98297 0.79587 0.0
H313 H 0.83224 0.97293 0.10763 0.0
H314 H 0.8628 0.97767 0.02949 0.0
H315 H 0.854 0.95217 0.81488 0.0
H316 H 0.92777 0.99002 0.57293 0.0
H317 H 0.89859 0.98255 0.65412 0.0
C318 C 0.50537 0.81558 0.01193 0.0
C319 C 0.52342 0.81461 0.04961 0.0
C320 C 0.50393 0.83144 0.96616 0.0
C321 C 0.52677 0.88371 0.92992 0.0
H322 H 0.50081 0.87395 0.75219 0.0
C323 C 0.52936 0.94612 0.72628 0.0
C324 C 0.511 0.94822 0.6909 0.0
C325 C 0.53103 0.92935 0.7677 0.0
C326 C 0.50793 0.87697 0.80193 0.0
H327 H 0.55419 0.82887 0.06933 0.0
H328 H 0.5519 0.85651 0.98891 0.0
H329 H 0.50338 0.84556 0.82888 0.0
H330 H 0.48009 0.93399 0.67064 0.0
H331 H 0.48297 0.90482 0.74329 0.0
H332 H 0.53129 0.91508 0.90324 0.0
C333 C 0.53869 0.84531 0.99506 0.0
C334 C 0.50939 0.86069 0.84593 0.0
C335 C 0.54009 0.82946 0.04072 0.0
C336 C 0.49448 0.93289 0.697 0.0
C337 C 0.49616 0.91609 0.73845 0.0
C338 C 0.52532 0.89995 0.88598 0.0
C339 C 0.52054 0.8466 0.9575 0.0
C340 C 0.51888 0.86385 0.91045 0.0
C341 C 0.51439 0.91421 0.77487 0.0
C342 C 0.51592 0.8968 0.82135 0.0
H343 H 0.49233 0.8042 0.01836 0.0
H344 H 0.48965 0.83206 0.93867 0.0
H345 H 0.53382 0.8868 0.97974 0.0
H346 H 0.54246 0.95753 0.7226 0.0
H347 H 0.54542 0.92823 0.79406 0.0
C348 C 0.67804 0.49901 0.02402 0.0
C349 C 0.68653 0.51764 0.05207 0.0
C350 C 0.66194 0.49849 0.97699 0.0
C351 C 0.63675 0.53048 0.85578 0.0
H352 H 0.59133 0.48804 0.86983 0.0
C353 C 0.57627 0.51402 0.64188 0.0
C354 C 0.55552 0.50852 0.66243 0.0
C355 C 0.59188 0.51628 0.69081 0.0
C356 C 0.60377 0.50012 0.86555 0.0
H357 H 0.68529 0.5503 0.05383 0.0
H358 H 0.65701 0.54952 0.97177 0.0
H359 H 0.61925 0.48967 0.95237 0.0
H360 H 0.53471 0.50162 0.75047 0.0
H361 H 0.56194 0.50576 0.83622 0.0
H362 H 0.62113 0.54106 0.76943 0.0
C363 C 0.66284 0.5353 0.98523 0.0
C364 C 0.61994 0.5009 0.91237 0.0
C365 C 0.67893 0.53578 0.03235 0.0
C366 C 0.55059 0.50579 0.73311 0.0
C367 C 0.56622 0.50803 0.78212 0.0
C368 C 0.62059 0.52968 0.80885 0.0
C369 C 0.65405 0.51662 0.95721 0.0
C370 C 0.63669 0.51602 0.90791 0.0
C371 C 0.5871 0.51309 0.76148 0.0
C372 C 0.60394 0.51444 0.81295 0.0
H373 H 0.68379 0.48485 0.03868 0.0
H374 H 0.65578 0.48388 0.9557 0.0
H375 H 0.64947 0.54224 0.85046 0.0
H376 H 0.58052 0.51623 0.58771 0.0
H377 H 0.6078 0.51997 0.67291 0.0
C378 C 0.97647 0.69448 0.95184 0.0
C379 C 0.97948 0.6922 0.02259 0.0
C380 C 0.97953 0.67844 0.90459 0.0
C381 C 0.98102 0.62261 0.89454 0.0
H382 H 0.00945 0.63285 0.7174 0.0
C383 C 0.00638 0.55764 0.71295 0.0
C384 C 0.00413 0.55955 0.64142 0.0
C385 C 1.00298 0.57387 0.75891 0.0
C386 C 1.00124 0.62976 0.76627 0.0
H387 H 0.98803 0.67186 0.1005 0.0
H388 H 0.99355 0.64373 0.018 0.0
H389 H 0.00454 0.6612 0.79871 0.0
H390 H 0.99646 0.57979 0.56166 0.0
H391 H 0.99031 0.60817 0.642 0.0
H392 H 0.97766 0.59119 0.86217 0.0
C393 C 0.98865 0.65775 -0.00124 0.0
C394 C 0.99846 0.64601 0.8129 0.0
C395 C 0.98565 0.67383 0.04587 0.0
C396 C 0.99836 0.57796 0.6166 0.0
C397 C 0.99495 0.59422 0.66258 0.0
C398 C 0.98376 0.60637 0.84789 0.0
C399 C 0.98555 0.65984 0.92757 0.0
C400 C 0.98838 0.64261 0.87768 0.0
C401 C 0.99728 0.59238 0.7343 0.0
C402 C 0.99397 0.60973 0.78329 0.0
H403 H 0.97156 0.70857 0.93316 0.0
H404 H 0.97678 0.68045 0.85027 0.0
H405 H 0.97287 0.61952 0.94353 0.0
H406 H 0.01097 0.54365 0.73344 0.0
H407 H 0.0052 0.57202 0.81367 0.0
C408 C 0.98714 0.21441 0.22677 0.0
C409 C 0.00583 0.22504 0.20432 0.0
C410 C 0.98746 0.19798 0.27053 0.0
C411 C 0.02199 0.15848 0.28682 0.0
H412 H 0.97994 0.13578 0.41714 0.0
C413 C 0.02093 0.07612 0.38239 0.0
C414 C 1.00145 0.06535 0.39402 0.0
C415 C 0.02233 0.09672 0.36629 0.0
C416 C 0.99168 0.14184 0.3802 0.0
H417 H 0.03915 0.22868 0.21623 0.0
H418 H 0.03974 0.20015 0.2939 0.0
H419 H 0.98113 0.17179 0.3894 0.0
H420 H 0.96813 0.0673 0.39472 0.0
H421 H 0.9705 0.10308 0.36388 0.0
H422 H 0.03201 0.12852 0.27489 0.0
C423 C 0.02488 0.20429 0.27703 0.0
C424 C 0.99248 0.16251 0.36495 0.0
C425 C 0.02453 0.22082 0.23354 0.0
C426 C 0.98336 0.07526 0.38589 0.0
C427 C 0.98474 0.09583 0.36928 0.0
C428 C 0.0211 0.13783 0.30161 0.0
C429 C 0.00651 0.1919 0.29202 0.0
C430 C 0.00748 0.17099 0.31738 0.0
C431 C 0.00425 0.10695 0.36096 0.0
C432 C 0.00574 0.12916 0.34764 0.0
H433 H 0.97259 0.21728 0.20403 0.0
H434 H 0.97304 0.18875 0.28107 0.0
H435 H 0.03343 0.16441 0.24864 0.0
H436 H 0.03514 0.0689 0.38904 0.0
H437 H 0.03761 0.10479 0.36072 0.0
C438 C 0.30472 0.04104 0.19933 0.0
C439 C 0.29057 0.0261 0.16979 0.0
C440 C 0.31825 0.03586 0.24944 0.0
C441 C 0.35619 0.01556 0.2843 0.0
H442 H 0.3481 0.97827 0.43625 0.0
C443 C 0.42509 0.97934 0.38958 0.0
C444 C 0.42752 0.98205 0.46127 0.0
C445 C 0.40619 0.98247 0.36024 0.0
C446 C 0.35051 0.9887 0.39391 0.0
H447 H 0.27798 0.99461 0.17368 0.0
H448 H 0.30179 0.98545 0.26153 0.0
H449 H 0.31772 0.99019 0.38124 0.0
H450 H 0.41184 0.98874 0.55929 0.0
H451 H 0.37871 0.99415 0.50782 0.0
H452 H 0.38878 0.01408 0.29591 0.0
C453 C 0.30233 1.00117 0.24634 0.0
C454 C 0.33319 0.99549 0.36253 0.0
C455 C 0.28867 0.00641 0.19627 0.0
C456 C 0.41034 0.98655 0.50374 0.0
C457 C 0.39138 0.9896 0.47438 0.0
C458 C 0.37337 0.00865 0.31492 0.0
C459 C 0.318 0.01561 0.2704 0.0
C460 C 0.33591 0.00906 0.30753 0.0
C461 C 0.38938 0.9883 0.40211 0.0
C462 C 0.37076 0.99508 0.36976 0.0
H463 H 0.3064 0.05634 0.17968 0.0
H464 H 0.32991 0.04739 0.26818 0.0
H465 H 0.35882 0.0257 0.24118 0.0
H466 H 0.43807 0.9758 0.35576 0.0
H467 H 0.40495 0.98107 0.30442 0.0
C468 C 0.52521 0.29486 0.16807 0.0
C469 C 0.50602 0.28336 0.1603 0.0
C470 C 0.52678 0.31188 0.21311 0.0
C471 C 0.49336 0.3508 0.25486 0.0
H472 H 0.53764 0.3754 0.36891 0.0
C473 C 0.49273 0.43279 0.36574 0.0
C474 C 0.51179 0.44432 0.37547 0.0
C475 C 0.49223 0.41236 0.34435 0.0
C476 C 0.52531 0.36884 0.33627 0.0
H477 H 0.47414 0.27898 0.19863 0.0
H478 H 0.47685 0.30876 0.27758 0.0
H479 H 0.5368 0.33924 0.33556 0.0
H480 H 0.54528 0.444 0.36686 0.0
H481 H 0.54448 0.40853 0.32572 0.0
H482 H 0.48243 0.38032 0.25155 0.0
C483 C 0.49064 0.30467 0.24892 0.0
C484 C 0.52471 0.34809 0.3181 0.0
C485 C 0.48915 0.28751 0.20448 0.0
C486 C 0.53037 0.43542 0.35956 0.0
C487 C 0.52988 0.41501 0.33712 0.0
C488 C 0.49414 0.37154 0.27193 0.0
C489 C 0.50909 0.3177 0.25013 0.0
C490 C 0.50872 0.33891 0.27718 0.0
C491 C 0.5108 0.40305 0.33107 0.0
C492 C 0.51015 0.3809 0.31268 0.0
H493 H 0.53831 0.29204 0.13373 0.0
H494 H 0.54117 0.32168 0.21299 0.0
H495 H 0.48116 0.34424 0.22161 0.0
H496 H 0.47816 0.4392 0.37838 0.0
H497 H 0.47724 0.40368 0.34121 0.0
C498 C 0.21244 0.46839 0.18948 0.0
C499 C 0.22619 0.48432 0.16421 0.0
C500 C 0.19595 0.47258 0.23456 0.0
C501 C 0.1625 0.51375 0.2545 0.0
H502 H 0.13186 0.47762 0.38369 0.0
C503 C 0.07935 0.52588 0.36163 0.0
C504 C 0.06563 0.50829 0.36927 0.0
C505 C 0.10021 0.52428 0.34238 0.0
C506 C 0.14019 0.48778 0.34726 0.0
H507 H 0.23524 0.51667 0.17225 0.0
H508 H 0.20663 0.52404 0.25257 0.0
H509 H 0.16817 0.47283 0.35388 0.0
H510 H 0.0625 0.47535 0.35873 0.0
H511 H 0.09878 0.47256 0.32349 0.0
H512 H 0.13439 0.5283 0.24617 0.0
C513 C 0.20833 0.50836 0.23664 0.0
C514 C 0.16102 0.48513 0.33068 0.0
C515 C 0.22489 0.50413 0.19161 0.0
C516 C 0.07276 0.48916 0.35318 0.0
C517 C 0.0936 0.48756 0.33403 0.0
C518 C 0.14169 0.5164 0.2711 0.0
C519 C 0.19295 0.49281 0.2548 0.0
C520 C 0.17228 0.4978 0.28291 0.0
C521 C 0.10769 0.50505 0.33051 0.0
C522 C 0.13017 0.50314 0.31636 0.0
H523 H 0.2131 0.45303 0.16836 0.0
H524 H 0.18441 0.46022 0.2474 0.0
H525 H 0.17055 0.52354 0.21641 0.0
H526 H 0.07427 0.54081 0.3742 0.0
H527 H 0.11067 0.53804 0.34008 0.0
C528 C 0.00519 0.78649 0.94784 0.0
C529 C 0.98375 0.78106 0.95489 0.0
C530 C 0.01262 0.80235 0.90463 0.0
C531 C 0.99589 0.84005 0.78092 0.0
H532 H 0.03007 0.87869 0.89366 0.0
C533 C 0.99209 0.92596 0.76413 0.0
C534 C 0.01095 0.93819 0.75816 0.0
C535 C 0.99194 0.90549 0.78045 0.0
C536 C 0.02079 0.868 0.86104 0.0
H537 H 0.95348 0.78609 0.91764 0.0
H538 H 0.96622 0.81351 0.8421 0.0
H539 H 0.02531 0.84305 0.92521 0.0
H540 H 0.04436 0.93898 0.76789 0.0
H541 H 0.04403 0.90312 0.79852 0.0
H542 H 0.99045 0.86538 0.7192 0.0
C543 C 0.97749 0.80569 0.86901 0.0
C544 C 0.01817 0.84751 0.87867 0.0
C545 C 0.97012 0.78989 0.91213 0.0
C546 C 0.02959 0.92988 0.77257 0.0
C547 C 0.02942 0.90939 0.78968 0.0
C548 C 0.99835 0.86056 0.76373 0.0
C549 C 0.99866 0.81297 0.86817 0.0
C550 C 0.00513 0.83341 0.84014 0.0
C551 C 0.01063 0.89687 0.79175 0.0
C552 C 0.01028 0.87483 0.80494 0.0
H553 H 0.01593 0.78001 0.98109 0.0
H554 H 0.02907 0.80732 0.90401 0.0
H555 H 0.98604 0.82955 0.74944 0.0
H556 H 0.97749 0.93195 0.7532 0.0
H557 H 0.97719 0.89628 0.78322 0.0
C558 C 0.72318 0.98469 0.92543 0.0
C559 C 0.72589 0.99774 0.98388 0.0
C560 C 0.71068 0.98974 0.87182 0.0
C561 C 0.68074 0.02978 0.80228 0.0
H562 H 0.63619 0.98633 0.79222 0.0
C563 C 0.6026 0.02735 0.64883 0.0
C564 C 0.58512 0.02466 0.69406 0.0
C565 C 0.6226 0.02598 0.67328 0.0
C566 C 0.64864 0.99848 0.79387 0.0
H567 H 0.71973 0.02712 0.02914 0.0
H568 H 0.69816 0.03611 0.93513 0.0
H569 H 0.66851 0.98039 0.84715 0.0
H570 H 0.57477 0.01904 0.80019 0.0
H571 H 0.60966 0.01619 0.84239 0.0
H572 H 0.66029 0.04798 0.75039 0.0
C573 C 0.70554 0.02199 0.93055 0.0
C574 C 0.6672 0.99505 0.82463 0.0
C575 C 0.71783 0.01684 0.98445 0.0
C576 C 0.58798 0.02125 0.76435 0.0
C577 C 0.60787 0.01954 0.78841 0.0
C578 C 0.66221 0.0331 0.77026 0.0
C579 C 0.70093 0.008 0.87565 0.0
C580 C 0.68323 0.01081 0.83088 0.0
C581 C 0.62527 0.02155 0.74287 0.0
C582 C 0.64584 0.01762 0.7678 0.0
H583 H 0.72914 0.96983 0.92408 0.0
H584 H 0.70749 0.97877 0.82974 0.0
H585 H 0.69284 0.04219 0.80661 0.0
H586 H 0.60077 0.0299 0.59428 0.0
H587 H 0.63585 0.02751 0.63738 0.0
C588 C 0.4926 0.71836 0.97659 0.0
C589 C 0.51388 0.72401 0.98397 0.0
C590 C 0.48608 0.70186 0.93289 0.0
C591 C 0.50554 0.6622 0.80969 0.0
H592 H 0.4689 0.62539 0.92086 0.0
C593 C 0.50985 0.57612 0.79355 0.0
C594 C 0.49117 0.56397 0.78321 0.0
C595 C 0.50959 0.59675 0.81145 0.0
C596 C 0.47891 0.63556 0.88875 0.0
H597 H 0.5449 0.71862 0.94697 0.0
H598 H 0.53375 0.69004 0.87076 0.0
H599 H 0.47293 0.66156 0.95242 0.0
H600 H 0.45755 0.56347 0.78775 0.0
H601 H 0.45711 0.5996 0.82154 0.0
H602 H 0.51244 0.63582 0.74871 0.0
C603 C 0.52191 0.69819 0.89762 0.0
C604 C 0.48111 0.65635 0.90632 0.0
C605 C 0.52838 0.71466 0.94109 0.0
C606 C 0.47217 0.57249 0.79578 0.0
C607 C 0.47191 0.59315 0.81461 0.0
C608 C 0.50353 0.64139 0.79269 0.0
C609 C 0.5008 0.69076 0.89647 0.0
C610 C 0.49498 0.66983 0.86833 0.0
C611 C 0.49065 0.60558 0.82019 0.0
C612 C 0.4907 0.62782 0.83338 0.0
H613 H 0.4812 0.72525 0.00997 0.0
H614 H 0.46966 0.69681 0.93198 0.0
H615 H 0.51605 0.67218 0.77856 0.0
H616 H 0.52473 0.56997 0.78411 0.0
H617 H 0.52425 0.60593 0.81694 0.0
C618 C 0.7849 0.52506 0.95963 0.0
C619 C 0.77703 0.50644 0.98741 0.0
C620 C 0.80241 0.52591 0.91494 0.0
C621 C 0.84092 0.49479 0.82301 0.0
H622 H 0.881 0.53415 0.90983 0.0
C623 C 0.92867 0.48653 0.79853 0.0
C624 C 0.9417 0.50423 0.78494 0.0
C625 C 0.90779 0.48784 0.81793 0.0
C626 C 0.87002 0.52326 0.88422 0.0
H627 H 0.77933 0.47391 0.9843 0.0
H628 H 0.80958 0.47523 0.90558 0.0
H629 H 0.84417 0.53511 0.93835 0.0
H630 H 0.94352 0.53722 0.78448 0.0
H631 H 0.90711 0.53953 0.81848 0.0
H632 H 0.86693 0.48264 0.77017 0.0
C633 C 0.80246 0.48922 0.91786 0.0
C634 C 0.84884 0.5239 0.90015 0.0
C635 C 0.78502 0.4884 0.96262 0.0
C636 C 0.93384 0.52332 0.79511 0.0
C637 C 0.91295 0.52463 0.81437 0.0
C638 C 0.86213 0.49418 0.80694 0.0
C639 C 0.81219 0.50812 0.89758 0.0
C640 C 0.83407 0.50944 0.87074 0.0
C641 C 0.89954 0.50688 0.824 0.0
C642 C 0.87695 0.50816 0.83847 0.0
H643 H 0.77911 0.53917 0.97879 0.0
H644 H 0.80935 0.54066 0.89894 0.0
H645 H 0.82992 0.48353 0.79922 0.0
H646 H 0.93434 0.47162 0.79097 0.0
H647 H 0.89799 0.4739 0.82668 0.0
C648 C 0.98971 0.19671 0.95295 0.0
C649 C 0.00624 0.21211 0.95329 0.0
C650 C 0.99132 0.17881 0.91368 0.0
C651 C 0.01527 0.1524 0.77202 0.0
H652 H 0.01663 0.10777 0.89787 0.0
C653 C 0.03082 0.07232 0.66859 0.0
C654 C 0.01931 0.05573 0.69935 0.0
C655 C 0.0312 0.09175 0.69955 0.0
C656 C 0.016 0.11992 0.86175 0.0
H657 H 0.03641 0.22178 0.9072 0.0
H658 H 0.03884 0.19052 0.83605 0.0
H659 H 0.01145 0.14183 0.94385 0.0
H660 H 0.99961 0.04617 0.7873 0.0
H661 H 0.99952 0.08017 0.84038 0.0
H662 H 0.01879 0.13053 0.68951 0.0
C663 C 0.02487 0.19232 0.86739 0.0
C664 C 0.01315 0.13943 0.88823 0.0
C665 C 0.0234 0.21022 0.90762 0.0
C666 C 0.00884 0.0587 0.76308 0.0
C667 C 0.00884 0.07824 0.79341 0.0
C668 C 0.01769 0.13276 0.74525 0.0
C669 C 0.00927 0.17616 0.87291 0.0
C670 C 0.01266 0.15577 0.84359 0.0
C671 C 0.01965 0.09513 0.76121 0.0
C672 C 0.01802 0.11621 0.7898 0.0
H673 H 0.97618 0.19791 0.98703 0.0
H674 H 0.97901 0.16658 0.91793 0.0
H675 H 0.01489 0.16483 0.73682 0.0
H676 H 0.03914 0.07037 0.61952 0.0
H677 H 0.04021 0.10419 0.67418 0.0
C678 C 0.31728 0.05641 0.91857 0.0
C679 C 0.30424 0.03828 0.92202 0.0
C680 C 0.33545 0.05734 0.87703 0.0
C681 C 0.3659 0.02786 0.74589 0.0
H682 H 0.4129 0.05572 0.84013 0.0
C683 C 0.45081 0.0089 0.69666 0.0
C684 C 0.46616 0.02526 0.6902 0.0
C685 C 0.43034 0.01237 0.71563 0.0
C686 C 0.39992 0.04811 0.81261 0.0
H687 H 0.29929 0.00717 0.88336 0.0
H688 H 0.33124 0.00845 0.81213 0.0
H689 H 0.37787 0.05882 0.88653 0.0
H690 H 0.47234 0.05803 0.70018 0.0
H691 H 0.43656 0.06411 0.73544 0.0
H692 H 0.38834 0.01635 0.67397 0.0
C693 C 0.32733 0.02222 0.83961 0.0
C694 C 0.37975 0.04996 0.83894 0.0
C695 C 0.30897 0.02143 0.88036 0.0
C696 C 0.46078 0.04515 0.70465 0.0
C697 C 0.44034 0.04862 0.72466 0.0
C698 C 0.38613 0.02581 0.72004 0.0
C699 C 0.34121 0.03997 0.83943 0.0
C700 C 0.36244 0.03965 0.80654 0.0
C701 C 0.42489 0.03226 0.73002 0.0
C702 C 0.40335 0.03571 0.75372 0.0
H703 H 0.31395 0.06954 0.95085 0.0
H704 H 0.34543 0.07143 0.87689 0.0
H705 H 0.353 0.01997 0.71879 0.0
H706 H 0.45467 0.99337 0.68772 0.0
H707 H 0.41887 0.99943 0.72071 0.0
C708 C 0.47117 0.29671 0.90314 0.0
C709 C 0.49102 0.291 0.91685 0.0
C710 C 0.46901 0.31431 0.86616 0.0
C711 C 0.47184 0.36033 0.84374 0.0
H712 H 0.50602 0.37651 0.68264 0.0
C713 C 0.48663 0.44399 0.75204 0.0
C714 C 0.487 0.44673 0.68005 0.0
C715 C 0.48486 0.4243 0.77856 0.0
C716 C 0.49623 0.37217 0.72733 0.0
H717 H 0.52408 0.2984 0.9004 0.0
H718 H 0.52039 0.32875 0.83397 0.0
H719 H 0.50692 0.34233 0.7267 0.0
H720 H 0.48461 0.43084 0.5798 0.0
H721 H 0.48153 0.3969 0.62596 0.0
H722 H 0.46139 0.39035 0.84484 0.0
C723 C 0.50647 0.31974 0.85155 0.0
C724 C 0.49685 0.35263 0.75274 0.0
C725 C 0.50862 0.30233 0.8892 0.0
C726 C 0.48467 0.4294 0.63555 0.0
C727 C 0.48298 0.40986 0.66191 0.0
C728 C 0.47136 0.37998 0.81865 0.0
C729 C 0.48668 0.32634 0.84179 0.0
C730 C 0.48475 0.3465 0.81141 0.0
C731 C 0.48349 0.40704 0.73355 0.0
C732 C 0.48361 0.38613 0.76026 0.0
H733 H 0.45742 0.28841 0.92522 0.0
H734 H 0.45357 0.31893 0.85883 0.0
H735 H 0.46255 0.35614 0.88966 0.0
H736 H 0.4884 0.45699 0.78771 0.0
H737 H 0.48535 0.4226 0.8341 0.0
C738 C 0.21416 0.49365 0.87577 0.0
C739 C 0.21693 0.47647 0.91441 0.0
C740 C 0.19604 0.49451 0.83836 0.0
C741 C 0.1414 0.47282 0.84599 0.0
H742 H 0.13727 0.50158 0.67569 0.0
C743 C 0.06279 0.49591 0.74949 0.0
C744 C 0.05971 0.49412 0.67776 0.0
C745 C 0.08226 0.49311 0.77617 0.0
C746 C 0.13813 0.49335 0.72305 0.0
H747 H 0.20397 0.44616 0.94015 0.0
H748 H 0.17275 0.44726 0.87277 0.0
H749 H 0.17145 0.49661 0.71903 0.0
H750 H 0.07462 0.48739 0.57808 0.0
H751 H 0.10809 0.48226 0.62449 0.0
H752 H 0.1081 0.46931 0.8496 0.0
C753 C 0.18419 0.46031 0.8727 0.0
C754 C 0.15776 0.49066 0.74817 0.0
C755 C 0.20219 0.45953 0.91035 0.0
C756 C 0.0764 0.48911 0.63362 0.0
C757 C 0.09573 0.48628 0.66017 0.0
C758 C 0.12178 0.47549 0.82087 0.0
C759 C 0.18043 0.47816 0.8389 0.0
C760 C 0.15965 0.48034 0.80996 0.0
C761 C 0.09901 0.48842 0.73166 0.0
C762 C 0.11989 0.48579 0.75907 0.0
H763 H 0.22514 0.50704 0.87919 0.0
H764 H 0.19365 0.50853 0.81315 0.0
H765 H 0.14222 0.46514 0.8945 0.0
H766 H 0.05031 0.49981 0.78487 0.0
H767 H 0.0843 0.49503 0.83153 0.0
C768 C 0.94124 0.80827 0.17004 0.0
C769 C 0.95459 0.7937 0.18827 0.0
C770 C 0.94018 0.82622 0.20962 0.0
C771 C 0.95473 0.85337 0.37326 0.0
H772 H 0.96931 0.89932 0.25493 0.0
C773 C 0.99226 0.92898 0.48258 0.0
C774 C 0.98745 0.94741 0.45498 0.0
C775 C 0.98518 0.91039 0.45181 0.0
C776 C 0.96481 0.8868 0.28884 0.0
H777 H 0.9756 0.78548 0.26588 0.0
H778 H 0.97343 0.81677 0.3361 0.0
H779 H 0.96025 0.86573 0.20307 0.0
H780 H 0.97156 0.96083 0.37303 0.0
H781 H 0.95872 0.92814 0.3195 0.0
H782 H 0.95935 0.87436 0.4591 0.0
C783 C 0.96392 0.81435 0.29086 0.0
C784 C 0.95964 0.86752 0.25906 0.0
C785 C 0.96509 0.79639 0.2509 0.0
C786 C 0.97563 0.94686 0.39507 0.0
C787 C 0.96829 0.92812 0.36454 0.0
C788 C 0.95965 0.87271 0.4031 0.0
C789 C 0.95227 0.82985 0.26856 0.0
C790 C 0.95497 0.85054 0.30095 0.0
C791 C 0.97284 0.90965 0.39303 0.0
C792 C 0.9653 0.88958 0.36125 0.0
H793 H 0.93278 0.80642 0.12235 0.0
H794 H 0.93079 0.83777 0.19201 0.0
H795 H 0.95102 0.84057 0.40669 0.0
H796 H 1.00156 0.92887 0.52829 0.0
H797 H 0.98957 0.89657 0.47404 0.0
C798 C 0.69872 0.99476 0.24953 0.0
C799 C 0.70755 0.97727 0.22346 0.0
C800 C 0.68101 0.99305 0.29306 0.0
C801 C 0.6347 0.95849 0.32314 0.0
H802 H 0.6238 0.997 0.47288 0.0
C803 C 0.55278 0.96165 0.45474 0.0
C804 C 0.54649 0.98132 0.46678 0.0
C805 C 0.57346 0.95893 0.43499 0.0
C806 C 0.62656 0.98617 0.43098 0.0
H807 H 0.70543 0.94434 0.22462 0.0
H808 H 0.67424 0.94127 0.30094 0.0
H809 H 0.65903 0.99615 0.42393 0.0
H810 H 0.55654 0.01353 0.46554 0.0
H811 H 0.59239 0.0089 0.43109 0.0
H812 H 0.6021 0.94908 0.32811 0.0
C813 C 0.68106 0.9563 0.28763 0.0
C814 C 0.64676 0.98564 0.40318 0.0
C815 C 0.69899 0.95804 0.24461 0.0
C816 C 0.56109 0.99818 0.45804 0.0
C817 C 0.58167 0.9955 0.4385 0.0
C818 C 0.61445 0.95908 0.35074 0.0
C819 C 0.67159 0.97379 0.31089 0.0
C820 C 0.65097 0.97215 0.34777 0.0
C821 C 0.58817 0.97585 0.42688 0.0
C822 C 0.61004 0.97333 0.4037 0.0
H823 H 0.70502 0.00974 0.23373 0.0
H824 H 0.67401 0.0068 0.30946 0.0
H825 H 0.63738 0.94807 0.27996 0.0
H826 H 0.5418 0.94839 0.46126 0.0
H827 H 0.57797 0.94359 0.42671 0.0
C828 C 0.55229 0.69931 0.1974 0.0
C829 C 0.53851 0.71393 0.21721 0.0
C830 C 0.55328 0.68197 0.23631 0.0
C831 C 0.5394 0.65702 0.401 0.0
H832 H 0.52827 0.60872 0.28353 0.0
C833 C 0.51323 0.57859 0.51471 0.0
C834 C 0.51902 0.56085 0.47974 0.0
C835 C 0.51771 0.59768 0.48568 0.0
C836 C 0.53182 0.62191 0.31722 0.0
H837 H 0.51635 0.72282 0.29648 0.0
H838 H 0.51838 0.69251 0.36582 0.0
H839 H 0.5338 0.64193 0.23169 0.0
H840 H 0.53454 0.54929 0.38753 0.0
H841 H 0.54308 0.58268 0.33772 0.0
H842 H 0.53771 0.63703 0.4866 0.0
C843 C 0.5283 0.69448 0.31976 0.0
C844 C 0.5349 0.64101 0.28739 0.0
C845 C 0.52721 0.71186 0.28037 0.0
C846 C 0.5297 0.56266 0.41543 0.0
C847 C 0.53449 0.58183 0.38679 0.0
C848 C 0.53663 0.63784 0.43092 0.0
C849 C 0.54063 0.67895 0.29623 0.0
C850 C 0.53857 0.65877 0.32891 0.0
C851 C 0.52841 0.59962 0.42127 0.0
C852 C 0.53257 0.62001 0.38946 0.0
H853 H 0.56131 0.70066 0.14918 0.0
H854 H 0.56319 0.67042 0.21767 0.0
H855 H 0.5423 0.67047 0.43414 0.0
H856 H 0.50483 0.57776 0.56419 0.0
H857 H 0.51234 0.61085 0.5133 0.0
C858 C 0.7914 0.5207 0.28463 0.0
C859 C 0.78693 0.50435 0.23744 0.0
C860 C 0.8095 0.52172 0.32342 0.0
C861 C 0.86169 0.51135 0.29706 0.0
H862 H 0.86964 0.51044 0.49494 0.0
C863 C 0.94281 0.50517 0.4075 0.0
C864 C 0.94723 0.51392 0.47311 0.0
C865 C 0.92281 0.50502 0.38144 0.0
C866 C 0.86777 0.51115 0.43957 0.0
H867 H 0.79663 0.47534 0.19891 0.0
H868 H 0.82827 0.47733 0.26565 0.0
H869 H 0.83438 0.50791 0.45076 0.0
H870 H 0.93453 0.53025 0.56154 0.0
H871 H 0.90007 0.53095 0.51487 0.0
H872 H 0.89476 0.51521 0.28485 0.0
C873 C 0.8179 0.48933 0.2724 0.0
C874 C 0.84755 0.50955 0.41451 0.0
C875 C 0.79979 0.48819 0.23453 0.0
C876 C 0.93152 0.52323 0.51093 0.0
C877 C 0.91167 0.52344 0.48439 0.0
C878 C 0.88185 0.51334 0.32197 0.0
C879 C 0.8233 0.50645 0.31499 0.0
C880 C 0.84441 0.50934 0.34303 0.0
C881 C 0.90686 0.51397 0.41985 0.0
C882 C 0.88525 0.51297 0.39357 0.0
H883 H 0.78186 0.53343 0.28739 0.0
H884 H 0.81345 0.53507 0.35608 0.0
H885 H 0.85956 0.51141 0.2416 0.0
H886 H 0.95454 0.49766 0.37758 0.0
H887 H 0.91975 0.49726 0.33211 0.0
loop_
_geom_bond_atom_site_label_1
_geom_bond_atom_site_label_2
_geom_bond_distance
_geom_bond_site_symmetry_2
_ccdc_geom_bond_type
H0 C3 0.929 . S
H1 C6 0.929 1_556 S
H2 C8 0.930 . S
C3 H0 0.929 . S
C3 C4 1.398 . S
C3 C5 1.396 . S
C4 C3 1.398 . S
C4 C8 1.407 . S
C5 C3 1.396 . S
C5 C6 1.394 . S
C6 H1 0.929 1_554 S
C6 C5 1.394 . S
C6 C7 1.382 . S
C7 C6 1.382 . S
C7 C8 1.392 . S
C7 N9 1.420 . S
C8 H2 0.930 . S
C8 C4 1.407 . S
C8 C7 1.392 . S
N9 C7 1.420 . S
N9 C10 1.244 . S
C10 N9 1.244 . S
H11 C14 0.929 . S
H12 C17 0.929 . S
H13 C19 0.930 . S
C14 H11 0.929 . S
C14 C15 1.393 1_655 S
C14 C16 1.395 1_654 S
C15 C14 1.393 1_455 S
C15 C19 1.416 . S
C16 C14 1.395 1_456 S
C16 C17 1.397 . S
C17 H12 0.929 . S
C17 C16 1.397 . S
C17 C18 1.382 1_556 S
C18 C17 1.382 1_554 S
C18 C19 1.392 . S
C18 N20 1.420 . S
C19 H13 0.930 . S
C19 C15 1.416 . S
C19 C18 1.392 . S
N20 C18 1.420 . S
N20 C21 1.232 1_454 S
C21 N20 1.232 1_656 S
H22 C25 0.929 . S
H23 C28 0.929 . S
H24 C30 0.930 . S
C25 H22 0.929 . S
C25 C26 1.398 . S
C25 C27 1.396 1_554 S
C26 C25 1.398 . S
C26 C30 1.407 . S
C27 C25 1.396 1_556 S
C27 C28 1.394 . S
C28 H23 0.929 . S
C28 C27 1.394 . S
C28 C29 1.382 1_556 S
C29 C28 1.382 1_554 S
C29 C30 1.392 . S
C29 N31 1.420 . S
C30 H24 0.930 . S
C30 C26 1.407 . S
C30 C29 1.392 . S
N31 C29 1.420 . S
N31 C32 1.244 1_554 S
C32 N31 1.244 1_556 S
H33 C36 0.929 . S
H34 C39 0.929 . S
H35 C41 0.930 . S
C36 H33 0.929 . S
C36 C37 1.398 . S
C36 C38 1.396 . S
C37 C36 1.398 . S
C37 C41 1.407 . S
C38 C36 1.396 . S
C38 C39 1.394 . S
C39 H34 0.929 . S
C39 C38 1.394 . S
C39 C40 1.382 . S
C40 C39 1.382 . S
C40 C41 1.392 . S
C40 N42 1.420 . S
C41 H35 0.930 . S
C41 C37 1.407 . S
C41 C40 1.392 . S
N42 C40 1.420 . S
N42 C43 1.244 . S
C43 N42 1.244 . S
H44 C47 0.929 . S
H45 C50 0.929 . S
H46 C52 0.930 1_556 S
C47 H44 0.929 . S
C47 C48 1.398 . S
C47 C49 1.396 . S
C48 C47 1.398 . S
C48 C52 1.407 . S
C49 C47 1.396 . S
C49 C50 1.394 . S
C50 H45 0.929 . S
C50 C49 1.394 . S
C50 C51 1.382 . S
C51 C50 1.382 . S
C51 C52 1.392 . S
C51 N53 1.420 . S
C52 H46 0.930 1_554 S
C52 C48 1.407 . S
C52 C51 1.392 . S
N53 C51 1.420 . S
N53 C54 1.244 . S
C54 N53 1.244 . S
H55 C58 0.929 . S
H56 C61 0.929 . S
H57 C63 0.930 . S
C58 H55 0.929 . S
C58 C59 1.398 1_655 S
C58 C60 1.394 1_655 S
C59 C58 1.398 1_455 S
C59 C63 1.412 . S
C60 C58 1.394 1_455 S
C60 C61 1.396 . S
C61 H56 0.929 . S
C61 C60 1.396 . S
C61 C62 1.382 . S
C62 C61 1.382 . S
C62 C63 1.392 . S
C62 N64 1.420 . S
C63 H57 0.930 . S
C63 C59 1.412 . S
C63 C62 1.392 . S
N64 C62 1.420 . S
N64 C65 1.237 1_455 S
C65 N64 1.237 1_655 S
H66 C69 0.929 . S
H67 C72 0.929 . S
H68 C74 0.930 . S
C69 H66 0.929 . S
C69 C70 1.398 . S
C69 C71 1.396 . S
C70 C69 1.398 . S
C70 C74 1.407 . S
C71 C69 1.396 . S
C71 C72 1.394 . S
C72 H67 0.929 . S
C72 C71 1.394 . S
C72 C73 1.382 . S
C73 C72 1.382 . S
C73 C74 1.392 . S
C73 N75 1.420 . S
C74 H68 0.930 . S
C74 C70 1.407 . S
C74 C73 1.392 . S
N75 C73 1.420 . S
N75 C76 1.244 . S
C76 N75 1.244 . S
H77 C80 0.929 . S
H78 C83 0.929 . S
H79 C85 0.930 . S
C80 H77 0.929 . S
C80 C81 1.398 1_554 S
C80 C82 1.396 . S
C81 C80 1.398 1_556 S
C81 C85 1.407 . S
C82 C80 1.396 . S
C82 C83 1.394 . S
C83 H78 0.929 . S
C83 C82 1.394 . S
C83 C84 1.382 . S
C84 C83 1.382 . S
C84 C85 1.392 1_554 S
C84 N86 1.420 . S
C85 H79 0.930 . S
C85 C81 1.407 . S
C85 C84 1.392 1_556 S
N86 C84 1.420 . S
N86 C87 1.244 . S
C87 N86 1.244 . S
Dy88 O92 2.398 . S
Dy88 O93 2.491 1_455 S
Dy88 O94 2.403 . S
Dy88 O95 2.664 1_565 S
Dy88 O99 2.326 . S
Dy88 O103 2.310 1_455 S
Dy88 O104 2.351 1_565 S
C89 O100 1.185 . S
C89 O101 1.355 1_655 S
C90 O92 1.185 . S
C90 O93 1.355 1_455 S
Dy91 O95 2.310 1_655 S
Dy91 O98 2.351 1_545 S
Dy91 O100 2.398 . S
Dy91 O101 2.491 1_655 S
Dy91 O102 2.403 . S
Dy91 O103 2.664 1_545 S
Dy91 O105 2.326 . S
O92 Dy88 2.398 . S
O92 C90 1.185 . S
O93 Dy88 2.491 1_655 S
O93 C90 1.355 1_655 S
O94 Dy88 2.403 . S
O94 C96 1.254 1_565 S
O95 Dy88 2.664 1_545 S
O95 Dy91 2.310 1_455 S
O95 C96 1.268 . S
C96 O94 1.254 1_545 S
C96 O95 1.268 . S
C97 O102 1.254 1_565 S
C97 O103 1.268 . S
O98 Dy91 2.351 1_565 S
O98 C106 1.249 . S
O99 Dy88 2.326 . S
O99 C106 1.267 1_455 S
O100 C89 1.185 . S
O100 Dy91 2.398 . S
O101 C89 1.355 1_455 S
O101 Dy91 2.491 1_455 S
O102 Dy91 2.403 . S
O102 C97 1.254 1_545 S
O103 Dy88 2.310 1_655 S
O103 Dy91 2.664 1_565 S
O103 C97 1.268 . S
O104 Dy88 2.351 1_545 S
O104 C107 1.249 . S
O105 Dy91 2.326 . S
O105 C107 1.267 1_655 S
C106 O98 1.249 . S
C106 O99 1.267 1_655 S
C107 O104 1.249 . S
C107 O105 1.267 1_455 S
Dy108 O112 2.398 . S
Dy108 O113 2.491 1_565 S
Dy108 O114 2.403 . S
Dy108 O115 2.664 . S
Dy108 O119 2.326 1_565 S
Dy108 O123 2.310 1_565 S
Dy108 O124 2.351 . S
C109 O120 1.189 . S
C109 O121 1.354 1_545 S
C110 O112 1.185 1_545 S
C110 O113 1.355 . S
Dy111 O115 2.310 1_545 S
Dy111 O118 2.351 . S
Dy111 O120 2.398 . S
Dy111 O121 2.491 1_545 S
Dy111 O122 2.403 . S
Dy111 O123 2.664 . S
Dy111 O125 2.326 1_545 S
O112 Dy108 2.398 . S
O112 C110 1.185 1_565 S
O113 Dy108 2.491 1_545 S
O113 C110 1.355 . S
O114 Dy108 2.403 . S
O114 C116 1.254 . S
O115 Dy108 2.664 . S
O115 Dy111 2.310 1_565 S
O115 C116 1.268 . S
C116 O114 1.254 . S
C116 O115 1.268 . S
C117 O122 1.254 . S
C117 O123 1.268 . S
O118 Dy111 2.351 . S
O118 C126 1.249 . S
O119 Dy108 2.326 1_545 S
O119 C126 1.267 . S
O120 C109 1.189 . S
O120 Dy111 2.398 . S
O121 C109 1.354 1_565 S
O121 Dy111 2.491 1_565 S
O122 Dy111 2.403 . S
O122 C117 1.254 . S
O123 Dy108 2.310 1_545 S
O123 Dy111 2.664 . S
O123 C117 1.268 . S
O124 Dy108 2.351 . S
O124 C127 1.249 . S
O125 Dy111 2.326 1_565 S
O125 C127 1.267 . S
C126 O118 1.249 . S
C126 O119 1.267 . S
C127 O124 1.249 . S
C127 O125 1.267 . S
Dy128 O132 2.398 . S
Dy128 O133 2.491 . S
Dy128 O134 2.403 . S
Dy128 O135 2.664 . S
Dy128 O139 2.326 . S
Dy128 O143 2.310 . S
Dy128 O144 2.351 . S
C129 O140 1.185 . S
C129 O141 1.355 . S
C130 O132 1.185 . S
C130 O133 1.355 . S
Dy131 O135 2.310 . S
Dy131 O138 2.351 . S
Dy131 O140 2.398 . S
Dy131 O141 2.491 . S
Dy131 O142 2.403 . S
Dy131 O143 2.664 . S
Dy131 O145 2.326 . S
O132 Dy128 2.398 . S
O132 C130 1.185 . S
O133 Dy128 2.491 . S
O133 C130 1.355 . S
O134 Dy128 2.403 . S
O134 C136 1.254 . S
O135 Dy128 2.664 . S
O135 Dy131 2.310 . S
O135 C136 1.268 . S
C136 O134 1.254 . S
C136 O135 1.268 . S
C137 O142 1.254 . S
C137 O143 1.268 . S
O138 Dy131 2.351 . S
O138 C146 1.249 . S
O139 Dy128 2.326 . S
O139 C146 1.267 . S
O140 C129 1.185 . S
O140 Dy131 2.398 . S
O141 C129 1.355 . S
O141 Dy131 2.491 . S
O142 Dy131 2.403 . S
O142 C137 1.254 . S
O143 Dy128 2.310 . S
O143 Dy131 2.664 . S
O143 C137 1.268 . S
O144 Dy128 2.351 . S
O144 C147 1.249 . S
O145 Dy131 2.326 . S
O145 C147 1.267 . S
C146 O138 1.249 . S
C146 O139 1.267 . S
C147 O144 1.249 . S
C147 O145 1.267 . S
Dy148 O152 2.398 . S
Dy148 O153 2.491 . S
Dy148 O154 2.403 . S
Dy148 O155 2.664 1_655 S
Dy148 O159 2.326 . S
Dy148 O163 2.310 . S
Dy148 O164 2.351 1_655 S
C149 O160 1.185 . S
C149 O161 1.355 . S
C150 O152 1.185 . S
C150 O153 1.355 . S
Dy151 O155 2.310 . S
Dy151 O158 2.351 1_455 S
Dy151 O160 2.398 . S
Dy151 O161 2.491 . S
Dy151 O162 2.403 . S
Dy151 O163 2.664 1_455 S
Dy151 O165 2.326 . S
O152 Dy148 2.398 . S
O152 C150 1.185 . S
O153 Dy148 2.491 . S
O153 C150 1.355 . S
O154 Dy148 2.403 . S
O154 C156 1.254 . S
O155 Dy148 2.664 1_455 S
O155 Dy151 2.310 . S
O155 C156 1.268 1_455 S
C156 O154 1.254 . S
C156 O155 1.268 1_655 S
C157 O162 1.254 . S
C157 O163 1.268 1_455 S
O158 Dy151 2.351 1_655 S
O158 C166 1.249 . S
O159 Dy148 2.326 . S
O159 C166 1.267 . S
O160 C149 1.185 . S
O160 Dy151 2.398 . S
O161 C149 1.355 . S
O161 Dy151 2.491 . S
O162 Dy151 2.403 . S
O162 C157 1.254 . S
O163 Dy148 2.310 . S
O163 Dy151 2.664 1_655 S
O163 C157 1.268 1_655 S
O164 Dy148 2.351 1_455 S
O164 C167 1.249 . S
O165 Dy151 2.326 . S
O165 C167 1.267 . S
C166 O158 1.249 . S
C166 O159 1.267 . S
C167 O164 1.249 . S
C167 O165 1.267 . S
C168 C169 1.349 . S
C168 C170 1.327 . S
C168 H193 0.950 . S
C169 C168 1.349 . S
C169 C185 1.349 . S
C170 C168 1.327 . S
C170 C189 1.429 . S
C170 H194 0.950 . S
C171 C188 1.574 . S
C171 C190 1.368 . S
C171 H195 0.949 . S
H172 C176 0.949 1_565 S
C173 C174 1.349 . S
C173 C175 1.327 . S
C173 H196 0.950 . S
C174 C173 1.349 . S
C174 C186 1.349 1_545 S
C175 C173 1.327 . S
C175 C191 1.429 . S
C175 H197 0.950 . S
C176 H172 0.949 1_545 S
C176 C184 1.574 . S
C176 C192 1.368 . S
H177 C185 0.950 . S
H178 C183 0.950 . S
H179 C184 0.949 . S
H180 C186 0.950 . S
H181 C187 0.950 1_565 S
H182 C188 0.949 . S
C183 H178 0.950 . S
C183 C185 1.327 . S
C183 C189 1.429 . S
C184 C176 1.574 . S
C184 H179 0.949 . S
C184 C190 1.368 . S
C185 C169 1.349 . S
C185 H177 0.950 . S
C185 C183 1.327 . S
C186 C174 1.349 1_565 S
C186 H180 0.950 . S
C186 C187 1.327 1_565 S
C187 H181 0.950 1_545 S
C187 C186 1.327 1_545 S
C187 C191 1.429 . S
C188 C171 1.574 . S
C188 H182 0.949 . S
C188 C192 1.368 . S
C189 C170 1.429 . S
C189 C183 1.429 . S
C189 C190 1.523 . S
C190 C171 1.368 . S
C190 C184 1.368 . S
C190 C189 1.523 . S
C191 C175 1.429 . S
C191 C187 1.429 . S
C191 C192 1.523 . S
C192 C176 1.368 . S
C192 C188 1.368 . S
C192 C191 1.523 . S
H193 C168 0.950 . S
H194 C170 0.950 . S
H195 C171 0.949 . S
H196 C173 0.950 . S
H197 C175 0.950 . S
C198 C199 1.349 . S
C198 C200 1.327 . S
C198 H223 0.950 . S
C199 C198 1.349 . S
C199 C215 1.349 . S
C200 C198 1.327 . S
C200 C219 1.429 . S
C200 H224 0.950 . S
C201 C218 1.574 . S
C201 C220 1.368 . S
C201 H225 0.949 . S
H202 C206 0.949 . S
C203 C204 1.349 . S
C203 C205 1.327 . S
C203 H226 0.950 . S
C204 C203 1.349 . S
C204 C216 1.349 . S
C205 C203 1.327 . S
C205 C221 1.429 . S
C205 H227 0.950 . S
C206 H202 0.949 . S
C206 C214 1.574 . S
C206 C222 1.368 . S
H207 C215 0.950 . S
H208 C213 0.950 . S
H209 C214 0.949 . S
H210 C216 0.950 . S
H211 C217 0.950 . S
H212 C218 0.949 . S
C213 H208 0.950 . S
C213 C215 1.327 . S
C213 C219 1.429 . S
C214 C206 1.574 . S
C214 H209 0.949 . S
C214 C220 1.368 . S
C215 C199 1.349 . S
C215 H207 0.950 . S
C215 C213 1.327 . S
C216 C204 1.349 . S
C216 H210 0.950 . S
C216 C217 1.327 . S
C217 H211 0.950 . S
C217 C216 1.327 . S
C217 C221 1.429 . S
C218 C201 1.574 . S
C218 H212 0.949 . S
C218 C222 1.368 . S
C219 C200 1.429 . S
C219 C213 1.429 . S
C219 C220 1.523 . S
C220 C201 1.368 . S
C220 C214 1.368 . S
C220 C219 1.523 . S
C221 C205 1.429 . S
C221 C217 1.429 . S
C221 C222 1.523 . S
C222 C206 1.368 . S
C222 C218 1.368 . S
C222 C221 1.523 . S
H223 C198 0.950 . S
H224 C200 0.950 . S
H225 C201 0.949 . S
H226 C203 0.950 . S
H227 C205 0.950 . S
C228 C229 1.349 . S
C228 C230 1.327 . S
C228 H253 0.950 . S
C229 C228 1.349 . S
C229 C245 1.349 . S
C230 C228 1.327 . S
C230 C249 1.429 . S
C230 H254 0.950 . S
C231 C248 1.574 . S
C231 C250 1.368 . S
C231 H255 0.949 . S
H232 C236 0.949 . S
C233 C234 1.349 . S
C233 C235 1.327 . S
C233 H256 0.950 . S
C234 C233 1.349 . S
C234 C246 1.349 . S
C235 C233 1.327 . S
C235 C251 1.429 . S
C235 H257 0.950 . S
C236 H232 0.949 . S
C236 C244 1.574 . S
C236 C252 1.368 . S
H237 C245 0.950 . S
H238 C243 0.950 . S
H239 C244 0.949 . S
H240 C246 0.950 . S
H241 C247 0.950 . S
H242 C248 0.949 . S
C243 H238 0.950 . S
C243 C245 1.327 . S
C243 C249 1.429 . S
C244 C236 1.574 . S
C244 H239 0.949 . S
C244 C250 1.368 . S
C245 C229 1.349 . S
C245 H237 0.950 . S
C245 C243 1.327 . S
C246 C234 1.349 . S
C246 H240 0.950 . S
C246 C247 1.327 . S
C247 H241 0.950 . S
C247 C246 1.327 . S
C247 C251 1.429 . S
C248 C231 1.574 . S
C248 H242 0.949 . S
C248 C252 1.368 . S
C249 C230 1.429 . S
C249 C243 1.429 . S
C249 C250 1.523 . S
C250 C231 1.368 . S
C250 C244 1.368 . S
C250 C249 1.523 . S
C251 C235 1.429 . S
C251 C247 1.429 . S
C251 C252 1.523 . S
C252 C236 1.368 . S
C252 C248 1.368 . S
C252 C251 1.523 . S
H253 C228 0.950 . S
H254 C230 0.950 . S
H255 C231 0.949 . S
H256 C233 0.950 . S
H257 C235 0.950 . S
C258 C259 1.346 . S
C258 C260 1.327 . S
C258 H283 0.950 . S
C259 C258 1.346 . S
C259 C275 1.352 1_455 S
C260 C258 1.327 . S
C260 C279 1.423 1_455 S
C260 H284 0.950 . S
C261 C278 1.574 . S
C261 C280 1.383 . S
C261 H285 0.949 . S
H262 C266 0.949 . S
C263 C264 1.349 . S
C263 C265 1.327 . S
C263 H286 0.950 . S
C264 C263 1.349 . S
C264 C276 1.349 1_655 S
C265 C263 1.327 . S
C265 C281 1.461 . S
C265 H287 0.950 . S
C266 H262 0.949 . S
C266 C274 1.574 . S
C266 C282 1.341 1_455 S
H267 C275 0.950 . S
H268 C273 0.950 . S
H269 C274 0.949 . S
H270 C276 0.950 . S
H271 C277 0.950 . S
H272 C278 0.949 . S
C273 H268 0.950 . S
C273 C275 1.327 . S
C273 C279 1.434 . S
C274 C266 1.574 . S
C274 H269 0.949 . S
C274 C280 1.355 1_455 S
C275 C259 1.352 1_655 S
C275 H267 0.950 . S
C275 C273 1.327 . S
C276 C264 1.349 1_455 S
C276 H270 0.950 . S
C276 C277 1.327 . S
C277 H271 0.950 . S
C277 C276 1.327 . S
C277 C281 1.399 1_455 S
C278 C261 1.574 . S
C278 H272 0.949 . S
C278 C282 1.394 . S
C279 C260 1.423 1_655 S
C279 C273 1.434 . S
C279 C280 1.522 . S
C280 C261 1.383 . S
C280 C274 1.355 1_655 S
C280 C279 1.522 . S
C281 C265 1.461 . S
C281 C277 1.399 1_655 S
C281 C282 1.522 . S
C282 C266 1.341 1_655 S
C282 C278 1.394 . S
C282 C281 1.522 . S
H283 C258 0.950 . S
H284 C260 0.950 . S
H285 C261 0.949 . S
H286 C263 0.950 . S
H287 C265 0.950 . S
C288 C289 1.349 . S
C288 C290 1.327 . S
C288 H313 0.950 1_556 S
C289 C288 1.349 . S
C289 C305 1.349 . S
C290 C288 1.327 . S
C290 C309 1.429 . S
C290 H314 0.950 . S
C291 C308 1.574 . S
C291 C310 1.368 . S
C291 H315 0.949 . S
H292 C296 0.949 . S
C293 C294 1.349 . S
C293 C295 1.327 . S
C293 H316 0.950 . S
C294 C293 1.349 . S
C294 C306 1.349 . S
C295 C293 1.327 . S
C295 C311 1.429 . S
C295 H317 0.950 . S
C296 H292 0.949 . S
C296 C304 1.574 . S
C296 C312 1.368 . S
H297 C305 0.950 . S
H298 C303 0.950 . S
H299 C304 0.949 . S
H300 C306 0.957 . S
H301 C307 0.950 . S
H302 C308 0.949 . S
C303 H298 0.950 . S
C303 C305 1.327 . S
C303 C309 1.429 . S
C304 C296 1.574 . S
C304 H299 0.949 . S
C304 C310 1.368 . S
C305 C289 1.349 . S
C305 H297 0.950 . S
C305 C303 1.327 . S
C306 C294 1.349 . S
C306 H300 0.957 . S
C306 C307 1.327 . S
C307 H301 0.950 . S
C307 C306 1.327 . S
C307 C311 1.429 . S
C308 C291 1.574 . S
C308 H302 0.949 . S
C308 C312 1.368 . S
C309 C290 1.429 . S
C309 C303 1.429 . S
C309 C310 1.523 . S
C310 C291 1.368 . S
C310 C304 1.368 . S
C310 C309 1.523 . S
C311 C295 1.429 . S
C311 C307 1.429 . S
C311 C312 1.523 . S
C312 C296 1.368 . S
C312 C308 1.368 . S
C312 C311 1.523 . S
H313 C288 0.950 1_554 S
H314 C290 0.950 . S
H315 C291 0.949 . S
H316 C293 0.950 . S
H317 C295 0.950 . S
C318 C319 1.349 1_556 S
C318 C320 1.327 . S
C318 H343 0.950 . S
C319 C318 1.349 1_554 S
C319 C335 1.349 . S
C320 C318 1.327 . S
C320 C339 1.429 . S
C320 H344 0.950 . S
C321 C338 1.574 . S
C321 C340 1.368 . S
C321 H345 0.949 . S
H322 C326 0.949 . S
C323 C324 1.349 . S
C323 C325 1.327 . S
C323 H346 0.950 . S
C324 C323 1.349 . S
C324 C336 1.349 . S
C325 C323 1.327 . S
C325 C341 1.429 . S
C325 H347 0.950 . S
C326 H322 0.949 . S
C326 C334 1.574 . S
C326 C342 1.368 . S
H327 C335 0.950 . S
H328 C333 0.950 1_554 S
H329 C334 0.949 . S
H330 C336 0.950 . S
H331 C337 0.950 . S
H332 C338 0.949 . S
C333 H328 0.950 1_556 S
C333 C335 1.327 1_556 S
C333 C339 1.429 . S
C334 C326 1.574 . S
C334 H329 0.949 . S
C334 C340 1.368 . S
C335 C319 1.349 . S
C335 H327 0.950 . S
C335 C333 1.327 1_554 S
C336 C324 1.349 . S
C336 H330 0.950 . S
C336 C337 1.327 . S
C337 H331 0.950 . S
C337 C336 1.327 . S
C337 C341 1.429 . S
C338 C321 1.574 . S
C338 H332 0.949 . S
C338 C342 1.368 . S
C339 C320 1.429 . S
C339 C333 1.429 . S
C339 C340 1.523 . S
C340 C321 1.368 . S
C340 C334 1.368 . S
C340 C339 1.523 . S
C341 C325 1.429 . S
C341 C337 1.429 . S
C341 C342 1.523 . S
C342 C326 1.368 . S
C342 C338 1.368 . S
C342 C341 1.523 . S
H343 C318 0.950 . S
H344 C320 0.950 . S
H345 C321 0.949 . S
H346 C323 0.950 . S
H347 C325 0.950 . S
C348 C349 1.349 . S
C348 C350 1.327 . S
C348 H373 0.950 1_556 S
C349 C348 1.349 . S
C349 C365 1.349 . S
C350 C348 1.327 . S
C350 C369 1.429 . S
C350 H374 0.950 . S
C351 C368 1.574 . S
C351 C370 1.368 . S
C351 H375 0.949 . S
H352 C356 0.949 . S
C353 C354 1.349 . S
C353 C355 1.327 . S
C353 H376 0.950 . S
C354 C353 1.349 . S
C354 C366 1.349 . S
C355 C353 1.327 . S
C355 C371 1.429 . S
C355 H377 0.950 . S
C356 H352 0.949 . S
C356 C364 1.574 . S
C356 C372 1.368 . S
H357 C365 0.950 . S
H358 C363 0.950 . S
H359 C364 0.949 . S
H360 C366 0.950 . S
H361 C367 0.950 . S
H362 C368 0.949 . S
C363 H358 0.950 . S
C363 C365 1.327 . S
C363 C369 1.429 . S
C364 C356 1.574 . S
C364 H359 0.949 . S
C364 C370 1.368 . S
C365 C349 1.349 . S
C365 H357 0.950 . S
C365 C363 1.327 . S
C366 C354 1.349 . S
C366 H360 0.950 . S
C366 C367 1.327 . S
C367 H361 0.950 . S
C367 C366 1.327 . S
C367 C371 1.429 . S
C368 C351 1.574 . S
C368 H362 0.949 . S
C368 C372 1.368 . S
C369 C350 1.429 . S
C369 C363 1.429 . S
C369 C370 1.523 . S
C370 C351 1.368 . S
C370 C364 1.368 . S
C370 C369 1.523 . S
C371 C355 1.429 . S
C371 C367 1.429 . S
C371 C372 1.523 . S
C372 C356 1.368 . S
C372 C368 1.368 . S
C372 C371 1.523 . S
H373 C348 0.950 1_554 S
H374 C350 0.950 . S
H375 C351 0.949 . S
H376 C353 0.950 . S
H377 C355 0.950 . S
C378 C379 1.351 1_455 S
C378 C380 1.327 . S
C378 H403 0.950 . S
C379 C378 1.351 1_655 S
C379 C395 1.347 . S
C380 C378 1.327 . S
C380 C399 1.432 . S
C380 H404 0.950 . S
C381 C398 1.574 . S
C381 C400 1.359 1_655 S
C381 H405 0.949 . S
H382 C386 0.949 . S
C383 C384 1.349 1_655 S
C383 C385 1.327 . S
C383 H406 0.950 . S
C384 C383 1.349 1_455 S
C384 C396 1.349 . S
C385 C383 1.327 . S
C385 C401 1.408 1_655 S
C385 H407 0.950 . S
C386 H382 0.949 . S
C386 C394 1.574 . S
C386 C402 1.387 . S
H387 C395 0.950 1_554 S
H388 C393 0.950 . S
H389 C394 0.949 . S
H390 C396 0.950 . S
H391 C397 0.950 . S
H392 C398 0.949 . S
C393 H388 0.950 . S
C393 C395 1.327 . S
C393 C399 1.424 1_655 S
C394 C386 1.574 . S
C394 H389 0.949 . S
C394 C400 1.379 . S
C395 C379 1.347 . S
C395 H387 0.950 1_556 S
C395 C393 1.327 . S
C396 C384 1.349 . S
C396 H390 0.950 . S
C396 C397 1.327 . S
C397 H391 0.950 . S
C397 C396 1.327 . S
C397 C401 1.453 . S
C398 C381 1.574 . S
C398 H392 0.949 . S
C398 C402 1.348 1_655 S
C399 C380 1.432 . S
C399 C393 1.424 1_455 S
C399 C400 1.522 . S
C400 C381 1.359 1_455 S
C400 C394 1.379 . S
C400 C399 1.522 . S
C401 C385 1.408 1_455 S
C401 C397 1.453 . S
C401 C402 1.522 . S
C402 C386 1.387 . S
C402 C398 1.348 1_455 S
C402 C401 1.522 . S
H403 C378 0.950 . S
H404 C380 0.950 . S
H405 C381 0.949 . S
H406 C383 0.950 . S
H407 C385 0.950 . S
C408 C409 1.347 1_655 S
C408 C410 1.327 . S
C408 H433 0.950 . S
C409 C408 1.347 1_455 S
C409 C425 1.351 . S
C410 C408 1.327 . S
C410 C429 1.429 . S
C410 H434 0.950 . S
C411 C428 1.574 . S
C411 C430 1.368 1_455 S
C411 H435 0.949 . S
H412 C416 0.949 . S
C413 C414 1.349 . S
C413 C415 1.327 1_655 S
C413 H436 0.950 1_655 S
C414 C413 1.349 . S
C414 C426 1.349 . S
C415 C413 1.327 1_455 S
C415 C431 1.431 1_455 S
C415 H437 0.948 . S
C416 H412 0.949 . S
C416 C424 1.574 . S
C416 C432 1.368 . S
H417 C425 0.950 . S
H418 C423 0.950 . S
H419 C424 0.949 . S
H420 C426 0.950 . S
H421 C427 0.950 . S
H422 C428 0.949 . S
C423 H418 0.950 . S
C423 C425 1.327 . S
C423 C429 1.429 1_455 S
C424 C416 1.574 . S
C424 H419 0.949 . S
C424 C430 1.368 . S
C425 C409 1.351 . S
C425 H417 0.950 . S
C425 C423 1.327 . S
C426 C414 1.349 . S
C426 H420 0.950 . S
C426 C427 1.327 . S
C427 H421 0.950 . S
C427 C426 1.327 . S
C427 C431 1.429 . S
C428 C411 1.574 . S
C428 H422 0.949 . S
C428 C432 1.368 1_455 S
C429 C410 1.429 . S
C429 C423 1.429 1_655 S
C429 C430 1.523 . S
C430 C411 1.368 1_655 S
C430 C424 1.368 . S
C430 C429 1.523 . S
C431 C415 1.431 1_655 S
C431 C427 1.429 . S
C431 C432 1.523 . S
C432 C416 1.368 . S
C432 C428 1.368 1_655 S
C432 C431 1.523 . S
H433 C408 0.950 . S
H434 C410 0.950 . S
H435 C411 0.949 . S
H436 C413 0.950 1_455 S
H437 C415 0.948 . S
C438 C439 1.349 . S
C438 C440 1.327 . S
C438 H463 0.950 . S
C439 C438 1.349 . S
C439 C455 1.349 . S
C440 C438 1.327 . S
C440 C459 1.429 . S
C440 H464 0.950 . S
C441 C458 1.574 . S
C441 C460 1.368 . S
C441 H465 0.949 . S
H442 C446 0.949 . S
C443 C444 1.349 . S
C443 C445 1.327 . S
C443 H466 0.938 1_545 S
C444 C443 1.349 . S
C444 C456 1.349 . S
C445 C443 1.327 . S
C445 C461 1.429 . S
C445 H467 0.950 . S
C446 H442 0.949 . S
C446 C454 1.574 . S
C446 C462 1.368 . S
H447 C455 0.950 . S
H448 C453 0.950 . S
H449 C454 0.949 . S
H450 C456 0.950 . S
H451 C457 0.950 . S
H452 C458 0.949 . S
C453 H448 0.950 . S
C453 C455 1.327 . S
C453 C459 1.429 . S
C454 C446 1.574 . S
C454 H449 0.949 . S
C454 C460 1.368 . S
C455 C439 1.349 . S
C455 H447 0.950 . S
C455 C453 1.327 . S
C456 C444 1.349 . S
C456 H450 0.950 . S
C456 C457 1.327 . S
C457 H451 0.950 . S
C457 C456 1.327 . S
C457 C461 1.429 . S
C458 C441 1.574 . S
C458 H452 0.949 . S
C458 C462 1.368 . S
C459 C440 1.429 . S
C459 C453 1.429 . S
C459 C460 1.523 . S
C460 C441 1.368 . S
C460 C454 1.368 . S
C460 C459 1.523 . S
C461 C445 1.429 . S
C461 C457 1.429 . S
C461 C462 1.523 . S
C462 C446 1.368 . S
C462 C458 1.368 . S
C462 C461 1.523 . S
H463 C438 0.950 . S
H464 C440 0.950 . S
H465 C441 0.949 . S
H466 C443 0.938 1_565 S
H467 C445 0.950 . S
C468 C469 1.349 . S
C468 C470 1.327 . S
C468 H493 0.950 . S
C469 C468 1.349 . S
C469 C485 1.349 . S
C470 C468 1.327 . S
C470 C489 1.429 . S
C470 H494 0.950 . S
C471 C488 1.574 . S
C471 C490 1.368 . S
C471 H495 0.949 . S
H472 C476 0.949 . S
C473 C474 1.349 . S
C473 C475 1.327 . S
C473 H496 0.950 . S
C474 C473 1.349 . S
C474 C486 1.349 . S
C475 C473 1.327 . S
C475 C491 1.429 . S
C475 H497 0.950 . S
C476 H472 0.949 . S
C476 C484 1.574 . S
C476 C492 1.368 . S
H477 C485 0.950 . S
H478 C483 0.950 . S
H479 C484 0.949 . S
H480 C486 0.950 . S
H481 C487 0.950 . S
H482 C488 0.949 . S
C483 H478 0.950 . S
C483 C485 1.327 . S
C483 C489 1.429 . S
C484 C476 1.574 . S
C484 H479 0.949 . S
C484 C490 1.368 . S
C485 C469 1.349 . S
C485 H477 0.950 . S
C485 C483 1.327 . S
C486 C474 1.349 . S
C486 H480 0.950 . S
C486 C487 1.327 . S
C487 H481 0.950 . S
C487 C486 1.327 . S
C487 C491 1.429 . S
C488 C471 1.574 . S
C488 H482 0.949 . S
C488 C492 1.368 . S
C489 C470 1.429 . S
C489 C483 1.429 . S
C489 C490 1.523 . S
C490 C471 1.368 . S
C490 C484 1.368 . S
C490 C489 1.523 . S
C491 C475 1.429 . S
C491 C487 1.429 . S
C491 C492 1.523 . S
C492 C476 1.368 . S
C492 C488 1.368 . S
C492 C491 1.523 . S
H493 C468 0.950 . S
H494 C470 0.950 . S
H495 C471 0.949 . S
H496 C473 0.950 . S
H497 C475 0.950 . S
C498 C499 1.349 . S
C498 C500 1.327 . S
C498 H523 0.950 . S
C499 C498 1.349 . S
C499 C515 1.349 . S
C500 C498 1.327 . S
C500 C519 1.429 . S
C500 H524 0.950 . S
C501 C518 1.574 . S
C501 C520 1.368 . S
C501 H525 0.949 . S
H502 C506 0.949 . S
C503 C504 1.349 . S
C503 C505 1.327 . S
C503 H526 0.950 . S
C504 C503 1.349 . S
C504 C516 1.349 . S
C505 C503 1.327 . S
C505 C521 1.429 . S
C505 H527 0.950 . S
C506 H502 0.949 . S
C506 C514 1.574 . S
C506 C522 1.368 . S
H507 C515 0.950 . S
H508 C513 0.950 . S
H509 C514 0.949 . S
H510 C516 0.950 . S
H511 C517 0.950 . S
H512 C518 0.949 . S
C513 H508 0.950 . S
C513 C515 1.327 . S
C513 C519 1.429 . S
C514 C506 1.574 . S
C514 H509 0.949 . S
C514 C520 1.368 . S
C515 C499 1.349 . S
C515 H507 0.950 . S
C515 C513 1.327 . S
C516 C504 1.349 . S
C516 H510 0.950 . S
C516 C517 1.327 . S
C517 H511 0.950 . S
C517 C516 1.327 . S
C517 C521 1.429 . S
C518 C501 1.574 . S
C518 H512 0.949 . S
C518 C522 1.368 . S
C519 C500 1.429 . S
C519 C513 1.429 . S
C519 C520 1.523 . S
C520 C501 1.368 . S
C520 C514 1.368 . S
C520 C519 1.523 . S
C521 C505 1.429 . S
C521 C517 1.429 . S
C521 C522 1.523 . S
C522 C506 1.368 . S
C522 C518 1.368 . S
C522 C521 1.523 . S
H523 C498 0.950 . S
H524 C500 0.950 . S
H525 C501 0.949 . S
H526 C503 0.950 . S
H527 C505 0.950 . S
C528 C529 1.346 1_455 S
C528 C530 1.327 . S
C528 H553 0.950 1_556 S
C529 C528 1.346 1_655 S
C529 C545 1.352 . S
C530 C528 1.327 . S
C530 C549 1.429 . S
C530 H554 0.950 . S
C531 C548 1.574 . S
C531 C550 1.368 1_655 S
C531 H555 0.949 . S
H532 C536 0.949 . S
C533 C534 1.349 1_655 S
C533 C535 1.327 . S
C533 H556 0.950 . S
C534 C533 1.349 1_455 S
C534 C546 1.349 . S
C535 C533 1.327 . S
C535 C551 1.429 1_655 S
C535 H557 0.950 . S
C536 H532 0.949 . S
C536 C544 1.574 . S
C536 C552 1.368 . S
H537 C545 0.950 . S
H538 C543 0.950 . S
H539 C544 0.949 . S
H540 C546 0.950 . S
H541 C547 0.950 . S
H542 C548 0.949 . S
C543 H538 0.950 . S
C543 C545 1.327 . S
C543 C549 1.429 1_655 S
C544 C536 1.574 . S
C544 H539 0.949 . S
C544 C550 1.368 . S
C545 C529 1.352 . S
C545 H537 0.950 . S
C545 C543 1.327 . S
C546 C534 1.349 . S
C546 H540 0.950 . S
C546 C547 1.327 . S
C547 H541 0.950 . S
C547 C546 1.327 . S
C547 C551 1.429 . S
C548 C531 1.574 . S
C548 H542 0.949 . S
C548 C552 1.368 1_655 S
C549 C530 1.429 . S
C549 C543 1.429 1_455 S
C549 C550 1.523 . S
C550 C531 1.368 1_455 S
C550 C544 1.368 . S
C550 C549 1.523 . S
C551 C535 1.429 1_455 S
C551 C547 1.429 . S
C551 C552 1.523 . S
C552 C536 1.368 . S
C552 C548 1.368 1_455 S
C552 C551 1.523 . S
H553 C528 0.950 1_554 S
H554 C530 0.950 . S
H555 C531 0.949 . S
H556 C533 0.950 . S
H557 C535 0.950 . S
C558 C559 1.349 . S
C558 C560 1.327 . S
C558 H583 0.950 1_556 S
C559 C558 1.349 . S
C559 C575 1.349 . S
C560 C558 1.327 . S
C560 C579 1.429 . S
C560 H584 0.950 . S
C561 C578 1.574 . S
C561 C580 1.368 . S
C561 H585 0.949 . S
H562 C566 0.949 . S
C563 C564 1.349 1_545 S
C563 C565 1.336 . S
C563 H586 0.950 . S
C564 C563 1.349 1_565 S
C564 C576 1.349 . S
C565 C563 1.336 . S
C565 C581 1.412 1_545 S
C565 H587 0.958 . S
C566 H562 0.949 . S
C566 C574 1.574 . S
C566 C582 1.368 . S
H567 C575 0.950 . S
H568 C573 0.950 . S
H569 C574 0.949 . S
H570 C576 0.950 . S
H571 C577 0.950 . S
H572 C578 0.949 . S
C573 H568 0.950 . S
C573 C575 1.327 . S
C573 C579 1.429 . S
C574 C566 1.574 . S
C574 H569 0.949 . S
C574 C580 1.368 . S
C575 C559 1.349 . S
C575 H567 0.950 . S
C575 C573 1.327 . S
C576 C564 1.349 . S
C576 H570 0.950 . S
C576 C577 1.327 . S
C577 H571 0.950 . S
C577 C576 1.327 . S
C577 C581 1.429 . S
C578 C561 1.574 . S
C578 H572 0.949 . S
C578 C582 1.368 . S
C579 C560 1.429 . S
C579 C573 1.429 . S
C579 C580 1.523 . S
C580 C561 1.368 . S
C580 C574 1.368 . S
C580 C579 1.523 . S
C581 C565 1.412 1_565 S
C581 C577 1.429 . S
C581 C582 1.523 . S
C582 C566 1.368 . S
C582 C578 1.368 . S
C582 C581 1.523 . S
H583 C558 0.950 1_554 S
H584 C560 0.950 . S
H585 C561 0.949 . S
H586 C563 0.950 . S
H587 C565 0.958 . S
C588 C589 1.349 . S
C588 C590 1.327 1_554 S
C588 H613 0.950 . S
C589 C588 1.349 . S
C589 C605 1.349 1_554 S
C590 C588 1.327 1_556 S
C590 C609 1.429 . S
C590 H614 0.950 . S
C591 C608 1.574 . S
C591 C610 1.368 . S
C591 H615 0.949 . S
H592 C596 0.949 . S
C593 C594 1.349 . S
C593 C595 1.327 . S
C593 H616 0.950 . S
C594 C593 1.349 . S
C594 C606 1.349 . S
C595 C593 1.327 . S
C595 C611 1.429 . S
C595 H617 0.950 . S
C596 H592 0.949 . S
C596 C604 1.574 . S
C596 C612 1.368 . S
H597 C605 0.950 . S
H598 C603 0.950 . S
H599 C604 0.949 . S
H600 C606 0.950 . S
H601 C607 0.950 . S
H602 C608 0.949 . S
C603 H598 0.950 . S
C603 C605 1.327 . S
C603 C609 1.429 . S
C604 C596 1.574 . S
C604 H599 0.949 . S
C604 C610 1.368 . S
C605 C589 1.349 1_556 S
C605 H597 0.950 . S
C605 C603 1.327 . S
C606 C594 1.349 . S
C606 H600 0.950 . S
C606 C607 1.327 . S
C607 H601 0.950 . S
C607 C606 1.327 . S
C607 C611 1.429 . S
C608 C591 1.574 . S
C608 H602 0.949 . S
C608 C612 1.368 . S
C609 C590 1.429 . S
C609 C603 1.429 . S
C609 C610 1.523 . S
C610 C591 1.368 . S
C610 C604 1.368 . S
C610 C609 1.523 . S
C611 C595 1.429 . S
C611 C607 1.429 . S
C611 C612 1.523 . S
C612 C596 1.368 . S
C612 C608 1.368 . S
C612 C611 1.523 . S
H613 C588 0.950 . S
H614 C590 0.950 . S
H615 C591 0.949 . S
H616 C593 0.950 . S
H617 C595 0.950 . S
C618 C619 1.349 . S
C618 C620 1.327 . S
C618 H643 0.950 1_556 S
C619 C618 1.349 . S
C619 C635 1.349 . S
C620 C618 1.327 . S
C620 C639 1.429 . S
C620 H644 0.950 . S
C621 C638 1.574 . S
C621 C640 1.368 . S
C621 H645 0.949 . S
H622 C626 0.949 . S
C623 C624 1.349 . S
C623 C625 1.327 . S
C623 H646 0.950 . S
C624 C623 1.349 . S
C624 C636 1.349 . S
C625 C623 1.327 . S
C625 C641 1.429 . S
C625 H647 0.950 . S
C626 H622 0.949 . S
C626 C634 1.574 . S
C626 C642 1.368 . S
H627 C635 0.950 . S
H628 C633 0.950 . S
H629 C634 0.949 . S
H630 C636 0.950 . S
H631 C637 0.950 . S
H632 C638 0.949 . S
C633 H628 0.950 . S
C633 C635 1.327 . S
C633 C639 1.429 . S
C634 C626 1.574 . S
C634 H629 0.949 . S
C634 C640 1.368 . S
C635 C619 1.349 . S
C635 H627 0.950 . S
C635 C633 1.327 . S
C636 C624 1.349 . S
C636 H630 0.950 . S
C636 C637 1.327 . S
C637 H631 0.950 . S
C637 C636 1.327 . S
C637 C641 1.429 . S
C638 C621 1.574 . S
C638 H632 0.949 . S
C638 C642 1.368 . S
C639 C620 1.429 . S
C639 C633 1.429 . S
C639 C640 1.523 . S
C640 C621 1.368 . S
C640 C634 1.368 . S
C640 C639 1.523 . S
C641 C625 1.429 . S
C641 C637 1.429 . S
C641 C642 1.523 . S
C642 C626 1.368 . S
C642 C638 1.368 . S
C642 C641 1.523 . S
H643 C618 0.950 1_554 S
H644 C620 0.950 . S
H645 C621 0.949 . S
H646 C623 0.950 . S
H647 C625 0.950 . S
C648 C649 1.340 1_654 S
C648 C650 1.327 1_554 S
C648 H673 0.950 . S
C649 C648 1.340 1_456 S
C649 C665 1.361 . S
C650 C648 1.327 1_556 S
C650 C669 1.429 1_655 S
C650 H674 0.950 . S
C651 C668 1.574 . S
C651 C670 1.368 . S
C651 H675 0.949 . S
H652 C656 0.949 . S
C653 C654 1.349 . S
C653 C655 1.327 . S
C653 H676 0.950 . S
C654 C653 1.349 . S
C654 C666 1.349 1_455 S
C655 C653 1.327 . S
C655 C671 1.429 . S
C655 H677 0.950 . S
C656 H652 0.949 . S
C656 C664 1.574 . S
C656 C672 1.368 1_655 S
H657 C665 0.950 . S
H658 C663 0.950 . S
H659 C664 0.949 . S
H660 C666 0.950 . S
H661 C667 0.950 . S
H662 C668 0.949 . S
C663 H658 0.950 . S
C663 C665 1.327 . S
C663 C669 1.429 . S
C664 C656 1.574 . S
C664 H659 0.949 . S
C664 C670 1.368 1_655 S
C665 C649 1.361 . S
C665 H657 0.950 . S
C665 C663 1.327 . S
C666 C654 1.349 1_655 S
C666 H660 0.950 . S
C666 C667 1.327 . S
C667 H661 0.950 . S
C667 C666 1.327 . S
C667 C671 1.429 1_655 S
C668 C651 1.574 . S
C668 H662 0.949 . S
C668 C672 1.368 . S
C669 C650 1.429 1_455 S
C669 C663 1.429 . S
C669 C670 1.523 . S
C670 C651 1.368 . S
C670 C664 1.368 1_455 S
C670 C669 1.523 . S
C671 C655 1.429 . S
C671 C667 1.429 1_455 S
C671 C672 1.523 . S
C672 C656 1.368 1_455 S
C672 C668 1.368 . S
C672 C671 1.523 . S
H673 C648 0.950 . S
H674 C650 0.950 . S
H675 C651 0.949 . S
H676 C653 0.950 . S
H677 C655 0.950 . S
C678 C679 1.349 1_556 S
C678 C680 1.327 . S
C678 H703 0.950 1_556 S
C679 C678 1.349 1_554 S
C679 C695 1.349 1_554 S
C680 C678 1.327 . S
C680 C699 1.429 . S
C680 H704 0.950 . S
C681 C698 1.574 . S
C681 C700 1.368 . S
C681 H705 0.949 . S
H682 C686 0.949 . S
C683 C684 1.336 1_565 S
C683 C685 1.323 1_565 S
C683 H706 0.967 . S
C684 C683 1.336 1_545 S
C684 C696 1.349 . S
C685 C683 1.323 1_545 S
C685 C701 1.429 . S
C685 H707 0.950 1_545 S
C686 H682 0.949 . S
C686 C694 1.574 . S
C686 C702 1.368 . S
H687 C695 0.950 . S
H688 C693 0.950 . S
H689 C694 0.949 . S
H690 C696 0.950 . S
H691 C697 0.950 . S
H692 C698 0.949 1_565 S
C693 H688 0.950 . S
C693 C695 1.327 . S
C693 C699 1.429 . S
C694 C686 1.574 . S
C694 H689 0.949 . S
C694 C700 1.368 . S
C695 C679 1.349 1_556 S
C695 H687 0.950 . S
C695 C693 1.327 . S
C696 C684 1.349 . S
C696 H690 0.950 . S
C696 C697 1.327 . S
C697 H691 0.950 . S
C697 C696 1.327 . S
C697 C701 1.429 . S
C698 C681 1.574 . S
C698 H692 0.949 1_545 S
C698 C702 1.368 . S
C699 C680 1.429 . S
C699 C693 1.429 . S
C699 C700 1.523 . S
C700 C681 1.368 . S
C700 C694 1.368 . S
C700 C699 1.523 . S
C701 C685 1.429 . S
C701 C697 1.429 . S
C701 C702 1.523 . S
C702 C686 1.368 . S
C702 C698 1.368 . S
C702 C701 1.523 . S
H703 C678 0.950 1_554 S
H704 C680 0.950 . S
H705 C681 0.949 . S
H706 C683 0.967 . S
H707 C685 0.950 1_565 S
C708 C709 1.349 . S
C708 C710 1.327 . S
C708 H733 0.950 . S
C709 C708 1.349 . S
C709 C725 1.349 . S
C710 C708 1.327 . S
C710 C729 1.429 . S
C710 H734 0.950 . S
C711 C728 1.574 . S
C711 C730 1.368 . S
C711 H735 0.949 . S
H712 C716 0.949 . S
C713 C714 1.349 . S
C713 C715 1.327 . S
C713 H736 0.950 . S
C714 C713 1.349 . S
C714 C726 1.349 . S
C715 C713 1.327 . S
C715 C731 1.429 . S
C715 H737 0.950 . S
C716 H712 0.949 . S
C716 C724 1.574 . S
C716 C732 1.368 . S
H717 C725 0.950 . S
H718 C723 0.950 . S
H719 C724 0.949 . S
H720 C726 0.950 . S
H721 C727 0.950 . S
H722 C728 0.949 . S
C723 H718 0.950 . S
C723 C725 1.327 . S
C723 C729 1.429 . S
C724 C716 1.574 . S
C724 H719 0.949 . S
C724 C730 1.368 . S
C725 C709 1.349 . S
C725 H717 0.950 . S
C725 C723 1.327 . S
C726 C714 1.349 . S
C726 H720 0.950 . S
C726 C727 1.327 . S
C727 H721 0.950 . S
C727 C726 1.327 . S
C727 C731 1.429 . S
C728 C711 1.574 . S
C728 H722 0.949 . S
C728 C732 1.368 . S
C729 C710 1.429 . S
C729 C723 1.429 . S
C729 C730 1.523 . S
C730 C711 1.368 . S
C730 C724 1.368 . S
C730 C729 1.523 . S
C731 C715 1.429 . S
C731 C727 1.429 . S
C731 C732 1.523 . S
C732 C716 1.368 . S
C732 C728 1.368 . S
C732 C731 1.523 . S
H733 C708 0.950 . S
H734 C710 0.950 . S
H735 C711 0.949 . S
H736 C713 0.950 . S
H737 C715 0.950 . S
C738 C739 1.349 . S
C738 C740 1.327 . S
C738 H763 0.950 . S
C739 C738 1.349 . S
C739 C755 1.349 . S
C740 C738 1.327 . S
C740 C759 1.429 . S
C740 H764 0.950 . S
C741 C758 1.574 . S
C741 C760 1.368 . S
C741 H765 0.949 . S
H742 C746 0.949 . S
C743 C744 1.349 . S
C743 C745 1.327 . S
C743 H766 0.950 . S
C744 C743 1.349 . S
C744 C756 1.349 . S
C745 C743 1.327 . S
C745 C761 1.429 . S
C745 H767 0.950 . S
C746 H742 0.949 . S
C746 C754 1.574 . S
C746 C762 1.368 . S
H747 C755 0.950 . S
H748 C753 0.950 . S
H749 C754 0.949 . S
H750 C756 0.950 . S
H751 C757 0.950 . S
H752 C758 0.949 . S
C753 H748 0.950 . S
C753 C755 1.327 . S
C753 C759 1.429 . S
C754 C746 1.574 . S
C754 H749 0.949 . S
C754 C760 1.368 . S
C755 C739 1.349 . S
C755 H747 0.950 . S
C755 C753 1.327 . S
C756 C744 1.349 . S
C756 H750 0.950 . S
C756 C757 1.327 . S
C757 H751 0.950 . S
C757 C756 1.327 . S
C757 C761 1.429 . S
C758 C741 1.574 . S
C758 H752 0.949 . S
C758 C762 1.368 . S
C759 C740 1.429 . S
C759 C753 1.429 . S
C759 C760 1.523 . S
C760 C741 1.368 . S
C760 C754 1.368 . S
C760 C759 1.523 . S
C761 C745 1.429 . S
C761 C757 1.429 . S
C761 C762 1.523 . S
C762 C746 1.368 . S
C762 C758 1.368 . S
C762 C761 1.523 . S
H763 C738 0.950 . S
H764 C740 0.950 . S
H765 C741 0.949 . S
H766 C743 0.950 . S
H767 C745 0.950 . S
C768 C769 1.357 . S
C768 C770 1.327 . S
C768 H793 0.950 . S
C769 C768 1.357 . S
C769 C785 1.344 1_655 S
C770 C768 1.327 . S
C770 C789 1.429 . S
C770 H794 0.950 . S
C771 C788 1.576 . S
C771 C790 1.368 1_455 S
C771 H795 0.949 . S
H772 C776 0.949 . S
C773 C774 1.349 . S
C773 C775 1.327 . S
C773 H796 0.945 1_655 S
C774 C773 1.349 . S
C774 C786 1.349 . S
C775 C773 1.327 . S
C775 C791 1.429 . S
C775 H797 0.950 1_655 S
C776 H772 0.949 . S
C776 C784 1.574 . S
C776 C792 1.368 . S
H777 C785 0.950 . S
H778 C783 0.950 . S
H779 C784 0.949 . S
H780 C786 0.950 . S
H781 C787 0.950 . S
H782 C788 0.954 . S
C783 H778 0.950 . S
C783 C785 1.327 . S
C783 C789 1.429 1_455 S
C784 C776 1.574 . S
C784 H779 0.949 . S
C784 C790 1.368 . S
C785 C769 1.344 1_455 S
C785 H777 0.950 . S
C785 C783 1.327 . S
C786 C774 1.349 . S
C786 H780 0.950 . S
C786 C787 1.327 . S
C787 H781 0.950 . S
C787 C786 1.327 . S
C787 C791 1.429 . S
C788 C771 1.576 . S
C788 H782 0.954 . S
C788 C792 1.362 1_455 S
C789 C770 1.429 . S
C789 C783 1.429 1_655 S
C789 C790 1.523 . S
C790 C771 1.368 1_655 S
C790 C784 1.368 . S
C790 C789 1.523 . S
C791 C775 1.429 . S
C791 C787 1.429 . S
C791 C792 1.523 . S
C792 C776 1.368 . S
C792 C788 1.362 1_655 S
C792 C791 1.523 . S
H793 C768 0.950 . S
H794 C770 0.950 . S
H795 C771 0.949 . S
H796 C773 0.945 1_455 S
H797 C775 0.950 1_455 S
C798 C799 1.349 . S
C798 C800 1.327 . S
C798 H823 0.950 . S
C799 C798 1.349 . S
C799 C815 1.349 . S
C800 C798 1.327 . S
C800 C819 1.429 . S
C800 H824 0.950 . S
C801 C818 1.574 . S
C801 C820 1.368 . S
C801 H825 0.949 . S
H802 C806 0.949 . S
C803 C804 1.349 . S
C803 C805 1.327 . S
C803 H826 0.950 . S
C804 C803 1.349 . S
C804 C816 1.349 . S
C805 C803 1.327 . S
C805 C821 1.429 . S
C805 H827 0.950 . S
C806 H802 0.949 . S
C806 C814 1.574 . S
C806 C822 1.368 . S
H807 C815 0.950 . S
H808 C813 0.950 . S
H809 C814 0.949 . S
H810 C816 0.950 . S
H811 C817 0.950 . S
H812 C818 0.949 . S
C813 H808 0.950 . S
C813 C815 1.327 . S
C813 C819 1.429 . S
C814 C806 1.574 . S
C814 H809 0.949 . S
C814 C820 1.368 . S
C815 C799 1.349 . S
C815 H807 0.950 . S
C815 C813 1.327 . S
C816 C804 1.349 . S
C816 H810 0.950 . S
C816 C817 1.327 . S
C817 H811 0.950 . S
C817 C816 1.327 . S
C817 C821 1.429 . S
C818 C801 1.574 . S
C818 H812 0.949 . S
C818 C822 1.368 . S
C819 C800 1.429 . S
C819 C813 1.429 . S
C819 C820 1.523 . S
C820 C801 1.368 . S
C820 C814 1.368 . S
C820 C819 1.523 . S
C821 C805 1.429 . S
C821 C817 1.429 . S
C821 C822 1.523 . S
C822 C806 1.368 . S
C822 C818 1.368 . S
C822 C821 1.523 . S
H823 C798 0.950 . S
H824 C800 0.950 . S
H825 C801 0.949 . S
H826 C803 0.950 . S
H827 C805 0.950 . S
C828 C829 1.349 . S
C828 C830 1.327 . S
C828 H853 0.950 . S
C829 C828 1.349 . S
C829 C845 1.349 . S
C830 C828 1.327 . S
C830 C849 1.429 . S
C830 H854 0.950 . S
C831 C848 1.574 . S
C831 C850 1.368 . S
C831 H855 0.949 . S
H832 C836 0.949 . S
C833 C834 1.349 . S
C833 C835 1.327 . S
C833 H856 0.950 . S
C834 C833 1.349 . S
C834 C846 1.349 . S
C835 C833 1.327 . S
C835 C851 1.429 . S
C835 H857 0.950 . S
C836 H832 0.949 . S
C836 C844 1.574 . S
C836 C852 1.368 . S
H837 C845 0.950 . S
H838 C843 0.950 . S
H839 C844 0.949 . S
H840 C846 0.950 . S
H841 C847 0.950 . S
H842 C848 0.949 . S
C843 H838 0.950 . S
C843 C845 1.327 . S
C843 C849 1.429 . S
C844 C836 1.574 . S
C844 H839 0.949 . S
C844 C850 1.368 . S
C845 C829 1.349 . S
C845 H837 0.950 . S
C845 C843 1.327 . S
C846 C834 1.349 . S
C846 H840 0.950 . S
C846 C847 1.327 . S
C847 H841 0.950 . S
C847 C846 1.327 . S
C847 C851 1.429 . S
C848 C831 1.574 . S
C848 H842 0.949 . S
C848 C852 1.368 . S
C849 C830 1.429 . S
C849 C843 1.429 . S
C849 C850 1.523 . S
C850 C831 1.368 . S
C850 C844 1.368 . S
C850 C849 1.523 . S
C851 C835 1.429 . S
C851 C847 1.429 . S
C851 C852 1.523 . S
C852 C836 1.368 . S
C852 C848 1.368 . S
C852 C851 1.523 . S
H853 C828 0.950 . S
H854 C830 0.950 . S
H855 C831 0.949 . S
H856 C833 0.950 . S
H857 C835 0.950 . S
C858 C859 1.349 . S
C858 C860 1.327 . S
C858 H883 0.950 . S
C859 C858 1.349 . S
C859 C875 1.349 . S
C860 C858 1.327 . S
C860 C879 1.429 . S
C860 H884 0.950 . S
C861 C878 1.574 . S
C861 C880 1.368 . S
C861 H885 0.949 . S
H862 C866 0.949 . S
C863 C864 1.349 . S
C863 C865 1.327 . S
C863 H886 0.950 . S
C864 C863 1.349 . S
C864 C876 1.349 . S
C865 C863 1.327 . S
C865 C881 1.429 . S
C865 H887 0.950 . S
C866 H862 0.949 . S
C866 C874 1.574 . S
C866 C882 1.368 . S
H867 C875 0.950 . S
H868 C873 0.950 . S
H869 C874 0.949 . S
H870 C876 0.950 . S
H871 C877 0.950 . S
H872 C878 0.949 . S
C873 H868 0.950 . S
C873 C875 1.327 . S
C873 C879 1.429 . S
C874 C866 1.574 . S
C874 H869 0.949 . S
C874 C880 1.368 . S
C875 C859 1.349 . S
C875 H867 0.950 . S
C875 C873 1.327 . S
C876 C864 1.349 . S
C876 H870 0.950 . S
C876 C877 1.327 . S
C877 H871 0.950 . S
C877 C876 1.327 . S
C877 C881 1.429 . S
C878 C861 1.574 . S
C878 H872 0.949 . S
C878 C882 1.368 . S
C879 C860 1.429 . S
C879 C873 1.429 . S
C879 C880 1.523 . S
C880 C861 1.368 . S
C880 C874 1.368 . S
C880 C879 1.523 . S
C881 C865 1.429 . S
C881 C877 1.429 . S
C881 C882 1.523 . S
C882 C866 1.368 . S
C882 C878 1.368 . S
C882 C881 1.523 . S
H883 C858 0.950 . S
H884 C860 0.950 . S
H885 C861 0.949 . S
H886 C863 0.950 . S
H887 C865 0.950 . S
C169 C76 1.676 . S
C174 C96 1.704 . S
C204 C126 1.821 . S
C199 C87 1.775 . S
C234 C136 1.440 . S
C229 C54 1.398 . S
C264 C156 1.287 . S
C259 C65 1.263 1_455 S
C294 C97 1.709 . S
C289 C32 1.688 . S
C319 C43 1.780 . S
C324 C127 1.820 . S
C349 C10 1.399 1_556 S
C354 C137 1.439 . S
C379 C21 1.260 . S
C384 C157 1.289 . S
C414 C89 0.680 . S
C409 C60 0.687 . S
C444 C110 0.289 . S
C439 C71 0.428 . S
C474 C129 0.874 . S
C469 C82 0.868 . S
C499 C49 0.565 . S
C504 C149 0.544 . S
C529 C16 0.684 1_655 S
C534 C90 0.679 . S
C564 C109 0.286 1_565 S
C559 C27 0.445 . S
C594 C130 0.874 . S
C589 C38 0.866 . S
C619 C5 0.567 1_556 S
C624 C150 0.557 . S
C649 C59 1.483 1_556 S
C654 C107 1.549 . S
C679 C70 1.315 . S
C684 C117 1.382 . S
C714 C147 1.780 . S
C709 C81 1.689 . S
C744 C167 1.788 . S
C739 C48 1.702 1_556 S
C769 C15 1.480 1_655 S
C774 C106 1.550 . S
C804 C116 1.382 . S
C799 C26 1.307 . S
C834 C146 1.780 . S
C829 C37 1.683 . S
C859 C4 1.707 . S
C864 C166 1.794 . S
