# Generated by pormake.
# Topology pto, (3,4)-cn, num edge types: 1
# Building blocks:
#     Node 0, Type 0, BuildingBlock: KAKCAD_clean_linker_0, # of connection points: 3
#     Node 1, Type 0, BuildingBlock: KAKCAD_clean_linker_0, # of connection points: 3
#     Node 2, Type 0, BuildingBlock: KAKCAD_clean_linker_0, # of connection points: 3
#     Node 3, Type 0, BuildingBlock: KAKCAD_clean_linker_0, # of connection points: 3
#     Node 4, Type 0, BuildingBlock: KAKCAD_clean_linker_0, # of connection points: 3
#     Node 5, Type 0, BuildingBlock: KAKCAD_clean_linker_0, # of connection points: 3
#     Node 6, Type 0, BuildingBlock: KAKCAD_clean_linker_0, # of connection points: 3
#     Node 7, Type 0, BuildingBlock: KAKCAD_clean_linker_0, # of connection points: 3
#     Node 8, Type 1, BuildingBlock: NAWXER_clean_sbu_0, # of connection points: 4
#     Node 9, Type 1, BuildingBlock: NAWXER_clean_sbu_0, # of connection points: 4
#     Node 10, Type 1, BuildingBlock: NAWXER_clean_sbu_0, # of connection points: 4
#     Node 11, Type 1, BuildingBlock: NAWXER_clean_sbu_0, # of connection points: 4
#     Node 12, Type 1, BuildingBlock: NAWXER_clean_sbu_0, # of connection points: 4
#     Node 13, Type 1, BuildingBlock: NAWXER_clean_sbu_0, # of connection points: 4
#     Edge 14, Type (0, 1), BuildingBlock: CIFDUS_clean_linker_0, # of connection points: 2
#     Edge 15, Type (0, 1), BuildingBlock: CIFDUS_clean_linker_0, # of connection points: 2
#     Edge 16, Type (0, 1), BuildingBlock: CIFDUS_clean_linker_0, # of connection points: 2
#     Edge 17, Type (0, 1), BuildingBlock: CIFDUS_clean_linker_0, # of connection points: 2
#     Edge 18, Type (0, 1), BuildingBlock: CIFDUS_clean_linker_0, # of connection points: 2
#     Edge 19, Type (0, 1), BuildingBlock: CIFDUS_clean_linker_0, # of connection points: 2
#     Edge 20, Type (0, 1), BuildingBlock: CIFDUS_clean_linker_0, # of connection points: 2
#     Edge 21, Type (0, 1), BuildingBlock: CIFDUS_clean_linker_0, # of connection points: 2
#     Edge 22, Type (0, 1), BuildingBlock: CIFDUS_clean_linker_0, # of connection points: 2
#     Edge 23, Type (0, 1), BuildingBlock: CIFDUS_clean_linker_0, # of connection points: 2
#     Edge 24, Type (0, 1), BuildingBlock: CIFDUS_clean_linker_0, # of connection points: 2
#     Edge 25, Type (0, 1), BuildingBlock: CIFDUS_clean_linker_0, # of connection points: 2
#     Edge 26, Type (0, 1), BuildingBlock: CIFDUS_clean_linker_0, # of connection points: 2
#     Edge 27, Type (0, 1), BuildingBlock: CIFDUS_clean_linker_0, # of connection points: 2
#     Edge 28, Type (0, 1), BuildingBlock: CIFDUS_clean_linker_0, # of connection points: 2
#     Edge 29, Type (0, 1), BuildingBlock: CIFDUS_clean_linker_0, # of connection points: 2
#     Edge 30, Type (0, 1), BuildingBlock: CIFDUS_clean_linker_0, # of connection points: 2
#     Edge 31, Type (0, 1), BuildingBlock: CIFDUS_clean_linker_0, # of connection points: 2
#     Edge 32, Type (0, 1), BuildingBlock: CIFDUS_clean_linker_0, # of connection points: 2
#     Edge 33, Type (0, 1), BuildingBlock: CIFDUS_clean_linker_0, # of connection points: 2
#     Edge 34, Type (0, 1), BuildingBlock: CIFDUS_clean_linker_0, # of connection points: 2
#     Edge 35, Type (0, 1), BuildingBlock: CIFDUS_clean_linker_0, # of connection points: 2
#     Edge 36, Type (0, 1), BuildingBlock: CIFDUS_clean_linker_0, # of connection points: 2
#     Edge 37, Type (0, 1), BuildingBlock: CIFDUS_clean_linker_0, # of connection points: 2
# Relax obj value: 0.000
# Max RMSD: 0.003
# Mean RMSD: 0.002
data_MOF--net-pto--node1-NAWXER_clean_sbu_0--node2-KAKCAD_clean_linker_0--edge1-CIFDUS_clean_linker_0
_symmetry_space_group_name_H-M    P1
_symmetry_Int_Tables_number       1
_symmetry_cell_setting            triclinic
loop_
_symmetry_equiv_pos_as_xyz
'x, y, z'
_cell_length_a     48.104796
_cell_length_b     45.220307
_cell_length_c     42.467868
_cell_angle_alpha  90.515874
_cell_angle_beta   90.585744
_cell_angle_gamma 90.383182
loop_
_atom_site_label
_atom_site_type_symbol
_atom_site_fract_x
_atom_site_fract_y
_atom_site_fract_z
_atom_type_partial_charge
C0 C 0.2714 0.18603 0.33421 0.0
C1 C 0.24598 0.17495 0.34553 0.0
C2 C 0.27222 0.21103 0.31511 0.0
C3 C 0.24759 0.22536 0.30598 0.0
C4 C 0.22209 0.21366 0.31639 0.0
C5 C 0.22132 0.18906 0.33613 0.0
C6 C 0.2485 0.25256 0.28616 0.0
C7 C 0.26934 0.2565 0.26343 0.0
C8 C 0.27017 0.28204 0.24485 0.0
C9 C 0.24985 0.30385 0.24881 0.0
C10 C 0.22894 0.30042 0.27136 0.0
C11 C 0.22855 0.27492 0.29 0.0
C12 C 0.20716 0.3232 0.27531 0.0
C13 C 0.21429 0.35326 0.27874 0.0
C14 C 0.17898 0.31487 0.27587 0.0
C15 C 0.15831 0.33617 0.2794 0.0
C16 C 0.16541 0.36621 0.28292 0.0
C17 C 0.292 0.28551 0.22078 0.0
C18 C 0.32025 0.2847 0.22943 0.0
C19 C 0.28471 0.2888 0.1889 0.0
C20 C 0.30533 0.29039 0.16595 0.0
C21 C 0.33357 0.28947 0.1746 0.0
C22 C 0.34088 0.28703 0.20656 0.0
C23 C 0.1936 0.37455 0.28279 0.0
H24 H 0.29088 0.17551 0.34015 0.0
H25 H 0.29233 0.21934 0.30803 0.0
H26 H 0.20255 0.22349 0.30939 0.0
H27 H 0.20131 0.18156 0.34446 0.0
H28 H 0.28459 0.2394 0.25941 0.0
H29 H 0.21288 0.27293 0.308 0.0
H30 H 0.25024 0.3234 0.23422 0.0
H31 H 0.23588 0.36023 0.27859 0.0
H32 H 0.17291 0.29187 0.27312 0.0
H33 H 0.13674 0.32914 0.27954 0.0
H34 H 0.32632 0.28223 0.2539 0.0
H35 H 0.26305 0.28934 0.18169 0.0
H36 H 0.1996 0.3976 0.28523 0.0
H37 H 0.36254 0.28606 0.2137 0.0
H38 H 0.29925 0.2922 0.14141 0.0
C39 C 0.32857 0.80165 0.85047 0.0
C40 C 0.34141 0.77539 0.86029 0.0
C41 C 0.30348 0.80077 0.83354 0.0
C42 C 0.29067 0.77359 0.82566 0.0
C43 C 0.30349 0.74733 0.83552 0.0
C44 C 0.3284 0.74823 0.85274 0.0
C45 C 0.26433 0.77258 0.80679 0.0
C46 C 0.25993 0.79269 0.78225 0.0
C47 C 0.23537 0.79193 0.764 0.0
C48 C 0.21533 0.76993 0.76997 0.0
C49 C 0.21939 0.74928 0.79423 0.0
C50 C 0.24375 0.75119 0.81279 0.0
C51 C 0.1986 0.72525 0.79971 0.0
C52 C 0.16993 0.73042 0.79611 0.0
C53 C 0.20736 0.69661 0.80782 0.0
C54 C 0.18805 0.67371 0.81168 0.0
C55 C 0.15954 0.67877 0.80715 0.0
C56 C 0.23122 0.8139 0.73841 0.0
C57 C 0.24012 0.84337 0.7428 0.0
C58 C 0.21955 0.80554 0.70907 0.0
C59 C 0.21793 0.82587 0.6844 0.0
C60 C 0.22816 0.85482 0.68851 0.0
C61 C 0.23877 0.8635 0.71812 0.0
C62 C 0.15066 0.70741 0.79961 0.0
H63 H 0.33805 0.82298 0.85553 0.0
H64 H 0.29408 0.82148 0.82677 0.0
H65 H 0.29449 0.72596 0.82959 0.0
H66 H 0.33732 0.72753 0.86033 0.0
H67 H 0.2761 0.80854 0.77669 0.0
H68 H 0.24656 0.73616 0.83226 0.0
H69 H 0.19666 0.76879 0.75555 0.0
H70 H 0.16232 0.75225 0.79051 0.0
H71 H 0.22925 0.69158 0.81028 0.0
H72 H 0.19552 0.65176 0.81707 0.0
H73 H 0.24855 0.85083 0.76527 0.0
H74 H 0.21268 0.78301 0.70474 0.0
H75 H 0.12876 0.71199 0.79626 0.0
H76 H 0.24645 0.88582 0.72205 0.0
H77 H 0.20983 0.81858 0.66171 0.0
C78 C 0.68072 0.72157 0.18718 0.0
C79 C 0.67614 0.74548 0.16682 0.0
C80 C 0.69994 0.72391 0.21197 0.0
C81 C 0.71487 0.7503 0.21727 0.0
C82 C 0.71009 0.77439 0.1973 0.0
C83 C 0.69102 0.77198 0.17226 0.0
C84 C 0.73537 0.7525 0.24359 0.0
C85 C 0.75452 0.72967 0.24865 0.0
C86 C 0.77371 0.73099 0.27391 0.0
C87 C 0.7732 0.75559 0.29445 0.0
C88 C 0.75449 0.77885 0.28931 0.0
C89 C 0.73578 0.77723 0.26377 0.0
C90 C 0.75474 0.80518 0.31029 0.0
C91 C 0.75211 0.80212 0.34301 0.0
C92 C 0.7577 0.83358 0.29759 0.0
C93 C 0.75857 0.85848 0.31732 0.0
C94 C 0.7559 0.85545 0.35003 0.0
C95 C 0.79487 0.70725 0.27775 0.0
C96 C 0.78809 0.6776 0.27056 0.0
C97 C 0.82244 0.71418 0.28672 0.0
C98 C 0.84288 0.69227 0.28717 0.0
C99 C 0.83626 0.66305 0.27832 0.0
C100 C 0.80857 0.65584 0.27061 0.0
C101 C 0.75239 0.82711 0.36271 0.0
H102 H 0.66924 0.70104 0.18421 0.0
H103 H 0.70287 0.70513 0.22728 0.0
H104 H 0.72149 0.79493 0.20067 0.0
H105 H 0.68835 0.79071 0.15685 0.0
H106 H 0.75497 0.71125 0.23217 0.0
H107 H 0.72105 0.79495 0.26011 0.0
H108 H 0.78759 0.75693 0.31422 0.0
H109 H 0.74967 0.78043 0.35329 0.0
H110 H 0.75985 0.83644 0.27243 0.0
H111 H 0.76129 0.88013 0.30704 0.0
H112 H 0.76699 0.67123 0.26432 0.0
H113 H 0.82857 0.73677 0.29209 0.0
H114 H 0.75049 0.82426 0.3879 0.0
H115 H 0.80284 0.63338 0.26408 0.0
H116 H 0.86413 0.69846 0.29298 0.0
C117 C 0.78857 0.19296 0.71484 0.0
C118 C 0.76436 0.18219 0.69957 0.0
C119 C 0.78733 0.21622 0.7367 0.0
C120 C 0.76195 0.23019 0.74336 0.0
C121 C 0.73778 0.21962 0.72785 0.0
C122 C 0.7389 0.19577 0.70672 0.0
C123 C 0.7607 0.2558 0.76597 0.0
C124 C 0.78343 0.27537 0.76976 0.0
C125 C 0.78213 0.29971 0.79046 0.0
C126 C 0.75754 0.30513 0.80697 0.0
C127 C 0.73459 0.28591 0.80379 0.0
C128 C 0.7366 0.26109 0.7837 0.0
C129 C 0.70852 0.29142 0.82154 0.0
C130 C 0.70941 0.30151 0.853 0.0
C131 C 0.68245 0.28583 0.80732 0.0
C132 C 0.65801 0.28903 0.82444 0.0
C133 C 0.65897 0.29815 0.85615 0.0
C134 C 0.80653 0.31962 0.79453 0.0
C135 C 0.8328 0.30797 0.8019 0.0
C136 C 0.80381 0.35026 0.79061 0.0
C137 C 0.8271 0.36884 0.79315 0.0
C138 C 0.8534 0.35717 0.80029 0.0
C139 C 0.85599 0.32663 0.80506 0.0
C140 C 0.68488 0.30493 0.87009 0.0
H141 H 0.80875 0.18372 0.70978 0.0
H142 H 0.80642 0.22308 0.7484 0.0
H143 H 0.71784 0.22992 0.73163 0.0
H144 H 0.71961 0.18799 0.69617 0.0
H145 H 0.80206 0.27233 0.75604 0.0
H146 H 0.71943 0.24553 0.78241 0.0
H147 H 0.75639 0.32432 0.82237 0.0
H148 H 0.7291 0.30578 0.86482 0.0
H149 H 0.68091 0.27873 0.78293 0.0
H150 H 0.6383 0.28402 0.81297 0.0
H151 H 0.83536 0.28442 0.80521 0.0
H152 H 0.7838 0.35974 0.78482 0.0
H153 H 0.68626 0.3117 0.89459 0.0
H154 H 0.87609 0.31711 0.81034 0.0
H155 H 0.8246 0.39235 0.78941 0.0
C156 C 0.79212 0.82133 0.65966 0.0
C157 C 0.78465 0.84825 0.67391 0.0
C158 C 0.79019 0.79487 0.67634 0.0
C159 C 0.78096 0.79486 0.70768 0.0
C160 C 0.77462 0.82205 0.72221 0.0
C161 C 0.77627 0.84839 0.70546 0.0
C162 C 0.77709 0.76668 0.72499 0.0
C163 C 0.79612 0.7434 0.72188 0.0
C164 C 0.79274 0.7172 0.73902 0.0
C165 C 0.7699 0.71423 0.75919 0.0
C166 C 0.75068 0.73721 0.76249 0.0
C167 C 0.75432 0.76318 0.74514 0.0
C168 C 0.72711 0.73467 0.78462 0.0
C169 C 0.71037 0.70909 0.78521 0.0
C170 C 0.72096 0.7583 0.80499 0.0
C171 C 0.69825 0.7567 0.82508 0.0
C172 C 0.68094 0.73151 0.82515 0.0
C173 C 0.81376 0.69347 0.73706 0.0
C174 C 0.82322 0.68313 0.70779 0.0
C175 C 0.82468 0.68119 0.76472 0.0
C176 C 0.84452 0.65888 0.76322 0.0
C177 C 0.85369 0.64797 0.73399 0.0
C178 C 0.8429 0.66049 0.70625 0.0
C179 C 0.68744 0.70755 0.80521 0.0
H180 H 0.79843 0.82062 0.63525 0.0
H181 H 0.79503 0.77434 0.66434 0.0
H182 H 0.76816 0.823 0.74655 0.0
H183 H 0.77076 0.86891 0.71712 0.0
H184 H 0.81416 0.74603 0.70706 0.0
H185 H 0.73906 0.78061 0.74707 0.0
H186 H 0.76733 0.69418 0.77269 0.0
H187 H 0.71457 0.6906 0.76962 0.0
H188 H 0.73382 0.77806 0.80549 0.0
H189 H 0.69432 0.77525 0.84067 0.0
H190 H 0.81503 0.69219 0.6861 0.0
H191 H 0.81817 0.68915 0.7876 0.0
H192 H 0.67444 0.68792 0.80448 0.0
H193 H 0.84928 0.65248 0.68335 0.0
H194 H 0.85287 0.65041 0.7851 0.0
C195 C 0.67542 0.24543 0.18454 0.0
C196 C 0.67797 0.24696 0.15169 0.0
C197 C 0.69884 0.24779 0.20406 0.0
C198 C 0.7254 0.25194 0.19124 0.0
C199 C 0.72804 0.25363 0.15838 0.0
C200 C 0.70454 0.25091 0.13875 0.0
C201 C 0.74998 0.25443 0.21255 0.0
C202 C 0.75285 0.23456 0.2376 0.0
C203 C 0.77385 0.23834 0.26055 0.0
C204 C 0.79253 0.26214 0.25763 0.0
C205 C 0.79052 0.28179 0.23226 0.0
C206 C 0.76935 0.27765 0.20954 0.0
C207 C 0.80984 0.30742 0.23087 0.0
C208 C 0.81383 0.32544 0.25762 0.0
C209 C 0.82549 0.31308 0.20381 0.0
C210 C 0.84584 0.33546 0.20413 0.0
C211 C 0.85068 0.35267 0.23147 0.0
C212 C 0.77537 0.21837 0.28828 0.0
C213 C 0.7509 0.20735 0.30187 0.0
C214 C 0.80111 0.21057 0.3018 0.0
C215 C 0.80229 0.19259 0.32843 0.0
C216 C 0.77777 0.18161 0.34198 0.0
C217 C 0.7521 0.18901 0.32808 0.0
C218 C 0.83386 0.34788 0.25786 0.0
H219 H 0.65525 0.24223 0.19517 0.0
H220 H 0.6961 0.24673 0.22931 0.0
H221 H 0.74828 0.25673 0.14791 0.0
H222 H 0.70706 0.25242 0.1135 0.0
H223 H 0.73843 0.21613 0.2392 0.0
H224 H 0.76711 0.29336 0.19056 0.0
H225 H 0.80847 0.26584 0.27548 0.0
H226 H 0.80166 0.3219 0.2786 0.0
H227 H 0.82278 0.29944 0.18289 0.0
H228 H 0.85847 0.33848 0.18343 0.0
H229 H 0.73065 0.21319 0.29261 0.0
H230 H 0.82043 0.21827 0.2918 0.0
H231 H 0.83642 0.36123 0.279 0.0
H232 H 0.73276 0.18056 0.33733 0.0
H233 H 0.82245 0.18767 0.33859 0.0
C234 C 0.3228 0.28672 0.83964 0.0
C235 C 0.34992 0.27592 0.83629 0.0
C236 C 0.30383 0.28509 0.81456 0.0
C237 C 0.3116 0.27294 0.78533 0.0
C238 C 0.33881 0.26214 0.78204 0.0
C239 C 0.35771 0.26346 0.8073 0.0
C240 C 0.29117 0.27114 0.75872 0.0
C241 C 0.27172 0.29388 0.75399 0.0
C242 C 0.25109 0.29157 0.73033 0.0
C243 C 0.25049 0.26626 0.71088 0.0
C244 C 0.27016 0.24374 0.71464 0.0
C245 C 0.2904 0.24629 0.73854 0.0
C246 C 0.26903 0.21726 0.69385 0.0
C247 C 0.24384 0.202 0.68915 0.0
C248 C 0.29278 0.2077 0.6778 0.0
C249 C 0.29105 0.18397 0.65643 0.0
C250 C 0.26559 0.16918 0.65099 0.0
C251 C 0.22966 0.31504 0.72652 0.0
C252 C 0.21855 0.3294 0.75302 0.0
C253 C 0.21953 0.32271 0.69647 0.0
C254 C 0.19842 0.34363 0.6931 0.0
C255 C 0.18702 0.35764 0.71966 0.0
C256 C 0.19768 0.35052 0.74962 0.0
C257 C 0.24218 0.17811 0.66818 0.0
H258 H 0.31613 0.29609 0.86186 0.0
H259 H 0.28291 0.293 0.81828 0.0
H260 H 0.34568 0.253 0.75981 0.0
H261 H 0.37859 0.25528 0.80397 0.0
H262 H 0.27283 0.31362 0.7686 0.0
H263 H 0.30486 0.22832 0.74207 0.0
H264 H 0.23452 0.26384 0.69284 0.0
H265 H 0.22535 0.20862 0.70167 0.0
H266 H 0.31244 0.21922 0.68098 0.0
H267 H 0.30944 0.17789 0.64346 0.0
H268 H 0.22553 0.32392 0.77656 0.0
H269 H 0.22786 0.31252 0.67546 0.0
H270 H 0.22241 0.16677 0.66531 0.0
H271 H 0.18987 0.36122 0.77062 0.0
H272 H 0.19066 0.34833 0.66967 0.0
C273 C 0.28806 0.82671 0.29575 0.0
C274 C 0.27673 0.82235 0.3257 0.0
C275 C 0.28597 0.80465 0.2726 0.0
C276 C 0.27274 0.77749 0.2789 0.0
C277 C 0.2613 0.77319 0.30888 0.0
C278 C 0.2632 0.7954 0.33198 0.0
C279 C 0.27144 0.75369 0.25439 0.0
C280 C 0.2942 0.749 0.23457 0.0
C281 C 0.29332 0.7272 0.21087 0.0
C282 C 0.26943 0.7095 0.20719 0.0
C283 C 0.24637 0.71373 0.22677 0.0
C284 C 0.24758 0.7358 0.25038 0.0
C285 C 0.2209 0.69532 0.22233 0.0
C286 C 0.20974 0.69006 0.19205 0.0
C287 C 0.20762 0.68282 0.24836 0.0
C288 C 0.18378 0.66532 0.24422 0.0
C289 C 0.17243 0.66013 0.21396 0.0
C290 C 0.31738 0.72365 0.18973 0.0
C291 C 0.32908 0.74862 0.17553 0.0
C292 C 0.32947 0.69584 0.1846 0.0
C293 C 0.35357 0.6933 0.16653 0.0
C294 C 0.36581 0.71852 0.15313 0.0
C295 C 0.35288 0.74607 0.1573 0.0
C296 C 0.18574 0.67275 0.18791 0.0
H297 H 0.29815 0.84744 0.29003 0.0
H298 H 0.2945 0.80904 0.2496 0.0
H299 H 0.25131 0.75245 0.31472 0.0
H300 H 0.25443 0.79134 0.35494 0.0
H301 H 0.313 0.76207 0.23784 0.0
H302 H 0.22959 0.7396 0.26499 0.0
H303 H 0.26875 0.6926 0.18893 0.0
H304 H 0.21936 0.69971 0.17156 0.0
H305 H 0.21595 0.68616 0.27193 0.0
H306 H 0.17453 0.65546 0.26479 0.0
H307 H 0.31986 0.77023 0.17866 0.0
H308 H 0.32083 0.67627 0.19541 0.0
H309 H 0.17741 0.6696 0.16433 0.0
H310 H 0.36122 0.76582 0.14657 0.0
H311 H 0.36304 0.67178 0.16387 0.0
C312 C 0.96588 0.48082 0.22267 0.0
C313 C 0.03661 0.55918 0.22805 0.0
O314 O 0.97434 0.4869 0.25078 0.0
Zn315 Zn 1.00303 0.5167 0.27438 0.0
O316 O 0.97585 0.49503 0.19959 0.0
Zn317 Zn 1.00113 0.51986 0.22416 0.0
O318 O 0.02963 0.48779 0.24197 0.0
O319 O 0.02949 0.48993 0.29394 0.0
O320 O 0.02565 0.54796 0.2033 0.0
O321 O 0.02961 0.54947 0.25508 0.0
O322 O 0.97859 0.54047 0.30026 0.0
O323 O 0.97227 0.54718 0.24925 0.0
C324 C 0.03869 0.47862 0.26861 0.0
C325 C 0.96566 0.55301 0.27782 0.0
C326 C 0.9808 0.46797 0.77286 0.0
C327 C 0.05028 0.54767 0.77661 0.0
O328 O 0.99137 0.47954 0.79772 0.0
Zn329 Zn 0.01745 0.50557 0.77658 0.0
O330 O 0.99024 0.47517 0.74581 0.0
Zn331 Zn 0.02078 0.50439 0.72611 0.0
O332 O 0.04848 0.47826 0.70764 0.0
O333 O 0.04707 0.47503 0.75936 0.0
O334 O 0.04465 0.53813 0.7488 0.0
O335 O 0.03987 0.5347 0.80023 0.0
O336 O 0.98882 0.53276 0.75073 0.0
O337 O 0.99699 0.52861 0.69965 0.0
C338 C 0.05717 0.46663 0.733 0.0
C339 C 0.98297 0.53955 0.72217 0.0
C340 C 0.21887 0.95965 0.53816 0.0
C341 C 0.22389 0.03228 0.45333 0.0
O342 O 0.19837 0.972 0.52455 0.0
Zn343 Zn 0.21993 0.99456 0.4943 0.0
O344 O 0.24361 0.96492 0.52866 0.0
Zn345 Zn 0.2644 0.99063 0.49394 0.0
O346 O 0.28766 0.01584 0.52071 0.0
O347 O 0.24268 0.02486 0.52434 0.0
O348 O 0.24765 0.02251 0.46216 0.0
O349 O 0.20184 0.02141 0.46497 0.0
O350 O 0.23506 0.96064 0.46421 0.0
O351 O 0.28085 0.96098 0.4663 0.0
C352 C 0.26789 0.03087 0.53234 0.0
C353 C 0.25832 0.9499 0.45543 0.0
C354 C 0.55834 0.7512 0.03246 0.0
C355 C 0.48461 0.74931 0.95254 0.0
O356 O 0.55215 0.72488 0.02307 0.0
Zn357 Zn 0.52388 0.70383 0.98993 0.0
O358 O 0.54566 0.77309 0.02059 0.0
Zn359 Zn 0.52185 0.75081 0.99209 0.0
O360 O 0.4955 0.72797 0.02403 0.0
O361 O 0.50025 0.67988 0.0167 0.0
O362 O 0.49505 0.77176 0.96658 0.0
O363 O 0.49376 0.72343 0.95886 0.0
O364 O 0.54905 0.68452 0.96125 0.0
O365 O 0.55054 0.73322 0.95844 0.0
C366 C 0.48895 0.70136 0.0311 0.0
C367 C 0.55906 0.70781 0.9491 0.0
C368 C 0.79661 0.98462 0.55707 0.0
C369 C 0.79497 0.061 0.47683 0.0
O370 O 0.77194 0.99325 0.55028 0.0
Zn371 Zn 0.75223 0.02386 0.51892 0.0
O372 O 0.81728 0.99622 0.54331 0.0
Zn373 Zn 0.79631 0.02314 0.51736 0.0
O374 O 0.77904 0.05367 0.55133 0.0
O375 O 0.7333 0.05057 0.54686 0.0
O376 O 0.81616 0.04845 0.48863 0.0
O377 O 0.77061 0.0538 0.48617 0.0
O378 O 0.73027 0.99751 0.49219 0.0
O379 O 0.77547 0.99302 0.48547 0.0
C380 C 0.75476 0.062 0.55986 0.0
C381 C 0.7505 0.98525 0.4783 0.0
C382 C 0.53556 0.26356 0.05633 0.0
C383 C 0.46432 0.26461 0.97353 0.0
O384 O 0.52522 0.24138 0.04171 0.0
Zn385 Zn 0.49937 0.26321 0.01537 0.0
O386 O 0.52705 0.28963 0.04999 0.0
Zn387 Zn 0.49852 0.31032 0.01843 0.0
O388 O 0.47339 0.32968 0.04726 0.0
O389 O 0.46937 0.281 0.04764 0.0
O390 O 0.47074 0.29057 0.98389 0.0
O391 O 0.47615 0.24213 0.98529 0.0
O392 O 0.52727 0.2857 0.98487 0.0
O393 O 0.52365 0.3338 0.9927 0.0
C394 C 0.46163 0.3065 0.05761 0.0
C395 C 0.53482 0.31215 0.9784 0.0
H396 H 0.12027 0.37247 0.24526 0.0
H397 H 0.16134 0.41066 0.32673 0.0
H398 H 0.12474 0.44795 0.33104 0.0
H399 H 0.08131 0.47035 0.31061 0.0
H400 H 0.04255 0.43343 0.22694 0.0
H401 H 0.07766 0.39483 0.22471 0.0
C402 C 0.12105 0.38884 0.26409 0.0
C403 C 0.14331 0.38878 0.28574 0.0
C404 C 0.10028 0.4104 0.26604 0.0
C405 C 0.1444 0.4104 0.30972 0.0
C406 C 0.12345 0.43162 0.31224 0.0
C407 C 0.0805 0.45365 0.29213 0.0
C408 C 0.05936 0.45462 0.26905 0.0
C409 C 0.10131 0.43192 0.29044 0.0
C410 C 0.0587 0.43316 0.24491 0.0
C411 C 0.07876 0.41108 0.24361 0.0
H412 H 0.11976 0.66529 0.76403 0.0
H413 H 0.15461 0.63594 0.85214 0.0
H414 H 0.12268 0.59341 0.85187 0.0
H415 H 0.08575 0.56346 0.82511 0.0
H416 H 0.05357 0.59248 0.73541 0.0
H417 H 0.08317 0.63628 0.73795 0.0
C418 C 0.12009 0.64981 0.7834 0.0
C419 C 0.13934 0.65382 0.80814 0.0
C420 C 0.10214 0.62524 0.78273 0.0
C421 C 0.13997 0.63324 0.83277 0.0
C422 C 0.1217 0.60897 0.83263 0.0
C423 C 0.08514 0.57955 0.80634 0.0
C424 C 0.06757 0.57469 0.78008 0.0
C425 C 0.10282 0.60456 0.80755 0.0
C426 C 0.0671 0.59557 0.75575 0.0
C427 C 0.08399 0.62068 0.75717 0.0
H428 H 0.87704 0.64803 0.3205 0.0
H429 H 0.84519 0.62817 0.22732 0.0
H430 H 0.88229 0.59247 0.21915 0.0
H431 H 0.92411 0.56758 0.23784 0.0
H432 H 0.95556 0.58509 0.33167 0.0
H433 H 0.9183 0.62094 0.34033 0.0
C434 C 0.87831 0.6358 0.29847 0.0
C435 C 0.85843 0.64068 0.27454 0.0
C436 C 0.89959 0.61496 0.29405 0.0
C437 C 0.86009 0.62457 0.24619 0.0
C438 C 0.88136 0.60427 0.24144 0.0
C439 C 0.92287 0.57926 0.26021 0.0
C440 C 0.94272 0.5739 0.28398 0.0
C441 C 0.90127 0.59939 0.26512 0.0
C442 C 0.94053 0.58885 0.31299 0.0
C443 C 0.91928 0.60939 0.31791 0.0
H444 H 0.8702 0.39401 0.75469 0.0
H445 H 0.89252 0.36325 0.84718 0.0
H446 H 0.9339 0.39536 0.84764 0.0
H447 H 0.96387 0.43231 0.82114 0.0
H448 H 0.94198 0.46001 0.72713 0.0
H449 H 0.90042 0.42915 0.72786 0.0
C450 C 0.88407 0.39454 0.77501 0.0
C451 C 0.8783 0.37663 0.80097 0.0
C452 C 0.90796 0.41246 0.77476 0.0
C453 C 0.89663 0.37697 0.82694 0.0
C454 C 0.92022 0.39532 0.8272 0.0
C455 C 0.94996 0.43152 0.80089 0.0
C456 C 0.95607 0.44839 0.77413 0.0
C457 C 0.92615 0.41317 0.80118 0.0
C458 C 0.93795 0.44703 0.74794 0.0
C459 C 0.91407 0.42947 0.74833 0.0
H460 H 0.20599 0.13131 0.35101 0.0
H461 H 0.28449 0.16105 0.39099 0.0
H462 H 0.28479 0.11916 0.42625 0.0
H463 H 0.26296 0.07446 0.44646 0.0
H464 H 0.18254 0.04665 0.41111 0.0
H465 H 0.18246 0.08795 0.37393 0.0
C466 C 0.22303 0.12898 0.36766 0.0
C467 C 0.24542 0.14938 0.36768 0.0
C468 C 0.22268 0.10522 0.38889 0.0
C469 C 0.26736 0.14545 0.38944 0.0
C470 C 0.26745 0.12159 0.40999 0.0
C471 C 0.24543 0.07734 0.43052 0.0
C472 C 0.22292 0.05736 0.43122 0.0
C473 C 0.24531 0.10133 0.40986 0.0
C474 C 0.20012 0.06173 0.41093 0.0
C475 C 0.20013 0.08529 0.38967 0.0
H476 H 0.38503 0.73732 0.8558 0.0
H477 H 0.35811 0.81544 0.90581 0.0
H478 H 0.40127 0.81602 0.93645 0.0
H479 H 0.44555 0.79258 0.95144 0.0
H480 H 0.4703 0.7122 0.90434 0.0
H481 H 0.42902 0.71411 0.87049 0.0
C482 C 0.38839 0.75435 0.8736 0.0
C483 C 0.36813 0.77622 0.87844 0.0
C484 C 0.41293 0.75412 0.89177 0.0
C485 C 0.37336 0.79849 0.90116 0.0
C486 C 0.39801 0.79875 0.91892 0.0
C487 C 0.44205 0.77573 0.93348 0.0
C488 C 0.46095 0.75233 0.93033 0.0
C489 C 0.41783 0.7765 0.91466 0.0
C490 C 0.45599 0.7304 0.90726 0.0
C491 C 0.43239 0.73145 0.88792 0.0
H492 H 0.71871 0.87403 0.39369 0.0
H493 H 0.7979 0.89563 0.35291 0.0
H494 H 0.80286 0.93821 0.38849 0.0
H495 H 0.78541 0.96828 0.43217 0.0
H496 H 0.70522 0.9486 0.4717 0.0
H497 H 0.6997 0.90645 0.43546 0.0
C498 C 0.73698 0.88816 0.39268 0.0
C499 C 0.75801 0.88174 0.37095 0.0
C500 C 0.73945 0.91289 0.41288 0.0
C501 C 0.78146 0.90029 0.36945 0.0
C502 C 0.78432 0.92455 0.3898 0.0
C503 C 0.76666 0.95484 0.43278 0.0
C504 C 0.74585 0.96138 0.45474 0.0
C505 C 0.76355 0.93093 0.41174 0.0
C506 C 0.72151 0.94403 0.45496 0.0
C507 C 0.71842 0.91986 0.43435 0.0
H508 H 0.64073 0.34108 0.89676 0.0
H509 H 0.61966 0.25501 0.85842 0.0
H510 H 0.57859 0.25281 0.89143 0.0
H511 H 0.55006 0.27385 0.93294 0.0
H512 H 0.56979 0.36002 0.97171 0.0
H513 H 0.60984 0.36384 0.93659 0.0
C514 C 0.62705 0.32193 0.89565 0.0
C515 C 0.63325 0.29822 0.87519 0.0
C516 C 0.60329 0.32082 0.91474 0.0
C517 C 0.61522 0.27366 0.87371 0.0
C518 C 0.5918 0.27231 0.8927 0.0
C519 C 0.56301 0.29359 0.93363 0.0
C520 C 0.55714 0.3165 0.9551 0.0
C521 C 0.58583 0.29557 0.91351 0.0
C522 C 0.57387 0.34209 0.95536 0.0
C523 C 0.59685 0.34419 0.93542 0.0
H524 H 0.18718 0.87019 0.64655 0.0
H525 H 0.27362 0.88526 0.67002 0.0
H526 H 0.2781 0.91887 0.62579 0.0
H527 H 0.25791 0.9437 0.58054 0.0
H528 H 0.17121 0.93095 0.55691 0.0
H529 H 0.16629 0.89681 0.60117 0.0
C530 C 0.20694 0.88086 0.64184 0.0
C531 C 0.23003 0.87534 0.66154 0.0
C532 C 0.20931 0.90055 0.61644 0.0
C533 C 0.2555 0.88941 0.65539 0.0
C534 C 0.25811 0.90854 0.63005 0.0
C535 C 0.23789 0.93344 0.58494 0.0
C536 C 0.21501 0.93969 0.56529 0.0
C537 C 0.2352 0.91424 0.61045 0.0
C538 C 0.18916 0.92651 0.57169 0.0
C539 C 0.18637 0.90694 0.59694 0.0
H540 H 0.64007 0.78702 0.14415 0.0
H541 H 0.66718 0.69724 0.12864 0.0
H542 H 0.63321 0.69125 0.08614 0.0
H543 H 0.59552 0.71105 0.05369 0.0
H544 H 0.56946 0.80137 0.06716 0.0
H545 H 0.60374 0.80774 0.10968 0.0
C546 C 0.63884 0.76626 0.13123 0.0
C547 C 0.65607 0.74254 0.13996 0.0
C548 C 0.61948 0.76304 0.10637 0.0
C549 C 0.65384 0.7157 0.12305 0.0
C550 C 0.63453 0.71228 0.09852 0.0
C551 C 0.59732 0.73217 0.06588 0.0
C552 C 0.57982 0.75564 0.05735 0.0
C553 C 0.61714 0.73572 0.09012 0.0
C554 C 0.58267 0.78293 0.07322 0.0
C555 C 0.60223 0.78657 0.09759 0.0
H556 H 0.73088 0.17173 0.64764 0.0
H557 H 0.80081 0.13535 0.6987 0.0
H558 H 0.80459 0.09614 0.65955 0.0
H559 H 0.7882 0.0718 0.61065 0.0
H560 H 0.71502 0.10445 0.56337 0.0
H561 H 0.71184 0.14488 0.60187 0.0
C562 C 0.74665 0.15501 0.65082 0.0
C563 C 0.76573 0.15715 0.67624 0.0
C564 C 0.74807 0.13161 0.62888 0.0
C565 C 0.78627 0.1352 0.67909 0.0
C566 C 0.78832 0.11241 0.65682 0.0
C567 C 0.77154 0.08776 0.60889 0.0
C568 C 0.752 0.08535 0.58415 0.0
C569 C 0.76943 0.11047 0.63154 0.0
C570 C 0.73026 0.10586 0.5823 0.0
C571 C 0.72851 0.12901 0.60422 0.0
H572 H 0.37545 0.32941 0.1668 0.0
H573 H 0.3401 0.24911 0.12787 0.0
H574 H 0.3768 0.24708 0.0884 0.0
H575 H 0.41929 0.26772 0.06553 0.0
H576 H 0.45313 0.34993 0.10168 0.0
H577 H 0.41668 0.35185 0.14156 0.0
C578 C 0.37588 0.31158 0.14956 0.0
C579 C 0.35531 0.28934 0.15018 0.0
C580 C 0.39672 0.31094 0.12653 0.0
C581 C 0.35575 0.26645 0.12767 0.0
C582 C 0.37673 0.26527 0.10521 0.0
C583 C 0.41868 0.28606 0.08216 0.0
C584 C 0.439 0.30851 0.08088 0.0
C585 C 0.39738 0.2873 0.1045 0.0
C586 C 0.4377 0.33239 0.10221 0.0
C587 C 0.41692 0.33344 0.12505 0.0
H588 H 0.89707 0.6407 0.6931 0.0
H589 H 0.85649 0.59985 0.7721 0.0
H590 H 0.89239 0.56235 0.77429 0.0
H591 H 0.93645 0.54269 0.75602 0.0
H592 H 0.97664 0.58092 0.67565 0.0
H593 H 0.93927 0.61751 0.67115 0.0
C594 C 0.8958 0.62333 0.71045 0.0
C595 C 0.87434 0.6236 0.73286 0.0
C596 C 0.9164 0.60137 0.71133 0.0
C597 C 0.87316 0.60084 0.75519 0.0
C598 C 0.89357 0.57918 0.75633 0.0
C599 C 0.93694 0.55894 0.73737 0.0
C600 C 0.95934 0.55948 0.71645 0.0
C601 C 0.91551 0.57959 0.73494 0.0
C602 C 0.95954 0.58019 0.69203 0.0
C603 C 0.93828 0.60114 0.6896 0.0
H604 H 0.86847 0.39147 0.18628 0.0
H605 H 0.88591 0.36253 0.28107 0.0
H606 H 0.92279 0.39927 0.2863 0.0
H607 H 0.94957 0.44005 0.26484 0.0
H608 H 0.93419 0.46885 0.16971 0.0
H609 H 0.89741 0.43137 0.16357 0.0
C610 C 0.88051 0.39302 0.20795 0.0
C611 C 0.87398 0.37452 0.23342 0.0
C612 C 0.90211 0.41413 0.21077 0.0
C613 C 0.88986 0.37695 0.26136 0.0
C614 C 0.91116 0.39782 0.26433 0.0
C615 C 0.93822 0.4382 0.24269 0.0
C616 C 0.9445 0.45741 0.21786 0.0
C617 C 0.91729 0.41668 0.23935 0.0
C618 C 0.92977 0.45437 0.18923 0.0
C619 C 0.90869 0.43298 0.18574 0.0
H620 H 0.14249 0.3644 0.75805 0.0
H621 H 0.17897 0.39924 0.67354 0.0
H622 H 0.14098 0.43455 0.66868 0.0
H623 H 0.09816 0.45712 0.68985 0.0
H624 H 0.06433 0.42397 0.77649 0.0
H625 H 0.10067 0.38682 0.77926 0.0
C626 C 0.14244 0.37993 0.73875 0.0
C627 C 0.16378 0.37913 0.71634 0.0
C628 C 0.12093 0.40062 0.73648 0.0
C629 C 0.16275 0.39902 0.69103 0.0
C630 C 0.14108 0.4194 0.68831 0.0
C631 C 0.09868 0.44158 0.70914 0.0
C632 C 0.07859 0.44332 0.73293 0.0
C633 C 0.12012 0.42055 0.71102 0.0
C634 C 0.07965 0.42323 0.75798 0.0
C635 C 0.10041 0.40194 0.75959 0.0
H636 H 0.1269 0.6582 0.25149 0.0
H637 H 0.16059 0.61982 0.16676 0.0
H638 H 0.11992 0.58746 0.16147 0.0
H639 H 0.07624 0.56728 0.18327 0.0
H640 H 0.04517 0.60337 0.27032 0.0
H641 H 0.08333 0.63914 0.27243 0.0
C642 C 0.12552 0.64263 0.23196 0.0
C643 C 0.14699 0.64139 0.20974 0.0
C644 C 0.10246 0.62355 0.22949 0.0
C645 C 0.14434 0.62153 0.18413 0.0
C646 C 0.12114 0.60283 0.18118 0.0
C647 C 0.07766 0.58333 0.20237 0.0
C648 C 0.05796 0.58274 0.22659 0.0
C649 C 0.10023 0.60333 0.20397 0.0
C650 C 0.06018 0.60335 0.25147 0.0
C651 C 0.08201 0.62377 0.25273 0.0
H652 H 0.82498 0.87087 0.63622 0.0
H653 H 0.74226 0.88732 0.6702 0.0
H654 H 0.73931 0.9318 0.63827 0.0
H655 H 0.75928 0.96472 0.59914 0.0
H656 H 0.84226 0.94943 0.56526 0.0
H657 H 0.84621 0.90594 0.59892 0.0
C658 C 0.80638 0.88429 0.63659 0.0
C659 C 0.78385 0.87585 0.65543 0.0
C660 C 0.80489 0.90999 0.61827 0.0
C661 C 0.75995 0.89352 0.65605 0.0
C662 C 0.7582 0.91887 0.63772 0.0
C663 C 0.77832 0.95199 0.59922 0.0
C664 C 0.80035 0.96015 0.57955 0.0
C665 C 0.78042 0.92715 0.61855 0.0
C666 C 0.82499 0.94363 0.58022 0.0
C667 C 0.82721 0.91868 0.59934 0.0
H668 H 0.62984 0.27671 0.15908 0.0
H669 H 0.66976 0.21328 0.09848 0.0
H670 H 0.62796 0.21043 0.06506 0.0
H671 H 0.58043 0.22753 0.05212 0.0
H672 H 0.54236 0.29352 0.1112 0.0
H673 H 0.5827 0.29333 0.14663 0.0
C674 C 0.62927 0.26205 0.13872 0.0
C675 C 0.65278 0.24517 0.13128 0.0
C676 C 0.60539 0.26084 0.11951 0.0
C677 C 0.65197 0.22666 0.10452 0.0
C678 C 0.62803 0.2249 0.08554 0.0
C679 C 0.58087 0.24141 0.0731 0.0
C680 C 0.55844 0.26026 0.07936 0.0
C681 C 0.60464 0.24201 0.09272 0.0
C682 C 0.5594 0.27872 0.10611 0.0
C683 C 0.58248 0.27872 0.12626 0.0
H684 H 0.30304 0.12564 0.63613 0.0
H685 H 0.22222 0.15947 0.61032 0.0
H686 H 0.2162 0.11987 0.5718 0.0
H687 H 0.23315 0.0755 0.54587 0.0
H688 H 0.31457 0.04199 0.56873 0.0
H689 H 0.32134 0.08208 0.60748 0.0
C690 C 0.28424 0.12455 0.62186 0.0
C691 C 0.26292 0.14534 0.62666 0.0
C692 C 0.28103 0.10186 0.59915 0.0
C693 C 0.23867 0.1434 0.60792 0.0
C694 C 0.23526 0.12088 0.58562 0.0
C695 C 0.25242 0.07687 0.55932 0.0
C696 C 0.27321 0.05563 0.55467 0.0
C697 C 0.25617 0.0999 0.58124 0.0
C698 C 0.29822 0.05807 0.57192 0.0
C699 C 0.30204 0.08092 0.59412 0.0
H700 H 0.38221 0.67549 0.11134 0.0
H701 H 0.40936 0.75726 0.15556 0.0
H702 H 0.45067 0.75784 0.12309 0.0
H703 H 0.47738 0.73737 0.07974 0.0
H704 H 0.45213 0.65499 0.03594 0.0
H705 H 0.41218 0.65192 0.07131 0.0
C706 C 0.39738 0.69316 0.11423 0.0
C707 C 0.39226 0.71668 0.13537 0.0
C708 C 0.42144 0.69325 0.09562 0.0
C709 C 0.41225 0.73937 0.13881 0.0
C710 C 0.43604 0.73963 0.12042 0.0
C711 C 0.46328 0.71857 0.07814 0.0
C712 C 0.46743 0.69663 0.05509 0.0
C713 C 0.44051 0.71707 0.09831 0.0
C714 C 0.44932 0.67215 0.05356 0.0
C715 C 0.42641 0.67052 0.07362 0.0
H716 H 0.81644 0.1397 0.35765 0.0
H717 H 0.74136 0.18091 0.39113 0.0
H718 H 0.74042 0.1475 0.43562 0.0
H719 H 0.75976 0.10555 0.46417 0.0
H720 H 0.83647 0.06634 0.43359 0.0
H721 H 0.83836 0.10066 0.3893 0.0
C722 C 0.80012 0.14181 0.37491 0.0
C723 C 0.77871 0.16256 0.37047 0.0
C724 C 0.80002 0.12293 0.40105 0.0
C725 C 0.75766 0.16463 0.39318 0.0
C726 C 0.75721 0.14569 0.41889 0.0
C727 C 0.77698 0.10462 0.44789 0.0
C728 C 0.7978 0.08331 0.45189 0.0
C729 C 0.77804 0.12452 0.42281 0.0
C730 C 0.82021 0.08261 0.43096 0.0
C731 C 0.82121 0.10213 0.40559 0.0
H732 H 0.38392 0.23294 0.85902 0.0
H733 H 0.36102 0.32412 0.87319 0.0
H734 H 0.3941 0.32847 0.91702 0.0
H735 H 0.42973 0.30666 0.95092 0.0
H736 H 0.4523 0.21517 0.93796 0.0
H737 H 0.41915 0.21063 0.89408 0.0
C738 C 0.38633 0.25377 0.87165 0.0
C739 C 0.37011 0.2782 0.86287 0.0
C740 C 0.40526 0.25604 0.89704 0.0
C741 C 0.37312 0.30496 0.87967 0.0
C742 C 0.39209 0.30749 0.90465 0.0
C743 C 0.42743 0.28569 0.93853 0.0
C744 C 0.44358 0.26133 0.94766 0.0
C745 C 0.40827 0.2832 0.91351 0.0
C746 C 0.44012 0.23427 0.93148 0.0
C747 C 0.42121 0.23168 0.90632 0.0
H748 H 0.23541 0.84218 0.36314 0.0
H749 H 0.32204 0.8561 0.34245 0.0
H750 H 0.32451 0.89632 0.38138 0.0
H751 H 0.30159 0.92825 0.42079 0.0
H752 H 0.21447 0.91447 0.43982 0.0
H753 H 0.21279 0.87346 0.40241 0.0
C754 C 0.25491 0.85381 0.36741 0.0
C755 C 0.2785 0.84613 0.35001 0.0
C756 C 0.25609 0.87703 0.38955 0.0
C757 C 0.30351 0.86175 0.3554 0.0
C758 C 0.30496 0.88468 0.37772 0.0
C759 C 0.28231 0.91616 0.41683 0.0
C760 C 0.25822 0.92453 0.43309 0.0
C761 C 0.28132 0.89265 0.39485 0.0
C762 C 0.23333 0.9087 0.42754 0.0
C763 C 0.2323 0.88515 0.40615 0.0
H764 H 0.66063 0.68492 0.85899 0.0
H765 H 0.64484 0.77641 0.83705 0.0
H766 H 0.60564 0.77676 0.87281 0.0
H767 H 0.57672 0.75188 0.91143 0.0
H768 H 0.59093 0.66007 0.93278 0.0
H769 H 0.62948 0.65892 0.89558 0.0
C770 C 0.64839 0.70482 0.86171 0.0
C771 C 0.65602 0.73072 0.84563 0.0
C772 C 0.62556 0.70483 0.88216 0.0
C773 C 0.63995 0.75635 0.84965 0.0
C774 C 0.61736 0.75654 0.86995 0.0
C775 C 0.58816 0.73154 0.90792 0.0
C776 C 0.58108 0.70617 0.92505 0.0
C777 C 0.6102 0.73105 0.88658 0.0
C778 C 0.59595 0.67993 0.9199 0.0
C779 C 0.61805 0.67929 0.89871 0.0
loop_
_geom_bond_atom_site_label_1
_geom_bond_atom_site_label_2
_geom_bond_distance
_geom_bond_site_symmetry_2
_ccdc_geom_bond_type
C0 C1 1.386 . S
C0 C2 1.397 . S
C0 H24 0.931 . S
C1 C0 1.386 . S
C1 C5 1.397 . S
C2 C0 1.397 . S
C2 C3 1.384 . S
C2 H25 0.930 . S
C3 C2 1.384 . S
C3 C4 1.377 . S
C3 C6 1.481 . S
C4 C3 1.377 . S
C4 C5 1.389 . S
C4 H26 0.929 . S
C5 C1 1.397 . S
C5 C4 1.389 . S
C5 H27 0.931 . S
C6 C3 1.481 . S
C6 C7 1.387 . S
C6 C11 1.390 . S
C7 C6 1.387 . S
C7 C8 1.401 . S
C7 H28 0.930 . S
C8 C7 1.401 . S
C8 C9 1.376 . S
C8 C17 1.511 . S
C9 C8 1.376 . S
C9 C10 1.392 . S
C9 H30 0.931 . S
C10 C9 1.392 . S
C10 C11 1.361 . S
C10 C12 1.500 . S
C11 C6 1.390 . S
C11 C10 1.361 . S
C11 H29 0.931 . S
C12 C10 1.500 . S
C12 C13 1.371 . S
C12 C14 1.365 . S
C13 C12 1.371 . S
C13 C23 1.386 . S
C13 H31 0.931 . S
C14 C12 1.365 . S
C14 C15 1.409 . S
C14 H32 0.929 . S
C15 C14 1.409 . S
C15 C16 1.380 . S
C15 H33 0.930 . S
C16 C15 1.380 . S
C16 C23 1.357 . S
C17 C8 1.511 . S
C17 C18 1.341 . S
C17 C19 1.371 . S
C18 C17 1.341 . S
C18 C22 1.394 . S
C18 H34 0.930 . S
C19 C17 1.371 . S
C19 C20 1.392 . S
C19 H35 0.931 . S
C20 C19 1.392 . S
C20 C21 1.331 . S
C20 H38 0.932 . S
C21 C20 1.331 . S
C21 C22 1.336 . S
C22 C18 1.394 . S
C22 C21 1.336 . S
C22 H37 0.929 . S
C23 C13 1.386 . S
C23 C16 1.357 . S
C23 H36 0.928 . S
H24 C0 0.931 . S
H25 C2 0.930 . S
H26 C4 0.929 . S
H27 C5 0.931 . S
H28 C7 0.930 . S
H29 C11 0.931 . S
H30 C9 0.931 . S
H31 C13 0.931 . S
H32 C14 0.929 . S
H33 C15 0.930 . S
H34 C18 0.930 . S
H35 C19 0.931 . S
H36 C23 0.928 . S
H37 C22 0.929 . S
H38 C20 0.932 . S
C39 C40 1.386 . S
C39 C41 1.397 . S
C39 H63 0.931 . S
C40 C39 1.386 . S
C40 C44 1.397 . S
C41 C39 1.397 . S
C41 C42 1.384 . S
C41 H64 0.930 . S
C42 C41 1.384 . S
C42 C43 1.377 . S
C42 C45 1.481 . S
C43 C42 1.377 . S
C43 C44 1.389 . S
C43 H65 0.929 . S
C44 C40 1.397 . S
C44 C43 1.389 . S
C44 H66 0.931 . S
C45 C42 1.481 . S
C45 C46 1.387 . S
C45 C50 1.390 . S
C46 C45 1.387 . S
C46 C47 1.401 . S
C46 H67 0.930 . S
C47 C46 1.401 . S
C47 C48 1.376 . S
C47 C56 1.511 . S
C48 C47 1.376 . S
C48 C49 1.392 . S
C48 H69 0.931 . S
C49 C48 1.392 . S
C49 C50 1.361 . S
C49 C51 1.500 . S
C50 C45 1.390 . S
C50 C49 1.361 . S
C50 H68 0.931 . S
C51 C49 1.500 . S
C51 C52 1.371 . S
C51 C53 1.365 . S
C52 C51 1.371 . S
C52 C62 1.386 . S
C52 H70 0.931 . S
C53 C51 1.365 . S
C53 C54 1.409 . S
C53 H71 0.929 . S
C54 C53 1.409 . S
C54 C55 1.380 . S
C54 H72 0.930 . S
C55 C54 1.380 . S
C55 C62 1.357 . S
C56 C47 1.511 . S
C56 C57 1.341 . S
C56 C58 1.371 . S
C57 C56 1.341 . S
C57 C61 1.394 . S
C57 H73 0.930 . S
C58 C56 1.371 . S
C58 C59 1.392 . S
C58 H74 0.931 . S
C59 C58 1.392 . S
C59 C60 1.331 . S
C59 H77 0.932 . S
C60 C59 1.331 . S
C60 C61 1.336 . S
C61 C57 1.394 . S
C61 C60 1.336 . S
C61 H76 0.929 . S
C62 C52 1.386 . S
C62 C55 1.357 . S
C62 H75 0.928 . S
H63 C39 0.931 . S
H64 C41 0.930 . S
H65 C43 0.929 . S
H66 C44 0.931 . S
H67 C46 0.930 . S
H68 C50 0.931 . S
H69 C48 0.931 . S
H70 C52 0.931 . S
H71 C53 0.929 . S
H72 C54 0.930 . S
H73 C57 0.930 . S
H74 C58 0.931 . S
H75 C62 0.928 . S
H76 C61 0.929 . S
H77 C59 0.932 . S
C78 C79 1.386 . S
C78 C80 1.397 . S
C78 H102 0.931 . S
C79 C78 1.386 . S
C79 C83 1.397 . S
C80 C78 1.397 . S
C80 C81 1.384 . S
C80 H103 0.930 . S
C81 C80 1.384 . S
C81 C82 1.377 . S
C81 C84 1.481 . S
C82 C81 1.377 . S
C82 C83 1.389 . S
C82 H104 0.929 . S
C83 C79 1.397 . S
C83 C82 1.389 . S
C83 H105 0.931 . S
C84 C81 1.481 . S
C84 C85 1.387 . S
C84 C89 1.390 . S
C85 C84 1.387 . S
C85 C86 1.401 . S
C85 H106 0.930 . S
C86 C85 1.401 . S
C86 C87 1.376 . S
C86 C95 1.511 . S
C87 C86 1.376 . S
C87 C88 1.392 . S
C87 H108 0.931 . S
C88 C87 1.392 . S
C88 C89 1.361 . S
C88 C90 1.500 . S
C89 C84 1.390 . S
C89 C88 1.361 . S
C89 H107 0.931 . S
C90 C88 1.500 . S
C90 C91 1.371 . S
C90 C92 1.365 . S
C91 C90 1.371 . S
C91 C101 1.386 . S
C91 H109 0.931 . S
C92 C90 1.365 . S
C92 C93 1.409 . S
C92 H110 0.929 . S
C93 C92 1.409 . S
C93 C94 1.380 . S
C93 H111 0.930 . S
C94 C93 1.380 . S
C94 C101 1.357 . S
C95 C86 1.511 . S
C95 C96 1.341 . S
C95 C97 1.371 . S
C96 C95 1.341 . S
C96 C100 1.394 . S
C96 H112 0.930 . S
C97 C95 1.371 . S
C97 C98 1.392 . S
C97 H113 0.931 . S
C98 C97 1.392 . S
C98 C99 1.331 . S
C98 H116 0.932 . S
C99 C98 1.331 . S
C99 C100 1.336 . S
C100 C96 1.394 . S
C100 C99 1.336 . S
C100 H115 0.929 . S
C101 C91 1.386 . S
C101 C94 1.357 . S
C101 H114 0.928 . S
H102 C78 0.931 . S
H103 C80 0.930 . S
H104 C82 0.929 . S
H105 C83 0.931 . S
H106 C85 0.930 . S
H107 C89 0.931 . S
H108 C87 0.931 . S
H109 C91 0.931 . S
H110 C92 0.929 . S
H111 C93 0.930 . S
H112 C96 0.930 . S
H113 C97 0.931 . S
H114 C101 0.928 . S
H115 C100 0.929 . S
H116 C98 0.932 . S
C117 C118 1.386 . S
C117 C119 1.397 . S
C117 H141 0.931 . S
C118 C117 1.386 . S
C118 C122 1.397 . S
C119 C117 1.397 . S
C119 C120 1.384 . S
C119 H142 0.930 . S
C120 C119 1.384 . S
C120 C121 1.377 . S
C120 C123 1.481 . S
C121 C120 1.377 . S
C121 C122 1.389 . S
C121 H143 0.929 . S
C122 C118 1.397 . S
C122 C121 1.389 . S
C122 H144 0.931 . S
C123 C120 1.481 . S
C123 C124 1.387 . S
C123 C128 1.390 . S
C124 C123 1.387 . S
C124 C125 1.401 . S
C124 H145 0.930 . S
C125 C124 1.401 . S
C125 C126 1.376 . S
C125 C134 1.511 . S
C126 C125 1.376 . S
C126 C127 1.392 . S
C126 H147 0.931 . S
C127 C126 1.392 . S
C127 C128 1.361 . S
C127 C129 1.500 . S
C128 C123 1.390 . S
C128 C127 1.361 . S
C128 H146 0.931 . S
C129 C127 1.500 . S
C129 C130 1.371 . S
C129 C131 1.365 . S
C130 C129 1.371 . S
C130 C140 1.386 . S
C130 H148 0.931 . S
C131 C129 1.365 . S
C131 C132 1.409 . S
C131 H149 0.929 . S
C132 C131 1.409 . S
C132 C133 1.380 . S
C132 H150 0.930 . S
C133 C132 1.380 . S
C133 C140 1.357 . S
C134 C125 1.511 . S
C134 C135 1.341 . S
C134 C136 1.371 . S
C135 C134 1.341 . S
C135 C139 1.394 . S
C135 H151 0.930 . S
C136 C134 1.371 . S
C136 C137 1.392 . S
C136 H152 0.931 . S
C137 C136 1.392 . S
C137 C138 1.331 . S
C137 H155 0.932 . S
C138 C137 1.331 . S
C138 C139 1.336 . S
C139 C135 1.394 . S
C139 C138 1.336 . S
C139 H154 0.929 . S
C140 C130 1.386 . S
C140 C133 1.357 . S
C140 H153 0.928 . S
H141 C117 0.931 . S
H142 C119 0.930 . S
H143 C121 0.929 . S
H144 C122 0.931 . S
H145 C124 0.930 . S
H146 C128 0.931 . S
H147 C126 0.931 . S
H148 C130 0.931 . S
H149 C131 0.929 . S
H150 C132 0.930 . S
H151 C135 0.930 . S
H152 C136 0.931 . S
H153 C140 0.928 . S
H154 C139 0.929 . S
H155 C137 0.932 . S
C156 C157 1.386 . S
C156 C158 1.397 . S
C156 H180 0.931 . S
C157 C156 1.386 . S
C157 C161 1.397 . S
C158 C156 1.397 . S
C158 C159 1.384 . S
C158 H181 0.930 . S
C159 C158 1.384 . S
C159 C160 1.377 . S
C159 C162 1.481 . S
C160 C159 1.377 . S
C160 C161 1.389 . S
C160 H182 0.929 . S
C161 C157 1.397 . S
C161 C160 1.389 . S
C161 H183 0.931 . S
C162 C159 1.481 . S
C162 C163 1.387 . S
C162 C167 1.390 . S
C163 C162 1.387 . S
C163 C164 1.401 . S
C163 H184 0.930 . S
C164 C163 1.401 . S
C164 C165 1.376 . S
C164 C173 1.511 . S
C165 C164 1.376 . S
C165 C166 1.392 . S
C165 H186 0.931 . S
C166 C165 1.392 . S
C166 C167 1.361 . S
C166 C168 1.500 . S
C167 C162 1.390 . S
C167 C166 1.361 . S
C167 H185 0.931 . S
C168 C166 1.500 . S
C168 C169 1.371 . S
C168 C170 1.365 . S
C169 C168 1.371 . S
C169 C179 1.386 . S
C169 H187 0.931 . S
C170 C168 1.365 . S
C170 C171 1.409 . S
C170 H188 0.929 . S
C171 C170 1.409 . S
C171 C172 1.380 . S
C171 H189 0.930 . S
C172 C171 1.380 . S
C172 C179 1.357 . S
C173 C164 1.511 . S
C173 C174 1.341 . S
C173 C175 1.371 . S
C174 C173 1.341 . S
C174 C178 1.394 . S
C174 H190 0.930 . S
C175 C173 1.371 . S
C175 C176 1.392 . S
C175 H191 0.931 . S
C176 C175 1.392 . S
C176 C177 1.331 . S
C176 H194 0.932 . S
C177 C176 1.331 . S
C177 C178 1.336 . S
C178 C174 1.394 . S
C178 C177 1.336 . S
C178 H193 0.929 . S
C179 C169 1.386 . S
C179 C172 1.357 . S
C179 H192 0.928 . S
H180 C156 0.931 . S
H181 C158 0.930 . S
H182 C160 0.929 . S
H183 C161 0.931 . S
H184 C163 0.930 . S
H185 C167 0.931 . S
H186 C165 0.931 . S
H187 C169 0.931 . S
H188 C170 0.929 . S
H189 C171 0.930 . S
H190 C174 0.930 . S
H191 C175 0.931 . S
H192 C179 0.928 . S
H193 C178 0.929 . S
H194 C176 0.932 . S
C195 C196 1.386 . S
C195 C197 1.397 . S
C195 H219 0.931 . S
C196 C195 1.386 . S
C196 C200 1.397 . S
C197 C195 1.397 . S
C197 C198 1.384 . S
C197 H220 0.930 . S
C198 C197 1.384 . S
C198 C199 1.377 . S
C198 C201 1.481 . S
C199 C198 1.377 . S
C199 C200 1.389 . S
C199 H221 0.929 . S
C200 C196 1.397 . S
C200 C199 1.389 . S
C200 H222 0.931 . S
C201 C198 1.481 . S
C201 C202 1.387 . S
C201 C206 1.390 . S
C202 C201 1.387 . S
C202 C203 1.401 . S
C202 H223 0.930 . S
C203 C202 1.401 . S
C203 C204 1.376 . S
C203 C212 1.511 . S
C204 C203 1.376 . S
C204 C205 1.392 . S
C204 H225 0.931 . S
C205 C204 1.392 . S
C205 C206 1.361 . S
C205 C207 1.500 . S
C206 C201 1.390 . S
C206 C205 1.361 . S
C206 H224 0.931 . S
C207 C205 1.500 . S
C207 C208 1.371 . S
C207 C209 1.365 . S
C208 C207 1.371 . S
C208 C218 1.386 . S
C208 H226 0.931 . S
C209 C207 1.365 . S
C209 C210 1.409 . S
C209 H227 0.929 . S
C210 C209 1.409 . S
C210 C211 1.380 . S
C210 H228 0.930 . S
C211 C210 1.380 . S
C211 C218 1.357 . S
C212 C203 1.511 . S
C212 C213 1.341 . S
C212 C214 1.371 . S
C213 C212 1.341 . S
C213 C217 1.394 . S
C213 H229 0.930 . S
C214 C212 1.371 . S
C214 C215 1.392 . S
C214 H230 0.931 . S
C215 C214 1.392 . S
C215 C216 1.331 . S
C215 H233 0.932 . S
C216 C215 1.331 . S
C216 C217 1.336 . S
C217 C213 1.394 . S
C217 C216 1.336 . S
C217 H232 0.929 . S
C218 C208 1.386 . S
C218 C211 1.357 . S
C218 H231 0.928 . S
H219 C195 0.931 . S
H220 C197 0.930 . S
H221 C199 0.929 . S
H222 C200 0.931 . S
H223 C202 0.930 . S
H224 C206 0.931 . S
H225 C204 0.931 . S
H226 C208 0.931 . S
H227 C209 0.929 . S
H228 C210 0.930 . S
H229 C213 0.930 . S
H230 C214 0.931 . S
H231 C218 0.928 . S
H232 C217 0.929 . S
H233 C215 0.932 . S
C234 C235 1.386 . S
C234 C236 1.397 . S
C234 H258 0.931 . S
C235 C234 1.386 . S
C235 C239 1.397 . S
C236 C234 1.397 . S
C236 C237 1.384 . S
C236 H259 0.930 . S
C237 C236 1.384 . S
C237 C238 1.377 . S
C237 C240 1.481 . S
C238 C237 1.377 . S
C238 C239 1.389 . S
C238 H260 0.929 . S
C239 C235 1.397 . S
C239 C238 1.389 . S
C239 H261 0.931 . S
C240 C237 1.481 . S
C240 C241 1.387 . S
C240 C245 1.390 . S
C241 C240 1.387 . S
C241 C242 1.401 . S
C241 H262 0.930 . S
C242 C241 1.401 . S
C242 C243 1.376 . S
C242 C251 1.511 . S
C243 C242 1.376 . S
C243 C244 1.392 . S
C243 H264 0.931 . S
C244 C243 1.392 . S
C244 C245 1.361 . S
C244 C246 1.500 . S
C245 C240 1.390 . S
C245 C244 1.361 . S
C245 H263 0.931 . S
C246 C244 1.500 . S
C246 C247 1.371 . S
C246 C248 1.365 . S
C247 C246 1.371 . S
C247 C257 1.386 . S
C247 H265 0.931 . S
C248 C246 1.365 . S
C248 C249 1.409 . S
C248 H266 0.929 . S
C249 C248 1.409 . S
C249 C250 1.380 . S
C249 H267 0.930 . S
C250 C249 1.380 . S
C250 C257 1.357 . S
C251 C242 1.511 . S
C251 C252 1.341 . S
C251 C253 1.371 . S
C252 C251 1.341 . S
C252 C256 1.394 . S
C252 H268 0.930 . S
C253 C251 1.371 . S
C253 C254 1.392 . S
C253 H269 0.931 . S
C254 C253 1.392 . S
C254 C255 1.331 . S
C254 H272 0.932 . S
C255 C254 1.331 . S
C255 C256 1.336 . S
C256 C252 1.394 . S
C256 C255 1.336 . S
C256 H271 0.929 . S
C257 C247 1.386 . S
C257 C250 1.357 . S
C257 H270 0.928 . S
H258 C234 0.931 . S
H259 C236 0.930 . S
H260 C238 0.929 . S
H261 C239 0.931 . S
H262 C241 0.930 . S
H263 C245 0.931 . S
H264 C243 0.931 . S
H265 C247 0.931 . S
H266 C248 0.929 . S
H267 C249 0.930 . S
H268 C252 0.930 . S
H269 C253 0.931 . S
H270 C257 0.928 . S
H271 C256 0.929 . S
H272 C254 0.932 . S
C273 C274 1.386 . S
C273 C275 1.397 . S
C273 H297 0.931 . S
C274 C273 1.386 . S
C274 C278 1.397 . S
C275 C273 1.397 . S
C275 C276 1.384 . S
C275 H298 0.930 . S
C276 C275 1.384 . S
C276 C277 1.377 . S
C276 C279 1.481 . S
C277 C276 1.377 . S
C277 C278 1.389 . S
C277 H299 0.929 . S
C278 C274 1.397 . S
C278 C277 1.389 . S
C278 H300 0.931 . S
C279 C276 1.481 . S
C279 C280 1.387 . S
C279 C284 1.390 . S
C280 C279 1.387 . S
C280 C281 1.401 . S
C280 H301 0.930 . S
C281 C280 1.401 . S
C281 C282 1.376 . S
C281 C290 1.511 . S
C282 C281 1.376 . S
C282 C283 1.392 . S
C282 H303 0.931 . S
C283 C282 1.392 . S
C283 C284 1.361 . S
C283 C285 1.500 . S
C284 C279 1.390 . S
C284 C283 1.361 . S
C284 H302 0.931 . S
C285 C283 1.500 . S
C285 C286 1.371 . S
C285 C287 1.365 . S
C286 C285 1.371 . S
C286 C296 1.386 . S
C286 H304 0.931 . S
C287 C285 1.365 . S
C287 C288 1.409 . S
C287 H305 0.929 . S
C288 C287 1.409 . S
C288 C289 1.380 . S
C288 H306 0.930 . S
C289 C288 1.380 . S
C289 C296 1.357 . S
C290 C281 1.511 . S
C290 C291 1.341 . S
C290 C292 1.371 . S
C291 C290 1.341 . S
C291 C295 1.394 . S
C291 H307 0.930 . S
C292 C290 1.371 . S
C292 C293 1.392 . S
C292 H308 0.931 . S
C293 C292 1.392 . S
C293 C294 1.331 . S
C293 H311 0.932 . S
C294 C293 1.331 . S
C294 C295 1.336 . S
C295 C291 1.394 . S
C295 C294 1.336 . S
C295 H310 0.929 . S
C296 C286 1.386 . S
C296 C289 1.357 . S
C296 H309 0.928 . S
H297 C273 0.931 . S
H298 C275 0.930 . S
H299 C277 0.929 . S
H300 C278 0.931 . S
H301 C280 0.930 . S
H302 C284 0.931 . S
H303 C282 0.931 . S
H304 C286 0.931 . S
H305 C287 0.929 . S
H306 C288 0.930 . S
H307 C291 0.930 . S
H308 C292 0.931 . S
H309 C296 0.928 . S
H310 C295 0.929 . S
H311 C293 0.932 . S
C312 O314 1.247 . S
C312 O316 1.258 . S
C313 O320 1.247 . S
C313 O321 1.258 . S
O314 C312 1.247 . S
O314 Zn315 2.028 1_655 S
Zn315 O314 2.028 1_455 S
Zn315 O319 2.035 . S
Zn315 O321 2.035 . S
Zn315 O322 2.028 1_455 S
O316 C312 1.258 . S
O316 Zn317 2.035 1_655 S
Zn317 O316 2.035 1_455 S
Zn317 O318 2.028 . S
Zn317 O320 2.028 . S
Zn317 O323 2.035 1_455 S
O318 Zn317 2.028 . S
O318 C324 1.247 . S
O319 Zn315 2.035 . S
O319 C324 1.258 . S
O320 C313 1.247 . S
O320 Zn317 2.028 . S
O321 C313 1.258 . S
O321 Zn315 2.035 . S
O322 Zn315 2.028 1_655 S
O322 C325 1.247 . S
O323 Zn317 2.035 1_655 S
O323 C325 1.258 . S
C324 O318 1.247 . S
C324 O319 1.258 . S
C325 O322 1.247 . S
C325 O323 1.258 . S
C326 O328 1.247 . S
C326 O330 1.258 . S
C327 O334 1.247 . S
C327 O335 1.258 . S
O328 C326 1.247 . S
O328 Zn329 2.028 1_655 S
Zn329 O328 2.028 1_455 S
Zn329 O333 2.035 . S
Zn329 O335 2.035 . S
Zn329 O336 2.028 1_455 S
O330 C326 1.258 . S
O330 Zn331 2.035 1_655 S
Zn331 O330 2.035 1_455 S
Zn331 O332 2.028 . S
Zn331 O334 2.028 . S
Zn331 O337 2.035 1_455 S
O332 Zn331 2.028 . S
O332 C338 1.247 . S
O333 Zn329 2.035 . S
O333 C338 1.258 . S
O334 C327 1.247 . S
O334 Zn331 2.028 . S
O335 C327 1.258 . S
O335 Zn329 2.035 . S
O336 Zn329 2.028 1_655 S
O336 C339 1.247 . S
O337 Zn331 2.035 1_655 S
O337 C339 1.258 . S
C338 O332 1.247 . S
C338 O333 1.258 . S
C339 O336 1.247 . S
C339 O337 1.258 . S
C340 O342 1.247 . S
C340 O344 1.258 . S
C341 O348 1.247 . S
C341 O349 1.258 . S
O342 C340 1.247 . S
O342 Zn343 2.028 1_565 S
Zn343 O342 2.028 1_545 S
Zn343 O347 2.035 . S
Zn343 O349 2.035 . S
Zn343 O350 2.028 1_545 S
O344 C340 1.258 . S
O344 Zn345 2.035 1_565 S
Zn345 O344 2.035 1_545 S
Zn345 O346 2.028 . S
Zn345 O348 2.028 . S
Zn345 O351 2.035 1_545 S
O346 Zn345 2.028 . S
O346 C352 1.247 . S
O347 Zn343 2.035 . S
O347 C352 1.258 . S
O348 C341 1.247 . S
O348 Zn345 2.028 . S
O349 C341 1.258 . S
O349 Zn343 2.035 . S
O350 Zn343 2.028 1_565 S
O350 C353 1.247 . S
O351 Zn345 2.035 1_565 S
O351 C353 1.258 . S
C352 O346 1.247 . S
C352 O347 1.258 . S
C353 O350 1.247 . S
C353 O351 1.258 . S
C354 O356 1.247 . S
C354 O358 1.258 . S
C355 O362 1.247 . S
C355 O363 1.258 . S
O356 C354 1.247 . S
O356 Zn357 2.047 . S
Zn357 O356 2.047 . S
Zn357 O361 2.054 . S
Zn357 O363 2.017 1_554 S
Zn357 O364 2.009 1_554 S
O358 C354 1.258 . S
O358 Zn359 2.035 . S
Zn359 O358 2.035 . S
Zn359 O360 2.028 . S
Zn359 O362 2.028 1_554 S
Zn359 O365 2.035 1_554 S
O360 Zn359 2.028 . S
O360 C366 1.247 . S
O361 Zn357 2.054 . S
O361 C366 1.258 . S
O362 C355 1.247 . S
O362 Zn359 2.028 1_556 S
O363 C355 1.258 . S
O363 Zn357 2.017 1_556 S
O364 Zn357 2.009 1_556 S
O364 C367 1.247 . S
O365 Zn359 2.035 1_556 S
O365 C367 1.258 . S
C366 O360 1.247 . S
C366 O361 1.258 . S
C367 O364 1.247 . S
C367 O365 1.258 . S
C368 O370 1.247 . S
C368 O372 1.258 . S
C369 O376 1.247 . S
C369 O377 1.258 . S
O370 C368 1.247 . S
O370 Zn371 2.001 1_565 S
Zn371 O370 2.001 1_545 S
Zn371 O375 2.063 . S
Zn371 O377 2.063 . S
Zn371 O378 2.001 1_545 S
O372 C368 1.258 . S
O372 Zn373 2.035 1_565 S
Zn373 O372 2.035 1_545 S
Zn373 O374 2.028 . S
Zn373 O376 2.028 . S
Zn373 O379 2.035 1_545 S
O374 Zn373 2.028 . S
O374 C380 1.247 . S
O375 Zn371 2.063 . S
O375 C380 1.258 . S
O376 C369 1.247 . S
O376 Zn373 2.028 . S
O377 C369 1.258 . S
O377 Zn371 2.063 . S
O378 Zn371 2.001 1_565 S
O378 C381 1.247 . S
O379 Zn373 2.035 1_565 S
O379 C381 1.258 . S
C380 O374 1.247 . S
C380 O375 1.258 . S
C381 O378 1.247 . S
C381 O379 1.258 . S
C382 O384 1.247 . S
C382 O386 1.258 . S
C383 O390 1.247 . S
C383 O391 1.258 . S
O384 C382 1.247 . S
O384 Zn385 2.028 . S
Zn385 O384 2.028 . S
Zn385 O389 2.035 . S
Zn385 O391 2.035 1_554 S
Zn385 O392 2.028 1_554 S
O386 C382 1.258 . S
O386 Zn387 2.035 . S
Zn387 O386 2.035 . S
Zn387 O388 2.028 . S
Zn387 O390 2.028 1_554 S
Zn387 O393 2.035 1_554 S
O388 Zn387 2.028 . S
O388 C394 1.247 . S
O389 Zn385 2.035 . S
O389 C394 1.258 . S
O390 C383 1.247 . S
O390 Zn387 2.028 1_556 S
O391 C383 1.258 . S
O391 Zn385 2.035 1_556 S
O392 Zn385 2.028 1_556 S
O392 C395 1.247 . S
O393 Zn387 2.035 1_556 S
O393 C395 1.258 . S
C394 O388 1.247 . S
C394 O389 1.258 . S
C395 O392 1.247 . S
C395 O393 1.258 . S
H396 C402 0.930 . S
H397 C405 0.930 . S
H398 C406 0.930 . S
H399 C407 0.930 . S
H400 C410 0.930 . S
H401 C411 0.930 . S
C402 H396 0.930 . S
C402 C403 1.355 . S
C402 C404 1.415 . S
C403 C402 1.355 . S
C403 C405 1.419 . S
C404 C402 1.415 . S
C404 C409 1.425 . S
C404 C411 1.409 . S
C405 H397 0.930 . S
C405 C403 1.419 . S
C405 C406 1.362 . S
C406 H398 0.930 . S
C406 C405 1.362 . S
C406 C409 1.409 . S
C407 H399 0.930 . S
C407 C408 1.355 . S
C407 C409 1.415 . S
C408 C407 1.355 . S
C408 C410 1.419 . S
C409 C404 1.425 . S
C409 C406 1.409 . S
C409 C407 1.415 . S
C410 H400 0.930 . S
C410 C408 1.419 . S
C410 C411 1.362 . S
C411 H401 0.930 . S
C411 C404 1.409 . S
C411 C410 1.362 . S
H412 C418 0.930 . S
H413 C421 0.930 . S
H414 C422 0.930 . S
H415 C423 0.930 . S
H416 C426 0.930 . S
H417 C427 0.930 . S
C418 H412 0.930 . S
C418 C419 1.355 . S
C418 C420 1.415 . S
C419 C418 1.355 . S
C419 C421 1.419 . S
C420 C418 1.415 . S
C420 C425 1.425 . S
C420 C427 1.409 . S
C421 H413 0.930 . S
C421 C419 1.419 . S
C421 C422 1.362 . S
C422 H414 0.930 . S
C422 C421 1.362 . S
C422 C425 1.409 . S
C423 H415 0.930 . S
C423 C424 1.355 . S
C423 C425 1.415 . S
C424 C423 1.355 . S
C424 C426 1.419 . S
C425 C420 1.425 . S
C425 C422 1.409 . S
C425 C423 1.415 . S
C426 H416 0.930 . S
C426 C424 1.419 . S
C426 C427 1.362 . S
C427 H417 0.930 . S
C427 C420 1.409 . S
C427 C426 1.362 . S
H428 C434 0.930 . S
H429 C437 0.930 . S
H430 C438 0.930 . S
H431 C439 0.930 . S
H432 C442 0.930 . S
H433 C443 0.930 . S
C434 H428 0.930 . S
C434 C435 1.355 . S
C434 C436 1.415 . S
C435 C434 1.355 . S
C435 C437 1.419 . S
C436 C434 1.415 . S
C436 C441 1.425 . S
C436 C443 1.409 . S
C437 H429 0.930 . S
C437 C435 1.419 . S
C437 C438 1.362 . S
C438 H430 0.930 . S
C438 C437 1.362 . S
C438 C441 1.409 . S
C439 H431 0.930 . S
C439 C440 1.355 . S
C439 C441 1.415 . S
C440 C439 1.355 . S
C440 C442 1.419 . S
C441 C436 1.425 . S
C441 C438 1.409 . S
C441 C439 1.415 . S
C442 H432 0.930 . S
C442 C440 1.419 . S
C442 C443 1.362 . S
C443 H433 0.930 . S
C443 C436 1.409 . S
C443 C442 1.362 . S
H444 C450 0.930 . S
H445 C453 0.930 . S
H446 C454 0.930 . S
H447 C455 0.930 . S
H448 C458 0.930 . S
H449 C459 0.930 . S
C450 H444 0.930 . S
C450 C451 1.355 . S
C450 C452 1.415 . S
C451 C450 1.355 . S
C451 C453 1.419 . S
C452 C450 1.415 . S
C452 C457 1.425 . S
C452 C459 1.409 . S
C453 H445 0.930 . S
C453 C451 1.419 . S
C453 C454 1.362 . S
C454 H446 0.930 . S
C454 C453 1.362 . S
C454 C457 1.409 . S
C455 H447 0.930 . S
C455 C456 1.355 . S
C455 C457 1.415 . S
C456 C455 1.355 . S
C456 C458 1.419 . S
C457 C452 1.425 . S
C457 C454 1.409 . S
C457 C455 1.415 . S
C458 H448 0.930 . S
C458 C456 1.419 . S
C458 C459 1.362 . S
C459 H449 0.930 . S
C459 C452 1.409 . S
C459 C458 1.362 . S
H460 C466 0.930 . S
H461 C469 0.930 . S
H462 C470 0.930 . S
H463 C471 0.930 . S
H464 C474 0.930 . S
H465 C475 0.930 . S
C466 H460 0.930 . S
C466 C467 1.355 . S
C466 C468 1.415 . S
C467 C466 1.355 . S
C467 C469 1.419 . S
C468 C466 1.415 . S
C468 C473 1.425 . S
C468 C475 1.409 . S
C469 H461 0.930 . S
C469 C467 1.419 . S
C469 C470 1.362 . S
C470 H462 0.930 . S
C470 C469 1.362 . S
C470 C473 1.409 . S
C471 H463 0.930 . S
C471 C472 1.355 . S
C471 C473 1.415 . S
C472 C471 1.355 . S
C472 C474 1.419 . S
C473 C468 1.425 . S
C473 C470 1.409 . S
C473 C471 1.415 . S
C474 H464 0.930 . S
C474 C472 1.419 . S
C474 C475 1.362 . S
C475 H465 0.930 . S
C475 C468 1.409 . S
C475 C474 1.362 . S
H476 C482 0.930 . S
H477 C485 0.930 . S
H478 C486 0.930 . S
H479 C487 0.930 . S
H480 C490 0.930 . S
H481 C491 0.930 . S
C482 H476 0.930 . S
C482 C483 1.355 . S
C482 C484 1.415 . S
C483 C482 1.355 . S
C483 C485 1.419 . S
C484 C482 1.415 . S
C484 C489 1.425 . S
C484 C491 1.409 . S
C485 H477 0.930 . S
C485 C483 1.419 . S
C485 C486 1.362 . S
C486 H478 0.930 . S
C486 C485 1.362 . S
C486 C489 1.409 . S
C487 H479 0.930 . S
C487 C488 1.355 . S
C487 C489 1.415 . S
C488 C487 1.355 . S
C488 C490 1.419 . S
C489 C484 1.425 . S
C489 C486 1.409 . S
C489 C487 1.415 . S
C490 H480 0.930 . S
C490 C488 1.419 . S
C490 C491 1.362 . S
C491 H481 0.930 . S
C491 C484 1.409 . S
C491 C490 1.362 . S
H492 C498 0.930 . S
H493 C501 0.930 . S
H494 C502 0.930 . S
H495 C503 0.930 . S
H496 C506 0.930 . S
H497 C507 0.930 . S
C498 H492 0.930 . S
C498 C499 1.355 . S
C498 C500 1.415 . S
C499 C498 1.355 . S
C499 C501 1.419 . S
C500 C498 1.415 . S
C500 C505 1.425 . S
C500 C507 1.409 . S
C501 H493 0.930 . S
C501 C499 1.419 . S
C501 C502 1.362 . S
C502 H494 0.930 . S
C502 C501 1.362 . S
C502 C505 1.409 . S
C503 H495 0.930 . S
C503 C504 1.355 . S
C503 C505 1.415 . S
C504 C503 1.355 . S
C504 C506 1.419 . S
C505 C500 1.425 . S
C505 C502 1.409 . S
C505 C503 1.415 . S
C506 H496 0.930 . S
C506 C504 1.419 . S
C506 C507 1.362 . S
C507 H497 0.930 . S
C507 C500 1.409 . S
C507 C506 1.362 . S
H508 C514 0.930 . S
H509 C517 0.930 . S
H510 C518 0.930 . S
H511 C519 0.930 . S
H512 C522 0.930 . S
H513 C523 0.930 . S
C514 H508 0.930 . S
C514 C515 1.355 . S
C514 C516 1.415 . S
C515 C514 1.355 . S
C515 C517 1.419 . S
C516 C514 1.415 . S
C516 C521 1.425 . S
C516 C523 1.409 . S
C517 H509 0.930 . S
C517 C515 1.419 . S
C517 C518 1.362 . S
C518 H510 0.930 . S
C518 C517 1.362 . S
C518 C521 1.409 . S
C519 H511 0.930 . S
C519 C520 1.355 . S
C519 C521 1.415 . S
C520 C519 1.355 . S
C520 C522 1.419 . S
C521 C516 1.425 . S
C521 C518 1.409 . S
C521 C519 1.415 . S
C522 H512 0.930 . S
C522 C520 1.419 . S
C522 C523 1.362 . S
C523 H513 0.930 . S
C523 C516 1.409 . S
C523 C522 1.362 . S
H524 C530 0.930 . S
H525 C533 0.930 . S
H526 C534 0.930 . S
H527 C535 0.930 . S
H528 C538 0.930 . S
H529 C539 0.930 . S
C530 H524 0.930 . S
C530 C531 1.355 . S
C530 C532 1.415 . S
C531 C530 1.355 . S
C531 C533 1.419 . S
C532 C530 1.415 . S
C532 C537 1.425 . S
C532 C539 1.409 . S
C533 H525 0.930 . S
C533 C531 1.419 . S
C533 C534 1.362 . S
C534 H526 0.930 . S
C534 C533 1.362 . S
C534 C537 1.409 . S
C535 H527 0.930 . S
C535 C536 1.355 . S
C535 C537 1.415 . S
C536 C535 1.355 . S
C536 C538 1.419 . S
C537 C532 1.425 . S
C537 C534 1.409 . S
C537 C535 1.415 . S
C538 H528 0.930 . S
C538 C536 1.419 . S
C538 C539 1.362 . S
C539 H529 0.930 . S
C539 C532 1.409 . S
C539 C538 1.362 . S
H540 C546 0.930 . S
H541 C549 0.930 . S
H542 C550 0.930 . S
H543 C551 0.930 . S
H544 C554 0.930 . S
H545 C555 0.930 . S
C546 H540 0.930 . S
C546 C547 1.355 . S
C546 C548 1.415 . S
C547 C546 1.355 . S
C547 C549 1.419 . S
C548 C546 1.415 . S
C548 C553 1.425 . S
C548 C555 1.409 . S
C549 H541 0.930 . S
C549 C547 1.419 . S
C549 C550 1.362 . S
C550 H542 0.930 . S
C550 C549 1.362 . S
C550 C553 1.409 . S
C551 H543 0.930 . S
C551 C552 1.355 . S
C551 C553 1.415 . S
C552 C551 1.355 . S
C552 C554 1.419 . S
C553 C548 1.425 . S
C553 C550 1.409 . S
C553 C551 1.415 . S
C554 H544 0.930 . S
C554 C552 1.419 . S
C554 C555 1.362 . S
C555 H545 0.930 . S
C555 C548 1.409 . S
C555 C554 1.362 . S
H556 C562 0.930 . S
H557 C565 0.930 . S
H558 C566 0.930 . S
H559 C567 0.930 . S
H560 C570 0.930 . S
H561 C571 0.930 . S
C562 H556 0.930 . S
C562 C563 1.355 . S
C562 C564 1.415 . S
C563 C562 1.355 . S
C563 C565 1.419 . S
C564 C562 1.415 . S
C564 C569 1.425 . S
C564 C571 1.409 . S
C565 H557 0.930 . S
C565 C563 1.419 . S
C565 C566 1.362 . S
C566 H558 0.930 . S
C566 C565 1.362 . S
C566 C569 1.409 . S
C567 H559 0.930 . S
C567 C568 1.355 . S
C567 C569 1.415 . S
C568 C567 1.355 . S
C568 C570 1.419 . S
C569 C564 1.425 . S
C569 C566 1.409 . S
C569 C567 1.415 . S
C570 H560 0.930 . S
C570 C568 1.419 . S
C570 C571 1.362 . S
C571 H561 0.930 . S
C571 C564 1.409 . S
C571 C570 1.362 . S
H572 C578 0.930 . S
H573 C581 0.930 . S
H574 C582 0.930 . S
H575 C583 0.930 . S
H576 C586 0.930 . S
H577 C587 0.930 . S
C578 H572 0.930 . S
C578 C579 1.355 . S
C578 C580 1.415 . S
C579 C578 1.355 . S
C579 C581 1.419 . S
C580 C578 1.415 . S
C580 C585 1.425 . S
C580 C587 1.409 . S
C581 H573 0.930 . S
C581 C579 1.419 . S
C581 C582 1.362 . S
C582 H574 0.930 . S
C582 C581 1.362 . S
C582 C585 1.409 . S
C583 H575 0.930 . S
C583 C584 1.355 . S
C583 C585 1.415 . S
C584 C583 1.355 . S
C584 C586 1.419 . S
C585 C580 1.425 . S
C585 C582 1.409 . S
C585 C583 1.415 . S
C586 H576 0.930 . S
C586 C584 1.419 . S
C586 C587 1.362 . S
C587 H577 0.930 . S
C587 C580 1.409 . S
C587 C586 1.362 . S
H588 C594 0.930 . S
H589 C597 0.930 . S
H590 C598 0.930 . S
H591 C599 0.930 . S
H592 C602 0.930 . S
H593 C603 0.930 . S
C594 H588 0.930 . S
C594 C595 1.355 . S
C594 C596 1.415 . S
C595 C594 1.355 . S
C595 C597 1.419 . S
C596 C594 1.415 . S
C596 C601 1.425 . S
C596 C603 1.409 . S
C597 H589 0.930 . S
C597 C595 1.419 . S
C597 C598 1.362 . S
C598 H590 0.930 . S
C598 C597 1.362 . S
C598 C601 1.409 . S
C599 H591 0.930 . S
C599 C600 1.355 . S
C599 C601 1.415 . S
C600 C599 1.355 . S
C600 C602 1.419 . S
C601 C596 1.425 . S
C601 C598 1.409 . S
C601 C599 1.415 . S
C602 H592 0.930 . S
C602 C600 1.419 . S
C602 C603 1.362 . S
C603 H593 0.930 . S
C603 C596 1.409 . S
C603 C602 1.362 . S
H604 C610 0.930 . S
H605 C613 0.930 . S
H606 C614 0.930 . S
H607 C615 0.930 . S
H608 C618 0.930 . S
H609 C619 0.930 . S
C610 H604 0.930 . S
C610 C611 1.355 . S
C610 C612 1.415 . S
C611 C610 1.355 . S
C611 C613 1.419 . S
C612 C610 1.415 . S
C612 C617 1.425 . S
C612 C619 1.409 . S
C613 H605 0.930 . S
C613 C611 1.419 . S
C613 C614 1.362 . S
C614 H606 0.930 . S
C614 C613 1.362 . S
C614 C617 1.409 . S
C615 H607 0.930 . S
C615 C616 1.355 . S
C615 C617 1.415 . S
C616 C615 1.355 . S
C616 C618 1.419 . S
C617 C612 1.425 . S
C617 C614 1.409 . S
C617 C615 1.415 . S
C618 H608 0.930 . S
C618 C616 1.419 . S
C618 C619 1.362 . S
C619 H609 0.930 . S
C619 C612 1.409 . S
C619 C618 1.362 . S
H620 C626 0.930 . S
H621 C629 0.930 . S
H622 C630 0.930 . S
H623 C631 0.930 . S
H624 C634 0.930 . S
H625 C635 0.930 . S
C626 H620 0.930 . S
C626 C627 1.355 . S
C626 C628 1.415 . S
C627 C626 1.355 . S
C627 C629 1.419 . S
C628 C626 1.415 . S
C628 C633 1.425 . S
C628 C635 1.409 . S
C629 H621 0.930 . S
C629 C627 1.419 . S
C629 C630 1.362 . S
C630 H622 0.930 . S
C630 C629 1.362 . S
C630 C633 1.409 . S
C631 H623 0.930 . S
C631 C632 1.355 . S
C631 C633 1.415 . S
C632 C631 1.355 . S
C632 C634 1.419 . S
C633 C628 1.425 . S
C633 C630 1.409 . S
C633 C631 1.415 . S
C634 H624 0.930 . S
C634 C632 1.419 . S
C634 C635 1.362 . S
C635 H625 0.930 . S
C635 C628 1.409 . S
C635 C634 1.362 . S
H636 C642 0.930 . S
H637 C645 0.930 . S
H638 C646 0.930 . S
H639 C647 0.930 . S
H640 C650 0.930 . S
H641 C651 0.930 . S
C642 H636 0.930 . S
C642 C643 1.355 . S
C642 C644 1.415 . S
C643 C642 1.355 . S
C643 C645 1.419 . S
C644 C642 1.415 . S
C644 C649 1.425 . S
C644 C651 1.409 . S
C645 H637 0.930 . S
C645 C643 1.419 . S
C645 C646 1.362 . S
C646 H638 0.930 . S
C646 C645 1.362 . S
C646 C649 1.409 . S
C647 H639 0.930 . S
C647 C648 1.355 . S
C647 C649 1.415 . S
C648 C647 1.355 . S
C648 C650 1.419 . S
C649 C644 1.425 . S
C649 C646 1.409 . S
C649 C647 1.415 . S
C650 H640 0.930 . S
C650 C648 1.419 . S
C650 C651 1.362 . S
C651 H641 0.930 . S
C651 C644 1.409 . S
C651 C650 1.362 . S
H652 C658 0.930 . S
H653 C661 0.930 . S
H654 C662 0.930 . S
H655 C663 0.930 . S
H656 C666 0.930 . S
H657 C667 0.930 . S
C658 H652 0.930 . S
C658 C659 1.355 . S
C658 C660 1.415 . S
C659 C658 1.355 . S
C659 C661 1.419 . S
C660 C658 1.415 . S
C660 C665 1.425 . S
C660 C667 1.409 . S
C661 H653 0.930 . S
C661 C659 1.419 . S
C661 C662 1.362 . S
C662 H654 0.930 . S
C662 C661 1.362 . S
C662 C665 1.409 . S
C663 H655 0.930 . S
C663 C664 1.355 . S
C663 C665 1.415 . S
C664 C663 1.355 . S
C664 C666 1.419 . S
C665 C660 1.425 . S
C665 C662 1.409 . S
C665 C663 1.415 . S
C666 H656 0.930 . S
C666 C664 1.419 . S
C666 C667 1.362 . S
C667 H657 0.930 . S
C667 C660 1.409 . S
C667 C666 1.362 . S
H668 C674 0.930 . S
H669 C677 0.930 . S
H670 C678 0.930 . S
H671 C679 0.930 . S
H672 C682 0.930 . S
H673 C683 0.930 . S
C674 H668 0.930 . S
C674 C675 1.355 . S
C674 C676 1.415 . S
C675 C674 1.355 . S
C675 C677 1.419 . S
C676 C674 1.415 . S
C676 C681 1.425 . S
C676 C683 1.409 . S
C677 H669 0.930 . S
C677 C675 1.419 . S
C677 C678 1.362 . S
C678 H670 0.930 . S
C678 C677 1.362 . S
C678 C681 1.409 . S
C679 H671 0.930 . S
C679 C680 1.355 . S
C679 C681 1.415 . S
C680 C679 1.355 . S
C680 C682 1.419 . S
C681 C676 1.425 . S
C681 C678 1.409 . S
C681 C679 1.415 . S
C682 H672 0.930 . S
C682 C680 1.419 . S
C682 C683 1.362 . S
C683 H673 0.930 . S
C683 C676 1.409 . S
C683 C682 1.362 . S
H684 C690 0.930 . S
H685 C693 0.930 . S
H686 C694 0.930 . S
H687 C695 0.930 . S
H688 C698 0.930 . S
H689 C699 0.930 . S
C690 H684 0.930 . S
C690 C691 1.355 . S
C690 C692 1.415 . S
C691 C690 1.355 . S
C691 C693 1.419 . S
C692 C690 1.415 . S
C692 C697 1.425 . S
C692 C699 1.409 . S
C693 H685 0.930 . S
C693 C691 1.419 . S
C693 C694 1.362 . S
C694 H686 0.930 . S
C694 C693 1.362 . S
C694 C697 1.409 . S
C695 H687 0.930 . S
C695 C696 1.355 . S
C695 C697 1.415 . S
C696 C695 1.355 . S
C696 C698 1.419 . S
C697 C692 1.425 . S
C697 C694 1.409 . S
C697 C695 1.415 . S
C698 H688 0.930 . S
C698 C696 1.419 . S
C698 C699 1.362 . S
C699 H689 0.930 . S
C699 C692 1.409 . S
C699 C698 1.362 . S
H700 C706 0.930 . S
H701 C709 0.930 . S
H702 C710 0.930 . S
H703 C711 0.930 . S
H704 C714 0.930 . S
H705 C715 0.930 . S
C706 H700 0.930 . S
C706 C707 1.355 . S
C706 C708 1.415 . S
C707 C706 1.355 . S
C707 C709 1.419 . S
C708 C706 1.415 . S
C708 C713 1.425 . S
C708 C715 1.409 . S
C709 H701 0.930 . S
C709 C707 1.419 . S
C709 C710 1.362 . S
C710 H702 0.930 . S
C710 C709 1.362 . S
C710 C713 1.409 . S
C711 H703 0.930 . S
C711 C712 1.355 . S
C711 C713 1.415 . S
C712 C711 1.355 . S
C712 C714 1.419 . S
C713 C708 1.425 . S
C713 C710 1.409 . S
C713 C711 1.415 . S
C714 H704 0.930 . S
C714 C712 1.419 . S
C714 C715 1.362 . S
C715 H705 0.930 . S
C715 C708 1.409 . S
C715 C714 1.362 . S
H716 C722 0.930 . S
H717 C725 0.930 . S
H718 C726 0.930 . S
H719 C727 0.930 . S
H720 C730 0.930 . S
H721 C731 0.930 . S
C722 H716 0.930 . S
C722 C723 1.355 . S
C722 C724 1.415 . S
C723 C722 1.355 . S
C723 C725 1.419 . S
C724 C722 1.415 . S
C724 C729 1.425 . S
C724 C731 1.409 . S
C725 H717 0.930 . S
C725 C723 1.419 . S
C725 C726 1.362 . S
C726 H718 0.930 . S
C726 C725 1.362 . S
C726 C729 1.409 . S
C727 H719 0.930 . S
C727 C728 1.355 . S
C727 C729 1.415 . S
C728 C727 1.355 . S
C728 C730 1.419 . S
C729 C724 1.425 . S
C729 C726 1.409 . S
C729 C727 1.415 . S
C730 H720 0.930 . S
C730 C728 1.419 . S
C730 C731 1.362 . S
C731 H721 0.930 . S
C731 C724 1.409 . S
C731 C730 1.362 . S
H732 C738 0.930 . S
H733 C741 0.930 . S
H734 C742 0.930 . S
H735 C743 0.930 . S
H736 C746 0.930 . S
H737 C747 0.930 . S
C738 H732 0.930 . S
C738 C739 1.355 . S
C738 C740 1.415 . S
C739 C738 1.355 . S
C739 C741 1.419 . S
C740 C738 1.415 . S
C740 C745 1.425 . S
C740 C747 1.409 . S
C741 H733 0.930 . S
C741 C739 1.419 . S
C741 C742 1.362 . S
C742 H734 0.930 . S
C742 C741 1.362 . S
C742 C745 1.409 . S
C743 H735 0.930 . S
C743 C744 1.355 . S
C743 C745 1.415 . S
C744 C743 1.355 . S
C744 C746 1.419 . S
C745 C740 1.425 . S
C745 C742 1.409 . S
C745 C743 1.415 . S
C746 H736 0.930 . S
C746 C744 1.419 . S
C746 C747 1.362 . S
C747 H737 0.930 . S
C747 C740 1.409 . S
C747 C746 1.362 . S
H748 C754 0.930 . S
H749 C757 0.930 . S
H750 C758 0.930 . S
H751 C759 0.930 . S
H752 C762 0.930 . S
H753 C763 0.930 . S
C754 H748 0.930 . S
C754 C755 1.355 . S
C754 C756 1.415 . S
C755 C754 1.355 . S
C755 C757 1.419 . S
C756 C754 1.415 . S
C756 C761 1.425 . S
C756 C763 1.409 . S
C757 H749 0.930 . S
C757 C755 1.419 . S
C757 C758 1.362 . S
C758 H750 0.930 . S
C758 C757 1.362 . S
C758 C761 1.409 . S
C759 H751 0.930 . S
C759 C760 1.355 . S
C759 C761 1.415 . S
C760 C759 1.355 . S
C760 C762 1.419 . S
C761 C756 1.425 . S
C761 C758 1.409 . S
C761 C759 1.415 . S
C762 H752 0.930 . S
C762 C760 1.419 . S
C762 C763 1.362 . S
C763 H753 0.930 . S
C763 C756 1.409 . S
C763 C762 1.362 . S
H764 C770 0.930 . S
H765 C773 0.930 . S
H766 C774 0.930 . S
H767 C775 0.930 . S
H768 C778 0.930 . S
H769 C779 0.930 . S
C770 H764 0.930 . S
C770 C771 1.355 . S
C770 C772 1.415 . S
C771 C770 1.355 . S
C771 C773 1.419 . S
C772 C770 1.415 . S
C772 C777 1.425 . S
C772 C779 1.409 . S
C773 H765 0.930 . S
C773 C771 1.419 . S
C773 C774 1.362 . S
C774 H766 0.930 . S
C774 C773 1.362 . S
C774 C777 1.409 . S
C775 H767 0.930 . S
C775 C776 1.355 . S
C775 C777 1.415 . S
C776 C775 1.355 . S
C776 C778 1.419 . S
C777 C772 1.425 . S
C777 C774 1.409 . S
C777 C775 1.415 . S
C778 H768 0.930 . S
C778 C776 1.419 . S
C778 C779 1.362 . S
C779 H769 0.930 . S
C779 C772 1.409 . S
C779 C778 1.362 . S
C408 C324 1.506 . S
C403 C16 1.514 . S
C424 C327 1.489 . S
C419 C55 1.495 . S
C440 C325 1.497 . S
C435 C99 1.504 . S
C456 C326 1.501 . S
C451 C138 1.495 . S
C472 C341 1.498 . S
C467 C1 1.507 . S
C488 C355 1.488 . S
C483 C40 1.496 . S
C499 C94 1.495 . S
C504 C381 1.503 . S
C520 C395 1.504 . S
C515 C133 1.501 . S
C536 C340 1.501 . S
C531 C60 1.496 . S
C547 C79 1.503 . S
C552 C354 1.496 . S
C568 C380 1.499 . S
C563 C118 1.492 . S
C584 C394 1.495 . S
C579 C21 1.504 . S
C595 C177 1.498 . S
C600 C339 1.493 . S
C616 C312 1.509 . S
C611 C211 1.502 . S
C627 C255 1.503 . S
C632 C338 1.500 . S
C643 C289 1.509 . S
C648 C313 1.501 . S
C664 C368 1.497 . S
C659 C157 1.499 . S
C680 C382 1.496 . S
C675 C196 1.505 . S
C696 C352 1.492 . S
C691 C250 1.500 . S
C707 C294 1.505 . S
C712 C366 1.505 . S
C728 C369 1.497 . S
C723 C216 1.499 . S
C744 C383 1.488 . S
C739 C235 1.494 . S
C760 C353 1.508 . S
C755 C274 1.499 . S
C771 C172 1.505 . S
C776 C367 1.505 . S
