# Generated by pormake.
# Topology anh, (6,3)-cn, num edge types: 1
# Building blocks:
#     Node 0, Type 0, BuildingBlock: CUWYAW_clean_sbu_0, # of connection points: 6
#     Node 1, Type 0, BuildingBlock: CUWYAW_clean_sbu_0, # of connection points: 6
#     Node 2, Type 0, BuildingBlock: CUWYAW_clean_sbu_0, # of connection points: 6
#     Node 3, Type 1, BuildingBlock: ESEHIV_clean_linker_0, # of connection points: 3
#     Node 4, Type 1, BuildingBlock: ESEHIV_clean_linker_0, # of connection points: 3
#     Node 5, Type 1, BuildingBlock: ESEHIV_clean_linker_0, # of connection points: 3
#     Node 6, Type 1, BuildingBlock: ESEHIV_clean_linker_0, # of connection points: 3
#     Node 7, Type 1, BuildingBlock: ESEHIV_clean_linker_0, # of connection points: 3
#     Node 8, Type 1, BuildingBlock: ESEHIV_clean_linker_0, # of connection points: 3
#     Edge 9, Type (0, 1), BuildingBlock: OJICUG_clean_linker_0, # of connection points: 2
#     Edge 10, Type (0, 1), BuildingBlock: OJICUG_clean_linker_0, # of connection points: 2
#     Edge 11, Type (0, 1), BuildingBlock: OJICUG_clean_linker_0, # of connection points: 2
#     Edge 12, Type (0, 1), BuildingBlock: OJICUG_clean_linker_0, # of connection points: 2
#     Edge 13, Type (0, 1), BuildingBlock: OJICUG_clean_linker_0, # of connection points: 2
#     Edge 14, Type (0, 1), BuildingBlock: OJICUG_clean_linker_0, # of connection points: 2
#     Edge 15, Type (0, 1), BuildingBlock: OJICUG_clean_linker_0, # of connection points: 2
#     Edge 16, Type (0, 1), BuildingBlock: OJICUG_clean_linker_0, # of connection points: 2
#     Edge 17, Type (0, 1), BuildingBlock: OJICUG_clean_linker_0, # of connection points: 2
#     Edge 18, Type (0, 1), BuildingBlock: OJICUG_clean_linker_0, # of connection points: 2
#     Edge 19, Type (0, 1), BuildingBlock: OJICUG_clean_linker_0, # of connection points: 2
#     Edge 20, Type (0, 1), BuildingBlock: OJICUG_clean_linker_0, # of connection points: 2
#     Edge 21, Type (0, 1), BuildingBlock: OJICUG_clean_linker_0, # of connection points: 2
#     Edge 22, Type (0, 1), BuildingBlock: OJICUG_clean_linker_0, # of connection points: 2
#     Edge 23, Type (0, 1), BuildingBlock: OJICUG_clean_linker_0, # of connection points: 2
#     Edge 24, Type (0, 1), BuildingBlock: OJICUG_clean_linker_0, # of connection points: 2
#     Edge 25, Type (0, 1), BuildingBlock: OJICUG_clean_linker_0, # of connection points: 2
#     Edge 26, Type (0, 1), BuildingBlock: OJICUG_clean_linker_0, # of connection points: 2
# Relax obj value: 0.459
# Max RMSD: 0.216
# Mean RMSD: 0.180
data_MOF--net-anh--node1-CUWYAW_clean_sbu_0--node2-ESEHIV_clean_linker_0--edge1-OJICUG_clean_linker_0
_symmetry_space_group_name_H-M    P1
_symmetry_Int_Tables_number       1
_symmetry_cell_setting            triclinic
loop_
_symmetry_equiv_pos_as_xyz
'x, y, z'
_cell_length_a     20.271038
_cell_length_b     20.148811
_cell_length_c     37.650163
_cell_angle_alpha  90.015381
_cell_angle_beta   89.781206
_cell_angle_gamma 119.81271
loop_
_atom_site_label
_atom_site_type_symbol
_atom_site_fract_x
_atom_site_fract_y
_atom_site_fract_z
_atom_type_partial_charge
C0 C 1.08531 0.37634 0.14199 0.0
Eu1 Eu 0.18487 0.52065 0.14442 0.0
C2 C 1.00527 0.34371 0.1531 0.0
C3 C 0.9887 0.35497 0.18812 0.0
C4 C 0.92048 0.35252 0.19595 0.0
C5 C 0.86724 0.33809 0.16909 0.0
C6 C 0.87951 0.31797 0.13506 0.0
C7 C 0.94837 0.32091 0.12707 0.0
C8 C 0.22082 0.59348 0.209 0.0
C9 C 1.07588 0.60317 0.13091 0.0
C10 C 0.3389 0.8274 0.14021 0.0
Eu11 Eu 0.25879 0.67976 0.13387 0.0
C12 C 0.32333 0.88673 0.15344 0.0
C13 C 0.36695 0.96169 0.14094 0.0
C14 C 0.35944 1.02053 0.1564 0.0
C15 C 0.30848 1.00526 0.18483 0.0
C16 C 0.26045 0.92896 0.19533 0.0
C17 C 0.26763 0.86998 0.17962 0.0
C18 C 0.21811 0.59883 0.07259 0.0
C19 C 0.36903 0.59746 0.1305 0.0
O20 O 1.10364 0.42125 0.11437 0.0
O21 O 1.13652 0.40584 0.16703 0.0
O22 O 0.22989 0.53646 0.20007 0.0
O23 O 0.19441 0.61246 0.18251 0.0
O24 O 1.08032 0.53912 0.13189 0.0
O25 O 1.13993 0.66881 0.13527 0.0
O26 O 0.30451 0.79362 0.11087 0.0
O27 O 0.33816 0.77964 0.16402 0.0
O28 O 0.20996 0.65794 0.07781 0.0
O29 O 0.24893 0.58779 0.09892 0.0
O30 O 0.36599 0.66224 0.13313 0.0
O31 O 0.30308 0.53169 0.1318 0.0
H32 H 1.03074 0.37208 0.20895 0.0
H33 H 0.91085 0.36555 0.22275 0.0
H34 H 0.83839 0.30535 0.11415 0.0
H35 H 0.9598 0.31207 0.09986 0.0
H36 H 0.40953 0.97533 0.12046 0.0
H37 H 0.39818 1.07873 0.14803 0.0
H38 H 0.22072 0.91555 0.21712 0.0
H39 H 0.23233 0.81192 0.18911 0.0
C40 C 0.58502 0.2776 0.47739 0.0
Eu41 Eu 0.63927 0.18477 0.47963 0.0
C42 C 0.62758 0.36143 0.47377 0.0
C43 C 0.62214 0.40635 0.5008 0.0
C44 C 0.67962 0.48219 0.50494 0.0
C45 C 0.74297 0.5135 0.48212 0.0
C46 C 0.74362 0.47182 0.45256 0.0
C47 C 0.68605 0.39618 0.44825 0.0
C48 C 0.67589 0.14294 0.54262 0.0
C49 C 0.82989 0.29928 0.46563 0.0
C50 C 0.79982 1.03924 0.47053 0.0
Eu51 Eu 0.72902 1.11669 0.4673 0.0
C52 C 0.87407 1.05498 0.48385 0.0
C53 C 0.90562 1.01147 0.4714 0.0
C54 C 0.97063 1.01809 0.48733 0.0
C55 C 1.00479 1.06806 0.51619 0.0
C56 C 0.97666 1.11647 0.52648 0.0
C57 C 0.91175 1.11008 0.51034 0.0
C58 C 0.68833 0.16171 0.40754 0.0
C59 C 0.53665 1.00038 0.46452 0.0
O60 O 0.58616 0.23865 0.44992 0.0
O61 O 0.59705 0.25175 0.50705 0.0
O62 O 0.60819 0.12824 0.53372 0.0
O63 O 0.72167 0.17588 0.51683 0.0
O64 O 0.76011 0.29111 0.46371 0.0
O65 O 0.83369 0.23697 0.4727 0.0
O66 O 0.80109 1.07783 0.44243 0.0
O67 O 0.75093 1.03472 0.49462 0.0
O68 O 0.75717 0.17579 0.41298 0.0
O69 O 0.64664 0.12534 0.4331 0.0
O70 O 0.60576 1.00647 0.46418 0.0
O71 O 0.53389 1.06445 0.46954 0.0
H72 H 0.57764 0.38079 0.52071 0.0
H73 H 0.67837 0.51365 0.52804 0.0
H74 H 0.79163 0.49592 0.43447 0.0
H75 H 0.69144 0.36325 0.42687 0.0
H76 H 0.87763 0.96933 0.4507 0.0
H77 H 0.98985 0.97902 0.47903 0.0
H78 H 1.00181 0.15553 0.54855 0.0
H79 H 0.88869 0.1452 0.51982 0.0
C80 C 0.98121 0.76473 0.80896 0.0
Eu81 Eu 0.83944 0.72577 0.81187 0.0
C82 C 1.00632 0.70946 0.81841 0.0
C83 C 1.00609 0.69026 0.85432 0.0
C84 C 0.99606 0.61896 0.86361 0.0
C85 C 0.98766 0.56599 0.83727 0.0
C86 C 0.99848 0.58897 0.80155 0.0
C87 C 1.00765 0.66025 0.79215 0.0
C88 C 0.76946 0.69119 0.87716 0.0
C89 C 0.75901 0.53389 0.79919 0.0
C90 C 0.5352 0.57618 0.80796 0.0
Eu91 Eu 0.68206 0.63923 0.80305 0.0
C92 C 0.46953 0.50211 0.817 0.0
C93 C 0.47639 0.4485 0.83816 0.0
C94 C 0.41116 0.3818 0.84937 0.0
C95 C 0.33851 0.36817 0.83953 0.0
C96 C 0.33321 0.42044 0.81644 0.0
C97 C 0.39805 0.48653 0.80532 0.0
C98 C 0.76176 0.67627 0.7415 0.0
C99 C 0.76221 0.83227 0.79878 0.0
O100 O 0.93894 0.74707 0.78056 0.0
O101 O 0.95309 0.78618 0.83499 0.0
O102 O 0.82409 0.75753 0.8673 0.0
O103 O 0.75063 0.64459 0.85116 0.0
O104 O 0.82112 0.60309 0.79752 0.0
O105 O 0.69366 0.53115 0.80624 0.0
O106 O 0.58147 0.61411 0.83394 0.0
O107 O 0.57045 0.57899 0.77845 0.0
O108 O 0.70695 0.60773 0.74829 0.0
O109 O 0.77077 0.72003 0.76685 0.0
O110 O 0.69872 0.76428 0.80239 0.0
O111 O 0.82824 0.83288 0.79932 0.0
H112 H 1.00649 0.72718 0.87534 0.0
H113 H 0.9918 0.60406 0.8915 0.0
H114 H 0.99469 0.55 0.7808 0.0
H115 H 1.00847 0.67359 0.76421 0.0
H116 H 0.53174 0.45953 0.84699 0.0
H117 H 0.41748 0.34265 0.86683 0.0
H118 H 0.27873 0.41351 0.80877 0.0
H119 H 0.39202 0.52726 0.78881 0.0
H120 H 0.47086 0.24258 0.31317 0.0
H121 H 0.70323 0.35095 0.27799 0.0
H122 H 0.52867 0.29705 0.20262 0.0
C123 C 0.513 0.26985 0.2924 0.0
C124 C 0.48889 0.26595 0.25699 0.0
C125 C 0.59018 0.29692 0.30018 0.0
C126 C 0.64417 0.33359 0.2732 0.0
C127 C 0.62186 0.33526 0.23823 0.0
C128 C 0.5446 0.30246 0.23034 0.0
H129 H 1.05536 0.88286 0.64269 0.0
H130 H 0.90802 0.65672 0.60207 0.0
H131 H 1.04271 0.8369 0.53044 0.0
C132 C 1.03586 0.84258 0.62088 0.0
C133 C 1.05804 0.87017 0.58596 0.0
C134 C 0.97933 0.76598 0.62709 0.0
C135 C 0.95457 0.71466 0.59848 0.0
C136 C 0.97929 0.74035 0.56389 0.0
C137 C 1.03141 0.81733 0.55776 0.0
H138 H 0.98716 0.40203 0.95144 0.0
H139 H 1.16189 0.34448 0.96091 0.0
H140 H 0.99728 0.24952 0.87622 0.0
C141 C 1.01188 0.36779 0.94296 0.0
C142 C 0.98935 0.32874 0.91055 0.0
C143 C 1.0742 0.37336 0.96142 0.0
C144 C 1.10947 0.33314 0.9485 0.0
C145 C 1.08374 0.28786 0.91737 0.0
C146 C 1.01895 0.2818 0.9004 0.0
H147 H 1.08398 0.53536 0.36737 0.0
H148 H 0.30141 0.74148 0.36646 0.0
H149 H 0.18112 0.65331 0.46615 0.0
C150 C 1.12905 0.58241 0.38191 0.0
C151 C 1.12157 0.58505 0.41925 0.0
C152 C 0.19306 0.63792 0.36266 0.0
C153 C 0.25243 0.69964 0.38136 0.0
C154 C 0.25113 0.70804 0.41878 0.0
C155 C 0.18425 0.64925 0.4376 0.0
H156 H 0.74865 0.28195 0.69918 0.0
H157 H 0.73244 1.06104 0.70194 0.0
H158 H 0.76453 0.18634 0.79978 0.0
C159 C 0.74963 0.23688 0.71448 0.0
C160 C 0.75703 0.24451 0.75197 0.0
C161 C 0.73967 0.17092 0.69631 0.0
C162 C 0.73958 1.11111 0.71605 0.0
C163 C 0.75025 1.11478 0.75328 0.0
C164 C 0.75782 0.18223 0.77122 0.0
H165 H 0.626 0.6187 0.03492 0.0
H166 H 0.84031 0.6229 0.03546 0.0
H167 H 0.718 0.59205 0.13415 0.0
C168 C 0.66954 0.61424 0.04961 0.0
C169 C 0.66163 0.60442 0.08694 0.0
C170 C 0.73327 0.62103 0.03082 0.0
C171 C 0.79145 0.61721 0.04996 0.0
C172 C 0.78828 0.60575 0.08719 0.0
C173 C 0.72197 0.59944 0.1056 0.0
C174 C 0.51494 0.66826 0.11608 0.0
C175 C 0.44597 0.59913 0.12279 0.0
H176 H 0.63375 0.7245 0.10048 0.0
C177 C 0.45194 0.53176 0.12043 0.0
H178 H 0.51506 0.72201 0.11705 0.0
C179 C 0.52178 0.53345 0.11136 0.0
C180 C 0.59037 0.60262 0.10417 0.0
H181 H 0.40171 0.47669 0.1249 0.0
H182 H 0.52124 0.47968 0.1087 0.0
C183 C 0.58441 0.66982 0.10674 0.0
C184 C 0.97755 0.39392 0.46946 0.0
C185 C 0.90431 0.37678 0.45711 0.0
H186 H 1.10014 0.47038 0.46924 0.0
C187 C 0.90489 0.43333 0.43448 0.0
H188 H 0.98202 0.35313 0.48654 0.0
C189 C 0.97368 0.5012 0.42424 0.0
C190 C 1.04703 0.51849 0.43641 0.0
H191 H 0.85186 0.42342 0.42313 0.0
H192 H 0.96943 0.53984 0.40562 0.0
C193 C 1.04649 0.4627 0.45969 0.0
C194 C 0.82422 0.98076 0.79005 0.0
C195 C 0.75861 0.90661 0.79079 0.0
H196 H 0.87368 1.10234 0.77932 0.0
C197 C 0.6896 0.90467 0.78201 0.0
H198 H 0.87907 0.98681 0.7962 0.0
C199 C 0.68669 0.97182 0.77206 0.0
C200 C 0.75217 1.04582 0.77112 0.0
H201 H 0.63726 0.85024 0.78165 0.0
H202 H 0.63254 0.96532 0.76406 0.0
C203 C 0.82106 1.04823 0.7806 0.0
C204 C 0.99662 0.6711 0.11871 0.0
C205 C 0.9994 0.60243 0.12321 0.0
H206 H 0.93173 0.72639 0.10487 0.0
C207 C 0.92832 0.53426 0.11862 0.0
H208 H 1.04843 0.72553 0.12145 0.0
C209 C 0.85967 0.53492 0.10954 0.0
C210 C 0.85745 0.6038 0.10457 0.0
H211 H 0.92582 0.47962 0.12127 0.0
H212 H 0.80839 0.48074 0.10517 0.0
C213 C 0.92834 0.67171 0.10939 0.0
C214 C 0.38765 0.91084 0.46157 0.0
C215 C 0.46243 0.92264 0.45611 0.0
H216 H 0.26526 0.83721 0.456 0.0
C217 C 0.4645 0.8593 0.44075 0.0
H218 H 0.38113 0.95658 0.47297 0.0
C219 C 0.39706 0.79029 0.43055 0.0
C220 C 0.32233 0.77839 0.43582 0.0
H221 H 0.51907 0.86374 0.43543 0.0
H222 H 0.40375 0.74596 0.41763 0.0
C223 C 0.3199 0.84092 0.45199 0.0
C224 C 0.81862 0.46078 0.76759 0.0
C225 C 0.76194 0.45964 0.79019 0.0
H226 H 0.8621 0.39786 0.73848 0.0
C227 C 0.70631 0.3856 0.80224 0.0
H228 H 0.86193 0.51484 0.75673 0.0
C229 C 0.70726 0.31719 0.79216 0.0
C230 C 0.76303 0.31839 0.7688 0.0
H231 H 0.66089 0.38016 0.8194 0.0
H232 H 0.66194 0.26263 0.80159 0.0
C233 C 0.81865 0.39253 0.75695 0.0
C234 C 1.03339 1.03834 0.57605 0.0
C235 C 1.05466 1.05432 0.54018 0.0
H236 H 1.01993 0.96698 0.62001 0.0
C237 C 1.10616 1.03348 0.52617 0.0
H238 H 0.99508 1.05491 0.58805 0.0
C239 C 1.12196 0.98327 0.54505 0.0
C240 C 1.08425 0.95188 0.57743 0.0
H241 H 1.1258 1.04746 0.49895 0.0
H242 H 1.15352 0.95999 0.53181 0.0
C243 C 1.0481 0.98734 0.59463 0.0
C244 C 0.9135 0.44888 0.87444 0.0
C245 C 0.96822 0.4876 0.84777 0.0
H246 H 0.87364 0.36257 0.91481 0.0
C247 C 1.0109 0.45541 0.83485 0.0
H248 H 0.87772 0.47109 0.88391 0.0
C249 C 1.00775 0.3927 0.85217 0.0
C250 C 0.96237 0.36198 0.88286 0.0
H251 H 1.05251 0.48333 0.8139 0.0
H252 H 1.04849 0.37545 0.84433 0.0
C253 C 0.91027 0.38609 0.89177 0.0
C254 C 0.3345 1.06551 0.24425 0.0
C255 C 0.31981 1.06933 0.20815 0.0
H256 H 0.39934 0.12596 0.28896 0.0
C257 C 0.33746 0.1405 0.19359 0.0
H258 H 0.32058 1.01145 0.25653 0.0
C259 C 0.38201 0.20763 0.21276 0.0
C260 C 0.41172 0.2041 0.24604 0.0
H261 H 0.3245 0.14481 0.16608 0.0
H262 H 0.40157 0.26203 0.19953 0.0
C263 C 0.38024 0.13235 0.26307 0.0
C264 C 0.81578 0.64955 0.50123 0.0
C265 C 0.81374 0.58041 0.494 0.0
H266 H 0.87351 0.75676 0.52847 0.0
C267 C 0.87444 0.57007 0.5047 0.0
H268 H 0.76903 0.65798 0.4935 0.0
C269 C 0.93298 0.62544 0.52535 0.0
C270 C 0.93224 0.69236 0.53455 0.0
H271 H 0.87311 0.51642 0.49976 0.0
H272 H 0.97586 0.61393 0.53601 0.0
C273 C 0.87534 0.70571 0.52107 0.0
C274 C 0.26863 0.29875 0.89465 0.0
C275 C 0.26846 0.30936 0.85778 0.0
H276 H 0.20572 0.27257 0.94295 0.0
C277 C 0.19806 0.27942 0.84067 0.0
H278 H 0.3212 0.31721 0.90889 0.0
C279 C 1.13254 0.25957 0.8604 0.0
C280 C 1.13619 0.26727 0.89779 0.0
H281 H 0.19511 0.28125 0.81198 0.0
H282 H 1.08263 0.24744 0.84539 0.0
C283 C 0.20208 0.27518 0.9144 0.0
C284 C 0.81161 0.41272 0.1952 0.0
C285 C 0.80094 0.34708 0.17712 0.0
H286 H 0.76074 0.46152 0.22829 0.0
C287 C 0.72707 0.28656 0.17146 0.0
H288 H 0.86824 0.46089 0.19907 0.0
C289 C 0.66554 0.2874 0.1878 0.0
C290 C 0.67764 0.34881 0.20987 0.0
H291 H 0.71767 0.23573 0.15736 0.0
H292 H 0.61007 0.23642 0.18637 0.0
C293 C 0.75026 0.41359 0.2115 0.0
C294 C 1.14696 0.55682 0.01534 0.0
C295 C 0.18406 0.54345 0.04335 0.0
H296 H 1.08608 0.51574 0.96688 0.0
C297 C 0.18575 0.47459 0.04423 0.0
H298 H 1.14554 0.60979 0.01384 0.0
C299 C 1.14829 0.41864 0.01839 0.0
C300 C 1.11059 0.43135 0.99022 0.0
H301 H 0.2147 0.46305 0.0654 0.0
H302 H 1.14874 0.36529 0.02062 0.0
C303 C 1.11157 0.50192 0.98878 0.0
C304 C 0.7132 0.27343 0.36943 0.0
C305 C 0.66441 0.19837 0.38088 0.0
H306 H 0.72608 0.36677 0.33737 0.0
C307 C 0.58896 0.15983 0.36923 0.0
H308 H 0.77097 0.30512 0.37919 0.0
C309 C 0.56355 0.1938 0.34473 0.0
C310 C 0.61251 0.26838 0.33201 0.0
H311 H 0.55 1.10221 0.37833 0.0
H312 H 0.50651 0.15948 0.33458 0.0
C313 C 0.68706 0.3087 0.34573 0.0
C314 C 0.85901 0.77439 0.70211 0.0
C315 C 0.81838 0.69783 0.713 0.0
H316 H 0.94037 0.85579 0.66645 0.0
C317 C 0.83658 0.64488 0.69845 0.0
H318 H 0.84648 0.81642 0.7134 0.0
C319 C 0.89353 0.66814 0.67249 0.0
C320 C 0.93179 0.74432 0.66 0.0
H321 H 0.80742 0.58592 0.70736 0.0
H322 H 0.90613 0.62596 0.66154 0.0
C323 C 0.9143 0.79724 0.67566 0.0
C324 C 0.64659 1.09252 0.60557 0.0
C325 C 0.69748 0.14761 0.58127 0.0
H326 H 0.62045 1.05565 0.66004 0.0
C327 C 0.76393 0.21007 0.59515 0.0
H328 H 0.59453 1.04405 0.59606 0.0
C329 C 0.77762 0.21809 0.63224 0.0
C330 C 0.72642 0.1628 0.65651 0.0
H331 H 0.804 0.25428 0.57748 0.0
H332 H 0.82845 0.26765 0.64197 0.0
C333 C 0.66135 1.0993 0.64239 0.0
C334 C 0.69116 0.60756 0.92987 0.0
C335 C 0.75839 0.66952 0.91609 0.0
H336 H 0.62954 0.54445 0.97659 0.0
C337 C 0.81675 0.71387 0.94044 0.0
H338 H 0.64485 0.57219 0.91217 0.0
C339 C 0.80878 0.6971 0.97702 0.0
C340 C 0.74133 0.63633 0.9911 0.0
H341 H 0.86959 0.76196 0.93117 0.0
H342 H 0.85529 0.73305 -0.00547 0.0
C343 C 0.68235 0.5919 0.9669 0.0
C344 C 0.2235 0.67767 0.26119 0.0
C345 C 0.21123 0.60701 0.24781 0.0
H346 H 0.22927 0.7438 0.30757 0.0
C347 C 0.19231 0.54755 0.2726 0.0
H348 H 0.2386 0.72503 0.24317 0.0
C349 C 0.18558 0.55771 0.30917 0.0
C350 C 0.19917 0.6284 0.32288 0.0
H351 H 0.18226 0.49216 0.26371 0.0
H352 H 1.17106 0.51009 0.32695 0.0
C353 C 0.21858 0.6885 0.29823 0.0
loop_
_geom_bond_atom_site_label_1
_geom_bond_atom_site_label_2
_geom_bond_distance
_geom_bond_site_symmetry_2
_ccdc_geom_bond_type
C0 Eu1 2.835 . S
C0 C2 1.500 . S
C0 O20 1.257 . S
C0 O21 1.260 . S
Eu1 C0 2.835 . S
Eu1 O20 2.473 . S
Eu1 O21 2.480 . S
Eu1 O22 2.430 . S
Eu1 O23 2.670 1_655 S
Eu1 O24 2.394 . S
Eu1 O29 2.355 1_655 S
Eu1 O31 2.374 1_655 S
C2 C0 1.500 . S
C2 C3 1.377 . S
C2 C7 1.377 . S
C3 C2 1.377 . S
C3 C4 1.395 . S
C3 H32 0.931 . S
C4 C3 1.395 . S
C4 C5 1.383 . S
C4 H33 0.931 . S
C5 C4 1.383 . S
C5 C6 1.394 . S
C6 C5 1.394 . S
C6 C7 1.378 . S
C6 H34 0.931 . S
C7 C2 1.377 . S
C7 C6 1.378 . S
C7 H35 0.931 . S
C8 O22 1.259 1_455 S
C8 O23 1.270 . S
C9 O24 1.251 . S
C9 O25 1.251 . S
C10 Eu11 2.835 . S
C10 C12 1.500 . S
C10 O26 1.257 . S
C10 O27 1.260 . S
Eu11 C10 2.835 . S
Eu11 O23 2.355 . S
Eu11 O25 2.374 1_455 S
Eu11 O26 2.473 . S
Eu11 O27 2.480 . S
Eu11 O28 2.430 . S
Eu11 O29 2.670 . S
Eu11 O30 2.394 . S
C12 C10 1.500 . S
C12 C13 1.377 . S
C12 C17 1.377 . S
C13 C12 1.377 . S
C13 C14 1.395 . S
C13 H36 0.931 . S
C14 C13 1.395 . S
C14 C15 1.383 . S
C14 H37 0.931 . S
C15 C14 1.383 . S
C15 C16 1.394 . S
C16 C15 1.394 . S
C16 C17 1.378 . S
C16 H38 0.931 . S
C17 C12 1.377 . S
C17 C16 1.378 . S
C17 H39 0.931 . S
C18 O28 1.259 . S
C18 O29 1.270 . S
C19 O30 1.251 . S
C19 O31 1.251 . S
O20 C0 1.257 . S
O20 Eu1 2.473 . S
O21 C0 1.260 . S
O21 Eu1 2.480 . S
O22 Eu1 2.430 . S
O22 C8 1.259 1_655 S
O23 Eu1 2.670 1_455 S
O23 C8 1.270 . S
O23 Eu11 2.355 . S
O24 Eu1 2.394 . S
O24 C9 1.251 . S
O25 C9 1.251 . S
O25 Eu11 2.374 1_655 S
O26 C10 1.257 . S
O26 Eu11 2.473 . S
O27 C10 1.260 . S
O27 Eu11 2.480 . S
O28 Eu11 2.430 . S
O28 C18 1.259 . S
O29 Eu1 2.355 1_455 S
O29 Eu11 2.670 . S
O29 C18 1.270 . S
O30 Eu11 2.394 . S
O30 C19 1.251 . S
O31 Eu1 2.374 1_455 S
O31 C19 1.251 . S
H32 C3 0.931 . S
H33 C4 0.931 . S
H34 C6 0.931 . S
H35 C7 0.931 . S
H36 C13 0.931 . S
H37 C14 0.931 . S
H38 C16 0.931 . S
H39 C17 0.931 . S
C40 Eu41 2.835 . S
C40 C42 1.500 . S
C40 O60 1.257 . S
C40 O61 1.260 . S
Eu41 C40 2.835 . S
Eu41 O60 2.473 . S
Eu41 O61 2.480 . S
Eu41 O62 2.430 . S
Eu41 O63 2.670 . S
Eu41 O64 2.394 . S
Eu41 O69 2.355 . S
Eu41 O71 2.374 1_545 S
C42 C40 1.500 . S
C42 C43 1.377 . S
C42 C47 1.377 . S
C43 C42 1.377 . S
C43 C44 1.395 . S
C43 H72 0.931 . S
C44 C43 1.395 . S
C44 C45 1.383 . S
C44 H73 0.931 . S
C45 C44 1.383 . S
C45 C46 1.394 . S
C46 C45 1.394 . S
C46 C47 1.378 . S
C46 H74 0.931 . S
C47 C42 1.377 . S
C47 C46 1.378 . S
C47 H75 0.931 . S
C48 O62 1.259 . S
C48 O63 1.270 . S
C49 O64 1.251 . S
C49 O65 1.251 . S
C50 Eu51 2.835 . S
C50 C52 1.500 . S
C50 O66 1.257 . S
C50 O67 1.260 . S
Eu51 C50 2.835 . S
Eu51 O63 2.355 1_565 S
Eu51 O65 2.374 1_565 S
Eu51 O66 2.473 . S
Eu51 O67 2.480 . S
Eu51 O68 2.430 . S
Eu51 O69 2.670 1_565 S
Eu51 O70 2.394 . S
C52 C50 1.500 . S
C52 C53 1.377 . S
C52 C57 1.377 . S
C53 C52 1.377 . S
C53 C54 1.395 . S
C53 H76 0.931 . S
C54 C53 1.395 . S
C54 C55 1.383 . S
C54 H77 0.931 . S
C55 C54 1.383 . S
C55 C56 1.394 . S
C56 C55 1.394 . S
C56 C57 1.378 . S
C56 H78 0.931 . S
C57 C52 1.377 . S
C57 C56 1.378 . S
C57 H79 0.931 . S
C58 O68 1.259 1_545 S
C58 O69 1.270 . S
C59 O70 1.251 . S
C59 O71 1.251 . S
O60 C40 1.257 . S
O60 Eu41 2.473 . S
O61 C40 1.260 . S
O61 Eu41 2.480 . S
O62 Eu41 2.430 . S
O62 C48 1.259 . S
O63 Eu41 2.670 . S
O63 C48 1.270 . S
O63 Eu51 2.355 1_545 S
O64 Eu41 2.394 . S
O64 C49 1.251 . S
O65 C49 1.251 . S
O65 Eu51 2.374 1_545 S
O66 C50 1.257 . S
O66 Eu51 2.473 . S
O67 C50 1.260 . S
O67 Eu51 2.480 . S
O68 Eu51 2.430 . S
O68 C58 1.259 1_565 S
O69 Eu41 2.355 . S
O69 Eu51 2.670 1_545 S
O69 C58 1.270 . S
O70 Eu51 2.394 . S
O70 C59 1.251 . S
O71 Eu41 2.374 1_565 S
O71 C59 1.251 . S
H72 C43 0.931 . S
H73 C44 0.931 . S
H74 C46 0.931 . S
H75 C47 0.931 . S
H76 C53 0.931 . S
H77 C54 0.931 . S
H78 C56 0.931 . S
H79 C57 0.931 . S
C80 Eu81 2.835 . S
C80 C82 1.500 . S
C80 O100 1.257 . S
C80 O101 1.260 . S
Eu81 C80 2.835 . S
Eu81 O100 2.473 . S
Eu81 O101 2.480 . S
Eu81 O102 2.430 . S
Eu81 O103 2.670 . S
Eu81 O104 2.394 . S
Eu81 O109 2.355 . S
Eu81 O111 2.374 . S
C82 C80 1.500 . S
C82 C83 1.377 . S
C82 C87 1.377 . S
C83 C82 1.377 . S
C83 C84 1.395 . S
C83 H112 0.931 . S
C84 C83 1.395 . S
C84 C85 1.383 . S
C84 H113 0.931 . S
C85 C84 1.383 . S
C85 C86 1.394 . S
C86 C85 1.394 . S
C86 C87 1.378 . S
C86 H114 0.931 . S
C87 C82 1.377 . S
C87 C86 1.378 . S
C87 H115 0.931 . S
C88 O102 1.259 . S
C88 O103 1.270 . S
C89 O104 1.251 . S
C89 O105 1.251 . S
C90 Eu91 2.835 . S
C90 C92 1.500 . S
C90 O106 1.257 . S
C90 O107 1.260 . S
Eu91 C90 2.835 . S
Eu91 O103 2.355 . S
Eu91 O105 2.374 . S
Eu91 O106 2.473 . S
Eu91 O107 2.480 . S
Eu91 O108 2.430 . S
Eu91 O109 2.670 . S
Eu91 O110 2.394 . S
C92 C90 1.500 . S
C92 C93 1.377 . S
C92 C97 1.377 . S
C93 C92 1.377 . S
C93 C94 1.395 . S
C93 H116 0.931 . S
C94 C93 1.395 . S
C94 C95 1.383 . S
C94 H117 0.931 . S
C95 C94 1.383 . S
C95 C96 1.394 . S
C96 C95 1.394 . S
C96 C97 1.378 . S
C96 H118 0.931 . S
C97 C92 1.377 . S
C97 C96 1.378 . S
C97 H119 0.931 . S
C98 O108 1.259 . S
C98 O109 1.270 . S
C99 O110 1.251 . S
C99 O111 1.251 . S
O100 C80 1.257 . S
O100 Eu81 2.473 . S
O101 C80 1.260 . S
O101 Eu81 2.480 . S
O102 Eu81 2.430 . S
O102 C88 1.259 . S
O103 Eu81 2.670 . S
O103 C88 1.270 . S
O103 Eu91 2.355 . S
O104 Eu81 2.394 . S
O104 C89 1.251 . S
O105 C89 1.251 . S
O105 Eu91 2.374 . S
O106 C90 1.257 . S
O106 Eu91 2.473 . S
O107 C90 1.260 . S
O107 Eu91 2.480 . S
O108 Eu91 2.430 . S
O108 C98 1.259 . S
O109 Eu81 2.355 . S
O109 Eu91 2.670 . S
O109 C98 1.270 . S
O110 Eu91 2.394 . S
O110 C99 1.251 . S
O111 Eu81 2.374 . S
O111 C99 1.251 . S
H112 C83 0.931 . S
H113 C84 0.931 . S
H114 C86 0.931 . S
H115 C87 0.931 . S
H116 C93 0.931 . S
H117 C94 0.931 . S
H118 C96 0.931 . S
H119 C97 0.931 . S
H120 C123 0.931 1_565 S
H121 C126 0.928 . S
H122 C128 0.930 . S
C123 H120 0.931 1_545 S
C123 C124 1.413 . S
C123 C125 1.360 . S
C124 C123 1.413 . S
C124 C128 1.429 . S
C125 C123 1.360 . S
C125 C126 1.372 . S
C126 H121 0.928 . S
C126 C125 1.372 . S
C126 C127 1.404 . S
C127 C126 1.404 . S
C127 C128 1.391 . S
C128 H122 0.930 . S
C128 C124 1.429 . S
C128 C127 1.391 . S
H129 C132 0.931 . S
H130 C135 0.928 . S
H131 C137 0.930 . S
C132 H129 0.931 . S
C132 C133 1.413 . S
C132 C134 1.360 . S
C133 C132 1.413 . S
C133 C137 1.429 . S
C134 C132 1.360 . S
C134 C135 1.372 . S
C135 H130 0.928 . S
C135 C134 1.372 . S
C135 C136 1.404 . S
C136 C135 1.404 . S
C136 C137 1.391 . S
C137 H131 0.930 . S
C137 C133 1.429 . S
C137 C136 1.391 . S
H138 C141 0.931 . S
H139 C144 0.928 . S
H140 C146 0.930 . S
C141 H138 0.931 . S
C141 C142 1.413 . S
C141 C143 1.360 1_655 S
C142 C141 1.413 . S
C142 C146 1.429 1_655 S
C143 C141 1.360 1_455 S
C143 C144 1.372 . S
C144 H139 0.928 . S
C144 C143 1.372 . S
C144 C145 1.404 . S
C145 C144 1.404 . S
C145 C146 1.391 . S
C146 H140 0.930 . S
C146 C142 1.429 1_455 S
C146 C145 1.391 . S
H147 C150 0.931 1_655 S
H148 C153 0.928 . S
H149 C155 0.930 . S
C150 H147 0.931 1_455 S
C150 C151 1.413 . S
C150 C152 1.360 . S
C151 C150 1.413 . S
C151 C155 1.429 . S
C152 C150 1.360 . S
C152 C153 1.372 . S
C153 H148 0.928 . S
C153 C152 1.372 . S
C153 C154 1.404 . S
C154 C153 1.404 . S
C154 C155 1.391 . S
C155 H149 0.930 . S
C155 C151 1.429 . S
C155 C154 1.391 . S
H156 C159 0.931 . S
H157 C162 0.928 . S
H158 C164 0.930 . S
C159 H156 0.931 . S
C159 C160 1.413 . S
C159 C161 1.360 . S
C160 C159 1.413 . S
C160 C164 1.429 . S
C161 C159 1.360 . S
C161 C162 1.372 1_545 S
C162 H157 0.928 . S
C162 C161 1.372 1_565 S
C162 C163 1.404 . S
C163 C162 1.404 . S
C163 C164 1.391 1_565 S
C164 H158 0.930 . S
C164 C160 1.429 . S
C164 C163 1.391 1_545 S
H165 C168 0.931 . S
H166 C171 0.928 . S
H167 C173 0.930 . S
C168 H165 0.931 . S
C168 C169 1.413 . S
C168 C170 1.360 . S
C169 C168 1.413 . S
C169 C173 1.429 . S
C170 C168 1.360 . S
C170 C171 1.372 . S
C171 H166 0.928 . S
C171 C170 1.372 . S
C171 C172 1.404 . S
C172 C171 1.404 . S
C172 C173 1.391 . S
C173 H167 0.930 . S
C173 C169 1.429 . S
C173 C172 1.391 . S
C174 C175 1.387 . S
C174 H178 0.950 . S
C174 C183 1.390 . S
C175 C174 1.387 . S
C175 C177 1.387 . S
H176 C183 0.950 . S
C177 C175 1.387 . S
C177 C179 1.390 . S
C177 H181 0.950 . S
H178 C174 0.950 . S
C179 C177 1.390 . S
C179 C180 1.387 . S
C179 H182 0.950 . S
C180 C179 1.387 . S
C180 C183 1.387 . S
H181 C177 0.950 . S
H182 C179 0.950 . S
C183 C174 1.390 . S
C183 H176 0.950 . S
C183 C180 1.387 . S
C184 C185 1.387 . S
C184 H188 0.950 . S
C184 C193 1.390 . S
C185 C184 1.387 . S
C185 C187 1.387 . S
H186 C193 0.950 . S
C187 C185 1.387 . S
C187 C189 1.390 . S
C187 H191 0.950 . S
H188 C184 0.950 . S
C189 C187 1.390 . S
C189 C190 1.387 . S
C189 H192 0.950 . S
C190 C189 1.387 . S
C190 C193 1.387 . S
H191 C187 0.950 . S
H192 C189 0.950 . S
C193 C184 1.390 . S
C193 H186 0.950 . S
C193 C190 1.387 . S
C194 C195 1.387 . S
C194 H198 0.950 . S
C194 C203 1.390 . S
C195 C194 1.387 . S
C195 C197 1.387 . S
H196 C203 0.950 . S
C197 C195 1.387 . S
C197 C199 1.390 . S
C197 H201 0.950 . S
H198 C194 0.950 . S
C199 C197 1.390 . S
C199 C200 1.387 . S
C199 H202 0.950 . S
C200 C199 1.387 . S
C200 C203 1.387 . S
H201 C197 0.950 . S
H202 C199 0.950 . S
C203 C194 1.390 . S
C203 H196 0.950 . S
C203 C200 1.387 . S
C204 C205 1.387 . S
C204 H208 0.950 . S
C204 C213 1.390 . S
C205 C204 1.387 . S
C205 C207 1.387 . S
H206 C213 0.950 . S
C207 C205 1.387 . S
C207 C209 1.390 . S
C207 H211 0.950 . S
H208 C204 0.950 . S
C209 C207 1.390 . S
C209 C210 1.387 . S
C209 H212 0.950 . S
C210 C209 1.387 . S
C210 C213 1.387 . S
H211 C207 0.950 . S
H212 C209 0.950 . S
C213 C204 1.390 . S
C213 H206 0.950 . S
C213 C210 1.387 . S
C214 C215 1.387 . S
C214 H218 0.950 . S
C214 C223 1.390 . S
C215 C214 1.387 . S
C215 C217 1.387 . S
H216 C223 0.950 . S
C217 C215 1.387 . S
C217 C219 1.390 . S
C217 H221 0.950 . S
H218 C214 0.950 . S
C219 C217 1.390 . S
C219 C220 1.387 . S
C219 H222 0.950 . S
C220 C219 1.387 . S
C220 C223 1.387 . S
H221 C217 0.950 . S
H222 C219 0.950 . S
C223 C214 1.390 . S
C223 H216 0.950 . S
C223 C220 1.387 . S
C224 C225 1.387 . S
C224 H228 0.950 . S
C224 C233 1.390 . S
C225 C224 1.387 . S
C225 C227 1.387 . S
H226 C233 0.950 . S
C227 C225 1.387 . S
C227 C229 1.390 . S
C227 H231 0.950 . S
H228 C224 0.950 . S
C229 C227 1.390 . S
C229 C230 1.387 . S
C229 H232 0.950 . S
C230 C229 1.387 . S
C230 C233 1.387 . S
H231 C227 0.950 . S
H232 C229 0.950 . S
C233 C224 1.390 . S
C233 H226 0.950 . S
C233 C230 1.387 . S
C234 C235 1.387 . S
C234 H238 0.950 . S
C234 C243 1.390 . S
C235 C234 1.387 . S
C235 C237 1.387 . S
H236 C243 0.950 . S
C237 C235 1.387 . S
C237 C239 1.390 . S
C237 H241 0.950 . S
H238 C234 0.950 . S
C239 C237 1.390 . S
C239 C240 1.387 . S
C239 H242 0.950 . S
C240 C239 1.387 . S
C240 C243 1.387 . S
H241 C237 0.950 . S
H242 C239 0.950 . S
C243 C234 1.390 . S
C243 H236 0.950 . S
C243 C240 1.387 . S
C244 C245 1.387 . S
C244 H248 0.950 . S
C244 C253 1.390 . S
C245 C244 1.387 . S
C245 C247 1.387 . S
H246 C253 0.950 . S
C247 C245 1.387 . S
C247 C249 1.390 . S
C247 H251 0.950 . S
H248 C244 0.950 . S
C249 C247 1.390 . S
C249 C250 1.387 . S
C249 H252 0.950 . S
C250 C249 1.387 . S
C250 C253 1.387 . S
H251 C247 0.950 . S
H252 C249 0.950 . S
C253 C244 1.390 . S
C253 H246 0.950 . S
C253 C250 1.387 . S
C254 C255 1.387 . S
C254 H258 0.950 . S
C254 C263 1.390 . S
C255 C254 1.387 . S
C255 C257 1.387 . S
H256 C263 0.950 . S
C257 C255 1.387 . S
C257 C259 1.390 . S
C257 H261 0.950 . S
H258 C254 0.950 . S
C259 C257 1.390 . S
C259 C260 1.387 . S
C259 H262 0.950 . S
C260 C259 1.387 . S
C260 C263 1.387 . S
H261 C257 0.950 . S
H262 C259 0.950 . S
C263 C254 1.390 . S
C263 H256 0.950 . S
C263 C260 1.387 . S
C264 C265 1.387 . S
C264 H268 0.950 . S
C264 C273 1.390 . S
C265 C264 1.387 . S
C265 C267 1.387 . S
H266 C273 0.950 . S
C267 C265 1.387 . S
C267 C269 1.390 . S
C267 H271 0.950 . S
H268 C264 0.950 . S
C269 C267 1.390 . S
C269 C270 1.387 . S
C269 H272 0.950 . S
C270 C269 1.387 . S
C270 C273 1.387 . S
H271 C267 0.950 . S
H272 C269 0.950 . S
C273 C264 1.390 . S
C273 H266 0.950 . S
C273 C270 1.387 . S
C274 C275 1.387 . S
C274 H278 0.950 . S
C274 C283 1.390 . S
C275 C274 1.387 . S
C275 C277 1.387 . S
H276 C283 0.950 . S
C277 C275 1.387 . S
C277 C279 1.390 . S
C277 H281 0.950 . S
H278 C274 0.950 . S
C279 C277 1.390 . S
C279 C280 1.387 . S
C279 H282 0.950 . S
C280 C279 1.387 . S
C280 C283 1.387 . S
H281 C277 0.950 . S
H282 C279 0.950 . S
C283 C274 1.390 . S
C283 H276 0.950 . S
C283 C280 1.387 . S
C284 C285 1.387 . S
C284 H288 0.950 . S
C284 C293 1.390 . S
C285 C284 1.387 . S
C285 C287 1.387 . S
H286 C293 0.950 . S
C287 C285 1.387 . S
C287 C289 1.390 . S
C287 H291 0.950 . S
H288 C284 0.950 . S
C289 C287 1.390 . S
C289 C290 1.387 . S
C289 H292 0.950 . S
C290 C289 1.387 . S
C290 C293 1.387 . S
H291 C287 0.950 . S
H292 C289 0.950 . S
C293 C284 1.390 . S
C293 H286 0.950 . S
C293 C290 1.387 . S
C294 C295 1.387 1_655 S
C294 H298 0.950 . S
C294 C303 1.390 . S
C295 C294 1.387 1_455 S
C295 C297 1.387 . S
H296 C303 0.950 1_556 S
C297 C295 1.387 . S
C297 C299 1.390 . S
C297 H301 0.950 . S
H298 C294 0.950 . S
C299 C297 1.390 . S
C299 C300 1.387 1_554 S
C299 H302 0.942 1_554 S
C300 C299 1.387 1_556 S
C300 C303 1.387 1_456 S
H301 C297 0.950 . S
H302 C299 0.942 1_556 S
C303 C294 1.390 . S
C303 H296 0.950 1_554 S
C303 C300 1.387 1_654 S
C304 C305 1.387 . S
C304 H308 0.950 . S
C304 C313 1.390 . S
C305 C304 1.387 . S
C305 C307 1.387 1_545 S
H306 C313 0.950 . S
C307 C305 1.387 1_565 S
C307 C309 1.390 . S
C307 H311 0.950 . S
H308 C304 0.950 . S
C309 C307 1.390 . S
C309 C310 1.387 1_565 S
C309 H312 0.950 . S
C310 C309 1.387 1_545 S
C310 C313 1.387 . S
H311 C307 0.950 . S
H312 C309 0.950 . S
C313 C304 1.390 . S
C313 H306 0.950 . S
C313 C310 1.387 . S
C314 C315 1.387 . S
C314 H318 0.950 . S
C314 C323 1.390 . S
C315 C314 1.387 . S
C315 C317 1.387 . S
H316 C323 0.950 . S
C317 C315 1.387 . S
C317 C319 1.390 . S
C317 H321 0.950 . S
H318 C314 0.950 . S
C319 C317 1.390 . S
C319 C320 1.387 . S
C319 H322 0.950 . S
C320 C319 1.387 . S
C320 C323 1.387 . S
H321 C317 0.950 . S
H322 C319 0.950 . S
C323 C314 1.390 . S
C323 H316 0.950 . S
C323 C320 1.387 . S
C324 C325 1.387 1_565 S
C324 H328 0.950 . S
C324 C333 1.390 . S
C325 C324 1.387 1_545 S
C325 C327 1.387 . S
H326 C333 0.950 . S
C327 C325 1.387 . S
C327 C329 1.390 . S
C327 H331 0.950 . S
H328 C324 0.950 . S
C329 C327 1.390 . S
C329 C330 1.387 . S
C329 H332 0.950 . S
C330 C329 1.387 . S
C330 C333 1.387 1_545 S
H331 C327 0.950 . S
H332 C329 0.950 . S
C333 C324 1.390 . S
C333 H326 0.950 . S
C333 C330 1.387 1_565 S
C334 C335 1.387 . S
C334 H338 0.950 . S
C334 C343 1.390 . S
C335 C334 1.387 . S
C335 C337 1.387 . S
H336 C343 0.950 1_554 S
C337 C335 1.387 . S
C337 C339 1.390 . S
C337 H341 0.950 . S
H338 C334 0.950 . S
C339 C337 1.390 . S
C339 C340 1.387 1_556 S
C339 H342 0.950 . S
C340 C339 1.387 1_554 S
C340 C343 1.387 1_554 S
H341 C337 0.950 . S
H342 C339 0.950 . S
C343 C334 1.390 . S
C343 H336 0.950 1_556 S
C343 C340 1.387 1_556 S
C344 C345 1.387 . S
C344 H348 0.950 . S
C344 C353 1.390 . S
C345 C344 1.387 . S
C345 C347 1.387 . S
H346 C353 0.950 . S
C347 C345 1.387 . S
C347 C349 1.390 . S
C347 H351 0.950 . S
H348 C344 0.950 . S
C349 C347 1.390 . S
C349 C350 1.387 . S
C349 H352 0.950 . S
C350 C349 1.387 . S
C350 C353 1.387 . S
H351 C347 0.950 . S
H352 C349 0.950 . S
C353 C344 1.390 . S
C353 H346 0.950 . S
C353 C350 1.387 . S
C175 C19 2.951 . S
C180 C169 2.956 . S
C185 C49 3.043 . S
C190 C151 3.015 1_655 S
C195 C99 2.940 . S
C200 C163 2.935 . S
C205 C9 3.032 . S
C210 C172 2.994 . S
C220 C154 2.934 . S
C215 C59 2.940 . S
C230 C160 3.015 . S
C225 C89 3.043 . S
C235 C55 0.933 . S
C240 C133 1.002 . S
C245 C85 0.971 . S
C250 C142 1.137 . S
C255 C15 0.929 . S
C260 C124 0.998 1_565 S
C270 C136 1.140 . S
C265 C45 0.971 . S
C280 C145 0.995 . S
C275 C95 0.928 . S
C285 C5 0.967 . S
C290 C127 1.139 . S
C300 C143 0.874 . S
C295 C18 0.877 . S
C305 C58 0.878 . S
C310 C125 0.877 . S
C315 C98 0.876 . S
C320 C134 0.879 . S
C330 C161 1.848 . S
C325 C48 1.742 . S
C340 C170 1.847 . S
C335 C88 1.745 . S
C345 C8 1.744 . S
C350 C152 1.849 . S
