# Generated by pormake.
# Topology ctn, (3,4)-cn, num edge types: 1
# Building blocks:
#     Node 0, Type 0, BuildingBlock: VETTIZ_charged_linker_0, # of connection points: 3
#     Node 1, Type 0, BuildingBlock: VETTIZ_charged_linker_0, # of connection points: 3
#     Node 2, Type 0, BuildingBlock: VETTIZ_charged_linker_0, # of connection points: 3
#     Node 3, Type 0, BuildingBlock: VETTIZ_charged_linker_0, # of connection points: 3
#     Node 4, Type 0, BuildingBlock: VETTIZ_charged_linker_0, # of connection points: 3
#     Node 5, Type 0, BuildingBlock: VETTIZ_charged_linker_0, # of connection points: 3
#     Node 6, Type 0, BuildingBlock: VETTIZ_charged_linker_0, # of connection points: 3
#     Node 7, Type 0, BuildingBlock: VETTIZ_charged_linker_0, # of connection points: 3
#     Node 8, Type 0, BuildingBlock: VETTIZ_charged_linker_0, # of connection points: 3
#     Node 9, Type 0, BuildingBlock: VETTIZ_charged_linker_0, # of connection points: 3
#     Node 10, Type 0, BuildingBlock: VETTIZ_charged_linker_0, # of connection points: 3
#     Node 11, Type 0, BuildingBlock: VETTIZ_charged_linker_0, # of connection points: 3
#     Node 12, Type 0, BuildingBlock: VETTIZ_charged_linker_0, # of connection points: 3
#     Node 13, Type 0, BuildingBlock: VETTIZ_charged_linker_0, # of connection points: 3
#     Node 14, Type 0, BuildingBlock: VETTIZ_charged_linker_0, # of connection points: 3
#     Node 15, Type 0, BuildingBlock: VETTIZ_charged_linker_0, # of connection points: 3
#     Node 16, Type 1, BuildingBlock: QUQFOY_clean_sbu_1, # of connection points: 4
#     Node 17, Type 1, BuildingBlock: QUQFOY_clean_sbu_1, # of connection points: 4
#     Node 18, Type 1, BuildingBlock: QUQFOY_clean_sbu_1, # of connection points: 4
#     Node 19, Type 1, BuildingBlock: QUQFOY_clean_sbu_1, # of connection points: 4
#     Node 20, Type 1, BuildingBlock: QUQFOY_clean_sbu_1, # of connection points: 4
#     Node 21, Type 1, BuildingBlock: QUQFOY_clean_sbu_1, # of connection points: 4
#     Node 22, Type 1, BuildingBlock: QUQFOY_clean_sbu_1, # of connection points: 4
#     Node 23, Type 1, BuildingBlock: QUQFOY_clean_sbu_1, # of connection points: 4
#     Node 24, Type 1, BuildingBlock: QUQFOY_clean_sbu_1, # of connection points: 4
#     Node 25, Type 1, BuildingBlock: QUQFOY_clean_sbu_1, # of connection points: 4
#     Node 26, Type 1, BuildingBlock: QUQFOY_clean_sbu_1, # of connection points: 4
#     Node 27, Type 1, BuildingBlock: QUQFOY_clean_sbu_1, # of connection points: 4
#     Edge 28, Type (0, 1), BuildingBlock: AJUNOK_clean_linker_0, # of connection points: 2
#     Edge 29, Type (0, 1), BuildingBlock: AJUNOK_clean_linker_0, # of connection points: 2
#     Edge 30, Type (0, 1), BuildingBlock: AJUNOK_clean_linker_0, # of connection points: 2
#     Edge 31, Type (0, 1), BuildingBlock: AJUNOK_clean_linker_0, # of connection points: 2
#     Edge 32, Type (0, 1), BuildingBlock: AJUNOK_clean_linker_0, # of connection points: 2
#     Edge 33, Type (0, 1), BuildingBlock: AJUNOK_clean_linker_0, # of connection points: 2
#     Edge 34, Type (0, 1), BuildingBlock: AJUNOK_clean_linker_0, # of connection points: 2
#     Edge 35, Type (0, 1), BuildingBlock: AJUNOK_clean_linker_0, # of connection points: 2
#     Edge 36, Type (0, 1), BuildingBlock: AJUNOK_clean_linker_0, # of connection points: 2
#     Edge 37, Type (0, 1), BuildingBlock: AJUNOK_clean_linker_0, # of connection points: 2
#     Edge 38, Type (0, 1), BuildingBlock: AJUNOK_clean_linker_0, # of connection points: 2
#     Edge 39, Type (0, 1), BuildingBlock: AJUNOK_clean_linker_0, # of connection points: 2
#     Edge 40, Type (0, 1), BuildingBlock: AJUNOK_clean_linker_0, # of connection points: 2
#     Edge 41, Type (0, 1), BuildingBlock: AJUNOK_clean_linker_0, # of connection points: 2
#     Edge 42, Type (0, 1), BuildingBlock: AJUNOK_clean_linker_0, # of connection points: 2
#     Edge 43, Type (0, 1), BuildingBlock: AJUNOK_clean_linker_0, # of connection points: 2
#     Edge 44, Type (0, 1), BuildingBlock: AJUNOK_clean_linker_0, # of connection points: 2
#     Edge 45, Type (0, 1), BuildingBlock: AJUNOK_clean_linker_0, # of connection points: 2
#     Edge 46, Type (0, 1), BuildingBlock: AJUNOK_clean_linker_0, # of connection points: 2
#     Edge 47, Type (0, 1), BuildingBlock: AJUNOK_clean_linker_0, # of connection points: 2
#     Edge 48, Type (0, 1), BuildingBlock: AJUNOK_clean_linker_0, # of connection points: 2
#     Edge 49, Type (0, 1), BuildingBlock: AJUNOK_clean_linker_0, # of connection points: 2
#     Edge 50, Type (0, 1), BuildingBlock: AJUNOK_clean_linker_0, # of connection points: 2
#     Edge 51, Type (0, 1), BuildingBlock: AJUNOK_clean_linker_0, # of connection points: 2
#     Edge 52, Type (0, 1), BuildingBlock: AJUNOK_clean_linker_0, # of connection points: 2
#     Edge 53, Type (0, 1), BuildingBlock: AJUNOK_clean_linker_0, # of connection points: 2
#     Edge 54, Type (0, 1), BuildingBlock: AJUNOK_clean_linker_0, # of connection points: 2
#     Edge 55, Type (0, 1), BuildingBlock: AJUNOK_clean_linker_0, # of connection points: 2
#     Edge 56, Type (0, 1), BuildingBlock: AJUNOK_clean_linker_0, # of connection points: 2
#     Edge 57, Type (0, 1), BuildingBlock: AJUNOK_clean_linker_0, # of connection points: 2
#     Edge 58, Type (0, 1), BuildingBlock: AJUNOK_clean_linker_0, # of connection points: 2
#     Edge 59, Type (0, 1), BuildingBlock: AJUNOK_clean_linker_0, # of connection points: 2
#     Edge 60, Type (0, 1), BuildingBlock: AJUNOK_clean_linker_0, # of connection points: 2
#     Edge 61, Type (0, 1), BuildingBlock: AJUNOK_clean_linker_0, # of connection points: 2
#     Edge 62, Type (0, 1), BuildingBlock: AJUNOK_clean_linker_0, # of connection points: 2
#     Edge 63, Type (0, 1), BuildingBlock: AJUNOK_clean_linker_0, # of connection points: 2
#     Edge 64, Type (0, 1), BuildingBlock: AJUNOK_clean_linker_0, # of connection points: 2
#     Edge 65, Type (0, 1), BuildingBlock: AJUNOK_clean_linker_0, # of connection points: 2
#     Edge 66, Type (0, 1), BuildingBlock: AJUNOK_clean_linker_0, # of connection points: 2
#     Edge 67, Type (0, 1), BuildingBlock: AJUNOK_clean_linker_0, # of connection points: 2
#     Edge 68, Type (0, 1), BuildingBlock: AJUNOK_clean_linker_0, # of connection points: 2
#     Edge 69, Type (0, 1), BuildingBlock: AJUNOK_clean_linker_0, # of connection points: 2
#     Edge 70, Type (0, 1), BuildingBlock: AJUNOK_clean_linker_0, # of connection points: 2
#     Edge 71, Type (0, 1), BuildingBlock: AJUNOK_clean_linker_0, # of connection points: 2
#     Edge 72, Type (0, 1), BuildingBlock: AJUNOK_clean_linker_0, # of connection points: 2
#     Edge 73, Type (0, 1), BuildingBlock: AJUNOK_clean_linker_0, # of connection points: 2
#     Edge 74, Type (0, 1), BuildingBlock: AJUNOK_clean_linker_0, # of connection points: 2
#     Edge 75, Type (0, 1), BuildingBlock: AJUNOK_clean_linker_0, # of connection points: 2
# Relax obj value: 0.037
# Max RMSD: 0.143
# Mean RMSD: 0.066
data_MOF--net-ctn--node1-QUQFOY_clean_sbu_1--node2-VETTIZ_charged_linker_0--edge1-AJUNOK_clean_linker_0
_symmetry_space_group_name_H-M    P1
_symmetry_Int_Tables_number       1
_symmetry_cell_setting            triclinic
loop_
_symmetry_equiv_pos_as_xyz
'x, y, z'
_cell_length_a     52.703127
_cell_length_b     52.677365
_cell_length_c     52.821043
_cell_angle_alpha  93.02632
_cell_angle_beta   89.999511
_cell_angle_gamma 94.734443
loop_
_atom_site_label
_atom_site_type_symbol
_atom_site_fract_x
_atom_site_fract_y
_atom_site_fract_z
_atom_type_partial_charge
C0 C 0.06367 0.15859 0.01197 0.0
C1 C 0.04412 0.17515 0.01457 0.0
C2 C 0.03145 0.17751 0.03796 0.0
C3 C 0.05487 0.14437 0.0543 0.0
C4 C 0.06882 0.14349 0.03217 0.0
C5 C 0.08806 0.1239 0.03248 0.0
H6 H 0.12642 0.0185 0.08299 0.0
C7 C 0.06257 0.12427 0.07033 0.0
C8 C 0.08252 0.11258 0.05803 0.0
H9 H 0.15678 0.05628 0.01755 0.0
H10 H 0.13042 0.09106 0.02641 0.0
H11 H 0.12864 0.06798 0.11976 0.0
H12 H 0.06796 0.02962 0.0744 0.0
H13 H 0.05641 0.03586 0.10516 0.0
H14 H 0.08238 0.01621 0.10088 0.0
H15 H 0.10956 0.04113 0.13094 0.0
H16 H 0.1005 0.07334 0.13631 0.0
C17 C 0.11509 0.13787 0.03161 0.0
C18 C 0.08189 0.1042 0.01006 0.0
C19 C 0.00486 0.09574 0.14221 0.0
C20 C 0.0052 0.07514 0.15798 0.0
C21 C 0.02706 0.0615 0.15866 0.0
C22 C 0.04736 0.06679 0.1422 0.0
C23 C 0.04565 0.08573 0.12471 0.0
C24 C 0.0253 0.10068 0.12571 0.0
C25 C 0.02729 0.12053 0.10619 0.0
C26 C 0.05159 0.11409 0.09256 0.0
C27 C 0.06187 0.09332 0.10319 0.0
C28 C 0.03022 0.14729 0.12011 0.0
C29 C 0.00354 0.11591 0.08873 0.0
C30 C 0.12754 0.0344 0.07074 0.0
C31 C 0.14304 0.03432 0.04913 0.0
C32 C 0.14429 0.05553 0.03383 0.0
C33 C 0.12906 0.07572 0.03904 0.0
C34 C 0.11232 0.07467 0.05969 0.0
C35 C 0.1124 0.05472 0.07565 0.0
C36 C 0.09375 0.05707 0.09698 0.0
C37 C 0.0822 0.08157 0.09097 0.0
C38 C 0.09279 0.09147 0.06879 0.0
C39 C 0.10871 0.05986 0.1224 0.0
C40 C 0.07406 0.0335 0.09449 0.0
H41 H 0.02614 0.16455 0.07497 0.0
H42 H 0.07381 0.15649 0.99426 0.0
H43 H 0.0611 0.09845 0.00917 0.0
H44 H 0.0912 0.08639 0.01159 0.0
H45 H 0.08754 0.11237 0.99173 0.0
H46 H 0.11529 0.15787 0.03956 0.0
H47 H 0.12224 0.13855 0.01185 0.0
H48 H 0.12894 0.12898 0.04338 0.0
H49 H 0.98844 0.10679 0.14173 0.0
H50 H 0.02803 0.0461 0.17134 0.0
H51 H 0.06312 0.05523 0.14301 0.0
H52 H 0.03726 0.14643 0.13989 0.0
H53 H 0.01178 0.15608 0.12113 0.0
H54 H 0.04455 0.1604 0.11098 0.0
H55 H 0.00018 0.09532 0.08279 0.0
H56 H 0.00528 0.12609 0.07108 0.0
H57 H 0.98625 0.12175 0.09874 0.0
H58 H 0.01673 0.19059 0.04055 0.0
C59 C 0.03687 0.16236 0.05788 0.0
C60 C 0.23744 0.64981 0.24313 0.0
C61 C 0.21271 0.64561 0.23305 0.0
C62 C 0.20366 0.66384 0.21741 0.0
C63 C 0.24363 0.6899 0.22252 0.0
C64 C 0.25232 0.67207 0.23795 0.0
C65 C 0.27811 0.68021 0.24904 0.0
H66 H 0.37994 0.76651 0.2591 0.0
C67 C 0.26353 0.7113 0.22181 0.0
C68 C 0.28362 0.70581 0.23752 0.0
H69 H 0.36502 0.69746 0.29941 0.0
H70 H 0.3255 0.68813 0.27696 0.0
H71 H 0.32697 0.78487 0.26798 0.0
H72 H 0.35579 0.74376 0.20305 0.0
H73 H 0.33939 0.76902 0.19242 0.0
H74 H 0.36676 0.776 0.2127 0.0
H75 H 0.34609 0.80082 0.2446 0.0
H76 H 0.31189 0.79562 0.24143 0.0
C77 C 0.27558 0.68287 0.27835 0.0
C78 C 0.29674 0.66063 0.23937 0.0
C79 C 0.25387 0.78347 0.16346 0.0
C80 C 0.2697 0.80536 0.15843 0.0
C81 C 0.29193 0.81159 0.17292 0.0
C82 C 0.29909 0.79541 0.19139 0.0
C83 C 0.28377 0.77286 0.19539 0.0
C84 C 0.26118 0.76758 0.18209 0.0
C85 C 0.24696 0.74317 0.1895 0.0
C86 C 0.26527 0.73415 0.20862 0.0
C87 C 0.28688 0.75151 0.21178 0.0
C88 C 0.22145 0.74971 0.20187 0.0
C89 C 0.2439 0.72475 0.16566 0.0
C90 C 0.36823 0.74928 0.26295 0.0
C91 C 0.37602 0.73239 0.28062 0.0
C92 C 0.36004 0.71033 0.28524 0.0
C93 C 0.3368 0.70515 0.27248 0.0
C94 C 0.3291 0.72243 0.25524 0.0
C95 C 0.34466 0.74411 0.25077 0.0
C96 C 0.33263 0.76104 0.23297 0.0
C97 C 0.30727 0.74589 0.22755 0.0
C98 C 0.30552 0.7232 0.24041 0.0
C99 C 0.3293 0.78705 0.24725 0.0
C100 C 0.34946 0.7628 0.209 0.0
H101 H 0.21111 0.6991 0.20006 0.0
H102 H 0.24497 0.63626 0.25527 0.0
H103 H 0.29329 0.65522 0.21893 0.0
H104 H 0.3169 0.66814 0.24063 0.0
H105 H 0.29424 0.64294 0.24996 0.0
H106 H 0.25591 0.68669 0.28417 0.0
H107 H 0.28023 0.6652 0.28729 0.0
H108 H 0.28769 0.69928 0.28687 0.0
H109 H 0.23662 0.77846 0.15253 0.0
H110 H 0.30436 0.82837 0.16911 0.0
H111 H 0.31659 0.80077 0.20137 0.0
H112 H 0.22293 0.76938 0.21084 0.0
H113 H 0.20585 0.74854 0.18761 0.0
H114 H 0.21579 0.73729 0.21749 0.0
H115 H 0.26203 0.72493 0.15485 0.0
H116 H 0.23921 0.70471 0.17019 0.0
H117 H 0.22892 0.73045 0.15283 0.0
H118 H 0.18443 0.66144 0.20995 0.0
C119 C 0.21905 0.68587 0.21197 0.0
C120 C 0.96279 0.39866 0.01368 0.0
C121 C 0.95272 0.39711 0.98901 0.0
C122 C 0.93655 0.41549 0.98182 0.0
C123 C 0.94184 0.4373 0.02328 0.0
C124 C 0.95726 0.4189 0.03038 0.0
C125 C 0.96765 0.42407 0.05679 0.0
H126 H 0.98985 0.50706 0.15699 0.0
C127 C 0.94118 0.45653 0.04459 0.0
C128 C 0.9563 0.44892 0.06423 0.0
H129 H 0.01417 0.43075 0.14633 0.0
H130 H 0.98975 0.4243 0.10758 0.0
H131 H 0.93101 0.48881 0.1423 0.0
H132 H 0.99345 0.52352 0.10022 0.0
H133 H 0.96606 0.53918 0.0939 0.0
H134 H 0.97811 0.53998 0.12583 0.0
H135 H 0.94099 0.52215 0.14651 0.0
H136 H 0.91815 0.51014 0.12239 0.0
C137 C 0.95726 0.40207 0.07331 0.0
C138 C 0.99708 0.42746 0.05505 0.0
C139 C 0.89166 0.53417 0.03574 0.0
C140 C 0.88877 0.55611 0.05146 0.0
C141 C 0.90155 0.55905 0.07499 0.0
C142 C 0.91681 0.54027 0.08281 0.0
C143 C 0.91944 0.51842 0.06685 0.0
C144 C 0.90701 0.51572 0.04373 0.0
C145 C 0.91244 0.49163 0.02891 0.0
C146 C 0.92962 0.47991 0.04728 0.0
C147 C 0.93373 0.49568 0.06941 0.0
C148 C 0.887 0.47508 0.02451 0.0
C149 C 0.92653 0.49911 0.00426 0.0
C150 C 0.98977 0.48884 0.14647 0.0
C151 C 0.00469 0.4697 0.15432 0.0
C152 C 0.00371 0.44619 0.14018 0.0
C153 C 0.98936 0.44241 0.11778 0.0
C154 C 0.97569 0.46225 0.10952 0.0
C155 C 0.97527 0.48462 0.12428 0.0
C156 C 0.95825 0.5029 0.11339 0.0
C157 C 0.94943 0.48823 0.08906 0.0
C158 C 0.96009 0.46467 0.08673 0.0
C159 C 0.93597 0.50646 0.13206 0.0
C160 C 0.97462 0.52785 0.10813 0.0
H161 H 0.91866 0.44906 0.99229 0.0
H162 H 0.97531 0.38476 0.01963 0.0
H163 H 0.00307 0.43937 0.03896 0.0
H164 H 0.00628 0.43735 0.07195 0.0
H165 H 0.00515 0.40873 0.05186 0.0
H166 H 0.93871 0.39301 0.06593 0.0
H167 H 0.97069 0.38693 0.07372 0.0
H168 H 0.95316 0.40881 0.09298 0.0
H169 H 0.88202 0.53132 0.01757 0.0
H170 H 0.90001 0.57601 0.08722 0.0
H171 H 0.92614 0.54361 0.10087 0.0
H172 H 0.87502 0.47567 0.04185 0.0
H173 H 0.87594 0.4821 0.00879 0.0
H174 H 0.88963 0.4547 0.02039 0.0
H175 H 0.93768 0.51795 0.00692 0.0
H176 H 0.9408 0.48577 0.99833 0.0
H177 H 0.91291 0.50044 0.98843 0.0
H178 H 0.92824 0.41432 0.96299 0.0
C179 C 0.93098 0.43556 -0.00113 0.0
C180 C 0.65169 0.80955 0.29582 0.0
C181 C 0.63329 0.78873 0.29487 0.0
C182 C 0.63648 0.7678 0.27776 0.0
C183 C 0.67463 0.78999 0.26114 0.0
C184 C 0.67182 0.80997 0.27867 0.0
C185 C 0.69128 0.832 0.27572 0.0
H186 H 0.78627 0.88886 0.20837 0.0
C187 C 0.69664 0.79745 0.24494 0.0
C188 C 0.70632 0.82209 0.25343 0.0
H189 H 0.75151 0.91745 0.27719 0.0
H190 H 0.72477 0.87839 0.27898 0.0
H191 H 0.73466 0.85904 0.18171 0.0
H192 H 0.79475 0.83699 0.22863 0.0
H193 H 0.7846 0.80937 0.21013 0.0
H194 H 0.79804 0.83729 0.19488 0.0
H195 H 0.76732 0.85846 0.17213 0.0
H196 H 0.74543 0.83047 0.16843 0.0
C197 C 0.67701 0.85548 0.26923 0.0
C198 C 0.70759 0.83572 0.30029 0.0
C199 C 0.72208 0.73882 0.17107 0.0
C200 C 0.7415 0.74138 0.15287 0.0
C201 C 0.75859 0.7634 0.15403 0.0
C202 C 0.75619 0.78283 0.17271 0.0
C203 C 0.73641 0.78033 0.19043 0.0
C204 C 0.72003 0.75841 0.1898 0.0
C205 C 0.70043 0.75914 0.21054 0.0
C206 C 0.70785 0.78507 0.22367 0.0
C207 C 0.72867 0.79747 0.21146 0.0
C208 C 0.67375 0.75798 0.19804 0.0
C209 C 0.70413 0.73708 0.22804 0.0
C210 C 0.77275 0.88674 0.22372 0.0
C211 C 0.7704 0.90664 0.24217 0.0
C212 C 0.75297 0.90288 0.26213 0.0
C213 C 0.73768 0.88 0.26334 0.0
C214 C 0.73996 0.86047 0.24455 0.0
C215 C 0.75757 0.86383 0.22542 0.0
C216 C 0.7585 0.84033 0.20812 0.0
C217 C 0.73797 0.82259 0.21966 0.0
C218 C 0.72703 0.83465 0.24074 0.0
C219 C 0.75126 0.84727 0.18108 0.0
C220 C 0.78533 0.83045 0.21031 0.0
H221 H 0.6583 0.75208 0.24787 0.0
H222 H 0.64993 0.82571 0.3091 0.0
H223 H 0.709 0.8173 0.30938 0.0
H224 H 0.72755 0.84273 0.29667 0.0
H225 H 0.69919 0.84897 0.31438 0.0
H226 H 0.66039 0.84964 0.25663 0.0
H227 H 0.66974 0.86512 0.28665 0.0
H228 H 0.68871 0.86962 0.25866 0.0
H229 H 0.70864 0.72209 0.17051 0.0
H230 H 0.77335 0.76599 0.13989 0.0
H231 H 0.76953 0.79929 0.17228 0.0
H232 H 0.67433 0.76914 0.18071 0.0
H233 H 0.66678 0.73801 0.19236 0.0
H234 H 0.65945 0.76649 0.21034 0.0
H235 H 0.72473 0.73488 0.23091 0.0
H236 H 0.69644 0.74043 0.24725 0.0
H237 H 0.69523 0.71869 0.21967 0.0
H238 H 0.6225 0.75151 0.2768 0.0
C239 C 0.65713 0.76829 0.26088 0.0
C240 C 0.0349 0.91878 0.51832 0.0
C241 C 0.01208 0.903 0.51795 0.0
C242 C 0.99467 0.90433 0.49788 0.0
C243 C 0.02135 0.93897 0.48092 0.0
C244 C 0.03916 0.93649 0.49965 0.0
C245 C 0.06209 0.95518 0.49775 0.0
H246 H 0.11756 0.06098 0.44775 0.0
C247 C 0.03055 0.9607 0.46593 0.0
C248 C 0.05452 0.9701 0.47555 0.0
H249 H 0.14828 0.01513 0.50391 0.0
H250 H 0.1113 0.98483 0.49965 0.0
H251 H 0.06221 0.0584 0.46755 0.0
H252 H 0.09682 0.01233 0.40976 0.0
H253 H 0.06679 0.0186 0.3983 0.0
H254 H 0.09031 0.04478 0.40571 0.0
H255 H 0.06882 0.06949 0.43652 0.0
H256 H 0.0392 0.05162 0.44364 0.0
C257 C 0.06441 0.97198 0.52276 0.0
C258 C 0.08557 0.94004 0.49161 0.0
C259 C 0.97351 0.99247 0.39883 0.0
C260 C 0.97596 0.01388 0.384 0.0
C261 C 0.99797 0.03085 0.3863 0.0
C262 C 0.01749 0.02648 0.40309 0.0
C263 C 0.01484 0.005 0.41786 0.0
C264 C 0.99304 0.98854 0.41577 0.0
C265 C 0.99319 0.96731 0.43373 0.0
C266 C 0.01892 0.97347 0.44654 0.0
C267 C 0.03148 0.99549 0.43705 0.0
C268 C 0.97081 0.97002 0.45246 0.0
C269 C 0.99195 0.94158 0.41798 0.0
C270 C 0.1162 0.04437 0.45908 0.0
C271 C 0.13545 0.04044 0.47644 0.0
C272 C 0.13349 0.01843 0.49051 0.0
C273 C 0.11201 0.00098 0.48806 0.0
C274 C 0.09237 0.00566 0.47136 0.0
C275 C 0.09494 0.02672 0.45678 0.0
C276 C 0.07249 0.02825 0.43959 0.0
C277 C 0.05588 0.00474 0.44647 0.0
C278 C 0.0675 0.99182 0.46529 0.0
C279 C 0.05999 0.05325 0.44692 0.0
C280 C 0.08191 0.02607 0.41183 0.0
H281 H 0.98501 0.92267 0.46486 0.0
H282 H 0.0488 0.91797 0.5333 0.0
H283 H 0.07994 0.92117 0.48186 0.0
H284 H 0.09883 0.94979 0.47829 0.0
H285 H 0.09609 0.93648 0.50912 0.0
H286 H 0.04541 0.97772 0.52887 0.0
H287 H 0.07226 0.96145 0.53825 0.0
H288 H 0.07636 0.98998 0.52104 0.0
H289 H 0.95667 0.97919 0.39736 0.0
H290 H 0.00027 0.04726 0.37472 0.0
H291 H 0.03387 0.04001 0.40387 0.0
H292 H 0.96861 0.99046 0.4577 0.0
H293 H 0.95256 0.96165 0.44387 0.0
H294 H 0.97365 0.96128 0.47064 0.0
H295 H 0.00269 0.94355 0.39996 0.0
H296 H 0.00091 0.92656 0.42775 0.0
H297 H 0.97198 0.93473 0.41303 0.0
H298 H 0.97741 0.89165 0.49662 0.0
C299 C -0.00084 0.92226 0.4794 0.0
C300 C 0.26743 0.67497 0.80818 0.0
C301 C 0.27007 0.65952 0.78605 0.0
C302 C 0.25632 0.66427 0.76414 0.0
C303 C 0.23672 0.69867 0.78717 0.0
C304 C 0.25069 0.69416 0.80838 0.0
C305 C 0.24531 0.71151 0.83082 0.0
H306 H 0.19205 0.81534 0.8786 0.0
C307 C 0.2211 0.72011 0.79397 0.0
C308 C 0.22624 0.72772 0.81948 0.0
H309 H 0.23701 0.7644 0.91782 0.0
H310 H 0.23889 0.73746 0.87986 0.0
H311 H 0.1553 0.77024 0.85427 0.0
H312 H 0.22007 0.81395 0.8251 0.0
H313 H 0.19635 0.81084 0.80138 0.0
H314 H 0.18994 0.82648 0.8316 0.0
H315 H 0.15249 0.80069 0.84143 0.0
H316 H 0.14923 0.77149 0.82178 0.0
C317 C 0.23336 0.695 0.85197 0.0
C318 C 0.27046 0.72736 0.83853 0.0
C319 C 0.15652 0.7485 0.73202 0.0
C320 C 0.13907 0.76734 0.7342 0.0
C321 C 0.14079 0.78503 0.75517 0.0
C322 C 0.15844 0.78299 0.77457 0.0
C323 C 0.17454 0.76302 0.77302 0.0
C324 C 0.17407 0.74668 0.75165 0.0
C325 C 0.193 0.72687 0.75338 0.0
C326 C 0.20355 0.73303 0.77997 0.0
C327 C 0.19255 0.7542 0.79132 0.0
C328 C 0.17846 0.7001 0.75089 0.0
C329 C 0.21356 0.73167 0.73285 0.0
C330 C 0.20182 0.7981 0.87924 0.0
C331 C 0.21465 0.79222 0.90127 0.0
C332 C 0.22739 0.76968 0.901 0.0
C333 C 0.22841 0.75398 0.87892 0.0
C334 C 0.2163 0.7606 0.85686 0.0
C335 C 0.20257 0.78184 0.85747 0.0
C336 C 0.18919 0.7846 0.83274 0.0
C337 C 0.19811 0.76211 0.81694 0.0
C338 C 0.21435 0.74849 0.83107 0.0
C339 C 0.16005 0.7818 0.83762 0.0
C340 C 0.19916 0.81036 0.82206 0.0
H341 H 0.22932 0.6863 0.74749 0.0
H342 H 0.27811 0.67207 0.82517 0.0
H343 H 0.28068 0.73427 0.82145 0.0
H344 H 0.26755 0.74463 0.85052 0.0
H345 H 0.28333 0.71566 0.84872 0.0
H346 H 0.22433 0.6764 0.84411 0.0
H347 H 0.24794 0.69078 0.86599 0.0
H348 H 0.21774 0.70408 0.86201 0.0
H349 H 0.15584 0.73493 0.71584 0.0
H350 H 0.12755 0.79968 0.7572 0.0
H351 H 0.15831 0.79658 0.7904 0.0
H352 H 0.16072 0.69968 0.76232 0.0
H353 H 0.17301 0.69487 0.73085 0.0
H354 H 0.18944 0.685 0.75799 0.0
H355 H 0.21706 0.75238 0.7297 0.0
H356 H 0.2323 0.72569 0.73835 0.0
H357 H 0.20759 0.72183 0.71442 0.0
H358 H 0.25811 0.65255 0.74686 0.0
C359 C 0.2396 0.68378 0.76459 0.0
C360 C 0.87833 0.51404 0.50559 0.0
C361 C 0.87299 0.49099 0.49142 0.0
C362 C 0.89061 0.4829 0.47333 0.0
C363 C 0.91804 0.52141 0.48294 0.0
C364 C 0.90091 0.52884 0.50113 0.0
C365 C 0.90963 0.55365 0.51493 0.0
H366 H 0.99465 0.65652 0.52781 0.0
C367 C 0.93928 0.54148 0.48272 0.0
C368 C 0.9345 0.56031 0.5015 0.0
H369 H 0.92833 0.63813 0.57346 0.0
H370 H 0.91923 0.59862 0.54859 0.0
H371 H 0.96948 0.63859 0.4744 0.0
H372 H 0.01406 0.60001 0.52618 0.0
H373 H 0.02481 0.59244 0.49544 0.0
H374 H 0.02745 0.62522 0.50749 0.0
H375 H 0.00331 0.64531 0.47743 0.0
H376 H 0.9895 0.62023 0.45583 0.0
C377 C 0.88974 0.57298 0.51022 0.0
C378 C 0.91376 0.54856 0.54327 0.0
C379 C 0.00953 0.53545 0.4175 0.0
C380 C 0.0301 0.5525 0.41119 0.0
C381 C 0.03489 0.57574 0.42539 0.0
C382 C 0.01913 0.58209 0.44567 0.0
C383 C 0.99827 0.56509 0.45158 0.0
C384 C 0.99373 0.54223 0.43758 0.0
C385 C 0.96994 0.52718 0.44578 0.0
C386 C 0.96114 0.54465 0.46718 0.0
C387 C 0.97786 0.56673 0.47053 0.0
C388 C 0.95099 0.52441 0.42316 0.0
C389 C 0.97748 0.50156 0.45541 0.0
C390 C 0.97811 0.64395 0.53223 0.0
C391 C 0.96197 0.65029 0.5523 0.0
C392 C 0.94091 0.63343 0.55798 0.0
C393 C 0.93568 0.61059 0.54352 0.0
C394 C 0.95183 0.60452 0.52331 0.0
C395 C 0.97278 0.62093 0.51812 0.0
C396 C 0.98824 0.61089 0.49647 0.0
C397 C 0.97312 0.5857 0.4896 0.0
C398 C 0.95171 0.5823 0.50518 0.0
C399 C 0.98789 0.62968 0.47487 0.0
C400 C 0.01515 0.60703 0.50668 0.0
H401 H 0.92579 0.49107 0.45478 0.0
H402 H 0.86529 0.52028 0.52005 0.0
H403 H 0.91787 0.52845 0.54575 0.0
H404 H 0.93049 0.56008 0.55166 0.0
H405 H 0.89663 0.55221 0.55471 0.0
H406 H 0.88334 0.57134 0.49007 0.0
H407 H 0.87266 0.5694 0.52225 0.0
H408 H 0.89729 0.59303 0.51361 0.0
H409 H 0.00537 0.51764 0.40651 0.0
H410 H 0.05071 0.58905 0.42058 0.0
H411 H 0.02363 0.60012 0.45573 0.0
H412 H 0.95226 0.542 0.4123 0.0
H413 H 0.95512 0.50824 0.40986 0.0
H414 H 0.9309 0.52185 0.42908 0.0
H415 H 0.99618 0.50416 0.46541 0.0
H416 H 0.96402 0.49354 0.4695 0.0
H417 H 0.97915 0.48722 0.43944 0.0
H418 H 0.88677 0.46499 0.46243 0.0
C419 C 0.91314 0.49807 0.46893 0.0
C420 C 0.79718 0.76365 0.87831 0.0
C421 C 0.77624 0.76121 0.89473 0.0
C422 C 0.75498 0.775 0.89037 0.0
C423 C 0.7759 0.79353 0.85404 0.0
C424 C 0.79651 0.77966 0.8581 0.0
C425 C 0.8167 0.78337 0.83827 0.0
H426 H 0.86054 0.84218 0.73447 0.0
C427 C 0.78124 0.80817 0.83129 0.0
C428 C 0.805 0.80215 0.82186 0.0
H429 H 0.89399 0.7835 0.77449 0.0
H430 H 0.85924 0.78211 0.80386 0.0
H431 H 0.84041 0.87393 0.78469 0.0
H432 H 0.80434 0.81474 0.73422 0.0
H433 H 0.78186 0.83687 0.74136 0.0
H434 H 0.81069 0.84693 0.72493 0.0
H435 H 0.83252 0.87911 0.7524 0.0
H436 H 0.8097 0.88227 0.77752 0.0
C437 C 0.84137 0.79526 0.85164 0.0
C438 C 0.81939 0.75732 0.82376 0.0
C439 C 0.72038 0.87205 0.80595 0.0
C440 C 0.72132 0.89005 0.78725 0.0
C441 C 0.7408 0.89001 0.769 0.0
C442 C 0.75994 0.87312 0.77025 0.0
C443 C 0.75955 0.85615 0.78996 0.0
C444 C 0.73967 0.85546 0.80705 0.0
C445 C 0.74239 0.83645 0.82688 0.0
C446 C 0.76748 0.82622 0.81925 0.0
C447 C 0.77751 0.83784 0.79766 0.0
C448 C 0.74409 0.85107 0.85316 0.0
C449 C 0.71984 0.81565 0.82393 0.0
C450 C 0.86038 0.82913 0.74966 0.0
C451 C 0.88044 0.81344 0.75256 0.0
C452 C 0.87933 0.79648 0.77237 0.0
C453 C 0.85889 0.79543 0.78924 0.0
C454 C 0.83906 0.81123 0.78617 0.0
C455 C 0.83987 0.8276 0.76655 0.0
C456 C 0.81651 0.8422 0.76576 0.0
C457 C 0.80158 0.83174 0.78808 0.0
C458 C 0.81509 0.81385 0.80005 0.0
C459 C 0.82503 0.87094 0.77014 0.0
C460 C 0.80257 0.83509 0.74022 0.0
H461 H 0.73801 0.80116 0.86786 0.0
H462 H 0.81372 0.75316 0.88101 0.0
H463 H 0.8015 0.74458 0.82448 0.0
H464 H 0.82292 0.75926 0.80327 0.0
H465 H 0.83482 0.74714 0.83197 0.0
H466 H 0.83693 0.81016 0.86633 0.0
H467 H 0.85123 0.78054 0.86121 0.0
H468 H 0.85487 0.80504 0.83869 0.0
H469 H 0.70538 0.87151 0.81999 0.0
H470 H 0.7418 0.90378 0.75444 0.0
H471 H 0.77465 0.87438 0.75622 0.0
H472 H 0.75587 0.86951 0.85208 0.0
H473 H 0.72491 0.8554 0.86001 0.0
H474 H 0.75339 0.84079 0.86775 0.0
H475 H 0.71336 0.81285 0.80385 0.0
H476 H 0.72506 0.79665 0.82901 0.0
H477 H 0.70328 0.82092 0.83548 0.0
H478 H 0.73827 0.77283 0.90224 0.0
C479 C 0.75475 0.79121 0.87019 0.0
C480 C 0.30106 0.26095 0.37693 0.0
C481 C 0.28068 0.25826 0.39396 0.0
C482 C 0.26014 0.27356 0.39173 0.0
C483 C 0.28013 0.29313 0.35546 0.0
C484 C 0.30024 0.27814 0.35776 0.0
C485 C 0.31969 0.28211 0.33729 0.0
H486 H 0.36047 0.34315 0.23384 0.0
C487 C 0.28506 0.30872 0.33327 0.0
C488 C 0.3081 0.30219 0.32247 0.0
H489 H 0.39408 0.28214 0.27008 0.0
H490 H 0.36103 0.28125 0.30146 0.0
H491 H 0.3443 0.37422 0.28581 0.0
H492 H 0.3039 0.31764 0.23564 0.0
H493 H 0.28244 0.34017 0.2448 0.0
H494 H 0.31058 0.35006 0.2272 0.0
H495 H 0.33472 0.38073 0.25434 0.0
H496 H 0.31361 0.38388 0.28096 0.0
C497 C 0.34521 0.29249 0.35006 0.0
C498 C 0.32082 0.25656 0.32143 0.0
C499 C 0.22505 0.37535 0.3126 0.0
C500 C 0.22561 0.39371 0.29423 0.0
C501 C 0.24452 0.39376 0.27541 0.0
C502 C 0.26338 0.37649 0.27558 0.0
C503 C 0.26327 0.35897 0.29478 0.0
C504 C 0.24404 0.35831 0.31259 0.0
C505 C 0.24697 0.33849 0.33161 0.0
C506 C 0.27144 0.32775 0.32262 0.0
C507 C 0.28093 0.33984 0.30108 0.0
C508 C 0.25001 0.35222 0.35825 0.0
C509 C 0.22383 0.31837 0.32887 0.0
C510 C 0.36057 0.32946 0.24842 0.0
C511 C 0.37985 0.31258 0.24939 0.0
C512 C 0.37958 0.29549 0.26904 0.0
C513 C 0.36022 0.29484 0.28714 0.0
C514 C 0.34075 0.31135 0.28556 0.0
C515 C 0.3411 0.32829 0.26645 0.0
C516 C 0.31835 0.34381 0.26739 0.0
C517 C 0.30425 0.33321 0.29012 0.0
C518 C 0.31764 0.31441 0.30075 0.0
C519 C 0.32804 0.37221 0.27221 0.0
C520 C 0.30297 0.33789 0.24246 0.0
H521 H 0.24355 0.30196 0.37179 0.0
H522 H 0.31733 0.2498 0.37838 0.0
H523 H 0.30236 0.24469 0.32189 0.0
H524 H 0.32418 0.25934 0.30105 0.0
H525 H 0.33571 0.24509 0.32875 0.0
H526 H 0.34188 0.30648 0.36599 0.0
H527 H 0.35515 0.27682 0.35788 0.0
H528 H 0.35824 0.30298 0.33716 0.0
H529 H 0.21047 0.37468 0.32706 0.0
H530 H 0.24525 0.40779 0.26109 0.0
H531 H 0.2776 0.3778 0.26108 0.0
H532 H 0.26209 0.3705 0.35732 0.0
H533 H 0.23125 0.35673 0.36609 0.0
H534 H 0.25968 0.34119 0.37198 0.0
H535 H 0.21702 0.31595 0.30888 0.0
H536 H 0.2285 0.29912 0.3337 0.0
H537 H 0.20766 0.3241 0.34075 0.0
H538 H 0.24413 0.27172 0.40455 0.0
C539 C 0.25976 0.29098 0.3726 0.0
C540 C 0.45431 0.88716 0.51772 0.0
C541 C 0.44109 0.8821 0.49475 0.0
C542 C 0.42052 0.89635 0.48922 0.0
C543 C 0.42782 0.92164 0.52863 0.0
C544 C 0.44722 0.90676 0.53442 0.0
C545 C 0.45955 0.91475 0.55951 0.0
H546 H 0.47334 -0.00023 0.65941 0.0
C547 C 0.42643 0.94147 0.54932 0.0
C548 C 0.4447 0.93721 0.56765 0.0
H549 H 0.51685 0.9351 0.64202 0.0
H550 H 0.48908 0.92208 0.60643 0.0
H551 H 0.4154 0.97121 0.64395 0.0
H552 H 0.47403 0.0175 0.6076 0.0
H553 H 0.44554 0.02524 0.5941 0.0
H554 H 0.45094 0.03143 0.62769 0.0
H555 H 0.42355 0.00436 0.65235 0.0
H556 H 0.40067 0.99442 0.62765 0.0
C557 C 0.45486 0.89245 0.57739 0.0
C558 C 0.48803 0.92296 0.55472 0.0
C559 C 0.3711 0.01502 0.5396 0.0
C560 C 0.36833 0.03763 0.55441 0.0
C561 C 0.38082 0.04131 0.57805 0.0
C562 C 0.39606 0.02296 0.58665 0.0
C563 C 0.39932 0.00089 0.57126 0.0
C564 C 0.38673 0.99705 0.54828 0.0
C565 C 0.3931 0.97282 0.53415 0.0
C566 C 0.41199 0.96305 0.55227 0.0
C567 C 0.41548 0.9796 0.57393 0.0
C568 C 0.36849 0.95468 0.53128 0.0
C569 C 0.4056 0.98007 0.5087 0.0
C570 C 0.47675 0.98269 0.64801 0.0
C571 C 0.49752 0.96867 0.65312 0.0
C572 C 0.50102 0.94625 0.63829 0.0
C573 C 0.48501 0.9389 0.61752 0.0
C574 C 0.46554 0.95432 0.61144 0.0
C575 C 0.46138 0.97551 0.62692 0.0
C576 C 0.44103 0.99063 0.61681 0.0
C577 C 0.4335 0.97493 0.59271 0.0
C578 C 0.4479 0.95375 0.58966 0.0
C579 C 0.41897 0.9904 0.63616 0.0
C580 C 0.45326 0.01766 0.61136 0.0
H581 H 0.39822 0.92664 0.50073 0.0
H582 H 0.47001 0.87621 0.52245 0.0
H583 H 0.49046 0.93261 0.53654 0.0
H584 H 0.49643 0.93704 0.5692 0.0
H585 H 0.49954 0.9062 0.55361 0.0
H586 H 0.43596 0.88189 0.57359 0.0
H587 H 0.46955 0.8786 0.57474 0.0
H588 H 0.45428 0.89895 0.59759 0.0
H589 H 0.3616 0.01157 0.52141 0.0
H590 H 0.37945 0.05874 0.5896 0.0
H591 H 0.40524 0.02702 0.6047 0.0
H592 H 0.35563 0.95733 0.54776 0.0
H593 H 0.35776 0.95829 0.51391 0.0
H594 H 0.37228 0.93434 0.53094 0.0
H595 H 0.41935 0.99718 0.51159 0.0
H596 H 0.41674 0.96512 0.50003 0.0
H597 H 0.39104 0.98461 0.4948 0.0
H598 H 0.41013 0.89261 0.47153 0.0
C599 C 0.41378 0.91612 0.50608 0.0
C600 C 0.14716 0.30846 0.79149 0.0
C601 C 0.13069 0.28618 0.79151 0.0
C602 C 0.13559 0.26517 0.77513 0.0
C603 C 0.17255 0.28932 0.75848 0.0
C604 C 0.16784 0.3096 0.77499 0.0
C605 C 0.18678 0.33217 0.7726 0.0
H606 H 0.29454 0.38488 0.72172 0.0
C607 C 0.19541 0.29714 0.74359 0.0
C608 C 0.20385 0.32213 0.75199 0.0
H609 H 0.24487 0.41862 0.77682 0.0
H610 H 0.21638 0.38057 0.77432 0.0
H611 H 0.24778 0.36194 0.68509 0.0
H612 H 0.29134 0.32859 0.74171 0.0
H613 H 0.28734 0.3064 0.71565 0.0
H614 H 0.30427 0.33707 0.71157 0.0
H615 H 0.27959 0.35338 0.67931 0.0
H616 H 0.25228 0.33077 0.67371 0.0
C617 C 0.17238 0.3548 0.76394 0.0
C618 C 0.20098 0.33723 0.79832 0.0
C619 C 0.22507 0.23917 0.67156 0.0
C620 C 0.24511 0.24201 0.6541 0.0
C621 C 0.26301 0.26335 0.65698 0.0
C622 C 0.26045 0.28212 0.67638 0.0
C623 C 0.23969 0.27961 0.69301 0.0
C624 C 0.22276 0.25811 0.69085 0.0
C625 C 0.20197 0.25866 0.71037 0.0
C626 C 0.20861 0.28452 0.72384 0.0
C627 C 0.23067 0.29673 0.71349 0.0
C628 C 0.17604 0.25748 0.6964 0.0
C629 C 0.20468 0.23652 0.72809 0.0
C630 C 0.27744 0.38402 0.73312 0.0
C631 C 0.27232 0.40441 0.75012 0.0
C632 C 0.24968 0.40279 0.7643 0.0
C633 C 0.23306 0.38071 0.76269 0.0
C634 C 0.2389 0.36006 0.74647 0.0
C635 C 0.26043 0.36209 0.73156 0.0
C636 C 0.26264 0.33861 0.71443 0.0
C637 C 0.2394 0.32187 0.7223 0.0
C638 C 0.22578 0.33455 0.74117 0.0
C639 C 0.26067 0.34638 0.68663 0.0
C640 C 0.28775 0.327 0.7209 0.0
H641 H 0.15909 0.25019 0.74627 0.0
H642 H 0.14388 0.32485 0.80397 0.0
H643 H 0.20461 0.31896 0.80679 0.0
H644 H 0.21997 0.34748 0.79662 0.0
H645 H 0.18956 0.34811 0.81211 0.0
H646 H 0.15494 0.34798 0.75289 0.0
H647 H 0.16639 0.36681 0.78043 0.0
H648 H 0.18373 0.36695 0.75092 0.0
H649 H 0.21111 0.22289 0.66977 0.0
H650 H 0.27838 0.26608 0.64352 0.0
H651 H 0.27438 0.29818 0.67727 0.0
H652 H 0.17729 0.26994 0.68001 0.0
H653 H 0.17014 0.23773 0.68903 0.0
H654 H 0.16065 0.26438 0.7084 0.0
H655 H 0.225 0.23273 0.73037 0.0
H656 H 0.19806 0.24087 0.74757 0.0
H657 H 0.19424 0.21859 0.72038 0.0
H658 H 0.12288 0.2479 0.77467 0.0
C659 C 0.15648 0.26662 0.75859 0.0
C660 C 0.73853 0.14388 0.73488 0.0
C661 C 0.71613 0.13905 0.72048 0.0
C662 C 0.70977 0.15699 0.70313 0.0
C663 C 0.74753 0.1843 0.71545 0.0
C664 C 0.75392 0.16633 0.73194 0.0
C665 C 0.77814 0.17415 0.74618 0.0
H666 H 0.87318 0.26362 0.77727 0.0
C667 C 0.76691 0.2062 0.71828 0.0
C668 C 0.78487 0.20025 0.73619 0.0
H669 H 0.86212 0.18637 0.80161 0.0
H670 H 0.82456 0.17875 0.77554 0.0
H671 H 0.81523 0.27635 0.77844 0.0
H672 H 0.86156 0.24731 0.71822 0.0
H673 H 0.84291 0.2695 0.70522 0.0
H674 H 0.86531 0.27992 0.73019 0.0
H675 H 0.83965 0.29602 0.76346 0.0
H676 H 0.80766 0.29151 0.7509 0.0
C677 C 0.77196 0.17573 0.7749 0.0
C678 C 0.79798 0.155 0.73835 0.0
C679 C 0.76092 0.28393 0.6663 0.0
C680 C 0.77651 0.30676 0.66491 0.0
C681 C 0.79661 0.31228 0.68242 0.0
C682 C 0.80207 0.29464 0.70014 0.0
C683 C 0.78724 0.27123 0.70036 0.0
C684 C 0.76666 0.26644 0.68409 0.0
C685 C 0.75292 0.24062 0.68728 0.0
C686 C 0.76927 0.23035 0.7074 0.0
C687 C 0.78936 0.24836 0.71493 0.0
C688 C 0.72574 0.24467 0.69698 0.0
C689 C 0.75372 0.2248 0.66176 0.0
C690 C 0.86271 0.24502 0.77683 0.0
C691 C 0.87025 0.22572 0.79192 0.0
C692 C 0.85625 0.20175 0.79071 0.0
C693 C 0.83456 0.19729 0.77537 0.0
C694 C 0.82691 0.21693 0.76084 0.0
C695 C 0.84113 0.24016 0.76138 0.0
C696 C 0.83071 0.25832 0.74375 0.0
C697 C 0.80765 0.24221 0.73287 0.0
C698 C 0.8055 0.21815 0.74316 0.0
C699 C 0.82301 0.28195 0.75977 0.0
C700 C 0.85109 0.26435 0.72329 0.0
H701 H 0.71949 0.19264 0.68716 0.0
H702 H 0.74363 0.13089 0.74889 0.0
H703 H 0.79371 0.14562 0.71928 0.0
H704 H 0.81743 0.1644 0.73659 0.0
H705 H 0.79831 0.13967 0.75198 0.0
H706 H 0.75364 0.1844 0.77833 0.0
H707 H 0.77017 0.15646 0.78263 0.0
H708 H 0.78621 0.18791 0.78627 0.0
H709 H 0.74535 0.27925 0.65303 0.0
H710 H 0.80854 0.33001 0.68192 0.0
H711 H 0.81795 0.2997 0.71262 0.0
H712 H 0.72589 0.26179 0.71027 0.0
H713 H 0.71273 0.24756 0.68102 0.0
H714 H 0.71747 0.22879 0.70797 0.0
H715 H 0.77241 0.22857 0.65229 0.0
H716 H 0.75178 0.20402 0.66406 0.0
H717 H 0.73865 0.22971 0.64861 0.0
H718 H 0.69257 0.15364 0.69181 0.0
C719 C 0.72538 0.17961 0.70052 0.0
C720 C 0.55972 0.65395 0.50417 0.0
C721 C 0.53973 0.67 0.50525 0.0
C722 C 0.52564 0.67258 0.52773 0.0
C723 C 0.5486 0.64026 0.54623 0.0
C724 C 0.56381 0.6392 0.52492 0.0
C725 C 0.58271 0.6194 0.52645 0.0
H726 H 0.617 0.51398 0.58034 0.0
C727 C 0.55526 0.62023 0.5629 0.0
C728 C 0.57561 0.60821 0.55173 0.0
H729 H 0.65057 0.55025 0.51544 0.0
H730 H 0.62445 0.58554 0.52252 0.0
H731 H 0.61795 0.56491 0.61625 0.0
H732 H 0.55995 0.52482 0.56879 0.0
H733 H 0.54601 0.5327 0.59804 0.0
H734 H 0.5719 0.51259 0.59714 0.0
H735 H 0.59912 0.53754 0.6267 0.0
H736 H 0.58899 0.56939 0.63164 0.0
C737 C 0.60988 0.6331 0.52701 0.0
C738 C 0.57754 0.59967 0.50385 0.0
C739 C 0.49495 0.59459 0.63387 0.0
C740 C 0.49422 0.57419 0.64997 0.0
C741 C 0.51528 0.55948 0.65104 0.0
C742 C 0.53604 0.56379 0.63492 0.0
C743 C 0.53558 0.58278 0.61731 0.0
C744 C 0.51581 0.59849 0.61765 0.0
C745 C 0.5188 0.6178 0.59766 0.0
C746 C 0.5432 0.61049 0.58482 0.0
C747 C 0.5526 0.58966 0.59616 0.0
C748 C 0.52209 0.64481 0.61102 0.0
C749 C 0.4954 0.61325 0.57971 0.0
C750 C 0.61888 0.52968 0.56784 0.0
C751 C 0.63525 0.52905 0.5469 0.0
C752 C 0.63744 0.54997 0.53122 0.0
C753 C 0.62234 0.57045 0.5354 0.0
C754 C 0.60474 0.56994 0.55536 0.0
C755 C 0.60385 0.55024 0.57169 0.0
C756 C 0.58426 0.55307 0.59208 0.0
C757 C 0.57327 0.57753 0.58504 0.0
C758 C 0.58502 0.58706 0.56323 0.0
C759 C 0.5981 0.55622 0.6181 0.0
C760 C 0.56447 0.52961 0.58915 0.0
H761 H 0.51832 0.66023 0.56466 0.0
H762 H 0.57086 0.65187 0.48707 0.0
H763 H 0.55674 0.59459 0.50144 0.0
H764 H 0.58591 0.58148 0.50631 0.0
H765 H 0.58487 0.60749 0.48589 0.0
H766 H 0.60996 0.65283 0.53567 0.0
H767 H 0.61777 0.6345 0.50758 0.0
H768 H 0.62317 0.62361 0.53888 0.0
H769 H 0.47906 0.60631 0.63298 0.0
H770 H 0.51528 0.54408 0.66385 0.0
H771 H 0.55118 0.5515 0.63612 0.0
H772 H 0.52997 0.64429 0.63051 0.0
H773 H 0.50362 0.65348 0.61265 0.0
H774 H 0.53593 0.65781 0.60118 0.0
H775 H 0.49092 0.59249 0.57519 0.0
H776 H 0.49828 0.62175 0.56124 0.0
H777 H 0.4783 0.62081 0.58866 0.0
H778 H 0.5104 0.68521 0.52892 0.0
C779 C 0.53015 0.65798 0.54833 0.0
C780 C 0.53799 0.42145 0.01735 0.0
C781 C 0.5146 0.4066 0.01636 0.0
C782 C 0.498 0.4086 0.99573 0.0
C783 C 0.52736 0.44109 0.97863 0.0
C784 C 0.54402 0.4383 0.99829 0.0
C785 C 0.56823 0.45519 0.99648 0.0
H786 H 0.63649 0.54994 0.93975 0.0
C787 C 0.53915 0.46079 0.96246 0.0
C788 C 0.56326 0.4688 0.97262 0.0
H789 H 0.65623 0.51096 0.006 0.0
H790 H 0.61785 0.48279 0.00121 0.0
H791 H 0.5797 0.55392 0.9544 0.0
H792 H 0.61424 0.4986 0.90566 0.0
H793 H 0.58568 0.50505 0.89106 0.0
H794 H 0.61058 0.53042 0.89652 0.0
H795 H 0.59158 0.56105 0.92351 0.0
H796 H 0.55956 0.54728 0.92805 0.0
C797 C 0.57022 0.47375 0.02034 0.0
C798 C 0.59062 0.43797 0.99311 0.0
C799 C 0.48844 0.49297 0.89075 0.0
C800 C 0.4942 0.51161 0.87312 0.0
C801 C 0.51866 0.52454 0.87313 0.0
C802 C 0.53711 0.51918 0.89071 0.0
C803 C 0.53098 0.50078 0.90854 0.0
C804 C 0.50709 0.48777 0.90815 0.0
C805 C 0.50421 0.46843 0.92812 0.0
C806 C 0.53007 0.47248 0.941 0.0
C807 C 0.54559 0.49155 0.92953 0.0
C808 C 0.48246 0.47574 0.94609 0.0
C809 C 0.49975 0.4415 0.91476 0.0
C810 C 0.6327 0.53492 0.95282 0.0
C811 C 0.64927 0.53237 0.97316 0.0
C812 C 0.64359 0.5131 0.9902 0.0
C813 C 0.6213 0.49687 0.9874 0.0
C814 C 0.60434 0.50022 0.96755 0.0
C815 C 0.61032 0.51874 0.95045 0.0
C816 C 0.58956 0.52009 0.93115 0.0
C817 C 0.57014 0.49937 0.93957 0.0
C818 C 0.57892 0.48792 0.96091 0.0
C819 C 0.57955 0.54696 0.93413 0.0
C820 C 0.60044 0.5134 0.90461 0.0
H821 H 0.49072 0.42668 0.96185 0.0
H822 H 0.55124 0.42025 0.03283 0.0
H823 H 0.58445 0.4197 0.98247 0.0
H824 H 0.60636 0.4466 0.98175 0.0
H825 H 0.59818 0.43317 0.01174 0.0
H826 H 0.5511 0.47941 0.02616 0.0
H827 H 0.57851 0.46473 0.03662 0.0
H828 H 0.58145 0.49192 0.01718 0.0
H829 H 0.46983 0.48256 0.89087 0.0
H830 H 0.52337 0.53908 0.85974 0.0
H831 H 0.55534 0.52978 0.8899 0.0
H832 H 0.48414 0.49664 0.95089 0.0
H833 H 0.46357 0.47071 0.93703 0.0
H834 H 0.48273 0.46666 0.9644 0.0
H835 H 0.50876 0.44081 0.89571 0.0
H836 H 0.50858 0.42675 0.92512 0.0
H837 H 0.47912 0.43581 0.91211 0.0
H838 H 0.48026 0.39671 0.99402 0.0
C839 C 0.50421 0.42584 0.97693 0.0
C840 C 0.76569 0.1789 0.30304 0.0
C841 C 0.7691 0.16577 0.27966 0.0
C842 C 0.75531 0.17214 0.25834 0.0
C843 C 0.73486 0.20406 0.28415 0.0
C844 C 0.74863 0.19781 0.30486 0.0
C845 C 0.74278 0.21308 0.3286 0.0
H846 H 0.69063 0.31402 0.38404 0.0
C847 C 0.71891 0.22471 0.29268 0.0
C848 C 0.72368 0.23013 0.31865 0.0
H849 H 0.73371 0.25878 0.41913 0.0
H850 H 0.73482 0.23428 0.37953 0.0
H851 H 0.65294 0.27091 0.35685 0.0
H852 H 0.71818 0.31569 0.32988 0.0
H853 H 0.69377 0.31498 0.30693 0.0
H854 H 0.68855 0.32836 0.3384 0.0
H855 H 0.65045 0.30226 0.34599 0.0
H856 H 0.64696 0.27428 0.32461 0.0
C857 C 0.7307 0.19457 0.34804 0.0
C858 C 0.76771 0.22843 0.33782 0.0
C859 C 0.65519 0.25805 0.23305 0.0
C860 C 0.63791 0.27692 0.23634 0.0
C861 C 0.63903 0.29276 0.25871 0.0
C862 C 0.65625 0.28904 0.27808 0.0
C863 C 0.67247 0.26925 0.27511 0.0
C864 C 0.67236 0.25462 0.25259 0.0
C865 C 0.69136 0.23475 0.25282 0.0
C866 C 0.70149 0.23875 0.27978 0.0
C867 C 0.69027 0.25896 0.2927 0.0
C868 C 0.67699 0.2081 0.24806 0.0
C869 C 0.7122 0.24137 0.23299 0.0
C870 C 0.70013 0.29653 0.38322 0.0
C871 C 0.71318 0.28898 0.40446 0.0
C872 C 0.72464 0.2657 0.40275 0.0
C873 C 0.72511 0.25137 0.37976 0.0
C874 C 0.71353 0.26006 0.3583 0.0
C875 C 0.70032 0.28163 0.36047 0.0
C876 C 0.68696 0.28633 0.33617 0.0
C877 C 0.69562 0.26481 0.31879 0.0
C878 C 0.71159 0.24991 0.33179 0.0
C879 C 0.65783 0.2835 0.34099 0.0
C880 C 0.69717 0.31279 0.3273 0.0
H881 H 0.72798 0.19511 0.2437 0.0
H882 H 0.77604 0.17444 0.31974 0.0
H883 H 0.77782 0.23741 0.32165 0.0
H884 H 0.76456 0.24423 0.35166 0.0
H885 H 0.78077 0.2158 0.34649 0.0
H886 H 0.72238 0.17637 0.33864 0.0
H887 H 0.74504 0.18965 0.362 0.0
H888 H 0.71453 0.20245 0.35832 0.0
H889 H 0.65473 0.24571 0.21596 0.0
H890 H 0.6257 0.3072 0.26174 0.0
H891 H 0.65578 0.30129 0.29492 0.0
H892 H 0.65911 0.20663 0.25928 0.0
H893 H 0.67181 0.20452 0.22773 0.0
H894 H 0.68798 0.19246 0.25393 0.0
H895 H 0.7153 0.26235 0.23119 0.0
H896 H 0.73102 0.2355 0.23838 0.0
H897 H 0.70679 0.2326 0.21397 0.0
H898 H 0.75733 0.16194 0.2402 0.0
C899 C 0.73821 0.19126 0.26046 0.0
C900 C 0.38596 0.01526 0.00344 0.0
C901 C 0.38096 0.99176 0.98997 0.0
C902 C 0.39909 0.98309 0.97271 0.0
C903 C 0.42631 0.02189 0.98174 0.0
C904 C 0.40868 0.0299 -0.00086 0.0
C905 C 0.41698 0.05515 0.01226 0.0
H906 H 0.50456 0.15564 0.02849 0.0
C907 C 0.4477 0.04183 0.98165 0.0
C908 C 0.44242 0.06121 -0.00033 0.0
H909 H 0.43302 0.14205 0.0674 0.0
H910 H 0.42422 0.1023 0.04294 0.0
H911 H 0.48314 0.1403 0.97495 0.0
H912 H 0.5211 0.09658 0.02756 0.0
H913 H 0.53424 0.09108 0.99728 0.0
H914 H 0.53639 0.12296 0.01166 0.0
H915 H 0.51717 0.14255 0.9776 0.0
H916 H 0.50018 0.1191 0.95631 0.0
C917 C 0.39743 0.07434 0.00586 0.0
C918 C 0.41992 0.05108 0.04096 0.0
C919 C 0.51878 0.03506 0.91744 0.0
C920 C 0.53944 0.05209 0.91127 0.0
C921 C 0.54489 0.07473 0.92626 0.0
C922 C 0.52945 0.08074 0.94692 0.0
C923 C 0.50818 0.06405 0.95235 0.0
C924 C 0.50326 0.04153 0.93787 0.0
C925 C 0.47914 0.02676 0.9457 0.0
C926 C 0.47022 0.04436 0.96695 0.0
C927 C 0.48738 0.06606 0.97081 0.0
C928 C 0.46052 0.02423 0.92284 0.0
C929 C 0.48615 0.001 0.95546 0.0
C930 C 0.48718 0.14385 0.03183 0.0
C931 C 0.46953 0.15159 0.04996 0.0
C932 C 0.44682 0.13625 0.05349 0.0
C933 C 0.44182 0.11321 0.03932 0.0
C934 C 0.45965 0.10556 0.02129 0.0
C935 C 0.48181 0.12084 0.01767 0.0
C936 C 0.49804 0.11006 0.99701 0.0
C937 C 0.48228 0.08543 0.98936 0.0
C938 C 0.45988 0.08297 0.00364 0.0
C939 C 0.49999 0.12891 0.97533 0.0
C940 C 0.52393 0.10498 0.00877 0.0
H941 H 0.43481 0.99066 0.95492 0.0
H942 H 0.37252 0.02203 0.01725 0.0
H943 H 0.42614 0.0318 0.04411 0.0
H944 H 0.43478 0.06441 0.05027 0.0
H945 H 0.40161 0.05276 0.05109 0.0
H946 H 0.39017 0.07061 0.98611 0.0
H947 H 0.38079 0.07282 0.01875 0.0
H948 H 0.4057 0.09432 0.00653 0.0
H949 H 0.51414 0.0177 0.90586 0.0
H950 H 0.5608 0.08802 0.92161 0.0
H951 H 0.53434 0.09841 0.95748 0.0
H952 H 0.46141 0.04226 0.91269 0.0
H953 H 0.46536 0.00873 0.90904 0.0
H954 H 0.44041 0.0207 0.92836 0.0
H955 H 0.50514 0.00308 0.9649 0.0
H956 H 0.47289 0.99368 0.97008 0.0
H957 H 0.4869 0.98634 0.93963 0.0
H958 H 0.39553 0.96486 0.96231 0.0
C959 C 0.42178 0.99809 0.96846 0.0
O960 O 0.24628 0.86327 0.00226 0.0
Cd961 Cd 0.25944 0.88593 0.03292 0.0
Cd962 Cd 0.23042 0.9191 0.00873 0.0
O963 O 0.21804 0.88696 0.98675 0.0
O964 O 0.27597 0.86031 0.05188 0.0
O965 O 0.24462 0.88144 0.06787 0.0
C966 C 0.26043 0.86425 0.07015 0.0
C967 C 0.20127 0.94834 0.02087 0.0
C968 C 0.22891 0.86633 0.98637 0.0
C969 C 0.28753 0.93114 0.01188 0.0
O970 O 0.26643 0.93576 0.00224 0.0
O971 O 0.28873 0.91272 0.02626 0.0
O972 O 0.20838 0.94523 0.99768 0.0
O973 O 0.21023 0.93414 0.03737 0.0
O974 O 0.15602 0.54578 0.28303 0.0
Cd975 Cd 0.13784 0.51366 0.29777 0.0
Cd976 Cd 0.09996 0.52565 0.26693 0.0
O977 O 0.12727 0.55181 0.25407 0.0
O978 O 0.16519 0.49641 0.31391 0.0
O979 O 0.14251 0.47905 0.28126 0.0
C980 C 0.16039 0.47748 0.29771 0.0
C981 C 0.07293 0.50434 0.23677 0.0
C982 C 0.1488 0.55778 0.26443 0.0
C983 C 0.09093 0.52855 0.3233 0.0
O984 O 0.08355 0.53353 0.3014 0.0
O985 O 0.1118 0.51866 0.32619 0.0
O986 O 0.07061 0.52772 0.24404 0.0
O987 O 0.09098 0.49277 0.24648 0.0
O988 O 0.75631 0.688 0.99003 0.0
Cd989 Cd 0.74902 0.66232 0.01791 0.0
Cd990 Cd 0.7828 0.63689 0.99119 0.0
O991 O 0.7868 0.66866 0.97035 0.0
O992 O 0.72866 0.68092 0.04329 0.0
O993 O 0.76664 0.66851 0.05171 0.0
C994 C 0.747 0.67992 0.05923 0.0
C995 C 0.81704 0.62104 0.01081 0.0
C996 C 0.77297 0.68726 0.97268 0.0
C997 C 0.73101 0.61113 0.99345 0.0
O998 O 0.75246 0.61099 0.98259 0.0
O999 O 0.72647 0.6292 0.00924 0.0
O1000 O 0.81384 0.61841 0.98656 0.0
O1001 O 0.80118 0.63378 0.02391 0.0
O1002 O 0.90822 0.01852 0.28325 0.0
Cd1003 Cd 0.89128 0.024 0.24937 0.0
Cd1004 Cd 0.85788 0.04643 0.28013 0.0
O1005 O 0.886 0.04407 0.30712 0.0
O1006 O 0.91786 0.01586 0.22453 0.0
O1007 O 0.90411 0.05431 0.22991 0.0
C1008 C 0.91932 0.03935 0.21871 0.0
C1009 C 0.83571 0.08294 0.27962 0.0
C1010 C 0.90421 0.02977 0.30451 0.0
C1011 C 0.84001 0.99749 0.2508 0.0
O1012 O 0.83585 0.01366 0.26868 0.0
O1013 O 0.86091 -0.00099 0.23889 0.0
O1014 O 0.8325 0.06705 0.29728 0.0
O1015 O 0.85259 0.07866 0.26253 0.0
O1016 O 0.25793 0.18772 0.48918 0.0
Cd1017 Cd 0.2468 0.16394 0.51755 0.0
Cd1018 Cd 0.27624 0.13254 0.49178 0.0
O1019 O 0.28441 0.16308 0.46961 0.0
O1020 O 0.22954 0.18618 0.5424 0.0
O1021 O 0.26452 0.16806 0.55151 0.0
C1022 C 0.24697 0.18258 0.5586 0.0
C1023 C 0.30706 0.11147 0.51134 0.0
C1024 C 0.27367 0.18381 0.47147 0.0
C1025 C 0.22152 0.11488 0.4946 0.0
O1026 O 0.24281 0.11067 0.48473 0.0
O1027 O 0.2194 0.1346 0.50906 0.0
O1028 O 0.30349 0.10897 0.48713 0.0
O1029 O 0.29401 0.1273 0.5243 0.0
O1030 O 0.41453 0.52139 0.78049 0.0
Cd1031 Cd 0.39021 0.52597 0.75086 0.0
Cd1032 Cd 0.36311 0.54368 0.78923 0.0
O1033 O 0.39598 0.54399 0.81027 0.0
O1034 O 0.41183 0.51763 0.72151 0.0
O1035 O 0.39893 0.5561 0.72947 0.0
C1036 C 0.41219 0.54109 0.71577 0.0
C1037 C 0.33871 0.57854 0.78913 0.0
C1038 C 0.41451 0.53161 0.8028 0.0
C1039 C 0.34299 0.49483 0.76266 0.0
O1040 O 0.34281 0.50901 0.78282 0.0
O1041 O 0.35902 0.49999 0.74537 0.0
O1042 O 0.33934 0.5646 0.80843 0.0
O1043 O 0.3532 0.5734 0.7701 0.0
O1044 O 0.74284 0.35865 0.50842 0.0
Cd1045 Cd 0.75526 0.38333 0.53801 0.0
Cd1046 Cd 0.72462 0.41438 0.51179 0.0
O1047 O 0.7145 0.38094 0.49088 0.0
O1048 O 0.77618 0.36135 0.5573 0.0
O1049 O 0.74266 0.37833 0.5738 0.0
C1050 C 0.76149 0.36449 0.57642 0.0
C1051 C 0.694 0.44256 0.52246 0.0
C1052 C 0.72599 0.36074 0.49166 0.0
C1053 C 0.78089 0.42917 0.51464 0.0
O1054 O 0.75965 0.43269 0.50468 0.0
O1055 O 0.78271 0.4114 0.52966 0.0
O1056 O 0.70119 0.43862 0.4994 0.0
O1057 O 0.70354 0.42956 0.53966 0.0
O1058 O 0.65658 0.04073 0.76911 0.0
Cd1059 Cd 0.63657 0.01176 0.78744 0.0
Cd1060 Cd 0.59694 0.02904 0.76149 0.0
O1061 O 0.62453 0.05453 0.74849 0.0
O1062 O 0.66387 0.99429 0.80334 0.0
O1063 O 0.6385 0.97565 0.7733 0.0
C1064 C 0.65729 0.97448 0.78879 0.0
C1065 C 0.56923 0.01003 0.73078 0.0
C1066 C 0.64803 0.05585 0.75388 0.0
C1067 C 0.5927 0.03076 0.81772 0.0
O1068 O 0.5829 0.03612 0.79695 0.0
O1069 O 0.61355 0.02027 0.81799 0.0
O1070 O 0.56829 0.03349 0.73861 0.0
O1071 O 0.58567 0.9968 0.74101 0.0
O1072 O 0.97489 0.29157 0.92697 0.0
Cd1073 Cd 0.98347 0.25809 0.90852 0.0
Cd1074 Cd 0.00088 0.28946 0.87398 0.0
O1075 O 0.99392 0.31794 0.90068 0.0
O1076 O 0.97888 0.23321 0.93526 0.0
O1077 O 0.0161 0.24314 0.91753 0.0
C1078 C 0.00295 0.23063 0.93412 0.0
C1079 C 0.03987 0.28877 0.85366 0.0
C1080 C 0.98157 0.31417 0.92097 0.0
C1081 C 0.95608 0.25349 0.85915 0.0
O1082 O 0.97041 0.27286 0.85337 0.0
O1083 O 0.95907 0.24334 0.88009 0.0
O1084 O 0.02392 0.3051 0.84853 0.0
O1085 O 0.03398 0.27326 0.8713 0.0
O1086 O 0.46768 0.78416 0.42068 0.0
Cd1087 Cd 0.48251 0.75458 0.39982 0.0
Cd1088 Cd 0.50185 0.79188 0.37491 0.0
O1089 O 0.49469 0.81424 0.40672 0.0
O1090 O 0.47687 0.72523 0.42161 0.0
O1091 O 0.51525 0.74197 0.41186 0.0
C1092 C 0.50121 0.72547 0.42403 0.0
C1093 C 0.54145 0.79291 0.3556 0.0
C1094 C 0.47716 0.80715 0.42192 0.0
C1095 C 0.46073 0.7586 0.34944 0.0
O1096 O 0.47151 0.78107 0.35122 0.0
O1097 O 0.46516 0.74276 0.36584 0.0
O1098 O 0.52685 0.81123 0.35386 0.0
O1099 O 0.5339 0.77429 0.36951 0.0
O1100 O 0.97785 0.78752 0.68382 0.0
Cd1101 Cd 0.00497 0.77298 0.66027 0.0
Cd1102 Cd 0.97925 0.80022 0.62456 0.0
O1103 O 0.95725 0.80777 0.65573 0.0
O1104 O 0.02633 0.75542 0.68364 0.0
O1105 O 0.04152 0.78801 0.66199 0.0
C1106 C 0.04542 0.77074 0.67769 0.0
C1107 C 0.98931 0.83295 0.59759 0.0
C1108 C 0.95995 0.80098 0.67821 0.0
C1109 C 0.98209 0.74423 0.6135 0.0
O1110 O 0.97449 0.76493 0.60641 0.0
O1111 O 0.99409 0.74359 0.63426 0.0
O1112 O 0.96646 0.8225 0.59922 0.0
O1113 O 0.00667 0.82515 0.61186 0.0
O1114 O 0.47689 0.28946 0.17893 0.0
Cd1115 Cd 0.50655 0.27838 0.15629 0.0
Cd1116 Cd 0.47809 0.30174 0.12015 0.0
O1117 O 0.45559 0.30887 0.15076 0.0
O1118 O 0.5284 0.2624 0.18052 0.0
O1119 O 0.54171 0.29673 0.16052 0.0
C1120 C 0.54634 0.27967 0.17618 0.0
C1121 C 0.48879 0.33451 0.09355 0.0
C1122 C 0.4581 0.30168 0.17309 0.0
C1123 C 0.48605 0.24698 0.10968 0.0
O1124 O 0.47465 0.26588 0.10314 0.0
O1125 O 0.49992 0.24866 0.12944 0.0
O1126 O 0.46597 0.32374 0.09418 0.0
O1127 O 0.50571 0.32685 0.10844 0.0
C1128 C 0.24056 0.8153 0.93602 0.0
C1129 C 0.21681 0.81035 0.92381 0.0
C1130 C 0.24389 0.83293 0.95663 0.0
C1131 C 0.22377 0.84677 0.96562 0.0
H1132 H 0.25699 0.80594 0.92925 0.0
H1133 H 0.2627 0.8363 0.96506 0.0
S1134 S 0.15733 0.8399 0.94171 0.0
N1135 N 0.17227 0.81956 0.92344 0.0
N1136 N 0.179 0.85377 0.96166 0.0
C1137 C 0.19983 0.84198 0.95389 0.0
C1138 C 0.19625 0.82354 0.9331 0.0
C1139 C 0.06106 0.52621 0.3885 0.0
C1140 C 0.04566 0.54674 0.38886 0.0
C1141 C 0.07592 0.52055 0.36726 0.0
C1142 C 0.07532 0.5349 0.34557 0.0
H1143 H 0.06174 0.51464 0.40482 0.0
H1144 H 0.08766 0.50464 0.3677 0.0
S1145 S 0.0377 0.59049 0.33738 0.0
N1146 N 0.03058 0.58145 0.36617 0.0
N1147 N 0.05805 0.57063 0.32595 0.0
C1148 C 0.05977 0.55538 0.34575 0.0
C1149 C 0.04505 0.56136 0.36751 0.0
C1150 C 0.78434 0.71872 0.9105 0.0
C1151 C 0.77617 0.74325 0.91544 0.0
C1152 C 0.7839 0.70105 0.92937 0.0
C1153 C 0.77497 0.70709 0.95386 0.0
H1154 H 0.79063 0.71288 0.89171 0.0
H1155 H 0.78992 0.68225 0.92446 0.0
S1156 S 0.75356 0.76943 0.97723 0.0
N1157 N 0.76068 0.77333 0.94716 0.0
N1158 N 0.7591 0.73977 0.98252 0.0
C1159 C 0.76719 0.73169 0.95925 0.0
C1160 C 0.76793 0.74984 0.94007 0.0
C1161 C 0.95031 -0.00098 0.34578 0.0
C1162 C 0.95624 0.01785 0.36513 0.0
C1163 C 0.93317 0.00301 0.32647 0.0
C1164 C 0.92101 0.02581 0.32607 0.0
H1165 H 0.95955 0.98136 0.34518 0.0
H1166 H 0.92952 0.98813 0.31166 0.0
S1167 S 0.92924 0.08049 0.37336 0.0
N1168 N 0.94827 0.0597 0.3834 0.0
N1169 N 0.91554 0.06713 0.34727 0.0
C1170 C 0.92621 0.04448 0.34581 0.0
C1171 C 0.94401 0.04054 0.36527 0.0
C1172 C 0.22393 0.22032 0.61582 0.0
C1173 C 0.24569 0.22446 0.63131 0.0
C1174 C 0.22447 0.2062 0.59269 0.0
C1175 C 0.24674 0.19544 0.58421 0.0
H1176 H 0.20656 0.22887 0.62116 0.0
H1177 H 0.20735 0.2041 0.58117 0.0
S1178 S 0.3083 0.19907 0.61889 0.0
N1179 N 0.2897 0.21558 0.63746 0.0
N1180 N 0.29078 0.18876 0.59392 0.0
C1181 C 0.26839 0.19857 0.60002 0.0
C1182 C 0.26787 0.21321 0.62355 0.0
C1183 C 0.46066 0.58406 0.68183 0.0
C1184 C 0.47094 0.56677 0.66428 0.0
C1185 C 0.44027 0.57609 0.69746 0.0
C1186 C 0.42964 0.55063 0.6959 0.0
H1187 H 0.46916 0.60347 0.68429 0.0
H1188 H 0.43379 0.58956 0.71174 0.0
S1189 S 0.44696 0.49947 0.64966 0.0
N1190 N 0.46696 0.52425 0.64382 0.0
N1191 N 0.42881 0.5092 0.67311 0.0
C1192 C 0.43865 0.53377 0.6771 0.0
C1193 C 0.45929 0.54186 0.66131 0.0
C1194 C 0.74944 0.33205 0.63831 0.0
C1195 C 0.77335 0.3235 0.6437 0.0
C1196 C 0.74588 0.34625 0.61701 0.0
C1197 C 0.76601 0.3519 0.60018 0.0
H1198 H 0.73334 0.32747 0.65048 0.0
H1199 H 0.72706 0.35206 0.61326 0.0
S1200 S 0.83247 0.33432 0.60634 0.0
N1201 N 0.81751 0.32209 0.63089 0.0
N1202 N 0.81094 0.34869 0.59099 0.0
C1203 C 0.79013 0.34389 0.60574 0.0
C1204 C 0.79377 0.32971 0.62747 0.0
C1205 C 0.52537 0.9633 0.69073 0.0
C1206 C 0.5167 0.97889 0.67227 0.0
C1207 C 0.54294 0.97327 0.70941 0.0
C1208 C 0.55212 -0.00087 0.71025 0.0
H1209 H 0.51815 0.94346 0.69102 0.0
H1210 H 0.54881 0.96087 0.72365 0.0
S1211 S 0.53813 0.04684 0.66407 0.0
N1212 N 0.52084 0.02061 0.65432 0.0
N1213 N 0.55314 0.03946 0.68975 0.0
C1214 C 0.54428 0.01461 0.69136 0.0
C1215 C 0.52675 0.00445 0.67227 0.0
C1216 C 0.91516 0.2432 0.8001 0.0
C1217 C 0.89253 0.23079 0.80903 0.0
C1218 C 0.93592 0.24975 0.8163 0.0
C1219 C 0.93489 0.24396 0.842 0.0
H1220 H 0.91675 0.24813 0.78047 0.0
H1221 H 0.95279 0.25971 0.80868 0.0
S1222 S 0.8799 0.21174 0.87478 0.0
N1223 N 0.87016 0.21315 0.84523 0.0
N1224 N 0.90945 0.22489 0.8756 0.0
C1225 C 0.91261 0.23095 0.85104 0.0
C1226 C 0.89136 0.22451 0.83457 0.0
C1227 C 0.47457 0.86548 0.46671 0.0
C1228 C 0.44965 0.86274 0.47619 0.0
C1229 C 0.48327 0.84744 0.44906 0.0
C1230 C 0.4675 0.82578 0.44069 0.0
H1231 H 0.48734 0.88183 0.47281 0.0
H1232 H 0.50259 0.85037 0.44214 0.0
S1233 S 0.40061 0.8099 0.46021 0.0
N1234 N 0.40927 0.83705 0.47615 0.0
N1235 N 0.42563 0.80273 0.44328 0.0
C1236 C 0.44254 0.82277 0.45025 0.0
C1237 C 0.43359 0.84139 0.46791 0.0
C1238 C 0.09161 0.30572 0.80631 0.0
C1239 C 0.1077 0.28585 0.80758 0.0
C1240 C 0.07001 0.30655 0.82155 0.0
C1241 C 0.06364 0.28761 0.83882 0.0
H1242 H 0.09565 0.32069 0.79324 0.0
H1243 H 0.05819 0.32222 0.81964 0.0
S1244 S 0.10015 0.23181 0.84985 0.0
N1245 N 0.11633 0.24703 0.82767 0.0
N1246 N 0.07554 0.24845 0.85649 0.0
C1247 C 0.07972 0.26767 0.84044 0.0
C1248 C 0.10174 0.26678 0.82472 0.0
C1249 C 0.54669 0.7013 0.47128 0.0
C1250 C 0.53134 0.68189 0.48238 0.0
C1251 C 0.5373 0.71458 0.45137 0.0
C1252 C 0.51232 0.70874 0.442 0.0
H1253 H 0.56559 0.70692 0.47871 0.0
H1254 H 0.54928 0.73021 0.44406 0.0
S1255 S 0.4663 0.65666 0.46251 0.0
N1256 N 0.49133 0.65555 0.48108 0.0
N1257 N 0.47364 0.68017 0.44367 0.0
C1258 C 0.4975 0.68822 0.45204 0.0
C1259 C 0.50703 0.67487 0.47225 0.0
C1260 C 0.89628 0.81246 0.70791 0.0
C1261 C 0.90163 0.81332 0.73405 0.0
C1262 C 0.91552 0.80952 0.68998 0.0
C1263 C 0.94076 0.80703 0.69751 0.0
H1264 H 0.87692 0.81303 0.70122 0.0
H1265 H 0.91033 0.8081 0.67007 0.0
S1266 S 0.9654 0.81175 0.76349 0.0
N1267 N 0.93454 0.81449 0.7665 0.0
N1268 N 0.97057 0.80807 0.73273 0.0
C1269 C 0.9466 0.809 0.72352 0.0
C1270 C 0.92707 0.81236 0.7418 0.0
C1271 C 0.02484 0.87075 0.54777 0.0
C1272 C 0.00619 0.88579 0.53887 0.0
C1273 C 0.01956 0.85433 0.56749 0.0
C1274 C 0.99539 0.85223 0.57879 0.0
H1275 H 0.0435 0.87131 0.53912 0.0
H1276 H 0.03425 0.84262 0.57334 0.0
S1277 S 0.94096 0.88958 0.56447 0.0
N1278 N 0.96341 0.89926 0.54455 0.0
N1279 N 0.95326 0.86783 0.58102 0.0
C1280 C 0.97683 0.86766 0.57057 0.0
C1281 C 0.98227 0.88456 0.55074 0.0
C1282 C 0.11106 0.78951 0.70565 0.0
C1283 C 0.11717 0.76698 0.71657 0.0
C1284 C 0.08831 0.79034 0.692 0.0
C1285 C 0.0707 0.76879 0.68928 0.0
H1286 H 0.12365 0.80678 0.70825 0.0
H1287 H 0.084 0.80826 0.68451 0.0
S1288 S 0.07851 0.7048 0.7131 0.0
N1289 N 0.10441 0.72237 0.72278 0.0
N1290 N 0.06173 0.72385 0.69726 0.0
C1291 C 0.07709 0.74591 0.69932 0.0
C1292 C 0.10032 0.74502 0.71292 0.0
C1293 C 0.97065 0.67409 0.59377 0.0
C1294 C 0.96711 0.67443 0.56745 0.0
C1295 C 0.97572 0.69679 0.60851 0.0
C1296 C 0.97695 0.72059 0.59745 0.0
H1297 H 0.96974 0.65612 0.60295 0.0
H1298 H 0.97839 0.69569 0.62875 0.0
S1299 S 0.96879 0.73143 0.52914 0.0
N1300 N 0.96511 0.70013 0.5308 0.0
N1301 N 0.97434 0.743 0.55847 0.0
C1302 C 0.97328 0.72111 0.57109 0.0
C1303 C 0.96847 0.69795 0.55608 0.0
C1304 C 0.81342 0.92944 0.23695 0.0
C1305 C 0.78724 0.93058 0.24164 0.0
C1306 C 0.8302 0.95147 0.23873 0.0
C1307 C 0.82147 0.97535 0.24564 0.0
H1308 H 0.82122 0.91129 0.23285 0.0
H1309 H 0.85033 0.94956 0.23586 0.0
S1310 S 0.75439 0.98924 0.25632 0.0
N1311 N 0.75301 0.95806 0.25044 0.0
N1312 N 0.78483 -0.00065 0.25484 0.0
C1313 C 0.79526 0.97698 0.2493 0.0
C1314 C 0.77808 0.95462 0.24705 0.0
C1315 C 0.78369 0.12622 0.29663 0.0
C1316 C 0.78609 0.14466 0.27832 0.0
C1317 C 0.8 0.10665 0.29689 0.0
C1318 C 0.81946 0.10459 0.27882 0.0
H1319 H 0.76896 0.12687 0.31091 0.0
H1320 H 0.79714 0.09295 0.31143 0.0
S1321 S 0.83402 0.14842 0.22698 0.0
N1322 N 0.80956 0.16002 0.24181 0.0
N1323 N 0.84024 0.12291 0.24203 0.0
C1324 C 0.82206 0.12287 0.26026 0.0
C1325 C 0.80534 0.14293 0.26004 0.0
C1326 C 0.35745 0.95144 0.00259 0.0
C1327 C 0.35693 0.97627 0.99432 0.0
C1328 C 0.33488 0.93705 0.00842 0.0
C1329 C 0.31102 0.9469 0.00581 0.0
H1330 H 0.37545 0.9433 0.00507 0.0
H1331 H 0.33616 0.91801 0.01488 0.0
S1332 S 0.29972 0.01091 0.98404 0.0
N1333 N 0.33096 0.01008 0.98332 0.0
N1334 N 0.2884 0.98304 0.99402 0.0
C1335 C 0.31032 0.97164 0.99715 0.0
C1336 C 0.33333 0.98634 0.99149 0.0
C1337 C 0.19328 0.4191 0.27459 0.0
C1338 C 0.20776 0.41401 0.29582 0.0
C1339 C 0.17729 0.43917 0.27556 0.0
C1340 C 0.17563 0.45509 0.29766 0.0
H1341 H 0.19443 0.40756 0.2571 0.0
H1342 H 0.16673 0.44264 0.25867 0.0
S1343 S 0.20955 0.44935 0.35848 0.0
N1344 N 0.21925 0.42617 0.33959 0.0
N1345 N 0.18936 0.46383 0.3415 0.0
C1346 C 0.18979 0.4499 0.31911 0.0
C1347 C 0.20582 0.42937 0.31817 0.0
C1348 C 0.18211 0.05287 0.47775 0.0
C1349 C 0.15708 0.05976 0.48063 0.0
C1350 C 0.20287 0.07096 0.48194 0.0
C1351 C 0.19924 0.09642 0.48958 0.0
H1352 H 0.18565 0.03341 0.47209 0.0
H1353 H 0.22188 0.06482 0.47957 0.0
S1354 S 0.13712 0.12376 0.49988 0.0
N1355 N 0.12957 0.09344 0.4915 0.0
N1356 N 0.16853 0.12753 0.49962 0.0
C1357 C 0.17419 0.10346 0.49254 0.0
C1358 C 0.15311 0.0851 0.48797 0.0
C1359 C 0.67254 0.11942 0.72945 0.0
C1360 C 0.69853 0.11647 0.72545 0.0
C1361 C 0.65617 0.09939 0.73792 0.0
C1362 C 0.66529 0.07584 0.74303 0.0
H1363 H 0.66499 0.13767 0.72711 0.0
H1364 H 0.63644 0.10275 0.74147 0.0
S1365 S 0.73082 0.05712 0.73199 0.0
N1366 N 0.73192 0.08715 0.72421 0.0
N1367 N 0.70126 0.04977 0.74109 0.0
C1368 C 0.69093 0.07221 0.73801 0.0
C1369 C 0.70751 0.09246 0.72895 0.0
C1370 C 0.35678 0.06462 0.51933 0.0
C1371 C 0.35344 0.05776 0.54457 0.0
C1372 C 0.34236 0.08277 0.5091 0.0
C1373 C 0.32418 0.09497 0.52373 0.0
H1374 H 0.37056 0.05577 0.5073 0.0
H1375 H 0.34527 0.08697 0.4894 0.0
S1376 S 0.30814 0.08393 0.5909 0.0
N1377 N 0.33053 0.06456 0.584 0.0
N1378 N 0.30384 0.09918 0.56492 0.0
C1379 C 0.32113 0.08886 0.54922 0.0
C1380 C 0.33565 0.07013 0.5596 0.0
C1381 C 0.66313 0.49542 0.55952 0.0
C1382 C 0.6491 0.50616 0.54074 0.0
C1383 C 0.67683 0.47412 0.55373 0.0
C1384 C 0.67696 0.46287 0.52897 0.0
H1385 H 0.66404 0.50391 0.57866 0.0
H1386 H 0.68805 0.46699 0.56858 0.0
S1387 S 0.64044 0.48179 0.47387 0.0
N1388 N 0.63408 0.50247 0.4971 0.0
N1389 N 0.66 0.46275 0.48609 0.0
C1390 C 0.66213 0.47284 0.5103 0.0
C1391 C 0.64818 0.49442 0.51621 0.0
C1392 C 0.69552 0.31871 0.43754 0.0
C1393 C 0.71617 0.30596 0.4278 0.0
C1394 C 0.69857 0.33604 0.45865 0.0
C1395 C 0.72225 0.34085 0.47096 0.0
H1396 H 0.67692 0.31545 0.42867 0.0
H1397 H 0.68234 0.34583 0.46527 0.0
S1398 S 0.78267 0.31373 0.45206 0.0
N1399 N 0.76145 0.3006 0.43133 0.0
N1400 N 0.76685 0.33215 0.47151 0.0
C1401 C 0.74295 0.32802 0.46162 0.0
C1402 C 0.73999 0.31083 0.43991 0.0
C1403 C 0.56873 0.02657 0.8852 0.0
C1404 C 0.55378 0.0474 0.88783 0.0
C1405 C 0.58178 0.02157 0.86257 0.0
C1406 C 0.5797 0.03689 0.84174 0.0
H1407 H 0.57033 0.01414 0.90072 0.0
H1408 H 0.59309 0.00529 0.86119 0.0
S1409 S 0.54278 0.09377 0.83951 0.0
N1410 N 0.53775 0.08356 0.86825 0.0
N1411 N 0.56177 0.07398 0.8255 0.0
C1412 C 0.56475 0.05779 0.84429 0.0
C1413 C 0.5519 0.0631 0.86742 0.0
C1414 C 0.2737 0.24611 0.43873 0.0
C1415 C 0.28051 0.23926 0.41371 0.0
C1416 C 0.27231 0.22822 0.45747 0.0
C1417 C 0.27787 0.20284 0.45196 0.0
H1418 H 0.26928 0.26543 0.44386 0.0
H1419 H 0.26658 0.23429 0.47639 0.0
S1420 S 0.29605 0.17507 0.38916 0.0
N1421 N 0.2923 0.20521 0.38422 0.0
N1422 N 0.29035 0.17175 0.41958 0.0
C1423 C 0.28518 0.19585 0.42711 0.0
C1424 C 0.28633 0.21401 0.40796 0.0
C1425 C 0.45077 0.52442 0.86368 0.0
C1426 C 0.47459 0.51764 0.85488 0.0
C1427 C 0.43168 0.52968 0.84672 0.0
C1428 C 0.43561 0.52792 0.82036 0.0
H1429 H 0.44689 0.52566 0.88383 0.0
H1430 H 0.41351 0.53452 0.85434 0.0
S1431 S 0.49499 0.51125 0.78787 0.0
N1432 N 0.50134 0.50981 0.81834 0.0
N1433 N 0.4655 0.5195 0.78634 0.0
C1434 C 0.45953 0.52142 0.81137 0.0
C1435 C 0.47902 0.51634 0.82867 0.0
C1436 C 0.72107 0.71653 0.11582 0.0
C1437 C 0.74268 0.72251 0.13122 0.0
C1438 C 0.72254 0.70194 0.09303 0.0
C1439 C 0.74563 0.69263 0.08484 0.0
H1440 H 0.70317 0.72418 0.12082 0.0
H1441 H 0.70553 0.69858 0.08142 0.0
S1442 S 0.80701 0.70064 0.12 0.0
N1443 N 0.78729 0.71636 0.138 0.0
N1444 N 0.79014 0.68877 0.09513 0.0
C1445 C 0.76707 0.69731 0.1008 0.0
C1446 C 0.76558 0.71234 0.12397 0.0
C1447 C 0.96974 0.08338 0.18828 0.0
C1448 C 0.98216 0.06638 0.1721 0.0
C1449 C 0.94858 0.07476 0.20258 0.0
C1450 C 0.93922 0.0489 0.20108 0.0
H1451 H 0.97687 0.10326 0.19045 0.0
H1452 H 0.94013 0.08824 0.21556 0.0
S1453 S 0.96274 0.99774 0.15844 0.0
N1454 N 0.98189 0.0233 0.15318 0.0
N1455 N 0.94242 0.00703 0.18011 0.0
C1456 C 0.95074 0.03207 0.18396 0.0
C1457 C 0.97215 0.04083 0.16945 0.0
C1458 C 0.25995 0.84562 0.13856 0.0
C1459 C 0.26498 0.81982 0.13603 0.0
C1460 C 0.25743 0.85985 0.11707 0.0
C1461 C 0.26063 0.8488 0.09258 0.0
H1462 H 0.25824 0.85486 0.15723 0.0
H1463 H 0.2539 0.87979 0.11965 0.0
S1464 S 0.27329 0.78168 0.07612 0.0
N1465 N 0.27219 0.78359 0.1074 0.0
N1466 N 0.26815 0.81035 0.06708 0.0
C1467 C 0.26528 0.8229 0.08992 0.0
C1468 C 0.26729 0.80839 0.11167 0.0
C1469 C 0.01308 0.48838 0.1983 0.0
C1470 C 0.02174 0.47489 0.17672 0.0
C1471 C 0.02967 0.49693 0.21815 0.0
C1472 C 0.05538 0.49178 0.21749 0.0
H1473 H 0.99347 0.49307 0.19953 0.0
H1474 H 0.02244 0.50815 0.23393 0.0
S1475 S 0.08758 0.45634 0.16616 0.0
N1476 N 0.05787 0.4564 0.15623 0.0
N1477 N 0.08869 0.47151 0.19436 0.0
C1478 C 0.06408 0.47713 0.19684 0.0
C1479 C 0.04732 0.46887 0.17625 0.0
C1480 C 0.40477 0.76404 0.30614 0.0
C1481 C 0.3995 0.73894 0.29592 0.0
C1482 C 0.42533 0.7704 0.32262 0.0
C1483 C 0.44111 0.7518 0.32987 0.0
H1484 H 0.39237 0.77877 0.30218 0.0
H1485 H 0.42818 0.78981 0.33059 0.0
S1486 S 0.43762 0.68413 0.30617 0.0
N1487 N 0.41358 0.69602 0.29213 0.0
N1488 N 0.45158 0.70783 0.32418 0.0
C1489 C 0.4367 0.72686 0.3192 0.0
C1490 C 0.41605 0.72046 0.30197 0.0
C1491 C 0.95661 0.35104 0.97798 0.0
C1492 C 0.95949 0.37644 0.9709 0.0
C1493 C 0.96383 0.33117 0.96167 0.0
C1494 C 0.97443 0.33589 0.93772 0.0
H1495 H 0.94865 0.34653 0.99624 0.0
H1496 H 0.96116 0.31188 0.96807 0.0
S1497 S 0.98637 0.39942 0.91061 0.0
N1498 N 0.97389 0.40553 0.93872 0.0
N1499 N 0.98748 0.36816 0.90786 0.0
C1500 C 0.97744 0.36132 0.93044 0.0
C1501 C 0.96991 0.38156 0.94707 0.0
C1502 C 0.6019 0.77006 0.32595 0.0
C1503 C 0.60999 0.78997 0.31041 0.0
C1504 C 0.58004 0.7714 0.341 0.0
C1505 C 0.56542 0.79263 0.34088 0.0
H1506 H 0.61266 0.75344 0.32663 0.0
H1507 H 0.57445 0.75554 0.35259 0.0
S1508 S 0.57826 0.84936 0.30241 0.0
N1509 N 0.60142 0.8311 0.29505 0.0
N1510 N 0.56068 0.83391 0.32341 0.0
C1511 C 0.5734 0.81265 0.32529 0.0
C1512 C 0.59557 0.81123 0.31002 0.0
C1513 C 0.00874 0.18609 0.98718 0.0
C1514 C 0.03495 0.18817 0.99257 0.0
C1515 C -0.00114 0.19915 0.9676 0.0
C1516 C 0.01478 0.21484 0.95249 0.0
H1517 H 0.99563 0.17442 0.99839 0.0
H1518 H 0.97844 0.19723 0.96464 0.0
S1519 S 0.08511 0.22576 0.95809 0.0
N1520 N 0.07691 0.2063 0.98077 0.0
N1521 N 0.05836 0.23089 0.94361 0.0
C1522 C 0.04122 0.21638 0.95703 0.0
C1523 C 0.0513 0.20302 0.97713 0.0
C1524 C 0.42534 0.31005 0.2365 0.0
C1525 C 0.39978 0.31187 0.22958 0.0
C1526 C 0.44419 0.30722 0.21812 0.0
C1527 C 0.43824 0.30641 0.19213 0.0
H1528 H 0.43078 0.31055 0.25631 0.0
H1529 H 0.46353 0.30551 0.22434 0.0
S1530 S 0.37411 0.30979 0.16401 0.0
N1531 N 0.36944 0.31205 0.19491 0.0
N1532 N 0.40496 0.30755 0.16036 0.0
C1533 C 0.41286 0.30874 0.18493 0.0
C1534 C 0.39361 0.3113 0.20365 0.0
C1535 C 0.52598 0.37347 0.04577 0.0
C1536 C 0.50777 0.38895 0.03673 0.0
C1537 C 0.51996 0.35649 0.06482 0.0
C1538 C 0.49542 0.35415 0.07526 0.0
H1539 H 0.54492 0.3741 0.03772 0.0
H1540 H 0.53438 0.34456 0.07083 0.0
S1541 S 0.44168 0.39213 0.0602 0.0
N1542 N 0.46487 0.40239 0.04134 0.0
N1543 N 0.45329 0.36979 0.0765 0.0
C1544 C 0.47721 0.36988 0.06685 0.0
C1545 C 0.48343 0.38742 0.04773 0.0
C1546 C 0.60043 0.25575 0.21281 0.0
C1547 C 0.61659 0.27792 0.21826 0.0
C1548 C 0.57812 0.25654 0.19866 0.0
C1549 C 0.57123 0.27946 0.18911 0.0
H1550 H 0.60451 0.23783 0.22046 0.0
H1551 H 0.56595 0.23904 0.19555 0.0
S1552 S 0.6082 0.34247 0.19648 0.0
N1553 N 0.62505 0.32319 0.212 0.0
N1554 N 0.58314 0.32465 0.18495 0.0
C1555 C 0.5878 0.30159 0.19346 0.0
C1556 C 0.61043 0.30084 0.20822 0.0
C1557 C 0.45681 0.19437 0.06458 0.0
C1558 C 0.47448 0.17586 0.06498 0.0
C1559 C 0.46092 0.21746 0.07886 0.0
C1560 C 0.48265 0.22265 0.09437 0.0
H1561 H 0.43976 0.191 0.05301 0.0
H1562 H 0.44675 0.23117 0.07802 0.0
S1563 S 0.53461 0.18009 0.10185 0.0
N1564 N 0.51445 0.16399 0.08179 0.0
N1565 N 0.5222 0.20734 0.10899 0.0
C1566 C 0.50048 0.2042 0.0949 0.0
C1567 C 0.49641 0.18082 0.08007 0.0
C1568 C 0.30109 0.43937 0.73243 0.0
C1569 C 0.29066 0.42719 0.75357 0.0
C1570 C 0.31808 0.46126 0.73548 0.0
C1571 C 0.32504 0.4718 0.75977 0.0
H1572 H 0.29582 0.43215 0.71341 0.0
H1573 H 0.32553 0.47016 0.71869 0.0
S1574 S 0.30496 0.44556 0.82118 0.0
N1575 N 0.29005 0.42606 0.79953 0.0
N1576 N 0.32138 0.46748 0.8053 0.0
C1577 C 0.31505 0.45952 0.78104 0.0
C1578 C 0.29802 0.43715 0.77793 0.0
C1579 C 0.30563 0.63545 0.76783 0.0
C1580 C 0.28675 0.63819 0.78635 0.0
C1581 C 0.3225 0.61622 0.7689 0.0
C1582 C 0.32106 0.59906 0.78854 0.0
H1583 H 0.3077 0.64857 0.7527 0.0
H1584 H 0.33686 0.61494 0.75433 0.0
S1585 S 0.27335 0.59701 0.8404 0.0
N1586 N 0.26642 0.62124 0.82386 0.0
N1587 N 0.29812 0.58543 0.8262 0.0
C1588 C 0.30184 0.60138 0.80688 0.0
C1589 C 0.28469 0.62083 0.80569 0.0
C1590 C 0.85027 0.45035 0.50399 0.0
C1591 C 0.84924 0.47524 0.49605 0.0
C1592 C 0.82801 0.43566 0.51014 0.0
C1593 C 0.80397 0.44525 0.50814 0.0
H1594 H 0.86845 0.44241 0.50598 0.0
H1595 H 0.82968 0.41659 0.51635 0.0
S1596 S 0.79133 0.50929 0.48749 0.0
N1597 N 0.8226 0.50887 0.4861 0.0
N1598 N 0.78056 0.48116 0.49729 0.0
C1599 C 0.80273 0.47003 0.49978 0.0
C1600 C 0.82544 0.48507 0.49385 0.0
C1601 C 0.68908 0.91509 0.76697 0.0
C1602 C 0.70358 0.91041 0.78832 0.0
C1603 C 0.67321 0.93525 0.76754 0.0
C1604 C 0.67177 0.95165 0.78932 0.0
H1605 H 0.69018 0.9032 0.74969 0.0
H1606 H 0.66271 0.93853 0.75056 0.0
S1607 S 0.70566 0.947 0.85032 0.0
N1608 N 0.71517 0.92336 0.8319 0.0
N1609 N 0.68555 0.96124 0.83301 0.0
C1610 C 0.68587 0.94682 0.81091 0.0
C1611 C 0.70174 0.9262 0.81039 0.0
C1612 C 0.67261 0.56559 0.00133 0.0
C1613 C 0.67109 0.55131 0.97809 0.0
C1614 C 0.69216 0.58482 0.0061 0.0
C1615 C 0.71109 0.5902 0.98794 0.0
H1616 H 0.65823 0.56225 0.01571 0.0
H1617 H 0.69241 0.59555 0.02419 0.0
S1618 S 0.71584 0.55754 0.9243 0.0
N1619 N 0.69008 0.54334 0.93687 0.0
N1620 N 0.72727 0.57934 0.94589 0.0
C1621 C 0.71004 0.57567 0.96476 0.0
C1622 C 0.68988 0.55629 0.9598 0.0
C1623 C 0.19575 0.61604 0.26562 0.0
C1624 C 0.19615 0.62298 0.24023 0.0
C1625 C 0.1807 0.59467 0.27312 0.0
C1626 C 0.16509 0.57965 0.25563 0.0
H1627 H 0.20696 0.62738 0.27996 0.0
H1628 H 0.18091 0.5902 0.29291 0.0
S1629 S 0.1601 0.58864 0.18669 0.0
N1630 N 0.18055 0.61224 0.19732 0.0
N1631 N 0.1514 0.57254 0.2117 0.0
C1632 C 0.16523 0.58627 0.23019 0.0
C1633 C 0.18092 0.60784 0.22243 0.0
C1634 C 0.87442 0.58342 0.0179 0.0
C1635 C 0.87237 0.57564 0.04293 0.0
C1636 C 0.85715 0.59919 0.00812 0.0
C1637 C 0.83723 0.60797 0.02303 0.0
H1638 H 0.88911 0.57669 0.00552 0.0
H1639 H 0.85904 0.60392 0.98846 0.0
S1640 S 0.82439 0.59433 0.09026 0.0
N1641 N 0.84948 0.5787 0.0828 0.0
N1642 N 0.81726 0.60887 0.06457 0.0
C1643 C 0.83574 0.60147 0.04852 0.0
C1644 C 0.85326 0.58518 0.05844 0.0
C1645 C 0.17158 0.00057 0.05999 0.0
C1646 C 0.15696 0.01171 0.04193 0.0
C1647 C 0.18518 0.97943 0.05329 0.0
C1648 C 0.18467 0.96876 0.02828 0.0
H1649 H 0.17296 0.0086 0.0793 0.0
H1650 H 0.19677 0.97192 0.06761 0.0
S1651 S 0.14664 0.98885 0.9748 0.0
N1652 N 0.1408 0.00897 -0.00131 0.0
N1653 N 0.16664 0.96961 0.98596 0.0
C1654 C 0.16938 0.97917 0.01031 0.0
C1655 C 0.15548 0.00055 0.01716 0.0
loop_
_geom_bond_atom_site_label_1
_geom_bond_atom_site_label_2
_geom_bond_distance
_geom_bond_site_symmetry_2
_ccdc_geom_bond_type
C0 C1 1.391 . S
C0 C4 1.391 . S
C0 H42 0.948 . S
C1 C0 1.391 . S
C1 C2 1.391 . S
C2 C1 1.391 . S
C2 H58 0.947 . S
C2 C59 1.392 . S
C3 C4 1.391 . S
C3 C7 1.397 . S
C3 C59 1.419 . S
C4 C0 1.391 . S
C4 C3 1.391 . S
C4 C5 1.399 . S
C5 C4 1.399 . S
C5 C8 1.396 . S
C5 C17 1.453 . S
C5 C18 1.684 . S
H6 C30 0.948 . S
C7 C3 1.397 . S
C7 C8 1.394 . S
C7 C26 1.723 . S
C8 C5 1.396 . S
C8 C7 1.394 . S
C8 C38 1.723 . S
H9 C32 0.947 . S
H10 C33 0.948 . S
H11 C39 0.982 . S
H12 C40 0.979 . S
H13 C40 0.980 . S
H14 C40 0.983 . S
H15 C39 0.979 . S
H16 C39 0.977 . S
C17 C5 1.453 . S
C17 H46 0.982 . S
C17 H47 0.979 . S
C17 H48 0.977 . S
C18 C5 1.684 . S
C18 H43 0.979 . S
C18 H44 0.980 . S
C18 H45 0.983 . S
C19 C20 1.391 . S
C19 C24 1.391 . S
C19 H49 0.948 . S
C20 C19 1.391 . S
C20 C21 1.391 . S
C21 C20 1.391 . S
C21 C22 1.392 . S
C21 H50 0.947 . S
C22 C21 1.392 . S
C22 C23 1.419 . S
C22 H51 0.948 . S
C23 C22 1.419 . S
C23 C24 1.391 . S
C23 C27 1.397 . S
C24 C19 1.391 . S
C24 C23 1.391 . S
C24 C25 1.399 . S
C25 C24 1.399 . S
C25 C26 1.396 . S
C25 C28 1.453 . S
C25 C29 1.684 . S
C26 C7 1.723 . S
C26 C25 1.396 . S
C26 C27 1.394 . S
C27 C23 1.397 . S
C27 C26 1.394 . S
C27 C37 1.723 . S
C28 C25 1.453 . S
C28 H52 0.982 . S
C28 H53 0.979 . S
C28 H54 0.977 . S
C29 C25 1.684 . S
C29 H55 0.979 . S
C29 H56 0.980 . S
C29 H57 0.983 . S
C30 H6 0.948 . S
C30 C31 1.391 . S
C30 C35 1.391 . S
C31 C30 1.391 . S
C31 C32 1.391 . S
C32 H9 0.947 . S
C32 C31 1.391 . S
C32 C33 1.392 . S
C33 H10 0.948 . S
C33 C32 1.392 . S
C33 C34 1.419 . S
C34 C33 1.419 . S
C34 C35 1.391 . S
C34 C38 1.397 . S
C35 C30 1.391 . S
C35 C34 1.391 . S
C35 C36 1.399 . S
C36 C35 1.399 . S
C36 C37 1.396 . S
C36 C39 1.453 . S
C36 C40 1.684 . S
C37 C27 1.723 . S
C37 C36 1.396 . S
C37 C38 1.394 . S
C38 C8 1.723 . S
C38 C34 1.397 . S
C38 C37 1.394 . S
C39 H11 0.982 . S
C39 H15 0.979 . S
C39 H16 0.977 . S
C39 C36 1.453 . S
C40 H12 0.979 . S
C40 H13 0.980 . S
C40 H14 0.983 . S
C40 C36 1.684 . S
H41 C59 0.948 . S
H42 C0 0.948 . S
H43 C18 0.979 . S
H44 C18 0.980 . S
H45 C18 0.983 . S
H46 C17 0.982 . S
H47 C17 0.979 . S
H48 C17 0.977 . S
H49 C19 0.948 . S
H50 C21 0.947 . S
H51 C22 0.948 . S
H52 C28 0.982 . S
H53 C28 0.979 . S
H54 C28 0.977 . S
H55 C29 0.979 . S
H56 C29 0.980 . S
H57 C29 0.983 . S
H58 C2 0.947 . S
C59 C2 1.392 . S
C59 C3 1.419 . S
C59 H41 0.948 . S
C60 C61 1.391 . S
C60 C64 1.391 . S
C60 H102 0.948 . S
C61 C60 1.391 . S
C61 C62 1.391 . S
C62 C61 1.391 . S
C62 H118 0.947 . S
C62 C119 1.392 . S
C63 C64 1.391 . S
C63 C67 1.397 . S
C63 C119 1.419 . S
C64 C60 1.391 . S
C64 C63 1.391 . S
C64 C65 1.399 . S
C65 C64 1.399 . S
C65 C68 1.396 . S
C65 C77 1.453 . S
C65 C78 1.684 . S
H66 C90 0.948 . S
C67 C63 1.397 . S
C67 C68 1.394 . S
C67 C86 1.723 . S
C68 C65 1.396 . S
C68 C67 1.394 . S
C68 C98 1.723 . S
H69 C92 0.947 . S
H70 C93 0.948 . S
H71 C99 0.982 . S
H72 C100 0.979 . S
H73 C100 0.980 . S
H74 C100 0.983 . S
H75 C99 0.979 . S
H76 C99 0.977 . S
C77 C65 1.453 . S
C77 H106 0.982 . S
C77 H107 0.979 . S
C77 H108 0.977 . S
C78 C65 1.684 . S
C78 H103 0.979 . S
C78 H104 0.980 . S
C78 H105 0.983 . S
C79 C80 1.391 . S
C79 C84 1.391 . S
C79 H109 0.948 . S
C80 C79 1.391 . S
C80 C81 1.391 . S
C81 C80 1.391 . S
C81 C82 1.392 . S
C81 H110 0.947 . S
C82 C81 1.392 . S
C82 C83 1.419 . S
C82 H111 0.948 . S
C83 C82 1.419 . S
C83 C84 1.391 . S
C83 C87 1.397 . S
C84 C79 1.391 . S
C84 C83 1.391 . S
C84 C85 1.399 . S
C85 C84 1.399 . S
C85 C86 1.396 . S
C85 C88 1.453 . S
C85 C89 1.684 . S
C86 C67 1.723 . S
C86 C85 1.396 . S
C86 C87 1.394 . S
C87 C83 1.397 . S
C87 C86 1.394 . S
C87 C97 1.723 . S
C88 C85 1.453 . S
C88 H112 0.982 . S
C88 H113 0.979 . S
C88 H114 0.977 . S
C89 C85 1.684 . S
C89 H115 0.979 . S
C89 H116 0.980 . S
C89 H117 0.983 . S
C90 H66 0.948 . S
C90 C91 1.391 . S
C90 C95 1.391 . S
C91 C90 1.391 . S
C91 C92 1.391 . S
C92 H69 0.947 . S
C92 C91 1.391 . S
C92 C93 1.392 . S
C93 H70 0.948 . S
C93 C92 1.392 . S
C93 C94 1.419 . S
C94 C93 1.419 . S
C94 C95 1.391 . S
C94 C98 1.397 . S
C95 C90 1.391 . S
C95 C94 1.391 . S
C95 C96 1.399 . S
C96 C95 1.399 . S
C96 C97 1.396 . S
C96 C99 1.453 . S
C96 C100 1.684 . S
C97 C87 1.723 . S
C97 C96 1.396 . S
C97 C98 1.394 . S
C98 C68 1.723 . S
C98 C94 1.397 . S
C98 C97 1.394 . S
C99 H71 0.982 . S
C99 H75 0.979 . S
C99 H76 0.977 . S
C99 C96 1.453 . S
C100 H72 0.979 . S
C100 H73 0.980 . S
C100 H74 0.983 . S
C100 C96 1.684 . S
H101 C119 0.948 . S
H102 C60 0.948 . S
H103 C78 0.979 . S
H104 C78 0.980 . S
H105 C78 0.983 . S
H106 C77 0.982 . S
H107 C77 0.979 . S
H108 C77 0.977 . S
H109 C79 0.948 . S
H110 C81 0.947 . S
H111 C82 0.948 . S
H112 C88 0.982 . S
H113 C88 0.979 . S
H114 C88 0.977 . S
H115 C89 0.979 . S
H116 C89 0.980 . S
H117 C89 0.983 . S
H118 C62 0.947 . S
C119 C62 1.392 . S
C119 C63 1.419 . S
C119 H101 0.948 . S
C120 C121 1.391 . S
C120 C124 1.391 . S
C120 H162 0.948 . S
C121 C120 1.391 . S
C121 C122 1.391 . S
C122 C121 1.391 . S
C122 H178 0.947 1_554 S
C122 C179 1.392 . S
C123 C124 1.391 . S
C123 C127 1.397 . S
C123 C179 1.419 . S
C124 C120 1.391 . S
C124 C123 1.391 . S
C124 C125 1.399 . S
C125 C124 1.399 . S
C125 C128 1.396 . S
C125 C137 1.453 . S
C125 C138 1.684 . S
H126 C150 0.948 . S
C127 C123 1.397 . S
C127 C128 1.394 . S
C127 C146 1.723 . S
C128 C125 1.396 . S
C128 C127 1.394 . S
C128 C158 1.723 . S
H129 C152 0.947 . S
H130 C153 0.948 . S
H131 C159 0.982 . S
H132 C160 0.979 . S
H133 C160 0.980 . S
H134 C160 0.983 . S
H135 C159 0.979 . S
H136 C159 0.977 . S
C137 C125 1.453 . S
C137 H166 0.982 . S
C137 H167 0.979 . S
C137 H168 0.977 . S
C138 C125 1.684 . S
C138 H163 0.979 . S
C138 H164 0.980 . S
C138 H165 0.983 . S
C139 C140 1.391 . S
C139 C144 1.391 . S
C139 H169 0.948 . S
C140 C139 1.391 . S
C140 C141 1.391 . S
C141 C140 1.391 . S
C141 C142 1.392 . S
C141 H170 0.947 . S
C142 C141 1.392 . S
C142 C143 1.419 . S
C142 H171 0.948 . S
C143 C142 1.419 . S
C143 C144 1.391 . S
C143 C147 1.397 . S
C144 C139 1.391 . S
C144 C143 1.391 . S
C144 C145 1.399 . S
C145 C144 1.399 . S
C145 C146 1.396 . S
C145 C148 1.453 . S
C145 C149 1.684 . S
C146 C127 1.723 . S
C146 C145 1.396 . S
C146 C147 1.394 . S
C147 C143 1.397 . S
C147 C146 1.394 . S
C147 C157 1.723 . S
C148 C145 1.453 . S
C148 H172 0.982 . S
C148 H173 0.979 . S
C148 H174 0.977 . S
C149 C145 1.684 . S
C149 H175 0.979 . S
C149 H176 0.980 . S
C149 H177 0.983 . S
C150 H126 0.948 . S
C150 C151 1.391 . S
C150 C155 1.391 . S
C151 C150 1.391 . S
C151 C152 1.391 . S
C152 H129 0.947 . S
C152 C151 1.391 . S
C152 C153 1.392 . S
C153 H130 0.948 . S
C153 C152 1.392 . S
C153 C154 1.419 . S
C154 C153 1.419 . S
C154 C155 1.391 . S
C154 C158 1.397 . S
C155 C150 1.391 . S
C155 C154 1.391 . S
C155 C156 1.399 . S
C156 C155 1.399 . S
C156 C157 1.396 . S
C156 C159 1.453 . S
C156 C160 1.684 . S
C157 C147 1.723 . S
C157 C156 1.396 . S
C157 C158 1.394 . S
C158 C128 1.723 . S
C158 C154 1.397 . S
C158 C157 1.394 . S
C159 H131 0.982 . S
C159 H135 0.979 . S
C159 H136 0.977 . S
C159 C156 1.453 . S
C160 H132 0.979 . S
C160 H133 0.980 . S
C160 H134 0.983 . S
C160 C156 1.684 . S
H161 C179 0.948 . S
H162 C120 0.948 . S
H163 C138 0.979 . S
H164 C138 0.980 . S
H165 C138 0.983 . S
H166 C137 0.982 . S
H167 C137 0.979 . S
H168 C137 0.977 . S
H169 C139 0.948 . S
H170 C141 0.947 . S
H171 C142 0.948 . S
H172 C148 0.982 . S
H173 C148 0.979 . S
H174 C148 0.977 . S
H175 C149 0.979 . S
H176 C149 0.980 . S
H177 C149 0.983 . S
H178 C122 0.947 1_556 S
C179 C122 1.392 . S
C179 C123 1.419 . S
C179 H161 0.948 . S
C180 C181 1.391 . S
C180 C184 1.391 . S
C180 H222 0.948 . S
C181 C180 1.391 . S
C181 C182 1.391 . S
C182 C181 1.391 . S
C182 H238 0.947 . S
C182 C239 1.392 . S
C183 C184 1.391 . S
C183 C187 1.397 . S
C183 C239 1.419 . S
C184 C180 1.391 . S
C184 C183 1.391 . S
C184 C185 1.399 . S
C185 C184 1.399 . S
C185 C188 1.396 . S
C185 C197 1.453 . S
C185 C198 1.684 . S
H186 C210 0.948 . S
C187 C183 1.397 . S
C187 C188 1.394 . S
C187 C206 1.723 . S
C188 C185 1.396 . S
C188 C187 1.394 . S
C188 C218 1.723 . S
H189 C212 0.947 . S
H190 C213 0.948 . S
H191 C219 0.982 . S
H192 C220 0.979 . S
H193 C220 0.980 . S
H194 C220 0.983 . S
H195 C219 0.979 . S
H196 C219 0.977 . S
C197 C185 1.453 . S
C197 H226 0.982 . S
C197 H227 0.979 . S
C197 H228 0.977 . S
C198 C185 1.684 . S
C198 H223 0.979 . S
C198 H224 0.980 . S
C198 H225 0.983 . S
C199 C200 1.391 . S
C199 C204 1.391 . S
C199 H229 0.948 . S
C200 C199 1.391 . S
C200 C201 1.391 . S
C201 C200 1.391 . S
C201 C202 1.392 . S
C201 H230 0.947 . S
C202 C201 1.392 . S
C202 C203 1.419 . S
C202 H231 0.948 . S
C203 C202 1.419 . S
C203 C204 1.391 . S
C203 C207 1.397 . S
C204 C199 1.391 . S
C204 C203 1.391 . S
C204 C205 1.399 . S
C205 C204 1.399 . S
C205 C206 1.396 . S
C205 C208 1.453 . S
C205 C209 1.684 . S
C206 C187 1.723 . S
C206 C205 1.396 . S
C206 C207 1.394 . S
C207 C203 1.397 . S
C207 C206 1.394 . S
C207 C217 1.723 . S
C208 C205 1.453 . S
C208 H232 0.982 . S
C208 H233 0.979 . S
C208 H234 0.977 . S
C209 C205 1.684 . S
C209 H235 0.979 . S
C209 H236 0.980 . S
C209 H237 0.983 . S
C210 H186 0.948 . S
C210 C211 1.391 . S
C210 C215 1.391 . S
C211 C210 1.391 . S
C211 C212 1.391 . S
C212 H189 0.947 . S
C212 C211 1.391 . S
C212 C213 1.392 . S
C213 H190 0.948 . S
C213 C212 1.392 . S
C213 C214 1.419 . S
C214 C213 1.419 . S
C214 C215 1.391 . S
C214 C218 1.397 . S
C215 C210 1.391 . S
C215 C214 1.391 . S
C215 C216 1.399 . S
C216 C215 1.399 . S
C216 C217 1.396 . S
C216 C219 1.453 . S
C216 C220 1.684 . S
C217 C207 1.723 . S
C217 C216 1.396 . S
C217 C218 1.394 . S
C218 C188 1.723 . S
C218 C214 1.397 . S
C218 C217 1.394 . S
C219 H191 0.982 . S
C219 H195 0.979 . S
C219 H196 0.977 . S
C219 C216 1.453 . S
C220 H192 0.979 . S
C220 H193 0.980 . S
C220 H194 0.983 . S
C220 C216 1.684 . S
H221 C239 0.948 . S
H222 C180 0.948 . S
H223 C198 0.979 . S
H224 C198 0.980 . S
H225 C198 0.983 . S
H226 C197 0.982 . S
H227 C197 0.979 . S
H228 C197 0.977 . S
H229 C199 0.948 . S
H230 C201 0.947 . S
H231 C202 0.948 . S
H232 C208 0.982 . S
H233 C208 0.979 . S
H234 C208 0.977 . S
H235 C209 0.979 . S
H236 C209 0.980 . S
H237 C209 0.983 . S
H238 C182 0.947 . S
C239 C182 1.392 . S
C239 C183 1.419 . S
C239 H221 0.948 . S
C240 C241 1.391 . S
C240 C244 1.391 . S
C240 H282 0.948 . S
C241 C240 1.391 . S
C241 C242 1.391 . S
C242 C241 1.391 . S
C242 H298 0.947 . S
C242 C299 1.392 . S
C243 C244 1.391 . S
C243 C247 1.397 . S
C243 C299 1.419 . S
C244 C240 1.391 . S
C244 C243 1.391 . S
C244 C245 1.399 . S
C245 C244 1.399 . S
C245 C248 1.396 . S
C245 C257 1.453 . S
C245 C258 1.684 . S
H246 C270 0.948 . S
C247 C243 1.397 . S
C247 C248 1.394 . S
C247 C266 1.723 . S
C248 C245 1.396 . S
C248 C247 1.394 . S
C248 C278 1.723 . S
H249 C272 0.947 . S
H250 C273 0.948 . S
H251 C279 0.982 . S
H252 C280 0.979 1_565 S
H253 C280 0.980 . S
H254 C280 0.983 . S
H255 C279 0.979 . S
H256 C279 0.977 . S
C257 C245 1.453 . S
C257 H286 0.982 . S
C257 H287 0.979 . S
C257 H288 0.977 . S
C258 C245 1.684 . S
C258 H283 0.979 . S
C258 H284 0.980 . S
C258 H285 0.983 . S
C259 C260 1.391 . S
C259 C264 1.391 . S
C259 H289 0.948 1_455 S
C260 C259 1.391 . S
C260 C261 1.391 . S
C261 C260 1.391 . S
C261 C262 1.392 . S
C261 H290 0.947 1_565 S
C262 C261 1.392 . S
C262 C263 1.419 . S
C262 H291 0.946 1_565 S
C263 C262 1.419 . S
C263 C264 1.391 . S
C263 C267 1.397 . S
C264 C259 1.391 . S
C264 C263 1.391 . S
C264 C265 1.399 . S
C265 C264 1.399 . S
C265 C266 1.396 . S
C265 C268 1.453 . S
C265 C269 1.684 . S
C266 C247 1.723 . S
C266 C265 1.396 . S
C266 C267 1.394 . S
C267 C263 1.397 . S
C267 C266 1.394 . S
C267 C277 1.723 . S
C268 C265 1.453 . S
C268 H292 0.982 . S
C268 H293 0.979 1_455 S
C268 H294 0.977 . S
C269 C265 1.684 . S
C269 H295 0.979 . S
C269 H296 0.980 . S
C269 H297 0.983 . S
C270 H246 0.948 . S
C270 C271 1.391 . S
C270 C275 1.380 1_545 S
C271 C270 1.391 . S
C271 C272 1.391 1_545 S
C272 H249 0.947 . S
C272 C271 1.391 1_565 S
C272 C273 1.392 . S
C273 H250 0.948 . S
C273 C272 1.392 . S
C273 C274 1.419 . S
C274 C273 1.419 . S
C274 C275 1.405 . S
C274 C278 1.397 . S
C275 C270 1.380 1_565 S
C275 C274 1.405 . S
C275 C276 1.398 . S
C276 C275 1.398 . S
C276 C277 1.396 . S
C276 C279 1.453 1_565 S
C276 C280 1.684 1_565 S
C277 C267 1.723 . S
C277 C276 1.396 . S
C277 C278 1.394 . S
C278 C248 1.723 . S
C278 C274 1.397 . S
C278 C277 1.394 . S
C279 H251 0.982 . S
C279 H255 0.979 . S
C279 H256 0.977 . S
C279 C276 1.453 1_545 S
C280 H252 0.979 1_545 S
C280 H253 0.980 . S
C280 H254 0.983 . S
C280 C276 1.684 1_545 S
H281 C299 0.948 . S
H282 C240 0.948 . S
H283 C258 0.979 . S
H284 C258 0.980 . S
H285 C258 0.983 . S
H286 C257 0.982 . S
H287 C257 0.979 . S
H288 C257 0.977 . S
H289 C259 0.948 1_655 S
H290 C261 0.947 1_545 S
H291 C262 0.946 1_545 S
H292 C268 0.982 . S
H293 C268 0.979 1_655 S
H294 C268 0.977 . S
H295 C269 0.979 . S
H296 C269 0.980 . S
H297 C269 0.983 . S
H298 C242 0.947 . S
C299 C242 1.392 . S
C299 C243 1.419 . S
C299 H281 0.948 . S
C300 C301 1.391 . S
C300 C304 1.391 . S
C300 H342 0.948 . S
C301 C300 1.391 . S
C301 C302 1.391 . S
C302 C301 1.391 . S
C302 H358 0.947 . S
C302 C359 1.392 . S
C303 C304 1.391 . S
C303 C307 1.397 . S
C303 C359 1.419 . S
C304 C300 1.391 . S
C304 C303 1.391 . S
C304 C305 1.399 . S
C305 C304 1.399 . S
C305 C308 1.396 . S
C305 C317 1.453 . S
C305 C318 1.684 . S
H306 C330 0.948 . S
C307 C303 1.397 . S
C307 C308 1.394 . S
C307 C326 1.723 . S
C308 C305 1.396 . S
C308 C307 1.394 . S
C308 C338 1.723 . S
H309 C332 0.947 . S
H310 C333 0.948 . S
H311 C339 0.982 . S
H312 C340 0.979 . S
H313 C340 0.980 . S
H314 C340 0.983 . S
H315 C339 0.979 . S
H316 C339 0.977 . S
C317 C305 1.453 . S
C317 H346 0.982 . S
C317 H347 0.979 . S
C317 H348 0.977 . S
C318 C305 1.684 . S
C318 H343 0.979 . S
C318 H344 0.980 . S
C318 H345 0.983 . S
C319 C320 1.391 . S
C319 C324 1.391 . S
C319 H349 0.948 . S
C320 C319 1.391 . S
C320 C321 1.391 . S
C321 C320 1.391 . S
C321 C322 1.392 . S
C321 H350 0.947 . S
C322 C321 1.392 . S
C322 C323 1.419 . S
C322 H351 0.948 . S
C323 C322 1.419 . S
C323 C324 1.391 . S
C323 C327 1.397 . S
C324 C319 1.391 . S
C324 C323 1.391 . S
C324 C325 1.399 . S
C325 C324 1.399 . S
C325 C326 1.396 . S
C325 C328 1.453 . S
C325 C329 1.684 . S
C326 C307 1.723 . S
C326 C325 1.396 . S
C326 C327 1.394 . S
C327 C323 1.397 . S
C327 C326 1.394 . S
C327 C337 1.723 . S
C328 C325 1.453 . S
C328 H352 0.982 . S
C328 H353 0.979 . S
C328 H354 0.977 . S
C329 C325 1.684 . S
C329 H355 0.979 . S
C329 H356 0.980 . S
C329 H357 0.983 . S
C330 H306 0.948 . S
C330 C331 1.391 . S
C330 C335 1.391 . S
C331 C330 1.391 . S
C331 C332 1.391 . S
C332 H309 0.947 . S
C332 C331 1.391 . S
C332 C333 1.392 . S
C333 H310 0.948 . S
C333 C332 1.392 . S
C333 C334 1.419 . S
C334 C333 1.419 . S
C334 C335 1.391 . S
C334 C338 1.397 . S
C335 C330 1.391 . S
C335 C334 1.391 . S
C335 C336 1.399 . S
C336 C335 1.399 . S
C336 C337 1.396 . S
C336 C339 1.453 . S
C336 C340 1.684 . S
C337 C327 1.723 . S
C337 C336 1.396 . S
C337 C338 1.394 . S
C338 C308 1.723 . S
C338 C334 1.397 . S
C338 C337 1.394 . S
C339 H311 0.982 . S
C339 H315 0.979 . S
C339 H316 0.977 . S
C339 C336 1.453 . S
C340 H312 0.979 . S
C340 H313 0.980 . S
C340 H314 0.983 . S
C340 C336 1.684 . S
H341 C359 0.948 . S
H342 C300 0.948 . S
H343 C318 0.979 . S
H344 C318 0.980 . S
H345 C318 0.983 . S
H346 C317 0.982 . S
H347 C317 0.979 . S
H348 C317 0.977 . S
H349 C319 0.948 . S
H350 C321 0.947 . S
H351 C322 0.948 . S
H352 C328 0.982 . S
H353 C328 0.979 . S
H354 C328 0.977 . S
H355 C329 0.979 . S
H356 C329 0.980 . S
H357 C329 0.983 . S
H358 C302 0.947 . S
C359 C302 1.392 . S
C359 C303 1.419 . S
C359 H341 0.948 . S
C360 C361 1.391 . S
C360 C364 1.391 . S
C360 H402 0.948 . S
C361 C360 1.391 . S
C361 C362 1.391 . S
C362 C361 1.391 . S
C362 H418 0.947 . S
C362 C419 1.392 . S
C363 C364 1.391 . S
C363 C367 1.397 . S
C363 C419 1.419 . S
C364 C360 1.391 . S
C364 C363 1.391 . S
C364 C365 1.399 . S
C365 C364 1.399 . S
C365 C368 1.396 . S
C365 C377 1.453 . S
C365 C378 1.684 . S
H366 C390 0.948 . S
C367 C363 1.397 . S
C367 C368 1.394 . S
C367 C386 1.723 . S
C368 C365 1.396 . S
C368 C367 1.394 . S
C368 C398 1.723 . S
H369 C392 0.947 . S
H370 C393 0.948 . S
H371 C399 0.982 . S
H372 C400 0.970 1_455 S
H373 C400 0.983 . S
H374 C400 0.983 1_455 S
H375 C399 0.979 . S
H376 C399 0.977 . S
C377 C365 1.453 . S
C377 H406 0.982 . S
C377 H407 0.979 . S
C377 H408 0.977 . S
C378 C365 1.684 . S
C378 H403 0.979 . S
C378 H404 0.980 . S
C378 H405 0.983 . S
C379 C380 1.391 . S
C379 C384 1.391 . S
C379 H409 0.948 . S
C380 C379 1.391 . S
C380 C381 1.391 . S
C381 C380 1.391 . S
C381 C382 1.392 . S
C381 H410 0.947 1_655 S
C382 C381 1.392 . S
C382 C383 1.419 . S
C382 H411 0.948 . S
C383 C382 1.419 . S
C383 C384 1.391 . S
C383 C387 1.397 . S
C384 C379 1.391 . S
C384 C383 1.391 . S
C384 C385 1.399 . S
C385 C384 1.399 . S
C385 C386 1.396 . S
C385 C388 1.453 . S
C385 C389 1.684 . S
C386 C367 1.723 . S
C386 C385 1.396 . S
C386 C387 1.394 . S
C387 C383 1.397 . S
C387 C386 1.394 . S
C387 C397 1.723 . S
C388 C385 1.453 . S
C388 H412 0.982 . S
C388 H413 0.979 . S
C388 H414 0.977 . S
C389 C385 1.684 . S
C389 H415 0.979 . S
C389 H416 0.980 . S
C389 H417 0.983 . S
C390 H366 0.948 . S
C390 C391 1.391 . S
C390 C395 1.391 . S
C391 C390 1.391 . S
C391 C392 1.391 . S
C392 H369 0.947 . S
C392 C391 1.391 . S
C392 C393 1.392 . S
C393 H370 0.948 . S
C393 C392 1.392 . S
C393 C394 1.419 . S
C394 C393 1.419 . S
C394 C395 1.391 . S
C394 C398 1.397 . S
C395 C390 1.391 . S
C395 C394 1.391 . S
C395 C396 1.399 . S
C396 C395 1.399 . S
C396 C397 1.396 . S
C396 C399 1.453 . S
C396 C400 1.684 . S
C397 C387 1.723 . S
C397 C396 1.396 . S
C397 C398 1.394 . S
C398 C368 1.723 . S
C398 C394 1.397 . S
C398 C397 1.394 . S
C399 H371 0.982 . S
C399 H375 0.979 . S
C399 H376 0.977 . S
C399 C396 1.453 . S
C400 H372 0.970 1_655 S
C400 H373 0.983 . S
C400 H374 0.983 1_655 S
C400 C396 1.684 . S
H401 C419 0.948 . S
H402 C360 0.948 . S
H403 C378 0.979 . S
H404 C378 0.980 . S
H405 C378 0.983 . S
H406 C377 0.982 . S
H407 C377 0.979 . S
H408 C377 0.977 . S
H409 C379 0.948 . S
H410 C381 0.947 1_455 S
H411 C382 0.948 . S
H412 C388 0.982 . S
H413 C388 0.979 . S
H414 C388 0.977 . S
H415 C389 0.979 . S
H416 C389 0.980 . S
H417 C389 0.983 . S
H418 C362 0.947 . S
C419 C362 1.392 . S
C419 C363 1.419 . S
C419 H401 0.948 . S
C420 C421 1.391 . S
C420 C424 1.391 . S
C420 H462 0.948 . S
C421 C420 1.391 . S
C421 C422 1.391 . S
C422 C421 1.391 . S
C422 H478 0.947 . S
C422 C479 1.392 . S
C423 C424 1.391 . S
C423 C427 1.397 . S
C423 C479 1.419 . S
C424 C420 1.391 . S
C424 C423 1.391 . S
C424 C425 1.399 . S
C425 C424 1.399 . S
C425 C428 1.396 . S
C425 C437 1.453 . S
C425 C438 1.684 . S
H426 C450 0.948 . S
C427 C423 1.397 . S
C427 C428 1.394 . S
C427 C446 1.723 . S
C428 C425 1.396 . S
C428 C427 1.394 . S
C428 C458 1.723 . S
H429 C452 0.947 . S
H430 C453 0.948 . S
H431 C459 0.982 . S
H432 C460 0.979 . S
H433 C460 0.980 . S
H434 C460 0.983 . S
H435 C459 0.979 . S
H436 C459 0.977 . S
C437 C425 1.453 . S
C437 H466 0.982 . S
C437 H467 0.979 . S
C437 H468 0.977 . S
C438 C425 1.684 . S
C438 H463 0.979 . S
C438 H464 0.980 . S
C438 H465 0.983 . S
C439 C440 1.391 . S
C439 C444 1.391 . S
C439 H469 0.948 . S
C440 C439 1.391 . S
C440 C441 1.391 . S
C441 C440 1.391 . S
C441 C442 1.392 . S
C441 H470 0.947 . S
C442 C441 1.392 . S
C442 C443 1.419 . S
C442 H471 0.948 . S
C443 C442 1.419 . S
C443 C444 1.391 . S
C443 C447 1.397 . S
C444 C439 1.391 . S
C444 C443 1.391 . S
C444 C445 1.399 . S
C445 C444 1.399 . S
C445 C446 1.396 . S
C445 C448 1.453 . S
C445 C449 1.684 . S
C446 C427 1.723 . S
C446 C445 1.396 . S
C446 C447 1.394 . S
C447 C443 1.397 . S
C447 C446 1.394 . S
C447 C457 1.723 . S
C448 C445 1.453 . S
C448 H472 0.982 . S
C448 H473 0.979 . S
C448 H474 0.977 . S
C449 C445 1.684 . S
C449 H475 0.979 . S
C449 H476 0.980 . S
C449 H477 0.983 . S
C450 H426 0.948 . S
C450 C451 1.391 . S
C450 C455 1.391 . S
C451 C450 1.391 . S
C451 C452 1.391 . S
C452 H429 0.947 . S
C452 C451 1.391 . S
C452 C453 1.392 . S
C453 H430 0.948 . S
C453 C452 1.392 . S
C453 C454 1.419 . S
C454 C453 1.419 . S
C454 C455 1.391 . S
C454 C458 1.397 . S
C455 C450 1.391 . S
C455 C454 1.391 . S
C455 C456 1.399 . S
C456 C455 1.399 . S
C456 C457 1.396 . S
C456 C459 1.453 . S
C456 C460 1.684 . S
C457 C447 1.723 . S
C457 C456 1.396 . S
C457 C458 1.394 . S
C458 C428 1.723 . S
C458 C454 1.397 . S
C458 C457 1.394 . S
C459 H431 0.982 . S
C459 H435 0.979 . S
C459 H436 0.977 . S
C459 C456 1.453 . S
C460 H432 0.979 . S
C460 H433 0.980 . S
C460 H434 0.983 . S
C460 C456 1.684 . S
H461 C479 0.948 . S
H462 C420 0.948 . S
H463 C438 0.979 . S
H464 C438 0.980 . S
H465 C438 0.983 . S
H466 C437 0.982 . S
H467 C437 0.979 . S
H468 C437 0.977 . S
H469 C439 0.948 . S
H470 C441 0.947 . S
H471 C442 0.948 . S
H472 C448 0.982 . S
H473 C448 0.979 . S
H474 C448 0.977 . S
H475 C449 0.979 . S
H476 C449 0.980 . S
H477 C449 0.983 . S
H478 C422 0.947 . S
C479 C422 1.392 . S
C479 C423 1.419 . S
C479 H461 0.948 . S
C480 C481 1.391 . S
C480 C484 1.391 . S
C480 H522 0.948 . S
C481 C480 1.391 . S
C481 C482 1.391 . S
C482 C481 1.391 . S
C482 H538 0.947 . S
C482 C539 1.392 . S
C483 C484 1.391 . S
C483 C487 1.397 . S
C483 C539 1.419 . S
C484 C480 1.391 . S
C484 C483 1.391 . S
C484 C485 1.399 . S
C485 C484 1.399 . S
C485 C488 1.396 . S
C485 C497 1.453 . S
C485 C498 1.684 . S
H486 C510 0.948 . S
C487 C483 1.397 . S
C487 C488 1.394 . S
C487 C506 1.723 . S
C488 C485 1.396 . S
C488 C487 1.394 . S
C488 C518 1.723 . S
H489 C512 0.947 . S
H490 C513 0.948 . S
H491 C519 0.982 . S
H492 C520 0.979 . S
H493 C520 0.980 . S
H494 C520 0.983 . S
H495 C519 0.979 . S
H496 C519 0.977 . S
C497 C485 1.453 . S
C497 H526 0.982 . S
C497 H527 0.979 . S
C497 H528 0.977 . S
C498 C485 1.684 . S
C498 H523 0.979 . S
C498 H524 0.980 . S
C498 H525 0.983 . S
C499 C500 1.391 . S
C499 C504 1.391 . S
C499 H529 0.948 . S
C500 C499 1.391 . S
C500 C501 1.391 . S
C501 C500 1.391 . S
C501 C502 1.392 . S
C501 H530 0.947 . S
C502 C501 1.392 . S
C502 C503 1.419 . S
C502 H531 0.948 . S
C503 C502 1.419 . S
C503 C504 1.391 . S
C503 C507 1.397 . S
C504 C499 1.391 . S
C504 C503 1.391 . S
C504 C505 1.399 . S
C505 C504 1.399 . S
C505 C506 1.396 . S
C505 C508 1.453 . S
C505 C509 1.684 . S
C506 C487 1.723 . S
C506 C505 1.396 . S
C506 C507 1.394 . S
C507 C503 1.397 . S
C507 C506 1.394 . S
C507 C517 1.723 . S
C508 C505 1.453 . S
C508 H532 0.982 . S
C508 H533 0.979 . S
C508 H534 0.977 . S
C509 C505 1.684 . S
C509 H535 0.979 . S
C509 H536 0.980 . S
C509 H537 0.983 . S
C510 H486 0.948 . S
C510 C511 1.391 . S
C510 C515 1.391 . S
C511 C510 1.391 . S
C511 C512 1.391 . S
C512 H489 0.947 . S
C512 C511 1.391 . S
C512 C513 1.392 . S
C513 H490 0.948 . S
C513 C512 1.392 . S
C513 C514 1.419 . S
C514 C513 1.419 . S
C514 C515 1.391 . S
C514 C518 1.397 . S
C515 C510 1.391 . S
C515 C514 1.391 . S
C515 C516 1.399 . S
C516 C515 1.399 . S
C516 C517 1.396 . S
C516 C519 1.453 . S
C516 C520 1.684 . S
C517 C507 1.723 . S
C517 C516 1.396 . S
C517 C518 1.394 . S
C518 C488 1.723 . S
C518 C514 1.397 . S
C518 C517 1.394 . S
C519 H491 0.982 . S
C519 H495 0.979 . S
C519 H496 0.977 . S
C519 C516 1.453 . S
C520 H492 0.979 . S
C520 H493 0.980 . S
C520 H494 0.983 . S
C520 C516 1.684 . S
H521 C539 0.948 . S
H522 C480 0.948 . S
H523 C498 0.979 . S
H524 C498 0.980 . S
H525 C498 0.983 . S
H526 C497 0.982 . S
H527 C497 0.979 . S
H528 C497 0.977 . S
H529 C499 0.948 . S
H530 C501 0.947 . S
H531 C502 0.948 . S
H532 C508 0.982 . S
H533 C508 0.979 . S
H534 C508 0.977 . S
H535 C509 0.979 . S
H536 C509 0.980 . S
H537 C509 0.983 . S
H538 C482 0.947 . S
C539 C482 1.392 . S
C539 C483 1.419 . S
C539 H521 0.948 . S
C540 C541 1.391 . S
C540 C544 1.391 . S
C540 H582 0.948 . S
C541 C540 1.391 . S
C541 C542 1.391 . S
C542 C541 1.391 . S
C542 H598 0.947 . S
C542 C599 1.392 . S
C543 C544 1.391 . S
C543 C547 1.397 . S
C543 C599 1.419 . S
C544 C540 1.391 . S
C544 C543 1.391 . S
C544 C545 1.399 . S
C545 C544 1.399 . S
C545 C548 1.396 . S
C545 C557 1.453 . S
C545 C558 1.684 . S
H546 C570 0.948 . S
C547 C543 1.397 . S
C547 C548 1.394 . S
C547 C566 1.723 . S
C548 C545 1.396 . S
C548 C547 1.394 . S
C548 C578 1.723 . S
H549 C572 0.947 . S
H550 C573 0.948 . S
H551 C579 0.982 . S
H552 C580 0.973 1_545 S
H553 C580 0.975 1_545 S
H554 C580 0.983 1_545 S
H555 C579 0.979 . S
H556 C579 0.977 . S
C557 C545 1.453 . S
C557 H586 0.982 . S
C557 H587 0.979 . S
C557 H588 0.977 . S
C558 C545 1.684 . S
C558 H583 0.979 . S
C558 H584 0.980 . S
C558 H585 0.983 . S
C559 C560 1.391 . S
C559 C564 1.391 . S
C559 H589 0.948 . S
C560 C559 1.391 . S
C560 C561 1.391 1_565 S
C561 C560 1.391 1_545 S
C561 C562 1.392 1_545 S
C561 H590 0.947 . S
C562 C561 1.392 1_565 S
C562 C563 1.419 . S
C562 H591 0.948 . S
C563 C562 1.419 . S
C563 C564 1.391 . S
C563 C567 1.397 . S
C564 C559 1.391 . S
C564 C563 1.391 . S
C564 C565 1.399 . S
C565 C564 1.399 . S
C565 C566 1.396 . S
C565 C568 1.453 . S
C565 C569 1.684 . S
C566 C547 1.723 . S
C566 C565 1.396 . S
C566 C567 1.394 . S
C567 C563 1.397 . S
C567 C566 1.394 . S
C567 C577 1.723 . S
C568 C565 1.453 . S
C568 H592 0.982 . S
C568 H593 0.979 . S
C568 H594 0.977 . S
C569 C565 1.684 . S
C569 H595 0.979 . S
C569 H596 0.980 . S
C569 H597 0.983 . S
C570 H546 0.948 . S
C570 C571 1.391 . S
C570 C575 1.391 . S
C571 C570 1.391 . S
C571 C572 1.391 . S
C572 H549 0.947 . S
C572 C571 1.391 . S
C572 C573 1.392 . S
C573 H550 0.948 . S
C573 C572 1.392 . S
C573 C574 1.419 . S
C574 C573 1.419 . S
C574 C575 1.391 . S
C574 C578 1.397 . S
C575 C570 1.391 . S
C575 C574 1.391 . S
C575 C576 1.399 . S
C576 C575 1.399 . S
C576 C577 1.396 . S
C576 C579 1.453 . S
C576 C580 1.684 . S
C577 C567 1.723 . S
C577 C576 1.396 . S
C577 C578 1.394 . S
C578 C548 1.723 . S
C578 C574 1.397 . S
C578 C577 1.394 . S
C579 H551 0.982 . S
C579 H555 0.979 . S
C579 H556 0.977 . S
C579 C576 1.453 . S
C580 H552 0.973 1_565 S
C580 H553 0.975 1_565 S
C580 H554 0.983 1_565 S
C580 C576 1.684 . S
H581 C599 0.948 . S
H582 C540 0.948 . S
H583 C558 0.979 . S
H584 C558 0.980 . S
H585 C558 0.983 . S
H586 C557 0.982 . S
H587 C557 0.979 . S
H588 C557 0.977 . S
H589 C559 0.948 . S
H590 C561 0.947 . S
H591 C562 0.948 . S
H592 C568 0.982 . S
H593 C568 0.979 . S
H594 C568 0.977 . S
H595 C569 0.979 . S
H596 C569 0.980 . S
H597 C569 0.983 . S
H598 C542 0.947 . S
C599 C542 1.392 . S
C599 C543 1.419 . S
C599 H581 0.948 . S
C600 C601 1.391 . S
C600 C604 1.391 . S
C600 H642 0.948 . S
C601 C600 1.391 . S
C601 C602 1.391 . S
C602 C601 1.391 . S
C602 H658 0.947 . S
C602 C659 1.392 . S
C603 C604 1.391 . S
C603 C607 1.397 . S
C603 C659 1.419 . S
C604 C600 1.391 . S
C604 C603 1.391 . S
C604 C605 1.399 . S
C605 C604 1.399 . S
C605 C608 1.396 . S
C605 C617 1.453 . S
C605 C618 1.684 . S
H606 C630 0.948 . S
C607 C603 1.397 . S
C607 C608 1.394 . S
C607 C626 1.723 . S
C608 C605 1.396 . S
C608 C607 1.394 . S
C608 C638 1.723 . S
H609 C632 0.947 . S
H610 C633 0.948 . S
H611 C639 0.982 . S
H612 C640 0.979 . S
H613 C640 0.980 . S
H614 C640 0.983 . S
H615 C639 0.979 . S
H616 C639 0.977 . S
C617 C605 1.453 . S
C617 H646 0.982 . S
C617 H647 0.979 . S
C617 H648 0.977 . S
C618 C605 1.684 . S
C618 H643 0.979 . S
C618 H644 0.980 . S
C618 H645 0.983 . S
C619 C620 1.391 . S
C619 C624 1.391 . S
C619 H649 0.948 . S
C620 C619 1.391 . S
C620 C621 1.391 . S
C621 C620 1.391 . S
C621 C622 1.392 . S
C621 H650 0.947 . S
C622 C621 1.392 . S
C622 C623 1.419 . S
C622 H651 0.948 . S
C623 C622 1.419 . S
C623 C624 1.391 . S
C623 C627 1.397 . S
C624 C619 1.391 . S
C624 C623 1.391 . S
C624 C625 1.399 . S
C625 C624 1.399 . S
C625 C626 1.396 . S
C625 C628 1.453 . S
C625 C629 1.684 . S
C626 C607 1.723 . S
C626 C625 1.396 . S
C626 C627 1.394 . S
C627 C623 1.397 . S
C627 C626 1.394 . S
C627 C637 1.723 . S
C628 C625 1.453 . S
C628 H652 0.982 . S
C628 H653 0.979 . S
C628 H654 0.977 . S
C629 C625 1.684 . S
C629 H655 0.979 . S
C629 H656 0.980 . S
C629 H657 0.983 . S
C630 H606 0.948 . S
C630 C631 1.391 . S
C630 C635 1.391 . S
C631 C630 1.391 . S
C631 C632 1.391 . S
C632 H609 0.947 . S
C632 C631 1.391 . S
C632 C633 1.392 . S
C633 H610 0.948 . S
C633 C632 1.392 . S
C633 C634 1.419 . S
C634 C633 1.419 . S
C634 C635 1.391 . S
C634 C638 1.397 . S
C635 C630 1.391 . S
C635 C634 1.391 . S
C635 C636 1.399 . S
C636 C635 1.399 . S
C636 C637 1.396 . S
C636 C639 1.453 . S
C636 C640 1.684 . S
C637 C627 1.723 . S
C637 C636 1.396 . S
C637 C638 1.394 . S
C638 C608 1.723 . S
C638 C634 1.397 . S
C638 C637 1.394 . S
C639 H611 0.982 . S
C639 H615 0.979 . S
C639 H616 0.977 . S
C639 C636 1.453 . S
C640 H612 0.979 . S
C640 H613 0.980 . S
C640 H614 0.983 . S
C640 C636 1.684 . S
H641 C659 0.948 . S
H642 C600 0.948 . S
H643 C618 0.979 . S
H644 C618 0.980 . S
H645 C618 0.983 . S
H646 C617 0.982 . S
H647 C617 0.979 . S
H648 C617 0.977 . S
H649 C619 0.948 . S
H650 C621 0.947 . S
H651 C622 0.948 . S
H652 C628 0.982 . S
H653 C628 0.979 . S
H654 C628 0.977 . S
H655 C629 0.979 . S
H656 C629 0.980 . S
H657 C629 0.983 . S
H658 C602 0.947 . S
C659 C602 1.392 . S
C659 C603 1.419 . S
C659 H641 0.948 . S
C660 C661 1.391 . S
C660 C664 1.391 . S
C660 H702 0.948 . S
C661 C660 1.391 . S
C661 C662 1.391 . S
C662 C661 1.391 . S
C662 H718 0.947 . S
C662 C719 1.392 . S
C663 C664 1.391 . S
C663 C667 1.397 . S
C663 C719 1.419 . S
C664 C660 1.391 . S
C664 C663 1.391 . S
C664 C665 1.399 . S
C665 C664 1.399 . S
C665 C668 1.396 . S
C665 C677 1.453 . S
C665 C678 1.684 . S
H666 C690 0.948 . S
C667 C663 1.397 . S
C667 C668 1.394 . S
C667 C686 1.723 . S
C668 C665 1.396 . S
C668 C667 1.394 . S
C668 C698 1.723 . S
H669 C692 0.947 . S
H670 C693 0.948 . S
H671 C699 0.982 . S
H672 C700 0.979 . S
H673 C700 0.980 . S
H674 C700 0.983 . S
H675 C699 0.979 . S
H676 C699 0.977 . S
C677 C665 1.453 . S
C677 H706 0.982 . S
C677 H707 0.979 . S
C677 H708 0.977 . S
C678 C665 1.684 . S
C678 H703 0.979 . S
C678 H704 0.980 . S
C678 H705 0.983 . S
C679 C680 1.391 . S
C679 C684 1.391 . S
C679 H709 0.948 . S
C680 C679 1.391 . S
C680 C681 1.391 . S
C681 C680 1.391 . S
C681 C682 1.392 . S
C681 H710 0.947 . S
C682 C681 1.392 . S
C682 C683 1.419 . S
C682 H711 0.948 . S
C683 C682 1.419 . S
C683 C684 1.391 . S
C683 C687 1.397 . S
C684 C679 1.391 . S
C684 C683 1.391 . S
C684 C685 1.399 . S
C685 C684 1.399 . S
C685 C686 1.396 . S
C685 C688 1.453 . S
C685 C689 1.684 . S
C686 C667 1.723 . S
C686 C685 1.396 . S
C686 C687 1.394 . S
C687 C683 1.397 . S
C687 C686 1.394 . S
C687 C697 1.723 . S
C688 C685 1.453 . S
C688 H712 0.982 . S
C688 H713 0.979 . S
C688 H714 0.977 . S
C689 C685 1.684 . S
C689 H715 0.979 . S
C689 H716 0.980 . S
C689 H717 0.983 . S
C690 H666 0.948 . S
C690 C691 1.391 . S
C690 C695 1.391 . S
C691 C690 1.391 . S
C691 C692 1.391 . S
C692 H669 0.947 . S
C692 C691 1.391 . S
C692 C693 1.392 . S
C693 H670 0.948 . S
C693 C692 1.392 . S
C693 C694 1.419 . S
C694 C693 1.419 . S
C694 C695 1.391 . S
C694 C698 1.397 . S
C695 C690 1.391 . S
C695 C694 1.391 . S
C695 C696 1.399 . S
C696 C695 1.399 . S
C696 C697 1.396 . S
C696 C699 1.453 . S
C696 C700 1.684 . S
C697 C687 1.723 . S
C697 C696 1.396 . S
C697 C698 1.394 . S
C698 C668 1.723 . S
C698 C694 1.397 . S
C698 C697 1.394 . S
C699 H671 0.982 . S
C699 H675 0.979 . S
C699 H676 0.977 . S
C699 C696 1.453 . S
C700 H672 0.979 . S
C700 H673 0.980 . S
C700 H674 0.983 . S
C700 C696 1.684 . S
H701 C719 0.948 . S
H702 C660 0.948 . S
H703 C678 0.979 . S
H704 C678 0.980 . S
H705 C678 0.983 . S
H706 C677 0.982 . S
H707 C677 0.979 . S
H708 C677 0.977 . S
H709 C679 0.948 . S
H710 C681 0.947 . S
H711 C682 0.948 . S
H712 C688 0.982 . S
H713 C688 0.979 . S
H714 C688 0.977 . S
H715 C689 0.979 . S
H716 C689 0.980 . S
H717 C689 0.983 . S
H718 C662 0.947 . S
C719 C662 1.392 . S
C719 C663 1.419 . S
C719 H701 0.948 . S
C720 C721 1.391 . S
C720 C724 1.391 . S
C720 H762 0.948 . S
C721 C720 1.391 . S
C721 C722 1.391 . S
C722 C721 1.391 . S
C722 H778 0.947 . S
C722 C779 1.392 . S
C723 C724 1.391 . S
C723 C727 1.397 . S
C723 C779 1.419 . S
C724 C720 1.391 . S
C724 C723 1.391 . S
C724 C725 1.399 . S
C725 C724 1.399 . S
C725 C728 1.396 . S
C725 C737 1.453 . S
C725 C738 1.684 . S
H726 C750 0.948 . S
C727 C723 1.397 . S
C727 C728 1.394 . S
C727 C746 1.723 . S
C728 C725 1.396 . S
C728 C727 1.394 . S
C728 C758 1.723 . S
H729 C752 0.947 . S
H730 C753 0.948 . S
H731 C759 0.982 . S
H732 C760 0.979 . S
H733 C760 0.980 . S
H734 C760 0.983 . S
H735 C759 0.979 . S
H736 C759 0.977 . S
C737 C725 1.453 . S
C737 H766 0.982 . S
C737 H767 0.979 . S
C737 H768 0.977 . S
C738 C725 1.684 . S
C738 H763 0.979 . S
C738 H764 0.980 . S
C738 H765 0.983 . S
C739 C740 1.391 . S
C739 C744 1.391 . S
C739 H769 0.948 . S
C740 C739 1.391 . S
C740 C741 1.391 . S
C741 C740 1.391 . S
C741 C742 1.392 . S
C741 H770 0.947 . S
C742 C741 1.392 . S
C742 C743 1.419 . S
C742 H771 0.948 . S
C743 C742 1.419 . S
C743 C744 1.391 . S
C743 C747 1.397 . S
C744 C739 1.391 . S
C744 C743 1.391 . S
C744 C745 1.399 . S
C745 C744 1.399 . S
C745 C746 1.396 . S
C745 C748 1.453 . S
C745 C749 1.684 . S
C746 C727 1.723 . S
C746 C745 1.396 . S
C746 C747 1.394 . S
C747 C743 1.397 . S
C747 C746 1.394 . S
C747 C757 1.723 . S
C748 C745 1.453 . S
C748 H772 0.982 . S
C748 H773 0.979 . S
C748 H774 0.977 . S
C749 C745 1.684 . S
C749 H775 0.979 . S
C749 H776 0.980 . S
C749 H777 0.983 . S
C750 H726 0.948 . S
C750 C751 1.391 . S
C750 C755 1.391 . S
C751 C750 1.391 . S
C751 C752 1.391 . S
C752 H729 0.947 . S
C752 C751 1.391 . S
C752 C753 1.392 . S
C753 H730 0.948 . S
C753 C752 1.392 . S
C753 C754 1.419 . S
C754 C753 1.419 . S
C754 C755 1.391 . S
C754 C758 1.397 . S
C755 C750 1.391 . S
C755 C754 1.391 . S
C755 C756 1.399 . S
C756 C755 1.399 . S
C756 C757 1.396 . S
C756 C759 1.453 . S
C756 C760 1.684 . S
C757 C747 1.723 . S
C757 C756 1.396 . S
C757 C758 1.394 . S
C758 C728 1.723 . S
C758 C754 1.397 . S
C758 C757 1.394 . S
C759 H731 0.982 . S
C759 H735 0.979 . S
C759 H736 0.977 . S
C759 C756 1.453 . S
C760 H732 0.979 . S
C760 H733 0.980 . S
C760 H734 0.983 . S
C760 C756 1.684 . S
H761 C779 0.948 . S
H762 C720 0.948 . S
H763 C738 0.979 . S
H764 C738 0.980 . S
H765 C738 0.983 . S
H766 C737 0.982 . S
H767 C737 0.979 . S
H768 C737 0.977 . S
H769 C739 0.948 . S
H770 C741 0.947 . S
H771 C742 0.948 . S
H772 C748 0.982 . S
H773 C748 0.979 . S
H774 C748 0.977 . S
H775 C749 0.979 . S
H776 C749 0.980 . S
H777 C749 0.983 . S
H778 C722 0.947 . S
C779 C722 1.392 . S
C779 C723 1.419 . S
C779 H761 0.948 . S
C780 C781 1.391 . S
C780 C784 1.391 . S
C780 H822 0.948 . S
C781 C780 1.391 . S
C781 C782 1.391 . S
C782 C781 1.391 . S
C782 H838 0.947 . S
C782 C839 1.392 . S
C783 C784 1.391 . S
C783 C787 1.397 . S
C783 C839 1.419 . S
C784 C780 1.391 . S
C784 C783 1.391 . S
C784 C785 1.399 . S
C785 C784 1.399 . S
C785 C788 1.396 . S
C785 C797 1.453 . S
C785 C798 1.684 . S
H786 C810 0.948 . S
C787 C783 1.397 . S
C787 C788 1.394 . S
C787 C806 1.723 . S
C788 C785 1.396 . S
C788 C787 1.394 . S
C788 C818 1.723 . S
H789 C812 0.947 . S
H790 C813 0.948 . S
H791 C819 0.982 . S
H792 C820 0.979 . S
H793 C820 0.980 . S
H794 C820 0.983 . S
H795 C819 0.979 . S
H796 C819 0.977 . S
C797 C785 1.453 . S
C797 H826 0.982 . S
C797 H827 0.979 . S
C797 H828 0.977 . S
C798 C785 1.684 . S
C798 H823 0.979 . S
C798 H824 0.980 . S
C798 H825 0.983 . S
C799 C800 1.391 . S
C799 C804 1.391 . S
C799 H829 0.948 . S
C800 C799 1.391 . S
C800 C801 1.391 . S
C801 C800 1.391 . S
C801 C802 1.392 . S
C801 H830 0.947 . S
C802 C801 1.392 . S
C802 C803 1.419 . S
C802 H831 0.948 . S
C803 C802 1.419 . S
C803 C804 1.391 . S
C803 C807 1.397 . S
C804 C799 1.391 . S
C804 C803 1.391 . S
C804 C805 1.399 . S
C805 C804 1.399 . S
C805 C806 1.396 . S
C805 C808 1.453 . S
C805 C809 1.684 . S
C806 C787 1.723 . S
C806 C805 1.396 . S
C806 C807 1.394 . S
C807 C803 1.397 . S
C807 C806 1.394 . S
C807 C817 1.723 . S
C808 C805 1.453 . S
C808 H832 0.982 . S
C808 H833 0.979 . S
C808 H834 0.977 . S
C809 C805 1.684 . S
C809 H835 0.979 . S
C809 H836 0.980 . S
C809 H837 0.983 . S
C810 H786 0.948 . S
C810 C811 1.391 . S
C810 C815 1.391 . S
C811 C810 1.391 . S
C811 C812 1.391 . S
C812 H789 0.947 . S
C812 C811 1.391 . S
C812 C813 1.392 . S
C813 H790 0.948 . S
C813 C812 1.392 . S
C813 C814 1.419 . S
C814 C813 1.419 . S
C814 C815 1.391 . S
C814 C818 1.397 . S
C815 C810 1.391 . S
C815 C814 1.391 . S
C815 C816 1.399 . S
C816 C815 1.399 . S
C816 C817 1.396 . S
C816 C819 1.453 . S
C816 C820 1.684 . S
C817 C807 1.723 . S
C817 C816 1.396 . S
C817 C818 1.394 . S
C818 C788 1.723 . S
C818 C814 1.397 . S
C818 C817 1.394 . S
C819 H791 0.982 . S
C819 H795 0.979 . S
C819 H796 0.977 . S
C819 C816 1.453 . S
C820 H792 0.979 . S
C820 H793 0.980 . S
C820 H794 0.983 . S
C820 C816 1.684 . S
H821 C839 0.948 . S
H822 C780 0.948 . S
H823 C798 0.979 . S
H824 C798 0.980 . S
H825 C798 0.983 . S
H826 C797 0.982 . S
H827 C797 0.979 . S
H828 C797 0.977 . S
H829 C799 0.948 . S
H830 C801 0.947 . S
H831 C802 0.948 . S
H832 C808 0.982 . S
H833 C808 0.979 . S
H834 C808 0.977 . S
H835 C809 0.979 . S
H836 C809 0.980 . S
H837 C809 0.983 . S
H838 C782 0.947 . S
C839 C782 1.392 . S
C839 C783 1.419 . S
C839 H821 0.948 . S
C840 C841 1.391 . S
C840 C844 1.391 . S
C840 H882 0.948 . S
C841 C840 1.391 . S
C841 C842 1.391 . S
C842 C841 1.391 . S
C842 H898 0.947 . S
C842 C899 1.392 . S
C843 C844 1.391 . S
C843 C847 1.397 . S
C843 C899 1.419 . S
C844 C840 1.391 . S
C844 C843 1.391 . S
C844 C845 1.399 . S
C845 C844 1.399 . S
C845 C848 1.396 . S
C845 C857 1.453 . S
C845 C858 1.684 . S
H846 C870 0.948 . S
C847 C843 1.397 . S
C847 C848 1.394 . S
C847 C866 1.723 . S
C848 C845 1.396 . S
C848 C847 1.394 . S
C848 C878 1.723 . S
H849 C872 0.947 . S
H850 C873 0.948 . S
H851 C879 0.982 . S
H852 C880 0.979 . S
H853 C880 0.980 . S
H854 C880 0.983 . S
H855 C879 0.979 . S
H856 C879 0.977 . S
C857 C845 1.453 . S
C857 H886 0.982 . S
C857 H887 0.979 . S
C857 H888 0.977 . S
C858 C845 1.684 . S
C858 H883 0.979 . S
C858 H884 0.980 . S
C858 H885 0.983 . S
C859 C860 1.391 . S
C859 C864 1.391 . S
C859 H889 0.948 . S
C860 C859 1.391 . S
C860 C861 1.391 . S
C861 C860 1.391 . S
C861 C862 1.392 . S
C861 H890 0.947 . S
C862 C861 1.392 . S
C862 C863 1.419 . S
C862 H891 0.948 . S
C863 C862 1.419 . S
C863 C864 1.391 . S
C863 C867 1.397 . S
C864 C859 1.391 . S
C864 C863 1.391 . S
C864 C865 1.399 . S
C865 C864 1.399 . S
C865 C866 1.396 . S
C865 C868 1.453 . S
C865 C869 1.684 . S
C866 C847 1.723 . S
C866 C865 1.396 . S
C866 C867 1.394 . S
C867 C863 1.397 . S
C867 C866 1.394 . S
C867 C877 1.723 . S
C868 C865 1.453 . S
C868 H892 0.982 . S
C868 H893 0.979 . S
C868 H894 0.977 . S
C869 C865 1.684 . S
C869 H895 0.979 . S
C869 H896 0.980 . S
C869 H897 0.983 . S
C870 H846 0.948 . S
C870 C871 1.391 . S
C870 C875 1.391 . S
C871 C870 1.391 . S
C871 C872 1.391 . S
C872 H849 0.947 . S
C872 C871 1.391 . S
C872 C873 1.392 . S
C873 H850 0.948 . S
C873 C872 1.392 . S
C873 C874 1.419 . S
C874 C873 1.419 . S
C874 C875 1.391 . S
C874 C878 1.397 . S
C875 C870 1.391 . S
C875 C874 1.391 . S
C875 C876 1.399 . S
C876 C875 1.399 . S
C876 C877 1.396 . S
C876 C879 1.453 . S
C876 C880 1.684 . S
C877 C867 1.723 . S
C877 C876 1.396 . S
C877 C878 1.394 . S
C878 C848 1.723 . S
C878 C874 1.397 . S
C878 C877 1.394 . S
C879 H851 0.982 . S
C879 H855 0.979 . S
C879 H856 0.977 . S
C879 C876 1.453 . S
C880 H852 0.979 . S
C880 H853 0.980 . S
C880 H854 0.983 . S
C880 C876 1.684 . S
H881 C899 0.948 . S
H882 C840 0.948 . S
H883 C858 0.979 . S
H884 C858 0.980 . S
H885 C858 0.983 . S
H886 C857 0.982 . S
H887 C857 0.979 . S
H888 C857 0.977 . S
H889 C859 0.948 . S
H890 C861 0.947 . S
H891 C862 0.948 . S
H892 C868 0.982 . S
H893 C868 0.979 . S
H894 C868 0.977 . S
H895 C869 0.979 . S
H896 C869 0.980 . S
H897 C869 0.983 . S
H898 C842 0.947 . S
C899 C842 1.392 . S
C899 C843 1.419 . S
C899 H881 0.948 . S
C900 C901 1.391 . S
C900 C904 1.391 . S
C900 H942 0.948 . S
C901 C900 1.391 . S
C901 C902 1.391 . S
C902 C901 1.391 . S
C902 H958 0.947 . S
C902 C959 1.392 . S
C903 C904 1.391 . S
C903 C907 1.397 . S
C903 C959 1.419 . S
C904 C900 1.391 . S
C904 C903 1.391 . S
C904 C905 1.399 . S
C905 C904 1.399 . S
C905 C908 1.396 . S
C905 C917 1.453 . S
C905 C918 1.684 1_556 S
H906 C930 0.948 . S
C907 C903 1.397 . S
C907 C908 1.394 . S
C907 C926 1.723 . S
C908 C905 1.396 . S
C908 C907 1.394 . S
C908 C938 1.723 . S
H909 C932 0.947 . S
H910 C933 0.948 . S
H911 C939 0.982 . S
H912 C940 0.979 . S
H913 C940 0.980 . S
H914 C940 0.983 . S
H915 C939 0.979 . S
H916 C939 0.977 . S
C917 C905 1.453 . S
C917 H946 0.982 . S
C917 H947 0.979 . S
C917 H948 0.977 . S
C918 C905 1.684 1_554 S
C918 H943 0.979 . S
C918 H944 0.980 . S
C918 H945 0.983 . S
C919 C920 1.391 . S
C919 C924 1.391 . S
C919 H949 0.948 . S
C920 C919 1.391 . S
C920 C921 1.391 . S
C921 C920 1.391 . S
C921 C922 1.392 . S
C921 H950 0.947 . S
C922 C921 1.392 . S
C922 C923 1.419 . S
C922 H951 0.948 . S
C923 C922 1.419 . S
C923 C924 1.391 . S
C923 C927 1.397 . S
C924 C919 1.391 . S
C924 C923 1.391 . S
C924 C925 1.399 . S
C925 C924 1.399 . S
C925 C926 1.396 . S
C925 C928 1.453 . S
C925 C929 1.684 . S
C926 C907 1.723 . S
C926 C925 1.396 . S
C926 C927 1.394 . S
C927 C923 1.397 . S
C927 C926 1.394 . S
C927 C937 1.723 . S
C928 C925 1.453 . S
C928 H952 0.982 . S
C928 H953 0.979 . S
C928 H954 0.977 . S
C929 C925 1.684 . S
C929 H955 0.979 . S
C929 H956 0.980 . S
C929 H957 0.983 . S
C930 H906 0.948 . S
C930 C931 1.391 1_556 S
C930 C935 1.391 . S
C931 C930 1.391 1_554 S
C931 C932 1.391 . S
C932 H909 0.947 . S
C932 C931 1.391 . S
C932 C933 1.392 . S
C933 H910 0.948 . S
C933 C932 1.392 . S
C933 C934 1.419 1_554 S
C934 C933 1.419 1_556 S
C934 C935 1.391 . S
C934 C938 1.397 . S
C935 C930 1.391 . S
C935 C934 1.391 . S
C935 C936 1.399 . S
C936 C935 1.399 . S
C936 C937 1.396 . S
C936 C939 1.453 . S
C936 C940 1.684 . S
C937 C927 1.723 . S
C937 C936 1.396 . S
C937 C938 1.394 . S
C938 C908 1.723 . S
C938 C934 1.397 . S
C938 C937 1.394 . S
C939 H911 0.982 . S
C939 H915 0.979 . S
C939 H916 0.977 . S
C939 C936 1.453 . S
C940 H912 0.979 . S
C940 H913 0.980 . S
C940 H914 0.983 . S
C940 C936 1.684 . S
H941 C959 0.948 . S
H942 C900 0.948 . S
H943 C918 0.979 . S
H944 C918 0.980 . S
H945 C918 0.983 . S
H946 C917 0.982 . S
H947 C917 0.979 . S
H948 C917 0.977 . S
H949 C919 0.948 . S
H950 C921 0.947 . S
H951 C922 0.948 . S
H952 C928 0.982 . S
H953 C928 0.979 . S
H954 C928 0.977 . S
H955 C929 0.979 . S
H956 C929 0.980 . S
H957 C929 0.983 . S
H958 C902 0.947 . S
C959 C902 1.392 . S
C959 C903 1.419 . S
C959 H941 0.948 . S
O960 Cd961 2.223 . S
O960 C968 1.315 . S
Cd961 O960 2.223 . S
Cd961 O964 2.297 . S
Cd961 O965 2.439 . S
Cd961 O971 2.240 . S
Cd962 O963 2.240 . S
Cd962 O970 2.223 . S
Cd962 O972 2.297 . S
Cd962 O973 2.439 . S
O963 Cd962 2.240 . S
O963 C968 1.279 . S
O964 Cd961 2.297 . S
O964 C966 1.247 . S
O965 Cd961 2.439 . S
O965 C966 1.208 . S
C966 O964 1.247 . S
C966 O965 1.208 . S
C967 O972 1.247 . S
C967 O973 1.208 . S
C968 O960 1.315 . S
C968 O963 1.279 . S
C969 O970 1.315 . S
C969 O971 1.279 . S
O970 Cd962 2.223 . S
O970 C969 1.315 . S
O971 Cd961 2.240 . S
O971 C969 1.279 . S
O972 Cd962 2.297 . S
O972 C967 1.247 . S
O973 Cd962 2.439 . S
O973 C967 1.208 . S
O974 Cd975 2.223 . S
O974 C982 1.315 . S
Cd975 O974 2.223 . S
Cd975 O978 2.297 . S
Cd975 O979 2.439 . S
Cd975 O985 2.240 . S
Cd976 O977 2.240 . S
Cd976 O984 2.223 . S
Cd976 O986 2.297 . S
Cd976 O987 2.439 . S
O977 Cd976 2.240 . S
O977 C982 1.279 . S
O978 Cd975 2.297 . S
O978 C980 1.247 . S
O979 Cd975 2.439 . S
O979 C980 1.208 . S
C980 O978 1.247 . S
C980 O979 1.208 . S
C981 O986 1.247 . S
C981 O987 1.208 . S
C982 O974 1.315 . S
C982 O977 1.279 . S
C983 O984 1.315 . S
C983 O985 1.279 . S
O984 Cd976 2.223 . S
O984 C983 1.315 . S
O985 Cd975 2.240 . S
O985 C983 1.279 . S
O986 Cd976 2.297 . S
O986 C981 1.247 . S
O987 Cd976 2.439 . S
O987 C981 1.208 . S
O988 Cd989 2.223 1_556 S
O988 C996 1.315 . S
Cd989 O988 2.223 1_554 S
Cd989 O992 2.297 . S
Cd989 O993 2.439 . S
Cd989 O999 2.240 . S
Cd990 O991 2.240 . S
Cd990 O998 2.223 . S
Cd990 O1000 2.282 1_556 S
Cd990 O1001 2.439 1_556 S
O991 Cd990 2.240 . S
O991 C996 1.279 . S
O992 Cd989 2.297 . S
O992 C994 1.247 . S
O993 Cd989 2.439 . S
O993 C994 1.208 . S
C994 O992 1.247 . S
C994 O993 1.208 . S
C995 O1000 1.288 . S
C995 O1001 1.208 . S
C996 O988 1.315 . S
C996 O991 1.279 . S
C997 O998 1.315 . S
C997 O999 1.279 1_556 S
O998 Cd990 2.223 . S
O998 C997 1.315 . S
O999 Cd989 2.240 . S
O999 C997 1.279 1_554 S
O1000 Cd990 2.282 1_554 S
O1000 C995 1.288 . S
O1001 Cd990 2.439 1_554 S
O1001 C995 1.208 . S
O1002 Cd1003 2.223 . S
O1002 C1010 1.315 . S
Cd1003 O1002 2.223 . S
Cd1003 O1006 2.297 . S
Cd1003 O1007 2.439 . S
Cd1003 O1013 2.240 . S
Cd1004 O1005 2.240 . S
Cd1004 O1012 2.223 . S
Cd1004 O1014 2.297 . S
Cd1004 O1015 2.439 . S
O1005 Cd1004 2.240 . S
O1005 C1010 1.279 . S
O1006 Cd1003 2.297 . S
O1006 C1008 1.247 . S
O1007 Cd1003 2.439 . S
O1007 C1008 1.208 . S
C1008 O1006 1.247 . S
C1008 O1007 1.208 . S
C1009 O1014 1.247 . S
C1009 O1015 1.208 . S
C1010 O1002 1.315 . S
C1010 O1005 1.279 . S
C1011 O1012 1.315 . S
C1011 O1013 1.279 . S
O1012 Cd1004 2.223 . S
O1012 C1011 1.315 . S
O1013 Cd1003 2.240 . S
O1013 C1011 1.279 . S
O1014 Cd1004 2.297 . S
O1014 C1009 1.247 . S
O1015 Cd1004 2.439 . S
O1015 C1009 1.208 . S
O1016 Cd1017 2.223 . S
O1016 C1024 1.315 . S
Cd1017 O1016 2.223 . S
Cd1017 O1020 2.297 . S
Cd1017 O1021 2.439 . S
Cd1017 O1027 2.240 . S
Cd1018 O1019 2.240 . S
Cd1018 O1026 2.223 . S
Cd1018 O1028 2.297 . S
Cd1018 O1029 2.439 . S
O1019 Cd1018 2.240 . S
O1019 C1024 1.279 . S
O1020 Cd1017 2.297 . S
O1020 C1022 1.247 . S
O1021 Cd1017 2.439 . S
O1021 C1022 1.208 . S
C1022 O1020 1.247 . S
C1022 O1021 1.208 . S
C1023 O1028 1.247 . S
C1023 O1029 1.208 . S
C1024 O1016 1.315 . S
C1024 O1019 1.279 . S
C1025 O1026 1.315 . S
C1025 O1027 1.279 . S
O1026 Cd1018 2.223 . S
O1026 C1025 1.315 . S
O1027 Cd1017 2.240 . S
O1027 C1025 1.279 . S
O1028 Cd1018 2.297 . S
O1028 C1023 1.247 . S
O1029 Cd1018 2.439 . S
O1029 C1023 1.208 . S
O1030 Cd1031 2.223 . S
O1030 C1038 1.315 . S
Cd1031 O1030 2.223 . S
Cd1031 O1034 2.297 . S
Cd1031 O1035 2.439 . S
Cd1031 O1041 2.240 . S
Cd1032 O1033 2.240 . S
Cd1032 O1040 2.223 . S
Cd1032 O1042 2.297 . S
Cd1032 O1043 2.439 . S
O1033 Cd1032 2.240 . S
O1033 C1038 1.279 . S
O1034 Cd1031 2.297 . S
O1034 C1036 1.247 . S
O1035 Cd1031 2.439 . S
O1035 C1036 1.208 . S
C1036 O1034 1.247 . S
C1036 O1035 1.208 . S
C1037 O1042 1.247 . S
C1037 O1043 1.208 . S
C1038 O1030 1.315 . S
C1038 O1033 1.279 . S
C1039 O1040 1.315 . S
C1039 O1041 1.279 . S
O1040 Cd1032 2.223 . S
O1040 C1039 1.315 . S
O1041 Cd1031 2.240 . S
O1041 C1039 1.279 . S
O1042 Cd1032 2.297 . S
O1042 C1037 1.247 . S
O1043 Cd1032 2.439 . S
O1043 C1037 1.208 . S
O1044 Cd1045 2.223 . S
O1044 C1052 1.315 . S
Cd1045 O1044 2.223 . S
Cd1045 O1048 2.297 . S
Cd1045 O1049 2.439 . S
Cd1045 O1055 2.240 . S
Cd1046 O1047 2.240 . S
Cd1046 O1054 2.223 . S
Cd1046 O1056 2.297 . S
Cd1046 O1057 2.439 . S
O1047 Cd1046 2.240 . S
O1047 C1052 1.279 . S
O1048 Cd1045 2.297 . S
O1048 C1050 1.247 . S
O1049 Cd1045 2.439 . S
O1049 C1050 1.208 . S
C1050 O1048 1.247 . S
C1050 O1049 1.208 . S
C1051 O1056 1.247 . S
C1051 O1057 1.208 . S
C1052 O1044 1.315 . S
C1052 O1047 1.279 . S
C1053 O1054 1.315 . S
C1053 O1055 1.279 . S
O1054 Cd1046 2.223 . S
O1054 C1053 1.315 . S
O1055 Cd1045 2.240 . S
O1055 C1053 1.279 . S
O1056 Cd1046 2.297 . S
O1056 C1051 1.247 . S
O1057 Cd1046 2.439 . S
O1057 C1051 1.208 . S
O1058 Cd1059 2.223 1_545 S
O1058 C1066 1.315 . S
Cd1059 O1058 2.223 1_565 S
Cd1059 O1062 2.297 . S
Cd1059 O1063 2.439 . S
Cd1059 O1069 2.240 1_565 S
Cd1060 O1061 2.240 . S
Cd1060 O1068 2.223 . S
Cd1060 O1070 2.297 . S
Cd1060 O1071 2.439 1_545 S
O1061 Cd1060 2.240 . S
O1061 C1066 1.279 . S
O1062 Cd1059 2.297 . S
O1062 C1064 1.247 . S
O1063 Cd1059 2.439 . S
O1063 C1064 1.208 . S
C1064 O1062 1.247 . S
C1064 O1063 1.208 . S
C1065 O1070 1.247 1_565 S
C1065 O1071 1.208 . S
C1066 O1058 1.315 . S
C1066 O1061 1.279 . S
C1067 O1068 1.315 . S
C1067 O1069 1.279 . S
O1068 Cd1060 2.223 . S
O1068 C1067 1.315 . S
O1069 Cd1059 2.240 1_545 S
O1069 C1067 1.279 . S
O1070 Cd1060 2.297 . S
O1070 C1065 1.247 1_545 S
O1071 Cd1060 2.439 1_565 S
O1071 C1065 1.208 . S
O1072 Cd1073 2.223 . S
O1072 C1080 1.315 . S
Cd1073 O1072 2.223 . S
Cd1073 O1076 2.297 1_655 S
Cd1073 O1077 2.439 1_655 S
Cd1073 O1083 2.240 . S
Cd1074 O1075 2.240 . S
Cd1074 O1082 2.223 1_455 S
Cd1074 O1084 2.297 . S
Cd1074 O1085 2.439 . S
O1075 Cd1074 2.240 . S
O1075 C1080 1.279 1_455 S
O1076 Cd1073 2.297 1_455 S
O1076 C1078 1.247 . S
O1077 Cd1073 2.439 1_455 S
O1077 C1078 1.208 . S
C1078 O1076 1.247 . S
C1078 O1077 1.208 . S
C1079 O1084 1.247 . S
C1079 O1085 1.208 . S
C1080 O1072 1.315 . S
C1080 O1075 1.279 1_655 S
C1081 O1082 1.315 . S
C1081 O1083 1.279 . S
O1082 Cd1074 2.223 1_655 S
O1082 C1081 1.315 . S
O1083 Cd1073 2.240 . S
O1083 C1081 1.279 . S
O1084 Cd1074 2.297 . S
O1084 C1079 1.247 . S
O1085 Cd1074 2.439 . S
O1085 C1079 1.208 . S
O1086 Cd1087 2.223 . S
O1086 C1094 1.315 . S
Cd1087 O1086 2.223 . S
Cd1087 O1090 2.297 . S
Cd1087 O1091 2.439 . S
Cd1087 O1097 2.240 . S
Cd1088 O1089 2.240 . S
Cd1088 O1096 2.223 . S
Cd1088 O1098 2.297 . S
Cd1088 O1099 2.439 . S
O1089 Cd1088 2.240 . S
O1089 C1094 1.279 . S
O1090 Cd1087 2.297 . S
O1090 C1092 1.247 . S
O1091 Cd1087 2.439 . S
O1091 C1092 1.208 . S
C1092 O1090 1.247 . S
C1092 O1091 1.208 . S
C1093 O1098 1.247 . S
C1093 O1099 1.208 . S
C1094 O1086 1.315 . S
C1094 O1089 1.279 . S
C1095 O1096 1.315 . S
C1095 O1097 1.279 . S
O1096 Cd1088 2.223 . S
O1096 C1095 1.315 . S
O1097 Cd1087 2.240 . S
O1097 C1095 1.279 . S
O1098 Cd1088 2.297 . S
O1098 C1093 1.247 . S
O1099 Cd1088 2.439 . S
O1099 C1093 1.208 . S
O1100 Cd1101 2.223 1_655 S
O1100 C1108 1.315 . S
Cd1101 O1100 2.223 1_455 S
Cd1101 O1104 2.297 . S
Cd1101 O1105 2.439 . S
Cd1101 O1111 2.240 . S
Cd1102 O1103 2.240 . S
Cd1102 O1110 2.223 . S
Cd1102 O1112 2.297 1_655 S
Cd1102 O1113 2.439 1_655 S
O1103 Cd1102 2.240 . S
O1103 C1108 1.279 . S
O1104 Cd1101 2.297 . S
O1104 C1106 1.247 . S
O1105 Cd1101 2.439 . S
O1105 C1106 1.208 . S
C1106 O1104 1.247 . S
C1106 O1105 1.208 . S
C1107 O1112 1.247 . S
C1107 O1113 1.208 . S
C1108 O1100 1.315 . S
C1108 O1103 1.279 . S
C1109 O1110 1.315 . S
C1109 O1111 1.279 1_655 S
O1110 Cd1102 2.223 . S
O1110 C1109 1.315 . S
O1111 Cd1101 2.240 . S
O1111 C1109 1.279 1_455 S
O1112 Cd1102 2.297 1_455 S
O1112 C1107 1.247 . S
O1113 Cd1102 2.439 1_455 S
O1113 C1107 1.208 . S
O1114 Cd1115 2.223 . S
O1114 C1122 1.315 . S
Cd1115 O1114 2.223 . S
Cd1115 O1118 2.297 . S
Cd1115 O1119 2.439 . S
Cd1115 O1125 2.240 . S
Cd1116 O1117 2.240 . S
Cd1116 O1124 2.223 . S
Cd1116 O1126 2.297 . S
Cd1116 O1127 2.439 . S
O1117 Cd1116 2.240 . S
O1117 C1122 1.279 . S
O1118 Cd1115 2.297 . S
O1118 C1120 1.247 . S
O1119 Cd1115 2.439 . S
O1119 C1120 1.208 . S
C1120 O1118 1.247 . S
C1120 O1119 1.208 . S
C1121 O1126 1.247 . S
C1121 O1127 1.208 . S
C1122 O1114 1.315 . S
C1122 O1117 1.279 . S
C1123 O1124 1.315 . S
C1123 O1125 1.279 . S
O1124 Cd1116 2.223 . S
O1124 C1123 1.315 . S
O1125 Cd1115 2.240 . S
O1125 C1123 1.279 . S
O1126 Cd1116 2.297 . S
O1126 C1121 1.247 . S
O1127 Cd1116 2.439 . S
O1127 C1121 1.208 . S
C1128 C1129 1.369 . S
C1128 C1130 1.419 . S
C1128 H1132 0.930 . S
C1129 C1128 1.369 . S
C1129 C1138 1.429 . S
C1130 C1128 1.419 . S
C1130 C1131 1.363 . S
C1130 H1133 0.929 . S
C1131 C1130 1.363 . S
C1131 C1137 1.428 . S
H1132 C1128 0.930 . S
H1133 C1130 0.929 . S
S1134 N1135 1.613 . S
S1134 N1136 1.611 . S
N1135 S1134 1.613 . S
N1135 C1138 1.350 . S
N1136 S1134 1.611 . S
N1136 C1137 1.352 . S
C1137 C1131 1.428 . S
C1137 N1136 1.352 . S
C1137 C1138 1.434 . S
C1138 C1129 1.429 . S
C1138 N1135 1.350 . S
C1138 C1137 1.434 . S
C1139 C1140 1.369 . S
C1139 C1141 1.419 . S
C1139 H1143 0.930 . S
C1140 C1139 1.369 . S
C1140 C1149 1.429 . S
C1141 C1139 1.419 . S
C1141 C1142 1.363 . S
C1141 H1144 0.929 . S
C1142 C1141 1.363 . S
C1142 C1148 1.428 . S
H1143 C1139 0.930 . S
H1144 C1141 0.929 . S
S1145 N1146 1.613 . S
S1145 N1147 1.610 . S
N1146 S1145 1.613 . S
N1146 C1149 1.350 . S
N1147 S1145 1.610 . S
N1147 C1148 1.351 . S
C1148 C1142 1.428 . S
C1148 N1147 1.351 . S
C1148 C1149 1.434 . S
C1149 C1140 1.429 . S
C1149 N1146 1.350 . S
C1149 C1148 1.434 . S
C1150 C1151 1.369 . S
C1150 C1152 1.419 . S
C1150 H1154 0.930 . S
C1151 C1150 1.369 . S
C1151 C1160 1.429 . S
C1152 C1150 1.419 . S
C1152 C1153 1.363 . S
C1152 H1155 0.929 . S
C1153 C1152 1.363 . S
C1153 C1159 1.428 . S
H1154 C1150 0.930 . S
H1155 C1152 0.929 . S
S1156 N1157 1.613 . S
S1156 N1158 1.610 . S
N1157 S1156 1.613 . S
N1157 C1160 1.350 . S
N1158 S1156 1.610 . S
N1158 C1159 1.351 . S
C1159 C1153 1.428 . S
C1159 N1158 1.351 . S
C1159 C1160 1.434 . S
C1160 C1151 1.429 . S
C1160 N1157 1.350 . S
C1160 C1159 1.434 . S
C1161 C1162 1.369 . S
C1161 C1163 1.419 . S
C1161 H1165 0.930 . S
C1162 C1161 1.369 . S
C1162 C1171 1.429 1_565 S
C1163 C1161 1.419 . S
C1163 C1164 1.363 1_565 S
C1163 H1166 0.929 . S
C1164 C1163 1.363 1_545 S
C1164 C1170 1.428 . S
H1165 C1161 0.930 . S
H1166 C1163 0.929 . S
S1167 N1168 1.613 . S
S1167 N1169 1.610 1_455 S
N1168 S1167 1.613 . S
N1168 C1171 1.350 1_455 S
N1169 S1167 1.610 1_655 S
N1169 C1170 1.351 . S
C1170 C1164 1.428 . S
C1170 N1169 1.351 . S
C1170 C1171 1.434 . S
C1171 C1162 1.429 1_545 S
C1171 N1168 1.350 1_655 S
C1171 C1170 1.434 . S
C1172 C1173 1.369 . S
C1172 C1174 1.419 . S
C1172 H1176 0.930 . S
C1173 C1172 1.369 . S
C1173 C1182 1.429 . S
C1174 C1172 1.419 . S
C1174 C1175 1.363 . S
C1174 H1177 0.929 . S
C1175 C1174 1.363 . S
C1175 C1181 1.428 . S
H1176 C1172 0.930 . S
H1177 C1174 0.929 . S
S1178 N1179 1.613 . S
S1178 N1180 1.610 . S
N1179 S1178 1.613 . S
N1179 C1182 1.350 . S
N1180 S1178 1.610 . S
N1180 C1181 1.351 . S
C1181 C1175 1.428 . S
C1181 N1180 1.351 . S
C1181 C1182 1.434 . S
C1182 C1173 1.429 . S
C1182 N1179 1.350 . S
C1182 C1181 1.434 . S
C1183 C1184 1.369 . S
C1183 C1185 1.419 . S
C1183 H1187 0.930 . S
C1184 C1183 1.369 . S
C1184 C1193 1.429 . S
C1185 C1183 1.419 . S
C1185 C1186 1.363 . S
C1185 H1188 0.929 . S
C1186 C1185 1.363 . S
C1186 C1192 1.428 . S
H1187 C1183 0.930 . S
H1188 C1185 0.929 . S
S1189 N1190 1.613 . S
S1189 N1191 1.610 . S
N1190 S1189 1.613 . S
N1190 C1193 1.350 . S
N1191 S1189 1.610 . S
N1191 C1192 1.351 . S
C1192 C1186 1.428 . S
C1192 N1191 1.351 . S
C1192 C1193 1.434 . S
C1193 C1184 1.429 . S
C1193 N1190 1.350 . S
C1193 C1192 1.434 . S
C1194 C1195 1.369 . S
C1194 C1196 1.419 . S
C1194 H1198 0.930 . S
C1195 C1194 1.369 . S
C1195 C1204 1.429 . S
C1196 C1194 1.419 . S
C1196 C1197 1.363 . S
C1196 H1199 0.929 . S
C1197 C1196 1.363 . S
C1197 C1203 1.428 . S
H1198 C1194 0.930 . S
H1199 C1196 0.929 . S
S1200 N1201 1.613 . S
S1200 N1202 1.610 . S
N1201 S1200 1.613 . S
N1201 C1204 1.350 . S
N1202 S1200 1.610 . S
N1202 C1203 1.351 . S
C1203 C1197 1.428 . S
C1203 N1202 1.351 . S
C1203 C1204 1.434 . S
C1204 C1195 1.429 . S
C1204 N1201 1.350 . S
C1204 C1203 1.434 . S
C1205 C1206 1.369 . S
C1205 C1207 1.419 . S
C1205 H1209 0.930 . S
C1206 C1205 1.369 . S
C1206 C1215 1.429 . S
C1207 C1205 1.419 . S
C1207 C1208 1.363 . S
C1207 H1210 0.929 . S
C1208 C1207 1.363 . S
C1208 C1214 1.428 . S
H1209 C1205 0.930 . S
H1210 C1207 0.929 . S
S1211 N1212 1.613 . S
S1211 N1213 1.610 . S
N1212 S1211 1.613 . S
N1212 C1215 1.350 . S
N1213 S1211 1.610 . S
N1213 C1214 1.351 . S
C1214 C1208 1.428 . S
C1214 N1213 1.351 . S
C1214 C1215 1.434 . S
C1215 C1206 1.429 . S
C1215 N1212 1.350 . S
C1215 C1214 1.434 . S
C1216 C1217 1.369 . S
C1216 C1218 1.419 . S
C1216 H1220 0.930 . S
C1217 C1216 1.369 . S
C1217 C1226 1.429 . S
C1218 C1216 1.419 . S
C1218 C1219 1.363 . S
C1218 H1221 0.929 . S
C1219 C1218 1.363 . S
C1219 C1225 1.428 . S
H1220 C1216 0.930 . S
H1221 C1218 0.929 . S
S1222 N1223 1.613 . S
S1222 N1224 1.610 . S
N1223 S1222 1.613 . S
N1223 C1226 1.350 . S
N1224 S1222 1.610 . S
N1224 C1225 1.351 . S
C1225 C1219 1.428 . S
C1225 N1224 1.351 . S
C1225 C1226 1.434 . S
C1226 C1217 1.429 . S
C1226 N1223 1.350 . S
C1226 C1225 1.434 . S
C1227 C1228 1.369 . S
C1227 C1229 1.419 . S
C1227 H1231 0.930 . S
C1228 C1227 1.369 . S
C1228 C1237 1.429 . S
C1229 C1227 1.419 . S
C1229 C1230 1.363 . S
C1229 H1232 0.929 . S
C1230 C1229 1.363 . S
C1230 C1236 1.428 . S
H1231 C1227 0.930 . S
H1232 C1229 0.929 . S
S1233 N1234 1.613 . S
S1233 N1235 1.610 . S
N1234 S1233 1.613 . S
N1234 C1237 1.350 . S
N1235 S1233 1.610 . S
N1235 C1236 1.351 . S
C1236 C1230 1.428 . S
C1236 N1235 1.351 . S
C1236 C1237 1.434 . S
C1237 C1228 1.429 . S
C1237 N1234 1.350 . S
C1237 C1236 1.434 . S
C1238 C1239 1.369 . S
C1238 C1240 1.419 . S
C1238 H1242 0.930 . S
C1239 C1238 1.369 . S
C1239 C1248 1.429 . S
C1240 C1238 1.419 . S
C1240 C1241 1.363 . S
C1240 H1243 0.929 . S
C1241 C1240 1.363 . S
C1241 C1247 1.428 . S
H1242 C1238 0.930 . S
H1243 C1240 0.929 . S
S1244 N1245 1.613 . S
S1244 N1246 1.610 . S
N1245 S1244 1.613 . S
N1245 C1248 1.350 . S
N1246 S1244 1.610 . S
N1246 C1247 1.351 . S
C1247 C1241 1.428 . S
C1247 N1246 1.351 . S
C1247 C1248 1.434 . S
C1248 C1239 1.429 . S
C1248 N1245 1.350 . S
C1248 C1247 1.434 . S
C1249 C1250 1.369 . S
C1249 C1251 1.419 . S
C1249 H1253 0.930 . S
C1250 C1249 1.369 . S
C1250 C1259 1.429 . S
C1251 C1249 1.419 . S
C1251 C1252 1.363 . S
C1251 H1254 0.929 . S
C1252 C1251 1.363 . S
C1252 C1258 1.428 . S
H1253 C1249 0.930 . S
H1254 C1251 0.929 . S
S1255 N1256 1.613 . S
S1255 N1257 1.610 . S
N1256 S1255 1.613 . S
N1256 C1259 1.350 . S
N1257 S1255 1.610 . S
N1257 C1258 1.351 . S
C1258 C1252 1.428 . S
C1258 N1257 1.351 . S
C1258 C1259 1.434 . S
C1259 C1250 1.429 . S
C1259 N1256 1.350 . S
C1259 C1258 1.434 . S
C1260 C1261 1.369 . S
C1260 C1262 1.419 . S
C1260 H1264 0.930 . S
C1261 C1260 1.369 . S
C1261 C1270 1.429 . S
C1262 C1260 1.419 . S
C1262 C1263 1.363 . S
C1262 H1265 0.929 . S
C1263 C1262 1.363 . S
C1263 C1269 1.428 . S
H1264 C1260 0.930 . S
H1265 C1262 0.929 . S
S1266 N1267 1.613 . S
S1266 N1268 1.610 . S
N1267 S1266 1.613 . S
N1267 C1270 1.350 . S
N1268 S1266 1.610 . S
N1268 C1269 1.351 . S
C1269 C1263 1.428 . S
C1269 N1268 1.351 . S
C1269 C1270 1.434 . S
C1270 C1261 1.429 . S
C1270 N1267 1.350 . S
C1270 C1269 1.434 . S
C1271 C1272 1.369 . S
C1271 C1273 1.419 . S
C1271 H1275 0.930 . S
C1272 C1271 1.369 . S
C1272 C1281 1.429 . S
C1273 C1271 1.419 . S
C1273 C1274 1.363 . S
C1273 H1276 0.929 . S
C1274 C1273 1.363 . S
C1274 C1280 1.428 . S
H1275 C1271 0.930 . S
H1276 C1273 0.929 . S
S1277 N1278 1.613 . S
S1277 N1279 1.610 . S
N1278 S1277 1.613 . S
N1278 C1281 1.350 . S
N1279 S1277 1.610 . S
N1279 C1280 1.351 . S
C1280 C1274 1.428 . S
C1280 N1279 1.351 . S
C1280 C1281 1.434 . S
C1281 C1272 1.429 . S
C1281 N1278 1.350 . S
C1281 C1280 1.434 . S
C1282 C1283 1.369 . S
C1282 C1284 1.419 . S
C1282 H1286 0.930 . S
C1283 C1282 1.369 . S
C1283 C1292 1.429 . S
C1284 C1282 1.419 . S
C1284 C1285 1.363 . S
C1284 H1287 0.929 . S
C1285 C1284 1.363 . S
C1285 C1291 1.428 . S
H1286 C1282 0.930 . S
H1287 C1284 0.929 . S
S1288 N1289 1.613 . S
S1288 N1290 1.610 . S
N1289 S1288 1.613 . S
N1289 C1292 1.350 . S
N1290 S1288 1.610 . S
N1290 C1291 1.351 . S
C1291 C1285 1.428 . S
C1291 N1290 1.351 . S
C1291 C1292 1.434 . S
C1292 C1283 1.429 . S
C1292 N1289 1.350 . S
C1292 C1291 1.434 . S
C1293 C1294 1.369 . S
C1293 C1295 1.419 . S
C1293 H1297 0.930 . S
C1294 C1293 1.369 . S
C1294 C1303 1.429 . S
C1295 C1293 1.419 . S
C1295 C1296 1.363 . S
C1295 H1298 0.929 . S
C1296 C1295 1.363 . S
C1296 C1302 1.428 . S
H1297 C1293 0.930 . S
H1298 C1295 0.929 . S
S1299 N1300 1.613 . S
S1299 N1301 1.610 . S
N1300 S1299 1.613 . S
N1300 C1303 1.350 . S
N1301 S1299 1.610 . S
N1301 C1302 1.351 . S
C1302 C1296 1.428 . S
C1302 N1301 1.351 . S
C1302 C1303 1.434 . S
C1303 C1294 1.429 . S
C1303 N1300 1.350 . S
C1303 C1302 1.434 . S
C1304 C1305 1.369 . S
C1304 C1306 1.419 . S
C1304 H1308 0.930 . S
C1305 C1304 1.369 . S
C1305 C1314 1.429 . S
C1306 C1304 1.419 . S
C1306 C1307 1.363 . S
C1306 H1309 0.929 . S
C1307 C1306 1.363 . S
C1307 C1313 1.428 . S
H1308 C1304 0.930 . S
H1309 C1306 0.929 . S
S1310 N1311 1.613 1_545 S
S1310 N1312 1.610 . S
N1311 S1310 1.613 1_565 S
N1311 C1314 1.350 . S
N1312 S1310 1.610 . S
N1312 C1313 1.351 1_545 S
C1313 C1307 1.428 . S
C1313 N1312 1.351 1_565 S
C1313 C1314 1.434 . S
C1314 C1305 1.429 . S
C1314 N1311 1.350 . S
C1314 C1313 1.434 . S
C1315 C1316 1.369 . S
C1315 C1317 1.419 . S
C1315 H1319 0.930 . S
C1316 C1315 1.369 . S
C1316 C1325 1.429 . S
C1317 C1315 1.419 . S
C1317 C1318 1.363 . S
C1317 H1320 0.929 . S
C1318 C1317 1.363 . S
C1318 C1324 1.428 . S
H1319 C1315 0.930 . S
H1320 C1317 0.929 . S
S1321 N1322 1.613 . S
S1321 N1323 1.610 . S
N1322 S1321 1.613 . S
N1322 C1325 1.350 . S
N1323 S1321 1.610 . S
N1323 C1324 1.351 . S
C1324 C1318 1.428 . S
C1324 N1323 1.351 . S
C1324 C1325 1.434 . S
C1325 C1316 1.429 . S
C1325 N1322 1.350 . S
C1325 C1324 1.434 . S
C1326 C1327 1.369 1_565 S
C1326 C1328 1.419 1_556 S
C1326 H1330 0.930 . S
C1327 C1326 1.369 1_545 S
C1327 C1336 1.429 . S
C1328 C1326 1.419 1_554 S
C1328 C1329 1.363 . S
C1328 H1331 0.929 . S
C1329 C1328 1.363 . S
C1329 C1335 1.428 1_554 S
H1330 C1326 0.930 . S
H1331 C1328 0.929 . S
S1332 N1333 1.613 . S
S1332 N1334 1.610 1_545 S
N1333 S1332 1.613 . S
N1333 C1336 1.350 . S
N1334 S1332 1.610 1_565 S
N1334 C1335 1.351 . S
C1335 C1329 1.428 1_556 S
C1335 N1334 1.351 . S
C1335 C1336 1.434 1_565 S
C1336 C1327 1.429 . S
C1336 N1333 1.350 . S
C1336 C1335 1.434 1_545 S
C1337 C1338 1.369 . S
C1337 C1339 1.419 . S
C1337 H1341 0.930 . S
C1338 C1337 1.369 . S
C1338 C1347 1.429 . S
C1339 C1337 1.419 . S
C1339 C1340 1.363 . S
C1339 H1342 0.929 . S
C1340 C1339 1.363 . S
C1340 C1346 1.428 . S
H1341 C1337 0.930 . S
H1342 C1339 0.929 . S
S1343 N1344 1.613 . S
S1343 N1345 1.610 . S
N1344 S1343 1.613 . S
N1344 C1347 1.350 . S
N1345 S1343 1.610 . S
N1345 C1346 1.351 . S
C1346 C1340 1.428 . S
C1346 N1345 1.351 . S
C1346 C1347 1.434 . S
C1347 C1338 1.429 . S
C1347 N1344 1.350 . S
C1347 C1346 1.434 . S
C1348 C1349 1.369 . S
C1348 C1350 1.419 . S
C1348 H1352 0.930 . S
C1349 C1348 1.369 . S
C1349 C1358 1.429 . S
C1350 C1348 1.419 . S
C1350 C1351 1.363 . S
C1350 H1353 0.929 . S
C1351 C1350 1.363 . S
C1351 C1357 1.428 . S
H1352 C1348 0.930 . S
H1353 C1350 0.929 . S
S1354 N1355 1.613 . S
S1354 N1356 1.610 . S
N1355 S1354 1.613 . S
N1355 C1358 1.350 . S
N1356 S1354 1.610 . S
N1356 C1357 1.351 . S
C1357 C1351 1.428 . S
C1357 N1356 1.351 . S
C1357 C1358 1.434 . S
C1358 C1349 1.429 . S
C1358 N1355 1.350 . S
C1358 C1357 1.434 . S
C1359 C1360 1.369 . S
C1359 C1361 1.419 . S
C1359 H1363 0.930 . S
C1360 C1359 1.369 . S
C1360 C1369 1.429 . S
C1361 C1359 1.419 . S
C1361 C1362 1.363 . S
C1361 H1364 0.929 . S
C1362 C1361 1.363 . S
C1362 C1368 1.428 . S
H1363 C1359 0.930 . S
H1364 C1361 0.929 . S
S1365 N1366 1.613 . S
S1365 N1367 1.610 . S
N1366 S1365 1.613 . S
N1366 C1369 1.350 . S
N1367 S1365 1.610 . S
N1367 C1368 1.351 . S
C1368 C1362 1.428 . S
C1368 N1367 1.351 . S
C1368 C1369 1.434 . S
C1369 C1360 1.429 . S
C1369 N1366 1.350 . S
C1369 C1368 1.434 . S
C1370 C1371 1.369 . S
C1370 C1372 1.419 . S
C1370 H1374 0.930 . S
C1371 C1370 1.369 . S
C1371 C1380 1.429 . S
C1372 C1370 1.419 . S
C1372 C1373 1.363 . S
C1372 H1375 0.929 . S
C1373 C1372 1.363 . S
C1373 C1379 1.428 . S
H1374 C1370 0.930 . S
H1375 C1372 0.929 . S
S1376 N1377 1.613 . S
S1376 N1378 1.610 . S
N1377 S1376 1.613 . S
N1377 C1380 1.350 . S
N1378 S1376 1.610 . S
N1378 C1379 1.351 . S
C1379 C1373 1.428 . S
C1379 N1378 1.351 . S
C1379 C1380 1.434 . S
C1380 C1371 1.429 . S
C1380 N1377 1.350 . S
C1380 C1379 1.434 . S
C1381 C1382 1.369 . S
C1381 C1383 1.419 . S
C1381 H1385 0.930 . S
C1382 C1381 1.369 . S
C1382 C1391 1.429 . S
C1383 C1381 1.419 . S
C1383 C1384 1.363 . S
C1383 H1386 0.929 . S
C1384 C1383 1.363 . S
C1384 C1390 1.428 . S
H1385 C1381 0.930 . S
H1386 C1383 0.929 . S
S1387 N1388 1.613 . S
S1387 N1389 1.610 . S
N1388 S1387 1.613 . S
N1388 C1391 1.350 . S
N1389 S1387 1.610 . S
N1389 C1390 1.351 . S
C1390 C1384 1.428 . S
C1390 N1389 1.351 . S
C1390 C1391 1.434 . S
C1391 C1382 1.429 . S
C1391 N1388 1.350 . S
C1391 C1390 1.434 . S
C1392 C1393 1.369 . S
C1392 C1394 1.419 . S
C1392 H1396 0.930 . S
C1393 C1392 1.369 . S
C1393 C1402 1.429 . S
C1394 C1392 1.419 . S
C1394 C1395 1.363 . S
C1394 H1397 0.929 . S
C1395 C1394 1.363 . S
C1395 C1401 1.428 . S
H1396 C1392 0.930 . S
H1397 C1394 0.929 . S
S1398 N1399 1.613 . S
S1398 N1400 1.610 . S
N1399 S1398 1.613 . S
N1399 C1402 1.350 . S
N1400 S1398 1.610 . S
N1400 C1401 1.351 . S
C1401 C1395 1.428 . S
C1401 N1400 1.351 . S
C1401 C1402 1.434 . S
C1402 C1393 1.429 . S
C1402 N1399 1.350 . S
C1402 C1401 1.434 . S
C1403 C1404 1.369 . S
C1403 C1405 1.419 . S
C1403 H1407 0.930 . S
C1404 C1403 1.369 . S
C1404 C1413 1.429 . S
C1405 C1403 1.419 . S
C1405 C1406 1.363 . S
C1405 H1408 0.929 . S
C1406 C1405 1.363 . S
C1406 C1412 1.428 . S
H1407 C1403 0.930 . S
H1408 C1405 0.929 . S
S1409 N1410 1.613 . S
S1409 N1411 1.610 . S
N1410 S1409 1.613 . S
N1410 C1413 1.350 . S
N1411 S1409 1.610 . S
N1411 C1412 1.351 . S
C1412 C1406 1.428 . S
C1412 N1411 1.351 . S
C1412 C1413 1.434 . S
C1413 C1404 1.429 . S
C1413 N1410 1.350 . S
C1413 C1412 1.434 . S
C1414 C1415 1.369 . S
C1414 C1416 1.419 . S
C1414 H1418 0.930 . S
C1415 C1414 1.369 . S
C1415 C1424 1.429 . S
C1416 C1414 1.419 . S
C1416 C1417 1.363 . S
C1416 H1419 0.929 . S
C1417 C1416 1.363 . S
C1417 C1423 1.428 . S
H1418 C1414 0.930 . S
H1419 C1416 0.929 . S
S1420 N1421 1.613 . S
S1420 N1422 1.610 . S
N1421 S1420 1.613 . S
N1421 C1424 1.350 . S
N1422 S1420 1.610 . S
N1422 C1423 1.351 . S
C1423 C1417 1.428 . S
C1423 N1422 1.351 . S
C1423 C1424 1.434 . S
C1424 C1415 1.429 . S
C1424 N1421 1.350 . S
C1424 C1423 1.434 . S
C1425 C1426 1.369 . S
C1425 C1427 1.419 . S
C1425 H1429 0.930 . S
C1426 C1425 1.369 . S
C1426 C1435 1.429 . S
C1427 C1425 1.419 . S
C1427 C1428 1.363 . S
C1427 H1430 0.929 . S
C1428 C1427 1.363 . S
C1428 C1434 1.428 . S
H1429 C1425 0.930 . S
H1430 C1427 0.929 . S
S1431 N1432 1.613 . S
S1431 N1433 1.610 . S
N1432 S1431 1.613 . S
N1432 C1435 1.350 . S
N1433 S1431 1.610 . S
N1433 C1434 1.351 . S
C1434 C1428 1.428 . S
C1434 N1433 1.351 . S
C1434 C1435 1.434 . S
C1435 C1426 1.429 . S
C1435 N1432 1.350 . S
C1435 C1434 1.434 . S
C1436 C1437 1.369 . S
C1436 C1438 1.419 . S
C1436 H1440 0.930 . S
C1437 C1436 1.369 . S
C1437 C1446 1.429 . S
C1438 C1436 1.419 . S
C1438 C1439 1.363 . S
C1438 H1441 0.929 . S
C1439 C1438 1.363 . S
C1439 C1445 1.428 . S
H1440 C1436 0.930 . S
H1441 C1438 0.929 . S
S1442 N1443 1.613 . S
S1442 N1444 1.610 . S
N1443 S1442 1.613 . S
N1443 C1446 1.350 . S
N1444 S1442 1.610 . S
N1444 C1445 1.351 . S
C1445 C1439 1.428 . S
C1445 N1444 1.351 . S
C1445 C1446 1.434 . S
C1446 C1437 1.429 . S
C1446 N1443 1.350 . S
C1446 C1445 1.434 . S
C1447 C1448 1.369 . S
C1447 C1449 1.419 1_455 S
C1447 H1451 0.930 . S
C1448 C1447 1.369 . S
C1448 C1457 1.429 1_455 S
C1449 C1447 1.419 1_655 S
C1449 C1450 1.363 . S
C1449 H1452 0.929 . S
C1450 C1449 1.363 . S
C1450 C1456 1.428 . S
H1451 C1447 0.930 . S
H1452 C1449 0.929 . S
S1453 N1454 1.613 . S
S1453 N1455 1.610 . S
N1454 S1453 1.613 . S
N1454 C1457 1.350 . S
N1455 S1453 1.610 . S
N1455 C1456 1.351 . S
C1456 C1450 1.428 . S
C1456 N1455 1.351 . S
C1456 C1457 1.434 . S
C1457 C1448 1.429 1_655 S
C1457 N1454 1.350 . S
C1457 C1456 1.434 . S
C1458 C1459 1.369 . S
C1458 C1460 1.419 . S
C1458 H1462 0.930 . S
C1459 C1458 1.369 . S
C1459 C1468 1.429 . S
C1460 C1458 1.419 . S
C1460 C1461 1.363 . S
C1460 H1463 0.929 . S
C1461 C1460 1.363 . S
C1461 C1467 1.428 . S
H1462 C1458 0.930 . S
H1463 C1460 0.929 . S
S1464 N1465 1.613 . S
S1464 N1466 1.610 . S
N1465 S1464 1.613 . S
N1465 C1468 1.350 . S
N1466 S1464 1.610 . S
N1466 C1467 1.351 . S
C1467 C1461 1.428 . S
C1467 N1466 1.351 . S
C1467 C1468 1.434 . S
C1468 C1459 1.429 . S
C1468 N1465 1.350 . S
C1468 C1467 1.434 . S
C1469 C1470 1.369 . S
C1469 C1471 1.419 1_655 S
C1469 H1473 0.930 . S
C1470 C1469 1.369 . S
C1470 C1479 1.429 1_655 S
C1471 C1469 1.419 1_455 S
C1471 C1472 1.363 . S
C1471 H1474 0.929 . S
C1472 C1471 1.363 . S
C1472 C1478 1.428 . S
H1473 C1469 0.930 . S
H1474 C1471 0.929 . S
S1475 N1476 1.613 . S
S1475 N1477 1.610 . S
N1476 S1475 1.613 . S
N1476 C1479 1.350 . S
N1477 S1475 1.610 . S
N1477 C1478 1.351 . S
C1478 C1472 1.428 . S
C1478 N1477 1.351 . S
C1478 C1479 1.434 . S
C1479 C1470 1.429 1_455 S
C1479 N1476 1.350 . S
C1479 C1478 1.434 . S
C1480 C1481 1.369 . S
C1480 C1482 1.419 . S
C1480 H1484 0.930 . S
C1481 C1480 1.369 . S
C1481 C1490 1.429 . S
C1482 C1480 1.419 . S
C1482 C1483 1.363 . S
C1482 H1485 0.929 . S
C1483 C1482 1.363 . S
C1483 C1489 1.428 . S
H1484 C1480 0.930 . S
H1485 C1482 0.929 . S
S1486 N1487 1.613 . S
S1486 N1488 1.610 . S
N1487 S1486 1.613 . S
N1487 C1490 1.350 . S
N1488 S1486 1.610 . S
N1488 C1489 1.351 . S
C1489 C1483 1.428 . S
C1489 N1488 1.351 . S
C1489 C1490 1.434 . S
C1490 C1481 1.429 . S
C1490 N1487 1.350 . S
C1490 C1489 1.434 . S
C1491 C1492 1.369 . S
C1491 C1493 1.419 . S
C1491 H1495 0.930 . S
C1492 C1491 1.369 . S
C1492 C1501 1.426 1_556 S
C1493 C1491 1.419 . S
C1493 C1494 1.363 . S
C1493 H1496 0.929 . S
C1494 C1493 1.363 . S
C1494 C1500 1.428 . S
H1495 C1491 0.930 . S
H1496 C1493 0.929 . S
S1497 N1498 1.613 1_455 S
S1497 N1499 1.610 1_554 S
N1498 S1497 1.613 1_655 S
N1498 C1501 1.366 . S
N1499 S1497 1.610 1_556 S
N1499 C1500 1.351 1_455 S
C1500 C1494 1.428 . S
C1500 N1499 1.351 1_655 S
C1500 C1501 1.420 1_556 S
C1501 C1492 1.426 1_554 S
C1501 N1498 1.366 . S
C1501 C1500 1.420 1_554 S
C1502 C1503 1.369 . S
C1502 C1504 1.419 . S
C1502 H1506 0.930 . S
C1503 C1502 1.369 . S
C1503 C1512 1.429 . S
C1504 C1502 1.419 . S
C1504 C1505 1.363 . S
C1504 H1507 0.929 . S
C1505 C1504 1.363 . S
C1505 C1511 1.428 . S
H1506 C1502 0.930 . S
H1507 C1504 0.929 . S
S1508 N1509 1.613 . S
S1508 N1510 1.610 . S
N1509 S1508 1.613 . S
N1509 C1512 1.350 . S
N1510 S1508 1.610 . S
N1510 C1511 1.351 . S
C1511 C1505 1.428 . S
C1511 N1510 1.351 . S
C1511 C1512 1.434 . S
C1512 C1503 1.429 . S
C1512 N1509 1.350 . S
C1512 C1511 1.434 . S
C1513 C1514 1.369 . S
C1513 C1515 1.419 1_554 S
C1513 H1517 0.930 . S
C1514 C1513 1.369 . S
C1514 C1523 1.429 . S
C1515 C1513 1.419 1_556 S
C1515 C1516 1.363 . S
C1515 H1518 0.929 . S
C1516 C1515 1.363 . S
C1516 C1522 1.428 . S
H1517 C1513 0.930 . S
H1518 C1515 0.929 . S
S1519 N1520 1.613 1_556 S
S1519 N1521 1.610 . S
N1520 S1519 1.613 1_554 S
N1520 C1523 1.350 . S
N1521 S1519 1.610 . S
N1521 C1522 1.351 . S
C1522 C1516 1.428 . S
C1522 N1521 1.351 . S
C1522 C1523 1.434 1_556 S
C1523 C1514 1.429 . S
C1523 N1520 1.350 . S
C1523 C1522 1.434 1_554 S
C1524 C1525 1.369 . S
C1524 C1526 1.419 . S
C1524 H1528 0.930 . S
C1525 C1524 1.369 . S
C1525 C1534 1.429 . S
C1526 C1524 1.419 . S
C1526 C1527 1.363 . S
C1526 H1529 0.929 . S
C1527 C1526 1.363 . S
C1527 C1533 1.428 . S
H1528 C1524 0.930 . S
H1529 C1526 0.929 . S
S1530 N1531 1.613 . S
S1530 N1532 1.610 . S
N1531 S1530 1.613 . S
N1531 C1534 1.350 . S
N1532 S1530 1.610 . S
N1532 C1533 1.351 . S
C1533 C1527 1.428 . S
C1533 N1532 1.351 . S
C1533 C1534 1.434 . S
C1534 C1525 1.429 . S
C1534 N1531 1.350 . S
C1534 C1533 1.434 . S
C1535 C1536 1.369 . S
C1535 C1537 1.419 . S
C1535 H1539 0.930 . S
C1536 C1535 1.369 . S
C1536 C1545 1.429 . S
C1537 C1535 1.419 . S
C1537 C1538 1.363 . S
C1537 H1540 0.929 . S
C1538 C1537 1.363 . S
C1538 C1544 1.428 . S
H1539 C1535 0.930 . S
H1540 C1537 0.929 . S
S1541 N1542 1.613 . S
S1541 N1543 1.610 . S
N1542 S1541 1.613 . S
N1542 C1545 1.350 . S
N1543 S1541 1.610 . S
N1543 C1544 1.351 . S
C1544 C1538 1.428 . S
C1544 N1543 1.351 . S
C1544 C1545 1.434 . S
C1545 C1536 1.429 . S
C1545 N1542 1.350 . S
C1545 C1544 1.434 . S
C1546 C1547 1.369 . S
C1546 C1548 1.419 . S
C1546 H1550 0.930 . S
C1547 C1546 1.369 . S
C1547 C1556 1.429 . S
C1548 C1546 1.419 . S
C1548 C1549 1.363 . S
C1548 H1551 0.929 . S
C1549 C1548 1.363 . S
C1549 C1555 1.428 . S
H1550 C1546 0.930 . S
H1551 C1548 0.929 . S
S1552 N1553 1.613 . S
S1552 N1554 1.610 . S
N1553 S1552 1.613 . S
N1553 C1556 1.350 . S
N1554 S1552 1.610 . S
N1554 C1555 1.351 . S
C1555 C1549 1.428 . S
C1555 N1554 1.351 . S
C1555 C1556 1.434 . S
C1556 C1547 1.429 . S
C1556 N1553 1.350 . S
C1556 C1555 1.434 . S
C1557 C1558 1.369 . S
C1557 C1559 1.419 . S
C1557 H1561 0.930 . S
C1558 C1557 1.369 . S
C1558 C1567 1.429 . S
C1559 C1557 1.419 . S
C1559 C1560 1.363 . S
C1559 H1562 0.929 . S
C1560 C1559 1.363 . S
C1560 C1566 1.428 . S
H1561 C1557 0.930 . S
H1562 C1559 0.929 . S
S1563 N1564 1.613 . S
S1563 N1565 1.610 . S
N1564 S1563 1.613 . S
N1564 C1567 1.350 . S
N1565 S1563 1.610 . S
N1565 C1566 1.351 . S
C1566 C1560 1.428 . S
C1566 N1565 1.351 . S
C1566 C1567 1.434 . S
C1567 C1558 1.429 . S
C1567 N1564 1.350 . S
C1567 C1566 1.434 . S
C1568 C1569 1.369 . S
C1568 C1570 1.419 . S
C1568 H1572 0.930 . S
C1569 C1568 1.369 . S
C1569 C1578 1.429 . S
C1570 C1568 1.419 . S
C1570 C1571 1.363 . S
C1570 H1573 0.929 . S
C1571 C1570 1.363 . S
C1571 C1577 1.428 . S
H1572 C1568 0.930 . S
H1573 C1570 0.929 . S
S1574 N1575 1.613 . S
S1574 N1576 1.610 . S
N1575 S1574 1.613 . S
N1575 C1578 1.350 . S
N1576 S1574 1.610 . S
N1576 C1577 1.351 . S
C1577 C1571 1.428 . S
C1577 N1576 1.351 . S
C1577 C1578 1.434 . S
C1578 C1569 1.429 . S
C1578 N1575 1.350 . S
C1578 C1577 1.434 . S
C1579 C1580 1.369 . S
C1579 C1581 1.419 . S
C1579 H1583 0.930 . S
C1580 C1579 1.369 . S
C1580 C1589 1.429 . S
C1581 C1579 1.419 . S
C1581 C1582 1.363 . S
C1581 H1584 0.929 . S
C1582 C1581 1.363 . S
C1582 C1588 1.428 . S
H1583 C1579 0.930 . S
H1584 C1581 0.929 . S
S1585 N1586 1.613 . S
S1585 N1587 1.610 . S
N1586 S1585 1.613 . S
N1586 C1589 1.350 . S
N1587 S1585 1.610 . S
N1587 C1588 1.351 . S
C1588 C1582 1.428 . S
C1588 N1587 1.351 . S
C1588 C1589 1.434 . S
C1589 C1580 1.429 . S
C1589 N1586 1.350 . S
C1589 C1588 1.434 . S
C1590 C1591 1.369 . S
C1590 C1592 1.419 . S
C1590 H1594 0.930 . S
C1591 C1590 1.369 . S
C1591 C1600 1.429 . S
C1592 C1590 1.419 . S
C1592 C1593 1.363 . S
C1592 H1595 0.929 . S
C1593 C1592 1.363 . S
C1593 C1599 1.428 . S
H1594 C1590 0.930 . S
H1595 C1592 0.929 . S
S1596 N1597 1.613 . S
S1596 N1598 1.610 . S
N1597 S1596 1.613 . S
N1597 C1600 1.350 . S
N1598 S1596 1.610 . S
N1598 C1599 1.351 . S
C1599 C1593 1.428 . S
C1599 N1598 1.351 . S
C1599 C1600 1.434 . S
C1600 C1591 1.429 . S
C1600 N1597 1.350 . S
C1600 C1599 1.434 . S
C1601 C1602 1.369 . S
C1601 C1603 1.419 . S
C1601 H1605 0.930 . S
C1602 C1601 1.369 . S
C1602 C1611 1.429 . S
C1603 C1601 1.419 . S
C1603 C1604 1.363 . S
C1603 H1606 0.929 . S
C1604 C1603 1.363 . S
C1604 C1610 1.428 . S
H1605 C1601 0.930 . S
H1606 C1603 0.929 . S
S1607 N1608 1.613 . S
S1607 N1609 1.610 . S
N1608 S1607 1.613 . S
N1608 C1611 1.350 . S
N1609 S1607 1.610 . S
N1609 C1610 1.351 . S
C1610 C1604 1.428 . S
C1610 N1609 1.351 . S
C1610 C1611 1.434 . S
C1611 C1602 1.429 . S
C1611 N1608 1.350 . S
C1611 C1610 1.434 . S
C1612 C1613 1.369 . S
C1612 C1614 1.419 . S
C1612 H1616 0.930 . S
C1613 C1612 1.369 . S
C1613 C1622 1.429 . S
C1614 C1612 1.419 . S
C1614 C1615 1.363 . S
C1614 H1617 0.929 . S
C1615 C1614 1.363 . S
C1615 C1621 1.428 . S
H1616 C1612 0.930 . S
H1617 C1614 0.929 . S
S1618 N1619 1.613 . S
S1618 N1620 1.610 . S
N1619 S1618 1.613 . S
N1619 C1622 1.350 . S
N1620 S1618 1.610 . S
N1620 C1621 1.351 . S
C1621 C1615 1.428 . S
C1621 N1620 1.351 . S
C1621 C1622 1.434 . S
C1622 C1613 1.429 . S
C1622 N1619 1.350 . S
C1622 C1621 1.434 . S
C1623 C1624 1.369 . S
C1623 C1625 1.419 . S
C1623 H1627 0.930 . S
C1624 C1623 1.369 . S
C1624 C1633 1.429 . S
C1625 C1623 1.419 . S
C1625 C1626 1.363 . S
C1625 H1628 0.929 . S
C1626 C1625 1.363 . S
C1626 C1632 1.428 . S
H1627 C1623 0.930 . S
H1628 C1625 0.929 . S
S1629 N1630 1.613 . S
S1629 N1631 1.610 . S
N1630 S1629 1.613 . S
N1630 C1633 1.350 . S
N1631 S1629 1.610 . S
N1631 C1632 1.351 . S
C1632 C1626 1.428 . S
C1632 N1631 1.351 . S
C1632 C1633 1.434 . S
C1633 C1624 1.429 . S
C1633 N1630 1.350 . S
C1633 C1632 1.434 . S
C1634 C1635 1.369 . S
C1634 C1636 1.419 . S
C1634 H1638 0.930 . S
C1635 C1634 1.369 . S
C1635 C1644 1.429 . S
C1636 C1634 1.419 . S
C1636 C1637 1.363 . S
C1636 H1639 0.929 . S
C1637 C1636 1.363 . S
C1637 C1643 1.428 . S
H1638 C1634 0.930 . S
H1639 C1636 0.929 . S
S1640 N1641 1.613 . S
S1640 N1642 1.610 . S
N1641 S1640 1.613 . S
N1641 C1644 1.350 . S
N1642 S1640 1.610 . S
N1642 C1643 1.351 . S
C1643 C1637 1.428 . S
C1643 N1642 1.351 . S
C1643 C1644 1.434 . S
C1644 C1635 1.429 . S
C1644 N1641 1.350 . S
C1644 C1643 1.434 . S
C1645 C1646 1.369 . S
C1645 C1647 1.419 . S
C1645 H1649 0.930 . S
C1646 C1645 1.369 . S
C1646 C1655 1.429 . S
C1647 C1645 1.419 . S
C1647 C1648 1.363 1_545 S
C1647 H1650 0.929 . S
C1648 C1647 1.363 1_565 S
C1648 C1654 1.428 1_565 S
H1649 C1645 0.930 . S
H1650 C1647 0.929 . S
S1651 N1652 1.613 . S
S1651 N1653 1.610 1_545 S
N1652 S1651 1.613 . S
N1652 C1655 1.350 . S
N1653 S1651 1.610 1_565 S
N1653 C1654 1.351 1_565 S
C1654 C1648 1.428 1_545 S
C1654 N1653 1.351 1_545 S
C1654 C1655 1.434 . S
C1655 C1646 1.429 . S
C1655 N1652 1.350 . S
C1655 C1654 1.434 . S
C1131 C968 1.605 1_556 S
C1129 C331 1.560 . S
C1142 C983 1.731 . S
C1140 C380 1.700 1_455 S
C1151 C421 1.655 . S
C1153 C996 1.676 . S
C1164 C1010 1.614 . S
C1162 C260 1.683 1_655 S
C1175 C1022 1.603 . S
C1173 C620 1.626 . S
C1186 C1036 1.519 . S
C1184 C740 1.386 . S
C1195 C680 1.692 . S
C1197 C1050 1.690 . S
C1208 C1065 1.607 . S
C1206 C571 1.482 . S
C1217 C691 1.625 . S
C1219 C1081 1.645 . S
C1230 C1094 1.614 . S
C1228 C541 1.569 . S
C1239 C601 1.535 . S
C1241 C1079 1.527 . S
C1252 C1092 1.704 . S
C1250 C721 1.541 . S
C1261 C451 1.770 . S
C1263 C1108 1.790 . S
C1272 C241 1.705 . S
C1274 C1107 1.671 . S
C1283 C320 1.662 . S
C1285 C1106 1.633 . S
C1294 C391 1.600 . S
C1296 C1109 1.649 . S
C1305 C211 1.621 . S
C1307 C1011 1.677 1_565 S
C1316 C841 1.475 . S
C1318 C1009 1.473 . S
C1329 C969 1.578 . S
C1327 C901 1.560 . S
C1340 C980 1.725 . S
C1338 C500 1.732 . S
C1349 C271 1.691 . S
C1351 C1025 1.661 . S
C1362 C1066 1.828 . S
C1360 C661 1.808 . S
C1373 C1023 1.662 . S
C1371 C560 1.527 1_545 S
C1384 C1051 1.658 . S
C1382 C751 1.552 . S
C1395 C1052 1.604 . S
C1393 C871 1.552 . S
C1404 C920 1.704 . S
C1406 C1067 1.729 . S
C1415 C481 1.655 . S
C1417 C1024 1.676 . S
C1428 C1038 1.611 . S
C1426 C800 1.685 . S
C1437 C200 1.629 . S
C1439 C994 1.600 . S
C1450 C1008 1.522 . S
C1448 C20 1.392 . S
C1461 C966 1.694 . S
C1459 C80 1.693 . S
C1472 C981 1.607 . S
C1470 C151 1.483 . S
C1481 C91 1.623 . S
C1483 C1095 1.646 . S
C1492 C121 1.563 1_556 S
C1494 C1080 1.617 . S
C1503 C181 1.538 . S
C1505 C1093 1.525 . S
C1514 C1 1.549 . S
C1516 C1078 1.701 . S
C1527 C1122 1.790 . S
C1525 C511 1.769 . S
C1538 C1121 1.671 . S
C1536 C781 1.705 1_554 S
C1549 C1120 1.637 . S
C1547 C860 1.658 . S
C1558 C931 1.588 . S
C1560 C1123 1.656 . S
C1569 C631 1.614 . S
C1571 C1039 1.679 . S
C1582 C1037 1.474 . S
C1580 C301 1.474 . S
C1593 C1053 1.579 . S
C1591 C361 1.558 . S
C1604 C1064 1.727 . S
C1602 C440 1.730 . S
C1613 C811 1.693 . S
C1615 C997 1.659 . S
C1626 C982 1.829 . S
C1624 C61 1.807 . S
C1635 C140 1.529 . S
C1637 C995 1.661 . S
C1648 C967 1.660 . S
C1646 C31 1.554 . S
