# Generated by pormake.
# Topology cml, (3,6)-cn, num edge types: 1
# Building blocks:
#     Node 0, Type 0, BuildingBlock: MIDCAF_clean_linker_0, # of connection points: 3
#     Node 1, Type 0, BuildingBlock: MIDCAF_clean_linker_0, # of connection points: 3
#     Node 2, Type 0, BuildingBlock: MIDCAF_clean_linker_0, # of connection points: 3
#     Node 3, Type 0, BuildingBlock: MIDCAF_clean_linker_0, # of connection points: 3
#     Node 4, Type 0, BuildingBlock: MIDCAF_clean_linker_0, # of connection points: 3
#     Node 5, Type 0, BuildingBlock: MIDCAF_clean_linker_0, # of connection points: 3
#     Node 6, Type 0, BuildingBlock: MIDCAF_clean_linker_0, # of connection points: 3
#     Node 7, Type 0, BuildingBlock: MIDCAF_clean_linker_0, # of connection points: 3
#     Node 8, Type 1, BuildingBlock: IZENUY_clean_sbu_0, # of connection points: 6
#     Node 9, Type 1, BuildingBlock: IZENUY_clean_sbu_0, # of connection points: 6
#     Node 10, Type 1, BuildingBlock: IZENUY_clean_sbu_0, # of connection points: 6
#     Node 11, Type 1, BuildingBlock: IZENUY_clean_sbu_0, # of connection points: 6
#     Edge 12, Type (0, 1), BuildingBlock: XUDNAN_clean_linker_2, # of connection points: 2
#     Edge 13, Type (0, 1), BuildingBlock: XUDNAN_clean_linker_2, # of connection points: 2
#     Edge 14, Type (0, 1), BuildingBlock: XUDNAN_clean_linker_2, # of connection points: 2
#     Edge 15, Type (0, 1), BuildingBlock: XUDNAN_clean_linker_2, # of connection points: 2
#     Edge 16, Type (0, 1), BuildingBlock: XUDNAN_clean_linker_2, # of connection points: 2
#     Edge 17, Type (0, 1), BuildingBlock: XUDNAN_clean_linker_2, # of connection points: 2
#     Edge 18, Type (0, 1), BuildingBlock: XUDNAN_clean_linker_2, # of connection points: 2
#     Edge 19, Type (0, 1), BuildingBlock: XUDNAN_clean_linker_2, # of connection points: 2
#     Edge 20, Type (0, 1), BuildingBlock: XUDNAN_clean_linker_2, # of connection points: 2
#     Edge 21, Type (0, 1), BuildingBlock: XUDNAN_clean_linker_2, # of connection points: 2
#     Edge 22, Type (0, 1), BuildingBlock: XUDNAN_clean_linker_2, # of connection points: 2
#     Edge 23, Type (0, 1), BuildingBlock: XUDNAN_clean_linker_2, # of connection points: 2
#     Edge 24, Type (0, 1), BuildingBlock: XUDNAN_clean_linker_2, # of connection points: 2
#     Edge 25, Type (0, 1), BuildingBlock: XUDNAN_clean_linker_2, # of connection points: 2
#     Edge 26, Type (0, 1), BuildingBlock: XUDNAN_clean_linker_2, # of connection points: 2
#     Edge 27, Type (0, 1), BuildingBlock: XUDNAN_clean_linker_2, # of connection points: 2
#     Edge 28, Type (0, 1), BuildingBlock: XUDNAN_clean_linker_2, # of connection points: 2
#     Edge 29, Type (0, 1), BuildingBlock: XUDNAN_clean_linker_2, # of connection points: 2
#     Edge 30, Type (0, 1), BuildingBlock: XUDNAN_clean_linker_2, # of connection points: 2
#     Edge 31, Type (0, 1), BuildingBlock: XUDNAN_clean_linker_2, # of connection points: 2
#     Edge 32, Type (0, 1), BuildingBlock: XUDNAN_clean_linker_2, # of connection points: 2
#     Edge 33, Type (0, 1), BuildingBlock: XUDNAN_clean_linker_2, # of connection points: 2
#     Edge 34, Type (0, 1), BuildingBlock: XUDNAN_clean_linker_2, # of connection points: 2
#     Edge 35, Type (0, 1), BuildingBlock: XUDNAN_clean_linker_2, # of connection points: 2
# Relax obj value: 0.057
# Max RMSD: 0.072
# Mean RMSD: 0.069
data_MOF--net-cml--node1-IZENUY_clean_sbu_0--node2-MIDCAF_clean_linker_0--edge1-XUDNAN_clean_linker_2
_symmetry_space_group_name_H-M    P1
_symmetry_Int_Tables_number       1
_symmetry_cell_setting            triclinic
loop_
_symmetry_equiv_pos_as_xyz
'x, y, z'
_cell_length_a     43.044758
_cell_length_b     50.072577
_cell_length_c     46.698049
_cell_angle_alpha  89.923947
_cell_angle_beta   90.148524
_cell_angle_gamma 90.211035
loop_
_atom_site_label
_atom_site_type_symbol
_atom_site_fract_x
_atom_site_fract_y
_atom_site_fract_z
_atom_type_partial_charge
C0 C 0.33154 0.38537 0.10406 0.0
C1 C 0.33355 0.35996 0.1166 0.0
C2 C 0.32422 0.33748 0.10082 0.0
C3 C 0.31244 0.34048 0.07302 0.0
H4 H 0.23659 0.31493 0.02079 0.0
H5 H 0.20203 0.28128 0.00122 0.0
H6 H 0.21514 0.31392 0.91637 0.0
H7 H 0.24921 0.34841 0.9362 0.0
H8 H 0.27172 0.41423 0.93802 0.0
H9 H 0.29004 0.45247 0.91028 0.0
H10 H 0.36283 0.46598 0.97261 0.0
H11 H 0.34392 0.42869 1.0007 0.0
H12 H 0.31917 0.40823 0.06711 0.0
H13 H 0.33882 0.40297 0.11581 0.0
H14 H 0.32556 0.3177 0.11016 0.0
H15 H 0.30517 0.32286 0.06133 0.0
N16 N 0.27886 0.35114 0.01931 0.0
N17 N 0.27625 0.37633 0.97689 0.0
N18 N 0.30686 0.39112 0.01538 0.0
C19 C 0.26751 0.35448 0.99233 0.0
C20 C 0.296 0.39474 0.98835 0.0
C21 C 0.29848 0.36942 0.03097 0.0
C22 C 0.24593 0.33433 0.98007 0.0
C23 C 0.23221 0.31503 0.99794 0.0
C24 C 0.21246 0.29555 0.98665 0.0
C25 C 0.20609 0.2946 0.95712 0.0
C26 C 0.21937 0.31416 0.93923 0.0
C27 C 0.23902 0.33386 0.9506 0.0
C28 C 0.30635 0.4183 0.97157 0.0
C29 C 0.29151 0.42549 0.94586 0.0
C30 C 0.3021 0.44738 0.92991 0.0
C31 C 0.32795 0.4624 0.93916 0.0
C32 C 0.34249 0.45532 0.96505 0.0
C33 C 0.33174 0.43368 0.9811 0.0
C34 C 0.31054 0.36596 0.06041 0.0
C35 C 0.32042 0.38833 0.07617 0.0
C36 C 0.6474 0.63686 0.59191 0.0
C37 C 0.66189 0.6546 0.61114 0.0
C38 C 0.69002 0.66681 0.60308 0.0
C39 C 0.70337 0.66133 0.57649 0.0
H40 H 0.74013 0.7013 0.50138 0.0
H41 H 0.7774 0.73341 0.48334 0.0
H42 H 0.82476 0.67056 0.43767 0.0
H43 H 0.78607 0.63831 0.45492 0.0
H44 H 0.7384 0.58015 0.4481 0.0
H45 H 0.71971 0.54051 0.42285 0.0
H46 H 0.63329 0.54458 0.4697 0.0
H47 H 0.65253 0.583 0.49569 0.0
H48 H 0.64912 0.61735 0.55129 0.0
H49 H 0.62537 0.62756 0.59706 0.0
H50 H 0.70204 0.68029 0.61748 0.0
H51 H 0.72517 0.67091 0.57102 0.0
N52 N 0.72494 0.65355 0.51807 0.0
N53 N 0.72975 0.62528 0.4782 0.0
N54 N 0.69478 0.61476 0.5151 0.0
C55 C 0.73815 0.64794 0.49239 0.0
C56 C 0.70784 0.60866 0.48952 0.0
C57 C 0.70338 0.63701 0.52962 0.0
C58 C 0.76043 0.6672 0.4799 0.0
C59 C 0.75845 0.69426 0.48746 0.0
C60 C 0.77999 0.71269 0.4772 0.0
C61 C 0.80458 0.70454 0.45954 0.0
C62 C 0.80608 0.67756 0.45117 0.0
C63 C 0.78404 0.65906 0.46113 0.0
C64 C 0.697 0.58468 0.47391 0.0
C65 C 0.71549 0.57241 0.45303 0.0
C66 C 0.70468 0.54974 0.4385 0.0
C67 C 0.67495 0.53916 0.44422 0.0
C68 C 0.65658 0.55159 0.46515 0.0
C69 C 0.66755 0.57387 0.47993 0.0
C70 C 0.68906 0.64328 0.55753 0.0
C71 C 0.66094 0.63112 0.56553 0.0
C72 C 0.6672 0.3882 0.09845 0.0
C73 C 0.66833 0.36414 0.11391 0.0
C74 C 0.68013 0.34123 0.10052 0.0
C75 C 0.69123 0.34254 0.07237 0.0
H76 H 0.7335 0.29821 0.0035 0.0
H77 H 0.77024 0.26451 0.98793 0.0
H78 H 0.81881 0.32415 0.9378 0.0
H79 H 0.78066 0.35734 0.95202 0.0
H80 H 0.70572 0.39524 0.92501 0.0
H81 H 0.68538 0.43163 0.8957 0.0
H82 H 0.6685 0.47775 0.97227 0.0
H83 H 0.68744 0.44103 0.00142 0.0
H84 H 0.67678 0.40841 0.05915 0.0
H85 H 0.65785 0.4061 0.10812 0.0
H86 H 0.68132 0.32245 0.11199 0.0
H87 H 0.70049 0.32461 0.06272 0.0
N88 N 0.72098 0.34903 0.01663 0.0
N89 N 0.72562 0.3726 0.97328 0.0
N90 N 0.69556 0.38994 0.01068 0.0
C91 C 0.73283 0.35106 0.98975 0.0
C92 C 0.70682 0.39208 0.98363 0.0
C93 C 0.70242 0.36848 0.02731 0.0
C94 C 0.75428 0.3304 0.97904 0.0
C95 C 0.75191 0.30401 0.98896 0.0
C96 C 0.77321 0.28473 0.98018 0.0
C97 C 0.79796 0.29151 0.96184 0.0
C98 C 0.79993 0.31793 0.95157 0.0
C99 C 0.77813 0.33707 0.95984 0.0
C100 C 0.69779 0.41511 0.96555 0.0
C101 C 0.69789 0.41327 0.93551 0.0
C102 C 0.68635 0.43421 0.9187 0.0
C103 C 0.67483 0.45756 0.93158 0.0
C104 C 0.6763 0.45982 0.96159 0.0
C105 C 0.68735 0.43879 0.97835 0.0
C106 C 0.69029 0.36672 0.05696 0.0
C107 C 0.67789 0.38945 0.07029 0.0
C108 C 0.32685 0.62275 0.61044 0.0
C109 C 0.32866 0.6487 0.62166 0.0
C110 C 0.32003 0.6704 0.60433 0.0
C111 C 0.30931 0.6661 0.5763 0.0
H112 H 0.22448 0.68052 0.51736 0.0
H113 H 0.18458 0.70579 0.49159 0.0
H114 H 0.22359 0.67982 0.41115 0.0
H115 H 0.26223 0.65394 0.43673 0.0
H116 H 0.27648 0.58597 0.44439 0.0
H117 H 0.29697 0.54834 0.41777 0.0
H118 H 0.3698 0.5389 0.48081 0.0
H119 H 0.34856 0.57607 0.50809 0.0
H120 H 0.31589 0.59822 0.57437 0.0
H121 H 0.33354 0.60571 0.62336 0.0
H122 H 0.32122 0.69058 0.61259 0.0
H123 H 0.30271 0.68313 0.56335 0.0
N124 N 0.27766 0.65208 0.5216 0.0
N125 N 0.27934 0.62512 0.48052 0.0
N126 N 0.30822 0.61322 0.52103 0.0
C127 C 0.26844 0.64711 0.49419 0.0
C128 C 0.29918 0.60806 0.49373 0.0
C129 C 0.29765 0.63514 0.53511 0.0
C130 C 0.24624 0.66489 0.47911 0.0
C131 C 0.22458 0.68043 0.49416 0.0
C132 C 0.20177 0.69498 0.47937 0.0
C133 C 0.2004 0.6945 0.44923 0.0
C134 C 0.22318 0.68004 0.43433 0.0
C135 C 0.24555 0.66528 0.44904 0.0
C136 C 0.31102 0.58428 0.47828 0.0
C137 C 0.29679 0.57584 0.45271 0.0
C138 C 0.30865 0.55426 0.43734 0.0
C139 C 0.33531 0.5407 0.4469 0.0
C140 C 0.34907 0.54866 0.47291 0.0
C141 C 0.33699 0.57013 0.48848 0.0
C142 C 0.30783 0.64009 0.56499 0.0
C143 C 0.31684 0.61851 0.58237 0.0
C144 C 0.80497 0.88661 0.11025 0.0
C145 C 0.82688 0.86762 0.11966 0.0
C146 C 0.83606 0.8475 0.10036 0.0
C147 C 0.82467 0.84716 0.07221 0.0
H148 H 0.75382 0.80343 0.01388 0.0
H149 H 0.72058 0.76953 0.99263 0.0
H150 H 0.71163 0.81734 0.91605 0.0
H151 H 0.74468 0.85171 0.93748 0.0
H152 H 0.80048 0.90043 0.93077 0.0
H153 H 0.81914 0.93994 0.90485 0.0
H154 H 0.83256 0.98105 0.98515 0.0
H155 H 0.81413 0.94194 0.01097 0.0
H156 H 0.77859 0.90222 0.07502 0.0
H157 H 0.79636 0.90186 0.12454 0.0
H158 H 0.85307 0.83268 0.10647 0.0
H159 H 0.83283 0.83201 0.05751 0.0
N160 N 0.77979 0.84931 0.01915 0.0
N161 N 0.77974 0.87385 0.97618 0.0
N162 N 0.80357 0.89147 0.01728 0.0
C163 C 0.77131 0.85158 0.99113 0.0
C164 C 0.796 0.89384 0.98914 0.0
C165 C 0.79579 0.86924 0.03226 0.0
C166 C 0.75207 0.8304 0.97745 0.0
C167 C 0.74494 0.80681 0.99247 0.0
C168 C 0.72595 0.78723 0.98021 0.0
C169 C 0.71351 0.79067 0.95259 0.0
C170 C 0.72063 0.81419 0.93747 0.0
C171 C 0.73978 0.8338 0.94971 0.0
C172 C 0.80581 0.91797 0.97297 0.0
C173 C 0.8072 0.91798 0.94286 0.0
C174 C 0.81805 0.94051 0.92801 0.0
C175 C 0.82718 0.9636 0.94297 0.0
C176 C 0.82533 0.96368 0.97299 0.0
C177 C 0.81494 0.94114 0.9878 0.0
C178 C 0.8045 0.86722 0.06267 0.0
C179 C 0.79443 0.88671 0.08195 0.0
C180 C 0.15772 0.13007 0.60142 0.0
C181 C 0.16866 0.15163 0.61786 0.0
C182 C 0.19292 0.16751 0.60685 0.0
C183 C 0.20574 0.16201 0.57994 0.0
H184 H 0.28283 0.17933 0.51999 0.0
H185 H 0.32262 0.20583 0.49524 0.0
H186 H 0.28594 0.17926 0.41383 0.0
H187 H 0.24758 0.15222 0.43833 0.0
H188 H 0.2376 0.0782 0.45233 0.0
H189 H 0.21876 0.03801 0.42781 0.0
H190 H 0.13301 0.0421 0.4752 0.0
H191 H 0.15194 0.08184 0.50022 0.0
H192 H 0.16112 0.10787 0.56269 0.0
H193 H 0.13867 0.11773 0.60889 0.0
H194 H 0.2021 0.18414 0.61908 0.0
H195 H 0.22432 0.17467 0.57208 0.0
N196 N 0.22898 0.15087 0.52223 0.0
N197 N 0.22917 0.1234 0.48144 0.0
N198 N 0.19688 0.11289 0.52006 0.0
C199 C 0.2398 0.1454 0.49549 0.0
C200 C 0.20777 0.10705 0.49361 0.0
C201 C 0.20736 0.13462 0.53463 0.0
C202 C 0.26245 0.16329 0.48113 0.0
C203 C 0.28333 0.1793 0.4968 0.0
C204 C 0.30602 0.19456 0.48261 0.0
C205 C 0.30795 0.1943 0.45251 0.0
C206 C 0.28593 0.17931 0.43702 0.0
C207 C 0.26375 0.16384 0.4511 0.0
C208 C 0.19626 0.08315 0.47823 0.0
C209 C 0.21471 0.07055 0.45747 0.0
C210 C 0.20404 0.04753 0.44354 0.0
C211 C 0.17447 0.0371 0.44965 0.0
C212 C 0.15584 0.04989 0.47005 0.0
C213 C 0.16675 0.07253 0.48442 0.0
C214 C 0.19459 0.1405 0.56347 0.0
C215 C 0.17053 0.12455 0.57469 0.0
C216 C 0.16243 0.88183 0.09628 0.0
C217 C 0.17117 0.8592 0.11219 0.0
C218 C 0.19519 0.84297 0.10185 0.0
C219 C 0.20966 0.84884 0.07587 0.0
H220 H 0.26307 0.81449 0.01641 0.0
H221 H 0.30171 0.78313 0.99995 0.0
H222 H 0.32661 0.83677 0.93113 0.0
H223 H 0.28701 0.86828 0.94729 0.0
H224 H 0.2368 0.91662 0.93472 0.0
H225 H 0.21548 0.95204 0.90471 0.0
H226 H 0.15191 0.97324 0.97235 0.0
H227 H 0.17353 0.93852 0.0025 0.0
H228 H 0.16918 0.90504 0.05831 0.0
H229 H 0.14378 0.89458 0.10355 0.0
H230 H 0.20276 0.82562 0.11383 0.0
H231 H 0.22785 0.83567 0.06849 0.0
N232 N 0.23627 0.85941 0.02063 0.0
N233 N 0.23979 0.88473 0.97849 0.0
N234 N 0.20568 0.89755 0.01513 0.0
C235 C 0.24896 0.86337 0.99438 0.0
C236 C 0.21809 0.90193 0.98877 0.0
C237 C 0.21473 0.87637 0.03123 0.0
C238 C 0.2721 0.84411 0.98337 0.0
C239 C 0.2767 0.81976 0.99776 0.0
C240 C 0.29901 0.80174 0.98838 0.0
C241 C 0.31759 0.80761 0.96449 0.0
C242 C 0.31257 0.83164 0.94956 0.0
C243 C 0.28999 0.84973 0.9589 0.0
C244 C 0.2068 0.92452 0.97102 0.0
C245 C 0.21849 0.929 0.94331 0.0
C246 C 0.20618 0.94924 0.92604 0.0
C247 C 0.18194 0.96545 0.93608 0.0
C248 C 0.17088 0.96143 0.96405 0.0
C249 C 0.18317 0.94128 0.9813 0.0
C250 C 0.20044 0.87111 0.05956 0.0
C251 C 0.17689 0.88772 0.07025 0.0
C252 C 0.85521 0.13836 0.59704 0.0
C253 C 0.83944 0.15639 0.6149 0.0
C254 C 0.81303 0.16947 0.60409 0.0
C255 C 0.80263 0.16457 0.57617 0.0
H256 H 0.76299 0.2033 0.5045 0.0
H257 H 0.72197 0.23197 0.48685 0.0
H258 H 0.69259 0.17035 0.42792 0.0
H259 H 0.73476 0.14165 0.44512 0.0
H260 H 0.80568 0.10418 0.42942 0.0
H261 H 0.82874 0.06686 0.4038 0.0
H262 H 0.86228 0.03439 0.48389 0.0
H263 H 0.84032 0.07212 0.50928 0.0
H264 H 0.85749 0.1193 0.5562 0.0
H265 H 0.87605 0.12836 0.60434 0.0
H266 H 0.80011 0.18324 0.61732 0.0
H267 H 0.78211 0.17489 0.5686 0.0
N268 N 0.78583 0.15695 0.51642 0.0
N269 N 0.78677 0.13073 0.47477 0.0
N270 N 0.81829 0.11968 0.51414 0.0
C271 C 0.7755 0.1521 0.48938 0.0
C272 C 0.8083 0.11443 0.4871 0.0
C273 C 0.80718 0.14086 0.52896 0.0
C274 C 0.75189 0.17 0.47654 0.0
C275 C 0.74793 0.1958 0.48769 0.0
C276 C 0.72425 0.21224 0.47763 0.0
C277 C 0.70348 0.20326 0.45641 0.0
C278 C 0.70818 0.17788 0.44428 0.0
C279 C 0.73226 0.16142 0.4542 0.0
C280 C 0.82117 0.09124 0.4714 0.0
C281 C 0.81791 0.08904 0.44156 0.0
C282 C 0.83105 0.06753 0.42688 0.0
C283 C 0.84747 0.04752 0.44173 0.0
C284 C 0.85038 0.04962 0.47163 0.0
C285 C 0.83754 0.07124 0.48624 0.0
C286 C 0.81827 0.14632 0.55848 0.0
C287 C 0.84467 0.13328 0.56928 0.0
Fe288 Fe 0.99752 0.82457 0.32067 0.0
Fe289 Fe 0.00976 0.8582 0.37502 0.0
O290 O 0.00561 0.85569 0.33735 0.0
Fe291 Fe 0.00951 0.8848 0.31601 0.0
O292 O 0.98345 0.87348 0.28757 0.0
O293 O 0.96181 0.83708 0.30442 0.0
O294 O 0.97352 0.81138 0.35008 0.0
C295 C 0.96138 0.82248 0.37168 0.0
C296 C 0.04237 0.8492 0.28449 0.0
O297 O 0.97163 0.84434 0.38112 0.0
C298 C 0.05439 0.89371 0.35932 0.0
O299 O 0.03224 0.80969 0.33544 0.0
O300 O 0.0286 0.82544 0.37936 0.0
O301 O 0.04301 0.87109 0.29795 0.0
O302 O 0.02071 0.83229 0.2886 0.0
C303 C 0.97317 0.90304 0.35936 0.0
O304 O 0.04855 0.87215 0.37202 0.0
O305 O 0.03608 0.90245 0.34037 0.0
C306 C 0.04041 0.80946 0.3614 0.0
O307 O 0.99115 0.89152 0.37714 0.0
O308 O 0.97604 0.89945 0.3328 0.0
C309 C 0.96082 0.85742 0.28851 0.0
Fe310 Fe 0.00329 0.13625 0.8785 0.0
Fe311 Fe 0.99893 0.11897 0.81561 0.0
O312 O 1.00041 0.14475 0.84169 0.0
Fe313 Fe 0.99909 0.17882 0.83091 0.0
O314 O 0.03623 0.1861 0.84776 0.0
O315 O 0.02698 0.16521 0.88831 0.0
O316 O 0.03934 0.11849 0.87294 0.0
C317 C 0.04274 0.09945 0.85567 0.0
C318 C 0.96152 0.17735 0.88085 0.0
O319 O 0.02322 0.0955 0.83581 0.0
C320 C 0.95672 0.15727 0.79372 0.0
O321 O 0.9799 0.10571 0.87547 0.0
O322 O 0.96339 0.10536 0.8308 0.0
O323 O 0.97718 0.19015 0.86239 0.0
O324 O 0.96762 0.15339 0.88679 0.0
C325 C 0.03819 0.15454 0.78948 0.0
O326 O 0.97454 0.1375 0.79045 0.0
O327 O 0.9619 0.1743 0.81302 0.0
C328 C 0.96026 0.09876 0.8567 0.0
O329 O 0.03422 0.13104 0.79869 0.0
O330 O 0.02074 0.17343 0.79756 0.0
C331 C 0.0434 0.1808 0.87332 0.0
Fe332 Fe 0.5054 0.32474 0.32134 0.0
Fe333 Fe 0.50082 0.35949 0.37613 0.0
O334 O 0.50319 0.35647 0.33828 0.0
Fe335 Fe 0.50325 0.38566 0.31691 0.0
O336 O 0.46716 0.37585 0.30047 0.0
O337 O 0.48201 0.33501 0.28978 0.0
O338 O 0.46944 0.31395 0.33728 0.0
C339 C 0.46283 0.31394 0.36355 0.0
C340 C 0.54565 0.35287 0.28794 0.0
O341 O 0.47706 0.32899 0.38112 0.0
C342 C 0.54352 0.4002 0.3591 0.0
O343 O 0.52853 0.30895 0.35005 0.0
O344 O 0.53644 0.34132 0.38121 0.0
O345 O 0.52618 0.37161 0.28769 0.0
O346 O 0.54195 0.33294 0.30399 0.0
C347 C 0.46122 0.39943 0.3606 0.0
O348 O 0.52485 0.39034 0.37746 0.0
O349 O 0.53924 0.3966 0.33267 0.0
C350 C 0.54278 0.31853 0.37154 0.0
O351 O 0.46458 0.37806 0.37445 0.0
O352 O 0.48049 0.406 0.34154 0.0
C353 C 0.46287 0.35419 0.28733 0.0
Fe354 Fe 0.50407 0.63741 0.87633 0.0
Fe355 Fe 0.49986 0.61956 0.81406 0.0
O356 O 0.50178 0.64559 0.83952 0.0
Fe357 Fe 0.50151 0.67954 0.82843 0.0
O358 O 0.52835 0.69076 0.8571 0.0
O359 O 0.54159 0.65348 0.87911 0.0
O360 O 0.52476 0.60588 0.87106 0.0
C361 C 0.54216 0.59832 0.85088 0.0
C362 C 0.46572 0.68324 0.87635 0.0
O363 O 0.53707 0.60607 0.82559 0.0
C364 C 0.45695 0.65438 0.79223 0.0
O365 O 0.46651 0.62068 0.87529 0.0
O366 O 0.4779 0.5968 0.83728 0.0
O367 O 0.46726 0.68678 0.84968 0.0
O368 O 0.48417 0.66743 0.8888 0.0
C369 C 0.53865 0.65787 0.78714 0.0
O370 O 0.46278 0.6312 0.80118 0.0
O371 O 0.47495 0.67389 0.7977 0.0
C372 C 0.46038 0.60168 0.85839 0.0
O373 O 0.52096 0.63768 0.78607 0.0
O374 O 0.53563 0.67517 0.80643 0.0
C375 C 0.5473 0.67743 0.87237 0.0
H376 H 0.1619 0.2981 0.91417 0.0
H377 H 0.20474 0.24204 0.97323 0.0
H378 H 0.16905 0.20679 0.95667 0.0
H379 H 0.08486 0.27548 0.92169 0.0
H380 H 0.07447 0.27923 0.88449 0.0
H381 H 0.10432 0.30007 0.89985 0.0
H382 H 0.14303 0.28453 0.86094 0.0
H383 H 0.11322 0.26373 0.84534 0.0
H384 H 0.14981 0.24934 0.85596 0.0
H385 H 0.12646 0.17874 0.9371 0.0
H386 H 0.08111 0.15843 0.91305 0.0
H387 H 0.06754 0.23113 0.86396 0.0
C388 C 0.16419 0.27829 0.92325 0.0
C389 C 0.18596 0.273 0.94531 0.0
C390 C 0.18785 0.24683 0.95681 0.0
C391 C 0.16784 0.22656 0.94738 0.0
C392 C 0.14632 0.23259 0.92608 0.0
C393 C 0.14455 0.25767 0.91385 0.0
C394 C 0.11877 0.25884 0.89166 0.0
C395 C 0.09415 0.27963 0.89993 0.0
C396 C 0.132 0.26444 0.86169 0.0
C397 C 0.10597 0.23065 0.89381 0.0
C398 C 0.12224 0.21592 0.91388 0.0
C399 C 0.11378 0.18991 0.92105 0.0
C400 C 0.08792 0.17861 0.90741 0.0
C401 C 0.07101 0.19319 0.88661 0.0
C402 C 0.08038 0.21944 0.87949 0.0
H403 H 0.83551 0.70884 0.40768 0.0
H404 H 0.82933 0.74458 0.49225 0.0
H405 H 0.86698 0.77902 0.47799 0.0
H406 H 0.91888 0.71944 0.40026 0.0
H407 H 0.91667 0.72635 0.36242 0.0
H408 H 0.8885 0.70454 0.37889 0.0
H409 H 0.84408 0.73425 0.35933 0.0
H410 H 0.87211 0.75627 0.34301 0.0
H411 H 0.84386 0.7694 0.36763 0.0
H412 H 0.90343 0.81037 0.45483 0.0
H413 H 0.94105 0.83491 0.42525 0.0
H414 H 0.92712 0.77792 0.35621 0.0
C415 C 0.84229 0.72374 0.42329 0.0
C416 C 0.82885 0.72422 0.45094 0.0
C417 C 0.83844 0.74416 0.47067 0.0
C418 C 0.86003 0.76376 0.46286 0.0
C419 C 0.87228 0.76302 0.43537 0.0
C420 C 0.86419 0.74338 0.41597 0.0
C421 C 0.88165 0.74702 0.38801 0.0
C422 C 0.90268 0.7229 0.38205 0.0
C423 C 0.85907 0.75204 0.36302 0.0
C424 C 0.90061 0.77182 0.39483 0.0
C425 C 0.89454 0.78076 0.42221 0.0
C426 C 0.9086 0.80351 0.4334 0.0
C427 C 0.92987 0.81738 0.41633 0.0
C428 C 0.93719 0.80833 0.38839 0.0
C429 C 0.92215 0.78528 0.3775 0.0
H430 H 0.83099 0.28664 0.91123 0.0
H431 H 0.82048 0.25079 0.99555 0.0
H432 H 0.85971 0.21724 0.98327 0.0
H433 H 0.84445 0.22656 0.87168 0.0
H434 H 0.87371 0.24117 0.84891 0.0
H435 H 0.84345 0.26177 0.86357 0.0
H436 H 0.8849 0.29319 0.88584 0.0
H437 H 0.91529 0.27274 0.87118 0.0
H438 H 0.91432 0.27946 0.90908 0.0
H439 H 0.89936 0.187 0.96185 0.0
H440 H 0.93966 0.16398 0.93379 0.0
H441 H 0.92811 0.22167 0.86512 0.0
C442 C 0.83701 0.27195 0.9273 0.0
C443 C 0.82203 0.27133 0.95429 0.0
C444 C 0.8307 0.25141 0.97442 0.0
C445 C 0.85326 0.23232 0.96776 0.0
C446 C 0.8674 0.23355 0.94104 0.0
C447 C 0.85991 0.253 0.92123 0.0
C448 C 0.8795 0.2504 0.89445 0.0
C449 C 0.85905 0.24463 0.8681 0.0
C450 C 0.8997 0.27544 0.88988 0.0
C451 C 0.89912 0.22642 0.90234 0.0
C452 C 0.89149 0.21686 0.9292 0.0
C453 C 0.90573 0.19441 0.94088 0.0
C454 C 0.92853 0.18144 0.92475 0.0
C455 C 0.93719 0.19118 0.8974 0.0
C456 C 0.92224 0.21399 0.88613 0.0
H457 H 0.17161 0.7429 0.46072 0.0
H458 H 0.17038 0.67612 0.40137 0.0
H459 H 0.12981 0.69833 0.37307 0.0
H460 H 0.08777 0.75387 0.45915 0.0
H461 H 0.09126 0.78969 0.46143 0.0
H462 H 0.12056 0.7687 0.4773 0.0
H463 H 0.16292 0.79301 0.44768 0.0
H464 H 0.13374 0.81399 0.43164 0.0
H465 H 0.15919 0.79464 0.40925 0.0
H466 H 0.09123 0.72807 0.34986 0.0
H467 H 0.05424 0.7627 0.33456 0.0
H468 H 0.07723 0.80953 0.40997 0.0
C469 C 0.16261 0.7328 0.44196 0.0
C470 C 0.17476 0.70787 0.43311 0.0
C471 C 0.16226 0.69551 0.40827 0.0
C472 C 0.13895 0.70786 0.39211 0.0
C473 C 0.1279 0.7325 0.40115 0.0
C474 C 0.139 0.74478 0.42561 0.0
C475 C 0.12273 0.77126 0.43051 0.0
C476 C 0.10449 0.77084 0.45878 0.0
C477 C 0.14604 0.7946 0.42972 0.0
C478 C 0.10101 0.77194 0.40484 0.0
C479 C 0.10458 0.7494 0.38817 0.0
C480 C 0.088 0.74572 0.36284 0.0
C481 C 0.06711 0.76558 0.35429 0.0
C482 C 0.06267 0.78878 0.37112 0.0
C483 C 0.07984 0.79189 0.39682 0.0
H484 H 0.65914 0.79725 0.92195 0.0
H485 H 0.72178 0.73658 0.95462 0.0
H486 H 0.68676 0.70142 0.93635 0.0
H487 H 0.58895 0.7636 0.93879 0.0
H488 H 0.56853 0.77384 0.9069 0.0
H489 H 0.59915 0.79449 0.92124 0.0
H490 H 0.62768 0.79312 0.87249 0.0
H491 H 0.59705 0.77255 0.85793 0.0
H492 H 0.63675 0.76131 0.85657 0.0
H493 H 0.64423 0.67292 0.91696 0.0
H494 H 0.59713 0.65248 0.89643 0.0
H495 H 0.56192 0.73123 0.87499 0.0
C496 C 0.66574 0.77657 0.92484 0.0
C497 C 0.69319 0.76968 0.93986 0.0
C498 C 0.7007 0.74236 0.94356 0.0
C499 C 0.68105 0.72223 0.9331 0.0
C500 C 0.654 0.72969 0.91882 0.0
C501 C 0.64635 0.75616 0.91449 0.0
C502 C 0.61539 0.75861 0.89907 0.0
C503 C 0.59161 0.77351 0.91761 0.0
C504 C 0.61947 0.7722 0.86977 0.0
C505 C 0.60671 0.72938 0.89576 0.0
C506 C 0.6294 0.7131 0.90729 0.0
C507 C 0.62638 0.68543 0.90769 0.0
C508 C 0.59943 0.67402 0.89606 0.0
C509 C 0.57574 0.69021 0.88408 0.0
C510 C 0.57965 0.71829 0.8838 0.0
H511 H 0.33479 0.24377 0.46428 0.0
H512 H 0.33951 0.17652 0.4057 0.0
H513 H 0.37897 0.20012 0.37745 0.0
H514 H 0.34475 0.29548 0.41257 0.0
H515 H 0.36946 0.31612 0.43462 0.0
H516 H 0.34148 0.2941 0.45103 0.0
H517 H 0.38522 0.27188 0.48074 0.0
H518 H 0.41332 0.29395 0.46455 0.0
H519 H 0.41856 0.25829 0.46265 0.0
H520 H 0.415 0.23105 0.3538 0.0
H521 H 0.45004 0.26675 0.33772 0.0
H522 H 0.42632 0.31384 0.41258 0.0
C523 C 0.34439 0.23388 0.44572 0.0
C524 C 0.33341 0.20842 0.43695 0.0
C525 C 0.34668 0.19628 0.41245 0.0
C526 C 0.36936 0.20944 0.39633 0.0
C527 C 0.3791 0.23462 0.40514 0.0
C528 C 0.3675 0.24667 0.42942 0.0
C529 C 0.38251 0.2739 0.43395 0.0
C530 C 0.35809 0.29621 0.43298 0.0
C531 C 0.401 0.27453 0.46215 0.0
C532 C 0.40397 0.27526 0.40818 0.0
C533 C 0.40131 0.25235 0.39188 0.0
C534 C 0.41757 0.249 0.36648 0.0
C535 C 0.4373 0.26953 0.35746 0.0
C536 C 0.44099 0.29313 0.37388 0.0
C537 C 0.42416 0.29595 0.39971 0.0
H538 H 0.33454 0.79205 0.90996 0.0
H539 H 0.35732 0.78086 0.99985 0.0
H540 H 0.39675 0.74765 0.98673 0.0
H541 H 0.34337 0.72407 0.88855 0.0
H542 H 0.36104 0.73173 0.85454 0.0
H543 H 0.33456 0.75506 0.87063 0.0
H544 H 0.37651 0.79222 0.8681 0.0
H545 H 0.40305 0.76905 0.8518 0.0
H546 H 0.41413 0.78653 0.88399 0.0
H547 H 0.43207 0.71488 0.96472 0.0
H548 H 0.46424 0.68589 0.93462 0.0
H549 H 0.42069 0.71883 0.85832 0.0
C550 C 0.34808 0.78284 0.92683 0.0
C551 C 0.34253 0.78883 0.95598 0.0
C552 C 0.36064 0.77619 0.97743 0.0
C553 C 0.38323 0.7574 0.9702 0.0
C554 C 0.3877 0.75159 0.9414 0.0
C555 C 0.37093 0.76404 0.91998 0.0
C556 C 0.38062 0.75402 0.89069 0.0
C557 C 0.35327 0.74041 0.8752 0.0
C558 C 0.3944 0.77682 0.87258 0.0
C559 C 0.40531 0.73392 0.89912 0.0
C560 C 0.40882 0.73286 0.9285 0.0
C561 C 0.42971 0.71561 0.94165 0.0
C562 C 0.44783 0.69915 0.9243 0.0
C563 C 0.44513 0.7001 0.89404 0.0
C564 C 0.42341 0.7177 0.88135 0.0
H565 H 0.67794 0.21196 0.4025 0.0
H566 H 0.66709 0.23233 0.49234 0.0
H567 H 0.62452 0.26274 0.47992 0.0
H568 H 0.66314 0.27639 0.37408 0.0
H569 H 0.64102 0.26503 0.34358 0.0
H570 H 0.67023 0.24379 0.35916 0.0
H571 H 0.62934 0.20628 0.36611 0.0
H572 H 0.60002 0.22736 0.35038 0.0
H573 H 0.59415 0.21328 0.38551 0.0
H574 H 0.58645 0.29318 0.45844 0.0
H575 H 0.55117 0.32018 0.4289 0.0
H576 H 0.58279 0.27907 0.35257 0.0
C577 C 0.6663 0.22253 0.41957 0.0
C578 C 0.67633 0.22006 0.44838 0.0
C579 C 0.66049 0.23437 0.47005 0.0
C580 C 0.63606 0.25156 0.46326 0.0
C581 C 0.62727 0.25403 0.43472 0.0
C582 C 0.6415 0.23974 0.41318 0.0
C583 C 0.62737 0.24656 0.38421 0.0
C584 C 0.65191 0.25866 0.36408 0.0
C585 C 0.61179 0.2219 0.37076 0.0
C586 C 0.60344 0.26723 0.39293 0.0
C587 C 0.60402 0.27117 0.42221 0.0
C588 C 0.58546 0.29009 0.43552 0.0
C589 C 0.56563 0.30545 0.4185 0.0
C590 C 0.5642 0.30169 0.38846 0.0
C591 C 0.5832 0.28213 0.37552 0.0
H592 H 0.35387 0.51001 0.95721 0.0
H593 H 0.33258 0.46425 0.8806 0.0
H594 H 0.35879 0.49836 0.85125 0.0
H595 H 0.34851 0.57741 0.92452 0.0
H596 H 0.38102 0.58988 0.94498 0.0
H597 H 0.3564 0.56412 0.95968 0.0
H598 H 0.40449 0.53397 0.96752 0.0
H599 H 0.4292 0.55956 0.95282 0.0
H600 H 0.42937 0.52649 0.9376 0.0
H601 H 0.39246 0.5339 0.83084 0.0
H602 H 0.43134 0.56881 0.82057 0.0
H603 H 0.43232 0.59136 0.91029 0.0
C604 C 0.35438 0.50726 0.93423 0.0
C605 C 0.34091 0.48441 0.92128 0.0
C606 C 0.34205 0.48176 0.89108 0.0
C607 C 0.35706 0.501 0.87419 0.0
C608 C 0.37074 0.52285 0.88774 0.0
C609 C 0.36944 0.52618 0.91706 0.0
C610 C 0.38833 0.55026 0.92649 0.0
C611 C 0.3673 0.57169 0.9397 0.0
C612 C 0.41439 0.54207 0.94733 0.0
C613 C 0.40131 0.55939 0.89798 0.0
C614 C 0.39051 0.54347 0.87589 0.0
C615 C 0.40075 0.54674 0.84787 0.0
C616 C 0.42296 0.56653 0.84229 0.0
C617 C 0.43482 0.5828 0.86463 0.0
C618 C 0.42335 0.57949 0.89274 0.0
H619 H 0.63616 0.49877 0.46317 0.0
H620 H 0.68414 0.5277 0.38736 0.0
H621 H 0.65967 0.49206 0.3589 0.0
H622 H 0.63616 0.42716 0.44493 0.0
H623 H 0.59749 0.422 0.45862 0.0
H624 H 0.62222 0.44727 0.47416 0.0
H625 H 0.57991 0.48289 0.46462 0.0
H626 H 0.55512 0.4578 0.44901 0.0
H627 H 0.5651 0.48727 0.42878 0.0
H628 H 0.62661 0.45665 0.33765 0.0
H629 H 0.58655 0.4239 0.32452 0.0
H630 H 0.55752 0.41877 0.41342 0.0
C631 C 0.64175 0.49759 0.44062 0.0
C632 C 0.66235 0.51612 0.42764 0.0
C633 C 0.66909 0.51353 0.39808 0.0
C634 C 0.65513 0.49339 0.38164 0.0
C635 C 0.63442 0.47599 0.395 0.0
C636 C 0.62773 0.47782 0.42381 0.0
C637 C 0.60269 0.45797 0.43236 0.0
C638 C 0.61541 0.43737 0.45378 0.0
C639 C 0.57401 0.47235 0.44439 0.0
C640 C 0.59574 0.44522 0.40364 0.0
C641 C 0.61468 0.4557 0.38252 0.0
C642 C 0.61187 0.44807 0.35403 0.0
C643 C 0.58892 0.42943 0.34681 0.0
C644 C 0.5688 0.41863 0.36793 0.0
C645 C 0.5726 0.42647 0.39681 0.0
H646 H 0.62373 0.48715 0.94566 0.0
H647 H 0.69125 0.47609 0.87783 0.0
H648 H 0.66468 0.51072 0.84901 0.0
H649 H 0.55783 0.49802 0.90174 0.0
H650 H 0.54148 0.5231 0.92483 0.0
H651 H 0.56577 0.49735 0.93966 0.0
H652 H 0.60205 0.53332 0.96179 0.0
H653 H 0.57778 0.55919 0.94714 0.0
H654 H 0.61869 0.55869 0.93902 0.0
H655 H 0.62926 0.54671 0.82735 0.0
H656 H 0.58975 0.58113 0.81598 0.0
H657 H 0.54827 0.56892 0.89963 0.0
C658 C 0.63341 0.49221 0.92497 0.0
C659 C 0.65975 0.47887 0.91415 0.0
C660 C 0.67093 0.48578 0.88654 0.0
C661 C 0.65609 0.50554 0.87006 0.0
C662 C 0.6302 0.51829 0.88154 0.0
C663 C 0.61915 0.51193 0.90846 0.0
C664 C 0.59114 0.52846 0.91621 0.0
C665 C 0.56236 0.51067 0.92087 0.0
C666 C 0.59783 0.54596 0.9426 0.0
C667 C 0.58799 0.54515 0.88942 0.0
C668 C 0.61055 0.53903 0.86951 0.0
C669 C 0.61161 0.55172 0.84288 0.0
C670 C 0.58907 0.57118 0.83657 0.0
C671 C 0.56599 0.57781 0.85693 0.0
C672 C 0.56569 0.56453 0.88363 0.0
H673 H 0.36349 0.49369 0.46446 0.0
H674 H 0.34049 0.5399 0.38852 0.0
H675 H 0.36543 0.50602 0.3584 0.0
H676 H 0.43863 0.47505 0.4416 0.0
H677 H 0.43728 0.44198 0.45684 0.0
H678 H 0.41483 0.46842 0.47254 0.0
H679 H 0.36483 0.43994 0.46683 0.0
H680 H 0.38715 0.41343 0.45098 0.0
H681 H 0.35436 0.42719 0.43202 0.0
H682 H 0.39624 0.46984 0.33662 0.0
H683 H 0.43219 0.43342 0.32445 0.0
H684 H 0.43617 0.40986 0.41383 0.0
C685 C 0.36353 0.49663 0.44149 0.0
C686 C 0.34956 0.51942 0.42893 0.0
C687 C 0.35023 0.52239 0.39873 0.0
C688 C 0.36451 0.50328 0.38137 0.0
C689 C 0.37809 0.4812 0.39442 0.0
C690 C 0.37779 0.4777 0.42375 0.0
C691 C 0.39575 0.45286 0.43228 0.0
C692 C 0.42325 0.46002 0.45197 0.0
C693 C 0.37423 0.43213 0.44636 0.0
C694 C 0.40679 0.44338 0.40318 0.0
C695 C 0.39604 0.45999 0.38168 0.0
C696 C 0.40451 0.45649 0.35319 0.0
C697 C 0.42498 0.4358 0.34651 0.0
C698 C 0.43674 0.41876 0.36816 0.0
C699 C 0.42702 0.42227 0.3968 0.0
H700 H 0.8712 0.96561 0.90043 0.0
H701 H 0.81113 0.0156 0.95185 0.0
H702 H 0.83515 0.05587 0.93074 0.0
H703 H 0.93781 0.00415 0.90822 0.0
H704 H 0.95219 0.99942 0.87237 0.0
H705 H 0.92758 0.97448 0.88843 0.0
H706 H 0.88927 0.97809 0.84573 0.0
H707 H 0.91388 0.00303 0.82945 0.0
H708 H 0.87354 0.01021 0.83613 0.0
H709 H 0.86951 0.09029 0.90905 0.0
H710 H 0.91189 0.11687 0.8873 0.0
H711 H 0.94939 0.04532 0.84874 0.0
C712 C 0.86254 0.98505 0.90659 0.0
C713 C 0.83923 0.98752 0.9277 0.0
C714 C 0.82904 0.01328 0.9358 0.0
C715 C 0.84241 0.03625 0.92381 0.0
C716 C 0.86585 0.03317 0.90359 0.0
C717 C 0.87574 0.00825 0.89484 0.0
C718 C 0.90305 0.01057 0.87448 0.0
C719 C 0.93185 0.99632 0.88661 0.0
C720 C 0.89441 0.99984 0.84467 0.0
C721 C 0.90757 0.04062 0.87389 0.0
C722 C 0.8856 0.05325 0.89062 0.0
C723 C 0.88639 0.08072 0.89537 0.0
C724 C 0.91047 0.09564 0.88299 0.0
C725 C 0.93321 0.0831 0.86596 0.0
C726 C 0.93159 0.05534 0.86102 0.0
H727 H 0.12014 0.03093 0.42009 0.0
H728 H 0.20303 0.98859 0.44661 0.0
H729 H 0.1825 0.94713 0.42448 0.0
H730 H 0.06601 0.9786 0.43198 0.0
H731 H 0.04268 0.98598 0.40088 0.0
H732 H 0.06436 0.01221 0.41818 0.0
H733 H 0.09159 0.02338 0.37013 0.0
H734 H 0.06996 0.99713 0.35271 0.0
H735 H 0.11179 0.99742 0.35111 0.0
H736 H 0.15033 0.90946 0.40331 0.0
H737 H 0.11112 0.87952 0.38102 0.0
H738 H 0.0516 0.94764 0.3651 0.0
C739 C 0.13397 0.01292 0.42106 0.0
C740 C 0.16305 0.01276 0.43506 0.0
C741 C 0.18073 0.989 0.43581 0.0
C742 C 0.16923 0.96542 0.42339 0.0
C743 C 0.14029 0.96615 0.40992 0.0
C744 C 0.12311 0.9894 0.40834 0.0
C745 C 0.09277 0.98496 0.39258 0.0
C746 C 0.06482 0.99078 0.41207 0.0
C747 C 0.09147 0.00172 0.36499 0.0
C748 C 0.09528 0.95548 0.38598 0.0
C749 C 0.12271 0.94488 0.39635 0.0
C750 C 0.12906 0.91762 0.39461 0.0
C751 C 0.10672 0.90079 0.38199 0.0
C752 C 0.07877 0.91142 0.37088 0.0
C753 C 0.07321 0.93912 0.37271 0.0
H754 H 0.16143 0.01569 0.95017 0.0
H755 H 0.16712 0.95992 0.87929 0.0
H756 H 0.13668 0.99079 0.84921 0.0
H757 H 0.08422 0.03269 0.93975 0.0
H758 H 0.08853 0.06736 0.94937 0.0
H759 H 0.11465 0.04292 0.96401 0.0
H760 H 0.16172 0.06964 0.9444 0.0
H761 H 0.13568 0.09427 0.92976 0.0
H762 H 0.16333 0.0779 0.90685 0.0
H763 H 0.10037 0.0248 0.82884 0.0
H764 H 0.06184 0.06009 0.81926 0.0
H765 H 0.07934 0.09361 0.90352 0.0
C766 C 0.15666 0.01012 0.92819 0.0
C767 C 0.16681 0.9854 0.91707 0.0
C768 C 0.16011 0.97892 0.88817 0.0
C769 C 0.1427 0.99629 0.87093 0.0
C770 C 0.13235 0.02014 0.88283 0.0
C771 C 0.13929 0.02719 0.91072 0.0
C772 C 0.12345 0.053 0.91901 0.0
C773 C 0.10141 0.04872 0.94454 0.0
C774 C 0.14748 0.07501 0.92537 0.0
C775 C 0.10565 0.05887 0.89175 0.0
C776 C 0.11136 0.03984 0.87103 0.0
C777 C 0.09605 0.04005 0.84472 0.0
C778 C 0.0741 0.06011 0.83955 0.0
C779 C 0.0676 0.07963 0.86061 0.0
C780 C 0.08403 0.07916 0.88685 0.0
H781 H 0.90304 0.02198 0.45282 0.0
H782 H 0.82342 0.02065 0.39542 0.0
H783 H 0.84672 0.98322 0.36902 0.0
H784 H 0.96091 0.00631 0.40111 0.0
H785 H 0.98304 0.98515 0.42476 0.0
H786 H 0.96027 0.01202 0.43922 0.0
H787 H 0.93134 0.97849 0.47213 0.0
H788 H 0.95404 0.95152 0.45771 0.0
H789 H 0.91222 0.94989 0.45653 0.0
H790 H 0.87917 0.94732 0.34771 0.0
H791 H 0.91817 0.91388 0.33365 0.0
H792 H 0.97536 0.93608 0.40657 0.0
C793 C 0.89024 0.01365 0.43494 0.0
C794 C 0.86138 0.02452 0.42615 0.0
C795 C 0.84578 0.01315 0.4023 0.0
C796 C 0.85871 0.9917 0.38729 0.0
C797 C 0.88712 0.98159 0.3965 0.0
C798 C 0.90265 0.99203 0.41987 0.0
C799 C 0.93292 0.97737 0.42526 0.0
C800 C 0.96093 0.99635 0.42241 0.0
C801 C 0.93259 0.96349 0.45466 0.0
C802 C 0.93205 0.95718 0.40111 0.0
C803 C 0.90546 0.96011 0.38474 0.0
C804 C 0.89994 0.94466 0.3605 0.0
C805 C 0.92225 0.9258 0.35266 0.0
C806 C 0.94962 0.92232 0.36914 0.0
C807 C 0.95441 0.93805 0.39386 0.0
H808 H 0.38233 0.32973 0.13583 0.0
H809 H 0.31151 0.3852 0.16367 0.0
H810 H 0.33372 0.3849 0.21247 0.0
H811 H 0.38939 0.29178 0.20475 0.0
H812 H 0.43094 0.28878 0.20136 0.0
H813 H 0.40684 0.29004 0.16975 0.0
H814 H 0.43896 0.33019 0.15086 0.0
H815 H 0.46303 0.32911 0.18238 0.0
H816 H 0.44322 0.35953 0.17289 0.0
H817 H 0.36636 0.38305 0.25577 0.0
H818 H 0.40822 0.3803 0.29164 0.0
H819 H 0.45895 0.32597 0.23671 0.0
C820 C 0.3711 0.34116 0.1525 0.0
C821 C 0.3451 0.35731 0.14627 0.0
C822 C 0.33139 0.37267 0.16822 0.0
C823 C 0.34374 0.3725 0.19596 0.0
C824 C 0.36981 0.35686 0.20135 0.0
C825 C 0.38337 0.34141 0.18034 0.0
C826 C 0.41303 0.32854 0.19121 0.0
C827 C 0.40984 0.29797 0.1918 0.0
C828 C 0.44121 0.33739 0.17327 0.0
C829 C 0.4145 0.33991 0.22128 0.0
C830 C 0.38904 0.35589 0.2267 0.0
C831 C 0.38614 0.37026 0.25201 0.0
C832 C 0.4101 0.36866 0.27217 0.0
C833 C 0.43668 0.35282 0.26696 0.0
C834 C 0.43859 0.3378 0.24144 0.0
H835 H 0.63107 0.61946 0.64626 0.0
H836 H 0.65998 0.70247 0.64004 0.0
H837 H 0.6348 0.71172 0.6864 0.0
H838 H 0.556 0.6329 0.67317 0.0
H839 H 0.55497 0.604 0.6962 0.0
H840 H 0.57782 0.60347 0.664 0.0
H841 H 0.62672 0.59126 0.69375 0.0
H842 H 0.604 0.59183 0.72609 0.0
H843 H 0.63834 0.61235 0.72318 0.0
H844 H 0.60442 0.71222 0.73261 0.0
H845 H 0.56945 0.70434 0.7737 0.0
H846 H 0.55849 0.62161 0.74766 0.0
C847 C 0.6321 0.63964 0.6545 0.0
C848 C 0.64763 0.66021 0.63944 0.0
C849 C 0.64872 0.68624 0.65135 0.0
C850 C 0.63435 0.69173 0.67762 0.0
C851 C 0.61895 0.67102 0.69166 0.0
C852 C 0.61767 0.64552 0.68044 0.0
C853 C 0.59823 0.6271 0.69884 0.0
C854 C 0.57009 0.61625 0.68205 0.0
C855 C 0.61801 0.60429 0.7112 0.0
C856 C 0.58836 0.64632 0.72199 0.0
C857 C 0.60084 0.67147 0.71772 0.0
C858 C 0.59458 0.69258 0.73621 0.0
C859 C 0.57474 0.6879 0.75949 0.0
C860 C 0.56114 0.66239 0.76379 0.0
C861 C 0.56839 0.64136 0.74488 0.0
H862 H 0.62889 0.32765 0.13895 0.0
H863 H 0.68272 0.39922 0.1565 0.0
H864 H 0.66147 0.40058 0.20548 0.0
H865 H 0.56179 0.34788 0.17429 0.0
H866 H 0.55167 0.3155 0.18843 0.0
H867 H 0.57399 0.31802 0.15601 0.0
H868 H 0.61707 0.28865 0.17855 0.0
H869 H 0.59483 0.28603 0.21111 0.0
H870 H 0.63422 0.29833 0.21226 0.0
H871 H 0.63019 0.39765 0.24974 0.0
H872 H 0.59058 0.39029 0.28714 0.0
H873 H 0.55762 0.31989 0.24255 0.0
C874 C 0.63675 0.34318 0.1534 0.0
C875 C 0.65748 0.36332 0.14402 0.0
C876 C 0.66671 0.38371 0.16325 0.0
C877 C 0.65495 0.38454 0.19115 0.0
C878 C 0.63408 0.36474 0.19958 0.0
C879 C 0.62509 0.34435 0.18139 0.0
C880 C 0.60039 0.32687 0.19513 0.0
C881 C 0.57018 0.3271 0.17741 0.0
C882 C 0.61235 0.29827 0.19952 0.0
C883 C 0.5963 0.34108 0.22353 0.0
C884 C 0.61622 0.36274 0.22568 0.0
C885 C 0.61499 0.38042 0.24865 0.0
C886 C 0.59249 0.37613 0.26975 0.0
C887 C 0.5718 0.35425 0.26789 0.0
C888 C 0.574 0.33623 0.24479 0.0
H889 H 0.37787 0.67899 0.64064 0.0
H890 H 0.30453 0.62599 0.66951 0.0
H891 H 0.32582 0.62747 0.71864 0.0
H892 H 0.43674 0.64911 0.67945 0.0
H893 H 0.45772 0.67926 0.68814 0.0
H894 H 0.43395 0.67797 0.65645 0.0
H895 H 0.40336 0.71935 0.67376 0.0
H896 H 0.42715 0.7208 0.70556 0.0
H897 H 0.38546 0.71893 0.70862 0.0
H898 H 0.35838 0.62924 0.76214 0.0
H899 H 0.40072 0.63087 0.79777 0.0
H900 H 0.45368 0.68318 0.74205 0.0
C901 C 0.36584 0.66845 0.65759 0.0
C902 C 0.33938 0.65261 0.65152 0.0
C903 C 0.32471 0.63833 0.6739 0.0
C904 C 0.33655 0.63917 0.70184 0.0
C905 C 0.36311 0.6544 0.70708 0.0
C906 C 0.37759 0.6689 0.68567 0.0
C907 C 0.40768 0.68128 0.69648 0.0
C908 C 0.43566 0.6713 0.6791 0.0
C909 C 0.40579 0.71191 0.69608 0.0
C910 C 0.40838 0.67066 0.72695 0.0
C911 C 0.38216 0.65551 0.73263 0.0
C912 C 0.37867 0.64151 0.75821 0.0
C913 C 0.40284 0.64252 0.77828 0.0
C914 C 0.43012 0.6575 0.77279 0.0
C915 C 0.43262 0.67226 0.74708 0.0
H916 H 0.84938 0.82753 0.15562 0.0
H917 H 0.83981 0.9138 0.14905 0.0
H918 H 0.86617 0.91899 0.19514 0.0
H919 H 0.84323 0.82231 0.23447 0.0
H920 H 0.87302 0.79719 0.23691 0.0
H921 H 0.84902 0.79934 0.20529 0.0
H922 H 0.89819 0.80373 0.17375 0.0
H923 H 0.92228 0.80147 0.2052 0.0
H924 H 0.92611 0.82969 0.18145 0.0
H925 H 0.89789 0.91614 0.23866 0.0
H926 H 0.93581 0.90524 0.27641 0.0
H927 H 0.92788 0.82111 0.25551 0.0
C928 C 0.85253 0.84753 0.1639 0.0
C929 C 0.84165 0.87018 0.14859 0.0
C930 C 0.84663 0.89594 0.16048 0.0
C931 C 0.86187 0.89919 0.18672 0.0
C932 C 0.8724 0.87657 0.20099 0.0
C933 C 0.86817 0.85122 0.19004 0.0
C934 C 0.88456 0.83058 0.20854 0.0
C935 C 0.86104 0.81121 0.22211 0.0
C936 C 0.90925 0.81549 0.1912 0.0
C937 C 0.89939 0.84847 0.23104 0.0
C938 C 0.89155 0.87488 0.22637 0.0
C939 C 0.90388 0.89552 0.24282 0.0
C940 C 0.92543 0.88914 0.26416 0.0
C941 C 0.93448 0.86237 0.26897 0.0
C942 C 0.92075 0.84166 0.25267 0.0
H943 H 0.14849 0.11634 0.6591 0.0
H944 H 0.15445 0.20102 0.63963 0.0
H945 H 0.12559 0.21112 0.68389 0.0
H946 H 0.07155 0.11715 0.68319 0.0
H947 H 0.07714 0.09268 0.71106 0.0
H948 H 0.10147 0.09226 0.6798 0.0
H949 H 0.1505 0.09533 0.71198 0.0
H950 H 0.12628 0.0957 0.7434 0.0
H951 H 0.15402 0.12217 0.73749 0.0
H952 H 0.09187 0.21176 0.7277 0.0
H953 H 0.05643 0.20302 0.76807 0.0
H954 H 0.07165 0.11779 0.75853 0.0
C955 C 0.14396 0.13705 0.66421 0.0
C956 C 0.15386 0.15789 0.64584 0.0
C957 C 0.14761 0.18471 0.65353 0.0
C958 C 0.13108 0.19065 0.67858 0.0
C959 C 0.12109 0.16957 0.69581 0.0
C960 C 0.12744 0.14331 0.68905 0.0
C961 C 0.11252 0.12427 0.71023 0.0
C962 C 0.08929 0.10549 0.69517 0.0
C963 C 0.13731 0.10843 0.72676 0.0
C964 C 0.09609 0.14389 0.72957 0.0
C965 C 0.10155 0.16993 0.72104 0.0
C966 C 0.08769 0.19147 0.73476 0.0
C967 C 0.0675 0.18627 0.75763 0.0
C968 C 0.06122 0.15971 0.76655 0.0
C969 C 0.07612 0.13833 0.75246 0.0
H970 H 0.15244 0.89253 0.15554 0.0
H971 H 0.15166 0.80952 0.12881 0.0
H972 H 0.12198 0.79746 0.17208 0.0
H973 H 0.15907 0.8799 0.23255 0.0
H974 H 0.13372 0.9071 0.24183 0.0
H975 H 0.15693 0.90897 0.20982 0.0
H976 H 0.1073 0.9172 0.17955 0.0
H977 H 0.08399 0.91542 0.21144 0.0
H978 H 0.07551 0.89373 0.18162 0.0
H979 H 0.08909 0.79489 0.21604 0.0
H980 H 0.05563 0.80196 0.25818 0.0
H981 H 0.07813 0.88655 0.25664 0.0
C982 C 0.14614 0.8718 0.15887 0.0
C983 C 0.15451 0.85194 0.13887 0.0
C984 C 0.14595 0.82501 0.14406 0.0
C985 C 0.12899 0.81797 0.16852 0.0
C986 C 0.12092 0.83806 0.18766 0.0
C987 C 0.12931 0.8644 0.18322 0.0
C988 C 0.11665 0.88227 0.20655 0.0
C989 C 0.14318 0.89533 0.2237 0.0
C990 C 0.09455 0.90339 0.19403 0.0
C991 C 0.09929 0.86192 0.22446 0.0
C992 C 0.10217 0.83652 0.21326 0.0
C993 C 0.08691 0.81463 0.22521 0.0
C994 C 0.0679 0.81886 0.24908 0.0
C995 C 0.06437 0.84477 0.26076 0.0
C996 C 0.08069 0.86646 0.24846 0.0
H997 H 0.86418 0.12025 0.65274 0.0
H998 H 0.84099 0.20419 0.64409 0.0
H999 H 0.86293 0.21281 0.69214 0.0
H1000 H 0.85151 0.11427 0.73015 0.0
H1001 H 0.88434 0.09243 0.73478 0.0
H1002 H 0.86301 0.09234 0.70152 0.0
H1003 H 0.91387 0.1021 0.67368 0.0
H1004 H 0.93531 0.10211 0.70677 0.0
H1005 H 0.93714 0.13072 0.68337 0.0
H1006 H 0.89173 0.21277 0.73974 0.0
H1007 H 0.92679 0.20438 0.7809 0.0
H1008 H 0.93246 0.12093 0.75657 0.0
C1009 C 0.86353 0.14047 0.66091 0.0
C1010 C 0.85077 0.16151 0.64455 0.0
C1011 C 0.85016 0.1876 0.65633 0.0
C1012 C 0.86266 0.19272 0.68361 0.0
C1013 C 0.87559 0.17155 0.69888 0.0
C1014 C 0.87608 0.14594 0.68787 0.0
C1015 C 0.89352 0.12703 0.70733 0.0
C1016 C 0.87179 0.10523 0.71914 0.0
C1017 C 0.92162 0.11479 0.69186 0.0
C1018 C 0.90358 0.14613 0.73063 0.0
C1019 C 0.89261 0.17163 0.72575 0.0
C1020 C 0.9002 0.19281 0.7439 0.0
C1021 C 0.92006 0.18786 0.76725 0.0
C1022 C 0.93242 0.16202 0.77187 0.0
C1023 C 0.92341 0.1409 0.75361 0.0
loop_
_geom_bond_atom_site_label_1
_geom_bond_atom_site_label_2
_geom_bond_distance
_geom_bond_site_symmetry_2
_ccdc_geom_bond_type
C0 C1 1.384 . S
C0 H13 0.947 . S
C0 C35 1.382 . S
C1 C0 1.384 . S
C1 C2 1.378 . S
C2 C1 1.378 . S
C2 C3 1.378 . S
C2 H14 0.952 . S
C3 C2 1.378 . S
C3 H15 0.950 . S
C3 C34 1.383 . S
H4 C23 0.949 1_554 S
H5 C24 0.946 1_554 S
H6 C26 0.953 . S
H7 C27 0.945 . S
H8 C29 0.952 . S
H9 C30 0.949 . S
H10 C32 0.950 . S
H11 C33 0.948 1_554 S
H12 C35 0.951 . S
H13 C0 0.947 . S
H14 C2 0.952 . S
H15 C3 0.950 . S
N16 C19 1.382 1_554 S
N16 C21 1.363 . S
N17 C19 1.371 . S
N17 C20 1.372 . S
N18 C20 1.361 1_554 S
N18 C21 1.377 . S
C19 N16 1.382 1_556 S
C19 N17 1.371 . S
C19 C22 1.480 . S
C20 N17 1.372 . S
C20 N18 1.361 1_556 S
C20 C28 1.457 . S
C21 N16 1.363 . S
C21 N18 1.377 . S
C21 C34 1.479 . S
C22 C19 1.480 . S
C22 C23 1.382 . S
C22 C27 1.385 . S
C23 H4 0.949 1_556 S
C23 C22 1.382 . S
C23 C24 1.388 . S
C24 H5 0.946 1_556 S
C24 C23 1.388 . S
C24 C25 1.384 . S
C25 C24 1.384 . S
C25 C26 1.377 . S
C26 H6 0.953 . S
C26 C25 1.377 . S
C26 C27 1.369 . S
C27 H7 0.945 . S
C27 C22 1.385 . S
C27 C26 1.369 . S
C28 C20 1.457 . S
C28 C29 1.372 . S
C28 C33 1.364 . S
C29 H8 0.952 . S
C29 C28 1.372 . S
C29 C30 1.389 . S
C30 H9 0.949 . S
C30 C29 1.389 . S
C30 C31 1.387 . S
C31 C30 1.387 . S
C31 C32 1.372 . S
C32 H10 0.950 . S
C32 C31 1.372 . S
C32 C33 1.379 . S
C33 H11 0.948 1_556 S
C33 C28 1.364 . S
C33 C32 1.379 . S
C34 C3 1.383 . S
C34 C21 1.479 . S
C34 C35 1.398 . S
C35 C0 1.382 . S
C35 H12 0.951 . S
C35 C34 1.398 . S
C36 C37 1.384 . S
C36 H49 0.947 . S
C36 C71 1.382 . S
C37 C36 1.384 . S
C37 C38 1.378 . S
C38 C37 1.378 . S
C38 C39 1.378 . S
C38 H50 0.952 . S
C39 C38 1.378 . S
C39 H51 0.950 . S
C39 C70 1.383 . S
H40 C59 0.947 . S
H41 C60 0.946 . S
H42 C62 0.953 . S
H43 C63 0.945 . S
H44 C65 0.952 . S
H45 C66 0.949 . S
H46 C68 0.950 . S
H47 C69 0.948 . S
H48 C71 0.951 . S
H49 C36 0.947 . S
H50 C38 0.952 . S
H51 C39 0.950 . S
N52 C55 1.382 . S
N52 C57 1.363 . S
N53 C55 1.371 . S
N53 C56 1.372 . S
N54 C56 1.361 . S
N54 C57 1.377 . S
C55 N52 1.382 . S
C55 N53 1.371 . S
C55 C58 1.480 . S
C56 N53 1.372 . S
C56 N54 1.361 . S
C56 C64 1.457 . S
C57 N52 1.363 . S
C57 N54 1.377 . S
C57 C70 1.479 . S
C58 C55 1.480 . S
C58 C59 1.383 . S
C58 C63 1.385 . S
C59 H40 0.947 . S
C59 C58 1.383 . S
C59 C60 1.388 . S
C60 H41 0.946 . S
C60 C59 1.388 . S
C60 C61 1.384 . S
C61 C60 1.384 . S
C61 C62 1.377 . S
C62 H42 0.953 . S
C62 C61 1.377 . S
C62 C63 1.369 . S
C63 H43 0.945 . S
C63 C58 1.385 . S
C63 C62 1.369 . S
C64 C56 1.457 . S
C64 C65 1.372 . S
C64 C69 1.364 . S
C65 H44 0.952 . S
C65 C64 1.372 . S
C65 C66 1.389 . S
C66 H45 0.949 . S
C66 C65 1.389 . S
C66 C67 1.387 . S
C67 C66 1.387 . S
C67 C68 1.372 . S
C68 H46 0.950 . S
C68 C67 1.372 . S
C68 C69 1.379 . S
C69 H47 0.948 . S
C69 C64 1.364 . S
C69 C68 1.379 . S
C70 C39 1.383 . S
C70 C57 1.479 . S
C70 C71 1.398 . S
C71 C36 1.382 . S
C71 H48 0.951 . S
C71 C70 1.398 . S
C72 C73 1.384 . S
C72 H85 0.947 . S
C72 C107 1.382 . S
C73 C72 1.384 . S
C73 C74 1.378 . S
C74 C73 1.378 . S
C74 C75 1.378 . S
C74 H86 0.952 . S
C75 C74 1.378 . S
C75 H87 0.950 . S
C75 C106 1.383 . S
H76 C95 0.959 . S
H77 C96 0.946 . S
H78 C98 0.953 . S
H79 C99 0.945 . S
H80 C101 0.952 . S
H81 C102 0.949 . S
H82 C104 0.950 . S
H83 C105 0.948 1_554 S
H84 C107 0.951 . S
H85 C72 0.947 . S
H86 C74 0.952 . S
H87 C75 0.950 . S
N88 C91 1.382 1_554 S
N88 C93 1.363 . S
N89 C91 1.371 . S
N89 C92 1.372 . S
N90 C92 1.361 1_554 S
N90 C93 1.377 . S
C91 N88 1.382 1_556 S
C91 N89 1.371 . S
C91 C94 1.480 . S
C92 N89 1.372 . S
C92 N90 1.361 1_556 S
C92 C100 1.457 . S
C93 N88 1.363 . S
C93 N90 1.377 . S
C93 C106 1.479 . S
C94 C91 1.480 . S
C94 C95 1.377 1_556 S
C94 C99 1.385 . S
C95 H76 0.959 . S
C95 C94 1.377 1_554 S
C95 C96 1.383 1_554 S
C96 H77 0.946 . S
C96 C95 1.383 1_556 S
C96 C97 1.384 . S
C97 C96 1.384 . S
C97 C98 1.377 . S
C98 H78 0.953 . S
C98 C97 1.377 . S
C98 C99 1.369 . S
C99 H79 0.945 . S
C99 C94 1.385 . S
C99 C98 1.369 . S
C100 C92 1.457 . S
C100 C101 1.372 . S
C100 C105 1.364 . S
C101 H80 0.952 . S
C101 C100 1.372 . S
C101 C102 1.389 . S
C102 H81 0.949 . S
C102 C101 1.389 . S
C102 C103 1.387 . S
C103 C102 1.387 . S
C103 C104 1.372 . S
C104 H82 0.950 . S
C104 C103 1.372 . S
C104 C105 1.379 . S
C105 H83 0.948 1_556 S
C105 C100 1.364 . S
C105 C104 1.379 . S
C106 C75 1.383 . S
C106 C93 1.479 . S
C106 C107 1.398 . S
C107 C72 1.382 . S
C107 H84 0.951 . S
C107 C106 1.398 . S
C108 C109 1.384 . S
C108 H121 0.947 . S
C108 C143 1.382 . S
C109 C108 1.384 . S
C109 C110 1.378 . S
C110 C109 1.378 . S
C110 C111 1.378 . S
C110 H122 0.952 . S
C111 C110 1.378 . S
C111 H123 0.950 . S
C111 C142 1.383 . S
H112 C131 0.947 . S
H113 C132 0.946 . S
H114 C134 0.953 . S
H115 C135 0.945 . S
H116 C137 0.952 . S
H117 C138 0.949 . S
H118 C140 0.950 . S
H119 C141 0.948 . S
H120 C143 0.951 . S
H121 C108 0.947 . S
H122 C110 0.952 . S
H123 C111 0.950 . S
N124 C127 1.382 . S
N124 C129 1.363 . S
N125 C127 1.371 . S
N125 C128 1.372 . S
N126 C128 1.361 . S
N126 C129 1.377 . S
C127 N124 1.382 . S
C127 N125 1.371 . S
C127 C130 1.480 . S
C128 N125 1.372 . S
C128 N126 1.361 . S
C128 C136 1.457 . S
C129 N124 1.363 . S
C129 N126 1.377 . S
C129 C142 1.479 . S
C130 C127 1.480 . S
C130 C131 1.383 . S
C130 C135 1.385 . S
C131 H112 0.947 . S
C131 C130 1.383 . S
C131 C132 1.388 . S
C132 H113 0.946 . S
C132 C131 1.388 . S
C132 C133 1.384 . S
C133 C132 1.384 . S
C133 C134 1.377 . S
C134 H114 0.953 . S
C134 C133 1.377 . S
C134 C135 1.369 . S
C135 H115 0.945 . S
C135 C130 1.385 . S
C135 C134 1.369 . S
C136 C128 1.457 . S
C136 C137 1.372 . S
C136 C141 1.364 . S
C137 H116 0.952 . S
C137 C136 1.372 . S
C137 C138 1.389 . S
C138 H117 0.949 . S
C138 C137 1.389 . S
C138 C139 1.387 . S
C139 C138 1.387 . S
C139 C140 1.372 . S
C140 H118 0.950 . S
C140 C139 1.372 . S
C140 C141 1.379 . S
C141 H119 0.948 . S
C141 C136 1.364 . S
C141 C140 1.379 . S
C142 C111 1.383 . S
C142 C129 1.479 . S
C142 C143 1.398 . S
C143 C108 1.382 . S
C143 H120 0.951 . S
C143 C142 1.398 . S
C144 C145 1.384 . S
C144 H157 0.947 . S
C144 C179 1.382 . S
C145 C144 1.384 . S
C145 C146 1.378 . S
C146 C145 1.378 . S
C146 C147 1.378 . S
C146 H158 0.952 . S
C147 C146 1.378 . S
C147 H159 0.950 . S
C147 C178 1.383 . S
H148 C167 0.949 1_554 S
H149 C168 0.946 1_554 S
H150 C170 0.953 . S
H151 C171 0.945 . S
H152 C173 0.952 . S
H153 C174 0.949 . S
H154 C176 0.950 . S
H155 C177 0.948 1_554 S
H156 C179 0.951 . S
H157 C144 0.947 . S
H158 C146 0.952 . S
H159 C147 0.950 . S
N160 C163 1.382 1_554 S
N160 C165 1.363 . S
N161 C163 1.371 . S
N161 C164 1.372 . S
N162 C164 1.361 1_554 S
N162 C165 1.377 . S
C163 N160 1.382 1_556 S
C163 N161 1.371 . S
C163 C166 1.480 . S
C164 N161 1.372 . S
C164 N162 1.361 1_556 S
C164 C172 1.457 . S
C165 N160 1.363 . S
C165 N162 1.377 . S
C165 C178 1.479 . S
C166 C163 1.480 . S
C166 C167 1.382 . S
C166 C171 1.385 . S
C167 H148 0.949 1_556 S
C167 C166 1.382 . S
C167 C168 1.388 . S
C168 H149 0.946 1_556 S
C168 C167 1.388 . S
C168 C169 1.384 . S
C169 C168 1.384 . S
C169 C170 1.377 . S
C170 H150 0.953 . S
C170 C169 1.377 . S
C170 C171 1.369 . S
C171 H151 0.945 . S
C171 C166 1.385 . S
C171 C170 1.369 . S
C172 C164 1.457 . S
C172 C173 1.372 . S
C172 C177 1.364 . S
C173 H152 0.952 . S
C173 C172 1.372 . S
C173 C174 1.389 . S
C174 H153 0.949 . S
C174 C173 1.389 . S
C174 C175 1.387 . S
C175 C174 1.387 . S
C175 C176 1.372 . S
C176 H154 0.950 . S
C176 C175 1.372 . S
C176 C177 1.379 . S
C177 H155 0.948 1_556 S
C177 C172 1.364 . S
C177 C176 1.379 . S
C178 C147 1.383 . S
C178 C165 1.479 . S
C178 C179 1.398 . S
C179 C144 1.382 . S
C179 H156 0.951 . S
C179 C178 1.398 . S
C180 C181 1.384 . S
C180 H193 0.947 . S
C180 C215 1.382 . S
C181 C180 1.384 . S
C181 C182 1.378 . S
C182 C181 1.378 . S
C182 C183 1.378 . S
C182 H194 0.952 . S
C183 C182 1.378 . S
C183 H195 0.950 . S
C183 C214 1.383 . S
H184 C203 0.947 . S
H185 C204 0.946 . S
H186 C206 0.953 . S
H187 C207 0.945 . S
H188 C209 0.952 . S
H189 C210 0.949 . S
H190 C212 0.950 . S
H191 C213 0.948 . S
H192 C215 0.951 . S
H193 C180 0.947 . S
H194 C182 0.952 . S
H195 C183 0.950 . S
N196 C199 1.382 . S
N196 C201 1.363 . S
N197 C199 1.371 . S
N197 C200 1.372 . S
N198 C200 1.361 . S
N198 C201 1.377 . S
C199 N196 1.382 . S
C199 N197 1.371 . S
C199 C202 1.480 . S
C200 N197 1.372 . S
C200 N198 1.361 . S
C200 C208 1.457 . S
C201 N196 1.363 . S
C201 N198 1.377 . S
C201 C214 1.479 . S
C202 C199 1.480 . S
C202 C203 1.383 . S
C202 C207 1.385 . S
C203 H184 0.947 . S
C203 C202 1.383 . S
C203 C204 1.388 . S
C204 H185 0.946 . S
C204 C203 1.388 . S
C204 C205 1.384 . S
C205 C204 1.384 . S
C205 C206 1.377 . S
C206 H186 0.953 . S
C206 C205 1.377 . S
C206 C207 1.369 . S
C207 H187 0.945 . S
C207 C202 1.385 . S
C207 C206 1.369 . S
C208 C200 1.457 . S
C208 C209 1.372 . S
C208 C213 1.364 . S
C209 H188 0.952 . S
C209 C208 1.372 . S
C209 C210 1.389 . S
C210 H189 0.949 . S
C210 C209 1.389 . S
C210 C211 1.387 . S
C211 C210 1.387 . S
C211 C212 1.372 . S
C212 H190 0.950 . S
C212 C211 1.372 . S
C212 C213 1.379 . S
C213 H191 0.948 . S
C213 C208 1.364 . S
C213 C212 1.379 . S
C214 C183 1.383 . S
C214 C201 1.479 . S
C214 C215 1.398 . S
C215 C180 1.382 . S
C215 H192 0.951 . S
C215 C214 1.398 . S
C216 C217 1.384 . S
C216 H229 0.947 . S
C216 C251 1.382 . S
C217 C216 1.384 . S
C217 C218 1.378 . S
C218 C217 1.378 . S
C218 C219 1.378 . S
C218 H230 0.952 . S
C219 C218 1.378 . S
C219 H231 0.950 . S
C219 C250 1.383 . S
H220 C239 0.959 . S
H221 C240 0.946 . S
H222 C242 0.953 . S
H223 C243 0.945 . S
H224 C245 0.952 . S
H225 C246 0.949 . S
H226 C248 0.950 . S
H227 C249 0.948 1_554 S
H228 C251 0.951 . S
H229 C216 0.947 . S
H230 C218 0.952 . S
H231 C219 0.950 . S
N232 C235 1.382 1_554 S
N232 C237 1.363 . S
N233 C235 1.371 . S
N233 C236 1.372 . S
N234 C236 1.361 1_554 S
N234 C237 1.377 . S
C235 N232 1.382 1_556 S
C235 N233 1.371 . S
C235 C238 1.480 . S
C236 N233 1.372 . S
C236 N234 1.361 1_556 S
C236 C244 1.457 . S
C237 N232 1.363 . S
C237 N234 1.377 . S
C237 C250 1.479 . S
C238 C235 1.480 . S
C238 C239 1.376 1_556 S
C238 C243 1.385 . S
C239 H220 0.959 . S
C239 C238 1.376 1_554 S
C239 C240 1.383 1_554 S
C240 H221 0.946 . S
C240 C239 1.383 1_556 S
C240 C241 1.384 . S
C241 C240 1.384 . S
C241 C242 1.377 . S
C242 H222 0.953 . S
C242 C241 1.377 . S
C242 C243 1.369 . S
C243 H223 0.945 . S
C243 C238 1.385 . S
C243 C242 1.369 . S
C244 C236 1.457 . S
C244 C245 1.372 . S
C244 C249 1.364 . S
C245 H224 0.952 . S
C245 C244 1.372 . S
C245 C246 1.389 . S
C246 H225 0.949 . S
C246 C245 1.389 . S
C246 C247 1.387 . S
C247 C246 1.387 . S
C247 C248 1.372 . S
C248 H226 0.950 . S
C248 C247 1.372 . S
C248 C249 1.379 . S
C249 H227 0.948 1_556 S
C249 C244 1.364 . S
C249 C248 1.379 . S
C250 C219 1.383 . S
C250 C237 1.479 . S
C250 C251 1.398 . S
C251 C216 1.382 . S
C251 H228 0.951 . S
C251 C250 1.398 . S
C252 C253 1.384 . S
C252 H265 0.947 . S
C252 C287 1.382 . S
C253 C252 1.384 . S
C253 C254 1.378 . S
C254 C253 1.378 . S
C254 C255 1.378 . S
C254 H266 0.952 . S
C255 C254 1.378 . S
C255 H267 0.950 . S
C255 C286 1.383 . S
H256 C275 0.947 . S
H257 C276 0.946 . S
H258 C278 0.953 . S
H259 C279 0.945 . S
H260 C281 0.952 . S
H261 C282 0.949 . S
H262 C284 0.950 . S
H263 C285 0.948 . S
H264 C287 0.951 . S
H265 C252 0.947 . S
H266 C254 0.952 . S
H267 C255 0.950 . S
N268 C271 1.382 . S
N268 C273 1.363 . S
N269 C271 1.371 . S
N269 C272 1.372 . S
N270 C272 1.361 . S
N270 C273 1.377 . S
C271 N268 1.382 . S
C271 N269 1.371 . S
C271 C274 1.480 . S
C272 N269 1.372 . S
C272 N270 1.361 . S
C272 C280 1.457 . S
C273 N268 1.363 . S
C273 N270 1.377 . S
C273 C286 1.479 . S
C274 C271 1.480 . S
C274 C275 1.383 . S
C274 C279 1.385 . S
C275 H256 0.947 . S
C275 C274 1.383 . S
C275 C276 1.388 . S
C276 H257 0.946 . S
C276 C275 1.388 . S
C276 C277 1.384 . S
C277 C276 1.384 . S
C277 C278 1.377 . S
C278 H258 0.953 . S
C278 C277 1.377 . S
C278 C279 1.369 . S
C279 H259 0.945 . S
C279 C274 1.385 . S
C279 C278 1.369 . S
C280 C272 1.457 . S
C280 C281 1.372 . S
C280 C285 1.364 . S
C281 H260 0.952 . S
C281 C280 1.372 . S
C281 C282 1.389 . S
C282 H261 0.949 . S
C282 C281 1.389 . S
C282 C283 1.387 . S
C283 C282 1.387 . S
C283 C284 1.372 . S
C284 H262 0.950 . S
C284 C283 1.372 . S
C284 C285 1.379 . S
C285 H263 0.948 . S
C285 C280 1.364 . S
C285 C284 1.379 . S
C286 C255 1.383 . S
C286 C273 1.479 . S
C286 C287 1.398 . S
C287 C252 1.382 . S
C287 H264 0.951 . S
C287 C286 1.398 . S
Fe288 O290 1.918 . S
Fe288 O293 1.997 1_455 S
Fe288 O294 2.002 1_455 S
Fe288 O299 1.976 . S
Fe288 O302 1.996 . S
Fe289 O290 1.918 . S
Fe289 O297 1.997 1_455 S
Fe289 O300 1.996 . S
Fe289 O304 1.976 . S
Fe289 O307 2.002 1_455 S
O290 Fe288 1.918 . S
O290 Fe289 1.918 . S
O290 Fe291 1.918 . S
Fe291 O290 1.918 . S
Fe291 O292 2.002 1_455 S
Fe291 O301 1.976 . S
Fe291 O305 1.996 . S
Fe291 O308 1.997 1_455 S
O292 Fe291 2.002 1_655 S
O292 C309 1.295 . S
O293 Fe288 1.997 1_655 S
O293 C309 1.235 . S
O294 Fe288 2.002 1_655 S
O294 C295 1.295 . S
C295 O294 1.295 . S
C295 O297 1.235 . S
C296 O301 1.287 . S
C296 O302 1.255 . S
O297 Fe289 1.997 1_655 S
O297 C295 1.235 . S
C298 O304 1.287 . S
C298 O305 1.255 . S
O299 Fe288 1.976 . S
O299 C306 1.287 . S
O300 Fe289 1.996 . S
O300 C306 1.255 . S
O301 Fe291 1.976 . S
O301 C296 1.287 . S
O302 Fe288 1.996 . S
O302 C296 1.255 . S
C303 O307 1.295 . S
C303 O308 1.235 . S
O304 Fe289 1.976 . S
O304 C298 1.287 . S
O305 Fe291 1.996 . S
O305 C298 1.255 . S
C306 O299 1.287 . S
C306 O300 1.255 . S
O307 Fe289 2.002 1_655 S
O307 C303 1.295 . S
O308 Fe291 1.997 1_655 S
O308 C303 1.235 . S
C309 O292 1.295 . S
C309 O293 1.235 . S
Fe310 O312 1.919 . S
Fe310 O315 1.982 1_655 S
Fe310 O316 1.987 1_655 S
Fe310 O321 1.991 . S
Fe310 O324 2.011 . S
Fe311 O312 1.919 . S
Fe311 O319 1.982 1_655 S
Fe311 O322 2.010 . S
Fe311 O326 1.991 . S
Fe311 O329 1.987 1_655 S
O312 Fe310 1.919 . S
O312 Fe311 1.919 . S
O312 Fe313 1.919 . S
Fe313 O312 1.919 . S
Fe313 O314 1.988 1_655 S
Fe313 O323 1.990 . S
Fe313 O327 2.010 . S
Fe313 O330 1.982 1_655 S
O314 Fe313 1.988 1_455 S
O314 C331 1.295 . S
O315 Fe310 1.982 1_455 S
O315 C331 1.235 . S
O316 Fe310 1.987 1_455 S
O316 C317 1.295 . S
C317 O316 1.295 . S
C317 O319 1.235 . S
C318 O323 1.287 . S
C318 O324 1.255 . S
O319 Fe311 1.982 1_455 S
O319 C317 1.235 . S
C320 O326 1.287 . S
C320 O327 1.255 . S
O321 Fe310 1.991 . S
O321 C328 1.287 . S
O322 Fe311 2.010 . S
O322 C328 1.255 . S
O323 Fe313 1.990 . S
O323 C318 1.287 . S
O324 Fe310 2.011 . S
O324 C318 1.255 . S
C325 O329 1.295 . S
C325 O330 1.235 . S
O326 Fe311 1.991 . S
O326 C320 1.287 . S
O327 Fe313 2.010 . S
O327 C320 1.255 . S
C328 O321 1.287 . S
C328 O322 1.255 . S
O329 Fe311 1.987 1_455 S
O329 C325 1.295 . S
O330 Fe313 1.982 1_455 S
O330 C325 1.235 . S
C331 O314 1.295 . S
C331 O315 1.235 . S
Fe332 O334 1.918 . S
Fe332 O337 1.997 . S
Fe332 O338 2.002 . S
Fe332 O343 1.976 . S
Fe332 O346 1.996 . S
Fe333 O334 1.918 . S
Fe333 O341 1.997 . S
Fe333 O344 1.996 . S
Fe333 O348 1.976 . S
Fe333 O351 2.002 . S
O334 Fe332 1.918 . S
O334 Fe333 1.918 . S
O334 Fe335 1.918 . S
Fe335 O334 1.918 . S
Fe335 O336 2.002 . S
Fe335 O345 1.976 . S
Fe335 O349 1.996 . S
Fe335 O352 1.997 . S
O336 Fe335 2.002 . S
O336 C353 1.295 . S
O337 Fe332 1.997 . S
O337 C353 1.235 . S
O338 Fe332 2.002 . S
O338 C339 1.295 . S
C339 O338 1.295 . S
C339 O341 1.235 . S
C340 O345 1.287 . S
C340 O346 1.255 . S
O341 Fe333 1.997 . S
O341 C339 1.235 . S
C342 O348 1.287 . S
C342 O349 1.255 . S
O343 Fe332 1.976 . S
O343 C350 1.287 . S
O344 Fe333 1.996 . S
O344 C350 1.255 . S
O345 Fe335 1.976 . S
O345 C340 1.287 . S
O346 Fe332 1.996 . S
O346 C340 1.255 . S
C347 O351 1.295 . S
C347 O352 1.235 . S
O348 Fe333 1.976 . S
O348 C342 1.287 . S
O349 Fe335 1.996 . S
O349 C342 1.255 . S
C350 O343 1.287 . S
C350 O344 1.255 . S
O351 Fe333 2.002 . S
O351 C347 1.295 . S
O352 Fe335 1.997 . S
O352 C347 1.235 . S
C353 O336 1.295 . S
C353 O337 1.235 . S
Fe354 O356 1.918 . S
Fe354 O359 1.997 . S
Fe354 O360 2.002 . S
Fe354 O365 1.976 . S
Fe354 O368 1.996 . S
Fe355 O356 1.918 . S
Fe355 O363 1.997 . S
Fe355 O366 1.996 . S
Fe355 O370 1.976 . S
Fe355 O373 2.002 . S
O356 Fe354 1.918 . S
O356 Fe355 1.918 . S
O356 Fe357 1.918 . S
Fe357 O356 1.918 . S
Fe357 O358 2.002 . S
Fe357 O367 1.976 . S
Fe357 O371 1.996 . S
Fe357 O374 1.997 . S
O358 Fe357 2.002 . S
O358 C375 1.295 . S
O359 Fe354 1.997 . S
O359 C375 1.235 . S
O360 Fe354 2.002 . S
O360 C361 1.295 . S
C361 O360 1.295 . S
C361 O363 1.235 . S
C362 O367 1.287 . S
C362 O368 1.255 . S
O363 Fe355 1.997 . S
O363 C361 1.235 . S
C364 O370 1.287 . S
C364 O371 1.255 . S
O365 Fe354 1.976 . S
O365 C372 1.287 . S
O366 Fe355 1.996 . S
O366 C372 1.255 . S
O367 Fe357 1.976 . S
O367 C362 1.287 . S
O368 Fe354 1.996 . S
O368 C362 1.255 . S
C369 O373 1.295 . S
C369 O374 1.235 . S
O370 Fe355 1.976 . S
O370 C364 1.287 . S
O371 Fe357 1.996 . S
O371 C364 1.255 . S
C372 O365 1.287 . S
C372 O366 1.255 . S
O373 Fe355 2.002 . S
O373 C369 1.295 . S
O374 Fe357 1.997 . S
O374 C369 1.235 . S
C375 O358 1.295 . S
C375 O359 1.235 . S
H376 C388 0.930 . S
H377 C390 0.930 . S
H378 C391 0.930 . S
H379 C395 0.959 . S
H380 C395 0.959 . S
H381 C395 0.961 . S
H382 C396 0.960 . S
H383 C396 0.961 . S
H384 C396 0.959 . S
H385 C399 0.929 . S
H386 C400 0.931 . S
H387 C402 0.930 . S
C388 H376 0.930 . S
C388 C389 1.399 . S
C388 C393 1.399 . S
C389 C388 1.399 . S
C389 C390 1.376 . S
C390 H377 0.930 . S
C390 C389 1.376 . S
C390 C391 1.388 . S
C391 H378 0.930 . S
C391 C390 1.388 . S
C391 C392 1.390 . S
C392 C391 1.390 . S
C392 C393 1.394 . S
C392 C398 1.465 . S
C393 C388 1.399 . S
C393 C392 1.394 . S
C393 C394 1.516 . S
C394 C393 1.516 . S
C394 C395 1.502 . S
C394 C396 1.561 . S
C394 C397 1.526 . S
C395 H379 0.959 . S
C395 H380 0.959 . S
C395 H381 0.961 . S
C395 C394 1.502 . S
C396 H382 0.960 . S
C396 H383 0.961 . S
C396 H384 0.959 . S
C396 C394 1.561 . S
C397 C394 1.526 . S
C397 C398 1.396 . S
C397 C402 1.390 . S
C398 C392 1.465 . S
C398 C397 1.396 . S
C398 C399 1.399 . S
C399 H385 0.929 . S
C399 C398 1.399 . S
C399 C400 1.385 . S
C400 H386 0.931 . S
C400 C399 1.385 . S
C400 C401 1.389 . S
C401 C400 1.389 . S
C401 C402 1.387 . S
C402 H387 0.930 . S
C402 C397 1.390 . S
C402 C401 1.387 . S
H403 C415 0.930 . S
H404 C417 0.930 . S
H405 C418 0.930 . S
H406 C422 0.959 . S
H407 C422 0.959 . S
H408 C422 0.961 . S
H409 C423 0.960 . S
H410 C423 0.961 . S
H411 C423 0.959 . S
H412 C426 0.929 . S
H413 C427 0.931 . S
H414 C429 0.930 . S
C415 H403 0.930 . S
C415 C416 1.399 . S
C415 C420 1.399 . S
C416 C415 1.399 . S
C416 C417 1.376 . S
C417 H404 0.930 . S
C417 C416 1.376 . S
C417 C418 1.388 . S
C418 H405 0.930 . S
C418 C417 1.388 . S
C418 C419 1.390 . S
C419 C418 1.390 . S
C419 C420 1.394 . S
C419 C425 1.465 . S
C420 C415 1.399 . S
C420 C419 1.394 . S
C420 C421 1.516 . S
C421 C420 1.516 . S
C421 C422 1.502 . S
C421 C423 1.561 . S
C421 C424 1.526 . S
C422 H406 0.959 . S
C422 H407 0.959 . S
C422 H408 0.961 . S
C422 C421 1.502 . S
C423 H409 0.960 . S
C423 H410 0.961 . S
C423 H411 0.959 . S
C423 C421 1.561 . S
C424 C421 1.526 . S
C424 C425 1.396 . S
C424 C429 1.390 . S
C425 C419 1.465 . S
C425 C424 1.396 . S
C425 C426 1.399 . S
C426 H412 0.929 . S
C426 C425 1.399 . S
C426 C427 1.385 . S
C427 H413 0.931 . S
C427 C426 1.385 . S
C427 C428 1.389 . S
C428 C427 1.389 . S
C428 C429 1.387 . S
C429 H414 0.930 . S
C429 C424 1.390 . S
C429 C428 1.387 . S
H430 C442 0.930 . S
H431 C444 0.930 . S
H432 C445 0.930 . S
H433 C449 0.959 . S
H434 C449 0.959 . S
H435 C449 0.961 . S
H436 C450 0.960 . S
H437 C450 0.961 . S
H438 C450 0.959 . S
H439 C453 0.929 . S
H440 C454 0.931 . S
H441 C456 0.930 . S
C442 H430 0.930 . S
C442 C443 1.399 . S
C442 C447 1.399 . S
C443 C442 1.399 . S
C443 C444 1.376 . S
C444 H431 0.930 . S
C444 C443 1.376 . S
C444 C445 1.388 . S
C445 H432 0.930 . S
C445 C444 1.388 . S
C445 C446 1.390 . S
C446 C445 1.390 . S
C446 C447 1.394 . S
C446 C452 1.465 . S
C447 C442 1.399 . S
C447 C446 1.394 . S
C447 C448 1.516 . S
C448 C447 1.516 . S
C448 C449 1.502 . S
C448 C450 1.561 . S
C448 C451 1.526 . S
C449 H433 0.959 . S
C449 H434 0.959 . S
C449 H435 0.961 . S
C449 C448 1.502 . S
C450 H436 0.960 . S
C450 H437 0.961 . S
C450 H438 0.959 . S
C450 C448 1.561 . S
C451 C448 1.526 . S
C451 C452 1.396 . S
C451 C456 1.390 . S
C452 C446 1.465 . S
C452 C451 1.396 . S
C452 C453 1.399 . S
C453 H439 0.929 . S
C453 C452 1.399 . S
C453 C454 1.385 . S
C454 H440 0.931 . S
C454 C453 1.385 . S
C454 C455 1.389 . S
C455 C454 1.389 . S
C455 C456 1.387 . S
C456 H441 0.930 . S
C456 C451 1.390 . S
C456 C455 1.387 . S
H457 C469 0.930 . S
H458 C471 0.930 . S
H459 C472 0.930 . S
H460 C476 0.959 . S
H461 C476 0.959 . S
H462 C476 0.961 . S
H463 C477 0.960 . S
H464 C477 0.961 . S
H465 C477 0.959 . S
H466 C480 0.929 . S
H467 C481 0.931 . S
H468 C483 0.930 . S
C469 H457 0.930 . S
C469 C470 1.399 . S
C469 C474 1.399 . S
C470 C469 1.399 . S
C470 C471 1.376 . S
C471 H458 0.930 . S
C471 C470 1.376 . S
C471 C472 1.388 . S
C472 H459 0.930 . S
C472 C471 1.388 . S
C472 C473 1.390 . S
C473 C472 1.390 . S
C473 C474 1.394 . S
C473 C479 1.465 . S
C474 C469 1.399 . S
C474 C473 1.394 . S
C474 C475 1.516 . S
C475 C474 1.516 . S
C475 C476 1.502 . S
C475 C477 1.561 . S
C475 C478 1.526 . S
C476 H460 0.959 . S
C476 H461 0.959 . S
C476 H462 0.961 . S
C476 C475 1.502 . S
C477 H463 0.960 . S
C477 H464 0.961 . S
C477 H465 0.959 . S
C477 C475 1.561 . S
C478 C475 1.526 . S
C478 C479 1.396 . S
C478 C483 1.390 . S
C479 C473 1.465 . S
C479 C478 1.396 . S
C479 C480 1.399 . S
C480 H466 0.929 . S
C480 C479 1.399 . S
C480 C481 1.385 . S
C481 H467 0.931 . S
C481 C480 1.385 . S
C481 C482 1.389 . S
C482 C481 1.389 . S
C482 C483 1.387 . S
C483 H468 0.930 . S
C483 C478 1.390 . S
C483 C482 1.387 . S
H484 C496 0.930 . S
H485 C498 0.930 . S
H486 C499 0.930 . S
H487 C503 0.959 . S
H488 C503 0.959 . S
H489 C503 0.961 . S
H490 C504 0.960 . S
H491 C504 0.961 . S
H492 C504 0.959 . S
H493 C507 0.929 . S
H494 C508 0.931 . S
H495 C510 0.930 . S
C496 H484 0.930 . S
C496 C497 1.399 . S
C496 C501 1.399 . S
C497 C496 1.399 . S
C497 C498 1.376 . S
C498 H485 0.930 . S
C498 C497 1.376 . S
C498 C499 1.388 . S
C499 H486 0.930 . S
C499 C498 1.388 . S
C499 C500 1.390 . S
C500 C499 1.390 . S
C500 C501 1.394 . S
C500 C506 1.465 . S
C501 C496 1.399 . S
C501 C500 1.394 . S
C501 C502 1.516 . S
C502 C501 1.516 . S
C502 C503 1.502 . S
C502 C504 1.561 . S
C502 C505 1.526 . S
C503 H487 0.959 . S
C503 H488 0.959 . S
C503 H489 0.961 . S
C503 C502 1.502 . S
C504 H490 0.960 . S
C504 H491 0.961 . S
C504 H492 0.959 . S
C504 C502 1.561 . S
C505 C502 1.526 . S
C505 C506 1.396 . S
C505 C510 1.390 . S
C506 C500 1.465 . S
C506 C505 1.396 . S
C506 C507 1.399 . S
C507 H493 0.929 . S
C507 C506 1.399 . S
C507 C508 1.385 . S
C508 H494 0.931 . S
C508 C507 1.385 . S
C508 C509 1.389 . S
C509 C508 1.389 . S
C509 C510 1.387 . S
C510 H495 0.930 . S
C510 C505 1.390 . S
C510 C509 1.387 . S
H511 C523 0.930 . S
H512 C525 0.930 . S
H513 C526 0.930 . S
H514 C530 0.959 . S
H515 C530 0.959 . S
H516 C530 0.961 . S
H517 C531 0.960 . S
H518 C531 0.961 . S
H519 C531 0.959 . S
H520 C534 0.929 . S
H521 C535 0.931 . S
H522 C537 0.930 . S
C523 H511 0.930 . S
C523 C524 1.399 . S
C523 C528 1.399 . S
C524 C523 1.399 . S
C524 C525 1.376 . S
C525 H512 0.930 . S
C525 C524 1.376 . S
C525 C526 1.388 . S
C526 H513 0.930 . S
C526 C525 1.388 . S
C526 C527 1.390 . S
C527 C526 1.390 . S
C527 C528 1.394 . S
C527 C533 1.465 . S
C528 C523 1.399 . S
C528 C527 1.394 . S
C528 C529 1.516 . S
C529 C528 1.516 . S
C529 C530 1.502 . S
C529 C531 1.561 . S
C529 C532 1.526 . S
C530 H514 0.959 . S
C530 H515 0.959 . S
C530 H516 0.961 . S
C530 C529 1.502 . S
C531 H517 0.960 . S
C531 H518 0.961 . S
C531 H519 0.959 . S
C531 C529 1.561 . S
C532 C529 1.526 . S
C532 C533 1.396 . S
C532 C537 1.390 . S
C533 C527 1.465 . S
C533 C532 1.396 . S
C533 C534 1.399 . S
C534 H520 0.929 . S
C534 C533 1.399 . S
C534 C535 1.385 . S
C535 H521 0.931 . S
C535 C534 1.385 . S
C535 C536 1.389 . S
C536 C535 1.389 . S
C536 C537 1.387 . S
C537 H522 0.930 . S
C537 C532 1.390 . S
C537 C536 1.387 . S
H538 C550 0.930 . S
H539 C552 0.930 . S
H540 C553 0.930 . S
H541 C557 0.959 . S
H542 C557 0.959 . S
H543 C557 0.961 . S
H544 C558 0.960 . S
H545 C558 0.961 . S
H546 C558 0.959 . S
H547 C561 0.929 . S
H548 C562 0.931 . S
H549 C564 0.930 . S
C550 H538 0.930 . S
C550 C551 1.399 . S
C550 C555 1.399 . S
C551 C550 1.399 . S
C551 C552 1.376 . S
C552 H539 0.930 . S
C552 C551 1.376 . S
C552 C553 1.388 . S
C553 H540 0.930 . S
C553 C552 1.388 . S
C553 C554 1.390 . S
C554 C553 1.390 . S
C554 C555 1.394 . S
C554 C560 1.465 . S
C555 C550 1.399 . S
C555 C554 1.394 . S
C555 C556 1.516 . S
C556 C555 1.516 . S
C556 C557 1.502 . S
C556 C558 1.561 . S
C556 C559 1.526 . S
C557 H541 0.959 . S
C557 H542 0.959 . S
C557 H543 0.961 . S
C557 C556 1.502 . S
C558 H544 0.960 . S
C558 H545 0.961 . S
C558 H546 0.959 . S
C558 C556 1.561 . S
C559 C556 1.526 . S
C559 C560 1.396 . S
C559 C564 1.390 . S
C560 C554 1.465 . S
C560 C559 1.396 . S
C560 C561 1.399 . S
C561 H547 0.929 . S
C561 C560 1.399 . S
C561 C562 1.385 . S
C562 H548 0.931 . S
C562 C561 1.385 . S
C562 C563 1.389 . S
C563 C562 1.389 . S
C563 C564 1.387 . S
C564 H549 0.930 . S
C564 C559 1.390 . S
C564 C563 1.387 . S
H565 C577 0.930 . S
H566 C579 0.930 . S
H567 C580 0.930 . S
H568 C584 0.959 . S
H569 C584 0.959 . S
H570 C584 0.961 . S
H571 C585 0.960 . S
H572 C585 0.961 . S
H573 C585 0.959 . S
H574 C588 0.929 . S
H575 C589 0.931 . S
H576 C591 0.930 . S
C577 H565 0.930 . S
C577 C578 1.399 . S
C577 C582 1.399 . S
C578 C577 1.399 . S
C578 C579 1.376 . S
C579 H566 0.930 . S
C579 C578 1.376 . S
C579 C580 1.388 . S
C580 H567 0.930 . S
C580 C579 1.388 . S
C580 C581 1.390 . S
C581 C580 1.390 . S
C581 C582 1.394 . S
C581 C587 1.465 . S
C582 C577 1.399 . S
C582 C581 1.394 . S
C582 C583 1.516 . S
C583 C582 1.516 . S
C583 C584 1.502 . S
C583 C585 1.561 . S
C583 C586 1.526 . S
C584 H568 0.959 . S
C584 H569 0.959 . S
C584 H570 0.961 . S
C584 C583 1.502 . S
C585 H571 0.960 . S
C585 H572 0.961 . S
C585 H573 0.959 . S
C585 C583 1.561 . S
C586 C583 1.526 . S
C586 C587 1.396 . S
C586 C591 1.390 . S
C587 C581 1.465 . S
C587 C586 1.396 . S
C587 C588 1.399 . S
C588 H574 0.929 . S
C588 C587 1.399 . S
C588 C589 1.385 . S
C589 H575 0.931 . S
C589 C588 1.385 . S
C589 C590 1.389 . S
C590 C589 1.389 . S
C590 C591 1.387 . S
C591 H576 0.930 . S
C591 C586 1.390 . S
C591 C590 1.387 . S
H592 C604 0.930 . S
H593 C606 0.930 . S
H594 C607 0.930 . S
H595 C611 0.959 . S
H596 C611 0.959 . S
H597 C611 0.961 . S
H598 C612 0.960 . S
H599 C612 0.961 . S
H600 C612 0.959 . S
H601 C615 0.929 . S
H602 C616 0.931 . S
H603 C618 0.930 . S
C604 H592 0.930 . S
C604 C605 1.399 . S
C604 C609 1.399 . S
C605 C604 1.399 . S
C605 C606 1.376 . S
C606 H593 0.930 . S
C606 C605 1.376 . S
C606 C607 1.388 . S
C607 H594 0.930 . S
C607 C606 1.388 . S
C607 C608 1.390 . S
C608 C607 1.390 . S
C608 C609 1.394 . S
C608 C614 1.465 . S
C609 C604 1.399 . S
C609 C608 1.394 . S
C609 C610 1.516 . S
C610 C609 1.516 . S
C610 C611 1.502 . S
C610 C612 1.561 . S
C610 C613 1.526 . S
C611 H595 0.959 . S
C611 H596 0.959 . S
C611 H597 0.961 . S
C611 C610 1.502 . S
C612 H598 0.960 . S
C612 H599 0.961 . S
C612 H600 0.959 . S
C612 C610 1.561 . S
C613 C610 1.526 . S
C613 C614 1.396 . S
C613 C618 1.390 . S
C614 C608 1.465 . S
C614 C613 1.396 . S
C614 C615 1.399 . S
C615 H601 0.929 . S
C615 C614 1.399 . S
C615 C616 1.385 . S
C616 H602 0.931 . S
C616 C615 1.385 . S
C616 C617 1.389 . S
C617 C616 1.389 . S
C617 C618 1.387 . S
C618 H603 0.930 . S
C618 C613 1.390 . S
C618 C617 1.387 . S
H619 C631 0.930 . S
H620 C633 0.930 . S
H621 C634 0.930 . S
H622 C638 0.959 . S
H623 C638 0.959 . S
H624 C638 0.961 . S
H625 C639 0.960 . S
H626 C639 0.961 . S
H627 C639 0.959 . S
H628 C642 0.929 . S
H629 C643 0.931 . S
H630 C645 0.930 . S
C631 H619 0.930 . S
C631 C632 1.399 . S
C631 C636 1.399 . S
C632 C631 1.399 . S
C632 C633 1.376 . S
C633 H620 0.930 . S
C633 C632 1.376 . S
C633 C634 1.388 . S
C634 H621 0.930 . S
C634 C633 1.388 . S
C634 C635 1.390 . S
C635 C634 1.390 . S
C635 C636 1.394 . S
C635 C641 1.465 . S
C636 C631 1.399 . S
C636 C635 1.394 . S
C636 C637 1.516 . S
C637 C636 1.516 . S
C637 C638 1.502 . S
C637 C639 1.561 . S
C637 C640 1.526 . S
C638 H622 0.959 . S
C638 H623 0.959 . S
C638 H624 0.961 . S
C638 C637 1.502 . S
C639 H625 0.960 . S
C639 H626 0.961 . S
C639 H627 0.959 . S
C639 C637 1.561 . S
C640 C637 1.526 . S
C640 C641 1.396 . S
C640 C645 1.390 . S
C641 C635 1.465 . S
C641 C640 1.396 . S
C641 C642 1.399 . S
C642 H628 0.929 . S
C642 C641 1.399 . S
C642 C643 1.385 . S
C643 H629 0.931 . S
C643 C642 1.385 . S
C643 C644 1.389 . S
C644 C643 1.389 . S
C644 C645 1.387 . S
C645 H630 0.930 . S
C645 C640 1.390 . S
C645 C644 1.387 . S
H646 C658 0.930 . S
H647 C660 0.930 . S
H648 C661 0.930 . S
H649 C665 0.959 . S
H650 C665 0.959 . S
H651 C665 0.961 . S
H652 C666 0.960 . S
H653 C666 0.961 . S
H654 C666 0.959 . S
H655 C669 0.929 . S
H656 C670 0.931 . S
H657 C672 0.930 . S
C658 H646 0.930 . S
C658 C659 1.399 . S
C658 C663 1.399 . S
C659 C658 1.399 . S
C659 C660 1.376 . S
C660 H647 0.930 . S
C660 C659 1.376 . S
C660 C661 1.388 . S
C661 H648 0.930 . S
C661 C660 1.388 . S
C661 C662 1.390 . S
C662 C661 1.390 . S
C662 C663 1.394 . S
C662 C668 1.465 . S
C663 C658 1.399 . S
C663 C662 1.394 . S
C663 C664 1.516 . S
C664 C663 1.516 . S
C664 C665 1.502 . S
C664 C666 1.561 . S
C664 C667 1.526 . S
C665 H649 0.959 . S
C665 H650 0.959 . S
C665 H651 0.961 . S
C665 C664 1.502 . S
C666 H652 0.960 . S
C666 H653 0.961 . S
C666 H654 0.959 . S
C666 C664 1.561 . S
C667 C664 1.526 . S
C667 C668 1.396 . S
C667 C672 1.390 . S
C668 C662 1.465 . S
C668 C667 1.396 . S
C668 C669 1.399 . S
C669 H655 0.929 . S
C669 C668 1.399 . S
C669 C670 1.385 . S
C670 H656 0.931 . S
C670 C669 1.385 . S
C670 C671 1.389 . S
C671 C670 1.389 . S
C671 C672 1.387 . S
C672 H657 0.930 . S
C672 C667 1.390 . S
C672 C671 1.387 . S
H673 C685 0.930 . S
H674 C687 0.930 . S
H675 C688 0.930 . S
H676 C692 0.959 . S
H677 C692 0.959 . S
H678 C692 0.961 . S
H679 C693 0.960 . S
H680 C693 0.961 . S
H681 C693 0.959 . S
H682 C696 0.929 . S
H683 C697 0.931 . S
H684 C699 0.930 . S
C685 H673 0.930 . S
C685 C686 1.399 . S
C685 C690 1.399 . S
C686 C685 1.399 . S
C686 C687 1.376 . S
C687 H674 0.930 . S
C687 C686 1.376 . S
C687 C688 1.388 . S
C688 H675 0.930 . S
C688 C687 1.388 . S
C688 C689 1.390 . S
C689 C688 1.390 . S
C689 C690 1.394 . S
C689 C695 1.465 . S
C690 C685 1.399 . S
C690 C689 1.394 . S
C690 C691 1.516 . S
C691 C690 1.516 . S
C691 C692 1.502 . S
C691 C693 1.561 . S
C691 C694 1.526 . S
C692 H676 0.959 . S
C692 H677 0.959 . S
C692 H678 0.961 . S
C692 C691 1.502 . S
C693 H679 0.960 . S
C693 H680 0.961 . S
C693 H681 0.959 . S
C693 C691 1.561 . S
C694 C691 1.526 . S
C694 C695 1.396 . S
C694 C699 1.390 . S
C695 C689 1.465 . S
C695 C694 1.396 . S
C695 C696 1.399 . S
C696 H682 0.929 . S
C696 C695 1.399 . S
C696 C697 1.385 . S
C697 H683 0.931 . S
C697 C696 1.385 . S
C697 C698 1.389 . S
C698 C697 1.389 . S
C698 C699 1.387 . S
C699 H684 0.930 . S
C699 C694 1.390 . S
C699 C698 1.387 . S
H700 C712 0.930 1_565 S
H701 C714 0.930 . S
H702 C715 0.930 . S
H703 C719 0.959 . S
H704 C719 0.959 . S
H705 C719 0.961 1_565 S
H706 C720 0.960 . S
H707 C720 0.961 . S
H708 C720 0.959 . S
H709 C723 0.929 . S
H710 C724 0.931 . S
H711 C726 0.930 . S
C712 H700 0.930 1_545 S
C712 C713 1.399 . S
C712 C717 1.399 . S
C713 C712 1.399 . S
C713 C714 1.376 . S
C714 H701 0.930 . S
C714 C713 1.376 . S
C714 C715 1.388 . S
C715 H702 0.930 . S
C715 C714 1.388 . S
C715 C716 1.390 . S
C716 C715 1.390 . S
C716 C717 1.394 . S
C716 C722 1.465 . S
C717 C712 1.399 . S
C717 C716 1.394 . S
C717 C718 1.516 . S
C718 C717 1.516 . S
C718 C719 1.502 . S
C718 C720 1.561 . S
C718 C721 1.526 . S
C719 H703 0.959 . S
C719 H704 0.959 . S
C719 H705 0.961 1_545 S
C719 C718 1.502 . S
C720 H706 0.960 . S
C720 H707 0.961 . S
C720 H708 0.959 . S
C720 C718 1.561 . S
C721 C718 1.526 . S
C721 C722 1.396 . S
C721 C726 1.390 . S
C722 C716 1.465 . S
C722 C721 1.396 . S
C722 C723 1.399 . S
C723 H709 0.929 . S
C723 C722 1.399 . S
C723 C724 1.385 . S
C724 H710 0.931 . S
C724 C723 1.385 . S
C724 C725 1.389 . S
C725 C724 1.389 . S
C725 C726 1.387 . S
C726 H711 0.930 . S
C726 C721 1.390 . S
C726 C725 1.387 . S
H727 C739 0.941 . S
H728 C741 0.930 . S
H729 C742 0.930 . S
H730 C746 0.959 . S
H731 C746 0.959 . S
H732 C746 0.961 . S
H733 C747 0.960 1_545 S
H734 C747 0.961 . S
H735 C747 0.959 . S
H736 C750 0.929 . S
H737 C751 0.931 . S
H738 C753 0.930 . S
C739 H727 0.941 . S
C739 C740 1.399 . S
C739 C744 1.399 . S
C740 C739 1.399 . S
C740 C741 1.376 . S
C741 H728 0.930 . S
C741 C740 1.376 . S
C741 C742 1.388 . S
C742 H729 0.930 . S
C742 C741 1.388 . S
C742 C743 1.390 . S
C743 C742 1.390 . S
C743 C744 1.394 . S
C743 C749 1.465 . S
C744 C739 1.399 . S
C744 C743 1.394 . S
C744 C745 1.516 . S
C745 C744 1.516 . S
C745 C746 1.502 . S
C745 C747 1.561 . S
C745 C748 1.526 . S
C746 H730 0.959 . S
C746 H731 0.959 . S
C746 H732 0.961 . S
C746 C745 1.502 . S
C747 H733 0.960 1_565 S
C747 H734 0.961 . S
C747 H735 0.959 . S
C747 C745 1.561 . S
C748 C745 1.526 . S
C748 C749 1.396 . S
C748 C753 1.390 . S
C749 C743 1.465 . S
C749 C748 1.396 . S
C749 C750 1.399 . S
C750 H736 0.929 . S
C750 C749 1.399 . S
C750 C751 1.385 . S
C751 H737 0.931 . S
C751 C750 1.385 . S
C751 C752 1.389 . S
C752 C751 1.389 . S
C752 C753 1.387 . S
C753 H738 0.930 . S
C753 C748 1.390 . S
C753 C752 1.387 . S
H754 C766 0.930 . S
H755 C768 0.930 1_565 S
H756 C769 0.930 . S
H757 C773 0.959 . S
H758 C773 0.959 . S
H759 C773 0.961 . S
H760 C774 0.960 . S
H761 C774 0.961 . S
H762 C774 0.959 . S
H763 C777 0.929 . S
H764 C778 0.931 . S
H765 C780 0.930 . S
C766 H754 0.930 . S
C766 C767 1.399 . S
C766 C771 1.399 . S
C767 C766 1.399 . S
C767 C768 1.376 . S
C768 H755 0.930 1_545 S
C768 C767 1.376 . S
C768 C769 1.388 . S
C769 H756 0.930 . S
C769 C768 1.388 . S
C769 C770 1.390 . S
C770 C769 1.390 . S
C770 C771 1.394 . S
C770 C776 1.465 . S
C771 C766 1.399 . S
C771 C770 1.394 . S
C771 C772 1.516 . S
C772 C771 1.516 . S
C772 C773 1.502 . S
C772 C774 1.561 . S
C772 C775 1.526 . S
C773 H757 0.959 . S
C773 H758 0.959 . S
C773 H759 0.961 . S
C773 C772 1.502 . S
C774 H760 0.960 . S
C774 H761 0.961 . S
C774 H762 0.959 . S
C774 C772 1.561 . S
C775 C772 1.526 . S
C775 C776 1.396 . S
C775 C780 1.390 . S
C776 C770 1.465 . S
C776 C775 1.396 . S
C776 C777 1.399 . S
C777 H763 0.929 . S
C777 C776 1.399 . S
C777 C778 1.385 . S
C778 H764 0.931 . S
C778 C777 1.385 . S
C778 C779 1.389 . S
C779 C778 1.389 . S
C779 C780 1.387 . S
C780 H765 0.930 . S
C780 C775 1.390 . S
C780 C779 1.387 . S
H781 C793 0.930 . S
H782 C795 0.930 . S
H783 C796 0.930 . S
H784 C800 0.959 . S
H785 C800 0.959 . S
H786 C800 0.961 . S
H787 C801 0.960 . S
H788 C801 0.961 . S
H789 C801 0.959 . S
H790 C804 0.929 . S
H791 C805 0.931 . S
H792 C807 0.930 . S
C793 H781 0.930 . S
C793 C794 1.399 . S
C793 C798 1.399 . S
C794 C793 1.399 . S
C794 C795 1.376 . S
C795 H782 0.930 . S
C795 C794 1.376 . S
C795 C796 1.388 . S
C796 H783 0.930 . S
C796 C795 1.388 . S
C796 C797 1.390 . S
C797 C796 1.390 . S
C797 C798 1.394 . S
C797 C803 1.465 . S
C798 C793 1.399 . S
C798 C797 1.394 . S
C798 C799 1.516 . S
C799 C798 1.516 . S
C799 C800 1.502 . S
C799 C801 1.561 . S
C799 C802 1.526 . S
C800 H784 0.959 . S
C800 H785 0.959 . S
C800 H786 0.961 . S
C800 C799 1.502 . S
C801 H787 0.960 . S
C801 H788 0.961 . S
C801 H789 0.959 . S
C801 C799 1.561 . S
C802 C799 1.526 . S
C802 C803 1.396 . S
C802 C807 1.390 . S
C803 C797 1.465 . S
C803 C802 1.396 . S
C803 C804 1.399 . S
C804 H790 0.929 . S
C804 C803 1.399 . S
C804 C805 1.385 . S
C805 H791 0.931 . S
C805 C804 1.385 . S
C805 C806 1.389 . S
C806 C805 1.389 . S
C806 C807 1.387 . S
C807 H792 0.930 . S
C807 C802 1.390 . S
C807 C806 1.387 . S
H808 C820 0.930 . S
H809 C822 0.930 . S
H810 C823 0.930 . S
H811 C827 0.959 . S
H812 C827 0.959 . S
H813 C827 0.961 . S
H814 C828 0.960 . S
H815 C828 0.961 . S
H816 C828 0.959 . S
H817 C831 0.929 . S
H818 C832 0.931 . S
H819 C834 0.930 . S
C820 H808 0.930 . S
C820 C821 1.399 . S
C820 C825 1.399 . S
C821 C820 1.399 . S
C821 C822 1.376 . S
C822 H809 0.930 . S
C822 C821 1.376 . S
C822 C823 1.388 . S
C823 H810 0.930 . S
C823 C822 1.388 . S
C823 C824 1.390 . S
C824 C823 1.390 . S
C824 C825 1.394 . S
C824 C830 1.465 . S
C825 C820 1.399 . S
C825 C824 1.394 . S
C825 C826 1.516 . S
C826 C825 1.516 . S
C826 C827 1.502 . S
C826 C828 1.561 . S
C826 C829 1.526 . S
C827 H811 0.959 . S
C827 H812 0.959 . S
C827 H813 0.961 . S
C827 C826 1.502 . S
C828 H814 0.960 . S
C828 H815 0.961 . S
C828 H816 0.959 . S
C828 C826 1.561 . S
C829 C826 1.526 . S
C829 C830 1.396 . S
C829 C834 1.390 . S
C830 C824 1.465 . S
C830 C829 1.396 . S
C830 C831 1.399 . S
C831 H817 0.929 . S
C831 C830 1.399 . S
C831 C832 1.385 . S
C832 H818 0.931 . S
C832 C831 1.385 . S
C832 C833 1.389 . S
C833 C832 1.389 . S
C833 C834 1.387 . S
C834 H819 0.930 . S
C834 C829 1.390 . S
C834 C833 1.387 . S
H835 C847 0.930 . S
H836 C849 0.930 . S
H837 C850 0.930 . S
H838 C854 0.959 . S
H839 C854 0.959 . S
H840 C854 0.961 . S
H841 C855 0.960 . S
H842 C855 0.961 . S
H843 C855 0.959 . S
H844 C858 0.929 . S
H845 C859 0.931 . S
H846 C861 0.930 . S
C847 H835 0.930 . S
C847 C848 1.399 . S
C847 C852 1.399 . S
C848 C847 1.399 . S
C848 C849 1.376 . S
C849 H836 0.930 . S
C849 C848 1.376 . S
C849 C850 1.388 . S
C850 H837 0.930 . S
C850 C849 1.388 . S
C850 C851 1.390 . S
C851 C850 1.390 . S
C851 C852 1.394 . S
C851 C857 1.465 . S
C852 C847 1.399 . S
C852 C851 1.394 . S
C852 C853 1.516 . S
C853 C852 1.516 . S
C853 C854 1.502 . S
C853 C855 1.561 . S
C853 C856 1.526 . S
C854 H838 0.959 . S
C854 H839 0.959 . S
C854 H840 0.961 . S
C854 C853 1.502 . S
C855 H841 0.960 . S
C855 H842 0.961 . S
C855 H843 0.959 . S
C855 C853 1.561 . S
C856 C853 1.526 . S
C856 C857 1.396 . S
C856 C861 1.390 . S
C857 C851 1.465 . S
C857 C856 1.396 . S
C857 C858 1.399 . S
C858 H844 0.929 . S
C858 C857 1.399 . S
C858 C859 1.385 . S
C859 H845 0.931 . S
C859 C858 1.385 . S
C859 C860 1.389 . S
C860 C859 1.389 . S
C860 C861 1.387 . S
C861 H846 0.930 . S
C861 C856 1.390 . S
C861 C860 1.387 . S
H862 C874 0.930 . S
H863 C876 0.930 . S
H864 C877 0.930 . S
H865 C881 0.959 . S
H866 C881 0.959 . S
H867 C881 0.961 . S
H868 C882 0.960 . S
H869 C882 0.961 . S
H870 C882 0.959 . S
H871 C885 0.929 . S
H872 C886 0.931 . S
H873 C888 0.930 . S
C874 H862 0.930 . S
C874 C875 1.399 . S
C874 C879 1.399 . S
C875 C874 1.399 . S
C875 C876 1.376 . S
C876 H863 0.930 . S
C876 C875 1.376 . S
C876 C877 1.388 . S
C877 H864 0.930 . S
C877 C876 1.388 . S
C877 C878 1.390 . S
C878 C877 1.390 . S
C878 C879 1.394 . S
C878 C884 1.465 . S
C879 C874 1.399 . S
C879 C878 1.394 . S
C879 C880 1.516 . S
C880 C879 1.516 . S
C880 C881 1.502 . S
C880 C882 1.561 . S
C880 C883 1.526 . S
C881 H865 0.959 . S
C881 H866 0.959 . S
C881 H867 0.961 . S
C881 C880 1.502 . S
C882 H868 0.960 . S
C882 H869 0.961 . S
C882 H870 0.959 . S
C882 C880 1.561 . S
C883 C880 1.526 . S
C883 C884 1.396 . S
C883 C888 1.390 . S
C884 C878 1.465 . S
C884 C883 1.396 . S
C884 C885 1.399 . S
C885 H871 0.929 . S
C885 C884 1.399 . S
C885 C886 1.385 . S
C886 H872 0.931 . S
C886 C885 1.385 . S
C886 C887 1.389 . S
C887 C886 1.389 . S
C887 C888 1.387 . S
C888 H873 0.930 . S
C888 C883 1.390 . S
C888 C887 1.387 . S
H889 C901 0.930 . S
H890 C903 0.930 . S
H891 C904 0.930 . S
H892 C908 0.959 . S
H893 C908 0.959 . S
H894 C908 0.961 . S
H895 C909 0.960 . S
H896 C909 0.961 . S
H897 C909 0.959 . S
H898 C912 0.929 . S
H899 C913 0.931 . S
H900 C915 0.930 . S
C901 H889 0.930 . S
C901 C902 1.399 . S
C901 C906 1.399 . S
C902 C901 1.399 . S
C902 C903 1.376 . S
C903 H890 0.930 . S
C903 C902 1.376 . S
C903 C904 1.388 . S
C904 H891 0.930 . S
C904 C903 1.388 . S
C904 C905 1.390 . S
C905 C904 1.390 . S
C905 C906 1.394 . S
C905 C911 1.465 . S
C906 C901 1.399 . S
C906 C905 1.394 . S
C906 C907 1.516 . S
C907 C906 1.516 . S
C907 C908 1.502 . S
C907 C909 1.561 . S
C907 C910 1.526 . S
C908 H892 0.959 . S
C908 H893 0.959 . S
C908 H894 0.961 . S
C908 C907 1.502 . S
C909 H895 0.960 . S
C909 H896 0.961 . S
C909 H897 0.959 . S
C909 C907 1.561 . S
C910 C907 1.526 . S
C910 C911 1.396 . S
C910 C915 1.390 . S
C911 C905 1.465 . S
C911 C910 1.396 . S
C911 C912 1.399 . S
C912 H898 0.929 . S
C912 C911 1.399 . S
C912 C913 1.385 . S
C913 H899 0.931 . S
C913 C912 1.385 . S
C913 C914 1.389 . S
C914 C913 1.389 . S
C914 C915 1.387 . S
C915 H900 0.930 . S
C915 C910 1.390 . S
C915 C914 1.387 . S
H916 C928 0.930 . S
H917 C930 0.930 . S
H918 C931 0.930 . S
H919 C935 0.959 . S
H920 C935 0.959 . S
H921 C935 0.961 . S
H922 C936 0.960 . S
H923 C936 0.961 . S
H924 C936 0.959 . S
H925 C939 0.929 . S
H926 C940 0.931 . S
H927 C942 0.930 . S
C928 H916 0.930 . S
C928 C929 1.399 . S
C928 C933 1.399 . S
C929 C928 1.399 . S
C929 C930 1.376 . S
C930 H917 0.930 . S
C930 C929 1.376 . S
C930 C931 1.388 . S
C931 H918 0.930 . S
C931 C930 1.388 . S
C931 C932 1.390 . S
C932 C931 1.390 . S
C932 C933 1.394 . S
C932 C938 1.465 . S
C933 C928 1.399 . S
C933 C932 1.394 . S
C933 C934 1.516 . S
C934 C933 1.516 . S
C934 C935 1.502 . S
C934 C936 1.561 . S
C934 C937 1.526 . S
C935 H919 0.959 . S
C935 H920 0.959 . S
C935 H921 0.961 . S
C935 C934 1.502 . S
C936 H922 0.960 . S
C936 H923 0.961 . S
C936 H924 0.959 . S
C936 C934 1.561 . S
C937 C934 1.526 . S
C937 C938 1.396 . S
C937 C942 1.390 . S
C938 C932 1.465 . S
C938 C937 1.396 . S
C938 C939 1.399 . S
C939 H925 0.929 . S
C939 C938 1.399 . S
C939 C940 1.385 . S
C940 H926 0.931 . S
C940 C939 1.385 . S
C940 C941 1.389 . S
C941 C940 1.389 . S
C941 C942 1.387 . S
C942 H927 0.930 . S
C942 C937 1.390 . S
C942 C941 1.387 . S
H943 C955 0.930 . S
H944 C957 0.930 . S
H945 C958 0.930 . S
H946 C962 0.959 . S
H947 C962 0.959 . S
H948 C962 0.961 . S
H949 C963 0.960 . S
H950 C963 0.961 . S
H951 C963 0.959 . S
H952 C966 0.929 . S
H953 C967 0.931 . S
H954 C969 0.930 . S
C955 H943 0.930 . S
C955 C956 1.399 . S
C955 C960 1.399 . S
C956 C955 1.399 . S
C956 C957 1.376 . S
C957 H944 0.930 . S
C957 C956 1.376 . S
C957 C958 1.388 . S
C958 H945 0.930 . S
C958 C957 1.388 . S
C958 C959 1.390 . S
C959 C958 1.390 . S
C959 C960 1.394 . S
C959 C965 1.465 . S
C960 C955 1.399 . S
C960 C959 1.394 . S
C960 C961 1.516 . S
C961 C960 1.516 . S
C961 C962 1.502 . S
C961 C963 1.561 . S
C961 C964 1.526 . S
C962 H946 0.959 . S
C962 H947 0.959 . S
C962 H948 0.961 . S
C962 C961 1.502 . S
C963 H949 0.960 . S
C963 H950 0.961 . S
C963 H951 0.959 . S
C963 C961 1.561 . S
C964 C961 1.526 . S
C964 C965 1.396 . S
C964 C969 1.390 . S
C965 C959 1.465 . S
C965 C964 1.396 . S
C965 C966 1.399 . S
C966 H952 0.929 . S
C966 C965 1.399 . S
C966 C967 1.385 . S
C967 H953 0.931 . S
C967 C966 1.385 . S
C967 C968 1.389 . S
C968 C967 1.389 . S
C968 C969 1.387 . S
C969 H954 0.930 . S
C969 C964 1.390 . S
C969 C968 1.387 . S
H970 C982 0.930 . S
H971 C984 0.930 . S
H972 C985 0.930 . S
H973 C989 0.959 . S
H974 C989 0.959 . S
H975 C989 0.961 . S
H976 C990 0.960 . S
H977 C990 0.961 . S
H978 C990 0.959 . S
H979 C993 0.929 . S
H980 C994 0.931 . S
H981 C996 0.930 . S
C982 H970 0.930 . S
C982 C983 1.399 . S
C982 C987 1.399 . S
C983 C982 1.399 . S
C983 C984 1.376 . S
C984 H971 0.930 . S
C984 C983 1.376 . S
C984 C985 1.388 . S
C985 H972 0.930 . S
C985 C984 1.388 . S
C985 C986 1.390 . S
C986 C985 1.390 . S
C986 C987 1.394 . S
C986 C992 1.465 . S
C987 C982 1.399 . S
C987 C986 1.394 . S
C987 C988 1.516 . S
C988 C987 1.516 . S
C988 C989 1.502 . S
C988 C990 1.561 . S
C988 C991 1.526 . S
C989 H973 0.959 . S
C989 H974 0.959 . S
C989 H975 0.961 . S
C989 C988 1.502 . S
C990 H976 0.960 . S
C990 H977 0.961 . S
C990 H978 0.959 . S
C990 C988 1.561 . S
C991 C988 1.526 . S
C991 C992 1.396 . S
C991 C996 1.390 . S
C992 C986 1.465 . S
C992 C991 1.396 . S
C992 C993 1.399 . S
C993 H979 0.929 . S
C993 C992 1.399 . S
C993 C994 1.385 . S
C994 H980 0.931 . S
C994 C993 1.385 . S
C994 C995 1.389 . S
C995 C994 1.389 . S
C995 C996 1.387 . S
C996 H981 0.930 . S
C996 C991 1.390 . S
C996 C995 1.387 . S
H997 C1009 0.930 . S
H998 C1011 0.930 . S
H999 C1012 0.930 . S
H1000 C1016 0.959 . S
H1001 C1016 0.959 . S
H1002 C1016 0.961 . S
H1003 C1017 0.960 . S
H1004 C1017 0.961 . S
H1005 C1017 0.959 . S
H1006 C1020 0.929 . S
H1007 C1021 0.931 . S
H1008 C1023 0.930 . S
C1009 H997 0.930 . S
C1009 C1010 1.399 . S
C1009 C1014 1.399 . S
C1010 C1009 1.399 . S
C1010 C1011 1.376 . S
C1011 H998 0.930 . S
C1011 C1010 1.376 . S
C1011 C1012 1.388 . S
C1012 H999 0.930 . S
C1012 C1011 1.388 . S
C1012 C1013 1.390 . S
C1013 C1012 1.390 . S
C1013 C1014 1.394 . S
C1013 C1019 1.465 . S
C1014 C1009 1.399 . S
C1014 C1013 1.394 . S
C1014 C1015 1.516 . S
C1015 C1014 1.516 . S
C1015 C1016 1.502 . S
C1015 C1017 1.561 . S
C1015 C1018 1.526 . S
C1016 H1000 0.959 . S
C1016 H1001 0.959 . S
C1016 H1002 0.961 . S
C1016 C1015 1.502 . S
C1017 H1003 0.960 . S
C1017 H1004 0.961 . S
C1017 H1005 0.959 . S
C1017 C1015 1.561 . S
C1018 C1015 1.526 . S
C1018 C1019 1.396 . S
C1018 C1023 1.390 . S
C1019 C1013 1.465 . S
C1019 C1018 1.396 . S
C1019 C1020 1.399 . S
C1020 H1006 0.929 . S
C1020 C1019 1.399 . S
C1020 C1021 1.385 . S
C1021 H1007 0.931 . S
C1021 C1020 1.385 . S
C1021 C1022 1.389 . S
C1022 C1021 1.389 . S
C1022 C1023 1.387 . S
C1023 H1008 0.930 . S
C1023 C1018 1.390 . S
C1023 C1022 1.387 . S
C389 C25 1.515 . S
C401 C331 1.531 . S
C428 C295 1.509 . S
C416 C61 1.542 . S
C455 C318 1.504 . S
C443 C97 1.543 . S
C482 C306 1.531 . S
C470 C133 1.523 . S
C509 C375 1.549 . S
C497 C169 1.497 . S
C536 C339 1.513 . S
C524 C205 1.549 . S
C551 C241 1.543 . S
C563 C362 1.504 . S
C590 C350 1.504 . S
C578 C277 1.543 . S
C605 C31 1.451 . S
C617 C372 1.520 . S
C644 C342 1.520 . S
C632 C67 1.452 . S
C659 C103 1.558 . S
C671 C361 1.566 . S
C686 C139 1.532 . S
C698 C347 1.541 . S
C725 C328 1.530 . S
C713 C175 1.505 1_545 S
C740 C211 1.507 1_565 S
C752 C298 1.526 . S
C779 C317 1.559 . S
C767 C247 1.561 1_545 S
C806 C303 1.565 . S
C794 C283 1.561 1_565 S
C833 C353 1.509 . S
C821 C1 1.493 . S
C860 C369 1.535 . S
C848 C37 1.508 . S
C875 C73 1.504 . S
C887 C340 1.493 . S
C914 C364 1.492 . S
C902 C109 1.503 . S
C941 C309 1.507 . S
C929 C145 1.486 . S
C956 C181 1.496 . S
C968 C325 1.528 . S
C983 C217 1.479 . S
C995 C296 1.504 . S
C1010 C253 1.477 . S
C1022 C320 1.503 . S
