# Generated by pormake.
# Topology zzz, (3,6)-cn, num edge types: 1
# Building blocks:
#     Node 0, Type 0, BuildingBlock: CUQRIR_clean_linker_1, # of connection points: 3
#     Node 1, Type 0, BuildingBlock: CUQRIR_clean_linker_1, # of connection points: 3
#     Node 2, Type 0, BuildingBlock: CUQRIR_clean_linker_1, # of connection points: 3
#     Node 3, Type 0, BuildingBlock: CUQRIR_clean_linker_1, # of connection points: 3
#     Node 4, Type 0, BuildingBlock: CUQRIR_clean_linker_1, # of connection points: 3
#     Node 5, Type 0, BuildingBlock: CUQRIR_clean_linker_1, # of connection points: 3
#     Node 6, Type 0, BuildingBlock: CUQRIR_clean_linker_1, # of connection points: 3
#     Node 7, Type 0, BuildingBlock: CUQRIR_clean_linker_1, # of connection points: 3
#     Node 8, Type 1, BuildingBlock: BETFEN_clean_sbu_0, # of connection points: 6
#     Node 9, Type 1, BuildingBlock: BETFEN_clean_sbu_0, # of connection points: 6
#     Node 10, Type 1, BuildingBlock: BETFEN_clean_sbu_0, # of connection points: 6
#     Node 11, Type 1, BuildingBlock: BETFEN_clean_sbu_0, # of connection points: 6
#     Edge 12, Type (0, 1), BuildingBlock: XIVTED_clean_linker_0, # of connection points: 2
#     Edge 13, Type (0, 1), BuildingBlock: XIVTED_clean_linker_0, # of connection points: 2
#     Edge 14, Type (0, 1), BuildingBlock: XIVTED_clean_linker_0, # of connection points: 2
#     Edge 15, Type (0, 1), BuildingBlock: XIVTED_clean_linker_0, # of connection points: 2
#     Edge 16, Type (0, 1), BuildingBlock: XIVTED_clean_linker_0, # of connection points: 2
#     Edge 17, Type (0, 1), BuildingBlock: XIVTED_clean_linker_0, # of connection points: 2
#     Edge 18, Type (0, 1), BuildingBlock: XIVTED_clean_linker_0, # of connection points: 2
#     Edge 19, Type (0, 1), BuildingBlock: XIVTED_clean_linker_0, # of connection points: 2
#     Edge 20, Type (0, 1), BuildingBlock: XIVTED_clean_linker_0, # of connection points: 2
#     Edge 21, Type (0, 1), BuildingBlock: XIVTED_clean_linker_0, # of connection points: 2
#     Edge 22, Type (0, 1), BuildingBlock: XIVTED_clean_linker_0, # of connection points: 2
#     Edge 23, Type (0, 1), BuildingBlock: XIVTED_clean_linker_0, # of connection points: 2
#     Edge 24, Type (0, 1), BuildingBlock: XIVTED_clean_linker_0, # of connection points: 2
#     Edge 25, Type (0, 1), BuildingBlock: XIVTED_clean_linker_0, # of connection points: 2
#     Edge 26, Type (0, 1), BuildingBlock: XIVTED_clean_linker_0, # of connection points: 2
#     Edge 27, Type (0, 1), BuildingBlock: XIVTED_clean_linker_0, # of connection points: 2
#     Edge 28, Type (0, 1), BuildingBlock: XIVTED_clean_linker_0, # of connection points: 2
#     Edge 29, Type (0, 1), BuildingBlock: XIVTED_clean_linker_0, # of connection points: 2
#     Edge 30, Type (0, 1), BuildingBlock: XIVTED_clean_linker_0, # of connection points: 2
#     Edge 31, Type (0, 1), BuildingBlock: XIVTED_clean_linker_0, # of connection points: 2
#     Edge 32, Type (0, 1), BuildingBlock: XIVTED_clean_linker_0, # of connection points: 2
#     Edge 33, Type (0, 1), BuildingBlock: XIVTED_clean_linker_0, # of connection points: 2
#     Edge 34, Type (0, 1), BuildingBlock: XIVTED_clean_linker_0, # of connection points: 2
#     Edge 35, Type (0, 1), BuildingBlock: XIVTED_clean_linker_0, # of connection points: 2
# Relax obj value: 0.316
# Max RMSD: 0.197
# Mean RMSD: 0.159
data_MOF--net-zzz--node1-BETFEN_clean_sbu_0--node2-CUQRIR_clean_linker_1--edge1-XIVTED_clean_linker_0
_symmetry_space_group_name_H-M    P1
_symmetry_Int_Tables_number       1
_symmetry_cell_setting            triclinic
loop_
_symmetry_equiv_pos_as_xyz
'x, y, z'
_cell_length_a     49.345108
_cell_length_b     49.29247
_cell_length_c     12.135285
_cell_angle_alpha  89.687748
_cell_angle_beta   89.882213
_cell_angle_gamma 89.939883
loop_
_atom_site_label
_atom_site_type_symbol
_atom_site_fract_x
_atom_site_fract_y
_atom_site_fract_z
_atom_type_partial_charge
C0 C 0.75685 0.51428 0.39019 0.0
N1 N 0.77731 0.4983 0.42791 0.0
N2 N 0.73684 0.49903 0.34448 0.0
C3 C 0.75721 0.54468 0.39164 0.0
C4 C 0.74621 0.47327 0.3545 0.0
N5 N 0.7707 0.47281 0.40474 0.0
C6 C 0.73249 0.44885 0.30596 0.0
H7 H 0.76804 0.55209 0.46568 0.0
H8 H 0.73629 0.55294 0.38997 0.0
H9 H 0.7682 0.55212 0.31757 0.0
H10 H 0.73137 0.45127 0.2151 0.0
H11 H 0.71146 0.44734 0.33759 0.0
H12 H 0.74329 0.42975 0.3265 0.0
C13 C 0.02949 0.74487 0.40244 0.0
N14 N 0.04491 0.76585 0.43832 0.0
N15 N 0.04526 0.72491 0.35854 0.0
C16 C 0.99912 0.7445 0.40554 0.0
C17 C 0.07078 0.73481 0.36845 0.0
N18 N 0.07057 0.75958 0.41628 0.0
C19 C 0.09571 0.72104 0.3238 0.0
H20 H 0.99156 0.75523 0.47967 0.0
H21 H 0.99139 0.72336 0.40511 0.0
H22 H 0.99128 0.75528 0.33168 0.0
H23 H 0.09327 0.71769 0.23399 0.0
H24 H 0.0981 0.70089 0.36374 0.0
H25 H 0.11435 0.73297 0.33891 0.0
C26 C 0.7891 0.01845 0.39596 0.0
N27 N 0.76813 0.03485 0.42481 0.0
N28 N 0.81008 0.03319 0.354 0.0
C29 C 0.78832 0.98807 0.40141 0.0
C30 C 0.80088 0.05909 0.35741 0.0
N31 N 0.77544 0.06011 0.39949 0.0
C32 C 0.81597 0.08309 0.31077 0.0
H33 H 0.7766 0.98123 0.47458 0.0
H34 H 0.80913 0.97953 0.40435 0.0
H35 H 0.77801 0.98035 0.32671 0.0
H36 H 0.81775 0.08087 0.22008 0.0
H37 H 0.83677 0.08375 0.34492 0.0
H38 H 0.8057 0.10252 0.33004 0.0
C39 C 0.51508 0.78683 0.40113 0.0
N40 N 0.49962 0.76525 0.43143 0.0
N41 N 0.49961 0.80674 0.35492 0.0
C42 C 0.54538 0.78762 0.40947 0.0
C43 C 0.47422 0.79623 0.35756 0.0
N44 N 0.47422 0.77103 0.40304 0.0
C45 C 0.44981 0.80979 0.30723 0.0
H46 H 0.55221 0.77696 0.48527 0.0
H47 H 0.55282 0.80886 0.40958 0.0
H48 H 0.55421 0.77697 0.33749 0.0
H49 H 0.45262 0.81128 0.21664 0.0
H50 H 0.4477 0.83069 0.33934 0.0
H51 H 0.43085 0.79859 0.32578 0.0
C52 C 0.29559 0.52067 0.16101 0.0
N53 N 0.2747 0.53676 0.12814 0.0
N54 N 0.31605 0.53575 0.20425 0.0
C55 C 0.29523 0.49027 0.15757 0.0
C56 C 0.30659 0.56154 0.19736 0.0
N57 N 0.28152 0.56216 0.15196 0.0
C58 C 0.32101 0.58585 0.24369 0.0
H59 H 0.28456 0.48252 0.23189 0.0
H60 H 0.31615 0.482 0.15696 0.0
H61 H 0.28405 0.48318 0.08389 0.0
H62 H 0.34168 0.5873 0.20827 0.0
H63 H 0.32312 0.58335 0.33422 0.0
H64 H 0.31015 0.60504 0.22531 0.0
C65 C 0.01913 0.28529 0.15951 0.0
N66 N 1.00287 0.26495 0.12363 0.0
N67 N 1.00417 0.30642 0.19869 0.0
C68 C 0.04946 0.28376 0.16274 0.0
C69 C 0.97822 0.2979 0.18625 0.0
N70 N 0.97742 0.27278 0.14141 0.0
C71 C 0.95379 0.31326 0.22674 0.0
H72 H 0.05569 0.27282 0.23874 0.0
H73 H 0.05848 0.30438 0.1636 0.0
H74 H 0.05723 0.27227 0.09089 0.0
H75 H 0.9534 0.33381 0.18926 0.0
H76 H 0.95515 0.31574 0.31741 0.0
H77 H 0.93457 0.3029 0.20565 0.0
C78 C 0.24826 1.00708 0.14712 0.0
N79 N 0.26922 0.99097 0.11584 0.0
N80 N 0.22812 0.99215 0.19457 0.0
C81 C 0.2483 0.03743 0.13855 0.0
C82 C 0.23788 0.96643 0.19183 0.0
N83 N 0.26282 0.96571 0.14486 0.0
C84 C 0.22389 0.94239 0.24364 0.0
H85 H 0.2273 0.04552 0.13895 0.0
H86 H 0.25897 0.04406 0.06245 0.0
H87 H 0.25934 0.04584 0.21023 0.0
H88 H 0.20282 0.94092 0.21288 0.0
H89 H 0.2229 0.94523 0.33422 0.0
H90 H 0.23449 0.92309 0.22503 0.0
C91 C 0.50826 0.2471 0.15 0.0
N92 N 0.49743 0.27181 0.12691 0.0
N93 N 0.49148 0.23242 0.21704 0.0
C94 C 0.53528 0.23762 0.10846 0.0
C95 C 0.47024 0.2495 0.23444 0.0
N96 N 0.47381 0.2732 0.17933 0.0
C97 C 0.44664 0.2435 0.30966 0.0
H98 H 0.53576 0.21519 0.10162 0.0
H99 H 0.55121 0.24403 0.16721 0.0
H100 H 0.53986 0.24696 0.0271 0.0
H101 H 0.45374 0.23304 0.38553 0.0
H102 H 0.43232 0.22986 0.26673 0.0
H103 H 0.43532 0.26204 0.3325 0.0
Pr104 Pr 0.03483 1.00903 0.88077 0.0
Pr105 Pr 1.00569 0.02099 0.68183 0.0
C106 C 0.05392 0.99377 0.07975 0.0
C107 C 0.07149 0.97482 0.14017 0.0
C108 C 0.09774 0.96839 0.1037 0.0
C109 C 0.11324 0.94913 0.1607 0.0
C110 C 0.10263 0.93594 0.25447 0.0
C111 C 0.07681 0.94354 0.29317 0.0
C112 C 0.06149 0.96283 0.23676 0.0
C113 C 0.07038 0.02009 0.70318 0.0
C114 C 0.02272 0.95735 0.71169 0.0
C115 C 0.98558 0.03726 0.48587 0.0
C116 C 0.96819 0.0583 0.4384 0.0
C117 C 0.95963 0.05601 0.32901 0.0
C118 C 0.94494 0.07699 0.27943 0.0
C119 C 0.93876 0.10066 0.33863 0.0
C120 C 0.94644 0.10221 0.45026 0.0
C121 C 0.96099 0.08116 0.49976 0.0
C122 C 0.97024 1.00855 0.85724 0.0
C123 C 0.01833 0.07273 0.84937 0.0
O124 O 0.03159 0.98402 0.03756 0.0
O125 O 0.06552 1.01215 0.01774 0.0
O126 O 0.04945 1.00551 0.69868 0.0
O127 O 0.07348 0.02964 0.80167 0.0
O128 O 0.01863 0.97665 0.63813 0.0
O129 O 0.02619 0.96399 0.8164 0.0
O130 O 1.009 0.04528 0.52408 0.0
O131 O 0.97368 0.01932 0.54882 0.0
O132 O 0.99068 0.02389 0.86359 0.0
O133 O 0.96788 0.9989 0.75864 0.0
O134 O 0.02215 0.05354 0.92345 0.0
O135 O 1.01493 0.06592 0.74497 0.0
H136 H 0.106 0.9777 0.02989 0.0
H137 H 0.13313 0.94393 0.12936 0.0
H138 H 0.0677 0.93354 0.3637 0.0
H139 H 0.04139 0.96778 0.26684 0.0
H140 H 0.96495 0.03829 0.28115 0.0
H141 H 0.93912 0.07503 0.19391 0.0
H142 H 0.94259 0.12029 0.49806 0.0
H143 H 0.96746 0.08314 0.58463 0.0
Pr144 Pr 0.52294 0.03071 0.86064 0.0
Pr145 Pr 0.5127 1.00047 0.66662 0.0
C146 C 0.53766 0.05323 0.05358 0.0
C147 C 0.55869 0.07064 0.0996 0.0
C148 C 0.58083 0.07873 0.03514 0.0
C149 C 0.60224 0.09283 0.08306 0.0
C150 C 0.60182 0.09902 0.19629 0.0
C151 C 0.57884 0.092 0.25892 0.0
C152 C 0.55741 0.07792 0.21082 0.0
C153 C 0.50922 0.06467 0.68177 0.0
C154 C 0.5756 0.01852 0.69646 0.0
C155 C 0.49793 0.97961 0.47059 0.0
C156 C 0.47872 0.96152 0.41509 0.0
C157 C 0.47233 0.9357 0.45711 0.0
C158 C 0.45242 0.91996 0.40626 0.0
C159 C 0.43848 0.92991 0.31332 0.0
C160 C 0.44616 0.95516 0.26839 0.0
C161 C 0.46612 0.97072 0.31866 0.0
C162 C 0.52456 0.96594 0.84694 0.0
C163 C 0.46033 1.01179 0.83437 0.0
O164 O 0.54546 0.0291 0.02238 0.0
O165 O 0.5208 0.06469 0.98494 0.0
O166 O 0.52601 0.04534 0.67803 0.0
O167 O 0.4981 0.06618 0.7783 0.0
O168 O 0.55682 1.01392 0.6223 0.0
O169 O 0.56832 0.02225 0.80027 0.0
O170 O 0.48829 1.00244 0.50884 0.0
O171 O 0.51621 0.96857 0.53436 0.0
O172 O 0.50905 0.98628 0.84956 0.0
O173 O 0.53481 0.96308 0.74925 0.0
O174 O 0.47936 1.01642 0.90751 0.0
O175 O 0.46726 1.00831 0.72983 0.0
H176 H 0.58203 0.07319 0.94895 0.0
H177 H 0.6198 0.0974 0.03262 0.0
H178 H 0.57789 0.09645 0.34602 0.0
H179 H 0.5403 0.07189 0.26142 0.0
H180 H 0.48208 0.92804 0.53088 0.0
H181 H 0.44722 0.90048 0.44213 0.0
H182 H 0.43567 0.96376 0.19809 0.0
H183 H 0.47103 0.99046 0.28429 0.0
Pr184 Pr 0.51231 0.52154 0.87813 0.0
Pr185 Pr 0.53939 0.50996 0.67334 0.0
C186 C 0.49472 0.53502 0.08128 0.0
C187 C 0.47557 0.55284 0.13847 0.0
C188 C 0.45108 0.56078 0.08948 0.0
C189 C 0.43474 0.58028 0.13996 0.0
C190 C 0.44289 0.59248 0.23923 0.0
C191 C 0.46653 0.58288 0.2915 0.0
C192 C 0.48265 0.56318 0.24158 0.0
C193 C 0.47483 0.51021 0.70809 0.0
C194 C 0.52314 0.57362 0.70717 0.0
C195 C 0.55252 0.49188 0.47123 0.0
C196 C 0.53417 0.48311 0.38334 0.0
C197 C 0.54192 0.46203 0.31327 0.0
C198 C 0.52225 0.44781 0.25458 0.0
C199 C 0.49463 0.45443 0.26579 0.0
C200 C 0.48727 0.47727 0.32749 0.0
C201 C 0.50698 0.49156 0.38559 0.0
C202 C 0.57712 0.52125 0.84194 0.0
C203 C 0.5255 0.45882 0.83559 0.0
O204 O 0.51543 0.54675 0.03324 0.0
O205 O 0.48442 0.51526 0.02368 0.0
O206 O 0.49561 0.52485 0.69906 0.0
O207 O 0.47275 0.50081 0.80768 0.0
O208 O 0.5271 0.55464 0.63306 0.0
O209 O 0.52011 0.56673 0.81221 0.0
O210 O 0.55185 0.5176 0.49579 0.0
O211 O 0.55222 0.47628 0.55843 0.0
O212 O 0.55619 0.5068 0.85209 0.0
O213 O 0.57966 0.52962 0.74099 0.0
O214 O 0.52776 0.47746 0.91187 0.0
O215 O 0.52319 0.46669 0.73193 0.0
H216 H 0.44509 0.55268 0.01036 0.0
H217 H 0.41635 0.58666 0.09871 0.0
H218 H 0.47376 0.59185 0.36714 0.0
H219 H 0.50136 0.557 0.28108 0.0
H220 H 0.56273 0.45502 0.31158 0.0
H221 H 0.52835 0.42982 0.21026 0.0
H222 H 0.46613 0.48263 0.33808 0.0
H223 H 0.5007 0.50771 0.4399 0.0
Pr224 Pr 0.02026 0.50121 0.87634 0.0
Pr225 Pr 0.03227 0.53053 0.67559 0.0
C226 C 1.00546 0.48227 0.07646 0.0
C227 C 0.98629 0.46519 0.13818 0.0
C228 C 0.97933 0.43897 0.10342 0.0
C229 C 0.95974 0.42406 0.16105 0.0
C230 C 0.94671 0.43523 0.25363 0.0
C231 C 0.95493 0.46092 0.29105 0.0
C232 C 0.97458 0.47565 0.23408 0.0
C233 C 0.03087 0.46557 0.6998 0.0
C234 C 0.96856 0.51436 0.70839 0.0
C235 C 0.04711 0.54971 0.47585 0.0
C236 C 0.06641 0.56686 0.41484 0.0
C237 C 0.07102 0.59409 0.44274 0.0
C238 C 0.09062 0.60924 0.3862 0.0
C239 C 0.10604 0.59735 0.30142 0.0
C240 C 0.10018 0.57049 0.27038 0.0
C241 C 0.08052 0.55552 0.32616 0.0
C242 C 0.02145 0.56592 0.8526 0.0
C243 C 0.08407 0.51736 0.8428 0.0
O244 O 0.99615 0.50497 0.03469 0.0
O245 O 0.02319 0.4702 0.01339 0.0
O246 O 0.01649 0.48673 0.69439 0.0
O247 O 0.04038 0.46236 0.79853 0.0
O248 O 0.98777 0.5181 0.63459 0.0
O249 O 0.97526 0.51072 0.8131 0.0
O250 O 0.0563 0.52691 0.51708 0.0
O251 O 0.02931 0.56168 0.53901 0.0
O252 O 0.03608 0.54493 0.85737 0.0
O253 O 1.0118 0.56913 0.75412 0.0
O254 O 0.06495 0.51342 0.91689 0.0
O255 O 0.07725 0.52111 0.73831 0.0
H256 H 0.98843 0.43033 0.03029 0.0
H257 H 0.9541 0.40421 0.13089 0.0
H258 H 0.94512 0.47045 0.3607 0.0
H259 H 0.97997 0.4957 0.26296 0.0
H260 H 0.06001 0.60348 0.50977 0.0
H261 H 0.09425 0.62997 0.41117 0.0
H262 H 0.11181 0.56032 0.20711 0.0
H263 H 0.07695 0.53467 0.30222 0.0
H264 H 0.22751 0.02427 0.37483 0.0
H265 H 0.06993 0.99571 0.5001 0.0
H266 H 0.17545 0.97978 0.15704 0.0
H267 H 0.12137 0.04227 0.71469 0.0
H268 H 0.10748 0.99217 0.36823 0.0
H269 H 0.18828 0.03395 0.49383 0.0
C270 C 0.20767 0.017 0.35123 0.0
C271 C 0.20466 1.00125 0.25614 0.0
C272 C 0.11055 1.00323 0.44393 0.0
C273 C 0.15968 1.01165 0.39279 0.0
C274 C 0.08907 1.00532 0.51931 0.0
C275 C 0.09248 0.01926 0.6191 0.0
C276 C 0.1358 1.01499 0.46825 0.0
C277 C 0.1178 0.0313 0.63909 0.0
C278 C 0.18531 0.02229 0.41949 0.0
C279 C 0.1786 0.99186 0.23006 0.0
N280 N 0.13846 0.02876 0.56491 0.0
N281 N 0.1572 0.99703 0.29813 0.0
H282 H 0.4564 0.19008 0.22294 0.0
H283 H 0.55025 0.08693 0.55666 0.0
H284 H 0.53614 0.21411 0.32753 0.0
H285 H 0.46473 0.09409 0.62281 0.0
H286 H 0.54732 0.12727 0.43551 0.0
H287 H 0.46102 0.14801 0.33042 0.0
C288 C 0.47491 0.18648 0.26826 0.0
C289 C 0.4957 0.20594 0.26755 0.0
C290 C 0.5292 0.11966 0.47536 0.0
C291 C 0.50154 0.15725 0.38774 0.0
C292 C 0.5308 0.09667 0.54407 0.0
C293 C 0.50765 0.08716 0.59974 0.0
C294 C 0.50412 0.13256 0.45884 0.0
C295 C 0.48304 0.10077 0.58151 0.0
C296 C 0.47758 0.16242 0.32913 0.0
C297 C 0.51967 0.19967 0.32499 0.0
N298 N 0.48185 0.12255 0.51191 0.0
N299 N 0.52196 0.17589 0.38268 0.0
H300 H 0.36827 0.54806 0.15742 0.0
H301 H 0.42713 0.48143 0.71455 0.0
H302 H 0.3183 0.5044 0.3887 0.0
H303 H 0.47008 0.54078 0.51921 0.0
H304 H 0.38903 0.48424 0.58473 0.0
H305 H 0.40782 0.53955 0.27535 0.0
C306 C 0.36575 0.53642 0.23264 0.0
C307 C 0.34 0.52701 0.26367 0.0
C308 C 0.40688 0.49649 0.56986 0.0
C309 C 0.38516 0.51731 0.39982 0.0
C310 C 0.42866 0.49489 0.64396 0.0
C311 C 0.45199 0.51072 0.62758 0.0
C312 C 0.40841 0.514 0.4781 0.0
C313 C 0.45272 0.52789 0.53466 0.0
C314 C 0.38828 0.53166 0.30014 0.0
C315 C 0.33785 0.51181 0.36152 0.0
N316 N 0.43136 0.52904 0.46373 0.0
N317 N 0.36006 0.50756 0.42644 0.0
H318 H 0.03356 0.30697 0.38712 0.0
H319 H 1.00651 0.46558 0.49568 0.0
H320 H 0.99373 0.35942 0.15367 0.0
H321 H 0.05268 0.41446 0.71549 0.0
H322 H 1.00301 0.42758 0.36648 0.0
H323 H 0.04263 0.34644 0.50443 0.0
C324 C 0.02716 0.32691 0.35982 0.0
C325 C 1.01288 0.32993 0.26065 0.0
C326 C 1.01398 0.42469 0.44275 0.0
C327 C 0.02255 0.37528 0.39555 0.0
C328 C 0.01604 0.44643 0.5166 0.0
C329 C 0.02987 0.44326 0.61704 0.0
C330 C 0.02567 0.39942 0.46939 0.0
C331 C 0.04179 0.41789 0.63933 0.0
C332 C 0.03211 0.34944 0.42712 0.0
C333 C 1.00458 0.35619 0.23 0.0
N334 N 0.03928 0.39701 0.56673 0.0
N335 N 1.00934 0.37775 0.29729 0.0
H336 H 0.86223 0.04346 0.40762 0.0
H337 H 0.92069 0.98391 0.83881 0.0
H338 H 0.81269 1.00327 0.16752 0.0
H339 H 0.96782 0.03269 0.06124 0.0
H340 H 0.88239 0.98616 0.96727 0.0
H341 H 0.90239 0.03465 0.29322 0.0
C342 C 0.85996 0.03242 0.3313 0.0
C343 C 0.83418 0.02404 0.29685 0.0
C344 C 0.90114 0.99624 0.98849 0.0
C345 C 0.87997 1.0142 0.16408 0.0
C346 C 0.92308 0.99494 0.91512 0.0
C347 C 0.94756 1.00825 0.9388 0.0
C348 C 0.90356 1.01088 0.0871 0.0
C349 C 0.94938 0.02218 0.03922 0.0
C350 C 0.88283 0.02752 0.26564 0.0
C351 C 0.83226 1.00981 0.19734 0.0
N352 N 0.92771 0.02318 0.10922 0.0
N353 N 0.85477 1.00551 0.13413 0.0
H354 H 0.53222 0.80859 0.17533 0.0
H355 H 0.49858 0.96531 0.04763 0.0
H356 H 0.48539 0.85908 0.39232 0.0
H357 H 0.54901 0.91588 0.83855 0.0
H358 H 0.49553 0.9275 0.17939 0.0
H359 H 0.54105 0.84827 0.05692 0.0
C360 C 0.52423 0.82819 0.19888 0.0
C361 C 0.50808 0.8306 0.29359 0.0
C362 C 0.50737 0.92495 0.105 0.0
C363 C 0.5175 0.8761 0.15744 0.0
C364 C 0.50916 0.94657 0.02966 0.0
C365 C 0.52402 0.9438 0.93138 0.0
C366 C 0.5204 0.90019 0.08217 0.0
C367 C 0.53729 0.91897 0.91293 0.0
C368 C 0.52904 0.85081 0.13094 0.0
C369 C 0.49778 0.85637 0.31954 0.0
N370 N 0.53504 0.89816 0.98701 0.0
N371 N 0.50249 0.87802 0.25169 0.0
H372 H 0.73583 0.5291 0.15662 0.0
H373 H 0.57765 0.49938 0.05043 0.0
H374 H 0.68435 0.48733 0.3879 0.0
H375 H 0.62821 0.54298 0.81987 0.0
H376 H 0.61575 0.49724 0.1794 0.0
H377 H 0.69623 0.53739 0.03775 0.0
C378 C 0.71605 0.52215 0.18311 0.0
C379 C 0.71328 0.50756 0.28207 0.0
C380 C 0.61855 0.5074 0.10089 0.0
C381 C 0.6679 0.51639 0.14589 0.0
C382 C 0.59674 0.50864 0.02706 0.0
C383 C 0.59971 0.52127 0.92365 0.0
C384 C 0.64372 0.51881 0.07151 0.0
C385 C 0.62497 0.53296 0.89839 0.0
C386 C 0.69347 0.52665 0.11501 0.0
C387 C 0.68729 0.49856 0.31195 0.0
N388 N 0.64596 0.53133 0.97128 0.0
N389 N 0.66571 0.50294 0.24412 0.0
H390 H 1.01244 0.72237 0.18184 0.0
H391 H 0.0471 0.56632 0.05397 0.0
H392 H 0.05091 0.65449 0.31012 0.0
H393 H 0.99754 0.61617 0.84176 0.0
H394 H 0.05001 0.60406 0.18452 0.0
H395 H 1.0042 0.6834 0.06238 0.0
C396 C 0.02092 0.70288 0.20471 0.0
C397 C 0.03744 0.70075 0.29871 0.0
C398 C 0.0384 0.60673 0.10969 0.0
C399 C 0.02824 0.65554 0.16041 0.0
C400 C 0.03668 0.58513 0.03505 0.0
C401 C 0.0221 0.58804 0.93626 0.0
C402 C 0.02552 0.63155 0.08568 0.0
C403 C 1.00905 0.61297 0.91655 0.0
C404 C 0.0164 0.68065 0.13566 0.0
C405 C 0.04912 0.67563 0.32789 0.0
N406 N 1.01118 0.63372 0.99001 0.0
N407 N 0.04386 0.65365 0.25844 0.0
H408 H 0.95774 0.24323 0.9725 0.0
H409 H 0.90299 0.13891 0.41743 0.0
H410 H 0.94725 0.25919 0.31825 0.0
H411 H 0.95023 0.11859 0.12921 0.0
H412 H 0.89729 0.18489 0.34415 0.0
H413 H 0.93284 0.20044 0.99584 0.0
C414 C 0.9491 0.23824 0.05212 0.0
C415 C 0.95492 0.25425 0.14409 0.0
C416 C 0.90812 0.17 0.29562 0.0
C417 C 0.92638 0.20606 0.17122 0.0
C418 C 0.91159 0.14384 0.33765 0.0
C419 C 0.92799 0.12512 0.28154 0.0
C420 C 0.92097 0.17732 0.19668 0.0
C421 C 0.93772 0.13233 0.17645 0.0
C422 C 0.93496 0.21394 0.06543 0.0
C423 C 0.94318 0.24728 0.24551 0.0
N424 N 0.93456 0.15808 0.13854 0.0
N425 N 0.92988 0.22338 0.25697 0.0
H426 H 0.29277 0.94346 0.9816 0.0
H427 H 0.39917 0.90519 0.4376 0.0
H428 H 0.2783 0.94036 0.33124 0.0
H429 H 0.41959 0.92509 0.10057 0.0
H430 H 0.35246 0.89811 0.38234 0.0
H431 H 0.33543 0.91863 0.00931 0.0
C432 C 0.29816 0.93658 0.06356 0.0
C433 C 0.2824 0.94418 0.1545 0.0
C434 C 0.36727 0.90335 0.31981 0.0
C435 C 0.33071 0.91599 0.18714 0.0
C436 C 0.39413 0.90717 0.35114 0.0
C437 C 0.41321 0.91678 0.27432 0.0
C438 C 0.35938 0.90959 0.21151 0.0
C439 C 0.40528 0.9188 0.16341 0.0
C440 C 0.32241 0.92249 0.07947 0.0
C441 C 0.28993 0.93479 0.25913 0.0
N442 N 0.37877 0.91604 0.13576 0.0
N443 N 0.31381 0.9216 0.2729 0.0
H444 H 0.44934 0.30211 0.01842 0.0
H445 H 0.45782 0.43137 0.40289 0.0
H446 H 0.46597 0.3013 0.36619 0.0
H447 H 0.48595 0.4297 0.06664 0.0
H448 H 0.43703 0.38689 0.37711 0.0
H449 H 0.44007 0.35109 0.0284 0.0
C450 C 0.4498 0.31209 0.09763 0.0
C451 C 0.4587 0.29798 0.19142 0.0
C452 C 0.44693 0.3967 0.30783 0.0
C453 C 0.44767 0.35327 0.20407 0.0
C454 C 0.45862 0.42215 0.32208 0.0
C455 C 0.4742 0.43376 0.2373 0.0
C456 C 0.45079 0.38298 0.20813 0.0
C457 C 0.47473 0.42092 0.13459 0.0
C458 C 0.44458 0.33989 0.10322 0.0
C459 C 0.45898 0.31153 0.29241 0.0
N460 N 0.4637 0.39584 0.12332 0.0
N461 N 0.45396 0.33858 0.29591 0.0
H462 H 0.26646 0.58826 0.33551 0.0
H463 H 0.14143 0.63099 0.40998 0.0
H464 H 0.25169 0.58405 0.98688 0.0
H465 H 0.12764 0.59483 0.09156 0.0
H466 H 0.18805 0.63969 0.35757 0.0
H467 H 0.2251 0.61397 0.35874 0.0
C468 C 0.25499 0.59398 0.263 0.0
C469 C 0.26224 0.58398 0.15941 0.0
C470 C 0.17489 0.62983 0.29896 0.0
C471 C 0.2141 0.61292 0.18458 0.0
C472 C 0.14792 0.62532 0.32802 0.0
C473 C 0.13081 0.61077 0.25734 0.0
C474 C 0.18495 0.61889 0.20031 0.0
C475 C 0.14051 0.60468 0.15136 0.0
C476 C 0.23117 0.60872 0.27593 0.0
C477 C 0.24643 0.59126 0.06822 0.0
N478 N 0.16719 0.60795 0.12735 0.0
N479 N 0.22262 0.60464 0.08327 0.0
H480 H 0.09208 0.78672 0.58818 0.0
H481 H 0.10546 0.91974 0.47167 0.0
H482 H 0.09638 0.77808 0.2362 0.0
H483 H 0.12969 0.89583 0.14435 0.0
H484 H 0.11193 0.87343 0.53441 0.0
H485 H 0.11632 0.82988 0.57319 0.0
C486 C 0.09892 0.7937 0.50809 0.0
C487 C 0.09195 0.77934 0.41308 0.0
C488 C 0.11693 0.87825 0.44984 0.0
C489 C 0.11841 0.82901 0.39364 0.0
C490 C 0.11298 0.90487 0.41367 0.0
C491 C 0.11592 0.91147 0.30157 0.0
C492 C 0.12393 0.85813 0.37299 0.0
C493 C 0.12663 0.89168 0.23113 0.0
C494 C 0.11242 0.81851 0.49902 0.0
C495 C 0.10138 0.78875 0.31115 0.0
N496 N 0.12953 0.86576 0.26739 0.0
N497 N 0.11365 0.81327 0.30385 0.0
H498 H 0.76293 0.0863 0.21166 0.0
H499 H 0.63878 0.13653 0.11946 0.0
H500 H 0.74372 0.08229 0.55736 0.0
H501 H 0.62212 0.08398 0.3975 0.0
H502 H 0.68514 0.14225 0.18675 0.0
H503 H 0.72151 0.11171 0.17902 0.0
C504 C 0.75055 0.09201 0.28156 0.0
C505 C 0.75646 0.08208 0.3871 0.0
C506 C 0.67111 0.12989 0.23379 0.0
C507 C 0.70849 0.11038 0.35051 0.0
C508 C 0.64468 0.12659 0.19554 0.0
C509 C 0.6268 0.10896 0.25064 0.0
C510 C 0.67961 0.1153 0.32719 0.0
C511 C 0.6352 0.09749 0.35117 0.0
C512 C 0.72678 0.10652 0.26308 0.0
C513 C 0.73947 0.08937 0.47463 0.0
N514 N 0.66119 0.10042 0.38497 0.0
N515 N 0.71567 0.10229 0.45391 0.0
H516 H 0.44925 0.75633 0.21586 0.0
H517 H 0.43565 0.6108 0.45248 0.0
H518 H 0.45311 0.73882 0.5633 0.0
H519 H 0.42117 0.6333 0.11306 0.0
H520 H 0.42917 0.65813 0.50493 0.0
H521 H 0.42524 0.71395 0.18704 0.0
C522 C 0.44406 0.74396 0.28678 0.0
C523 C 0.45339 0.7508 0.39185 0.0
C524 C 0.4266 0.65253 0.41943 0.0
C525 C 0.42742 0.70135 0.35909 0.0
C526 C 0.43047 0.62549 0.38923 0.0
C527 C 0.43007 0.61811 0.27749 0.0
C528 C 0.42236 0.67224 0.33717 0.0
C529 C 0.42216 0.63785 0.20004 0.0
C530 C 0.43061 0.71953 0.27037 0.0
C531 C 0.44659 0.73386 0.48078 0.0
N532 N 0.41927 0.66406 0.23103 0.0
N533 N 0.43472 0.70943 0.46209 0.0
H534 H 0.79674 0.45023 0.57835 0.0
H535 H 0.92976 0.43345 0.47 0.0
H536 H 0.78943 0.44712 0.22561 0.0
H537 H 0.90618 0.40919 0.14277 0.0
H538 H 0.88312 0.4287 0.52994 0.0
H539 H 0.83932 0.42486 0.56637 0.0
C540 C 0.80387 0.44343 0.49871 0.0
C541 C 0.79007 0.45103 0.40267 0.0
C542 C 0.88807 0.42329 0.44612 0.0
C543 C 0.83906 0.42322 0.3868 0.0
C544 C 0.91488 0.42626 0.41152 0.0
C545 C 0.92175 0.42281 0.3001 0.0
C546 C 0.86802 0.41673 0.3684 0.0
C547 C 0.90186 0.41259 0.22905 0.0
C548 C 0.82834 0.42928 0.49141 0.0
C549 C 0.79965 0.44163 0.30134 0.0
N550 N 0.87579 0.41063 0.26373 0.0
N551 N 0.82384 0.42867 0.29583 0.0
H552 H 1.00349 0.21914 0.24711 0.0
H553 H 0.01741 0.12004 0.72379 0.0
H554 H 0.01732 0.24893 0.91843 0.0
H555 H 0.0164 0.09196 0.06103 0.0
H556 H 0.01629 0.16712 0.79066 0.0
H557 H 1.00778 0.17238 0.17952 0.0
C558 C 1.00822 0.21573 0.16111 0.0
C559 C 1.01067 0.23788 0.08867 0.0
C560 C 0.01638 0.15063 0.84995 0.0
C561 C 1.01482 0.1843 0.00902 0.0
C562 C 0.01693 0.12368 0.8117 0.0
C563 C 0.01714 0.10176 0.88647 0.0
C564 C 1.01578 0.15587 0.96402 0.0
C565 C 0.01645 0.10799 0.9997 0.0
C566 C 1.01038 0.18906 0.12205 0.0
C567 C 0.0159 0.23239 0.97714 0.0
N568 N 1.01574 0.13424 0.03458 0.0
N569 N 0.01763 0.20624 0.9406 0.0
H570 H 0.28314 1.00274 0.90505 0.0
H571 H 0.4423 1.00802 0.04701 0.0
H572 H 0.31563 0.99562 0.23218 0.0
H573 H 0.41247 1.0102 0.71316 0.0
H574 H 0.3959 1.00534 0.11442 0.0
H575 H 0.32956 1.0084 0.83216 0.0
C576 C 0.30009 1.00308 0.96157 0.0
C577 C 0.29562 0.99923 0.07482 0.0
C578 C 0.39934 1.00648 0.02635 0.0
C579 C 0.34882 1.00491 0.99247 0.0
C580 C 0.426 1.00803 0.98737 0.0
C581 C 0.43156 1.00948 0.87365 0.0
C582 C 0.3776 1.00655 0.95175 0.0
C583 C 0.4093 1.00912 0.80135 0.0
C584 C 0.32657 1.00597 0.92006 0.0
C585 C 0.31824 0.99903 0.14463 0.0
N586 N 0.38337 1.00779 0.84153 0.0
N587 N 0.34376 1.00171 0.10249 0.0
H588 H 0.4963 0.28445 0.90964 0.0
H589 H 0.54684 0.43685 0.02263 0.0
H590 H 0.5244 0.31278 0.22336 0.0
H591 H 0.50609 0.41388 0.72371 0.0
H592 H 0.54492 0.38977 0.08611 0.0
H593 H 0.5063 0.32938 0.82878 0.0
C594 C 0.50557 0.29988 0.96024 0.0
C595 C 0.51009 0.29482 0.07264 0.0
C596 C 0.53645 0.39489 1.00643 0.0
C597 C 0.52083 0.34649 0.98227 0.0
C598 C 0.53746 0.42187 0.97014 0.0
C599 C 0.52616 0.42955 0.86847 0.0
C600 C 0.52411 0.37506 0.94069 0.0
C601 C 0.51489 0.40899 0.80302 0.0
C602 C 0.51087 0.32563 0.91474 0.0
C603 C 0.52122 0.31575 0.13592 0.0
N604 N 0.51394 0.38277 0.84056 0.0
N605 N 0.52602 0.34062 0.09027 0.0
H606 H 0.22876 0.53311 0.24868 0.0
H607 H 0.13148 0.51986 0.71884 0.0
H608 H 0.25978 0.5243 0.91972 0.0
H609 H 0.10289 0.51848 0.05501 0.0
H610 H 0.17836 0.52197 0.78779 0.0
H611 H 0.18245 0.52764 0.17796 0.0
C612 C 0.22574 0.52928 0.16179 0.0
C613 C 0.24807 0.52856 0.09021 0.0
C614 C 0.16179 0.52113 0.84633 0.0
C615 C 0.19501 0.52303 0.00712 0.0
C616 C 0.13497 0.51999 0.8069 0.0
C617 C 0.11298 0.51887 0.88077 0.0
C618 C 0.16679 0.52136 0.96067 0.0
C619 C 0.11898 0.51914 0.99429 0.0
C620 C 0.19932 0.52642 0.12099 0.0
C621 C 0.24308 0.52439 0.97765 0.0
N622 N 0.1451 0.52043 0.03029 0.0
N623 N 0.21715 0.52194 0.93945 0.0
H624 H 0.03299 0.77996 0.64817 0.0
H625 H 0.02515 0.93918 0.49908 0.0
H626 H 0.03939 0.81205 0.31932 0.0
H627 H 0.02506 0.90944 0.83404 0.0
H628 H 0.02813 0.89266 0.43325 0.0
H629 H 0.02685 0.82645 0.71854 0.0
C630 C 0.03232 0.79682 0.59068 0.0
C631 C 0.03605 0.79218 0.47765 0.0
C632 C 0.02736 0.89616 0.52122 0.0
C633 C 0.02989 0.84557 0.55722 0.0
C634 C 0.02565 0.92288 0.55928 0.0
C635 C 0.02474 0.92852 0.67287 0.0
C636 C 0.02798 0.87443 0.59665 0.0
C637 C 0.02568 0.90625 0.74591 0.0
C638 C 0.02919 0.82337 0.63078 0.0
C639 C 0.03597 0.81476 0.40668 0.0
N640 N 0.02716 0.88028 0.70667 0.0
N641 N 0.03303 0.84035 0.44745 0.0
H642 H 0.72289 0.03142 0.30047 0.0
H643 H 0.62229 0.02172 0.82336 0.0
H644 H 0.75173 0.0231 0.63279 0.0
H645 H 0.59558 0.01866 0.48543 0.0
H646 H 0.66955 0.02309 0.75785 0.0
H647 H 0.67607 0.0269 0.3677 0.0
C648 C 0.71928 0.02788 0.3874 0.0
C649 C 0.74115 0.02704 0.46096 0.0
C650 C 0.65332 0.02205 0.69814 0.0
C651 C 0.6875 0.02262 0.53997 0.0
C652 C 0.62627 0.02136 0.73559 0.0
C653 C 0.6047 0.01995 0.66022 0.0
C654 C 0.65898 0.02156 0.58425 0.0
C655 C 0.61134 0.01958 0.54721 0.0
C656 C 0.69256 0.02557 0.42618 0.0
C657 C 0.7354 0.02327 0.57341 0.0
N658 N 0.63767 0.02043 0.51309 0.0
N659 N 0.7092 0.02136 0.60959 0.0
H660 H 0.51174 0.75101 0.64137 0.0
H661 H 0.5198 0.59216 0.49478 0.0
H662 H 0.50569 0.71929 0.31326 0.0
H663 H 0.52137 0.62129 0.82932 0.0
H664 H 0.51671 0.63874 0.42854 0.0
H665 H 0.51841 0.70448 0.71262 0.0
C666 C 0.51255 0.73423 0.58426 0.0
C667 C 0.50866 0.73894 0.47124 0.0
C668 C 0.51784 0.63511 0.51649 0.0
C669 C 0.5155 0.68558 0.55174 0.0
C670 C 0.51962 0.60834 0.55482 0.0
C671 C 0.52099 0.60251 0.6684 0.0
C672 C 0.51757 0.65669 0.59163 0.0
C673 C 0.5204 0.62464 0.74121 0.0
C674 C 0.51601 0.70767 0.62484 0.0
C675 C 0.5091 0.71649 0.40065 0.0
N676 N 0.51881 0.65068 0.70168 0.0
N677 N 0.51231 0.69089 0.44192 0.0
H678 H 0.7912 0.50889 0.63899 0.0
H679 H 0.95049 0.51248 0.49578 0.0
H680 H 0.8237 0.50355 0.31115 0.0
H681 H 0.92056 0.51324 0.83002 0.0
H682 H 0.90409 0.51109 0.42874 0.0
H683 H 0.83765 0.51348 0.71174 0.0
C684 C 0.80815 0.50949 0.58228 0.0
C685 C 0.80367 0.5065 0.46882 0.0
C686 C 0.9075 0.51165 0.51681 0.0
C687 C 0.85693 0.51084 0.55103 0.0
C688 C 0.93417 0.51244 0.55561 0.0
C689 C 0.93973 0.51308 0.66934 0.0
C690 C 0.88573 0.5117 0.5916 0.0
C691 C 0.91741 0.51278 0.74181 0.0
C692 C 0.83466 0.51173 0.62371 0.0
C693 C 0.82632 0.50644 0.39882 0.0
N694 N 0.89147 0.51219 0.70182 0.0
N695 N 0.85186 0.50847 0.44087 0.0
loop_
_geom_bond_atom_site_label_1
_geom_bond_atom_site_label_2
_geom_bond_distance
_geom_bond_site_symmetry_2
_ccdc_geom_bond_type
C0 N1 1.317 . S
C0 N2 1.348 . S
C0 C3 1.485 . S
N1 C0 1.317 . S
N1 N5 1.370 . S
N2 C0 1.348 . S
N2 C4 1.346 . S
C3 C0 1.485 . S
C3 H7 0.960 . S
C3 H8 0.961 . S
C3 H9 0.960 . S
C4 N2 1.346 . S
C4 N5 1.307 . S
C4 C6 1.486 . S
N5 N1 1.370 . S
N5 C4 1.307 . S
C6 C4 1.486 . S
C6 H10 0.960 . S
C6 H11 0.960 . S
C6 H12 0.959 . S
H7 C3 0.960 . S
H8 C3 0.961 . S
H9 C3 0.960 . S
H10 C6 0.960 . S
H11 C6 0.960 . S
H12 C6 0.959 . S
C13 N14 1.317 . S
C13 N15 1.350 . S
C13 C16 1.485 . S
N14 C13 1.317 . S
N14 N18 1.371 . S
N15 C13 1.350 . S
N15 C17 1.345 1_655 S
C16 C13 1.485 . S
C16 H20 0.960 1_655 S
C16 H21 0.961 . S
C16 H22 0.960 . S
C17 N15 1.345 1_455 S
C17 N18 1.307 1_455 S
C17 C19 1.486 . S
N18 N14 1.371 . S
N18 C17 1.307 1_655 S
C19 C17 1.486 . S
C19 H23 0.922 1_455 S
C19 H24 0.991 . S
C19 H25 0.967 . S
H20 C16 0.960 1_455 S
H21 C16 0.961 . S
H22 C16 0.960 . S
H23 C19 0.922 1_655 S
H24 C19 0.991 . S
H25 C19 0.967 . S
C26 N27 1.317 . S
C26 N28 1.350 . S
C26 C29 1.485 . S
N27 C26 1.317 . S
N27 N31 1.371 . S
N28 C26 1.350 . S
N28 C30 1.345 1_565 S
C29 C26 1.485 . S
C29 H33 0.960 1_565 S
C29 H34 0.961 . S
C29 H35 0.960 . S
C30 N28 1.345 1_545 S
C30 N31 1.307 1_545 S
C30 C32 1.486 . S
N31 N27 1.371 . S
N31 C30 1.307 1_565 S
C32 C30 1.486 . S
C32 H36 0.922 1_545 S
C32 H37 0.991 . S
C32 H38 0.967 . S
H33 C29 0.960 1_545 S
H34 C29 0.961 . S
H35 C29 0.960 . S
H36 C32 0.922 1_565 S
H37 C32 0.991 . S
H38 C32 0.967 . S
C39 N40 1.317 . S
C39 N41 1.348 . S
C39 C42 1.485 . S
N40 C39 1.317 . S
N40 N44 1.370 . S
N41 C39 1.348 . S
N41 C43 1.346 . S
C42 C39 1.485 . S
C42 H46 0.960 . S
C42 H47 0.961 . S
C42 H48 0.960 . S
C43 N41 1.346 . S
C43 N44 1.307 . S
C43 C45 1.486 . S
N44 N40 1.370 . S
N44 C43 1.307 . S
C45 C43 1.486 . S
C45 H49 0.960 . S
C45 H50 0.960 . S
C45 H51 0.959 . S
H46 C42 0.960 . S
H47 C42 0.961 . S
H48 C42 0.960 . S
H49 C45 0.960 . S
H50 C45 0.960 . S
H51 C45 0.959 . S
C52 N53 1.317 . S
C52 N54 1.348 1_556 S
C52 C55 1.485 . S
N53 C52 1.317 . S
N53 N57 1.370 1_556 S
N54 C52 1.348 1_554 S
N54 C56 1.346 . S
C55 C52 1.485 . S
C55 H59 0.960 . S
C55 H60 0.961 . S
C55 H61 0.960 . S
C56 N54 1.346 . S
C56 N57 1.307 . S
C56 C58 1.486 . S
N57 N53 1.370 1_554 S
N57 C56 1.307 . S
C58 C56 1.486 . S
C58 H62 0.960 . S
C58 H63 0.960 . S
C58 H64 0.959 . S
H59 C55 0.960 . S
H60 C55 0.961 . S
H61 C55 0.960 . S
H62 C58 0.960 . S
H63 C58 0.960 . S
H64 C58 0.959 . S
C65 N66 1.317 . S
C65 N67 1.350 1_556 S
C65 C68 1.485 . S
N66 C65 1.317 . S
N66 N70 1.370 1_556 S
N67 C65 1.350 1_554 S
N67 C69 1.345 1_655 S
C68 C65 1.485 . S
C68 H72 0.960 1_655 S
C68 H73 0.961 . S
C68 H74 0.960 . S
C69 N67 1.345 1_455 S
C69 N70 1.307 1_455 S
C69 C71 1.486 . S
N70 N66 1.370 1_554 S
N70 C69 1.307 1_655 S
C71 C69 1.486 . S
C71 H75 0.960 1_455 S
C71 H76 0.960 . S
C71 H77 0.959 . S
H72 C68 0.960 1_455 S
H73 C68 0.961 . S
H74 C68 0.960 . S
H75 C71 0.960 1_655 S
H76 C71 0.960 . S
H77 C71 0.959 . S
C78 N79 1.317 . S
C78 N80 1.350 1_556 S
C78 C81 1.485 . S
N79 C78 1.317 . S
N79 N83 1.370 1_556 S
N80 C78 1.350 1_554 S
N80 C82 1.345 1_565 S
C81 C78 1.485 . S
C81 H85 0.960 1_565 S
C81 H86 0.961 . S
C81 H87 0.960 . S
C82 N80 1.345 1_545 S
C82 N83 1.307 1_545 S
C82 C84 1.487 . S
N83 N79 1.370 1_554 S
N83 C82 1.307 1_565 S
C84 C82 1.487 . S
C84 H88 0.960 1_545 S
C84 H89 0.960 . S
C84 H90 0.959 . S
H85 C81 0.960 1_545 S
H86 C81 0.961 . S
H87 C81 0.960 . S
H88 C84 0.960 1_565 S
H89 C84 0.960 . S
H90 C84 0.959 . S
C91 N92 1.317 . S
C91 N93 1.348 1_556 S
C91 C94 1.485 . S
N92 C91 1.317 . S
N92 N96 1.370 1_556 S
N93 C91 1.348 1_554 S
N93 C95 1.346 . S
C94 C91 1.485 . S
C94 H98 0.960 . S
C94 H99 0.961 . S
C94 H100 0.960 . S
C95 N93 1.346 . S
C95 N96 1.307 . S
C95 C97 1.486 . S
N96 N92 1.370 1_554 S
N96 C95 1.307 . S
C97 C95 1.486 . S
C97 H101 0.960 . S
C97 H102 0.960 . S
C97 H103 0.959 . S
H98 C94 0.960 . S
H99 C94 0.961 . S
H100 C94 0.960 . S
H101 C97 0.960 . S
H102 C97 0.960 . S
H103 C97 0.959 . S
Pr104 C106 2.880 1_556 S
Pr104 O124 2.562 . S
Pr104 O125 2.490 . S
Pr104 O126 2.695 1_565 S
Pr104 O127 2.512 . S
Pr104 O129 2.437 . S
Pr104 O132 2.436 1_455 S
Pr104 O134 2.438 1_565 S
Pr105 C115 2.880 . S
Pr105 O126 2.436 1_655 S
Pr105 O128 2.438 1_545 S
Pr105 O130 2.562 . S
Pr105 O131 2.490 . S
Pr105 O132 2.695 1_545 S
Pr105 O133 2.512 . S
Pr105 O135 2.437 . S
C106 Pr104 2.880 1_554 S
C106 C107 1.491 . S
C106 O124 1.254 1_554 S
C106 O125 1.225 1_554 S
C107 C106 1.491 . S
C107 C108 1.392 . S
C107 C112 1.356 . S
C108 C107 1.392 . S
C108 C109 1.368 . S
C108 H136 0.929 . S
C109 C108 1.368 . S
C109 C110 1.386 . S
C109 H137 0.929 . S
C110 C109 1.386 . S
C110 C111 1.373 . S
C111 C110 1.373 . S
C111 C112 1.409 . S
C111 H138 0.931 1_455 S
C112 C107 1.356 . S
C112 C111 1.409 . S
C112 H139 0.930 1_455 S
C113 O126 1.270 1_565 S
C113 O127 1.248 . S
C114 O128 1.267 . S
C114 O129 1.278 1_655 S
C115 Pr105 2.880 . S
C115 C116 1.491 . S
C115 O130 1.254 . S
C115 O131 1.225 . S
C116 C115 1.491 . S
C116 C117 1.392 . S
C116 C121 1.356 . S
C117 C116 1.392 . S
C117 C118 1.368 . S
C117 H140 0.929 . S
C118 C117 1.368 . S
C118 C119 1.386 . S
C118 H141 0.929 . S
C119 C118 1.386 . S
C119 C120 1.373 . S
C120 C119 1.373 . S
C120 C121 1.409 . S
C120 H142 0.931 1_655 S
C121 C116 1.356 . S
C121 C120 1.409 . S
C121 H143 0.930 1_655 S
C122 O132 1.270 1_545 S
C122 O133 1.248 . S
C123 O134 1.267 . S
C123 O135 1.278 1_455 S
O124 Pr104 2.562 . S
O124 C106 1.254 1_556 S
O125 Pr104 2.490 . S
O125 C106 1.225 1_556 S
O126 Pr104 2.695 1_545 S
O126 Pr105 2.436 1_455 S
O126 C113 1.270 1_545 S
O127 Pr104 2.512 . S
O127 C113 1.248 . S
O128 Pr105 2.438 1_565 S
O128 C114 1.267 . S
O129 Pr104 2.437 . S
O129 C114 1.278 1_455 S
O130 Pr105 2.562 . S
O130 C115 1.254 . S
O131 Pr105 2.490 . S
O131 C115 1.225 . S
O132 Pr104 2.436 1_655 S
O132 Pr105 2.695 1_565 S
O132 C122 1.270 1_565 S
O133 Pr105 2.512 . S
O133 C122 1.248 . S
O134 Pr104 2.438 1_545 S
O134 C123 1.267 . S
O135 Pr105 2.437 . S
O135 C123 1.278 1_655 S
H136 C108 0.929 . S
H137 C109 0.929 . S
H138 C111 0.931 1_655 S
H139 C112 0.930 1_655 S
H140 C117 0.929 . S
H141 C118 0.929 . S
H142 C120 0.931 1_455 S
H143 C121 0.930 1_455 S
Pr144 C146 2.880 1_556 S
Pr144 O164 2.566 . S
Pr144 O165 2.490 . S
Pr144 O166 2.695 . S
Pr144 O167 2.512 . S
Pr144 O169 2.437 . S
Pr144 O172 2.436 1_545 S
Pr144 O174 2.438 . S
Pr145 C155 2.880 . S
Pr145 O166 2.436 1_565 S
Pr145 O168 2.438 . S
Pr145 O170 2.562 . S
Pr145 O171 2.490 . S
Pr145 O172 2.695 . S
Pr145 O173 2.512 . S
Pr145 O175 2.437 . S
C146 Pr144 2.880 1_554 S
C146 C147 1.491 . S
C146 O164 1.253 1_554 S
C146 O165 1.225 1_554 S
C147 C146 1.491 . S
C147 C148 1.392 . S
C147 C152 1.356 . S
C148 C147 1.392 . S
C148 C149 1.368 . S
C148 H176 0.929 . S
C149 C148 1.368 . S
C149 C150 1.386 . S
C149 H177 0.929 . S
C150 C149 1.386 . S
C150 C151 1.373 . S
C151 C150 1.373 . S
C151 C152 1.409 . S
C151 H178 0.931 1_545 S
C152 C147 1.356 . S
C152 C151 1.409 . S
C152 H179 0.930 1_545 S
C153 O166 1.270 . S
C153 O167 1.248 . S
C154 O168 1.267 . S
C154 O169 1.278 1_565 S
C155 Pr145 2.880 . S
C155 C156 1.491 . S
C155 O170 1.254 . S
C155 O171 1.225 . S
C156 C155 1.491 . S
C156 C157 1.392 . S
C156 C161 1.356 . S
C157 C156 1.392 . S
C157 C158 1.368 . S
C157 H180 0.929 . S
C158 C157 1.368 . S
C158 C159 1.386 . S
C158 H181 0.929 . S
C159 C158 1.386 . S
C159 C160 1.373 . S
C160 C159 1.373 . S
C160 C161 1.409 . S
C160 H182 0.931 1_565 S
C161 C156 1.356 . S
C161 C160 1.409 . S
C161 H183 0.930 1_565 S
C162 O172 1.270 . S
C162 O173 1.248 . S
C163 O174 1.267 . S
C163 O175 1.278 1_545 S
O164 Pr144 2.566 . S
O164 C146 1.253 1_556 S
O165 Pr144 2.490 . S
O165 C146 1.225 1_556 S
O166 Pr144 2.695 . S
O166 Pr145 2.436 1_545 S
O166 C153 1.270 . S
O167 Pr144 2.512 . S
O167 C153 1.248 . S
O168 Pr145 2.438 . S
O168 C154 1.267 . S
O169 Pr144 2.437 . S
O169 C154 1.278 1_545 S
O170 Pr145 2.562 . S
O170 C155 1.254 . S
O171 Pr145 2.490 . S
O171 C155 1.225 . S
O172 Pr144 2.436 1_565 S
O172 Pr145 2.695 . S
O172 C162 1.270 . S
O173 Pr145 2.512 . S
O173 C162 1.248 . S
O174 Pr144 2.438 . S
O174 C163 1.267 . S
O175 Pr145 2.437 . S
O175 C163 1.278 1_565 S
H176 C148 0.929 . S
H177 C149 0.929 . S
H178 C151 0.931 1_565 S
H179 C152 0.930 1_565 S
H180 C157 0.929 . S
H181 C158 0.929 . S
H182 C160 0.931 1_545 S
H183 C161 0.930 1_545 S
Pr184 C186 2.880 1_556 S
Pr184 O204 2.562 1_556 S
Pr184 O205 2.490 . S
Pr184 O206 2.695 . S
Pr184 O207 2.512 . S
Pr184 O209 2.437 . S
Pr184 O212 2.436 . S
Pr184 O214 2.438 . S
Pr185 C195 2.880 . S
Pr185 O206 2.436 . S
Pr185 O208 2.438 . S
Pr185 O210 2.562 . S
Pr185 O211 2.490 . S
Pr185 O212 2.695 . S
Pr185 O213 2.512 . S
Pr185 O215 2.437 . S
C186 Pr184 2.880 1_554 S
C186 C187 1.491 . S
C186 O204 1.254 . S
C186 O205 1.225 1_554 S
C187 C186 1.491 . S
C187 C188 1.392 . S
C187 C192 1.356 . S
C188 C187 1.392 . S
C188 C189 1.368 . S
C188 H216 0.929 . S
C189 C188 1.368 . S
C189 C190 1.386 . S
C189 H217 0.929 . S
C190 C189 1.386 . S
C190 C191 1.373 . S
C191 C190 1.373 . S
C191 C192 1.409 . S
C191 H218 0.931 . S
C192 C187 1.356 . S
C192 C191 1.409 . S
C192 H219 0.930 . S
C193 O206 1.270 . S
C193 O207 1.248 . S
C194 O208 1.267 . S
C194 O209 1.278 . S
C195 Pr185 2.880 . S
C195 C196 1.491 . S
C195 O210 1.254 . S
C195 O211 1.225 . S
C196 C195 1.491 . S
C196 C197 1.392 . S
C196 C201 1.356 . S
C197 C196 1.392 . S
C197 C198 1.368 . S
C197 H220 0.929 . S
C198 C197 1.368 . S
C198 C199 1.386 . S
C198 H221 0.929 . S
C199 C198 1.386 . S
C199 C200 1.373 . S
C200 C199 1.373 . S
C200 C201 1.409 . S
C200 H222 0.931 . S
C201 C196 1.356 . S
C201 C200 1.409 . S
C201 H223 0.930 . S
C202 O212 1.270 . S
C202 O213 1.248 . S
C203 O214 1.267 . S
C203 O215 1.278 . S
O204 Pr184 2.562 1_554 S
O204 C186 1.254 . S
O205 Pr184 2.490 . S
O205 C186 1.225 1_556 S
O206 Pr184 2.695 . S
O206 Pr185 2.436 . S
O206 C193 1.270 . S
O207 Pr184 2.512 . S
O207 C193 1.248 . S
O208 Pr185 2.438 . S
O208 C194 1.267 . S
O209 Pr184 2.437 . S
O209 C194 1.278 . S
O210 Pr185 2.562 . S
O210 C195 1.254 . S
O211 Pr185 2.490 . S
O211 C195 1.225 . S
O212 Pr184 2.436 . S
O212 Pr185 2.695 . S
O212 C202 1.270 . S
O213 Pr185 2.512 . S
O213 C202 1.248 . S
O214 Pr184 2.438 . S
O214 C203 1.267 . S
O215 Pr185 2.437 . S
O215 C203 1.278 . S
H216 C188 0.929 . S
H217 C189 0.929 . S
H218 C191 0.931 . S
H219 C192 0.930 . S
H220 C197 0.929 . S
H221 C198 0.929 . S
H222 C200 0.931 . S
H223 C201 0.930 . S
Pr224 C226 2.880 1_556 S
Pr224 O244 2.565 . S
Pr224 O245 2.490 . S
Pr224 O246 2.695 1_655 S
Pr224 O247 2.512 . S
Pr224 O249 2.437 . S
Pr224 O252 2.436 . S
Pr224 O254 2.438 1_655 S
Pr225 C235 2.880 . S
Pr225 O246 2.436 . S
Pr225 O248 2.438 1_455 S
Pr225 O250 2.562 . S
Pr225 O251 2.490 . S
Pr225 O252 2.695 1_455 S
Pr225 O253 2.512 . S
Pr225 O255 2.437 . S
C226 Pr224 2.880 1_554 S
C226 C227 1.491 . S
C226 O244 1.253 1_554 S
C226 O245 1.225 1_554 S
C227 C226 1.491 . S
C227 C228 1.392 . S
C227 C232 1.356 . S
C228 C227 1.392 . S
C228 C229 1.368 . S
C228 H256 0.929 . S
C229 C228 1.368 . S
C229 C230 1.386 . S
C229 H257 0.929 . S
C230 C229 1.386 . S
C230 C231 1.373 . S
C231 C230 1.373 . S
C231 C232 1.409 . S
C231 H258 0.931 . S
C232 C227 1.356 . S
C232 C231 1.409 . S
C232 H259 0.930 . S
C233 O246 1.260 1_655 S
C233 O247 1.265 . S
C234 O248 1.267 . S
C234 O249 1.278 . S
C235 Pr225 2.880 . S
C235 C236 1.491 . S
C235 O250 1.254 . S
C235 O251 1.225 . S
C236 C235 1.491 . S
C236 C237 1.392 . S
C236 C241 1.356 . S
C237 C236 1.392 . S
C237 C238 1.368 . S
C237 H260 0.929 . S
C238 C237 1.368 . S
C238 C239 1.386 . S
C238 H261 0.929 . S
C239 C238 1.386 . S
C239 C240 1.373 . S
C240 C239 1.373 . S
C240 C241 1.409 . S
C240 H262 0.931 . S
C241 C236 1.356 . S
C241 C240 1.409 . S
C241 H263 0.930 . S
C242 O252 1.258 1_455 S
C242 O253 1.270 . S
C243 O254 1.267 . S
C243 O255 1.278 . S
O244 Pr224 2.565 . S
O244 C226 1.253 1_556 S
O245 Pr224 2.490 . S
O245 C226 1.225 1_556 S
O246 Pr224 2.695 1_455 S
O246 Pr225 2.436 . S
O246 C233 1.260 1_455 S
O247 Pr224 2.512 . S
O247 C233 1.265 . S
O248 Pr225 2.438 1_655 S
O248 C234 1.267 . S
O249 Pr224 2.437 . S
O249 C234 1.278 . S
O250 Pr225 2.562 . S
O250 C235 1.254 . S
O251 Pr225 2.490 . S
O251 C235 1.225 . S
O252 Pr224 2.436 . S
O252 Pr225 2.695 1_655 S
O252 C242 1.258 1_655 S
O253 Pr225 2.512 . S
O253 C242 1.270 . S
O254 Pr224 2.438 1_455 S
O254 C243 1.267 . S
O255 Pr225 2.437 . S
O255 C243 1.278 . S
H256 C228 0.929 . S
H257 C229 0.929 . S
H258 C231 0.931 . S
H259 C232 0.930 . S
H260 C237 0.929 . S
H261 C238 0.929 . S
H262 C240 0.931 . S
H263 C241 0.930 . S
H264 C270 0.930 . S
H265 C274 0.930 . S
H266 C279 0.929 . S
H267 C277 0.929 . S
H268 C272 0.929 . S
H269 C278 0.929 . S
C270 H264 0.930 . S
C270 C271 1.374 . S
C270 C278 1.378 . S
C271 C270 1.374 . S
C271 C279 1.427 1_545 S
C272 H268 0.929 . S
C272 C274 1.378 . S
C272 C276 1.347 1_565 S
C273 C276 1.462 . S
C273 C278 1.364 . S
C273 N281 1.414 1_545 S
C274 H265 0.930 . S
C274 C272 1.378 . S
C274 C275 1.357 1_565 S
C275 C274 1.357 1_545 S
C275 C277 1.443 . S
C276 C272 1.347 1_545 S
C276 C273 1.462 . S
C276 N280 1.430 . S
C277 H267 0.929 . S
C277 C275 1.443 . S
C277 N280 1.384 . S
C278 H269 0.929 . S
C278 C270 1.378 . S
C278 C273 1.364 . S
C279 H266 0.929 . S
C279 C271 1.427 1_565 S
C279 N281 1.384 . S
N280 C276 1.430 . S
N280 C277 1.384 . S
N281 C273 1.414 1_565 S
N281 C279 1.384 . S
H282 C288 0.930 . S
H283 C292 0.930 . S
H284 C297 0.929 . S
H285 C295 0.929 . S
H286 C290 0.929 . S
H287 C296 0.929 . S
C288 H282 0.930 . S
C288 C289 1.367 . S
C288 C296 1.378 . S
C289 C288 1.367 . S
C289 C297 1.433 . S
C290 H286 0.929 . S
C290 C292 1.378 . S
C290 C294 1.350 . S
C291 C294 1.463 . S
C291 C296 1.350 . S
C291 N299 1.427 . S
C292 H283 0.930 . S
C292 C290 1.378 . S
C292 C293 1.367 . S
C293 C292 1.367 . S
C293 C295 1.433 . S
C294 C290 1.350 . S
C294 C291 1.463 . S
C294 N298 1.427 . S
C295 H285 0.929 . S
C295 C293 1.433 . S
C295 N298 1.384 . S
C296 H287 0.929 . S
C296 C288 1.378 . S
C296 C291 1.350 . S
C297 H284 0.929 . S
C297 C289 1.433 . S
C297 N299 1.384 . S
N298 C294 1.427 . S
N298 C295 1.384 . S
N299 C291 1.427 . S
N299 C297 1.384 . S
H300 C306 0.930 . S
H301 C310 0.930 . S
H302 C315 0.929 . S
H303 C313 0.929 . S
H304 C308 0.929 . S
H305 C314 0.929 . S
C306 H300 0.930 . S
C306 C307 1.367 . S
C306 C314 1.378 . S
C307 C306 1.367 . S
C307 C315 1.433 . S
C308 H304 0.929 . S
C308 C310 1.378 . S
C308 C312 1.350 . S
C309 C312 1.463 . S
C309 C314 1.350 . S
C309 N317 1.427 . S
C310 H301 0.930 . S
C310 C308 1.378 . S
C310 C311 1.367 . S
C311 C310 1.367 . S
C311 C313 1.433 . S
C312 C308 1.350 . S
C312 C309 1.463 . S
C312 N316 1.427 . S
C313 H303 0.929 . S
C313 C311 1.433 . S
C313 N316 1.384 . S
C314 H305 0.929 . S
C314 C306 1.378 . S
C314 C309 1.350 . S
C315 H302 0.929 . S
C315 C307 1.433 . S
C315 N317 1.384 . S
N316 C312 1.427 . S
N316 C313 1.384 . S
N317 C309 1.427 . S
N317 C315 1.384 . S
H318 C324 0.930 . S
H319 C328 0.930 . S
H320 C333 0.929 . S
H321 C331 0.929 . S
H322 C326 0.929 . S
H323 C332 0.929 . S
C324 H318 0.930 . S
C324 C325 1.385 . S
C324 C332 1.378 . S
C325 C324 1.385 . S
C325 C333 1.416 1_455 S
C326 H322 0.929 . S
C326 C328 1.378 . S
C326 C330 1.337 1_655 S
C327 C330 1.463 . S
C327 C332 1.350 . S
C327 N335 1.427 1_455 S
C328 H319 0.930 . S
C328 C326 1.378 . S
C328 C329 1.367 1_655 S
C329 C328 1.367 1_455 S
C329 C331 1.433 . S
C330 C326 1.337 1_455 S
C330 C327 1.463 . S
C330 N334 1.441 . S
C331 H321 0.929 . S
C331 C329 1.433 . S
C331 N334 1.384 . S
C332 H323 0.929 . S
C332 C324 1.378 . S
C332 C327 1.350 . S
C333 H320 0.929 . S
C333 C325 1.416 1_655 S
C333 N335 1.384 . S
N334 C330 1.441 . S
N334 C331 1.384 . S
N335 C327 1.427 1_655 S
N335 C333 1.384 . S
H336 C342 0.930 . S
H337 C346 0.930 1_556 S
H338 C351 0.929 . S
H339 C349 0.929 1_556 S
H340 C344 0.929 . S
H341 C350 0.929 . S
C342 H336 0.930 . S
C342 C343 1.386 . S
C342 C350 1.378 . S
C343 C342 1.386 . S
C343 C351 1.413 1_545 S
C344 H340 0.929 . S
C344 C346 1.378 . S
C344 C348 1.350 . S
C345 C348 1.461 1_545 S
C345 C350 1.370 . S
C345 N353 1.407 1_545 S
C346 H337 0.930 1_554 S
C346 C344 1.378 . S
C346 C347 1.367 1_554 S
C347 C346 1.367 1_556 S
C347 C349 1.433 1_566 S
C348 C344 1.350 . S
C348 C345 1.461 1_565 S
C348 N352 1.427 1_565 S
C349 H339 0.929 1_554 S
C349 C347 1.433 1_544 S
C349 N352 1.384 . S
C350 H341 0.929 . S
C350 C342 1.378 . S
C350 C345 1.370 . S
C351 H338 0.929 . S
C351 C343 1.413 1_565 S
C351 N353 1.384 . S
N352 C348 1.427 1_545 S
N352 C349 1.384 . S
N353 C345 1.407 1_565 S
N353 C351 1.384 . S
H354 C360 0.930 . S
H355 C364 0.930 . S
H356 C369 0.929 . S
H357 C367 0.929 . S
H358 C362 0.929 . S
H359 C368 0.929 . S
C360 H354 0.930 . S
C360 C361 1.367 . S
C360 C368 1.378 . S
C361 C360 1.367 . S
C361 C369 1.433 . S
C362 H358 0.929 . S
C362 C364 1.378 1_554 S
C362 C366 1.350 . S
C363 C366 1.463 . S
C363 C368 1.350 . S
C363 N371 1.427 . S
C364 H355 0.930 . S
C364 C362 1.378 1_556 S
C364 C365 1.367 . S
C365 C364 1.367 . S
C365 C367 1.433 1_556 S
C366 C362 1.350 . S
C366 C363 1.463 . S
C366 N370 1.427 . S
C367 H357 0.929 . S
C367 C365 1.433 1_554 S
C367 N370 1.384 . S
C368 H359 0.929 . S
C368 C360 1.378 . S
C368 C363 1.350 . S
C369 H356 0.929 . S
C369 C361 1.433 . S
C369 N371 1.384 . S
N370 C366 1.427 . S
N370 C367 1.384 . S
N371 C363 1.427 . S
N371 C369 1.384 . S
H372 C378 0.930 . S
H373 C382 0.930 . S
H374 C387 0.929 . S
H375 C385 0.929 . S
H376 C380 0.929 . S
H377 C386 0.929 . S
C378 H372 0.930 . S
C378 C379 1.367 . S
C378 C386 1.378 . S
C379 C378 1.367 . S
C379 C387 1.433 . S
C380 H376 0.929 . S
C380 C382 1.378 1_554 S
C380 C384 1.350 . S
C381 C384 1.463 . S
C381 C386 1.350 . S
C381 N389 1.427 . S
C382 H373 0.930 . S
C382 C380 1.378 1_556 S
C382 C383 1.367 . S
C383 C382 1.367 . S
C383 C385 1.433 1_556 S
C384 C380 1.350 . S
C384 C381 1.463 . S
C384 N388 1.427 . S
C385 H375 0.929 . S
C385 C383 1.433 1_554 S
C385 N388 1.384 . S
C386 H377 0.929 . S
C386 C378 1.378 . S
C386 C381 1.350 . S
C387 H374 0.929 . S
C387 C379 1.433 . S
C387 N389 1.384 . S
N388 C384 1.427 . S
N388 C385 1.384 . S
N389 C381 1.427 . S
N389 C387 1.384 . S
H390 C396 0.930 . S
H391 C400 0.930 . S
H392 C405 0.929 . S
H393 C403 0.929 . S
H394 C398 0.929 . S
H395 C404 0.929 . S
C396 H390 0.930 . S
C396 C397 1.369 . S
C396 C404 1.378 . S
C397 C396 1.369 . S
C397 C405 1.431 1_655 S
C398 H394 0.929 . S
C398 C400 1.378 1_554 S
C398 C402 1.345 1_455 S
C399 C402 1.463 . S
C399 C404 1.356 . S
C399 N407 1.422 1_655 S
C400 H391 0.930 . S
C400 C398 1.378 1_556 S
C400 C401 1.367 1_455 S
C401 C400 1.367 1_655 S
C401 C403 1.433 1_556 S
C402 C398 1.345 1_655 S
C402 C399 1.463 . S
C402 N406 1.434 . S
C403 H393 0.929 . S
C403 C401 1.433 1_554 S
C403 N406 1.384 . S
C404 H395 0.929 . S
C404 C396 1.378 . S
C404 C399 1.356 . S
C405 H392 0.929 . S
C405 C397 1.431 1_455 S
C405 N407 1.384 . S
N406 C402 1.434 . S
N406 C403 1.384 . S
N407 C399 1.422 1_455 S
N407 C405 1.384 . S
H408 C414 0.930 1_556 S
H409 C418 0.930 . S
H410 C423 0.929 . S
H411 C421 0.929 . S
H412 C416 0.929 . S
H413 C422 0.929 . S
C414 H408 0.930 1_554 S
C414 C415 1.367 1_655 S
C414 C422 1.378 . S
C415 C414 1.367 1_455 S
C415 C423 1.433 . S
C416 H412 0.929 . S
C416 C418 1.378 . S
C416 C420 1.350 . S
C417 C420 1.463 . S
C417 C422 1.350 . S
C417 N425 1.427 . S
C418 H409 0.930 . S
C418 C416 1.378 . S
C418 C419 1.367 . S
C419 C418 1.367 . S
C419 C421 1.433 . S
C420 C416 1.350 . S
C420 C417 1.463 . S
C420 N424 1.427 . S
C421 H411 0.929 . S
C421 C419 1.433 . S
C421 N424 1.384 . S
C422 H413 0.929 . S
C422 C414 1.378 . S
C422 C417 1.350 . S
C423 H410 0.929 . S
C423 C415 1.433 . S
C423 N425 1.384 1_455 S
N424 C420 1.427 . S
N424 C421 1.384 . S
N425 C417 1.427 . S
N425 C423 1.384 1_655 S
H426 C432 0.930 . S
H427 C436 0.930 . S
H428 C441 0.929 . S
H429 C439 0.929 . S
H430 C434 0.929 1_545 S
H431 C440 0.929 . S
C432 H426 0.930 . S
C432 C433 1.367 1_565 S
C432 C440 1.378 . S
C433 C432 1.367 1_545 S
C433 C441 1.433 . S
C434 H430 0.929 1_565 S
C434 C436 1.378 . S
C434 C438 1.350 . S
C435 C438 1.463 . S
C435 C440 1.350 . S
C435 N443 1.427 1_565 S
C436 H427 0.930 . S
C436 C434 1.378 . S
C436 C437 1.367 . S
C437 C436 1.367 . S
C437 C439 1.433 . S
C438 C434 1.350 . S
C438 C435 1.463 . S
C438 N442 1.427 . S
C439 H429 0.929 . S
C439 C437 1.433 . S
C439 N442 1.384 . S
C440 H431 0.929 . S
C440 C432 1.378 . S
C440 C435 1.350 . S
C441 H428 0.929 . S
C441 C433 1.433 . S
C441 N443 1.384 . S
N442 C438 1.427 . S
N442 C439 1.384 . S
N443 C435 1.427 1_545 S
N443 C441 1.384 . S
H444 C450 0.930 . S
H445 C454 0.930 . S
H446 C459 0.929 . S
H447 C457 0.929 . S
H448 C452 0.929 . S
H449 C458 0.929 . S
C450 H444 0.930 . S
C450 C451 1.367 . S
C450 C458 1.378 . S
C451 C450 1.367 . S
C451 C459 1.433 . S
C452 H448 0.929 . S
C452 C454 1.378 . S
C452 C456 1.350 . S
C453 C456 1.463 . S
C453 C458 1.350 . S
C453 N461 1.427 . S
C454 H445 0.930 . S
C454 C452 1.378 . S
C454 C455 1.367 . S
C455 C454 1.367 . S
C455 C457 1.433 . S
C456 C452 1.350 . S
C456 C453 1.463 . S
C456 N460 1.427 . S
C457 H447 0.929 . S
C457 C455 1.433 . S
C457 N460 1.384 . S
C458 H449 0.929 . S
C458 C450 1.378 . S
C458 C453 1.350 . S
C459 H446 0.929 . S
C459 C451 1.433 . S
C459 N461 1.384 . S
N460 C456 1.427 . S
N460 C457 1.384 . S
N461 C453 1.427 . S
N461 C459 1.384 . S
H462 C468 0.930 . S
H463 C472 0.930 . S
H464 C477 0.929 . S
H465 C475 0.929 . S
H466 C470 0.929 . S
H467 C476 0.929 . S
C468 H462 0.930 . S
C468 C469 1.367 . S
C468 C476 1.378 . S
C469 C468 1.367 . S
C469 C477 1.433 . S
C470 H466 0.929 . S
C470 C472 1.378 . S
C470 C474 1.350 . S
C471 C474 1.463 . S
C471 C476 1.350 . S
C471 N479 1.427 . S
C472 H463 0.930 . S
C472 C470 1.378 . S
C472 C473 1.367 . S
C473 C472 1.367 . S
C473 C475 1.433 . S
C474 C470 1.350 . S
C474 C471 1.463 . S
C474 N478 1.427 . S
C475 H465 0.929 . S
C475 C473 1.433 . S
C475 N478 1.384 . S
C476 H467 0.929 . S
C476 C468 1.378 . S
C476 C471 1.350 . S
C477 H464 0.929 . S
C477 C469 1.433 . S
C477 N479 1.384 . S
N478 C474 1.427 . S
N478 C475 1.384 . S
N479 C471 1.427 . S
N479 C477 1.384 . S
H480 C486 0.930 . S
H481 C490 0.930 . S
H482 C495 0.929 . S
H483 C493 0.929 . S
H484 C488 0.929 1_655 S
H485 C494 0.929 . S
C486 H480 0.930 . S
C486 C487 1.367 1_455 S
C486 C494 1.378 . S
C487 C486 1.367 1_655 S
C487 C495 1.433 . S
C488 H484 0.929 1_455 S
C488 C490 1.378 . S
C488 C492 1.350 . S
C489 C492 1.463 . S
C489 C494 1.350 . S
C489 N497 1.427 1_455 S
C490 H481 0.930 . S
C490 C488 1.378 . S
C490 C491 1.367 . S
C491 C490 1.367 . S
C491 C493 1.433 . S
C492 C488 1.350 . S
C492 C489 1.463 . S
C492 N496 1.427 . S
C493 H483 0.929 . S
C493 C491 1.433 . S
C493 N496 1.384 . S
C494 H485 0.929 . S
C494 C486 1.378 . S
C494 C489 1.350 . S
C495 H482 0.929 . S
C495 C487 1.433 . S
C495 N497 1.384 . S
N496 C492 1.427 . S
N496 C493 1.384 . S
N497 C489 1.427 1_655 S
N497 C495 1.384 . S
H498 C504 0.930 . S
H499 C508 0.930 . S
H500 C513 0.929 . S
H501 C511 0.929 . S
H502 C506 0.929 . S
H503 C512 0.929 . S
C504 H498 0.930 . S
C504 C505 1.367 . S
C504 C512 1.378 . S
C505 C504 1.367 . S
C505 C513 1.433 1_565 S
C506 H502 0.929 . S
C506 C508 1.378 . S
C506 C510 1.350 . S
C507 C510 1.463 . S
C507 C512 1.350 1_545 S
C507 N515 1.427 . S
C508 H499 0.930 . S
C508 C506 1.378 . S
C508 C509 1.367 . S
C509 C508 1.367 . S
C509 C511 1.433 . S
C510 C506 1.350 . S
C510 C507 1.463 . S
C510 N514 1.427 . S
C511 H501 0.929 . S
C511 C509 1.433 . S
C511 N514 1.384 . S
C512 H503 0.929 . S
C512 C504 1.378 . S
C512 C507 1.350 1_565 S
C513 H500 0.929 . S
C513 C505 1.433 1_545 S
C513 N515 1.384 . S
N514 C510 1.427 . S
N514 C511 1.384 . S
N515 C507 1.427 . S
N515 C513 1.384 . S
H516 C522 0.930 . S
H517 C526 0.930 . S
H518 C531 0.929 . S
H519 C529 0.929 . S
H520 C524 0.929 . S
H521 C530 0.929 . S
C522 H516 0.930 . S
C522 C523 1.367 . S
C522 C530 1.378 . S
C523 C522 1.367 . S
C523 C531 1.433 . S
C524 H520 0.929 . S
C524 C526 1.378 . S
C524 C528 1.350 . S
C525 C528 1.463 . S
C525 C530 1.350 . S
C525 N533 1.427 . S
C526 H517 0.930 . S
C526 C524 1.378 . S
C526 C527 1.367 . S
C527 C526 1.367 . S
C527 C529 1.433 . S
C528 C524 1.350 . S
C528 C525 1.463 . S
C528 N532 1.427 . S
C529 H519 0.929 . S
C529 C527 1.433 . S
C529 N532 1.384 . S
C530 H521 0.929 . S
C530 C522 1.378 . S
C530 C525 1.350 . S
C531 H518 0.929 . S
C531 C523 1.433 . S
C531 N533 1.384 . S
N532 C528 1.427 . S
N532 C529 1.384 . S
N533 C525 1.427 . S
N533 C531 1.384 . S
H534 C540 0.930 . S
H535 C544 0.930 . S
H536 C549 0.929 . S
H537 C547 0.929 . S
H538 C542 0.929 . S
H539 C548 0.929 . S
C540 H534 0.930 . S
C540 C541 1.367 . S
C540 C548 1.378 . S
C541 C540 1.367 . S
C541 C549 1.433 . S
C542 H538 0.929 . S
C542 C544 1.378 . S
C542 C546 1.350 . S
C543 C546 1.463 . S
C543 C548 1.350 . S
C543 N551 1.427 . S
C544 H535 0.930 . S
C544 C542 1.378 . S
C544 C545 1.367 . S
C545 C544 1.367 . S
C545 C547 1.433 . S
C546 C542 1.350 . S
C546 C543 1.463 . S
C546 N550 1.427 . S
C547 H537 0.929 . S
C547 C545 1.433 . S
C547 N550 1.384 . S
C548 H539 0.929 . S
C548 C540 1.378 . S
C548 C543 1.350 . S
C549 H536 0.929 . S
C549 C541 1.433 . S
C549 N551 1.384 . S
N550 C546 1.427 . S
N550 C547 1.384 . S
N551 C543 1.427 . S
N551 C549 1.384 . S
H552 C558 0.930 . S
H553 C562 0.930 . S
H554 C567 0.929 . S
H555 C565 0.929 . S
H556 C560 0.929 . S
H557 C566 0.929 . S
C558 H552 0.930 . S
C558 C559 1.367 . S
C558 C566 1.378 . S
C559 C558 1.367 . S
C559 C567 1.433 1_455 S
C560 H556 0.929 . S
C560 C562 1.378 . S
C560 C564 1.350 1_655 S
C561 C564 1.463 . S
C561 C566 1.350 . S
C561 N569 1.427 1_455 S
C562 H553 0.930 . S
C562 C560 1.378 . S
C562 C563 1.367 1_655 S
C563 C562 1.367 1_455 S
C563 C565 1.433 . S
C564 C560 1.350 1_455 S
C564 C561 1.463 . S
C564 N568 1.427 . S
C565 H555 0.929 . S
C565 C563 1.433 . S
C565 N568 1.384 . S
C566 H557 0.929 . S
C566 C558 1.378 . S
C566 C561 1.350 . S
C567 H554 0.929 . S
C567 C559 1.433 1_655 S
C567 N569 1.384 . S
N568 C564 1.427 . S
N568 C565 1.384 . S
N569 C561 1.427 1_655 S
N569 C567 1.384 . S
H570 C576 0.930 . S
H571 C580 0.930 . S
H572 C585 0.929 1_554 S
H573 C583 0.929 . S
H574 C578 0.929 . S
H575 C584 0.929 . S
C576 H570 0.930 . S
C576 C577 1.367 1_565 S
C576 C584 1.378 . S
C577 C576 1.367 1_545 S
C577 C585 1.433 . S
C578 H574 0.929 . S
C578 C580 1.378 . S
C578 C582 1.350 . S
C579 C582 1.463 . S
C579 C584 1.350 1_545 S
C579 N587 1.427 . S
C580 H571 0.930 . S
C580 C578 1.378 . S
C580 C581 1.367 . S
C581 C580 1.367 . S
C581 C583 1.433 1_545 S
C582 C578 1.350 . S
C582 C579 1.463 . S
C582 N586 1.427 1_545 S
C583 H573 0.929 . S
C583 C581 1.433 1_565 S
C583 N586 1.384 . S
C584 H575 0.929 . S
C584 C576 1.378 . S
C584 C579 1.350 1_565 S
C585 H572 0.929 1_556 S
C585 C577 1.433 . S
C585 N587 1.384 . S
N586 C582 1.427 1_565 S
N586 C583 1.384 . S
N587 C579 1.427 . S
N587 C585 1.384 . S
H588 C594 0.930 . S
H589 C598 0.930 . S
H590 C603 0.929 1_554 S
H591 C601 0.929 . S
H592 C596 0.929 1_554 S
H593 C602 0.929 . S
C594 H588 0.930 . S
C594 C595 1.367 . S
C594 C602 1.378 . S
C595 C594 1.367 . S
C595 C603 1.433 . S
C596 H592 0.929 1_556 S
C596 C598 1.378 . S
C596 C600 1.350 . S
C597 C600 1.463 . S
C597 C602 1.350 . S
C597 N605 1.427 . S
C598 H589 0.930 . S
C598 C596 1.378 . S
C598 C599 1.367 . S
C599 C598 1.367 . S
C599 C601 1.433 . S
C600 C596 1.350 . S
C600 C597 1.463 . S
C600 N604 1.427 . S
C601 H591 0.929 . S
C601 C599 1.433 . S
C601 N604 1.384 . S
C602 H593 0.929 . S
C602 C594 1.378 . S
C602 C597 1.350 . S
C603 H590 0.929 1_556 S
C603 C595 1.433 . S
C603 N605 1.384 . S
N604 C600 1.427 . S
N604 C601 1.384 . S
N605 C597 1.427 . S
N605 C603 1.384 . S
H606 C612 0.930 . S
H607 C616 0.930 . S
H608 C621 0.929 1_554 S
H609 C619 0.929 . S
H610 C614 0.929 . S
H611 C620 0.929 . S
C612 H606 0.930 . S
C612 C613 1.367 . S
C612 C620 1.378 . S
C613 C612 1.367 . S
C613 C621 1.433 . S
C614 H610 0.929 . S
C614 C616 1.378 . S
C614 C618 1.350 . S
C615 C618 1.463 . S
C615 C620 1.350 . S
C615 N623 1.427 . S
C616 H607 0.930 . S
C616 C614 1.378 . S
C616 C617 1.367 . S
C617 C616 1.367 . S
C617 C619 1.433 . S
C618 C614 1.350 . S
C618 C615 1.463 . S
C618 N622 1.427 . S
C619 H609 0.929 . S
C619 C617 1.433 . S
C619 N622 1.384 . S
C620 H611 0.929 . S
C620 C612 1.378 . S
C620 C615 1.350 . S
C621 H608 0.929 1_556 S
C621 C613 1.433 . S
C621 N623 1.384 . S
N622 C618 1.427 . S
N622 C619 1.384 . S
N623 C615 1.427 . S
N623 C621 1.384 . S
H624 C630 0.930 . S
H625 C634 0.930 . S
H626 C639 0.929 . S
H627 C637 0.929 . S
H628 C632 0.929 . S
H629 C638 0.929 . S
C630 H624 0.930 . S
C630 C631 1.367 1_455 S
C630 C638 1.378 . S
C631 C630 1.367 1_655 S
C631 C639 1.433 . S
C632 H628 0.929 . S
C632 C634 1.378 . S
C632 C636 1.350 . S
C633 C636 1.463 . S
C633 C638 1.350 1_655 S
C633 N641 1.427 . S
C634 H625 0.930 . S
C634 C632 1.378 . S
C634 C635 1.367 . S
C635 C634 1.367 . S
C635 C637 1.433 1_655 S
C636 C632 1.350 . S
C636 C633 1.463 . S
C636 N640 1.427 1_655 S
C637 H627 0.929 . S
C637 C635 1.433 1_455 S
C637 N640 1.384 . S
C638 H629 0.929 . S
C638 C630 1.378 . S
C638 C633 1.350 1_455 S
C639 H626 0.929 . S
C639 C631 1.433 . S
C639 N641 1.384 . S
N640 C636 1.427 1_455 S
N640 C637 1.384 . S
N641 C633 1.427 . S
N641 C639 1.384 . S
H642 C648 0.930 . S
H643 C652 0.930 . S
H644 C657 0.929 . S
H645 C655 0.929 . S
H646 C650 0.929 1_545 S
H647 C656 0.929 . S
C648 H642 0.930 . S
C648 C649 1.367 . S
C648 C656 1.378 . S
C649 C648 1.367 . S
C649 C657 1.433 1_565 S
C650 H646 0.929 1_565 S
C650 C652 1.378 . S
C650 C654 1.350 . S
C651 C654 1.463 . S
C651 C656 1.350 . S
C651 N659 1.427 1_565 S
C652 H643 0.930 . S
C652 C650 1.378 . S
C652 C653 1.367 . S
C653 C652 1.367 . S
C653 C655 1.433 . S
C654 C650 1.350 . S
C654 C651 1.463 . S
C654 N658 1.427 . S
C655 H645 0.929 . S
C655 C653 1.433 . S
C655 N658 1.384 . S
C656 H647 0.929 . S
C656 C648 1.378 . S
C656 C651 1.350 . S
C657 H644 0.929 . S
C657 C649 1.433 1_545 S
C657 N659 1.384 . S
N658 C654 1.427 . S
N658 C655 1.384 . S
N659 C651 1.427 1_545 S
N659 C657 1.384 . S
H660 C666 0.930 . S
H661 C670 0.930 . S
H662 C675 0.929 . S
H663 C673 0.929 . S
H664 C668 0.929 . S
H665 C674 0.929 . S
C666 H660 0.930 . S
C666 C667 1.367 . S
C666 C674 1.378 . S
C667 C666 1.367 . S
C667 C675 1.433 . S
C668 H664 0.929 . S
C668 C670 1.378 . S
C668 C672 1.350 . S
C669 C672 1.463 . S
C669 C674 1.350 . S
C669 N677 1.427 . S
C670 H661 0.930 . S
C670 C668 1.378 . S
C670 C671 1.367 . S
C671 C670 1.367 . S
C671 C673 1.433 . S
C672 C668 1.350 . S
C672 C669 1.463 . S
C672 N676 1.427 . S
C673 H663 0.929 . S
C673 C671 1.433 . S
C673 N676 1.384 . S
C674 H665 0.929 . S
C674 C666 1.378 . S
C674 C669 1.350 . S
C675 H662 0.929 . S
C675 C667 1.433 . S
C675 N677 1.384 . S
N676 C672 1.427 . S
N676 C673 1.384 . S
N677 C669 1.427 . S
N677 C675 1.384 . S
H678 C684 0.930 . S
H679 C688 0.930 . S
H680 C693 0.929 . S
H681 C691 0.929 . S
H682 C686 0.929 . S
H683 C692 0.929 . S
C684 H678 0.930 . S
C684 C685 1.367 . S
C684 C692 1.378 . S
C685 C684 1.367 . S
C685 C693 1.433 . S
C686 H682 0.929 . S
C686 C688 1.378 . S
C686 C690 1.350 . S
C687 C690 1.463 . S
C687 C692 1.350 . S
C687 N695 1.427 . S
C688 H679 0.930 . S
C688 C686 1.378 . S
C688 C689 1.367 . S
C689 C688 1.367 . S
C689 C691 1.433 . S
C690 C686 1.350 . S
C690 C687 1.463 . S
C690 N694 1.427 . S
C691 H681 0.929 . S
C691 C689 1.433 . S
C691 N694 1.384 . S
C692 H683 0.929 . S
C692 C684 1.378 . S
C692 C687 1.350 . S
C693 H680 0.929 . S
C693 C685 1.433 . S
C693 N695 1.384 . S
N694 C690 1.427 . S
N694 C691 1.384 . S
N695 C687 1.427 . S
N695 C693 1.384 . S
C271 N80 1.883 1_545 S
C275 C113 1.949 1_545 S
C293 C153 1.966 . S
C289 N93 1.895 . S
C311 C193 1.978 . S
C307 N54 1.906 . S
C329 C233 1.963 1_455 S
C325 N67 1.883 1_455 S
C347 C122 1.958 1_565 S
C343 N28 1.883 1_545 S
C361 N41 1.892 . S
C365 C162 1.968 . S
C379 N2 1.902 . S
C383 C202 1.973 . S
C397 N15 1.895 . S
C401 C242 1.962 1_655 S
C419 C119 0.472 . S
C415 N70 0.439 1_455 S
C437 C159 0.470 . S
C433 N83 0.446 1_545 S
C455 C199 0.504 . S
C451 N96 0.472 . S
C469 N57 0.464 . S
C473 C239 0.500 . S
C487 N18 0.430 . S
C491 C110 0.465 . S
C509 C150 0.508 . S
C505 N31 0.467 . S
C527 C190 0.500 . S
C523 N44 0.457 . S
C541 N5 0.433 . S
C545 C230 0.475 . S
C559 N66 2.189 1_455 S
C563 C123 2.262 . S
C577 N79 2.159 1_545 S
C581 C163 2.239 . S
C599 C203 2.219 . S
C595 N92 2.148 . S
C617 C243 2.252 . S
C613 N53 2.174 . S
C631 N14 2.179 . S
C635 C114 2.280 . S
C653 C154 2.236 . S
C649 N27 2.154 . S
C671 C194 2.221 . S
C667 N40 2.138 . S
C685 N1 2.160 . S
C689 C234 2.262 . S
