# Generated by pormake.
# Topology wbl, (4,4)-cn, num edge types: 1
# Building blocks:
#     Node 0, Type 0, BuildingBlock: MIFKUJ_clean_linker_1, # of connection points: 4
#     Node 1, Type 0, BuildingBlock: MIFKUJ_clean_linker_1, # of connection points: 4
#     Node 2, Type 0, BuildingBlock: MIFKUJ_clean_linker_1, # of connection points: 4
#     Node 3, Type 0, BuildingBlock: MIFKUJ_clean_linker_1, # of connection points: 4
#     Node 4, Type 0, BuildingBlock: MIFKUJ_clean_linker_1, # of connection points: 4
#     Node 5, Type 0, BuildingBlock: MIFKUJ_clean_linker_1, # of connection points: 4
#     Node 6, Type 0, BuildingBlock: MIFKUJ_clean_linker_1, # of connection points: 4
#     Node 7, Type 0, BuildingBlock: MIFKUJ_clean_linker_1, # of connection points: 4
#     Node 8, Type 1, BuildingBlock: TATPOV_clean_sbu_0, # of connection points: 4
#     Node 9, Type 1, BuildingBlock: TATPOV_clean_sbu_0, # of connection points: 4
#     Node 10, Type 1, BuildingBlock: TATPOV_clean_sbu_0, # of connection points: 4
#     Node 11, Type 1, BuildingBlock: TATPOV_clean_sbu_0, # of connection points: 4
#     Node 12, Type 1, BuildingBlock: TATPOV_clean_sbu_0, # of connection points: 4
#     Node 13, Type 1, BuildingBlock: TATPOV_clean_sbu_0, # of connection points: 4
#     Node 14, Type 1, BuildingBlock: TATPOV_clean_sbu_0, # of connection points: 4
#     Node 15, Type 1, BuildingBlock: TATPOV_clean_sbu_0, # of connection points: 4
#     Edge 16, Type (0, 1), BuildingBlock: OJICUG_clean_linker_0, # of connection points: 2
#     Edge 17, Type (0, 1), BuildingBlock: OJICUG_clean_linker_0, # of connection points: 2
#     Edge 18, Type (0, 1), BuildingBlock: OJICUG_clean_linker_0, # of connection points: 2
#     Edge 19, Type (0, 1), BuildingBlock: OJICUG_clean_linker_0, # of connection points: 2
#     Edge 20, Type (0, 1), BuildingBlock: OJICUG_clean_linker_0, # of connection points: 2
#     Edge 21, Type (0, 1), BuildingBlock: OJICUG_clean_linker_0, # of connection points: 2
#     Edge 22, Type (0, 1), BuildingBlock: OJICUG_clean_linker_0, # of connection points: 2
#     Edge 23, Type (0, 1), BuildingBlock: OJICUG_clean_linker_0, # of connection points: 2
#     Edge 24, Type (0, 1), BuildingBlock: OJICUG_clean_linker_0, # of connection points: 2
#     Edge 25, Type (0, 1), BuildingBlock: OJICUG_clean_linker_0, # of connection points: 2
#     Edge 26, Type (0, 1), BuildingBlock: OJICUG_clean_linker_0, # of connection points: 2
#     Edge 27, Type (0, 1), BuildingBlock: OJICUG_clean_linker_0, # of connection points: 2
#     Edge 28, Type (0, 1), BuildingBlock: OJICUG_clean_linker_0, # of connection points: 2
#     Edge 29, Type (0, 1), BuildingBlock: OJICUG_clean_linker_0, # of connection points: 2
#     Edge 30, Type (0, 1), BuildingBlock: OJICUG_clean_linker_0, # of connection points: 2
#     Edge 31, Type (0, 1), BuildingBlock: OJICUG_clean_linker_0, # of connection points: 2
#     Edge 32, Type (0, 1), BuildingBlock: OJICUG_clean_linker_0, # of connection points: 2
#     Edge 33, Type (0, 1), BuildingBlock: OJICUG_clean_linker_0, # of connection points: 2
#     Edge 34, Type (0, 1), BuildingBlock: OJICUG_clean_linker_0, # of connection points: 2
#     Edge 35, Type (0, 1), BuildingBlock: OJICUG_clean_linker_0, # of connection points: 2
#     Edge 36, Type (0, 1), BuildingBlock: OJICUG_clean_linker_0, # of connection points: 2
#     Edge 37, Type (0, 1), BuildingBlock: OJICUG_clean_linker_0, # of connection points: 2
#     Edge 38, Type (0, 1), BuildingBlock: OJICUG_clean_linker_0, # of connection points: 2
#     Edge 39, Type (0, 1), BuildingBlock: OJICUG_clean_linker_0, # of connection points: 2
#     Edge 40, Type (0, 1), BuildingBlock: OJICUG_clean_linker_0, # of connection points: 2
#     Edge 41, Type (0, 1), BuildingBlock: OJICUG_clean_linker_0, # of connection points: 2
#     Edge 42, Type (0, 1), BuildingBlock: OJICUG_clean_linker_0, # of connection points: 2
#     Edge 43, Type (0, 1), BuildingBlock: OJICUG_clean_linker_0, # of connection points: 2
#     Edge 44, Type (0, 1), BuildingBlock: OJICUG_clean_linker_0, # of connection points: 2
#     Edge 45, Type (0, 1), BuildingBlock: OJICUG_clean_linker_0, # of connection points: 2
#     Edge 46, Type (0, 1), BuildingBlock: OJICUG_clean_linker_0, # of connection points: 2
#     Edge 47, Type (0, 1), BuildingBlock: OJICUG_clean_linker_0, # of connection points: 2
# Relax obj value: 0.161
# Max RMSD: 0.154
# Mean RMSD: 0.128
data_MOF--net-wbl--node1-TATPOV_clean_sbu_0--node2-MIFKUJ_clean_linker_1--edge1-OJICUG_clean_linker_0
_symmetry_space_group_name_H-M    P1
_symmetry_Int_Tables_number       1
_symmetry_cell_setting            triclinic
loop_
_symmetry_equiv_pos_as_xyz
'x, y, z'
_cell_length_a     35.59585
_cell_length_b     35.559819
_cell_length_c     56.767056
_cell_angle_alpha  91.526205
_cell_angle_beta   91.436181
_cell_angle_gamma 90.138289
loop_
_atom_site_label
_atom_site_type_symbol
_atom_site_fract_x
_atom_site_fract_y
_atom_site_fract_z
_atom_type_partial_charge
H0 H 0.05578 0.11883 0.39723 0.0
H1 H 0.01897 0.15843 0.42373 0.0
H2 H 0.91706 0.12195 0.38673 0.0
H3 H 0.95391 0.08081 0.36121 0.0
H4 H 0.05438 0.04472 0.39281 0.0
H5 H 0.0273 0.14714 0.34187 0.0
H6 H 0.98201 0.19068 0.32403 0.0
H7 H 0.93028 0.09818 0.28463 0.0
H8 H 0.97412 0.05431 0.30324 0.0
H9 H 0.04168 0.95798 0.30841 0.0
H10 H 0.07767 0.9091 0.28744 0.0
H11 H 0.18106 0.96334 0.31109 0.0
H12 H 0.14511 0.01147 0.33231 0.0
H13 H 0.04528 0.04166 0.30542 0.0
H14 H 0.06335 0.94064 0.35897 0.0
H15 H 0.0956 0.89419 0.38311 0.0
H16 H 0.16079 0.98309 0.41788 0.0
H17 H 0.12846 0.0294 0.39364 0.0
C18 C 0.00767 0.09702 0.37713 0.0
C19 C 0.0255 0.11946 0.39481 0.0
C20 C 0.00441 0.14242 0.4098 0.0
C21 C 0.96499 0.14345 0.40739 0.0
C22 C 0.9473 0.12151 0.3893 0.0
C23 C 0.96838 0.09826 0.3745 0.0
C24 C 0.03007 0.07089 0.36227 0.0
C25 C 0.05295 0.04463 0.37369 0.0
C26 C 0.02734 0.07006 0.3373 0.0
C27 C 0.00366 0.09729 0.32426 0.0
C28 C 0.00625 0.13617 0.32939 0.0
C29 C 0.98065 0.16104 0.31915 0.0
C30 C 0.95298 0.14747 0.3031 0.0
C31 C 0.95166 0.10905 0.29694 0.0
C32 C 0.97673 0.0841 0.30749 0.0
C33 C 0.09084 0.98817 0.3219 0.0
C34 C 0.07209 0.95947 0.30881 0.0
C35 C 0.09259 0.9316 0.29695 0.0
C36 C 0.13206 0.93266 0.29757 0.0
C37 C 0.15064 0.96216 0.31009 0.0
C38 C 0.1302 0.98952 0.32228 0.0
C39 C 0.06949 0.01584 0.33608 0.0
C40 C 0.047 0.04232 0.32453 0.0
C41 C 0.0724 0.01694 0.36096 0.0
C42 C 0.09383 0.98845 0.37431 0.0
C43 C 0.08511 0.95005 0.37146 0.0
C44 C 0.10347 0.92353 0.38533 0.0
C45 C 0.13062 0.935 0.40247 0.0
C46 C 0.1396 0.97344 0.40507 0.0
C47 C 0.12133 -0.0001 0.39114 0.0
H48 H 0.98578 0.46282 0.55454 0.0
H49 H 0.94265 0.4165 0.53647 0.0
H50 H 0.84829 0.48263 0.56015 0.0
H51 H 0.89189 0.52827 0.57884 0.0
H52 H 0.99805 0.5413 0.5525 0.0
H53 H 0.96404 0.44862 0.60963 0.0
H54 H 0.92685 0.41048 0.63558 0.0
H55 H 0.86989 0.51072 0.66044 0.0
H56 H 0.90848 0.5487 0.63511 0.0
H57 H 0.00761 0.62131 0.64346 0.0
H58 H 0.05453 0.65215 0.66971 0.0
H59 H 0.14214 0.58741 0.63651 0.0
H60 H 0.09517 0.55652 0.61048 0.0
H61 H 0.9896 0.54833 0.63967 0.0
H62 H 0.03183 0.64124 0.58688 0.0
H63 H 0.08139 0.67782 0.56932 0.0
H64 H 0.12661 0.57593 0.53806 0.0
H65 H 0.07619 0.53956 0.55538 0.0
C66 C 0.94195 0.49857 0.56826 0.0
C67 C 0.9558 0.46772 0.55535 0.0
C68 C 0.93102 0.44137 0.54491 0.0
C69 C 0.89191 0.44564 0.54703 0.0
C70 C 0.8782 0.47813 0.55856 0.0
C71 C 0.90304 0.50429 0.56916 0.0
C72 C 0.96805 0.52262 0.58263 0.0
C73 C 0.99629 0.54283 0.57154 0.0
C74 C 0.96544 0.52493 0.60743 0.0
C75 C 0.93897 0.50145 0.62047 0.0
C76 C 0.94306 0.46222 0.6204 0.0
C77 C 0.92161 0.44043 0.63523 0.0
C78 C 0.89549 0.45746 0.65037 0.0
C79 C 0.89029 0.49667 0.64948 0.0
C80 C 0.91207 0.51844 0.63485 0.0
C81 C 0.04798 0.58704 0.62483 0.0
C82 C 0.03695 0.61386 0.64183 0.0
C83 C 0.06371 0.6313 0.65685 0.0
C84 C 0.10195 0.62215 0.65512 0.0
C85 C 0.11293 0.59537 0.63802 0.0
C86 C 0.08614 0.5778 0.62311 0.0
C87 C 0.01944 0.56726 0.60965 0.0
C88 C 0.99086 0.54759 0.62058 0.0
C89 C 0.0219 0.56543 0.5848 0.0
C90 C 0.05045 0.58766 0.57255 0.0
C91 C 0.05234 0.62681 0.57616 0.0
C92 C 0.08095 0.64763 0.56627 0.0
C93 C 0.10842 0.62979 0.55253 0.0
C94 C 0.10586 0.59063 0.54843 0.0
C95 C 0.07704 0.56978 0.55828 0.0
H96 H 0.51123 0.54652 0.89646 0.0
H97 H 0.47525 0.59012 0.92102 0.0
H98 H 0.37545 0.56514 0.87862 0.0
H99 H 0.41126 0.52055 0.85445 0.0
H100 H 0.50925 0.47545 0.88753 0.0
H101 H 0.49245 0.5845 0.84344 0.0
H102 H 0.45382 0.63489 0.82706 0.0
H103 H 0.39999 0.55472 0.77876 0.0
H104 H 0.43704 0.50385 0.79604 0.0
H105 H 0.51167 0.39574 0.80232 0.0
H106 H 0.55419 0.35552 0.77924 0.0
H107 H 0.64766 0.42665 0.80162 0.0
H108 H 0.60533 0.46604 0.82491 0.0
H109 H 0.50844 0.48648 0.80058 0.0
H110 H 0.53815 0.37713 0.8503 0.0
H111 H 0.57721 0.33569 0.8747 0.0
H112 H 0.62154 0.43276 0.91342 0.0
H113 H 0.58356 0.47394 0.8888 0.0
C114 C 0.46406 0.53047 0.87347 0.0
C115 C 0.48149 0.54998 0.89262 0.0
C116 C 0.46097 0.57495 0.9066 0.0
C117 C 0.42269 0.58111 0.90159 0.0
C118 C 0.40507 0.56122 0.88264 0.0
C119 C 0.42548 0.53576 0.86887 0.0
C120 C 0.48666 0.50545 0.85801 0.0
C121 C 0.50915 0.47802 0.86852 0.0
C122 C 0.4869 0.50909 0.83321 0.0
C123 C 0.46691 0.5402 0.82139 0.0
C124 C 0.47216 0.57766 0.82943 0.0
C125 C 0.45033 0.60643 0.82005 0.0
C126 C 0.42399 0.59839 0.80185 0.0
C127 C 0.42026 0.5614 0.79282 0.0
C128 C 0.44143 0.53244 0.80261 0.0
C129 C 0.5556 0.43355 0.81533 0.0
C130 C 0.5413 0.4027 0.80202 0.0
C131 C 0.56548 0.37986 0.7889 0.0
C132 C 0.60404 0.38826 0.78852 0.0
C133 C 0.61795 0.41993 0.80132 0.0
C134 C 0.59394 0.44225 0.81474 0.0
C135 C 0.53074 0.45654 0.83024 0.0
C136 C 0.50804 0.48374 0.81956 0.0
C137 C 0.53196 0.45415 0.85504 0.0
C138 C 0.55794 0.42867 0.86772 0.0
C139 C 0.557 0.38951 0.86363 0.0
C140 C 0.57914 0.36587 0.87761 0.0
C141 C 0.60193 0.38113 0.89605 0.0
C142 C 0.60376 0.42032 0.89951 0.0
C143 C 0.58212 0.44382 0.88545 0.0
H144 H 0.52768 0.90694 0.06228 0.0
H145 H 0.48067 0.86338 0.0448 0.0
H146 H 0.39296 0.94304 0.0608 0.0
H147 H 0.44018 0.98641 0.07868 0.0
H148 H 0.54324 0.98717 0.05169 0.0
H149 H 0.50156 0.90573 0.11522 0.0
H150 H 0.45854 0.8785 0.14308 0.0
H151 H 0.42179 0.99016 0.16365 0.0
H152 H 0.46541 0.01709 0.13608 0.0
H153 H 0.5866 0.09393 0.10196 0.0
H154 H 0.63013 0.13295 0.12612 0.0
H155 H 0.66359 0.03524 0.16507 0.0
H156 H 0.6201 0.99641 0.14083 0.0
H157 H 0.5435 0.0067 0.1386 0.0
H158 H 0.55754 0.06688 0.04932 0.0
H159 H 0.60302 0.10752 0.03111 0.0
H160 H 0.69373 0.04466 0.06331 0.0
H161 H 0.64766 0.00497 0.08218 0.0
C162 C 0.48728 0.94974 0.07171 0.0
C163 C 0.49837 0.91513 0.06182 0.0
C164 C 0.47155 0.89025 0.05203 0.0
C165 C 0.4333 0.89991 0.05163 0.0
C166 C 0.42233 0.93509 0.06089 0.0
C167 C 0.44916 0.95976 0.07106 0.0
C168 C 0.51551 0.97427 0.08389 0.0
C169 C 0.5434 0.99139 0.07069 0.0
C170 C 0.51529 0.98025 0.10858 0.0
C171 C 0.48655 0.9634 0.12355 0.0
C172 C 0.48374 0.92425 0.12545 0.0
C173 C 0.45908 0.90875 0.14138 0.0
C174 C 0.43682 0.93216 0.15573 0.0
C175 C 0.43895 0.97134 0.15319 0.0
C176 C 0.46369 0.98678 0.13734 0.0
C177 C 0.60029 0.04227 0.11956 0.0
C178 C 0.60389 0.08081 0.11538 0.0
C179 C 0.62878 0.10304 0.12918 0.0
C180 C 0.65012 0.08713 0.14755 0.0
C181 C 0.64717 0.04833 0.15123 0.0
C182 C 0.62244 0.02613 0.13738 0.0
C183 C 0.57165 0.01908 0.10658 0.0
C184 C 0.54349 0.00237 0.1196 0.0
C185 C 0.57141 0.01398 0.08178 0.0
C186 C 0.59923 0.03325 0.06729 0.0
C187 C 0.58723 0.06132 0.05198 0.0
C188 C 0.61342 0.08447 0.04148 0.0
C189 C 0.65224 0.07972 0.04587 0.0
C190 C 0.66413 0.04969 0.0599 0.0
C191 C 0.63786 0.02677 0.07058 0.0
H192 H 0.99279 0.60771 0.87258 0.0
H193 H 0.03068 0.64883 0.84891 0.0
H194 H 0.1298 0.61845 0.88962 0.0
H195 H 0.09199 0.5757 0.91227 0.0
H196 H 0.99814 0.53318 0.8749 0.0
H197 H 0.00924 0.63811 0.93373 0.0
H198 H 0.05297 0.68261 0.95347 0.0
H199 H 0.11482 0.58938 0.98263 0.0
H200 H 0.0703 0.54556 0.96363 0.0
H201 H 0.98751 0.43054 0.93188 0.0
H202 H 0.9486 0.38282 0.95035 0.0
H203 H 0.87208 0.46969 0.97309 0.0
H204 H 0.91135 0.51725 0.95508 0.0
H205 H 0.99231 0.53397 0.96216 0.0
H206 H 0.00721 0.45952 0.87199 0.0
H207 H 0.97575 0.41249 0.84611 0.0
H208 H 0.86978 0.43948 0.87781 0.0
H209 H 0.90112 0.4872 0.90322 0.0
C210 C 0.03938 0.5888 0.89438 0.0
C211 C 0.02267 0.61005 0.87647 0.0
C212 C 0.04439 0.63389 0.86308 0.0
C213 C 0.08342 0.63712 0.8673 0.0
C214 C 0.09995 0.6164 0.88564 0.0
C215 C 0.07824 0.59227 0.89887 0.0
C216 C 0.01642 0.56134 0.90722 0.0
C217 C 0.99675 0.53351 0.89397 0.0
C218 C 0.01483 0.56142 0.93213 0.0
C219 C 0.03691 0.58861 0.94702 0.0
C220 C 0.03176 0.62747 0.94486 0.0
C221 C 0.05691 0.65281 0.95605 0.0
C222 C 0.08781 0.63966 0.96942 0.0
C223 C 0.0912 0.60071 0.97278 0.0
C224 C 0.06585 0.57549 0.9618 0.0
C225 C 0.9522 0.47736 0.94212 0.0
C226 C 0.96257 0.43926 0.94108 0.0
C227 C 0.94042 0.41212 0.95162 0.0
C228 C 0.9073 0.42265 0.96298 0.0
C229 C 0.89734 0.46086 0.96427 0.0
C230 C 0.91982 0.48802 0.95414 0.0
C231 C 0.97401 0.50599 0.92974 0.0
C232 C 0.99342 0.53394 0.94308 0.0
C233 C 0.97588 0.50566 0.90488 0.0
C234 C 0.95662 0.47656 0.88976 0.0
C235 C 0.97718 0.45535 0.87335 0.0
C236 C 0.95923 0.42854 0.85858 0.0
C237 C 0.92041 0.42229 0.86006 0.0
C238 C 0.89985 0.44337 0.87656 0.0
C239 C 0.91774 0.47054 0.89113 0.0
H240 H 0.48974 0.57484 0.20262 0.0
H241 H 0.44716 0.6237 0.21719 0.0
H242 H 0.35189 0.55252 0.19879 0.0
H243 H 0.39472 0.50375 0.18383 0.0
H244 H 0.49929 0.49633 0.21428 0.0
H245 H 0.46709 0.57521 0.14877 0.0
H246 H 0.42755 0.6079 0.12024 0.0
H247 H 0.37333 0.50257 0.09991 0.0
H248 H 0.41383 0.46997 0.1282 0.0
H249 H 0.51101 0.39692 0.13112 0.0
H250 H 0.55792 0.36302 0.10813 0.0
H251 H 0.64551 0.4329 0.14031 0.0
H252 H 0.59848 0.46681 0.16315 0.0
H253 H 0.49406 0.46954 0.12797 0.0
H254 H 0.52586 0.38994 0.19284 0.0
H255 H 0.57353 0.35517 0.21496 0.0
H256 H 0.62963 0.45953 0.2348 0.0
H257 H 0.58127 0.49439 0.21275 0.0
C258 C 0.44531 0.53583 0.19217 0.0
C259 C 0.45973 0.56959 0.20198 0.0
C260 C 0.43543 0.59751 0.21009 0.0
C261 C 0.39633 0.59184 0.20888 0.0
C262 C 0.38193 0.55745 0.19988 0.0
C263 C 0.40629 0.52971 0.19138 0.0
C264 C 0.47105 0.50827 0.18126 0.0
C265 C 0.49823 0.49051 0.19542 0.0
C266 C 0.46921 0.50017 0.15675 0.0
C267 C 0.44318 0.52024 0.14069 0.0
C268 C 0.44629 0.55929 0.13841 0.0
C269 C 0.42352 0.57795 0.12212 0.0
C270 C 0.39715 0.55791 0.10774 0.0
C271 C 0.39365 0.51882 0.11044 0.0
C272 C 0.41661 0.50015 0.12667 0.0
C273 C 0.55121 0.43421 0.14899 0.0
C274 C 0.54036 0.40466 0.13341 0.0
C275 C 0.56717 0.38543 0.12023 0.0
C276 C 0.60539 0.39548 0.12231 0.0
C277 C 0.61636 0.42424 0.13851 0.0
C278 C 0.58949 0.44357 0.15163 0.0
C279 C 0.52233 0.45739 0.1609 0.0
C280 C 0.49465 0.47462 0.14691 0.0
C281 C 0.52361 0.4648 0.18552 0.0
C282 C 0.55022 0.44464 0.20111 0.0
C283 C 0.54803 0.40538 0.20232 0.0
C284 C 0.57514 0.3856 0.21508 0.0
C285 C 0.60519 0.4047 0.22666 0.0
C286 C 0.60672 0.44418 0.22604 0.0
C287 C 0.57914 0.46406 0.21355 0.0
H288 H 0.54451 0.91 0.3755 0.0
H289 H 0.50574 0.86643 0.35115 0.0
H290 H 0.40676 0.90562 0.38671 0.0
H291 H 0.44542 0.94956 0.41065 0.0
H292 H 0.54053 0.98496 0.37615 0.0
H293 H 0.52957 0.88873 0.43497 0.0
H294 H 0.4886 0.84409 0.45406 0.0
H295 H 0.42344 0.93688 0.48189 0.0
H296 H 0.46514 0.98113 0.46332 0.0
H297 H 0.54014 0.07429 0.46293 0.0
H298 H 0.57966 0.12251 0.48301 0.0
H299 H 0.67707 0.07648 0.44868 0.0
H300 H 0.63754 0.02902 0.42861 0.0
H301 H 0.54215 0.9968 0.4635 0.0
H302 H 0.5516 0.09267 0.40571 0.0
H303 H 0.5813 0.1376 0.37995 0.0
H304 H 0.64361 0.04688 0.3474 0.0
H305 H 0.61427 0.00226 0.3734 0.0
C306 C 0.49792 0.9328 0.39503 0.0
C307 C 0.5145 0.90895 0.37818 0.0
C308 C 0.49238 0.88411 0.3643 0.0
C309 C 0.4533 0.88264 0.3671 0.0
C310 C 0.43689 0.90575 0.38445 0.0
C311 C 0.45896 0.93085 0.39814 0.0
C312 C 0.52101 0.96142 0.40822 0.0
C313 C 0.54149 0.98711 0.39526 0.0
C314 C 0.52117 0.96492 0.43312 0.0
C315 C 0.50009 0.93821 0.44751 0.0
C316 C 0.50683 0.89938 0.44556 0.0
C317 C 0.48325 0.8739 0.45639 0.0
C318 C 0.45237 0.88676 0.46933 0.0
C319 C 0.44714 0.92584 0.47235 0.0
C320 C 0.47089 0.95128 0.46165 0.0
C321 C 0.58589 0.04847 0.44407 0.0
C322 C 0.57004 0.07469 0.45982 0.0
C323 C 0.59262 0.10214 0.47127 0.0
C324 C 0.63141 0.1036 0.4672 0.0
C325 C 0.64716 0.07675 0.45175 0.0
C326 C 0.62465 0.04947 0.44034 0.0
C327 C 0.56218 0.01996 0.43136 0.0
C328 C 0.54153 0.99439 0.4444 0.0
C329 C 0.56178 0.01656 0.40647 0.0
C330 C 0.58091 0.04413 0.39159 0.0
C331 C 0.572 0.08256 0.39322 0.0
C332 C 0.58874 0.10815 0.37836 0.0
C333 C 0.61481 0.0958 0.36164 0.0
C334 C 0.62398 0.05736 0.36027 0.0
C335 C 0.60706 0.03178 0.37501 0.0
H336 H 0.02625 0.09372 0.72449 0.0
H337 H 0.97211 0.12752 0.74023 0.0
H338 H 0.9009 0.07821 0.685 0.0
H339 H 0.95462 0.04258 0.67004 0.0
H340 H 0.0473 0.02326 0.71632 0.0
H341 H 0.01407 0.1297 0.66715 0.0
H342 H 0.96755 0.16386 0.64347 0.0
H343 H 0.95587 0.06742 0.59591 0.0
H344 H 0.00181 0.0333 0.61976 0.0
H345 H 0.09905 0.94154 0.65742 0.0
H346 H 0.13943 0.90853 0.62972 0.0
H347 H 0.19257 0.01398 0.61362 0.0
H348 H 0.15098 0.0469 0.64085 0.0
H349 H 0.07365 0.04423 0.63224 0.0
H350 H 0.06502 0.94878 0.71096 0.0
H351 H 0.10595 0.90612 0.73246 0.0
H352 H 0.20088 0.97867 0.72029 0.0
H353 H 0.15972 0.02042 0.69794 0.0
C354 C 0.99469 0.06627 0.69579 0.0
C355 C -0.00116 0.08936 0.71612 0.0
C356 C 0.96799 0.10871 0.72504 0.0
C357 C 0.93265 0.1056 0.7136 0.0
C358 C 0.92804 0.08119 0.69393 0.0
C359 C 0.9587 0.06104 0.68538 0.0
C360 C 0.02844 0.05009 0.68454 0.0
C361 C 0.05314 0.02801 0.69797 0.0
C362 C 0.03639 0.05654 0.66065 0.0
C363 C 0.01111 0.07885 0.64532 0.0
C364 C 0.00154 0.11602 0.65158 0.0
C365 C 0.97489 0.1354 0.63813 0.0
C366 C 0.95798 0.11818 0.61794 0.0
C367 C 0.96865 0.08148 0.61127 0.0
C368 C 0.99494 0.062 0.62485 0.0
C369 C 0.12206 0.99664 0.65119 0.0
C370 C 0.12012 0.95738 0.64841 0.0
C371 C 0.14334 0.93853 0.63252 0.0
C372 C 0.16905 0.95861 0.61916 0.0
C373 C 0.17256 0.99771 0.62321 0.0
C374 C 0.14908 0.01656 0.63893 0.0
C375 C 0.09224 0.01713 0.66391 0.0
C376 C 0.06819 0.04007 0.65072 0.0
C377 C 0.08489 0.01133 0.6879 0.0
C378 C 0.10945 0.98742 0.70261 0.0
C379 C 0.09459 0.95566 0.71317 0.0
C380 C 0.11806 0.93147 0.72568 0.0
C381 C 0.15688 0.93881 0.72815 0.0
C382 C 0.17131 0.97174 0.71844 0.0
C383 C 0.14784 0.99568 0.70567 0.0
Zn384 Zn 0.29351 0.75239 0.9695 0.0
Zn385 Zn 0.30721 0.70651 0.00696 0.0
O386 O 0.2501 0.70292 0.00235 0.0
O387 O 0.23817 0.74047 0.97283 0.0
O388 O 0.31974 0.67436 0.03483 0.0
O389 O 0.31885 0.79566 0.98805 0.0
O390 O 0.32971 0.75729 0.01723 0.0
C391 C 0.22678 0.71775 0.98796 0.0
C392 C 0.33958 0.68745 0.95852 0.0
O393 O 0.33526 0.68094 0.98022 0.0
O394 O 0.32473 0.71622 0.94945 0.0
C395 C 0.32347 0.6389 0.03261 0.0
O396 O 0.31695 0.6225 0.01189 0.0
C397 C 0.33271 0.78964 0.00837 0.0
Zn398 Zn 0.28571 0.75967 0.28686 0.0
Zn399 Zn 0.31591 0.80314 0.2528 0.0
O400 O 0.2639 0.82588 0.25755 0.0
O401 O 0.23707 0.78936 0.28302 0.0
O402 O 0.33794 0.83201 0.22634 0.0
O403 O 0.29728 0.71232 0.26727 0.0
O404 O 0.3211 0.74904 0.24086 0.0
C405 C 0.23586 0.8178 0.27 0.0
C406 C 0.35112 0.8047 0.30219 0.0
O407 O 0.35061 0.81481 0.28085 0.0
O408 O 0.32659 0.78192 0.30924 0.0
C409 C 0.35176 0.86479 0.2295 0.0
O410 O 0.35044 0.88114 0.25049 0.0
C411 C 0.3137 0.71625 0.24793 0.0
Zn412 Zn 0.25331 0.76354 0.47263 0.0
Zn413 Zn 0.24246 0.81104 0.51033 0.0
O414 O 0.29893 0.81573 0.50531 0.0
O415 O 0.30923 0.77626 0.47565 0.0
O416 O 0.23311 0.8431 0.5394 0.0
O417 O 0.22842 0.72071 0.48972 0.0
O418 O 0.22046 0.76039 0.51953 0.0
C419 C 0.32133 0.80075 0.49066 0.0
C420 C 0.20675 0.82845 0.4623 0.0
O421 O 0.21257 0.83652 0.48408 0.0
O422 O 0.22054 0.79873 0.45323 0.0
C423 C 0.23096 0.87874 0.53903 0.0
O424 O 0.23621 0.8958 0.51912 0.0
C425 C 0.21606 0.72773 0.5101 0.0
Zn426 Zn 0.27525 0.74223 0.73011 0.0
Zn427 Zn 0.23225 0.72592 0.76738 0.0
O428 O 0.22545 0.78318 0.7655 0.0
O429 O 0.26309 0.79689 0.73668 0.0
O430 O 0.20261 0.70849 0.79505 0.0
O431 O 0.32 0.7166 0.74472 0.0
O432 O 0.28498 0.7054 0.7752 0.0
C433 C 0.23973 0.80725 0.75203 0.0
C434 C 0.21112 0.69612 0.71753 0.0
O435 O 0.20534 0.69902 0.73956 0.0
O436 O 0.23944 0.71185 0.70892 0.0
C437 C 0.17032 0.72027 0.80081 0.0
O438 O 0.15459 0.74754 0.78894 0.0
C439 C 0.31624 0.70275 0.76482 0.0
Zn440 Zn 0.77892 0.2405 0.55315 0.0
Zn441 Zn 0.82199 0.22555 0.51441 0.0
O442 O 0.8272 0.28234 0.51739 0.0
O443 O 0.79149 0.2956 0.54768 0.0
O444 O 0.851 0.20887 0.48613 0.0
O445 O 0.73421 0.21422 0.53649 0.0
O446 O 0.76996 0.20546 0.50578 0.0
C447 C 0.8133 0.30626 0.53178 0.0
C448 C 0.84471 0.19544 0.56294 0.0
O449 O 0.84945 0.19901 0.54097 0.0
O450 O 0.81649 0.21025 0.57269 0.0
C451 C 0.8813 0.22325 0.4791 0.0
O452 O 0.8956 0.25296 0.49032 0.0
C453 C 0.73844 0.20197 0.51556 0.0
Zn454 Zn 0.78922 0.25777 0.78326 0.0
Zn455 Zn 0.81072 0.30049 0.7469 0.0
O456 O 0.75443 0.31108 0.7498 0.0
O457 O 0.73512 0.27215 0.7765 0.0
O458 O 0.82644 0.33185 0.71956 0.0
O459 O 0.81365 0.21253 0.76787 0.0
O460 O 0.82796 0.24708 0.73771 0.0
C461 C 0.72814 0.29781 0.76197 0.0
C462 C 0.84058 0.31812 0.79699 0.0
O463 O 0.84047 0.32359 0.77491 0.0
O464 O 0.82054 0.29224 0.80516 0.0
C465 C 0.8287 0.36742 0.72221 0.0
O466 O 0.81972 0.38304 0.74253 0.0
C467 C 0.82836 0.21558 0.74793 0.0
Zn468 Zn 0.77595 0.27974 0.04582 0.0
Zn469 Zn 0.72463 0.29189 0.01018 0.0
O470 O 0.72153 0.23485 0.01257 0.0
O471 O 0.76186 0.22402 0.04167 0.0
O472 O 0.68776 0.30556 0.98456 0.0
O473 O 0.81645 0.30507 0.02651 0.0
O474 O 0.77312 0.31581 0.99924 0.0
C475 C 0.73736 0.21208 0.02661 0.0
C476 C 0.71191 0.3239 0.06015 0.0
O477 O 0.70209 0.31804 0.03866 0.0
O478 O 0.74314 0.31156 0.0679 0.0
C479 C 0.69104 0.29771 0.96274 0.0
O480 O 0.71945 0.27708 0.95575 0.0
C481 C 0.80682 0.31926 0.00701 0.0
Zn482 Zn 0.77712 0.25177 0.2273 0.0
Zn483 Zn 0.73899 0.21923 0.26285 0.0
O484 O 0.71467 0.27126 0.26112 0.0
O485 O 0.74787 0.29965 0.23453 0.0
O486 O 0.71394 0.19266 0.28932 0.0
O487 O 0.82668 0.23937 0.24373 0.0
O488 O 0.79457 0.21605 0.27263 0.0
C489 C 0.7213 0.30012 0.24903 0.0
C490 C 0.73161 0.1876 0.21218 0.0
O491 O 0.72458 0.18657 0.23403 0.0
O492 O 0.75302 0.21289 0.20461 0.0
C493 C 0.67903 0.19427 0.29345 0.0
O494 O 0.65718 0.21545 0.28037 0.0
C495 C 0.8259 0.22382 0.26353 0.0
C496 C 0.14773 0.86445 0.29228 0.0
C497 C 0.15428 0.90205 0.28658 0.0
H498 H 0.16841 0.80793 0.29132 0.0
C499 C 0.1847 0.91056 0.27237 0.0
H500 H 0.1245 0.8572 0.30329 0.0
C501 C 0.20954 0.88237 0.26524 0.0
C502 C 0.20482 0.8452 0.27255 0.0
H503 H 0.1901 0.93933 0.26757 0.0
H504 H 0.23378 0.89027 0.2553 0.0
C505 C 0.17291 0.83629 0.28545 0.0
C506 C 0.15548 0.68265 0.55545 0.0
C507 C 0.13921 0.65229 0.54244 0.0
H508 H 0.19273 0.72995 0.55559 0.0
C509 C 0.15151 0.64473 0.51944 0.0
H510 H 0.14744 0.68874 0.57343 0.0
C511 C 0.17806 0.66807 0.50932 0.0
C512 C 0.19271 0.69963 0.52192 0.0
H513 H 0.1395 0.62173 0.50885 0.0
H514 H 0.18579 0.66233 0.49125 0.0
C515 C 0.18175 0.70611 0.54529 0.0
C516 C 0.3988 0.63668 0.76895 0.0
C517 C 0.39917 0.62813 0.7929 0.0
H518 H 0.37277 0.66797 0.7414 0.0
C519 C 0.37413 0.64646 0.80805 0.0
H520 H 0.41799 0.62281 0.75704 0.0
C521 C 0.34778 0.67179 0.7991 0.0
C522 C 0.34671 0.67971 0.77497 0.0
H523 H 0.37398 0.64004 0.8266 0.0
H524 H 0.3278 0.68456 0.81094 0.0
C525 C 0.37308 0.66262 0.7601 0.0
C526 C 0.37934 0.88325 0.02412 0.0
C527 C 0.4051 0.8728 0.04188 0.0
H528 H 0.33616 0.86495 0.99939 0.0
C529 C 0.40492 0.83572 0.04971 0.0
H530 H 0.37905 0.91174 0.01782 0.0
C531 C 0.38016 0.80917 0.0395 0.0
C532 C 0.35548 0.81903 0.02096 0.0
H533 H 0.42431 0.82716 0.06357 0.0
H534 H 0.38135 0.78058 0.04559 0.0
C535 C 0.35493 0.85649 0.01359 0.0
C536 C 0.14028 0.65894 0.99788 0.0
C537 C 0.11898 0.66547 0.97718 0.0
H538 H 0.19111 0.67062 0.01774 0.0
C539 C 0.13075 0.6939 0.96224 0.0
H540 H 0.1316 0.6379 0.01009 0.0
C541 C 0.16444 0.71313 0.96687 0.0
C542 C 0.18745 0.70408 0.98638 0.0
H543 H 0.11541 0.69959 0.94602 0.0
H544 H 0.1736 0.73326 0.95421 0.0
C545 C 0.17428 0.6779 0.00238 0.0
C546 C 0.37546 0.65856 0.2079 0.0
C547 C 0.371 0.62235 0.21663 0.0
H548 H 0.36002 0.71641 0.21044 0.0
C549 C 0.34401 0.61623 0.23375 0.0
H550 H 0.39575 0.66381 0.19445 0.0
C551 C 0.3236 0.64647 0.24314 0.0
C552 C 0.32956 0.68318 0.23531 0.0
H553 H 0.34008 0.58844 0.24068 0.0
H554 H 0.30434 0.64132 0.25718 0.0
C555 C 0.35477 0.6886 0.217 0.0
C556 C 0.40413 0.86717 0.49844 0.0
C557 C 0.42349 0.85994 0.4775 0.0
H558 H 0.35695 0.85369 0.51933 0.0
C559 C 0.41223 0.82896 0.46304 0.0
H560 H 0.41253 0.89024 0.51027 0.0
C561 C 0.38075 0.8076 0.46845 0.0
C562 C 0.3595 0.81689 0.48831 0.0
H563 H 0.42616 0.82262 0.44667 0.0
H564 H 0.37169 0.7854 0.45614 0.0
C565 C 0.37243 0.84596 0.50376 0.0
C566 C 0.17075 0.88736 0.75684 0.0
C567 C 0.18243 0.91014 0.73845 0.0
H568 H 0.18012 0.83699 0.77599 0.0
C569 C 0.21705 0.90232 0.72801 0.0
H570 H 0.14474 0.89315 0.76573 0.0
C571 C 0.23766 0.87065 0.73423 0.0
C572 C 0.22398 0.84571 0.75084 0.0
H573 H 0.22703 0.91899 0.71375 0.0
H574 H 0.26296 0.86429 0.7247 0.0
C575 C 0.19127 0.85538 0.76294 0.0
C576 C 0.63152 0.32441 0.78211 0.0
C577 C 0.63066 0.36266 0.77662 0.0
H578 H 0.66321 0.27335 0.78141 0.0
C579 C 0.65857 0.37717 0.76234 0.0
H580 H 0.61032 0.31259 0.79313 0.0
C581 C 0.68862 0.35465 0.75537 0.0
C582 C 0.69159 0.31742 0.76295 0.0
H583 H 0.65822 0.40652 0.75768 0.0
H584 H 0.71098 0.3674 0.7457 0.0
C585 C 0.66185 0.302 0.77543 0.0
C586 C 0.7093 0.1205 0.05335 0.0
C587 C 0.67948 0.10861 0.03816 0.0
H588 H 0.7516 0.16192 0.06132 0.0
C589 C 0.67347 0.12768 0.01698 0.0
H590 H 0.71471 0.10689 0.06992 0.0
C591 C 0.69439 0.15984 0.01221 0.0
C592 C 0.72208 0.17343 0.02839 0.0
H593 H 0.65142 0.11878 0.00456 0.0
H594 H 0.68746 0.17517 0.99645 0.0
C595 C 0.73048 0.15234 0.04844 0.0
C596 C 0.89292 0.18165 0.30814 0.0
C597 C 0.92349 0.17249 0.29403 0.0
H598 H 0.83779 0.20544 0.3095 0.0
C599 C 0.92363 0.18382 0.27059 0.0
H600 H 0.89236 0.17284 0.32626 0.0
C601 C 0.89279 0.20297 0.26107 0.0
C602 C 0.86105 0.21023 0.27474 0.0
H603 H 0.947 0.1767 0.25946 0.0
H604 H 0.89296 0.21012 0.24264 0.0
C605 C 0.8618 0.20018 0.29854 0.0
C606 C 0.83715 0.40393 0.5549 0.0
C607 C 0.86621 0.41411 0.53997 0.0
H608 H 0.79708 0.3622 0.56375 0.0
C609 C 0.87326 0.39114 0.52003 0.0
H610 H 0.83109 0.4207 0.57054 0.0
C611 C 0.85399 0.35713 0.51629 0.0
C612 C 0.82716 0.34554 0.53237 0.0
H613 H 0.89491 0.39859 0.5079 0.0
H614 H 0.86162 0.33904 0.50153 0.0
C615 C 0.81773 0.37013 0.55108 0.0
C616 C 0.68493 0.14928 0.46685 0.0
C617 C 0.65586 0.13246 0.47918 0.0
H618 H 0.73352 0.18463 0.46864 0.0
C619 C 0.65187 0.14182 0.50321 0.0
H620 H 0.6882 0.1434 0.4482 0.0
C621 C 0.67768 0.16596 0.51493 0.0
C622 C 0.708 0.18095 0.50283 0.0
H623 H 0.62983 0.12921 0.51322 0.0
H624 H 0.67482 0.17149 0.53366 0.0
C625 C 0.71078 0.1731 0.47855 0.0
C626 C 0.886 0.15632 0.70598 0.0
C627 C 0.9016 0.12994 0.72135 0.0
H628 H 0.85045 0.20451 0.7024 0.0
C629 C 0.88999 0.12948 0.74475 0.0
H630 H 0.89483 0.15722 0.68787 0.0
C631 C 0.86418 0.15594 0.75294 0.0
C632 C 0.85024 0.18391 0.73801 0.0
H633 H 0.90174 0.10932 0.75685 0.0
H634 H 0.85676 0.15569 0.77133 0.0
C635 C 0.86077 0.18335 0.71431 0.0
C636 C 0.89652 0.36829 0.9894 0.0
C637 C 0.88248 0.394 0.97303 0.0
H638 H 0.88354 0.3245 0.01323 0.0
C639 C 0.84408 0.39316 0.9668 0.0
H640 H 0.92606 0.36845 0.99448 0.0
C641 C 0.81994 0.36774 0.97714 0.0
C642 C 0.83353 0.34299 0.99428 0.0
H643 H 0.83267 0.41246 0.95404 0.0
H644 H 0.79035 0.3684 0.97223 0.0
C645 C 0.87219 0.34324 1.00012 0.0
C646 C 0.6736 0.38977 0.23067 0.0
C647 C 0.63647 0.38282 0.23718 0.0
H648 H 0.72996 0.36909 0.2296 0.0
C649 C 0.62903 0.35178 0.25116 0.0
H650 H 0.68011 0.4134 0.21981 0.0
C651 C 0.65762 0.32653 0.25695 0.0
C652 C 0.69408 0.33155 0.24855 0.0
H653 H 0.60068 0.34604 0.2566 0.0
H654 H 0.65045 0.30168 0.26654 0.0
C655 C 0.70212 0.36429 0.23622 0.0
C656 C 0.16129 0.87238 0.40858 0.0
C657 C 0.14905 0.90711 0.41791 0.0
H658 H 0.18901 0.82029 0.41523 0.0
C659 C 0.15467 0.91512 0.44213 0.0
H660 H 0.15762 0.86551 0.38996 0.0
C661 C 0.17267 0.88926 0.45663 0.0
C662 C 0.18554 0.8548 0.44723 0.0
H663 H 0.14501 0.94138 0.44992 0.0
H664 H 0.17688 0.89652 0.47517 0.0
C665 C 0.17939 0.84653 0.42307 0.0
C666 C 0.16432 0.65346 0.66249 0.0
C667 C 0.1303 0.64027 0.67122 0.0
H668 H 0.21656 0.6814 0.67026 0.0
C669 C 0.12349 0.64459 0.69541 0.0
H670 H 0.17015 0.65077 0.64389 0.0
C671 C 0.15005 0.66209 0.71056 0.0
C672 C 0.18388 0.67579 0.70178 0.0
H673 H 0.09769 0.63423 0.70265 0.0
H674 H 0.14384 0.66524 0.72909 0.0
C675 C 0.19081 0.67111 0.6776 0.0
C676 C 0.40377 0.60745 0.94079 0.0
C677 C 0.40133 0.60837 0.91609 0.0
H678 H 0.38601 0.63157 0.97355 0.0
C679 C 0.37876 0.63572 0.90536 0.0
H680 H 0.42081 0.58648 0.94947 0.0
C681 C 0.35912 0.66184 0.91912 0.0
C682 C 0.36129 0.66074 0.94386 0.0
H683 H 0.3767 0.63718 0.88633 0.0
H684 H 0.34192 0.68261 0.91037 0.0
C685 C 0.38376 0.6332 0.95454 0.0
C686 C 0.39325 0.88207 0.16981 0.0
C687 C 0.41305 0.91592 0.17414 0.0
H688 H 0.35819 0.83951 0.18379 0.0
C689 C 0.41113 0.93354 0.19657 0.0
H690 H 0.3937 0.86802 0.15266 0.0
C691 C 0.39052 0.91739 0.21434 0.0
C692 C 0.37145 0.88313 0.21017 0.0
H693 H 0.42646 0.95933 0.20066 0.0
H694 H 0.39025 0.9314 0.23151 0.0
C695 C 0.37272 0.86584 0.18763 0.0
C696 C 0.14255 0.64756 0.84492 0.0
C697 C 0.10694 0.66027 0.85175 0.0
H698 H 0.19045 0.65651 0.82376 0.0
C699 C 0.09334 0.69422 0.84264 0.0
H700 H 0.1538 0.62132 0.85123 0.0
C701 C 0.11425 0.71423 0.82653 0.0
C702 C 0.14937 0.70091 0.81928 0.0
H703 H 0.06635 0.70526 0.84779 0.0
H704 H 0.10262 0.73986 0.81954 0.0
C705 C 0.16354 0.66768 0.82898 0.0
C706 C 0.36177 0.6143 0.09315 0.0
C707 C 0.375 0.57749 0.08916 0.0
H708 H 0.33497 0.66251 0.07851 0.0
C709 C 0.36868 0.56024 0.06682 0.0
H710 H 0.36551 0.62821 0.11025 0.0
C711 C 0.3507 0.57973 0.04871 0.0
C712 C 0.33887 0.61703 0.05246 0.0
H713 H 0.37888 0.53213 0.06298 0.0
H714 H 0.34725 0.56592 0.03155 0.0
C715 C 0.34404 0.63389 0.07499 0.0
C716 C 0.39958 0.8379 0.35918 0.0
C717 C 0.42928 0.85942 0.35075 0.0
H718 H 0.35177 0.80314 0.35041 0.0
C719 C 0.43449 0.86073 0.32635 0.0
H720 H 0.39513 0.83625 0.37794 0.0
C721 C 0.40967 0.84205 0.31063 0.0
C722 C 0.37927 0.8214 0.31898 0.0
H723 H 0.45693 0.87742 0.31936 0.0
H724 H 0.41388 0.84448 0.29189 0.0
C725 C 0.37492 0.81884 0.34343 0.0
C726 C 0.20167 0.90209 0.60148 0.0
C727 C 0.1892 0.93942 0.59955 0.0
H728 H 0.22473 0.85368 0.58395 0.0
C729 C 0.1934 0.95738 0.57796 0.0
H730 H 0.1995 0.88756 0.61791 0.0
C731 C 0.20833 0.93812 0.55859 0.0
C732 C 0.21911 0.9003 0.56024 0.0
H733 H 0.18361 0.98588 0.57563 0.0
H734 H 0.21006 0.9525 0.54207 0.0
C735 C 0.21631 0.88271 0.58202 0.0
C736 C 0.64695 0.32867 0.90481 0.0
C737 C 0.62224 0.35672 0.91274 0.0
H738 H 0.68849 0.28788 0.91449 0.0
C739 C 0.61816 0.36292 0.93705 0.0
H740 H 0.65048 0.32342 0.88611 0.0
C741 C 0.63942 0.34257 0.9532 0.0
C742 C 0.6656 0.31575 0.94541 0.0
H743 H 0.59887 0.38405 0.94359 0.0
H744 H 0.63611 0.34879 0.97181 0.0
C745 C 0.66868 0.30847 0.92104 0.0
C746 C 0.67168 0.1066 0.18832 0.0
C747 C 0.6733 0.11133 0.16387 0.0
H748 H 0.68881 0.12686 0.2227 0.0
C749 C 0.69575 0.14026 0.15534 0.0
H750 H 0.65424 0.08486 0.19544 0.0
C751 C 0.71561 0.16444 0.171 0.0
C752 C 0.71315 0.16032 0.19549 0.0
H753 H 0.69775 0.14432 0.13657 0.0
H754 H 0.73222 0.18685 0.1639 0.0
C755 C 0.69132 0.13085 0.20395 0.0
C756 C 0.90867 0.1506 0.43278 0.0
C757 C 0.94236 0.16551 0.42455 0.0
H758 H 0.86302 0.15713 0.4562 0.0
C759 C 0.95493 0.20066 0.43367 0.0
H760 H 0.89841 0.12336 0.4265 0.0
C761 C 0.93477 0.21992 0.45105 0.0
C762 C 0.90154 0.20451 0.45959 0.0
H763 H 0.98047 0.21324 0.42747 0.0
H764 H 0.94549 0.24663 0.45799 0.0
C765 C 0.88846 0.16991 0.44999 0.0
C766 C 0.86473 0.39743 0.66313 0.0
C767 C 0.87584 0.43489 0.66816 0.0
H768 H 0.84119 0.34672 0.67617 0.0
C769 C 0.86975 0.45015 0.69087 0.0
H770 H 0.86839 0.38485 0.64576 0.0
C771 C 0.85361 0.42849 0.70815 0.0
C772 C 0.84352 0.39082 0.7033 0.0
H773 H 0.87854 0.47857 0.69565 0.0
H774 H 0.85001 0.44107 0.72553 0.0
C775 C 0.84894 0.37559 0.68053 0.0
C776 C 0.67007 0.12062 0.34014 0.0
C777 C 0.63167 0.12258 0.34519 0.0
H778 H 0.71519 0.14187 0.3201 0.0
C779 C 0.60925 0.14942 0.33379 0.0
H780 H 0.68818 0.10056 0.34884 0.0
C781 C 0.6247 0.17312 0.31726 0.0
C782 C 0.66297 0.17067 0.31188 0.0
H783 H 0.57949 0.1514 0.33715 0.0
H784 H 0.6065 0.193 0.30847 0.0
C785 C 0.68557 0.14446 0.32375 0.0
C786 C 0.89971 0.15747 0.61517 0.0
C787 C 0.92895 0.13812 0.60396 0.0
H788 H 0.84981 0.19039 0.61101 0.0
C789 C 0.92995 0.13733 0.57924 0.0
H790 H 0.89803 0.15814 0.6342 0.0
C791 C 0.90241 0.15568 0.56597 0.0
C792 C 0.87309 0.17504 0.57712 0.0
H793 H 0.95233 0.12287 0.57015 0.0
H794 H 0.90421 0.15474 0.54694 0.0
C795 C 0.87195 0.17564 0.60187 0.0
C796 C 0.90784 0.39412 0.81976 0.0
C797 C 0.90122 0.39447 0.84405 0.0
H798 H 0.89376 0.36981 0.78579 0.0
C799 C 0.8756 0.36862 0.85288 0.0
H800 H 0.92726 0.41397 0.81249 0.0
C801 C 0.85664 0.34314 0.83765 0.0
C802 C 0.86259 0.34332 0.81326 0.0
H803 H 0.87026 0.36812 0.87157 0.0
H804 H 0.83675 0.32382 0.84497 0.0
C805 C 0.88856 0.36894 0.80449 0.0
C806 C 0.62436 0.37165 0.08253 0.0
C807 C 0.63324 0.37752 0.10659 0.0
H808 H 0.64219 0.35067 0.04909 0.0
C809 C 0.66886 0.36672 0.11525 0.0
H810 H 0.59745 0.38033 0.07521 0.0
C811 C 0.69478 0.34975 0.10018 0.0
C812 C 0.68564 0.3435 0.07614 0.0
H813 H 0.67644 0.3708 0.13374 0.0
H814 H 0.72179 0.34121 0.10741 0.0
C815 C 0.65021 0.35492 0.0675 0.0
loop_
_geom_bond_atom_site_label_1
_geom_bond_atom_site_label_2
_geom_bond_distance
_geom_bond_site_symmetry_2
_ccdc_geom_bond_type
H0 C19 0.949 . S
H1 C20 0.950 . S
H2 C22 0.950 . S
H3 C23 0.950 . S
H4 C25 0.950 . S
H5 C28 0.950 1_455 S
H6 C29 0.950 . S
H7 C31 0.951 . S
H8 C32 0.919 1_565 S
H9 C34 0.949 . S
H10 C35 0.950 . S
H11 C37 0.950 . S
H12 C38 0.950 . S
H13 C40 0.946 1_565 S
H14 C43 0.950 . S
H15 C44 0.950 . S
H16 C46 0.951 . S
H17 C47 0.949 1_545 S
C18 C19 1.376 1_655 S
C18 C23 1.386 . S
C18 C24 1.483 1_655 S
C19 H0 0.949 . S
C19 C18 1.376 1_455 S
C19 C20 1.397 1_455 S
C20 H1 0.950 . S
C20 C19 1.397 1_655 S
C20 C21 1.391 . S
C21 C20 1.391 . S
C21 C22 1.405 . S
C22 H2 0.950 . S
C22 C21 1.405 . S
C22 C23 1.367 . S
C23 H3 0.950 . S
C23 C18 1.386 . S
C23 C22 1.367 . S
C24 C18 1.483 1_455 S
C24 C25 1.382 . S
C24 C26 1.403 . S
C25 H4 0.950 . S
C25 C24 1.382 . S
C25 C41 1.411 1_545 S
C26 C24 1.403 . S
C26 C27 1.489 1_455 S
C26 C40 1.430 . S
C27 C26 1.489 1_655 S
C27 C28 1.383 . S
C27 C32 1.382 . S
C28 H5 0.950 1_655 S
C28 C27 1.383 . S
C28 C29 1.395 . S
C29 H6 0.950 . S
C29 C28 1.395 . S
C29 C30 1.288 . S
C30 C29 1.288 . S
C30 C31 1.392 . S
C31 H7 0.951 . S
C31 C30 1.392 . S
C31 C32 1.392 . S
C32 H8 0.919 1_545 S
C32 C27 1.382 . S
C32 C31 1.392 . S
C33 C34 1.376 . S
C33 C38 1.386 . S
C33 C39 1.483 . S
C34 H9 0.949 . S
C34 C33 1.376 . S
C34 C35 1.397 . S
C35 H10 0.950 . S
C35 C34 1.397 . S
C35 C36 1.391 . S
C36 C35 1.391 . S
C36 C37 1.405 . S
C37 H11 0.950 . S
C37 C36 1.405 . S
C37 C38 1.367 . S
C38 H12 0.950 . S
C38 C33 1.386 . S
C38 C37 1.367 . S
C39 C33 1.483 . S
C39 C40 1.367 1_565 S
C39 C41 1.403 . S
C40 H13 0.946 1_545 S
C40 C26 1.430 . S
C40 C39 1.367 1_545 S
C41 C25 1.411 1_565 S
C41 C39 1.403 . S
C41 C42 1.489 . S
C42 C41 1.489 . S
C42 C43 1.383 . S
C42 C47 1.382 . S
C43 H14 0.950 . S
C43 C42 1.383 . S
C43 C44 1.395 . S
C44 H15 0.950 . S
C44 C43 1.395 . S
C44 C45 1.288 . S
C45 C44 1.288 . S
C45 C46 1.392 . S
C46 H16 0.951 . S
C46 C45 1.392 . S
C46 C47 1.392 . S
C47 H17 0.949 1_565 S
C47 C42 1.382 . S
C47 C46 1.392 . S
H48 C67 0.949 1_455 S
H49 C68 0.950 . S
H50 C70 0.950 . S
H51 C71 0.950 . S
H52 C73 0.950 . S
H53 C76 0.950 . S
H54 C77 0.950 . S
H55 C79 0.951 . S
H56 C80 0.949 . S
H57 C82 0.949 . S
H58 C83 0.950 . S
H59 C85 0.950 . S
H60 C86 0.950 . S
H61 C88 0.950 1_655 S
H62 C91 0.950 . S
H63 C92 0.950 . S
H64 C94 0.951 . S
H65 C95 0.949 . S
C66 C67 1.376 . S
C66 C71 1.386 . S
C66 C72 1.483 . S
C67 H48 0.949 1_655 S
C67 C66 1.376 . S
C67 C68 1.397 . S
C68 H49 0.950 . S
C68 C67 1.397 . S
C68 C69 1.391 . S
C69 C68 1.391 . S
C69 C70 1.405 . S
C70 H50 0.950 . S
C70 C69 1.405 . S
C70 C71 1.367 . S
C71 H51 0.950 . S
C71 C66 1.386 . S
C71 C70 1.367 . S
C72 C66 1.483 . S
C72 C73 1.382 1_655 S
C72 C74 1.403 . S
C73 H52 0.950 . S
C73 C72 1.382 1_455 S
C73 C89 1.411 . S
C74 C72 1.403 . S
C74 C75 1.489 . S
C74 C88 1.411 1_655 S
C75 C74 1.489 . S
C75 C76 1.383 . S
C75 C80 1.382 . S
C76 H53 0.950 . S
C76 C75 1.383 . S
C76 C77 1.395 . S
C77 H54 0.950 . S
C77 C76 1.395 . S
C77 C78 1.288 . S
C78 C77 1.288 . S
C78 C79 1.392 . S
C79 H55 0.951 . S
C79 C78 1.392 . S
C79 C80 1.392 . S
C80 H56 0.949 . S
C80 C75 1.382 . S
C80 C79 1.392 . S
C81 C82 1.376 . S
C81 C86 1.386 . S
C81 C87 1.483 . S
C82 H57 0.949 . S
C82 C81 1.376 . S
C82 C83 1.397 . S
C83 H58 0.950 . S
C83 C82 1.397 . S
C83 C84 1.391 . S
C84 C83 1.391 . S
C84 C85 1.405 . S
C85 H59 0.950 . S
C85 C84 1.405 . S
C85 C86 1.367 . S
C86 H60 0.950 . S
C86 C81 1.386 . S
C86 C85 1.367 . S
C87 C81 1.483 . S
C87 C88 1.382 . S
C87 C89 1.403 . S
C88 H61 0.950 1_455 S
C88 C74 1.411 1_455 S
C88 C87 1.382 . S
C89 C73 1.411 . S
C89 C87 1.403 . S
C89 C90 1.489 . S
C90 C89 1.489 . S
C90 C91 1.383 . S
C90 C95 1.382 . S
C91 H62 0.950 . S
C91 C90 1.383 . S
C91 C92 1.395 . S
C92 H63 0.950 . S
C92 C91 1.395 . S
C92 C93 1.288 . S
C93 C92 1.288 . S
C93 C94 1.392 . S
C94 H64 0.951 . S
C94 C93 1.392 . S
C94 C95 1.392 . S
C95 H65 0.949 . S
C95 C90 1.382 . S
C95 C94 1.392 . S
H96 C115 0.949 . S
H97 C116 0.950 . S
H98 C118 0.950 . S
H99 C119 0.950 . S
H100 C121 0.950 . S
H101 C124 0.950 . S
H102 C125 0.950 . S
H103 C127 0.951 . S
H104 C128 0.949 . S
H105 C130 0.949 . S
H106 C131 0.950 . S
H107 C133 0.950 . S
H108 C134 0.950 . S
H109 C136 0.950 . S
H110 C139 0.950 . S
H111 C140 0.950 . S
H112 C142 0.951 . S
H113 C143 0.949 . S
C114 C115 1.376 . S
C114 C119 1.386 . S
C114 C120 1.483 . S
C115 H96 0.949 . S
C115 C114 1.376 . S
C115 C116 1.397 . S
C116 H97 0.950 . S
C116 C115 1.397 . S
C116 C117 1.391 . S
C117 C116 1.391 . S
C117 C118 1.405 . S
C118 H98 0.950 . S
C118 C117 1.405 . S
C118 C119 1.367 . S
C119 H99 0.950 . S
C119 C114 1.386 . S
C119 C118 1.367 . S
C120 C114 1.483 . S
C120 C121 1.382 . S
C120 C122 1.403 . S
C121 H100 0.950 . S
C121 C120 1.382 . S
C121 C137 1.411 . S
C122 C120 1.403 . S
C122 C123 1.489 . S
C122 C136 1.411 . S
C123 C122 1.489 . S
C123 C124 1.383 . S
C123 C128 1.382 . S
C124 H101 0.950 . S
C124 C123 1.383 . S
C124 C125 1.395 . S
C125 H102 0.950 . S
C125 C124 1.395 . S
C125 C126 1.288 . S
C126 C125 1.288 . S
C126 C127 1.392 . S
C127 H103 0.951 . S
C127 C126 1.392 . S
C127 C128 1.392 . S
C128 H104 0.949 . S
C128 C123 1.382 . S
C128 C127 1.392 . S
C129 C130 1.376 . S
C129 C134 1.386 . S
C129 C135 1.483 . S
C130 H105 0.949 . S
C130 C129 1.376 . S
C130 C131 1.397 . S
C131 H106 0.950 . S
C131 C130 1.397 . S
C131 C132 1.391 . S
C132 C131 1.391 . S
C132 C133 1.405 . S
C133 H107 0.950 . S
C133 C132 1.405 . S
C133 C134 1.367 . S
C134 H108 0.950 . S
C134 C129 1.386 . S
C134 C133 1.367 . S
C135 C129 1.483 . S
C135 C136 1.382 . S
C135 C137 1.403 . S
C136 H109 0.950 . S
C136 C122 1.411 . S
C136 C135 1.382 . S
C137 C121 1.411 . S
C137 C135 1.403 . S
C137 C138 1.489 . S
C138 C137 1.489 . S
C138 C139 1.383 . S
C138 C143 1.382 . S
C139 H110 0.950 . S
C139 C138 1.383 . S
C139 C140 1.395 . S
C140 H111 0.950 . S
C140 C139 1.395 . S
C140 C141 1.288 . S
C141 C140 1.288 . S
C141 C142 1.392 . S
C142 H112 0.951 . S
C142 C141 1.392 . S
C142 C143 1.392 . S
C143 H113 0.949 . S
C143 C138 1.382 . S
C143 C142 1.392 . S
H144 C163 0.949 . S
H145 C164 0.950 . S
H146 C166 0.950 . S
H147 C167 0.950 . S
H148 C169 0.953 . S
H149 C172 0.950 . S
H150 C173 0.950 . S
H151 C175 0.951 . S
H152 C176 0.949 . S
H153 C178 0.949 . S
H154 C179 0.950 . S
H155 C181 0.950 . S
H156 C182 0.950 . S
H157 C184 0.950 . S
H158 C187 0.950 . S
H159 C188 0.950 . S
H160 C190 0.951 . S
H161 C191 0.949 . S
C162 C163 1.376 . S
C162 C167 1.386 . S
C162 C168 1.483 . S
C163 H144 0.949 . S
C163 C162 1.376 . S
C163 C164 1.397 . S
C164 H145 0.950 . S
C164 C163 1.397 . S
C164 C165 1.391 . S
C165 C164 1.391 . S
C165 C166 1.405 . S
C166 H146 0.950 . S
C166 C165 1.405 . S
C166 C167 1.367 . S
C167 H147 0.950 . S
C167 C162 1.386 . S
C167 C166 1.367 . S
C168 C162 1.483 . S
C168 C169 1.399 . S
C168 C170 1.403 . S
C169 H148 0.953 . S
C169 C168 1.399 . S
C169 C185 1.392 1_565 S
C170 C168 1.403 . S
C170 C171 1.489 . S
C170 C184 1.411 1_565 S
C171 C170 1.489 . S
C171 C172 1.383 . S
C171 C176 1.382 . S
C172 H149 0.950 . S
C172 C171 1.383 . S
C172 C173 1.395 . S
C173 H150 0.950 . S
C173 C172 1.395 . S
C173 C174 1.288 . S
C174 C173 1.288 . S
C174 C175 1.392 . S
C175 H151 0.951 . S
C175 C174 1.392 . S
C175 C176 1.392 . S
C176 H152 0.949 . S
C176 C171 1.382 . S
C176 C175 1.392 . S
C177 C178 1.376 . S
C177 C182 1.386 . S
C177 C183 1.483 . S
C178 H153 0.949 . S
C178 C177 1.376 . S
C178 C179 1.397 . S
C179 H154 0.950 . S
C179 C178 1.397 . S
C179 C180 1.391 . S
C180 C179 1.391 . S
C180 C181 1.405 . S
C181 H155 0.950 . S
C181 C180 1.405 . S
C181 C182 1.367 . S
C182 H156 0.950 . S
C182 C177 1.386 . S
C182 C181 1.367 . S
C183 C177 1.483 . S
C183 C184 1.382 . S
C183 C185 1.403 . S
C184 H157 0.950 . S
C184 C170 1.411 1_545 S
C184 C183 1.382 . S
C185 C169 1.392 1_545 S
C185 C183 1.403 . S
C185 C186 1.489 . S
C186 C185 1.489 . S
C186 C187 1.383 . S
C186 C191 1.382 . S
C187 H158 0.950 . S
C187 C186 1.383 . S
C187 C188 1.395 . S
C188 H159 0.950 . S
C188 C187 1.395 . S
C188 C189 1.288 . S
C189 C188 1.288 . S
C189 C190 1.392 . S
C190 H160 0.951 . S
C190 C189 1.392 . S
C190 C191 1.392 . S
C191 H161 0.949 . S
C191 C186 1.382 . S
C191 C190 1.392 . S
H192 C211 0.949 . S
H193 C212 0.950 . S
H194 C214 0.950 . S
H195 C215 0.950 . S
H196 C217 0.950 . S
H197 C220 0.950 . S
H198 C221 0.950 . S
H199 C223 0.951 1_554 S
H200 C224 0.949 . S
H201 C226 0.949 . S
H202 C227 0.950 . S
H203 C229 0.950 . S
H204 C230 0.950 . S
H205 C232 0.950 . S
H206 C235 0.950 . S
H207 C236 0.950 . S
H208 C238 0.951 . S
H209 C239 0.949 . S
C210 C211 1.376 . S
C210 C215 1.386 . S
C210 C216 1.483 . S
C211 H192 0.949 . S
C211 C210 1.376 . S
C211 C212 1.397 . S
C212 H193 0.950 . S
C212 C211 1.397 . S
C212 C213 1.391 . S
C213 C212 1.391 . S
C213 C214 1.405 . S
C214 H194 0.950 . S
C214 C213 1.405 . S
C214 C215 1.367 . S
C215 H195 0.950 . S
C215 C210 1.386 . S
C215 C214 1.367 . S
C216 C210 1.483 . S
C216 C217 1.382 1_455 S
C216 C218 1.403 . S
C217 H196 0.950 . S
C217 C216 1.382 1_655 S
C217 C233 1.411 . S
C218 C216 1.403 . S
C218 C219 1.489 . S
C218 C232 1.411 . S
C219 C218 1.489 . S
C219 C220 1.383 . S
C219 C224 1.382 . S
C220 H197 0.950 . S
C220 C219 1.383 . S
C220 C221 1.395 . S
C221 H198 0.950 . S
C221 C220 1.395 . S
C221 C222 1.288 . S
C222 C221 1.288 . S
C222 C223 1.392 . S
C223 H199 0.951 1_556 S
C223 C222 1.392 . S
C223 C224 1.392 . S
C224 H200 0.949 . S
C224 C219 1.382 . S
C224 C223 1.392 . S
C225 C226 1.376 . S
C225 C230 1.386 . S
C225 C231 1.483 . S
C226 H201 0.949 . S
C226 C225 1.376 . S
C226 C227 1.397 . S
C227 H202 0.950 . S
C227 C226 1.397 . S
C227 C228 1.391 . S
C228 C227 1.391 . S
C228 C229 1.405 . S
C229 H203 0.950 . S
C229 C228 1.405 . S
C229 C230 1.367 . S
C230 H204 0.950 . S
C230 C225 1.386 . S
C230 C229 1.367 . S
C231 C225 1.483 . S
C231 C232 1.382 1_655 S
C231 C233 1.403 . S
C232 H205 0.950 . S
C232 C218 1.411 . S
C232 C231 1.382 1_455 S
C233 C217 1.411 . S
C233 C231 1.403 . S
C233 C234 1.489 . S
C234 C233 1.489 . S
C234 C235 1.383 . S
C234 C239 1.382 . S
C235 H206 0.950 . S
C235 C234 1.383 . S
C235 C236 1.395 . S
C236 H207 0.950 . S
C236 C235 1.395 . S
C236 C237 1.288 . S
C237 C236 1.288 . S
C237 C238 1.392 . S
C238 H208 0.951 . S
C238 C237 1.392 . S
C238 C239 1.392 . S
C239 H209 0.949 . S
C239 C234 1.382 . S
C239 C238 1.392 . S
H240 C259 0.949 . S
H241 C260 0.950 . S
H242 C262 0.950 . S
H243 C263 0.950 . S
H244 C265 0.950 . S
H245 C268 0.950 . S
H246 C269 0.950 . S
H247 C271 0.951 . S
H248 C272 0.949 . S
H249 C274 0.949 . S
H250 C275 0.950 . S
H251 C277 0.950 . S
H252 C278 0.950 . S
H253 C280 0.950 . S
H254 C283 0.950 . S
H255 C284 0.950 . S
H256 C286 0.951 . S
H257 C287 0.949 . S
C258 C259 1.376 . S
C258 C263 1.386 . S
C258 C264 1.483 . S
C259 H240 0.949 . S
C259 C258 1.376 . S
C259 C260 1.397 . S
C260 H241 0.950 . S
C260 C259 1.397 . S
C260 C261 1.391 . S
C261 C260 1.391 . S
C261 C262 1.405 . S
C262 H242 0.950 . S
C262 C261 1.405 . S
C262 C263 1.367 . S
C263 H243 0.950 . S
C263 C258 1.386 . S
C263 C262 1.367 . S
C264 C258 1.483 . S
C264 C265 1.382 . S
C264 C266 1.403 . S
C265 H244 0.950 . S
C265 C264 1.382 . S
C265 C281 1.411 . S
C266 C264 1.403 . S
C266 C267 1.489 . S
C266 C280 1.411 . S
C267 C266 1.489 . S
C267 C268 1.383 . S
C267 C272 1.382 . S
C268 H245 0.950 . S
C268 C267 1.383 . S
C268 C269 1.395 . S
C269 H246 0.950 . S
C269 C268 1.395 . S
C269 C270 1.288 . S
C270 C269 1.288 . S
C270 C271 1.392 . S
C271 H247 0.951 . S
C271 C270 1.392 . S
C271 C272 1.392 . S
C272 H248 0.949 . S
C272 C267 1.382 . S
C272 C271 1.392 . S
C273 C274 1.376 . S
C273 C278 1.386 . S
C273 C279 1.483 . S
C274 H249 0.949 . S
C274 C273 1.376 . S
C274 C275 1.397 . S
C275 H250 0.950 . S
C275 C274 1.397 . S
C275 C276 1.391 . S
C276 C275 1.391 . S
C276 C277 1.405 . S
C277 H251 0.950 . S
C277 C276 1.405 . S
C277 C278 1.367 . S
C278 H252 0.950 . S
C278 C273 1.386 . S
C278 C277 1.367 . S
C279 C273 1.483 . S
C279 C280 1.382 . S
C279 C281 1.403 . S
C280 H253 0.950 . S
C280 C266 1.411 . S
C280 C279 1.382 . S
C281 C265 1.411 . S
C281 C279 1.403 . S
C281 C282 1.489 . S
C282 C281 1.489 . S
C282 C283 1.383 . S
C282 C287 1.382 . S
C283 H254 0.950 . S
C283 C282 1.383 . S
C283 C284 1.395 . S
C284 H255 0.950 . S
C284 C283 1.395 . S
C284 C285 1.288 . S
C285 C284 1.288 . S
C285 C286 1.392 . S
C286 H256 0.951 . S
C286 C285 1.392 . S
C286 C287 1.392 . S
C287 H257 0.949 . S
C287 C282 1.382 . S
C287 C286 1.392 . S
H288 C307 0.949 . S
H289 C308 0.950 . S
H290 C310 0.950 . S
H291 C311 0.950 . S
H292 C313 0.950 . S
H293 C316 0.950 . S
H294 C317 0.950 . S
H295 C319 0.951 . S
H296 C320 0.949 1_545 S
H297 C322 0.949 . S
H298 C323 0.950 . S
H299 C325 0.950 . S
H300 C326 0.950 . S
H301 C328 0.950 . S
H302 C331 0.950 . S
H303 C332 0.950 . S
H304 C334 0.951 . S
H305 C335 0.949 1_565 S
C306 C307 1.376 . S
C306 C311 1.386 . S
C306 C312 1.483 . S
C307 H288 0.949 . S
C307 C306 1.376 . S
C307 C308 1.397 . S
C308 H289 0.950 . S
C308 C307 1.397 . S
C308 C309 1.391 . S
C309 C308 1.391 . S
C309 C310 1.405 . S
C310 H290 0.950 . S
C310 C309 1.405 . S
C310 C311 1.367 . S
C311 H291 0.950 . S
C311 C306 1.386 . S
C311 C310 1.367 . S
C312 C306 1.483 . S
C312 C313 1.382 . S
C312 C314 1.403 . S
C313 H292 0.950 . S
C313 C312 1.382 . S
C313 C329 1.411 1_565 S
C314 C312 1.403 . S
C314 C315 1.489 . S
C314 C328 1.411 1_565 S
C315 C314 1.489 . S
C315 C316 1.383 . S
C315 C320 1.382 . S
C316 H293 0.950 . S
C316 C315 1.383 . S
C316 C317 1.395 . S
C317 H294 0.950 . S
C317 C316 1.395 . S
C317 C318 1.288 . S
C318 C317 1.288 . S
C318 C319 1.392 . S
C319 H295 0.951 . S
C319 C318 1.392 . S
C319 C320 1.392 . S
C320 H296 0.949 1_565 S
C320 C315 1.382 . S
C320 C319 1.392 . S
C321 C322 1.376 . S
C321 C326 1.386 . S
C321 C327 1.483 . S
C322 H297 0.949 . S
C322 C321 1.376 . S
C322 C323 1.397 . S
C323 H298 0.950 . S
C323 C322 1.397 . S
C323 C324 1.391 . S
C324 C323 1.391 . S
C324 C325 1.405 . S
C325 H299 0.950 . S
C325 C324 1.405 . S
C325 C326 1.367 . S
C326 H300 0.950 . S
C326 C321 1.386 . S
C326 C325 1.367 . S
C327 C321 1.483 . S
C327 C328 1.382 . S
C327 C329 1.403 . S
C328 H301 0.950 . S
C328 C314 1.411 1_545 S
C328 C327 1.382 . S
C329 C313 1.411 1_545 S
C329 C327 1.403 . S
C329 C330 1.489 . S
C330 C329 1.489 . S
C330 C331 1.383 . S
C330 C335 1.382 . S
C331 H302 0.950 . S
C331 C330 1.383 . S
C331 C332 1.395 . S
C332 H303 0.950 . S
C332 C331 1.395 . S
C332 C333 1.288 . S
C333 C332 1.288 . S
C333 C334 1.392 . S
C334 H304 0.951 . S
C334 C333 1.392 . S
C334 C335 1.392 . S
C335 H305 0.949 1_545 S
C335 C330 1.382 . S
C335 C334 1.392 . S
H336 C355 0.949 . S
H337 C356 0.949 . S
H338 C358 0.950 . S
H339 C359 0.950 . S
H340 C361 0.950 . S
H341 C364 0.950 1_455 S
H342 C365 0.950 . S
H343 C367 0.951 . S
H344 C368 0.949 . S
H345 C370 0.949 . S
H346 C371 0.950 . S
H347 C373 0.950 . S
H348 C374 0.967 . S
H349 C376 0.950 . S
H350 C379 0.950 . S
H351 C380 0.950 . S
H352 C382 0.951 . S
H353 C383 0.949 . S
C354 C355 1.376 1_655 S
C354 C359 1.386 . S
C354 C360 1.483 1_655 S
C355 H336 0.949 . S
C355 C354 1.376 1_455 S
C355 C356 1.397 1_455 S
C356 H337 0.949 . S
C356 C355 1.397 1_655 S
C356 C357 1.391 . S
C357 C356 1.391 . S
C357 C358 1.405 . S
C358 H338 0.950 . S
C358 C357 1.405 . S
C358 C359 1.367 . S
C359 H339 0.950 . S
C359 C354 1.386 . S
C359 C358 1.367 . S
C360 C354 1.483 1_455 S
C360 C361 1.382 . S
C360 C362 1.403 . S
C361 H340 0.950 . S
C361 C360 1.382 . S
C361 C377 1.411 . S
C362 C360 1.403 . S
C362 C363 1.489 1_455 S
C362 C376 1.411 . S
C363 C362 1.489 1_655 S
C363 C364 1.383 . S
C363 C368 1.382 . S
C364 H341 0.950 1_655 S
C364 C363 1.383 . S
C364 C365 1.395 . S
C365 H342 0.950 . S
C365 C364 1.395 . S
C365 C366 1.288 . S
C366 C365 1.288 . S
C366 C367 1.392 . S
C367 H343 0.951 . S
C367 C366 1.392 . S
C367 C368 1.392 . S
C368 H344 0.949 . S
C368 C363 1.382 . S
C368 C367 1.392 . S
C369 C370 1.376 . S
C369 C374 1.386 . S
C369 C375 1.483 1_565 S
C370 H345 0.949 . S
C370 C369 1.376 . S
C370 C371 1.397 . S
C371 H346 0.950 . S
C371 C370 1.397 . S
C371 C372 1.391 . S
C372 C371 1.391 . S
C372 C373 1.405 . S
C373 H347 0.950 . S
C373 C372 1.405 . S
C373 C374 1.367 . S
C374 H348 0.967 . S
C374 C369 1.386 . S
C374 C373 1.367 . S
C375 C369 1.483 1_545 S
C375 C376 1.382 . S
C375 C377 1.403 . S
C376 H349 0.950 . S
C376 C362 1.411 . S
C376 C375 1.382 . S
C377 C361 1.411 . S
C377 C375 1.403 . S
C377 C378 1.489 1_545 S
C378 C377 1.489 1_565 S
C378 C379 1.383 . S
C378 C383 1.382 1_565 S
C379 H350 0.950 . S
C379 C378 1.383 . S
C379 C380 1.395 . S
C380 H351 0.950 . S
C380 C379 1.395 . S
C380 C381 1.288 . S
C381 C380 1.288 . S
C381 C382 1.392 . S
C382 H352 0.951 . S
C382 C381 1.392 . S
C382 C383 1.392 1_565 S
C383 H353 0.949 . S
C383 C378 1.382 1_545 S
C383 C382 1.392 1_545 S
Zn384 O387 2.031 . S
Zn384 O389 2.049 . S
Zn384 O394 2.067 . S
Zn385 O386 1.962 . S
Zn385 O388 1.986 . S
Zn385 O390 1.996 . S
Zn385 O393 1.943 1_554 S
O386 Zn385 1.962 . S
O386 C391 1.297 . S
O387 Zn384 2.031 . S
O387 C391 1.229 1_556 S
O388 Zn385 1.986 . S
O388 C395 1.262 . S
O389 Zn384 2.049 . S
O389 C397 1.260 1_556 S
O390 Zn385 1.996 . S
O390 C397 1.257 . S
C391 O386 1.297 . S
C391 O387 1.229 1_554 S
C392 O393 1.249 . S
C392 O394 1.270 . S
O393 Zn385 1.943 1_556 S
O393 C392 1.249 . S
O394 Zn384 2.067 . S
O394 C392 1.270 . S
C395 O388 1.262 . S
C395 O396 1.232 . S
O396 C395 1.232 . S
C397 O389 1.260 1_554 S
C397 O390 1.257 . S
Zn398 O401 2.031 . S
Zn398 O403 2.049 . S
Zn398 O408 2.067 . S
Zn399 O400 1.962 . S
Zn399 O402 1.986 . S
Zn399 O404 1.996 . S
Zn399 O407 1.943 . S
O400 Zn399 1.962 . S
O400 C405 1.254 . S
O401 Zn398 2.031 . S
O401 C405 1.269 . S
O402 Zn399 1.986 . S
O402 C409 1.262 . S
O403 Zn398 2.049 . S
O403 C411 1.260 . S
O404 Zn399 1.996 . S
O404 C411 1.257 . S
C405 O400 1.254 . S
C405 O401 1.269 . S
C406 O407 1.249 . S
C406 O408 1.270 . S
O407 Zn399 1.943 . S
O407 C406 1.249 . S
O408 Zn398 2.067 . S
O408 C406 1.270 . S
C409 O402 1.262 . S
C409 O410 1.232 . S
O410 C409 1.232 . S
C411 O403 1.260 . S
C411 O404 1.257 . S
Zn412 O415 2.031 . S
Zn412 O417 2.049 . S
Zn412 O422 2.067 . S
Zn413 O414 1.962 . S
Zn413 O416 1.986 . S
Zn413 O418 1.996 . S
Zn413 O421 1.943 . S
O414 Zn413 1.962 . S
O414 C419 1.254 . S
O415 Zn412 2.031 . S
O415 C419 1.269 . S
O416 Zn413 1.986 . S
O416 C423 1.262 . S
O417 Zn412 2.049 . S
O417 C425 1.260 . S
O418 Zn413 1.996 . S
O418 C425 1.257 . S
C419 O414 1.254 . S
C419 O415 1.269 . S
C420 O421 1.249 . S
C420 O422 1.270 . S
O421 Zn413 1.943 . S
O421 C420 1.249 . S
O422 Zn412 2.067 . S
O422 C420 1.270 . S
C423 O416 1.262 . S
C423 O424 1.232 . S
O424 C423 1.232 . S
C425 O417 1.260 . S
C425 O418 1.257 . S
Zn426 O429 2.031 . S
Zn426 O431 2.049 . S
Zn426 O436 2.067 . S
Zn427 O428 1.962 . S
Zn427 O430 1.986 . S
Zn427 O432 1.996 . S
Zn427 O435 1.943 . S
O428 Zn427 1.962 . S
O428 C433 1.254 . S
O429 Zn426 2.031 . S
O429 C433 1.269 . S
O430 Zn427 1.986 . S
O430 C437 1.262 . S
O431 Zn426 2.049 . S
O431 C439 1.260 . S
O432 Zn427 1.996 . S
O432 C439 1.257 . S
C433 O428 1.254 . S
C433 O429 1.269 . S
C434 O435 1.249 . S
C434 O436 1.270 . S
O435 Zn427 1.943 . S
O435 C434 1.249 . S
O436 Zn426 2.067 . S
O436 C434 1.270 . S
C437 O430 1.262 . S
C437 O438 1.232 . S
O438 C437 1.232 . S
C439 O431 1.260 . S
C439 O432 1.257 . S
Zn440 O443 2.031 . S
Zn440 O445 2.049 . S
Zn440 O450 2.067 . S
Zn441 O442 1.962 . S
Zn441 O444 1.986 . S
Zn441 O446 1.996 . S
Zn441 O449 1.943 . S
O442 Zn441 1.962 . S
O442 C447 1.254 . S
O443 Zn440 2.031 . S
O443 C447 1.269 . S
O444 Zn441 1.986 . S
O444 C451 1.262 . S
O445 Zn440 2.049 . S
O445 C453 1.260 . S
O446 Zn441 1.996 . S
O446 C453 1.257 . S
C447 O442 1.254 . S
C447 O443 1.269 . S
C448 O449 1.249 . S
C448 O450 1.270 . S
O449 Zn441 1.943 . S
O449 C448 1.249 . S
O450 Zn440 2.067 . S
O450 C448 1.270 . S
C451 O444 1.262 . S
C451 O452 1.232 . S
O452 C451 1.232 . S
C453 O445 1.260 . S
C453 O446 1.257 . S
Zn454 O457 2.031 . S
Zn454 O459 2.049 . S
Zn454 O464 2.067 . S
Zn455 O456 1.962 . S
Zn455 O458 1.986 . S
Zn455 O460 1.996 . S
Zn455 O463 1.943 . S
O456 Zn455 1.962 . S
O456 C461 1.254 . S
O457 Zn454 2.031 . S
O457 C461 1.269 . S
O458 Zn455 1.986 . S
O458 C465 1.262 . S
O459 Zn454 2.049 . S
O459 C467 1.260 . S
O460 Zn455 1.996 . S
O460 C467 1.257 . S
C461 O456 1.254 . S
C461 O457 1.269 . S
C462 O463 1.249 . S
C462 O464 1.270 . S
O463 Zn455 1.943 . S
O463 C462 1.249 . S
O464 Zn454 2.067 . S
O464 C462 1.270 . S
C465 O458 1.262 . S
C465 O466 1.232 . S
O466 C465 1.232 . S
C467 O459 1.260 . S
C467 O460 1.257 . S
Zn468 O471 2.031 . S
Zn468 O473 2.049 . S
Zn468 O478 2.067 . S
Zn469 O470 1.962 . S
Zn469 O472 1.986 . S
Zn469 O474 1.996 . S
Zn469 O477 1.943 1_556 S
O470 Zn469 1.962 . S
O470 C475 1.254 1_556 S
O471 Zn468 2.031 . S
O471 C475 1.269 . S
O472 Zn469 1.986 . S
O472 C479 1.262 . S
O473 Zn468 2.049 . S
O473 C481 1.260 . S
O474 Zn469 1.996 . S
O474 C481 1.257 1_556 S
C475 O470 1.254 1_554 S
C475 O471 1.269 . S
C476 O477 1.249 . S
C476 O478 1.270 . S
O477 Zn469 1.943 1_554 S
O477 C476 1.249 . S
O478 Zn468 2.067 . S
O478 C476 1.270 . S
C479 O472 1.262 . S
C479 O480 1.232 . S
O480 C479 1.232 . S
C481 O473 1.260 . S
C481 O474 1.257 1_554 S
Zn482 O485 2.031 . S
Zn482 O487 2.049 . S
Zn482 O492 2.067 . S
Zn483 O484 1.962 . S
Zn483 O486 1.986 . S
Zn483 O488 1.996 . S
Zn483 O491 1.943 . S
O484 Zn483 1.962 . S
O484 C489 1.254 . S
O485 Zn482 2.031 . S
O485 C489 1.269 . S
O486 Zn483 1.986 . S
O486 C493 1.262 . S
O487 Zn482 2.049 . S
O487 C495 1.260 . S
O488 Zn483 1.996 . S
O488 C495 1.257 . S
C489 O484 1.254 . S
C489 O485 1.269 . S
C490 O491 1.249 . S
C490 O492 1.270 . S
O491 Zn483 1.943 . S
O491 C490 1.249 . S
O492 Zn482 2.067 . S
O492 C490 1.270 . S
C493 O486 1.262 . S
C493 O494 1.232 . S
O494 C493 1.232 . S
C495 O487 1.260 . S
C495 O488 1.257 . S
C496 C497 1.387 . S
C496 H500 0.950 . S
C496 C505 1.390 . S
C497 C496 1.387 . S
C497 C499 1.387 . S
H498 C505 0.950 . S
C499 C497 1.387 . S
C499 C501 1.390 . S
C499 H503 0.950 . S
H500 C496 0.950 . S
C501 C499 1.390 . S
C501 C502 1.387 . S
C501 H504 0.950 . S
C502 C501 1.387 . S
C502 C505 1.387 . S
H503 C499 0.950 . S
H504 C501 0.950 . S
C505 C496 1.390 . S
C505 H498 0.950 . S
C505 C502 1.387 . S
C506 C507 1.387 . S
C506 H510 0.950 . S
C506 C515 1.390 . S
C507 C506 1.387 . S
C507 C509 1.387 . S
H508 C515 0.950 . S
C509 C507 1.387 . S
C509 C511 1.390 . S
C509 H513 0.950 . S
H510 C506 0.950 . S
C511 C509 1.390 . S
C511 C512 1.387 . S
C511 H514 0.950 . S
C512 C511 1.387 . S
C512 C515 1.387 . S
H513 C509 0.950 . S
H514 C511 0.950 . S
C515 C506 1.390 . S
C515 H508 0.950 . S
C515 C512 1.387 . S
C516 C517 1.387 . S
C516 H520 0.950 . S
C516 C525 1.390 . S
C517 C516 1.387 . S
C517 C519 1.387 . S
H518 C525 0.950 . S
C519 C517 1.387 . S
C519 C521 1.390 . S
C519 H523 0.950 . S
H520 C516 0.950 . S
C521 C519 1.390 . S
C521 C522 1.387 . S
C521 H524 0.950 . S
C522 C521 1.387 . S
C522 C525 1.387 . S
H523 C519 0.950 . S
H524 C521 0.950 . S
C525 C516 1.390 . S
C525 H518 0.950 . S
C525 C522 1.387 . S
C526 C527 1.387 1_556 S
C526 H530 0.950 . S
C526 C535 1.390 . S
C527 C526 1.387 1_554 S
C527 C529 1.387 . S
H528 C535 0.950 . S
C529 C527 1.387 . S
C529 C531 1.390 . S
C529 H533 0.950 . S
H530 C526 0.950 . S
C531 C529 1.390 . S
C531 C532 1.387 . S
C531 H534 0.950 . S
C532 C531 1.387 . S
C532 C535 1.387 1_554 S
H533 C529 0.950 . S
H534 C531 0.950 . S
C535 C526 1.390 . S
C535 H528 0.950 . S
C535 C532 1.387 1_556 S
C536 C537 1.387 . S
C536 H540 0.950 . S
C536 C545 1.390 . S
C537 C536 1.387 . S
C537 C539 1.387 1_554 S
H538 C545 0.950 . S
C539 C537 1.387 1_556 S
C539 C541 1.390 . S
C539 H543 0.950 . S
H540 C536 0.950 . S
C541 C539 1.390 . S
C541 C542 1.387 . S
C541 H544 0.950 . S
C542 C541 1.387 . S
C542 C545 1.388 1_556 S
H543 C539 0.950 . S
H544 C541 0.950 . S
C545 C536 1.390 . S
C545 H538 0.950 . S
C545 C542 1.388 1_554 S
C546 C547 1.387 . S
C546 H550 0.950 . S
C546 C555 1.390 . S
C547 C546 1.387 . S
C547 C549 1.387 . S
H548 C555 0.950 . S
C549 C547 1.387 . S
C549 C551 1.390 . S
C549 H553 0.950 . S
H550 C546 0.950 . S
C551 C549 1.390 . S
C551 C552 1.387 . S
C551 H554 0.950 . S
C552 C551 1.387 . S
C552 C555 1.387 . S
H553 C549 0.950 . S
H554 C551 0.950 . S
C555 C546 1.390 . S
C555 H548 0.950 . S
C555 C552 1.387 . S
C556 C557 1.387 . S
C556 H560 0.950 . S
C556 C565 1.390 . S
C557 C556 1.387 . S
C557 C559 1.387 . S
H558 C565 0.950 . S
C559 C557 1.387 . S
C559 C561 1.390 . S
C559 H563 0.950 . S
H560 C556 0.950 . S
C561 C559 1.390 . S
C561 C562 1.387 . S
C561 H564 0.950 . S
C562 C561 1.387 . S
C562 C565 1.387 . S
H563 C559 0.950 . S
H564 C561 0.950 . S
C565 C556 1.390 . S
C565 H558 0.950 . S
C565 C562 1.387 . S
C566 C567 1.387 . S
C566 H570 0.950 . S
C566 C575 1.390 . S
C567 C566 1.387 . S
C567 C569 1.387 . S
H568 C575 0.950 . S
C569 C567 1.387 . S
C569 C571 1.390 . S
C569 H573 0.950 . S
H570 C566 0.950 . S
C571 C569 1.390 . S
C571 C572 1.387 . S
C571 H574 0.950 . S
C572 C571 1.387 . S
C572 C575 1.387 . S
H573 C569 0.950 . S
H574 C571 0.950 . S
C575 C566 1.390 . S
C575 H568 0.950 . S
C575 C572 1.387 . S
C576 C577 1.387 . S
C576 H580 0.950 . S
C576 C585 1.390 . S
C577 C576 1.387 . S
C577 C579 1.387 . S
H578 C585 0.950 . S
C579 C577 1.387 . S
C579 C581 1.390 . S
C579 H583 0.950 . S
H580 C576 0.950 . S
C581 C579 1.390 . S
C581 C582 1.387 . S
C581 H584 0.950 . S
C582 C581 1.387 . S
C582 C585 1.387 . S
H583 C579 0.950 . S
H584 C581 0.950 . S
C585 C576 1.390 . S
C585 H578 0.950 . S
C585 C582 1.387 . S
C586 C587 1.387 . S
C586 H590 0.950 . S
C586 C595 1.390 . S
C587 C586 1.387 . S
C587 C589 1.387 1_554 S
H588 C595 0.950 . S
C589 C587 1.387 1_556 S
C589 C591 1.390 . S
C589 H593 0.950 . S
H590 C586 0.950 . S
C591 C589 1.390 . S
C591 C592 1.387 1_556 S
C591 H594 0.950 . S
C592 C591 1.387 1_554 S
C592 C595 1.387 . S
H593 C589 0.950 . S
H594 C591 0.950 . S
C595 C586 1.390 . S
C595 H588 0.950 . S
C595 C592 1.387 . S
C596 C597 1.387 . S
C596 H600 0.950 . S
C596 C605 1.390 . S
C597 C596 1.387 . S
C597 C599 1.387 . S
H598 C605 0.950 . S
C599 C597 1.387 . S
C599 C601 1.390 . S
C599 H603 0.950 . S
H600 C596 0.950 . S
C601 C599 1.390 . S
C601 C602 1.387 . S
C601 H604 0.950 . S
C602 C601 1.387 . S
C602 C605 1.387 . S
H603 C599 0.950 . S
H604 C601 0.950 . S
C605 C596 1.390 . S
C605 H598 0.950 . S
C605 C602 1.387 . S
C606 C607 1.387 . S
C606 H610 0.950 . S
C606 C615 1.390 . S
C607 C606 1.387 . S
C607 C609 1.387 . S
H608 C615 0.950 . S
C609 C607 1.387 . S
C609 C611 1.390 . S
C609 H613 0.950 . S
H610 C606 0.950 . S
C611 C609 1.390 . S
C611 C612 1.387 . S
C611 H614 0.950 . S
C612 C611 1.387 . S
C612 C615 1.387 . S
H613 C609 0.950 . S
H614 C611 0.950 . S
C615 C606 1.390 . S
C615 H608 0.950 . S
C615 C612 1.387 . S
C616 C617 1.387 . S
C616 H620 0.950 . S
C616 C625 1.390 . S
C617 C616 1.387 . S
C617 C619 1.387 . S
H618 C625 0.950 . S
C619 C617 1.387 . S
C619 C621 1.390 . S
C619 H623 0.950 . S
H620 C616 0.950 . S
C621 C619 1.390 . S
C621 C622 1.387 . S
C621 H624 0.950 . S
C622 C621 1.387 . S
C622 C625 1.387 . S
H623 C619 0.950 . S
H624 C621 0.950 . S
C625 C616 1.390 . S
C625 H618 0.950 . S
C625 C622 1.387 . S
C626 C627 1.387 . S
C626 H630 0.950 . S
C626 C635 1.390 . S
C627 C626 1.387 . S
C627 C629 1.387 . S
H628 C635 0.950 . S
C629 C627 1.387 . S
C629 C631 1.390 . S
C629 H633 0.950 . S
H630 C626 0.950 . S
C631 C629 1.390 . S
C631 C632 1.387 . S
C631 H634 0.950 . S
C632 C631 1.387 . S
C632 C635 1.387 . S
H633 C629 0.950 . S
H634 C631 0.950 . S
C635 C626 1.390 . S
C635 H628 0.950 . S
C635 C632 1.387 . S
C636 C637 1.387 1_554 S
C636 H640 0.950 . S
C636 C645 1.390 . S
C637 C636 1.387 1_556 S
C637 C639 1.387 . S
H638 C645 0.950 . S
C639 C637 1.387 . S
C639 C641 1.390 . S
C639 H643 0.950 . S
H640 C636 0.950 . S
C641 C639 1.390 . S
C641 C642 1.387 . S
C641 H644 0.950 . S
C642 C641 1.387 . S
C642 C645 1.387 1_556 S
H643 C639 0.950 . S
H644 C641 0.950 . S
C645 C636 1.390 . S
C645 H638 0.950 . S
C645 C642 1.387 1_554 S
C646 C647 1.387 . S
C646 H650 0.950 . S
C646 C655 1.390 . S
C647 C646 1.387 . S
C647 C649 1.387 . S
H648 C655 0.950 . S
C649 C647 1.387 . S
C649 C651 1.390 . S
C649 H653 0.950 . S
H650 C646 0.950 . S
C651 C649 1.390 . S
C651 C652 1.387 . S
C651 H654 0.950 . S
C652 C651 1.387 . S
C652 C655 1.387 . S
H653 C649 0.950 . S
H654 C651 0.950 . S
C655 C646 1.390 . S
C655 H648 0.950 . S
C655 C652 1.387 . S
C656 C657 1.387 . S
C656 H660 0.950 . S
C656 C665 1.390 . S
C657 C656 1.387 . S
C657 C659 1.387 . S
H658 C665 0.950 . S
C659 C657 1.387 . S
C659 C661 1.390 . S
C659 H663 0.950 . S
H660 C656 0.950 . S
C661 C659 1.390 . S
C661 C662 1.387 . S
C661 H664 0.950 . S
C662 C661 1.387 . S
C662 C665 1.387 . S
H663 C659 0.950 . S
H664 C661 0.950 . S
C665 C656 1.390 . S
C665 H658 0.950 . S
C665 C662 1.387 . S
C666 C667 1.387 . S
C666 H670 0.950 . S
C666 C675 1.390 . S
C667 C666 1.387 . S
C667 C669 1.387 . S
H668 C675 0.950 . S
C669 C667 1.387 . S
C669 C671 1.390 . S
C669 H673 0.950 . S
H670 C666 0.950 . S
C671 C669 1.390 . S
C671 C672 1.387 . S
C671 H674 0.950 . S
C672 C671 1.387 . S
C672 C675 1.387 . S
H673 C669 0.950 . S
H674 C671 0.950 . S
C675 C666 1.390 . S
C675 H668 0.950 . S
C675 C672 1.387 . S
C676 C677 1.387 . S
C676 H680 0.950 . S
C676 C685 1.390 . S
C677 C676 1.387 . S
C677 C679 1.387 . S
H678 C685 0.950 . S
C679 C677 1.387 . S
C679 C681 1.390 . S
C679 H683 0.950 . S
H680 C676 0.950 . S
C681 C679 1.390 . S
C681 C682 1.387 . S
C681 H684 0.950 . S
C682 C681 1.387 . S
C682 C685 1.387 . S
H683 C679 0.950 . S
H684 C681 0.950 . S
C685 C676 1.390 . S
C685 H678 0.950 . S
C685 C682 1.387 . S
C686 C687 1.387 . S
C686 H690 0.950 . S
C686 C695 1.390 . S
C687 C686 1.387 . S
C687 C689 1.387 . S
H688 C695 0.950 . S
C689 C687 1.387 . S
C689 C691 1.390 . S
C689 H693 0.950 . S
H690 C686 0.950 . S
C691 C689 1.390 . S
C691 C692 1.387 . S
C691 H694 0.950 . S
C692 C691 1.387 . S
C692 C695 1.387 . S
H693 C689 0.950 . S
H694 C691 0.950 . S
C695 C686 1.390 . S
C695 H688 0.950 . S
C695 C692 1.387 . S
C696 C697 1.387 . S
C696 H700 0.950 . S
C696 C705 1.390 . S
C697 C696 1.387 . S
C697 C699 1.387 . S
H698 C705 0.950 . S
C699 C697 1.387 . S
C699 C701 1.390 . S
C699 H703 0.950 . S
H700 C696 0.950 . S
C701 C699 1.390 . S
C701 C702 1.387 . S
C701 H704 0.950 . S
C702 C701 1.387 . S
C702 C705 1.387 . S
H703 C699 0.950 . S
H704 C701 0.950 . S
C705 C696 1.390 . S
C705 H698 0.950 . S
C705 C702 1.387 . S
C706 C707 1.387 . S
C706 H710 0.950 . S
C706 C715 1.390 . S
C707 C706 1.387 . S
C707 C709 1.387 . S
H708 C715 0.950 . S
C709 C707 1.387 . S
C709 C711 1.390 . S
C709 H713 0.950 . S
H710 C706 0.950 . S
C711 C709 1.390 . S
C711 C712 1.387 . S
C711 H714 0.950 . S
C712 C711 1.387 . S
C712 C715 1.387 . S
H713 C709 0.950 . S
H714 C711 0.950 . S
C715 C706 1.390 . S
C715 H708 0.950 . S
C715 C712 1.387 . S
C716 C717 1.387 . S
C716 H720 0.950 . S
C716 C725 1.390 . S
C717 C716 1.387 . S
C717 C719 1.387 . S
H718 C725 0.950 . S
C719 C717 1.387 . S
C719 C721 1.390 . S
C719 H723 0.950 . S
H720 C716 0.950 . S
C721 C719 1.390 . S
C721 C722 1.387 . S
C721 H724 0.950 . S
C722 C721 1.387 . S
C722 C725 1.387 . S
H723 C719 0.950 . S
H724 C721 0.950 . S
C725 C716 1.390 . S
C725 H718 0.950 . S
C725 C722 1.387 . S
C726 C727 1.387 . S
C726 H730 0.950 . S
C726 C735 1.390 . S
C727 C726 1.387 . S
C727 C729 1.387 . S
H728 C735 0.950 . S
C729 C727 1.387 . S
C729 C731 1.390 . S
C729 H733 0.950 . S
H730 C726 0.950 . S
C731 C729 1.390 . S
C731 C732 1.387 . S
C731 H734 0.950 . S
C732 C731 1.387 . S
C732 C735 1.387 . S
H733 C729 0.950 . S
H734 C731 0.950 . S
C735 C726 1.390 . S
C735 H728 0.950 . S
C735 C732 1.387 . S
C736 C737 1.387 . S
C736 H740 0.950 . S
C736 C745 1.390 . S
C737 C736 1.387 . S
C737 C739 1.387 . S
H738 C745 0.950 . S
C739 C737 1.387 . S
C739 C741 1.390 . S
C739 H743 0.950 . S
H740 C736 0.950 . S
C741 C739 1.390 . S
C741 C742 1.387 . S
C741 H744 0.950 . S
C742 C741 1.387 . S
C742 C745 1.387 . S
H743 C739 0.950 . S
H744 C741 0.950 . S
C745 C736 1.390 . S
C745 H738 0.950 . S
C745 C742 1.387 . S
C746 C747 1.387 . S
C746 H750 0.950 . S
C746 C755 1.390 . S
C747 C746 1.387 . S
C747 C749 1.387 . S
H748 C755 0.950 . S
C749 C747 1.387 . S
C749 C751 1.390 . S
C749 H753 0.950 . S
H750 C746 0.950 . S
C751 C749 1.390 . S
C751 C752 1.387 . S
C751 H754 0.950 . S
C752 C751 1.387 . S
C752 C755 1.387 . S
H753 C749 0.950 . S
H754 C751 0.950 . S
C755 C746 1.390 . S
C755 H748 0.950 . S
C755 C752 1.387 . S
C756 C757 1.387 . S
C756 H760 0.950 . S
C756 C765 1.390 . S
C757 C756 1.387 . S
C757 C759 1.387 . S
H758 C765 0.950 . S
C759 C757 1.387 . S
C759 C761 1.390 . S
C759 H763 0.950 . S
H760 C756 0.950 . S
C761 C759 1.390 . S
C761 C762 1.387 . S
C761 H764 0.950 . S
C762 C761 1.387 . S
C762 C765 1.387 . S
H763 C759 0.950 . S
H764 C761 0.950 . S
C765 C756 1.390 . S
C765 H758 0.950 . S
C765 C762 1.387 . S
C766 C767 1.387 . S
C766 H770 0.950 . S
C766 C775 1.390 . S
C767 C766 1.387 . S
C767 C769 1.387 . S
H768 C775 0.950 . S
C769 C767 1.387 . S
C769 C771 1.390 . S
C769 H773 0.950 . S
H770 C766 0.950 . S
C771 C769 1.390 . S
C771 C772 1.387 . S
C771 H774 0.950 . S
C772 C771 1.387 . S
C772 C775 1.387 . S
H773 C769 0.950 . S
H774 C771 0.950 . S
C775 C766 1.390 . S
C775 H768 0.950 . S
C775 C772 1.387 . S
C776 C777 1.387 . S
C776 H780 0.950 . S
C776 C785 1.390 . S
C777 C776 1.387 . S
C777 C779 1.387 . S
H778 C785 0.950 . S
C779 C777 1.387 . S
C779 C781 1.390 . S
C779 H783 0.950 . S
H780 C776 0.950 . S
C781 C779 1.390 . S
C781 C782 1.387 . S
C781 H784 0.950 . S
C782 C781 1.387 . S
C782 C785 1.387 . S
H783 C779 0.950 . S
H784 C781 0.950 . S
C785 C776 1.390 . S
C785 H778 0.950 . S
C785 C782 1.387 . S
C786 C787 1.387 . S
C786 H790 0.950 . S
C786 C795 1.390 . S
C787 C786 1.387 . S
C787 C789 1.387 . S
H788 C795 0.950 . S
C789 C787 1.387 . S
C789 C791 1.390 . S
C789 H793 0.950 . S
H790 C786 0.950 . S
C791 C789 1.390 . S
C791 C792 1.387 . S
C791 H794 0.950 . S
C792 C791 1.387 . S
C792 C795 1.387 . S
H793 C789 0.950 . S
H794 C791 0.950 . S
C795 C786 1.390 . S
C795 H788 0.950 . S
C795 C792 1.387 . S
C796 C797 1.387 . S
C796 H800 0.950 . S
C796 C805 1.390 . S
C797 C796 1.387 . S
C797 C799 1.387 . S
H798 C805 0.950 . S
C799 C797 1.387 . S
C799 C801 1.390 . S
C799 H803 0.950 . S
H800 C796 0.950 . S
C801 C799 1.390 . S
C801 C802 1.387 . S
C801 H804 0.950 . S
C802 C801 1.387 . S
C802 C805 1.387 . S
H803 C799 0.950 . S
H804 C801 0.950 . S
C805 C796 1.390 . S
C805 H798 0.950 . S
C805 C802 1.387 . S
C806 C807 1.387 . S
C806 H810 0.950 . S
C806 C815 1.390 . S
C807 C806 1.387 . S
C807 C809 1.387 . S
H808 C815 0.950 . S
C809 C807 1.387 . S
C809 C811 1.390 . S
C809 H813 0.950 . S
H810 C806 0.950 . S
C811 C809 1.390 . S
C811 C812 1.387 . S
C811 H814 0.950 . S
C812 C811 1.387 . S
C812 C815 1.387 . S
H813 C809 0.950 . S
H814 C811 0.950 . S
C815 C806 1.390 . S
C815 H808 0.950 . S
C815 C812 1.387 . S
C502 C405 1.494 . S
C497 C36 1.437 . S
C512 C425 1.498 . S
C507 C93 1.501 . S
C522 C439 1.497 . S
C517 C126 1.533 . S
C527 C165 1.514 . S
C532 C397 1.513 . S
C537 C222 1.547 1_554 S
C542 C391 1.639 1_556 S
C547 C261 1.523 . S
C552 C411 1.530 . S
C562 C419 1.506 . S
C557 C318 1.473 . S
C572 C433 1.588 . S
C567 C381 1.531 . S
C577 C132 1.503 . S
C582 C461 1.588 . S
C592 C475 1.509 . S
C587 C189 1.474 . S
C597 C30 1.542 . S
C602 C495 1.530 . S
C612 C447 1.641 . S
C607 C69 1.530 . S
C617 C324 1.513 . S
C622 C453 1.513 . S
C627 C357 1.507 . S
C632 C467 1.498 . S
C642 C481 1.497 1_556 S
C637 C228 1.494 . S
C647 C285 1.452 . S
C652 C489 1.494 . S
C662 C420 1.780 . S
C657 C45 1.744 . S
C672 C434 1.800 . S
C667 C84 1.765 . S
C677 C117 1.687 . S
C682 C392 1.736 . S
C687 C174 1.512 . S
C692 C409 1.574 . S
C697 C213 1.488 . S
C702 C437 1.507 . S
C712 C395 1.498 . S
C707 C270 1.445 . S
C722 C406 1.697 . S
C717 C309 1.661 . S
C732 C423 1.562 . S
C727 C372 1.544 . S
C742 C479 1.561 . S
C737 C141 1.533 . S
C752 C490 1.696 . S
C747 C180 1.673 . S
C757 C21 1.474 . S
C762 C451 1.498 . S
C772 C465 1.507 . S
C767 C78 1.461 . S
C782 C493 1.574 . S
C777 C333 1.554 . S
C787 C366 1.650 . S
C792 C448 1.736 . S
C802 C462 1.798 . S
C797 C237 1.762 . S
C812 C476 1.780 . S
C807 C276 1.752 . S
