# Generated by pormake.
# Topology ptr, (4,4)-cn, num edge types: 1
# Building blocks:
#     Node 0, Type 0, BuildingBlock: UXUYUI_clean_sbu_0, # of connection points: 4
#     Node 1, Type 0, BuildingBlock: UXUYUI_clean_sbu_0, # of connection points: 4
#     Node 2, Type 0, BuildingBlock: UXUYUI_clean_sbu_0, # of connection points: 4
#     Node 3, Type 0, BuildingBlock: UXUYUI_clean_sbu_0, # of connection points: 4
#     Node 4, Type 0, BuildingBlock: UXUYUI_clean_sbu_0, # of connection points: 4
#     Node 5, Type 0, BuildingBlock: UXUYUI_clean_sbu_0, # of connection points: 4
#     Node 6, Type 0, BuildingBlock: UXUYUI_clean_sbu_0, # of connection points: 4
#     Node 7, Type 0, BuildingBlock: UXUYUI_clean_sbu_0, # of connection points: 4
#     Node 8, Type 0, BuildingBlock: UXUYUI_clean_sbu_0, # of connection points: 4
#     Node 9, Type 0, BuildingBlock: UXUYUI_clean_sbu_0, # of connection points: 4
#     Node 10, Type 0, BuildingBlock: UXUYUI_clean_sbu_0, # of connection points: 4
#     Node 11, Type 0, BuildingBlock: UXUYUI_clean_sbu_0, # of connection points: 4
#     Node 12, Type 0, BuildingBlock: UXUYUI_clean_sbu_0, # of connection points: 4
#     Node 13, Type 0, BuildingBlock: UXUYUI_clean_sbu_0, # of connection points: 4
#     Node 14, Type 0, BuildingBlock: UXUYUI_clean_sbu_0, # of connection points: 4
#     Node 15, Type 0, BuildingBlock: UXUYUI_clean_sbu_0, # of connection points: 4
#     Node 16, Type 0, BuildingBlock: UXUYUI_clean_sbu_0, # of connection points: 4
#     Node 17, Type 0, BuildingBlock: UXUYUI_clean_sbu_0, # of connection points: 4
#     Node 18, Type 1, BuildingBlock: GIZVER_clean_linker_0, # of connection points: 4
#     Node 19, Type 1, BuildingBlock: GIZVER_clean_linker_0, # of connection points: 4
#     Node 20, Type 1, BuildingBlock: GIZVER_clean_linker_0, # of connection points: 4
#     Node 21, Type 1, BuildingBlock: GIZVER_clean_linker_0, # of connection points: 4
#     Node 22, Type 1, BuildingBlock: GIZVER_clean_linker_0, # of connection points: 4
#     Node 23, Type 1, BuildingBlock: GIZVER_clean_linker_0, # of connection points: 4
#     Node 24, Type 1, BuildingBlock: GIZVER_clean_linker_0, # of connection points: 4
#     Node 25, Type 1, BuildingBlock: GIZVER_clean_linker_0, # of connection points: 4
#     Node 26, Type 1, BuildingBlock: GIZVER_clean_linker_0, # of connection points: 4
#     Node 27, Type 1, BuildingBlock: GIZVER_clean_linker_0, # of connection points: 4
#     Node 28, Type 1, BuildingBlock: GIZVER_clean_linker_0, # of connection points: 4
#     Node 29, Type 1, BuildingBlock: GIZVER_clean_linker_0, # of connection points: 4
#     Node 30, Type 1, BuildingBlock: GIZVER_clean_linker_0, # of connection points: 4
#     Node 31, Type 1, BuildingBlock: GIZVER_clean_linker_0, # of connection points: 4
#     Node 32, Type 1, BuildingBlock: GIZVER_clean_linker_0, # of connection points: 4
#     Node 33, Type 1, BuildingBlock: GIZVER_clean_linker_0, # of connection points: 4
#     Node 34, Type 1, BuildingBlock: GIZVER_clean_linker_0, # of connection points: 4
#     Node 35, Type 1, BuildingBlock: GIZVER_clean_linker_0, # of connection points: 4
#     Edge 36, Type (0, 1), BuildingBlock: KIFKEQ_clean_linker_1, # of connection points: 2
#     Edge 37, Type (0, 1), BuildingBlock: KIFKEQ_clean_linker_1, # of connection points: 2
#     Edge 38, Type (0, 1), BuildingBlock: KIFKEQ_clean_linker_1, # of connection points: 2
#     Edge 39, Type (0, 1), BuildingBlock: KIFKEQ_clean_linker_1, # of connection points: 2
#     Edge 40, Type (0, 1), BuildingBlock: KIFKEQ_clean_linker_1, # of connection points: 2
#     Edge 41, Type (0, 1), BuildingBlock: KIFKEQ_clean_linker_1, # of connection points: 2
#     Edge 42, Type (0, 1), BuildingBlock: KIFKEQ_clean_linker_1, # of connection points: 2
#     Edge 43, Type (0, 1), BuildingBlock: KIFKEQ_clean_linker_1, # of connection points: 2
#     Edge 44, Type (0, 1), BuildingBlock: KIFKEQ_clean_linker_1, # of connection points: 2
#     Edge 45, Type (0, 1), BuildingBlock: KIFKEQ_clean_linker_1, # of connection points: 2
#     Edge 46, Type (0, 1), BuildingBlock: KIFKEQ_clean_linker_1, # of connection points: 2
#     Edge 47, Type (0, 1), BuildingBlock: KIFKEQ_clean_linker_1, # of connection points: 2
#     Edge 48, Type (0, 1), BuildingBlock: KIFKEQ_clean_linker_1, # of connection points: 2
#     Edge 49, Type (0, 1), BuildingBlock: KIFKEQ_clean_linker_1, # of connection points: 2
#     Edge 50, Type (0, 1), BuildingBlock: KIFKEQ_clean_linker_1, # of connection points: 2
#     Edge 51, Type (0, 1), BuildingBlock: KIFKEQ_clean_linker_1, # of connection points: 2
#     Edge 52, Type (0, 1), BuildingBlock: KIFKEQ_clean_linker_1, # of connection points: 2
#     Edge 53, Type (0, 1), BuildingBlock: KIFKEQ_clean_linker_1, # of connection points: 2
#     Edge 54, Type (0, 1), BuildingBlock: KIFKEQ_clean_linker_1, # of connection points: 2
#     Edge 55, Type (0, 1), BuildingBlock: KIFKEQ_clean_linker_1, # of connection points: 2
#     Edge 56, Type (0, 1), BuildingBlock: KIFKEQ_clean_linker_1, # of connection points: 2
#     Edge 57, Type (0, 1), BuildingBlock: KIFKEQ_clean_linker_1, # of connection points: 2
#     Edge 58, Type (0, 1), BuildingBlock: KIFKEQ_clean_linker_1, # of connection points: 2
#     Edge 59, Type (0, 1), BuildingBlock: KIFKEQ_clean_linker_1, # of connection points: 2
#     Edge 60, Type (0, 1), BuildingBlock: KIFKEQ_clean_linker_1, # of connection points: 2
#     Edge 61, Type (0, 1), BuildingBlock: KIFKEQ_clean_linker_1, # of connection points: 2
#     Edge 62, Type (0, 1), BuildingBlock: KIFKEQ_clean_linker_1, # of connection points: 2
#     Edge 63, Type (0, 1), BuildingBlock: KIFKEQ_clean_linker_1, # of connection points: 2
#     Edge 64, Type (0, 1), BuildingBlock: KIFKEQ_clean_linker_1, # of connection points: 2
#     Edge 65, Type (0, 1), BuildingBlock: KIFKEQ_clean_linker_1, # of connection points: 2
#     Edge 66, Type (0, 1), BuildingBlock: KIFKEQ_clean_linker_1, # of connection points: 2
#     Edge 67, Type (0, 1), BuildingBlock: KIFKEQ_clean_linker_1, # of connection points: 2
#     Edge 68, Type (0, 1), BuildingBlock: KIFKEQ_clean_linker_1, # of connection points: 2
#     Edge 69, Type (0, 1), BuildingBlock: KIFKEQ_clean_linker_1, # of connection points: 2
#     Edge 70, Type (0, 1), BuildingBlock: KIFKEQ_clean_linker_1, # of connection points: 2
#     Edge 71, Type (0, 1), BuildingBlock: KIFKEQ_clean_linker_1, # of connection points: 2
#     Edge 72, Type (0, 1), BuildingBlock: KIFKEQ_clean_linker_1, # of connection points: 2
#     Edge 73, Type (0, 1), BuildingBlock: KIFKEQ_clean_linker_1, # of connection points: 2
#     Edge 74, Type (0, 1), BuildingBlock: KIFKEQ_clean_linker_1, # of connection points: 2
#     Edge 75, Type (0, 1), BuildingBlock: KIFKEQ_clean_linker_1, # of connection points: 2
#     Edge 76, Type (0, 1), BuildingBlock: KIFKEQ_clean_linker_1, # of connection points: 2
#     Edge 77, Type (0, 1), BuildingBlock: KIFKEQ_clean_linker_1, # of connection points: 2
#     Edge 78, Type (0, 1), BuildingBlock: KIFKEQ_clean_linker_1, # of connection points: 2
#     Edge 79, Type (0, 1), BuildingBlock: KIFKEQ_clean_linker_1, # of connection points: 2
#     Edge 80, Type (0, 1), BuildingBlock: KIFKEQ_clean_linker_1, # of connection points: 2
#     Edge 81, Type (0, 1), BuildingBlock: KIFKEQ_clean_linker_1, # of connection points: 2
#     Edge 82, Type (0, 1), BuildingBlock: KIFKEQ_clean_linker_1, # of connection points: 2
#     Edge 83, Type (0, 1), BuildingBlock: KIFKEQ_clean_linker_1, # of connection points: 2
#     Edge 84, Type (0, 1), BuildingBlock: KIFKEQ_clean_linker_1, # of connection points: 2
#     Edge 85, Type (0, 1), BuildingBlock: KIFKEQ_clean_linker_1, # of connection points: 2
#     Edge 86, Type (0, 1), BuildingBlock: KIFKEQ_clean_linker_1, # of connection points: 2
#     Edge 87, Type (0, 1), BuildingBlock: KIFKEQ_clean_linker_1, # of connection points: 2
#     Edge 88, Type (0, 1), BuildingBlock: KIFKEQ_clean_linker_1, # of connection points: 2
#     Edge 89, Type (0, 1), BuildingBlock: KIFKEQ_clean_linker_1, # of connection points: 2
#     Edge 90, Type (0, 1), BuildingBlock: KIFKEQ_clean_linker_1, # of connection points: 2
#     Edge 91, Type (0, 1), BuildingBlock: KIFKEQ_clean_linker_1, # of connection points: 2
#     Edge 92, Type (0, 1), BuildingBlock: KIFKEQ_clean_linker_1, # of connection points: 2
#     Edge 93, Type (0, 1), BuildingBlock: KIFKEQ_clean_linker_1, # of connection points: 2
#     Edge 94, Type (0, 1), BuildingBlock: KIFKEQ_clean_linker_1, # of connection points: 2
#     Edge 95, Type (0, 1), BuildingBlock: KIFKEQ_clean_linker_1, # of connection points: 2
#     Edge 96, Type (0, 1), BuildingBlock: KIFKEQ_clean_linker_1, # of connection points: 2
#     Edge 97, Type (0, 1), BuildingBlock: KIFKEQ_clean_linker_1, # of connection points: 2
#     Edge 98, Type (0, 1), BuildingBlock: KIFKEQ_clean_linker_1, # of connection points: 2
#     Edge 99, Type (0, 1), BuildingBlock: KIFKEQ_clean_linker_1, # of connection points: 2
#     Edge 100, Type (0, 1), BuildingBlock: KIFKEQ_clean_linker_1, # of connection points: 2
#     Edge 101, Type (0, 1), BuildingBlock: KIFKEQ_clean_linker_1, # of connection points: 2
#     Edge 102, Type (0, 1), BuildingBlock: KIFKEQ_clean_linker_1, # of connection points: 2
#     Edge 103, Type (0, 1), BuildingBlock: KIFKEQ_clean_linker_1, # of connection points: 2
#     Edge 104, Type (0, 1), BuildingBlock: KIFKEQ_clean_linker_1, # of connection points: 2
#     Edge 105, Type (0, 1), BuildingBlock: KIFKEQ_clean_linker_1, # of connection points: 2
#     Edge 106, Type (0, 1), BuildingBlock: KIFKEQ_clean_linker_1, # of connection points: 2
#     Edge 107, Type (0, 1), BuildingBlock: KIFKEQ_clean_linker_1, # of connection points: 2
# Relax obj value: 0.092
# Max RMSD: 0.230
# Mean RMSD: 0.120
data_MOF--net-ptr--node1-UXUYUI_clean_sbu_0--node2-GIZVER_clean_linker_0--edge1-KIFKEQ_clean_linker_1
_symmetry_space_group_name_H-M    P1
_symmetry_Int_Tables_number       1
_symmetry_cell_setting            triclinic
loop_
_symmetry_equiv_pos_as_xyz
'x, y, z'
_cell_length_a     100.36877
_cell_length_b     100.35442
_cell_length_c     57.055535
_cell_angle_alpha  90.211333
_cell_angle_beta   90.261758
_cell_angle_gamma 120.07455
loop_
_atom_site_label
_atom_site_type_symbol
_atom_site_fract_x
_atom_site_fract_y
_atom_site_fract_z
_atom_type_partial_charge
Li0 Li 0.98821 0.3516 0.00924 0.0
Li1 Li 0.01586 0.36576 0.00989 0.0
Li2 Li 1.0008 0.37501 0.03276 0.0
Li3 Li 1.00158 0.37602 0.9892 0.0
C4 C 0.99683 0.34718 0.05629 0.0
N5 N 0.9862 0.32882 0.09555 0.0
C6 C 1.00273 0.33763 0.06229 0.0
C7 C 0.98563 0.34748 0.07035 0.0
C8 C 0.99718 0.32841 0.08218 0.0
C9 C 0.98037 0.33809 0.09011 0.0
C10 C 1.00262 0.34425 0.97406 0.0
C11 C 0.00328 0.32843 0.94269 0.0
N12 N 0.0034 0.3185 0.95874 0.0
C13 C 1.00274 0.33389 0.99025 0.0
C14 C 1.00288 0.34151 0.95009 0.0
C15 C 0.00314 0.32094 0.98215 0.0
C16 C 0.9622 0.32833 0.98601 0.0
N17 N 0.97041 0.33115 0.00627 0.0
C18 C 0.95335 0.3054 0.01917 0.0
C19 C 0.96631 0.31995 0.02267 0.0
C20 C 0.94444 0.30241 -0.00124 0.0
C21 C 0.94898 0.31409 0.98205 0.0
H22 H 0.96596 0.33719 0.97285 0.0
H23 H 0.97307 0.32211 0.03838 0.0
C24 C 0.03996 0.36561 0.03362 0.0
N25 N 0.03427 0.36462 0.01165 0.0
C26 C 0.05315 0.36455 0.03721 0.0
C27 C 0.05465 0.36176 0.99538 0.0
C28 C 0.04131 0.36276 0.99261 0.0
C29 C 0.06076 0.36264 0.01797 0.0
H30 H 0.03411 0.36708 0.04843 0.0
H31 H 0.03659 0.36204 0.97527 0.0
C32 C 0.96827 0.36186 0.00552 0.0
N33 N 0.93708 0.34706 0.99567 0.0
C34 C 0.96306 0.36309 0.9833 0.0
C35 C 0.9576 0.35322 0.02279 0.0
C36 C 0.94725 0.3555 0.97867 0.0
C37 C 0.94189 0.34578 0.01744 0.0
C38 C 0.03208 0.39717 0.00056 0.0
C39 C 0.0418 0.41168 0.0104 0.0
C40 C 0.03579 0.39326 0.979 0.0
C41 C 0.05517 0.42202 -0.00147 0.0
C42 C 0.04925 0.40391 0.96768 0.0
N43 N 0.05858 0.41795 0.9776 0.0
C44 C 0.01512 0.39738 0.06768 0.0
C45 C 0.98801 0.38633 0.06631 0.0
C46 C 0.01639 0.40825 0.08422 0.0
N47 N 1.00112 0.38688 0.05888 0.0
C48 C 0.98871 0.39681 0.08315 0.0
C49 C 0.00308 0.40822 0.09202 0.0
H50 H 0.02536 0.39769 0.06114 0.0
H51 H 0.97705 0.37804 0.05869 0.0
C52 C 0.00452 0.3872 0.94201 0.0
N53 N 1.00205 0.38904 0.96488 0.0
C54 C 0.005 0.39755 0.92522 0.0
C55 C 1.00034 0.41137 0.95593 0.0
C56 C 1.00004 0.40083 0.97207 0.0
C57 C 1.00283 0.40981 0.93213 0.0
H58 H 0.00616 0.37773 0.93685 0.0
H59 H 0.99823 0.40202 0.99046 0.0
O60 O 1.00218 0.35629 0.0369 0.0
O61 O 1.00221 0.35702 0.98148 0.0
O62 O 0.98373 0.36905 0.01029 0.0
O63 O 0.01892 0.38694 0.01193 0.0
H64 H 0.01144 0.33728 0.05162 0.0
H65 H 0.98099 0.35482 0.06603 0.0
H66 H 1.00159 0.32092 0.08698 0.0
H67 H 0.97166 0.33817 0.1011 0.0
H68 H 0.00349 0.32617 0.92418 0.0
H69 H 1.00253 0.33579 0.00884 0.0
H70 H 1.00278 0.34943 0.93734 0.0
H71 H 0.00323 0.31283 0.99449 0.0
H72 H 0.95027 0.2966 0.03234 0.0
H73 H 0.94256 0.3121 0.96585 0.0
H74 H 0.05716 0.36497 0.05499 0.0
H75 H 0.06018 0.36044 0.98 0.0
H76 H 0.97111 0.36967 0.96968 0.0
H77 H 0.96139 0.35207 0.04003 0.0
H78 H 0.94306 0.35628 0.96151 0.0
H79 H 0.93352 0.33895 0.03058 0.0
H80 H 0.03905 0.41494 0.02699 0.0
H81 H 0.02834 0.38214 0.97102 0.0
H82 H 0.06281 0.43329 0.00594 0.0
H83 H 0.05226 0.40102 0.951 0.0
H84 H 0.02776 0.41692 0.0901 0.0
H85 H 0.9781 0.39608 0.08887 0.0
H86 H 0.00681 0.39587 0.90701 0.0
H87 H 0.99883 0.42075 0.96208 0.0
Li88 Li 0.65246 0.63842 0.00983 0.0
Li89 Li 0.63934 0.65188 0.01302 0.0
Li90 Li 0.62928 0.6268 0.03327 0.0
Li91 Li 0.62794 0.62896 0.98816 0.0
C92 C 0.66213 0.65197 0.05113 0.0
N93 N 0.69003 0.6632 0.07417 0.0
C94 C 0.67486 0.66582 0.04414 0.0
C95 C 0.66353 0.6439 0.07 0.0
C96 C 0.68888 0.67128 0.05595 0.0
C97 C 0.67775 0.64976 0.08139 0.0
C98 C 0.65122 0.66067 0.97008 0.0
C99 C 0.64537 0.67264 0.93817 0.0
N100 N 0.65847 0.68615 0.943 0.0
C101 C 0.66471 0.67463 0.97457 0.0
C102 C 0.64152 0.65961 0.95163 0.0
C103 C 0.66813 0.6874 0.96075 0.0
C104 C 0.68086 0.64746 0.98795 0.0
N105 N 0.67242 0.6401 0.00711 0.0
C106 C 0.69236 0.63555 0.0209 0.0
C107 C 0.67781 0.63404 0.02335 0.0
C108 C 0.70142 0.64319 0.00134 0.0
C109 C 0.69538 0.64909 0.98466 0.0
H110 H 0.67625 0.65194 0.97503 0.0
H111 H 0.67082 0.62798 0.03824 0.0
C112 C 0.6471 0.67941 0.03722 0.0
N113 N 0.64085 0.67172 0.0168 0.0
C114 C 0.64808 0.69356 0.0417 0.0
C115 C 0.63615 0.69175 0.00407 0.0
C116 C 0.63529 0.67755 0.00039 0.0
C117 C 0.64253 0.6999 0.02504 0.0
H118 H 0.65115 0.67446 0.05023 0.0
H119 H 0.62991 0.67107 0.98462 0.0
C120 C 0.64151 0.60823 0.00587 0.0
N121 N 0.65622 0.59132 0.00191 0.0
C122 C 0.64753 0.60722 0.98434 0.0
C123 C 0.64283 0.60055 0.02534 0.0
C124 C 0.65498 0.59865 0.98272 0.0
C125 C 0.65033 0.59207 0.02298 0.0
C126 C 0.60939 0.64097 0.01865 0.0
C127 C 0.60878 0.64522 0.0418 0.0
C128 C 0.60178 0.64419 0.00095 0.0
C129 C 0.60064 0.6528 0.04683 0.0
C130 C 0.59374 0.65177 0.00671 0.0
N131 N 0.59336 0.65589 0.02933 0.0
C132 C 0.6194 0.61731 0.08064 0.0
C133 C 0.60566 0.59955 0.05 0.0
C134 C 0.60963 0.60684 0.09734 0.0
N135 N 0.61726 0.61344 0.05752 0.0
C136 C 0.59554 0.58884 0.06602 0.0
C137 C 0.59744 0.59244 0.09003 0.0
H138 H 0.62853 0.62857 0.08606 0.0
H139 H 0.60422 0.59688 0.03145 0.0
C140 C 0.62101 0.61593 0.94217 0.0
N141 N 0.61509 0.61755 0.96264 0.0
C142 C 0.61121 0.60603 0.92468 0.0
C143 C 0.58947 0.59997 0.94953 0.0
C144 C 0.59967 0.60992 0.96654 0.0
C145 C 0.59521 0.59773 0.92839 0.0
H146 H 0.63334 0.62207 0.93965 0.0
H147 H 0.59533 0.61124 0.98319 0.0
O148 O 0.64831 0.64642 0.03972 0.0
O149 O 0.64769 0.64803 0.98336 0.0
O150 O 0.63448 0.61683 0.00795 0.0
O151 O 0.61767 0.63396 0.01331 0.0
H152 H 0.67393 0.67226 0.0297 0.0
H153 H 0.65384 0.6331 0.07552 0.0
H154 H 0.69885 0.68194 0.05064 0.0
H155 H 0.67904 0.64358 0.0959 0.0
H156 H 0.63792 0.67202 0.92393 0.0
H157 H 0.67243 0.6756 0.98859 0.0
H158 H 0.63105 0.6489 0.94789 0.0
H159 H 0.67848 0.69831 0.96411 0.0
H160 H 0.69648 0.63087 0.03432 0.0
H161 H 0.70168 0.65471 0.96896 0.0
H162 H 0.65318 0.69949 0.05805 0.0
H163 H 0.63151 0.6961 0.99093 0.0
H164 H 0.64665 0.61316 0.96915 0.0
H165 H 0.63824 0.60128 0.04213 0.0
H166 H 0.65981 0.59785 0.96622 0.0
H167 H 0.65152 0.58613 0.03792 0.0
H168 H 0.6147 0.64287 0.05565 0.0
H169 H 0.60224 0.64105 0.98293 0.0
H170 H 0.60015 0.65626 0.06464 0.0
H171 H 0.58786 0.65443 0.99319 0.0
H172 H 0.61133 0.61011 0.1157 0.0
H173 H 0.58635 0.57784 0.05971 0.0
H174 H 0.61611 0.60477 0.90852 0.0
H175 H 0.57727 0.59366 0.95327 0.0
Li176 Li 0.37561 1.00131 0.98182 0.0
Li177 Li 0.37576 0.00272 0.02481 0.0
Li178 Li 0.35082 0.98789 0.00357 0.0
Li179 Li 0.36502 0.01557 0.00338 0.0
C180 C 0.36531 0.97023 0.01166 0.0
N181 N 0.35827 0.9413 0.02672 0.0
C182 C 0.36198 0.96627 0.03522 0.0
C183 C 0.36522 0.95955 0.99579 0.0
C184 C 0.3584 0.95157 0.04248 0.0
C185 C 0.36159 0.94496 0.00374 0.0
C186 C 0.40066 0.02874 0.01209 0.0
C187 C 0.41665 0.04462 0.04401 0.0
N188 N 0.42925 0.04588 0.03313 0.0
C189 C 0.41379 0.0303 0.00113 0.0
C190 C 0.40211 0.03607 0.03361 0.0
C191 C 0.42813 0.03897 0.01208 0.0
C192 C 0.38735 0.00473 0.93478 0.0
N193 N 0.38772 1.0003 0.95716 0.0
C194 C 0.40757 0.99471 0.94761 0.0
C195 C 0.39742 0.9952 0.96372 0.0
C196 C 0.40754 0.99927 0.92442 0.0
C197 C 0.39714 0.00415 0.91794 0.0
H198 H 0.37959 0.00884 0.93009 0.0
H199 H 0.39747 0.9918 0.98167 0.0
C200 C 0.38499 0.00334 0.07305 0.0
N201 N 0.38813 0.00252 0.05012 0.0
C202 C 0.3945 0.0028 0.09061 0.0
C203 C 0.41035 1.00089 0.06054 0.0
C204 C 0.40042 1.00117 0.04368 0.0
C205 C 0.40743 1.00157 0.08447 0.0
H206 H 0.37501 0.00421 0.07767 0.0
H207 H 0.40254 1.00041 0.02529 0.0
C208 C 0.34914 0.99335 0.95539 0.0
N209 N 0.33579 0.97713 0.91454 0.0
C210 C 0.34112 0.99798 0.94053 0.0
C211 C 0.35042 0.98052 0.94943 0.0
C212 C 0.33443 0.9896 0.91998 0.0
C213 C 0.34359 0.97247 0.92871 0.0
C214 C 0.34844 0.00844 0.0412 0.0
C215 C 0.3331 0.00333 0.03515 0.0
C216 C 0.35605 0.02059 0.05718 0.0
C217 C 0.32567 0.01059 0.04504 0.0
C218 C 0.34822 0.02757 0.06665 0.0
N219 N 0.33332 0.02247 0.06042 0.0
C220 C 0.32718 0.96295 0.02717 0.0
C221 C 0.32027 0.96393 0.98778 0.0
C222 C 0.31304 0.94965 0.031 0.0
N223 N 0.3307 0.96966 0.00572 0.0
C224 C 0.30594 0.95064 0.99085 0.0
C225 C 0.30222 0.94324 0.01265 0.0
H226 H 0.3353 0.96806 0.04148 0.0
H227 H 0.32284 0.96962 0.9711 0.0
C228 C 0.37439 0.04745 0.00763 0.0
N229 N 0.3625 0.03325 0.00193 0.0
C230 C 0.37276 0.06043 0.00561 0.0
C231 C 0.34659 0.04394 0.99222 0.0
C232 C 0.34877 0.03129 0.99435 0.0
C233 C 0.35874 0.0588 0.99764 0.0
H234 H 0.38525 0.04876 0.01337 0.0
H235 H 0.33956 0.0199 0.98965 0.0
O236 O 0.3689 0.98458 0.00417 0.0
O237 O 0.38648 0.02004 0.00184 0.0
O238 O 0.35593 1.0016 0.97538 0.0
O239 O 0.35601 1.00171 0.03131 0.0
H240 H 0.36203 0.9744 0.04776 0.0
H241 H 0.36797 0.96249 0.97754 0.0
H242 H 0.35571 0.94832 0.06065 0.0
H243 H 0.36144 0.93656 0.99164 0.0
H244 H 0.4179 0.05023 0.06077 0.0
H245 H 0.41294 0.02488 0.98435 0.0
H246 H 0.39208 0.03496 0.04236 0.0
H247 H 0.43838 0.04022 0.00383 0.0
H248 H 0.41536 0.99079 0.9532 0.0
H249 H 0.39687 0.00784 0.90021 0.0
H250 H 0.39156 0.00308 0.10876 0.0
H251 H 0.42027 1.00024 0.05478 0.0
H252 H 0.34009 0.00794 0.94486 0.0
H253 H 0.35656 0.97677 0.96071 0.0
H254 H 0.32816 0.99303 0.90833 0.0
H255 H 0.34447 0.9625 0.92391 0.0
H256 H 0.32706 0.99399 0.02273 0.0
H257 H 0.36789 0.02463 0.06213 0.0
H258 H 0.31384 0.00683 0.0404 0.0
H259 H 0.35399 0.03704 0.07894 0.0
H260 H 0.31051 0.94463 0.04832 0.0
H261 H 0.29793 0.94617 0.97624 0.0
H262 H 0.3824 0.07165 0.01009 0.0
H263 H 0.33567 0.04217 0.98566 0.0
Li264 Li 0.01748 0.65416 0.00999 0.0
Li265 Li 1.00218 0.62946 0.02847 0.0
Li266 Li 0.00567 0.63089 0.98673 0.0
Li267 Li 0.98994 0.63993 0.00466 0.0
C268 C 0.03329 0.63965 0.02654 0.0
N269 N 0.05657 0.64496 0.05781 0.0
C270 C 0.03565 0.6486 0.04665 0.0
C271 C 0.04274 0.63338 0.02237 0.0
C272 C 0.04749 0.65116 0.06223 0.0
C273 C 0.05446 0.63621 0.03838 0.0
C274 C 0.99146 0.64646 0.05203 0.0
C275 C 0.96804 0.63017 0.07301 0.0
N276 N 0.97105 0.64217 0.0875 0.0
C277 C 0.99432 0.65862 0.06712 0.0
C278 C 0.97821 0.6321 0.05498 0.0
C279 C 0.98387 0.65622 0.08495 0.0
C280 C 0.03119 0.6856 0.01944 0.0
N281 N 0.03456 0.67457 0.01315 0.0
C282 C 0.0615 0.69301 0.01327 0.0
C283 C 0.04934 0.678 0.00962 0.0
C284 C 0.05841 0.70462 0.02042 0.0
C285 C 0.04296 0.70076 0.0231 0.0
H286 H 0.01931 0.68255 0.02185 0.0
H287 H 0.05173 0.66905 0.00439 0.0
C288 C 0.9964 0.60197 0.04879 0.0
N289 N 1.00068 0.6168 0.05411 0.0
C290 C 0.99643 0.59218 0.06607 0.0
C291 C 0.00513 0.61311 0.09407 0.0
C292 C 0.00485 0.62247 0.07625 0.0
C293 C 1.00103 0.59776 0.08904 0.0
H294 H 0.99327 0.59786 0.03094 0.0
H295 H 0.00839 0.63437 0.07993 0.0
C296 C 0.01586 0.65828 0.96243 0.0
N297 N 0.03619 0.67429 0.92688 0.0
C298 C 0.01256 0.66685 0.94661 0.0
C299 C 0.02951 0.65786 0.96018 0.0
C300 C 0.02298 0.67486 0.92875 0.0
C301 C 0.03963 0.66603 0.94209 0.0
C302 C 0.97466 0.60969 0.98867 0.0
C303 C 0.97326 0.61586 0.96747 0.0
C304 C 0.96421 0.59433 0.99392 0.0
C305 C 0.96139 0.60654 0.9519 0.0
C306 C 0.95249 0.58538 0.97789 0.0
N307 N 0.95134 0.59162 0.95739 0.0
C308 C 0.00914 0.60729 0.96969 0.0
C309 C 0.00667 0.6217 0.93883 0.0
C310 C 0.00965 0.59702 0.95372 0.0
N311 N 0.00761 0.61927 0.96206 0.0
C312 C 0.00734 0.61179 0.92218 0.0
C313 C 0.00869 0.59917 0.92963 0.0
H314 H 0.00969 0.6056 0.98831 0.0
H315 H 0.00512 0.63111 0.93323 0.0
C316 C 0.97538 0.65683 0.99536 0.0
N317 N 0.97247 0.64254 0.0014 0.0
C318 C 0.96328 0.65976 0.99223 0.0
C319 C 0.94538 0.63325 0.00189 0.0
C320 C 0.95785 0.63087 0.00506 0.0
C321 C 0.94798 0.64783 0.99516 0.0
H322 H 0.98714 0.66594 0.99289 0.0
H323 H 0.95583 0.61966 0.0102 0.0
O324 O 0.02167 0.63679 0.0111 0.0
O325 O 1.0016 0.64874 0.03446 0.0
O326 O 0.00575 0.65049 0.98005 0.0
O327 O 0.98622 0.61849 0.00423 0.0
H328 H 0.02843 0.65351 0.05024 0.0
H329 H 0.04101 0.62639 0.00691 0.0
H330 H 0.04944 0.65805 0.07786 0.0
H331 H 0.06186 0.63143 0.03536 0.0
H332 H 0.95774 0.61913 0.07548 0.0
H333 H 0.00453 0.6698 0.06505 0.0
H334 H 0.97577 0.62253 0.04352 0.0
H335 H 0.98595 0.66554 0.09676 0.0
H336 H 0.0732 0.69536 0.01121 0.0
H337 H 0.03996 0.70934 0.02812 0.0
H338 H 0.993 0.58042 0.06144 0.0
H339 H 0.009 0.61801 0.1114 0.0
H340 H 1.00204 0.6673 0.94816 0.0
H341 H 0.03227 0.65126 0.97216 0.0
H342 H 0.02057 0.68154 0.91638 0.0
H343 H 0.05023 0.6658 0.94014 0.0
H344 H 0.98121 0.6277 0.96304 0.0
H345 H 0.96515 0.58938 0.01025 0.0
H346 H 0.96018 0.61116 0.93545 0.0
H347 H 0.94431 0.57348 0.98175 0.0
H348 H 0.01078 0.58749 0.96014 0.0
H349 H 0.00636 0.6137 0.90374 0.0
H350 H 0.96592 0.67127 0.98753 0.0
H351 H 0.93383 0.62365 0.00413 0.0
Li352 Li 0.35169 0.36667 0.01077 0.0
Li353 Li 0.37597 0.37622 0.03117 0.0
Li354 Li 0.37517 0.37687 0.98902 0.0
Li355 Li 0.36525 0.3525 0.00885 0.0
C356 C 0.36624 0.39725 0.02559 0.0
N357 N 0.36013 0.4158 0.05418 0.0
C358 C 0.3579 0.39138 0.04624 0.0
C359 C 0.37148 0.41256 0.01951 0.0
C360 C 0.35493 0.40094 0.06045 0.0
C361 C 0.36826 0.42175 0.03418 0.0
C362 C 0.3579 0.3491 0.05591 0.0
C363 C 0.37333 0.3422 0.07994 0.0
N364 N 0.36089 0.33361 0.09367 0.0
C365 C 0.34528 0.34021 0.07025 0.0
C366 C 0.37205 0.35012 0.06077 0.0
C367 C 0.34702 0.33246 0.08927 0.0
C368 C 0.3198 0.34985 0.01745 0.0
N369 N 0.33147 0.36405 0.01165 0.0
C370 C 0.31395 0.37358 0.00858 0.0
C371 C 0.32881 0.37578 0.00682 0.0
C372 C 0.30171 0.3591 0.01492 0.0
C373 C 0.30473 0.34707 0.01907 0.0
H374 H 0.32225 0.34071 0.02106 0.0
H375 H 0.33822 0.3869 0.00179 0.0
C376 C 0.40303 0.39934 0.05013 0.0
N377 N 0.38875 0.38815 0.05656 0.0
C378 C 0.41335 0.40953 0.0668 0.0
C379 C 0.39411 0.39637 0.09654 0.0
C380 C 0.38411 0.38647 0.07923 0.0
C381 C 0.40894 0.40818 0.09039 0.0
H382 H 0.40628 0.40052 0.03187 0.0
H383 H 0.37261 0.37759 0.08383 0.0
C384 C 0.34825 0.35942 0.96352 0.0
N385 N 0.33337 0.36321 0.92547 0.0
C386 C 0.33951 0.34708 0.94832 0.0
C387 C 0.34944 0.3737 0.95937 0.0
C388 C 0.33207 0.34923 0.92917 0.0
C389 C 0.34183 0.37538 0.94004 0.0
C390 C 0.39624 0.36715 0.99516 0.0
C391 C 0.39043 0.35758 0.97543 0.0
C392 C 0.4119 0.37406 0.0007 0.0
C393 C 0.40041 0.35507 0.96156 0.0
C394 C 0.42151 0.37127 0.98639 0.0
N395 N 0.41561 0.36191 0.96728 0.0
C396 C 0.39727 0.4041 0.96835 0.0
C397 C 0.38685 0.38269 0.94232 0.0
C398 C 0.4079 0.41343 0.95154 0.0
N399 N 0.38717 0.38903 0.96356 0.0
C400 C 0.39741 0.39155 0.9251 0.0
C401 C 0.40826 0.40706 0.92978 0.0
H402 H 0.39737 0.40874 0.98554 0.0
H403 H 0.37874 0.37065 0.93903 0.0
C404 C 0.3489 0.32077 -0.00106 0.0
N405 N 0.36251 0.33225 0.00755 0.0
C406 C 0.34645 0.30585 0.99647 0.0
C407 C 0.37198 0.31478 0.01218 0.0
C408 C 0.3739 0.3295 0.01448 0.0
C409 C 0.35817 0.30274 0.00284 0.0
H410 H 0.34005 0.3233 0.9936 0.0
H411 H 0.38458 0.3388 0.02143 0.0
O412 O 0.36944 0.38821 0.01137 0.0
O413 O 0.35625 0.35664 0.03719 0.0
O414 O 0.35551 0.35739 0.98236 0.0
O415 O 0.38677 0.36996 0.00891 0.0
H416 H 0.35372 0.37958 0.05127 0.0
H417 H 0.37796 0.41727 0.00359 0.0
H418 H 0.34849 0.39654 0.07646 0.0
H419 H 0.37224 0.43362 0.02968 0.0
H420 H 0.38421 0.3429 0.0839 0.0
H421 H 0.33424 0.3393 0.0667 0.0
H422 H 0.38196 0.35697 0.04994 0.0
H423 H 0.33735 0.32554 0.10051 0.0
H424 H 0.31205 0.3831 0.00505 0.0
H425 H 0.29562 0.33577 0.0242 0.0
H426 H 0.42451 0.4186 0.06112 0.0
H427 H 0.39025 0.39478 0.11454 0.0
H428 H 0.33848 0.33596 0.9513 0.0
H429 H 0.35616 0.38341 0.97087 0.0
H430 H 0.32526 0.33977 0.91726 0.0
H431 H 0.34264 0.38636 0.93663 0.0
H432 H 0.37837 0.35218 0.97078 0.0
H433 H 0.41657 0.38153 0.01589 0.0
H434 H 0.39607 0.34771 0.94623 0.0
H435 H 0.43365 0.37655 0.99046 0.0
H436 H 0.41615 0.4253 0.95585 0.0
H437 H 0.39723 0.38627 0.90842 0.0
H438 H 0.3357 0.29696 0.98894 0.0
H439 H 0.38124 0.31285 0.0175 0.0
Li440 Li 0.63931 0.98925 0.00848 0.0
Li441 Li 0.62966 0.00369 0.02938 0.0
Li442 Li 0.62944 0.00323 0.98688 0.0
Li443 Li 0.65353 0.0172 0.00792 0.0
C444 C 0.60793 0.97312 0.99571 0.0
N445 N 0.58737 0.94768 0.9698 0.0
C446 C 0.59253 0.96462 0.00242 0.0
C447 C 0.61289 0.96874 0.97578 0.0
C448 C 0.58231 0.95177 0.9891 0.0
C449 C 0.60231 0.95583 0.96293 0.0
C450 C 0.64818 0.99538 0.0552 0.0
C451 C 0.65989 0.99084 0.08892 0.0
N452 N 0.64611 0.97836 0.09437 0.0
C453 C 0.63413 0.98251 0.06113 0.0
C454 C 0.66118 0.99959 0.06917 0.0
C455 C 0.63331 0.97405 0.081 0.0
C456 C 0.65476 0.97212 0.00435 0.0
N457 N 0.64115 0.97115 0.00994 0.0
C458 C 0.63056 0.9448 0.02087 0.0
C459 C 0.62911 0.9578 0.01791 0.0
C460 C 0.6446 0.94551 0.0159 0.0
C461 C 0.65675 0.95937 0.00718 0.0
H462 H 0.66421 0.98293 0.99828 0.0
H463 H 0.61845 0.95731 0.02255 0.0
C464 C 0.60414 0.00327 0.04689 0.0
N465 N 0.6175 0.00435 0.05436 0.0
C466 C 0.59385 0.00358 0.0629 0.0
C467 C 0.61124 0.00603 0.09422 0.0
C468 C 0.62137 0.00599 0.07748 0.0
C469 C 0.59718 0.00474 0.08704 0.0
H470 H 0.6015 0.00222 0.02834 0.0
H471 H 0.63222 0.00716 0.083 0.0
C472 C 0.65606 0.01091 0.96132 0.0
N473 N 0.67118 0.02768 0.92214 0.0
C474 C 0.65481 0.02365 0.95479 0.0
C475 C 0.665 0.0067 0.94793 0.0
C476 C 0.66254 0.03198 0.93493 0.0
C477 C 0.67255 0.01532 0.92817 0.0
C478 C 0.63934 0.03405 0.02051 0.0
C479 C 0.63364 0.04354 0.01322 0.0
C480 C 0.64822 0.03769 0.04099 0.0
C481 C 0.637 0.05659 0.02652 0.0
C482 C 0.65132 0.05083 0.0538 0.0
N483 N 0.6457 0.05993 0.04636 0.0
C484 C 0.60619 0.00664 0.9673 0.0
C485 C 0.61826 0.99888 0.93908 0.0
C486 C 0.59611 0.00661 0.95036 0.0
N487 N 0.617 0.00289 0.9614 0.0
C488 C 0.60852 0.99888 0.92148 0.0
C489 C 0.59727 0.00279 0.92708 0.0
H490 H 0.60542 0.00968 0.98524 0.0
H491 H 0.62679 0.99568 0.93494 0.0
C492 C 0.68623 0.03392 0.01215 0.0
N493 N 0.67367 0.03504 0.00635 0.0
C494 C 0.70107 0.04648 0.00898 0.0
C495 C 0.68971 0.06118 0.99459 0.0
C496 C 0.67516 0.04836 0.99787 0.0
C497 C 0.70296 0.06029 -0.00029 0.0
H498 H 0.68471 0.02313 0.01861 0.0
H499 H 0.66507 0.04897 0.99301 0.0
O500 O 0.61799 0.98583 0.00845 0.0
O501 O 0.64939 0.00374 0.03563 0.0
O502 O 0.64876 0.00263 0.98085 0.0
O503 O 0.63599 0.02117 0.00773 0.0
H504 H 0.58852 0.96793 0.01775 0.0
H505 H 0.62475 0.97523 0.97025 0.0
H506 H 0.57034 0.94507 0.99409 0.0
H507 H 0.60598 0.9523 0.94747 0.0
H508 H 0.66986 0.99396 0.09989 0.0
H509 H 0.62393 0.9791 0.05059 0.0
H510 H 0.67215 0.00949 0.06475 0.0
H511 H 0.62251 0.96407 0.08579 0.0
H512 H 0.62079 0.93433 0.02731 0.0
H513 H 0.66785 0.96053 0.00339 0.0
H514 H 0.58343 0.00298 0.05632 0.0
H515 H 0.61433 0.0068 0.11258 0.0
H516 H 0.64794 0.0271 0.96492 0.0
H517 H 0.66611 0.99687 0.9528 0.0
H518 H 0.66168 0.04187 0.92969 0.0
H519 H 0.67952 0.01219 0.91765 0.0
H520 H 0.6267 0.04083 0.99745 0.0
H521 H 0.65269 0.03047 0.04697 0.0
H522 H 0.63269 0.06405 0.02107 0.0
H523 H 0.65819 0.0538 0.06966 0.0
H524 H 0.5877 0.00984 0.95535 0.0
H525 H 0.60966 0.99572 0.90374 0.0
H526 H 0.71092 0.04519 0.01292 0.0
H527 H 0.69055 0.07162 0.98773 0.0
Li528 Li 0.65716 0.68688 0.33583 0.0
Li529 Li 0.6845 0.70011 0.33933 0.0
Li530 Li 0.67072 0.71085 0.35944 0.0
Li531 Li 0.67424 0.71284 0.31532 0.0
C532 C 0.66038 0.68031 0.38165 0.0
N533 N 0.64174 0.65907 0.41463 0.0
C534 C 0.66124 0.66701 0.3855 0.0
C535 C 0.65016 0.68287 0.39482 0.0
C536 C 0.65168 0.65638 0.40216 0.0
C537 C 0.6408 0.67199 0.41134 0.0
C538 C 0.67967 0.686 0.29821 0.0
C539 C 0.69639 0.68672 0.26741 0.0
N540 N 0.69521 0.67349 0.27569 0.0
C541 C 0.67854 0.67235 0.30633 0.0
C542 C 0.6886 0.69323 0.27854 0.0
C543 C 0.68653 0.66623 0.29475 0.0
C544 C 0.62576 0.66734 0.32332 0.0
N545 N 0.63843 0.66746 0.33214 0.0
C546 C 0.62461 0.63993 0.33431 0.0
C547 C 0.63812 0.6541 0.33738 0.0
C548 C 0.61132 0.63946 0.32538 0.0
C549 C 0.61202 0.65344 0.31991 0.0
H550 H 0.62635 0.67804 0.31858 0.0
H551 H 0.64842 0.65436 0.34352 0.0
C552 C 0.70304 0.69008 0.3617 0.0
N553 N 0.70217 0.69742 0.3423 0.0
C554 C 0.7154 0.68759 0.36494 0.0
C555 C 0.72614 0.70072 0.32851 0.0
C556 C 0.71349 0.70288 0.32592 0.0
C557 C 0.72715 0.69286 0.34816 0.0
H558 H 0.69421 0.68632 0.37486 0.0
H559 H 0.71274 0.70896 0.31085 0.0
C560 C 0.6435 0.70861 0.33915 0.0
N561 N 0.62031 0.71492 0.34937 0.0
C562 C 0.643 0.72074 0.32802 0.0
C563 C 0.63204 0.69952 0.35516 0.0
C564 C 0.63124 0.7238 0.33352 0.0
C565 C 0.62046 0.70293 0.36017 0.0
C566 C 0.70498 0.72987 0.34468 0.0
C567 C 0.71067 0.72989 0.36708 0.0
C568 C 0.7152 0.73769 0.3265 0.0
C569 C 0.72658 0.73762 0.37087 0.0
C570 C 0.73103 0.7453 0.33102 0.0
N571 N 0.73634 0.74509 0.35292 0.0
C572 C 0.67551 0.72168 0.40665 0.0
C573 C 0.66768 0.73466 0.38023 0.0
C574 C 0.6771 0.73184 0.4247 0.0
N575 N 0.67083 0.72324 0.38495 0.0
C576 C 0.6689 0.74493 0.39781 0.0
C577 C 0.67384 0.74369 0.42031 0.0
H578 H 0.67835 0.71276 0.40979 0.0
H579 H 0.66472 0.73615 0.36261 0.0
C580 C 0.67281 0.72179 0.26801 0.0
N581 N 0.67666 0.7264 0.29067 0.0
C582 C 0.67412 0.73238 0.251 0.0
C583 C 0.68321 0.75212 0.28108 0.0
C584 C 0.68193 0.74123 0.29738 0.0
C585 C 0.67919 0.74772 0.25759 0.0
H586 H 0.66848 0.70987 0.26324 0.0
H587 H 0.68482 0.74451 0.31559 0.0
O588 O 0.66966 0.69083 0.36534 0.0
O589 O 0.67205 0.69225 0.30943 0.0
O590 O 0.65499 0.7055 0.33399 0.0
O591 O 0.68948 0.72207 0.34048 0.0
H592 H 0.66902 0.66475 0.37545 0.0
H593 H 0.64946 0.69317 0.39241 0.0
H594 H 0.65214 0.64598 0.40514 0.0
H595 H 0.63282 0.67383 0.42159 0.0
H596 H 0.70342 0.69224 0.25224 0.0
H597 H 0.67178 0.66669 0.32163 0.0
H598 H 0.68966 0.70384 0.2721 0.0
H599 H 0.68586 0.65574 0.30096 0.0
H600 H 0.62474 0.62944 0.33821 0.0
H601 H 0.60206 0.65365 0.31298 0.0
H602 H 0.7159 0.68184 0.38066 0.0
H603 H 0.73495 0.705 0.31519 0.0
H604 H 0.65164 0.72779 0.31537 0.0
H605 H 0.63192 0.68978 0.36335 0.0
H606 H 0.63078 0.73322 0.32516 0.0
H607 H 0.61154 0.696 0.37255 0.0
H608 H 0.70289 0.7238 0.38128 0.0
H609 H 0.71094 0.73773 0.30905 0.0
H610 H 0.73116 0.73763 0.38808 0.0
H611 H 0.73909 0.75134 0.3171 0.0
H612 H 0.68095 0.73053 0.44186 0.0
H613 H 0.66658 0.75409 0.39363 0.0
H614 H 0.67078 0.72854 0.23306 0.0
H615 H 0.68725 0.76385 0.28679 0.0
Li616 Li 0.2938 0.96216 0.32651 0.0
Li617 Li 0.29606 0.96051 0.37014 0.0
Li618 Li 0.3062 0.9859 0.34962 0.0
Li619 Li 0.31918 0.97146 0.34539 0.0
C620 C 0.27105 0.96737 0.34546 0.0
N621 N 0.24323 0.96445 0.33185 0.0
C622 C 0.25724 0.95533 0.35408 0.0
C623 C 0.2707 0.97808 0.33026 0.0
C624 C 0.2433 0.954 0.34689 0.0
C625 C 0.25653 0.97638 0.3235 0.0
C626 C 0.30739 0.94134 0.34158 0.0
C627 C 0.32074 0.92883 0.35677 0.0
N628 N 0.32204 0.9246 0.33459 0.0
C629 C 0.30877 0.93682 0.31896 0.0
C630 C 0.31334 0.93728 0.36068 0.0
C631 C 0.31625 0.92837 0.31578 0.0
C632 C 0.28515 0.95356 0.27881 0.0
N633 N 0.28045 0.95064 0.30143 0.0
C634 C 0.25624 0.92923 0.28966 0.0
C635 C 0.26639 0.93868 0.30713 0.0
C636 C 0.26071 0.93192 0.26607 0.0
C637 C 0.27541 0.94432 0.26076 0.0
H638 H 0.29659 0.96281 0.27481 0.0
H639 H 0.26317 0.93631 0.32532 0.0
C640 C 0.28761 0.95103 0.4181 0.0
N641 N 0.28484 0.94725 0.39499 0.0
C642 C 0.27819 0.94053 0.43509 0.0
C643 C 0.26342 0.92258 0.40407 0.0
C644 C 0.27318 0.93331 0.38779 0.0
C645 C 0.26579 0.92617 0.42807 0.0
H646 H 0.29698 0.96221 0.4233 0.0
H647 H 0.27134 0.93065 0.36925 0.0
C648 C 0.31818 0.9921 0.30337 0.0
N649 N 0.32772 0.01471 0.26963 0.0
C650 C 0.33386 1.00152 0.2987 0.0
C651 C 0.30736 0.99399 0.29053 0.0
C652 C 0.33846 0.01294 0.28168 0.0
C653 C 0.31241 0.00553 0.27365 0.0
C654 C 0.32866 0.99295 0.38391 0.0
C655 C 0.34038 0.00282 0.36886 0.0
C656 C 0.32967 0.99656 0.40777 0.0
C657 C 0.35298 0.01615 0.37793 0.0
C658 C 0.34246 0.01 0.41618 0.0
N659 N 0.35375 0.01944 0.40121 0.0
C660 C 0.29779 0.0074 0.36512 0.0
C661 C 0.32096 0.01867 0.34355 0.0
C662 C 0.29892 0.02177 0.36808 0.0
N663 N 0.30865 0.00608 0.35285 0.0
C664 C 0.32257 0.03326 0.34611 0.0
C665 C 0.31145 0.03497 0.35852 0.0
H666 H 0.28825 0.99728 0.37274 0.0
H667 H 0.32966 0.01749 0.33432 0.0
C668 C 0.34235 0.971 0.31883 0.0
N669 N 0.33848 0.9723 0.34116 0.0
C670 C 0.3562 0.97141 0.31428 0.0
C671 C 0.36196 0.97466 0.35579 0.0
C672 C 0.34786 0.97397 0.35959 0.0
C673 C 0.36624 0.97333 0.33288 0.0
H674 H 0.33464 0.96963 0.30454 0.0
H675 H 0.34441 0.97479 0.37722 0.0
O676 O 0.28481 0.9688 0.35226 0.0
O677 O 0.30059 0.95005 0.34496 0.0
O678 O 0.31349 0.98086 0.31999 0.0
O679 O 0.31613 0.9799 0.37539 0.0
H680 H 0.25728 0.94704 0.36609 0.0
H681 H 0.28126 0.98772 0.32396 0.0
H682 H 0.23253 0.94467 0.35329 0.0
H683 H 0.25612 0.98457 0.3117 0.0
H684 H 0.3255 0.92568 0.37136 0.0
H685 H 0.30428 0.93997 0.304 0.0
H686 H 0.3124 0.94078 0.37828 0.0
H687 H 0.31749 0.92487 0.29836 0.0
H688 H 0.24504 0.91987 0.29463 0.0
H689 H 0.27955 0.94661 0.24291 0.0
H690 H 0.28032 0.94375 0.45344 0.0
H691 H 0.25412 0.91158 0.39796 0.0
H692 H 0.34242 1.00009 0.30819 0.0
H693 H 0.29518 0.9865 0.29334 0.0
H694 H 0.35055 0.02038 0.27802 0.0
H695 H 0.30414 0.00714 0.26365 0.0
H696 H 0.33974 1.00023 0.35036 0.0
H697 H 0.32066 0.98906 0.41965 0.0
H698 H 0.36213 0.0239 0.36645 0.0
H699 H 0.3434 0.01294 0.43461 0.0
H700 H 0.29024 0.02256 0.37821 0.0
H701 H 0.33241 0.04308 0.33839 0.0
H702 H 0.35914 0.9705 0.29633 0.0
H703 H 0.36934 0.97603 0.3706 0.0
Li704 Li 0.04466 0.33528 0.31834 0.0
Li705 Li 0.04541 0.33904 0.36048 0.0
Li706 Li 0.02036 0.3233 0.34161 0.0
Li707 Li 0.03366 0.35084 0.33778 0.0
C708 C 0.03899 0.30984 0.3584 0.0
N709 N 0.04205 0.29157 0.39163 0.0
C710 C 0.0296 0.30514 0.37821 0.0
C711 C 0.04988 0.3052 0.35545 0.0
C712 C 0.03133 0.29591 0.39481 0.0
C713 C 0.05126 0.29598 0.37247 0.0
C714 C 0.06941 0.36662 0.34366 0.0
C715 C 0.08492 0.38879 0.36825 0.0
N716 N 0.09788 0.3898 0.35914 0.0
C717 C 0.08292 0.3681 0.33419 0.0
C718 C 0.07045 0.37724 0.36052 0.0
C719 C 0.09718 0.3798 0.34237 0.0
C720 C 0.0525 0.3336 0.27047 0.0
N721 N 0.05602 0.3333 0.29342 0.0
C722 C 0.07785 0.33104 0.28308 0.0
C723 C 0.06828 0.33187 0.29994 0.0
C724 C 0.07464 0.33147 0.25923 0.0
C725 C 0.06167 0.33258 0.25294 0.0
H726 H 0.0427 0.3348 0.26578 0.0
H727 H 0.07084 0.33177 0.31834 0.0
C728 C 0.05327 0.33736 0.40844 0.0
N729 N 0.05844 0.34014 0.38601 0.0
C730 C 0.06253 0.33684 0.42636 0.0
C731 C 0.08213 0.34176 0.39777 0.0
C732 C 0.07246 0.34208 0.38042 0.0
C733 C 0.0772 0.33906 0.42115 0.0
H734 H 0.04178 0.33507 0.41231 0.0
H735 H 0.07596 0.34343 0.36232 0.0
C736 C 0.01246 0.32526 0.29871 0.0
N737 N 0.98665 0.30417 0.27398 0.0
C738 C 0.99998 0.32765 0.2959 0.0
C739 C 0.01186 0.3122 0.28886 0.0
C740 C 0.98702 0.31684 0.28335 0.0
C741 C 0.9987 0.30166 0.27644 0.0
C742 C 0.0232 0.34763 0.38261 0.0
C743 C 0.00849 0.34577 0.38473 0.0
C744 C 0.03521 0.35866 0.3965 0.0
C745 C 0.00615 0.35523 0.40016 0.0
C746 C 0.03242 0.36789 0.41176 0.0
N747 N 0.01807 0.36602 0.41324 0.0
C748 C 0.99892 0.29102 0.34058 0.0
C749 C 0.98776 0.30669 0.34648 0.0
C750 C 0.98453 0.2777 0.34257 0.0
N751 N 1.00032 0.30515 0.34309 0.0
C752 C 0.97316 0.29369 0.34864 0.0
C753 C 0.9714 0.2789 0.34708 0.0
H754 H 0.00899 0.29007 0.33716 0.0
H755 H 0.98908 0.31802 0.34753 0.0
C756 C 0.04293 0.38228 0.32923 0.0
N757 N 0.03069 0.36815 0.33388 0.0
C758 C 0.04088 0.39495 0.32624 0.0
C759 C 0.01358 0.37825 0.33205 0.0
C760 C 0.01619 0.36593 0.33515 0.0
C761 C 0.02604 0.39302 0.32757 0.0
H762 H 0.05427 0.3837 0.32741 0.0
H763 H 0.0066 0.35453 0.33836 0.0
O764 O 0.0378 0.31933 0.3424 0.0
O765 O 0.05531 0.35513 0.33592 0.0
O766 O 0.02505 0.33543 0.31155 0.0
O767 O 0.02574 0.33852 0.36739 0.0
H768 H 0.02123 0.30878 0.38091 0.0
H769 H 0.05722 0.30869 0.34023 0.0
H770 H 0.02421 0.29227 0.41028 0.0
H771 H 0.05968 0.29234 0.37045 0.0
H772 H 0.08584 0.39703 0.38137 0.0
H773 H 0.08243 0.36031 0.32069 0.0
H774 H 0.06021 0.3768 0.36723 0.0
H775 H 0.1077 0.38096 0.33533 0.0
H776 H 0.08766 0.33006 0.28864 0.0
H777 H 0.05889 0.33307 0.23471 0.0
H778 H 0.05802 0.33425 0.44399 0.0
H779 H 0.0933 0.34351 0.39286 0.0
H780 H 1.00025 0.33768 0.30344 0.0
H781 H 0.02137 0.3101 0.29111 0.0
H782 H 0.97724 0.3185 0.28111 0.0
H783 H 0.99803 0.29144 0.26885 0.0
H784 H 0.99897 0.33721 0.37447 0.0
H785 H 0.04657 0.36005 0.39568 0.0
H786 H 0.99484 0.35398 0.40176 0.0
H787 H 0.04167 0.37651 0.4225 0.0
H788 H 0.98372 0.26658 0.34069 0.0
H789 H 0.96343 0.29524 0.35216 0.0
H790 H 0.05075 0.40606 0.32226 0.0
H791 H 1.00195 0.37625 0.33314 0.0
Li792 Li 0.68269 0.98184 0.3408 0.0
Li793 Li 0.66807 0.95715 0.36232 0.0
Li794 Li 0.66909 0.95744 0.3205 0.0
Li795 Li 0.65446 0.96709 0.33912 0.0
C796 C 0.69599 0.9609 0.3304 0.0
N797 N 0.71399 0.95304 0.30378 0.0
C798 C 0.69745 0.94822 0.33652 0.0
C799 C 0.70378 0.96966 0.31085 0.0
C800 C 0.70658 0.94441 0.3228 0.0
C801 C 0.7128 0.96549 0.2976 0.0
C802 C 0.67526 0.9844 0.38726 0.0
C803 C 0.67691 0.99868 0.42229 0.0
N804 N 0.69077 1.0 0.42745 0.0
C805 C 0.68952 0.9859 0.3929 0.0
C806 C 0.6689 0.99086 0.40202 0.0
C807 C 0.69718 0.99384 0.4133 0.0
C808 C 0.69854 0.01453 0.34303 0.0
N809 N 0.70042 1.00202 0.34251 0.0
C810 C 0.72762 0.01803 0.34782 0.0
C811 C 0.71459 0.00352 0.3448 0.0
C812 C 0.72608 0.03121 0.34898 0.0
C813 C 0.71127 0.02929 0.34629 0.0
H814 H 0.6871 0.01298 0.34154 0.0
H815 H 0.71579 0.99341 0.34486 0.0
C816 C 0.66502 0.9307 0.38129 0.0
N817 N 0.66707 0.9446 0.38811 0.0
C818 C 0.66426 0.92016 0.39783 0.0
C819 C 0.6674 0.93826 0.42839 0.0
C820 C 0.66796 0.94843 0.41118 0.0
C821 C 0.66566 0.92393 0.42179 0.0
H822 H 0.66396 0.92781 0.36284 0.0
H823 H 0.66915 0.95933 0.41635 0.0
C824 C 0.66112 0.97521 0.29255 0.0
N825 N 0.64454 0.97218 0.25212 0.0
C826 C 0.64831 0.96101 0.2866 0.0
C827 C 0.66549 0.98786 0.27795 0.0
C828 C 0.64008 0.95972 0.26609 0.0
C829 C 0.65697 0.9861 0.25757 0.0
C830 C 0.63791 0.93638 0.35261 0.0
C831 C 0.62818 0.92119 0.34527 0.0
C832 C 0.6344 0.94187 0.37288 0.0
C833 C 0.61502 0.91174 0.35826 0.0
C834 C 0.62114 0.93205 0.38538 0.0
N835 N 0.6118 0.91732 0.37788 0.0
C836 C 0.66473 0.93021 0.30084 0.0
C837 C 0.67499 0.95072 0.27364 0.0
C838 C 0.66517 0.92023 0.28419 0.0
N839 N 0.66962 0.94511 0.29535 0.0
C840 C 0.6756 0.94111 0.25639 0.0
C841 C 0.67064 0.92562 0.26158 0.0
H842 H 0.66068 0.92613 0.31833 0.0
H843 H 0.67894 0.96267 0.2698 0.0
C844 C 0.63771 0.98306 0.33964 0.0
N845 N 0.63643 0.96905 0.33615 0.0
C846 C 0.62503 0.98507 0.33582 0.0
C847 C 0.60987 0.95811 0.32562 0.0
C848 C 0.62286 0.9567 0.32918 0.0
C849 C 0.61084 0.9725 0.32849 0.0
H850 H 0.6487 0.99276 0.34482 0.0
H851 H 0.62212 0.94576 0.32586 0.0
O852 O 0.68678 0.96458 0.3432 0.0
O853 O 0.66762 0.97695 0.36717 0.0
O854 O 0.66932 0.97687 0.31264 0.0
O855 O 0.6509 0.94566 0.34011 0.0
H856 H 0.69159 0.94137 0.35165 0.0
H857 H 0.70264 0.97942 0.30573 0.0
H858 H 0.70776 0.93459 0.32728 0.0
H859 H 0.71879 0.97209 0.28232 0.0
H860 H 0.67212 0.00373 0.43388 0.0
H861 H 0.69461 0.98093 0.38178 0.0
H862 H 0.6579 0.98984 0.39782 0.0
H863 H 0.70822 0.99507 0.4179 0.0
H864 H 0.73876 0.01887 0.34949 0.0
H865 H 0.70942 0.03902 0.34745 0.0
H866 H 0.66251 0.90914 0.39186 0.0
H867 H 0.6686 0.94174 0.44662 0.0
H868 H 0.64473 0.95108 0.29765 0.0
H869 H 0.67537 0.99894 0.28235 0.0
H870 H 0.63014 0.9488 0.26129 0.0
H871 H 0.66022 0.9958 0.24611 0.0
H872 H 0.63077 0.91677 0.32967 0.0
H873 H 0.64179 0.95355 0.37892 0.0
H874 H 0.60737 0.89997 0.35276 0.0
H875 H 0.61828 0.93614 0.40107 0.0
H876 H 0.66146 0.90847 0.28912 0.0
H877 H 0.67975 0.94572 0.23912 0.0
H878 H 0.62651 0.99646 0.33791 0.0
H879 H 0.59921 0.94798 0.32042 0.0
Li880 Li 0.04336 0.70981 0.3676 0.0
Li881 Li 0.01903 0.70126 0.34717 0.0
Li882 Li 0.03299 0.68701 0.344 0.0
Li883 Li 0.0432 0.71171 0.32453 0.0
C884 C 0.02223 0.68755 0.39563 0.0
N885 N 0.0198 0.68219 0.44332 0.0
C886 C 0.00984 0.6867 0.40801 0.0
C887 C 0.03335 0.68561 0.4075 0.0
C888 C 0.00883 0.684 0.43211 0.0
C889 C 0.03193 0.68293 0.43161 0.0
C890 C 0.03596 0.73279 0.36218 0.0
C891 C 0.04329 0.75901 0.3719 0.0
N892 N 0.03387 0.75392 0.39083 0.0
C893 C 0.02633 0.72783 0.38168 0.0
C894 C 0.0445 0.7485 0.3572 0.0
C895 C 0.02544 0.73868 0.39597 0.0
C896 C 0.07149 0.72952 0.38821 0.0
N897 N 0.05626 0.72139 0.39341 0.0
C898 C 0.0613 0.73258 0.43179 0.0
C899 C 0.05101 0.72279 0.41468 0.0
C900 C 0.07713 0.74131 0.42681 0.0
C901 C 0.08215 0.73959 0.40465 0.0
H902 H 0.07533 0.72851 0.37096 0.0
H903 H 0.03883 0.71655 0.41832 0.0
C904 C 0.98689 0.68485 0.35231 0.0
N905 N 0.99899 0.6991 0.34796 0.0
C906 C 0.972 0.68257 0.35412 0.0
C907 C 0.98227 0.70965 0.3465 0.0
C908 C 0.99692 0.71136 0.34451 0.0
C909 C 0.96961 0.69513 0.35159 0.0
H910 H 0.98886 0.67529 0.35479 0.0
H911 H 0.00666 0.72251 0.34052 0.0
C912 C 0.06215 0.69683 0.34022 0.0
N913 N 0.07672 0.68014 0.33188 0.0
C914 C 0.06372 0.6929 0.3173 0.0
C915 C 0.06809 0.69241 0.3589 0.0
C916 C 0.0711 0.68442 0.31344 0.0
C917 C 0.0754 0.68395 0.35432 0.0
C918 C 0.01593 0.69489 0.29944 0.0
C919 C 0.00686 0.68274 0.28411 0.0
C920 C 0.01735 0.70932 0.29587 0.0
C921 C 0.99937 0.68524 0.2654 0.0
C922 C 0.00967 0.71136 0.27695 0.0
N923 N 1.00092 0.69938 0.26224 0.0
C924 C 0.03108 0.65884 0.35916 0.0
C925 C 0.02805 0.66091 0.31838 0.0
C926 C 0.02921 0.64417 0.35608 0.0
N927 N 0.03046 0.66687 0.34044 0.0
C928 C 0.02607 0.64628 0.3145 0.0
C929 C 0.02657 0.63766 0.33351 0.0
H930 H 0.03299 0.66376 0.37652 0.0
H931 H 0.02775 0.66759 0.30377 0.0
C932 C 0.06614 0.73902 0.30592 0.0
N933 N 0.05537 0.72444 0.29963 0.0
C934 C 0.07643 0.7491 0.28942 0.0
C935 C 0.06447 0.7289 0.2602 0.0
C936 C 0.05429 0.71923 0.27728 0.0
C937 C 0.07578 0.74404 0.26626 0.0
H938 H 0.06697 0.74267 0.32398 0.0
H939 H 0.04574 0.7075 0.27283 0.0
O940 O 0.02334 0.69012 0.37199 0.0
O941 O 0.03717 0.72236 0.34815 0.0
O942 O 0.0545 0.70466 0.3444 0.0
O943 O 0.02322 0.69252 0.31792 0.0
H944 H 1.0011 0.68812 0.3991 0.0
H945 H 0.04315 0.68651 0.3983 0.0
H946 H 0.99932 0.68334 0.44191 0.0
H947 H 0.04052 0.68152 0.44104 0.0
H948 H 0.04984 0.77121 0.36826 0.0
H949 H 0.01964 0.71574 0.38577 0.0
H950 H 0.05195 0.75256 0.34211 0.0
H951 H 0.01805 0.73499 0.41115 0.0
H952 H 0.05685 0.73333 0.44869 0.0
H953 H 0.09413 0.74628 0.39972 0.0
H954 H 0.96256 0.67122 0.35823 0.0
H955 H 0.98086 0.71958 0.3442 0.0
H956 H 0.05908 0.69616 0.30268 0.0
H957 H 0.06703 0.69543 0.37674 0.0
H958 H 0.07229 0.68119 0.2958 0.0
H959 H 0.08 0.68037 0.36861 0.0
H960 H 0.0056 0.67148 0.28668 0.0
H961 H 0.02429 0.71888 0.30751 0.0
H962 H 0.99232 0.67594 0.25339 0.0
H963 H 0.01067 0.72246 0.27399 0.0
H964 H 0.02956 0.6379 0.37125 0.0
H965 H 0.02434 0.64184 0.29674 0.0
H966 H 0.08512 0.76058 0.2949 0.0
H967 H 0.06356 0.72459 0.24249 0.0
Li968 Li 0.29325 0.33548 0.35803 0.0
Li969 Li 0.30314 0.3199 0.33681 0.0
Li970 Li 0.31755 0.34946 0.3355 0.0
Li971 Li 0.29299 0.33411 0.31681 0.0
C972 C 0.31732 0.33345 0.38471 0.0
N973 N 0.32601 0.32896 0.42867 0.0
C974 C 0.31031 0.31871 0.39436 0.0
C975 C 0.32889 0.34588 0.39731 0.0
C976 C 0.31482 0.31668 0.41664 0.0
C977 C 0.33308 0.34338 0.41954 0.0
C978 C 0.26858 0.3081 0.32721 0.0
C979 C 0.25331 0.28919 0.29775 0.0
N980 N 0.24137 0.29156 0.30237 0.0
C981 C 0.25614 0.31029 0.33178 0.0
C982 C 0.26717 0.29744 0.31014 0.0
C983 C 0.24249 0.30184 0.31898 0.0
C984 C 0.27326 0.34307 0.38128 0.0
N985 N 0.28105 0.33529 0.38383 0.0
C986 C 0.26795 0.32434 0.41968 0.0
C987 C 0.2786 0.32605 0.40258 0.0
C988 C 0.25966 0.33214 0.41738 0.0
C989 C 0.2626 0.3418 0.39805 0.0
H990 H 0.27483 0.3498 0.36573 0.0
H991 H 0.28445 0.31953 0.40386 0.0
C992 C 0.3191 0.30306 0.33551 0.0
N993 N 0.30525 0.3021 0.33893 0.0
C994 C 0.32081 0.29021 0.3393 0.0
C995 C 0.29388 0.27561 0.34951 0.0
C996 C 0.29271 0.28869 0.34551 0.0
C997 C 0.30813 0.27631 0.34683 0.0
H998 H 0.32892 0.31392 0.33046 0.0
H999 H 0.28187 0.28828 0.34835 0.0
C1000 C 0.30398 0.36633 0.34776 0.0
N1001 N 0.3129 0.39362 0.3715 0.0
C1002 C 0.30152 0.37762 0.33776 0.0
C1003 C 0.31093 0.36891 0.36986 0.0
C1004 C 0.30612 0.39134 0.35003 0.0
C1005 C 0.31536 0.38277 0.38158 0.0
C1006 C 0.31372 0.33435 0.28619 0.0
C1007 C 0.31698 0.34769 0.274 0.0
C1008 C 0.31187 0.32143 0.27396 0.0
C1009 C 0.31815 0.34781 0.2496 0.0
C1010 C 0.31315 0.32203 0.24956 0.0
N1011 N 0.31622 0.33509 0.23799 0.0
C1012 C 0.35022 0.36752 0.34199 0.0
C1013 C 0.33854 0.37979 0.32218 0.0
C1014 C 0.36481 0.38052 0.33914 0.0
N1015 N 0.33748 0.36739 0.33342 0.0
C1016 C 0.35281 0.39303 0.31917 0.0
C1017 C 0.36628 0.39349 0.32734 0.0
H1018 H 0.34907 0.35742 0.35061 0.0
H1019 H 0.3283 0.37932 0.31517 0.0
C1020 C 0.27266 0.34151 0.29583 0.0
N1021 N 0.28012 0.33361 0.29135 0.0
C1022 C 0.2622 0.34148 0.27966 0.0
C1023 C 0.26721 0.32518 0.25431 0.0
C1024 C 0.27748 0.32539 0.27116 0.0
C1025 C 0.25937 0.33331 0.25846 0.0
H1026 H 0.27456 0.34755 0.31233 0.0
H1027 H 0.28307 0.31874 0.26823 0.0
O1028 O 0.3133 0.33564 0.3627 0.0
O1029 O 0.28217 0.31655 0.3391 0.0
O1030 O 0.29966 0.35292 0.33575 0.0
O1031 O 0.31257 0.33399 0.31004 0.0
H1032 H 0.30133 0.30897 0.38491 0.0
H1033 H 0.33461 0.35734 0.38998 0.0
H1034 H 0.30941 0.30535 0.42438 0.0
H1035 H 0.34198 0.35291 0.4295 0.0
H1036 H 0.25208 0.28098 0.28437 0.0
H1037 H 0.25708 0.31855 0.34489 0.0
H1038 H 0.27676 0.29574 0.30623 0.0
H1039 H 0.23279 0.30349 0.32221 0.0
H1040 H 0.26606 0.3168 0.43438 0.0
H1041 H 0.25626 0.34779 0.39539 0.0
H1042 H 0.33204 0.29132 0.33727 0.0
H1043 H 0.28377 0.26511 0.35503 0.0
H1044 H 0.29618 0.37583 0.32063 0.0
H1045 H 0.31278 0.36028 0.37797 0.0
H1046 H 0.30433 0.40019 0.34246 0.0
H1047 H 0.32075 0.3849 0.3987 0.0
H1048 H 0.31844 0.35777 0.28327 0.0
H1049 H 0.30939 0.31105 0.28323 0.0
H1050 H 0.32057 0.35801 0.23989 0.0
H1051 H 0.31169 0.31211 0.23983 0.0
H1052 H 0.37485 0.38022 0.34546 0.0
H1053 H 0.35326 0.40277 0.31031 0.0
H1054 H 0.25619 0.3476 0.28398 0.0
H1055 H 0.2655 0.31878 0.2382 0.0
Li1056 Li 0.32512 0.01992 0.67172 0.0
Li1057 Li 0.35157 0.03364 0.67585 0.0
Li1058 Li 0.33606 0.04284 0.69645 0.0
Li1059 Li 0.34005 0.045 0.65157 0.0
C1060 C 0.32737 0.01099 0.71425 0.0
N1061 N 0.30778 0.98477 0.7389 0.0
C1062 C 0.32666 0.99702 0.70908 0.0
C1063 C 0.31824 0.01166 0.73211 0.0
C1064 C 0.31664 0.98388 0.72168 0.0
C1065 C 0.30839 0.99827 0.74435 0.0
C1066 C 0.34949 0.0215 0.63465 0.0
C1067 C 0.36941 0.02675 0.6066 0.0
N1068 N 0.36924 0.01365 0.61316 0.0
C1069 C 0.34945 0.00804 0.64102 0.0
C1070 C 0.35951 0.03092 0.61726 0.0
C1071 C 0.35955 0.0043 0.63 0.0
C1072 C 0.30648 0.99045 0.65109 0.0
N1073 N 0.30692 0.99995 0.66846 0.0
C1074 C 0.28179 0.98091 0.68118 0.0
C1075 C 0.29484 0.99553 0.68327 0.0
C1076 C 0.28113 0.97074 0.66363 0.0
C1077 C 0.29369 0.97573 0.64839 0.0
H1078 H 0.31606 0.9943 0.63922 0.0
H1079 H 0.29537 0.00331 0.69685 0.0
C1080 C 0.37011 0.02307 0.69671 0.0
N1081 N 0.37002 0.03233 0.67946 0.0
C1082 C 0.38294 0.02135 0.70015 0.0
C1083 C 0.39557 0.03893 0.66827 0.0
C1084 C 0.38244 0.04026 0.66537 0.0
C1085 C 0.3959 0.0293 0.68579 0.0
H1086 H 0.36022 0.01704 0.7079 0.0
H1087 H 0.38217 0.04758 0.65178 0.0
C1088 C 0.30622 0.03121 0.6627 0.0
N1089 N 0.27624 0.0179 0.6466 0.0
C1090 C 0.30273 0.02645 0.63933 0.0
C1091 C 0.29451 0.02929 0.67787 0.0
C1092 C 0.28749 0.01972 0.63153 0.0
C1093 C 0.27941 0.02251 0.6694 0.0
C1094 C 0.37023 0.06433 0.68175 0.0
C1095 C 0.37626 0.06442 0.70391 0.0
C1096 C 0.37998 0.07371 0.66409 0.0
C1097 C 0.39205 0.07381 0.70796 0.0
C1098 C 0.3957 0.08296 0.66885 0.0
N1099 N 0.40136 0.0828 0.6905 0.0
C1100 C 0.34091 0.05545 0.74262 0.0
C1101 C 0.32699 0.06229 0.71631 0.0
C1102 C 0.34075 0.06538 0.75973 0.0
N1103 N 0.3342 0.05424 0.72139 0.0
C1104 C 0.3265 0.07229 0.73289 0.0
C1105 C 0.33364 0.07411 0.75483 0.0
H1106 H 0.34665 0.04897 0.74608 0.0
H1107 H 0.32201 0.06129 0.69909 0.0
C1108 C 0.33998 0.05494 0.60414 0.0
N1109 N 0.34146 0.05849 0.62737 0.0
C1110 C 0.34063 0.06555 0.58767 0.0
C1111 C 0.34402 0.08302 0.61943 0.0
C1112 C 0.34347 0.07219 0.6352 0.0
C1113 C 0.34255 0.07975 0.59532 0.0
H1114 H 0.33807 0.04382 0.59843 0.0
H1115 H 0.34449 0.0746 0.65383 0.0
O1116 O 0.33702 0.02397 0.702 0.0
O1117 O 0.33978 0.02544 0.6454 0.0
O1118 O 0.32102 0.03749 0.67076 0.0
O1119 O 0.35487 0.05505 0.67732 0.0
H1120 H 0.33365 0.99629 0.69533 0.0
H1121 H 0.31861 0.02236 0.73631 0.0
H1122 H 0.31588 0.97296 0.71774 0.0
H1123 H 0.30119 0.9986 0.75812 0.0
H1124 H 0.3773 0.03398 0.59322 0.0
H1125 H 0.34182 1.00066 0.65452 0.0
H1126 H 0.35984 0.04147 0.61231 0.0
H1127 H 0.35972 0.99397 0.63488 0.0
H1128 H 0.27241 0.97755 0.69336 0.0
H1129 H 0.29355 0.96841 0.63428 0.0
H1130 H 0.38279 0.01404 0.71418 0.0
H1131 H 0.40527 0.04522 0.65673 0.0
H1132 H 0.31168 0.02778 0.62742 0.0
H1133 H 0.29705 0.03285 0.69605 0.0
H1134 H 0.28459 0.01591 0.61352 0.0
H1135 H 0.2702 0.02087 0.68096 0.0
H1136 H 0.36885 0.05714 0.7177 0.0
H1137 H 0.37545 0.07374 0.64684 0.0
H1138 H 0.39691 0.07391 0.72497 0.0
H1139 H 0.40341 0.09023 0.65533 0.0
H1140 H 0.34624 0.06632 0.77652 0.0
H1141 H 0.32109 0.07893 0.72827 0.0
H1142 H 0.33926 0.06253 0.56922 0.0
H1143 H 0.34561 0.09387 0.62602 0.0
Li1144 Li 0.98709 0.30479 0.67476 0.0
Li1145 Li 0.97328 0.31853 0.67868 0.0
Li1146 Li 0.96338 0.29193 0.69752 0.0
Li1147 Li 0.96249 0.29491 0.65498 0.0
C1148 C 0.99547 0.31657 0.71696 0.0
N1149 N 0.02277 0.32546 0.74054 0.0
C1150 C 0.00702 0.33204 0.71742 0.0
C1151 C 0.99771 0.30562 0.72863 0.0
C1152 C 0.02077 0.33631 0.72942 0.0
C1153 C 0.01163 0.31035 0.74042 0.0
C1154 C 0.98246 0.32424 0.63166 0.0
C1155 C 0.96985 0.33236 0.6038 0.0
N1156 N 0.98382 0.34351 0.5961 0.0
C1157 C 0.9967 0.33567 0.62326 0.0
C1158 C 0.96894 0.32248 0.62169 0.0
C1159 C 0.99715 0.34535 0.60537 0.0
C1160 C 0.0107 0.29659 0.67708 0.0
N1161 N 0.00763 0.30816 0.67332 0.0
C1162 C 0.03429 0.32599 0.66691 0.0
C1163 C 0.01907 0.32269 0.66864 0.0
C1164 C 0.03781 0.31417 0.66977 0.0
C1165 C 0.02576 0.29932 0.67523 0.0
H1166 H 1.00145 0.28518 0.68125 0.0
H1167 H 0.01635 0.33176 0.66636 0.0
C1168 C 0.96406 0.33967 0.69383 0.0
N1169 N 0.97529 0.33837 0.68265 0.0
C1170 C 0.96537 0.3541 0.69691 0.0
C1171 C 0.98996 0.36565 0.67741 0.0
C1172 C 0.98815 0.35099 0.67468 0.0
C1173 C 0.97847 0.36737 0.68865 0.0
H1174 H 0.95412 0.32949 0.70053 0.0
H1175 H 0.9971 0.34969 0.66641 0.0
C1176 C 0.97265 0.27404 0.65748 0.0
N1177 N 0.97708 0.25563 0.62606 0.0
C1178 C 0.98167 0.28049 0.63758 0.0
C1179 C 0.96585 0.25823 0.66137 0.0
C1180 C 0.98378 0.27099 0.62192 0.0
C1181 C 0.96825 0.24911 0.64529 0.0
C1182 C 0.93774 0.29799 0.67464 0.0
C1183 C 0.92466 0.28492 0.68299 0.0
C1184 C 0.93601 0.30891 0.66189 0.0
C1185 C 0.91008 0.28273 0.67776 0.0
C1186 C 0.92124 0.30632 0.65705 0.0
N1187 N 0.90868 0.29338 0.66498 0.0
C1188 C 0.95421 0.2821 0.74483 0.0
C1189 C 0.94163 0.26363 0.71455 0.0
C1190 C 0.9451 0.27133 0.76173 0.0
N1191 N 0.9522 0.27807 0.72178 0.0
C1192 C 0.9322 0.25259 0.73075 0.0
C1193 C 0.93379 0.25641 0.75468 0.0
H1194 H 0.96274 0.29368 0.75004 0.0
H1195 H 0.94035 0.26081 0.69606 0.0
C1196 C 0.95495 0.28528 0.60668 0.0
N1197 N 0.94985 0.28299 0.62917 0.0
C1198 C 0.94562 0.27537 0.5888 0.0
C1199 C 0.92605 0.26095 0.61754 0.0
C1200 C 0.93582 0.27096 0.63485 0.0
C1201 C 0.93094 0.26305 0.5942 0.0
H1202 H 0.96638 0.29457 0.6027 0.0
H1203 H 0.93241 0.26886 0.65298 0.0
O1204 O 0.98211 0.31209 0.70481 0.0
O1205 O 0.98187 0.31478 0.64936 0.0
O1206 O 0.97014 0.28305 0.67283 0.0
O1207 O 0.95213 0.30038 0.67987 0.0
H1208 H 0.00544 0.34063 0.70841 0.0
H1209 H 0.98888 0.29358 0.72833 0.0
H1210 H 0.02986 0.34823 0.72981 0.0
H1211 H 0.01358 0.302 0.7494 0.0
H1212 H 0.95944 0.3311 0.59597 0.0
H1213 H 0.00731 0.33712 0.63056 0.0
H1214 H 0.95786 0.31343 0.62742 0.0
H1215 H 0.00809 0.3543 0.59883 0.0
H1216 H 0.04318 0.33769 0.66328 0.0
H1217 H 0.02783 0.2898 0.67741 0.0
H1218 H 0.95639 0.35489 0.70617 0.0
H1219 H 1.00023 0.37552 0.67074 0.0
H1220 H 0.98695 0.29269 0.63419 0.0
H1221 H 0.95879 0.25305 0.67664 0.0
H1222 H 0.99073 0.27582 0.60645 0.0
H1223 H 0.96306 0.23685 0.64808 0.0
H1224 H 0.92572 0.27649 0.6933 0.0
H1225 H 0.94594 0.3194 0.65605 0.0
H1226 H 0.89988 0.27259 0.68394 0.0
H1227 H 0.91977 0.31466 0.64712 0.0
H1228 H 0.9466 0.27474 0.78002 0.0
H1229 H 0.92374 0.24119 0.72463 0.0
H1230 H 0.94984 0.27729 0.57099 0.0
H1231 H 0.91498 0.25136 0.62248 0.0
Li1232 Li 0.69958 0.68384 0.67342 0.0
Li1233 Li 0.68619 0.65633 0.67453 0.0
Li1234 Li 0.71185 0.67201 0.69546 0.0
Li1235 Li 0.7099 0.66973 0.65285 0.0
C1236 C 0.68879 0.67984 0.71593 0.0
N1237 N 0.68314 0.6992 0.74331 0.0
C1238 C 0.67397 0.67777 0.71698 0.0
C1239 C 0.70073 0.69168 0.7289 0.0
C1240 C 0.67135 0.68771 0.7309 0.0
C1241 C 0.69764 0.70136 0.74261 0.0
C1242 C 0.67833 0.6597 0.63183 0.0
C1243 C 0.6653 0.63622 0.60906 0.0
N1244 N 0.65387 0.6393 0.60395 0.0
C1245 C 0.66653 0.66271 0.62612 0.0
C1246 C 0.67776 0.64642 0.62303 0.0
C1247 C 0.65424 0.65224 0.61209 0.0
C1248 C 0.70892 0.71555 0.68047 0.0
N1249 N 0.69697 0.70158 0.67393 0.0
C1250 C 0.68097 0.71262 0.66742 0.0
C1251 C 0.68304 0.69986 0.66813 0.0
C1252 C 0.69334 0.72733 0.67296 0.0
C1253 C 0.70739 0.72863 0.67999 0.0
H1254 H 0.71971 0.71658 0.68602 0.0
H1255 H 0.67352 0.68855 0.66407 0.0
C1256 C 0.66573 0.62448 0.68066 0.0
N1257 N 0.66643 0.63819 0.67712 0.0
C1258 C 0.65156 0.61109 0.68376 0.0
C1259 C 0.63902 0.62616 0.67978 0.0
C1260 C 0.65345 0.63925 0.67644 0.0
C1261 C 0.63792 0.61181 0.68376 0.0
H1262 H 0.67621 0.62397 0.68154 0.0
H1263 H 0.65433 0.65032 0.67378 0.0
C1264 C 0.7301 0.70112 0.65841 0.0
N1265 N 0.74746 0.72616 0.62999 0.0
C1266 C 0.72399 0.70276 0.63723 0.0
C1267 C 0.74504 0.71224 0.66509 0.0
C1268 C 0.73295 0.71549 0.62313 0.0
C1269 C 0.75363 0.72481 0.6505 0.0
C1270 C 0.71121 0.64496 0.66904 0.0
C1271 C 0.72604 0.64937 0.67714 0.0
C1272 C 0.70369 0.63224 0.65397 0.0
C1273 C 0.73322 0.64127 0.66962 0.0
C1274 C 0.71125 0.62443 0.64685 0.0
N1275 N 0.72575 0.62909 0.65472 0.0
C1276 C 0.71706 0.66365 0.74007 0.0
C1277 C 0.73954 0.68249 0.72091 0.0
C1278 C 0.72589 0.6631 0.7586 0.0
N1279 N 0.72401 0.67313 0.72166 0.0
C1280 C 0.74884 0.68224 0.73899 0.0
C1281 C 0.74203 0.67234 0.75806 0.0
H1282 H 0.70468 0.65624 0.74001 0.0
H1283 H 0.74474 0.68973 0.70586 0.0
C1284 C 0.71729 0.6665 0.60474 0.0
N1285 N 0.72223 0.66971 0.62739 0.0
C1286 C 0.72715 0.66669 0.58732 0.0
C1287 C 0.747 0.67376 0.61677 0.0
C1288 C 0.73685 0.6736 0.6335 0.0
C1289 C 0.74219 0.67022 0.59334 0.0
H1290 H 0.70579 0.66391 0.60012 0.0
H1291 H 0.74066 0.67665 0.65147 0.0
O1292 O 0.69172 0.67057 0.70184 0.0
O1293 O 0.69028 0.66956 0.64611 0.0
O1294 O 0.72159 0.68872 0.67256 0.0
O1295 O 0.70406 0.65288 0.6761 0.0
H1296 H 0.66463 0.6687 0.70698 0.0
H1297 H 0.7123 0.69351 0.72811 0.0
H1298 H 0.65995 0.6863 0.73178 0.0
H1299 H 0.70678 0.71064 0.75263 0.0
H1300 H 0.66472 0.62586 0.60226 0.0
H1301 H 0.66682 0.67302 0.63235 0.0
H1302 H 0.68689 0.64407 0.62694 0.0
H1303 H 0.64501 0.6544 0.60765 0.0
H1304 H 0.66992 0.71102 0.66192 0.0
H1305 H 0.71713 0.73966 0.68496 0.0
H1306 H 0.65136 0.60031 0.68638 0.0
H1307 H 0.62892 0.62742 0.67999 0.0
H1308 H 0.71249 0.69435 0.63166 0.0
H1309 H 0.74995 0.71122 0.68143 0.0
H1310 H 0.72836 0.71688 0.60671 0.0
H1311 H 0.7652 0.7335 0.65549 0.0
H1312 H 0.73207 0.6591 0.68881 0.0
H1313 H 0.69209 0.6283 0.64792 0.0
H1314 H 0.74475 0.64471 0.6756 0.0
H1315 H 0.70556 0.61463 0.63512 0.0
H1316 H 0.72018 0.65515 0.77281 0.0
H1317 H 0.76121 0.68961 0.73798 0.0
H1318 H 0.72303 0.66397 0.56939 0.0
H1319 H 0.7586 0.6769 0.62205 0.0
Li1320 Li 0.3501 0.32039 0.67523 0.0
Li1321 Li 0.33458 0.29614 0.69483 0.0
Li1322 Li 0.33645 0.29678 0.65271 0.0
Li1323 Li 0.32238 0.30725 0.67229 0.0
C1324 C 0.36513 0.30464 0.68996 0.0
N1325 N 0.38911 0.30893 0.71894 0.0
C1326 C 0.36889 0.31409 0.70982 0.0
C1327 C 0.37355 0.29736 0.68486 0.0
C1328 C 0.38106 0.31612 0.72424 0.0
C1329 C 0.38564 0.29968 0.69972 0.0
C1330 C 0.32595 0.31443 0.7196 0.0
C1331 C 0.30315 0.29909 0.74246 0.0
N1332 N 0.30714 0.31138 0.75684 0.0
C1333 C 0.32982 0.3269 0.7346 0.0
C1334 C 0.31251 0.30039 0.72355 0.0
C1335 C 0.32017 0.32514 0.75333 0.0
C1336 C 0.3665 0.35224 0.68417 0.0
N1337 N 0.36817 0.3403 0.67663 0.0
C1338 C 0.39525 0.35705 0.67182 0.0
C1339 C 0.38215 0.34244 0.67024 0.0
C1340 C 0.39395 0.36959 0.67993 0.0
C1341 C 0.37929 0.36705 0.68594 0.0
H1342 H 0.35523 0.35019 0.68906 0.0
H1343 H 0.38317 0.3328 0.66408 0.0
C1344 C 0.32772 0.26836 0.71492 0.0
N1345 N 0.33334 0.28345 0.72033 0.0
C1346 C 0.32767 0.25825 0.7317 0.0
C1347 C 0.33911 0.27941 0.75944 0.0
C1348 C 0.33882 0.2891 0.74214 0.0
C1349 C 0.33362 0.26379 0.75421 0.0
H1350 H 0.32364 0.26426 0.69731 0.0
H1351 H 0.34331 0.30118 0.74593 0.0
C1352 C 0.3469 0.32418 0.62795 0.0
N1353 N 0.36609 0.33935 0.59083 0.0
C1354 C 0.34374 0.33337 0.61323 0.0
C1355 C 0.35982 0.32271 0.6238 0.0
C1356 C 0.35358 0.34094 0.59455 0.0
C1357 C 0.36938 0.33047 0.60494 0.0
C1358 C 0.30531 0.27685 0.65735 0.0
C1359 C 0.30364 0.28289 0.63621 0.0
C1360 C 0.29435 0.26185 0.66362 0.0
C1361 C 0.291 0.27381 0.62171 0.0
C1362 C 0.28186 0.25313 0.64865 0.0
N1363 N 0.28046 0.25924 0.62818 0.0
C1364 C 0.33823 0.2723 0.63479 0.0
C1365 C 0.33567 0.28703 0.60455 0.0
C1366 C 0.33832 0.26199 0.61844 0.0
N1367 N 0.33695 0.28451 0.62764 0.0
C1368 C 0.33595 0.27711 0.58753 0.0
C1369 C 0.33723 0.26437 0.59447 0.0
H1370 H 0.33908 0.27054 0.65331 0.0
H1371 H 0.33432 0.29663 0.59932 0.0
C1372 C 0.30837 0.32476 0.66289 0.0
N1373 N 0.30531 0.31066 0.67027 0.0
C1374 C 0.29644 0.32797 0.65992 0.0
C1375 C 0.27842 0.30216 0.67264 0.0
C1376 C 0.29074 0.2995 0.67556 0.0
C1377 C 0.28115 0.31651 0.66441 0.0
H1378 H 0.3201 0.33348 0.65906 0.0
H1379 H 0.2886 0.28842 0.68165 0.0
O1380 O 0.35316 0.3023 0.67566 0.0
O1381 O 0.33532 0.31609 0.70117 0.0
O1382 O 0.3374 0.31683 0.6464 0.0
O1383 O 0.31759 0.28544 0.6719 0.0
H1384 H 0.36247 0.31977 0.71413 0.0
H1385 H 0.37074 0.28997 0.66958 0.0
H1386 H 0.38408 0.32339 0.73967 0.0
H1387 H 0.39226 0.29412 0.69599 0.0
H1388 H 0.29272 0.2883 0.74571 0.0
H1389 H 0.3402 0.33784 0.73177 0.0
H1390 H 0.3093 0.29058 0.7122 0.0
H1391 H 0.32303 0.3347 0.76508 0.0
H1392 H 0.40629 0.3585 0.66677 0.0
H1393 H 0.37777 0.37633 0.69257 0.0
H1394 H 0.32351 0.24636 0.72684 0.0
H1395 H 0.34365 0.2841 0.77666 0.0
H1396 H 0.33379 0.33464 0.61624 0.0
H1397 H 0.36243 0.31561 0.63491 0.0
H1398 H 0.35127 0.34809 0.58302 0.0
H1399 H 0.3794 0.32942 0.60152 0.0
H1400 H 0.31196 0.29446 0.631 0.0
H1401 H 0.29548 0.25701 0.67993 0.0
H1402 H 0.28956 0.27835 0.60532 0.0
H1403 H 0.27328 0.24151 0.6533 0.0
H1404 H 0.3394 0.25234 0.62445 0.0
H1405 H 0.33488 0.2792 0.56919 0.0
H1406 H 0.29918 0.3393 0.654 0.0
H1407 H 0.26686 0.2929 0.67612 0.0
Li1408 Li 0.68856 0.03673 0.67493 0.0
Li1409 Li 0.71295 0.04551 0.69358 0.0
Li1410 Li 0.71229 0.04621 0.65225 0.0
Li1411 Li 0.70185 0.02114 0.67334 0.0
C1412 C 0.70293 0.06708 0.66208 0.0
N1413 N 0.69536 0.08595 0.63717 0.0
C1414 C 0.70784 0.08204 0.66998 0.0
C1415 C 0.69418 0.06172 0.64146 0.0
C1416 C 0.70389 0.09141 0.65716 0.0
C1417 C 0.69047 0.07144 0.62913 0.0
C1418 C 0.69075 0.02569 0.72393 0.0
C1419 C 0.68839 0.01365 0.76135 0.0
N1420 N 0.68584 0.02442 0.77165 0.0
C1421 C 0.68804 0.03659 0.73483 0.0
C1422 C 0.69088 0.01409 0.73722 0.0
C1423 C 0.68562 0.03577 0.759 0.0
C1424 C 0.656 0.02228 0.66998 0.0
N1425 N 0.66889 0.03524 0.6774 0.0
C1426 C 0.65383 0.04607 0.6909 0.0
C1427 C 0.66805 0.04706 0.68759 0.0
C1428 C 0.64022 0.03267 0.68405 0.0
C1429 C 0.64146 0.02073 0.67315 0.0
H1430 H 0.65699 0.013 0.66208 0.0
H1431 H 0.67844 0.05718 0.69357 0.0
C1432 C 0.73492 0.07292 0.71392 0.0
N1433 N 0.72602 0.05773 0.71903 0.0
C1434 C 0.74555 0.08313 0.73025 0.0
C1435 C 0.73772 0.06193 0.757 0.0
C1436 C 0.7273 0.05208 0.74004 0.0
C1437 C 0.74704 0.07772 0.75221 0.0
H1438 H 0.73396 0.07706 0.6969 0.0
H1439 H 0.72047 0.03992 0.74356 0.0
C1440 C 0.69142 0.01904 0.62688 0.0
N1441 N 0.69011 0.00304 0.58661 0.0
C1442 C 0.70375 0.01693 0.62098 0.0
C1443 C 0.67843 0.013 0.61233 0.0
C1444 C 0.70286 0.0088 0.60055 0.0
C1445 C 0.67799 0.00496 0.59203 0.0
C1446 C 0.73587 0.04128 0.6845 0.0
C1447 C 0.75007 0.05447 0.68035 0.0
C1448 C 0.7345 0.03141 0.70272 0.0
C1449 C 0.76266 0.05763 0.69467 0.0
C1450 C 0.74738 0.03495 0.71661 0.0
N1451 N 0.76106 0.04789 0.71235 0.0
C1452 C 0.73586 0.07261 0.6334 0.0
C1453 C 0.72092 0.05484 0.60352 0.0
C1454 C 0.74566 0.08308 0.61685 0.0
N1455 N 0.72391 0.05873 0.62658 0.0
C1456 C 0.73055 0.06493 0.58632 0.0
C1457 C 0.74322 0.07925 0.59291 0.0
H1458 H 0.73774 0.07554 0.65184 0.0
H1459 H 0.71114 0.04396 0.59835 0.0
C1460 C 0.6838 0.9887 0.67347 0.0
N1461 N 0.69845 1.00067 0.6718 0.0
C1462 C 0.68072 0.97356 0.67073 0.0
C1463 C 0.70792 0.98336 0.66513 0.0
C1464 C 0.71045 0.9983 0.66777 0.0
C1465 C 0.69287 0.97075 0.66634 0.0
H1466 H 0.67447 0.99096 0.67649 0.0
H1467 H 0.72195 0.00802 0.666 0.0
O1468 O 0.7068 0.05786 0.67455 0.0
O1469 O 0.69321 0.0263 0.70035 0.0
O1470 O 0.69186 0.02669 0.64701 0.0
O1471 O 0.7233 0.03819 0.67111 0.0
H1472 H 0.71462 0.08637 0.68591 0.0
H1473 H 0.69027 0.05021 0.63498 0.0
H1474 H 0.7076 0.10301 0.6631 0.0
H1475 H 0.68371 0.06744 0.61317 0.0
H1476 H 0.6885 0.00477 0.7719 0.0
H1477 H 0.68801 0.04569 0.72477 0.0
H1478 H 0.69295 0.00556 0.72897 0.0
H1479 H 0.68359 0.04418 0.76771 0.0
H1480 H 0.65352 0.05569 0.699 0.0
H1481 H 0.63131 0.01011 0.66785 0.0
H1482 H 0.75268 0.09511 0.72552 0.0
H1483 H 0.73836 0.05722 0.77373 0.0
H1484 H 0.71394 0.02159 0.63195 0.0
H1485 H 0.66877 0.0145 0.61673 0.0
H1486 H 0.71232 0.00709 0.59576 0.0
H1487 H 0.66801 1.00023 0.58059 0.0
H1488 H 0.75134 0.06222 0.66632 0.0
H1489 H 0.72354 0.02127 0.70639 0.0
H1490 H 0.7737 0.06783 0.69174 0.0
H1491 H 0.74645 0.02747 0.73088 0.0
H1492 H 0.75499 0.0941 0.62281 0.0
H1493 H 0.72823 0.06139 0.56811 0.0
H1494 H 0.66895 0.96416 0.67186 0.0
H1495 H 0.71757 0.98173 0.66135 0.0
Li1496 Li 0.96197 0.66847 0.69564 0.0
Li1497 Li 0.97179 0.65371 0.67738 0.0
Li1498 Li 0.98566 0.68243 0.6742 0.0
Li1499 Li 0.96074 0.66608 0.65369 0.0
C1500 C 0.98221 0.67004 0.72621 0.0
N1501 N 0.98194 0.67113 0.77456 0.0
C1502 C 0.97204 0.65697 0.73883 0.0
C1503 C 0.99239 0.6836 0.73815 0.0
C1504 C 0.97203 0.65777 0.76328 0.0
C1505 C 0.99204 0.68393 0.76261 0.0
C1506 C 0.94169 0.63586 0.66389 0.0
C1507 C 0.93934 0.61918 0.63155 0.0
N1508 N 0.92457 0.60919 0.63781 0.0
C1509 C 0.92645 0.62539 0.66992 0.0
C1510 C 0.94815 0.63271 0.64445 0.0
C1511 C 0.91801 0.612 0.65655 0.0
C1512 C 0.95521 0.68107 0.73717 0.0
N1513 N 0.95004 0.66922 0.7215 0.0
C1514 C 0.92513 0.65694 0.7391 0.0
C1515 C 0.93539 0.6572 0.72247 0.0
C1516 C 0.9299 0.66928 0.75492 0.0
C1517 C 0.94527 0.68138 0.75402 0.0
H1518 H 0.96696 0.69039 0.73652 0.0
H1519 H 0.93156 0.64786 0.71007 0.0
C1520 C 0.98666 0.63614 0.67055 0.0
N1521 N 0.97436 0.63616 0.68037 0.0
C1522 C 0.98863 0.62336 0.67302 0.0
C1523 C 0.96516 0.61085 0.69545 0.0
C1524 C 0.96369 0.62387 0.69264 0.0
C1525 C 0.9778 0.61048 0.68567 0.0
H1526 H 0.99499 0.64609 0.66092 0.0
H1527 H 0.95405 0.62422 0.70039 0.0
C1528 C 0.96827 0.69813 0.68052 0.0
N1529 N 0.97083 0.72552 0.69562 0.0
C1530 C 0.95875 0.7032 0.67097 0.0
C1531 C 0.97918 0.70707 0.69758 0.0
C1532 C 0.96019 0.71706 0.67888 0.0
C1533 C 0.98027 0.72085 0.70506 0.0
C1534 C 0.98795 0.67415 0.62847 0.0
C1535 C 0.98613 0.68624 0.62018 0.0
C1536 C 0.99726 0.66986 0.61623 0.0
C1537 C 0.99369 0.69386 0.59977 0.0
C1538 C 0.00463 0.67777 0.59587 0.0
N1539 N 1.00271 0.68951 0.58814 0.0
C1540 C 0.01826 0.70074 0.67939 0.0
C1541 C 0.00645 0.71308 0.66019 0.0
C1542 C 0.03286 0.71364 0.67601 0.0
N1543 N 0.00545 0.70066 0.67132 0.0
C1544 C 0.02074 0.72619 0.65656 0.0
C1545 C 0.03426 0.72655 0.66417 0.0
H1546 H 0.01716 0.69066 0.68803 0.0
H1547 H 0.99614 0.71276 0.65378 0.0
C1548 C 0.93576 0.6662 0.63442 0.0
N1549 N 0.94777 0.66435 0.62809 0.0
C1550 C 0.92553 0.66593 0.61756 0.0
C1551 C 0.93988 0.66126 0.58792 0.0
C1552 C 0.94983 0.66156 0.60544 0.0
C1553 C 0.92764 0.66365 0.59389 0.0
H1554 H 0.93428 0.66811 0.65266 0.0
H1555 H 0.95922 0.6597 0.60094 0.0
O1556 O 0.98221 0.66955 0.70227 0.0
O1557 O 0.95002 0.64917 0.67674 0.0
O1558 O 0.96742 0.6849 0.67226 0.0
O1559 O 0.9808 0.66658 0.64855 0.0
H1560 H 0.96409 0.6464 0.72982 0.0
H1561 H 1.00045 0.69376 0.72862 0.0
H1562 H 0.96413 0.64779 0.77328 0.0
H1563 H 0.99979 0.69436 0.7721 0.0
H1564 H 0.94425 0.61663 0.61654 0.0
H1565 H 0.9211 0.62753 0.68474 0.0
H1566 H 0.95984 0.64053 0.63926 0.0
H1567 H 0.90622 0.60384 0.66106 0.0
H1568 H 0.91356 0.64714 0.73948 0.0
H1569 H 0.94951 0.69116 0.76581 0.0
H1570 H 0.9985 0.62355 0.66507 0.0
H1571 H 0.95667 0.60133 0.70569 0.0
H1572 H 0.95044 0.69659 0.65742 0.0
H1573 H 0.98677 0.70343 0.70494 0.0
H1574 H 0.95291 0.72112 0.67161 0.0
H1575 H 0.98865 0.72786 0.71829 0.0
H1576 H 0.97891 0.68967 0.62933 0.0
H1577 H 0.99879 0.66053 0.62241 0.0
H1578 H 0.99238 0.70324 0.59317 0.0
H1579 H 0.01187 0.67458 0.58623 0.0
H1580 H 0.04294 0.7133 0.68196 0.0
H1581 H 0.02117 0.73592 0.64769 0.0
H1582 H 0.91634 0.66791 0.62294 0.0
H1583 H 0.94175 0.65919 0.56991 0.0
H1584 H 0.14855 0.32006 0.13185 0.0
H1585 H 0.14892 0.33096 0.05871 0.0
H1586 H 0.12847 0.3469 0.10938 0.0
H1587 H 0.1529 0.3053 0.0999 0.0
H1588 H 0.1558 0.31202 0.07043 0.0
H1589 H 0.17304 0.32245 0.13146 0.0
H1590 H 0.21933 0.34383 0.10565 0.0
H1591 H 0.1816 0.32745 0.05704 0.0
C1592 C 0.1463 0.32608 0.11806 0.0
C1593 C 0.13856 0.33409 0.12344 0.0
C1594 C 0.15065 0.32537 0.09484 0.0
C1595 C 0.14647 0.33219 0.07682 0.0
C1596 C 0.13857 0.34006 0.08211 0.0
C1597 C 0.13509 0.34132 0.10545 0.0
C1598 C 0.15813 0.3159 0.08905 0.0
C1599 C 0.17531 0.32464 0.09376 0.0
C1600 C 0.18099 0.32674 0.11695 0.0
C1601 C 0.1969 0.33391 0.12144 0.0
C1602 C 0.20708 0.33895 0.10251 0.0
C1603 C 0.20166 0.33661 0.07941 0.0
C1604 C 0.18579 0.32957 0.07498 0.0
H1605 H 0.68786 0.83323 0.13069 0.0
H1606 H 0.67044 0.81883 0.06031 0.0
H1607 H 0.65918 0.7853 0.11457 0.0
H1608 H 0.69917 0.8509 0.09627 0.0
H1609 H 0.69009 0.84536 0.06811 0.0
H1610 H 0.68288 0.85342 0.13048 0.0
H1611 H 0.65877 0.87634 0.10788 0.0
H1612 H 0.6746 0.85606 0.05677 0.0
C1613 C 0.68065 0.82428 0.11826 0.0
C1614 C 0.67308 0.80888 0.12543 0.0
C1615 C 0.67923 0.82808 0.09497 0.0
C1616 C 0.67089 0.81613 0.07856 0.0
C1617 C 0.66358 0.80065 0.08561 0.0
C1618 C 0.66437 0.79723 0.10918 0.0
C1619 C 0.68778 0.84472 0.08725 0.0
C1620 C 0.67904 0.85299 0.09303 0.0
C1621 C 0.67776 0.85664 0.1165 0.0
C1622 C 0.67019 0.86481 0.122 0.0
C1623 C 0.66402 0.86943 0.10384 0.0
C1624 C 0.66568 0.86647 0.08037 0.0
C1625 C 0.67313 0.85817 0.07496 0.0
H1626 H 0.16955 0.81619 0.14846 0.0
H1627 H 0.16436 0.80748 0.074 0.0
H1628 H 0.12446 0.79042 0.11774 0.0
H1629 H 0.19076 0.81742 0.12387 0.0
H1630 H 0.18899 0.81609 0.09276 0.0
H1631 H 0.19434 0.84107 0.14494 0.0
H1632 H 0.21878 0.88273 0.10535 0.0
H1633 H 0.19806 0.83899 0.06996 0.0
C1634 C 0.16225 0.81179 0.13302 0.0
C1635 C 0.14617 0.80366 0.13555 0.0
C1636 C 0.16893 0.81358 0.11075 0.0
C1637 C 0.15932 0.80686 0.09101 0.0
C1638 C 0.14323 0.79861 0.09341 0.0
C1639 C 0.13682 0.79747 0.11561 0.0
C1640 C 0.18617 0.82072 0.10854 0.0
C1641 C 0.19429 0.8381 0.1074 0.0
C1642 C 0.19781 0.84687 0.12822 0.0
C1643 C 0.20692 0.863 0.12762 0.0
C1644 C 0.21168 0.87029 0.10587 0.0
C1645 C 0.20887 0.86181 0.08507 0.0
C1646 C 0.19997 0.84567 0.08587 0.0
H1647 H 0.35346 0.19078 0.8727 0.0
H1648 H 0.35674 0.19783 0.94752 0.0
H1649 H 0.33615 0.21776 0.90436 0.0
H1650 H 0.37334 0.18877 0.89812 0.0
H1651 H 0.37142 0.18799 0.92915 0.0
H1652 H 0.35205 0.16707 0.87306 0.0
H1653 H 0.33589 0.12279 0.9039 0.0
H1654 H 0.3579 0.16341 0.9472 0.0
C1655 C 0.35073 0.19503 0.88835 0.0
C1656 C 0.34345 0.20381 0.88616 0.0
C1657 C 0.35518 0.19241 0.91054 0.0
C1658 C 0.35265 0.19912 0.93054 0.0
C1659 C 0.34572 0.20826 0.92848 0.0
C1660 C 0.3408 0.21012 0.90631 0.0
C1661 C 0.36472 0.18461 0.91245 0.0
C1662 C 0.35518 0.16723 0.91061 0.0
C1663 C 0.34988 0.16011 0.88855 0.0
C1664 C 0.3426 0.14403 0.88616 0.0
C1665 C 0.34057 0.13509 0.90605 0.0
C1666 C 0.34616 0.1419 0.92809 0.0
C1667 C 0.35325 0.15801 0.93035 0.0
H1668 H 0.85814 0.17061 0.88218 0.0
H1669 H 0.85544 0.18485 0.95263 0.0
H1670 H 0.87903 0.21854 0.89898 0.0
H1671 H 0.85161 0.15276 0.91638 0.0
H1672 H 0.84847 0.15833 0.94466 0.0
H1673 H 0.83267 0.15065 0.88245 0.0
H1674 H 0.78579 0.12794 0.90557 0.0
H1675 H 0.82245 0.14814 0.95625 0.0
C1676 C 0.86024 0.17957 0.89476 0.0
C1677 C 0.86847 0.195 0.88784 0.0
C1678 C 0.85501 0.17575 0.91799 0.0
C1679 C 0.85885 0.18767 0.9345 0.0
C1680 C 0.86752 0.20321 0.92778 0.0
C1681 C 0.87191 0.20665 0.90429 0.0
C1682 C 0.84667 0.15907 0.92556 0.0
C1683 C 0.82961 0.15107 0.91992 0.0
C1684 C 0.82444 0.14746 0.89649 0.0
C1685 C 0.80862 0.13935 0.89114 0.0
C1686 C 0.79801 0.13482 0.90944 0.0
C1687 C 0.80287 0.13783 0.93286 0.0
C1688 C 0.81869 0.14602 0.93811 0.0
H1689 H 0.83593 0.64754 0.87141 0.0
H1690 H 0.84032 0.64222 0.9455 0.0
H1691 H 0.88067 0.66721 0.90339 0.0
H1692 H 0.81488 0.62609 0.89482 0.0
H1693 H 0.81609 0.62626 0.92597 0.0
H1694 H 0.81069 0.64584 0.87388 0.0
H1695 H 0.78289 0.65954 0.91251 0.0
H1696 H 0.80549 0.63888 0.94866 0.0
C1697 C 0.84304 0.65023 0.88701 0.0
C1698 C 0.85916 0.65868 0.88499 0.0
C1699 C 0.83611 0.64457 0.90892 0.0
C1700 C 0.84552 0.64722 0.92882 0.0
C1701 C 0.86163 0.65556 0.92694 0.0
C1702 C 0.86826 0.66153 0.90513 0.0
C1703 C 0.81891 0.63385 0.91042 0.0
C1704 C 0.81008 0.6424 0.91141 0.0
C1705 C 0.8066 0.64757 0.89053 0.0
C1706 C 0.79666 0.65359 0.8909 0.0
C1707 C 0.7909 0.65524 0.91232 0.0
C1708 C 0.79396 0.64994 0.93313 0.0
C1709 C 0.80361 0.64356 0.93271 0.0
H1710 H 0.81896 0.65972 0.47076 0.0
H1711 H 0.81744 0.66648 0.3964 0.0
H1712 H 0.79717 0.68413 0.44443 0.0
H1713 H 0.82178 0.64273 0.44029 0.0
H1714 H 0.82476 0.64844 0.41034 0.0
H1715 H 0.84213 0.65844 0.47079 0.0
H1716 H 0.88839 0.68091 0.44468 0.0
H1717 H 0.85049 0.66537 0.39649 0.0
C1718 C 0.81612 0.66476 0.4562 0.0
C1719 C 0.80818 0.67274 0.46042 0.0
C1720 C 0.81988 0.66277 0.43316 0.0
C1721 C 0.81525 0.66856 0.41424 0.0
C1722 C 0.80722 0.67647 0.4183 0.0
C1723 C 0.80406 0.67873 0.44139 0.0
C1724 C 0.82714 0.65295 0.42865 0.0
C1725 C 0.84432 0.66164 0.43323 0.0
C1726 C 0.85005 0.6632 0.45629 0.0
C1727 C 0.86597 0.67035 0.4606 0.0
C1728 C 0.87612 0.67604 0.44167 0.0
C1729 C 0.87064 0.67419 0.41863 0.0
C1730 C 0.85474 0.66711 0.41438 0.0
H1731 H 0.34983 0.16579 0.47068 0.0
H1732 H 0.3361 0.15239 0.39872 0.0
H1733 H 0.32378 0.11803 0.45193 0.0
H1734 H 0.36281 0.18392 0.43667 0.0
H1735 H 0.35444 0.17888 0.40804 0.0
H1736 H 0.34757 0.18779 0.46974 0.0
H1737 H 0.32193 0.20897 0.44644 0.0
H1738 H 0.33739 0.18781 0.39617 0.0
C1739 C 0.34349 0.15698 0.45759 0.0
C1740 C 0.33619 0.14145 0.46409 0.0
C1741 C 0.34302 0.16109 0.43412 0.0
C1742 C 0.3358 0.14938 0.417 0.0
C1743 C 0.32877 0.13378 0.42336 0.0
C1744 C 0.32865 0.13001 0.447 0.0
C1745 C 0.35164 0.17786 0.42703 0.0
C1746 C 0.34269 0.18595 0.43248 0.0
C1747 C 0.34186 0.19028 0.45572 0.0
C1748 C 0.33413 0.19834 0.46084 0.0
C1749 C 0.32728 0.20212 0.44262 0.0
C1750 C 0.3286 0.1986 0.41929 0.0
C1751 C 0.33618 0.19036 0.41424 0.0
H1752 H 0.83467 0.14933 0.47222 0.0
H1753 H 0.83108 0.13762 0.39885 0.0
H1754 H 0.79035 0.12122 0.44054 0.0
H1755 H 0.85628 0.14844 0.44832 0.0
H1756 H 0.85569 0.14943 0.41725 0.0
H1757 H 0.85888 0.17057 0.47344 0.0
H1758 H 0.88612 0.21478 0.442 0.0
H1759 H 0.86625 0.17404 0.39881 0.0
C1760 C 0.82776 0.14431 0.45661 0.0
C1761 C 0.81166 0.13586 0.45856 0.0
C1762 C 0.83491 0.14549 0.43493 0.0
C1763 C 0.82569 0.1376 0.41527 0.0
C1764 C 0.80955 0.12888 0.41715 0.0
C1765 C 0.8027 0.12854 0.43866 0.0
C1766 C 0.85228 0.1529 0.43369 0.0
C1767 C 0.86059 0.1703 0.43565 0.0
C1768 C 0.86318 0.17748 0.4578 0.0
C1769 C 0.87206 0.19355 0.46003 0.0
C1770 C 0.87846 0.20246 0.43999 0.0
C1771 C 0.8767 0.19557 0.41791 0.0
C1772 C 0.86746 0.17947 0.41574 0.0
H1773 H 0.02821 0.53114 0.20734 0.0
H1774 H 0.0311 0.53402 0.28284 0.0
H1775 H 0.0099 0.55544 0.24497 0.0
H1776 H 0.04695 0.52656 0.23013 0.0
H1777 H 0.04603 0.52538 0.26128 0.0
H1778 H 0.02577 0.50542 0.20545 0.0
H1779 H 0.00659 0.46056 0.23594 0.0
H1780 H 0.03123 0.50078 0.27943 0.0
C1781 C 0.02528 0.53441 0.2238 0.0
C1782 C 0.0184 0.54363 0.22366 0.0
C1783 C 0.02956 0.53052 0.24518 0.0
C1784 C 0.02697 0.53608 0.26643 0.0
C1785 C 0.01975 0.54497 0.26635 0.0
C1786 C 0.01507 0.54818 0.24502 0.0
C1787 C 0.03883 0.52241 0.24512 0.0
C1788 C 0.02872 0.50512 0.24298 0.0
C1789 C 0.02313 0.49827 0.22085 0.0
C1790 C 0.01494 0.48218 0.21832 0.0
C1791 C 0.01212 0.47296 0.23812 0.0
C1792 C 0.01812 0.47953 0.26012 0.0
C1793 C 0.02625 0.49565 0.26257 0.0
H1794 H 0.5205 0.50716 0.21602 0.0
H1795 H 0.51976 0.52042 0.28783 0.0
H1796 H 0.541 0.55487 0.23463 0.0
H1797 H 0.51538 0.48904 0.25013 0.0
H1798 H 0.5117 0.49393 0.27856 0.0
H1799 H 0.49648 0.48522 0.21623 0.0
H1800 H 0.44942 0.46392 0.23777 0.0
H1801 H 0.48551 0.48454 0.28948 0.0
C1802 C 0.52274 0.51592 0.22905 0.0
C1803 C 0.53065 0.53145 0.22251 0.0
C1804 C 0.51813 0.51174 0.25245 0.0
C1805 C 0.5224 0.52342 0.26954 0.0
C1806 C 0.53059 0.53901 0.26309 0.0
C1807 C 0.5342 0.54284 0.23951 0.0
C1808 C 0.51008 0.49496 0.25948 0.0
C1809 C 0.49307 0.48672 0.25343 0.0
C1810 C 0.48815 0.4826 0.22998 0.0
C1811 C 0.47242 0.47467 0.22427 0.0
C1812 C 0.46159 0.47069 0.24209 0.0
C1813 C 0.46616 0.47396 0.26561 0.0
C1814 C 0.48194 0.48213 0.27127 0.0
H1815 H 0.50318 0.98177 0.20436 0.0
H1816 H 0.50592 0.97348 0.27778 0.0
H1817 H 0.54717 0.99847 0.23741 0.0
H1818 H 0.48128 0.95954 0.22706 0.0
H1819 H 0.4816 0.96021 0.25823 0.0
H1820 H 0.47912 0.97998 0.20386 0.0
H1821 H 0.45147 0.99583 0.23744 0.0
H1822 H 0.4707 0.97349 0.27809 0.0
C1823 C 0.50992 0.98374 0.22019 0.0
C1824 C 0.52604 0.99155 0.21875 0.0
C1825 C 0.50251 0.97765 0.24165 0.0
C1826 C 0.5115 0.97901 0.26156 0.0
C1827 C 0.52766 0.98661 0.26017 0.0
C1828 C 0.53478 0.9933 0.23892 0.0
C1829 C 0.48515 0.96757 0.24234 0.0
C1830 C 0.47686 0.97669 0.24141 0.0
C1831 C 0.47458 0.98202 0.21979 0.0
C1832 C 0.4657 0.98924 0.21843 0.0
C1833 C 0.45908 0.99111 0.23881 0.0
C1834 C 0.46058 0.98524 0.26031 0.0
C1835 C 0.46974 0.9783 0.26162 0.0
H1836 H 0.48684 0.99162 0.80172 0.0
H1837 H 0.48834 0.0054 0.72981 0.0
H1838 H 0.46567 0.01787 0.78199 0.0
H1839 H 0.49246 0.97866 0.76847 0.0
H1840 H 0.49561 0.98646 0.73964 0.0
H1841 H 0.51183 0.99474 0.80131 0.0
H1842 H 0.55853 0.01936 0.77739 0.0
H1843 H 0.52148 0.00343 0.72752 0.0
C1844 C 0.48461 0.99801 0.78851 0.0
C1845 C 0.47636 0.00536 0.7946 0.0
C1846 C 0.4895 0.99843 0.76528 0.0
C1847 C 0.48536 0.00573 0.74796 0.0
C1848 C 0.4768 0.01284 0.75389 0.0
C1849 C 0.4728 0.01297 0.77736 0.0
C1850 C 0.49754 0.98964 0.75856 0.0
C1851 C 0.51463 0.99869 0.76392 0.0
C1852 C 0.51997 1.00001 0.7872 0.0
C1853 C 0.53582 0.00769 0.79223 0.0
C1854 C 0.54629 0.01407 0.77379 0.0
C1855 C 0.54125 0.01251 0.75051 0.0
C1856 C 0.5254 0.00488 0.74557 0.0
H1857 H 0.01333 0.49595 0.80573 0.0
H1858 H 0.00315 0.48429 0.73246 0.0
H1859 H 0.98813 0.44865 0.78409 0.0
H1860 H 0.0287 0.51445 0.77216 0.0
H1861 H 0.02057 0.51048 0.74339 0.0
H1862 H 0.01525 0.51991 0.8053 0.0
H1863 H 0.99034 0.5422 0.78392 0.0
H1864 H 0.00291 0.51909 0.73254 0.0
C1865 C 0.00763 0.48746 0.79198 0.0
C1866 C 0.99998 0.47176 0.79768 0.0
C1867 C 0.00838 0.49215 0.76852 0.0
C1868 C 1.00194 0.48085 0.75067 0.0
C1869 C 0.99452 0.46511 0.75623 0.0
C1870 C 0.99327 0.46076 0.77978 0.0
C1871 C 0.0176 0.50906 0.76233 0.0
C1872 C 0.00924 0.51765 0.76841 0.0
C1873 C 0.0093 0.52243 0.79169 0.0
C1874 C 1.00216 0.53097 0.79735 0.0
C1875 C 0.99511 0.53489 0.77963 0.0
C1876 C 0.99552 0.53091 0.75618 0.0
C1877 C 1.00242 0.52208 0.75066 0.0
H1878 H 0.50086 0.47657 0.81059 0.0
H1879 H 0.49866 0.47483 0.73506 0.0
H1880 H 0.4573 0.45081 0.77543 0.0
H1881 H 0.52361 0.48232 0.78667 0.0
H1882 H 0.52273 0.48252 0.75551 0.0
H1883 H 0.52212 0.50382 0.80978 0.0
H1884 H 0.55057 0.54788 0.77807 0.0
H1885 H 0.53387 0.5067 0.73673 0.0
C1886 C 0.49415 0.47328 0.7945 0.0
C1887 C 0.47815 0.46345 0.79548 0.0
C1888 C 0.50166 0.4777 0.77269 0.0
C1889 C 0.4929 0.47222 0.75185 0.0
C1890 C 0.47684 0.46258 0.75272 0.0
C1891 C 0.46962 0.45871 0.77458 0.0
C1892 C 0.51905 0.48597 0.77171 0.0
C1893 C 0.52631 0.50329 0.77278 0.0
C1894 C 0.52733 0.51067 0.7943 0.0
C1895 C 0.53592 0.5268 0.79626 0.0
C1896 C 0.54316 0.53552 0.77632 0.0
C1897 C 0.54261 0.52841 0.75485 0.0
C1898 C 0.53398 0.51228 0.75309 0.0
H1899 H 0.68729 0.85416 0.5439 0.0
H1900 H 0.69527 0.86707 0.61692 0.0
H1901 H 0.66942 0.88123 0.57399 0.0
H1902 H 0.71042 0.8567 0.56827 0.0
H1903 H 0.70897 0.85606 0.59933 0.0
H1904 H 0.69419 0.83379 0.5438 0.0
H1905 H 0.67609 0.79037 0.57862 0.0
H1906 H 0.69275 0.83186 0.6193 0.0
C1907 C 0.68519 0.85928 0.55916 0.0
C1908 C 0.67703 0.86719 0.5566 0.0
C1909 C 0.69146 0.85878 0.58105 0.0
C1910 C 0.68972 0.86658 0.60034 0.0
C1911 C 0.6816 0.87456 0.59791 0.0
C1912 C 0.67494 0.87438 0.5762 0.0
C1913 C 0.70202 0.85213 0.58288 0.0
C1914 C 0.69345 0.83472 0.58165 0.0
C1915 C 0.69064 0.82713 0.55978 0.0
C1916 C 0.68458 0.81113 0.55866 0.0
C1917 C 0.68054 0.80269 0.57949 0.0
C1918 C 0.6836 0.81 0.60142 0.0
C1919 C 0.68991 0.82605 0.60243 0.0
H1920 H 0.18922 0.83999 0.55368 0.0
H1921 H 0.18826 0.85264 0.62576 0.0
H1922 H 0.21029 0.88753 0.57332 0.0
H1923 H 0.18412 0.82163 0.58787 0.0
H1924 H 0.17985 0.82622 0.61609 0.0
H1925 H 0.16582 0.8175 0.55328 0.0
H1926 H 0.11837 0.79637 0.57248 0.0
H1927 H 0.15344 0.81708 0.62578 0.0
C1928 C 0.1915 0.84864 0.56692 0.0
C1929 C 0.1996 0.86423 0.56073 0.0
C1930 C 0.18676 0.84427 0.59023 0.0
C1931 C 0.19106 0.85582 0.60756 0.0
C1932 C 0.19952 0.87148 0.60152 0.0
C1933 C 0.20328 0.87549 0.578 0.0
C1934 C 0.17859 0.82743 0.59695 0.0
C1935 C 0.1617 0.81919 0.59015 0.0
C1936 C 0.15724 0.81499 0.56658 0.0
C1937 C 0.14163 0.80708 0.56021 0.0
C1938 C 0.13044 0.80313 0.57742 0.0
C1939 C 0.13454 0.80641 0.6011 0.0
C1940 C 0.15022 0.81462 0.60745 0.0
H1941 H 0.16741 0.30979 0.53912 0.0
H1942 H 0.1732 0.31179 0.61429 0.0
H1943 H 0.21253 0.32873 0.56938 0.0
H1944 H 0.14595 0.29291 0.56533 0.0
H1945 H 0.14819 0.29473 0.59635 0.0
H1946 H 0.14304 0.31258 0.542 0.0
H1947 H 0.12056 0.33293 0.57939 0.0
H1948 H 0.14068 0.31053 0.61746 0.0
C1949 C 0.17484 0.31357 0.55447 0.0
C1950 C 0.19077 0.31996 0.55176 0.0
C1951 C 0.16837 0.31076 0.57706 0.0
C1952 C 0.17811 0.31462 0.5969 0.0
C1953 C 0.19411 0.32137 0.5942 0.0
C1954 C 0.20028 0.32424 0.57161 0.0
C1955 C 0.1511 0.30149 0.57985 0.0
C1956 C 0.14374 0.31145 0.57982 0.0
C1957 C 0.14009 0.31591 0.5584 0.0
C1958 C 0.13142 0.32338 0.55816 0.0
C1959 C 0.12736 0.32727 0.57951 0.0
C1960 C 0.1304 0.3225 0.6009 0.0
C1961 C 0.13873 0.31469 0.60103 0.0
H1962 H 0.98508 0.42179 0.09386 0.0
H1963 H 0.02384 0.42219 0.1281 0.0
H1964 H 0.98716 0.44152 0.12125 0.0
H1965 H 0.02631 0.44243 0.15442 0.0
H1966 H 0.03556 0.488 0.18374 0.0
H1967 H 0.03235 0.47117 0.15047 0.0
H1968 H 0.98441 0.44211 0.16772 0.0
H1969 H 0.98768 0.45885 0.20125 0.0
C1970 C 0.994 0.42598 0.10719 0.0
C1971 C 0.00428 0.42029 0.10867 0.0
C1972 C 0.99526 0.4374 0.12269 0.0
C1973 C 0.00701 0.4436 0.13968 0.0
C1974 C 0.01733 0.43805 0.14113 0.0
C1975 C 0.01591 0.42645 0.12597 0.0
C1976 C 0.02421 0.47834 0.1799 0.0
C1977 C 0.01185 0.47471 0.19497 0.0
C1978 C 0.02243 0.46863 0.16106 0.0
C1979 C 0.00818 0.45528 0.15677 0.0
C1980 C 0.99549 0.45236 0.17064 0.0
C1981 C 0.99735 0.46193 0.18974 0.0
H1982 H 0.60422 0.58348 0.13139 0.0
H1983 H 0.56606 0.57642 0.08745 0.0
H1984 H 0.58616 0.56583 0.16036 0.0
H1985 H 0.54799 0.55875 0.1164 0.0
H1986 H 0.52631 0.55003 0.19269 0.0
H1987 H 0.54152 0.56284 0.158 0.0
H1988 H 0.56558 0.53746 0.16516 0.0
H1989 H 0.55022 0.52455 0.19982 0.0
C1990 C 0.59198 0.5781 0.12792 0.0
C1991 C 0.58654 0.58135 0.10724 0.0
C1992 C 0.58165 0.56788 0.14434 0.0
C1993 C 0.56568 0.56087 0.14054 0.0
C1994 C 0.56024 0.564 0.11975 0.0
C1995 C 0.57057 0.57405 0.10318 0.0
C1996 C 0.53453 0.54687 0.18637 0.0
C1997 C 0.5371 0.5363 0.19878 0.0
C1998 C 0.54323 0.55419 0.16657 0.0
C1999 C 0.55483 0.55124 0.15905 0.0
C2000 C 0.5568 0.54003 0.17072 0.0
C2001 C 0.54792 0.53253 0.19035 0.0
H2002 H 0.4227 0.98522 0.08305 0.0
H2003 H 0.41556 0.01604 0.12752 0.0
H2004 H 0.43966 0.98416 0.11239 0.0
H2005 H 0.43142 0.01386 0.15775 0.0
H2006 H 0.46834 0.01637 0.20421 0.0
H2007 H 0.45619 0.02051 0.16999 0.0
H2008 H 0.43897 0.97323 0.14844 0.0
H2009 H 0.45182 0.96953 0.18194 0.0
C2010 C 0.42476 0.99184 0.09903 0.0
C2011 C 0.41771 1.00076 0.10274 0.0
C2012 C 0.43435 0.99102 0.1161 0.0
C2013 C 0.43697 0.99887 0.13761 0.0
C2014 C 0.42995 0.00784 0.14131 0.0
C2015 C 0.42056 0.00886 0.12407 0.0
C2016 C 0.46229 0.00705 0.19172 0.0
C2017 C 0.46107 0.99267 0.19558 0.0
C2018 C 0.45514 0.00931 0.17228 0.0
C2019 C 0.44632 0.99714 0.15653 0.0
C2020 C 0.44577 0.98297 0.1599 0.0
C2021 C 0.45315 0.9808 0.17912 0.0
H2022 H 0.43856 0.01193 0.92976 0.0
H2023 H 0.40134 0.98656 0.88058 0.0
H2024 H 0.45694 0.01244 0.90112 0.0
H2025 H 0.41968 0.9869 0.85207 0.0
H2026 H 0.45501 0.97878 0.81479 0.0
H2027 H 0.43885 0.9763 0.84849 0.0
H2028 H 0.46534 0.02546 0.8598 0.0
H2029 H 0.48126 0.02792 0.82584 0.0
C2030 C 0.43432 0.00634 0.9129 0.0
C2031 C 0.41856 0.99924 0.90729 0.0
C2032 C 0.44482 0.00666 0.89656 0.0
C2033 C 0.43969 0.99962 0.87451 0.0
C2034 C 0.42389 0.99225 0.86908 0.0
C2035 C 0.41344 0.99218 0.88525 0.0
C2036 C 0.45764 0.98895 0.82498 0.0
C2037 C 0.4694 0.00351 0.81796 0.0
C2038 C 0.44833 0.98757 0.84404 0.0
C2039 C 0.45081 1.00071 0.85658 0.0
C2040 C 0.46325 0.01515 0.8505 0.0
C2041 C 0.47237 0.01656 0.83118 0.0
H2042 H 0.02269 0.42323 0.89562 0.0
H2043 H 0.98335 0.4214 0.92927 0.0
H2044 H 0.02238 0.44072 0.86626 0.0
H2045 H 0.98328 0.43918 0.90027 0.0
H2046 H 0.97586 0.45059 0.82321 0.0
H2047 H 0.97712 0.43732 0.85816 0.0
H2048 H 0.0265 0.46708 0.86075 0.0
H2049 H 0.02519 0.48025 0.8255 0.0
C2050 C 0.01401 0.42661 0.89679 0.0
C2051 C 0.00299 0.42086 0.91469 0.0
C2052 C 0.01397 0.43679 0.88017 0.0
C2053 C 1.00284 0.44139 0.881 0.0
C2054 C 0.99196 0.43581 0.89911 0.0
C2055 C 0.99206 0.4257 0.91579 0.0
C2056 C 0.98692 0.45453 0.83164 0.0
C2057 C 1.00043 0.4664 0.82168 0.0
C2058 C 0.98766 0.44696 0.85166 0.0
C2059 C 1.00194 0.45103 0.86205 0.0
C2060 C 0.01536 0.46356 0.85293 0.0
C2061 C 0.0146 0.47123 0.83296 0.0
H2062 H 0.59946 0.57692 0.90339 0.0
H2063 H 0.56692 0.59259 0.91383 0.0
H2064 H 0.58228 0.55827 0.87443 0.0
H2065 H 0.54945 0.57354 0.88527 0.0
H2066 H 0.53615 0.55328 0.80858 0.0
H2067 H 0.54884 0.56951 0.84276 0.0
H2068 H 0.55745 0.5345 0.87042 0.0
H2069 H 0.54517 0.51848 0.83591 0.0
C2070 C 0.58864 0.57639 0.89948 0.0
C2071 C 0.58462 0.58633 0.91079 0.0
C2072 C 0.57866 0.56552 0.88315 0.0
C2073 C 0.56443 0.56432 0.87767 0.0
C2074 C 0.56035 0.5742 0.88906 0.0
C2075 C 0.57032 0.58505 0.9055 0.0
C2076 C 0.54045 0.54893 0.82224 0.0
C2077 C 0.53979 0.53467 0.81946 0.0
C2078 C 0.54768 0.5582 0.84187 0.0
C2079 C 0.5544 0.55341 0.8591 0.0
C2080 C 0.55265 0.53863 0.85721 0.0
C2081 C 0.5454 0.52935 0.8376 0.0
H2082 H 0.99185 0.56782 0.9312 0.0
H2083 H 0.02532 0.60538 0.88935 0.0
H2084 H 0.99104 0.54936 0.90227 0.0
H2085 H 0.02449 0.58693 0.8604 0.0
H2086 H 0.02845 0.54963 0.82171 0.0
H2087 H 0.03092 0.56529 0.85631 0.0
H2088 H 0.9814 0.5435 0.85995 0.0
H2089 H 0.97899 0.52799 0.82532 0.0
C2090 C 0.99915 0.5721 0.91594 0.0
C2091 C 0.00862 0.58802 0.91246 0.0
C2092 C 0.99864 0.56156 0.89938 0.0
C2093 C 0.00775 0.56672 0.87918 0.0
C2094 C 0.01749 0.58262 0.87597 0.0
C2095 C 0.01784 0.59318 0.89237 0.0
C2096 C 0.01812 0.54789 0.83039 0.0
C2097 C 0.00353 0.53762 0.821 0.0
C2098 C 0.01953 0.55694 0.84998 0.0
C2099 C 0.00635 0.55569 0.86065 0.0
C2100 C 0.99174 0.54464 0.85216 0.0
C2101 C 0.99035 0.53577 0.8324 0.0
H2102 H 0.41754 0.43636 0.91491 0.0
H2103 H 0.42637 0.39876 0.90589 0.0
H2104 H 0.43652 0.45093 0.88473 0.0
H2105 H 0.44559 0.41339 0.87635 0.0
H2106 H 0.45992 0.433 0.80304 0.0
H2107 H 0.44453 0.42035 0.83711 0.0
H2108 H 0.4635 0.4643 0.87277 0.0
H2109 H 0.47869 0.47713 0.83775 0.0
C2110 C 0.4237 0.43131 0.90667 0.0
C2111 C 0.4203 0.41633 0.9124 0.0
C2112 C 0.43464 0.43969 0.88951 0.0
C2113 C 0.44249 0.43328 0.87792 0.0
C2114 C 0.43952 0.41855 0.8845 0.0
C2115 C 0.42849 0.41014 0.9014 0.0
C2116 C 0.46084 0.43999 0.81817 0.0
C2117 C 0.47031 0.45607 0.81764 0.0
C2118 C 0.45214 0.43271 0.83785 0.0
C2119 C 0.45275 0.44128 0.85776 0.0
C2120 C 0.46264 0.45738 0.85761 0.0
C2121 C 0.47143 0.46472 0.83772 0.0
H2122 H 0.60542 0.01582 0.88389 0.0
H2123 H 0.5661 0.99109 0.92888 0.0
H2124 H 0.58886 0.01748 0.85399 0.0
H2125 H 0.54948 0.99284 0.89889 0.0
H2126 H 0.52629 0.98358 0.82262 0.0
H2127 H 0.54018 0.98254 0.85731 0.0
H2128 H 0.57336 0.03086 0.84964 0.0
H2129 H 0.55943 0.03195 0.81525 0.0
C2130 C 0.59322 0.01067 0.88732 0.0
C2131 C 0.58705 0.00333 0.90869 0.0
C2132 C 0.58377 0.01177 0.87033 0.0
C2133 C 0.56791 0.00543 0.87423 0.0
C2134 C 0.56166 0.99785 0.89545 0.0
C2135 C 0.57117 0.99691 0.9126 0.0
C2136 C 0.53625 0.99408 0.82882 0.0
C2137 C 0.54188 0.00781 0.81607 0.0
C2138 C 0.54425 0.99347 0.84859 0.0
C2139 C 0.55802 0.00655 0.85584 0.0
C2140 C 0.56297 0.02052 0.84412 0.0
C2141 C 0.55495 0.02116 0.82452 0.0
H2142 H 0.60312 0.01983 0.12954 0.0
H2143 H 0.56554 0.98865 0.08429 0.0
H2144 H 0.58477 0.01773 0.15887 0.0
H2145 H 0.54724 0.98773 0.11264 0.0
H2146 H 0.52032 0.97235 0.18177 0.0
H2147 H 0.53689 0.97664 0.14836 0.0
H2148 H 0.56635 0.0239 0.17071 0.0
H2149 H 0.55004 0.01916 0.2049 0.0
C2150 C 0.59096 0.01261 0.1257 0.0
C2151 C 0.58592 0.00431 0.10449 0.0
C2152 C 0.58037 0.01165 0.14241 0.0
C2153 C 0.56442 0.00256 0.13825 0.0
C2154 C 0.55939 0.99466 0.11673 0.0
C2155 C 0.56997 0.99539 0.10021 0.0
C2156 C 0.5301 0.98376 0.17913 0.0
C2157 C 0.53392 0.99543 0.19584 0.0
C2158 C 0.53967 0.98626 0.15995 0.0
C2159 C 0.55316 1.00059 0.15686 0.0
C2160 C 0.55632 0.01259 0.17279 0.0
C2161 C 0.54688 0.00999 0.1922 0.0
H2162 H 0.01101 0.57688 0.08455 0.0
H2163 H 0.99348 0.59622 0.13535 0.0
H2164 H 0.0147 0.5623 0.11566 0.0
H2165 H 0.99754 0.58196 0.16631 0.0
H2166 H 0.02791 0.57366 0.21621 0.0
H2167 H 0.02263 0.58518 0.18272 0.0
H2168 H 0.9998 0.54102 0.14751 0.0
H2169 H 0.00495 0.52926 0.18168 0.0
C2170 C 0.00771 0.57785 0.10224 0.0
C2171 C 1.0021 0.58789 0.10749 0.0
C2172 C 0.00986 0.56951 0.12002 0.0
C2173 C 0.00657 0.57115 0.14337 0.0
C2174 C 1.00041 0.58069 0.14847 0.0
C2175 C 0.99816 0.58891 0.13075 0.0
C2176 C 0.02169 0.56634 0.2014 0.0
C2177 C 0.0165 0.55048 0.20178 0.0
C2178 C 0.01867 0.57296 0.18223 0.0
C2179 C 0.01051 0.56393 0.16277 0.0
C2180 C 0.00603 0.5482 0.16242 0.0
C2181 C 0.00899 0.54149 0.18186 0.0
H2182 H 0.4403 0.42079 0.09398 0.0
H2183 H 0.40177 0.42091 0.12728 0.0
H2184 H 0.45774 0.4395 0.12277 0.0
H2185 H 0.41902 0.43885 0.15674 0.0
H2186 H 0.45261 0.47933 0.19766 0.0
H2187 H 0.43865 0.46485 0.16274 0.0
H2188 H 0.46461 0.4411 0.16334 0.0
H2189 H 0.47891 0.45606 0.19778 0.0
C2190 C 0.43554 0.42482 0.1074 0.0
C2191 C 0.4196 0.41931 0.10828 0.0
C2192 C 0.44554 0.43544 0.12405 0.0
C2193 C 0.43984 0.44078 0.14204 0.0
C2194 C 0.4239 0.43525 0.1429 0.0
C2195 C 0.41393 0.42471 0.12621 0.0
C2196 C 0.4556 0.47132 0.18984 0.0
C2197 C 0.46679 0.46877 0.20033 0.0
C2198 C 0.44749 0.46289 0.17004 0.0
C2199 C 0.45024 0.45154 0.16052 0.0
C2200 C 0.46222 0.44978 0.17011 0.0
C2201 C 0.47046 0.45837 0.1898 0.0
H2202 H 0.69888 0.75935 0.44872 0.0
H2203 H 0.65433 0.75402 0.43324 0.0
H2204 H 0.7028 0.77773 0.4797 0.0
H2205 H 0.65796 0.77207 0.46489 0.0
H2206 H 0.67347 0.813 0.51519 0.0
H2207 H 0.67187 0.79828 0.47972 0.0
H2208 H 0.69315 0.77645 0.51754 0.0
H2209 H 0.69536 0.79151 0.55202 0.0
C2210 C 0.68987 0.76204 0.45212 0.0
C2211 C 0.67622 0.75511 0.43882 0.0
C2212 C 0.69209 0.77257 0.46987 0.0
C2213 C 0.68062 0.77627 0.47504 0.0
C2214 C 0.66711 0.76963 0.46127 0.0
C2215 C 0.66497 0.75921 0.44325 0.0
C2216 C 0.67797 0.80519 0.51566 0.0
C2217 C 0.68431 0.80322 0.53645 0.0
C2218 C 0.67694 0.79666 0.49547 0.0
C2219 C 0.68234 0.78612 0.49575 0.0
C2220 C 0.68905 0.78457 0.51645 0.0
C2221 C 0.69012 0.79306 0.53641 0.0
H2222 H 0.27298 0.91726 0.46923 0.0
H2223 H 0.23439 0.91012 0.42625 0.0
H2224 H 0.25519 0.8995 0.49837 0.0
H2225 H 0.21662 0.89231 0.45529 0.0
H2226 H 0.195 0.88278 0.53131 0.0
H2227 H 0.21019 0.89599 0.49681 0.0
H2228 H 0.23485 0.87116 0.50337 0.0
H2229 H 0.2195 0.85786 0.53787 0.0
C2230 C 0.26071 0.91185 0.466 0.0
C2231 C 0.25507 0.9151 0.44552 0.0
C2232 C 0.25053 0.90157 0.48252 0.0
C2233 C 0.23452 0.89447 0.47901 0.0
C2234 C 0.2289 0.89762 0.45844 0.0
C2235 C 0.23907 0.90776 0.4418 0.0
C2236 C 0.20334 0.87983 0.52489 0.0
C2237 C 0.20606 0.86928 0.53707 0.0
C2238 C 0.21205 0.88738 0.5052 0.0
C2239 C 0.2238 0.8847 0.49757 0.0
C2240 C 0.22595 0.87354 0.50903 0.0
C2241 C 0.21708 0.8658 0.52855 0.0
H2242 H 0.09584 0.32627 0.41848 0.0
H2243 H 0.08093 0.34962 0.46635 0.0
H2244 H 0.11054 0.32318 0.45018 0.0
H2245 H 0.09524 0.34609 0.49796 0.0
H2246 H 0.10177 0.316 0.55126 0.0
H2247 H 0.09036 0.32095 0.51726 0.0
H2248 H 0.13344 0.33919 0.4805 0.0
H2249 H 0.1452 0.33454 0.51526 0.0
C2250 C 0.09586 0.33095 0.43562 0.0
C2251 C 0.08703 0.33806 0.4399 0.0
C2252 C 0.10428 0.32915 0.45374 0.0
C2253 C 0.1039 0.33427 0.4765 0.0
C2254 C 0.09555 0.34184 0.4806 0.0
C2255 C 0.08727 0.34377 0.46252 0.0
C2256 C 0.10893 0.32124 0.53608 0.0
C2257 C 0.12453 0.32529 0.53619 0.0
C2258 C 0.10235 0.32403 0.51658 0.0
C2259 C 0.1111 0.33074 0.49647 0.0
C2260 C 0.12649 0.33409 0.49592 0.0
C2261 C 0.1332 0.33142 0.51571 0.0
H2262 H 0.06674 0.31399 0.21924 0.0
H2263 H 0.106 0.34832 0.2584 0.0
H2264 H 0.08396 0.31404 0.18897 0.0
H2265 H 0.12322 0.34835 0.22816 0.0
H2266 H 0.14226 0.35812 0.15049 0.0
H2267 H 0.12767 0.35684 0.18547 0.0
H2268 H 0.10522 0.30721 0.18371 0.0
H2269 H 0.11992 0.30853 0.14875 0.0
C2270 C 0.07905 0.32151 0.22137 0.0
C2271 C 0.08504 0.33117 0.24112 0.0
C2272 C 0.0889 0.32142 0.20421 0.0
C2273 C 0.10493 0.33115 0.2063 0.0
C2274 C 0.11092 0.34075 0.22611 0.0
C2275 C 0.10108 0.34068 0.24343 0.0
C2276 C 0.13449 0.34698 0.15798 0.0
C2277 C 0.13222 0.33343 0.14704 0.0
C2278 C 0.12615 0.34624 0.17796 0.0
C2279 C 0.11522 0.33192 0.18715 0.0
C2280 C 0.11348 0.31838 0.17684 0.0
C2281 C 0.12199 0.31914 0.15704 0.0
H2282 H 0.66773 0.76714 0.2622 0.0
H2283 H 0.69189 0.75359 0.21395 0.0
H2284 H 0.66775 0.785 0.23308 0.0
H2285 H 0.69195 0.77149 0.18487 0.0
H2286 H 0.69996 0.81368 0.14452 0.0
H2287 H 0.70288 0.80074 0.17894 0.0
H2288 H 0.65428 0.78028 0.19281 0.0
H2289 H 0.65139 0.79302 0.15826 0.0
C2290 C 0.67321 0.76813 0.24547 0.0
C2291 C 0.67978 0.75897 0.24026 0.0
C2292 C 0.67316 0.7783 0.22882 0.0
C2293 C 0.67992 0.77968 0.20681 0.0
C2294 C 0.68683 0.77079 0.20182 0.0
C2295 C 0.68666 0.76045 0.21833 0.0
C2296 C 0.69005 0.8068 0.15542 0.0
C2297 C 0.67548 0.80438 0.14898 0.0
C2298 C 0.69167 0.79929 0.1749 0.0
C2299 C 0.67878 0.78944 0.18839 0.0
C2300 C 0.66441 0.78788 0.18281 0.0
C2301 C 0.66276 0.79518 0.16313 0.0
H2302 H 0.24169 0.90049 0.26732 0.0
H2303 H 0.25641 0.93977 0.22192 0.0
H2304 H 0.22667 0.88335 0.23505 0.0
H2305 H 0.2418 0.92254 0.18966 0.0
H2306 H 0.23634 0.88608 0.13505 0.0
H2307 H 0.24713 0.90253 0.16921 0.0
H2308 H 0.20369 0.87712 0.20482 0.0
H2309 H 0.19245 0.86071 0.16981 0.0
C2310 C 0.24152 0.90552 0.25064 0.0
C2311 C 0.25044 0.92153 0.24717 0.0
C2312 C 0.23292 0.89567 0.23219 0.0
C2313 C 0.2332 0.90164 0.20989 0.0
C2314 C 0.24155 0.91765 0.20666 0.0
C2315 C 0.25001 0.92749 0.2251 0.0
C2316 C 0.22889 0.88411 0.1499 0.0
C2317 C 0.21336 0.87233 0.14941 0.0
C2318 C 0.23515 0.89353 0.16952 0.0
C2319 C 0.22616 0.89127 0.18944 0.0
C2320 C 0.2108 0.87913 0.18954 0.0
C2321 C 0.20441 0.86975 0.1696 0.0
H2322 H 0.6491 0.89542 0.25325 0.0
H2323 H 0.69303 0.93191 0.22906 0.0
H2324 H 0.64933 0.87832 0.22305 0.0
H2325 H 0.69293 0.91501 0.1982 0.0
H2326 H 0.69415 0.87898 0.15315 0.0
H2327 H 0.69462 0.89207 0.18967 0.0
H2328 H 0.64615 0.87634 0.18105 0.0
H2329 H 0.64564 0.86296 0.1451 0.0
C2330 C 0.65887 0.89977 0.24161 0.0
C2331 C 0.67102 0.91508 0.24352 0.0
C2332 C 0.65894 0.88999 0.22417 0.0
C2333 C 0.67113 0.89529 0.20815 0.0
C2334 C 0.68345 0.91049 0.2104 0.0
C2335 C 0.68339 0.92026 0.22788 0.0
C2336 C 0.68352 0.87795 0.15949 0.0
C2337 C 0.66988 0.87003 0.14625 0.0
C2338 C 0.68382 0.88561 0.18022 0.0
C2339 C 0.67047 0.88544 0.18812 0.0
C2340 C 0.65663 0.87666 0.1756 0.0
C2341 C 0.65634 0.86906 0.15492 0.0
H2342 H 0.092 0.73701 0.23523 0.0
H2343 H 0.08549 0.77442 0.25812 0.0
H2344 H 0.11094 0.75396 0.20675 0.0
H2345 H 0.10462 0.79146 0.22972 0.0
H2346 H 0.122 0.80621 0.15177 0.0
H2347 H 0.10604 0.79318 0.18571 0.0
H2348 H 0.13739 0.77737 0.20533 0.0
H2349 H 0.15328 0.79034 0.17127 0.0
C2350 C 0.0946 0.74885 0.23413 0.0
C2351 C 0.0872 0.75436 0.24882 0.0
C2352 C 0.1056 0.75862 0.21805 0.0
C2353 C 0.10936 0.77408 0.21614 0.0
C2354 C 0.10195 0.7796 0.2308 0.0
C2355 C 0.09106 0.76987 0.24708 0.0
C2356 C 0.12568 0.8003 0.16373 0.0
C2357 C 0.13885 0.79926 0.1589 0.0
C2358 C 0.11656 0.79285 0.18315 0.0
C2359 C 0.12036 0.78407 0.19798 0.0
C2360 C 0.13408 0.78388 0.194 0.0
C2361 C 0.14329 0.79147 0.17471 0.0
H2362 H 0.25454 0.35711 0.24717 0.0
H2363 H 0.23916 0.30959 0.22981 0.0
H2364 H 0.23693 0.35738 0.2181 0.0
H2365 H 0.22231 0.31019 0.19958 0.0
H2366 H 0.18634 0.3114 0.15486 0.0
H2367 H 0.19961 0.31134 0.19082 0.0
H2368 H 0.23555 0.358 0.17692 0.0
H2369 H 0.22192 0.35826 0.14182 0.0
C2370 C 0.24735 0.34667 0.23727 0.0
C2371 C 0.24838 0.33334 0.24084 0.0
C2372 C 0.23736 0.34689 0.22035 0.0
C2373 C 0.22822 0.33384 0.20633 0.0
C2374 C 0.22901 0.32041 0.21021 0.0
C2375 C 0.23891 0.32015 0.2273 0.0
C2376 C 0.19682 0.3218 0.15994 0.0
C2377 C 0.20316 0.3348 0.14541 0.0
C2378 C 0.20456 0.32169 0.18035 0.0
C2379 C 0.21881 0.33457 0.18663 0.0
C2380 C 0.22459 0.34789 0.17282 0.0
C2381 C 0.21683 0.34801 0.15255 0.0
H2382 H 0.25422 0.35377 0.43755 0.0
H2383 H 0.23756 0.30489 0.43549 0.0
H2384 H 0.23504 0.34968 0.46718 0.0
H2385 H 0.21825 0.30074 0.4647 0.0
H2386 H 0.20449 0.30373 0.5405 0.0
H2387 H 0.21942 0.30608 0.50581 0.0
H2388 H 0.20762 0.33857 0.47665 0.0
H2389 H 0.19276 0.33633 0.51212 0.0
C2390 C 0.24632 0.34213 0.44321 0.0
C2391 C 0.24756 0.32968 0.43451 0.0
C2392 C 0.23526 0.33977 0.46006 0.0
C2393 C 0.22517 0.32489 0.46844 0.0
C2394 C 0.22604 0.31239 0.45898 0.0
C2395 C 0.23713 0.31476 0.44229 0.0
C2396 C 0.20489 0.31118 0.52648 0.0
C2397 C 0.19757 0.31989 0.52889 0.0
C2398 C 0.21337 0.31247 0.50652 0.0
C2399 C 0.21475 0.32253 0.48842 0.0
C2400 C 0.20689 0.33084 0.49042 0.0
C2401 C 0.19829 0.32947 0.51051 0.0
H2402 H 0.65278 0.91791 0.46558 0.0
H2403 H 0.67837 0.90533 0.41853 0.0
H2404 H 0.65399 0.90137 0.4955 0.0
H2405 H 0.67873 0.88804 0.44794 0.0
H2406 H 0.69557 0.87833 0.51855 0.0
H2407 H 0.69138 0.88998 0.48406 0.0
H2408 H 0.64522 0.87561 0.50742 0.0
H2409 H 0.64969 0.86435 0.54234 0.0
C2410 C 0.65858 0.91155 0.46154 0.0
C2411 C 0.66557 0.91309 0.43965 0.0
C2412 C 0.65905 0.90183 0.47859 0.0
C2413 C 0.66642 0.89328 0.47416 0.0
C2414 C 0.67308 0.89453 0.45207 0.0
C2415 C 0.67271 0.90434 0.43508 0.0
C2416 C 0.68437 0.87723 0.51591 0.0
C2417 C 0.67298 0.8705 0.53315 0.0
C2418 C 0.68195 0.88396 0.49614 0.0
C2419 C 0.66804 0.88399 0.4931 0.0
C2420 C 0.65621 0.87615 0.50948 0.0
C2421 C 0.65869 0.86955 0.52935 0.0
H2422 H 0.1071 0.74868 0.43515 0.0
H2423 H 0.07251 0.7594 0.45808 0.0
H2424 H 0.1253 0.76721 0.46326 0.0
H2425 H 0.09023 0.77691 0.48737 0.0
H2426 H 0.12597 0.81491 0.52959 0.0
H2427 H 0.11223 0.80074 0.49431 0.0
H2428 H 0.13052 0.77015 0.50362 0.0
H2429 H 0.14486 0.78497 0.53804 0.0
C2430 C 0.10335 0.75498 0.44613 0.0
C2431 C 0.08825 0.75245 0.4443 0.0
C2432 C 0.11376 0.7655 0.46249 0.0
C2433 C 0.10932 0.77364 0.47767 0.0
C2434 C 0.09424 0.77113 0.47574 0.0
C2435 C 0.08391 0.76079 0.4592 0.0
C2436 C 0.12741 0.80547 0.52348 0.0
C2437 C 0.1365 0.80104 0.53626 0.0
C2438 C 0.11937 0.79718 0.50353 0.0
C2439 C 0.11995 0.78405 0.49631 0.0
C2440 C 0.12985 0.78024 0.50842 0.0
C2441 C 0.1381 0.78873 0.52814 0.0
H2442 H 0.31051 0.07982 0.76668 0.0
H2443 H 0.35811 0.09432 0.7817 0.0
H2444 H 0.31166 0.09879 0.79485 0.0
H2445 H 0.35913 0.1129 0.81024 0.0
H2446 H 0.36144 0.15264 0.84814 0.0
H2447 H 0.35851 0.13699 0.81354 0.0
H2448 H 0.31376 0.10209 0.83767 0.0
H2449 H 0.31654 0.11794 0.87192 0.0
C2450 C 0.32123 0.08709 0.77592 0.0
C2451 C 0.3342 0.0855 0.77207 0.0
C2452 C 0.32186 0.0979 0.79212 0.0
C2453 C 0.33551 0.10741 0.80468 0.0
C2454 C 0.34851 0.10593 0.80059 0.0
C2455 C 0.34786 0.0951 0.78451 0.0
C2456 C 0.35076 0.14188 0.84562 0.0
C2457 C 0.33926 0.13646 0.86279 0.0
C2458 C 0.34917 0.13282 0.82598 0.0
C2459 C 0.33603 0.11817 0.82311 0.0
C2460 C 0.32401 0.11331 0.83933 0.0
C2461 C 0.32562 0.12236 0.85899 0.0
H2462 H 0.90261 0.23794 0.75149 0.0
H2463 H 0.9414 0.24922 0.79699 0.0
H2464 H 0.8852 0.21991 0.78065 0.0
H2465 H 0.92396 0.23125 0.82623 0.0
H2466 H 0.88988 0.18977 0.86747 0.0
H2467 H 0.90516 0.20264 0.83266 0.0
H2468 H 0.87757 0.22402 0.82111 0.0
H2469 H 0.86249 0.21128 0.85591 0.0
C2470 C 0.90742 0.23642 0.76761 0.0
C2471 C 0.92336 0.24502 0.77202 0.0
C2472 C 0.89745 0.22616 0.78431 0.0
C2473 C 0.90323 0.22414 0.80564 0.0
C2474 C 0.91921 0.23243 0.8098 0.0
C2475 C 0.92916 0.24284 0.79321 0.0
C2476 C 0.88682 0.19683 0.85698 0.0
C2477 C 0.875 0.19951 0.86413 0.0
C2478 C 0.89564 0.20431 0.83728 0.0
C2479 C 0.89261 0.21441 0.82432 0.0
C2480 C 0.88009 0.21622 0.83065 0.0
C2481 C 0.87145 0.20893 0.8505 0.0
H2482 H 0.73709 0.67073 0.80518 0.0
H2483 H 0.76866 0.67126 0.7535 0.0
H2484 H 0.75149 0.66658 0.83592 0.0
H2485 H 0.78312 0.66704 0.7844 0.0
H2486 H 0.81158 0.6728 0.85389 0.0
H2487 H 0.79943 0.67843 0.82068 0.0
H2488 H 0.75459 0.64467 0.84624 0.0
H2489 H 0.76664 0.63933 0.87913 0.0
C2490 C 0.74711 0.66995 0.80039 0.0
C2491 C 0.75163 0.67115 0.77689 0.0
C2492 C 0.75537 0.66756 0.81799 0.0
C2493 C 0.76831 0.66625 0.81252 0.0
C2494 C 0.77323 0.66807 0.78915 0.0
C2495 C 0.76496 0.67049 0.77149 0.0
C2496 C 0.79916 0.66652 0.85208 0.0
C2497 C 0.79 0.65583 0.86913 0.0
C2498 C 0.79221 0.66972 0.83318 0.0
C2499 C 0.77604 0.66223 0.83118 0.0
C2500 C 0.76704 0.65096 0.84765 0.0
C2501 C 0.77393 0.64782 0.86638 0.0
H2502 H 0.76129 0.65816 0.59595 0.0
H2503 H 0.74753 0.68331 0.55004 0.0
H2504 H 0.77962 0.65952 0.56653 0.0
H2505 H 0.76565 0.6845 0.52061 0.0
H2506 H 0.80908 0.6975 0.48193 0.0
H2507 H 0.79421 0.69716 0.51586 0.0
H2508 H 0.77868 0.64894 0.52587 0.0
H2509 H 0.79348 0.64924 0.49172 0.0
C2510 C 0.76222 0.66401 0.5796 0.0
C2511 C 0.75298 0.67064 0.57528 0.0
C2512 C 0.77264 0.66471 0.56275 0.0
C2513 C 0.77416 0.67223 0.54138 0.0
C2514 C 0.7649 0.67883 0.53708 0.0
C2515 C 0.75439 0.67799 0.55379 0.0
C2516 C 0.80271 0.6869 0.49164 0.0
C2517 C 0.80231 0.67336 0.48401 0.0
C2518 C 0.79414 0.68668 0.51096 0.0
C2519 C 0.78505 0.67295 0.52321 0.0
C2520 C 0.78559 0.65969 0.51676 0.0
C2521 C 0.79413 0.65989 0.49729 0.0
H2522 H 0.35841 0.08938 0.55425 0.0
H2523 H 0.32688 0.09542 0.59818 0.0
H2524 H 0.35786 0.10725 0.52576 0.0
H2525 H 0.32639 0.11334 0.56973 0.0
H2526 H 0.31336 0.12275 0.49373 0.0
H2527 H 0.3159 0.10977 0.5282 0.0
H2528 H 0.36538 0.13549 0.52145 0.0
H2529 H 0.36277 0.14855 0.48699 0.0
C2530 C 0.35141 0.09457 0.55783 0.0
C2531 C 0.34265 0.09097 0.57837 0.0
C2532 C 0.35124 0.10493 0.54168 0.0
C2533 C 0.34214 0.11174 0.54561 0.0
C2534 C 0.3335 0.10826 0.56627 0.0
C2535 C 0.33383 0.09806 0.58256 0.0
C2536 C 0.32477 0.12596 0.50013 0.0
C2537 C 0.33788 0.13666 0.48787 0.0
C2538 C 0.32624 0.11854 0.5198 0.0
C2539 C 0.34084 0.12151 0.52734 0.0
C2540 C 0.35399 0.13289 0.51587 0.0
C2541 C 0.35252 0.14048 0.49637 0.0
H2542 H 0.93893 0.24857 0.56136 0.0
H2543 H 0.90043 0.25256 0.58585 0.0
H2544 H 0.9224 0.22999 0.53151 0.0
H2545 H 0.88387 0.23397 0.55587 0.0
H2546 H 0.87007 0.21811 0.47611 0.0
H2547 H 0.88307 0.23404 0.51061 0.0
H2548 H 0.8988 0.20264 0.52999 0.0
H2549 H 0.88571 0.18667 0.49557 0.0
C2550 C 0.92695 0.24551 0.56026 0.0
C2551 C 0.92097 0.25203 0.57582 0.0
C2552 C 0.91745 0.23476 0.54339 0.0
C2553 C 0.90183 0.23047 0.54152 0.0
C2554 C 0.89587 0.23708 0.55696 0.0
C2555 C 0.90531 0.24766 0.5741 0.0
C2556 C 0.87596 0.21443 0.48813 0.0
C2557 C 0.87687 0.20117 0.48327 0.0
C2558 C 0.88339 0.22352 0.50783 0.0
C2559 C 0.89207 0.21964 0.52279 0.0
C2560 C 0.8923 0.20595 0.51859 0.0
C2561 C 0.88468 0.19673 0.49908 0.0
H2562 H 0.32027 0.23297 0.59465 0.0
H2563 H 0.35432 0.27129 0.55465 0.0
H2564 H 0.32002 0.21503 0.56516 0.0
H2565 H 0.3541 0.25337 0.52524 0.0
H2566 H 0.35962 0.21681 0.48697 0.0
H2567 H 0.36097 0.2319 0.52169 0.0
H2568 H 0.31136 0.20985 0.52195 0.0
H2569 H 0.31006 0.1949 0.48715 0.0
C2570 C 0.32779 0.23753 0.57965 0.0
C2571 C 0.33728 0.25351 0.57685 0.0
C2572 C 0.3276 0.22728 0.56279 0.0
C2573 C 0.3371 0.23282 0.54303 0.0
C2574 C 0.3468 0.24879 0.54046 0.0
C2575 C 0.34681 0.25904 0.55713 0.0
C2576 C 0.34901 0.21489 0.49491 0.0
C2577 C 0.33473 0.2047 0.4845 0.0
C2578 C 0.34979 0.22362 0.51457 0.0
C2579 C 0.33628 0.22213 0.52434 0.0
C2580 C 0.32195 0.21118 0.51484 0.0
C2581 C 0.32119 0.20263 0.49498 0.0
H2582 H 0.77458 0.09792 0.59638 0.0
H2583 H 0.7363 0.08503 0.54884 0.0
H2584 H 0.79221 0.11505 0.56692 0.0
H2585 H 0.75403 0.10134 0.51887 0.0
H2586 H 0.78675 0.1381 0.47177 0.0
H2587 H 0.77093 0.12687 0.50647 0.0
H2588 H 0.80299 0.11308 0.53123 0.0
H2589 H 0.81895 0.12477 0.49698 0.0
C2590 C 0.76987 0.0988 0.57971 0.0
C2591 C 0.75396 0.09001 0.57503 0.0
C2592 C 0.78004 0.1085 0.56269 0.0
C2593 C 0.7746 0.10959 0.54043 0.0
C2594 C 0.75866 0.10101 0.53589 0.0
C2595 C 0.74848 0.09141 0.55298 0.0
C2596 C 0.79057 0.13302 0.48501 0.0
C2597 C 0.80404 0.13228 0.48172 0.0
C2598 C 0.78144 0.12643 0.50475 0.0
C2599 C 0.7855 0.11879 0.52149 0.0
C2600 C 0.79953 0.11896 0.51888 0.0
C2601 C 0.80873 0.1257 0.49924 0.0
H2602 H 0.93604 0.678 0.55157 0.0
H2603 H 0.89628 0.65113 0.59489 0.0
H2604 H 0.91963 0.68009 0.52199 0.0
H2605 H 0.87985 0.65358 0.56545 0.0
H2606 H 0.8563 0.64623 0.49085 0.0
H2607 H 0.87035 0.64473 0.52489 0.0
H2608 H 0.90431 0.69282 0.517 0.0
H2609 H 0.8903 0.69428 0.48297 0.0
C2610 C 0.92378 0.67247 0.55472 0.0
C2611 C 0.91747 0.66438 0.57556 0.0
C2612 C 0.9144 0.67386 0.53793 0.0
C2613 C 0.89846 0.66716 0.54151 0.0
C2614 C 0.89209 0.65887 0.56219 0.0
C2615 C 0.9015 0.65755 0.57909 0.0
C2616 C 0.8665 0.65659 0.49685 0.0
C2617 C 0.87229 0.67034 0.48415 0.0
C2618 C 0.87459 0.65571 0.51628 0.0
C2619 C 0.88861 0.66858 0.52332 0.0
C2620 C 0.89375 0.68261 0.51164 0.0
C2621 C 0.88568 0.68348 0.49228 0.0
H2622 H 0.93543 0.67963 0.80052 0.0
H2623 H 0.8992 0.65935 0.74827 0.0
H2624 H 0.91708 0.67895 0.8289 0.0
H2625 H 0.8808 0.65842 0.77689 0.0
H2626 H 0.85225 0.6399 0.84668 0.0
H2627 H 0.8688 0.64395 0.81309 0.0
H2628 H 0.90055 0.68997 0.83798 0.0
H2629 H 0.88397 0.68587 0.8716 0.0
C2630 C 0.92362 0.67522 0.79495 0.0
C2631 C 0.91883 0.66946 0.77209 0.0
C2632 C 0.91308 0.67485 0.81124 0.0
C2633 C 0.89746 0.66865 0.80514 0.0
C2634 C 0.8927 0.66311 0.78221 0.0
C2635 C 0.90327 0.66359 0.76585 0.0
C2636 C 0.86247 0.65107 0.84453 0.0
C2637 C 0.86688 0.66253 0.86185 0.0
C2638 C 0.87202 0.65337 0.82534 0.0
C2639 C 0.88614 0.66719 0.82313 0.0
C2640 C 0.88991 0.67908 0.83948 0.0
C2641 C 0.88037 0.67678 0.85861 0.0
H2642 H 0.35773 0.26993 0.7833 0.0
H2643 H 0.31172 0.23416 0.76469 0.0
H2644 H 0.35938 0.25299 0.81228 0.0
H2645 H 0.31349 0.21707 0.79342 0.0
H2646 H 0.31724 0.20293 0.87086 0.0
H2647 H 0.3145 0.21604 0.83679 0.0
H2648 H 0.36062 0.22896 0.81536 0.0
H2649 H 0.36341 0.21602 0.84968 0.0
C2650 C 0.34796 0.25845 0.78543 0.0
C2651 C 0.33456 0.25342 0.77182 0.0
C2652 C 0.34899 0.24866 0.80179 0.0
C2653 C 0.3366 0.23365 0.80503 0.0
C2654 C 0.32321 0.22858 0.79136 0.0
C2655 C 0.32223 0.23834 0.77485 0.0
C2656 C 0.32664 0.20827 0.85854 0.0
C2657 C 0.34055 0.20851 0.86294 0.0
C2658 C 0.32507 0.21575 0.83901 0.0
C2659 C 0.33742 0.22371 0.82356 0.0
C2660 C 0.35099 0.22311 0.82716 0.0
C2661 C 0.35252 0.21553 0.84662 0.0
H2662 H 0.76509 0.07256 0.78294 0.0
H2663 H 0.75427 0.1074 0.76182 0.0
H2664 H 0.78201 0.08967 0.8136 0.0
H2665 H 0.77189 0.12482 0.79154 0.0
H2666 H 0.78517 0.14046 0.86873 0.0
H2667 H 0.77196 0.12693 0.83301 0.0
H2668 H 0.80576 0.11281 0.82276 0.0
H2669 H 0.81861 0.12588 0.85923 0.0
C2670 C 0.76637 0.08389 0.78472 0.0
C2671 C 0.75816 0.08851 0.77001 0.0
C2672 C 0.77631 0.09383 0.80208 0.0
C2673 C 0.77834 0.10866 0.80509 0.0
C2674 C 0.77048 0.11343 0.78992 0.0
C2675 C 0.76048 0.10347 0.77267 0.0
C2676 C 0.7899 0.13465 0.85865 0.0
C2677 C 0.80281 0.13409 0.86692 0.0
C2678 C 0.78239 0.12697 0.83805 0.0
C2679 C 0.78767 0.1186 0.8251 0.0
C2680 C 0.80121 0.11891 0.83254 0.0
C2681 C 0.80872 0.12658 0.85325 0.0
H2682 H 0.084 0.3782 0.04993 0.0
H2683 H 0.06942 0.34415 0.99456 0.0
H2684 H 0.10504 0.37392 0.05959 0.0
H2685 H 0.09127 0.34062 0.00315 0.0
H2686 H 0.11541 0.32179 0.05237 0.0
H2687 H 0.09838 0.32871 0.03199 0.0
H2688 H 0.12878 0.37652 0.05063 0.0
H2689 H 0.14524 0.36925 0.07216 0.0
C2690 C 0.08537 0.3699 0.0396 0.0
C2691 C 0.07478 0.36133 0.02174 0.0
C2692 C 0.09769 0.36764 0.04486 0.0
C2693 C 0.09996 0.35688 0.03219 0.0
C2694 C 0.0898 0.34884 0.01353 0.0
C2695 C 0.07734 0.351 0.00841 0.0
C2696 C 0.11869 0.33384 0.05132 0.0
C2697 C 0.1316 0.34501 0.06371 0.0
C2698 C 0.10892 0.33785 0.03967 0.0
C2699 C 0.11197 0.35317 0.04001 0.0
C2700 C 0.12578 0.36454 0.05054 0.0
C2701 C 0.13538 0.36047 0.06255 0.0
H2702 H 0.6512 0.72435 0.99539 0.0
H2703 H 0.63524 0.70903 0.06566 0.0
H2704 H 0.65348 0.74931 0.00447 0.0
H2705 H 0.63783 0.73388 0.07487 0.0
H2706 H 0.63497 0.77527 0.08587 0.0
H2707 H 0.62742 0.75066 0.06676 0.0
H2708 H 0.6705 0.77172 0.02943 0.0
H2709 H 0.67784 0.7964 0.04826 0.0
C2710 C 0.64803 0.72626 0.01267 0.0
C2711 C 0.64315 0.71477 0.02987 0.0
C2712 C 0.64942 0.74057 0.0179 0.0
C2713 C 0.64577 0.74359 0.04035 0.0
C2714 C 0.64049 0.7319 0.05728 0.0
C2715 C 0.63922 0.7177 0.05212 0.0
C2716 C 0.64252 0.77474 0.07287 0.0
C2717 C 0.657 0.78768 0.06859 0.0
C2718 C 0.6383 0.76062 0.06213 0.0
C2719 C 0.64853 0.75914 0.04703 0.0
C2720 C 0.66235 0.77246 0.04095 0.0
C2721 C 0.66654 0.78663 0.05164 0.0
H2722 H 0.27369 0.93699 0.9971 0.0
H2723 H 0.29639 0.91754 0.0371 0.0
H2724 H 0.24871 0.91471 0.00643 0.0
H2725 H 0.27154 0.89567 0.04714 0.0
H2726 H 0.22715 0.85482 0.05875 0.0
H2727 H 0.24851 0.87277 0.03432 0.0
H2728 H 0.23346 0.90606 0.04155 0.0
H2729 H 0.21188 0.88791 0.06523 0.0
C2730 C 0.27337 0.92787 0.00761 0.0
C2731 C 0.28705 0.92913 0.01657 0.0
C2732 C 0.25904 0.91515 0.01308 0.0
C2733 C 0.25806 0.90338 0.02757 0.0
C2734 C 0.2718 0.90437 0.03566 0.0
C2735 C 0.28608 0.91706 0.03022 0.0
C2736 C 0.22799 0.86568 0.05418 0.0
C2737 C 0.21796 0.87004 0.06412 0.0
C2738 C 0.24038 0.87608 0.04049 0.0
C2739 C 0.24296 0.89103 0.03651 0.0
C2740 C 0.23188 0.89469 0.04425 0.0
C2741 C 0.2195 0.88429 0.05787 0.0
H2742 H 0.37947 0.086 0.97756 0.0
H2743 H 0.33422 0.06262 0.00834 0.0
H2744 H 0.37601 0.10755 0.96741 0.0
H2745 H 0.3308 0.08441 -0.00142 0.0
H2746 H 0.32319 0.11365 0.94209 0.0
H2747 H 0.32634 0.09468 0.96399 0.0
H2748 H 0.37359 0.12895 0.97941 0.0
H2749 H 0.37058 0.14773 0.95642 0.0
C2750 C 0.36891 0.08563 0.98267 0.0
C2751 C 0.35709 0.07255 0.99364 0.0
C2752 C 0.36693 0.09805 0.97694 0.0
C2753 C 0.3531 0.09779 0.98214 0.0
C2754 C 0.34151 0.08494 0.99398 0.0
C2755 C 0.34346 0.07244 -0.00043 0.0
C2756 C 0.33415 0.11722 0.95062 0.0
C2757 C 0.3467 0.13212 0.94718 0.0
C2758 C 0.33595 0.10635 0.96333 0.0
C2759 C 0.35034 0.11015 0.9731 0.0
C2760 C 0.36246 0.1255 0.97163 0.0
C2761 C 0.36067 0.13637 0.95877 0.0
H2762 H 0.94297 0.27459 -0.00035 0.0
H2763 H 0.91528 0.29572 0.9878 0.0
H2764 H 0.92146 0.2497 0.98781 0.0
H2765 H 0.89333 0.27069 0.97724 0.0
H2766 H 0.86875 0.23089 0.9239 0.0
H2767 H 0.88557 0.25425 0.94548 0.0
H2768 H 0.8972 0.22818 0.99325 0.0
H2769 H 0.88106 0.20489 0.97038 0.0
C2770 C 0.9321 0.27378 0.99505 0.0
C2771 C 0.9308 0.28705 0.99435 0.0
C2772 C 0.91968 0.25947 0.98843 0.0
C2773 C 0.90555 0.25806 0.98133 0.0
C2774 C 0.90407 0.2713 0.98199 0.0
C2775 C 0.91661 0.28565 0.98815 0.0
C2776 C 0.8747 0.2301 0.93926 0.0
C2777 C 0.87382 0.21609 0.94511 0.0
C2778 C 0.88431 0.24354 0.95186 0.0
C2779 C 0.89311 0.24329 0.97096 0.0
C2780 C 0.89098 0.22895 0.97825 0.0
C2781 C 0.88149 0.2155 0.96539 0.0
H2782 H 0.71089 0.62252 0.01255 0.0
H2783 H 0.72719 0.66752 0.98254 0.0
H2784 H 0.73563 0.62454 0.00454 0.0
H2785 H 0.75134 0.66902 0.97288 0.0
H2786 H 0.79579 0.67312 0.96038 0.0
H2787 H 0.77492 0.67185 0.98389 0.0
H2788 H 0.7486 0.62262 0.97208 0.0
H2789 H 0.76989 0.62398 0.94992 0.0
C2790 C 0.71976 0.63292 0.00444 0.0
C2791 C 0.71689 0.64478 0.99795 0.0
C2792 C 0.73394 0.634 -0.00043 0.0
C2793 C 0.74558 0.64689 0.98787 0.0
C2794 C 0.74286 0.65898 0.9822 0.0
C2795 C 0.7288 0.65799 0.98733 0.0
C2796 C 0.78583 0.66198 0.96391 0.0
C2797 C 0.78445 0.64863 0.95361 0.0
C2798 C 0.77371 0.66124 0.97697 0.0
C2799 C 0.7598 0.64719 0.9794 0.0
C2800 C 0.75908 0.63365 0.97081 0.0
C2801 C 0.77132 0.63438 0.95815 0.0
H2802 H 0.94586 0.66558 0.96072 0.0
H2803 H 0.92019 0.6358 0.01803 0.0
H2804 H 0.92416 0.66891 0.95106 0.0
H2805 H 0.8982 0.6389 0.00784 0.0
H2806 H 0.859 0.63144 0.95243 0.0
H2807 H 0.87968 0.63077 0.9741 0.0
H2808 H 0.9085 0.67989 0.96538 0.0
H2809 H 0.88782 0.6805 0.94359 0.0
C2810 C 0.93571 0.65997 0.9716 0.0
C2811 C 0.93486 0.65043 0.99021 0.0
C2812 C 0.92323 0.66189 0.96603 0.0
C2813 C 0.90948 0.65426 0.9788 0.0
C2814 C 0.90863 0.64488 0.99763 0.0
C2815 C 0.9212 0.64305 0.00335 0.0
C2816 C 0.86951 0.64218 0.95601 0.0
C2817 C 0.87187 0.656 0.94613 0.0
C2818 C 0.88141 0.6418 0.96834 0.0
C2819 C 0.89584 0.65523 0.97098 0.0
C2820 C 0.89762 0.6693 0.96317 0.0
C2821 C 0.88575 0.66967 0.95087 0.0
H2822 H 0.33292 0.27441 0.01118 0.0
H2823 H 0.37917 0.29617 0.98409 0.0
H2824 H 0.32922 0.2492 0.00032 0.0
H2825 H 0.37545 0.27117 0.97281 0.0
H2826 H 0.36925 0.22556 0.95914 0.0
H2827 H 0.37195 0.24679 0.98353 0.0
H2828 H 0.32561 0.23537 0.96486 0.0
H2829 H 0.32269 0.21372 0.94158 0.0
C2830 C 0.34232 0.27379 0.00301 0.0
C2831 C 0.35631 0.28729 0.99839 0.0
C2832 C 0.34021 0.25935 0.99678 0.0
C2833 C 0.352 0.25808 0.98561 0.0
C2834 C 0.36618 0.27159 0.9818 0.0
C2835 C 0.36832 0.28599 0.98818 0.0
C2836 C 0.35942 0.22719 0.96104 0.0
C2837 C 0.34582 0.21809 0.94815 0.0
C2838 C 0.36106 0.23954 0.97472 0.0
C2839 C 0.34916 0.24309 0.9757 0.0
C2840 C 0.33505 0.23305 0.96459 0.0
C2841 C 0.33338 0.22066 0.95108 0.0
H2842 H 0.71119 0.07876 0.96128 0.0
H2843 H 0.73007 0.07133 0.02484 0.0
H2844 H 0.73637 0.0998 0.95106 0.0
H2845 H 0.75558 0.09255 0.01436 0.0
H2846 H 0.79927 0.11582 0.96399 0.0
H2847 H 0.77546 0.09829 0.98442 0.0
H2848 H 0.75559 0.12575 0.96235 0.0
H2849 H 0.77922 0.14291 0.94146 0.0
C2850 C 0.72066 0.0818 0.97335 0.0
C2851 C 0.71851 0.0734 0.99403 0.0
C2852 C 0.73516 0.09393 0.96748 0.0
C2853 C 0.74799 0.09805 0.98205 0.0
C2854 C 0.74593 0.08966 0.00275 0.0
C2855 C 0.73133 0.07748 0.0087 0.0
C2856 C 0.79 0.1184 0.96435 0.0
C2857 C 0.79101 0.13065 0.95118 0.0
C2858 C 0.77634 0.10833 0.97596 0.0
C2859 C 0.76349 0.11042 0.97457 0.0
C2860 C 0.76513 0.12361 0.96329 0.0
C2861 C 0.77871 0.13355 0.95158 0.0
H2862 H 0.66038 0.93448 0.99041 0.0
H2863 H 0.63393 0.92645 0.05362 0.0
H2864 H 0.66425 0.9129 0.00019 0.0
H2865 H 0.63766 0.90505 0.06318 0.0
H2866 H 0.68419 0.88865 0.04965 0.0
H2867 H 0.67813 0.90655 0.02974 0.0
H2868 H 0.63074 0.87922 0.05136 0.0
H2869 H 0.637 0.8617 0.07177 0.0
C2870 C 0.65537 0.92812 0.00633 0.0
C2871 C 0.64673 0.93215 0.02112 0.0
C2872 C 0.65754 0.91573 0.01188 0.0
C2873 C 0.65108 0.90708 0.03229 0.0
C2874 C 0.64243 0.91113 0.04696 0.0
C2875 C 0.6403 0.92347 0.04148 0.0
C2876 C 0.67237 0.88618 0.04928 0.0
C2877 C 0.66105 0.87385 0.0622 0.0
C2878 C 0.66889 0.89646 0.03798 0.0
C2879 C 0.65402 0.89451 0.03941 0.0
C2880 C 0.64239 0.88126 0.0504 0.0
C2881 C 0.6459 0.87111 0.06182 0.0
H2882 H 0.08632 0.72156 0.99831 0.0
H2883 H 0.05959 0.72344 0.0561 0.0
H2884 H 0.10777 0.74674 0.00998 0.0
H2885 H 0.08078 0.74849 0.06737 0.0
H2886 H 0.11639 0.79654 0.07845 0.0
H2887 H 0.09604 0.77544 0.05568 0.0
H2888 H 0.12605 0.75688 0.04345 0.0
H2889 H 0.14641 0.77809 0.06599 0.0
C2890 C 0.08497 0.72734 0.01341 0.0
C2891 C 0.07118 0.72042 0.02625 0.0
C2892 C 0.09724 0.74179 0.02001 0.0
C2893 C 0.09595 0.74969 0.03948 0.0
C2894 C 0.08205 0.74292 0.05194 0.0
C2895 C 0.06986 0.72849 0.04546 0.0
C2896 C 0.11877 0.78821 0.07024 0.0
C2897 C 0.13291 0.78886 0.07416 0.0
C2898 C 0.10709 0.77607 0.05737 0.0
C2899 C 0.10931 0.7643 0.04822 0.0
C2900 C 0.12397 0.76577 0.05022 0.0
C2901 C 0.13567 0.77796 0.06306 0.0
H2902 H 0.29369 0.37724 0.03962 0.0
H2903 H 0.27433 0.33547 0.99836 0.0
H2904 H 0.26798 0.37213 0.04901 0.0
H2905 H 0.24843 0.33057 0.00682 0.0
H2906 H 0.20791 0.31621 0.0587 0.0
H2907 H 0.23147 0.32222 0.03826 0.0
H2908 H 0.24479 0.37045 0.03827 0.0
H2909 H 0.22146 0.36427 0.06 0.0
C2910 C 0.28389 0.36714 0.03207 0.0
C2911 C 0.28601 0.3567 0.0184 0.0
C2912 C 0.26908 0.36423 0.03732 0.0
C2913 C 0.25598 0.35089 0.02873 0.0
C2914 C 0.25817 0.3408 0.01414 0.0
C2915 C 0.27301 0.34361 0.0092 0.0
C2916 C 0.21564 0.32799 0.0535 0.0
C2917 C 0.21288 0.33977 0.06062 0.0
C2918 C 0.22921 0.33151 0.0418 0.0
C2919 C 0.24027 0.3469 0.03685 0.0
C2920 C 0.23677 0.35852 0.04227 0.0
C2921 C 0.22329 0.355 0.05432 0.0
H2922 H 0.72666 0.66681 0.36309 0.0
H2923 H 0.75776 0.71345 0.3412 0.0
H2924 H 0.74848 0.66364 0.37319 0.0
H2925 H 0.77971 0.71014 0.3507 0.0
H2926 H 0.80872 0.70399 0.41093 0.0
H2927 H 0.79067 0.70815 0.38785 0.0
H2928 H 0.77064 0.66199 0.35968 0.0
H2929 H 0.78857 0.65777 0.38329 0.0
C2930 C 0.73818 0.67633 0.36016 0.0
C2931 C 0.74048 0.69044 0.35164 0.0
C2932 C 0.75071 0.67445 0.36563 0.0
C2933 C 0.76588 0.68665 0.36276 0.0
C2934 C 0.76818 0.70056 0.35326 0.0
C2935 C 0.75561 0.70242 0.34768 0.0
C2936 C 0.80079 0.69493 0.39919 0.0
C2937 C 0.79995 0.68052 0.39903 0.0
C2938 C 0.79045 0.69731 0.3859 0.0
C2939 C 0.77901 0.6853 0.37222 0.0
C2940 C 0.77914 0.67137 0.37037 0.0
C2941 C 0.78954 0.66902 0.38363 0.0
H2942 H 0.28906 0.04304 0.357 0.0
H2943 H 0.33784 0.062 0.36875 0.0
H2944 H 0.29175 0.06807 0.36619 0.0
H2945 H 0.34052 0.0869 0.37793 0.0
H2946 H 0.34454 0.13242 0.38551 0.0
H2947 H 0.33942 0.10916 0.3641 0.0
H2948 H 0.29669 0.0832 0.40157 0.0
H2949 H 0.30166 0.10649 0.42235 0.0
C2950 C 0.30037 0.05255 0.36147 0.0
C2951 C 0.31322 0.05047 0.36229 0.0
C2952 C 0.30191 0.06691 0.36665 0.0
C2953 C 0.31635 0.07953 0.37279 0.0
C2954 C 0.32927 0.07755 0.37283 0.0
C2955 C 0.32773 0.06322 0.36764 0.0
C2956 C 0.33376 0.12187 0.38841 0.0
C2957 C 0.32355 0.12122 0.4057 0.0
C2958 C 0.33093 0.10848 0.37642 0.0
C2959 C 0.3178 0.09423 0.38146 0.0
C2960 C 0.3069 0.09394 0.39716 0.0
C2961 C 0.30974 0.10729 0.40913 0.0
H2962 H 0.94267 0.27318 0.33328 0.0
H2963 H 0.96555 0.25294 0.37093 0.0
H2964 H 0.91771 0.25129 0.34384 0.0
H2965 H 0.94075 0.23113 0.3812 0.0
H2966 H 0.89542 0.18978 0.39043 0.0
H2967 H 0.91715 0.20856 0.36738 0.0
H2968 H 0.90337 0.24235 0.38042 0.0
H2969 H 0.88146 0.22345 0.40291 0.0
C2970 C 0.9424 0.26404 0.34368 0.0
C2971 C 0.95616 0.2649 0.35135 0.0
C2972 C 0.92809 0.25147 0.34964 0.0
C2973 C 0.9272 0.23943 0.36334 0.0
C2974 C 0.94096 0.24003 0.37024 0.0
C2975 C 0.95524 0.25259 0.36436 0.0
C2976 C 0.89668 0.20102 0.38756 0.0
C2977 C 0.88681 0.20519 0.39863 0.0
C2978 C 0.90926 0.21185 0.37463 0.0
C2979 C 0.91219 0.22705 0.37245 0.0
C2980 C 0.90147 0.23076 0.38168 0.0
C2981 C 0.88892 0.21995 0.39464 0.0
H2982 H 0.04254 0.42246 0.34486 0.0
H2983 H 0.00401 0.39333 0.29984 0.0
H2984 H 0.03949 0.44447 0.33511 0.0
H2985 H 1.0012 0.41525 0.28948 0.0
H2986 H 0.99355 0.45407 0.27854 0.0
H2987 H 0.99437 0.43361 0.30039 0.0
H2988 H 0.04406 0.46092 0.30308 0.0
H2989 H 0.04305 0.48151 0.28222 0.0
C2990 C 0.0334 0.42077 0.33291 0.0
C2991 C 0.02354 0.40618 0.32306 0.0
C2992 C 0.03165 0.43339 0.32728 0.0
C2993 C 0.0201 0.43173 0.31146 0.0
C2994 C 0.01001 0.41699 0.30212 0.0
C2995 C 0.01166 0.40438 0.30795 0.0
C2996 C 0.00457 0.45586 0.28462 0.0
C2997 C 0.01823 0.46934 0.27875 0.0
C2998 C 0.00509 0.44407 0.29683 0.0
C2999 C 0.01931 0.4454 0.30305 0.0
C3000 C 0.03289 0.45945 0.29878 0.0
C3001 C 0.03233 0.47132 0.28685 0.0
H3002 H 0.59231 0.63145 0.28716 0.0
H3003 H 0.59827 0.61343 0.35252 0.0
H3004 H 0.57012 0.60659 0.27776 0.0
H3005 H 0.57581 0.58839 0.3432 0.0
H3006 H 0.52671 0.56388 0.2669 0.0
H3007 H 0.54415 0.58815 0.28669 0.0
H3008 H 0.56911 0.56741 0.31638 0.0
H3009 H 0.55124 0.54304 0.29723 0.0
C3010 C 0.58867 0.62226 0.29979 0.0
C3011 C 0.59709 0.62446 0.32059 0.0
C3012 C 0.57587 0.60796 0.29444 0.0
C3013 C 0.57105 0.59543 0.30978 0.0
C3014 C 0.57926 0.59772 0.33088 0.0
C3015 C 0.59214 0.61206 0.3362 0.0
C3016 C 0.53555 0.5644 0.27846 0.0
C3017 C 0.53765 0.55164 0.2806 0.0
C3018 C 0.5457 0.57834 0.28952 0.0
C3019 C 0.55831 0.57988 0.30266 0.0
C3020 C 0.55953 0.56668 0.3065 0.0
C3021 C 0.54925 0.55266 0.29561 0.0
H3022 H 0.39478 0.99421 0.35006 0.0
H3023 H 0.37139 0.95438 0.30476 0.0
H3024 H 0.4196 0.99695 0.33906 0.0
H3025 H 0.39608 0.95717 0.29362 0.0
H3026 H 0.44089 0.95961 0.28468 0.0
H3027 H 0.41897 0.95607 0.30794 0.0
H3028 H 0.43433 0.00451 0.30154 0.0
H3029 H 0.45631 0.00804 0.27852 0.0
C3030 C 0.39494 0.9859 0.33807 0.0
C3031 C 0.38117 0.97415 0.32812 0.0
C3032 C 0.40913 0.98751 0.33169 0.0
C3033 C 0.40981 0.97727 0.3155 0.0
C3034 C 0.39597 0.96514 0.30637 0.0
C3035 C 0.38183 0.96363 0.31253 0.0
C3036 C 0.43991 0.9696 0.28905 0.0
C3037 C 0.45026 0.98409 0.27972 0.0
C3038 C 0.42726 0.96754 0.30211 0.0
C3039 C 0.42479 0.97996 0.30624 0.0
C3040 C 0.43592 0.99472 0.29873 0.0
C3041 C 0.4485 0.99675 0.28552 0.0
H3042 H 0.60211 0.99186 0.34935 0.0
H3043 H 0.58892 0.95771 0.29424 0.0
H3044 H 0.58049 0.99545 0.33849 0.0
H3045 H 0.56712 0.96081 0.28442 0.0
H3046 H 0.52282 0.96032 0.28125 0.0
H3047 H 0.54194 0.95664 0.30244 0.0
H3048 H 0.57363 0.00563 0.30102 0.0
H3049 H 0.55448 0.00931 0.27977 0.0
C3050 C 0.59464 0.98507 0.33504 0.0
C3051 C 0.59733 0.97441 0.32281 0.0
C3052 C 0.58219 0.98706 0.32898 0.0
C3053 C 0.572 0.97825 0.31086 0.0
C3054 C 0.57455 0.9675 0.29886 0.0
C3055 C 0.58709 0.9657 0.3046 0.0
C3056 C 0.53362 0.97036 0.28629 0.0
C3057 C 0.53718 0.9851 0.27881 0.0
C3058 C 0.54463 0.96824 0.29818 0.0
C3059 C 0.55934 0.98083 0.30305 0.0
C3060 C 0.56238 0.99572 0.29754 0.0
C3061 C 0.55143 0.99783 0.28539 0.0
H3062 H 0.00564 0.61504 0.3046 0.0
H3063 H 0.04226 0.62473 0.35386 0.0
H3064 H 0.00305 0.59016 0.29587 0.0
H3065 H 0.03927 0.59941 0.34575 0.0
H3066 H 0.04436 0.56653 0.29089 0.0
H3067 H 0.04503 0.58766 0.3131 0.0
H3068 H 0.99536 0.56481 0.30985 0.0
H3069 H 0.99485 0.54395 0.28694 0.0
C3070 C 0.01307 0.61179 0.31373 0.0
C3071 C 0.02428 0.62196 0.32971 0.0
C3072 C 0.01141 0.59738 0.30902 0.0
C3073 C 0.02089 0.59269 0.32022 0.0
C3074 C 0.03182 0.60267 0.33675 0.0
C3075 C 0.03346 0.61714 0.3415 0.0
C3076 C 0.03357 0.5657 0.29593 0.0
C3077 C 0.01956 0.55368 0.28718 0.0
C3078 C 0.03393 0.57786 0.30855 0.0
C3079 C 0.02026 0.57814 0.31272 0.0
C3080 C 0.00613 0.56515 0.30639 0.0
C3081 C 0.00579 0.55308 0.29361 0.0
H3082 H 0.37541 0.41095 0.2877 0.0
H3083 H 0.39228 0.40678 0.35555 0.0
H3084 H 0.40032 0.43297 0.27908 0.0
H3085 H 0.41759 0.42887 0.3465 0.0
H3086 H 0.46309 0.45317 0.29874 0.0
H3087 H 0.43907 0.43501 0.31816 0.0
H3088 H 0.41755 0.45989 0.29126 0.0
H3089 H 0.44145 0.47778 0.27159 0.0
C3090 C 0.38434 0.41487 0.30101 0.0
C3091 C 0.3817 0.40712 0.32246 0.0
C3092 C 0.39868 0.42756 0.29603 0.0
C3093 C 0.4109 0.43284 0.31225 0.0
C3094 C 0.40839 0.42508 0.33367 0.0
C3095 C 0.39392 0.41238 0.33878 0.0
C3096 C 0.45341 0.45511 0.29788 0.0
C3097 C 0.45405 0.4668 0.28363 0.0
C3098 C 0.43962 0.44467 0.30889 0.0
C3099 C 0.42631 0.44581 0.30578 0.0
C3100 C 0.42751 0.45851 0.29355 0.0
C3101 C 0.44122 0.46886 0.28252 0.0
H3102 H 0.32438 0.2648 0.32402 0.0
H3103 H 0.29614 0.25772 0.38478 0.0
H3104 H 0.32783 0.24331 0.33603 0.0
H3105 H 0.29969 0.23658 0.39688 0.0
H3106 H 0.29993 0.19407 0.41095 0.0
H3107 H 0.29363 0.21097 0.3888 0.0
H3108 H 0.34087 0.23721 0.36588 0.0
H3109 H 0.34687 0.21982 0.38731 0.0
C3110 C 0.3189 0.25865 0.3399 0.0
C3111 C 0.3099 0.26292 0.35335 0.0
C3112 C 0.32086 0.24633 0.34678 0.0
C3113 C 0.31392 0.23806 0.36732 0.0
C3114 C 0.30486 0.24233 0.38061 0.0
C3115 C 0.30286 0.25455 0.37371 0.0
C3116 C 0.30877 0.2031 0.4004 0.0
C3117 C 0.32385 0.20565 0.40073 0.0
C3118 C 0.30526 0.21293 0.38798 0.0
C3119 C 0.31683 0.22573 0.37601 0.0
C3120 C 0.33164 0.22748 0.37479 0.0
C3121 C 0.33509 0.21748 0.38699 0.0
H3122 H 0.75038 0.03803 0.37834 0.0
H3123 H 0.73268 0.05952 0.33183 0.0
H3124 H 0.77208 0.0631 0.38827 0.0
H3125 H 0.75439 0.08481 0.34238 0.0
H3126 H 0.78201 0.12398 0.39971 0.0
H3127 H 0.76282 0.10109 0.37858 0.0
H3128 H 0.79559 0.08536 0.37236 0.0
H3129 H 0.81467 0.10812 0.39385 0.0
C3130 C 0.75123 0.04805 0.36983 0.0
C3131 C 0.73972 0.04665 0.35418 0.0
C3132 C 0.76373 0.06248 0.37557 0.0
C3133 C 0.76504 0.07596 0.36598 0.0
C3134 C 0.75367 0.07463 0.35013 0.0
C3135 C 0.74118 0.06014 0.3442 0.0
C3136 C 0.78524 0.11585 0.39318 0.0
C3137 C 0.7998 0.11779 0.39858 0.0
C3138 C 0.77426 0.10275 0.38104 0.0
C3139 C 0.7776 0.09127 0.37416 0.0
C3140 C 0.7926 0.09388 0.37778 0.0
C3141 C 0.8036 0.10703 0.38981 0.0
H3142 H 0.96251 0.71291 0.37899 0.0
H3143 H 0.94186 0.67298 0.33362 0.0
H3144 H 0.93716 0.7085 0.38915 0.0
H3145 H 0.91631 0.66883 0.34287 0.0
H3146 H 0.89152 0.70235 0.40185 0.0
H3147 H 0.91463 0.70843 0.37963 0.0
H3148 H 0.89904 0.65978 0.37381 0.0
H3149 H 0.87567 0.65392 0.39472 0.0
C3150 C 0.95251 0.7034 0.37072 0.0
C3151 C 0.95415 0.69325 0.35562 0.0
C3152 C 0.93791 0.70089 0.37641 0.0
C3153 C 0.92453 0.68827 0.36687 0.0
C3154 C 0.92627 0.6785 0.35093 0.0
C3155 C 0.9409 0.68088 0.34554 0.0
C3156 C 0.89281 0.69302 0.39481 0.0
C3157 C 0.88181 0.67769 0.39962 0.0
C3158 C 0.90617 0.69646 0.38247 0.0
C3159 C 0.90898 0.68463 0.37529 0.0
C3160 C 0.89734 0.66924 0.37874 0.0
C3161 C 0.88387 0.66582 0.3907 0.0
H3162 H 0.42629 0.05197 0.68529 0.0
H3163 H 0.39677 0.00302 0.69477 0.0
H3164 H 0.44875 0.04956 0.69487 0.0
H3165 H 0.41905 1.00068 0.70508 0.0
H3166 H 0.46057 0.99719 0.71492 0.0
H3167 H 0.44281 0.00221 0.69236 0.0
H3168 H 0.45837 0.04466 0.73097 0.0
H3169 H 0.47635 0.0398 0.75295 0.0
C3170 C 0.42462 0.04067 0.68908 0.0
C3171 C 0.40972 0.02771 0.68951 0.0
C3172 C 0.43747 0.0393 0.69473 0.0
C3173 C 0.43573 0.02494 0.70081 0.0
C3174 C 0.42088 0.0119 0.70021 0.0
C3175 C 0.40806 0.01327 0.69463 0.0
C3176 C 0.46063 0.00789 0.71787 0.0
C3177 C 0.46974 0.01805 0.73582 0.0
C3178 C 0.45031 0.01067 0.70519 0.0
C3179 C 0.44893 0.02367 0.71019 0.0
C3180 C 0.45912 0.03454 0.72659 0.0
C3181 C 0.46941 0.03175 0.73926 0.0
H3182 H 0.00465 0.39385 0.70165 0.0
H3183 H 0.95662 0.37608 0.68493 0.0
H3184 H 0.0074 0.4187 0.71142 0.0
H3185 H 0.95938 0.40106 0.6947 0.0
H3186 H 0.96733 0.43807 0.75228 0.0
H3187 H 0.96296 0.41521 0.73075 0.0
H3188 H 0.00738 0.4416 0.69795 0.0
H3189 H 0.01188 0.4644 0.72012 0.0
C3190 C 0.99475 0.39533 0.69956 0.0
C3191 C 0.98039 0.38291 0.69266 0.0
C3192 C 0.99633 0.40964 0.7051 0.0
C3193 C 0.98361 0.41192 0.70386 0.0
C3194 C 0.96937 0.39966 0.69613 0.0
C3195 C 0.96778 0.38532 0.6906 0.0
C3196 C 0.97595 0.43907 0.73992 0.0
C3197 C 0.98999 0.45296 0.73802 0.0
C3198 C 0.97344 0.42598 0.72751 0.0
C3199 C 0.98494 0.42649 0.71291 0.0
C3200 C 0.99841 0.44075 0.7094 0.0
C3201 C 1.00091 0.45388 0.72181 0.0
H3202 H 0.63229 0.58868 0.71453 0.0
H3203 H 0.60915 0.60338 0.66579 0.0
H3204 H 0.60773 0.56674 0.72518 0.0
H3205 H 0.58438 0.58152 0.67724 0.0
H3206 H 0.5467 0.55539 0.73675 0.0
H3207 H 0.56895 0.57431 0.71466 0.0
H3208 H 0.58557 0.54219 0.7096 0.0
H3209 H 0.56341 0.52335 0.73188 0.0
C3210 C 0.62203 0.58712 0.70569 0.0
C3211 C 0.62282 0.59789 0.68921 0.0
C3212 C 0.6079 0.57449 0.71186 0.0
C3213 C 0.59411 0.57234 0.70195 0.0
C3214 C 0.59482 0.58292 0.68523 0.0
C3215 C 0.60902 0.5955 0.67882 0.0
C3216 C 0.55488 0.55223 0.73026 0.0
C3217 C 0.55337 0.53794 0.73614 0.0
C3218 C 0.5676 0.56304 0.71758 0.0
C3219 C 0.57912 0.55981 0.71071 0.0
C3220 C 0.57697 0.54506 0.71494 0.0
C3221 C 0.56418 0.53421 0.72745 0.0
H3222 H 0.71449 0.75508 0.65479 0.0
H3223 H 0.6688 0.73114 0.68411 0.0
H3224 H 0.71125 0.77687 0.64568 0.0
H3225 H 0.66553 0.75312 0.675 0.0
H3226 H 0.65968 0.78228 0.61514 0.0
H3227 H 0.66188 0.7635 0.63918 0.0
H3228 H 0.70827 0.79805 0.65863 0.0
H3229 H 0.70618 0.81668 0.63379 0.0
C3230 C 0.70388 0.75461 0.65987 0.0
C3231 C 0.69187 0.74128 0.67003 0.0
C3232 C 0.70203 0.76718 0.65471 0.0
C3233 C 0.68811 0.7668 0.6596 0.0
C3234 C 0.67633 0.75374 0.67075 0.0
C3235 C 0.67819 0.74112 0.6759 0.0
C3236 C 0.67014 0.786 0.62524 0.0
C3237 C 0.68283 0.80087 0.62231 0.0
C3238 C 0.67142 0.77523 0.63909 0.0
C3239 C 0.68541 0.77914 0.65039 0.0
C3240 C 0.69746 0.79456 0.64968 0.0
C3241 C 0.69619 0.80532 0.63575 0.0
H3242 H 0.28049 0.94369 0.65431 0.0
H3243 H 0.25065 0.96242 0.66671 0.0
H3244 H 0.25816 0.91861 0.64589 0.0
H3245 H 0.22819 0.93711 0.65908 0.0
H3246 H 0.19905 0.89839 0.60312 0.0
H3247 H 0.21739 0.92177 0.62386 0.0
H3248 H 0.23516 0.89632 0.66059 0.0
H3249 H 0.21698 0.87296 0.63926 0.0
C3250 C 0.26914 0.94241 0.65547 0.0
C3251 C 0.26738 0.95512 0.66087 0.0
C3252 C 0.25629 0.92795 0.65101 0.0
C3253 C 0.24133 0.92581 0.65182 0.0
C3254 C 0.23954 0.93838 0.65815 0.0
C3255 C 0.25242 0.95286 0.66267 0.0
C3256 C 0.20653 0.8977 0.61622 0.0
C3257 C 0.2067 0.88391 0.61942 0.0
C3258 C 0.21705 0.91111 0.62816 0.0
C3259 C 0.22797 0.911 0.64357 0.0
C3260 C 0.22709 0.89685 0.64849 0.0
C3261 C 0.21653 0.88341 0.63654 0.0
H3262 H 0.05846 0.33307 0.63716 0.0
H3263 H 0.05331 0.30186 0.69299 0.0
H3264 H 0.08368 0.33678 0.62856 0.0
H3265 H 0.07868 0.30538 0.68388 0.0
H3266 H 0.11017 0.29854 0.62754 0.0
H3267 H 0.08939 0.29792 0.65042 0.0
H3268 H 0.11012 0.34718 0.64297 0.0
H3269 H 0.13075 0.34768 0.61975 0.0
C3270 C 0.06282 0.32725 0.648 0.0
C3271 C 0.05376 0.31716 0.66581 0.0
C3272 C 0.07736 0.3294 0.64306 0.0
C3273 C 0.08328 0.32147 0.65565 0.0
C3274 C 0.07442 0.31161 0.67381 0.0
C3275 C 0.05985 0.30954 0.67891 0.0
C3276 C 0.11067 0.30932 0.63178 0.0
C3277 C 0.12197 0.32314 0.62173 0.0
C3278 C 0.09871 0.30897 0.64479 0.0
C3279 C 0.0979 0.32245 0.64798 0.0
C3280 C 0.11024 0.33654 0.64033 0.0
C3281 C 0.12215 0.33688 0.62728 0.0
H3282 H 0.27842 0.33262 0.62798 0.0
H3283 H 0.25413 0.30632 0.68889 0.0
H3284 H 0.25673 0.33582 0.61787 0.0
H3285 H 0.23213 0.30934 0.67839 0.0
H3286 H 0.19148 0.29923 0.62431 0.0
H3287 H 0.21258 0.29968 0.6465 0.0
H3288 H 0.24173 0.34775 0.6297 0.0
H3289 H 0.22068 0.34714 0.60719 0.0
C3290 C 0.26859 0.32779 0.63955 0.0
C3291 C 0.26811 0.31922 0.65931 0.0
C3292 C 0.2561 0.32964 0.63374 0.0
C3293 C 0.24271 0.32293 0.64742 0.0
C3294 C 0.24226 0.31459 0.66743 0.0
C3295 C 0.25484 0.3128 0.67336 0.0
C3296 C 0.20218 0.31005 0.62626 0.0
C3297 C 0.20451 0.32313 0.61395 0.0
C3298 C 0.21432 0.3103 0.63888 0.0
C3299 C 0.22895 0.32366 0.63939 0.0
C3300 C 0.23071 0.33718 0.62918 0.0
C3301 C 0.21862 0.3369 0.61652 0.0
H3302 H 0.70868 0.95704 0.68313 0.0
H3303 H 0.67034 0.9487 0.63863 0.0
H3304 H 0.70489 0.93172 0.67277 0.0
H3305 H 0.66676 0.92369 0.62774 0.0
H3306 H 0.65765 0.87651 0.61661 0.0
H3307 H 0.65929 0.89826 0.63847 0.0
H3308 H 0.70891 0.91966 0.64007 0.0
H3309 H 0.7071 0.89763 0.61911 0.0
C3310 C 0.69941 0.94976 0.67119 0.0
C3311 C 0.68983 0.95488 0.66166 0.0
C3312 C 0.69724 0.93525 0.6652 0.0
C3313 C 0.68552 0.92558 0.64936 0.0
C3314 C 0.6757 0.9306 0.64037 0.0
C3315 C 0.67778 0.94502 0.64653 0.0
C3316 C 0.66884 0.88566 0.62237 0.0
C3317 C 0.68224 0.88541 0.61619 0.0
C3318 C 0.66983 0.89822 0.63462 0.0
C3319 C 0.68426 0.91093 0.64063 0.0
C3320 C 0.69758 0.91009 0.63595 0.0
C3321 C 0.69657 0.89742 0.62395 0.0
H3322 H 0.06047 0.74017 0.69181 0.0
H3323 H 0.04305 0.74332 0.62389 0.0
H3324 H 0.08571 0.76207 0.68198 0.0
H3325 H 0.06797 0.76509 0.61433 0.0
H3326 H 0.10938 0.80971 0.60512 0.0
H3327 H 0.08537 0.79198 0.62466 0.0
H3328 H 0.1071 0.76803 0.65443 0.0
H3329 H 0.13122 0.78607 0.63519 0.0
C3330 C 0.06199 0.74551 0.67483 0.0
C3331 C 0.04964 0.74003 0.65874 0.0
C3332 C 0.07644 0.75809 0.66925 0.0
C3333 C 0.07881 0.7655 0.64752 0.0
C3334 C 0.06646 0.75997 0.6315 0.0
C3335 C 0.05212 0.74743 0.637 0.0
C3336 C 0.10915 0.80102 0.61658 0.0
C3337 C 0.1221 0.79922 0.61863 0.0
C3338 C 0.09537 0.79074 0.62754 0.0
C3339 C 0.09421 0.77835 0.64062 0.0
C3340 C 0.1076 0.77745 0.64451 0.0
C3341 C 0.12144 0.78782 0.6336 0.0
H3342 H 0.95591 0.57982 0.6843 0.0
H3343 H 0.00451 0.61061 0.69617 0.0
H3344 H 0.95897 0.55796 0.69491 0.0
H3345 H 0.00756 0.58885 0.7069 0.0
H3346 H 0.01188 0.54762 0.71842 0.0
H3347 H 0.00694 0.56525 0.69545 0.0
H3348 H 0.96369 0.54889 0.73126 0.0
H3349 H 0.9685 0.5311 0.7536 0.0
C3350 C 0.96726 0.58192 0.68906 0.0
C3351 C 0.97993 0.597 0.68961 0.0
C3352 C 0.96902 0.56938 0.69509 0.0
C3353 C 0.9835 0.57161 0.70188 0.0
C3354 C 0.99629 0.58663 0.70141 0.0
C3355 C 0.99453 0.59915 0.69532 0.0
C3356 C 1.00105 0.54739 0.72065 0.0
C3357 C 0.99061 0.53806 0.73787 0.0
C3358 C 0.99832 0.55765 0.70776 0.0
C3359 C 0.98505 0.55872 0.71179 0.0
C3360 C 0.97399 0.54838 0.72756 0.0
C3361 C 0.97675 0.53818 0.74044 0.0
H3362 H 0.42177 0.37618 0.69829 0.0
H3363 H 0.39755 0.39791 0.66959 0.0
H3364 H 0.44357 0.40127 0.70797 0.0
H3365 H 0.41956 0.4232 0.67903 0.0
H3366 H 0.44905 0.45855 0.73852 0.0
H3367 H 0.43017 0.43736 0.71449 0.0
H3368 H 0.46463 0.42545 0.69592 0.0
H3369 H 0.48335 0.44635 0.72086 0.0
C3370 C 0.42125 0.38635 0.69349 0.0
C3371 C 0.40786 0.38502 0.68334 0.0
C3372 C 0.43382 0.4008 0.69894 0.0
C3373 C 0.43338 0.41433 0.6943 0.0
C3374 C 0.42024 0.41303 0.68314 0.0
C3375 C 0.40761 0.39854 0.67778 0.0
C3376 C 0.45271 0.45172 0.72865 0.0
C3377 C 0.46759 0.45395 0.73187 0.0
C3378 C 0.44189 0.43955 0.71479 0.0
C3379 C 0.44575 0.42941 0.70371 0.0
C3380 C 0.46116 0.4328 0.70471 0.0
C3381 C 0.47198 0.44494 0.71869 0.0
H3382 H 0.632 0.04232 0.72338 0.0
H3383 H 0.61354 0.01872 0.65741 0.0
H3384 H 0.60713 0.03912 0.7332 0.0
H3385 H 0.58831 0.01525 0.66761 0.0
H3386 H 0.56536 0.0412 0.74304 0.0
H3387 H 0.58891 0.04745 0.72208 0.0
H3388 H 0.56782 1.00049 0.69701 0.0
H3389 H 0.54412 0.99441 0.71764 0.0
C3390 C 0.62272 0.0367 0.71071 0.0
C3391 C 0.62489 0.03091 0.68948 0.0
C3392 C 0.6084 0.03487 0.71637 0.0
C3393 C 0.59576 0.02711 0.70104 0.0
C3394 C 0.59783 0.02128 0.67978 0.0
C3395 C 0.61227 0.02321 0.67401 0.0
C3396 C 0.56558 0.03242 0.73223 0.0
C3397 C 0.55299 0.01734 0.73193 0.0
C3398 C 0.57911 0.03591 0.72047 0.0
C3399 C 0.58037 0.02436 0.70837 0.0
C3400 C 0.56723 0.00965 0.70615 0.0
C3401 C 0.55362 0.00617 0.71785 0.0
loop_
_geom_bond_atom_site_label_1
_geom_bond_atom_site_label_2
_geom_bond_distance
_geom_bond_site_symmetry_2
_ccdc_geom_bond_type
Li0 N17 1.990 . S
Li0 O60 1.956 . S
Li0 O61 1.970 1_654 S
Li0 O62 1.961 . S
Li1 N25 1.990 . S
Li1 O60 1.970 1_455 S
Li1 O61 1.956 1_554 S
Li1 O63 1.961 . S
Li2 N47 1.990 . S
Li2 O60 1.961 . S
Li2 O62 1.956 . S
Li2 O63 1.970 1_655 S
Li3 N53 1.990 . S
Li3 O61 1.961 . S
Li3 O62 1.970 1_456 S
Li3 O63 1.956 1_556 S
C4 C6 1.348 1_655 S
C4 C7 1.356 . S
C4 O60 1.325 . S
N5 C8 1.314 . S
N5 C9 1.279 . S
C6 C4 1.348 1_455 S
C6 C8 1.353 1_455 S
C6 H64 0.929 . S
C7 C4 1.356 . S
C7 C9 1.358 . S
C7 H65 0.930 . S
C8 N5 1.314 . S
C8 C6 1.353 1_655 S
C8 H66 0.930 1_655 S
C9 N5 1.279 . S
C9 C7 1.358 . S
C9 H67 0.930 . S
C10 C13 1.349 1_455 S
C10 C14 1.356 . S
C10 O61 1.325 . S
C11 N12 1.279 . S
C11 C14 1.358 . S
C11 H68 0.930 . S
N12 C11 1.279 . S
N12 C15 1.314 . S
C13 C10 1.349 1_655 S
C13 C15 1.324 1_655 S
C13 H69 0.961 . S
C14 C10 1.356 . S
C14 C11 1.358 . S
C14 H70 0.930 . S
C15 N12 1.314 . S
C15 C13 1.324 1_455 S
C15 H71 0.930 1_455 S
C16 N17 1.314 1_556 S
C16 C21 1.353 . S
C16 H22 0.930 . S
N17 Li0 1.990 . S
N17 C16 1.314 1_554 S
N17 C19 1.279 . S
C18 C19 1.358 . S
C18 C20 1.356 1_554 S
C18 H72 0.930 . S
C19 N17 1.279 . S
C19 C18 1.358 . S
C19 H23 0.930 . S
C20 C18 1.356 1_556 S
C20 C21 1.348 . S
C21 C16 1.353 . S
C21 C20 1.348 . S
C21 H73 0.929 . S
H22 C16 0.930 . S
H23 C19 0.930 . S
C24 N25 1.314 . S
C24 C26 1.353 . S
C24 H30 0.930 . S
N25 Li1 1.990 . S
N25 C24 1.314 . S
N25 C28 1.279 . S
C26 C24 1.353 . S
C26 C29 1.348 . S
C26 H74 0.929 . S
C27 C28 1.358 . S
C27 C29 1.356 . S
C27 H75 0.930 . S
C28 N25 1.279 . S
C28 C27 1.358 . S
C28 H31 0.930 1_554 S
C29 C26 1.348 . S
C29 C27 1.356 . S
H30 C24 0.930 . S
H31 C28 0.930 1_556 S
C32 C34 1.321 1_554 S
C32 C35 1.379 . S
C32 O62 1.333 . S
N33 C36 1.314 . S
N33 C37 1.279 1_556 S
C34 C32 1.321 1_556 S
C34 C36 1.353 . S
C34 H76 0.929 . S
C35 C32 1.379 . S
C35 C37 1.358 . S
C35 H77 0.930 . S
C36 N33 1.314 . S
C36 C34 1.353 . S
C36 H78 0.930 . S
C37 N33 1.279 1_554 S
C37 C35 1.358 . S
C37 H79 0.930 . S
C38 C39 1.348 . S
C38 C40 1.356 . S
C38 O63 1.325 . S
C39 C38 1.348 . S
C39 C41 1.353 . S
C39 H80 0.929 . S
C40 C38 1.356 . S
C40 C42 1.358 . S
C40 H81 0.930 . S
C41 C39 1.353 . S
C41 N43 1.314 . S
C41 H82 0.930 . S
C42 C40 1.358 . S
C42 N43 1.279 . S
C42 H83 0.930 . S
N43 C41 1.314 . S
N43 C42 1.279 . S
C44 C46 1.353 . S
C44 N47 1.314 . S
C44 H50 0.930 1_655 S
C45 N47 1.279 . S
C45 C48 1.358 . S
C45 H51 0.930 . S
C46 C44 1.353 . S
C46 C49 1.348 . S
C46 H84 0.928 1_655 S
N47 Li2 1.990 . S
N47 C44 1.314 . S
N47 C45 1.279 . S
C48 C45 1.358 . S
C48 C49 1.356 . S
C48 H85 0.930 . S
C49 C46 1.348 . S
C49 C48 1.356 . S
H50 C44 0.930 1_455 S
H51 C45 0.930 . S
C52 N53 1.314 . S
C52 C54 1.353 . S
C52 H58 0.930 1_455 S
N53 Li3 1.990 . S
N53 C52 1.314 . S
N53 C56 1.279 . S
C54 C52 1.353 . S
C54 C57 1.348 . S
C54 H86 0.949 . S
C55 C56 1.358 . S
C55 C57 1.356 . S
C55 H87 0.930 . S
C56 N53 1.279 . S
C56 C55 1.358 . S
C56 H59 0.930 . S
C57 C54 1.348 . S
C57 C55 1.356 . S
H58 C52 0.930 1_655 S
H59 C56 0.930 . S
O60 Li0 1.956 . S
O60 Li1 1.970 1_655 S
O60 Li2 1.961 . S
O60 C4 1.325 . S
O61 Li0 1.970 1_456 S
O61 Li1 1.956 1_556 S
O61 Li3 1.961 . S
O61 C10 1.325 . S
O62 Li0 1.961 . S
O62 Li2 1.956 . S
O62 Li3 1.970 1_654 S
O62 C32 1.333 . S
O63 Li1 1.961 . S
O63 Li2 1.970 1_455 S
O63 Li3 1.956 1_554 S
O63 C38 1.325 . S
H64 C6 0.929 . S
H65 C7 0.930 . S
H66 C8 0.930 1_455 S
H67 C9 0.930 . S
H68 C11 0.930 . S
H69 C13 0.961 . S
H70 C14 0.930 . S
H71 C15 0.930 1_655 S
H72 C18 0.930 . S
H73 C21 0.929 . S
H74 C26 0.929 . S
H75 C27 0.930 . S
H76 C34 0.929 . S
H77 C35 0.930 . S
H78 C36 0.930 . S
H79 C37 0.930 . S
H80 C39 0.929 . S
H81 C40 0.930 . S
H82 C41 0.930 . S
H83 C42 0.930 . S
H84 C46 0.928 1_455 S
H85 C48 0.930 . S
H86 C54 0.949 . S
H87 C55 0.930 . S
Li88 N105 1.990 1_554 S
Li88 O148 1.956 . S
Li88 O149 1.970 1_554 S
Li88 O150 1.961 . S
Li89 N113 1.990 . S
Li89 O148 1.970 . S
Li89 O149 1.956 1_554 S
Li89 O151 1.961 . S
Li90 N135 1.990 . S
Li90 O148 1.961 . S
Li90 O150 1.956 . S
Li90 O151 1.970 . S
Li91 N141 1.990 . S
Li91 O149 1.961 . S
Li91 O150 1.970 1_556 S
Li91 O151 1.956 1_556 S
C92 C94 1.348 . S
C92 C95 1.356 . S
C92 O148 1.325 . S
N93 C96 1.314 . S
N93 C97 1.279 . S
C94 C92 1.348 . S
C94 C96 1.353 . S
C94 H152 0.929 . S
C95 C92 1.356 . S
C95 C97 1.358 . S
C95 H153 0.930 . S
C96 N93 1.314 . S
C96 C94 1.353 . S
C96 H154 0.930 . S
C97 N93 1.279 . S
C97 C95 1.358 . S
C97 H155 0.930 . S
C98 C101 1.348 . S
C98 C102 1.356 . S
C98 O149 1.325 . S
C99 N100 1.279 . S
C99 C102 1.358 . S
C99 H156 0.930 . S
N100 C99 1.279 . S
N100 C103 1.314 . S
C101 C98 1.348 . S
C101 C103 1.353 . S
C101 H157 0.929 . S
C102 C98 1.356 . S
C102 C99 1.358 . S
C102 H158 0.930 . S
C103 N100 1.314 . S
C103 C101 1.353 . S
C103 H159 0.930 . S
C104 N105 1.314 . S
C104 C109 1.353 . S
C104 H110 0.930 . S
N105 Li88 1.990 1_556 S
N105 C104 1.314 . S
N105 C107 1.279 1_556 S
C106 C107 1.358 . S
C106 C108 1.356 1_554 S
C106 H160 0.930 . S
C107 N105 1.279 1_554 S
C107 C106 1.358 . S
C107 H111 0.930 . S
C108 C106 1.356 1_556 S
C108 C109 1.348 . S
C109 C104 1.353 . S
C109 C108 1.348 . S
C109 H161 0.929 . S
H110 C104 0.930 . S
H111 C107 0.930 . S
C112 N113 1.314 . S
C112 C114 1.353 . S
C112 H118 0.930 . S
N113 Li89 1.990 . S
N113 C112 1.314 . S
N113 C116 1.279 . S
C114 C112 1.353 . S
C114 C117 1.348 . S
C114 H162 0.929 . S
C115 C116 1.358 . S
C115 C117 1.356 . S
C115 H163 0.930 . S
C116 N113 1.279 . S
C116 C115 1.358 . S
C116 H119 0.930 1_554 S
C117 C114 1.348 . S
C117 C115 1.356 . S
H118 C112 0.930 . S
H119 C116 0.930 1_556 S
C120 C122 1.348 . S
C120 C123 1.356 1_556 S
C120 O150 1.325 1_556 S
N121 C124 1.314 . S
N121 C125 1.279 1_556 S
C122 C120 1.348 . S
C122 C124 1.353 . S
C122 H164 0.929 . S
C123 C120 1.356 1_554 S
C123 C125 1.358 . S
C123 H165 0.930 . S
C124 N121 1.314 . S
C124 C122 1.353 . S
C124 H166 0.930 . S
C125 N121 1.279 1_554 S
C125 C123 1.358 . S
C125 H167 0.930 . S
C126 C127 1.348 . S
C126 C128 1.356 . S
C126 O151 1.325 . S
C127 C126 1.348 . S
C127 C129 1.353 . S
C127 H168 0.929 . S
C128 C126 1.356 . S
C128 C130 1.358 . S
C128 H169 0.930 . S
C129 C127 1.353 . S
C129 N131 1.314 . S
C129 H170 0.930 . S
C130 C128 1.358 . S
C130 N131 1.279 . S
C130 H171 0.930 . S
N131 C129 1.314 . S
N131 C130 1.279 . S
C132 C134 1.353 . S
C132 N135 1.314 . S
C132 H138 0.930 . S
C133 N135 1.279 . S
C133 C136 1.358 . S
C133 H139 0.930 . S
C134 C132 1.353 . S
C134 C137 1.348 . S
C134 H172 0.929 . S
N135 Li90 1.990 . S
N135 C132 1.314 . S
N135 C133 1.279 . S
C136 C133 1.358 . S
C136 C137 1.356 . S
C136 H173 0.930 . S
C137 C134 1.348 . S
C137 C136 1.356 . S
H138 C132 0.930 . S
H139 C133 0.930 . S
C140 N141 1.314 . S
C140 C142 1.353 . S
C140 H146 0.930 . S
N141 Li91 1.990 . S
N141 C140 1.314 . S
N141 C144 1.279 . S
C142 C140 1.353 . S
C142 C145 1.348 . S
C142 H174 0.929 . S
C143 C144 1.358 . S
C143 C145 1.356 . S
C143 H175 0.930 . S
C144 N141 1.279 . S
C144 C143 1.358 . S
C144 H147 0.930 . S
C145 C142 1.348 . S
C145 C143 1.356 . S
H146 C140 0.930 . S
H147 C144 0.930 . S
O148 Li88 1.956 . S
O148 Li89 1.970 . S
O148 Li90 1.961 . S
O148 C92 1.325 . S
O149 Li88 1.970 1_556 S
O149 Li89 1.956 1_556 S
O149 Li91 1.961 . S
O149 C98 1.325 . S
O150 Li88 1.961 . S
O150 Li90 1.956 . S
O150 Li91 1.970 1_554 S
O150 C120 1.325 1_554 S
O151 Li89 1.961 . S
O151 Li90 1.970 . S
O151 Li91 1.956 1_554 S
O151 C126 1.325 . S
H152 C94 0.929 . S
H153 C95 0.930 . S
H154 C96 0.930 . S
H155 C97 0.930 . S
H156 C99 0.930 . S
H157 C101 0.929 . S
H158 C102 0.930 . S
H159 C103 0.930 . S
H160 C106 0.930 . S
H161 C109 0.929 . S
H162 C114 0.929 . S
H163 C115 0.930 . S
H164 C122 0.929 . S
H165 C123 0.930 . S
H166 C124 0.930 . S
H167 C125 0.930 . S
H168 C127 0.929 . S
H169 C128 0.930 . S
H170 C129 0.930 . S
H171 C130 0.930 . S
H172 C134 0.929 . S
H173 C136 0.930 . S
H174 C142 0.929 . S
H175 C143 0.930 . S
Li176 N193 1.990 . S
Li176 O236 1.956 1_556 S
Li176 O237 1.970 1_566 S
Li176 O238 1.961 . S
Li177 N201 1.990 . S
Li177 O236 1.970 1_545 S
Li177 O237 1.956 . S
Li177 O239 1.961 . S
Li178 N223 1.990 . S
Li178 O236 1.961 . S
Li178 O238 1.956 1_554 S
Li178 O239 1.970 1_565 S
Li179 N229 1.990 . S
Li179 O237 1.961 . S
Li179 O238 1.970 1_544 S
Li179 O239 1.956 . S
C180 C182 1.348 . S
C180 C183 1.356 . S
C180 O236 1.325 . S
N181 C184 1.314 . S
N181 C185 1.279 . S
C182 C180 1.348 . S
C182 C184 1.353 . S
C182 H240 0.929 . S
C183 C180 1.356 . S
C183 C185 1.358 . S
C183 H241 0.930 1_554 S
C184 N181 1.314 . S
C184 C182 1.353 . S
C184 H242 0.930 . S
C185 N181 1.279 . S
C185 C183 1.358 . S
C185 H243 0.930 . S
C186 C189 1.337 1_554 S
C186 C190 1.365 . S
C186 O237 1.328 . S
C187 N188 1.279 1_554 S
C187 C190 1.358 . S
C187 H244 0.930 . S
N188 C187 1.279 1_556 S
N188 C191 1.314 . S
C189 C186 1.337 1_556 S
C189 C191 1.353 . S
C189 H245 0.929 . S
C190 C186 1.365 . S
C190 C187 1.358 . S
C190 H246 0.930 . S
C191 N188 1.314 . S
C191 C189 1.353 . S
C191 H247 0.930 . S
C192 N193 1.314 . S
C192 C197 1.353 . S
C192 H198 0.930 1_565 S
N193 Li176 1.990 . S
N193 C192 1.314 . S
N193 C195 1.279 . S
C194 C195 1.358 . S
C194 C196 1.356 . S
C194 H248 0.930 . S
C195 N193 1.279 . S
C195 C194 1.358 . S
C195 H199 0.930 . S
C196 C194 1.356 . S
C196 C197 1.348 . S
C197 C192 1.353 . S
C197 C196 1.348 . S
C197 H249 0.939 . S
H198 C192 0.930 1_545 S
H199 C195 0.930 . S
C200 N201 1.314 . S
C200 C202 1.353 . S
C200 H206 0.930 1_545 S
N201 Li177 1.990 . S
N201 C200 1.314 . S
N201 C204 1.279 . S
C202 C200 1.353 . S
C202 C205 1.348 . S
C202 H250 0.929 . S
C203 C204 1.358 . S
C203 C205 1.356 . S
C203 H251 0.930 . S
C204 N201 1.279 . S
C204 C203 1.358 . S
C204 H207 0.930 . S
C205 C202 1.348 . S
C205 C203 1.356 . S
H206 C200 0.930 1_565 S
H207 C204 0.930 . S
C208 C210 1.348 1_565 S
C208 C211 1.356 . S
C208 O238 1.325 . S
N209 C212 1.314 . S
N209 C213 1.279 . S
C210 C208 1.348 1_545 S
C210 C212 1.353 1_545 S
C210 H252 0.929 . S
C211 C208 1.356 . S
C211 C213 1.358 . S
C211 H253 0.930 . S
C212 N209 1.314 . S
C212 C210 1.353 1_565 S
C212 H254 0.930 1_565 S
C213 N209 1.279 . S
C213 C211 1.358 . S
C213 H255 0.930 . S
C214 C215 1.348 1_545 S
C214 C216 1.356 . S
C214 O239 1.325 . S
C215 C214 1.348 1_565 S
C215 C217 1.341 1_565 S
C215 H256 0.942 . S
C216 C214 1.356 . S
C216 C218 1.358 . S
C216 H257 0.930 . S
C217 C215 1.341 1_545 S
C217 N219 1.314 . S
C217 H258 0.930 1_545 S
C218 C216 1.358 . S
C218 N219 1.279 . S
C218 H259 0.930 . S
N219 C217 1.314 . S
N219 C218 1.279 . S
C220 C222 1.353 . S
C220 N223 1.314 . S
C220 H226 0.930 . S
C221 N223 1.279 . S
C221 C224 1.358 . S
C221 H227 0.930 1_554 S
C222 C220 1.353 . S
C222 C225 1.348 . S
C222 H260 0.929 . S
N223 Li178 1.990 . S
N223 C220 1.314 . S
N223 C221 1.279 . S
C224 C221 1.358 . S
C224 C225 1.356 . S
C224 H261 0.930 . S
C225 C222 1.348 . S
C225 C224 1.356 . S
H226 C220 0.930 . S
H227 C221 0.930 1_556 S
C228 N229 1.314 1_556 S
C228 C230 1.353 . S
C228 H234 0.930 . S
N229 Li179 1.990 . S
N229 C228 1.314 1_554 S
N229 C232 1.279 . S
C230 C228 1.353 . S
C230 C233 1.348 . S
C230 H262 0.929 . S
C231 C232 1.358 . S
C231 C233 1.356 1_554 S
C231 H263 0.930 . S
C232 N229 1.279 . S
C232 C231 1.358 . S
C232 H235 0.930 . S
C233 C230 1.348 . S
C233 C231 1.356 1_556 S
H234 C228 0.930 . S
H235 C232 0.930 . S
O236 Li176 1.956 1_554 S
O236 Li177 1.970 1_565 S
O236 Li178 1.961 . S
O236 C180 1.325 . S
O237 Li176 1.970 1_544 S
O237 Li177 1.956 . S
O237 Li179 1.961 . S
O237 C186 1.328 . S
O238 Li176 1.961 . S
O238 Li178 1.956 1_556 S
O238 Li179 1.970 1_566 S
O238 C208 1.325 . S
O239 Li177 1.961 . S
O239 Li178 1.970 1_545 S
O239 Li179 1.956 . S
O239 C214 1.325 . S
H240 C182 0.929 . S
H241 C183 0.930 1_556 S
H242 C184 0.930 . S
H243 C185 0.930 . S
H244 C187 0.930 . S
H245 C189 0.929 . S
H246 C190 0.930 . S
H247 C191 0.930 . S
H248 C194 0.930 . S
H249 C197 0.939 . S
H250 C202 0.929 . S
H251 C203 0.930 . S
H252 C210 0.929 . S
H253 C211 0.930 . S
H254 C212 0.930 1_545 S
H255 C213 0.930 . S
H256 C215 0.942 . S
H257 C216 0.930 . S
H258 C217 0.930 1_565 S
H259 C218 0.930 . S
H260 C222 0.929 . S
H261 C224 0.930 . S
H262 C230 0.929 . S
H263 C231 0.930 . S
Li264 N281 1.990 . S
Li264 O324 1.956 . S
Li264 O325 1.970 1_455 S
Li264 O326 1.961 1_554 S
Li265 N289 1.990 . S
Li265 O324 1.970 1_655 S
Li265 O325 1.956 . S
Li265 O327 1.961 . S
Li266 N311 1.990 . S
Li266 O324 1.961 1_556 S
Li266 O326 1.956 . S
Li266 O327 1.970 1_456 S
Li267 N317 1.990 1_554 S
Li267 O325 1.961 . S
Li267 O326 1.970 1_654 S
Li267 O327 1.956 . S
C268 C270 1.348 . S
C268 C271 1.356 . S
C268 O324 1.325 . S
N269 C272 1.314 . S
N269 C273 1.279 . S
C270 C268 1.348 . S
C270 C272 1.353 . S
C270 H328 0.929 . S
C271 C268 1.356 . S
C271 C273 1.358 . S
C271 H329 0.930 1_554 S
C272 N269 1.314 . S
C272 C270 1.353 . S
C272 H330 0.930 . S
C273 N269 1.279 . S
C273 C271 1.358 . S
C273 H331 0.930 1_554 S
C274 C277 1.348 1_655 S
C274 C278 1.356 . S
C274 O325 1.325 . S
C275 N276 1.279 . S
C275 C278 1.358 . S
C275 H332 0.930 . S
N276 C275 1.279 . S
N276 C279 1.249 1_655 S
C277 C274 1.348 1_455 S
C277 C279 1.392 . S
C277 H333 0.929 . S
C278 C274 1.356 . S
C278 C275 1.358 . S
C278 H334 0.930 . S
C279 N276 1.249 1_455 S
C279 C277 1.392 . S
C279 H335 0.963 . S
C280 N281 1.314 . S
C280 C285 1.353 . S
C280 H286 0.930 . S
N281 Li264 1.990 . S
N281 C280 1.314 . S
N281 C283 1.279 . S
C282 C283 1.358 . S
C282 C284 1.356 . S
C282 H336 0.930 . S
C283 N281 1.279 . S
C283 C282 1.358 . S
C283 H287 0.930 . S
C284 C282 1.356 . S
C284 C285 1.348 . S
C285 C280 1.353 . S
C285 C284 1.348 . S
C285 H337 0.929 . S
H286 C280 0.930 . S
H287 C283 0.930 . S
C288 N289 1.314 . S
C288 C290 1.353 . S
C288 H294 0.930 . S
N289 Li265 1.990 . S
N289 C288 1.314 . S
N289 C292 1.279 . S
C290 C288 1.353 . S
C290 C293 1.348 . S
C290 H338 0.929 . S
C291 C292 1.358 . S
C291 C293 1.356 . S
C291 H339 0.930 . S
C292 N289 1.279 . S
C292 C291 1.358 . S
C292 H295 0.930 . S
C293 C290 1.348 . S
C293 C291 1.356 . S
H294 C288 0.930 . S
H295 C292 0.930 . S
C296 C298 1.348 1_455 S
C296 C299 1.356 . S
C296 O326 1.325 . S
N297 C300 1.262 1_455 S
N297 C301 1.279 . S
C298 C296 1.348 1_655 S
C298 C300 1.351 . S
C298 H340 0.929 . S
C299 C296 1.356 . S
C299 C301 1.358 . S
C299 H341 0.930 . S
C300 N297 1.262 1_655 S
C300 C298 1.351 . S
C300 H342 0.994 . S
C301 N297 1.279 . S
C301 C299 1.358 . S
C301 H343 0.930 . S
C302 C303 1.348 . S
C302 C304 1.356 1_556 S
C302 O327 1.325 1_556 S
C303 C302 1.348 . S
C303 C305 1.353 . S
C303 H344 0.929 . S
C304 C302 1.356 1_554 S
C304 C306 1.358 . S
C304 H345 0.930 . S
C305 C303 1.353 . S
C305 N307 1.314 . S
C305 H346 0.930 . S
C306 C304 1.358 . S
C306 N307 1.279 1_554 S
C306 H347 0.930 . S
N307 C305 1.314 . S
N307 C306 1.279 1_556 S
C308 C310 1.353 . S
C308 N311 1.314 . S
C308 H314 0.930 . S
C309 N311 1.279 . S
C309 C312 1.358 . S
C309 H315 0.930 . S
C310 C308 1.353 . S
C310 C313 1.348 . S
C310 H348 0.929 . S
N311 Li266 1.990 . S
N311 C308 1.314 . S
N311 C309 1.279 . S
C312 C309 1.358 . S
C312 C313 1.356 . S
C312 H349 0.930 . S
C313 C310 1.348 . S
C313 C312 1.356 . S
H314 C308 0.930 . S
H315 C309 0.930 . S
C316 N317 1.314 1_554 S
C316 C318 1.353 1_554 S
C316 H322 0.930 . S
N317 Li267 1.990 1_556 S
N317 C316 1.314 1_556 S
N317 C320 1.279 . S
C318 C316 1.353 1_556 S
C318 C321 1.348 . S
C318 H350 0.929 1_556 S
C319 C320 1.358 . S
C319 C321 1.356 . S
C319 H351 0.930 . S
C320 N317 1.279 . S
C320 C319 1.358 . S
C320 H323 0.930 . S
C321 C318 1.348 . S
C321 C319 1.356 . S
H322 C316 0.930 . S
H323 C320 0.930 . S
O324 Li264 1.956 . S
O324 Li265 1.970 1_455 S
O324 Li266 1.961 1_554 S
O324 C268 1.325 . S
O325 Li264 1.970 1_655 S
O325 Li265 1.956 . S
O325 Li267 1.961 . S
O325 C274 1.325 . S
O326 Li264 1.961 1_556 S
O326 Li266 1.956 . S
O326 Li267 1.970 1_456 S
O326 C296 1.325 . S
O327 Li265 1.961 . S
O327 Li266 1.970 1_654 S
O327 Li267 1.956 . S
O327 C302 1.325 1_554 S
H328 C270 0.929 . S
H329 C271 0.930 1_556 S
H330 C272 0.930 . S
H331 C273 0.930 1_556 S
H332 C275 0.930 . S
H333 C277 0.929 . S
H334 C278 0.930 . S
H335 C279 0.963 . S
H336 C282 0.930 . S
H337 C285 0.929 . S
H338 C290 0.929 . S
H339 C291 0.930 . S
H340 C298 0.929 . S
H341 C299 0.930 . S
H342 C300 0.994 . S
H343 C301 0.930 . S
H344 C303 0.929 . S
H345 C304 0.930 . S
H346 C305 0.930 . S
H347 C306 0.930 . S
H348 C310 0.929 . S
H349 C312 0.930 . S
H350 C318 0.929 1_554 S
H351 C319 0.930 . S
Li352 N369 1.990 . S
Li352 O412 1.956 . S
Li352 O413 1.970 . S
Li352 O414 1.961 1_554 S
Li353 N377 1.990 . S
Li353 O412 1.970 . S
Li353 O413 1.956 . S
Li353 O415 1.961 . S
Li354 N399 1.990 . S
Li354 O412 1.961 1_556 S
Li354 O414 1.956 . S
Li354 O415 1.970 1_556 S
Li355 N405 1.990 1_554 S
Li355 O413 1.961 . S
Li355 O414 1.970 1_554 S
Li355 O415 1.956 . S
C356 C358 1.348 . S
C356 C359 1.356 . S
C356 O412 1.325 . S
N357 C360 1.314 . S
N357 C361 1.279 . S
C358 C356 1.348 . S
C358 C360 1.353 . S
C358 H416 0.929 . S
C359 C356 1.356 . S
C359 C361 1.358 . S
C359 H417 0.930 1_554 S
C360 N357 1.314 . S
C360 C358 1.353 . S
C360 H418 0.930 . S
C361 N357 1.279 . S
C361 C359 1.358 . S
C361 H419 0.930 . S
C362 C365 1.348 . S
C362 C366 1.356 . S
C362 O413 1.325 . S
C363 N364 1.279 . S
C363 C366 1.358 . S
C363 H420 0.930 . S
N364 C363 1.279 . S
N364 C367 1.314 . S
C365 C362 1.348 . S
C365 C367 1.353 . S
C365 H421 0.929 . S
C366 C362 1.356 . S
C366 C363 1.358 . S
C366 H422 0.930 . S
C367 N364 1.314 . S
C367 C365 1.353 . S
C367 H423 0.930 . S
C368 N369 1.314 . S
C368 C373 1.353 . S
C368 H374 0.930 . S
N369 Li352 1.990 . S
N369 C368 1.314 . S
N369 C371 1.279 . S
C370 C371 1.358 . S
C370 C372 1.356 . S
C370 H424 0.930 . S
C371 N369 1.279 . S
C371 C370 1.358 . S
C371 H375 0.930 . S
C372 C370 1.356 . S
C372 C373 1.348 . S
C373 C368 1.353 . S
C373 C372 1.348 . S
C373 H425 0.929 . S
H374 C368 0.930 . S
H375 C371 0.930 . S
C376 N377 1.314 . S
C376 C378 1.353 . S
C376 H382 0.930 . S
N377 Li353 1.990 . S
N377 C376 1.314 . S
N377 C380 1.279 . S
C378 C376 1.353 . S
C378 C381 1.348 . S
C378 H426 0.929 . S
C379 C380 1.358 . S
C379 C381 1.356 . S
C379 H427 0.930 . S
C380 N377 1.279 . S
C380 C379 1.358 . S
C380 H383 0.930 . S
C381 C378 1.348 . S
C381 C379 1.356 . S
H382 C376 0.930 . S
H383 C380 0.930 . S
C384 C386 1.348 . S
C384 C387 1.356 . S
C384 O414 1.325 . S
N385 C388 1.314 . S
N385 C389 1.279 . S
C386 C384 1.348 . S
C386 C388 1.353 . S
C386 H428 0.929 . S
C387 C384 1.356 . S
C387 C389 1.358 . S
C387 H429 0.930 . S
C388 N385 1.314 . S
C388 C386 1.353 . S
C388 H430 0.930 . S
C389 N385 1.279 . S
C389 C387 1.358 . S
C389 H431 0.930 . S
C390 C391 1.348 . S
C390 C392 1.356 1_556 S
C390 O415 1.325 1_556 S
C391 C390 1.348 . S
C391 C393 1.353 . S
C391 H432 0.929 . S
C392 C390 1.356 1_554 S
C392 C394 1.358 . S
C392 H433 0.930 . S
C393 C391 1.353 . S
C393 N395 1.314 . S
C393 H434 0.930 . S
C394 C392 1.358 . S
C394 N395 1.279 1_554 S
C394 H435 0.930 . S
N395 C393 1.314 . S
N395 C394 1.279 1_556 S
C396 C398 1.353 . S
C396 N399 1.314 . S
C396 H402 0.930 . S
C397 N399 1.279 . S
C397 C400 1.358 . S
C397 H403 0.930 . S
C398 C396 1.353 . S
C398 C401 1.348 . S
C398 H436 0.929 . S
N399 Li354 1.990 . S
N399 C396 1.314 . S
N399 C397 1.279 . S
C400 C397 1.358 . S
C400 C401 1.356 . S
C400 H437 0.930 . S
C401 C398 1.348 . S
C401 C400 1.356 . S
H402 C396 0.930 . S
H403 C397 0.930 . S
C404 N405 1.304 1_554 S
C404 C406 1.343 1_554 S
C404 H410 0.955 . S
N405 Li355 1.990 1_556 S
N405 C404 1.304 1_556 S
N405 C408 1.279 . S
C406 C404 1.343 1_556 S
C406 C409 1.348 . S
C406 H438 0.916 1_556 S
C407 C408 1.358 . S
C407 C409 1.356 . S
C407 H439 0.930 . S
C408 N405 1.279 . S
C408 C407 1.358 . S
C408 H411 0.930 . S
C409 C406 1.348 . S
C409 C407 1.356 . S
H410 C404 0.955 . S
H411 C408 0.930 . S
O412 Li352 1.956 . S
O412 Li353 1.970 . S
O412 Li354 1.961 1_554 S
O412 C356 1.325 . S
O413 Li352 1.970 . S
O413 Li353 1.956 . S
O413 Li355 1.961 . S
O413 C362 1.325 . S
O414 Li352 1.961 1_556 S
O414 Li354 1.956 . S
O414 Li355 1.970 1_556 S
O414 C384 1.325 . S
O415 Li353 1.961 . S
O415 Li354 1.970 1_554 S
O415 Li355 1.956 . S
O415 C390 1.325 1_554 S
H416 C358 0.929 . S
H417 C359 0.930 1_556 S
H418 C360 0.930 . S
H419 C361 0.930 . S
H420 C363 0.930 . S
H421 C365 0.929 . S
H422 C366 0.930 . S
H423 C367 0.930 . S
H424 C370 0.930 . S
H425 C373 0.929 . S
H426 C378 0.929 . S
H427 C379 0.930 . S
H428 C386 0.929 . S
H429 C387 0.930 . S
H430 C388 0.930 . S
H431 C389 0.930 . S
H432 C391 0.929 . S
H433 C392 0.930 . S
H434 C393 0.930 . S
H435 C394 0.930 . S
H436 C398 0.929 . S
H437 C400 0.930 . S
H438 C406 0.916 1_554 S
H439 C407 0.930 . S
Li440 N457 1.990 . S
Li440 O500 1.956 . S
Li440 O501 1.970 1_565 S
Li440 O502 1.961 1_554 S
Li441 N465 1.990 . S
Li441 O500 1.970 1_545 S
Li441 O501 1.956 . S
Li441 O503 1.961 . S
Li442 N487 1.990 . S
Li442 O500 1.961 1_556 S
Li442 O502 1.956 . S
Li442 O503 1.970 1_566 S
Li443 N493 1.990 1_554 S
Li443 O501 1.961 . S
Li443 O502 1.970 1_544 S
Li443 O503 1.956 . S
C444 C446 1.348 . S
C444 C447 1.356 . S
C444 O500 1.325 . S
N445 C448 1.314 . S
N445 C449 1.279 . S
C446 C444 1.348 . S
C446 C448 1.353 . S
C446 H504 0.929 . S
C447 C444 1.356 . S
C447 C449 1.358 . S
C447 H505 0.930 1_554 S
C448 N445 1.314 . S
C448 C446 1.353 . S
C448 H506 0.930 . S
C449 N445 1.279 . S
C449 C447 1.358 . S
C449 H507 0.930 1_554 S
C450 C453 1.348 1_545 S
C450 C454 1.356 . S
C450 O501 1.325 . S
C451 N452 1.279 . S
C451 C454 1.358 . S
C451 H508 0.930 . S
N452 C451 1.279 . S
N452 C455 1.282 1_545 S
C453 C450 1.348 1_565 S
C453 C455 1.351 . S
C453 H509 0.929 . S
C454 C450 1.356 . S
C454 C451 1.358 . S
C454 H510 0.930 . S
C455 N452 1.282 1_565 S
C455 C453 1.351 . S
C455 H511 0.970 . S
C456 N457 1.314 . S
C456 C461 1.353 . S
C456 H462 0.930 . S
N457 Li440 1.990 . S
N457 C456 1.314 . S
N457 C459 1.279 . S
C458 C459 1.358 . S
C458 C460 1.356 . S
C458 H512 0.930 . S
C459 N457 1.279 . S
C459 C458 1.358 . S
C459 H463 0.930 . S
C460 C458 1.356 . S
C460 C461 1.348 . S
C461 C456 1.353 . S
C461 C460 1.348 . S
C461 H513 0.929 . S
H462 C456 0.930 . S
H463 C459 0.930 . S
C464 N465 1.314 . S
C464 C466 1.353 . S
C464 H470 0.930 . S
N465 Li441 1.990 . S
N465 C464 1.314 . S
N465 C468 1.279 . S
C466 C464 1.353 . S
C466 C469 1.348 . S
C466 H514 0.929 . S
C467 C468 1.358 . S
C467 C469 1.356 . S
C467 H515 0.930 . S
C468 N465 1.279 . S
C468 C467 1.358 . S
C468 H471 0.930 . S
C469 C466 1.348 . S
C469 C467 1.356 . S
H470 C464 0.930 . S
H471 C468 0.930 . S
C472 C474 1.348 1_565 S
C472 C475 1.356 . S
C472 O502 1.325 . S
N473 C476 1.281 1_565 S
N473 C477 1.279 . S
C474 C472 1.348 1_545 S
C474 C476 1.373 . S
C474 H516 0.929 . S
C475 C472 1.356 . S
C475 C477 1.358 . S
C475 H517 0.930 . S
C476 N473 1.281 1_545 S
C476 C474 1.373 . S
C476 H518 0.946 . S
C477 N473 1.279 . S
C477 C475 1.358 . S
C477 H519 0.930 . S
C478 C479 1.346 . S
C478 C480 1.357 1_556 S
C478 O503 1.325 1_556 S
C479 C478 1.346 . S
C479 C481 1.353 . S
C479 H520 0.929 . S
C480 C478 1.357 1_554 S
C480 C482 1.358 . S
C480 H521 0.930 . S
C481 C479 1.353 . S
C481 N483 1.314 . S
C481 H522 0.930 . S
C482 C480 1.358 . S
C482 N483 1.279 1_554 S
C482 H523 0.930 . S
N483 C481 1.314 . S
N483 C482 1.279 1_556 S
C484 C486 1.353 . S
C484 N487 1.314 . S
C484 H490 0.930 . S
C485 N487 1.279 . S
C485 C488 1.358 . S
C485 H491 0.930 . S
C486 C484 1.353 . S
C486 C489 1.348 . S
C486 H524 0.929 . S
N487 Li442 1.990 . S
N487 C484 1.314 . S
N487 C485 1.279 . S
C488 C485 1.358 . S
C488 C489 1.356 . S
C488 H525 0.930 . S
C489 C486 1.348 . S
C489 C488 1.356 . S
H490 C484 0.930 . S
H491 C485 0.930 . S
C492 N493 1.314 1_554 S
C492 C494 1.353 . S
C492 H498 0.930 . S
N493 Li443 1.990 1_556 S
N493 C492 1.314 1_556 S
N493 C496 1.280 . S
C494 C492 1.353 . S
C494 C497 1.348 1_554 S
C494 H526 0.929 . S
C495 C496 1.358 . S
C495 C497 1.356 . S
C495 H527 0.930 . S
C496 N493 1.280 . S
C496 C495 1.358 . S
C496 H499 0.930 . S
C497 C494 1.348 1_556 S
C497 C495 1.356 . S
H498 C492 0.930 . S
H499 C496 0.930 . S
O500 Li440 1.956 . S
O500 Li441 1.970 1_565 S
O500 Li442 1.961 1_554 S
O500 C444 1.325 . S
O501 Li440 1.970 1_545 S
O501 Li441 1.956 . S
O501 Li443 1.961 . S
O501 C450 1.325 . S
O502 Li440 1.961 1_556 S
O502 Li442 1.956 . S
O502 Li443 1.970 1_566 S
O502 C472 1.325 . S
O503 Li441 1.961 . S
O503 Li442 1.970 1_544 S
O503 Li443 1.956 . S
O503 C478 1.325 1_554 S
H504 C446 0.929 . S
H505 C447 0.930 1_556 S
H506 C448 0.930 . S
H507 C449 0.930 1_556 S
H508 C451 0.930 . S
H509 C453 0.929 . S
H510 C454 0.930 . S
H511 C455 0.970 . S
H512 C458 0.930 . S
H513 C461 0.929 . S
H514 C466 0.929 . S
H515 C467 0.930 . S
H516 C474 0.929 . S
H517 C475 0.930 . S
H518 C476 0.946 . S
H519 C477 0.930 . S
H520 C479 0.929 . S
H521 C480 0.930 . S
H522 C481 0.930 . S
H523 C482 0.930 . S
H524 C486 0.929 . S
H525 C488 0.930 . S
H526 C494 0.929 . S
H527 C495 0.930 . S
Li528 N545 1.990 . S
Li528 O588 1.956 . S
Li528 O589 1.970 . S
Li528 O590 1.961 . S
Li529 N553 1.990 . S
Li529 O588 1.970 . S
Li529 O589 1.956 . S
Li529 O591 1.961 . S
Li530 N575 1.990 . S
Li530 O588 1.961 . S
Li530 O590 1.956 . S
Li530 O591 1.970 . S
Li531 N581 1.990 . S
Li531 O589 1.961 . S
Li531 O590 1.970 . S
Li531 O591 1.956 . S
C532 C534 1.348 . S
C532 C535 1.356 . S
C532 O588 1.325 . S
N533 C536 1.314 . S
N533 C537 1.279 . S
C534 C532 1.348 . S
C534 C536 1.353 . S
C534 H592 0.929 . S
C535 C532 1.356 . S
C535 C537 1.358 . S
C535 H593 0.930 . S
C536 N533 1.314 . S
C536 C534 1.353 . S
C536 H594 0.930 . S
C537 N533 1.279 . S
C537 C535 1.358 . S
C537 H595 0.930 . S
C538 C541 1.348 . S
C538 C542 1.356 . S
C538 O589 1.325 . S
C539 N540 1.279 . S
C539 C542 1.358 . S
C539 H596 0.930 . S
N540 C539 1.279 . S
N540 C543 1.314 . S
C541 C538 1.348 . S
C541 C543 1.353 . S
C541 H597 0.929 . S
C542 C538 1.356 . S
C542 C539 1.358 . S
C542 H598 0.930 . S
C543 N540 1.314 . S
C543 C541 1.353 . S
C543 H599 0.930 . S
C544 N545 1.314 . S
C544 C549 1.353 . S
C544 H550 0.930 . S
N545 Li528 1.990 . S
N545 C544 1.314 . S
N545 C547 1.279 . S
C546 C547 1.358 . S
C546 C548 1.356 . S
C546 H600 0.930 . S
C547 N545 1.279 . S
C547 C546 1.358 . S
C547 H551 0.930 . S
C548 C546 1.356 . S
C548 C549 1.348 . S
C549 C544 1.353 . S
C549 C548 1.348 . S
C549 H601 0.929 . S
H550 C544 0.930 . S
H551 C547 0.930 . S
C552 N553 1.314 . S
C552 C554 1.353 . S
C552 H558 0.930 . S
N553 Li529 1.990 . S
N553 C552 1.314 . S
N553 C556 1.279 . S
C554 C552 1.353 . S
C554 C557 1.348 . S
C554 H602 0.929 . S
C555 C556 1.358 . S
C555 C557 1.356 . S
C555 H603 0.930 . S
C556 N553 1.279 . S
C556 C555 1.358 . S
C556 H559 0.930 . S
C557 C554 1.348 . S
C557 C555 1.356 . S
H558 C552 0.930 . S
H559 C556 0.930 . S
C560 C562 1.348 . S
C560 C563 1.356 . S
C560 O590 1.325 . S
N561 C564 1.314 . S
N561 C565 1.279 . S
C562 C560 1.348 . S
C562 C564 1.353 . S
C562 H604 0.929 . S
C563 C560 1.356 . S
C563 C565 1.358 . S
C563 H605 0.930 . S
C564 N561 1.314 . S
C564 C562 1.353 . S
C564 H606 0.930 . S
C565 N561 1.279 . S
C565 C563 1.358 . S
C565 H607 0.930 . S
C566 C567 1.348 . S
C566 C568 1.356 . S
C566 O591 1.325 . S
C567 C566 1.348 . S
C567 C569 1.353 . S
C567 H608 0.929 . S
C568 C566 1.356 . S
C568 C570 1.358 . S
C568 H609 0.930 . S
C569 C567 1.353 . S
C569 N571 1.314 . S
C569 H610 0.930 . S
C570 C568 1.358 . S
C570 N571 1.279 . S
C570 H611 0.930 . S
N571 C569 1.314 . S
N571 C570 1.279 . S
C572 C574 1.353 . S
C572 N575 1.314 . S
C572 H578 0.930 . S
C573 N575 1.279 . S
C573 C576 1.358 . S
C573 H579 0.930 . S
C574 C572 1.353 . S
C574 C577 1.348 . S
C574 H612 0.929 . S
N575 Li530 1.990 . S
N575 C572 1.314 . S
N575 C573 1.279 . S
C576 C573 1.358 . S
C576 C577 1.356 . S
C576 H613 0.930 . S
C577 C574 1.348 . S
C577 C576 1.356 . S
H578 C572 0.930 . S
H579 C573 0.930 . S
C580 N581 1.314 . S
C580 C582 1.353 . S
C580 H586 0.930 . S
N581 Li531 1.990 . S
N581 C580 1.314 . S
N581 C584 1.279 . S
C582 C580 1.353 . S
C582 C585 1.348 . S
C582 H614 0.929 . S
C583 C584 1.358 . S
C583 C585 1.356 . S
C583 H615 0.930 . S
C584 N581 1.279 . S
C584 C583 1.358 . S
C584 H587 0.930 . S
C585 C582 1.348 . S
C585 C583 1.356 . S
H586 C580 0.930 . S
H587 C584 0.930 . S
O588 Li528 1.956 . S
O588 Li529 1.970 . S
O588 Li530 1.961 . S
O588 C532 1.325 . S
O589 Li528 1.970 . S
O589 Li529 1.956 . S
O589 Li531 1.961 . S
O589 C538 1.325 . S
O590 Li528 1.961 . S
O590 Li530 1.956 . S
O590 Li531 1.970 . S
O590 C560 1.325 . S
O591 Li529 1.961 . S
O591 Li530 1.970 . S
O591 Li531 1.956 . S
O591 C566 1.325 . S
H592 C534 0.929 . S
H593 C535 0.930 . S
H594 C536 0.930 . S
H595 C537 0.930 . S
H596 C539 0.930 . S
H597 C541 0.929 . S
H598 C542 0.930 . S
H599 C543 0.930 . S
H600 C546 0.930 . S
H601 C549 0.929 . S
H602 C554 0.929 . S
H603 C555 0.930 . S
H604 C562 0.929 . S
H605 C563 0.930 . S
H606 C564 0.930 . S
H607 C565 0.930 . S
H608 C567 0.929 . S
H609 C568 0.930 . S
H610 C569 0.930 . S
H611 C570 0.930 . S
H612 C574 0.929 . S
H613 C576 0.930 . S
H614 C582 0.929 . S
H615 C583 0.930 . S
Li616 N633 1.990 . S
Li616 O676 1.956 . S
Li616 O677 1.970 . S
Li616 O678 1.961 . S
Li617 N641 1.990 . S
Li617 O676 1.970 . S
Li617 O677 1.956 . S
Li617 O679 1.961 . S
Li618 N663 1.990 1_565 S
Li618 O676 1.961 . S
Li618 O678 1.956 . S
Li618 O679 1.970 . S
Li619 N669 1.990 . S
Li619 O677 1.961 . S
Li619 O678 1.970 . S
Li619 O679 1.956 . S
C620 C622 1.348 . S
C620 C623 1.356 . S
C620 O676 1.325 . S
N621 C624 1.314 . S
N621 C625 1.279 . S
C622 C620 1.348 . S
C622 C624 1.353 . S
C622 H680 0.929 . S
C623 C620 1.356 . S
C623 C625 1.358 . S
C623 H681 0.930 . S
C624 N621 1.314 . S
C624 C622 1.353 . S
C624 H682 0.930 . S
C625 N621 1.279 . S
C625 C623 1.358 . S
C625 H683 0.930 . S
C626 C629 1.348 . S
C626 C630 1.356 . S
C626 O677 1.325 . S
C627 N628 1.279 . S
C627 C630 1.358 . S
C627 H684 0.930 . S
N628 C627 1.279 . S
N628 C631 1.314 . S
C629 C626 1.348 . S
C629 C631 1.353 . S
C629 H685 0.929 . S
C630 C626 1.356 . S
C630 C627 1.358 . S
C630 H686 0.930 . S
C631 N628 1.314 . S
C631 C629 1.353 . S
C631 H687 0.930 . S
C632 N633 1.314 . S
C632 C637 1.353 . S
C632 H638 0.930 . S
N633 Li616 1.990 . S
N633 C632 1.314 . S
N633 C635 1.279 . S
C634 C635 1.358 . S
C634 C636 1.356 . S
C634 H688 0.930 . S
C635 N633 1.279 . S
C635 C634 1.358 . S
C635 H639 0.930 . S
C636 C634 1.356 . S
C636 C637 1.348 . S
C637 C632 1.353 . S
C637 C636 1.348 . S
C637 H689 0.929 . S
H638 C632 0.930 . S
H639 C635 0.930 . S
C640 N641 1.314 . S
C640 C642 1.353 . S
C640 H646 0.930 . S
N641 Li617 1.990 . S
N641 C640 1.314 . S
N641 C644 1.279 . S
C642 C640 1.353 . S
C642 C645 1.348 . S
C642 H690 0.929 . S
C643 C644 1.358 . S
C643 C645 1.356 . S
C643 H691 0.930 . S
C644 N641 1.279 . S
C644 C643 1.358 . S
C644 H647 0.930 . S
C645 C642 1.348 . S
C645 C643 1.356 . S
H646 C640 0.930 . S
H647 C644 0.930 . S
C648 C650 1.348 . S
C648 C651 1.356 . S
C648 O678 1.325 1_545 S
N649 C652 1.314 . S
N649 C653 1.279 . S
C650 C648 1.348 . S
C650 C652 1.353 . S
C650 H692 0.929 . S
C651 C648 1.356 . S
C651 C653 1.358 . S
C651 H693 0.930 . S
C652 N649 1.314 . S
C652 C650 1.353 . S
C652 H694 0.930 . S
C653 N649 1.279 . S
C653 C651 1.358 . S
C653 H695 0.930 . S
C654 C655 1.348 1_565 S
C654 C656 1.356 . S
C654 O679 1.325 . S
C655 C654 1.348 1_545 S
C655 C657 1.353 . S
C655 H696 0.929 . S
C656 C654 1.356 . S
C656 C658 1.358 . S
C656 H697 0.930 . S
C657 C655 1.353 . S
C657 N659 1.314 . S
C657 H698 0.930 . S
C658 C656 1.358 . S
C658 N659 1.279 1_565 S
C658 H699 0.930 . S
N659 C657 1.314 . S
N659 C658 1.279 1_545 S
C660 C662 1.353 . S
C660 N663 1.314 . S
C660 H666 0.930 . S
C661 N663 1.279 . S
C661 C664 1.358 . S
C661 H667 0.930 . S
C662 C660 1.353 . S
C662 C665 1.348 . S
C662 H700 0.929 . S
N663 Li618 1.990 1_545 S
N663 C660 1.314 . S
N663 C661 1.279 . S
C664 C661 1.358 . S
C664 C665 1.356 . S
C664 H701 0.930 . S
C665 C662 1.348 . S
C665 C664 1.356 . S
H666 C660 0.930 . S
H667 C661 0.930 . S
C668 N669 1.314 . S
C668 C670 1.353 . S
C668 H674 0.930 . S
N669 Li619 1.990 . S
N669 C668 1.314 . S
N669 C672 1.279 . S
C670 C668 1.353 . S
C670 C673 1.348 . S
C670 H702 0.929 . S
C671 C672 1.358 . S
C671 C673 1.356 . S
C671 H703 0.930 . S
C672 N669 1.279 . S
C672 C671 1.358 . S
C672 H675 0.930 . S
C673 C670 1.348 . S
C673 C671 1.356 . S
H674 C668 0.930 . S
H675 C672 0.930 . S
O676 Li616 1.956 . S
O676 Li617 1.970 . S
O676 Li618 1.961 . S
O676 C620 1.325 . S
O677 Li616 1.970 . S
O677 Li617 1.956 . S
O677 Li619 1.961 . S
O677 C626 1.325 . S
O678 Li616 1.961 . S
O678 Li618 1.956 . S
O678 Li619 1.970 . S
O678 C648 1.325 1_565 S
O679 Li617 1.961 . S
O679 Li618 1.970 . S
O679 Li619 1.956 . S
O679 C654 1.325 . S
H680 C622 0.929 . S
H681 C623 0.930 . S
H682 C624 0.930 . S
H683 C625 0.930 . S
H684 C627 0.930 . S
H685 C629 0.929 . S
H686 C630 0.930 . S
H687 C631 0.930 . S
H688 C634 0.930 . S
H689 C637 0.929 . S
H690 C642 0.929 . S
H691 C643 0.930 . S
H692 C650 0.929 . S
H693 C651 0.930 . S
H694 C652 0.930 . S
H695 C653 0.930 . S
H696 C655 0.929 . S
H697 C656 0.930 . S
H698 C657 0.930 . S
H699 C658 0.930 . S
H700 C662 0.929 . S
H701 C664 0.930 . S
H702 C670 0.929 . S
H703 C671 0.930 . S
Li704 N721 1.990 . S
Li704 O764 1.956 . S
Li704 O765 1.970 . S
Li704 O766 1.961 . S
Li705 N729 1.990 . S
Li705 O764 1.970 . S
Li705 O765 1.956 . S
Li705 O767 1.961 . S
Li706 N751 1.990 1_455 S
Li706 O764 1.961 . S
Li706 O766 1.956 . S
Li706 O767 1.970 . S
Li707 N757 1.990 . S
Li707 O765 1.961 . S
Li707 O766 1.970 . S
Li707 O767 1.956 . S
C708 C710 1.348 . S
C708 C711 1.356 . S
C708 O764 1.325 . S
N709 C712 1.314 . S
N709 C713 1.279 . S
C710 C708 1.348 . S
C710 C712 1.353 . S
C710 H768 0.929 . S
C711 C708 1.356 . S
C711 C713 1.358 . S
C711 H769 0.930 . S
C712 N709 1.314 . S
C712 C710 1.353 . S
C712 H770 0.930 . S
C713 N709 1.279 . S
C713 C711 1.358 . S
C713 H771 0.930 . S
C714 C717 1.348 . S
C714 C718 1.356 . S
C714 O765 1.325 . S
C715 N716 1.279 . S
C715 C718 1.358 . S
C715 H772 0.930 . S
N716 C715 1.279 . S
N716 C719 1.314 . S
C717 C714 1.348 . S
C717 C719 1.353 . S
C717 H773 0.929 . S
C718 C714 1.356 . S
C718 C715 1.358 . S
C718 H774 0.930 . S
C719 N716 1.314 . S
C719 C717 1.353 . S
C719 H775 0.930 . S
C720 N721 1.314 . S
C720 C725 1.353 . S
C720 H726 0.930 . S
N721 Li704 1.990 . S
N721 C720 1.314 . S
N721 C723 1.279 . S
C722 C723 1.358 . S
C722 C724 1.356 . S
C722 H776 0.930 . S
C723 N721 1.279 . S
C723 C722 1.358 . S
C723 H727 0.930 . S
C724 C722 1.356 . S
C724 C725 1.348 . S
C725 C720 1.353 . S
C725 C724 1.348 . S
C725 H777 0.929 . S
H726 C720 0.930 . S
H727 C723 0.930 . S
C728 N729 1.314 . S
C728 C730 1.353 . S
C728 H734 0.930 . S
N729 Li705 1.990 . S
N729 C728 1.314 . S
N729 C732 1.279 . S
C730 C728 1.353 . S
C730 C733 1.348 . S
C730 H778 0.929 . S
C731 C732 1.358 . S
C731 C733 1.356 . S
C731 H779 0.930 . S
C732 N729 1.279 . S
C732 C731 1.358 . S
C732 H735 0.930 . S
C733 C730 1.348 . S
C733 C731 1.356 . S
H734 C728 0.930 . S
H735 C732 0.930 . S
C736 C738 1.348 . S
C736 C739 1.356 . S
C736 O766 1.325 1_655 S
N737 C740 1.314 . S
N737 C741 1.279 . S
C738 C736 1.348 . S
C738 C740 1.353 . S
C738 H780 0.929 . S
C739 C736 1.356 . S
C739 C741 1.358 . S
C739 H781 0.930 . S
C740 N737 1.314 . S
C740 C738 1.353 . S
C740 H782 0.930 . S
C741 N737 1.279 . S
C741 C739 1.358 . S
C741 H783 0.930 . S
C742 C743 1.348 1_455 S
C742 C744 1.356 . S
C742 O767 1.325 . S
C743 C742 1.348 1_655 S
C743 C745 1.353 . S
C743 H784 0.929 . S
C744 C742 1.356 . S
C744 C746 1.358 . S
C744 H785 0.930 . S
C745 C743 1.353 . S
C745 N747 1.314 . S
C745 H786 0.930 . S
C746 C744 1.358 . S
C746 N747 1.279 1_455 S
C746 H787 0.930 . S
N747 C745 1.314 . S
N747 C746 1.279 1_655 S
C748 C750 1.353 . S
C748 N751 1.314 . S
C748 H754 0.930 . S
C749 N751 1.279 . S
C749 C752 1.358 . S
C749 H755 0.930 . S
C750 C748 1.353 . S
C750 C753 1.348 . S
C750 H788 0.929 . S
N751 Li706 1.990 1_655 S
N751 C748 1.314 . S
N751 C749 1.279 . S
C752 C749 1.358 . S
C752 C753 1.356 . S
C752 H789 0.930 . S
C753 C750 1.348 . S
C753 C752 1.356 . S
H754 C748 0.930 . S
H755 C749 0.930 . S
C756 N757 1.314 . S
C756 C758 1.353 . S
C756 H762 0.930 . S
N757 Li707 1.990 . S
N757 C756 1.314 . S
N757 C760 1.279 . S
C758 C756 1.353 . S
C758 C761 1.348 . S
C758 H790 0.929 . S
C759 C760 1.358 . S
C759 C761 1.356 . S
C759 H791 0.930 . S
C760 N757 1.279 . S
C760 C759 1.358 . S
C760 H763 0.930 . S
C761 C758 1.348 . S
C761 C759 1.356 . S
H762 C756 0.930 . S
H763 C760 0.930 . S
O764 Li704 1.956 . S
O764 Li705 1.970 . S
O764 Li706 1.961 . S
O764 C708 1.325 . S
O765 Li704 1.970 . S
O765 Li705 1.956 . S
O765 Li707 1.961 . S
O765 C714 1.325 . S
O766 Li704 1.961 . S
O766 Li706 1.956 . S
O766 Li707 1.970 . S
O766 C736 1.325 1_455 S
O767 Li705 1.961 . S
O767 Li706 1.970 . S
O767 Li707 1.956 . S
O767 C742 1.325 . S
H768 C710 0.929 . S
H769 C711 0.930 . S
H770 C712 0.930 . S
H771 C713 0.930 . S
H772 C715 0.930 . S
H773 C717 0.929 . S
H774 C718 0.930 . S
H775 C719 0.930 . S
H776 C722 0.930 . S
H777 C725 0.929 . S
H778 C730 0.929 . S
H779 C731 0.930 . S
H780 C738 0.929 . S
H781 C739 0.930 . S
H782 C740 0.930 . S
H783 C741 0.930 . S
H784 C743 0.929 . S
H785 C744 0.930 . S
H786 C745 0.930 . S
H787 C746 0.930 . S
H788 C750 0.929 . S
H789 C752 0.930 . S
H790 C758 0.929 . S
H791 C759 0.930 . S
Li792 N809 1.990 1_565 S
Li792 O852 1.956 . S
Li792 O853 1.970 . S
Li792 O854 1.961 . S
Li793 N817 1.990 . S
Li793 O852 1.970 . S
Li793 O853 1.956 . S
Li793 O855 1.961 . S
Li794 N839 1.990 . S
Li794 O852 1.961 . S
Li794 O854 1.956 . S
Li794 O855 1.970 . S
Li795 N845 1.990 . S
Li795 O853 1.961 . S
Li795 O854 1.970 . S
Li795 O855 1.956 . S
C796 C798 1.348 . S
C796 C799 1.356 . S
C796 O852 1.325 . S
N797 C800 1.314 . S
N797 C801 1.279 . S
C798 C796 1.348 . S
C798 C800 1.353 . S
C798 H856 0.929 . S
C799 C796 1.356 . S
C799 C801 1.358 . S
C799 H857 0.930 . S
C800 N797 1.314 . S
C800 C798 1.353 . S
C800 H858 0.930 . S
C801 N797 1.279 . S
C801 C799 1.358 . S
C801 H859 0.930 . S
C802 C805 1.348 1_565 S
C802 C806 1.356 . S
C802 O853 1.325 . S
C803 N804 1.279 1_565 S
C803 C806 1.358 . S
C803 H860 0.930 . S
N804 C803 1.279 1_545 S
N804 C807 1.314 . S
C805 C802 1.348 1_545 S
C805 C807 1.353 . S
C805 H861 0.929 . S
C806 C802 1.356 . S
C806 C803 1.358 . S
C806 H862 0.930 . S
C807 N804 1.314 . S
C807 C805 1.353 . S
C807 H863 0.930 . S
C808 N809 1.314 . S
C808 C813 1.353 . S
C808 H814 0.930 . S
N809 Li792 1.990 1_545 S
N809 C808 1.314 . S
N809 C811 1.279 . S
C810 C811 1.358 . S
C810 C812 1.356 . S
C810 H864 0.930 . S
C811 N809 1.279 . S
C811 C810 1.358 . S
C811 H815 0.930 . S
C812 C810 1.356 . S
C812 C813 1.348 . S
C813 C808 1.353 . S
C813 C812 1.348 . S
C813 H865 0.929 . S
H814 C808 0.930 . S
H815 C811 0.930 . S
C816 N817 1.314 . S
C816 C818 1.353 . S
C816 H822 0.930 . S
N817 Li793 1.990 . S
N817 C816 1.314 . S
N817 C820 1.279 . S
C818 C816 1.353 . S
C818 C821 1.348 . S
C818 H866 0.929 . S
C819 C820 1.358 . S
C819 C821 1.356 . S
C819 H867 0.930 . S
C820 N817 1.279 . S
C820 C819 1.358 . S
C820 H823 0.930 . S
C821 C818 1.348 . S
C821 C819 1.356 . S
H822 C816 0.930 . S
H823 C820 0.930 . S
C824 C826 1.348 . S
C824 C827 1.356 . S
C824 O854 1.325 1_545 S
N825 C828 1.314 . S
N825 C829 1.279 . S
C826 C824 1.348 . S
C826 C828 1.353 . S
C826 H868 0.929 1_545 S
C827 C824 1.356 . S
C827 C829 1.358 . S
C827 H869 0.930 . S
C828 N825 1.314 . S
C828 C826 1.353 . S
C828 H870 0.930 . S
C829 N825 1.279 . S
C829 C827 1.358 . S
C829 H871 0.930 . S
C830 C831 1.348 . S
C830 C832 1.356 . S
C830 O855 1.325 . S
C831 C830 1.348 . S
C831 C833 1.353 . S
C831 H872 0.929 . S
C832 C830 1.356 . S
C832 C834 1.358 . S
C832 H873 0.930 . S
C833 C831 1.353 . S
C833 N835 1.314 . S
C833 H874 0.930 . S
C834 C832 1.358 . S
C834 N835 1.279 . S
C834 H875 0.930 . S
N835 C833 1.314 . S
N835 C834 1.279 . S
C836 C838 1.353 . S
C836 N839 1.314 . S
C836 H842 0.930 . S
C837 N839 1.279 . S
C837 C840 1.358 . S
C837 H843 0.930 . S
C838 C836 1.353 . S
C838 C841 1.348 . S
C838 H876 0.929 . S
N839 Li794 1.990 . S
N839 C836 1.314 . S
N839 C837 1.279 . S
C840 C837 1.358 . S
C840 C841 1.356 . S
C840 H877 0.930 . S
C841 C838 1.348 . S
C841 C840 1.356 . S
H842 C836 0.930 . S
H843 C837 0.930 . S
C844 N845 1.314 . S
C844 C846 1.353 . S
C844 H850 0.930 1_565 S
N845 Li795 1.990 . S
N845 C844 1.314 . S
N845 C848 1.279 . S
C846 C844 1.353 . S
C846 C849 1.348 . S
C846 H878 0.929 1_565 S
C847 C848 1.358 . S
C847 C849 1.356 . S
C847 H879 0.930 . S
C848 N845 1.279 . S
C848 C847 1.358 . S
C848 H851 0.930 . S
C849 C846 1.348 . S
C849 C847 1.356 . S
H850 C844 0.930 1_545 S
H851 C848 0.930 . S
O852 Li792 1.956 . S
O852 Li793 1.970 . S
O852 Li794 1.961 . S
O852 C796 1.325 . S
O853 Li792 1.970 . S
O853 Li793 1.956 . S
O853 Li795 1.961 . S
O853 C802 1.325 . S
O854 Li792 1.961 . S
O854 Li794 1.956 . S
O854 Li795 1.970 . S
O854 C824 1.325 1_565 S
O855 Li793 1.961 . S
O855 Li794 1.970 . S
O855 Li795 1.956 . S
O855 C830 1.325 . S
H856 C798 0.929 . S
H857 C799 0.930 . S
H858 C800 0.930 . S
H859 C801 0.930 . S
H860 C803 0.930 . S
H861 C805 0.929 . S
H862 C806 0.930 . S
H863 C807 0.930 . S
H864 C810 0.930 . S
H865 C813 0.929 . S
H866 C818 0.929 . S
H867 C819 0.930 . S
H868 C826 0.929 1_565 S
H869 C827 0.930 . S
H870 C828 0.930 . S
H871 C829 0.930 . S
H872 C831 0.929 . S
H873 C832 0.930 . S
H874 C833 0.930 . S
H875 C834 0.930 . S
H876 C838 0.929 . S
H877 C840 0.930 . S
H878 C846 0.929 1_545 S
H879 C847 0.930 . S
Li880 N897 1.990 . S
Li880 O940 1.956 . S
Li880 O941 1.970 . S
Li880 O942 1.961 . S
Li881 N905 1.990 1_455 S
Li881 O940 1.970 . S
Li881 O941 1.956 . S
Li881 O943 1.961 . S
Li882 N927 1.990 . S
Li882 O940 1.961 . S
Li882 O942 1.956 . S
Li882 O943 1.970 . S
Li883 N933 1.990 . S
Li883 O941 1.961 . S
Li883 O942 1.970 . S
Li883 O943 1.956 . S
C884 C886 1.348 1_455 S
C884 C887 1.356 . S
C884 O940 1.325 . S
N885 C888 1.314 . S
N885 C889 1.279 1_655 S
C886 C884 1.348 1_655 S
C886 C888 1.353 . S
C886 H944 0.929 . S
C887 C884 1.356 . S
C887 C889 1.358 . S
C887 H945 0.930 . S
C888 N885 1.314 . S
C888 C886 1.353 . S
C888 H946 0.930 . S
C889 N885 1.279 1_455 S
C889 C887 1.358 . S
C889 H947 0.930 . S
C890 C893 1.348 . S
C890 C894 1.356 . S
C890 O941 1.325 . S
C891 N892 1.279 . S
C891 C894 1.358 . S
C891 H948 0.930 . S
N892 C891 1.279 . S
N892 C895 1.314 . S
C893 C890 1.348 . S
C893 C895 1.353 . S
C893 H949 0.929 . S
C894 C890 1.356 . S
C894 C891 1.358 . S
C894 H950 0.930 . S
C895 N892 1.314 . S
C895 C893 1.353 . S
C895 H951 0.930 . S
C896 N897 1.314 . S
C896 C901 1.353 . S
C896 H902 0.930 . S
N897 Li880 1.990 . S
N897 C896 1.314 . S
N897 C899 1.279 . S
C898 C899 1.358 . S
C898 C900 1.356 . S
C898 H952 0.930 . S
C899 N897 1.279 . S
C899 C898 1.358 . S
C899 H903 0.930 . S
C900 C898 1.356 . S
C900 C901 1.348 . S
C901 C896 1.353 . S
C901 C900 1.348 . S
C901 H953 0.929 . S
H902 C896 0.930 . S
H903 C899 0.930 . S
C904 N905 1.314 . S
C904 C906 1.353 . S
C904 H910 0.930 . S
N905 Li881 1.990 1_655 S
N905 C904 1.314 . S
N905 C908 1.279 . S
C906 C904 1.353 . S
C906 C909 1.348 . S
C906 H954 0.929 . S
C907 C908 1.358 . S
C907 C909 1.356 . S
C907 H955 0.930 . S
C908 N905 1.279 . S
C908 C907 1.358 . S
C908 H911 0.930 . S
C909 C906 1.348 . S
C909 C907 1.356 . S
H910 C904 0.930 . S
H911 C908 0.930 . S
C912 C914 1.348 . S
C912 C915 1.356 . S
C912 O942 1.325 . S
N913 C916 1.314 . S
N913 C917 1.279 . S
C914 C912 1.348 . S
C914 C916 1.353 . S
C914 H956 0.929 . S
C915 C912 1.356 . S
C915 C917 1.358 . S
C915 H957 0.930 . S
C916 N913 1.314 . S
C916 C914 1.353 . S
C916 H958 0.930 . S
C917 N913 1.279 . S
C917 C915 1.358 . S
C917 H959 0.930 . S
C918 C919 1.348 . S
C918 C920 1.356 . S
C918 O943 1.325 1_655 S
C919 C918 1.348 . S
C919 C921 1.353 . S
C919 H960 0.929 1_655 S
C920 C918 1.356 . S
C920 C922 1.358 . S
C920 H961 0.930 . S
C921 C919 1.353 . S
C921 N923 1.314 . S
C921 H962 0.930 . S
C922 C920 1.358 . S
C922 N923 1.279 . S
C922 H963 0.930 . S
N923 C921 1.314 . S
N923 C922 1.279 . S
C924 C926 1.353 . S
C924 N927 1.314 . S
C924 H930 0.930 1_455 S
C925 N927 1.279 . S
C925 C928 1.358 . S
C925 H931 0.930 . S
C926 C924 1.353 . S
C926 C929 1.348 . S
C926 H964 0.929 1_455 S
N927 Li882 1.990 . S
N927 C924 1.314 . S
N927 C925 1.279 . S
C928 C925 1.358 . S
C928 C929 1.356 . S
C928 H965 0.930 . S
C929 C926 1.348 . S
C929 C928 1.356 . S
H930 C924 0.930 1_655 S
H931 C925 0.930 . S
C932 N933 1.314 . S
C932 C934 1.353 . S
C932 H938 0.930 . S
N933 Li883 1.990 . S
N933 C932 1.314 . S
N933 C936 1.279 . S
C934 C932 1.353 . S
C934 C937 1.348 . S
C934 H966 0.929 . S
C935 C936 1.358 . S
C935 C937 1.356 . S
C935 H967 0.930 . S
C936 N933 1.279 . S
C936 C935 1.358 . S
C936 H939 0.930 . S
C937 C934 1.348 . S
C937 C935 1.356 . S
H938 C932 0.930 . S
H939 C936 0.930 . S
O940 Li880 1.956 . S
O940 Li881 1.970 . S
O940 Li882 1.961 . S
O940 C884 1.325 . S
O941 Li880 1.970 . S
O941 Li881 1.956 . S
O941 Li883 1.961 . S
O941 C890 1.325 . S
O942 Li880 1.961 . S
O942 Li882 1.956 . S
O942 Li883 1.970 . S
O942 C912 1.325 . S
O943 Li881 1.961 . S
O943 Li882 1.970 . S
O943 Li883 1.956 . S
O943 C918 1.325 1_455 S
H944 C886 0.929 . S
H945 C887 0.930 . S
H946 C888 0.930 . S
H947 C889 0.930 . S
H948 C891 0.930 . S
H949 C893 0.929 . S
H950 C894 0.930 . S
H951 C895 0.930 . S
H952 C898 0.930 . S
H953 C901 0.929 . S
H954 C906 0.929 . S
H955 C907 0.930 . S
H956 C914 0.929 . S
H957 C915 0.930 . S
H958 C916 0.930 . S
H959 C917 0.930 . S
H960 C919 0.929 1_455 S
H961 C920 0.930 . S
H962 C921 0.930 . S
H963 C922 0.930 . S
H964 C926 0.929 1_655 S
H965 C928 0.930 . S
H966 C934 0.929 . S
H967 C935 0.930 . S
Li968 N985 1.990 . S
Li968 O1028 1.956 . S
Li968 O1029 1.970 . S
Li968 O1030 1.961 . S
Li969 N993 1.990 . S
Li969 O1028 1.970 . S
Li969 O1029 1.956 . S
Li969 O1031 1.961 . S
Li970 N1015 1.990 . S
Li970 O1028 1.961 . S
Li970 O1030 1.956 . S
Li970 O1031 1.970 . S
Li971 N1021 1.990 . S
Li971 O1029 1.961 . S
Li971 O1030 1.970 . S
Li971 O1031 1.956 . S
C972 C974 1.348 . S
C972 C975 1.356 . S
C972 O1028 1.325 . S
N973 C976 1.314 . S
N973 C977 1.279 . S
C974 C972 1.348 . S
C974 C976 1.353 . S
C974 H1032 0.929 . S
C975 C972 1.356 . S
C975 C977 1.358 . S
C975 H1033 0.930 . S
C976 N973 1.314 . S
C976 C974 1.353 . S
C976 H1034 0.930 . S
C977 N973 1.279 . S
C977 C975 1.358 . S
C977 H1035 0.930 . S
C978 C981 1.348 . S
C978 C982 1.356 . S
C978 O1029 1.325 . S
C979 N980 1.279 . S
C979 C982 1.358 . S
C979 H1036 0.930 . S
N980 C979 1.279 . S
N980 C983 1.314 . S
C981 C978 1.348 . S
C981 C983 1.353 . S
C981 H1037 0.929 . S
C982 C978 1.356 . S
C982 C979 1.358 . S
C982 H1038 0.930 . S
C983 N980 1.314 . S
C983 C981 1.353 . S
C983 H1039 0.930 . S
C984 N985 1.314 . S
C984 C989 1.353 . S
C984 H990 0.930 . S
N985 Li968 1.990 . S
N985 C984 1.314 . S
N985 C987 1.279 . S
C986 C987 1.358 . S
C986 C988 1.356 . S
C986 H1040 0.930 . S
C987 N985 1.279 . S
C987 C986 1.358 . S
C987 H991 0.930 . S
C988 C986 1.356 . S
C988 C989 1.348 . S
C989 C984 1.353 . S
C989 C988 1.348 . S
C989 H1041 0.929 . S
H990 C984 0.930 . S
H991 C987 0.930 . S
C992 N993 1.314 . S
C992 C994 1.353 . S
C992 H998 0.930 . S
N993 Li969 1.990 . S
N993 C992 1.314 . S
N993 C996 1.279 . S
C994 C992 1.353 . S
C994 C997 1.348 . S
C994 H1042 0.929 . S
C995 C996 1.358 . S
C995 C997 1.356 . S
C995 H1043 0.930 . S
C996 N993 1.279 . S
C996 C995 1.358 . S
C996 H999 0.930 . S
C997 C994 1.348 . S
C997 C995 1.356 . S
H998 C992 0.930 . S
H999 C996 0.930 . S
C1000 C1002 1.348 . S
C1000 C1003 1.356 . S
C1000 O1030 1.325 . S
N1001 C1004 1.314 . S
N1001 C1005 1.279 . S
C1002 C1000 1.348 . S
C1002 C1004 1.353 . S
C1002 H1044 0.929 . S
C1003 C1000 1.356 . S
C1003 C1005 1.358 . S
C1003 H1045 0.930 . S
C1004 N1001 1.314 . S
C1004 C1002 1.353 . S
C1004 H1046 0.930 . S
C1005 N1001 1.279 . S
C1005 C1003 1.358 . S
C1005 H1047 0.930 . S
C1006 C1007 1.348 . S
C1006 C1008 1.356 . S
C1006 O1031 1.325 . S
C1007 C1006 1.348 . S
C1007 C1009 1.353 . S
C1007 H1048 0.929 . S
C1008 C1006 1.356 . S
C1008 C1010 1.358 . S
C1008 H1049 0.930 . S
C1009 C1007 1.353 . S
C1009 N1011 1.314 . S
C1009 H1050 0.930 . S
C1010 C1008 1.358 . S
C1010 N1011 1.279 . S
C1010 H1051 0.930 . S
N1011 C1009 1.314 . S
N1011 C1010 1.279 . S
C1012 C1014 1.353 . S
C1012 N1015 1.314 . S
C1012 H1018 0.930 . S
C1013 N1015 1.279 . S
C1013 C1016 1.358 . S
C1013 H1019 0.930 . S
C1014 C1012 1.353 . S
C1014 C1017 1.348 . S
C1014 H1052 0.929 . S
N1015 Li970 1.990 . S
N1015 C1012 1.314 . S
N1015 C1013 1.279 . S
C1016 C1013 1.358 . S
C1016 C1017 1.356 . S
C1016 H1053 0.930 . S
C1017 C1014 1.348 . S
C1017 C1016 1.356 . S
H1018 C1012 0.930 . S
H1019 C1013 0.930 . S
C1020 N1021 1.314 . S
C1020 C1022 1.353 . S
C1020 H1026 0.930 . S
N1021 Li971 1.990 . S
N1021 C1020 1.314 . S
N1021 C1024 1.279 . S
C1022 C1020 1.353 . S
C1022 C1025 1.348 . S
C1022 H1054 0.929 . S
C1023 C1024 1.358 . S
C1023 C1025 1.356 . S
C1023 H1055 0.930 . S
C1024 N1021 1.279 . S
C1024 C1023 1.358 . S
C1024 H1027 0.930 . S
C1025 C1022 1.348 . S
C1025 C1023 1.356 . S
H1026 C1020 0.930 . S
H1027 C1024 0.930 . S
O1028 Li968 1.956 . S
O1028 Li969 1.970 . S
O1028 Li970 1.961 . S
O1028 C972 1.325 . S
O1029 Li968 1.970 . S
O1029 Li969 1.956 . S
O1029 Li971 1.961 . S
O1029 C978 1.325 . S
O1030 Li968 1.961 . S
O1030 Li970 1.956 . S
O1030 Li971 1.970 . S
O1030 C1000 1.325 . S
O1031 Li969 1.961 . S
O1031 Li970 1.970 . S
O1031 Li971 1.956 . S
O1031 C1006 1.325 . S
H1032 C974 0.929 . S
H1033 C975 0.930 . S
H1034 C976 0.930 . S
H1035 C977 0.930 . S
H1036 C979 0.930 . S
H1037 C981 0.929 . S
H1038 C982 0.930 . S
H1039 C983 0.930 . S
H1040 C986 0.930 . S
H1041 C989 0.929 . S
H1042 C994 0.929 . S
H1043 C995 0.930 . S
H1044 C1002 0.929 . S
H1045 C1003 0.930 . S
H1046 C1004 0.930 . S
H1047 C1005 0.930 . S
H1048 C1007 0.929 . S
H1049 C1008 0.930 . S
H1050 C1009 0.930 . S
H1051 C1010 0.930 . S
H1052 C1014 0.929 . S
H1053 C1016 0.930 . S
H1054 C1022 0.929 . S
H1055 C1023 0.930 . S
Li1056 N1073 1.990 1_545 S
Li1056 O1116 1.956 . S
Li1056 O1117 1.970 . S
Li1056 O1118 1.961 . S
Li1057 N1081 1.990 . S
Li1057 O1116 1.970 . S
Li1057 O1117 1.956 . S
Li1057 O1119 1.961 . S
Li1058 N1103 1.990 . S
Li1058 O1116 1.961 . S
Li1058 O1118 1.956 . S
Li1058 O1119 1.970 . S
Li1059 N1109 1.990 . S
Li1059 O1117 1.961 . S
Li1059 O1118 1.970 . S
Li1059 O1119 1.956 . S
C1060 C1062 1.348 . S
C1060 C1063 1.356 . S
C1060 O1116 1.325 1_565 S
N1061 C1064 1.314 . S
N1061 C1065 1.279 . S
C1062 C1060 1.348 . S
C1062 C1064 1.353 . S
C1062 H1120 0.929 . S
C1063 C1060 1.356 . S
C1063 C1065 1.358 . S
C1063 H1121 0.930 . S
C1064 N1061 1.314 . S
C1064 C1062 1.353 . S
C1064 H1122 0.930 . S
C1065 N1061 1.279 . S
C1065 C1063 1.358 . S
C1065 H1123 0.930 . S
C1066 C1069 1.348 1_545 S
C1066 C1070 1.356 . S
C1066 O1117 1.325 . S
C1067 N1068 1.279 1_545 S
C1067 C1070 1.358 . S
C1067 H1124 0.930 . S
N1068 C1067 1.279 1_565 S
N1068 C1071 1.314 . S
C1069 C1066 1.348 1_565 S
C1069 C1071 1.353 . S
C1069 H1125 0.929 . S
C1070 C1066 1.356 . S
C1070 C1067 1.358 . S
C1070 H1126 0.930 . S
C1071 N1068 1.314 . S
C1071 C1069 1.353 . S
C1071 H1127 0.930 . S
C1072 N1073 1.314 . S
C1072 C1077 1.353 . S
C1072 H1078 0.930 . S
N1073 Li1056 1.990 1_565 S
N1073 C1072 1.314 . S
N1073 C1075 1.279 . S
C1074 C1075 1.358 . S
C1074 C1076 1.356 . S
C1074 H1128 0.930 . S
C1075 N1073 1.279 . S
C1075 C1074 1.358 . S
C1075 H1079 0.930 . S
C1076 C1074 1.356 . S
C1076 C1077 1.348 . S
C1077 C1072 1.353 . S
C1077 C1076 1.348 . S
C1077 H1129 0.929 . S
H1078 C1072 0.930 . S
H1079 C1075 0.930 . S
C1080 N1081 1.314 . S
C1080 C1082 1.353 . S
C1080 H1086 0.930 . S
N1081 Li1057 1.990 . S
N1081 C1080 1.314 . S
N1081 C1084 1.279 . S
C1082 C1080 1.353 . S
C1082 C1085 1.348 . S
C1082 H1130 0.929 . S
C1083 C1084 1.358 . S
C1083 C1085 1.356 . S
C1083 H1131 0.930 . S
C1084 N1081 1.279 . S
C1084 C1083 1.358 . S
C1084 H1087 0.930 . S
C1085 C1082 1.348 . S
C1085 C1083 1.356 . S
H1086 C1080 0.930 . S
H1087 C1084 0.930 . S
C1088 C1090 1.348 . S
C1088 C1091 1.356 . S
C1088 O1118 1.325 . S
N1089 C1092 1.314 . S
N1089 C1093 1.279 . S
C1090 C1088 1.348 . S
C1090 C1092 1.353 . S
C1090 H1132 0.929 . S
C1091 C1088 1.356 . S
C1091 C1093 1.358 . S
C1091 H1133 0.930 . S
C1092 N1089 1.314 . S
C1092 C1090 1.353 . S
C1092 H1134 0.930 . S
C1093 N1089 1.279 . S
C1093 C1091 1.358 . S
C1093 H1135 0.930 . S
C1094 C1095 1.348 . S
C1094 C1096 1.356 . S
C1094 O1119 1.325 . S
C1095 C1094 1.348 . S
C1095 C1097 1.353 . S
C1095 H1136 0.929 . S
C1096 C1094 1.356 . S
C1096 C1098 1.358 . S
C1096 H1137 0.930 . S
C1097 C1095 1.353 . S
C1097 N1099 1.314 . S
C1097 H1138 0.930 . S
C1098 C1096 1.358 . S
C1098 N1099 1.279 . S
C1098 H1139 0.930 . S
N1099 C1097 1.314 . S
N1099 C1098 1.279 . S
C1100 C1102 1.353 . S
C1100 N1103 1.314 . S
C1100 H1106 0.930 . S
C1101 N1103 1.279 . S
C1101 C1104 1.358 . S
C1101 H1107 0.930 . S
C1102 C1100 1.353 . S
C1102 C1105 1.348 . S
C1102 H1140 0.929 . S
N1103 Li1058 1.990 . S
N1103 C1100 1.314 . S
N1103 C1101 1.279 . S
C1104 C1101 1.358 . S
C1104 C1105 1.356 . S
C1104 H1141 0.930 . S
C1105 C1102 1.348 . S
C1105 C1104 1.356 . S
H1106 C1100 0.930 . S
H1107 C1101 0.930 . S
C1108 N1109 1.314 . S
C1108 C1110 1.353 . S
C1108 H1114 0.930 . S
N1109 Li1059 1.990 . S
N1109 C1108 1.314 . S
N1109 C1112 1.279 . S
C1110 C1108 1.353 . S
C1110 C1113 1.348 . S
C1110 H1142 0.929 . S
C1111 C1112 1.358 . S
C1111 C1113 1.356 . S
C1111 H1143 0.930 . S
C1112 N1109 1.279 . S
C1112 C1111 1.358 . S
C1112 H1115 0.930 . S
C1113 C1110 1.348 . S
C1113 C1111 1.356 . S
H1114 C1108 0.930 . S
H1115 C1112 0.930 . S
O1116 Li1056 1.956 . S
O1116 Li1057 1.970 . S
O1116 Li1058 1.961 . S
O1116 C1060 1.325 1_545 S
O1117 Li1056 1.970 . S
O1117 Li1057 1.956 . S
O1117 Li1059 1.961 . S
O1117 C1066 1.325 . S
O1118 Li1056 1.961 . S
O1118 Li1058 1.956 . S
O1118 Li1059 1.970 . S
O1118 C1088 1.325 . S
O1119 Li1057 1.961 . S
O1119 Li1058 1.970 . S
O1119 Li1059 1.956 . S
O1119 C1094 1.325 . S
H1120 C1062 0.929 . S
H1121 C1063 0.930 . S
H1122 C1064 0.930 . S
H1123 C1065 0.930 . S
H1124 C1067 0.930 . S
H1125 C1069 0.929 . S
H1126 C1070 0.930 . S
H1127 C1071 0.930 . S
H1128 C1074 0.930 . S
H1129 C1077 0.929 . S
H1130 C1082 0.929 . S
H1131 C1083 0.930 . S
H1132 C1090 0.929 . S
H1133 C1091 0.930 . S
H1134 C1092 0.930 . S
H1135 C1093 0.930 . S
H1136 C1095 0.929 . S
H1137 C1096 0.930 . S
H1138 C1097 0.930 . S
H1139 C1098 0.930 . S
H1140 C1102 0.929 . S
H1141 C1104 0.930 . S
H1142 C1110 0.929 . S
H1143 C1111 0.930 . S
Li1144 N1161 1.990 1_655 S
Li1144 O1204 1.956 . S
Li1144 O1205 1.970 . S
Li1144 O1206 1.961 . S
Li1145 N1169 1.990 . S
Li1145 O1204 1.970 . S
Li1145 O1205 1.956 . S
Li1145 O1207 1.961 . S
Li1146 N1191 1.990 . S
Li1146 O1204 1.961 . S
Li1146 O1206 1.956 . S
Li1146 O1207 1.970 . S
Li1147 N1197 1.990 . S
Li1147 O1205 1.961 . S
Li1147 O1206 1.970 . S
Li1147 O1207 1.956 . S
C1148 C1150 1.348 . S
C1148 C1151 1.356 . S
C1148 O1204 1.325 1_455 S
N1149 C1152 1.314 . S
N1149 C1153 1.279 . S
C1150 C1148 1.348 . S
C1150 C1152 1.353 . S
C1150 H1208 0.929 . S
C1151 C1148 1.356 . S
C1151 C1153 1.358 . S
C1151 H1209 0.930 . S
C1152 N1149 1.314 . S
C1152 C1150 1.353 . S
C1152 H1210 0.930 . S
C1153 N1149 1.279 . S
C1153 C1151 1.358 . S
C1153 H1211 0.930 . S
C1154 C1157 1.348 1_655 S
C1154 C1158 1.356 . S
C1154 O1205 1.325 . S
C1155 N1156 1.279 1_655 S
C1155 C1158 1.358 . S
C1155 H1212 0.930 . S
N1156 C1155 1.279 1_455 S
N1156 C1159 1.314 . S
C1157 C1154 1.348 1_455 S
C1157 C1159 1.353 . S
C1157 H1213 0.929 . S
C1158 C1154 1.356 . S
C1158 C1155 1.358 . S
C1158 H1214 0.930 . S
C1159 N1156 1.314 . S
C1159 C1157 1.353 . S
C1159 H1215 0.930 . S
C1160 N1161 1.314 . S
C1160 C1165 1.353 . S
C1160 H1166 0.930 . S
N1161 Li1144 1.990 1_455 S
N1161 C1160 1.314 . S
N1161 C1163 1.279 . S
C1162 C1163 1.358 . S
C1162 C1164 1.356 . S
C1162 H1216 0.930 . S
C1163 N1161 1.279 . S
C1163 C1162 1.358 . S
C1163 H1167 0.930 . S
C1164 C1162 1.356 . S
C1164 C1165 1.348 . S
C1165 C1160 1.353 . S
C1165 C1164 1.348 . S
C1165 H1217 0.929 . S
H1166 C1160 0.930 . S
H1167 C1163 0.930 . S
C1168 N1169 1.314 . S
C1168 C1170 1.353 . S
C1168 H1174 0.930 . S
N1169 Li1145 1.990 . S
N1169 C1168 1.314 . S
N1169 C1172 1.279 . S
C1170 C1168 1.353 . S
C1170 C1173 1.348 . S
C1170 H1218 0.929 . S
C1171 C1172 1.358 . S
C1171 C1173 1.356 . S
C1171 H1219 0.930 . S
C1172 N1169 1.279 . S
C1172 C1171 1.358 . S
C1172 H1175 0.930 . S
C1173 C1170 1.348 . S
C1173 C1171 1.356 . S
H1174 C1168 0.930 . S
H1175 C1172 0.930 . S
C1176 C1178 1.348 . S
C1176 C1179 1.356 . S
C1176 O1206 1.325 . S
N1177 C1180 1.314 . S
N1177 C1181 1.279 . S
C1178 C1176 1.348 . S
C1178 C1180 1.353 . S
C1178 H1220 0.929 . S
C1179 C1176 1.356 . S
C1179 C1181 1.358 . S
C1179 H1221 0.930 . S
C1180 N1177 1.314 . S
C1180 C1178 1.353 . S
C1180 H1222 0.930 . S
C1181 N1177 1.279 . S
C1181 C1179 1.358 . S
C1181 H1223 0.930 . S
C1182 C1183 1.348 . S
C1182 C1184 1.356 . S
C1182 O1207 1.325 . S
C1183 C1182 1.348 . S
C1183 C1185 1.353 . S
C1183 H1224 0.929 . S
C1184 C1182 1.356 . S
C1184 C1186 1.358 . S
C1184 H1225 0.930 . S
C1185 C1183 1.353 . S
C1185 N1187 1.314 . S
C1185 H1226 0.930 . S
C1186 C1184 1.358 . S
C1186 N1187 1.279 . S
C1186 H1227 0.930 . S
N1187 C1185 1.314 . S
N1187 C1186 1.279 . S
C1188 C1190 1.353 . S
C1188 N1191 1.314 . S
C1188 H1194 0.930 . S
C1189 N1191 1.279 . S
C1189 C1192 1.358 . S
C1189 H1195 0.930 . S
C1190 C1188 1.353 . S
C1190 C1193 1.348 . S
C1190 H1228 0.929 . S
N1191 Li1146 1.990 . S
N1191 C1188 1.314 . S
N1191 C1189 1.279 . S
C1192 C1189 1.358 . S
C1192 C1193 1.356 . S
C1192 H1229 0.930 . S
C1193 C1190 1.348 . S
C1193 C1192 1.356 . S
H1194 C1188 0.930 . S
H1195 C1189 0.930 . S
C1196 N1197 1.314 . S
C1196 C1198 1.353 . S
C1196 H1202 0.930 . S
N1197 Li1147 1.990 . S
N1197 C1196 1.314 . S
N1197 C1200 1.279 . S
C1198 C1196 1.353 . S
C1198 C1201 1.348 . S
C1198 H1230 0.929 . S
C1199 C1200 1.358 . S
C1199 C1201 1.356 . S
C1199 H1231 0.930 . S
C1200 N1197 1.279 . S
C1200 C1199 1.358 . S
C1200 H1203 0.930 . S
C1201 C1198 1.348 . S
C1201 C1199 1.356 . S
H1202 C1196 0.930 . S
H1203 C1200 0.930 . S
O1204 Li1144 1.956 . S
O1204 Li1145 1.970 . S
O1204 Li1146 1.961 . S
O1204 C1148 1.325 1_655 S
O1205 Li1144 1.970 . S
O1205 Li1145 1.956 . S
O1205 Li1147 1.961 . S
O1205 C1154 1.325 . S
O1206 Li1144 1.961 . S
O1206 Li1146 1.956 . S
O1206 Li1147 1.970 . S
O1206 C1176 1.325 . S
O1207 Li1145 1.961 . S
O1207 Li1146 1.970 . S
O1207 Li1147 1.956 . S
O1207 C1182 1.325 . S
H1208 C1150 0.929 . S
H1209 C1151 0.930 . S
H1210 C1152 0.930 . S
H1211 C1153 0.930 . S
H1212 C1155 0.930 . S
H1213 C1157 0.929 . S
H1214 C1158 0.930 . S
H1215 C1159 0.930 . S
H1216 C1162 0.930 . S
H1217 C1165 0.929 . S
H1218 C1170 0.929 . S
H1219 C1171 0.930 . S
H1220 C1178 0.929 . S
H1221 C1179 0.930 . S
H1222 C1180 0.930 . S
H1223 C1181 0.930 . S
H1224 C1183 0.929 . S
H1225 C1184 0.930 . S
H1226 C1185 0.930 . S
H1227 C1186 0.930 . S
H1228 C1190 0.929 . S
H1229 C1192 0.930 . S
H1230 C1198 0.929 . S
H1231 C1199 0.930 . S
Li1232 N1249 1.990 . S
Li1232 O1292 1.956 . S
Li1232 O1293 1.970 . S
Li1232 O1294 1.961 . S
Li1233 N1257 1.990 . S
Li1233 O1292 1.970 . S
Li1233 O1293 1.956 . S
Li1233 O1295 1.961 . S
Li1234 N1279 1.990 . S
Li1234 O1292 1.961 . S
Li1234 O1294 1.956 . S
Li1234 O1295 1.970 . S
Li1235 N1285 1.990 . S
Li1235 O1293 1.961 . S
Li1235 O1294 1.970 . S
Li1235 O1295 1.956 . S
C1236 C1238 1.348 . S
C1236 C1239 1.356 . S
C1236 O1292 1.325 . S
N1237 C1240 1.314 . S
N1237 C1241 1.279 . S
C1238 C1236 1.348 . S
C1238 C1240 1.353 . S
C1238 H1296 0.929 . S
C1239 C1236 1.356 . S
C1239 C1241 1.358 . S
C1239 H1297 0.930 . S
C1240 N1237 1.314 . S
C1240 C1238 1.353 . S
C1240 H1298 0.930 . S
C1241 N1237 1.279 . S
C1241 C1239 1.358 . S
C1241 H1299 0.930 . S
C1242 C1245 1.348 . S
C1242 C1246 1.356 . S
C1242 O1293 1.325 . S
C1243 N1244 1.279 . S
C1243 C1246 1.358 . S
C1243 H1300 0.930 . S
N1244 C1243 1.279 . S
N1244 C1247 1.314 . S
C1245 C1242 1.348 . S
C1245 C1247 1.353 . S
C1245 H1301 0.929 . S
C1246 C1242 1.356 . S
C1246 C1243 1.358 . S
C1246 H1302 0.930 . S
C1247 N1244 1.314 . S
C1247 C1245 1.353 . S
C1247 H1303 0.930 . S
C1248 N1249 1.314 . S
C1248 C1253 1.353 . S
C1248 H1254 0.930 . S
N1249 Li1232 1.990 . S
N1249 C1248 1.314 . S
N1249 C1251 1.279 . S
C1250 C1251 1.358 . S
C1250 C1252 1.356 . S
C1250 H1304 0.930 . S
C1251 N1249 1.279 . S
C1251 C1250 1.358 . S
C1251 H1255 0.930 . S
C1252 C1250 1.356 . S
C1252 C1253 1.348 . S
C1253 C1248 1.353 . S
C1253 C1252 1.348 . S
C1253 H1305 0.929 . S
H1254 C1248 0.930 . S
H1255 C1251 0.930 . S
C1256 N1257 1.314 . S
C1256 C1258 1.353 . S
C1256 H1262 0.930 . S
N1257 Li1233 1.990 . S
N1257 C1256 1.314 . S
N1257 C1260 1.279 . S
C1258 C1256 1.353 . S
C1258 C1261 1.348 . S
C1258 H1306 0.929 . S
C1259 C1260 1.358 . S
C1259 C1261 1.356 . S
C1259 H1307 0.930 . S
C1260 N1257 1.279 . S
C1260 C1259 1.358 . S
C1260 H1263 0.930 . S
C1261 C1258 1.348 . S
C1261 C1259 1.356 . S
H1262 C1256 0.930 . S
H1263 C1260 0.930 . S
C1264 C1266 1.348 . S
C1264 C1267 1.356 . S
C1264 O1294 1.325 . S
N1265 C1268 1.314 . S
N1265 C1269 1.279 . S
C1266 C1264 1.348 . S
C1266 C1268 1.353 . S
C1266 H1308 0.929 . S
C1267 C1264 1.356 . S
C1267 C1269 1.358 . S
C1267 H1309 0.930 . S
C1268 N1265 1.314 . S
C1268 C1266 1.353 . S
C1268 H1310 0.930 . S
C1269 N1265 1.279 . S
C1269 C1267 1.358 . S
C1269 H1311 0.930 . S
C1270 C1271 1.348 . S
C1270 C1272 1.356 . S
C1270 O1295 1.325 . S
C1271 C1270 1.348 . S
C1271 C1273 1.353 . S
C1271 H1312 0.929 . S
C1272 C1270 1.356 . S
C1272 C1274 1.358 . S
C1272 H1313 0.930 . S
C1273 C1271 1.353 . S
C1273 N1275 1.314 . S
C1273 H1314 0.930 . S
C1274 C1272 1.358 . S
C1274 N1275 1.279 . S
C1274 H1315 0.930 . S
N1275 C1273 1.314 . S
N1275 C1274 1.279 . S
C1276 C1278 1.353 . S
C1276 N1279 1.314 . S
C1276 H1282 0.930 . S
C1277 N1279 1.279 . S
C1277 C1280 1.358 . S
C1277 H1283 0.930 . S
C1278 C1276 1.353 . S
C1278 C1281 1.348 . S
C1278 H1316 0.929 . S
N1279 Li1234 1.990 . S
N1279 C1276 1.314 . S
N1279 C1277 1.279 . S
C1280 C1277 1.358 . S
C1280 C1281 1.356 . S
C1280 H1317 0.930 . S
C1281 C1278 1.348 . S
C1281 C1280 1.356 . S
H1282 C1276 0.930 . S
H1283 C1277 0.930 . S
C1284 N1285 1.314 . S
C1284 C1286 1.353 . S
C1284 H1290 0.930 . S
N1285 Li1235 1.990 . S
N1285 C1284 1.314 . S
N1285 C1288 1.279 . S
C1286 C1284 1.353 . S
C1286 C1289 1.348 . S
C1286 H1318 0.929 . S
C1287 C1288 1.358 . S
C1287 C1289 1.356 . S
C1287 H1319 0.930 . S
C1288 N1285 1.279 . S
C1288 C1287 1.358 . S
C1288 H1291 0.930 . S
C1289 C1286 1.348 . S
C1289 C1287 1.356 . S
H1290 C1284 0.930 . S
H1291 C1288 0.930 . S
O1292 Li1232 1.956 . S
O1292 Li1233 1.970 . S
O1292 Li1234 1.961 . S
O1292 C1236 1.325 . S
O1293 Li1232 1.970 . S
O1293 Li1233 1.956 . S
O1293 Li1235 1.961 . S
O1293 C1242 1.325 . S
O1294 Li1232 1.961 . S
O1294 Li1234 1.956 . S
O1294 Li1235 1.970 . S
O1294 C1264 1.325 . S
O1295 Li1233 1.961 . S
O1295 Li1234 1.970 . S
O1295 Li1235 1.956 . S
O1295 C1270 1.325 . S
H1296 C1238 0.929 . S
H1297 C1239 0.930 . S
H1298 C1240 0.930 . S
H1299 C1241 0.930 . S
H1300 C1243 0.930 . S
H1301 C1245 0.929 . S
H1302 C1246 0.930 . S
H1303 C1247 0.930 . S
H1304 C1250 0.930 . S
H1305 C1253 0.929 . S
H1306 C1258 0.929 . S
H1307 C1259 0.930 . S
H1308 C1266 0.929 . S
H1309 C1267 0.930 . S
H1310 C1268 0.930 . S
H1311 C1269 0.930 . S
H1312 C1271 0.929 . S
H1313 C1272 0.930 . S
H1314 C1273 0.930 . S
H1315 C1274 0.930 . S
H1316 C1278 0.929 . S
H1317 C1280 0.930 . S
H1318 C1286 0.929 . S
H1319 C1287 0.930 . S
Li1320 N1337 1.990 . S
Li1320 O1380 1.956 . S
Li1320 O1381 1.970 . S
Li1320 O1382 1.961 . S
Li1321 N1345 1.990 . S
Li1321 O1380 1.970 . S
Li1321 O1381 1.956 . S
Li1321 O1383 1.961 . S
Li1322 N1367 1.990 . S
Li1322 O1380 1.961 . S
Li1322 O1382 1.956 . S
Li1322 O1383 1.970 . S
Li1323 N1373 1.990 . S
Li1323 O1381 1.961 . S
Li1323 O1382 1.970 . S
Li1323 O1383 1.956 . S
C1324 C1326 1.348 . S
C1324 C1327 1.356 . S
C1324 O1380 1.325 . S
N1325 C1328 1.314 . S
N1325 C1329 1.279 . S
C1326 C1324 1.348 . S
C1326 C1328 1.353 . S
C1326 H1384 0.929 . S
C1327 C1324 1.356 . S
C1327 C1329 1.358 . S
C1327 H1385 0.930 . S
C1328 N1325 1.314 . S
C1328 C1326 1.353 . S
C1328 H1386 0.930 . S
C1329 N1325 1.279 . S
C1329 C1327 1.358 . S
C1329 H1387 0.930 . S
C1330 C1333 1.348 . S
C1330 C1334 1.356 . S
C1330 O1381 1.325 . S
C1331 N1332 1.279 . S
C1331 C1334 1.358 . S
C1331 H1388 0.930 . S
N1332 C1331 1.279 . S
N1332 C1335 1.314 . S
C1333 C1330 1.348 . S
C1333 C1335 1.353 . S
C1333 H1389 0.929 . S
C1334 C1330 1.356 . S
C1334 C1331 1.358 . S
C1334 H1390 0.930 . S
C1335 N1332 1.314 . S
C1335 C1333 1.353 . S
C1335 H1391 0.930 . S
C1336 N1337 1.314 . S
C1336 C1341 1.353 . S
C1336 H1342 0.930 . S
N1337 Li1320 1.990 . S
N1337 C1336 1.314 . S
N1337 C1339 1.279 . S
C1338 C1339 1.358 . S
C1338 C1340 1.356 . S
C1338 H1392 0.930 . S
C1339 N1337 1.279 . S
C1339 C1338 1.358 . S
C1339 H1343 0.930 . S
C1340 C1338 1.356 . S
C1340 C1341 1.348 . S
C1341 C1336 1.353 . S
C1341 C1340 1.348 . S
C1341 H1393 0.929 . S
H1342 C1336 0.930 . S
H1343 C1339 0.930 . S
C1344 N1345 1.314 . S
C1344 C1346 1.353 . S
C1344 H1350 0.930 . S
N1345 Li1321 1.990 . S
N1345 C1344 1.314 . S
N1345 C1348 1.279 . S
C1346 C1344 1.353 . S
C1346 C1349 1.348 . S
C1346 H1394 0.929 . S
C1347 C1348 1.358 . S
C1347 C1349 1.356 . S
C1347 H1395 0.930 . S
C1348 N1345 1.279 . S
C1348 C1347 1.358 . S
C1348 H1351 0.930 . S
C1349 C1346 1.348 . S
C1349 C1347 1.356 . S
H1350 C1344 0.930 . S
H1351 C1348 0.930 . S
C1352 C1354 1.348 . S
C1352 C1355 1.356 . S
C1352 O1382 1.325 . S
N1353 C1356 1.314 . S
N1353 C1357 1.279 . S
C1354 C1352 1.348 . S
C1354 C1356 1.353 . S
C1354 H1396 0.929 . S
C1355 C1352 1.356 . S
C1355 C1357 1.358 . S
C1355 H1397 0.930 . S
C1356 N1353 1.314 . S
C1356 C1354 1.353 . S
C1356 H1398 0.930 . S
C1357 N1353 1.279 . S
C1357 C1355 1.358 . S
C1357 H1399 0.930 . S
C1358 C1359 1.348 . S
C1358 C1360 1.356 . S
C1358 O1383 1.325 . S
C1359 C1358 1.348 . S
C1359 C1361 1.353 . S
C1359 H1400 0.929 . S
C1360 C1358 1.356 . S
C1360 C1362 1.358 . S
C1360 H1401 0.930 . S
C1361 C1359 1.353 . S
C1361 N1363 1.314 . S
C1361 H1402 0.930 . S
C1362 C1360 1.358 . S
C1362 N1363 1.279 . S
C1362 H1403 0.930 . S
N1363 C1361 1.314 . S
N1363 C1362 1.279 . S
C1364 C1366 1.353 . S
C1364 N1367 1.314 . S
C1364 H1370 0.930 . S
C1365 N1367 1.279 . S
C1365 C1368 1.358 . S
C1365 H1371 0.930 . S
C1366 C1364 1.353 . S
C1366 C1369 1.348 . S
C1366 H1404 0.929 . S
N1367 Li1322 1.990 . S
N1367 C1364 1.314 . S
N1367 C1365 1.279 . S
C1368 C1365 1.358 . S
C1368 C1369 1.356 . S
C1368 H1405 0.930 . S
C1369 C1366 1.348 . S
C1369 C1368 1.356 . S
H1370 C1364 0.930 . S
H1371 C1365 0.930 . S
C1372 N1373 1.314 . S
C1372 C1374 1.353 . S
C1372 H1378 0.930 . S
N1373 Li1323 1.990 . S
N1373 C1372 1.314 . S
N1373 C1376 1.279 . S
C1374 C1372 1.353 . S
C1374 C1377 1.348 . S
C1374 H1406 0.929 . S
C1375 C1376 1.358 . S
C1375 C1377 1.356 . S
C1375 H1407 0.930 . S
C1376 N1373 1.279 . S
C1376 C1375 1.358 . S
C1376 H1379 0.930 . S
C1377 C1374 1.348 . S
C1377 C1375 1.356 . S
H1378 C1372 0.930 . S
H1379 C1376 0.930 . S
O1380 Li1320 1.956 . S
O1380 Li1321 1.970 . S
O1380 Li1322 1.961 . S
O1380 C1324 1.325 . S
O1381 Li1320 1.970 . S
O1381 Li1321 1.956 . S
O1381 Li1323 1.961 . S
O1381 C1330 1.325 . S
O1382 Li1320 1.961 . S
O1382 Li1322 1.956 . S
O1382 Li1323 1.970 . S
O1382 C1352 1.325 . S
O1383 Li1321 1.961 . S
O1383 Li1322 1.970 . S
O1383 Li1323 1.956 . S
O1383 C1358 1.325 . S
H1384 C1326 0.929 . S
H1385 C1327 0.930 . S
H1386 C1328 0.930 . S
H1387 C1329 0.930 . S
H1388 C1331 0.930 . S
H1389 C1333 0.929 . S
H1390 C1334 0.930 . S
H1391 C1335 0.930 . S
H1392 C1338 0.930 . S
H1393 C1341 0.929 . S
H1394 C1346 0.929 . S
H1395 C1347 0.930 . S
H1396 C1354 0.929 . S
H1397 C1355 0.930 . S
H1398 C1356 0.930 . S
H1399 C1357 0.930 . S
H1400 C1359 0.929 . S
H1401 C1360 0.930 . S
H1402 C1361 0.930 . S
H1403 C1362 0.930 . S
H1404 C1366 0.929 . S
H1405 C1368 0.930 . S
H1406 C1374 0.929 . S
H1407 C1375 0.930 . S
Li1408 N1425 1.990 . S
Li1408 O1468 1.956 . S
Li1408 O1469 1.970 . S
Li1408 O1470 1.961 . S
Li1409 N1433 1.990 . S
Li1409 O1468 1.970 . S
Li1409 O1469 1.956 . S
Li1409 O1471 1.961 . S
Li1410 N1455 1.990 . S
Li1410 O1468 1.961 . S
Li1410 O1470 1.956 . S
Li1410 O1471 1.970 . S
Li1411 N1461 1.990 1_545 S
Li1411 O1469 1.961 . S
Li1411 O1470 1.970 . S
Li1411 O1471 1.956 . S
C1412 C1414 1.348 . S
C1412 C1415 1.356 . S
C1412 O1468 1.325 . S
N1413 C1416 1.314 . S
N1413 C1417 1.279 . S
C1414 C1412 1.348 . S
C1414 C1416 1.353 . S
C1414 H1472 0.929 . S
C1415 C1412 1.356 . S
C1415 C1417 1.358 . S
C1415 H1473 0.930 . S
C1416 N1413 1.314 . S
C1416 C1414 1.353 . S
C1416 H1474 0.930 . S
C1417 N1413 1.279 . S
C1417 C1415 1.358 . S
C1417 H1475 0.930 . S
C1418 C1421 1.348 . S
C1418 C1422 1.356 . S
C1418 O1469 1.325 1_565 S
C1419 N1420 1.279 . S
C1419 C1422 1.358 . S
C1419 H1476 0.930 . S
N1420 C1419 1.279 . S
N1420 C1423 1.314 . S
C1421 C1418 1.348 . S
C1421 C1423 1.353 . S
C1421 H1477 0.929 1_565 S
C1422 C1418 1.356 . S
C1422 C1419 1.358 . S
C1422 H1478 0.930 . S
C1423 N1420 1.314 . S
C1423 C1421 1.353 . S
C1423 H1479 0.930 . S
C1424 N1425 1.314 . S
C1424 C1429 1.353 . S
C1424 H1430 0.930 1_545 S
N1425 Li1408 1.990 . S
N1425 C1424 1.314 . S
N1425 C1427 1.279 . S
C1426 C1427 1.358 . S
C1426 C1428 1.356 . S
C1426 H1480 0.930 . S
C1427 N1425 1.279 . S
C1427 C1426 1.358 . S
C1427 H1431 0.930 . S
C1428 C1426 1.356 . S
C1428 C1429 1.348 . S
C1429 C1424 1.353 . S
C1429 C1428 1.348 . S
C1429 H1481 0.929 1_545 S
H1430 C1424 0.930 1_565 S
H1431 C1427 0.930 . S
C1432 N1433 1.314 . S
C1432 C1434 1.353 . S
C1432 H1438 0.930 . S
N1433 Li1409 1.990 . S
N1433 C1432 1.314 . S
N1433 C1436 1.279 . S
C1434 C1432 1.353 . S
C1434 C1437 1.348 . S
C1434 H1482 0.929 . S
C1435 C1436 1.358 . S
C1435 C1437 1.356 . S
C1435 H1483 0.930 . S
C1436 N1433 1.279 . S
C1436 C1435 1.358 . S
C1436 H1439 0.930 . S
C1437 C1434 1.348 . S
C1437 C1435 1.356 . S
H1438 C1432 0.930 . S
H1439 C1436 0.930 . S
C1440 C1442 1.348 1_545 S
C1440 C1443 1.356 . S
C1440 O1470 1.325 . S
N1441 C1444 1.314 . S
N1441 C1445 1.279 1_565 S
C1442 C1440 1.348 1_565 S
C1442 C1444 1.353 . S
C1442 H1484 0.929 . S
C1443 C1440 1.356 . S
C1443 C1445 1.358 . S
C1443 H1485 0.930 . S
C1444 N1441 1.314 . S
C1444 C1442 1.353 . S
C1444 H1486 0.930 . S
C1445 N1441 1.279 1_545 S
C1445 C1443 1.358 . S
C1445 H1487 0.930 . S
C1446 C1447 1.348 . S
C1446 C1448 1.356 . S
C1446 O1471 1.325 . S
C1447 C1446 1.348 . S
C1447 C1449 1.353 . S
C1447 H1488 0.929 . S
C1448 C1446 1.356 . S
C1448 C1450 1.358 . S
C1448 H1489 0.930 . S
C1449 C1447 1.353 . S
C1449 N1451 1.314 . S
C1449 H1490 0.930 . S
C1450 C1448 1.358 . S
C1450 N1451 1.279 . S
C1450 H1491 0.930 . S
N1451 C1449 1.314 . S
N1451 C1450 1.279 . S
C1452 C1454 1.353 . S
C1452 N1455 1.314 . S
C1452 H1458 0.930 . S
C1453 N1455 1.279 . S
C1453 C1456 1.358 . S
C1453 H1459 0.930 . S
C1454 C1452 1.353 . S
C1454 C1457 1.348 . S
C1454 H1492 0.929 . S
N1455 Li1410 1.990 . S
N1455 C1452 1.314 . S
N1455 C1453 1.279 . S
C1456 C1453 1.358 . S
C1456 C1457 1.356 . S
C1456 H1493 0.930 . S
C1457 C1454 1.348 . S
C1457 C1456 1.356 . S
H1458 C1452 0.930 . S
H1459 C1453 0.930 . S
C1460 N1461 1.314 . S
C1460 C1462 1.353 . S
C1460 H1466 0.930 . S
N1461 Li1411 1.990 1_565 S
N1461 C1460 1.314 . S
N1461 C1464 1.279 . S
C1462 C1460 1.353 . S
C1462 C1465 1.348 . S
C1462 H1494 0.929 . S
C1463 C1464 1.358 . S
C1463 C1465 1.356 . S
C1463 H1495 0.930 . S
C1464 N1461 1.279 . S
C1464 C1463 1.358 . S
C1464 H1467 0.930 . S
C1465 C1462 1.348 . S
C1465 C1463 1.356 . S
H1466 C1460 0.930 . S
H1467 C1464 0.930 . S
O1468 Li1408 1.956 . S
O1468 Li1409 1.970 . S
O1468 Li1410 1.961 . S
O1468 C1412 1.325 . S
O1469 Li1408 1.970 . S
O1469 Li1409 1.956 . S
O1469 Li1411 1.961 . S
O1469 C1418 1.325 1_545 S
O1470 Li1408 1.961 . S
O1470 Li1410 1.956 . S
O1470 Li1411 1.970 . S
O1470 C1440 1.325 . S
O1471 Li1409 1.961 . S
O1471 Li1410 1.970 . S
O1471 Li1411 1.956 . S
O1471 C1446 1.325 . S
H1472 C1414 0.929 . S
H1473 C1415 0.930 . S
H1474 C1416 0.930 . S
H1475 C1417 0.930 . S
H1476 C1419 0.930 . S
H1477 C1421 0.929 1_545 S
H1478 C1422 0.930 . S
H1479 C1423 0.930 . S
H1480 C1426 0.930 . S
H1481 C1429 0.929 1_565 S
H1482 C1434 0.929 . S
H1483 C1435 0.930 . S
H1484 C1442 0.929 . S
H1485 C1443 0.930 . S
H1486 C1444 0.930 . S
H1487 C1445 0.930 . S
H1488 C1447 0.929 . S
H1489 C1448 0.930 . S
H1490 C1449 0.930 . S
H1491 C1450 0.930 . S
H1492 C1454 0.929 . S
H1493 C1456 0.930 . S
H1494 C1462 0.929 . S
H1495 C1463 0.930 . S
Li1496 N1513 1.990 . S
Li1496 O1556 1.956 . S
Li1496 O1557 1.970 . S
Li1496 O1558 1.961 . S
Li1497 N1521 1.990 . S
Li1497 O1556 1.970 . S
Li1497 O1557 1.956 . S
Li1497 O1559 1.961 . S
Li1498 N1543 1.990 1_655 S
Li1498 O1556 1.961 . S
Li1498 O1558 1.956 . S
Li1498 O1559 1.970 . S
Li1499 N1549 1.990 . S
Li1499 O1557 1.961 . S
Li1499 O1558 1.970 . S
Li1499 O1559 1.956 . S
C1500 C1502 1.348 . S
C1500 C1503 1.356 . S
C1500 O1556 1.325 1_455 S
N1501 C1504 1.314 . S
N1501 C1505 1.279 . S
C1502 C1500 1.348 . S
C1502 C1504 1.353 . S
C1502 H1560 0.929 1_455 S
C1503 C1500 1.356 . S
C1503 C1505 1.358 . S
C1503 H1561 0.930 . S
C1504 N1501 1.314 . S
C1504 C1502 1.353 . S
C1504 H1562 0.930 . S
C1505 N1501 1.279 . S
C1505 C1503 1.358 . S
C1505 H1563 0.930 . S
C1506 C1509 1.348 . S
C1506 C1510 1.356 . S
C1506 O1557 1.325 . S
C1507 N1508 1.279 . S
C1507 C1510 1.358 . S
C1507 H1564 0.930 . S
N1508 C1507 1.279 . S
N1508 C1511 1.314 . S
C1509 C1506 1.348 . S
C1509 C1511 1.353 . S
C1509 H1565 0.929 . S
C1510 C1506 1.356 . S
C1510 C1507 1.358 . S
C1510 H1566 0.930 . S
C1511 N1508 1.314 . S
C1511 C1509 1.353 . S
C1511 H1567 0.930 . S
C1512 N1513 1.314 . S
C1512 C1517 1.353 . S
C1512 H1518 0.930 . S
N1513 Li1496 1.990 . S
N1513 C1512 1.314 . S
N1513 C1515 1.279 . S
C1514 C1515 1.358 . S
C1514 C1516 1.356 . S
C1514 H1568 0.930 . S
C1515 N1513 1.279 . S
C1515 C1514 1.358 . S
C1515 H1519 0.930 . S
C1516 C1514 1.356 . S
C1516 C1517 1.348 . S
C1517 C1512 1.353 . S
C1517 C1516 1.348 . S
C1517 H1569 0.929 . S
H1518 C1512 0.930 . S
H1519 C1515 0.930 . S
C1520 N1521 1.314 . S
C1520 C1522 1.353 . S
C1520 H1526 0.930 1_655 S
N1521 Li1497 1.990 . S
N1521 C1520 1.314 . S
N1521 C1524 1.279 . S
C1522 C1520 1.353 . S
C1522 C1525 1.348 . S
C1522 H1570 0.929 1_655 S
C1523 C1524 1.358 . S
C1523 C1525 1.356 . S
C1523 H1571 0.930 . S
C1524 N1521 1.279 . S
C1524 C1523 1.358 . S
C1524 H1527 0.930 . S
C1525 C1522 1.348 . S
C1525 C1523 1.356 . S
H1526 C1520 0.930 1_455 S
H1527 C1524 0.930 . S
C1528 C1530 1.348 . S
C1528 C1531 1.356 . S
C1528 O1558 1.325 . S
N1529 C1532 1.314 . S
N1529 C1533 1.279 . S
C1530 C1528 1.348 . S
C1530 C1532 1.353 . S
C1530 H1572 0.929 . S
C1531 C1528 1.356 . S
C1531 C1533 1.358 . S
C1531 H1573 0.930 . S
C1532 N1529 1.314 . S
C1532 C1530 1.353 . S
C1532 H1574 0.930 . S
C1533 N1529 1.279 . S
C1533 C1531 1.358 . S
C1533 H1575 0.930 . S
C1534 C1535 1.348 1_655 S
C1534 C1536 1.356 . S
C1534 O1559 1.325 . S
C1535 C1534 1.348 1_455 S
C1535 C1537 1.353 . S
C1535 H1576 0.929 . S
C1536 C1534 1.356 . S
C1536 C1538 1.358 . S
C1536 H1577 0.930 . S
C1537 C1535 1.353 . S
C1537 N1539 1.314 . S
C1537 H1578 0.930 . S
C1538 C1536 1.358 . S
C1538 N1539 1.279 1_655 S
C1538 H1579 0.930 . S
N1539 C1537 1.314 . S
N1539 C1538 1.279 1_455 S
C1540 C1542 1.353 . S
C1540 N1543 1.314 . S
C1540 H1546 0.930 . S
C1541 N1543 1.279 . S
C1541 C1544 1.358 . S
C1541 H1547 0.930 . S
C1542 C1540 1.353 . S
C1542 C1545 1.348 . S
C1542 H1580 0.929 . S
N1543 Li1498 1.990 1_455 S
N1543 C1540 1.314 . S
N1543 C1541 1.279 . S
C1544 C1541 1.358 . S
C1544 C1545 1.356 . S
C1544 H1581 0.930 . S
C1545 C1542 1.348 . S
C1545 C1544 1.356 . S
H1546 C1540 0.930 . S
H1547 C1541 0.930 . S
C1548 N1549 1.314 . S
C1548 C1550 1.353 . S
C1548 H1554 0.930 . S
N1549 Li1499 1.990 . S
N1549 C1548 1.314 . S
N1549 C1552 1.279 . S
C1550 C1548 1.353 . S
C1550 C1553 1.348 . S
C1550 H1582 0.929 . S
C1551 C1552 1.358 . S
C1551 C1553 1.356 . S
C1551 H1583 0.930 . S
C1552 N1549 1.279 . S
C1552 C1551 1.358 . S
C1552 H1555 0.930 . S
C1553 C1550 1.348 . S
C1553 C1551 1.356 . S
H1554 C1548 0.930 . S
H1555 C1552 0.930 . S
O1556 Li1496 1.956 . S
O1556 Li1497 1.970 . S
O1556 Li1498 1.961 . S
O1556 C1500 1.325 1_655 S
O1557 Li1496 1.970 . S
O1557 Li1497 1.956 . S
O1557 Li1499 1.961 . S
O1557 C1506 1.325 . S
O1558 Li1496 1.961 . S
O1558 Li1498 1.956 . S
O1558 Li1499 1.970 . S
O1558 C1528 1.325 . S
O1559 Li1497 1.961 . S
O1559 Li1498 1.970 . S
O1559 Li1499 1.956 . S
O1559 C1534 1.325 . S
H1560 C1502 0.929 1_655 S
H1561 C1503 0.930 . S
H1562 C1504 0.930 . S
H1563 C1505 0.930 . S
H1564 C1507 0.930 . S
H1565 C1509 0.929 . S
H1566 C1510 0.930 . S
H1567 C1511 0.930 . S
H1568 C1514 0.930 . S
H1569 C1517 0.929 . S
H1570 C1522 0.929 1_455 S
H1571 C1523 0.930 . S
H1572 C1530 0.929 . S
H1573 C1531 0.930 . S
H1574 C1532 0.930 . S
H1575 C1533 0.930 . S
H1576 C1535 0.929 . S
H1577 C1536 0.930 . S
H1578 C1537 0.930 . S
H1579 C1538 0.930 . S
H1580 C1542 0.929 . S
H1581 C1544 0.930 . S
H1582 C1550 0.929 . S
H1583 C1551 0.930 . S
H1584 C1592 0.930 . S
H1585 C1595 0.930 . S
H1586 C1597 0.930 . S
H1587 C1598 0.970 . S
H1588 C1598 0.970 . S
H1589 C1600 0.930 . S
H1590 C1602 0.930 . S
H1591 C1604 0.930 . S
C1592 H1584 0.930 . S
C1592 C1593 1.382 . S
C1592 C1594 1.426 . S
C1593 C1592 1.382 . S
C1593 C1597 1.389 . S
C1594 C1592 1.426 . S
C1594 C1595 1.375 . S
C1594 C1598 1.532 . S
C1595 H1585 0.930 . S
C1595 C1594 1.375 . S
C1595 C1596 1.416 . S
C1596 C1595 1.416 . S
C1596 C1597 1.371 . S
C1597 H1586 0.930 . S
C1597 C1593 1.389 . S
C1597 C1596 1.371 . S
C1598 H1587 0.970 . S
C1598 H1588 0.970 . S
C1598 C1594 1.532 . S
C1598 C1599 1.499 . S
C1599 C1598 1.499 . S
C1599 C1600 1.370 . S
C1599 C1604 1.415 . S
C1600 H1589 0.930 . S
C1600 C1599 1.370 . S
C1600 C1601 1.407 . S
C1601 C1600 1.407 . S
C1601 C1602 1.365 . S
C1602 H1590 0.930 . S
C1602 C1601 1.365 . S
C1602 C1603 1.393 . S
C1603 C1602 1.393 . S
C1603 C1604 1.387 . S
C1604 H1591 0.930 . S
C1604 C1599 1.415 . S
C1604 C1603 1.387 . S
H1605 C1613 0.930 . S
H1606 C1616 0.930 . S
H1607 C1618 0.930 . S
H1608 C1619 0.970 . S
H1609 C1619 0.970 . S
H1610 C1621 0.930 . S
H1611 C1623 0.930 . S
H1612 C1625 0.930 . S
C1613 H1605 0.930 . S
C1613 C1614 1.382 . S
C1613 C1615 1.426 . S
C1614 C1613 1.382 . S
C1614 C1618 1.389 . S
C1615 C1613 1.426 . S
C1615 C1616 1.375 . S
C1615 C1619 1.532 . S
C1616 H1606 0.930 . S
C1616 C1615 1.375 . S
C1616 C1617 1.416 . S
C1617 C1616 1.416 . S
C1617 C1618 1.371 . S
C1618 H1607 0.930 . S
C1618 C1614 1.389 . S
C1618 C1617 1.371 . S
C1619 H1608 0.970 . S
C1619 H1609 0.970 . S
C1619 C1615 1.532 . S
C1619 C1620 1.499 . S
C1620 C1619 1.499 . S
C1620 C1621 1.370 . S
C1620 C1625 1.415 . S
C1621 H1610 0.930 . S
C1621 C1620 1.370 . S
C1621 C1622 1.407 . S
C1622 C1621 1.407 . S
C1622 C1623 1.365 . S
C1623 H1611 0.930 . S
C1623 C1622 1.365 . S
C1623 C1624 1.393 . S
C1624 C1623 1.393 . S
C1624 C1625 1.387 . S
C1625 H1612 0.930 . S
C1625 C1620 1.415 . S
C1625 C1624 1.387 . S
H1626 C1634 0.930 . S
H1627 C1637 0.930 . S
H1628 C1639 0.930 . S
H1629 C1640 0.970 . S
H1630 C1640 0.970 . S
H1631 C1642 0.930 . S
H1632 C1644 0.930 . S
H1633 C1646 0.930 . S
C1634 H1626 0.930 . S
C1634 C1635 1.382 . S
C1634 C1636 1.426 . S
C1635 C1634 1.382 . S
C1635 C1639 1.389 . S
C1636 C1634 1.426 . S
C1636 C1637 1.375 . S
C1636 C1640 1.532 . S
C1637 H1627 0.930 . S
C1637 C1636 1.375 . S
C1637 C1638 1.416 . S
C1638 C1637 1.416 . S
C1638 C1639 1.371 . S
C1639 H1628 0.930 . S
C1639 C1635 1.389 . S
C1639 C1638 1.371 . S
C1640 H1629 0.970 . S
C1640 H1630 0.970 . S
C1640 C1636 1.532 . S
C1640 C1641 1.499 . S
C1641 C1640 1.499 . S
C1641 C1642 1.370 . S
C1641 C1646 1.415 . S
C1642 H1631 0.930 . S
C1642 C1641 1.370 . S
C1642 C1643 1.407 . S
C1643 C1642 1.407 . S
C1643 C1644 1.365 . S
C1644 H1632 0.930 . S
C1644 C1643 1.365 . S
C1644 C1645 1.393 . S
C1645 C1644 1.393 . S
C1645 C1646 1.387 . S
C1646 H1633 0.930 . S
C1646 C1641 1.415 . S
C1646 C1645 1.387 . S
H1647 C1655 0.930 . S
H1648 C1658 0.930 . S
H1649 C1660 0.930 . S
H1650 C1661 0.970 . S
H1651 C1661 0.970 . S
H1652 C1663 0.930 . S
H1653 C1665 0.930 . S
H1654 C1667 0.930 . S
C1655 H1647 0.930 . S
C1655 C1656 1.382 . S
C1655 C1657 1.426 . S
C1656 C1655 1.382 . S
C1656 C1660 1.389 . S
C1657 C1655 1.426 . S
C1657 C1658 1.375 . S
C1657 C1661 1.532 . S
C1658 H1648 0.930 . S
C1658 C1657 1.375 . S
C1658 C1659 1.416 . S
C1659 C1658 1.416 . S
C1659 C1660 1.371 . S
C1660 H1649 0.930 . S
C1660 C1656 1.389 . S
C1660 C1659 1.371 . S
C1661 H1650 0.970 . S
C1661 H1651 0.970 . S
C1661 C1657 1.532 . S
C1661 C1662 1.499 . S
C1662 C1661 1.499 . S
C1662 C1663 1.370 . S
C1662 C1667 1.415 . S
C1663 H1652 0.930 . S
C1663 C1662 1.370 . S
C1663 C1664 1.407 . S
C1664 C1663 1.407 . S
C1664 C1665 1.365 . S
C1665 H1653 0.930 . S
C1665 C1664 1.365 . S
C1665 C1666 1.393 . S
C1666 C1665 1.393 . S
C1666 C1667 1.387 . S
C1667 H1654 0.930 . S
C1667 C1662 1.415 . S
C1667 C1666 1.387 . S
H1668 C1676 0.930 . S
H1669 C1679 0.930 . S
H1670 C1681 0.930 . S
H1671 C1682 0.970 . S
H1672 C1682 0.970 . S
H1673 C1684 0.930 . S
H1674 C1686 0.930 . S
H1675 C1688 0.930 . S
C1676 H1668 0.930 . S
C1676 C1677 1.382 . S
C1676 C1678 1.426 . S
C1677 C1676 1.382 . S
C1677 C1681 1.389 . S
C1678 C1676 1.426 . S
C1678 C1679 1.375 . S
C1678 C1682 1.532 . S
C1679 H1669 0.930 . S
C1679 C1678 1.375 . S
C1679 C1680 1.416 . S
C1680 C1679 1.416 . S
C1680 C1681 1.371 . S
C1681 H1670 0.930 . S
C1681 C1677 1.389 . S
C1681 C1680 1.371 . S
C1682 H1671 0.970 . S
C1682 H1672 0.970 . S
C1682 C1678 1.532 . S
C1682 C1683 1.499 . S
C1683 C1682 1.499 . S
C1683 C1684 1.370 . S
C1683 C1688 1.415 . S
C1684 H1673 0.930 . S
C1684 C1683 1.370 . S
C1684 C1685 1.407 . S
C1685 C1684 1.407 . S
C1685 C1686 1.365 . S
C1686 H1674 0.930 . S
C1686 C1685 1.365 . S
C1686 C1687 1.393 . S
C1687 C1686 1.393 . S
C1687 C1688 1.387 . S
C1688 H1675 0.930 . S
C1688 C1683 1.415 . S
C1688 C1687 1.387 . S
H1689 C1697 0.930 . S
H1690 C1700 0.930 . S
H1691 C1702 0.930 . S
H1692 C1703 0.970 . S
H1693 C1703 0.970 . S
H1694 C1705 0.930 . S
H1695 C1707 0.930 . S
H1696 C1709 0.930 . S
C1697 H1689 0.930 . S
C1697 C1698 1.382 . S
C1697 C1699 1.426 . S
C1698 C1697 1.382 . S
C1698 C1702 1.389 . S
C1699 C1697 1.426 . S
C1699 C1700 1.375 . S
C1699 C1703 1.532 . S
C1700 H1690 0.930 . S
C1700 C1699 1.375 . S
C1700 C1701 1.416 . S
C1701 C1700 1.416 . S
C1701 C1702 1.371 . S
C1702 H1691 0.930 . S
C1702 C1698 1.389 . S
C1702 C1701 1.371 . S
C1703 H1692 0.970 . S
C1703 H1693 0.970 . S
C1703 C1699 1.532 . S
C1703 C1704 1.499 . S
C1704 C1703 1.499 . S
C1704 C1705 1.370 . S
C1704 C1709 1.415 . S
C1705 H1694 0.930 . S
C1705 C1704 1.370 . S
C1705 C1706 1.407 . S
C1706 C1705 1.407 . S
C1706 C1707 1.365 . S
C1707 H1695 0.930 . S
C1707 C1706 1.365 . S
C1707 C1708 1.393 . S
C1708 C1707 1.393 . S
C1708 C1709 1.387 . S
C1709 H1696 0.930 . S
C1709 C1704 1.415 . S
C1709 C1708 1.387 . S
H1710 C1718 0.930 . S
H1711 C1721 0.930 . S
H1712 C1723 0.930 . S
H1713 C1724 0.970 . S
H1714 C1724 0.970 . S
H1715 C1726 0.930 . S
H1716 C1728 0.930 . S
H1717 C1730 0.930 . S
C1718 H1710 0.930 . S
C1718 C1719 1.382 . S
C1718 C1720 1.426 . S
C1719 C1718 1.382 . S
C1719 C1723 1.389 . S
C1720 C1718 1.426 . S
C1720 C1721 1.375 . S
C1720 C1724 1.532 . S
C1721 H1711 0.930 . S
C1721 C1720 1.375 . S
C1721 C1722 1.416 . S
C1722 C1721 1.416 . S
C1722 C1723 1.371 . S
C1723 H1712 0.930 . S
C1723 C1719 1.389 . S
C1723 C1722 1.371 . S
C1724 H1713 0.970 . S
C1724 H1714 0.970 . S
C1724 C1720 1.532 . S
C1724 C1725 1.499 . S
C1725 C1724 1.499 . S
C1725 C1726 1.370 . S
C1725 C1730 1.415 . S
C1726 H1715 0.930 . S
C1726 C1725 1.370 . S
C1726 C1727 1.407 . S
C1727 C1726 1.407 . S
C1727 C1728 1.365 . S
C1728 H1716 0.930 . S
C1728 C1727 1.365 . S
C1728 C1729 1.393 . S
C1729 C1728 1.393 . S
C1729 C1730 1.387 . S
C1730 H1717 0.930 . S
C1730 C1725 1.415 . S
C1730 C1729 1.387 . S
H1731 C1739 0.930 . S
H1732 C1742 0.930 . S
H1733 C1744 0.930 . S
H1734 C1745 0.970 . S
H1735 C1745 0.970 . S
H1736 C1747 0.930 . S
H1737 C1749 0.930 . S
H1738 C1751 0.930 . S
C1739 H1731 0.930 . S
C1739 C1740 1.382 . S
C1739 C1741 1.426 . S
C1740 C1739 1.382 . S
C1740 C1744 1.389 . S
C1741 C1739 1.426 . S
C1741 C1742 1.375 . S
C1741 C1745 1.532 . S
C1742 H1732 0.930 . S
C1742 C1741 1.375 . S
C1742 C1743 1.416 . S
C1743 C1742 1.416 . S
C1743 C1744 1.371 . S
C1744 H1733 0.930 . S
C1744 C1740 1.389 . S
C1744 C1743 1.371 . S
C1745 H1734 0.970 . S
C1745 H1735 0.970 . S
C1745 C1741 1.532 . S
C1745 C1746 1.499 . S
C1746 C1745 1.499 . S
C1746 C1747 1.370 . S
C1746 C1751 1.415 . S
C1747 H1736 0.930 . S
C1747 C1746 1.370 . S
C1747 C1748 1.407 . S
C1748 C1747 1.407 . S
C1748 C1749 1.365 . S
C1749 H1737 0.930 . S
C1749 C1748 1.365 . S
C1749 C1750 1.393 . S
C1750 C1749 1.393 . S
C1750 C1751 1.387 . S
C1751 H1738 0.930 . S
C1751 C1746 1.415 . S
C1751 C1750 1.387 . S
H1752 C1760 0.930 . S
H1753 C1763 0.930 . S
H1754 C1765 0.930 . S
H1755 C1766 0.970 . S
H1756 C1766 0.970 . S
H1757 C1768 0.930 . S
H1758 C1770 0.930 . S
H1759 C1772 0.930 . S
C1760 H1752 0.930 . S
C1760 C1761 1.382 . S
C1760 C1762 1.426 . S
C1761 C1760 1.382 . S
C1761 C1765 1.389 . S
C1762 C1760 1.426 . S
C1762 C1763 1.375 . S
C1762 C1766 1.532 . S
C1763 H1753 0.930 . S
C1763 C1762 1.375 . S
C1763 C1764 1.416 . S
C1764 C1763 1.416 . S
C1764 C1765 1.371 . S
C1765 H1754 0.930 . S
C1765 C1761 1.389 . S
C1765 C1764 1.371 . S
C1766 H1755 0.970 . S
C1766 H1756 0.970 . S
C1766 C1762 1.532 . S
C1766 C1767 1.499 . S
C1767 C1766 1.499 . S
C1767 C1768 1.370 . S
C1767 C1772 1.415 . S
C1768 H1757 0.930 . S
C1768 C1767 1.370 . S
C1768 C1769 1.407 . S
C1769 C1768 1.407 . S
C1769 C1770 1.365 . S
C1770 H1758 0.930 . S
C1770 C1769 1.365 . S
C1770 C1771 1.393 . S
C1771 C1770 1.393 . S
C1771 C1772 1.387 . S
C1772 H1759 0.930 . S
C1772 C1767 1.415 . S
C1772 C1771 1.387 . S
H1773 C1781 0.930 . S
H1774 C1784 0.930 . S
H1775 C1786 0.930 . S
H1776 C1787 0.970 . S
H1777 C1787 0.970 . S
H1778 C1789 0.930 . S
H1779 C1791 0.930 . S
H1780 C1793 0.930 . S
C1781 H1773 0.930 . S
C1781 C1782 1.382 . S
C1781 C1783 1.426 . S
C1782 C1781 1.382 . S
C1782 C1786 1.389 1_455 S
C1783 C1781 1.426 . S
C1783 C1784 1.375 . S
C1783 C1787 1.532 . S
C1784 H1774 0.930 . S
C1784 C1783 1.375 . S
C1784 C1785 1.416 . S
C1785 C1784 1.416 . S
C1785 C1786 1.371 1_455 S
C1786 H1775 0.930 . S
C1786 C1782 1.389 1_655 S
C1786 C1785 1.371 1_655 S
C1787 H1776 0.970 . S
C1787 H1777 0.970 . S
C1787 C1783 1.532 . S
C1787 C1788 1.499 . S
C1788 C1787 1.499 . S
C1788 C1789 1.370 . S
C1788 C1793 1.415 . S
C1789 H1778 0.930 . S
C1789 C1788 1.370 . S
C1789 C1790 1.409 . S
C1790 C1789 1.409 . S
C1790 C1791 1.368 1_455 S
C1791 H1779 0.930 . S
C1791 C1790 1.368 1_655 S
C1791 C1792 1.393 1_655 S
C1792 C1791 1.393 1_455 S
C1792 C1793 1.387 . S
C1793 H1780 0.930 . S
C1793 C1788 1.415 . S
C1793 C1792 1.387 . S
H1794 C1802 0.930 . S
H1795 C1805 0.930 . S
H1796 C1807 0.930 . S
H1797 C1808 0.970 . S
H1798 C1808 0.970 . S
H1799 C1810 0.930 . S
H1800 C1812 0.930 . S
H1801 C1814 0.930 . S
C1802 H1794 0.930 . S
C1802 C1803 1.382 . S
C1802 C1804 1.426 . S
C1803 C1802 1.382 . S
C1803 C1807 1.389 . S
C1804 C1802 1.426 . S
C1804 C1805 1.375 . S
C1804 C1808 1.532 . S
C1805 H1795 0.930 . S
C1805 C1804 1.375 . S
C1805 C1806 1.416 . S
C1806 C1805 1.416 . S
C1806 C1807 1.371 . S
C1807 H1796 0.930 . S
C1807 C1803 1.389 . S
C1807 C1806 1.371 . S
C1808 H1797 0.970 . S
C1808 H1798 0.970 . S
C1808 C1804 1.532 . S
C1808 C1809 1.499 . S
C1809 C1808 1.499 . S
C1809 C1810 1.370 . S
C1809 C1814 1.415 . S
C1810 H1799 0.930 . S
C1810 C1809 1.370 . S
C1810 C1811 1.407 . S
C1811 C1810 1.407 . S
C1811 C1812 1.365 . S
C1812 H1800 0.930 . S
C1812 C1811 1.365 . S
C1812 C1813 1.393 . S
C1813 C1812 1.393 . S
C1813 C1814 1.387 . S
C1814 H1801 0.930 . S
C1814 C1809 1.415 . S
C1814 C1813 1.387 . S
H1815 C1823 0.930 . S
H1816 C1826 0.930 . S
H1817 C1828 0.930 . S
H1818 C1829 0.970 . S
H1819 C1829 0.970 . S
H1820 C1831 0.930 . S
H1821 C1833 0.930 . S
H1822 C1835 0.930 . S
C1823 H1815 0.930 . S
C1823 C1824 1.382 . S
C1823 C1825 1.426 . S
C1824 C1823 1.382 . S
C1824 C1828 1.389 1_565 S
C1825 C1823 1.426 . S
C1825 C1826 1.375 . S
C1825 C1829 1.532 . S
C1826 H1816 0.930 . S
C1826 C1825 1.375 . S
C1826 C1827 1.416 . S
C1827 C1826 1.416 . S
C1827 C1828 1.371 1_565 S
C1828 H1817 0.930 . S
C1828 C1824 1.389 1_545 S
C1828 C1827 1.371 1_545 S
C1829 H1818 0.970 . S
C1829 H1819 0.970 . S
C1829 C1825 1.532 . S
C1829 C1830 1.499 . S
C1830 C1829 1.499 . S
C1830 C1831 1.370 . S
C1830 C1835 1.415 . S
C1831 H1820 0.930 . S
C1831 C1830 1.370 . S
C1831 C1832 1.427 . S
C1832 C1831 1.427 . S
C1832 C1833 1.357 1_565 S
C1833 H1821 0.930 . S
C1833 C1832 1.357 1_545 S
C1833 C1834 1.393 1_545 S
C1834 C1833 1.393 1_565 S
C1834 C1835 1.387 . S
C1835 H1822 0.930 . S
C1835 C1830 1.415 . S
C1835 C1834 1.387 . S
H1836 C1844 0.930 . S
H1837 C1847 0.930 . S
H1838 C1849 0.930 . S
H1839 C1850 0.970 . S
H1840 C1850 0.970 . S
H1841 C1852 0.930 . S
H1842 C1854 0.930 . S
H1843 C1856 0.930 . S
C1844 H1836 0.930 . S
C1844 C1845 1.382 . S
C1844 C1846 1.426 . S
C1845 C1844 1.382 . S
C1845 C1849 1.389 1_565 S
C1846 C1844 1.426 . S
C1846 C1847 1.375 . S
C1846 C1850 1.532 . S
C1847 H1837 0.930 . S
C1847 C1846 1.375 . S
C1847 C1848 1.474 . S
C1848 C1847 1.474 . S
C1848 C1849 1.350 1_565 S
C1849 H1838 0.930 . S
C1849 C1845 1.389 1_545 S
C1849 C1848 1.350 1_545 S
C1850 H1839 0.970 . S
C1850 H1840 0.970 . S
C1850 C1846 1.532 . S
C1850 C1851 1.499 . S
C1851 C1850 1.499 . S
C1851 C1852 1.370 . S
C1851 C1856 1.415 . S
C1852 H1841 0.930 . S
C1852 C1851 1.370 . S
C1852 C1853 1.407 . S
C1853 C1852 1.407 . S
C1853 C1854 1.365 1_565 S
C1854 H1842 0.930 . S
C1854 C1853 1.365 1_545 S
C1854 C1855 1.393 1_545 S
C1855 C1854 1.393 1_565 S
C1855 C1856 1.387 . S
C1856 H1843 0.930 . S
C1856 C1851 1.415 . S
C1856 C1855 1.387 . S
H1857 C1865 0.930 . S
H1858 C1868 0.930 . S
H1859 C1870 0.930 . S
H1860 C1871 0.970 . S
H1861 C1871 0.970 . S
H1862 C1873 0.930 . S
H1863 C1875 0.930 . S
H1864 C1877 0.930 . S
C1865 H1857 0.930 . S
C1865 C1866 1.382 . S
C1865 C1867 1.426 . S
C1866 C1865 1.382 . S
C1866 C1870 1.389 1_455 S
C1867 C1865 1.426 . S
C1867 C1868 1.375 . S
C1867 C1871 1.532 . S
C1868 H1858 0.930 . S
C1868 C1867 1.375 . S
C1868 C1869 1.420 . S
C1869 C1868 1.420 . S
C1869 C1870 1.380 1_455 S
C1870 H1859 0.930 . S
C1870 C1866 1.389 1_655 S
C1870 C1869 1.380 1_655 S
C1871 H1860 0.970 . S
C1871 H1861 0.970 . S
C1871 C1867 1.532 . S
C1871 C1872 1.499 . S
C1872 C1871 1.499 . S
C1872 C1873 1.370 . S
C1872 C1877 1.415 . S
C1873 H1862 0.930 . S
C1873 C1872 1.370 . S
C1873 C1874 1.407 . S
C1874 C1873 1.407 . S
C1874 C1875 1.365 1_455 S
C1875 H1863 0.930 . S
C1875 C1874 1.365 1_655 S
C1875 C1876 1.393 1_655 S
C1876 C1875 1.393 1_455 S
C1876 C1877 1.387 . S
C1877 H1864 0.930 . S
C1877 C1872 1.415 . S
C1877 C1876 1.387 . S
H1878 C1886 0.930 . S
H1879 C1889 0.930 . S
H1880 C1891 0.930 . S
H1881 C1892 0.970 . S
H1882 C1892 0.970 . S
H1883 C1894 0.930 . S
H1884 C1896 0.930 . S
H1885 C1898 0.930 . S
C1886 H1878 0.930 . S
C1886 C1887 1.382 . S
C1886 C1888 1.426 . S
C1887 C1886 1.382 . S
C1887 C1891 1.389 . S
C1888 C1886 1.426 . S
C1888 C1889 1.375 . S
C1888 C1892 1.532 . S
C1889 H1879 0.930 . S
C1889 C1888 1.375 . S
C1889 C1890 1.416 . S
C1890 C1889 1.416 . S
C1890 C1891 1.371 . S
C1891 H1880 0.930 . S
C1891 C1887 1.389 . S
C1891 C1890 1.371 . S
C1892 H1881 0.970 . S
C1892 H1882 0.970 . S
C1892 C1888 1.532 . S
C1892 C1893 1.499 . S
C1893 C1892 1.499 . S
C1893 C1894 1.370 . S
C1893 C1898 1.415 . S
C1894 H1883 0.930 . S
C1894 C1893 1.370 . S
C1894 C1895 1.407 . S
C1895 C1894 1.407 . S
C1895 C1896 1.365 . S
C1896 H1884 0.930 . S
C1896 C1895 1.365 . S
C1896 C1897 1.393 . S
C1897 C1896 1.393 . S
C1897 C1898 1.387 . S
C1898 H1885 0.930 . S
C1898 C1893 1.415 . S
C1898 C1897 1.387 . S
H1899 C1907 0.930 . S
H1900 C1910 0.930 . S
H1901 C1912 0.930 . S
H1902 C1913 0.970 . S
H1903 C1913 0.970 . S
H1904 C1915 0.930 . S
H1905 C1917 0.930 . S
H1906 C1919 0.930 . S
C1907 H1899 0.930 . S
C1907 C1908 1.382 . S
C1907 C1909 1.426 . S
C1908 C1907 1.382 . S
C1908 C1912 1.389 . S
C1909 C1907 1.426 . S
C1909 C1910 1.375 . S
C1909 C1913 1.532 . S
C1910 H1900 0.930 . S
C1910 C1909 1.375 . S
C1910 C1911 1.416 . S
C1911 C1910 1.416 . S
C1911 C1912 1.371 . S
C1912 H1901 0.930 . S
C1912 C1908 1.389 . S
C1912 C1911 1.371 . S
C1913 H1902 0.970 . S
C1913 H1903 0.970 . S
C1913 C1909 1.532 . S
C1913 C1914 1.499 . S
C1914 C1913 1.499 . S
C1914 C1915 1.370 . S
C1914 C1919 1.415 . S
C1915 H1904 0.930 . S
C1915 C1914 1.370 . S
C1915 C1916 1.407 . S
C1916 C1915 1.407 . S
C1916 C1917 1.365 . S
C1917 H1905 0.930 . S
C1917 C1916 1.365 . S
C1917 C1918 1.393 . S
C1918 C1917 1.393 . S
C1918 C1919 1.387 . S
C1919 H1906 0.930 . S
C1919 C1914 1.415 . S
C1919 C1918 1.387 . S
H1920 C1928 0.930 . S
H1921 C1931 0.930 . S
H1922 C1933 0.930 . S
H1923 C1934 0.970 . S
H1924 C1934 0.970 . S
H1925 C1936 0.930 . S
H1926 C1938 0.930 . S
H1927 C1940 0.930 . S
C1928 H1920 0.930 . S
C1928 C1929 1.382 . S
C1928 C1930 1.426 . S
C1929 C1928 1.382 . S
C1929 C1933 1.389 . S
C1930 C1928 1.426 . S
C1930 C1931 1.375 . S
C1930 C1934 1.532 . S
C1931 H1921 0.930 . S
C1931 C1930 1.375 . S
C1931 C1932 1.416 . S
C1932 C1931 1.416 . S
C1932 C1933 1.371 . S
C1933 H1922 0.930 . S
C1933 C1929 1.389 . S
C1933 C1932 1.371 . S
C1934 H1923 0.970 . S
C1934 H1924 0.970 . S
C1934 C1930 1.532 . S
C1934 C1935 1.499 . S
C1935 C1934 1.499 . S
C1935 C1936 1.370 . S
C1935 C1940 1.415 . S
C1936 H1925 0.930 . S
C1936 C1935 1.370 . S
C1936 C1937 1.407 . S
C1937 C1936 1.407 . S
C1937 C1938 1.365 . S
C1938 H1926 0.930 . S
C1938 C1937 1.365 . S
C1938 C1939 1.393 . S
C1939 C1938 1.393 . S
C1939 C1940 1.387 . S
C1940 H1927 0.930 . S
C1940 C1935 1.415 . S
C1940 C1939 1.387 . S
H1941 C1949 0.930 . S
H1942 C1952 0.930 . S
H1943 C1954 0.930 . S
H1944 C1955 0.970 . S
H1945 C1955 0.970 . S
H1946 C1957 0.930 . S
H1947 C1959 0.930 . S
H1948 C1961 0.930 . S
C1949 H1941 0.930 . S
C1949 C1950 1.382 . S
C1949 C1951 1.426 . S
C1950 C1949 1.382 . S
C1950 C1954 1.389 . S
C1951 C1949 1.426 . S
C1951 C1952 1.375 . S
C1951 C1955 1.532 . S
C1952 H1942 0.930 . S
C1952 C1951 1.375 . S
C1952 C1953 1.416 . S
C1953 C1952 1.416 . S
C1953 C1954 1.371 . S
C1954 H1943 0.930 . S
C1954 C1950 1.389 . S
C1954 C1953 1.371 . S
C1955 H1944 0.970 . S
C1955 H1945 0.970 . S
C1955 C1951 1.532 . S
C1955 C1956 1.499 . S
C1956 C1955 1.499 . S
C1956 C1957 1.370 . S
C1956 C1961 1.415 . S
C1957 H1946 0.930 . S
C1957 C1956 1.370 . S
C1957 C1958 1.407 . S
C1958 C1957 1.407 . S
C1958 C1959 1.365 . S
C1959 H1947 0.930 . S
C1959 C1958 1.365 . S
C1959 C1960 1.393 . S
C1960 C1959 1.393 . S
C1960 C1961 1.387 . S
C1961 H1948 0.930 . S
C1961 C1956 1.415 . S
C1961 C1960 1.387 . S
H1962 C1970 0.950 . S
H1963 C1975 0.950 1_455 S
H1964 C1972 0.950 . S
H1965 C1974 0.950 1_455 S
H1966 C1976 0.950 . S
H1967 C1978 0.950 . S
H1968 C1980 0.950 . S
H1969 C1981 0.950 . S
C1970 H1962 0.950 . S
C1970 C1971 1.386 . S
C1970 C1972 1.391 . S
C1971 C1970 1.386 . S
C1971 C1975 1.393 . S
C1972 H1964 0.950 . S
C1972 C1970 1.391 . S
C1972 C1973 1.400 . S
C1973 C1972 1.400 . S
C1973 C1974 1.398 . S
C1973 C1979 1.491 . S
C1974 H1965 0.950 1_655 S
C1974 C1973 1.398 . S
C1974 C1975 1.391 . S
C1975 H1963 0.950 1_655 S
C1975 C1971 1.393 . S
C1975 C1974 1.391 . S
C1976 H1966 0.950 . S
C1976 C1977 1.386 1_455 S
C1976 C1978 1.391 . S
C1977 C1976 1.386 1_655 S
C1977 C1981 1.393 . S
C1978 H1967 0.950 . S
C1978 C1976 1.391 . S
C1978 C1979 1.400 1_455 S
C1979 C1973 1.491 . S
C1979 C1978 1.400 1_655 S
C1979 C1980 1.398 . S
C1980 H1968 0.950 . S
C1980 C1979 1.398 . S
C1980 C1981 1.391 . S
C1981 H1969 0.950 . S
C1981 C1977 1.393 . S
C1981 C1980 1.391 . S
H1982 C1990 0.950 . S
H1983 C1995 0.950 . S
H1984 C1992 0.950 . S
H1985 C1994 0.950 . S
H1986 C1996 0.950 . S
H1987 C1998 0.950 . S
H1988 C2000 0.950 . S
H1989 C2001 0.950 . S
C1990 H1982 0.950 . S
C1990 C1991 1.386 . S
C1990 C1992 1.391 . S
C1991 C1990 1.386 . S
C1991 C1995 1.393 . S
C1992 H1984 0.950 . S
C1992 C1990 1.391 . S
C1992 C1993 1.400 . S
C1993 C1992 1.400 . S
C1993 C1994 1.398 . S
C1993 C1999 1.491 . S
C1994 H1985 0.950 . S
C1994 C1993 1.398 . S
C1994 C1995 1.391 . S
C1995 H1983 0.950 . S
C1995 C1991 1.393 . S
C1995 C1994 1.391 . S
C1996 H1986 0.950 . S
C1996 C1997 1.386 . S
C1996 C1998 1.391 . S
C1997 C1996 1.386 . S
C1997 C2001 1.393 . S
C1998 H1987 0.950 . S
C1998 C1996 1.391 . S
C1998 C1999 1.400 . S
C1999 C1993 1.491 . S
C1999 C1998 1.400 . S
C1999 C2000 1.398 . S
C2000 H1988 0.950 . S
C2000 C1999 1.398 . S
C2000 C2001 1.391 . S
C2001 H1989 0.950 . S
C2001 C1997 1.393 . S
C2001 C2000 1.391 . S
H2002 C2010 0.921 1_565 S
H2003 C2015 0.950 . S
H2004 C2012 0.950 1_565 S
H2005 C2014 0.950 . S
H2006 C2016 0.950 . S
H2007 C2018 0.950 . S
H2008 C2020 0.950 . S
H2009 C2021 0.950 . S
C2010 H2002 0.921 1_545 S
C2010 C2011 1.386 . S
C2010 C2012 1.391 . S
C2011 C2010 1.386 . S
C2011 C2015 1.393 . S
C2012 H2004 0.950 1_545 S
C2012 C2010 1.391 . S
C2012 C2013 1.400 . S
C2013 C2012 1.400 . S
C2013 C2014 1.398 . S
C2013 C2019 1.491 . S
C2014 H2005 0.950 . S
C2014 C2013 1.398 . S
C2014 C2015 1.391 . S
C2015 H2003 0.950 . S
C2015 C2011 1.393 . S
C2015 C2014 1.391 . S
C2016 H2006 0.950 . S
C2016 C2017 1.386 . S
C2016 C2018 1.391 . S
C2017 C2016 1.386 . S
C2017 C2021 1.393 1_545 S
C2018 H2007 0.950 . S
C2018 C2016 1.391 . S
C2018 C2019 1.400 . S
C2019 C2013 1.491 . S
C2019 C2018 1.400 . S
C2019 C2020 1.398 1_545 S
C2020 H2008 0.950 . S
C2020 C2019 1.398 1_565 S
C2020 C2021 1.391 . S
C2021 H2009 0.950 . S
C2021 C2017 1.393 1_565 S
C2021 C2020 1.391 . S
H2022 C2030 0.950 . S
H2023 C2035 0.950 . S
H2024 C2032 0.950 . S
H2025 C2034 0.950 . S
H2026 C2036 0.950 . S
H2027 C2038 0.901 1_545 S
H2028 C2040 0.950 . S
H2029 C2041 0.950 . S
C2030 H2022 0.950 . S
C2030 C2031 1.386 . S
C2030 C2032 1.391 . S
C2031 C2030 1.386 . S
C2031 C2035 1.393 . S
C2032 H2024 0.950 . S
C2032 C2030 1.391 . S
C2032 C2033 1.400 . S
C2033 C2032 1.400 . S
C2033 C2034 1.398 . S
C2033 C2039 1.491 . S
C2034 H2025 0.950 . S
C2034 C2033 1.398 . S
C2034 C2035 1.391 . S
C2035 H2023 0.950 . S
C2035 C2031 1.393 . S
C2035 C2034 1.391 . S
C2036 H2026 0.950 . S
C2036 C2037 1.386 1_545 S
C2036 C2038 1.415 1_545 S
C2037 C2036 1.386 1_565 S
C2037 C2041 1.393 . S
C2038 H2027 0.901 1_565 S
C2038 C2036 1.415 1_565 S
C2038 C2039 1.429 . S
C2039 C2033 1.491 . S
C2039 C2038 1.429 . S
C2039 C2040 1.398 . S
C2040 H2028 0.950 . S
C2040 C2039 1.398 . S
C2040 C2041 1.391 . S
C2041 H2029 0.950 . S
C2041 C2037 1.393 . S
C2041 C2040 1.391 . S
H2042 C2050 0.950 . S
H2043 C2055 0.950 1_655 S
H2044 C2052 0.950 . S
H2045 C2054 0.950 1_655 S
H2046 C2056 0.950 . S
H2047 C2058 0.971 . S
H2048 C2060 0.950 . S
H2049 C2061 0.950 . S
C2050 H2042 0.950 . S
C2050 C2051 1.386 . S
C2050 C2052 1.391 . S
C2051 C2050 1.386 . S
C2051 C2055 1.393 . S
C2052 H2044 0.950 . S
C2052 C2050 1.391 . S
C2052 C2053 1.400 . S
C2053 C2052 1.400 . S
C2053 C2054 1.398 . S
C2053 C2059 1.491 . S
C2054 H2045 0.950 1_455 S
C2054 C2053 1.398 . S
C2054 C2055 1.391 . S
C2055 H2043 0.950 1_455 S
C2055 C2051 1.393 . S
C2055 C2054 1.391 . S
C2056 H2046 0.950 . S
C2056 C2057 1.386 1_655 S
C2056 C2058 1.418 . S
C2057 C2056 1.386 1_455 S
C2057 C2061 1.393 . S
C2058 H2047 0.971 . S
C2058 C2056 1.418 . S
C2058 C2059 1.355 1_655 S
C2059 C2053 1.491 . S
C2059 C2058 1.355 1_455 S
C2059 C2060 1.398 . S
C2060 H2048 0.950 . S
C2060 C2059 1.398 . S
C2060 C2061 1.391 . S
C2061 H2049 0.950 . S
C2061 C2057 1.393 . S
C2061 C2060 1.391 . S
H2062 C2070 0.950 . S
H2063 C2075 0.950 . S
H2064 C2072 0.950 . S
H2065 C2074 0.950 . S
H2066 C2076 0.950 . S
H2067 C2078 0.950 . S
H2068 C2080 0.950 . S
H2069 C2081 0.950 . S
C2070 H2062 0.950 . S
C2070 C2071 1.386 . S
C2070 C2072 1.391 . S
C2071 C2070 1.386 . S
C2071 C2075 1.393 . S
C2072 H2064 0.950 . S
C2072 C2070 1.391 . S
C2072 C2073 1.400 . S
C2073 C2072 1.400 . S
C2073 C2074 1.398 . S
C2073 C2079 1.491 . S
C2074 H2065 0.950 . S
C2074 C2073 1.398 . S
C2074 C2075 1.391 . S
C2075 H2063 0.950 . S
C2075 C2071 1.393 . S
C2075 C2074 1.391 . S
C2076 H2066 0.950 . S
C2076 C2077 1.386 . S
C2076 C2078 1.391 . S
C2077 C2076 1.386 . S
C2077 C2081 1.393 . S
C2078 H2067 0.950 . S
C2078 C2076 1.391 . S
C2078 C2079 1.400 . S
C2079 C2073 1.491 . S
C2079 C2078 1.400 . S
C2079 C2080 1.398 . S
C2080 H2068 0.950 . S
C2080 C2079 1.398 . S
C2080 C2081 1.391 . S
C2081 H2069 0.950 . S
C2081 C2077 1.393 . S
C2081 C2080 1.391 . S
H2082 C2090 0.950 1_655 S
H2083 C2095 0.950 . S
H2084 C2092 0.950 1_655 S
H2085 C2094 0.950 . S
H2086 C2096 0.950 . S
H2087 C2098 0.950 . S
H2088 C2100 0.950 . S
H2089 C2101 0.950 . S
C2090 H2082 0.950 1_455 S
C2090 C2091 1.386 . S
C2090 C2092 1.391 . S
C2091 C2090 1.386 . S
C2091 C2095 1.393 . S
C2092 H2084 0.950 1_455 S
C2092 C2090 1.391 . S
C2092 C2093 1.400 . S
C2093 C2092 1.400 . S
C2093 C2094 1.398 . S
C2093 C2099 1.491 . S
C2094 H2085 0.950 . S
C2094 C2093 1.398 . S
C2094 C2095 1.391 . S
C2095 H2083 0.950 . S
C2095 C2091 1.393 . S
C2095 C2094 1.391 . S
C2096 H2086 0.950 . S
C2096 C2097 1.386 . S
C2096 C2098 1.391 . S
C2097 C2096 1.386 . S
C2097 C2101 1.393 1_455 S
C2098 H2087 0.950 . S
C2098 C2096 1.391 . S
C2098 C2099 1.400 . S
C2099 C2093 1.491 . S
C2099 C2098 1.400 . S
C2099 C2100 1.398 1_455 S
C2100 H2088 0.950 . S
C2100 C2099 1.398 1_655 S
C2100 C2101 1.391 . S
C2101 H2089 0.950 . S
C2101 C2097 1.393 1_655 S
C2101 C2100 1.391 . S
H2102 C2110 0.950 . S
H2103 C2115 0.950 . S
H2104 C2112 0.950 . S
H2105 C2114 0.950 . S
H2106 C2116 0.950 . S
H2107 C2118 0.950 . S
H2108 C2120 0.950 . S
H2109 C2121 0.950 . S
C2110 H2102 0.950 . S
C2110 C2111 1.386 . S
C2110 C2112 1.391 . S
C2111 C2110 1.386 . S
C2111 C2115 1.393 . S
C2112 H2104 0.950 . S
C2112 C2110 1.391 . S
C2112 C2113 1.400 . S
C2113 C2112 1.400 . S
C2113 C2114 1.398 . S
C2113 C2119 1.491 . S
C2114 H2105 0.950 . S
C2114 C2113 1.398 . S
C2114 C2115 1.391 . S
C2115 H2103 0.950 . S
C2115 C2111 1.393 . S
C2115 C2114 1.391 . S
C2116 H2106 0.950 . S
C2116 C2117 1.386 . S
C2116 C2118 1.391 . S
C2117 C2116 1.386 . S
C2117 C2121 1.393 . S
C2118 H2107 0.950 . S
C2118 C2116 1.391 . S
C2118 C2119 1.400 . S
C2119 C2113 1.491 . S
C2119 C2118 1.400 . S
C2119 C2120 1.398 . S
C2120 H2108 0.950 . S
C2120 C2119 1.398 . S
C2120 C2121 1.391 . S
C2121 H2109 0.950 . S
C2121 C2117 1.393 . S
C2121 C2120 1.391 . S
H2122 C2130 0.950 . S
H2123 C2135 0.950 . S
H2124 C2132 0.950 . S
H2125 C2134 0.950 . S
H2126 C2136 0.950 . S
H2127 C2138 0.950 . S
H2128 C2140 0.950 . S
H2129 C2141 0.950 . S
C2130 H2122 0.950 . S
C2130 C2131 1.386 1_545 S
C2130 C2132 1.391 . S
C2131 C2130 1.386 1_565 S
C2131 C2135 1.393 . S
C2132 H2124 0.950 . S
C2132 C2130 1.391 . S
C2132 C2133 1.400 1_545 S
C2133 C2132 1.400 1_565 S
C2133 C2134 1.398 . S
C2133 C2139 1.491 . S
C2134 H2125 0.950 . S
C2134 C2133 1.398 . S
C2134 C2135 1.391 . S
C2135 H2123 0.950 . S
C2135 C2131 1.393 . S
C2135 C2134 1.391 . S
C2136 H2126 0.950 . S
C2136 C2137 1.386 . S
C2136 C2138 1.391 . S
C2137 C2136 1.386 . S
C2137 C2141 1.393 1_565 S
C2138 H2127 0.950 . S
C2138 C2136 1.391 . S
C2138 C2139 1.400 . S
C2139 C2133 1.491 . S
C2139 C2138 1.400 . S
C2139 C2140 1.398 1_565 S
C2140 H2128 0.950 . S
C2140 C2139 1.398 1_545 S
C2140 C2141 1.391 . S
C2141 H2129 0.950 . S
C2141 C2137 1.393 1_545 S
C2141 C2140 1.391 . S
H2142 C2150 0.950 . S
H2143 C2155 0.971 . S
H2144 C2152 0.950 . S
H2145 C2154 0.950 1_565 S
H2146 C2156 0.950 . S
H2147 C2158 0.950 . S
H2148 C2160 0.950 . S
H2149 C2161 0.950 . S
C2150 H2142 0.950 . S
C2150 C2151 1.386 . S
C2150 C2152 1.391 . S
C2151 C2150 1.386 . S
C2151 C2155 1.393 . S
C2152 H2144 0.950 . S
C2152 C2150 1.391 . S
C2152 C2153 1.400 . S
C2153 C2152 1.400 . S
C2153 C2154 1.398 . S
C2153 C2159 1.491 . S
C2154 H2145 0.950 1_545 S
C2154 C2153 1.398 . S
C2154 C2155 1.391 . S
C2155 H2143 0.971 . S
C2155 C2151 1.393 . S
C2155 C2154 1.391 . S
C2156 H2146 0.950 . S
C2156 C2157 1.386 1_565 S
C2156 C2158 1.391 . S
C2157 C2156 1.386 1_545 S
C2157 C2161 1.393 . S
C2158 H2147 0.950 . S
C2158 C2156 1.391 . S
C2158 C2159 1.400 1_565 S
C2159 C2153 1.491 . S
C2159 C2158 1.400 1_545 S
C2159 C2160 1.398 . S
C2160 H2148 0.950 . S
C2160 C2159 1.398 . S
C2160 C2161 1.391 . S
C2161 H2149 0.950 . S
C2161 C2157 1.393 . S
C2161 C2160 1.391 . S
H2162 C2170 0.950 . S
H2163 C2175 0.950 . S
H2164 C2172 0.950 1_455 S
H2165 C2174 0.950 . S
H2166 C2176 0.950 . S
H2167 C2178 0.950 . S
H2168 C2180 0.949 1_455 S
H2169 C2181 0.950 . S
C2170 H2162 0.950 . S
C2170 C2171 1.386 . S
C2170 C2172 1.391 . S
C2171 C2170 1.386 . S
C2171 C2175 1.393 . S
C2172 H2164 0.950 1_655 S
C2172 C2170 1.391 . S
C2172 C2173 1.400 . S
C2173 C2172 1.400 . S
C2173 C2174 1.398 . S
C2173 C2179 1.491 . S
C2174 H2165 0.950 . S
C2174 C2173 1.398 . S
C2174 C2175 1.391 . S
C2175 H2163 0.950 . S
C2175 C2171 1.393 . S
C2175 C2174 1.391 . S
C2176 H2166 0.950 . S
C2176 C2177 1.386 . S
C2176 C2178 1.391 . S
C2177 C2176 1.386 . S
C2177 C2181 1.393 1_655 S
C2178 H2167 0.950 . S
C2178 C2176 1.391 . S
C2178 C2179 1.400 . S
C2179 C2173 1.491 . S
C2179 C2178 1.400 . S
C2179 C2180 1.400 . S
C2180 H2168 0.949 1_655 S
C2180 C2179 1.400 . S
C2180 C2181 1.390 1_655 S
C2181 H2169 0.950 . S
C2181 C2177 1.393 1_455 S
C2181 C2180 1.390 1_455 S
H2182 C2190 0.950 . S
H2183 C2195 0.950 . S
H2184 C2192 0.950 . S
H2185 C2194 0.950 . S
H2186 C2196 0.950 . S
H2187 C2198 0.950 . S
H2188 C2200 0.950 . S
H2189 C2201 0.950 . S
C2190 H2182 0.950 . S
C2190 C2191 1.386 . S
C2190 C2192 1.391 . S
C2191 C2190 1.386 . S
C2191 C2195 1.393 . S
C2192 H2184 0.950 . S
C2192 C2190 1.391 . S
C2192 C2193 1.400 . S
C2193 C2192 1.400 . S
C2193 C2194 1.398 . S
C2193 C2199 1.491 . S
C2194 H2185 0.950 . S
C2194 C2193 1.398 . S
C2194 C2195 1.391 . S
C2195 H2183 0.950 . S
C2195 C2191 1.393 . S
C2195 C2194 1.391 . S
C2196 H2186 0.950 . S
C2196 C2197 1.386 . S
C2196 C2198 1.391 . S
C2197 C2196 1.386 . S
C2197 C2201 1.393 . S
C2198 H2187 0.950 . S
C2198 C2196 1.391 . S
C2198 C2199 1.400 . S
C2199 C2193 1.491 . S
C2199 C2198 1.400 . S
C2199 C2200 1.398 . S
C2200 H2188 0.950 . S
C2200 C2199 1.398 . S
C2200 C2201 1.391 . S
C2201 H2189 0.950 . S
C2201 C2197 1.393 . S
C2201 C2200 1.391 . S
H2202 C2210 0.950 . S
H2203 C2215 0.950 . S
H2204 C2212 0.950 . S
H2205 C2214 0.950 . S
H2206 C2216 0.950 . S
H2207 C2218 0.950 . S
H2208 C2220 0.950 . S
H2209 C2221 0.950 . S
C2210 H2202 0.950 . S
C2210 C2211 1.386 . S
C2210 C2212 1.391 . S
C2211 C2210 1.386 . S
C2211 C2215 1.393 . S
C2212 H2204 0.950 . S
C2212 C2210 1.391 . S
C2212 C2213 1.400 . S
C2213 C2212 1.400 . S
C2213 C2214 1.398 . S
C2213 C2219 1.491 . S
C2214 H2205 0.950 . S
C2214 C2213 1.398 . S
C2214 C2215 1.391 . S
C2215 H2203 0.950 . S
C2215 C2211 1.393 . S
C2215 C2214 1.391 . S
C2216 H2206 0.950 . S
C2216 C2217 1.386 . S
C2216 C2218 1.391 . S
C2217 C2216 1.386 . S
C2217 C2221 1.393 . S
C2218 H2207 0.950 . S
C2218 C2216 1.391 . S
C2218 C2219 1.400 . S
C2219 C2213 1.491 . S
C2219 C2218 1.400 . S
C2219 C2220 1.398 . S
C2220 H2208 0.950 . S
C2220 C2219 1.398 . S
C2220 C2221 1.391 . S
C2221 H2209 0.950 . S
C2221 C2217 1.393 . S
C2221 C2220 1.391 . S
H2222 C2230 0.950 . S
H2223 C2235 0.950 . S
H2224 C2232 0.950 . S
H2225 C2234 0.950 . S
H2226 C2236 0.950 . S
H2227 C2238 0.950 . S
H2228 C2240 0.950 . S
H2229 C2241 0.950 . S
C2230 H2222 0.950 . S
C2230 C2231 1.386 . S
C2230 C2232 1.391 . S
C2231 C2230 1.386 . S
C2231 C2235 1.393 . S
C2232 H2224 0.950 . S
C2232 C2230 1.391 . S
C2232 C2233 1.400 . S
C2233 C2232 1.400 . S
C2233 C2234 1.398 . S
C2233 C2239 1.491 . S
C2234 H2225 0.950 . S
C2234 C2233 1.398 . S
C2234 C2235 1.391 . S
C2235 H2223 0.950 . S
C2235 C2231 1.393 . S
C2235 C2234 1.391 . S
C2236 H2226 0.950 . S
C2236 C2237 1.386 . S
C2236 C2238 1.391 . S
C2237 C2236 1.386 . S
C2237 C2241 1.393 . S
C2238 H2227 0.950 . S
C2238 C2236 1.391 . S
C2238 C2239 1.400 . S
C2239 C2233 1.491 . S
C2239 C2238 1.400 . S
C2239 C2240 1.398 . S
C2240 H2228 0.950 . S
C2240 C2239 1.398 . S
C2240 C2241 1.391 . S
C2241 H2229 0.950 . S
C2241 C2237 1.393 . S
C2241 C2240 1.391 . S
H2242 C2250 0.950 . S
H2243 C2255 0.950 . S
H2244 C2252 0.950 . S
H2245 C2254 0.950 . S
H2246 C2256 0.950 . S
H2247 C2258 0.950 . S
H2248 C2260 0.950 . S
H2249 C2261 0.950 . S
C2250 H2242 0.950 . S
C2250 C2251 1.386 . S
C2250 C2252 1.391 . S
C2251 C2250 1.386 . S
C2251 C2255 1.393 . S
C2252 H2244 0.950 . S
C2252 C2250 1.391 . S
C2252 C2253 1.400 . S
C2253 C2252 1.400 . S
C2253 C2254 1.398 . S
C2253 C2259 1.491 . S
C2254 H2245 0.950 . S
C2254 C2253 1.398 . S
C2254 C2255 1.391 . S
C2255 H2243 0.950 . S
C2255 C2251 1.393 . S
C2255 C2254 1.391 . S
C2256 H2246 0.950 . S
C2256 C2257 1.386 . S
C2256 C2258 1.391 . S
C2257 C2256 1.386 . S
C2257 C2261 1.393 . S
C2258 H2247 0.950 . S
C2258 C2256 1.391 . S
C2258 C2259 1.400 . S
C2259 C2253 1.491 . S
C2259 C2258 1.400 . S
C2259 C2260 1.398 . S
C2260 H2248 0.950 . S
C2260 C2259 1.398 . S
C2260 C2261 1.391 . S
C2261 H2249 0.950 . S
C2261 C2257 1.393 . S
C2261 C2260 1.391 . S
H2262 C2270 0.950 . S
H2263 C2275 0.950 . S
H2264 C2272 0.950 . S
H2265 C2274 0.950 . S
H2266 C2276 0.950 . S
H2267 C2278 0.950 . S
H2268 C2280 0.950 . S
H2269 C2281 0.950 . S
C2270 H2262 0.950 . S
C2270 C2271 1.386 . S
C2270 C2272 1.391 . S
C2271 C2270 1.386 . S
C2271 C2275 1.393 . S
C2272 H2264 0.950 . S
C2272 C2270 1.391 . S
C2272 C2273 1.400 . S
C2273 C2272 1.400 . S
C2273 C2274 1.398 . S
C2273 C2279 1.491 . S
C2274 H2265 0.950 . S
C2274 C2273 1.398 . S
C2274 C2275 1.391 . S
C2275 H2263 0.950 . S
C2275 C2271 1.393 . S
C2275 C2274 1.391 . S
C2276 H2266 0.950 . S
C2276 C2277 1.386 . S
C2276 C2278 1.391 . S
C2277 C2276 1.386 . S
C2277 C2281 1.393 . S
C2278 H2267 0.950 . S
C2278 C2276 1.391 . S
C2278 C2279 1.400 . S
C2279 C2273 1.491 . S
C2279 C2278 1.400 . S
C2279 C2280 1.398 . S
C2280 H2268 0.950 . S
C2280 C2279 1.398 . S
C2280 C2281 1.391 . S
C2281 H2269 0.950 . S
C2281 C2277 1.393 . S
C2281 C2280 1.391 . S
H2282 C2290 0.950 . S
H2283 C2295 0.950 . S
H2284 C2292 0.950 . S
H2285 C2294 0.950 . S
H2286 C2296 0.950 . S
H2287 C2298 0.950 . S
H2288 C2300 0.950 . S
H2289 C2301 0.950 . S
C2290 H2282 0.950 . S
C2290 C2291 1.386 . S
C2290 C2292 1.391 . S
C2291 C2290 1.386 . S
C2291 C2295 1.393 . S
C2292 H2284 0.950 . S
C2292 C2290 1.391 . S
C2292 C2293 1.400 . S
C2293 C2292 1.400 . S
C2293 C2294 1.398 . S
C2293 C2299 1.491 . S
C2294 H2285 0.950 . S
C2294 C2293 1.398 . S
C2294 C2295 1.391 . S
C2295 H2283 0.950 . S
C2295 C2291 1.393 . S
C2295 C2294 1.391 . S
C2296 H2286 0.950 . S
C2296 C2297 1.386 . S
C2296 C2298 1.391 . S
C2297 C2296 1.386 . S
C2297 C2301 1.393 . S
C2298 H2287 0.950 . S
C2298 C2296 1.391 . S
C2298 C2299 1.400 . S
C2299 C2293 1.491 . S
C2299 C2298 1.400 . S
C2299 C2300 1.398 . S
C2300 H2288 0.950 . S
C2300 C2299 1.398 . S
C2300 C2301 1.391 . S
C2301 H2289 0.950 . S
C2301 C2297 1.393 . S
C2301 C2300 1.391 . S
H2302 C2310 0.950 . S
H2303 C2315 0.950 . S
H2304 C2312 0.950 . S
H2305 C2314 0.950 . S
H2306 C2316 0.950 . S
H2307 C2318 0.950 . S
H2308 C2320 0.950 . S
H2309 C2321 0.950 . S
C2310 H2302 0.950 . S
C2310 C2311 1.386 . S
C2310 C2312 1.391 . S
C2311 C2310 1.386 . S
C2311 C2315 1.393 . S
C2312 H2304 0.950 . S
C2312 C2310 1.391 . S
C2312 C2313 1.400 . S
C2313 C2312 1.400 . S
C2313 C2314 1.398 . S
C2313 C2319 1.491 . S
C2314 H2305 0.950 . S
C2314 C2313 1.398 . S
C2314 C2315 1.391 . S
C2315 H2303 0.950 . S
C2315 C2311 1.393 . S
C2315 C2314 1.391 . S
C2316 H2306 0.950 . S
C2316 C2317 1.386 . S
C2316 C2318 1.391 . S
C2317 C2316 1.386 . S
C2317 C2321 1.393 . S
C2318 H2307 0.950 . S
C2318 C2316 1.391 . S
C2318 C2319 1.400 . S
C2319 C2313 1.491 . S
C2319 C2318 1.400 . S
C2319 C2320 1.398 . S
C2320 H2308 0.950 . S
C2320 C2319 1.398 . S
C2320 C2321 1.391 . S
C2321 H2309 0.950 . S
C2321 C2317 1.393 . S
C2321 C2320 1.391 . S
H2322 C2330 0.950 . S
H2323 C2335 0.950 . S
H2324 C2332 0.950 . S
H2325 C2334 0.950 . S
H2326 C2336 0.950 . S
H2327 C2338 0.950 . S
H2328 C2340 0.950 . S
H2329 C2341 0.950 . S
C2330 H2322 0.950 . S
C2330 C2331 1.386 . S
C2330 C2332 1.391 . S
C2331 C2330 1.386 . S
C2331 C2335 1.393 . S
C2332 H2324 0.950 . S
C2332 C2330 1.391 . S
C2332 C2333 1.400 . S
C2333 C2332 1.400 . S
C2333 C2334 1.398 . S
C2333 C2339 1.491 . S
C2334 H2325 0.950 . S
C2334 C2333 1.398 . S
C2334 C2335 1.391 . S
C2335 H2323 0.950 . S
C2335 C2331 1.393 . S
C2335 C2334 1.391 . S
C2336 H2326 0.950 . S
C2336 C2337 1.386 . S
C2336 C2338 1.391 . S
C2337 C2336 1.386 . S
C2337 C2341 1.393 . S
C2338 H2327 0.950 . S
C2338 C2336 1.391 . S
C2338 C2339 1.400 . S
C2339 C2333 1.491 . S
C2339 C2338 1.400 . S
C2339 C2340 1.398 . S
C2340 H2328 0.950 . S
C2340 C2339 1.398 . S
C2340 C2341 1.391 . S
C2341 H2329 0.950 . S
C2341 C2337 1.393 . S
C2341 C2340 1.391 . S
H2342 C2350 0.950 . S
H2343 C2355 0.950 . S
H2344 C2352 0.950 . S
H2345 C2354 0.950 . S
H2346 C2356 0.950 . S
H2347 C2358 0.950 . S
H2348 C2360 0.950 . S
H2349 C2361 0.950 . S
C2350 H2342 0.950 . S
C2350 C2351 1.386 . S
C2350 C2352 1.391 . S
C2351 C2350 1.386 . S
C2351 C2355 1.393 . S
C2352 H2344 0.950 . S
C2352 C2350 1.391 . S
C2352 C2353 1.400 . S
C2353 C2352 1.400 . S
C2353 C2354 1.398 . S
C2353 C2359 1.491 . S
C2354 H2345 0.950 . S
C2354 C2353 1.398 . S
C2354 C2355 1.391 . S
C2355 H2343 0.950 . S
C2355 C2351 1.393 . S
C2355 C2354 1.391 . S
C2356 H2346 0.950 . S
C2356 C2357 1.386 . S
C2356 C2358 1.391 . S
C2357 C2356 1.386 . S
C2357 C2361 1.393 . S
C2358 H2347 0.950 . S
C2358 C2356 1.391 . S
C2358 C2359 1.400 . S
C2359 C2353 1.491 . S
C2359 C2358 1.400 . S
C2359 C2360 1.398 . S
C2360 H2348 0.950 . S
C2360 C2359 1.398 . S
C2360 C2361 1.391 . S
C2361 H2349 0.950 . S
C2361 C2357 1.393 . S
C2361 C2360 1.391 . S
H2362 C2370 0.950 . S
H2363 C2375 0.950 . S
H2364 C2372 0.950 . S
H2365 C2374 0.950 . S
H2366 C2376 0.950 . S
H2367 C2378 0.950 . S
H2368 C2380 0.950 . S
H2369 C2381 0.950 . S
C2370 H2362 0.950 . S
C2370 C2371 1.386 . S
C2370 C2372 1.391 . S
C2371 C2370 1.386 . S
C2371 C2375 1.393 . S
C2372 H2364 0.950 . S
C2372 C2370 1.391 . S
C2372 C2373 1.400 . S
C2373 C2372 1.400 . S
C2373 C2374 1.398 . S
C2373 C2379 1.491 . S
C2374 H2365 0.950 . S
C2374 C2373 1.398 . S
C2374 C2375 1.391 . S
C2375 H2363 0.950 . S
C2375 C2371 1.393 . S
C2375 C2374 1.391 . S
C2376 H2366 0.950 . S
C2376 C2377 1.386 . S
C2376 C2378 1.391 . S
C2377 C2376 1.386 . S
C2377 C2381 1.393 . S
C2378 H2367 0.950 . S
C2378 C2376 1.391 . S
C2378 C2379 1.400 . S
C2379 C2373 1.491 . S
C2379 C2378 1.400 . S
C2379 C2380 1.398 . S
C2380 H2368 0.950 . S
C2380 C2379 1.398 . S
C2380 C2381 1.391 . S
C2381 H2369 0.950 . S
C2381 C2377 1.393 . S
C2381 C2380 1.391 . S
H2382 C2390 0.950 . S
H2383 C2395 0.950 . S
H2384 C2392 0.950 . S
H2385 C2394 0.950 . S
H2386 C2396 0.950 . S
H2387 C2398 0.950 . S
H2388 C2400 0.950 . S
H2389 C2401 0.950 . S
C2390 H2382 0.950 . S
C2390 C2391 1.386 . S
C2390 C2392 1.391 . S
C2391 C2390 1.386 . S
C2391 C2395 1.393 . S
C2392 H2384 0.950 . S
C2392 C2390 1.391 . S
C2392 C2393 1.400 . S
C2393 C2392 1.400 . S
C2393 C2394 1.398 . S
C2393 C2399 1.491 . S
C2394 H2385 0.950 . S
C2394 C2393 1.398 . S
C2394 C2395 1.391 . S
C2395 H2383 0.950 . S
C2395 C2391 1.393 . S
C2395 C2394 1.391 . S
C2396 H2386 0.950 . S
C2396 C2397 1.386 . S
C2396 C2398 1.391 . S
C2397 C2396 1.386 . S
C2397 C2401 1.393 . S
C2398 H2387 0.950 . S
C2398 C2396 1.391 . S
C2398 C2399 1.400 . S
C2399 C2393 1.491 . S
C2399 C2398 1.400 . S
C2399 C2400 1.398 . S
C2400 H2388 0.950 . S
C2400 C2399 1.398 . S
C2400 C2401 1.391 . S
C2401 H2389 0.950 . S
C2401 C2397 1.393 . S
C2401 C2400 1.391 . S
H2402 C2410 0.950 . S
H2403 C2415 0.950 . S
H2404 C2412 0.950 . S
H2405 C2414 0.950 . S
H2406 C2416 0.950 . S
H2407 C2418 0.950 . S
H2408 C2420 0.950 . S
H2409 C2421 0.950 . S
C2410 H2402 0.950 . S
C2410 C2411 1.386 . S
C2410 C2412 1.391 . S
C2411 C2410 1.386 . S
C2411 C2415 1.393 . S
C2412 H2404 0.950 . S
C2412 C2410 1.391 . S
C2412 C2413 1.400 . S
C2413 C2412 1.400 . S
C2413 C2414 1.398 . S
C2413 C2419 1.491 . S
C2414 H2405 0.950 . S
C2414 C2413 1.398 . S
C2414 C2415 1.391 . S
C2415 H2403 0.950 . S
C2415 C2411 1.393 . S
C2415 C2414 1.391 . S
C2416 H2406 0.950 . S
C2416 C2417 1.386 . S
C2416 C2418 1.391 . S
C2417 C2416 1.386 . S
C2417 C2421 1.393 . S
C2418 H2407 0.950 . S
C2418 C2416 1.391 . S
C2418 C2419 1.400 . S
C2419 C2413 1.491 . S
C2419 C2418 1.400 . S
C2419 C2420 1.398 . S
C2420 H2408 0.950 . S
C2420 C2419 1.398 . S
C2420 C2421 1.391 . S
C2421 H2409 0.950 . S
C2421 C2417 1.393 . S
C2421 C2420 1.391 . S
H2422 C2430 0.950 . S
H2423 C2435 0.950 . S
H2424 C2432 0.950 . S
H2425 C2434 0.950 . S
H2426 C2436 0.950 . S
H2427 C2438 0.950 . S
H2428 C2440 0.950 . S
H2429 C2441 0.950 . S
C2430 H2422 0.950 . S
C2430 C2431 1.386 . S
C2430 C2432 1.391 . S
C2431 C2430 1.386 . S
C2431 C2435 1.393 . S
C2432 H2424 0.950 . S
C2432 C2430 1.391 . S
C2432 C2433 1.400 . S
C2433 C2432 1.400 . S
C2433 C2434 1.398 . S
C2433 C2439 1.491 . S
C2434 H2425 0.950 . S
C2434 C2433 1.398 . S
C2434 C2435 1.391 . S
C2435 H2423 0.950 . S
C2435 C2431 1.393 . S
C2435 C2434 1.391 . S
C2436 H2426 0.950 . S
C2436 C2437 1.386 . S
C2436 C2438 1.391 . S
C2437 C2436 1.386 . S
C2437 C2441 1.393 . S
C2438 H2427 0.950 . S
C2438 C2436 1.391 . S
C2438 C2439 1.400 . S
C2439 C2433 1.491 . S
C2439 C2438 1.400 . S
C2439 C2440 1.398 . S
C2440 H2428 0.950 . S
C2440 C2439 1.398 . S
C2440 C2441 1.391 . S
C2441 H2429 0.950 . S
C2441 C2437 1.393 . S
C2441 C2440 1.391 . S
H2442 C2450 0.950 . S
H2443 C2455 0.950 . S
H2444 C2452 0.950 . S
H2445 C2454 0.950 . S
H2446 C2456 0.950 . S
H2447 C2458 0.950 . S
H2448 C2460 0.950 . S
H2449 C2461 0.950 . S
C2450 H2442 0.950 . S
C2450 C2451 1.386 . S
C2450 C2452 1.391 . S
C2451 C2450 1.386 . S
C2451 C2455 1.393 . S
C2452 H2444 0.950 . S
C2452 C2450 1.391 . S
C2452 C2453 1.400 . S
C2453 C2452 1.400 . S
C2453 C2454 1.398 . S
C2453 C2459 1.491 . S
C2454 H2445 0.950 . S
C2454 C2453 1.398 . S
C2454 C2455 1.391 . S
C2455 H2443 0.950 . S
C2455 C2451 1.393 . S
C2455 C2454 1.391 . S
C2456 H2446 0.950 . S
C2456 C2457 1.386 . S
C2456 C2458 1.391 . S
C2457 C2456 1.386 . S
C2457 C2461 1.393 . S
C2458 H2447 0.950 . S
C2458 C2456 1.391 . S
C2458 C2459 1.400 . S
C2459 C2453 1.491 . S
C2459 C2458 1.400 . S
C2459 C2460 1.398 . S
C2460 H2448 0.950 . S
C2460 C2459 1.398 . S
C2460 C2461 1.391 . S
C2461 H2449 0.950 . S
C2461 C2457 1.393 . S
C2461 C2460 1.391 . S
H2462 C2470 0.950 . S
H2463 C2475 0.950 . S
H2464 C2472 0.950 . S
H2465 C2474 0.950 . S
H2466 C2476 0.950 . S
H2467 C2478 0.950 . S
H2468 C2480 0.950 . S
H2469 C2481 0.950 . S
C2470 H2462 0.950 . S
C2470 C2471 1.386 . S
C2470 C2472 1.391 . S
C2471 C2470 1.386 . S
C2471 C2475 1.393 . S
C2472 H2464 0.950 . S
C2472 C2470 1.391 . S
C2472 C2473 1.400 . S
C2473 C2472 1.400 . S
C2473 C2474 1.398 . S
C2473 C2479 1.491 . S
C2474 H2465 0.950 . S
C2474 C2473 1.398 . S
C2474 C2475 1.391 . S
C2475 H2463 0.950 . S
C2475 C2471 1.393 . S
C2475 C2474 1.391 . S
C2476 H2466 0.950 . S
C2476 C2477 1.386 . S
C2476 C2478 1.391 . S
C2477 C2476 1.386 . S
C2477 C2481 1.393 . S
C2478 H2467 0.950 . S
C2478 C2476 1.391 . S
C2478 C2479 1.400 . S
C2479 C2473 1.491 . S
C2479 C2478 1.400 . S
C2479 C2480 1.398 . S
C2480 H2468 0.950 . S
C2480 C2479 1.398 . S
C2480 C2481 1.391 . S
C2481 H2469 0.950 . S
C2481 C2477 1.393 . S
C2481 C2480 1.391 . S
H2482 C2490 0.950 . S
H2483 C2495 0.950 . S
H2484 C2492 0.950 . S
H2485 C2494 0.950 . S
H2486 C2496 0.950 . S
H2487 C2498 0.950 . S
H2488 C2500 0.950 . S
H2489 C2501 0.950 . S
C2490 H2482 0.950 . S
C2490 C2491 1.386 . S
C2490 C2492 1.391 . S
C2491 C2490 1.386 . S
C2491 C2495 1.393 . S
C2492 H2484 0.950 . S
C2492 C2490 1.391 . S
C2492 C2493 1.400 . S
C2493 C2492 1.400 . S
C2493 C2494 1.398 . S
C2493 C2499 1.491 . S
C2494 H2485 0.950 . S
C2494 C2493 1.398 . S
C2494 C2495 1.391 . S
C2495 H2483 0.950 . S
C2495 C2491 1.393 . S
C2495 C2494 1.391 . S
C2496 H2486 0.950 . S
C2496 C2497 1.386 . S
C2496 C2498 1.391 . S
C2497 C2496 1.386 . S
C2497 C2501 1.393 . S
C2498 H2487 0.950 . S
C2498 C2496 1.391 . S
C2498 C2499 1.400 . S
C2499 C2493 1.491 . S
C2499 C2498 1.400 . S
C2499 C2500 1.398 . S
C2500 H2488 0.950 . S
C2500 C2499 1.398 . S
C2500 C2501 1.391 . S
C2501 H2489 0.950 . S
C2501 C2497 1.393 . S
C2501 C2500 1.391 . S
H2502 C2510 0.950 . S
H2503 C2515 0.950 . S
H2504 C2512 0.950 . S
H2505 C2514 0.950 . S
H2506 C2516 0.950 . S
H2507 C2518 0.950 . S
H2508 C2520 0.950 . S
H2509 C2521 0.950 . S
C2510 H2502 0.950 . S
C2510 C2511 1.386 . S
C2510 C2512 1.391 . S
C2511 C2510 1.386 . S
C2511 C2515 1.393 . S
C2512 H2504 0.950 . S
C2512 C2510 1.391 . S
C2512 C2513 1.400 . S
C2513 C2512 1.400 . S
C2513 C2514 1.398 . S
C2513 C2519 1.491 . S
C2514 H2505 0.950 . S
C2514 C2513 1.398 . S
C2514 C2515 1.391 . S
C2515 H2503 0.950 . S
C2515 C2511 1.393 . S
C2515 C2514 1.391 . S
C2516 H2506 0.950 . S
C2516 C2517 1.386 . S
C2516 C2518 1.391 . S
C2517 C2516 1.386 . S
C2517 C2521 1.393 . S
C2518 H2507 0.950 . S
C2518 C2516 1.391 . S
C2518 C2519 1.400 . S
C2519 C2513 1.491 . S
C2519 C2518 1.400 . S
C2519 C2520 1.398 . S
C2520 H2508 0.950 . S
C2520 C2519 1.398 . S
C2520 C2521 1.391 . S
C2521 H2509 0.950 . S
C2521 C2517 1.393 . S
C2521 C2520 1.391 . S
H2522 C2530 0.950 . S
H2523 C2535 0.950 . S
H2524 C2532 0.950 . S
H2525 C2534 0.950 . S
H2526 C2536 0.950 . S
H2527 C2538 0.950 . S
H2528 C2540 0.950 . S
H2529 C2541 0.950 . S
C2530 H2522 0.950 . S
C2530 C2531 1.386 . S
C2530 C2532 1.391 . S
C2531 C2530 1.386 . S
C2531 C2535 1.393 . S
C2532 H2524 0.950 . S
C2532 C2530 1.391 . S
C2532 C2533 1.400 . S
C2533 C2532 1.400 . S
C2533 C2534 1.398 . S
C2533 C2539 1.491 . S
C2534 H2525 0.950 . S
C2534 C2533 1.398 . S
C2534 C2535 1.391 . S
C2535 H2523 0.950 . S
C2535 C2531 1.393 . S
C2535 C2534 1.391 . S
C2536 H2526 0.950 . S
C2536 C2537 1.386 . S
C2536 C2538 1.391 . S
C2537 C2536 1.386 . S
C2537 C2541 1.393 . S
C2538 H2527 0.950 . S
C2538 C2536 1.391 . S
C2538 C2539 1.400 . S
C2539 C2533 1.491 . S
C2539 C2538 1.400 . S
C2539 C2540 1.398 . S
C2540 H2528 0.950 . S
C2540 C2539 1.398 . S
C2540 C2541 1.391 . S
C2541 H2529 0.950 . S
C2541 C2537 1.393 . S
C2541 C2540 1.391 . S
H2542 C2550 0.950 . S
H2543 C2555 0.950 . S
H2544 C2552 0.950 . S
H2545 C2554 0.950 . S
H2546 C2556 0.950 . S
H2547 C2558 0.950 . S
H2548 C2560 0.950 . S
H2549 C2561 0.950 . S
C2550 H2542 0.950 . S
C2550 C2551 1.386 . S
C2550 C2552 1.391 . S
C2551 C2550 1.386 . S
C2551 C2555 1.393 . S
C2552 H2544 0.950 . S
C2552 C2550 1.391 . S
C2552 C2553 1.400 . S
C2553 C2552 1.400 . S
C2553 C2554 1.398 . S
C2553 C2559 1.491 . S
C2554 H2545 0.950 . S
C2554 C2553 1.398 . S
C2554 C2555 1.391 . S
C2555 H2543 0.950 . S
C2555 C2551 1.393 . S
C2555 C2554 1.391 . S
C2556 H2546 0.950 . S
C2556 C2557 1.386 . S
C2556 C2558 1.391 . S
C2557 C2556 1.386 . S
C2557 C2561 1.393 . S
C2558 H2547 0.950 . S
C2558 C2556 1.391 . S
C2558 C2559 1.400 . S
C2559 C2553 1.491 . S
C2559 C2558 1.400 . S
C2559 C2560 1.398 . S
C2560 H2548 0.950 . S
C2560 C2559 1.398 . S
C2560 C2561 1.391 . S
C2561 H2549 0.950 . S
C2561 C2557 1.393 . S
C2561 C2560 1.391 . S
H2562 C2570 0.950 . S
H2563 C2575 0.950 . S
H2564 C2572 0.950 . S
H2565 C2574 0.950 . S
H2566 C2576 0.950 . S
H2567 C2578 0.950 . S
H2568 C2580 0.950 . S
H2569 C2581 0.950 . S
C2570 H2562 0.950 . S
C2570 C2571 1.386 . S
C2570 C2572 1.391 . S
C2571 C2570 1.386 . S
C2571 C2575 1.393 . S
C2572 H2564 0.950 . S
C2572 C2570 1.391 . S
C2572 C2573 1.400 . S
C2573 C2572 1.400 . S
C2573 C2574 1.398 . S
C2573 C2579 1.491 . S
C2574 H2565 0.950 . S
C2574 C2573 1.398 . S
C2574 C2575 1.391 . S
C2575 H2563 0.950 . S
C2575 C2571 1.393 . S
C2575 C2574 1.391 . S
C2576 H2566 0.950 . S
C2576 C2577 1.386 . S
C2576 C2578 1.391 . S
C2577 C2576 1.386 . S
C2577 C2581 1.393 . S
C2578 H2567 0.950 . S
C2578 C2576 1.391 . S
C2578 C2579 1.400 . S
C2579 C2573 1.491 . S
C2579 C2578 1.400 . S
C2579 C2580 1.398 . S
C2580 H2568 0.950 . S
C2580 C2579 1.398 . S
C2580 C2581 1.391 . S
C2581 H2569 0.950 . S
C2581 C2577 1.393 . S
C2581 C2580 1.391 . S
H2582 C2590 0.950 . S
H2583 C2595 0.950 . S
H2584 C2592 0.950 . S
H2585 C2594 0.950 . S
H2586 C2596 0.950 . S
H2587 C2598 0.950 . S
H2588 C2600 0.950 . S
H2589 C2601 0.950 . S
C2590 H2582 0.950 . S
C2590 C2591 1.386 . S
C2590 C2592 1.391 . S
C2591 C2590 1.386 . S
C2591 C2595 1.393 . S
C2592 H2584 0.950 . S
C2592 C2590 1.391 . S
C2592 C2593 1.400 . S
C2593 C2592 1.400 . S
C2593 C2594 1.398 . S
C2593 C2599 1.491 . S
C2594 H2585 0.950 . S
C2594 C2593 1.398 . S
C2594 C2595 1.391 . S
C2595 H2583 0.950 . S
C2595 C2591 1.393 . S
C2595 C2594 1.391 . S
C2596 H2586 0.950 . S
C2596 C2597 1.386 . S
C2596 C2598 1.391 . S
C2597 C2596 1.386 . S
C2597 C2601 1.393 . S
C2598 H2587 0.950 . S
C2598 C2596 1.391 . S
C2598 C2599 1.400 . S
C2599 C2593 1.491 . S
C2599 C2598 1.400 . S
C2599 C2600 1.398 . S
C2600 H2588 0.950 . S
C2600 C2599 1.398 . S
C2600 C2601 1.391 . S
C2601 H2589 0.950 . S
C2601 C2597 1.393 . S
C2601 C2600 1.391 . S
H2602 C2610 0.950 . S
H2603 C2615 0.950 . S
H2604 C2612 0.950 . S
H2605 C2614 0.950 . S
H2606 C2616 0.950 . S
H2607 C2618 0.950 . S
H2608 C2620 0.950 . S
H2609 C2621 0.950 . S
C2610 H2602 0.950 . S
C2610 C2611 1.386 . S
C2610 C2612 1.391 . S
C2611 C2610 1.386 . S
C2611 C2615 1.393 . S
C2612 H2604 0.950 . S
C2612 C2610 1.391 . S
C2612 C2613 1.400 . S
C2613 C2612 1.400 . S
C2613 C2614 1.398 . S
C2613 C2619 1.491 . S
C2614 H2605 0.950 . S
C2614 C2613 1.398 . S
C2614 C2615 1.391 . S
C2615 H2603 0.950 . S
C2615 C2611 1.393 . S
C2615 C2614 1.391 . S
C2616 H2606 0.950 . S
C2616 C2617 1.386 . S
C2616 C2618 1.391 . S
C2617 C2616 1.386 . S
C2617 C2621 1.393 . S
C2618 H2607 0.950 . S
C2618 C2616 1.391 . S
C2618 C2619 1.400 . S
C2619 C2613 1.491 . S
C2619 C2618 1.400 . S
C2619 C2620 1.398 . S
C2620 H2608 0.950 . S
C2620 C2619 1.398 . S
C2620 C2621 1.391 . S
C2621 H2609 0.950 . S
C2621 C2617 1.393 . S
C2621 C2620 1.391 . S
H2622 C2630 0.950 . S
H2623 C2635 0.950 . S
H2624 C2632 0.950 . S
H2625 C2634 0.950 . S
H2626 C2636 0.950 . S
H2627 C2638 0.950 . S
H2628 C2640 0.950 . S
H2629 C2641 0.950 . S
C2630 H2622 0.950 . S
C2630 C2631 1.386 . S
C2630 C2632 1.391 . S
C2631 C2630 1.386 . S
C2631 C2635 1.393 . S
C2632 H2624 0.950 . S
C2632 C2630 1.391 . S
C2632 C2633 1.400 . S
C2633 C2632 1.400 . S
C2633 C2634 1.398 . S
C2633 C2639 1.491 . S
C2634 H2625 0.950 . S
C2634 C2633 1.398 . S
C2634 C2635 1.391 . S
C2635 H2623 0.950 . S
C2635 C2631 1.393 . S
C2635 C2634 1.391 . S
C2636 H2626 0.950 . S
C2636 C2637 1.386 . S
C2636 C2638 1.391 . S
C2637 C2636 1.386 . S
C2637 C2641 1.393 . S
C2638 H2627 0.950 . S
C2638 C2636 1.391 . S
C2638 C2639 1.400 . S
C2639 C2633 1.491 . S
C2639 C2638 1.400 . S
C2639 C2640 1.398 . S
C2640 H2628 0.950 . S
C2640 C2639 1.398 . S
C2640 C2641 1.391 . S
C2641 H2629 0.950 . S
C2641 C2637 1.393 . S
C2641 C2640 1.391 . S
H2642 C2650 0.950 . S
H2643 C2655 0.950 . S
H2644 C2652 0.950 . S
H2645 C2654 0.950 . S
H2646 C2656 0.950 . S
H2647 C2658 0.950 . S
H2648 C2660 0.950 . S
H2649 C2661 0.950 . S
C2650 H2642 0.950 . S
C2650 C2651 1.386 . S
C2650 C2652 1.391 . S
C2651 C2650 1.386 . S
C2651 C2655 1.393 . S
C2652 H2644 0.950 . S
C2652 C2650 1.391 . S
C2652 C2653 1.400 . S
C2653 C2652 1.400 . S
C2653 C2654 1.398 . S
C2653 C2659 1.491 . S
C2654 H2645 0.950 . S
C2654 C2653 1.398 . S
C2654 C2655 1.391 . S
C2655 H2643 0.950 . S
C2655 C2651 1.393 . S
C2655 C2654 1.391 . S
C2656 H2646 0.950 . S
C2656 C2657 1.386 . S
C2656 C2658 1.391 . S
C2657 C2656 1.386 . S
C2657 C2661 1.393 . S
C2658 H2647 0.950 . S
C2658 C2656 1.391 . S
C2658 C2659 1.400 . S
C2659 C2653 1.491 . S
C2659 C2658 1.400 . S
C2659 C2660 1.398 . S
C2660 H2648 0.950 . S
C2660 C2659 1.398 . S
C2660 C2661 1.391 . S
C2661 H2649 0.950 . S
C2661 C2657 1.393 . S
C2661 C2660 1.391 . S
H2662 C2670 0.950 . S
H2663 C2675 0.950 . S
H2664 C2672 0.950 . S
H2665 C2674 0.950 . S
H2666 C2676 0.950 . S
H2667 C2678 0.950 . S
H2668 C2680 0.950 . S
H2669 C2681 0.950 . S
C2670 H2662 0.950 . S
C2670 C2671 1.386 . S
C2670 C2672 1.391 . S
C2671 C2670 1.386 . S
C2671 C2675 1.393 . S
C2672 H2664 0.950 . S
C2672 C2670 1.391 . S
C2672 C2673 1.400 . S
C2673 C2672 1.400 . S
C2673 C2674 1.398 . S
C2673 C2679 1.491 . S
C2674 H2665 0.950 . S
C2674 C2673 1.398 . S
C2674 C2675 1.391 . S
C2675 H2663 0.950 . S
C2675 C2671 1.393 . S
C2675 C2674 1.391 . S
C2676 H2666 0.950 . S
C2676 C2677 1.386 . S
C2676 C2678 1.391 . S
C2677 C2676 1.386 . S
C2677 C2681 1.393 . S
C2678 H2667 0.950 . S
C2678 C2676 1.391 . S
C2678 C2679 1.400 . S
C2679 C2673 1.491 . S
C2679 C2678 1.400 . S
C2679 C2680 1.398 . S
C2680 H2668 0.950 . S
C2680 C2679 1.398 . S
C2680 C2681 1.391 . S
C2681 H2669 0.950 . S
C2681 C2677 1.393 . S
C2681 C2680 1.391 . S
H2682 C2690 0.950 . S
H2683 C2695 0.950 . S
H2684 C2692 0.950 . S
H2685 C2694 0.950 . S
H2686 C2696 0.950 . S
H2687 C2698 0.950 . S
H2688 C2700 0.950 . S
H2689 C2701 0.950 . S
C2690 H2682 0.950 . S
C2690 C2691 1.386 . S
C2690 C2692 1.391 . S
C2691 C2690 1.386 . S
C2691 C2695 1.393 . S
C2692 H2684 0.950 . S
C2692 C2690 1.391 . S
C2692 C2693 1.400 . S
C2693 C2692 1.400 . S
C2693 C2694 1.398 . S
C2693 C2699 1.491 . S
C2694 H2685 0.950 . S
C2694 C2693 1.398 . S
C2694 C2695 1.391 . S
C2695 H2683 0.950 . S
C2695 C2691 1.393 . S
C2695 C2694 1.391 . S
C2696 H2686 0.950 . S
C2696 C2697 1.386 . S
C2696 C2698 1.391 . S
C2697 C2696 1.386 . S
C2697 C2701 1.393 . S
C2698 H2687 0.950 . S
C2698 C2696 1.391 . S
C2698 C2699 1.400 . S
C2699 C2693 1.491 . S
C2699 C2698 1.400 . S
C2699 C2700 1.398 . S
C2700 H2688 0.950 . S
C2700 C2699 1.398 . S
C2700 C2701 1.391 . S
C2701 H2689 0.950 . S
C2701 C2697 1.393 . S
C2701 C2700 1.391 . S
H2702 C2710 0.950 . S
H2703 C2715 0.950 . S
H2704 C2712 0.950 . S
H2705 C2714 0.950 . S
H2706 C2716 0.950 . S
H2707 C2718 0.950 . S
H2708 C2720 0.950 . S
H2709 C2721 0.950 . S
C2710 H2702 0.950 . S
C2710 C2711 1.386 . S
C2710 C2712 1.391 . S
C2711 C2710 1.386 . S
C2711 C2715 1.393 . S
C2712 H2704 0.950 . S
C2712 C2710 1.391 . S
C2712 C2713 1.400 . S
C2713 C2712 1.400 . S
C2713 C2714 1.398 . S
C2713 C2719 1.491 . S
C2714 H2705 0.950 . S
C2714 C2713 1.398 . S
C2714 C2715 1.391 . S
C2715 H2703 0.950 . S
C2715 C2711 1.393 . S
C2715 C2714 1.391 . S
C2716 H2706 0.950 . S
C2716 C2717 1.386 . S
C2716 C2718 1.391 . S
C2717 C2716 1.386 . S
C2717 C2721 1.393 . S
C2718 H2707 0.950 . S
C2718 C2716 1.391 . S
C2718 C2719 1.400 . S
C2719 C2713 1.491 . S
C2719 C2718 1.400 . S
C2719 C2720 1.398 . S
C2720 H2708 0.950 . S
C2720 C2719 1.398 . S
C2720 C2721 1.391 . S
C2721 H2709 0.950 . S
C2721 C2717 1.393 . S
C2721 C2720 1.391 . S
H2722 C2730 0.950 . S
H2723 C2735 0.950 . S
H2724 C2732 0.950 . S
H2725 C2734 0.950 . S
H2726 C2736 0.950 . S
H2727 C2738 0.950 . S
H2728 C2740 0.950 . S
H2729 C2741 0.950 . S
C2730 H2722 0.950 . S
C2730 C2731 1.386 . S
C2730 C2732 1.391 . S
C2731 C2730 1.386 . S
C2731 C2735 1.393 . S
C2732 H2724 0.950 . S
C2732 C2730 1.391 . S
C2732 C2733 1.400 . S
C2733 C2732 1.400 . S
C2733 C2734 1.398 . S
C2733 C2739 1.491 . S
C2734 H2725 0.950 . S
C2734 C2733 1.398 . S
C2734 C2735 1.391 . S
C2735 H2723 0.950 . S
C2735 C2731 1.393 . S
C2735 C2734 1.391 . S
C2736 H2726 0.950 . S
C2736 C2737 1.386 . S
C2736 C2738 1.391 . S
C2737 C2736 1.386 . S
C2737 C2741 1.393 . S
C2738 H2727 0.950 . S
C2738 C2736 1.391 . S
C2738 C2739 1.400 . S
C2739 C2733 1.491 . S
C2739 C2738 1.400 . S
C2739 C2740 1.398 . S
C2740 H2728 0.950 . S
C2740 C2739 1.398 . S
C2740 C2741 1.391 . S
C2741 H2729 0.950 . S
C2741 C2737 1.393 . S
C2741 C2740 1.391 . S
H2742 C2750 0.950 . S
H2743 C2755 0.950 1_554 S
H2744 C2752 0.950 . S
H2745 C2754 0.950 . S
H2746 C2756 0.950 . S
H2747 C2758 0.950 . S
H2748 C2760 0.950 . S
H2749 C2761 0.950 . S
C2750 H2742 0.950 . S
C2750 C2751 1.386 . S
C2750 C2752 1.391 . S
C2751 C2750 1.386 . S
C2751 C2755 1.393 . S
C2752 H2744 0.950 . S
C2752 C2750 1.391 . S
C2752 C2753 1.400 . S
C2753 C2752 1.400 . S
C2753 C2754 1.398 . S
C2753 C2759 1.491 . S
C2754 H2745 0.950 . S
C2754 C2753 1.398 . S
C2754 C2755 1.391 . S
C2755 H2743 0.950 1_556 S
C2755 C2751 1.393 . S
C2755 C2754 1.391 . S
C2756 H2746 0.950 . S
C2756 C2757 1.386 . S
C2756 C2758 1.391 . S
C2757 C2756 1.386 . S
C2757 C2761 1.393 . S
C2758 H2747 0.950 . S
C2758 C2756 1.391 . S
C2758 C2759 1.400 . S
C2759 C2753 1.491 . S
C2759 C2758 1.400 . S
C2759 C2760 1.398 . S
C2760 H2748 0.950 . S
C2760 C2759 1.398 . S
C2760 C2761 1.391 . S
C2761 H2749 0.950 . S
C2761 C2757 1.393 . S
C2761 C2760 1.391 . S
H2762 C2770 0.950 . S
H2763 C2775 0.950 . S
H2764 C2772 0.950 . S
H2765 C2774 0.950 . S
H2766 C2776 0.950 . S
H2767 C2778 0.950 . S
H2768 C2780 0.950 . S
H2769 C2781 0.950 . S
C2770 H2762 0.950 . S
C2770 C2771 1.386 . S
C2770 C2772 1.391 . S
C2771 C2770 1.386 . S
C2771 C2775 1.393 . S
C2772 H2764 0.950 . S
C2772 C2770 1.391 . S
C2772 C2773 1.400 . S
C2773 C2772 1.400 . S
C2773 C2774 1.398 . S
C2773 C2779 1.491 . S
C2774 H2765 0.950 . S
C2774 C2773 1.398 . S
C2774 C2775 1.391 . S
C2775 H2763 0.950 . S
C2775 C2771 1.393 . S
C2775 C2774 1.391 . S
C2776 H2766 0.950 . S
C2776 C2777 1.386 . S
C2776 C2778 1.391 . S
C2777 C2776 1.386 . S
C2777 C2781 1.393 . S
C2778 H2767 0.950 . S
C2778 C2776 1.391 . S
C2778 C2779 1.400 . S
C2779 C2773 1.491 . S
C2779 C2778 1.400 . S
C2779 C2780 1.398 . S
C2780 H2768 0.950 . S
C2780 C2779 1.398 . S
C2780 C2781 1.391 . S
C2781 H2769 0.950 . S
C2781 C2777 1.393 . S
C2781 C2780 1.391 . S
H2782 C2790 0.950 . S
H2783 C2795 0.950 . S
H2784 C2792 0.950 . S
H2785 C2794 0.950 . S
H2786 C2796 0.950 . S
H2787 C2798 0.950 . S
H2788 C2800 0.950 . S
H2789 C2801 0.950 . S
C2790 H2782 0.950 . S
C2790 C2791 1.386 . S
C2790 C2792 1.391 . S
C2791 C2790 1.386 . S
C2791 C2795 1.393 . S
C2792 H2784 0.950 . S
C2792 C2790 1.391 . S
C2792 C2793 1.400 . S
C2793 C2792 1.400 . S
C2793 C2794 1.398 . S
C2793 C2799 1.491 . S
C2794 H2785 0.950 . S
C2794 C2793 1.398 . S
C2794 C2795 1.391 . S
C2795 H2783 0.950 . S
C2795 C2791 1.393 . S
C2795 C2794 1.391 . S
C2796 H2786 0.950 . S
C2796 C2797 1.386 . S
C2796 C2798 1.391 . S
C2797 C2796 1.386 . S
C2797 C2801 1.393 . S
C2798 H2787 0.950 . S
C2798 C2796 1.391 . S
C2798 C2799 1.400 . S
C2799 C2793 1.491 . S
C2799 C2798 1.400 . S
C2799 C2800 1.398 . S
C2800 H2788 0.950 . S
C2800 C2799 1.398 . S
C2800 C2801 1.391 . S
C2801 H2789 0.950 . S
C2801 C2797 1.393 . S
C2801 C2800 1.391 . S
H2802 C2810 0.950 . S
H2803 C2815 0.950 . S
H2804 C2812 0.950 . S
H2805 C2814 0.950 . S
H2806 C2816 0.950 . S
H2807 C2818 0.950 . S
H2808 C2820 0.950 . S
H2809 C2821 0.950 . S
C2810 H2802 0.950 . S
C2810 C2811 1.386 . S
C2810 C2812 1.391 . S
C2811 C2810 1.386 . S
C2811 C2815 1.393 . S
C2812 H2804 0.950 . S
C2812 C2810 1.391 . S
C2812 C2813 1.400 . S
C2813 C2812 1.400 . S
C2813 C2814 1.398 . S
C2813 C2819 1.491 . S
C2814 H2805 0.950 . S
C2814 C2813 1.398 . S
C2814 C2815 1.391 . S
C2815 H2803 0.950 . S
C2815 C2811 1.393 . S
C2815 C2814 1.391 . S
C2816 H2806 0.950 . S
C2816 C2817 1.386 . S
C2816 C2818 1.391 . S
C2817 C2816 1.386 . S
C2817 C2821 1.393 . S
C2818 H2807 0.950 . S
C2818 C2816 1.391 . S
C2818 C2819 1.400 . S
C2819 C2813 1.491 . S
C2819 C2818 1.400 . S
C2819 C2820 1.398 . S
C2820 H2808 0.950 . S
C2820 C2819 1.398 . S
C2820 C2821 1.391 . S
C2821 H2809 0.950 . S
C2821 C2817 1.393 . S
C2821 C2820 1.391 . S
H2822 C2830 0.950 . S
H2823 C2835 0.950 . S
H2824 C2832 0.950 . S
H2825 C2834 0.950 . S
H2826 C2836 0.950 . S
H2827 C2838 0.950 . S
H2828 C2840 0.950 . S
H2829 C2841 0.950 . S
C2830 H2822 0.950 . S
C2830 C2831 1.386 . S
C2830 C2832 1.391 . S
C2831 C2830 1.386 . S
C2831 C2835 1.393 . S
C2832 H2824 0.950 . S
C2832 C2830 1.391 . S
C2832 C2833 1.400 . S
C2833 C2832 1.400 . S
C2833 C2834 1.398 . S
C2833 C2839 1.491 . S
C2834 H2825 0.950 . S
C2834 C2833 1.398 . S
C2834 C2835 1.391 . S
C2835 H2823 0.950 . S
C2835 C2831 1.393 . S
C2835 C2834 1.391 . S
C2836 H2826 0.950 . S
C2836 C2837 1.386 . S
C2836 C2838 1.391 . S
C2837 C2836 1.386 . S
C2837 C2841 1.393 . S
C2838 H2827 0.950 . S
C2838 C2836 1.391 . S
C2838 C2839 1.400 . S
C2839 C2833 1.491 . S
C2839 C2838 1.400 . S
C2839 C2840 1.398 . S
C2840 H2828 0.950 . S
C2840 C2839 1.398 . S
C2840 C2841 1.391 . S
C2841 H2829 0.950 . S
C2841 C2837 1.393 . S
C2841 C2840 1.391 . S
H2842 C2850 0.950 . S
H2843 C2855 0.950 1_554 S
H2844 C2852 0.950 . S
H2845 C2854 0.979 . S
H2846 C2856 0.950 . S
H2847 C2858 0.950 . S
H2848 C2860 0.950 . S
H2849 C2861 0.950 . S
C2850 H2842 0.950 . S
C2850 C2851 1.386 . S
C2850 C2852 1.391 . S
C2851 C2850 1.386 . S
C2851 C2855 1.393 . S
C2852 H2844 0.950 . S
C2852 C2850 1.391 . S
C2852 C2853 1.400 . S
C2853 C2852 1.400 . S
C2853 C2854 1.398 . S
C2853 C2859 1.491 . S
C2854 H2845 0.979 . S
C2854 C2853 1.398 . S
C2854 C2855 1.391 . S
C2855 H2843 0.950 1_556 S
C2855 C2851 1.393 . S
C2855 C2854 1.391 . S
C2856 H2846 0.950 . S
C2856 C2857 1.386 . S
C2856 C2858 1.391 . S
C2857 C2856 1.386 . S
C2857 C2861 1.393 . S
C2858 H2847 0.950 . S
C2858 C2856 1.391 . S
C2858 C2859 1.400 . S
C2859 C2853 1.491 . S
C2859 C2858 1.400 . S
C2859 C2860 1.398 . S
C2860 H2848 0.950 . S
C2860 C2859 1.398 . S
C2860 C2861 1.391 . S
C2861 H2849 0.950 . S
C2861 C2857 1.393 . S
C2861 C2860 1.391 . S
H2862 C2870 0.950 . S
H2863 C2875 0.950 . S
H2864 C2872 0.950 . S
H2865 C2874 0.950 . S
H2866 C2876 0.950 . S
H2867 C2878 0.950 . S
H2868 C2880 0.950 . S
H2869 C2881 0.950 . S
C2870 H2862 0.950 . S
C2870 C2871 1.386 . S
C2870 C2872 1.391 . S
C2871 C2870 1.386 . S
C2871 C2875 1.393 . S
C2872 H2864 0.950 . S
C2872 C2870 1.391 . S
C2872 C2873 1.400 . S
C2873 C2872 1.400 . S
C2873 C2874 1.398 . S
C2873 C2879 1.491 . S
C2874 H2865 0.950 . S
C2874 C2873 1.398 . S
C2874 C2875 1.391 . S
C2875 H2863 0.950 . S
C2875 C2871 1.393 . S
C2875 C2874 1.391 . S
C2876 H2866 0.950 . S
C2876 C2877 1.386 . S
C2876 C2878 1.391 . S
C2877 C2876 1.386 . S
C2877 C2881 1.393 . S
C2878 H2867 0.950 . S
C2878 C2876 1.391 . S
C2878 C2879 1.400 . S
C2879 C2873 1.491 . S
C2879 C2878 1.400 . S
C2879 C2880 1.398 . S
C2880 H2868 0.950 . S
C2880 C2879 1.398 . S
C2880 C2881 1.391 . S
C2881 H2869 0.950 . S
C2881 C2877 1.393 . S
C2881 C2880 1.391 . S
H2882 C2890 0.950 . S
H2883 C2895 0.950 . S
H2884 C2892 0.950 . S
H2885 C2894 0.950 . S
H2886 C2896 0.950 . S
H2887 C2898 0.950 . S
H2888 C2900 0.950 . S
H2889 C2901 0.950 . S
C2890 H2882 0.950 . S
C2890 C2891 1.386 . S
C2890 C2892 1.391 . S
C2891 C2890 1.386 . S
C2891 C2895 1.393 . S
C2892 H2884 0.950 . S
C2892 C2890 1.391 . S
C2892 C2893 1.400 . S
C2893 C2892 1.400 . S
C2893 C2894 1.398 . S
C2893 C2899 1.491 . S
C2894 H2885 0.950 . S
C2894 C2893 1.398 . S
C2894 C2895 1.391 . S
C2895 H2883 0.950 . S
C2895 C2891 1.393 . S
C2895 C2894 1.391 . S
C2896 H2886 0.950 . S
C2896 C2897 1.386 . S
C2896 C2898 1.391 . S
C2897 C2896 1.386 . S
C2897 C2901 1.393 . S
C2898 H2887 0.950 . S
C2898 C2896 1.391 . S
C2898 C2899 1.400 . S
C2899 C2893 1.491 . S
C2899 C2898 1.400 . S
C2899 C2900 1.398 . S
C2900 H2888 0.950 . S
C2900 C2899 1.398 . S
C2900 C2901 1.391 . S
C2901 H2889 0.950 . S
C2901 C2897 1.393 . S
C2901 C2900 1.391 . S
H2902 C2910 0.950 . S
H2903 C2915 0.950 . S
H2904 C2912 0.950 . S
H2905 C2914 0.950 . S
H2906 C2916 0.950 . S
H2907 C2918 0.950 . S
H2908 C2920 0.950 . S
H2909 C2921 0.950 . S
C2910 H2902 0.950 . S
C2910 C2911 1.386 . S
C2910 C2912 1.391 . S
C2911 C2910 1.386 . S
C2911 C2915 1.393 . S
C2912 H2904 0.950 . S
C2912 C2910 1.391 . S
C2912 C2913 1.400 . S
C2913 C2912 1.400 . S
C2913 C2914 1.398 . S
C2913 C2919 1.491 . S
C2914 H2905 0.950 . S
C2914 C2913 1.398 . S
C2914 C2915 1.391 . S
C2915 H2903 0.950 . S
C2915 C2911 1.393 . S
C2915 C2914 1.391 . S
C2916 H2906 0.950 . S
C2916 C2917 1.386 . S
C2916 C2918 1.391 . S
C2917 C2916 1.386 . S
C2917 C2921 1.393 . S
C2918 H2907 0.950 . S
C2918 C2916 1.391 . S
C2918 C2919 1.400 . S
C2919 C2913 1.491 . S
C2919 C2918 1.400 . S
C2919 C2920 1.398 . S
C2920 H2908 0.950 . S
C2920 C2919 1.398 . S
C2920 C2921 1.391 . S
C2921 H2909 0.950 . S
C2921 C2917 1.393 . S
C2921 C2920 1.391 . S
H2922 C2930 0.950 . S
H2923 C2935 0.950 . S
H2924 C2932 0.950 . S
H2925 C2934 0.950 . S
H2926 C2936 0.950 . S
H2927 C2938 0.950 . S
H2928 C2940 0.950 . S
H2929 C2941 0.950 . S
C2930 H2922 0.950 . S
C2930 C2931 1.386 . S
C2930 C2932 1.391 . S
C2931 C2930 1.386 . S
C2931 C2935 1.393 . S
C2932 H2924 0.950 . S
C2932 C2930 1.391 . S
C2932 C2933 1.400 . S
C2933 C2932 1.400 . S
C2933 C2934 1.398 . S
C2933 C2939 1.491 . S
C2934 H2925 0.950 . S
C2934 C2933 1.398 . S
C2934 C2935 1.391 . S
C2935 H2923 0.950 . S
C2935 C2931 1.393 . S
C2935 C2934 1.391 . S
C2936 H2926 0.950 . S
C2936 C2937 1.386 . S
C2936 C2938 1.391 . S
C2937 C2936 1.386 . S
C2937 C2941 1.393 . S
C2938 H2927 0.950 . S
C2938 C2936 1.391 . S
C2938 C2939 1.400 . S
C2939 C2933 1.491 . S
C2939 C2938 1.400 . S
C2939 C2940 1.398 . S
C2940 H2928 0.950 . S
C2940 C2939 1.398 . S
C2940 C2941 1.391 . S
C2941 H2929 0.950 . S
C2941 C2937 1.393 . S
C2941 C2940 1.391 . S
H2942 C2950 0.950 . S
H2943 C2955 0.950 . S
H2944 C2952 0.950 . S
H2945 C2954 0.950 . S
H2946 C2956 0.950 . S
H2947 C2958 0.950 . S
H2948 C2960 0.950 . S
H2949 C2961 0.950 . S
C2950 H2942 0.950 . S
C2950 C2951 1.386 . S
C2950 C2952 1.391 . S
C2951 C2950 1.386 . S
C2951 C2955 1.393 . S
C2952 H2944 0.950 . S
C2952 C2950 1.391 . S
C2952 C2953 1.400 . S
C2953 C2952 1.400 . S
C2953 C2954 1.398 . S
C2953 C2959 1.491 . S
C2954 H2945 0.950 . S
C2954 C2953 1.398 . S
C2954 C2955 1.391 . S
C2955 H2943 0.950 . S
C2955 C2951 1.393 . S
C2955 C2954 1.391 . S
C2956 H2946 0.950 . S
C2956 C2957 1.386 . S
C2956 C2958 1.391 . S
C2957 C2956 1.386 . S
C2957 C2961 1.393 . S
C2958 H2947 0.950 . S
C2958 C2956 1.391 . S
C2958 C2959 1.400 . S
C2959 C2953 1.491 . S
C2959 C2958 1.400 . S
C2959 C2960 1.398 . S
C2960 H2948 0.950 . S
C2960 C2959 1.398 . S
C2960 C2961 1.391 . S
C2961 H2949 0.950 . S
C2961 C2957 1.393 . S
C2961 C2960 1.391 . S
H2962 C2970 0.950 . S
H2963 C2975 0.950 . S
H2964 C2972 0.950 . S
H2965 C2974 0.950 . S
H2966 C2976 0.950 . S
H2967 C2978 0.950 . S
H2968 C2980 0.950 . S
H2969 C2981 0.950 . S
C2970 H2962 0.950 . S
C2970 C2971 1.386 . S
C2970 C2972 1.391 . S
C2971 C2970 1.386 . S
C2971 C2975 1.393 . S
C2972 H2964 0.950 . S
C2972 C2970 1.391 . S
C2972 C2973 1.400 . S
C2973 C2972 1.400 . S
C2973 C2974 1.398 . S
C2973 C2979 1.491 . S
C2974 H2965 0.950 . S
C2974 C2973 1.398 . S
C2974 C2975 1.391 . S
C2975 H2963 0.950 . S
C2975 C2971 1.393 . S
C2975 C2974 1.391 . S
C2976 H2966 0.950 . S
C2976 C2977 1.386 . S
C2976 C2978 1.391 . S
C2977 C2976 1.386 . S
C2977 C2981 1.393 . S
C2978 H2967 0.950 . S
C2978 C2976 1.391 . S
C2978 C2979 1.400 . S
C2979 C2973 1.491 . S
C2979 C2978 1.400 . S
C2979 C2980 1.398 . S
C2980 H2968 0.950 . S
C2980 C2979 1.398 . S
C2980 C2981 1.391 . S
C2981 H2969 0.950 . S
C2981 C2977 1.393 . S
C2981 C2980 1.391 . S
H2982 C2990 0.950 . S
H2983 C2995 0.950 1_655 S
H2984 C2992 0.950 . S
H2985 C2994 0.962 . S
H2986 C2996 0.950 . S
H2987 C2998 0.950 . S
H2988 C3000 0.950 . S
H2989 C3001 0.950 . S
C2990 H2982 0.950 . S
C2990 C2991 1.386 . S
C2990 C2992 1.391 . S
C2991 C2990 1.386 . S
C2991 C2995 1.393 . S
C2992 H2984 0.950 . S
C2992 C2990 1.391 . S
C2992 C2993 1.400 . S
C2993 C2992 1.400 . S
C2993 C2994 1.396 1_455 S
C2993 C2999 1.491 . S
C2994 H2985 0.962 . S
C2994 C2993 1.396 1_655 S
C2994 C2995 1.382 1_655 S
C2995 H2983 0.950 1_455 S
C2995 C2991 1.393 . S
C2995 C2994 1.382 1_455 S
C2996 H2986 0.950 . S
C2996 C2997 1.386 1_655 S
C2996 C2998 1.391 . S
C2997 C2996 1.386 1_455 S
C2997 C3001 1.393 . S
C2998 H2987 0.950 . S
C2998 C2996 1.391 . S
C2998 C2999 1.400 1_655 S
C2999 C2993 1.491 . S
C2999 C2998 1.400 1_455 S
C2999 C3000 1.398 . S
C3000 H2988 0.950 . S
C3000 C2999 1.398 . S
C3000 C3001 1.391 . S
C3001 H2989 0.950 . S
C3001 C2997 1.393 . S
C3001 C3000 1.391 . S
H3002 C3010 0.950 . S
H3003 C3015 0.950 . S
H3004 C3012 0.950 . S
H3005 C3014 0.950 . S
H3006 C3016 0.950 . S
H3007 C3018 0.950 . S
H3008 C3020 0.950 . S
H3009 C3021 0.950 . S
C3010 H3002 0.950 . S
C3010 C3011 1.386 . S
C3010 C3012 1.391 . S
C3011 C3010 1.386 . S
C3011 C3015 1.393 . S
C3012 H3004 0.950 . S
C3012 C3010 1.391 . S
C3012 C3013 1.400 . S
C3013 C3012 1.400 . S
C3013 C3014 1.398 . S
C3013 C3019 1.491 . S
C3014 H3005 0.950 . S
C3014 C3013 1.398 . S
C3014 C3015 1.391 . S
C3015 H3003 0.950 . S
C3015 C3011 1.393 . S
C3015 C3014 1.391 . S
C3016 H3006 0.950 . S
C3016 C3017 1.386 . S
C3016 C3018 1.391 . S
C3017 C3016 1.386 . S
C3017 C3021 1.393 . S
C3018 H3007 0.950 . S
C3018 C3016 1.391 . S
C3018 C3019 1.400 . S
C3019 C3013 1.491 . S
C3019 C3018 1.400 . S
C3019 C3020 1.398 . S
C3020 H3008 0.950 . S
C3020 C3019 1.398 . S
C3020 C3021 1.391 . S
C3021 H3009 0.950 . S
C3021 C3017 1.393 . S
C3021 C3020 1.391 . S
H3022 C3030 0.943 . S
H3023 C3035 0.950 . S
H3024 C3032 0.950 . S
H3025 C3034 0.950 . S
H3026 C3036 0.950 . S
H3027 C3038 0.950 . S
H3028 C3040 0.950 . S
H3029 C3041 0.950 . S
C3030 H3022 0.943 . S
C3030 C3031 1.389 1_545 S
C3030 C3032 1.394 . S
C3031 C3030 1.389 1_565 S
C3031 C3035 1.393 . S
C3032 H3024 0.950 . S
C3032 C3030 1.394 . S
C3032 C3033 1.400 1_545 S
C3033 C3032 1.400 1_565 S
C3033 C3034 1.398 . S
C3033 C3039 1.491 . S
C3034 H3025 0.950 . S
C3034 C3033 1.398 . S
C3034 C3035 1.391 . S
C3035 H3023 0.950 . S
C3035 C3031 1.393 . S
C3035 C3034 1.391 . S
C3036 H3026 0.950 . S
C3036 C3037 1.386 . S
C3036 C3038 1.391 . S
C3037 C3036 1.386 . S
C3037 C3041 1.393 1_565 S
C3038 H3027 0.950 . S
C3038 C3036 1.391 . S
C3038 C3039 1.400 . S
C3039 C3033 1.491 . S
C3039 C3038 1.400 . S
C3039 C3040 1.398 1_565 S
C3040 H3028 0.950 . S
C3040 C3039 1.398 1_545 S
C3040 C3041 1.391 . S
C3041 H3029 0.950 . S
C3041 C3037 1.393 1_545 S
C3041 C3040 1.391 . S
H3042 C3050 0.950 1_545 S
H3043 C3055 0.950 . S
H3044 C3052 0.955 1_545 S
H3045 C3054 0.950 . S
H3046 C3056 0.950 . S
H3047 C3058 0.950 . S
H3048 C3060 0.950 . S
H3049 C3061 0.950 . S
C3050 H3042 0.950 1_565 S
C3050 C3051 1.386 . S
C3050 C3052 1.388 . S
C3051 C3050 1.386 . S
C3051 C3055 1.393 . S
C3052 H3044 0.955 1_565 S
C3052 C3050 1.388 . S
C3052 C3053 1.399 . S
C3053 C3052 1.399 . S
C3053 C3054 1.398 . S
C3053 C3059 1.491 . S
C3054 H3045 0.950 . S
C3054 C3053 1.398 . S
C3054 C3055 1.391 . S
C3055 H3043 0.950 . S
C3055 C3051 1.393 . S
C3055 C3054 1.391 . S
C3056 H3046 0.950 . S
C3056 C3057 1.386 . S
C3056 C3058 1.391 . S
C3057 C3056 1.386 . S
C3057 C3061 1.393 1_565 S
C3058 H3047 0.950 . S
C3058 C3056 1.391 . S
C3058 C3059 1.400 . S
C3059 C3053 1.491 . S
C3059 C3058 1.400 . S
C3059 C3060 1.398 1_565 S
C3060 H3048 0.950 . S
C3060 C3059 1.398 1_545 S
C3060 C3061 1.391 . S
C3061 H3049 0.950 . S
C3061 C3057 1.393 1_545 S
C3061 C3060 1.391 . S
H3062 C3070 0.950 . S
H3063 C3075 0.950 . S
H3064 C3072 0.952 . S
H3065 C3074 0.950 . S
H3066 C3076 0.950 . S
H3067 C3078 0.950 . S
H3068 C3080 0.950 . S
H3069 C3081 0.950 . S
C3070 H3062 0.950 . S
C3070 C3071 1.386 . S
C3070 C3072 1.391 . S
C3071 C3070 1.386 . S
C3071 C3075 1.393 . S
C3072 H3064 0.952 . S
C3072 C3070 1.391 . S
C3072 C3073 1.400 . S
C3073 C3072 1.400 . S
C3073 C3074 1.398 . S
C3073 C3079 1.491 . S
C3074 H3065 0.950 . S
C3074 C3073 1.398 . S
C3074 C3075 1.391 . S
C3075 H3063 0.950 . S
C3075 C3071 1.393 . S
C3075 C3074 1.391 . S
C3076 H3066 0.950 . S
C3076 C3077 1.408 . S
C3076 C3078 1.391 . S
C3077 C3076 1.408 . S
C3077 C3081 1.345 1_455 S
C3078 H3067 0.950 . S
C3078 C3076 1.391 . S
C3078 C3079 1.400 . S
C3079 C3073 1.491 . S
C3079 C3078 1.400 . S
C3079 C3080 1.398 1_455 S
C3080 H3068 0.950 . S
C3080 C3079 1.398 1_655 S
C3080 C3081 1.391 . S
C3081 H3069 0.950 . S
C3081 C3077 1.345 1_655 S
C3081 C3080 1.391 . S
H3082 C3090 0.950 . S
H3083 C3095 0.950 . S
H3084 C3092 0.950 . S
H3085 C3094 0.950 . S
H3086 C3096 0.950 . S
H3087 C3098 0.950 . S
H3088 C3100 0.950 . S
H3089 C3101 0.950 . S
C3090 H3082 0.950 . S
C3090 C3091 1.386 . S
C3090 C3092 1.391 . S
C3091 C3090 1.386 . S
C3091 C3095 1.393 . S
C3092 H3084 0.950 . S
C3092 C3090 1.391 . S
C3092 C3093 1.400 . S
C3093 C3092 1.400 . S
C3093 C3094 1.398 . S
C3093 C3099 1.491 . S
C3094 H3085 0.950 . S
C3094 C3093 1.398 . S
C3094 C3095 1.391 . S
C3095 H3083 0.950 . S
C3095 C3091 1.393 . S
C3095 C3094 1.391 . S
C3096 H3086 0.950 . S
C3096 C3097 1.386 . S
C3096 C3098 1.391 . S
C3097 C3096 1.386 . S
C3097 C3101 1.393 . S
C3098 H3087 0.950 . S
C3098 C3096 1.391 . S
C3098 C3099 1.400 . S
C3099 C3093 1.491 . S
C3099 C3098 1.400 . S
C3099 C3100 1.398 . S
C3100 H3088 0.950 . S
C3100 C3099 1.398 . S
C3100 C3101 1.391 . S
C3101 H3089 0.950 . S
C3101 C3097 1.393 . S
C3101 C3100 1.391 . S
H3102 C3110 0.950 . S
H3103 C3115 0.950 . S
H3104 C3112 0.950 . S
H3105 C3114 0.950 . S
H3106 C3116 0.950 . S
H3107 C3118 0.950 . S
H3108 C3120 0.950 . S
H3109 C3121 0.950 . S
C3110 H3102 0.950 . S
C3110 C3111 1.386 . S
C3110 C3112 1.391 . S
C3111 C3110 1.386 . S
C3111 C3115 1.393 . S
C3112 H3104 0.950 . S
C3112 C3110 1.391 . S
C3112 C3113 1.400 . S
C3113 C3112 1.400 . S
C3113 C3114 1.398 . S
C3113 C3119 1.491 . S
C3114 H3105 0.950 . S
C3114 C3113 1.398 . S
C3114 C3115 1.391 . S
C3115 H3103 0.950 . S
C3115 C3111 1.393 . S
C3115 C3114 1.391 . S
C3116 H3106 0.950 . S
C3116 C3117 1.386 . S
C3116 C3118 1.391 . S
C3117 C3116 1.386 . S
C3117 C3121 1.393 . S
C3118 H3107 0.950 . S
C3118 C3116 1.391 . S
C3118 C3119 1.400 . S
C3119 C3113 1.491 . S
C3119 C3118 1.400 . S
C3119 C3120 1.398 . S
C3120 H3108 0.950 . S
C3120 C3119 1.398 . S
C3120 C3121 1.391 . S
C3121 H3109 0.950 . S
C3121 C3117 1.393 . S
C3121 C3120 1.391 . S
H3122 C3130 0.950 . S
H3123 C3135 0.950 . S
H3124 C3132 0.950 . S
H3125 C3134 0.950 . S
H3126 C3136 0.950 . S
H3127 C3138 0.950 . S
H3128 C3140 0.950 . S
H3129 C3141 0.950 . S
C3130 H3122 0.950 . S
C3130 C3131 1.386 . S
C3130 C3132 1.391 . S
C3131 C3130 1.386 . S
C3131 C3135 1.393 . S
C3132 H3124 0.950 . S
C3132 C3130 1.391 . S
C3132 C3133 1.400 . S
C3133 C3132 1.400 . S
C3133 C3134 1.398 . S
C3133 C3139 1.491 . S
C3134 H3125 0.950 . S
C3134 C3133 1.398 . S
C3134 C3135 1.391 . S
C3135 H3123 0.950 . S
C3135 C3131 1.393 . S
C3135 C3134 1.391 . S
C3136 H3126 0.950 . S
C3136 C3137 1.386 . S
C3136 C3138 1.391 . S
C3137 C3136 1.386 . S
C3137 C3141 1.393 . S
C3138 H3127 0.950 . S
C3138 C3136 1.391 . S
C3138 C3139 1.400 . S
C3139 C3133 1.491 . S
C3139 C3138 1.400 . S
C3139 C3140 1.398 . S
C3140 H3128 0.950 . S
C3140 C3139 1.398 . S
C3140 C3141 1.391 . S
C3141 H3129 0.950 . S
C3141 C3137 1.393 . S
C3141 C3140 1.391 . S
H3142 C3150 0.950 . S
H3143 C3155 0.950 . S
H3144 C3152 0.950 . S
H3145 C3154 0.950 . S
H3146 C3156 0.950 . S
H3147 C3158 0.950 . S
H3148 C3160 0.950 . S
H3149 C3161 0.950 . S
C3150 H3142 0.950 . S
C3150 C3151 1.386 . S
C3150 C3152 1.391 . S
C3151 C3150 1.386 . S
C3151 C3155 1.393 . S
C3152 H3144 0.950 . S
C3152 C3150 1.391 . S
C3152 C3153 1.400 . S
C3153 C3152 1.400 . S
C3153 C3154 1.398 . S
C3153 C3159 1.491 . S
C3154 H3145 0.950 . S
C3154 C3153 1.398 . S
C3154 C3155 1.391 . S
C3155 H3143 0.950 . S
C3155 C3151 1.393 . S
C3155 C3154 1.391 . S
C3156 H3146 0.950 . S
C3156 C3157 1.386 . S
C3156 C3158 1.391 . S
C3157 C3156 1.386 . S
C3157 C3161 1.393 . S
C3158 H3147 0.950 . S
C3158 C3156 1.391 . S
C3158 C3159 1.400 . S
C3159 C3153 1.491 . S
C3159 C3158 1.400 . S
C3159 C3160 1.398 . S
C3160 H3148 0.950 . S
C3160 C3159 1.398 . S
C3160 C3161 1.391 . S
C3161 H3149 0.950 . S
C3161 C3157 1.393 . S
C3161 C3160 1.391 . S
H3162 C3170 0.950 . S
H3163 C3175 0.950 1_565 S
H3164 C3172 0.950 . S
H3165 C3174 0.950 1_565 S
H3166 C3176 0.950 . S
H3167 C3178 0.950 . S
H3168 C3180 0.950 . S
H3169 C3181 0.950 . S
C3170 H3162 0.950 . S
C3170 C3171 1.386 . S
C3170 C3172 1.391 . S
C3171 C3170 1.386 . S
C3171 C3175 1.393 . S
C3172 H3164 0.950 . S
C3172 C3170 1.391 . S
C3172 C3173 1.400 . S
C3173 C3172 1.400 . S
C3173 C3174 1.398 . S
C3173 C3179 1.491 . S
C3174 H3165 0.950 1_545 S
C3174 C3173 1.398 . S
C3174 C3175 1.391 . S
C3175 H3163 0.950 1_545 S
C3175 C3171 1.393 . S
C3175 C3174 1.391 . S
C3176 H3166 0.950 . S
C3176 C3177 1.386 1_565 S
C3176 C3178 1.391 . S
C3177 C3176 1.386 1_545 S
C3177 C3181 1.393 . S
C3178 H3167 0.950 . S
C3178 C3176 1.391 . S
C3178 C3179 1.400 1_565 S
C3179 C3173 1.491 . S
C3179 C3178 1.400 1_545 S
C3179 C3180 1.398 . S
C3180 H3168 0.950 . S
C3180 C3179 1.398 . S
C3180 C3181 1.391 . S
C3181 H3169 0.950 . S
C3181 C3177 1.393 . S
C3181 C3180 1.391 . S
H3182 C3190 0.945 . S
H3183 C3195 0.950 . S
H3184 C3192 0.950 . S
H3185 C3194 0.950 . S
H3186 C3196 0.950 . S
H3187 C3198 0.950 . S
H3188 C3200 0.950 . S
H3189 C3201 0.950 . S
C3190 H3182 0.945 . S
C3190 C3191 1.388 1_455 S
C3190 C3192 1.393 . S
C3191 C3190 1.388 1_655 S
C3191 C3195 1.393 . S
C3192 H3184 0.950 . S
C3192 C3190 1.393 . S
C3192 C3193 1.400 1_455 S
C3193 C3192 1.400 1_655 S
C3193 C3194 1.398 . S
C3193 C3199 1.491 . S
C3194 H3185 0.950 . S
C3194 C3193 1.398 . S
C3194 C3195 1.391 . S
C3195 H3183 0.950 . S
C3195 C3191 1.393 . S
C3195 C3194 1.391 . S
C3196 H3186 0.950 . S
C3196 C3197 1.386 . S
C3196 C3198 1.391 . S
C3197 C3196 1.386 . S
C3197 C3201 1.393 1_655 S
C3198 H3187 0.950 . S
C3198 C3196 1.391 . S
C3198 C3199 1.400 . S
C3199 C3193 1.491 . S
C3199 C3198 1.400 . S
C3199 C3200 1.398 1_655 S
C3200 H3188 0.950 . S
C3200 C3199 1.398 1_455 S
C3200 C3201 1.391 . S
C3201 H3189 0.950 . S
C3201 C3197 1.393 1_455 S
C3201 C3200 1.391 . S
H3202 C3210 0.950 . S
H3203 C3215 0.950 . S
H3204 C3212 0.950 . S
H3205 C3214 0.950 . S
H3206 C3216 0.950 . S
H3207 C3218 0.950 . S
H3208 C3220 0.950 . S
H3209 C3221 0.950 . S
C3210 H3202 0.950 . S
C3210 C3211 1.386 . S
C3210 C3212 1.391 . S
C3211 C3210 1.386 . S
C3211 C3215 1.393 . S
C3212 H3204 0.950 . S
C3212 C3210 1.391 . S
C3212 C3213 1.400 . S
C3213 C3212 1.400 . S
C3213 C3214 1.398 . S
C3213 C3219 1.491 . S
C3214 H3205 0.950 . S
C3214 C3213 1.398 . S
C3214 C3215 1.391 . S
C3215 H3203 0.950 . S
C3215 C3211 1.393 . S
C3215 C3214 1.391 . S
C3216 H3206 0.950 . S
C3216 C3217 1.386 . S
C3216 C3218 1.391 . S
C3217 C3216 1.386 . S
C3217 C3221 1.393 . S
C3218 H3207 0.950 . S
C3218 C3216 1.391 . S
C3218 C3219 1.400 . S
C3219 C3213 1.491 . S
C3219 C3218 1.400 . S
C3219 C3220 1.398 . S
C3220 H3208 0.950 . S
C3220 C3219 1.398 . S
C3220 C3221 1.391 . S
C3221 H3209 0.950 . S
C3221 C3217 1.393 . S
C3221 C3220 1.391 . S
H3222 C3230 0.950 . S
H3223 C3235 0.950 . S
H3224 C3232 0.950 . S
H3225 C3234 0.950 . S
H3226 C3236 0.950 . S
H3227 C3238 0.950 . S
H3228 C3240 0.950 . S
H3229 C3241 0.950 . S
C3230 H3222 0.950 . S
C3230 C3231 1.386 . S
C3230 C3232 1.391 . S
C3231 C3230 1.386 . S
C3231 C3235 1.393 . S
C3232 H3224 0.950 . S
C3232 C3230 1.391 . S
C3232 C3233 1.400 . S
C3233 C3232 1.400 . S
C3233 C3234 1.398 . S
C3233 C3239 1.491 . S
C3234 H3225 0.950 . S
C3234 C3233 1.398 . S
C3234 C3235 1.391 . S
C3235 H3223 0.950 . S
C3235 C3231 1.393 . S
C3235 C3234 1.391 . S
C3236 H3226 0.950 . S
C3236 C3237 1.386 . S
C3236 C3238 1.391 . S
C3237 C3236 1.386 . S
C3237 C3241 1.393 . S
C3238 H3227 0.950 . S
C3238 C3236 1.391 . S
C3238 C3239 1.400 . S
C3239 C3233 1.491 . S
C3239 C3238 1.400 . S
C3239 C3240 1.398 . S
C3240 H3228 0.950 . S
C3240 C3239 1.398 . S
C3240 C3241 1.391 . S
C3241 H3229 0.950 . S
C3241 C3237 1.393 . S
C3241 C3240 1.391 . S
H3242 C3250 0.950 . S
H3243 C3255 0.950 . S
H3244 C3252 0.950 . S
H3245 C3254 0.950 . S
H3246 C3256 0.950 . S
H3247 C3258 0.950 . S
H3248 C3260 0.950 . S
H3249 C3261 0.950 . S
C3250 H3242 0.950 . S
C3250 C3251 1.386 . S
C3250 C3252 1.391 . S
C3251 C3250 1.386 . S
C3251 C3255 1.393 . S
C3252 H3244 0.950 . S
C3252 C3250 1.391 . S
C3252 C3253 1.400 . S
C3253 C3252 1.400 . S
C3253 C3254 1.398 . S
C3253 C3259 1.491 . S
C3254 H3245 0.950 . S
C3254 C3253 1.398 . S
C3254 C3255 1.391 . S
C3255 H3243 0.950 . S
C3255 C3251 1.393 . S
C3255 C3254 1.391 . S
C3256 H3246 0.950 . S
C3256 C3257 1.386 . S
C3256 C3258 1.391 . S
C3257 C3256 1.386 . S
C3257 C3261 1.393 . S
C3258 H3247 0.950 . S
C3258 C3256 1.391 . S
C3258 C3259 1.400 . S
C3259 C3253 1.491 . S
C3259 C3258 1.400 . S
C3259 C3260 1.398 . S
C3260 H3248 0.950 . S
C3260 C3259 1.398 . S
C3260 C3261 1.391 . S
C3261 H3249 0.950 . S
C3261 C3257 1.393 . S
C3261 C3260 1.391 . S
H3262 C3270 0.950 . S
H3263 C3275 0.950 . S
H3264 C3272 0.950 . S
H3265 C3274 0.950 . S
H3266 C3276 0.950 . S
H3267 C3278 0.950 . S
H3268 C3280 0.950 . S
H3269 C3281 0.950 . S
C3270 H3262 0.950 . S
C3270 C3271 1.386 . S
C3270 C3272 1.391 . S
C3271 C3270 1.386 . S
C3271 C3275 1.393 . S
C3272 H3264 0.950 . S
C3272 C3270 1.391 . S
C3272 C3273 1.400 . S
C3273 C3272 1.400 . S
C3273 C3274 1.398 . S
C3273 C3279 1.491 . S
C3274 H3265 0.950 . S
C3274 C3273 1.398 . S
C3274 C3275 1.391 . S
C3275 H3263 0.950 . S
C3275 C3271 1.393 . S
C3275 C3274 1.391 . S
C3276 H3266 0.950 . S
C3276 C3277 1.386 . S
C3276 C3278 1.391 . S
C3277 C3276 1.386 . S
C3277 C3281 1.393 . S
C3278 H3267 0.950 . S
C3278 C3276 1.391 . S
C3278 C3279 1.400 . S
C3279 C3273 1.491 . S
C3279 C3278 1.400 . S
C3279 C3280 1.398 . S
C3280 H3268 0.950 . S
C3280 C3279 1.398 . S
C3280 C3281 1.391 . S
C3281 H3269 0.950 . S
C3281 C3277 1.393 . S
C3281 C3280 1.391 . S
H3282 C3290 0.950 . S
H3283 C3295 0.950 . S
H3284 C3292 0.950 . S
H3285 C3294 0.950 . S
H3286 C3296 0.950 . S
H3287 C3298 0.950 . S
H3288 C3300 0.950 . S
H3289 C3301 0.950 . S
C3290 H3282 0.950 . S
C3290 C3291 1.386 . S
C3290 C3292 1.391 . S
C3291 C3290 1.386 . S
C3291 C3295 1.393 . S
C3292 H3284 0.950 . S
C3292 C3290 1.391 . S
C3292 C3293 1.400 . S
C3293 C3292 1.400 . S
C3293 C3294 1.398 . S
C3293 C3299 1.491 . S
C3294 H3285 0.950 . S
C3294 C3293 1.398 . S
C3294 C3295 1.391 . S
C3295 H3283 0.950 . S
C3295 C3291 1.393 . S
C3295 C3294 1.391 . S
C3296 H3286 0.950 . S
C3296 C3297 1.386 . S
C3296 C3298 1.391 . S
C3297 C3296 1.386 . S
C3297 C3301 1.393 . S
C3298 H3287 0.950 . S
C3298 C3296 1.391 . S
C3298 C3299 1.400 . S
C3299 C3293 1.491 . S
C3299 C3298 1.400 . S
C3299 C3300 1.398 . S
C3300 H3288 0.950 . S
C3300 C3299 1.398 . S
C3300 C3301 1.391 . S
C3301 H3289 0.950 . S
C3301 C3297 1.393 . S
C3301 C3300 1.391 . S
H3302 C3310 0.950 . S
H3303 C3315 0.950 . S
H3304 C3312 0.950 . S
H3305 C3314 0.950 . S
H3306 C3316 0.950 . S
H3307 C3318 0.950 . S
H3308 C3320 0.950 . S
H3309 C3321 0.950 . S
C3310 H3302 0.950 . S
C3310 C3311 1.386 . S
C3310 C3312 1.391 . S
C3311 C3310 1.386 . S
C3311 C3315 1.393 . S
C3312 H3304 0.950 . S
C3312 C3310 1.391 . S
C3312 C3313 1.400 . S
C3313 C3312 1.400 . S
C3313 C3314 1.398 . S
C3313 C3319 1.491 . S
C3314 H3305 0.950 . S
C3314 C3313 1.398 . S
C3314 C3315 1.391 . S
C3315 H3303 0.950 . S
C3315 C3311 1.393 . S
C3315 C3314 1.391 . S
C3316 H3306 0.950 . S
C3316 C3317 1.386 . S
C3316 C3318 1.391 . S
C3317 C3316 1.386 . S
C3317 C3321 1.393 . S
C3318 H3307 0.950 . S
C3318 C3316 1.391 . S
C3318 C3319 1.400 . S
C3319 C3313 1.491 . S
C3319 C3318 1.400 . S
C3319 C3320 1.398 . S
C3320 H3308 0.950 . S
C3320 C3319 1.398 . S
C3320 C3321 1.391 . S
C3321 H3309 0.950 . S
C3321 C3317 1.393 . S
C3321 C3320 1.391 . S
H3322 C3330 0.950 . S
H3323 C3335 0.950 . S
H3324 C3332 0.950 . S
H3325 C3334 0.950 . S
H3326 C3336 0.950 . S
H3327 C3338 0.950 . S
H3328 C3340 0.950 . S
H3329 C3341 0.950 . S
C3330 H3322 0.950 . S
C3330 C3331 1.386 . S
C3330 C3332 1.391 . S
C3331 C3330 1.386 . S
C3331 C3335 1.393 . S
C3332 H3324 0.950 . S
C3332 C3330 1.391 . S
C3332 C3333 1.400 . S
C3333 C3332 1.400 . S
C3333 C3334 1.398 . S
C3333 C3339 1.491 . S
C3334 H3325 0.950 . S
C3334 C3333 1.398 . S
C3334 C3335 1.391 . S
C3335 H3323 0.950 . S
C3335 C3331 1.393 . S
C3335 C3334 1.391 . S
C3336 H3326 0.950 . S
C3336 C3337 1.386 . S
C3336 C3338 1.391 . S
C3337 C3336 1.386 . S
C3337 C3341 1.393 . S
C3338 H3327 0.950 . S
C3338 C3336 1.391 . S
C3338 C3339 1.400 . S
C3339 C3333 1.491 . S
C3339 C3338 1.400 . S
C3339 C3340 1.398 . S
C3340 H3328 0.950 . S
C3340 C3339 1.398 . S
C3340 C3341 1.391 . S
C3341 H3329 0.950 . S
C3341 C3337 1.393 . S
C3341 C3340 1.391 . S
H3342 C3350 0.950 . S
H3343 C3355 0.950 . S
H3344 C3352 0.950 . S
H3345 C3354 0.950 . S
H3346 C3356 0.950 . S
H3347 C3358 0.950 . S
H3348 C3360 0.950 . S
H3349 C3361 0.950 . S
C3350 H3342 0.950 . S
C3350 C3351 1.386 . S
C3350 C3352 1.391 . S
C3351 C3350 1.386 . S
C3351 C3355 1.393 1_655 S
C3352 H3344 0.950 . S
C3352 C3350 1.391 . S
C3352 C3353 1.400 . S
C3353 C3352 1.400 . S
C3353 C3354 1.398 1_655 S
C3353 C3359 1.491 . S
C3354 H3345 0.950 . S
C3354 C3353 1.398 1_455 S
C3354 C3355 1.391 . S
C3355 H3343 0.950 . S
C3355 C3351 1.393 1_455 S
C3355 C3354 1.391 . S
C3356 H3346 0.950 . S
C3356 C3357 1.386 1_455 S
C3356 C3358 1.391 . S
C3357 C3356 1.386 1_655 S
C3357 C3361 1.393 . S
C3358 H3347 0.950 . S
C3358 C3356 1.391 . S
C3358 C3359 1.400 1_455 S
C3359 C3353 1.491 . S
C3359 C3358 1.400 1_655 S
C3359 C3360 1.398 . S
C3360 H3348 0.950 . S
C3360 C3359 1.398 . S
C3360 C3361 1.391 . S
C3361 H3349 0.950 . S
C3361 C3357 1.393 . S
C3361 C3360 1.391 . S
H3362 C3370 0.950 . S
H3363 C3375 0.950 . S
H3364 C3372 0.950 . S
H3365 C3374 0.950 . S
H3366 C3376 0.950 . S
H3367 C3378 0.950 . S
H3368 C3380 0.950 . S
H3369 C3381 0.950 . S
C3370 H3362 0.950 . S
C3370 C3371 1.386 . S
C3370 C3372 1.391 . S
C3371 C3370 1.386 . S
C3371 C3375 1.393 . S
C3372 H3364 0.950 . S
C3372 C3370 1.391 . S
C3372 C3373 1.400 . S
C3373 C3372 1.400 . S
C3373 C3374 1.398 . S
C3373 C3379 1.491 . S
C3374 H3365 0.950 . S
C3374 C3373 1.398 . S
C3374 C3375 1.391 . S
C3375 H3363 0.950 . S
C3375 C3371 1.393 . S
C3375 C3374 1.391 . S
C3376 H3366 0.950 . S
C3376 C3377 1.386 . S
C3376 C3378 1.391 . S
C3377 C3376 1.386 . S
C3377 C3381 1.393 . S
C3378 H3367 0.950 . S
C3378 C3376 1.391 . S
C3378 C3379 1.400 . S
C3379 C3373 1.491 . S
C3379 C3378 1.400 . S
C3379 C3380 1.398 . S
C3380 H3368 0.950 . S
C3380 C3379 1.398 . S
C3380 C3381 1.391 . S
C3381 H3369 0.950 . S
C3381 C3377 1.393 . S
C3381 C3380 1.391 . S
H3382 C3390 0.950 . S
H3383 C3395 0.950 . S
H3384 C3392 0.950 . S
H3385 C3394 0.950 . S
H3386 C3396 0.942 . S
H3387 C3398 0.950 . S
H3388 C3400 0.950 . S
H3389 C3401 0.950 . S
C3390 H3382 0.950 . S
C3390 C3391 1.386 . S
C3390 C3392 1.391 . S
C3391 C3390 1.386 . S
C3391 C3395 1.393 . S
C3392 H3384 0.950 . S
C3392 C3390 1.391 . S
C3392 C3393 1.400 . S
C3393 C3392 1.400 . S
C3393 C3394 1.398 . S
C3393 C3399 1.491 . S
C3394 H3385 0.950 . S
C3394 C3393 1.398 . S
C3394 C3395 1.391 . S
C3395 H3383 0.950 . S
C3395 C3391 1.393 . S
C3395 C3394 1.391 . S
C3396 H3386 0.942 . S
C3396 C3397 1.385 . S
C3396 C3398 1.391 . S
C3397 C3396 1.385 . S
C3397 C3401 1.369 . S
C3398 H3387 0.950 . S
C3398 C3396 1.391 . S
C3398 C3399 1.400 . S
C3399 C3393 1.491 . S
C3399 C3398 1.400 . S
C3399 C3400 1.398 . S
C3400 H3388 0.950 . S
C3400 C3399 1.398 . S
C3400 C3401 1.391 . S
C3401 H3389 0.950 . S
C3401 C3397 1.369 . S
C3401 C3400 1.391 . S
C1971 C49 1.703 . S
C1977 C1790 1.654 1_655 S
C1991 C137 1.689 . S
C1997 C1803 1.650 . S
C2017 C1832 1.622 1_545 S
C2011 C205 1.692 . S
C2031 C196 1.684 . S
C2037 C1845 1.637 . S
C2051 C57 1.692 . S
C2057 C1866 1.648 . S
C2071 C145 1.682 . S
C2077 C1895 1.613 . S
C2091 C313 1.702 . S
C2097 C1874 1.633 . S
C2117 C1887 1.628 . S
C2111 C401 1.675 . S
C2137 C1853 1.646 . S
C2131 C489 1.705 . S
C2151 C469 1.684 . S
C2157 C1824 1.642 1_545 S
C2177 C1782 1.680 1_655 S
C2171 C293 1.699 . S
C2191 C381 1.676 . S
C2197 C1811 1.615 . S
C2211 C577 1.719 . S
C2217 C1916 1.648 . S
C2231 C645 1.704 . S
C2237 C1929 1.668 . S
C2257 C1958 1.595 . S
C2251 C733 1.687 . S
C2271 C724 1.678 . S
C2277 C1593 1.637 . S
C2291 C585 1.717 . S
C2297 C1614 1.680 . S
C2311 C636 1.723 . S
C2317 C1643 1.635 . S
C2331 C841 1.696 . S
C2337 C1622 1.647 . S
C2351 C937 1.717 . S
C2357 C1635 1.650 . S
C2377 C1601 1.652 . S
C2371 C1025 1.702 . S
C2397 C1950 1.651 . S
C2391 C988 1.698 . S
C2417 C1908 1.604 . S
C2411 C821 1.675 . S
C2437 C1937 1.631 . S
C2431 C900 1.689 . S
C2451 C1105 1.705 . S
C2457 C1664 1.642 . S
C2471 C1193 1.722 . S
C2477 C1677 1.686 . S
C2491 C1281 1.702 . S
C2497 C1706 1.637 . S
C2511 C1289 1.717 . S
C2517 C1719 1.683 . S
C2537 C1740 1.650 . S
C2531 C1113 1.689 . S
C2557 C1769 1.617 . S
C2551 C1201 1.697 . S
C2577 C1748 1.673 . S
C2571 C1369 1.723 . S
C2597 C1761 1.643 . S
C2591 C1457 1.697 . S
C2611 C1553 1.683 . S
C2617 C1727 1.635 . S
C2637 C1698 1.629 . S
C2631 C1516 1.671 . S
C2651 C1349 1.711 . S
C2657 C1656 1.658 . S
C2677 C1685 1.649 . S
C2671 C1437 1.705 . S
C2697 C1596 1.303 . S
C2691 C29 1.359 . S
C2711 C117 1.313 . S
C2717 C1617 1.201 . S
C2737 C1645 1.244 . S
C2731 C225 1.374 . S
C2757 C1666 1.244 . S
C2751 C233 1.341 . S
C2777 C1680 1.272 . S
C2771 C20 1.372 . S
C2797 C1708 1.224 . S
C2791 C108 1.318 . S
C2811 C321 1.397 . S
C2817 C1701 1.266 . S
C2831 C409 1.333 . S
C2837 C1659 1.184 . S
C2851 C497 1.403 . S
C2857 C1687 1.321 . S
C2871 C460 1.374 . S
C2877 C1624 1.329 . S
C2897 C1638 1.207 . S
C2891 C284 1.395 . S
C2911 C372 1.351 . S
C2917 C1603 1.255 . S
C2937 C1722 1.234 . S
C2931 C557 1.335 . S
C2951 C665 1.379 . S
C2957 C1743 1.301 . S
C2971 C753 1.389 . S
C2977 C1771 1.271 . S
C2997 C1792 1.153 . S
C2991 C761 1.211 . S
C3011 C548 1.316 . S
C3017 C1806 1.227 . S
C3031 C673 1.234 . S
C3037 C1834 1.134 . S
C3051 C849 1.242 . S
C3057 C1827 1.126 . S
C3071 C929 1.239 . S
C3077 C1785 1.179 . S
C3097 C1813 1.255 . S
C3091 C1017 1.351 . S
C3111 C997 1.343 . S
C3117 C1750 1.286 . S
C3131 C812 1.418 . S
C3137 C1764 1.242 . S
C3157 C1729 1.330 . S
C3151 C909 1.416 . S
C3177 C1848 1.101 1_545 S
C3171 C1085 1.228 . S
C3191 C1173 1.227 . S
C3197 C1869 1.116 1_655 S
C3211 C1261 1.315 . S
C3217 C1897 1.187 . S
C3237 C1918 1.201 . S
C3231 C1252 1.312 . S
C3257 C1932 1.293 . S
C3251 C1076 1.386 . S
C3271 C1164 1.389 . S
C3277 C1960 1.245 . S
C3291 C1377 1.367 . S
C3297 C1953 1.223 . S
C3311 C1465 1.410 . S
C3317 C1911 1.214 . S
C3337 C1939 1.347 . S
C3331 C1545 1.409 . S
C3357 C1876 1.133 1_655 S
C3351 C1525 1.225 . S
C3377 C1890 1.177 . S
C3371 C1340 1.352 . S
C3391 C1428 1.247 . S
C3397 C1855 1.175 1_545 S
