# Generated by pormake.
# Topology bpr, (3,3)-cn, num edge types: 1
# Building blocks:
#     Node 0, Type 0, BuildingBlock: WUSLED_clean_sbu_0, # of connection points: 3
#     Node 1, Type 0, BuildingBlock: WUSLED_clean_sbu_0, # of connection points: 3
#     Node 2, Type 0, BuildingBlock: WUSLED_clean_sbu_0, # of connection points: 3
#     Node 3, Type 0, BuildingBlock: WUSLED_clean_sbu_0, # of connection points: 3
#     Node 4, Type 0, BuildingBlock: WUSLED_clean_sbu_0, # of connection points: 3
#     Node 5, Type 0, BuildingBlock: WUSLED_clean_sbu_0, # of connection points: 3
#     Node 6, Type 0, BuildingBlock: WUSLED_clean_sbu_0, # of connection points: 3
#     Node 7, Type 0, BuildingBlock: WUSLED_clean_sbu_0, # of connection points: 3
#     Node 8, Type 0, BuildingBlock: WUSLED_clean_sbu_0, # of connection points: 3
#     Node 9, Type 0, BuildingBlock: WUSLED_clean_sbu_0, # of connection points: 3
#     Node 10, Type 0, BuildingBlock: WUSLED_clean_sbu_0, # of connection points: 3
#     Node 11, Type 0, BuildingBlock: WUSLED_clean_sbu_0, # of connection points: 3
#     Node 12, Type 0, BuildingBlock: WUSLED_clean_sbu_0, # of connection points: 3
#     Node 13, Type 0, BuildingBlock: WUSLED_clean_sbu_0, # of connection points: 3
#     Node 14, Type 0, BuildingBlock: WUSLED_clean_sbu_0, # of connection points: 3
#     Node 15, Type 0, BuildingBlock: WUSLED_clean_sbu_0, # of connection points: 3
#     Node 16, Type 0, BuildingBlock: WUSLED_clean_sbu_0, # of connection points: 3
#     Node 17, Type 0, BuildingBlock: WUSLED_clean_sbu_0, # of connection points: 3
#     Node 18, Type 0, BuildingBlock: WUSLED_clean_sbu_0, # of connection points: 3
#     Node 19, Type 0, BuildingBlock: WUSLED_clean_sbu_0, # of connection points: 3
#     Node 20, Type 0, BuildingBlock: WUSLED_clean_sbu_0, # of connection points: 3
#     Node 21, Type 0, BuildingBlock: WUSLED_clean_sbu_0, # of connection points: 3
#     Node 22, Type 0, BuildingBlock: WUSLED_clean_sbu_0, # of connection points: 3
#     Node 23, Type 0, BuildingBlock: WUSLED_clean_sbu_0, # of connection points: 3
#     Node 24, Type 0, BuildingBlock: WUSLED_clean_sbu_0, # of connection points: 3
#     Node 25, Type 0, BuildingBlock: WUSLED_clean_sbu_0, # of connection points: 3
#     Node 26, Type 0, BuildingBlock: WUSLED_clean_sbu_0, # of connection points: 3
#     Node 27, Type 0, BuildingBlock: WUSLED_clean_sbu_0, # of connection points: 3
#     Node 28, Type 0, BuildingBlock: WUSLED_clean_sbu_0, # of connection points: 3
#     Node 29, Type 0, BuildingBlock: WUSLED_clean_sbu_0, # of connection points: 3
#     Node 30, Type 0, BuildingBlock: WUSLED_clean_sbu_0, # of connection points: 3
#     Node 31, Type 0, BuildingBlock: WUSLED_clean_sbu_0, # of connection points: 3
#     Node 32, Type 0, BuildingBlock: WUSLED_clean_sbu_0, # of connection points: 3
#     Node 33, Type 0, BuildingBlock: WUSLED_clean_sbu_0, # of connection points: 3
#     Node 34, Type 0, BuildingBlock: WUSLED_clean_sbu_0, # of connection points: 3
#     Node 35, Type 0, BuildingBlock: WUSLED_clean_sbu_0, # of connection points: 3
#     Node 36, Type 0, BuildingBlock: WUSLED_clean_sbu_0, # of connection points: 3
#     Node 37, Type 0, BuildingBlock: WUSLED_clean_sbu_0, # of connection points: 3
#     Node 38, Type 0, BuildingBlock: WUSLED_clean_sbu_0, # of connection points: 3
#     Node 39, Type 0, BuildingBlock: WUSLED_clean_sbu_0, # of connection points: 3
#     Node 40, Type 0, BuildingBlock: WUSLED_clean_sbu_0, # of connection points: 3
#     Node 41, Type 0, BuildingBlock: WUSLED_clean_sbu_0, # of connection points: 3
#     Node 42, Type 0, BuildingBlock: WUSLED_clean_sbu_0, # of connection points: 3
#     Node 43, Type 0, BuildingBlock: WUSLED_clean_sbu_0, # of connection points: 3
#     Node 44, Type 0, BuildingBlock: WUSLED_clean_sbu_0, # of connection points: 3
#     Node 45, Type 0, BuildingBlock: WUSLED_clean_sbu_0, # of connection points: 3
#     Node 46, Type 0, BuildingBlock: WUSLED_clean_sbu_0, # of connection points: 3
#     Node 47, Type 0, BuildingBlock: WUSLED_clean_sbu_0, # of connection points: 3
#     Node 48, Type 1, BuildingBlock: ESEHIV_clean_linker_0, # of connection points: 3
#     Node 49, Type 1, BuildingBlock: ESEHIV_clean_linker_0, # of connection points: 3
#     Node 50, Type 1, BuildingBlock: ESEHIV_clean_linker_0, # of connection points: 3
#     Node 51, Type 1, BuildingBlock: ESEHIV_clean_linker_0, # of connection points: 3
#     Node 52, Type 1, BuildingBlock: ESEHIV_clean_linker_0, # of connection points: 3
#     Node 53, Type 1, BuildingBlock: ESEHIV_clean_linker_0, # of connection points: 3
#     Node 54, Type 1, BuildingBlock: ESEHIV_clean_linker_0, # of connection points: 3
#     Node 55, Type 1, BuildingBlock: ESEHIV_clean_linker_0, # of connection points: 3
#     Node 56, Type 1, BuildingBlock: ESEHIV_clean_linker_0, # of connection points: 3
#     Node 57, Type 1, BuildingBlock: ESEHIV_clean_linker_0, # of connection points: 3
#     Node 58, Type 1, BuildingBlock: ESEHIV_clean_linker_0, # of connection points: 3
#     Node 59, Type 1, BuildingBlock: ESEHIV_clean_linker_0, # of connection points: 3
#     Node 60, Type 1, BuildingBlock: ESEHIV_clean_linker_0, # of connection points: 3
#     Node 61, Type 1, BuildingBlock: ESEHIV_clean_linker_0, # of connection points: 3
#     Node 62, Type 1, BuildingBlock: ESEHIV_clean_linker_0, # of connection points: 3
#     Node 63, Type 1, BuildingBlock: ESEHIV_clean_linker_0, # of connection points: 3
#     Node 64, Type 1, BuildingBlock: ESEHIV_clean_linker_0, # of connection points: 3
#     Node 65, Type 1, BuildingBlock: ESEHIV_clean_linker_0, # of connection points: 3
#     Node 66, Type 1, BuildingBlock: ESEHIV_clean_linker_0, # of connection points: 3
#     Node 67, Type 1, BuildingBlock: ESEHIV_clean_linker_0, # of connection points: 3
#     Node 68, Type 1, BuildingBlock: ESEHIV_clean_linker_0, # of connection points: 3
#     Node 69, Type 1, BuildingBlock: ESEHIV_clean_linker_0, # of connection points: 3
#     Node 70, Type 1, BuildingBlock: ESEHIV_clean_linker_0, # of connection points: 3
#     Node 71, Type 1, BuildingBlock: ESEHIV_clean_linker_0, # of connection points: 3
#     Node 72, Type 1, BuildingBlock: ESEHIV_clean_linker_0, # of connection points: 3
#     Node 73, Type 1, BuildingBlock: ESEHIV_clean_linker_0, # of connection points: 3
#     Node 74, Type 1, BuildingBlock: ESEHIV_clean_linker_0, # of connection points: 3
#     Node 75, Type 1, BuildingBlock: ESEHIV_clean_linker_0, # of connection points: 3
#     Node 76, Type 1, BuildingBlock: ESEHIV_clean_linker_0, # of connection points: 3
#     Node 77, Type 1, BuildingBlock: ESEHIV_clean_linker_0, # of connection points: 3
#     Node 78, Type 1, BuildingBlock: ESEHIV_clean_linker_0, # of connection points: 3
#     Node 79, Type 1, BuildingBlock: ESEHIV_clean_linker_0, # of connection points: 3
#     Node 80, Type 1, BuildingBlock: ESEHIV_clean_linker_0, # of connection points: 3
#     Node 81, Type 1, BuildingBlock: ESEHIV_clean_linker_0, # of connection points: 3
#     Node 82, Type 1, BuildingBlock: ESEHIV_clean_linker_0, # of connection points: 3
#     Node 83, Type 1, BuildingBlock: ESEHIV_clean_linker_0, # of connection points: 3
#     Node 84, Type 1, BuildingBlock: ESEHIV_clean_linker_0, # of connection points: 3
#     Node 85, Type 1, BuildingBlock: ESEHIV_clean_linker_0, # of connection points: 3
#     Node 86, Type 1, BuildingBlock: ESEHIV_clean_linker_0, # of connection points: 3
#     Node 87, Type 1, BuildingBlock: ESEHIV_clean_linker_0, # of connection points: 3
#     Node 88, Type 1, BuildingBlock: ESEHIV_clean_linker_0, # of connection points: 3
#     Node 89, Type 1, BuildingBlock: ESEHIV_clean_linker_0, # of connection points: 3
#     Node 90, Type 1, BuildingBlock: ESEHIV_clean_linker_0, # of connection points: 3
#     Node 91, Type 1, BuildingBlock: ESEHIV_clean_linker_0, # of connection points: 3
#     Node 92, Type 1, BuildingBlock: ESEHIV_clean_linker_0, # of connection points: 3
#     Node 93, Type 1, BuildingBlock: ESEHIV_clean_linker_0, # of connection points: 3
#     Node 94, Type 1, BuildingBlock: ESEHIV_clean_linker_0, # of connection points: 3
#     Node 95, Type 1, BuildingBlock: ESEHIV_clean_linker_0, # of connection points: 3
#     Edge 96, Type (0, 1), BuildingBlock: UVAHIK_clean_linker_0, # of connection points: 2
#     Edge 97, Type (0, 1), BuildingBlock: UVAHIK_clean_linker_0, # of connection points: 2
#     Edge 98, Type (0, 1), BuildingBlock: UVAHIK_clean_linker_0, # of connection points: 2
#     Edge 99, Type (0, 1), BuildingBlock: UVAHIK_clean_linker_0, # of connection points: 2
#     Edge 100, Type (0, 1), BuildingBlock: UVAHIK_clean_linker_0, # of connection points: 2
#     Edge 101, Type (0, 1), BuildingBlock: UVAHIK_clean_linker_0, # of connection points: 2
#     Edge 102, Type (0, 1), BuildingBlock: UVAHIK_clean_linker_0, # of connection points: 2
#     Edge 103, Type (0, 1), BuildingBlock: UVAHIK_clean_linker_0, # of connection points: 2
#     Edge 104, Type (0, 1), BuildingBlock: UVAHIK_clean_linker_0, # of connection points: 2
#     Edge 105, Type (0, 1), BuildingBlock: UVAHIK_clean_linker_0, # of connection points: 2
#     Edge 106, Type (0, 1), BuildingBlock: UVAHIK_clean_linker_0, # of connection points: 2
#     Edge 107, Type (0, 1), BuildingBlock: UVAHIK_clean_linker_0, # of connection points: 2
#     Edge 108, Type (0, 1), BuildingBlock: UVAHIK_clean_linker_0, # of connection points: 2
#     Edge 109, Type (0, 1), BuildingBlock: UVAHIK_clean_linker_0, # of connection points: 2
#     Edge 110, Type (0, 1), BuildingBlock: UVAHIK_clean_linker_0, # of connection points: 2
#     Edge 111, Type (0, 1), BuildingBlock: UVAHIK_clean_linker_0, # of connection points: 2
#     Edge 112, Type (0, 1), BuildingBlock: UVAHIK_clean_linker_0, # of connection points: 2
#     Edge 113, Type (0, 1), BuildingBlock: UVAHIK_clean_linker_0, # of connection points: 2
#     Edge 114, Type (0, 1), BuildingBlock: UVAHIK_clean_linker_0, # of connection points: 2
#     Edge 115, Type (0, 1), BuildingBlock: UVAHIK_clean_linker_0, # of connection points: 2
#     Edge 116, Type (0, 1), BuildingBlock: UVAHIK_clean_linker_0, # of connection points: 2
#     Edge 117, Type (0, 1), BuildingBlock: UVAHIK_clean_linker_0, # of connection points: 2
#     Edge 118, Type (0, 1), BuildingBlock: UVAHIK_clean_linker_0, # of connection points: 2
#     Edge 119, Type (0, 1), BuildingBlock: UVAHIK_clean_linker_0, # of connection points: 2
#     Edge 120, Type (0, 1), BuildingBlock: UVAHIK_clean_linker_0, # of connection points: 2
#     Edge 121, Type (0, 1), BuildingBlock: UVAHIK_clean_linker_0, # of connection points: 2
#     Edge 122, Type (0, 1), BuildingBlock: UVAHIK_clean_linker_0, # of connection points: 2
#     Edge 123, Type (0, 1), BuildingBlock: UVAHIK_clean_linker_0, # of connection points: 2
#     Edge 124, Type (0, 1), BuildingBlock: UVAHIK_clean_linker_0, # of connection points: 2
#     Edge 125, Type (0, 1), BuildingBlock: UVAHIK_clean_linker_0, # of connection points: 2
#     Edge 126, Type (0, 1), BuildingBlock: UVAHIK_clean_linker_0, # of connection points: 2
#     Edge 127, Type (0, 1), BuildingBlock: UVAHIK_clean_linker_0, # of connection points: 2
#     Edge 128, Type (0, 1), BuildingBlock: UVAHIK_clean_linker_0, # of connection points: 2
#     Edge 129, Type (0, 1), BuildingBlock: UVAHIK_clean_linker_0, # of connection points: 2
#     Edge 130, Type (0, 1), BuildingBlock: UVAHIK_clean_linker_0, # of connection points: 2
#     Edge 131, Type (0, 1), BuildingBlock: UVAHIK_clean_linker_0, # of connection points: 2
#     Edge 132, Type (0, 1), BuildingBlock: UVAHIK_clean_linker_0, # of connection points: 2
#     Edge 133, Type (0, 1), BuildingBlock: UVAHIK_clean_linker_0, # of connection points: 2
#     Edge 134, Type (0, 1), BuildingBlock: UVAHIK_clean_linker_0, # of connection points: 2
#     Edge 135, Type (0, 1), BuildingBlock: UVAHIK_clean_linker_0, # of connection points: 2
#     Edge 136, Type (0, 1), BuildingBlock: UVAHIK_clean_linker_0, # of connection points: 2
#     Edge 137, Type (0, 1), BuildingBlock: UVAHIK_clean_linker_0, # of connection points: 2
#     Edge 138, Type (0, 1), BuildingBlock: UVAHIK_clean_linker_0, # of connection points: 2
#     Edge 139, Type (0, 1), BuildingBlock: UVAHIK_clean_linker_0, # of connection points: 2
#     Edge 140, Type (0, 1), BuildingBlock: UVAHIK_clean_linker_0, # of connection points: 2
#     Edge 141, Type (0, 1), BuildingBlock: UVAHIK_clean_linker_0, # of connection points: 2
#     Edge 142, Type (0, 1), BuildingBlock: UVAHIK_clean_linker_0, # of connection points: 2
#     Edge 143, Type (0, 1), BuildingBlock: UVAHIK_clean_linker_0, # of connection points: 2
#     Edge 144, Type (0, 1), BuildingBlock: UVAHIK_clean_linker_0, # of connection points: 2
#     Edge 145, Type (0, 1), BuildingBlock: UVAHIK_clean_linker_0, # of connection points: 2
#     Edge 146, Type (0, 1), BuildingBlock: UVAHIK_clean_linker_0, # of connection points: 2
#     Edge 147, Type (0, 1), BuildingBlock: UVAHIK_clean_linker_0, # of connection points: 2
#     Edge 148, Type (0, 1), BuildingBlock: UVAHIK_clean_linker_0, # of connection points: 2
#     Edge 149, Type (0, 1), BuildingBlock: UVAHIK_clean_linker_0, # of connection points: 2
#     Edge 150, Type (0, 1), BuildingBlock: UVAHIK_clean_linker_0, # of connection points: 2
#     Edge 151, Type (0, 1), BuildingBlock: UVAHIK_clean_linker_0, # of connection points: 2
#     Edge 152, Type (0, 1), BuildingBlock: UVAHIK_clean_linker_0, # of connection points: 2
#     Edge 153, Type (0, 1), BuildingBlock: UVAHIK_clean_linker_0, # of connection points: 2
#     Edge 154, Type (0, 1), BuildingBlock: UVAHIK_clean_linker_0, # of connection points: 2
#     Edge 155, Type (0, 1), BuildingBlock: UVAHIK_clean_linker_0, # of connection points: 2
#     Edge 156, Type (0, 1), BuildingBlock: UVAHIK_clean_linker_0, # of connection points: 2
#     Edge 157, Type (0, 1), BuildingBlock: UVAHIK_clean_linker_0, # of connection points: 2
#     Edge 158, Type (0, 1), BuildingBlock: UVAHIK_clean_linker_0, # of connection points: 2
#     Edge 159, Type (0, 1), BuildingBlock: UVAHIK_clean_linker_0, # of connection points: 2
#     Edge 160, Type (0, 1), BuildingBlock: UVAHIK_clean_linker_0, # of connection points: 2
#     Edge 161, Type (0, 1), BuildingBlock: UVAHIK_clean_linker_0, # of connection points: 2
#     Edge 162, Type (0, 1), BuildingBlock: UVAHIK_clean_linker_0, # of connection points: 2
#     Edge 163, Type (0, 1), BuildingBlock: UVAHIK_clean_linker_0, # of connection points: 2
#     Edge 164, Type (0, 1), BuildingBlock: UVAHIK_clean_linker_0, # of connection points: 2
#     Edge 165, Type (0, 1), BuildingBlock: UVAHIK_clean_linker_0, # of connection points: 2
#     Edge 166, Type (0, 1), BuildingBlock: UVAHIK_clean_linker_0, # of connection points: 2
#     Edge 167, Type (0, 1), BuildingBlock: UVAHIK_clean_linker_0, # of connection points: 2
#     Edge 168, Type (0, 1), BuildingBlock: UVAHIK_clean_linker_0, # of connection points: 2
#     Edge 169, Type (0, 1), BuildingBlock: UVAHIK_clean_linker_0, # of connection points: 2
#     Edge 170, Type (0, 1), BuildingBlock: UVAHIK_clean_linker_0, # of connection points: 2
#     Edge 171, Type (0, 1), BuildingBlock: UVAHIK_clean_linker_0, # of connection points: 2
#     Edge 172, Type (0, 1), BuildingBlock: UVAHIK_clean_linker_0, # of connection points: 2
#     Edge 173, Type (0, 1), BuildingBlock: UVAHIK_clean_linker_0, # of connection points: 2
#     Edge 174, Type (0, 1), BuildingBlock: UVAHIK_clean_linker_0, # of connection points: 2
#     Edge 175, Type (0, 1), BuildingBlock: UVAHIK_clean_linker_0, # of connection points: 2
#     Edge 176, Type (0, 1), BuildingBlock: UVAHIK_clean_linker_0, # of connection points: 2
#     Edge 177, Type (0, 1), BuildingBlock: UVAHIK_clean_linker_0, # of connection points: 2
#     Edge 178, Type (0, 1), BuildingBlock: UVAHIK_clean_linker_0, # of connection points: 2
#     Edge 179, Type (0, 1), BuildingBlock: UVAHIK_clean_linker_0, # of connection points: 2
#     Edge 180, Type (0, 1), BuildingBlock: UVAHIK_clean_linker_0, # of connection points: 2
#     Edge 181, Type (0, 1), BuildingBlock: UVAHIK_clean_linker_0, # of connection points: 2
#     Edge 182, Type (0, 1), BuildingBlock: UVAHIK_clean_linker_0, # of connection points: 2
#     Edge 183, Type (0, 1), BuildingBlock: UVAHIK_clean_linker_0, # of connection points: 2
#     Edge 184, Type (0, 1), BuildingBlock: UVAHIK_clean_linker_0, # of connection points: 2
#     Edge 185, Type (0, 1), BuildingBlock: UVAHIK_clean_linker_0, # of connection points: 2
#     Edge 186, Type (0, 1), BuildingBlock: UVAHIK_clean_linker_0, # of connection points: 2
#     Edge 187, Type (0, 1), BuildingBlock: UVAHIK_clean_linker_0, # of connection points: 2
#     Edge 188, Type (0, 1), BuildingBlock: UVAHIK_clean_linker_0, # of connection points: 2
#     Edge 189, Type (0, 1), BuildingBlock: UVAHIK_clean_linker_0, # of connection points: 2
#     Edge 190, Type (0, 1), BuildingBlock: UVAHIK_clean_linker_0, # of connection points: 2
#     Edge 191, Type (0, 1), BuildingBlock: UVAHIK_clean_linker_0, # of connection points: 2
#     Edge 192, Type (0, 1), BuildingBlock: UVAHIK_clean_linker_0, # of connection points: 2
#     Edge 193, Type (0, 1), BuildingBlock: UVAHIK_clean_linker_0, # of connection points: 2
#     Edge 194, Type (0, 1), BuildingBlock: UVAHIK_clean_linker_0, # of connection points: 2
#     Edge 195, Type (0, 1), BuildingBlock: UVAHIK_clean_linker_0, # of connection points: 2
#     Edge 196, Type (0, 1), BuildingBlock: UVAHIK_clean_linker_0, # of connection points: 2
#     Edge 197, Type (0, 1), BuildingBlock: UVAHIK_clean_linker_0, # of connection points: 2
#     Edge 198, Type (0, 1), BuildingBlock: UVAHIK_clean_linker_0, # of connection points: 2
#     Edge 199, Type (0, 1), BuildingBlock: UVAHIK_clean_linker_0, # of connection points: 2
#     Edge 200, Type (0, 1), BuildingBlock: UVAHIK_clean_linker_0, # of connection points: 2
#     Edge 201, Type (0, 1), BuildingBlock: UVAHIK_clean_linker_0, # of connection points: 2
#     Edge 202, Type (0, 1), BuildingBlock: UVAHIK_clean_linker_0, # of connection points: 2
#     Edge 203, Type (0, 1), BuildingBlock: UVAHIK_clean_linker_0, # of connection points: 2
#     Edge 204, Type (0, 1), BuildingBlock: UVAHIK_clean_linker_0, # of connection points: 2
#     Edge 205, Type (0, 1), BuildingBlock: UVAHIK_clean_linker_0, # of connection points: 2
#     Edge 206, Type (0, 1), BuildingBlock: UVAHIK_clean_linker_0, # of connection points: 2
#     Edge 207, Type (0, 1), BuildingBlock: UVAHIK_clean_linker_0, # of connection points: 2
#     Edge 208, Type (0, 1), BuildingBlock: UVAHIK_clean_linker_0, # of connection points: 2
#     Edge 209, Type (0, 1), BuildingBlock: UVAHIK_clean_linker_0, # of connection points: 2
#     Edge 210, Type (0, 1), BuildingBlock: UVAHIK_clean_linker_0, # of connection points: 2
#     Edge 211, Type (0, 1), BuildingBlock: UVAHIK_clean_linker_0, # of connection points: 2
#     Edge 212, Type (0, 1), BuildingBlock: UVAHIK_clean_linker_0, # of connection points: 2
#     Edge 213, Type (0, 1), BuildingBlock: UVAHIK_clean_linker_0, # of connection points: 2
#     Edge 214, Type (0, 1), BuildingBlock: UVAHIK_clean_linker_0, # of connection points: 2
#     Edge 215, Type (0, 1), BuildingBlock: UVAHIK_clean_linker_0, # of connection points: 2
#     Edge 216, Type (0, 1), BuildingBlock: UVAHIK_clean_linker_0, # of connection points: 2
#     Edge 217, Type (0, 1), BuildingBlock: UVAHIK_clean_linker_0, # of connection points: 2
#     Edge 218, Type (0, 1), BuildingBlock: UVAHIK_clean_linker_0, # of connection points: 2
#     Edge 219, Type (0, 1), BuildingBlock: UVAHIK_clean_linker_0, # of connection points: 2
#     Edge 220, Type (0, 1), BuildingBlock: UVAHIK_clean_linker_0, # of connection points: 2
#     Edge 221, Type (0, 1), BuildingBlock: UVAHIK_clean_linker_0, # of connection points: 2
#     Edge 222, Type (0, 1), BuildingBlock: UVAHIK_clean_linker_0, # of connection points: 2
#     Edge 223, Type (0, 1), BuildingBlock: UVAHIK_clean_linker_0, # of connection points: 2
#     Edge 224, Type (0, 1), BuildingBlock: UVAHIK_clean_linker_0, # of connection points: 2
#     Edge 225, Type (0, 1), BuildingBlock: UVAHIK_clean_linker_0, # of connection points: 2
#     Edge 226, Type (0, 1), BuildingBlock: UVAHIK_clean_linker_0, # of connection points: 2
#     Edge 227, Type (0, 1), BuildingBlock: UVAHIK_clean_linker_0, # of connection points: 2
#     Edge 228, Type (0, 1), BuildingBlock: UVAHIK_clean_linker_0, # of connection points: 2
#     Edge 229, Type (0, 1), BuildingBlock: UVAHIK_clean_linker_0, # of connection points: 2
#     Edge 230, Type (0, 1), BuildingBlock: UVAHIK_clean_linker_0, # of connection points: 2
#     Edge 231, Type (0, 1), BuildingBlock: UVAHIK_clean_linker_0, # of connection points: 2
#     Edge 232, Type (0, 1), BuildingBlock: UVAHIK_clean_linker_0, # of connection points: 2
#     Edge 233, Type (0, 1), BuildingBlock: UVAHIK_clean_linker_0, # of connection points: 2
#     Edge 234, Type (0, 1), BuildingBlock: UVAHIK_clean_linker_0, # of connection points: 2
#     Edge 235, Type (0, 1), BuildingBlock: UVAHIK_clean_linker_0, # of connection points: 2
#     Edge 236, Type (0, 1), BuildingBlock: UVAHIK_clean_linker_0, # of connection points: 2
#     Edge 237, Type (0, 1), BuildingBlock: UVAHIK_clean_linker_0, # of connection points: 2
#     Edge 238, Type (0, 1), BuildingBlock: UVAHIK_clean_linker_0, # of connection points: 2
#     Edge 239, Type (0, 1), BuildingBlock: UVAHIK_clean_linker_0, # of connection points: 2
# Relax obj value: 0.091
# Max RMSD: 0.079
# Mean RMSD: 0.073
data_MOF--net-bpr--node1-WUSLED_clean_sbu_0--node2-ESEHIV_clean_linker_0--edge1-UVAHIK_clean_linker_0
_symmetry_space_group_name_H-M    P1
_symmetry_Int_Tables_number       1
_symmetry_cell_setting            triclinic
loop_
_symmetry_equiv_pos_as_xyz
'x, y, z'
_cell_length_a     125.25903
_cell_length_b     124.82647
_cell_length_c     125.92344
_cell_angle_alpha  90.355187
_cell_angle_beta   89.972462
_cell_angle_gamma 90.258103
loop_
_atom_site_label
_atom_site_type_symbol
_atom_site_fract_x
_atom_site_fract_y
_atom_site_fract_z
_atom_type_partial_charge
C0 C 0.00413 0.3679 0.27232 0.0
C1 C 1.00394 0.36437 0.28289 0.0
C2 C 0.98809 0.37502 0.28637 0.0
C3 C 0.99596 0.36784 0.28982 0.0
C4 C 0.98827 0.37851 0.27576 0.0
C5 C 0.99623 0.37495 0.26879 0.0
U6 U 0.03282 0.36 0.26981 0.0
O7 O 0.0411 0.34814 0.25979 0.0
O8 O 0.04559 0.36515 0.25902 0.0
C9 C 0.04685 0.3555 0.25499 0.0
C10 C 0.01304 0.36489 0.26531 0.0
C11 C 0.047 0.35492 0.24335 0.0
C12 C 0.03906 0.35871 0.22619 0.0
C13 C 0.03843 0.3587 0.23729 0.0
C14 C 0.0567 0.35089 0.22716 0.0
C15 C 0.04826 0.3549 0.221 0.0
C16 C 0.05607 0.3509 0.23823 0.0
C17 C 0.04849 0.3588 0.29588 0.0
C18 C 0.06631 0.35144 0.29786 0.0
C19 C 0.05917 0.36339 0.31132 0.0
C20 C 0.04971 0.36424 0.30556 0.0
C21 C 0.0676 0.35703 0.30751 0.0
C22 C 0.05684 0.35238 0.29204 0.0
C23 C 0.03861 0.36031 0.28982 0.0
O24 O 0.02088 0.37191 0.26501 0.0
O25 O 0.01637 0.35495 0.2662 0.0
O26 O 0.03461 0.35176 0.2851 0.0
O27 O 0.03845 0.36889 0.28385 0.0
H28 H 0.01008 0.35909 0.28585 0.0
H29 H 0.99614 0.36516 0.29798 0.0
H30 H 0.98228 0.384 0.27288 0.0
H31 H 0.99633 0.37784 0.26069 0.0
H32 H 0.03238 0.36176 0.22168 0.0
H33 H 0.03134 0.36181 0.24115 0.0
H34 H 0.06397 0.34806 0.22344 0.0
H35 H 0.06277 0.34799 0.2428 0.0
H36 H 0.07271 0.34655 0.29471 0.0
H37 H 0.05988 0.36767 0.3188 0.0
H38 H 0.04335 0.36925 0.30863 0.0
H39 H 0.05607 0.34819 0.28452 0.0
C40 C 0.87091 0.73485 0.52462 0.0
C41 C 0.86547 0.73249 0.53407 0.0
C42 C 0.86875 0.71347 0.53138 0.0
C43 C 0.86437 0.7219 0.5374 0.0
C44 C 0.87415 0.71587 0.52188 0.0
C45 C 0.87521 0.72649 0.51853 0.0
U46 U 0.87024 0.7642 0.53168 0.0
O47 O 0.88125 0.77741 0.52802 0.0
O48 O 0.86451 0.77823 0.52289 0.0
C49 C 0.87405 0.78263 0.52252 0.0
C50 C 0.87244 0.74603 0.52138 0.0
C51 C 0.87743 0.78658 0.51205 0.0
C52 C 0.88823 0.78526 0.49605 0.0
C53 C 0.88493 0.78106 0.5058 0.0
C54 C 0.87641 0.80037 0.4986 0.0
C55 C 0.88401 0.79497 0.49236 0.0
C56 C 0.87318 0.79622 0.50836 0.0
C57 C 0.86231 0.77247 0.55953 0.0
C58 C 0.86314 0.79119 0.56479 0.0
C59 C 0.85671 0.77788 0.57721 0.0
C60 C 0.85828 0.76986 0.56957 0.0
C61 C 0.85916 0.78864 0.57493 0.0
C62 C 0.86468 0.78318 0.55716 0.0
C63 C 0.86414 0.76401 0.55161 0.0
O64 O 0.86369 0.7518 0.52103 0.0
O65 O 0.88043 0.751 0.52608 0.0
O66 O 0.87413 0.76288 0.54864 0.0
O67 O 0.8574 0.76387 0.54361 0.0
H68 H 0.8622 0.73887 0.53894 0.0
H69 H 0.86031 0.72033 0.54483 0.0
H70 H 0.87755 0.70955 0.51704 0.0
H71 H 0.87946 0.72819 0.51123 0.0
H72 H 0.89403 0.78088 0.49136 0.0
H73 H 0.88827 0.77356 0.50848 0.0
H74 H 0.87311 0.80794 0.49604 0.0
H75 H 0.8674 0.8006 0.51308 0.0
H76 H 0.86526 0.79936 0.56281 0.0
H77 H 0.85351 0.77566 0.58488 0.0
H78 H 0.85637 0.76162 0.5715 0.0
H79 H 0.86782 0.78531 0.54943 0.0
C80 C 0.47863 0.6406 0.73809 0.0
C81 C 0.46823 0.6443 0.73633 0.0
C82 C 0.47016 0.64098 0.71737 0.0
C83 C 0.46405 0.64451 0.72607 0.0
C84 C 0.48071 0.63756 0.71913 0.0
C85 C 0.4849 0.63734 0.72944 0.0
U86 U 0.47252 0.6414 0.76717 0.0
O87 O 0.47665 0.6306 0.7802 0.0
O88 O 0.48136 0.64758 0.78105 0.0
C89 C 0.48184 0.63809 0.78549 0.0
C90 C 0.48257 0.63951 0.749 0.0
C91 C 0.49217 0.63506 0.79012 0.0
C92 C 0.50777 0.62355 0.79092 0.0
C93 C 0.49865 0.62709 0.78556 0.0
C94 C 0.50421 0.6362 0.80515 0.0
C95 C 0.51049 0.6279 0.8009 0.0
C96 C 0.49515 0.63971 0.79982 0.0
C97 C 0.44444 0.64767 0.7759 0.0
C98 C 0.43924 0.64464 0.79421 0.0
C99 C 0.42715 0.65367 0.78224 0.0
C100 C 0.43464 0.6527 0.77404 0.0
C101 C 0.42934 0.64955 0.79238 0.0
C102 C 0.44674 0.64374 0.78606 0.0
C103 C 0.45223 0.64644 0.76727 0.0
O104 O 0.48261 0.6484 0.75467 0.0
O105 O 0.47853 0.63129 0.75414 0.0
O106 O 0.45569 0.63661 0.76581 0.0
O107 O 0.45991 0.65364 0.76714 0.0
H108 H 0.46327 0.64682 0.74293 0.0
H109 H 0.45596 0.64734 0.72497 0.0
H110 H 0.48558 0.63472 0.7126 0.0
H111 H 0.49292 0.6344 0.73069 0.0
H112 H 0.51244 0.61714 0.78746 0.0
H113 H 0.4965 0.6234 0.77805 0.0
H114 H 0.50622 0.63986 0.81272 0.0
H115 H 0.49026 0.64589 0.80344 0.0
H116 H 0.44121 0.64153 0.80198 0.0
H117 H 0.41956 0.65744 0.78059 0.0
H118 H 0.43277 0.65579 0.76625 0.0
H119 H 0.45432 0.63992 0.78765 0.0
C120 C 0.63704 0.27689 0.02691 0.0
C121 C 0.64195 0.27904 0.03671 0.0
C122 C 0.63953 0.29817 0.03413 0.0
C123 C 0.64321 0.28957 0.04027 0.0
C124 C 0.63462 0.29598 0.02429 0.0
C125 C 0.6334 0.2854 0.0207 0.0
U126 U 0.63739 0.24764 0.03361 0.0
O127 O 0.62646 0.23438 0.02972 0.0
O128 O 0.6433 0.23351 0.0249 0.0
C129 C 0.63379 0.22906 0.02441 0.0
C130 C 0.63544 0.26576 0.02341 0.0
C131 C 0.63063 0.22472 0.01398 0.0
C132 C 0.61987 0.22515 0.99793 0.0
C133 C 0.62309 0.22985 0.00754 0.0
C134 C 0.63188 0.21033 1.00101 0.0
C135 C 0.6242 0.2153 0.99459 0.0
C136 C 0.63505 0.21499 0.01061 0.0
C137 C 0.64488 0.23955 0.0615 0.0
C138 C 0.64405 0.22083 0.06651 0.0
C139 C 0.65049 0.23413 0.0791 0.0
C140 C 0.6489 0.24216 0.07156 0.0
C141 C 0.64807 0.22337 0.07666 0.0
C142 C 0.64249 0.22885 0.059 0.0
C143 C 0.64315 0.24798 0.05363 0.0
O144 O 0.64415 0.25992 0.0231 0.0
O145 O 0.62734 0.26082 0.02791 0.0
O146 O 0.63321 0.24908 0.05051 0.0
O147 O 0.65002 0.2481 0.04574 0.0
H148 H 0.64471 0.27254 0.04166 0.0
H149 H 0.64684 0.29097 0.04796 0.0
H150 H 0.63176 0.30244 0.01936 0.0
H151 H 0.62956 0.28387 0.01314 0.0
H152 H 0.61401 0.22921 0.9931 0.0
H153 H 0.61962 0.23741 0.00997 0.0
H154 H 0.63526 0.20267 0.99874 0.0
H155 H 0.64084 0.2109 0.01549 0.0
H156 H 0.64196 0.21266 0.06443 0.0
H157 H 0.65372 0.23635 0.08678 0.0
H158 H 0.65082 0.25039 0.07359 0.0
H159 H 0.63935 0.22671 0.05124 0.0
C160 C 0.00496 0.63663 0.23526 0.0
C161 C 0.00452 0.64079 0.22494 0.0
C162 C 0.98801 0.63104 0.22153 0.0
C163 C 0.99611 0.63807 0.21817 0.0
C164 C 0.98845 0.62688 0.23188 0.0
C165 C 0.99685 0.62968 0.23871 0.0
U166 U 0.03395 0.64368 0.23691 0.0
O167 O 0.04315 0.65465 0.2472 0.0
O168 O 0.04708 0.63752 0.24664 0.0
C169 C 0.04901 0.64689 0.25107 0.0
C170 C 0.01426 0.63891 0.24205 0.0
C171 C 0.05034 0.64682 0.26264 0.0
C172 C 0.04393 0.64273 0.28037 0.0
C173 C 0.04212 0.64339 0.26942 0.0
C174 C 0.06203 0.64915 0.2778 0.0
C175 C 0.05398 0.64542 0.28465 0.0
C176 C 0.06022 0.64982 0.2669 0.0
C177 C 0.04879 0.64639 0.21066 0.0
C178 C 0.06712 0.65272 0.20951 0.0
C179 C 0.05924 0.64283 0.19483 0.0
C180 C 0.04967 0.642 0.20044 0.0
C181 C 0.0681 0.64811 0.19933 0.0
C182 C 0.05755 0.65179 0.21517 0.0
C183 C 0.03891 0.64465 0.2167 0.0
O184 O 0.02186 0.63171 0.24149 0.0
O185 O 0.01788 0.64882 0.24169 0.0
O186 O 0.0353 0.65291 0.22213 0.0
O187 O 0.03861 0.63565 0.22205 0.0
H188 H 0.01081 0.646 0.22203 0.0
H189 H 0.99612 0.64126 0.21019 0.0
H190 H 0.98229 0.62147 0.23469 0.0
H191 H 0.99712 0.6263 0.2466 0.0
H192 H 0.03759 0.63979 0.28545 0.0
H193 H 0.03443 0.64104 0.26621 0.0
H194 H 0.06979 0.65145 0.28087 0.0
H195 H 0.06662 0.65253 0.26177 0.0
H196 H 0.07385 0.65676 0.2132 0.0
H197 H 0.05972 0.63933 0.18695 0.0
H198 H 0.04299 0.63776 0.19687 0.0
H199 H 0.05705 0.65513 0.22312 0.0
C200 C 0.63599 0.73137 0.48059 0.0
C201 C 0.64133 0.72938 0.47099 0.0
C202 C 0.63909 0.71017 0.47342 0.0
C203 C 0.64289 0.71889 0.46745 0.0
C204 C 0.63387 0.71222 0.48312 0.0
C205 C 0.63233 0.72274 0.48667 0.0
U206 U 0.63599 0.76075 0.4741 0.0
O207 O 0.62391 0.77322 0.47679 0.0
O208 O 0.64001 0.77512 0.48347 0.0
C209 C 0.63023 0.77889 0.483 0.0
C210 C 0.63376 0.74243 0.48392 0.0
C211 C 0.62547 0.78294 0.49299 0.0
C212 C 0.61126 0.79293 0.50167 0.0
C213 C 0.61546 0.78793 0.49265 0.0
C214 C 0.6269 0.78783 0.51169 0.0
C215 C 0.61704 0.79316 0.51124 0.0
C216 C 0.63109 0.78278 0.50266 0.0
C217 C 0.64584 0.76948 0.44704 0.0
C218 C 0.64488 0.78818 0.44195 0.0
C219 C 0.65208 0.77503 0.42967 0.0
C220 C 0.65035 0.76698 0.43716 0.0
C221 C 0.64933 0.78572 0.43196 0.0
C222 C 0.64316 0.78012 0.44942 0.0
C223 C 0.64379 0.76096 0.45476 0.0
O224 O 0.6422 0.74863 0.48507 0.0
O225 O 0.62598 0.74703 0.47868 0.0
O226 O 0.63366 0.7592 0.45686 0.0
O227 O 0.6498 0.76128 0.46331 0.0
H228 H 0.64412 0.73597 0.46614 0.0
H229 H 0.64679 0.71761 0.45987 0.0
H230 H 0.63093 0.70568 0.48794 0.0
H231 H 0.62816 0.72415 0.49409 0.0
H232 H 0.60357 0.79681 0.50108 0.0
H233 H 0.61098 0.78822 0.4853 0.0
H234 H 0.63161 0.78794 0.51891 0.0
H235 H 0.63886 0.77905 0.50319 0.0
H236 H 0.64253 0.79629 0.44392 0.0
H237 H 0.65564 0.7729 0.42211 0.0
H238 H 0.65248 0.7588 0.43522 0.0
H239 H 0.63963 0.78217 0.45702 0.0
C240 C 0.50306 0.36902 0.73376 0.0
C241 C 0.50362 0.36496 0.72336 0.0
C242 C 0.52001 0.37499 0.72025 0.0
C243 C 0.51203 0.36787 0.71669 0.0
C244 C 0.51946 0.37901 0.7307 0.0
C245 C 0.51105 0.37603 0.73741 0.0
U246 U 0.47414 0.36165 0.73493 0.0
O247 O 0.46489 0.3506 0.74497 0.0
O248 O 0.46079 0.36769 0.74452 0.0
C249 C 0.4589 0.35832 0.74885 0.0
C250 C 0.4937 0.36662 0.74042 0.0
C251 C 0.45746 0.35843 0.76041 0.0
C252 C 0.46372 0.36258 0.77824 0.0
C253 C 0.46563 0.36184 0.76729 0.0
C254 C 0.4456 0.35625 0.77545 0.0
C255 C 0.45361 0.35997 0.7824 0.0
C256 C 0.44752 0.3555 0.76456 0.0
C257 C 0.45996 0.35885 0.70822 0.0
C258 C 0.4417 0.35245 0.70632 0.0
C259 C 0.45018 0.36215 0.69196 0.0
C260 C 0.4595 0.3631 0.69797 0.0
C261 C 0.44115 0.3569 0.6961 0.0
C262 C 0.45103 0.35348 0.71237 0.0
C263 C 0.46961 0.36066 0.71461 0.0
O264 O 0.48603 0.37373 0.73985 0.0
O265 O 0.49019 0.35668 0.73987 0.0
O266 O 0.47312 0.35241 0.72002 0.0
O267 O 0.46968 0.36964 0.72009 0.0
H268 H 0.49742 0.35971 0.7203 0.0
H269 H 0.51211 0.36478 0.70863 0.0
H270 H 0.52552 0.38448 0.73366 0.0
H271 H 0.51068 0.37933 0.74538 0.0
H272 H 0.47002 0.36552 0.78339 0.0
H273 H 0.47336 0.36414 0.76417 0.0
H274 H 0.4378 0.35401 0.77843 0.0
H275 H 0.44115 0.35281 0.75935 0.0
H276 H 0.43484 0.34844 0.70973 0.0
H277 H 0.45003 0.36554 0.68406 0.0
H278 H 0.46632 0.36729 0.69466 0.0
H279 H 0.45121 0.35025 0.72033 0.0
C280 C 0.87641 0.23931 0.00887 0.0
C281 C 0.87368 0.22844 0.00803 0.0
C282 C 0.88314 0.2247 0.02446 0.0
C283 C 0.87696 0.22121 0.01577 0.0
C284 C 0.88575 0.23566 0.02534 0.0
C285 C 0.88242 0.2429 0.01758 0.0
U286 U 0.86748 0.24289 0.98073 0.0
O287 O 0.85608 0.25386 0.97323 0.0
O288 O 0.87286 0.25376 0.96814 0.0
C289 C 0.86346 0.25832 0.96728 0.0
C290 C 0.87353 0.2467 1.00031 0.0
C291 C 0.8635 0.27007 0.96708 0.0
C292 C 0.86876 0.28736 0.97439 0.0
C293 C 0.86853 0.27616 0.97504 0.0
C294 C 0.85876 0.2864 0.95792 0.0
C295 C 0.86391 0.2926 0.96578 0.0
C296 C 0.85857 0.27525 0.95858 0.0
C297 C 0.86306 0.21762 0.96411 0.0
C298 C 0.86493 0.21599 0.94496 0.0
C299 C 0.85468 0.20278 0.95468 0.0
C300 C 0.85681 0.20828 0.96416 0.0
C301 C 0.85888 0.20649 0.94502 0.0
C302 C 0.86695 0.22156 0.95441 0.0
C303 C 0.86569 0.22297 0.97424 0.0
O304 O 0.88018 0.24669 0.99223 0.0
O305 O 0.86345 0.24641 0.99739 0.0
O306 O 0.85784 0.22818 0.97886 0.0
O307 O 0.87481 0.22823 0.97446 0.0
H308 H 0.8691 0.2255 1.0013 0.0
H309 H 0.87465 0.21288 0.01493 0.0
H310 H 0.89058 0.23859 0.03188 0.0
H311 H 0.88468 0.25127 0.01829 0.0
H312 H 0.87271 0.29191 0.9806 0.0
H313 H 0.87235 0.27226 0.98169 0.0
H314 H 0.85512 0.29015 0.9511 0.0
H315 H 0.85468 0.27065 0.95235 0.0
H316 H 0.86816 0.21909 0.9376 0.0
H317 H 0.85006 0.19543 0.95495 0.0
H318 H 0.85371 0.20514 0.97155 0.0
H319 H 0.87169 0.22883 0.95415 0.0
C320 C 0.23223 0.02657 0.37123 0.0
C321 C 0.22926 0.03627 0.36655 0.0
C322 C 0.21058 0.03255 0.37047 0.0
C323 C 0.21852 0.03923 0.36614 0.0
C324 C 0.2136 0.02275 0.37503 0.0
C325 C 0.22436 0.01979 0.3754 0.0
U326 U 0.26132 0.03446 0.36913 0.0
O327 O 0.27484 0.03144 0.37979 0.0
O328 O 0.27533 0.02559 0.3633 0.0
C329 C 0.27998 0.02571 0.37265 0.0
C330 C 0.24355 0.02375 0.37223 0.0
C331 C 0.28426 0.0154 0.37626 0.0
C332 C 0.28343 0.99956 0.38736 0.0
C333 C 0.2789 0.00912 0.3838 0.0
C334 C 0.29857 1.00238 0.3757 0.0
C335 C 0.29333 0.99611 0.38335 0.0
C336 C 0.29407 0.01194 0.3722 0.0
C337 C 0.26926 0.06221 0.36053 0.0
C338 C 0.28777 0.06778 0.36224 0.0
C339 C 0.27509 0.07928 0.35336 0.0
C340 C 0.26699 0.07173 0.35515 0.0
C341 C 0.28554 0.07742 0.35698 0.0
C342 C 0.27971 0.06023 0.36397 0.0
C343 C 0.26077 0.05435 0.3626 0.0
O344 O 0.24893 0.02338 0.36326 0.0
O345 O 0.24866 0.02884 0.37986 0.0
O346 O 0.2597 0.05164 0.37261 0.0
O347 O 0.26056 0.04609 0.35608 0.0
H348 H 0.23527 0.04165 0.36338 0.0
H349 H 0.21648 0.04689 0.36272 0.0
H350 H 0.20767 0.0174 0.37834 0.0
H351 H 0.22653 0.01228 0.37906 0.0
H352 H 0.27917 0.99484 0.39319 0.0
H353 H 0.27127 0.01163 0.38699 0.0
H354 H 0.30626 1.00002 0.37256 0.0
H355 H 0.29833 0.0167 0.3664 0.0
H356 H 0.29577 0.06605 0.36498 0.0
H357 H 0.27313 0.08666 0.34933 0.0
H358 H 0.25897 0.07335 0.35242 0.0
H359 H 0.28162 0.05287 0.36805 0.0
C360 C 0.24544 1.00301 0.6342 0.0
C361 C 0.23486 1.00267 0.63786 0.0
C362 C 0.23177 0.98608 0.62808 0.0
C363 C 0.22811 0.99426 0.63487 0.0
C364 C 0.24237 0.98646 0.62441 0.0
C365 C 0.24917 0.99486 0.62747 0.0
U366 U 0.24751 0.03173 0.64287 0.0
O367 O 0.25816 0.04011 0.65409 0.0
O368 O 0.25758 0.04504 0.63739 0.0
C369 C 0.26229 0.0462 0.64665 0.0
C370 C 0.25232 0.0122 0.63692 0.0
C371 C 0.27399 0.04667 0.64633 0.0
C372 C 0.29111 0.0391 0.6413 0.0
C373 C 0.27998 0.03825 0.64196 0.0
C374 C 0.29031 0.05667 0.64956 0.0
C375 C 0.29639 0.04836 0.64503 0.0
C376 C 0.27921 0.05583 0.65019 0.0
C377 C 0.22104 0.04644 0.64691 0.0
C378 C 0.21925 0.06417 0.6548 0.0
C379 C 0.20483 0.05662 0.64427 0.0
C380 C 0.21079 0.04735 0.6426 0.0
C381 C 0.20903 0.06517 0.65031 0.0
C382 C 0.22526 0.05488 0.65304 0.0
C383 C 0.22727 0.03679 0.64449 0.0
O384 O 0.25176 0.02023 0.63025 0.0
O385 O 0.25202 0.01525 0.64693 0.0
O386 O 0.23279 0.03272 0.65236 0.0
O387 O 0.23258 0.03709 0.6355 0.0
H388 H 0.23177 0.00899 0.64292 0.0
H389 H 0.21993 0.99429 0.63768 0.0
H390 H 0.24542 0.98024 0.61921 0.0
H391 H 0.25729 0.99506 0.6245 0.0
H392 H 0.29557 0.03253 0.63785 0.0
H393 H 0.27604 0.0311 0.63897 0.0
H394 H 0.29409 0.06398 0.65234 0.0
H395 H 0.27469 0.0624 0.65355 0.0
H396 H 0.2227 0.07066 0.65942 0.0
H397 H 0.19692 0.05711 0.64084 0.0
H398 H 0.20742 0.04091 0.63784 0.0
H399 H 0.23322 0.05434 0.65636 0.0
C400 C 0.24408 0.00502 0.87403 0.0
C401 C 0.23356 0.00552 0.87026 0.0
C402 C 0.23072 0.02213 0.88004 0.0
C403 C 0.22696 0.01402 0.87319 0.0
C404 C 0.24127 0.0216 0.88383 0.0
C405 C 0.24791 0.01311 0.88082 0.0
U406 U 0.24558 0.97621 0.86565 0.0
O407 O 0.25596 0.96763 0.85438 0.0
O408 O 0.25548 0.96286 0.87113 0.0
C409 C 0.26009 0.9616 0.86183 0.0
C410 C 0.25079 0.99575 0.87138 0.0
C411 C 0.27179 0.96112 0.86201 0.0
C412 C 0.28901 0.96858 0.86705 0.0
C413 C 0.27788 0.96937 0.86663 0.0
C414 C 0.28803 0.95138 0.85804 0.0
C415 C 0.29421 0.95954 0.8628 0.0
C416 C 0.27692 0.95217 0.85766 0.0
C417 C 0.2188 0.96179 0.86185 0.0
C418 C 0.21709 0.94348 0.85539 0.0
C419 C 0.20186 0.95246 0.86326 0.0
C420 C 0.20805 0.96164 0.86486 0.0
C421 C 0.20633 0.94324 0.85859 0.0
C422 C 0.22331 0.95269 0.85706 0.0
C423 C 0.22523 0.97137 0.86421 0.0
O424 O 0.25011 0.98779 0.87813 0.0
O425 O 0.25039 0.99259 0.8614 0.0
O426 O 0.23079 0.97531 0.85627 0.0
O427 O 0.2306 0.97102 0.87315 0.0
H428 H 0.23039 0.99925 0.86516 0.0
H429 H 0.21882 0.0141 0.87029 0.0
H430 H 0.24439 0.02776 0.88909 0.0
H431 H 0.25599 0.01279 0.88388 0.0
H432 H 0.29356 0.97503 0.87068 0.0
H433 H 0.27402 0.97637 0.86999 0.0
H434 H 0.29176 0.94425 0.85484 0.0
H435 H 0.27232 0.94573 0.85408 0.0
H436 H 0.22075 0.93648 0.85184 0.0
H437 H 0.19356 0.95256 0.86567 0.0
H438 H 0.20446 0.96861 0.86857 0.0
H439 H 0.23164 0.95266 0.85476 0.0
C440 C 0.23024 0.97885 0.13661 0.0
C441 C 0.22839 0.96853 0.14056 0.0
C442 C 0.20945 0.97016 0.13665 0.0
C443 C 0.21809 0.96423 0.1406 0.0
C444 C 0.2113 0.98063 0.13297 0.0
C445 C 0.22164 0.98493 0.13292 0.0
U446 U 0.25962 0.97378 0.13939 0.0
O447 O 0.27318 0.97774 0.12907 0.0
O448 O 0.27285 0.98371 0.14553 0.0
C449 C 0.27775 0.98388 0.1363 0.0
C450 C 0.2412 0.98295 0.13582 0.0
C451 C 0.28162 0.99442 0.13275 0.0
C452 C 0.28148 0.00937 0.12046 0.0
C453 C 0.27709 0.99971 0.12403 0.0
C454 C 0.29473 0.00868 0.13445 0.0
C455 C 0.2904 0.01392 0.1256 0.0
C456 C 0.29039 0.99902 0.13796 0.0
C457 C 0.26889 0.94656 0.14834 0.0
C458 C 0.28779 0.94243 0.14795 0.0
C459 C 0.27514 0.92935 0.15463 0.0
C460 C 0.26678 0.93647 0.1527 0.0
C461 C 0.28573 0.93222 0.15216 0.0
C462 C 0.27944 0.94955 0.14607 0.0
C463 C 0.2601 0.9539 0.14598 0.0
O464 O 0.24633 0.98386 0.1449 0.0
O465 O 0.24693 0.97842 0.12831 0.0
O466 O 0.25922 0.95651 0.13592 0.0
O467 O 0.25924 0.96214 0.15245 0.0
H468 H 0.23495 0.96373 0.14344 0.0
H469 H 0.2169 0.95621 0.14363 0.0
H470 H 0.20482 0.98535 0.1298 0.0
H471 H 0.22296 0.9929 0.1298 0.0
H472 H 0.27793 0.01327 0.11367 0.0
H473 H 0.27027 0.99632 0.11991 0.0
H474 H 0.30169 0.01189 0.13848 0.0
H475 H 0.29403 0.99504 0.14467 0.0
H476 H 0.29587 0.94494 0.14611 0.0
H477 H 0.2733 0.92151 0.1578 0.0
H478 H 0.25866 0.93406 0.1545 0.0
H479 H 0.28121 0.95735 0.14276 0.0
C480 C 0.37064 0.23474 0.02307 0.0
C481 C 0.36548 0.23235 0.03266 0.0
C482 C 0.36843 0.21331 0.02967 0.0
C483 C 0.36436 0.22173 0.03592 0.0
C484 C 0.37359 0.21575 0.02005 0.0
C485 C 0.37466 0.2264 0.01676 0.0
U486 U 0.37039 0.26397 0.03052 0.0
O487 O 0.3812 0.27726 0.02655 0.0
O488 O 0.36421 0.27815 0.02228 0.0
C489 C 0.3737 0.28265 0.02163 0.0
C490 C 0.37212 0.24595 0.01987 0.0
C491 C 0.37652 0.28713 0.01124 0.0
C492 C 0.38555 0.28617 0.99416 0.0
C493 C 0.38269 0.28143 0.00382 0.0
C494 C 0.37592 0.30221 0.99921 0.0
C495 C 0.3822 0.29663 0.99177 0.0
C496 C 0.37312 0.29749 0.00884 0.0
C497 C 0.36354 0.27187 0.05874 0.0
C498 C 0.3649 0.29049 0.06426 0.0
C499 C 0.35765 0.27726 0.07633 0.0
C500 C 0.35916 0.26928 0.06863 0.0
C501 C 0.36051 0.28797 0.07424 0.0
C502 C 0.36637 0.28252 0.05658 0.0
C503 C 0.36511 0.26348 0.05067 0.0
O504 O 0.36339 0.25177 0.01992 0.0
O505 O 0.38031 0.25084 0.0243 0.0
O506 O 0.37498 0.26243 0.04728 0.0
O507 O 0.35806 0.26338 0.04296 0.0
H508 H 0.36243 0.23871 0.03769 0.0
H509 H 0.36051 0.22014 0.04345 0.0
H510 H 0.37675 0.20943 0.01504 0.0
H511 H 0.3787 0.22813 0.00936 0.0
H512 H 0.39033 0.28165 0.98855 0.0
H513 H 0.38536 0.27337 0.00552 0.0
H514 H 0.37335 0.31033 0.99771 0.0
H515 H 0.36838 0.30202 0.01449 0.0
H516 H 0.36734 0.2986 0.06244 0.0
H517 H 0.35412 0.27507 0.08387 0.0
H518 H 0.35688 0.2611 0.07039 0.0
H519 H 0.36977 0.28464 0.04895 0.0
C520 C 1.00223 0.87119 0.23317 0.0
C521 C 1.00217 0.86767 0.22257 0.0
C522 C 0.01883 0.87715 0.21925 0.0
C523 C 0.0104 0.87057 0.21569 0.0
C524 C 0.01889 0.88066 0.22989 0.0
C525 C 0.01065 0.87767 0.23681 0.0
U526 U 0.97332 0.86391 0.23548 0.0
O527 O 0.96459 0.85261 0.24569 0.0
O528 O 0.96053 0.86971 0.24594 0.0
C529 C 0.95897 0.86025 0.25021 0.0
C530 C 0.99315 0.86869 0.24015 0.0
C531 C 0.95861 0.8601 0.26186 0.0
C532 C 0.96603 0.86492 0.27906 0.0
C533 C 0.96681 0.86471 0.26797 0.0
C534 C 0.949 0.85568 0.27798 0.0
C535 C 0.95707 0.86047 0.28418 0.0
C536 C 0.94977 0.85551 0.26692 0.0
C537 C 0.95805 0.86162 0.20922 0.0
C538 C 0.94004 0.85453 0.20733 0.0
C539 C 0.94779 0.86533 0.19335 0.0
C540 C 0.95718 0.86639 0.19923 0.0
C541 C 0.9391 0.85945 0.19736 0.0
C542 C 0.94944 0.85567 0.21326 0.0
C543 C 0.96786 0.86334 0.21538 0.0
O544 O 0.98549 0.87584 0.24006 0.0
O545 O 0.98958 0.85877 0.23953 0.0
O546 O 0.97162 0.85499 0.22045 0.0
O547 O 0.96809 0.8722 0.22106 0.0
H548 H 0.99563 0.86281 0.21955 0.0
H549 H 0.01002 0.8679 0.2075 0.0
H550 H 0.0253 0.88569 0.23286 0.0
H551 H 0.01077 0.88054 0.24495 0.0
H552 H 0.97242 0.86858 0.28363 0.0
H553 H 0.97373 0.86825 0.26417 0.0
H554 H 0.94193 0.85232 0.28165 0.0
H555 H 0.94337 0.85193 0.2623 0.0
H556 H 0.93343 0.85002 0.21064 0.0
H557 H 0.94735 0.86908 0.18563 0.0
H558 H 0.96375 0.87102 0.196 0.0
H559 H 0.94994 0.85201 0.22102 0.0
C560 C 0.13822 0.7764 0.52543 0.0
C561 C 0.14308 0.77842 0.53528 0.0
C562 C 0.14061 0.79759 0.53296 0.0
C563 C 0.14429 0.7889 0.539 0.0
C564 C 0.1358 0.79553 0.52305 0.0
C565 C 0.13462 0.785 0.51931 0.0
U566 U 0.13797 0.74707 0.53187 0.0
O567 O 0.12668 0.73415 0.52787 0.0
O568 O 0.14348 0.73287 0.523 0.0
C569 C 0.13384 0.72871 0.52246 0.0
C570 C 0.1365 0.76532 0.52183 0.0
C571 C 0.13052 0.7247 0.51195 0.0
C572 C 0.11988 0.72599 0.49587 0.0
C573 C 0.12332 0.73035 0.50555 0.0
C574 C 0.13103 0.71046 0.49876 0.0
C575 C 0.12366 0.71596 0.4924 0.0
C576 C 0.13441 0.71479 0.50844 0.0
C577 C 0.14487 0.73866 0.55988 0.0
C578 C 0.14185 0.72038 0.56566 0.0
C579 C 0.15107 0.73298 0.57721 0.0
C580 C 0.15003 0.74094 0.56951 0.0
C581 C 0.1469 0.72265 0.5754 0.0
C582 C 0.14087 0.72832 0.55796 0.0
C583 C 0.14356 0.74711 0.55194 0.0
O584 O 0.1451 0.75933 0.52157 0.0
O585 O 0.12825 0.7605 0.52619 0.0
O586 O 0.1337 0.7486 0.54873 0.0
O587 O 0.15051 0.74696 0.54412 0.0
H588 H 0.14579 0.77185 0.54016 0.0
H589 H 0.14786 0.79019 0.54674 0.0
H590 H 0.13295 0.80205 0.5182 0.0
H591 H 0.13081 0.78357 0.51171 0.0
H592 H 0.11427 0.73045 0.49109 0.0
H593 H 0.12028 0.73806 0.50809 0.0
H594 H 0.13398 0.70266 0.49639 0.0
H595 H 0.13994 0.7103 0.51328 0.0
H596 H 0.13869 0.71246 0.56398 0.0
H597 H 0.15493 0.73498 0.58466 0.0
H598 H 0.15317 0.74889 0.5711 0.0
H599 H 0.13693 0.72641 0.55052 0.0
C600 C 0.98562 0.63109 0.74728 0.0
C601 C 0.9747 0.62876 0.74627 0.0
C602 C 0.97097 0.63843 0.76269 0.0
C603 C 0.96746 0.63234 0.75391 0.0
C604 C 0.98195 0.64071 0.7637 0.0
C605 C 0.98922 0.63707 0.75603 0.0
U606 U 0.98911 0.62062 0.71967 0.0
O607 O 1.0003 0.62456 0.70683 0.0
O608 O 0.99933 0.60807 0.71278 0.0
C609 C 0.00424 0.61482 0.70645 0.0
C610 C 0.99306 0.62758 0.73894 0.0
C611 C 0.01593 0.61407 0.70619 0.0
C612 C 0.03351 0.61906 0.71277 0.0
C613 C 0.02236 0.61957 0.71356 0.0
C614 C 0.03181 0.60738 0.69741 0.0
C615 C 0.03835 0.613 0.70464 0.0
C616 C 0.02071 0.60792 0.69819 0.0
C617 C 0.96346 0.61645 0.7038 0.0
C618 C 0.96348 0.60999 0.68556 0.0
C619 C 0.94681 0.61474 0.69413 0.0
C620 C 0.95235 0.61744 0.70339 0.0
C621 C 0.9523 0.611 0.6851 0.0
C622 C 0.96902 0.6127 0.69486 0.0
C623 C 0.96912 0.61957 0.71353 0.0
O624 O 0.99246 0.61734 0.73648 0.0
O625 O 0.99339 0.63381 0.73057 0.0
O626 O 0.97497 0.62829 0.71281 0.0
O627 O 0.97392 0.61177 0.71857 0.0
H628 H 0.97176 0.62418 0.73953 0.0
H629 H 0.95911 0.63026 0.75297 0.0
H630 H 0.9849 0.64547 0.7703 0.0
H631 H 0.99761 0.63902 0.75688 0.0
H632 H 0.03833 0.6234 0.71851 0.0
H633 H 0.01878 0.62433 0.71983 0.0
H634 H 0.03525 0.60279 0.69095 0.0
H635 H 0.01585 0.60365 0.69243 0.0
H636 H 0.96793 0.60705 0.67878 0.0
H637 H 0.93823 0.61579 0.69399 0.0
H638 H 0.94795 0.62038 0.71022 0.0
H639 H 0.97763 0.61191 0.69506 0.0
C640 C 0.1278 0.2533 0.49544 0.0
C641 C 0.13281 0.25055 0.48584 0.0
C642 C 0.13397 0.26934 0.48094 0.0
C643 C 0.13593 0.25847 0.47871 0.0
C644 C 0.1291 0.2721 0.49066 0.0
C645 C 0.12603 0.26413 0.49785 0.0
U646 U 0.11746 0.22536 0.49776 0.0
O647 O 0.12138 0.21204 0.50833 0.0
O648 O 0.1049 0.21794 0.50755 0.0
C649 C 0.11166 0.21145 0.5122 0.0
C650 C 0.12381 0.24481 0.50248 0.0
C651 C 0.11106 0.21084 0.52382 0.0
C652 C 0.11383 0.21862 0.54135 0.0
C653 C 0.11336 0.21975 0.5303 0.0
C654 C 0.10945 0.19976 0.53947 0.0
C655 C 0.11213 0.20854 0.54601 0.0
C656 C 0.10893 0.20092 0.52848 0.0
C657 C 0.11566 0.20994 0.4714 0.0
C658 C 0.10816 0.19204 0.46947 0.0
C659 C 0.11868 0.19974 0.45524 0.0
C660 C 0.1201 0.20907 0.46124 0.0
C661 C 0.11276 0.19109 0.45932 0.0
C662 C 0.10966 0.20139 0.47551 0.0
C663 C 0.11777 0.21967 0.47767 0.0
O664 O 0.1137 0.24228 0.50113 0.0
O665 O 0.13003 0.2364 0.50326 0.0
O666 O 0.12618 0.21921 0.48387 0.0
O667 O 0.10946 0.22415 0.48225 0.0
H668 H 0.13418 0.24223 0.48375 0.0
H669 H 0.13983 0.25606 0.4714 0.0
H670 H 0.12737 0.28038 0.49257 0.0
H671 H 0.12207 0.26639 0.50517 0.0
H672 H 0.11596 0.22549 0.54621 0.0
H673 H 0.11508 0.22747 0.52679 0.0
H674 H 0.10798 0.19194 0.54286 0.0
H675 H 0.10715 0.19396 0.52358 0.0
H676 H 0.10363 0.18548 0.47284 0.0
H677 H 0.12218 0.19931 0.44739 0.0
H678 H 0.12477 0.2156 0.45796 0.0
H679 H 0.10624 0.20191 0.4834 0.0
C680 C 0.48641 0.38903 0.22662 0.0
C681 C 0.48394 0.39352 0.21675 0.0
C682 C 0.46505 0.39001 0.2197 0.0
C683 C 0.47336 0.39403 0.21333 0.0
C684 C 0.46757 0.3856 0.22964 0.0
C685 C 0.47818 0.38512 0.23308 0.0
U686 U 0.51552 0.39103 0.21959 0.0
O687 O 0.5294 0.3974 0.22835 0.0
O688 O 0.52912 0.38058 0.22308 0.0
C689 C 0.53418 0.38805 0.22853 0.0
C690 C 0.4976 0.38805 0.22993 0.0
C691 C 0.53864 0.38482 0.23881 0.0
C692 C 0.53824 0.37406 0.25484 0.0
C693 C 0.53341 0.37743 0.24541 0.0
C694 C 0.55338 0.38564 0.25128 0.0
C695 C 0.54832 0.37809 0.25784 0.0
C696 C 0.54859 0.38896 0.24186 0.0
C697 C 0.52327 0.39916 0.19177 0.0
C698 C 0.54187 0.39859 0.18641 0.0
C699 C 0.52853 0.4055 0.17434 0.0
C700 C 0.5206 0.40359 0.18194 0.0
C701 C 0.53926 0.40299 0.17648 0.0
C702 C 0.53395 0.39672 0.19399 0.0
C703 C 0.51493 0.39704 0.19968 0.0
O704 O 0.50284 0.38023 0.22526 0.0
O705 O 0.50301 0.3971 0.23028 0.0
O706 O 0.51463 0.40383 0.20768 0.0
O707 O 0.51412 0.38699 0.20264 0.0
H708 H 0.49023 0.39649 0.21162 0.0
H709 H 0.47172 0.39732 0.20556 0.0
H710 H 0.46134 0.38252 0.23477 0.0
H711 H 0.47997 0.3816 0.24071 0.0
H712 H 0.5341 0.3683 0.25978 0.0
H713 H 0.52569 0.37417 0.24321 0.0
H714 H 0.56121 0.38879 0.25327 0.0
H715 H 0.55275 0.39463 0.23685 0.0
H716 H 0.55001 0.39641 0.18826 0.0
H717 H 0.52627 0.40902 0.16684 0.0
H718 H 0.51239 0.40556 0.18013 0.0
H719 H 0.53614 0.39328 0.20156 0.0
C720 C 0.38029 0.754 0.99283 0.0
C721 C 0.37459 0.75652 0.98358 0.0
C722 C 0.3742 0.73773 0.97834 0.0
C723 C 0.37151 0.74848 0.97647 0.0
C724 C 0.37972 0.73519 0.98773 0.0
C725 C 0.38275 0.74327 0.99491 0.0
U726 U 0.39103 0.78185 0.99477 0.0
O727 O 0.38726 0.79555 0.00507 0.0
O728 O 0.40365 0.78937 0.00451 0.0
C729 C 0.39697 0.79613 0.00898 0.0
C730 C 0.38437 0.76264 0.99976 0.0
C731 C 0.39753 0.79716 0.02058 0.0
C732 C 0.39271 0.79113 0.03826 0.0
C733 C 0.39321 0.78931 0.02728 0.0
C734 C 0.40117 0.80846 0.03588 0.0
C735 C 0.39644 0.80086 0.04262 0.0
C736 C 0.40171 0.80662 0.02496 0.0
C737 C 0.39335 0.79655 0.9683 0.0
C738 C 0.4009 0.81442 0.96649 0.0
C739 C 0.39086 0.80644 0.95199 0.0
C740 C 0.38925 0.79721 0.95799 0.0
C741 C 0.39663 0.81517 0.9562 0.0
C742 C 0.39922 0.80518 0.97253 0.0
C743 C 0.391 0.78699 0.9746 0.0
O744 O 0.39453 0.76498 0.99843 0.0
O745 O 0.37827 0.77117 1.00041 0.0
O746 O 0.38254 0.78772 0.98072 0.0
O747 O 0.39918 0.78248 0.97931 0.0
H748 H 0.37268 0.76476 0.98172 0.0
H749 H 0.3671 0.75072 0.96944 0.0
H750 H 0.38201 0.727 0.98936 0.0
H751 H 0.38724 0.74117 1.00194 0.0
H752 H 0.38897 0.78517 0.04326 0.0
H753 H 0.38992 0.78197 0.02399 0.0
H754 H 0.40425 0.81595 0.03904 0.0
H755 H 0.40508 0.81275 0.01988 0.0
H756 H 0.40531 0.82105 0.96996 0.0
H757 H 0.3876 0.80673 0.94403 0.0
H758 H 0.38469 0.79063 0.95462 0.0
H759 H 0.40237 0.80482 0.98053 0.0
C760 C 0.02117 0.39037 0.78144 0.0
C761 C 0.02281 0.3951 0.79144 0.0
C762 C 0.04187 0.39171 0.79013 0.0
C763 C 0.03305 0.3958 0.79572 0.0
C764 C 0.04024 0.3872 0.77998 0.0
C765 C 0.02994 0.38651 0.77568 0.0
U766 U 0.99199 0.39057 0.78746 0.0
O767 O 0.97805 0.39692 0.77896 0.0
O768 O 0.97879 0.37982 0.78298 0.0
C769 C 0.97358 0.38741 0.778 0.0
C770 C 0.01024 0.38896 0.77744 0.0
C771 C 0.96929 0.38472 0.76742 0.0
C772 C 0.96909 0.37397 0.75124 0.0
C773 C 0.97384 0.37673 0.76095 0.0
C774 C 0.95541 0.38731 0.75426 0.0
C775 C 0.95979 0.3792 0.74782 0.0
C776 C 0.96011 0.39002 0.76396 0.0
C777 C 0.98393 0.3971 0.81584 0.0
C778 C 0.96549 0.3955 0.82158 0.0
C779 C 0.97878 0.40305 0.83348 0.0
C780 C 0.98661 0.4016 0.82569 0.0
C781 C 0.96813 0.39999 0.83153 0.0
C782 C 0.97332 0.3941 0.81379 0.0
C783 C 0.99221 0.39557 0.80773 0.0
O784 O 0.00515 0.38066 0.78138 0.0
O785 O 0.00444 0.39772 0.77739 0.0
O786 O 0.99235 0.40276 0.80016 0.0
O787 O 0.99321 0.38571 0.80416 0.0
H788 H 0.01612 0.39809 0.79603 0.0
H789 H 0.03405 0.39948 0.80347 0.0
H790 H 0.04686 0.38391 0.77551 0.0
H791 H 0.02879 0.38278 0.76797 0.0
H792 H 0.97269 0.36775 0.74641 0.0
H793 H 0.98096 0.37256 0.76345 0.0
H794 H 0.94817 0.39138 0.75195 0.0
H795 H 0.95646 0.39615 0.76886 0.0
H796 H 0.95741 0.39293 0.81985 0.0
H797 H 0.98106 0.40666 0.84099 0.0
H798 H 0.99477 0.40401 0.82736 0.0
H799 H 0.97112 0.39061 0.8062 0.0
C800 C 0.38023 0.25659 0.51098 0.0
C801 C 0.38424 0.25684 0.52139 0.0
C802 C 0.3738 0.27276 0.52531 0.0
C803 C 0.38109 0.26487 0.52846 0.0
C804 C 0.36979 0.2725 0.51487 0.0
C805 C 0.37301 0.26448 0.50775 0.0
U806 U 0.39001 0.22843 0.50789 0.0
O807 O 0.38483 0.21507 0.49766 0.0
O808 O 0.40139 0.22089 0.49686 0.0
C809 C 0.39411 0.21444 0.49282 0.0
C810 C 0.38309 0.24774 0.50379 0.0
C811 C 0.39372 0.21394 0.48119 0.0
C812 C 0.38829 0.22116 0.46416 0.0
C813 C 0.38877 0.22199 0.47525 0.0
C814 C 0.39785 0.20434 0.46492 0.0
C815 C 0.39281 0.2123 0.45888 0.0
C816 C 0.39829 0.20517 0.47597 0.0
C817 C 0.39594 0.21336 0.53366 0.0
C818 C 0.394 0.19444 0.53775 0.0
C819 C 0.40582 0.20562 0.5483 0.0
C820 C 0.40325 0.21443 0.54202 0.0
C821 C 0.40104 0.19556 0.5464 0.0
C822 C 0.3915 0.20324 0.53142 0.0
C823 C 0.39268 0.22298 0.52778 0.0
O824 O 0.39327 0.2452 0.50366 0.0
O825 O 0.37674 0.23935 0.50435 0.0
O826 O 0.38344 0.22241 0.52286 0.0
O827 O 0.40017 0.22771 0.52216 0.0
H828 H 0.38968 0.25071 0.52409 0.0
H829 H 0.38418 0.26474 0.5365 0.0
H830 H 0.3642 0.2785 0.51221 0.0
H831 H 0.36977 0.26434 0.49978 0.0
H832 H 0.38443 0.22746 0.45973 0.0
H833 H 0.38523 0.22886 0.47919 0.0
H834 H 0.40124 0.19733 0.46113 0.0
H835 H 0.40212 0.19888 0.48045 0.0
H836 H 0.39009 0.18685 0.53611 0.0
H837 H 0.41144 0.20674 0.55474 0.0
H838 H 0.40682 0.22215 0.54384 0.0
H839 H 0.38588 0.20217 0.52496 0.0
C840 C 0.48563 0.61636 0.28179 0.0
C841 C 0.48301 0.61068 0.29101 0.0
C842 C 0.46423 0.61489 0.28855 0.0
C843 C 0.4724 0.60991 0.29434 0.0
C844 C 0.4669 0.62053 0.27926 0.0
C845 C 0.47753 0.62124 0.27591 0.0
U846 U 0.51478 0.61448 0.28882 0.0
O847 O 0.52866 0.60863 0.27977 0.0
O848 O 0.52833 0.62523 0.28568 0.0
C849 C 0.53336 0.61807 0.27986 0.0
C850 C 0.49685 0.61758 0.2786 0.0
C851 C 0.53762 0.62177 0.26961 0.0
C852 C 0.53773 0.63412 0.25475 0.0
C853 C 0.53301 0.63033 0.26409 0.0
C854 C 0.55149 0.62063 0.25618 0.0
C855 C 0.54707 0.62936 0.25075 0.0
C856 C 0.54681 0.61689 0.26553 0.0
C857 C 0.52263 0.60565 0.31637 0.0
C858 C 0.54124 0.60634 0.32167 0.0
C859 C 0.5279 0.59945 0.33382 0.0
C860 C 0.51996 0.60126 0.32623 0.0
C861 C 0.53863 0.60202 0.33164 0.0
C862 C 0.53331 0.60812 0.3141 0.0
C863 C 0.51426 0.60783 0.30853 0.0
O864 O 0.50204 0.6253 0.28356 0.0
O865 O 0.50229 0.60862 0.27795 0.0
O866 O 0.51403 0.60129 0.30032 0.0
O867 O 0.51335 0.61795 0.30588 0.0
H868 H 0.48919 0.60696 0.29572 0.0
H869 H 0.47063 0.60567 0.30161 0.0
H870 H 0.46077 0.62438 0.2746 0.0
H871 H 0.47944 0.62569 0.26879 0.0
H872 H 0.53409 0.6408 0.25068 0.0
H873 H 0.52586 0.63418 0.26706 0.0
H874 H 0.55875 0.61687 0.25338 0.0
H875 H 0.55051 0.61031 0.26969 0.0
H876 H 0.54938 0.60857 0.31977 0.0
H877 H 0.52563 0.59599 0.34136 0.0
H878 H 0.51174 0.59929 0.32808 0.0
H879 H 0.53549 0.61154 0.30651 0.0
C880 C 0.11603 0.77542 0.97799 0.0
C881 C 0.11053 0.78498 0.97608 0.0
C882 C 0.11491 0.78377 0.95728 0.0
C883 C 0.10994 0.78909 0.96582 0.0
C884 C 0.1202 0.77405 0.9592 0.0
C885 C 0.12077 0.76992 0.96949 0.0
U886 U 0.11457 0.78141 0.00718 0.0
O887 O 0.10884 0.77205 0.02082 0.0
O888 O 0.12545 0.7778 0.02033 0.0
C889 C 0.11829 0.772 0.02536 0.0
C890 C 0.11736 0.77164 0.98893 0.0
C891 C 0.12185 0.76165 0.0296 0.0
C892 C 0.13429 0.74675 0.03016 0.0
C893 C 0.13064 0.75613 0.02533 0.0
C894 C 0.12024 0.74819 0.04332 0.0
C895 C 0.12917 0.74274 0.03927 0.0
C896 C 0.11664 0.75755 0.03854 0.0
C897 C 0.10608 0.80887 0.0163 0.0
C898 C 0.10756 0.81342 0.035 0.0
C899 C 0.09988 0.82613 0.02273 0.0
C900 C 0.10142 0.81885 0.01437 0.0
C901 C 0.10305 0.82353 0.03311 0.0
C902 C 0.10904 0.80615 0.02668 0.0
C903 C 0.10804 0.80134 0.00753 0.0
O904 O 0.12516 0.77634 0.99418 0.0
O905 O 0.10849 0.77086 0.99448 0.0
O906 O 0.10147 0.79311 0.00707 0.0
O907 O 0.11809 0.79864 0.00626 0.0
H908 H 0.10686 0.78936 0.98256 0.0
H909 H 0.10566 0.7965 0.9646 0.0
H910 H 0.1242 0.76982 0.95281 0.0
H911 H 0.12511 0.76257 0.97086 0.0
H912 H 0.14113 0.74268 0.02681 0.0
H913 H 0.13477 0.75913 0.0184 0.0
H914 H 0.11622 0.74541 0.05042 0.0
H915 H 0.1099 0.76173 0.04199 0.0
H916 H 0.10993 0.81112 0.04294 0.0
H917 H 0.09645 0.83388 0.02103 0.0
H918 H 0.09908 0.82105 0.0064 0.0
H919 H 0.11259 0.79843 0.02831 0.0
C920 C 0.7541 0.98812 0.62727 0.0
C921 C 0.75321 0.97715 0.62499 0.0
C922 C 0.76994 0.97376 0.63416 0.0
C923 C 0.76106 0.97005 0.62835 0.0
C924 C 0.77083 0.9848 0.63641 0.0
C925 C 0.76295 0.99193 0.63299 0.0
U926 U 0.72607 0.99141 0.61763 0.0
O927 O 0.71337 1.00277 0.62176 0.0
O928 O 0.719 1.00154 0.60527 0.0
C929 C 0.7129 0.00666 0.61209 0.0
C930 C 0.7456 0.99544 0.62394 0.0
C931 C 0.71304 0.01839 0.6113 0.0
C932 C 0.72017 0.03584 0.61627 0.0
C933 C 0.72051 0.02465 0.61689 0.0
C934 C 0.70509 0.03454 0.60427 0.0
C935 C 0.71242 0.04091 0.60999 0.0
C936 C 0.7054 0.02339 0.60493 0.0
C937 C 0.70971 0.9658 0.61414 0.0
C938 C 0.69103 0.96606 0.609 0.0
C939 C 0.6999 0.94913 0.61207 0.0
C940 C 0.70936 0.9546 0.61444 0.0
C941 C 0.69061 0.95479 0.60935 0.0
C942 C 0.70052 0.97152 0.61136 0.0
C943 C 0.71965 0.97138 0.61694 0.0
O944 O 0.7429 0.99468 0.61388 0.0
O945 O 0.73733 0.9958 0.63036 0.0
O946 O 0.71919 0.97734 0.62555 0.0
O947 O 0.72463 0.97607 0.60903 0.0
H948 H 0.7464 0.97405 0.62062 0.0
H949 H 0.76021 0.96165 0.62631 0.0
H950 H 0.7775 0.98791 0.64096 0.0
H951 H 0.76371 1.00037 0.63488 0.0
H952 H 0.72598 0.04053 0.62069 0.0
H953 H 0.72651 0.0209 0.6218 0.0
H954 H 0.69892 0.03818 0.5995 0.0
H955 H 0.69958 0.01867 0.60058 0.0
H956 H 0.68405 0.97064 0.60684 0.0
H957 H 0.69981 0.94048 0.61258 0.0
H958 H 0.71639 0.95008 0.61661 0.0
H959 H 0.70069 0.98019 0.61109 0.0
C960 C 0.75325 0.98886 0.37685 0.0
C961 C 0.75357 0.9781 0.37998 0.0
C962 C 0.73613 0.97493 0.37206 0.0
C963 C 0.74507 0.97122 0.37766 0.0
C964 C 0.7359 0.98568 0.36877 0.0
C965 C 0.74441 0.99261 0.37119 0.0
U966 U 0.7821 0.9917 0.38421 0.0
O967 O 0.79474 1.00285 0.37922 0.0
O968 O 0.79034 1.00177 0.39607 0.0
C969 C 0.79604 0.00675 0.38886 0.0
C970 C 0.76227 0.99602 0.37933 0.0
C971 C 0.79635 0.01848 0.38982 0.0
C972 C 0.78978 0.03617 0.38531 0.0
C973 C 0.78906 0.025 0.38443 0.0
C974 C 0.80492 0.03434 0.39714 0.0
C975 C 0.79775 0.04095 0.39166 0.0
C976 C 0.80422 0.02322 0.39621 0.0
C977 C 0.79794 0.96588 0.38693 0.0
C978 C 0.81653 0.96587 0.39243 0.0
C979 C 0.80766 0.94917 0.38785 0.0
C980 C 0.79827 0.95474 0.38571 0.0
C981 C 0.81689 0.95466 0.39126 0.0
C982 C 0.80711 0.97144 0.39028 0.0
C983 C 0.788 0.97157 0.38463 0.0
O984 O 0.76573 0.9955 0.38917 0.0
O985 O 0.77002 0.99599 0.37228 0.0
O986 O 0.78813 0.97738 0.37596 0.0
O987 O 0.7836 0.97649 0.39277 0.0
H988 H 0.76041 0.97501 0.38422 0.0
H989 H 0.74555 0.96294 0.38014 0.0
H990 H 0.7291 0.98876 0.36448 0.0
H991 H 0.74407 1.00088 0.36865 0.0
H992 H 0.7841 0.04105 0.38106 0.0
H993 H 0.78288 0.02145 0.3795 0.0
H994 H 0.81124 0.03777 0.40196 0.0
H995 H 0.80991 0.0183 0.40042 0.0
H996 H 0.82346 0.97032 0.39513 0.0
H997 H 0.80772 0.94057 0.38669 0.0
H998 H 0.79127 0.95035 0.38308 0.0
H999 H 0.80696 0.98007 0.39125 0.0
C1000 C 0.7771 0.98486 0.11642 0.0
C1001 C 0.78691 0.98189 0.11195 0.0
C1002 C 0.78271 0.96307 0.11486 0.0
C1003 C 0.78969 0.97109 0.11115 0.0
C1004 C 0.77284 0.96611 0.11926 0.0
C1005 C 0.77006 0.97693 0.12002 0.0
U1006 U 0.78557 0.01391 0.11582 0.0
O1007 O 0.77753 0.02824 0.10965 0.0
O1008 O 0.78194 0.02737 0.12651 0.0
C1009 C 0.77694 0.03276 0.11909 0.0
C1010 C 0.77437 0.99623 0.11765 0.0
C1011 C 0.76649 0.03721 0.12199 0.0
C1012 C 0.74986 0.0366 0.13194 0.0
C1013 C 0.75955 0.0319 0.129 0.0
C1014 C 0.75383 0.0518 0.12071 0.0
C1015 C 0.74692 0.04663 0.12785 0.0
C1016 C 0.76353 0.04714 0.11783 0.0
C1017 C 0.81404 0.02128 0.10924 0.0
C1018 C 0.81951 0.03994 0.11028 0.0
C1019 C 0.83208 0.02644 0.10439 0.0
C1020 C 0.82425 0.01853 0.10565 0.0
C1021 C 0.82981 0.03725 0.10671 0.0
C1022 C 0.81169 0.03203 0.11151 0.0
C1023 C 0.80584 0.01298 0.11069 0.0
O1024 O 0.77895 1.00107 0.12576 0.0
O1025 O 0.77473 1.00187 0.10888 0.0
O1026 O 0.79813 0.01301 0.10362 0.0
O1027 O 0.80235 0.01196 0.12048 0.0
H1028 H 0.79249 0.98794 0.10921 0.0
H1029 H 0.79741 0.96903 0.10787 0.0
H1030 H 0.76727 0.96012 0.12211 0.0
H1031 H 0.76245 0.9791 0.12351 0.0
H1032 H 0.74464 0.03239 0.13738 0.0
H1033 H 0.76166 0.02418 0.13225 0.0
H1034 H 0.75187 0.05959 0.11752 0.0
H1035 H 0.76879 0.05136 0.11244 0.0
H1036 H 0.81752 0.04813 0.11229 0.0
H1037 H 0.83989 0.02412 0.10151 0.0
H1038 H 0.82616 0.01026 0.10383 0.0
H1039 H 0.80383 0.03428 0.11432 0.0
C1040 C 0.72971 0.98465 0.89351 0.0
C1041 C 0.72015 0.98207 0.89872 0.0
C1042 C 0.72309 0.96312 0.89515 0.0
C1043 C 0.71688 0.97139 0.89957 0.0
C1044 C 0.73269 0.96576 0.88996 0.0
C1045 C 0.73598 0.97645 0.88917 0.0
U1046 U 0.72267 0.014 0.89467 0.0
O1047 O 0.73164 0.02801 0.90067 0.0
O1048 O 0.72655 0.02729 0.88398 0.0
C1049 C 0.73213 0.03245 0.89124 0.0
C1050 C 0.73295 0.9959 0.89229 0.0
C1051 C 0.74274 0.0363 0.88795 0.0
C1052 C 0.75887 0.03466 0.87733 0.0
C1053 C 0.74905 0.03052 0.88071 0.0
C1054 C 0.75631 0.05022 0.88864 0.0
C1055 C 0.76257 0.0446 0.88122 0.0
C1056 C 0.74648 0.04611 0.89194 0.0
C1057 C 0.69456 0.02213 0.90216 0.0
C1058 C 0.68946 0.04086 0.90179 0.0
C1059 C 0.67644 0.02731 0.90662 0.0
C1060 C 0.68418 0.01937 0.90529 0.0
C1061 C 0.67898 0.03815 0.90482 0.0
C1062 C 0.69718 0.03291 0.90047 0.0
C1063 C 0.70254 0.01373 0.9004 0.0
O1064 O 0.72835 1.00091 0.88438 0.0
O1065 O 0.73317 1.00157 0.90112 0.0
O1066 O 0.71046 0.01363 0.90724 0.0
O1067 O 0.70569 0.01262 0.8905 0.0
H1068 H 0.71515 0.98832 0.90202 0.0
H1069 H 0.70937 0.96964 0.90346 0.0
H1070 H 0.73767 0.95956 0.88655 0.0
H1071 H 0.74337 0.97833 0.88509 0.0
H1072 H 0.76358 0.03011 0.87169 0.0
H1073 H 0.74634 0.02287 0.87759 0.0
H1074 H 0.75887 0.05795 0.89168 0.0
H1075 H 0.74171 0.05069 0.89752 0.0
H1076 H 0.69165 0.0491 0.9002 0.0
H1077 H 0.66849 0.02497 0.90908 0.0
H1078 H 0.68204 0.01107 0.90664 0.0
H1079 H 0.70517 0.03517 0.89801 0.0
C1080 C 0.62567 0.7545 0.99541 0.0
C1081 C 0.62183 0.75452 0.98495 0.0
C1082 C 0.63205 0.77067 0.9812 0.0
C1083 C 0.62495 0.76255 0.97793 0.0
C1084 C 0.63587 0.77065 0.99171 0.0
C1085 C 0.63268 0.76262 0.99877 0.0
U1086 U 0.61685 0.72595 0.99831 0.0
O1087 O 0.6223 0.71298 0.00867 0.0
O1088 O 0.60553 0.71803 0.00911 0.0
C1089 C 0.61296 0.71201 0.01334 0.0
C1090 C 0.62293 0.74561 1.00254 0.0
C1091 C 0.61316 0.71178 0.02499 0.0
C1092 C 0.61856 0.7193 0.042 0.0
C1093 C 0.61818 0.71992 0.03091 0.0
C1094 C 0.60872 0.70255 0.0413 0.0
C1095 C 0.61388 0.71057 0.04731 0.0
C1096 C 0.60837 0.70316 0.03024 0.0
C1097 C 0.61229 0.71018 0.97253 0.0
C1098 C 0.61411 0.69098 0.9698 0.0
C1099 C 0.60443 0.70162 0.95702 0.0
C1100 C 0.60637 0.71081 0.96312 0.0
C1101 C 0.60846 0.69162 0.96017 0.0
C1102 C 0.61597 0.70016 0.97594 0.0
C1103 C 0.61494 0.72009 0.97837 0.0
O1104 O 0.61285 0.7426 1.00238 0.0
O1105 O 0.6296 0.73752 1.00218 0.0
O1106 O 0.62406 0.72007 0.98352 0.0
O1107 O 0.60711 0.72447 0.98379 0.0
H1108 H 0.61656 0.7482 0.98214 0.0
H1109 H 0.62201 0.76225 0.96984 0.0
H1110 H 0.64131 0.77683 0.99447 0.0
H1111 H 0.63579 0.76267 0.0068 0.0
H1112 H 0.62251 0.72565 0.04642 0.0
H1113 H 0.62187 0.72667 0.02695 0.0
H1114 H 0.60518 0.69564 0.04512 0.0
H1115 H 0.60448 0.6968 0.02577 0.0
H1116 H 0.61742 0.68345 0.97243 0.0
H1117 H 0.59985 0.70238 0.94977 0.0
H1118 H 0.6034 0.71845 0.9604 0.0
H1119 H 0.62051 0.69947 0.98323 0.0
C1120 C 0.98635 0.11507 0.78163 0.0
C1121 C 0.98449 0.11114 0.79188 0.0
C1122 C 0.96548 0.11456 0.78999 0.0
C1123 C 0.97415 0.11086 0.79601 0.0
C1124 C 0.96734 0.11823 0.7796 0.0
C1125 C 0.97772 0.11851 0.77546 0.0
U1126 U 0.01565 0.1134 0.78737 0.0
O1127 O 0.02925 0.10731 0.77805 0.0
O1128 O 0.02906 0.12408 0.7835 0.0
C1129 C 0.03394 0.11675 0.77775 0.0
C1130 C 0.99734 0.11613 0.77773 0.0
C1131 C 0.03788 0.12019 0.7673 0.0
C1132 C 0.03689 0.1315 0.75168 0.0
C1133 C 0.03253 0.12793 0.76128 0.0
C1134 C 0.05179 0.11941 0.7539 0.0
C1135 C 0.0466 0.12732 0.74793 0.0
C1136 C 0.04747 0.1159 0.7635 0.0
C1137 C 0.02414 0.10544 0.81511 0.0
C1138 C 0.04273 0.10661 0.82044 0.0
C1139 C 0.02958 0.09912 0.83246 0.0
C1140 C 0.0216 0.10082 0.8249 0.0
C1141 C 0.04024 0.10205 0.83034 0.0
C1142 C 0.03475 0.10826 0.81288 0.0
C1143 C 0.01569 0.10741 0.8073 0.0
O1144 O 1.00278 0.12403 0.78209 0.0
O1145 O 1.00275 0.10714 0.7772 0.0
O1146 O 0.0153 0.1006 0.79931 0.0
O1147 O 0.01475 0.11744 0.80435 0.0
H1148 H 0.99107 0.10846 0.79676 0.0
H1149 H 0.97296 0.10785 0.80397 0.0
H1150 H 0.96084 0.12121 0.7748 0.0
H1151 H 0.97905 0.12162 0.76755 0.0
H1152 H 0.03266 0.13753 0.7472 0.0
H1153 H 0.02507 0.13131 0.76405 0.0
H1154 H 0.05935 0.11613 0.7513 0.0
H1155 H 0.05173 0.10996 0.76805 0.0
H1156 H 0.05081 0.1091 0.8186 0.0
H1157 H 0.02741 0.09546 0.83994 0.0
H1158 H 0.01344 0.09855 0.8267 0.0
H1159 H 0.03684 0.11185 0.80534 0.0
C1160 C 0.88425 0.25344 0.49312 0.0
C1161 C 0.88822 0.25311 0.4827 0.0
C1162 C 0.87775 0.23708 0.47897 0.0
C1163 C 0.88505 0.24499 0.47572 0.0
C1164 C 0.87383 0.23738 0.48945 0.0
C1165 C 0.87708 0.2455 0.49648 0.0
U1166 U 0.8928 0.28207 0.49524 0.0
O1167 O 0.88702 0.29554 0.50493 0.0
O1168 O 0.90384 0.29071 0.50587 0.0
C1169 C 0.89628 0.29693 0.50966 0.0
C1170 C 0.88691 0.26256 0.5001 0.0
C1171 C 0.89579 0.29803 0.52126 0.0
C1172 C 0.89337 0.29054 0.53887 0.0
C1173 C 0.89439 0.28912 0.52787 0.0
C1174 C 0.89528 0.30973 0.53667 0.0
C1175 C 0.89364 0.30089 0.54335 0.0
C1176 C 0.89634 0.3083 0.52573 0.0
C1177 C 0.89668 0.29653 0.46881 0.0
C1178 C 0.9037 0.31464 0.46722 0.0
C1179 C 0.89409 0.30645 0.45254 0.0
C1180 C 0.89271 0.29714 0.45845 0.0
C1181 C 0.89952 0.31534 0.45688 0.0
C1182 C 0.90222 0.30531 0.47318 0.0
C1183 C 0.89443 0.28689 0.47505 0.0
O1184 O 0.89697 0.26565 0.49989 0.0
O1185 O 0.88018 0.27057 0.49955 0.0
O1186 O 0.88536 0.28708 0.48029 0.0
O1187 O 0.9024 0.28303 0.48063 0.0
H1188 H 0.89361 0.25929 0.47988 0.0
H1189 H 0.88806 0.2451 0.46765 0.0
H1190 H 0.86823 0.23136 0.49219 0.0
H1191 H 0.87384 0.2457 0.50446 0.0
H1192 H 0.89205 0.28359 0.54383 0.0
H1193 H 0.8939 0.28112 0.52451 0.0
H1194 H 0.89568 0.31779 0.53991 0.0
H1195 H 0.89745 0.31526 0.52073 0.0
H1196 H 0.90784 0.32139 0.47079 0.0
H1197 H 0.89091 0.30671 0.44454 0.0
H1198 H 0.88839 0.29044 0.45498 0.0
H1199 H 0.90526 0.30501 0.48123 0.0
C1200 C 0.50576 0.86921 0.77276 0.0
C1201 C 0.50534 0.86535 0.7832 0.0
C1202 C 0.49008 0.87672 0.78705 0.0
C1203 C 0.49755 0.86901 0.79024 0.0
C1204 C 0.49033 0.88037 0.77649 0.0
C1205 C 0.49814 0.87666 0.76941 0.0
U1206 U 0.53411 0.86056 0.77117 0.0
O1207 O 0.54278 0.84909 0.76102 0.0
O1208 O 0.54773 0.866 0.76161 0.0
C1209 C 0.54913 0.85654 0.7572 0.0
C1210 C 0.51478 0.8663 0.76586 0.0
C1211 C 0.55056 0.85656 0.74563 0.0
C1212 C 0.54468 0.86132 0.72789 0.0
C1213 C 0.54272 0.86065 0.73883 0.0
C1214 C 0.56218 0.85356 0.73053 0.0
C1215 C 0.55453 0.85796 0.72367 0.0
C1216 C 0.56021 0.85288 0.7414 0.0
C1217 C 0.54804 0.85761 0.79802 0.0
C1218 C 0.56628 0.85138 0.8 0.0
C1219 C 0.55742 0.86038 0.81465 0.0
C1220 C 0.54824 0.86144 0.80848 0.0
C1221 C 0.56658 0.85545 0.81044 0.0
C1222 C 0.55708 0.85252 0.7938 0.0
C1223 C 0.53857 0.85963 0.7915 0.0
O1224 O 0.52284 0.87306 0.76627 0.0
O1225 O 0.51777 0.85621 0.76633 0.0
O1226 O 0.53478 0.85143 0.78606 0.0
O1227 O 0.53893 0.86853 0.78601 0.0
H1228 H 0.51122 0.85969 0.786 0.0
H1229 H 0.49748 0.86588 0.79824 0.0
H1230 H 0.48475 0.88637 0.77381 0.0
H1231 H 0.49843 0.87983 0.76143 0.0
H1232 H 0.53866 0.8648 0.72282 0.0
H1233 H 0.53521 0.86354 0.742 0.0
H1234 H 0.56976 0.85073 0.72749 0.0
H1235 H 0.56632 0.84967 0.74656 0.0
H1236 H 0.57325 0.84762 0.79654 0.0
H1237 H 0.55737 0.86346 0.82271 0.0
H1238 H 0.54133 0.86541 0.81184 0.0
H1239 H 0.55709 0.8496 0.78567 0.0
C1240 C 0.97827 0.14015 0.23893 0.0
C1241 C 0.96848 0.14508 0.23677 0.0
C1242 C 0.97082 0.14164 0.21787 0.0
C1243 C 0.9648 0.14585 0.22634 0.0
C1244 C 0.98068 0.13676 0.22008 0.0
C1245 C 0.98438 0.13603 0.23054 0.0
U1246 U 0.9721 0.1416 0.26818 0.0
O1247 O 0.97581 0.1307 0.28127 0.0
O1248 O 0.98154 0.14737 0.28184 0.0
C1249 C 0.9817 0.13786 0.28628 0.0
C1250 C 0.98186 0.13889 0.24995 0.0
C1251 C 0.99214 0.13424 0.29022 0.0
C1252 C 0.00698 0.12174 0.29012 0.0
C1253 C 0.99751 0.1255 0.28562 0.0
C1254 C 0.00603 0.13563 0.30361 0.0
C1255 C 0.01129 0.12671 0.29923 0.0
C1256 C 0.99654 0.13933 0.29915 0.0
C1257 C 0.94455 0.1498 0.27717 0.0
C1258 C 0.93958 0.14783 0.29569 0.0
C1259 C 0.9273 0.15608 0.28334 0.0
C1260 C 0.93472 0.15468 0.27514 0.0
C1261 C 0.92962 0.15256 0.29368 0.0
C1262 C 0.94699 0.14649 0.28751 0.0
C1263 C 0.95217 0.14795 0.2685 0.0
O1264 O 0.98249 0.14781 0.25552 0.0
O1265 O 0.97719 0.13103 0.2551 0.0
O1266 O 0.95497 0.1379 0.26715 0.0
O1267 O 0.9603 0.15463 0.26821 0.0
H1268 H 0.9636 0.14821 0.24319 0.0
H1269 H 0.9571 0.1495 0.22494 0.0
H1270 H 0.98554 0.13352 0.21372 0.0
H1271 H 0.99194 0.13217 0.23208 0.0
H1272 H 0.01092 0.11492 0.28651 0.0
H1273 H 0.9943 0.12147 0.27867 0.0
H1274 H 0.00905 0.13955 0.3107 0.0
H1275 H 0.9925 0.14605 0.30284 0.0
H1276 H 0.94165 0.14518 0.30359 0.0
H1277 H 0.91967 0.15968 0.28155 0.0
H1278 H 0.93273 0.15728 0.26719 0.0
H1279 H 0.9546 0.14277 0.28922 0.0
C1280 C 0.5075 0.13124 0.73667 0.0
C1281 C 0.50977 0.12599 0.72704 0.0
C1282 C 0.49087 0.12528 0.72269 0.0
C1283 C 0.50155 0.12297 0.72018 0.0
C1284 C 0.48858 0.13033 0.73246 0.0
C1285 C 0.49685 0.1333 0.73939 0.0
U1286 U 0.53558 0.14118 0.73786 0.0
O1287 O 0.54349 0.15413 0.74693 0.0
O1288 O 0.54917 0.13754 0.74817 0.0
C1289 C 0.55007 0.14747 0.7516 0.0
C1290 C 0.5163 0.13526 0.74335 0.0
C1291 C 0.55135 0.14876 0.76312 0.0
C1292 C 0.54665 0.14406 0.78124 0.0
C1293 C 0.5445 0.14364 0.77033 0.0
C1294 C 0.56227 0.15504 0.77779 0.0
C1295 C 0.55572 0.14957 0.78505 0.0
C1296 C 0.5601 0.15463 0.76693 0.0
C1297 C 0.5502 0.14233 0.71132 0.0
C1298 C 0.56833 0.14909 0.70968 0.0
C1299 C 0.55995 0.13985 0.69487 0.0
C1300 C 0.55068 0.13849 0.70087 0.0
C1301 C 0.56891 0.14509 0.69923 0.0
C1302 C 0.55905 0.14768 0.71571 0.0
C1303 C 0.54058 0.14028 0.71764 0.0
O1304 O 0.52461 0.12889 0.74398 0.0
O1305 O 0.51893 0.14532 0.7417 0.0
O1306 O 0.53619 0.14872 0.72213 0.0
O1307 O 0.54118 0.13201 0.72401 0.0
H1308 H 0.51795 0.1244 0.72472 0.0
H1309 H 0.5036 0.11894 0.71282 0.0
H1310 H 0.48045 0.13232 0.73459 0.0
H1311 H 0.49495 0.13744 0.74673 0.0
H1312 H 0.54149 0.13973 0.78663 0.0
H1313 H 0.53769 0.13906 0.76749 0.0
H1314 H 0.5692 0.1595 0.7805 0.0
H1315 H 0.56545 0.15865 0.76147 0.0
H1316 H 0.57514 0.15308 0.71327 0.0
H1317 H 0.5601 0.13681 0.68679 0.0
H1318 H 0.54391 0.13433 0.69738 0.0
H1319 H 0.55882 0.15062 0.72382 0.0
C1320 C 0.13465 0.23119 0.9815 0.0
C1321 C 0.13951 0.22916 0.97166 0.0
C1322 C 0.13719 0.20998 0.97414 0.0
C1323 C 0.14079 0.21867 0.96803 0.0
C1324 C 0.13231 0.21205 0.98402 0.0
C1325 C 0.13107 0.22259 0.98768 0.0
U1326 U 0.13472 0.26044 0.9749 0.0
O1327 O 0.12387 0.27358 0.97914 0.0
O1328 O 0.14085 0.27461 0.98346 0.0
C1329 C 0.13134 0.27895 0.98426 0.0
C1330 C 0.13306 0.24228 0.98509 0.0
C1331 C 0.12848 0.28312 0.99483 0.0
C1332 C 0.11855 0.28211 0.0114 0.0
C1333 C 0.12138 0.27766 1.00156 0.0
C1334 C 0.13006 0.29735 0.00796 0.0
C1335 C 0.12286 0.29202 0.01469 0.0
C1336 C 0.13283 0.29295 0.99813 0.0
C1337 C 0.14163 0.26854 0.9468 0.0
C1338 C 0.14089 0.28724 0.9417 0.0
C1339 C 0.14693 0.27386 0.92905 0.0
C1340 C 0.14541 0.26588 0.93666 0.0
C1341 C 0.14468 0.28463 0.93148 0.0
C1342 C 0.13939 0.27926 0.94929 0.0
C1343 C 0.14003 0.26015 0.95474 0.0
O1344 O 0.14175 0.24823 0.98524 0.0
O1345 O 0.12484 0.24712 0.98079 0.0
O1346 O 0.13015 0.25902 0.9581 0.0
O1347 O 0.14707 0.26009 0.96247 0.0
H1348 H 0.14221 0.23573 0.96673 0.0
H1349 H 0.1444 0.21737 0.96031 0.0
H1350 H 0.12951 0.20552 0.98892 0.0
H1351 H 0.12727 0.22402 0.99528 0.0
H1352 H 0.11305 0.27778 0.01646 0.0
H1353 H 0.11798 0.27002 0.99919 0.0
H1354 H 0.1334 0.30507 0.01019 0.0
H1355 H 0.13829 0.29729 0.99303 0.0
H1356 H 0.13894 0.29543 0.94379 0.0
H1357 H 0.14998 0.2716 0.92131 0.0
H1358 H 0.14721 0.25763 0.93464 0.0
H1359 H 0.13645 0.28144 0.9571 0.0
C1360 C 0.37671 0.73925 0.50911 0.0
C1361 C 0.37464 0.72823 0.50828 0.0
C1362 C 0.38396 0.72512 0.52491 0.0
C1363 C 0.37817 0.72125 0.51611 0.0
C1364 C 0.38588 0.73622 0.52582 0.0
C1365 C 0.3823 0.74323 0.51794 0.0
U1366 U 0.3682 0.74132 0.48088 0.0
O1367 O 0.35615 0.75104 0.47268 0.0
O1368 O 0.373 0.75192 0.46786 0.0
C1369 C 0.36332 0.75577 0.46667 0.0
C1370 C 0.37359 0.74634 0.50038 0.0
C1371 C 0.36256 0.76748 0.46601 0.0
C1372 C 0.36754 0.78537 0.47197 0.0
C1373 C 0.36795 0.77424 0.47319 0.0
C1374 C 0.35612 0.78306 0.45659 0.0
C1375 C 0.36166 0.7899 0.46361 0.0
C1376 C 0.35657 0.77196 0.45779 0.0
C1377 C 0.36625 0.7145 0.46603 0.0
C1378 C 0.35967 0.71253 0.44797 0.0
C1379 C 0.3688 0.6978 0.45646 0.0
C1380 C 0.37007 0.70399 0.46564 0.0
C1381 C 0.36366 0.70201 0.4475 0.0
C1382 C 0.36101 0.71876 0.45716 0.0
C1383 C 0.36818 0.72095 0.47562 0.0
O1384 O 0.38038 0.74654 0.49242 0.0
O1385 O 0.3636 0.74535 0.49729 0.0
O1386 O 0.35983 0.72583 0.47969 0.0
O1387 O 0.37677 0.72702 0.47533 0.0
H1388 H 0.37038 0.725 0.50147 0.0
H1389 H 0.37637 0.71279 0.51525 0.0
H1390 H 0.39038 0.73943 0.53246 0.0
H1391 H 0.38405 0.75171 0.51865 0.0
H1392 H 0.37182 0.79043 0.47756 0.0
H1393 H 0.37258 0.7709 0.47962 0.0
H1394 H 0.35166 0.78626 0.44997 0.0
H1395 H 0.35238 0.76686 0.45216 0.0
H1396 H 0.35575 0.716 0.44115 0.0
H1397 H 0.37182 0.68968 0.4564 0.0
H1398 H 0.37414 0.7006 0.47242 0.0
H1399 H 0.35807 0.72691 0.45732 0.0
C1400 C 0.73304 0.52682 0.87188 0.0
C1401 C 0.72809 0.53068 0.88116 0.0
C1402 C 0.71127 0.53277 0.87173 0.0
C1403 C 0.71736 0.53367 0.88107 0.0
C1404 C 0.71614 0.52867 0.86251 0.0
C1405 C 0.72689 0.5257 0.86259 0.0
U1406 U 0.76243 0.53376 0.86726 0.0
O1407 O 0.77655 0.53063 0.87707 0.0
O1408 O 0.77565 0.5241 0.86085 0.0
C1409 C 0.78095 0.5244 0.86985 0.0
C1410 C 0.74451 0.52393 0.872 0.0
C1411 C 0.78502 0.51408 0.87363 0.0
C1412 C 0.78403 0.49863 0.88525 0.0
C1413 C 0.77966 0.50818 0.88148 0.0
C1414 C 0.79898 0.50067 0.87319 0.0
C1415 C 0.79376 0.4948 0.88117 0.0
C1416 C 0.79465 0.51023 0.86948 0.0
C1417 C 0.77079 0.56087 0.85725 0.0
C1418 C 0.78969 0.56518 0.85675 0.0
C1419 C 0.77672 0.57823 0.85089 0.0
C1420 C 0.76846 0.57099 0.85313 0.0
C1421 C 0.78742 0.57544 0.85282 0.0
C1422 C 0.78145 0.55796 0.85894 0.0
C1423 C 0.76216 0.55344 0.8601 0.0
O1424 O 0.74925 0.52295 0.86271 0.0
O1425 O 0.75044 0.52898 0.87907 0.0
O1426 O 0.76168 0.55109 0.87025 0.0
O1427 O 0.7612 0.54498 0.8539 0.0
H1428 H 0.73255 0.53151 0.88849 0.0
H1429 H 0.71392 0.5369 0.88829 0.0
H1430 H 0.71163 0.52771 0.85523 0.0
H1431 H 0.73039 0.52258 0.85534 0.0
H1432 H 0.77979 0.49422 0.89133 0.0
H1433 H 0.77217 0.511 0.88474 0.0
H1434 H 0.80655 0.49802 0.86998 0.0
H1435 H 0.7989 0.5147 0.86345 0.0
H1436 H 0.79785 0.56274 0.85817 0.0
H1437 H 0.77473 0.5861 0.84794 0.0
H1438 H 0.76026 0.57335 0.85179 0.0
H1439 H 0.78338 0.55014 0.86207 0.0
C1440 C 0.74464 0.50394 0.13478 0.0
C1441 C 0.73428 0.50342 0.13899 0.0
C1442 C 0.73084 0.4869 0.12921 0.0
C1443 C 0.72747 0.49497 0.13628 0.0
C1444 C 0.74125 0.48743 0.12501 0.0
C1445 C 0.7481 0.49589 0.1278 0.0
U1446 U 0.74622 0.53282 0.14267 0.0
O1447 O 0.7569 0.54188 0.15332 0.0
O1448 O 0.75561 0.54634 0.13652 0.0
C1449 C 0.76051 0.54797 0.14562 0.0
C1450 C 0.75144 0.51331 0.13707 0.0
C1451 C 0.77215 0.54912 0.14492 0.0
C1452 C 0.78986 0.54159 0.14258 0.0
C1453 C 0.77882 0.54018 0.14372 0.0
C1454 C 0.7876 0.56083 0.14395 0.0
C1455 C 0.79434 0.55195 0.14254 0.0
C1456 C 0.77661 0.55941 0.14512 0.0
C1457 C 0.7194 0.54678 0.14694 0.0
C1458 C 0.71756 0.56499 0.15361 0.0
C1459 C 0.70263 0.55617 0.14492 0.0
C1460 C 0.7088 0.547 0.14345 0.0
C1461 C 0.70697 0.5653 0.14993 0.0
C1462 C 0.72377 0.55581 0.15207 0.0
C1463 C 0.72586 0.53725 0.14466 0.0
O1464 O 0.75051 0.52115 0.13023 0.0
O1465 O 0.75138 0.51662 0.14701 0.0
O1466 O 0.73172 0.53364 0.15251 0.0
O1467 O 0.73092 0.53744 0.13553 0.0
H1468 H 0.73137 0.50967 0.14424 0.0
H1469 H 0.71945 0.4949 0.1395 0.0
H1470 H 0.74407 0.48131 0.11957 0.0
H1471 H 0.75604 0.49623 0.12438 0.0
H1472 H 0.79486 0.53461 0.14145 0.0
H1473 H 0.77547 0.53217 0.1435 0.0
H1474 H 0.79082 0.56889 0.14411 0.0
H1475 H 0.77157 0.56639 0.14607 0.0
H1476 H 0.72112 0.57194 0.15743 0.0
H1477 H 0.69445 0.55612 0.14212 0.0
H1478 H 0.70532 0.54011 0.13946 0.0
H1479 H 0.73199 0.55581 0.15472 0.0
C1480 C 0.74428 0.50488 0.37368 0.0
C1481 C 0.73379 0.50501 0.36978 0.0
C1482 C 0.73035 0.52166 0.37927 0.0
C1483 C 0.72691 0.51333 0.37251 0.0
C1484 C 0.74087 0.52151 0.38319 0.0
C1485 C 0.7478 0.51318 0.38038 0.0
U1486 U 0.74636 0.47602 0.36586 0.0
O1487 O 0.75687 0.46737 0.35477 0.0
O1488 O 0.75641 0.4629 0.37161 0.0
C1489 C 0.76105 0.46152 0.36234 0.0
C1490 C 0.75124 0.49573 0.37126 0.0
C1491 C 0.77275 0.46116 0.36255 0.0
C1492 C 0.78989 0.46884 0.36756 0.0
C1493 C 0.77875 0.46952 0.36711 0.0
C1494 C 0.78909 0.45155 0.35871 0.0
C1495 C 0.79518 0.45981 0.3634 0.0
C1496 C 0.77798 0.45223 0.3583 0.0
C1497 C 0.71968 0.4613 0.36223 0.0
C1498 C 0.71798 0.44295 0.35588 0.0
C1499 C 0.70282 0.45186 0.36394 0.0
C1500 C 0.70898 0.46109 0.36541 0.0
C1501 C 0.70727 0.44266 0.35925 0.0
C1502 C 0.72417 0.4522 0.35742 0.0
C1503 C 0.72606 0.47094 0.36443 0.0
O1504 O 0.75068 0.48789 0.37815 0.0
O1505 O 0.751 0.49238 0.36134 0.0
O1506 O 0.73161 0.47479 0.35644 0.0
O1507 O 0.73141 0.4708 0.3734 0.0
H1508 H 0.73086 0.49856 0.36475 0.0
H1509 H 0.71881 0.51311 0.36952 0.0
H1510 H 0.74373 0.52784 0.38838 0.0
H1511 H 0.75584 0.51315 0.38354 0.0
H1512 H 0.79436 0.47537 0.37113 0.0
H1513 H 0.77482 0.47651 0.37038 0.0
H1514 H 0.7929 0.44442 0.35558 0.0
H1515 H 0.77345 0.4457 0.35477 0.0
H1516 H 0.72163 0.43595 0.3523 0.0
H1517 H 0.69456 0.45193 0.36648 0.0
H1518 H 0.7054 0.46805 0.36914 0.0
H1519 H 0.73247 0.45221 0.35499 0.0
C1520 C 0.72918 0.48068 0.63402 0.0
C1521 C 0.72439 0.47659 0.62474 0.0
C1522 C 0.7077 0.47357 0.6342 0.0
C1523 C 0.7138 0.47304 0.62484 0.0
C1524 C 0.71239 0.47796 0.64341 0.0
C1525 C 0.723 0.48149 0.64331 0.0
U1526 U 0.7586 0.47447 0.6386 0.0
O1527 O 0.7727 0.47781 0.62881 0.0
O1528 O 0.77175 0.48434 0.64503 0.0
C1529 C 0.77706 0.4841 0.63602 0.0
C1530 C 0.74058 0.48396 0.63394 0.0
C1531 C 0.78113 0.49446 0.63222 0.0
C1532 C 0.7803 0.50967 0.62029 0.0
C1533 C 0.77583 0.50021 0.62427 0.0
C1534 C 0.79519 0.50788 0.63242 0.0
C1535 C 0.79009 0.51355 0.62427 0.0
C1536 C 0.79076 0.49842 0.63634 0.0
C1537 C 0.76704 0.44725 0.64813 0.0
C1538 C 0.78579 0.44251 0.64739 0.0
C1539 C 0.77294 0.43005 0.6548 0.0
C1540 C 0.76474 0.43738 0.65288 0.0
C1541 C 0.78352 0.43249 0.65191 0.0
C1542 C 0.77763 0.44984 0.64554 0.0
C1543 C 0.75842 0.45469 0.64551 0.0
O1544 O 0.74528 0.48496 0.64324 0.0
O1545 O 0.74662 0.47918 0.62681 0.0
O1546 O 0.75783 0.45717 0.6354 0.0
O1547 O 0.75755 0.46306 0.65184 0.0
H1548 H 0.72887 0.47597 0.6174 0.0
H1549 H 0.7105 0.46961 0.61763 0.0
H1550 H 0.70786 0.47866 0.6507 0.0
H1551 H 0.72638 0.48477 0.65056 0.0
H1552 H 0.77613 0.51392 0.61409 0.0
H1553 H 0.76834 0.49731 0.62102 0.0
H1554 H 0.8028 0.51058 0.63556 0.0
H1555 H 0.79496 0.49406 0.64246 0.0
H1556 H 0.79389 0.44467 0.64522 0.0
H1557 H 0.77096 0.42236 0.65824 0.0
H1558 H 0.7566 0.43527 0.65492 0.0
H1559 H 0.77955 0.45747 0.64193 0.0
C1560 C 0.4865 0.13028 0.24783 0.0
C1561 C 0.47602 0.12625 0.24778 0.0
C1562 C 0.47221 0.13569 0.26429 0.0
C1563 C 0.46897 0.12888 0.25596 0.0
C1564 C 0.48269 0.13981 0.26427 0.0
C1565 C 0.48979 0.13709 0.2561 0.0
U1566 U 0.48974 0.12219 0.21932 0.0
O1567 O 0.50082 0.12727 0.20678 0.0
O1568 O 0.50002 0.11033 0.21141 0.0
C1569 C 0.50485 0.11762 0.20563 0.0
C1570 C 0.49378 0.12769 0.23902 0.0
C1571 C 0.51655 0.11696 0.20529 0.0
C1572 C 0.53415 0.12198 0.21178 0.0
C1573 C 0.52301 0.1225 0.2126 0.0
C1574 C 0.5324 0.1102 0.19651 0.0
C1575 C 0.53896 0.11585 0.20369 0.0
C1576 C 0.52131 0.11076 0.19731 0.0
C1577 C 0.46421 0.11854 0.20329 0.0
C1578 C 0.46447 0.11259 0.18489 0.0
C1579 C 0.44771 0.11733 0.1933 0.0
C1580 C 0.45313 0.11971 0.20272 0.0
C1581 C 0.45331 0.11371 0.18428 0.0
C1582 C 0.46988 0.11499 0.19433 0.0
C1583 C 0.46974 0.12117 0.21323 0.0
O1584 O 0.49345 0.11767 0.23574 0.0
O1585 O 0.49377 0.13461 0.23119 0.0
O1586 O 0.4754 0.13005 0.21308 0.0
O1587 O 0.47471 0.11316 0.21777 0.0
H1588 H 0.47325 0.12112 0.24137 0.0
H1589 H 0.4609 0.12572 0.25567 0.0
H1590 H 0.4854 0.14505 0.27061 0.0
H1591 H 0.49783 0.14034 0.25621 0.0
H1592 H 0.53899 0.12636 0.21748 0.0
H1593 H 0.51944 0.12729 0.21886 0.0
H1594 H 0.53583 0.10555 0.19008 0.0
H1595 H 0.51643 0.10644 0.19159 0.0
H1596 H 0.46899 0.10974 0.17812 0.0
H1597 H 0.43915 0.11847 0.19305 0.0
H1598 H 0.44865 0.12251 0.20955 0.0
H1599 H 0.47847 0.11406 0.19466 0.0
C1600 C 0.9873 0.88982 0.72533 0.0
C1601 C 0.98493 0.8952 0.71588 0.0
C1602 C 0.96601 0.89142 0.71829 0.0
C1603 C 0.97439 0.89602 0.71241 0.0
C1604 C 0.96842 0.8861 0.72781 0.0
C1605 C 0.979 0.88532 0.73131 0.0
U1606 U 0.01646 0.89169 0.71853 0.0
O1607 O 0.03037 0.89748 0.72764 0.0
O1608 O 0.0299 0.88092 0.72161 0.0
C1609 C 0.03499 0.88804 0.72748 0.0
C1610 C 0.99845 0.88853 0.72865 0.0
C1611 C 0.03922 0.88427 0.73769 0.0
C1612 C 0.0391 0.87193 0.75256 0.0
C1613 C 0.03445 0.87576 0.74323 0.0
C1614 C 0.05313 0.88527 0.75108 0.0
C1615 C 0.04854 0.8766 0.75654 0.0
C1616 C 0.04851 0.88904 0.74174 0.0
C1617 C 0.02441 0.90081 0.69106 0.0
C1618 C 0.043 0.90019 0.68569 0.0
C1619 C 0.0297 0.90731 0.67371 0.0
C1620 C 0.02176 0.90538 0.68128 0.0
C1621 C 0.04041 0.90469 0.67581 0.0
C1622 C 0.03507 0.89828 0.69325 0.0
C1623 C 0.01604 0.89853 0.69888 0.0
O1624 O 1.0036 0.88084 0.72368 0.0
O1625 O 0.00399 0.89748 0.72941 0.0
O1626 O 0.01585 0.90499 0.70716 0.0
O1627 O 0.01505 0.88838 0.70144 0.0
H1628 H 0.99127 0.89863 0.7111 0.0
H1629 H 0.97283 0.90001 0.70496 0.0
H1630 H 0.96214 0.88254 0.73256 0.0
H1631 H 0.98071 0.88111 0.73861 0.0
H1632 H 0.03534 0.86531 0.75666 0.0
H1633 H 0.02722 0.87199 0.74029 0.0
H1634 H 0.06046 0.88896 0.75387 0.0
H1635 H 0.05233 0.89559 0.73756 0.0
H1636 H 0.05113 0.89792 0.68752 0.0
H1637 H 0.02746 0.91092 0.66624 0.0
H1638 H 0.01356 0.9074 0.67949 0.0
H1639 H 0.03723 0.89473 0.70078 0.0
C1640 C 0.52079 0.88926 0.28249 0.0
C1641 C 0.52247 0.89351 0.29268 0.0
C1642 C 0.5415 0.89 0.2912 0.0
C1643 C 0.53272 0.89391 0.29699 0.0
C1644 C 0.53982 0.88598 0.28086 0.0
C1645 C 0.52951 0.88558 0.27655 0.0
U1646 U 0.49159 0.89072 0.28825 0.0
O1647 O 0.47791 0.89703 0.27927 0.0
O1648 O 0.47811 0.88016 0.2842 0.0
C1649 C 0.47319 0.88761 0.27875 0.0
C1650 C 0.50985 0.88816 0.27844 0.0
C1651 C 0.46904 0.88439 0.26827 0.0
C1652 C 0.46928 0.87292 0.25259 0.0
C1653 C 0.47393 0.87634 0.26214 0.0
C1654 C 0.45505 0.8858 0.25502 0.0
C1655 C 0.45974 0.87755 0.24898 0.0
C1656 C 0.45966 0.88916 0.26457 0.0
C1657 C 0.48353 0.89819 0.31639 0.0
C1658 C 0.465 0.89731 0.32195 0.0
C1659 C 0.47855 0.90368 0.33422 0.0
C1660 C 0.48635 0.90217 0.32643 0.0
C1661 C 0.46778 0.90121 0.33209 0.0
C1662 C 0.47281 0.89582 0.31416 0.0
C1663 C 0.49181 0.89633 0.30836 0.0
O1664 O 0.50442 0.88017 0.28257 0.0
O1665 O 0.50439 0.89713 0.27811 0.0
O1666 O 0.4921 0.90329 0.30058 0.0
O1667 O 0.49266 0.88636 0.30509 0.0
H1668 H 0.51581 0.89637 0.29739 0.0
H1669 H 0.53376 0.89721 0.30489 0.0
H1670 H 0.54641 0.88284 0.27624 0.0
H1671 H 0.52833 0.88222 0.26868 0.0
H1672 H 0.47313 0.86663 0.24805 0.0
H1673 H 0.48122 0.87259 0.26482 0.0
H1674 H 0.44764 0.88943 0.25253 0.0
H1675 H 0.45575 0.89535 0.26921 0.0
H1676 H 0.45681 0.89519 0.32008 0.0
H1677 H 0.48093 0.90683 0.3419 0.0
H1678 H 0.49461 0.90406 0.32825 0.0
H1679 H 0.47051 0.89272 0.30643 0.0
C1680 C 0.88439 0.75774 0.01123 0.0
C1681 C 0.88852 0.75865 0.02156 0.0
C1682 C 0.87753 0.77434 0.02487 0.0
C1683 C 0.88517 0.7669 0.02829 0.0
C1684 C 0.87345 0.77345 0.01449 0.0
C1685 C 0.87688 0.76521 0.00771 0.0
U1686 U 0.89398 0.72945 0.00993 0.0
O1687 O 0.88852 0.71542 1.0008 0.0
O1688 O 0.90513 0.72095 0.99935 0.0
C1689 C 0.89774 0.71426 0.99595 0.0
C1690 C 0.88727 0.74849 0.00455 0.0
C1691 C 0.89712 0.71267 0.98442 0.0
C1692 C 0.89242 0.71879 0.96675 0.0
C1693 C 0.89357 0.72081 0.97765 0.0
C1694 C 0.89854 0.7006 0.96935 0.0
C1695 C 0.89473 0.7086 0.96253 0.0
C1696 C 0.89972 0.70263 0.98019 0.0
C1697 C 0.89894 0.7159 0.03654 0.0
C1698 C 0.90646 0.69807 0.03818 0.0
C1699 C 0.8968 0.70601 0.05292 0.0
C1700 C 0.89511 0.71524 0.04696 0.0
C1701 C 0.90238 0.69728 0.04856 0.0
C1702 C 0.90469 0.70729 0.03218 0.0
C1703 C 0.89622 0.72532 0.0302 0.0
O1704 O 0.89744 0.74587 0.00466 0.0
O1705 O 0.88085 0.7402 0.00551 0.0
O1706 O 0.88704 0.72462 0.0252 0.0
O1707 O 0.90391 0.72939 0.02434 0.0
H1708 H 0.89418 0.75284 0.02451 0.0
H1709 H 0.88832 0.76724 0.03629 0.0
H1710 H 0.86759 0.77909 0.01163 0.0
H1711 H 0.87352 0.76455 0.99981 0.0
H1712 H 0.88941 0.72508 0.9617 0.0
H1713 H 0.89151 0.72861 0.98083 0.0
H1714 H 0.90055 0.69273 0.96631 0.0
H1715 H 0.9025 0.69628 0.98531 0.0
H1716 H 0.91072 0.69143 0.03461 0.0
H1717 H 0.89367 0.70568 0.06093 0.0
H1718 H 0.89063 0.72179 0.05043 0.0
H1719 H 0.9076 0.70763 0.02409 0.0
C1720 C 0.61389 0.27529 0.47893 0.0
C1721 C 0.60903 0.28515 0.47682 0.0
C1722 C 0.61343 0.28333 0.45808 0.0
C1723 C 0.60877 0.28912 0.46649 0.0
C1724 C 0.61798 0.27327 0.46017 0.0
C1725 C 0.61823 0.2693 0.47055 0.0
U1726 U 0.61278 0.28215 0.50795 0.0
O1727 O 0.60729 0.27324 0.522 0.0
O1728 O 0.62388 0.27901 0.52102 0.0
C1729 C 0.61679 0.27351 0.52645 0.0
C1730 C 0.61518 0.27177 0.48996 0.0
C1731 C 0.62051 0.26354 0.53137 0.0
C1732 C 0.63294 0.24868 0.53254 0.0
C1733 C 0.62871 0.25733 0.5269 0.0
C1734 C 0.62052 0.25216 0.5469 0.0
C1735 C 0.62905 0.24619 0.54273 0.0
C1736 C 0.61632 0.26076 0.54128 0.0
C1737 C 0.60512 0.30998 0.51648 0.0
C1738 C 0.60789 0.31521 0.53487 0.0
C1739 C 0.59893 0.32729 0.52283 0.0
C1740 C 0.60004 0.31977 0.5146 0.0
C1741 C 0.60296 0.32512 0.53301 0.0
C1742 C 0.60892 0.3077 0.52668 0.0
C1743 C 0.60661 0.30219 0.50783 0.0
O1744 O 0.62313 0.27643 0.49503 0.0
O1745 O 0.60634 0.27137 0.4956 0.0
O1746 O 0.59988 0.29409 0.5078 0.0
O1747 O 0.61656 0.29926 0.50629 0.0
H1748 H 0.60567 0.28991 0.48322 0.0
H1749 H 0.60507 0.29681 0.46512 0.0
H1750 H 0.62172 0.26868 0.45388 0.0
H1751 H 0.62208 0.26171 0.47207 0.0
H1752 H 0.63952 0.24423 0.52913 0.0
H1753 H 0.63206 0.25935 0.51923 0.0
H1754 H 0.61721 0.25031 0.55463 0.0
H1755 H 0.60998 0.26544 0.54485 0.0
H1756 H 0.61092 0.31324 0.54267 0.0
H1757 H 0.59515 0.33488 0.52116 0.0
H1758 H 0.59704 0.32164 0.50676 0.0
H1759 H 0.61279 0.30013 0.52829 0.0
C1760 C 0.25574 0.48855 0.1264 0.0
C1761 C 0.25591 0.47787 0.12284 0.0
C1762 C 0.27282 0.47503 0.13186 0.0
C1763 C 0.2644 0.4712 0.1255 0.0
C1764 C 0.27255 0.48569 0.13555 0.0
C1765 C 0.26408 0.49241 0.1328 0.0
U1766 U 0.22707 0.49096 0.11805 0.0
O1767 O 0.21427 0.50193 0.12291 0.0
O1768 O 0.2192 0.50108 0.10618 0.0
C1769 C 0.21328 0.50595 0.11333 0.0
C1770 C 0.24672 0.4955 0.12367 0.0
C1771 C 0.2131 0.51768 0.11269 0.0
C1772 C 0.22024 0.53524 0.11728 0.0
C1773 C 0.22076 0.52406 0.11789 0.0
C1774 C 0.20456 0.53371 0.1061 0.0
C1775 C 0.21212 0.54018 0.11137 0.0
C1776 C 0.20505 0.52257 0.10676 0.0
C1777 C 0.21128 0.46504 0.11448 0.0
C1778 C 0.19296 0.46489 0.10816 0.0
C1779 C 0.20117 0.44843 0.1141 0.0
C1780 C 0.21061 0.45401 0.1163 0.0
C1781 C 0.19222 0.4538 0.11002 0.0
C1782 C 0.20242 0.47047 0.11039 0.0
C1783 C 0.22118 0.47078 0.1171 0.0
O1784 O 0.2436 0.49492 0.11371 0.0
O1785 O 0.23874 0.49533 0.13045 0.0
O1786 O 0.22085 0.47652 0.12587 0.0
O1787 O 0.22579 0.47579 0.10916 0.0
H1788 H 0.24946 0.47469 0.11803 0.0
H1789 H 0.26429 0.46298 0.12268 0.0
H1790 H 0.27896 0.48886 0.14043 0.0
H1791 H 0.26403 0.50061 0.13568 0.0
H1792 H 0.22622 0.54001 0.12136 0.0
H1793 H 0.22708 0.52039 0.12246 0.0
H1794 H 0.1981 0.53726 0.10163 0.0
H1795 H 0.19908 0.51775 0.1027 0.0
H1796 H 0.18626 0.46924 0.10494 0.0
H1797 H 0.20083 0.43994 0.1158 0.0
H1798 H 0.21737 0.44972 0.11952 0.0
H1799 H 0.20282 0.47901 0.10896 0.0
C1800 C 0.27708 0.52318 0.88865 0.0
C1801 C 0.28659 0.52578 0.89397 0.0
C1802 C 0.28353 0.54473 0.89087 0.0
C1803 C 0.28977 0.53645 0.8951 0.0
C1804 C 0.27399 0.54209 0.88554 0.0
C1805 C 0.27078 0.53138 0.88446 0.0
U1806 U 0.28498 0.49417 0.88882 0.0
O1807 O 0.277 0.47981 0.8951 0.0
O1808 O 0.28107 0.48073 0.87814 0.0
C1809 C 0.27622 0.4753 0.88567 0.0
C1810 C 0.274 0.5119 0.88716 0.0
C1811 C 0.26571 0.47069 0.88304 0.0
C1812 C 0.24896 0.47073 0.87326 0.0
C1813 C 0.25876 0.47558 0.87579 0.0
C1814 C 0.25292 0.45625 0.88535 0.0
C1815 C 0.24595 0.46101 0.87803 0.0
C1816 C 0.26269 0.46104 0.88781 0.0
C1817 C 0.31351 0.48712 0.89552 0.0
C1818 C 0.31908 0.46853 0.89525 0.0
C1819 C 0.33167 0.48247 0.90027 0.0
C1820 C 0.32377 0.49019 0.89879 0.0
C1821 C 0.32942 0.47154 0.8985 0.0
C1822 C 0.3112 0.47625 0.89378 0.0
C1823 C 0.30525 0.49525 0.89393 0.0
O1824 O 0.27848 0.50712 0.87898 0.0
O1825 O 0.27415 0.50609 0.89583 0.0
O1826 O 0.29753 0.49521 0.90099 0.0
O1827 O 0.30178 0.49609 0.88412 0.0
H1828 H 0.29163 0.51953 0.89714 0.0
H1829 H 0.29724 0.5382 0.89908 0.0
H1830 H 0.269 0.5483 0.88224 0.0
H1831 H 0.26344 0.52949 0.88029 0.0
H1832 H 0.24372 0.47462 0.86765 0.0
H1833 H 0.26091 0.48307 0.87206 0.0
H1834 H 0.2509 0.44869 0.88904 0.0
H1835 H 0.26796 0.45714 0.8934 0.0
H1836 H 0.31712 0.46021 0.89367 0.0
H1837 H 0.33951 0.48504 0.9029 0.0
H1838 H 0.32566 0.49856 0.9002 0.0
H1839 H 0.3033 0.47376 0.89123 0.0
C1840 C 0.27628 0.48465 0.61622 0.0
C1841 C 0.28607 0.48177 0.61163 0.0
C1842 C 0.28233 0.46295 0.61506 0.0
C1843 C 0.28905 0.47101 0.61102 0.0
C1844 C 0.27249 0.46589 0.61961 0.0
C1845 C 0.26949 0.47666 0.62017 0.0
U1846 U 0.28436 0.51374 0.615 0.0
O1847 O 0.27628 0.52784 0.60841 0.0
O1848 O 0.28053 0.52744 0.62533 0.0
C1849 C 0.27563 0.53262 0.61771 0.0
C1850 C 0.27335 0.49599 0.61722 0.0
C1851 C 0.26519 0.5373 0.62037 0.0
C1852 C 0.2487 0.53765 0.63057 0.0
C1853 C 0.25831 0.53263 0.62786 0.0
C1854 C 0.25266 0.55188 0.61815 0.0
C1855 C 0.2458 0.54736 0.62577 0.0
C1856 C 0.26226 0.5469 0.6155 0.0
C1857 C 0.31282 0.52111 0.60828 0.0
C1858 C 0.31831 0.53977 0.60898 0.0
C1859 C 0.33079 0.52619 0.60307 0.0
C1860 C 0.32297 0.5183 0.60456 0.0
C1861 C 0.32856 0.53703 0.60529 0.0
C1862 C 0.31051 0.53189 0.61043 0.0
C1863 C 0.30465 0.51282 0.60996 0.0
O1864 O 0.27782 0.50108 0.62524 0.0
O1865 O 0.27363 0.50145 0.60833 0.0
O1866 O 0.29696 0.5126 0.60287 0.0
O1867 O 0.30115 0.51207 0.61976 0.0
H1868 H 0.29146 0.48785 0.60863 0.0
H1869 H 0.29675 0.46904 0.60763 0.0
H1870 H 0.26711 0.45985 0.62272 0.0
H1871 H 0.26192 0.47877 0.62377 0.0
H1872 H 0.24354 0.53394 0.6364 0.0
H1873 H 0.26041 0.52518 0.63168 0.0
H1874 H 0.25074 0.55943 0.61442 0.0
H1875 H 0.26748 0.55065 0.60974 0.0
H1876 H 0.31636 0.548 0.61092 0.0
H1877 H 0.33855 0.52382 0.60011 0.0
H1878 H 0.32485 0.51001 0.60282 0.0
H1879 H 0.30269 0.53418 0.61332 0.0
C1880 C 0.252 0.51858 0.38192 0.0
C1881 C 0.25168 0.52934 0.38519 0.0
C1882 C 0.26779 0.53317 0.37507 0.0
C1883 C 0.25952 0.53654 0.38185 0.0
C1884 C 0.26812 0.52234 0.37186 0.0
C1885 C 0.26027 0.51511 0.37526 0.0
U1886 U 0.22397 0.51514 0.39167 0.0
O1887 O 0.21105 0.50406 0.38711 0.0
O1888 O 0.21677 0.50452 0.40359 0.0
C1889 C 0.21057 0.49973 0.39659 0.0
C1890 C 0.24339 0.51121 0.38505 0.0
C1891 C 0.21065 0.48799 0.39679 0.0
C1892 C 0.21886 0.47092 0.39243 0.0
C1893 C 0.21911 0.48213 0.39236 0.0
C1894 C 0.20179 0.47137 0.4015 0.0
C1895 C 0.21018 0.46542 0.39698 0.0
C1896 C 0.20204 0.48255 0.40139 0.0
C1897 C 0.20816 0.54087 0.39616 0.0
C1898 C 0.18964 0.54083 0.40189 0.0
C1899 C 0.19859 0.55761 0.39798 0.0
C1900 C 0.20791 0.55205 0.3955 0.0
C1901 C 0.18932 0.55208 0.40118 0.0
C1902 C 0.199 0.53527 0.39939 0.0
C1903 C 0.21794 0.53519 0.39316 0.0
O1904 O 0.24077 0.51158 0.39516 0.0
O1905 O 0.23507 0.51116 0.37869 0.0
O1906 O 0.21733 0.52957 0.38433 0.0
O1907 O 0.2228 0.53012 0.40088 0.0
H1908 H 0.2453 0.5322 0.39027 0.0
H1909 H 0.25911 0.54475 0.38464 0.0
H1910 H 0.27431 0.5195 0.36655 0.0
H1911 H 0.26057 0.50685 0.37258 0.0
H1912 H 0.22548 0.46656 0.38897 0.0
H1913 H 0.22585 0.48624 0.3888 0.0
H1914 H 0.1949 0.4674 0.4049 0.0
H1915 H 0.19544 0.48697 0.40482 0.0
H1916 H 0.18268 0.53634 0.40441 0.0
H1917 H 0.19857 0.56624 0.39717 0.0
H1918 H 0.21491 0.55648 0.39295 0.0
H1919 H 0.19908 0.5266 0.39993 0.0
H1920 H 0.11119 0.3726 0.09364 0.0
H1921 H 0.09749 0.38518 0.12234 0.0
H1922 H 0.08859 0.35369 0.11124 0.0
C1923 C 0.10575 0.37176 0.10029 0.0
C1924 C 0.09977 0.36228 0.10138 0.0
C1925 C 0.10508 0.37999 0.10789 0.0
C1926 C 0.09814 0.37876 0.11655 0.0
C1927 C 0.09215 0.36931 0.11787 0.0
C1928 C 0.09291 0.36114 0.11015 0.0
H1929 H 0.89731 0.87324 0.41338 0.0
H1930 H 0.91018 0.88549 0.38421 0.0
H1931 H 0.92115 0.85536 0.39643 0.0
C1932 C 0.90266 0.87246 0.40665 0.0
C1933 C 0.90906 0.8633 0.40574 0.0
C1934 C 0.90298 0.88053 0.39895 0.0
C1935 C 0.91015 0.87952 0.39042 0.0
C1936 C 0.9168 0.87051 0.38947 0.0
C1937 C 0.91623 0.86244 0.3972 0.0
H1938 H 0.39749 0.63311 0.59178 0.0
H1939 H 0.4088 0.61997 0.62115 0.0
H1940 H 0.41891 0.65144 0.61154 0.0
C1941 C 0.40232 0.63381 0.59889 0.0
C1942 C 0.40824 0.64323 0.60074 0.0
C1943 C 0.40244 0.62538 0.60622 0.0
C1944 C 0.4087 0.62642 0.61542 0.0
C1945 C 0.41468 0.63577 0.61742 0.0
C1946 C 0.41441 0.64415 0.61002 0.0
H1947 H 0.60909 0.13307 0.91844 0.0
H1948 H 0.60076 0.12194 0.88714 0.0
H1949 H 0.58934 0.15242 0.89828 0.0
C1950 C 0.60484 0.13419 0.91103 0.0
C1951 C 0.59906 0.14367 0.90939 0.0
C1952 C 0.60547 0.12627 0.90308 0.0
C1953 C 0.60015 0.12789 0.89342 0.0
C1954 C 0.59432 0.13729 0.89163 0.0
C1955 C 0.59372 0.1451 0.89968 0.0
H1956 H 0.10695 0.63438 0.41856 0.0
H1957 H 0.09878 0.62096 0.38814 0.0
H1958 H 0.08649 0.65177 0.39741 0.0
C1959 C 0.10263 0.63486 0.41112 0.0
C1960 C 0.09648 0.64398 0.40896 0.0
C1961 C 0.10358 0.62654 0.40364 0.0
C1962 C 0.09804 0.62731 0.39398 0.0
C1963 C 0.09185 0.63637 0.39164 0.0
C1964 C 0.09109 0.64467 0.3992 0.0
H1965 H 0.60616 0.87448 0.58937 0.0
H1966 H 0.59973 0.88501 0.62126 0.0
H1967 H 0.58637 0.85528 0.60975 0.0
C1968 C 0.60221 0.87332 0.59694 0.0
C1969 C 0.59597 0.86409 0.59854 0.0
C1970 C 0.60371 0.88086 0.60512 0.0
C1971 C 0.59859 0.87923 0.6149 0.0
C1972 C 0.5923 0.87005 0.61667 0.0
C1973 C 0.59103 0.86249 0.60843 0.0
H1974 H 0.3997 0.37769 0.91545 0.0
H1975 H 0.40876 0.3884 0.88441 0.0
H1976 H 0.41923 0.35764 0.8955 0.0
C1977 C 0.404 0.37639 0.90809 0.0
C1978 C 0.40966 0.36681 0.90653 0.0
C1979 C 0.40361 0.38421 0.90015 0.0
C1980 C 0.40908 0.38242 0.89059 0.0
C1981 C 0.41471 0.37285 0.88879 0.0
C1982 C 0.41501 0.36508 0.89684 0.0
H1983 H 0.8977 0.13333 0.09298 0.0
H1984 H 0.91021 0.12126 0.12233 0.0
H1985 H 0.92008 0.15223 0.11103 0.0
C1986 C 0.90284 0.13427 0.09984 0.0
C1987 C 0.90877 0.14376 0.10114 0.0
C1988 C 0.90332 0.12607 0.10742 0.0
C1989 C 0.91002 0.1274 0.11628 0.0
C1990 C 0.9161 0.1368 0.11768 0.0
C1991 C 0.91537 0.14498 0.11008 0.0
H1992 H 0.08908 0.10939 0.37921 0.0
H1993 H 0.11708 0.09391 0.39131 0.0
H1994 H 0.10256 0.08255 0.36239 0.0
C1995 C 0.09493 0.10303 0.3787 0.0
C1996 C 0.0947 0.09592 0.37 0.0
C1997 C 0.10301 0.10242 0.38638 0.0
C1998 C 0.11078 0.0944 0.38543 0.0
C1999 C 0.11072 0.08724 0.37679 0.0
C2000 C 0.10267 0.08807 0.36907 0.0
H2001 H 0.12388 0.89289 0.59573 0.0
H2002 H 0.13752 0.9206 0.61105 0.0
H2003 H 0.15589 0.90283 0.58816 0.0
C2004 C 0.13039 0.89856 0.59663 0.0
C2005 C 0.13985 0.89703 0.59081 0.0
C2006 C 0.1295 0.90697 0.60404 0.0
C2007 C 0.13821 0.91396 0.60551 0.0
C2008 C 0.14779 0.91248 0.5999 0.0
C2009 C 0.14851 0.90406 0.59248 0.0
H2010 H 0.42065 0.89623 0.87671 0.0
H2011 H 0.39257 0.91182 0.88868 0.0
H2012 H 0.40669 0.92221 0.85933 0.0
C2013 C 0.41476 0.90254 0.87613 0.0
C2014 C 0.41479 0.90927 0.86722 0.0
C2015 C 0.40674 0.90335 0.88387 0.0
C2016 C 0.39886 0.91124 0.8828 0.0
C2017 C 0.39874 0.91804 0.87395 0.0
C2018 C 0.40674 0.91701 0.86619 0.0
H2019 H 0.37135 0.09099 0.10599 0.0
H2020 H 0.38434 0.11877 0.09057 0.0
H2021 H 0.35365 0.10619 0.08117 0.0
C2022 C 0.37073 0.09728 0.10013 0.0
C2023 C 0.3615 0.09785 0.09386 0.0
C2024 C 0.37904 0.10476 0.09903 0.0
C2025 C 0.37818 0.11269 0.09121 0.0
C2026 C 0.36909 0.11325 0.08466 0.0
C2027 C 0.36078 0.10573 0.08601 0.0
H2028 H 0.08573 0.89309 0.12752 0.0
H2029 H 0.11478 0.90599 0.11467 0.0
H2030 H 0.10329 0.91715 0.14496 0.0
C2031 C 0.09234 0.89871 0.12805 0.0
C2032 C 0.09343 0.90529 0.1371 0.0
C2033 C 0.1001 0.89881 0.12002 0.0
C2034 C 0.10887 0.90577 0.12096 0.0
C2035 C 0.11011 0.91242 0.12992 0.0
C2036 C 0.10232 0.91217 0.13795 0.0
H2037 H 0.374 0.91879 0.40063 0.0
H2038 H 0.38538 0.88951 0.41423 0.0
H2039 H 0.35491 0.90227 0.4237 0.0
C2040 C 0.37291 0.91211 0.40598 0.0
C2041 C 0.36347 0.91136 0.41194 0.0
C2042 C 0.38091 0.90432 0.40681 0.0
C2043 C 0.37946 0.8958 0.4139 0.0
C2044 C 0.37012 0.89497 0.42008 0.0
C2045 C 0.3622 0.90287 0.41911 0.0
H2046 H 0.39409 0.10258 0.6165 0.0
H2047 H 0.42035 0.11803 0.63235 0.0
H2048 H 0.40389 0.09201 0.64751 0.0
C2049 C 0.39946 0.10312 0.62323 0.0
C2050 C 0.39808 0.09618 0.6319 0.0
C2051 C 0.40736 0.11112 0.6234 0.0
C2052 C 0.41417 0.11191 0.6322 0.0
C2053 C 0.41304 0.10499 0.64087 0.0
C2054 C 0.40505 0.09706 0.64063 0.0
H2055 H 0.12271 0.1144 0.91147 0.0
H2056 H 0.1368 0.08707 0.89609 0.0
H2057 H 0.15463 0.10485 0.91951 0.0
C2058 C 0.12928 0.10883 0.91063 0.0
C2059 C 0.13862 0.11044 0.91663 0.0
C2060 C 0.12858 0.1005 0.90311 0.0
C2061 C 0.13735 0.09366 0.90172 0.0
C2062 C 0.14681 0.09521 0.90752 0.0
C2063 C 0.14734 0.10356 0.91504 0.0
H2064 H 0.87428 0.41855 0.90002 0.0
H2065 H 0.88739 0.39106 0.9156 0.0
H2066 H 0.8565 0.40297 0.92475 0.0
C2067 C 0.87361 0.41225 0.90587 0.0
C2068 C 0.86435 0.41154 0.91213 0.0
C2069 C 0.88201 0.40496 0.9071 0.0
C2070 C 0.88114 0.39699 0.91489 0.0
C2071 C 0.872 0.39622 0.92134 0.0
C2072 C 0.86365 0.40358 0.91993 0.0
H2073 H 0.89471 0.59963 0.11421 0.0
H2074 H 0.9216 0.61575 0.12812 0.0
H2075 H 0.9045 0.59196 0.14604 0.0
C2076 C 0.90009 0.60076 0.12087 0.0
C2077 C 0.89857 0.5948 0.1302 0.0
C2078 C 0.90819 0.6085 0.12014 0.0
C2079 C 0.91536 0.60974 0.12862 0.0
C2080 C 0.91418 0.60371 0.13795 0.0
C2081 C 0.90578 0.59622 0.13867 0.0
H2082 H 0.62278 0.61488 0.41125 0.0
H2083 H 0.63581 0.58704 0.39586 0.0
H2084 H 0.65467 0.60464 0.41859 0.0
C2085 C 0.6292 0.60916 0.4103 0.0
C2086 C 0.63872 0.61059 0.41606 0.0
C2087 C 0.62811 0.60076 0.40289 0.0
C2088 C 0.63667 0.59369 0.40137 0.0
C2089 C 0.64632 0.59508 0.4069 0.0
C2090 C 0.64725 0.60349 0.41431 0.0
H2091 H 0.92158 0.39677 0.37773 0.0
H2092 H 0.89371 0.41257 0.38992 0.0
H2093 H 0.90748 0.42262 0.36029 0.0
C2094 C 0.91572 0.4031 0.37717 0.0
C2095 C 0.91563 0.40973 0.36819 0.0
C2096 C 0.90781 0.40403 0.38503 0.0
C2097 C 0.89993 0.41192 0.38397 0.0
C2098 C 0.8997 0.41863 0.37506 0.0
C2099 C 0.90761 0.4175 0.36721 0.0
H2100 H 0.58976 0.60969 0.87995 0.0
H2101 H 0.61778 0.59396 0.89168 0.0
H2102 H 0.60332 0.5834 0.86242 0.0
C2103 C 0.59565 0.60339 0.87929 0.0
C2104 C 0.59539 0.59647 0.87046 0.0
C2105 C 0.60372 0.60262 0.88698 0.0
C2106 C 0.61152 0.59466 0.8858 0.0
C2107 C 0.61149 0.58775 0.87694 0.0
C2108 C 0.60343 0.58875 0.86924 0.0
H2109 H 0.86785 0.65822 0.86242 0.0
H2110 H 0.88015 0.64771 0.83233 0.0
H2111 H 0.89773 0.67081 0.85098 0.0
C2112 C 0.874 0.65858 0.85638 0.0
C2113 C 0.88291 0.66531 0.85785 0.0
C2114 C 0.87297 0.65218 0.84724 0.0
C2115 C 0.88076 0.65286 0.83927 0.0
C2116 C 0.88973 0.65958 0.84055 0.0
C2117 C 0.89073 0.66579 0.84986 0.0
H2118 H 0.14106 0.1614 0.64498 0.0
H2119 H 0.12743 0.14541 0.67185 0.0
H2120 H 0.10951 0.16973 0.65574 0.0
C2121 C 0.13449 0.16037 0.6505 0.0
C2122 C 0.12519 0.16651 0.64931 0.0
C2123 C 0.1353 0.1526 0.65844 0.0
C2124 C 0.12692 0.15147 0.66575 0.0
C2125 C 0.11766 0.15774 0.66493 0.0
C2126 C 0.11686 0.16529 0.65671 0.0
H2127 H 0.6276 0.35953 0.33595 0.0
H2128 H 0.63787 0.34707 0.3659 0.0
H2129 H 0.60945 0.33453 0.35108 0.0
C2130 C 0.62666 0.35381 0.34233 0.0
C2131 C 0.61787 0.34675 0.34229 0.0
C2132 C 0.63381 0.35409 0.35089 0.0
C2133 C 0.63225 0.34702 0.35936 0.0
C2134 C 0.62346 0.33998 0.35956 0.0
C2135 C 0.61633 0.33983 0.35094 0.0
H2136 H 0.36722 0.8505 0.14218 0.0
H2137 H 0.37875 0.86156 0.1724 0.0
H2138 H 0.39687 0.83847 0.15442 0.0
C2139 C 0.37322 0.8503 0.14838 0.0
C2140 C 0.38221 0.84372 0.14716 0.0
C2141 C 0.37192 0.85675 0.15743 0.0
C2142 C 0.37955 0.85632 0.16556 0.0
C2143 C 0.38859 0.84972 0.16456 0.0
C2144 C 0.38983 0.84341 0.15534 0.0
H2145 H 0.86479 0.34881 0.6426 0.0
H2146 H 0.87721 0.36418 0.67053 0.0
H2147 H 0.89647 0.3413 0.65356 0.0
C2148 C 0.87123 0.34987 0.64826 0.0
C2149 C 0.88078 0.34412 0.64698 0.0
C2150 C 0.86993 0.3572 0.65663 0.0
C2151 C 0.87813 0.35843 0.66411 0.0
C2152 C 0.88769 0.35265 0.66311 0.0
C2153 C 0.88894 0.34543 0.65458 0.0
H2154 H 0.36688 0.16218 0.36137 0.0
H2155 H 0.37882 0.14627 0.3335 0.0
H2156 H 0.39714 0.1716 0.34821 0.0
C2157 C 0.37294 0.1614 0.35526 0.0
C2158 C 0.38203 0.16801 0.35559 0.0
C2159 C 0.37175 0.15351 0.34736 0.0
C2160 C 0.3797 0.15239 0.33958 0.0
C2161 C 0.38894 0.15885 0.33982 0.0
C2162 C 0.38999 0.16669 0.34784 0.0
H2163 H 0.63904 0.66189 0.14471 0.0
H2164 H 0.6274 0.64738 0.17333 0.0
H2165 H 0.61034 0.67363 0.15942 0.0
C2166 C 0.63329 0.66164 0.15114 0.0
C2167 C 0.62464 0.66877 0.15116 0.0
C2168 C 0.63437 0.65391 0.15912 0.0
C2169 C 0.62681 0.65354 0.16734 0.0
C2170 C 0.61809 0.66059 0.1675 0.0
C2171 C 0.61704 0.66817 0.15936 0.0
H2172 H 0.1273 0.85938 0.83484 0.0
H2173 H 0.13781 0.84711 0.86484 0.0
H2174 H 0.10964 0.83408 0.85002 0.0
C2175 C 0.12649 0.85364 0.84121 0.0
C2176 C 0.11779 0.84647 0.84122 0.0
C2177 C 0.13367 0.85401 0.84976 0.0
C2178 C 0.13223 0.84693 0.85826 0.0
C2179 C 0.12358 0.83975 0.85845 0.0
C2180 C 0.11644 0.83948 0.84985 0.0
H2181 H 0.84158 0.8836 0.64392 0.0
H2182 H 0.87119 0.87177 0.65637 0.0
H2183 H 0.85891 0.90207 0.66717 0.0
C2184 C 0.84838 0.88451 0.64917 0.0
C2185 C 0.84936 0.8938 0.65545 0.0
C2186 C 0.8562 0.87648 0.64946 0.0
C2187 C 0.86497 0.87777 0.65631 0.0
C2188 C 0.86604 0.88697 0.66273 0.0
C2189 C 0.85822 0.89498 0.6622 0.0
H2190 H 0.84535 0.14176 0.37385 0.0
H2191 H 0.85924 0.17077 0.38616 0.0
H2192 H 0.83434 0.1548 0.4036 0.0
C2193 C 0.84557 0.14799 0.37987 0.0
C2194 C 0.83886 0.14727 0.38879 0.0
C2195 C 0.85285 0.1565 0.37881 0.0
C2196 C 0.85333 0.16443 0.38675 0.0
C2197 C 0.84678 0.1638 0.39579 0.0
C2198 C 0.8395 0.15525 0.3967 0.0
H2199 H 0.63867 0.13868 0.1561 0.0
H2200 H 0.66805 0.12776 0.14228 0.0
H2201 H 0.6517 0.10822 0.16514 0.0
C2202 C 0.64501 0.13281 0.15567 0.0
C2203 C 0.64427 0.1234 0.16173 0.0
C2204 C 0.65352 0.13443 0.14859 0.0
C2205 C 0.66138 0.12651 0.14762 0.0
C2206 C 0.66073 0.11699 0.15347 0.0
C2207 C 0.65224 0.11556 0.16063 0.0
H2208 H 0.66332 0.86687 0.87753 0.0
H2209 H 0.64892 0.83831 0.89002 0.0
H2210 H 0.67463 0.8537 0.90693 0.0
C2211 C 0.66305 0.86067 0.88351 0.0
C2212 C 0.66997 0.86124 0.89227 0.0
C2213 C 0.65546 0.8524 0.8826 0.0
C2214 C 0.65502 0.84449 0.89047 0.0
C2215 C 0.66184 0.84494 0.89931 0.0
C2216 C 0.66932 0.85333 0.90014 0.0
H2217 H 0.84142 0.12274 0.8653 0.0
H2218 H 0.8703 0.13586 0.85219 0.0
H2219 H 0.85876 0.10513 0.84152 0.0
C2220 C 0.84801 0.12228 0.85974 0.0
C2221 C 0.84894 0.11321 0.85315 0.0
C2222 C 0.85575 0.13045 0.85961 0.0
C2223 C 0.86445 0.12947 0.85262 0.0
C2224 C 0.8657 0.12032 0.84619 0.0
C2225 C 0.85786 0.11223 0.84643 0.0
H2226 H 0.66642 0.13967 0.6322 0.0
H2227 H 0.65225 0.1693 0.6226 0.0
H2228 H 0.67802 0.15587 0.60437 0.0
C2229 C 0.66624 0.14647 0.62689 0.0
C2230 C 0.67324 0.14682 0.61817 0.0
C2231 C 0.65868 0.15457 0.62859 0.0
C2232 C 0.65833 0.16324 0.62157 0.0
C2233 C 0.66524 0.16376 0.61278 0.0
C2234 C 0.67268 0.15551 0.61113 0.0
H2235 H 0.63737 0.86872 0.35236 0.0
H2236 H 0.66674 0.88165 0.36468 0.0
H2237 H 0.64772 0.90018 0.34311 0.0
C2238 C 0.64326 0.87511 0.35269 0.0
C2239 C 0.64162 0.88445 0.34676 0.0
C2240 C 0.65224 0.87406 0.35926 0.0
C2241 C 0.65971 0.88248 0.35975 0.0
C2242 C 0.65819 0.89194 0.35394 0.0
C2243 C 0.64916 0.8928 0.34737 0.0
H2244 H 0.85771 0.84029 0.11698 0.0
H2245 H 0.84168 0.8673 0.13089 0.0
H2246 H 0.83124 0.8547 0.10075 0.0
C2247 C 0.85129 0.84608 0.11682 0.0
C2248 C 0.84444 0.84641 0.10799 0.0
C2249 C 0.85041 0.85363 0.12508 0.0
C2250 C 0.84235 0.86139 0.12459 0.0
C2251 C 0.83543 0.86187 0.11583 0.0
C2252 C 0.83655 0.85437 0.10753 0.0
H2253 H 0.16713 0.63965 0.13347 0.0
H2254 H 0.15028 0.66736 0.12265 0.0
H2255 H 0.17549 0.65411 0.10359 0.0
C2256 C 0.16615 0.64596 0.12769 0.0
C2257 C 0.17248 0.64602 0.11845 0.0
C2258 C 0.15816 0.65365 0.12929 0.0
C2259 C 0.15662 0.66156 0.1216 0.0
C2260 C 0.16277 0.66173 0.11228 0.0
C2261 C 0.17082 0.65406 0.11083 0.0
H2262 H 0.13518 0.36954 0.85229 0.0
H2263 H 0.16489 0.38021 0.86581 0.0
H2264 H 0.14815 0.4003 0.84381 0.0
C2265 C 0.14149 0.37548 0.85291 0.0
C2266 C 0.14074 0.38501 0.84708 0.0
C2267 C 0.15013 0.3737 0.85976 0.0
C2268 C 0.15811 0.38157 0.86065 0.0
C2269 C 0.15747 0.39119 0.85496 0.0
C2270 C 0.14884 0.39279 0.84803 0.0
H2271 H 0.3576 0.33977 0.6175 0.0
H2272 H 0.34271 0.36745 0.63139 0.0
H2273 H 0.33118 0.35472 0.60168 0.0
C2274 C 0.35136 0.34576 0.6174 0.0
C2275 C 0.34432 0.34617 0.60873 0.0
C2276 C 0.35088 0.35344 0.62557 0.0
C2277 C 0.34305 0.36144 0.62515 0.0
C2278 C 0.33593 0.36198 0.61656 0.0
C2279 C 0.33664 0.35434 0.60834 0.0
H2280 H 0.13666 0.63863 0.65728 0.0
H2281 H 0.16557 0.62908 0.64166 0.0
H2282 H 0.15102 0.60828 0.66466 0.0
C2283 C 0.14305 0.63289 0.65626 0.0
C2284 C 0.1429 0.62327 0.66203 0.0
C2285 C 0.15122 0.63506 0.64894 0.0
C2286 C 0.15933 0.6275 0.64741 0.0
C2287 C 0.15928 0.61778 0.65297 0.0
C2288 C 0.15111 0.61578 0.66038 0.0
H2289 H 0.34308 0.38383 0.14187 0.0
H2290 H 0.37081 0.37039 0.1567 0.0
H2291 H 0.36004 0.40177 0.16583 0.0
C2292 C 0.34962 0.38452 0.14746 0.0
C2293 C 0.35074 0.39389 0.15361 0.0
C2294 C 0.35679 0.37597 0.14853 0.0
C2295 C 0.36503 0.37679 0.15605 0.0
C2296 C 0.36622 0.38603 0.16238 0.0
C2297 C 0.35906 0.39455 0.16109 0.0
H2298 H 0.62318 0.39314 0.09633 0.0
H2299 H 0.63626 0.42081 0.11219 0.0
H2300 H 0.65503 0.40384 0.08902 0.0
C2301 C 0.62959 0.39892 0.09735 0.0
C2302 C 0.63909 0.39769 0.09152 0.0
C2303 C 0.62852 0.40716 0.10492 0.0
C2304 C 0.63709 0.41428 0.10654 0.0
C2305 C 0.64672 0.41309 0.10093 0.0
C2306 C 0.64762 0.40483 0.09335 0.0
H2307 H 0.87136 0.5879 0.60384 0.0
H2308 H 0.88414 0.61751 0.59197 0.0
H2309 H 0.85446 0.60513 0.57973 0.0
C2310 C 0.87086 0.59466 0.59851 0.0
C2311 C 0.86195 0.5956 0.59181 0.0
C2312 C 0.87892 0.60251 0.59865 0.0
C2313 C 0.87814 0.61124 0.5917 0.0
C2314 C 0.86936 0.61226 0.58484 0.0
C2315 C 0.86126 0.60442 0.58499 0.0
H2316 H 0.587 0.39271 0.62815 0.0
H2317 H 0.61446 0.4086 0.6151 0.0
H2318 H 0.60253 0.41798 0.6458 0.0
C2319 C 0.59307 0.3989 0.62871 0.0
C2320 C 0.59377 0.40529 0.63793 0.0
C2321 C 0.60055 0.4 0.62048 0.0
C2322 C 0.60863 0.40777 0.62141 0.0
C2323 C 0.60942 0.41428 0.63052 0.0
C2324 C 0.60199 0.41295 0.63877 0.0
H2325 H 0.34603 0.63871 0.87425 0.0
H2326 H 0.36199 0.66652 0.88679 0.0
H2327 H 0.33618 0.65204 0.90425 0.0
C2328 C 0.34679 0.64479 0.88038 0.0
C2329 C 0.34015 0.6444 0.88937 0.0
C2330 C 0.3546 0.65282 0.87935 0.0
C2331 C 0.35571 0.66056 0.8874 0.0
C2332 C 0.34917 0.66031 0.89649 0.0
C2333 C 0.34137 0.65222 0.89737 0.0
H2334 H 0.16425 0.36537 0.37576 0.0
H2335 H 0.14654 0.33924 0.38927 0.0
H2336 H 0.17285 0.35318 0.40648 0.0
C2337 C 0.1631 0.35962 0.38208 0.0
C2338 C 0.16968 0.36009 0.39112 0.0
C2339 C 0.15473 0.35214 0.38134 0.0
C2340 C 0.1531 0.34492 0.38969 0.0
C2341 C 0.1596 0.34523 0.39878 0.0
C2342 C 0.16794 0.35278 0.3994 0.0
H2343 H 0.34174 0.62191 0.36504 0.0
H2344 H 0.3709 0.63367 0.3513 0.0
H2345 H 0.35619 0.60499 0.33894 0.0
C2346 C 0.34791 0.62135 0.35904 0.0
C2347 C 0.34789 0.61265 0.35191 0.0
C2348 C 0.35623 0.62893 0.35892 0.0
C2349 C 0.36441 0.62789 0.35137 0.0
C2350 C 0.3645 0.61927 0.34414 0.0
C2351 C 0.35621 0.61166 0.34449 0.0
C2352 C 0.18237 0.43743 0.10363 0.0
C2353 C 0.18212 0.44784 0.10795 0.0
C2354 C 0.17296 0.43151 0.10238 0.0
C2355 C 0.14576 0.42946 0.11325 0.0
H2356 H 0.14208 0.40904 0.0902 0.0
C2357 C 0.11767 0.39314 0.11634 0.0
C2358 C 0.11226 0.38947 0.10724 0.0
C2359 C 0.12504 0.40152 0.11569 0.0
C2360 C 0.14287 0.41481 0.09661 0.0
H2361 H 0.17172 0.46028 0.11408 0.0
H2362 H 0.15528 0.45002 0.11167 0.0
H2363 H 0.15704 0.42156 0.08984 0.0
H2364 H 0.11007 0.392 0.09037 0.0
H2365 H 0.12293 0.40673 0.08922 0.0
H2366 H 0.13158 0.42273 0.12001 0.0
C2367 C 0.16278 0.44639 0.1094 0.0
C2368 C 0.15154 0.4219 0.09647 0.0
C2369 C 0.1722 0.45231 0.11067 0.0
C2370 C 0.1142 0.39457 0.0975 0.0
C2371 C 0.12158 0.40299 0.09685 0.0
C2372 C 0.13708 0.42239 0.11337 0.0
C2373 C 0.16307 0.43585 0.10539 0.0
C2374 C 0.15322 0.42915 0.10491 0.0
C2375 C 0.12718 0.40648 0.10592 0.0
C2376 C 0.13567 0.41482 0.10518 0.0
H2377 H 0.18985 0.4338 0.1013 0.0
H2378 H 0.17352 0.42338 0.09938 0.0
H2379 H 0.14684 0.43487 0.11992 0.0
H2380 H 0.1165 0.38926 0.12393 0.0
H2381 H 0.12935 0.40385 0.1228 0.0
C2382 C 0.82634 0.93875 0.39878 0.0
C2383 C 0.82684 0.94864 0.39354 0.0
C2384 C 0.83557 0.93278 0.40047 0.0
C2385 C 0.8627 0.9289 0.38992 0.0
H2386 H 0.86584 0.91159 0.41519 0.0
C2387 C 0.89831 0.9 0.39635 0.0
C2388 C 0.8953 0.8896 0.39944 0.0
C2389 C 0.89089 0.90835 0.39648 0.0
C2390 C 0.86507 0.91638 0.40809 0.0
H2391 H 0.8375 0.96013 0.38614 0.0
H2392 H 0.85369 0.94978 0.38927 0.0
H2393 H 0.85121 0.92435 0.41405 0.0
H2394 H 0.88201 0.87986 0.40494 0.0
H2395 H 0.86923 0.89441 0.4054 0.0
H2396 H 0.87651 0.92079 0.38393 0.0
C2397 C 0.84611 0.94658 0.39195 0.0
C2398 C 0.85668 0.92367 0.40742 0.0
C2399 C 0.83685 0.95256 0.39026 0.0
C2400 C 0.88472 0.8878 0.40276 0.0
C2401 C 0.87736 0.89614 0.403 0.0
C2402 C 0.87115 0.92165 0.39062 0.0
C2403 C 0.84556 0.93657 0.39699 0.0
C2404 C 0.85522 0.92981 0.39822 0.0
C2405 C 0.88034 0.90649 0.39982 0.0
C2406 C 0.87225 0.91513 0.39961 0.0
H2407 H 0.81878 0.93557 0.40155 0.0
H2408 H 0.83481 0.92505 0.40425 0.0
H2409 H 0.86177 0.93343 0.38268 0.0
H2410 H 0.90642 0.9017 0.39385 0.0
H2411 H 0.89341 0.91627 0.39404 0.0
C2412 C 0.3475 0.54353 0.60705 0.0
C2413 C 0.3369 0.54543 0.60397 0.0
C2414 C 0.35522 0.55161 0.60627 0.0
C2415 C 0.36083 0.57787 0.59365 0.0
H2416 H 0.38028 0.58161 0.61735 0.0
C2417 C 0.38514 0.61666 0.60084 0.0
C2418 C 0.39568 0.61569 0.60454 0.0
C2419 C 0.37856 0.60764 0.59986 0.0
C2420 C 0.37501 0.58059 0.61059 0.0
H2421 H 0.32619 0.55723 0.5973 0.0
H2422 H 0.33956 0.57139 0.59621 0.0
H2423 H 0.36772 0.56666 0.6173 0.0
H2424 H 0.40767 0.6044 0.60975 0.0
H2425 H 0.39614 0.58866 0.60812 0.0
H2426 H 0.368 0.59196 0.58707 0.0
C2427 C 0.34196 0.56362 0.59913 0.0
C2428 C 0.36781 0.57201 0.61056 0.0
C2429 C 0.33425 0.55554 0.59989 0.0
C2430 C 0.39954 0.60545 0.60704 0.0
C2431 C 0.39295 0.59643 0.6061 0.0
C2432 C 0.36801 0.58648 0.59371 0.0
C2433 C 0.35252 0.56179 0.6024 0.0
C2434 C 0.36056 0.57059 0.60213 0.0
C2435 C 0.38235 0.59744 0.60261 0.0
C2436 C 0.37512 0.58798 0.60222 0.0
H2437 H 0.34981 0.53587 0.61031 0.0
H2438 H 0.36331 0.54989 0.60874 0.0
H2439 H 0.35548 0.57692 0.58695 0.0
H2440 H 0.38185 0.62444 0.599 0.0
H2441 H 0.37038 0.60871 0.59729 0.0
C2442 C 0.67317 0.05659 0.91042 0.0
C2443 C 0.67069 0.04658 0.90585 0.0
C2444 C 0.66551 0.06468 0.91096 0.0
C2445 C 0.64059 0.07345 0.89818 0.0
H2446 H 0.63865 0.09242 0.92261 0.0
C2447 C 0.60862 0.10648 0.90105 0.0
C2448 C 0.61217 0.11659 0.90459 0.0
C2449 C 0.61518 0.0975 0.90193 0.0
C2450 C 0.63914 0.08723 0.9157 0.0
H2451 H 0.65813 0.03722 0.89834 0.0
H2452 H 0.6447 0.05125 0.89947 0.0
H2453 H 0.65116 0.07749 0.92285 0.0
H2454 H 0.6254 0.12516 0.91188 0.0
H2455 H 0.63682 0.10951 0.91343 0.0
H2456 H 0.62867 0.08324 0.89099 0.0
C2457 C 0.65263 0.05288 0.90254 0.0
C2458 C 0.64632 0.07868 0.91583 0.0
C2459 C 0.66029 0.04479 0.902 0.0
C2460 C 0.62235 0.11747 0.90923 0.0
C2461 C 0.6289 0.10849 0.91011 0.0
C2462 C 0.63342 0.08198 0.89806 0.0
C2463 C 0.65517 0.06295 0.90694 0.0
C2464 C 0.64719 0.07174 0.90704 0.0
C2465 C 0.62544 0.09843 0.90638 0.0
C2466 C 0.63267 0.08903 0.90677 0.0
H2467 H 0.68107 0.05819 0.91358 0.0
H2468 H 0.66777 0.07237 0.91431 0.0
H2469 H 0.64118 0.06836 0.89121 0.0
H2470 H 0.60076 0.10552 0.89758 0.0
H2471 H 0.61222 0.08983 0.89912 0.0
C2472 C 0.17974 0.56792 0.40891 0.0
C2473 C 0.17934 0.55806 0.40347 0.0
C2474 C 0.1705 0.57398 0.41035 0.0
C2475 C 0.14399 0.57811 0.39853 0.0
H2476 H 0.13961 0.59573 0.42361 0.0
C2477 C 0.10826 0.60697 0.40227 0.0
C2478 C 0.11096 0.61744 0.40552 0.0
C2479 C 0.11561 0.59864 0.40323 0.0
C2480 C 0.14074 0.59086 0.41655 0.0
H2481 H 0.16884 0.54668 0.39556 0.0
H2482 H 0.15266 0.55716 0.3983 0.0
H2483 H 0.15427 0.58291 0.42319 0.0
H2484 H 0.1235 0.62728 0.41247 0.0
H2485 H 0.13622 0.61275 0.41426 0.0
H2486 H 0.13058 0.58619 0.39183 0.0
C2487 C 0.16016 0.56028 0.40131 0.0
C2488 C 0.14914 0.58353 0.4163 0.0
C2489 C 0.16942 0.55422 0.39984 0.0
C2490 C 0.12106 0.6193 0.41006 0.0
C2491 C 0.12838 0.61096 0.41107 0.0
C2492 C 0.13557 0.5854 0.3988 0.0
C2493 C 0.16062 0.57031 0.40644 0.0
C2494 C 0.15101 0.57723 0.40719 0.0
C2495 C 0.1258 0.60057 0.40753 0.0
C2496 C 0.13398 0.59201 0.40773 0.0
H2497 H 0.18723 0.57105 0.41194 0.0
H2498 H 0.17118 0.58171 0.41425 0.0
H2499 H 0.14527 0.57349 0.39133 0.0
H2500 H 0.10049 0.60524 0.39889 0.0
H2501 H 0.11336 0.59068 0.40054 0.0
C2502 C 0.67074 0.9526 0.61127 0.0
C2503 C 0.6805 0.94892 0.60714 0.0
C2504 C 0.66137 0.94665 0.60981 0.0
C2505 C 0.64953 0.92441 0.59391 0.0
H2506 H 0.63182 0.92021 0.61882 0.0
C2507 C 0.62105 0.88849 0.5986 0.0
C2508 C 0.61119 0.89003 0.60371 0.0
C2509 C 0.62847 0.89683 0.59793 0.0
C2510 C 0.63656 0.92144 0.61173 0.0
H2511 H 0.68797 0.93634 0.59784 0.0
H2512 H 0.6717 0.92586 0.59548 0.0
H2513 H 0.64671 0.9328 0.61958 0.0
H2514 H 0.60125 0.9017 0.61179 0.0
H2515 H 0.61429 0.91628 0.61071 0.0
H2516 H 0.63954 0.91279 0.58617 0.0
C2517 C 0.67125 0.93338 0.59978 0.0
C2518 C 0.6451 0.92867 0.61217 0.0
C2519 C 0.68061 0.93933 0.60124 0.0
C2520 C 0.60883 0.90021 0.60793 0.0
C2521 C 0.61629 0.90856 0.6073 0.0
C2522 C 0.641 0.91716 0.59348 0.0
C2523 C 0.66154 0.9369 0.60416 0.0
C2524 C 0.65181 0.93008 0.60333 0.0
C2525 C 0.62624 0.90692 0.6024 0.0
C2526 C 0.63454 0.91545 0.60246 0.0
H2527 H 0.6704 0.95993 0.61591 0.0
H2528 H 0.654 0.94963 0.6132 0.0
H2529 H 0.65442 0.92546 0.5869 0.0
H2530 H 0.62323 0.88071 0.59544 0.0
H2531 H 0.63613 0.89525 0.59426 0.0
C2532 C 0.33539 0.4534 0.90459 0.0
C2533 C 0.33784 0.46331 0.89991 0.0
C2534 C 0.34318 0.4455 0.90554 0.0
C2535 C 0.36867 0.4368 0.89379 0.0
H2536 H 0.37 0.4186 0.9186 0.0
C2537 C 0.40066 0.404 0.89807 0.0
C2538 C 0.39697 0.39396 0.90155 0.0
C2539 C 0.3941 0.41301 0.89871 0.0
C2540 C 0.36968 0.42358 0.91159 0.0
H2541 H 0.35046 0.47269 0.89263 0.0
H2542 H 0.36411 0.45897 0.89448 0.0
H2543 H 0.35733 0.43339 0.91817 0.0
H2544 H 0.38351 0.38556 0.90852 0.0
H2545 H 0.3721 0.40126 0.90967 0.0
H2546 H 0.38092 0.42692 0.88715 0.0
C2547 C 0.35612 0.45728 0.89731 0.0
C2548 C 0.36242 0.43204 0.91134 0.0
C2549 C 0.34832 0.46519 0.89636 0.0
C2550 C 0.38667 0.3932 0.90592 0.0
C2551 C 0.38012 0.4022 0.90658 0.0
C2552 C 0.37594 0.42835 0.89405 0.0
C2553 C 0.35362 0.44731 0.90184 0.0
C2554 C 0.36175 0.43869 0.90239 0.0
C2555 C 0.38371 0.41219 0.90286 0.0
C2556 C 0.37645 0.42157 0.9029 0.0
H2557 H 0.32742 0.45174 0.90753 0.0
H2558 H 0.34095 0.43787 0.90897 0.0
H2559 H 0.36825 0.44165 0.8867 0.0
H2560 H 0.40861 0.40488 0.8948 0.0
H2561 H 0.39715 0.42062 0.89593 0.0
C2562 C 0.84871 0.0438 0.10878 0.0
C2563 C 0.83814 0.04569 0.10557 0.0
C2564 C 0.85642 0.05192 0.10815 0.0
C2565 C 0.86204 0.07821 0.09563 0.0
H2566 H 0.88127 0.08207 0.11949 0.0
C2567 C 0.88588 0.11719 0.1028 0.0
C2568 C 0.8965 0.11634 0.10631 0.0
C2569 C 0.87936 0.10811 0.10203 0.0
C2570 C 0.87606 0.08101 0.1127 0.0
H2571 H 0.82747 0.05749 0.09885 0.0
H2572 H 0.8408 0.0717 0.09801 0.0
H2573 H 0.86881 0.06701 0.11931 0.0
H2574 H 0.90864 0.10521 0.11155 0.0
H2575 H 0.89718 0.08936 0.1103 0.0
H2576 H 0.86915 0.09236 0.08913 0.0
C2577 C 0.84319 0.06392 0.10091 0.0
C2578 C 0.86892 0.07237 0.11258 0.0
C2579 C 0.83551 0.05581 0.10152 0.0
C2580 C 0.90046 0.10617 0.10896 0.0
C2581 C 0.89391 0.09709 0.10823 0.0
C2582 C 0.86915 0.08687 0.09576 0.0
C2583 C 0.85372 0.06211 0.10429 0.0
C2584 C 0.86175 0.07093 0.1041 0.0
C2585 C 0.88327 0.09797 0.10479 0.0
C2586 C 0.87616 0.08843 0.10435 0.0
H2587 H 0.85099 0.03613 0.11201 0.0
H2588 H 0.86448 0.05021 0.1107 0.0
H2589 H 0.85676 0.07723 0.08888 0.0
H2590 H 0.88251 0.12491 0.10089 0.0
H2591 H 0.87115 0.10909 0.09952 0.0
C2592 C 0.1016 0.17599 0.45194 0.0
C2593 C 0.11156 0.18111 0.45296 0.0
C2594 C 0.10044 0.16698 0.44536 0.0
C2595 C 0.11337 0.15386 0.42239 0.0
H2596 H 0.09559 0.1295 0.42972 0.0
C2597 C 0.11371 0.11529 0.39746 0.0
C2598 C 0.10379 0.11063 0.39495 0.0
C2599 C 0.11444 0.12347 0.40502 0.0
C2600 C 0.10051 0.13629 0.42753 0.0
H2601 H 0.12823 0.18047 0.44838 0.0
H2602 H 0.12626 0.16473 0.43704 0.0
H2603 H 0.09728 0.14454 0.44217 0.0
H2604 H 0.08688 0.1107 0.39865 0.0
H2605 H 0.08815 0.12513 0.41185 0.0
H2606 H 0.11662 0.14568 0.4078 0.0
C2607 C 0.11927 0.16782 0.44106 0.0
C2608 C 0.10147 0.14491 0.43465 0.0
C2609 C 0.12041 0.17683 0.44757 0.0
C2610 C 0.09463 0.1142 0.40036 0.0
C2611 C 0.09537 0.12238 0.40797 0.0
C2612 C 0.11243 0.14527 0.41531 0.0
C2613 C 0.10924 0.16289 0.43972 0.0
C2614 C 0.10799 0.15376 0.43218 0.0
C2615 C 0.10527 0.1272 0.41027 0.0
C2616 C 0.10605 0.13636 0.41782 0.0
H2617 H 0.09463 0.17916 0.45595 0.0
H2618 H 0.09259 0.16342 0.44444 0.0
H2619 H 0.11825 0.16066 0.42011 0.0
H2620 H 0.12091 0.11282 0.39336 0.0
H2621 H 0.12221 0.12693 0.40672 0.0
C2622 C 0.05905 0.9101 0.67068 0.0
C2623 C 0.04885 0.90644 0.66768 0.0
C2624 C 0.06715 0.9112 0.66314 0.0
C2625 C 0.07522 0.90136 0.63665 0.0
H2626 H 0.0961 0.92431 0.63869 0.0
C2627 C 0.10952 0.9063 0.60625 0.0
C2628 C 0.11971 0.90812 0.61064 0.0
C2629 C 0.10039 0.90695 0.61261 0.0
C2630 C 0.09035 0.91783 0.63805 0.0
H2631 H 0.03915 0.90121 0.65433 0.0
H2632 H 0.05322 0.9034 0.64113 0.0
H2633 H 0.08092 0.92404 0.65083 0.0
H2634 H 0.12822 0.912 0.62518 0.0
H2635 H 0.1123 0.91326 0.63619 0.0
H2636 H 0.08471 0.89512 0.6239 0.0
C2637 C 0.05499 0.90527 0.64935 0.0
C2638 C 0.08166 0.91766 0.64501 0.0
C2639 C 0.04689 0.90414 0.65691 0.0
C2640 C 0.12051 0.91076 0.62148 0.0
C2641 C 0.11138 0.91146 0.62781 0.0
C2642 C 0.08388 0.90156 0.62965 0.0
C2643 C 0.06526 0.90871 0.65239 0.0
C2644 C 0.07407 0.90933 0.6445 0.0
C2645 C 0.10122 0.90949 0.62347 0.0
C2646 C 0.09162 0.90972 0.63037 0.0
H2647 H 0.0608 0.91208 0.67888 0.0
H2648 H 0.07499 0.91376 0.66579 0.0
H2649 H 0.06962 0.89474 0.63612 0.0
H2650 H 0.10861 0.90441 0.5979 0.0
H2651 H 0.09265 0.9055 0.60902 0.0
C2652 C 0.4079 0.83025 0.9491 0.0
C2653 C 0.39794 0.82507 0.94986 0.0
C2654 C 0.40917 0.83921 0.94259 0.0
C2655 C 0.39669 0.85209 0.9194 0.0
H2656 H 0.41404 0.87669 0.92729 0.0
C2657 C 0.39611 0.89061 0.89498 0.0
C2658 C 0.406 0.89532 0.89251 0.0
C2659 C 0.39542 0.88248 0.9025 0.0
C2660 C 0.40925 0.86983 0.92496 0.0
H2661 H 0.3814 0.82556 0.94487 0.0
H2662 H 0.38356 0.84122 0.93365 0.0
H2663 H 0.41227 0.86165 0.93957 0.0
H2664 H 0.4229 0.89543 0.89625 0.0
H2665 H 0.42169 0.8811 0.9094 0.0
H2666 H 0.39361 0.86022 0.90484 0.0
C2667 C 0.39047 0.83821 0.93782 0.0
C2668 C 0.40824 0.86122 0.93197 0.0
C2669 C 0.38922 0.82924 0.94427 0.0
C2670 C 0.41517 0.89189 0.89794 0.0
C2671 C 0.41447 0.88376 0.90552 0.0
C2672 C 0.39766 0.86068 0.91243 0.0
C2673 C 0.40049 0.8432 0.93675 0.0
C2674 C 0.40186 0.85229 0.9293 0.0
C2675 C 0.4046 0.87885 0.90774 0.0
C2676 C 0.40387 0.86968 0.91516 0.0
H2677 H 0.41478 0.82717 0.95329 0.0
H2678 H 0.41702 0.84283 0.94189 0.0
H2679 H 0.39194 0.84524 0.91697 0.0
H2680 H 0.38891 0.89296 0.89086 0.0
H2681 H 0.38768 0.87895 0.90414 0.0
C2682 C 0.45155 0.1143 0.16438 0.0
C2683 C 0.44746 0.11119 0.1743 0.0
C2684 C 0.44569 0.11243 0.15508 0.0
C2685 C 0.42263 0.0968 0.14445 0.0
H2686 H 0.42024 0.12023 0.1245 0.0
C2687 C 0.38652 0.10212 0.1173 0.0
C2688 C 0.38821 0.10466 0.10656 0.0
C2689 C 0.395 0.10195 0.12445 0.0
C2690 C 0.42097 0.11355 0.1299 0.0
H2691 H 0.43424 0.10326 0.18218 0.0
H2692 H 0.42393 0.10028 0.1661 0.0
H2693 H 0.43296 0.12153 0.13915 0.0
H2694 H 0.40026 0.10913 0.09498 0.0
H2695 H 0.41509 0.10917 0.10766 0.0
H2696 H 0.41027 0.08906 0.13547 0.0
C2697 C 0.4317 0.10406 0.16543 0.0
C2698 C 0.42827 0.11428 0.13829 0.0
C2699 C 0.43754 0.10591 0.17469 0.0
C2700 C 0.39864 0.10721 0.1032 0.0
C2701 C 0.40714 0.10719 0.11043 0.0
C2702 C 0.41529 0.09612 0.13614 0.0
C2703 C 0.43564 0.10738 0.15552 0.0
C2704 C 0.42897 0.10603 0.14582 0.0
C2705 C 0.40539 0.10448 0.12111 0.0
C2706 C 0.4142 0.1046 0.12895 0.0
H2707 H 0.45914 0.11844 0.16382 0.0
H2708 H 0.449 0.115 0.14757 0.0
H2709 H 0.42315 0.09019 0.14995 0.0
H2710 H 0.37858 0.10042 0.12028 0.0
H2711 H 0.39338 0.10007 0.13268 0.0
C2712 C 0.09253 0.83734 0.04325 0.0
C2713 C 0.10194 0.83137 0.04194 0.0
C2714 C 0.0915 0.84455 0.05175 0.0
C2715 C 0.10313 0.85082 0.07816 0.0
H2716 H 0.08994 0.87857 0.07429 0.0
C2717 C 0.10857 0.88522 0.10807 0.0
C2718 C 0.0995 0.89112 0.11101 0.0
C2719 C 0.10809 0.87782 0.09975 0.0
C2720 C 0.09353 0.8708 0.07551 0.0
H2721 H 0.11777 0.82856 0.04827 0.0
H2722 H 0.11604 0.84118 0.06295 0.0
H2723 H 0.09061 0.86588 0.05944 0.0
H2724 H 0.08282 0.89396 0.10748 0.0
H2725 H 0.08199 0.88097 0.09279 0.0
H2726 H 0.10627 0.85583 0.09414 0.0
C2727 C 0.10933 0.84011 0.05762 0.0
C2728 C 0.0939 0.86352 0.06702 0.0
C2729 C 0.11034 0.83289 0.04919 0.0
C2730 C 0.08992 0.88949 0.1054 0.0
C2731 C 0.08946 0.88213 0.09697 0.0
C2732 C 0.10282 0.8581 0.0866 0.0
C2733 C 0.09987 0.84596 0.05907 0.0
C2734 C 0.09885 0.8535 0.06821 0.0
C2735 C 0.09854 0.87617 0.09412 0.0
C2736 C 0.09815 0.86822 0.08533 0.0
H2737 H 0.0859 0.83628 0.03783 0.0
H2738 H 0.08407 0.84885 0.05268 0.0
H2739 H 0.10676 0.84308 0.07944 0.0
H2740 H 0.11603 0.88623 0.11233 0.0
H2741 H 0.11523 0.87343 0.09766 0.0
C2742 C 0.46158 0.89962 0.35101 0.0
C2743 C 0.45949 0.90254 0.34045 0.0
C2744 C 0.45367 0.90053 0.35879 0.0
C2745 C 0.42772 0.91357 0.36452 0.0
H2746 H 0.42417 0.8903 0.38449 0.0
C2747 C 0.38944 0.90779 0.38912 0.0
C2748 C 0.39047 0.90479 0.39981 0.0
C2749 C 0.39834 0.9081 0.38245 0.0
C2750 C 0.42515 0.89693 0.37907 0.0
H2751 H 0.44749 0.90894 0.32985 0.0
H2752 H 0.43362 0.91026 0.34333 0.0
H2753 H 0.43885 0.88983 0.37177 0.0
H2754 H 0.40173 0.89986 0.4119 0.0
H2755 H 0.41729 0.90029 0.40018 0.0
H2756 H 0.41389 0.92056 0.37168 0.0
C2757 C 0.44142 0.90739 0.34565 0.0
C2758 C 0.43357 0.89667 0.37178 0.0
C2759 C 0.44933 0.90651 0.33788 0.0
C2760 C 0.40064 0.90209 0.40368 0.0
C2761 C 0.40955 0.90235 0.39698 0.0
C2762 C 0.41929 0.91381 0.37177 0.0
C2763 C 0.44346 0.90436 0.35619 0.0
C2764 C 0.43488 0.90493 0.36433 0.0
C2765 C 0.40849 0.90537 0.38629 0.0
C2766 C 0.41784 0.90544 0.37905 0.0
H2767 H 0.46928 0.89644 0.35325 0.0
H2768 H 0.45554 0.89823 0.36685 0.0
H2769 H 0.42862 0.92017 0.35903 0.0
H2770 H 0.3817 0.9097 0.38581 0.0
H2771 H 0.39722 0.91026 0.37421 0.0
C2772 C 0.40353 0.17588 0.55002 0.0
C2773 C 0.40286 0.18649 0.55378 0.0
C2774 C 0.40452 0.16735 0.55711 0.0
C2775 C 0.39931 0.16069 0.58521 0.0
H2776 H 0.41746 0.13619 0.57969 0.0
C2777 C 0.40872 0.13019 0.61758 0.0
C2778 C 0.40783 0.11928 0.61488 0.0
C2779 C 0.40848 0.13802 0.60974 0.0
C2780 C 0.41228 0.14294 0.58127 0.0
H2781 H 0.40283 0.19641 0.56801 0.0
H2782 H 0.40493 0.18166 0.58027 0.0
H2783 H 0.41649 0.15065 0.56668 0.0
H2784 H 0.40627 0.10801 0.60181 0.0
H2785 H 0.40583 0.12178 0.58801 0.0
H2786 H 0.39518 0.15309 0.59982 0.0
C2787 C 0.4045 0.17988 0.57185 0.0
C2788 C 0.41172 0.15121 0.57383 0.0
C2789 C 0.40346 0.18838 0.56479 0.0
C2790 C 0.40691 0.11636 0.60412 0.0
C2791 C 0.40674 0.12422 0.59623 0.0
C2792 C 0.39992 0.15249 0.59264 0.0
C2793 C 0.40487 0.16925 0.56812 0.0
C2794 C 0.4053 0.16024 0.57578 0.0
C2795 C 0.40736 0.13513 0.59899 0.0
C2796 C 0.40649 0.14358 0.59081 0.0
H2797 H 0.40323 0.17414 0.54159 0.0
H2798 H 0.40474 0.15926 0.55397 0.0
H2799 H 0.39407 0.16738 0.58684 0.0
H2800 H 0.40931 0.13272 0.62581 0.0
H2801 H 0.4091 0.14636 0.61209 0.0
C2802 C 0.05897 0.09716 0.83547 0.0
C2803 C 0.04871 0.10054 0.83847 0.0
C2804 C 0.06706 0.09619 0.84303 0.0
C2805 C 0.07484 0.10585 0.86972 0.0
H2806 H 0.09589 0.08325 0.8676 0.0
C2807 C 0.10864 0.1009 0.90056 0.0
C2808 C 0.11891 0.09929 0.89633 0.0
C2809 C 0.09963 0.10024 0.89403 0.0
C2810 C 0.0901 0.08963 0.86826 0.0
H2811 H 0.03889 0.10544 0.85183 0.0
H2812 H 0.05292 0.10347 0.86505 0.0
H2813 H 0.08088 0.08348 0.85527 0.0
H2814 H 0.12771 0.09573 0.88189 0.0
H2815 H 0.11201 0.09443 0.87058 0.0
H2816 H 0.08411 0.11203 0.88268 0.0
C2817 C 0.05476 0.10172 0.85682 0.0
C2818 C 0.08151 0.08978 0.86118 0.0
C2819 C 0.04667 0.10273 0.84925 0.0
C2820 C 0.11993 0.09682 0.88546 0.0
C2821 C 0.11092 0.09609 0.87897 0.0
C2822 C 0.08341 0.10567 0.87682 0.0
C2823 C 0.06508 0.09853 0.85379 0.0
C2824 C 0.07385 0.09797 0.86174 0.0
C2825 C 0.10068 0.09788 0.88315 0.0
C2826 C 0.0912 0.09764 0.87608 0.0
H2827 H 0.06078 0.09528 0.82726 0.0
H2828 H 0.07494 0.09382 0.84039 0.0
H2829 H 0.06919 0.11236 0.87028 0.0
H2830 H 0.10756 0.10267 0.90892 0.0
H2831 H 0.09182 0.10153 0.89751 0.0
C2832 C 0.94948 0.40479 0.83709 0.0
C2833 C 0.9598 0.40141 0.83983 0.0
C2834 C 0.94157 0.40585 0.84484 0.0
C2835 C 0.93432 0.3967 0.87175 0.0
H2836 H 0.91376 0.41977 0.8702 0.0
C2837 C 0.90176 0.40338 0.90376 0.0
C2838 C 0.89142 0.40533 0.8999 0.0
C2839 C 0.91054 0.40347 0.89687 0.0
C2840 C 0.91941 0.41325 0.8707 0.0
H2841 H 0.96989 0.39652 0.85293 0.0
H2842 H 0.95616 0.39864 0.86649 0.0
H2843 H 0.92835 0.41898 0.85741 0.0
H2844 H 0.88221 0.40877 0.88574 0.0
H2845 H 0.89749 0.40906 0.87381 0.0
H2846 H 0.92533 0.39097 0.88504 0.0
C2847 C 0.95414 0.40033 0.85831 0.0
C2848 C 0.92776 0.41278 0.86336 0.0
C2849 C 0.96205 0.39924 0.85055 0.0
C2850 C 0.89007 0.40745 0.88903 0.0
C2851 C 0.89884 0.4076 0.88218 0.0
C2852 C 0.92599 0.3972 0.87913 0.0
C2853 C 0.94379 0.4036 0.85554 0.0
C2854 C 0.93525 0.40443 0.86371 0.0
C2855 C 0.90916 0.40557 0.88601 0.0
C2856 C 0.91837 0.40541 0.8786 0.0
H2857 H 0.9475 0.40666 0.82894 0.0
H2858 H 0.93365 0.40827 0.8424 0.0
H2859 H 0.93986 0.39008 0.87217 0.0
H2860 H 0.9031 0.40185 0.91211 0.0
H2861 H 0.91841 0.40198 0.90007 0.0
C2862 C 0.91343 0.6821 0.05555 0.0
C2863 C 0.90354 0.6873 0.05475 0.0
C2864 C 0.91452 0.67302 0.06195 0.0
C2865 C 0.90135 0.6598 0.08469 0.0
H2866 H 0.91863 0.63525 0.07692 0.0
C2867 C 0.89862 0.6208 0.10785 0.0
C2868 C 0.90827 0.61621 0.1112 0.0
C2869 C 0.89859 0.62893 0.10032 0.0
C2870 C 0.91385 0.6421 0.0792 0.0
H2871 H 0.88691 0.68674 0.05947 0.0
H2872 H 0.88872 0.67087 0.07041 0.0
H2873 H 0.9175 0.65056 0.06486 0.0
H2874 H 0.92543 0.61627 0.10892 0.0
H2875 H 0.92535 0.6306 0.09567 0.0
H2876 H 0.89758 0.65136 0.09892 0.0
C2877 C 0.89574 0.67396 0.06642 0.0
C2878 C 0.91321 0.65086 0.07233 0.0
C2879 C 0.89468 0.68303 0.06013 0.0
C2880 C 0.91788 0.6197 0.10654 0.0
C2881 C 0.91783 0.62784 0.09892 0.0
C2882 C 0.90193 0.65106 0.09148 0.0
C2883 C 0.9057 0.66895 0.06759 0.0
C2884 C 0.90684 0.65976 0.07494 0.0
C2885 C 0.90819 0.63269 0.09594 0.0
C2886 C 0.90807 0.64206 0.08877 0.0
H2887 H 0.92039 0.68525 0.0515 0.0
H2888 H 0.92231 0.6694 0.06271 0.0
H2889 H 0.89661 0.66662 0.08711 0.0
H2890 H 0.89109 0.61842 0.11137 0.0
H2891 H 0.89103 0.63243 0.09807 0.0
C2892 C 0.54516 0.6029 0.35051 0.0
C2893 C 0.54707 0.60041 0.33977 0.0
C2894 C 0.55329 0.60191 0.35805 0.0
C2895 C 0.57988 0.58962 0.36248 0.0
H2896 H 0.58322 0.61251 0.38319 0.0
C2897 C 0.61893 0.59695 0.38554 0.0
C2898 C 0.61824 0.59967 0.39638 0.0
C2899 C 0.60975 0.59619 0.3793 0.0
C2900 C 0.5823 0.60598 0.37755 0.0
H2901 H 0.55893 0.59457 0.32862 0.0
H2902 H 0.57315 0.59313 0.34168 0.0
H2903 H 0.56805 0.61266 0.37106 0.0
H2904 H 0.60728 0.60354 0.40917 0.0
H2905 H 0.59123 0.60237 0.39819 0.0
H2906 H 0.5943 0.5831 0.36881 0.0
C2907 C 0.56535 0.59573 0.34432 0.0
C2908 C 0.5736 0.60605 0.37061 0.0
C2909 C 0.55723 0.59669 0.3368 0.0
C2910 C 0.60812 0.60157 0.40082 0.0
C2911 C 0.59892 0.60087 0.39455 0.0
C2912 C 0.5886 0.58958 0.36938 0.0
C2913 C 0.56351 0.59842 0.35503 0.0
C2914 C 0.57235 0.59794 0.36289 0.0
C2915 C 0.59965 0.5982 0.38372 0.0
C2916 C 0.58998 0.59783 0.3769 0.0
H2917 H 0.53746 0.60588 0.35306 0.0
H2918 H 0.55156 0.60393 0.36625 0.0
H2919 H 0.57905 0.58314 0.35677 0.0
H2920 H 0.6266 0.59565 0.38179 0.0
H2921 H 0.61059 0.5943 0.37094 0.0
C2922 C 0.8917 0.32932 0.44513 0.0
C2923 C 0.90055 0.32533 0.45065 0.0
C2924 C 0.89269 0.3384 0.43879 0.0
C2925 C 0.90995 0.36189 0.43309 0.0
H2926 H 0.89511 0.36091 0.40608 0.0
C2927 C 0.91639 0.39268 0.39908 0.0
C2928 C 0.90716 0.39607 0.39373 0.0
C2929 C 0.91578 0.38456 0.40668 0.0
C2930 C 0.89921 0.36136 0.41364 0.0
H2931 H 0.91733 0.32785 0.45409 0.0
H2932 H 0.91912 0.34367 0.44284 0.0
H2933 H 0.89376 0.3458 0.41807 0.0
H2934 H 0.89006 0.39367 0.39225 0.0
H2935 H 0.88899 0.37967 0.40556 0.0
H2936 H 0.91551 0.37747 0.42848 0.0
C2937 C 0.91138 0.33985 0.44353 0.0
C2938 C 0.89842 0.3527 0.42054 0.0
C2939 C 0.91036 0.33078 0.44994 0.0
C2940 C 0.8973 0.39135 0.39631 0.0
C2941 C 0.8967 0.38323 0.40385 0.0
C2942 C 0.91078 0.37056 0.42614 0.0
C2943 C 0.90258 0.34367 0.43775 0.0
C2944 C 0.90369 0.35288 0.43039 0.0
C2945 C 0.90595 0.37962 0.409 0.0
C2946 C 0.90533 0.37042 0.41638 0.0
H2947 H 0.88399 0.32542 0.4457 0.0
H2948 H 0.88568 0.34127 0.43467 0.0
H2949 H 0.91404 0.36232 0.44066 0.0
H2950 H 0.92409 0.39622 0.3973 0.0
H2951 H 0.92305 0.38191 0.41049 0.0
C2952 C 0.60555 0.67179 0.9575 0.0
C2953 C 0.60725 0.68203 0.95318 0.0
C2954 C 0.60503 0.66274 0.9509 0.0
C2955 C 0.61303 0.65347 0.92408 0.0
H2956 H 0.59325 0.63017 0.92954 0.0
C2957 C 0.61414 0.61484 0.89909 0.0
C2958 C 0.60427 0.61051 0.89587 0.0
C2959 C 0.61461 0.62288 0.90684 0.0
C2960 C 0.59878 0.63663 0.92787 0.0
H2961 H 0.60965 0.69073 0.93849 0.0
H2962 H 0.60833 0.67508 0.92703 0.0
H2963 H 0.59342 0.64581 0.94126 0.0
H2964 H 0.58718 0.61093 0.89867 0.0
H2965 H 0.58797 0.62521 0.91191 0.0
H2966 H 0.61813 0.64455 0.91049 0.0
C2967 C 0.60761 0.67399 0.93552 0.0
C2968 C 0.59896 0.64555 0.93466 0.0
C2969 C 0.6082 0.68301 0.9421 0.0
C2970 C 0.59491 0.6142 0.90084 0.0
C2971 C 0.59537 0.6223 0.90854 0.0
C2972 C 0.61281 0.64461 0.91727 0.0
C2973 C 0.60616 0.66372 0.93984 0.0
C2974 C 0.60605 0.65411 0.9328 0.0
C2975 C 0.60522 0.62686 0.91151 0.0
C2976 C 0.60567 0.63609 0.91905 0.0
H2977 H 0.60465 0.67075 0.96598 0.0
H2978 H 0.60397 0.65495 0.95451 0.0
H2979 H 0.61872 0.65982 0.9225 0.0
H2980 H 0.62151 0.61228 0.89538 0.0
H2981 H 0.62235 0.62607 0.90906 0.0
C2982 C 0.79654 0.58965 0.84194 0.0
C2983 C 0.79619 0.58327 0.8511 0.0
C2984 C 0.80494 0.5969 0.84036 0.0
C2985 C 0.83253 0.60282 0.8495 0.0
H2986 H 0.82712 0.63128 0.83861 0.0
C2987 C 0.86202 0.63755 0.85523 0.0
C2988 C 0.86421 0.64418 0.84652 0.0
C2989 C 0.85389 0.62991 0.85469 0.0
C2990 C 0.82877 0.62331 0.84152 0.0
H2991 H 0.80417 0.57978 0.86594 0.0
H2992 H 0.81869 0.59246 0.86328 0.0
H2993 H 0.81247 0.61832 0.83978 0.0
H2994 H 0.8596 0.64805 0.83042 0.0
H2995 H 0.84519 0.63466 0.82951 0.0
H2996 H 0.84874 0.6079 0.85153 0.0
C2997 C 0.81267 0.59167 0.85715 0.0
C2998 C 0.82038 0.61588 0.84219 0.0
C2999 C 0.80433 0.58441 0.8587 0.0
C3000 C 0.85808 0.64301 0.83723 0.0
C3001 C 0.84982 0.63541 0.83674 0.0
C3002 C 0.84086 0.61025 0.8489 0.0
C3003 C 0.81314 0.59796 0.84793 0.0
C3004 C 0.82214 0.60561 0.84637 0.0
C3005 C 0.8477 0.62875 0.84546 0.0
C3006 C 0.83903 0.62062 0.84509 0.0
H3007 H 0.79041 0.58889 0.8359 0.0
H3008 H 0.8051 0.60156 0.83313 0.0
H3009 H 0.83423 0.5949 0.8525 0.0
H3010 H 0.86669 0.63818 0.86245 0.0
H3011 H 0.85236 0.62496 0.86158 0.0
C3012 C 0.19751 0.0796 0.64292 0.0
C3013 C 0.20274 0.07512 0.65168 0.0
C3014 C 0.19098 0.08853 0.64419 0.0
C3015 C 0.18408 0.11092 0.66232 0.0
H3016 H 0.15752 0.11005 0.6465 0.0
C3017 C 0.14908 0.14131 0.66772 0.0
C3018 C 0.14425 0.14482 0.65828 0.0
C3019 C 0.15685 0.13328 0.66744 0.0
C3020 C 0.16495 0.11047 0.6509 0.0
H3021 H 0.20551 0.07667 0.6686 0.0
H3022 H 0.19393 0.09228 0.67089 0.0
H3023 H 0.1699 0.09519 0.64508 0.0
H3024 H 0.14391 0.14271 0.64116 0.0
H3025 H 0.1575 0.12891 0.64068 0.0
H3026 H 0.17895 0.12625 0.66819 0.0
C3027 C 0.19498 0.08892 0.663 0.0
C3028 C 0.17206 0.10195 0.65007 0.0
C3029 C 0.20159 0.07999 0.66171 0.0
C3030 C 0.14755 0.14032 0.64857 0.0
C3031 C 0.15525 0.1323 0.6483 0.0
C3032 C 0.1769 0.11947 0.66318 0.0
C3033 C 0.18945 0.09317 0.65428 0.0
C3034 C 0.18178 0.10213 0.65563 0.0
C3035 C 0.15985 0.12855 0.65773 0.0
C3036 C 0.16733 0.11938 0.65734 0.0
H3037 H 0.19843 0.07616 0.63505 0.0
H3038 H 0.18707 0.09177 0.63726 0.0
H3039 H 0.19152 0.11132 0.66667 0.0
H3040 H 0.14675 0.14468 0.67531 0.0
H3041 H 0.16025 0.13052 0.67484 0.0
C3042 C 0.69425 0.42939 0.36656 0.0
C3043 C 0.70073 0.43278 0.35811 0.0
C3044 C 0.68761 0.42046 0.36542 0.0
C3045 C 0.6826 0.39618 0.34914 0.0
H3046 H 0.65423 0.39867 0.36124 0.0
C3047 C 0.64848 0.36496 0.34243 0.0
C3048 C 0.64236 0.36236 0.35143 0.0
C3049 C 0.65608 0.3732 0.34289 0.0
C3050 C 0.66215 0.3978 0.3579 0.0
H3051 H 0.70556 0.42932 0.34193 0.0
H3052 H 0.69383 0.4137 0.33988 0.0
H3053 H 0.66661 0.41365 0.36264 0.0
H3054 H 0.63946 0.36636 0.36797 0.0
H3055 H 0.65277 0.38058 0.36881 0.0
H3056 H 0.678 0.38029 0.34434 0.0
C3057 C 0.69397 0.41791 0.34742 0.0
C3058 C 0.66927 0.40639 0.35871 0.0
C3059 C 0.70067 0.42685 0.34859 0.0
C3060 C 0.64412 0.36807 0.36092 0.0
C3061 C 0.65166 0.37631 0.36138 0.0
C3062 C 0.67543 0.38757 0.34829 0.0
C3063 C 0.68724 0.41472 0.35579 0.0
C3064 C 0.67962 0.40564 0.35447 0.0
C3065 C 0.65764 0.37906 0.35234 0.0
C3066 C 0.66518 0.38826 0.35279 0.0
H3067 H 0.69429 0.43366 0.37407 0.0
H3068 H 0.68274 0.41806 0.37211 0.0
H3069 H 0.69054 0.39533 0.34584 0.0
H3070 H 0.64734 0.36066 0.33501 0.0
H3071 H 0.66054 0.37518 0.33579 0.0
C3072 C 0.29529 0.91833 0.16293 0.0
C3073 C 0.29459 0.92452 0.15368 0.0
C3074 C 0.30374 0.91117 0.16432 0.0
C3075 C 0.33097 0.9053 0.15433 0.0
H3076 H 0.32591 0.87705 0.166 0.0
C3077 C 0.36076 0.87096 0.14911 0.0
C3078 C 0.36302 0.86455 0.15795 0.0
C3079 C 0.35254 0.87845 0.1495 0.0
C3080 C 0.32746 0.88496 0.16286 0.0
H3081 H 0.30202 0.92783 0.13848 0.0
H3082 H 0.31664 0.91532 0.14082 0.0
H3083 H 0.31121 0.88981 0.16494 0.0
H3084 H 0.35843 0.86092 0.17413 0.0
H3085 H 0.34393 0.87406 0.1748 0.0
H3086 H 0.34714 0.90036 0.15201 0.0
C3087 C 0.31084 0.91616 0.14715 0.0
C3088 C 0.31905 0.89228 0.16225 0.0
C3089 C 0.30244 0.92333 0.1458 0.0
C3090 C 0.35687 0.86578 0.16722 0.0
C3091 C 0.34855 0.87323 0.16757 0.0
C3092 C 0.33933 0.89798 0.15487 0.0
C3093 C 0.31164 0.91004 0.15645 0.0
C3094 C 0.32068 0.90248 0.15782 0.0
C3095 C 0.34635 0.87968 0.15873 0.0
C3096 C 0.33763 0.88768 0.15898 0.0
H3097 H 0.2894 0.91914 0.16919 0.0
H3098 H 0.30417 0.90665 0.17162 0.0
H3099 H 0.33257 0.91317 0.1511 0.0
H3100 H 0.36545 0.87029 0.14191 0.0
H3101 H 0.35097 0.88322 0.14252 0.0
C3102 C 0.79323 0.41867 0.66264 0.0
C3103 C 0.79214 0.4245 0.65319 0.0
C3104 C 0.80155 0.41131 0.66381 0.0
C3105 C 0.82792 0.40432 0.65229 0.0
H3106 H 0.82341 0.37702 0.66617 0.0
C3107 C 0.85725 0.36957 0.64765 0.0
C3108 C 0.86048 0.36431 0.65693 0.0
C3109 C 0.84881 0.37681 0.6479 0.0
C3110 C 0.82479 0.38466 0.66238 0.0
H3111 H 0.79863 0.4269 0.63743 0.0
H3112 H 0.81296 0.41399 0.63935 0.0
H3113 H 0.80879 0.38992 0.66526 0.0
H3114 H 0.85727 0.36233 0.67372 0.0
H3115 H 0.84234 0.375 0.67414 0.0
H3116 H 0.84382 0.39896 0.64917 0.0
C3117 C 0.80763 0.4153 0.64601 0.0
C3118 C 0.81644 0.39206 0.66187 0.0
C3119 C 0.7994 0.42268 0.64488 0.0
C3120 C 0.85495 0.3663 0.66646 0.0
C3121 C 0.8464 0.37349 0.66668 0.0
C3122 C 0.8362 0.39691 0.65271 0.0
C3123 C 0.80889 0.40959 0.65552 0.0
C3124 C 0.81787 0.40192 0.65668 0.0
C3125 C 0.84335 0.37891 0.65743 0.0
C3126 C 0.83469 0.38695 0.65763 0.0
H3127 H 0.78778 0.41996 0.6692 0.0
H3128 H 0.80233 0.40712 0.67127 0.0
H3129 H 0.82941 0.41194 0.64848 0.0
H3130 H 0.86144 0.3683 0.64022 0.0
H3131 H 0.84656 0.38079 0.64062 0.0
C3132 C 0.29543 0.09071 0.34566 0.0
C3133 C 0.2941 0.08553 0.35546 0.0
C3134 C 0.30374 0.09809 0.34422 0.0
C3135 C 0.32984 0.10614 0.35572 0.0
H3136 H 0.32563 0.13225 0.33977 0.0
C3137 C 0.35973 0.1411 0.35737 0.0
C3138 C 0.36259 0.14594 0.34773 0.0
C3139 C 0.35134 0.13372 0.35777 0.0
C3140 C 0.32694 0.12493 0.34415 0.0
H3141 H 0.30015 0.08433 0.37153 0.0
H3142 H 0.3145 0.09727 0.36908 0.0
H3143 H 0.31093 0.11943 0.34154 0.0
H3144 H 0.35883 0.14695 0.33097 0.0
H3145 H 0.34407 0.134 0.33168 0.0
H3146 H 0.34578 0.11172 0.35849 0.0
C3147 C 0.30935 0.09544 0.36241 0.0
C3148 C 0.31854 0.11758 0.34515 0.0
C3149 C 0.3011 0.08804 0.36383 0.0
C3150 C 0.35682 0.1433 0.3385 0.0
C3151 C 0.34834 0.13596 0.33892 0.0
C3152 C 0.3382 0.1135 0.35477 0.0
C3153 C 0.31085 0.10049 0.35256 0.0
C3154 C 0.31986 0.10814 0.35106 0.0
C3155 C 0.34558 0.13104 0.34856 0.0
C3156 C 0.33681 0.12303 0.34907 0.0
H3157 H 0.2902 0.08887 0.33905 0.0
H3158 H 0.30473 0.10175 0.3365 0.0
H3159 H 0.33123 0.09884 0.36011 0.0
H3160 H 0.36411 0.14287 0.36459 0.0
H3161 H 0.34933 0.13014 0.36533 0.0
C3162 C 0.69431 0.57874 0.14248 0.0
C3163 C 0.70045 0.57513 0.15106 0.0
C3164 C 0.68777 0.58769 0.14358 0.0
C3165 C 0.68255 0.61158 0.16039 0.0
H3166 H 0.65471 0.60991 0.147 0.0
C3167 C 0.64859 0.64252 0.16743 0.0
C3168 C 0.64285 0.64567 0.15838 0.0
C3169 C 0.65613 0.6343 0.16676 0.0
C3170 C 0.66249 0.61055 0.1507 0.0
H3171 H 0.7047 0.57819 0.16749 0.0
H3172 H 0.69311 0.5938 0.16948 0.0
H3173 H 0.66688 0.59486 0.14551 0.0
H3174 H 0.64056 0.64269 0.14154 0.0
H3175 H 0.65375 0.62847 0.14036 0.0
H3176 H 0.67801 0.62729 0.16568 0.0
C3177 C 0.69348 0.58977 0.16185 0.0
C3178 C 0.66949 0.60193 0.14983 0.0
C3179 C 0.7001 0.58083 0.16072 0.0
C3180 C 0.64493 0.64055 0.14863 0.0
C3181 C 0.6524 0.63231 0.14798 0.0
C3182 C 0.6755 0.62022 0.16131 0.0
C3183 C 0.68713 0.59322 0.15332 0.0
C3184 C 0.67965 0.60237 0.15456 0.0
C3185 C 0.65799 0.62901 0.15705 0.0
C3186 C 0.66544 0.61982 0.15638 0.0
H3187 H 0.69459 0.57464 0.13488 0.0
H3188 H 0.6832 0.59027 0.13677 0.0
H3189 H 0.69035 0.61222 0.16406 0.0
H3190 H 0.6472 0.64638 0.17503 0.0
H3191 H 0.66028 0.63189 0.17389 0.0
C3192 C 0.19314 0.93 0.86569 0.0
C3193 C 0.19976 0.93339 0.85735 0.0
C3194 C 0.18654 0.92106 0.86446 0.0
C3195 C 0.18192 0.89671 0.84816 0.0
H3196 H 0.1534 0.89896 0.85995 0.0
C3197 C 0.14819 0.86509 0.84129 0.0
C3198 C 0.14208 0.86243 0.85028 0.0
C3199 C 0.15567 0.87344 0.84176 0.0
C3200 C 0.16137 0.89817 0.85669 0.0
H3201 H 0.20485 0.92992 0.84124 0.0
H3202 H 0.19318 0.91428 0.83903 0.0
H3203 H 0.16563 0.91407 0.86142 0.0
H3204 H 0.13906 0.86645 0.8668 0.0
H3205 H 0.15216 0.88087 0.86764 0.0
H3206 H 0.17752 0.88076 0.84337 0.0
C3207 C 0.19319 0.9185 0.84657 0.0
C3208 C 0.16839 0.90682 0.85755 0.0
C3209 C 0.19985 0.92746 0.84782 0.0
C3210 C 0.14372 0.8682 0.85977 0.0
C3211 C 0.15114 0.87655 0.86021 0.0
C3212 C 0.17484 0.88803 0.84726 0.0
C3213 C 0.18634 0.9153 0.85483 0.0
C3214 C 0.1788 0.90616 0.85343 0.0
C3215 C 0.15711 0.87935 0.8512 0.0
C3216 C 0.16454 0.88864 0.85165 0.0
H3217 H 0.19307 0.93428 0.8732 0.0
H3218 H 0.18157 0.91866 0.87108 0.0
H3219 H 0.1899 0.89592 0.84496 0.0
H3220 H 0.14714 0.86074 0.83389 0.0
H3221 H 0.16014 0.87546 0.83467 0.0
C3222 C 0.85383 0.80728 0.58032 0.0
C3223 C 0.85778 0.79715 0.58311 0.0
C3224 C 0.85292 0.81541 0.58793 0.0
C3225 C 0.8636 0.82388 0.61398 0.0
H3226 H 0.83972 0.84354 0.61367 0.0
C3227 C 0.85821 0.85673 0.64603 0.0
C3228 C 0.85543 0.86696 0.64235 0.0
C3229 C 0.85788 0.84785 0.6392 0.0
C3230 C 0.84647 0.83815 0.61381 0.0
H3231 H 0.86379 0.78764 0.59615 0.0
H3232 H 0.86197 0.80176 0.60948 0.0
H3233 H 0.84019 0.82863 0.60105 0.0
H3234 H 0.85015 0.87586 0.62859 0.0
H3235 H 0.84951 0.86039 0.61672 0.0
H3236 H 0.86991 0.83344 0.62669 0.0
C3237 C 0.85971 0.80345 0.60136 0.0
C3238 C 0.84675 0.82962 0.60658 0.0
C3239 C 0.86063 0.79531 0.59374 0.0
C3240 C 0.85217 0.86807 0.63173 0.0
C3241 C 0.85181 0.8592 0.62492 0.0
C3242 C 0.86331 0.8324 0.62123 0.0
C3243 C 0.85592 0.81362 0.59853 0.0
C3244 C 0.85536 0.82243 0.60652 0.0
C3245 C 0.85474 0.84901 0.62856 0.0
C3246 C 0.85478 0.83968 0.62117 0.0
H3247 H 0.85143 0.80893 0.57223 0.0
H3248 H 0.85007 0.82318 0.58545 0.0
H3249 H 0.87044 0.8186 0.61405 0.0
H3250 H 0.8606 0.85556 0.6542 0.0
H3251 H 0.86004 0.84008 0.64228 0.0
C3252 C 0.91576 0.16303 0.30374 0.0
C3253 C 0.92161 0.15354 0.30231 0.0
C3254 C 0.90833 0.16392 0.312 0.0
C3255 C 0.901 0.15159 0.33775 0.0
H3256 H 0.87388 0.16575 0.33334 0.0
C3257 C 0.86604 0.14731 0.36697 0.0
C3258 C 0.8605 0.15666 0.36981 0.0
C3259 C 0.8735 0.14744 0.35874 0.0
C3260 C 0.88147 0.16188 0.33471 0.0
H3261 H 0.92401 0.13745 0.30819 0.0
H3262 H 0.911 0.13893 0.32246 0.0
H3263 H 0.8869 0.165 0.3189 0.0
H3264 H 0.85833 0.17345 0.36618 0.0
H3265 H 0.87141 0.17369 0.3517 0.0
H3266 H 0.8955 0.14829 0.35348 0.0
C3267 C 0.91232 0.1458 0.31741 0.0
C3268 C 0.88894 0.16146 0.32645 0.0
C3269 C 0.91977 0.14493 0.30921 0.0
C3270 C 0.86252 0.16614 0.36418 0.0
C3271 C 0.86994 0.16626 0.35586 0.0
C3272 C 0.89352 0.15195 0.34596 0.0
C3273 C 0.90656 0.15532 0.31897 0.0
C3274 C 0.89876 0.15621 0.32784 0.0
C3275 C 0.87556 0.15692 0.35312 0.0
C3276 C 0.88364 0.157 0.3445 0.0
H3277 H 0.91707 0.16983 0.29859 0.0
H3278 H 0.90412 0.17141 0.31304 0.0
H3279 H 0.90857 0.1477 0.33919 0.0
H3280 H 0.86475 0.13991 0.37124 0.0
H3281 H 0.87763 0.1401 0.35673 0.0
C3282 C 0.65367 0.20477 0.08164 0.0
C3283 C 0.64962 0.21482 0.08468 0.0
C3284 C 0.65479 0.19661 0.08908 0.0
C3285 C 0.64467 0.18777 0.11513 0.0
H3286 H 0.66881 0.16847 0.11386 0.0
C3287 C 0.65108 0.15424 0.14596 0.0
C3288 C 0.65391 0.14416 0.14183 0.0
C3289 C 0.65114 0.1633 0.13947 0.0
C3290 C 0.66199 0.17376 0.11427 0.0
H3291 H 0.64365 0.22417 0.09797 0.0
H3292 H 0.64584 0.20999 0.11101 0.0
H3293 H 0.66795 0.18356 0.1017 0.0
H3294 H 0.65892 0.13568 0.12758 0.0
H3295 H 0.6591 0.15147 0.11632 0.0
H3296 H 0.63869 0.17791 0.12767 0.0
C3297 C 0.64802 0.20839 0.10283 0.0
C3298 C 0.66149 0.1824 0.1073 0.0
C3299 C 0.64688 0.21656 0.09538 0.0
C3300 C 0.65689 0.14336 0.13108 0.0
C3301 C 0.65699 0.1524 0.12462 0.0
C3302 C 0.6452 0.17915 0.12213 0.0
C3303 C 0.65192 0.19829 0.09975 0.0
C3304 C 0.65276 0.18944 0.10756 0.0
C3305 C 0.65406 0.16247 0.12872 0.0
C3306 C 0.6538 0.17198 0.1217 0.0
H3307 H 0.65599 0.20321 0.07349 0.0
H3308 H 0.65772 0.1889 0.08641 0.0
H3309 H 0.63776 0.19295 0.11545 0.0
H3310 H 0.64888 0.15516 0.15423 0.0
H3311 H 0.64896 0.17097 0.14289 0.0
C3312 C 0.57993 0.86395 0.82262 0.0
C3313 C 0.57646 0.85491 0.81689 0.0
C3314 C 0.58896 0.86345 0.82907 0.0
C3315 C 0.61322 0.84755 0.83468 0.0
H3316 H 0.61159 0.86233 0.86182 0.0
C3317 C 0.6444 0.84305 0.86864 0.0
C3318 C 0.64738 0.85253 0.87398 0.0
C3319 C 0.63621 0.84313 0.86109 0.0
C3320 C 0.61221 0.85825 0.85422 0.0
H3321 H 0.57983 0.83828 0.81324 0.0
H3322 H 0.59558 0.83731 0.82469 0.0
H3323 H 0.59641 0.86273 0.84982 0.0
H3324 H 0.64417 0.86953 0.8755 0.0
H3325 H 0.62999 0.86968 0.86227 0.0
H3326 H 0.62904 0.84296 0.83927 0.0
C3327 C 0.59139 0.84485 0.82408 0.0
C3328 C 0.60352 0.85849 0.84733 0.0
C3329 C 0.58236 0.84539 0.81754 0.0
C3330 C 0.64215 0.86212 0.87144 0.0
C3331 C 0.63395 0.86218 0.86396 0.0
C3332 C 0.62193 0.84726 0.84164 0.0
C3333 C 0.5947 0.85385 0.83003 0.0
C3334 C 0.60394 0.85325 0.83742 0.0
C3335 C 0.63078 0.85267 0.85881 0.0
C3336 C 0.62154 0.8527 0.85144 0.0
H3337 H 0.57567 0.87147 0.8221 0.0
H3338 H 0.59143 0.87061 0.83332 0.0
H3339 H 0.61384 0.8435 0.82708 0.0
H3340 H 0.64834 0.83555 0.87039 0.0
H3341 H 0.63391 0.83567 0.85727 0.0
C3342 C 0.84735 0.19605 0.93231 0.0
C3343 C 0.85741 0.20018 0.93512 0.0
C3344 C 0.84614 0.18971 0.92319 0.0
C3345 C 0.86024 0.18146 0.89829 0.0
H3346 H 0.84158 0.15665 0.9 0.0
C3347 C 0.8644 0.14398 0.87176 0.0
C3348 C 0.85508 0.1397 0.86713 0.0
C3349 C 0.86382 0.15236 0.87912 0.0
C3350 C 0.84671 0.16363 0.89936 0.0
H3351 H 0.8741 0.20088 0.93065 0.0
H3352 H 0.87211 0.1896 0.91497 0.0
H3353 H 0.84217 0.16944 0.9147 0.0
H3354 H 0.83781 0.14113 0.86652 0.0
H3355 H 0.83682 0.15552 0.87974 0.0
H3356 H 0.86515 0.17527 0.88315 0.0
C3357 C 0.86505 0.19149 0.91956 0.0
C3358 C 0.84704 0.17099 0.90777 0.0
C3359 C 0.86622 0.19793 0.92859 0.0
C3360 C 0.84515 0.14408 0.87004 0.0
C3361 C 0.84457 0.15236 0.87755 0.0
C3362 C 0.86003 0.17401 0.88997 0.0
C3363 C 0.855 0.18724 0.91675 0.0
C3364 C 0.85394 0.17992 0.90742 0.0
C3365 C 0.8539 0.15655 0.88217 0.0
C3366 C 0.85337 0.16495 0.8905 0.0
H3367 H 0.84041 0.19775 0.93716 0.0
H3368 H 0.83825 0.18674 0.92119 0.0
H3369 H 0.86546 0.18836 0.8976 0.0
H3370 H 0.87218 0.14069 0.86994 0.0
H3371 H 0.87113 0.15535 0.88269 0.0
C3372 C 0.58458 0.15584 0.69268 0.0
C3373 C 0.57886 0.14613 0.69291 0.0
C3374 C 0.59371 0.15686 0.68634 0.0
C3375 C 0.6065 0.14461 0.66282 0.0
H3376 H 0.63165 0.16026 0.67215 0.0
C3377 C 0.64536 0.14369 0.63879 0.0
C3378 C 0.65055 0.15354 0.63712 0.0
C3379 C 0.6371 0.14286 0.64618 0.0
C3380 C 0.62465 0.15594 0.66942 0.0
H3381 H 0.57849 0.12975 0.6871 0.0
H3382 H 0.59441 0.13149 0.67615 0.0
H3383 H 0.61625 0.1587 0.68401 0.0
H3384 H 0.65139 0.17016 0.64217 0.0
H3385 H 0.63683 0.16873 0.65504 0.0
H3386 H 0.61484 0.14183 0.64826 0.0
C3387 C 0.59172 0.13841 0.68063 0.0
C3388 C 0.61583 0.15506 0.67619 0.0
C3389 C 0.5826 0.1374 0.68691 0.0
C3390 C 0.64748 0.16248 0.64322 0.0
C3391 C 0.63921 0.16164 0.65065 0.0
C3392 C 0.6153 0.14546 0.65608 0.0
C3393 C 0.59731 0.14818 0.68015 0.0
C3394 C 0.60668 0.14932 0.67299 0.0
C3395 C 0.63382 0.15185 0.65207 0.0
C3396 C 0.6245 0.15108 0.65932 0.0
H3397 H 0.58185 0.16273 0.69717 0.0
H3398 H 0.59778 0.16453 0.68608 0.0
H3399 H 0.5995 0.14035 0.66 0.0
H3400 H 0.64744 0.13668 0.63413 0.0
H3401 H 0.63319 0.13517 0.64719 0.0
C3402 C 0.64846 0.79234 0.41317 0.0
C3403 C 0.65089 0.79426 0.42392 0.0
C3404 C 0.64954 0.80049 0.40567 0.0
C3405 C 0.66228 0.82694 0.40115 0.0
H3406 H 0.63961 0.83032 0.3805 0.0
C3407 C 0.65675 0.86547 0.37665 0.0
C3408 C 0.6535 0.86441 0.36601 0.0
C3409 C 0.65729 0.85651 0.38322 0.0
C3410 C 0.64609 0.8294 0.3861 0.0
H3411 H 0.65665 0.8062 0.43514 0.0
H3412 H 0.65831 0.82047 0.42212 0.0
H3413 H 0.63896 0.81542 0.39288 0.0
H3414 H 0.64864 0.85304 0.35383 0.0
H3415 H 0.64956 0.83739 0.36532 0.0
H3416 H 0.66932 0.84104 0.39446 0.0
C3417 C 0.65567 0.81263 0.41946 0.0
C3418 C 0.64572 0.82085 0.39321 0.0
C3419 C 0.65459 0.80448 0.42695 0.0
C3420 C 0.65102 0.85415 0.36203 0.0
C3421 C 0.65154 0.84519 0.36861 0.0
C3422 C 0.66265 0.8355 0.39405 0.0
C3423 C 0.65308 0.81075 0.40875 0.0
C3424 C 0.65376 0.81957 0.40088 0.0
C3425 C 0.65457 0.84628 0.37932 0.0
C3426 C 0.65451 0.83688 0.3865 0.0
H3427 H 0.6455 0.78459 0.41057 0.0
H3428 H 0.64758 0.79874 0.39747 0.0
H3429 H 0.66869 0.82609 0.40685 0.0
H3430 H 0.65855 0.87327 0.38002 0.0
H3431 H 0.6595 0.85765 0.39147 0.0
C3432 C 0.92487 0.86777 0.18624 0.0
C3433 C 0.92907 0.85863 0.19113 0.0
C3434 C 0.91581 0.867 0.17985 0.0
C3435 C 0.89273 0.84961 0.17293 0.0
H3436 H 0.89332 0.8661 0.14694 0.0
C3437 C 0.86205 0.84449 0.13854 0.0
C3438 C 0.85845 0.85396 0.13374 0.0
C3439 C 0.87018 0.84484 0.14616 0.0
C3440 C 0.89298 0.86154 0.15422 0.0
H3441 H 0.92694 0.84156 0.19338 0.0
H3442 H 0.91112 0.84017 0.18205 0.0
H3443 H 0.90838 0.86706 0.15907 0.0
H3444 H 0.86051 0.87122 0.13327 0.0
H3445 H 0.87454 0.87183 0.14662 0.0
H3446 H 0.87732 0.84399 0.16791 0.0
C3447 C 0.91477 0.84796 0.18327 0.0
C3448 C 0.90161 0.86209 0.16119 0.0
C3449 C 0.92383 0.84874 0.18974 0.0
C3450 C 0.863 0.86379 0.13689 0.0
C3451 C 0.87113 0.86413 0.14445 0.0
C3452 C 0.88409 0.84901 0.1659 0.0
C3453 C 0.91075 0.85706 0.17812 0.0
C3454 C 0.90157 0.85622 0.17068 0.0
C3455 C 0.87492 0.85465 0.14906 0.0
C3456 C 0.88409 0.85505 0.15651 0.0
H3457 H 0.92862 0.87553 0.18734 0.0
H3458 H 0.91278 0.87422 0.17622 0.0
H3459 H 0.89241 0.84504 0.18021 0.0
H3460 H 0.85864 0.83681 0.13633 0.0
H3461 H 0.87296 0.8374 0.14954 0.0
C3462 C 0.08229 0.63931 0.18842 0.0
C3463 C 0.07836 0.64854 0.19348 0.0
C3464 C 0.09171 0.63971 0.18253 0.0
C3465 C 0.11601 0.65606 0.17748 0.0
H3466 H 0.11595 0.64039 0.15079 0.0
C3467 C 0.1473 0.66202 0.14392 0.0
C3468 C 0.15066 0.65281 0.13839 0.0
C3469 C 0.13929 0.66134 0.15164 0.0
C3470 C 0.11616 0.64469 0.15829 0.0
H3471 H 0.08133 0.6654 0.19652 0.0
H3472 H 0.09775 0.66618 0.18604 0.0
H3473 H 0.10037 0.63963 0.16225 0.0
H3474 H 0.14847 0.63562 0.13685 0.0
H3475 H 0.13465 0.63442 0.15041 0.0
H3476 H 0.13179 0.6613 0.1733 0.0
C3477 C 0.09362 0.65858 0.18676 0.0
C3478 C 0.10722 0.64425 0.16487 0.0
C3479 C 0.0842 0.65815 0.19274 0.0
C3480 C 0.14614 0.64285 0.14104 0.0
C3481 C 0.13813 0.64218 0.14871 0.0
C3482 C 0.12496 0.65655 0.17083 0.0
C3483 C 0.09741 0.64938 0.18148 0.0
C3484 C 0.10703 0.6499 0.17457 0.0
C3485 C 0.13445 0.65144 0.15393 0.0
C3486 C 0.12513 0.65083 0.16118 0.0
H3487 H 0.07807 0.63175 0.18904 0.0
H3488 H 0.09453 0.63242 0.17878 0.0
H3489 H 0.11617 0.66042 0.18494 0.0
H3490 H 0.1507 0.66979 0.14211 0.0
H3491 H 0.1366 0.66862 0.15549 0.0
C3492 C 0.14326 0.29138 0.91276 0.0
C3493 C 0.14621 0.29314 0.92341 0.0
C3494 C 0.14441 0.29951 0.90525 0.0
C3495 C 0.15828 0.32534 0.90043 0.0
H3496 H 0.13517 0.33006 0.88054 0.0
C3497 C 0.15375 0.36455 0.87706 0.0
C3498 C 0.15055 0.36388 0.86638 0.0
C3499 C 0.15387 0.35543 0.88343 0.0
C3500 C 0.14176 0.32875 0.88594 0.0
H3501 H 0.15297 0.30475 0.93442 0.0
H3502 H 0.15473 0.31898 0.92141 0.0
H3503 H 0.13421 0.31501 0.89276 0.0
H3504 H 0.14512 0.35304 0.85396 0.0
H3505 H 0.14523 0.3371 0.86514 0.0
H3506 H 0.16572 0.33922 0.89374 0.0
C3507 C 0.15163 0.31129 0.91882 0.0
C3508 C 0.14122 0.32012 0.89294 0.0
C3509 C 0.15049 0.30317 0.92632 0.0
C3510 C 0.14751 0.35385 0.8622 0.0
C3511 C 0.14758 0.34473 0.86859 0.0
C3512 C 0.1588 0.33398 0.89346 0.0
C3513 C 0.14855 0.30958 0.90821 0.0
C3514 C 0.14942 0.31838 0.90035 0.0
C3515 C 0.15073 0.34543 0.87928 0.0
C3516 C 0.15049 0.33586 0.88622 0.0
H3517 H 0.13985 0.28378 0.91027 0.0
H3518 H 0.14206 0.29789 0.89712 0.0
H3519 H 0.16482 0.32411 0.9059 0.0
H3520 H 0.15594 0.37218 0.88061 0.0
H3521 H 0.15616 0.35628 0.89168 0.0
C3522 C 0.42745 0.36551 0.68456 0.0
C3523 C 0.43115 0.35636 0.68981 0.0
C3524 C 0.41829 0.36501 0.67828 0.0
C3525 C 0.39413 0.34869 0.6725 0.0
H3526 H 0.39487 0.36437 0.64601 0.0
C3527 C 0.36245 0.34412 0.63895 0.0
C3528 C 0.35913 0.35363 0.63404 0.0
C3529 C 0.37077 0.34428 0.64636 0.0
C3530 C 0.39449 0.36004 0.65343 0.0
H3531 H 0.42807 0.33955 0.69278 0.0
H3532 H 0.4121 0.33861 0.68163 0.0
H3533 H 0.41029 0.36487 0.65772 0.0
H3534 H 0.36186 0.37077 0.63315 0.0
H3535 H 0.37627 0.37106 0.64613 0.0
H3536 H 0.37832 0.34374 0.66802 0.0
C3537 C 0.4162 0.34622 0.68249 0.0
C3538 C 0.40332 0.36034 0.66016 0.0
C3539 C 0.42536 0.34674 0.68885 0.0
C3540 C 0.36415 0.36332 0.63687 0.0
C3541 C 0.37248 0.36348 0.64421 0.0
C3542 C 0.38528 0.34834 0.6657 0.0
C3543 C 0.41263 0.35533 0.67703 0.0
C3544 C 0.40323 0.35475 0.66983 0.0
C3545 C 0.37599 0.35395 0.64893 0.0
C3546 C 0.38535 0.3541 0.65614 0.0
H3547 H 0.43163 0.37309 0.68533 0.0
H3548 H 0.41563 0.37225 0.67441 0.0
H3549 H 0.39375 0.34437 0.67992 0.0
H3550 H 0.35868 0.33654 0.63697 0.0
H3551 H 0.37333 0.33681 0.64983 0.0
C3552 C 0.15719 0.71273 0.58933 0.0
C3553 C 0.14765 0.71428 0.58369 0.0
C3554 C 0.15788 0.70475 0.59705 0.0
C3555 C 0.14135 0.68799 0.61466 0.0
H3556 H 0.16579 0.66903 0.61467 0.0
C3557 C 0.14145 0.64824 0.63763 0.0
C3558 C 0.15099 0.64496 0.64246 0.0
C3559 C 0.14129 0.65726 0.63112 0.0
C3560 C 0.15899 0.67435 0.6149 0.0
H3561 H 0.13129 0.70883 0.58186 0.0
H3562 H 0.1325 0.69487 0.59526 0.0
H3563 H 0.1651 0.6838 0.60211 0.0
H3564 H 0.16778 0.64869 0.64447 0.0
H3565 H 0.16749 0.66453 0.63318 0.0
H3566 H 0.1352 0.67856 0.62742 0.0
C3567 C 0.13944 0.69984 0.59375 0.0
C3568 C 0.15859 0.68281 0.60768 0.0
C3569 C 0.13878 0.70776 0.586 0.0
C3570 C 0.16034 0.65097 0.64076 0.0
C3571 C 0.16017 0.66002 0.63427 0.0
C3572 C 0.14176 0.67958 0.62191 0.0
C3573 C 0.149 0.69823 0.59934 0.0
C3574 C 0.14971 0.68963 0.6074 0.0
C3575 C 0.15066 0.66323 0.62931 0.0
C3576 C 0.15052 0.67257 0.62203 0.0
H3577 H 0.16417 0.71759 0.58768 0.0
H3578 H 0.16533 0.70374 0.60128 0.0
H3579 H 0.13448 0.69323 0.61475 0.0
H3580 H 0.13415 0.64367 0.63864 0.0
H3581 H 0.13387 0.65937 0.62728 0.0
C3582 C 0.35552 0.30673 0.07954 0.0
C3583 C 0.35903 0.29647 0.08243 0.0
C3584 C 0.35447 0.31484 0.08716 0.0
C3585 C 0.36395 0.32279 0.11385 0.0
H3586 H 0.34091 0.34336 0.11215 0.0
C3587 C 0.35792 0.35606 0.14542 0.0
C3588 C 0.35595 0.36638 0.14148 0.0
C3589 C 0.3576 0.34713 0.13866 0.0
C3590 C 0.34742 0.33771 0.11269 0.0
H3591 H 0.36411 0.28669 0.09567 0.0
H3592 H 0.36203 0.30077 0.10901 0.0
H3593 H 0.34154 0.32842 0.09959 0.0
H3594 H 0.35212 0.37538 0.1273 0.0
H3595 H 0.35145 0.35981 0.11556 0.0
H3596 H 0.36984 0.33212 0.12694 0.0
C3597 C 0.36023 0.30258 0.10081 0.0
C3598 C 0.3478 0.32916 0.10548 0.0
C3599 C 0.3613 0.29447 0.09317 0.0
C3600 C 0.35349 0.36753 0.13065 0.0
C3601 C 0.35312 0.35861 0.12391 0.0
C3602 C 0.36354 0.33132 0.12109 0.0
C3603 C 0.35687 0.31289 0.09788 0.0
C3604 C 0.35614 0.32166 0.1059 0.0
C3605 C 0.35525 0.34832 0.12782 0.0
C3606 C 0.35534 0.33893 0.12051 0.0
H3607 H 0.35357 0.30851 0.07136 0.0
H3608 H 0.35198 0.3227 0.08459 0.0
H3609 H 0.37057 0.31727 0.11431 0.0
H3610 H 0.35968 0.35486 0.15375 0.0
H3611 H 0.35914 0.33928 0.14193 0.0
C3612 C 0.55785 0.40861 0.1714 0.0
C3613 C 0.54771 0.4048 0.16838 0.0
C3614 C 0.56596 0.40983 0.16389 0.0
C3615 C 0.57424 0.40024 0.13736 0.0
H3616 H 0.59475 0.42352 0.1396 0.0
C3617 C 0.60855 0.40606 0.10708 0.0
C3618 C 0.61869 0.40801 0.11151 0.0
C3619 C 0.59938 0.40645 0.11342 0.0
C3620 C 0.5891 0.41695 0.1389 0.0
H3621 H 0.53813 0.39945 0.155 0.0
H3622 H 0.5522 0.40186 0.14183 0.0
H3623 H 0.57954 0.42292 0.15169 0.0
H3624 H 0.6271 0.41183 0.12613 0.0
H3625 H 0.61113 0.41267 0.1371 0.0
H3626 H 0.58387 0.39425 0.12459 0.0
C3627 C 0.55392 0.40374 0.15006 0.0
C3628 C 0.5804 0.41659 0.14584 0.0
C3629 C 0.54581 0.40248 0.1576 0.0
C3630 C 0.61942 0.4105 0.12239 0.0
C3631 C 0.61026 0.41096 0.1287 0.0
C3632 C 0.58292 0.40063 0.13038 0.0
C3633 C 0.56413 0.40733 0.15314 0.0
C3634 C 0.57295 0.40815 0.14526 0.0
C3635 C 0.60015 0.40888 0.12431 0.0
C3636 C 0.59052 0.40891 0.13118 0.0
H3637 H 0.55955 0.41061 0.17961 0.0
H3638 H 0.57375 0.41251 0.16657 0.0
H3639 H 0.56875 0.39354 0.13678 0.0
H3640 H 0.60768 0.40426 0.0987 0.0
H3641 H 0.59169 0.40492 0.10979 0.0
C3642 C 0.93642 0.60307 0.67575 0.0
C3643 C 0.94634 0.60835 0.67521 0.0
C3644 C 0.93044 0.60121 0.66657 0.0
C3645 C 0.9267 0.61155 0.63951 0.0
H3646 H 0.90897 0.58618 0.63639 0.0
C3647 C 0.89825 0.60502 0.60372 0.0
C3648 C 0.8878 0.60191 0.60648 0.0
C3649 C 0.90644 0.60486 0.61128 0.0
C3650 C 0.91387 0.59331 0.63716 0.0
H3651 H 0.95786 0.61558 0.66455 0.0
H3652 H 0.9475 0.61212 0.64846 0.0
H3653 H 0.92163 0.5874 0.65106 0.0
H3654 H 0.8778 0.59629 0.61941 0.0
H3655 H 0.89208 0.59583 0.63245 0.0
H3656 H 0.91881 0.61749 0.62567 0.0
C3657 C 0.94429 0.60956 0.65602 0.0
C3658 C 0.92111 0.59403 0.64557 0.0
C3659 C 0.95028 0.61143 0.66523 0.0
C3660 C 0.88578 0.59851 0.61692 0.0
C3661 C 0.89397 0.59826 0.62442 0.0
C3662 C 0.91949 0.6108 0.63106 0.0
C3663 C 0.93423 0.60455 0.6566 0.0
C3664 C 0.92743 0.60326 0.64699 0.0
C3665 C 0.90436 0.6015 0.62171 0.0
C3666 C 0.91284 0.60177 0.62994 0.0
H3667 H 0.93322 0.60045 0.68329 0.0
H3668 H 0.92267 0.59744 0.66734 0.0
H3669 H 0.93135 0.61882 0.64043 0.0
H3670 H 0.90011 0.60756 0.59572 0.0
H3671 H 0.9144 0.60732 0.60895 0.0
C3672 C 0.61115 0.33525 0.54818 0.0
C3673 C 0.60226 0.33319 0.54168 0.0
C3674 C 0.61052 0.3426 0.55653 0.0
C3675 C 0.59457 0.36529 0.567 0.0
H3676 H 0.60935 0.35853 0.59316 0.0
C3677 C 0.59066 0.39033 0.60591 0.0
C3678 C 0.60029 0.39264 0.61119 0.0
C3679 C 0.59047 0.38318 0.5973 0.0
C3680 C 0.60525 0.36056 0.58588 0.0
H3681 H 0.58573 0.33729 0.53879 0.0
H3682 H 0.58453 0.35007 0.55353 0.0
H3683 H 0.6097 0.34584 0.57842 0.0
H3684 H 0.61724 0.38922 0.61168 0.0
H3685 H 0.61691 0.37678 0.59667 0.0
H3686 H 0.59004 0.38001 0.5746 0.0
C3687 C 0.59207 0.3461 0.55206 0.0
C3688 C 0.60547 0.35331 0.57741 0.0
C3689 C 0.59274 0.33878 0.54363 0.0
C3690 C 0.60972 0.38768 0.60769 0.0
C3691 C 0.60951 0.38048 0.59917 0.0
C3692 C 0.59429 0.37253 0.57552 0.0
C3693 C 0.60094 0.34805 0.55867 0.0
C3694 C 0.60026 0.35563 0.56781 0.0
C3695 C 0.59989 0.37812 0.59391 0.0
C3696 C 0.59973 0.37029 0.585 0.0
H3697 H 0.61866 0.33121 0.54674 0.0
H3698 H 0.61758 0.34408 0.56128 0.0
H3699 H 0.59056 0.36739 0.55969 0.0
H3700 H 0.58329 0.39408 0.60841 0.0
H3701 H 0.58293 0.38147 0.59342 0.0
C3702 C 0.4157 0.65972 0.803 0.0
C3703 C 0.4213 0.65019 0.80101 0.0
C3704 C 0.40837 0.66034 0.81136 0.0
C3705 C 0.40106 0.64684 0.83651 0.0
H3706 H 0.37452 0.66239 0.8335 0.0
C3707 C 0.36684 0.64324 0.86678 0.0
C3708 C 0.36195 0.6528 0.87011 0.0
C3709 C 0.374 0.64323 0.85828 0.0
C3710 C 0.38195 0.65811 0.83448 0.0
H3711 H 0.42333 0.63372 0.80596 0.0
H3712 H 0.41044 0.63472 0.82039 0.0
H3713 H 0.38712 0.66175 0.81869 0.0
H3714 H 0.36059 0.66981 0.86704 0.0
H3715 H 0.37313 0.66978 0.85212 0.0
H3716 H 0.39581 0.64306 0.85223 0.0
C3717 C 0.4119 0.64183 0.81571 0.0
C3718 C 0.38918 0.65775 0.82601 0.0
C3719 C 0.41927 0.64124 0.80742 0.0
C3720 C 0.36429 0.66234 0.86468 0.0
C3721 C 0.37139 0.66231 0.8561 0.0
C3722 C 0.39381 0.64713 0.84493 0.0
C3723 C 0.40642 0.65141 0.81786 0.0
C3724 C 0.3988 0.65205 0.82691 0.0
C3725 C 0.37638 0.65276 0.85287 0.0
C3726 C 0.38415 0.65271 0.84398 0.0
H3727 H 0.41718 0.66678 0.79824 0.0
H3728 H 0.40438 0.66788 0.81286 0.0
H3729 H 0.40849 0.64258 0.83758 0.0
H3730 H 0.36527 0.6358 0.87088 0.0
H3731 H 0.37764 0.63573 0.8559 0.0
C3732 C 0.08258 0.34647 0.31553 0.0
C3733 C 0.07769 0.35638 0.31363 0.0
C3734 C 0.09165 0.34587 0.32199 0.0
C3735 C 0.10524 0.36103 0.34334 0.0
H3736 H 0.12877 0.34167 0.33786 0.0
C3737 C 0.14317 0.36233 0.36874 0.0
C3738 C 0.14711 0.35246 0.37231 0.0
C3739 C 0.13536 0.36268 0.36085 0.0
C3740 C 0.12221 0.34706 0.33952 0.0
H3741 H 0.07881 0.3735 0.31645 0.0
H3742 H 0.09467 0.3725 0.32756 0.0
H3743 H 0.11391 0.34254 0.32528 0.0
H3744 H 0.14621 0.33524 0.37012 0.0
H3745 H 0.13242 0.33586 0.35639 0.0
H3746 H 0.11346 0.36554 0.35754 0.0
C3747 C 0.09135 0.36514 0.32434 0.0
C3748 C 0.11371 0.34755 0.33233 0.0
C3749 C 0.08228 0.36572 0.31796 0.0
C3750 C 0.14326 0.34296 0.36759 0.0
C3751 C 0.13545 0.34332 0.35967 0.0
C3752 C 0.11373 0.36056 0.35047 0.0
C3753 C 0.09603 0.35519 0.32661 0.0
C3754 C 0.10514 0.35458 0.33414 0.0
C3755 C 0.13127 0.35318 0.35636 0.0
C3756 C 0.12233 0.35361 0.34864 0.0
H3757 H 0.07917 0.33914 0.31233 0.0
H3758 H 0.095 0.33808 0.32364 0.0
H3759 H 0.09866 0.36634 0.34513 0.0
H3760 H 0.14586 0.36979 0.37228 0.0
H3761 H 0.1324 0.37042 0.35837 0.0
C3762 C 0.35301 0.6949 0.43204 0.0
C3763 C 0.36268 0.69545 0.43768 0.0
C3764 C 0.35203 0.68822 0.42311 0.0
C3765 C 0.36448 0.66433 0.4109 0.0
H3766 H 0.34882 0.67262 0.38572 0.0
C3767 C 0.36646 0.6396 0.37245 0.0
C3768 C 0.35677 0.63745 0.3672 0.0
C3769 C 0.36692 0.6471 0.38069 0.0
C3770 C 0.35314 0.67017 0.39274 0.0
H3771 H 0.37905 0.68989 0.43809 0.0
H3772 H 0.3774 0.67838 0.42251 0.0
H3773 H 0.35012 0.68504 0.40078 0.0
H3774 H 0.34004 0.6417 0.36632 0.0
H3775 H 0.34084 0.65481 0.38084 0.0
H3776 H 0.36756 0.64951 0.4029 0.0
C3777 C 0.37047 0.68285 0.42512 0.0
C3778 C 0.35388 0.67727 0.40137 0.0
C3779 C 0.37143 0.68946 0.43404 0.0
C3780 C 0.3476 0.64314 0.37026 0.0
C3781 C 0.34807 0.6507 0.37851 0.0
C3782 C 0.36378 0.65728 0.4023 0.0
C3783 C 0.36072 0.68201 0.41964 0.0
C3784 C 0.35964 0.67446 0.41052 0.0
C3785 C 0.35772 0.65264 0.3839 0.0
C3786 C 0.35818 0.66014 0.39309 0.0
H3787 H 0.34612 0.69938 0.4347 0.0
H3788 H 0.34439 0.6877 0.41912 0.0
H3789 H 0.36876 0.66179 0.41792 0.0
H3790 H 0.37364 0.63526 0.37037 0.0
H3791 H 0.3745 0.64851 0.38462 0.0
C3792 C 0.12744 0.30197 0.03144 0.0
C3793 C 0.11972 0.29698 0.02497 0.0
C3794 C 0.12445 0.30738 0.04069 0.0
C3795 C 0.10167 0.3214 0.05257 0.0
H3796 H 0.11939 0.3212 0.07781 0.0
C3797 C 0.0924 0.34774 0.0895 0.0
C3798 C 0.10122 0.35335 0.09367 0.0
C3799 C 0.09386 0.3396 0.08195 0.0
C3800 C 0.11437 0.32137 0.07081 0.0
H3801 H 0.10282 0.29355 0.02328 0.0
H3802 H 0.09759 0.30295 0.03955 0.0
H3803 H 0.12339 0.30902 0.06314 0.0
H3804 H 0.11849 0.35454 0.09351 0.0
H3805 H 0.12104 0.34052 0.08027 0.0
H3806 H 0.09281 0.33394 0.06014 0.0
C3807 C 0.10595 0.30273 0.03739 0.0
C3808 C 0.11667 0.31439 0.06241 0.0
C3809 C 0.10896 0.29726 0.02813 0.0
C3810 C 0.11153 0.35048 0.09033 0.0
C3811 C 0.11299 0.34234 0.08284 0.0
C3812 C 0.09937 0.32839 0.06098 0.0
C3813 C 0.11366 0.30796 0.04371 0.0
C3814 C 0.11048 0.31448 0.0531 0.0
C3815 C 0.10418 0.33685 0.0785 0.0
C3816 C 0.10585 0.32861 0.0701 0.0
H3817 H 0.13581 0.30179 0.02927 0.0
H3818 H 0.13057 0.31141 0.04531 0.0
H3819 H 0.09681 0.32175 0.04547 0.0
H3820 H 0.08436 0.3498 0.09192 0.0
H3821 H 0.08692 0.33547 0.0788 0.0
C3822 C 0.95826 0.87077 0.30134 0.0
C3823 C 0.95585 0.86119 0.2959 0.0
C3824 C 0.95614 0.87178 0.3122 0.0
C3825 C 0.94971 0.85633 0.33652 0.0
H3826 H 0.93484 0.88222 0.34488 0.0
C3827 C 0.92403 0.85941 0.37445 0.0
C3828 C 0.92371 0.86923 0.37996 0.0
C3829 C 0.9297 0.85848 0.36493 0.0
C3830 C 0.93916 0.87502 0.34276 0.0
H3831 H 0.94987 0.84497 0.29772 0.0
H3832 H 0.94601 0.84679 0.31661 0.0
H3833 H 0.94176 0.88049 0.32691 0.0
H3834 H 0.92951 0.88562 0.38008 0.0
H3835 H 0.93945 0.88398 0.36347 0.0
H3836 H 0.94689 0.85077 0.35234 0.0
C3837 C 0.94958 0.85351 0.31251 0.0
C3838 C 0.94313 0.87403 0.33243 0.0
C3839 C 0.95168 0.85251 0.30165 0.0
C3840 C 0.92949 0.87799 0.37593 0.0
C3841 C 0.93517 0.87705 0.36642 0.0
C3842 C 0.94575 0.85732 0.34686 0.0
C3843 C 0.95159 0.86322 0.31787 0.0
C3844 C 0.94831 0.86461 0.32914 0.0
C3845 C 0.93518 0.86734 0.3607 0.0
C3846 C 0.94028 0.86661 0.35005 0.0
H3847 H 0.96141 0.87763 0.29713 0.0
H3848 H 0.95789 0.87932 0.31613 0.0
H3849 H 0.9538 0.84903 0.33427 0.0
H3850 H 0.91955 0.85255 0.37726 0.0
H3851 H 0.92941 0.85092 0.36066 0.0
C3852 C 0.39227 0.70758 0.5297 0.0
C3853 C 0.38805 0.71749 0.53294 0.0
C3854 C 0.39543 0.70003 0.53717 0.0
C3855 C 0.40306 0.69624 0.56513 0.0
H3856 H 0.3931 0.6672 0.56008 0.0
C3857 C 0.40561 0.66271 0.59672 0.0
C3858 C 0.40758 0.65222 0.59313 0.0
C3859 C 0.40407 0.671 0.58947 0.0
C3860 C 0.39611 0.67522 0.56155 0.0
H3861 H 0.3842 0.72737 0.54663 0.0
H3862 H 0.38983 0.71415 0.55973 0.0
H3863 H 0.38895 0.68112 0.54734 0.0
H3864 H 0.41004 0.64229 0.57918 0.0
H3865 H 0.40758 0.65677 0.56652 0.0
H3866 H 0.41025 0.6903 0.57935 0.0
C3867 C 0.39068 0.71227 0.55137 0.0
C3868 C 0.39369 0.68321 0.55425 0.0
C3869 C 0.38746 0.71984 0.54387 0.0
C3870 C 0.40837 0.65027 0.58216 0.0
C3871 C 0.40691 0.65856 0.57492 0.0
C3872 C 0.40553 0.68821 0.57243 0.0
C3873 C 0.39452 0.70221 0.54808 0.0
C3874 C 0.39715 0.6938 0.55594 0.0
C3875 C 0.40454 0.66899 0.57847 0.0
C3876 C 0.4021 0.67759 0.57071 0.0
H3877 H 0.39308 0.70561 0.52135 0.0
H3878 H 0.39856 0.69243 0.53439 0.0
H3879 H 0.4059 0.70433 0.5666 0.0
H3880 H 0.40487 0.66442 0.60513 0.0
H3881 H 0.40215 0.6789 0.59249 0.0
C3882 C 0.55117 0.15033 0.80454 0.0
C3883 C 0.55878 0.14909 0.79643 0.0
C3884 C 0.55425 0.1499 0.81523 0.0
C3885 C 0.57828 0.15218 0.83238 0.0
H3886 H 0.56121 0.13671 0.85296 0.0
C3887 C 0.5955 0.13756 0.87183 0.0
C3888 C 0.58947 0.13924 0.88108 0.0
C3889 C 0.59111 0.13953 0.86186 0.0
C3890 C 0.56598 0.14117 0.84732 0.0
H3891 H 0.57549 0.14602 0.79314 0.0
H3892 H 0.58082 0.14516 0.81164 0.0
H3893 H 0.55464 0.13874 0.83479 0.0
H3894 H 0.57408 0.1442 0.88719 0.0
H3895 H 0.56631 0.14758 0.86963 0.0
H3896 H 0.58975 0.15433 0.8448 0.0
C3897 C 0.57253 0.14679 0.80983 0.0
C3898 C 0.56222 0.14235 0.83693 0.0
C3899 C 0.56948 0.14726 0.79921 0.0
C3900 C 0.57891 0.14289 0.88016 0.0
C3901 C 0.57446 0.14475 0.87015 0.0
C3902 C 0.58206 0.15092 0.84271 0.0
C3903 C 0.56499 0.14818 0.81799 0.0
C3904 C 0.56843 0.1477 0.82928 0.0
C3905 C 0.58056 0.14316 0.8609 0.0
C3906 C 0.57604 0.14524 0.85024 0.0
H3907 H 0.54288 0.1518 0.80263 0.0
H3908 H 0.54825 0.15108 0.82132 0.0
H3909 H 0.58315 0.15658 0.82678 0.0
H3910 H 0.60369 0.13485 0.8723 0.0
H3911 H 0.59597 0.13813 0.85486 0.0
C3912 C 0.10874 0.71101 0.47995 0.0
C3913 C 0.11969 0.71098 0.4824 0.0
C3914 C 0.1049 0.70544 0.47106 0.0
C3915 C 0.11333 0.69253 0.44579 0.0
H3916 H 0.08882 0.67407 0.45049 0.0
C3917 C 0.09815 0.66359 0.41324 0.0
C3918 C 0.09639 0.65303 0.41667 0.0
C3919 C 0.0994 0.67192 0.42062 0.0
C3920 C 0.09566 0.6792 0.44904 0.0
H3921 H 0.13525 0.70554 0.47717 0.0
H3922 H 0.12856 0.69572 0.46176 0.0
H3923 H 0.09447 0.68654 0.46439 0.0
H3924 H 0.09394 0.64304 0.43047 0.0
H3925 H 0.09625 0.65751 0.44335 0.0
H3926 H 0.11482 0.68486 0.43063 0.0
C3927 C 0.12293 0.70008 0.46665 0.0
C3928 C 0.09883 0.68643 0.45696 0.0
C3929 C 0.12675 0.70561 0.47555 0.0
C3930 C 0.0954 0.65107 0.4276 0.0
C3931 C 0.09662 0.6594 0.43497 0.0
C3932 C 0.11015 0.68532 0.43786 0.0
C3933 C 0.11194 0.69977 0.4644 0.0
C3934 C 0.10785 0.69301 0.45552 0.0
C3935 C 0.09887 0.66988 0.43158 0.0
C3936 C 0.10141 0.67841 0.43948 0.0
H3937 H 0.10309 0.71502 0.48511 0.0
H3938 H 0.0964 0.70544 0.46947 0.0
H3939 H 0.12023 0.69759 0.44438 0.0
H3940 H 0.09903 0.66534 0.40487 0.0
H3941 H 0.10101 0.67993 0.41775 0.0
C3942 C 0.54964 0.857 0.70426 0.0
C3943 C 0.55711 0.85948 0.71226 0.0
C3944 C 0.55229 0.85834 0.69354 0.0
C3945 C 0.57123 0.87279 0.67617 0.0
H3946 H 0.5653 0.85023 0.65567 0.0
C3947 C 0.59333 0.87057 0.63653 0.0
C3948 C 0.58743 0.86829 0.62729 0.0
C3949 C 0.58868 0.86956 0.64653 0.0
C3950 C 0.56688 0.85666 0.66127 0.0
H3951 H 0.57307 0.86557 0.71529 0.0
H3952 H 0.57771 0.86777 0.69669 0.0
H3953 H 0.55866 0.8486 0.67389 0.0
H3954 H 0.57208 0.86285 0.62135 0.0
H3955 H 0.56394 0.86097 0.63894 0.0
H3956 H 0.57958 0.88077 0.66368 0.0
C3957 C 0.5698 0.86483 0.69865 0.0
C3958 C 0.56307 0.85574 0.67169 0.0
C3959 C 0.56719 0.86345 0.70932 0.0
C3960 C 0.57684 0.86462 0.62832 0.0
C3961 C 0.57218 0.86357 0.63838 0.0
C3962 C 0.57503 0.87371 0.6658 0.0
C3963 C 0.5624 0.8623 0.69063 0.0
C3964 C 0.56542 0.8637 0.67931 0.0
C3965 C 0.57802 0.86619 0.64758 0.0
C3966 C 0.5731 0.86555 0.6583 0.0
H3967 H 0.54183 0.85388 0.70629 0.0
H3968 H 0.5464 0.85637 0.68753 0.0
H3969 H 0.57296 0.87918 0.68178 0.0
H3970 H 0.60158 0.87315 0.63603 0.0
H3971 H 0.59347 0.87138 0.65347 0.0
C3972 C 0.396 0.3013 0.978 0.0
C3973 C 0.38544 0.30196 0.98174 0.0
C3974 C 0.39929 0.30731 0.96922 0.0
C3975 C 0.39241 0.33217 0.95558 0.0
H3976 H 0.41118 0.322 0.93322 0.0
C3977 C 0.41042 0.36134 0.92562 0.0
C3978 C 0.40937 0.35845 0.91487 0.0
C3979 C 0.40866 0.35382 0.93359 0.0
C3980 C 0.40592 0.32493 0.93941 0.0
H3981 H 0.36987 0.30884 0.97874 0.0
H3982 H 0.3756 0.31934 0.9635 0.0
H3983 H 0.40525 0.30965 0.94713 0.0
H3984 H 0.40619 0.34524 0.90404 0.0
H3985 H 0.40315 0.33205 0.91801 0.0
H3986 H 0.39293 0.34737 0.9479 0.0
C3987 C 0.3814 0.31435 0.96747 0.0
C3988 C 0.40259 0.31789 0.94739 0.0
C3989 C 0.37812 0.30835 0.97621 0.0
C3990 C 0.40713 0.3477 0.91225 0.0
C3991 C 0.40538 0.34015 0.92025 0.0
C3992 C 0.39578 0.33919 0.94768 0.0
C3993 C 0.39207 0.31411 0.96404 0.0
C3994 C 0.39573 0.32144 0.95552 0.0
C3995 C 0.40583 0.34322 0.93101 0.0
C3996 C 0.40257 0.33567 0.9395 0.0
H3997 H 0.40185 0.29651 0.98213 0.0
H3998 H 0.40757 0.307 0.96679 0.0
H3999 H 0.38724 0.33519 0.96181 0.0
H4000 H 0.41234 0.36952 0.92788 0.0
H4001 H 0.4093 0.35637 0.94181 0.0
C4002 C 0.96147 0.15126 0.20312 0.0
C4003 C 0.96662 0.14203 0.20685 0.0
C4004 C 0.95692 0.1514 0.193 0.0
C4005 C 0.95669 0.13726 0.16699 0.0
H4006 H 0.92852 0.14974 0.16449 0.0
C4007 C 0.92912 0.12958 0.13095 0.0
C4008 C 0.92294 0.13815 0.12723 0.0
C4009 C 0.93517 0.13066 0.14022 0.0
C4010 C 0.93645 0.14636 0.165 0.0
H4011 H 0.97113 0.12576 0.2028 0.0
H4012 H 0.96316 0.12599 0.18515 0.0
H4013 H 0.93783 0.15055 0.18143 0.0
H4014 H 0.91838 0.15462 0.13027 0.0
H4015 H 0.92907 0.15656 0.14637 0.0
H4016 H 0.95521 0.13293 0.15057 0.0
C4017 C 0.96277 0.13318 0.18999 0.0
C4018 C 0.9418 0.14683 0.17473 0.0
C4019 C 0.96734 0.13304 0.20012 0.0
C4020 C 0.92312 0.14789 0.13288 0.0
C4021 C 0.92915 0.14897 0.14217 0.0
C4022 C 0.95133 0.13678 0.15726 0.0
C4023 C 0.9574 0.14232 0.18636 0.0
C4024 C 0.95195 0.14222 0.17586 0.0
C4025 C 0.93517 0.14033 0.146 0.0
C4026 C 0.94111 0.14126 0.15618 0.0
H4027 H 0.96093 0.15838 0.20805 0.0
H4028 H 0.95301 0.15864 0.19037 0.0
H4029 H 0.96457 0.13377 0.16756 0.0
H4030 H 0.92925 0.122 0.12671 0.0
H4031 H 0.93963 0.12382 0.143 0.0
C4032 C 0.02885 0.12928 0.30851 0.0
C4033 C 0.02092 0.12235 0.30451 0.0
C4034 C 0.03742 0.12526 0.31433 0.0
C4035 C 0.04443 0.10259 0.33125 0.0
H4036 H 0.07309 0.11427 0.32906 0.0
C4037 C 0.0757 0.09888 0.36456 0.0
C4038 C 0.08639 0.09707 0.36169 0.0
C4039 C 0.06798 0.10072 0.35679 0.0
C4040 C 0.06516 0.11083 0.32969 0.0
H4041 H 0.01591 0.10574 0.30326 0.0
H4042 H 0.03096 0.0987 0.31335 0.0
H4043 H 0.05941 0.11982 0.31645 0.0
H4044 H 0.09733 0.09559 0.34843 0.0
H4045 H 0.0838 0.09875 0.33482 0.0
H4046 H 0.05015 0.09369 0.34456 0.0
C4047 C 0.03049 0.10726 0.31204 0.0
C4048 C 0.0573 0.11409 0.32253 0.0
C4049 C 0.02193 0.11127 0.30617 0.0
C4050 C 0.08914 0.09689 0.35087 0.0
C4051 C 0.08143 0.09879 0.34309 0.0
C4052 C 0.05227 0.09937 0.33844 0.0
C4053 C 0.03824 0.11422 0.31632 0.0
C4054 C 0.04682 0.11011 0.32332 0.0
C4055 C 0.07078 0.10084 0.34598 0.0
C4056 C 0.06268 0.10357 0.33783 0.0
H4057 H 0.02834 0.13784 0.30728 0.0
H4058 H 0.04321 0.13085 0.31759 0.0
H4059 H 0.03641 0.09945 0.33214 0.0
H4060 H 0.07333 0.09898 0.37283 0.0
H4061 H 0.05987 0.10237 0.35928 0.0
C4062 C 0.13288 0.81581 0.53646 0.0
C4063 C 0.1415 0.80868 0.53723 0.0
C4064 C 0.13341 0.82594 0.54124 0.0
C4065 C 0.14719 0.84021 0.56295 0.0
H4066 H 0.135 0.86554 0.55016 0.0
C4067 C 0.15017 0.88152 0.58331 0.0
C4068 C 0.14084 0.88774 0.58344 0.0
C4069 C 0.15084 0.87239 0.57688 0.0
C4070 C 0.13837 0.85852 0.55386 0.0
H4071 H 0.15763 0.80681 0.54316 0.0
H4072 H 0.15857 0.82448 0.55146 0.0
H4073 H 0.13515 0.84866 0.54023 0.0
H4074 H 0.12503 0.88942 0.57665 0.0
H4075 H 0.12613 0.87335 0.56558 0.0
H4076 H 0.15028 0.84997 0.57662 0.0
C4077 C 0.15131 0.82216 0.54735 0.0
C4078 C 0.13846 0.84886 0.54818 0.0
C4079 C 0.15078 0.81204 0.54258 0.0
C4080 C 0.13229 0.88474 0.57681 0.0
C4081 C 0.13297 0.8756 0.57038 0.0
C4082 C 0.1471 0.84985 0.56862 0.0
C4083 C 0.14257 0.82917 0.54688 0.0
C4084 C 0.14283 0.83957 0.55268 0.0
C4085 C 0.1422 0.86923 0.57044 0.0
C4086 C 0.14265 0.85911 0.56418 0.0
H4087 H 0.12557 0.81341 0.53249 0.0
H4088 H 0.12649 0.83109 0.54083 0.0
H4089 H 0.15044 0.83317 0.56674 0.0
H4090 H 0.15686 0.88354 0.5884 0.0
H4091 H 0.15812 0.86774 0.57702 0.0
C4092 C 0.48567 0.88339 0.80534 0.0
C4093 C 0.48236 0.88116 0.79489 0.0
C4094 C 0.47844 0.88719 0.81288 0.0
C4095 C 0.45245 0.9005 0.8162 0.0
H4096 H 0.45318 0.88737 0.84402 0.0
C4097 C 0.41964 0.90721 0.84798 0.0
C4098 C 0.42281 0.90765 0.85869 0.0
C4099 C 0.42703 0.90474 0.84002 0.0
C4100 C 0.45297 0.89125 0.83636 0.0
H4101 H 0.46886 0.88141 0.78412 0.0
H4102 H 0.45619 0.88813 0.79734 0.0
H4103 H 0.46573 0.88159 0.83042 0.0
H4104 H 0.43627 0.90636 0.86939 0.0
H4105 H 0.44921 0.90222 0.85549 0.0
H4106 H 0.43969 0.91018 0.82217 0.0
C4107 C 0.46443 0.88696 0.79965 0.0
C4108 C 0.46015 0.88791 0.82855 0.0
C4109 C 0.47168 0.88311 0.79208 0.0
C4110 C 0.43358 0.90593 0.86122 0.0
C4111 C 0.44097 0.90351 0.85326 0.0
C4112 C 0.44528 0.90388 0.82405 0.0
C4113 C 0.46772 0.88892 0.81017 0.0
C4114 C 0.45999 0.8925 0.81839 0.0
C4115 C 0.43776 0.9027 0.84258 0.0
C4116 C 0.44547 0.8993 0.83423 0.0
H4117 H 0.4939 0.88224 0.80771 0.0
H4118 H 0.48127 0.88883 0.82086 0.0
H4119 H 0.45221 0.90426 0.80848 0.0
H4120 H 0.41136 0.90837 0.8458 0.0
H4121 H 0.42424 0.90405 0.8319 0.0
C4122 C 0.37631 0.19513 0.03277 0.0
C4123 C 0.36753 0.20208 0.03341 0.0
C4124 C 0.37571 0.18483 0.03706 0.0
C4125 C 0.36092 0.16959 0.05732 0.0
H4126 H 0.37476 0.14502 0.04441 0.0
C4127 C 0.35833 0.12787 0.07629 0.0
C4128 C 0.36798 0.12222 0.07703 0.0
C4129 C 0.35759 0.13695 0.0699 0.0
C4130 C 0.3709 0.15182 0.04814 0.0
H4131 H 0.35107 0.20348 0.03855 0.0
H4132 H 0.35 0.18551 0.04595 0.0
H4133 H 0.37469 0.16214 0.03512 0.0
H4134 H 0.38428 0.1214 0.07127 0.0
H4135 H 0.38304 0.13735 0.06025 0.0
H4136 H 0.35726 0.15936 0.07039 0.0
C4137 C 0.35743 0.18809 0.04236 0.0
C4138 C 0.37087 0.16163 0.04282 0.0
C4139 C 0.35803 0.19838 0.0381 0.0
C4140 C 0.37676 0.12564 0.07095 0.0
C4141 C 0.37602 0.13472 0.06455 0.0
C4142 C 0.36094 0.1598 0.06261 0.0
C4143 C 0.36631 0.18125 0.04206 0.0
C4144 C 0.36594 0.17066 0.04739 0.0
C4145 C 0.36648 0.1406 0.06411 0.0
C4146 C 0.36599 0.15082 0.05813 0.0
H4147 H 0.38377 0.19778 0.0293 0.0
H4148 H 0.38275 0.17983 0.0368 0.0
H4149 H 0.35723 0.17642 0.06117 0.0
H4150 H 0.35145 0.12552 0.08094 0.0
H4151 H 0.35009 0.14122 0.06963 0.0
C4152 C 0.03068 0.8913 0.21133 0.0
C4153 C 0.02728 0.88056 0.21171 0.0
C4154 C 0.03801 0.89464 0.20363 0.0
C4155 C 0.04829 0.88676 0.17722 0.0
H4156 H 0.07062 0.90753 0.18327 0.0
C4157 C 0.07465 0.90366 0.14386 0.0
C4158 C 0.08565 0.90434 0.14595 0.0
C4159 C 0.06741 0.90175 0.15208 0.0
C4160 C 0.06445 0.90168 0.18147 0.0
H4161 H 0.02929 0.86481 0.20466 0.0
H4162 H 0.04214 0.87059 0.19132 0.0
H4163 H 0.05865 0.90178 0.19747 0.0
H4164 H 0.09766 0.90378 0.15832 0.0
H4165 H 0.08504 0.90037 0.17266 0.0
H4166 H 0.05424 0.88639 0.16132 0.0
C4167 C 0.03896 0.8765 0.19679 0.0
C4168 C 0.05753 0.89847 0.18958 0.0
C4169 C 0.03162 0.87318 0.20445 0.0
C4170 C 0.08922 0.90342 0.15648 0.0
C4171 C 0.08198 0.90147 0.1647 0.0
C4172 C 0.05521 0.88995 0.16913 0.0
C4173 C 0.04211 0.88731 0.19616 0.0
C4174 C 0.04941 0.89091 0.18756 0.0
C4175 C 0.071 0.90043 0.16257 0.0
C4176 C 0.0634 0.89742 0.17115 0.0
H4177 H 0.02739 0.8972 0.21675 0.0
H4178 H 0.04019 0.90304 0.20331 0.0
H4179 H 0.04203 0.88105 0.17534 0.0
H4180 H 0.07166 0.90448 0.13584 0.0
H4181 H 0.05899 0.90122 0.15019 0.0
C4182 C 0.35226 0.80686 0.45865 0.0
C4183 C 0.36165 0.80166 0.46182 0.0
C4184 C 0.35247 0.81766 0.45582 0.0
C4185 C 0.36853 0.84264 0.4571 0.0
H4186 H 0.35419 0.84888 0.43059 0.0
C4187 C 0.37684 0.88089 0.43261 0.0
C4188 C 0.36836 0.88542 0.42689 0.0
C4189 C 0.37541 0.87132 0.43816 0.0
C4190 C 0.35808 0.84736 0.4381 0.0
H4191 H 0.37856 0.80385 0.4649 0.0
H4192 H 0.37892 0.82273 0.45998 0.0
H4193 H 0.35273 0.83109 0.43815 0.0
H4194 H 0.3516 0.88356 0.42284 0.0
H4195 H 0.34903 0.86714 0.43281 0.0
H4196 H 0.37398 0.85894 0.45697 0.0
C4197 C 0.37137 0.81846 0.45976 0.0
C4198 C 0.35725 0.83713 0.44244 0.0
C4199 C 0.37116 0.80764 0.46258 0.0
C4200 C 0.3583 0.88038 0.42722 0.0
C4201 C 0.35686 0.87085 0.43282 0.0
C4202 C 0.36933 0.85292 0.45278 0.0
C4203 C 0.36207 0.82352 0.45611 0.0
C4204 C 0.36252 0.83462 0.45194 0.0
C4205 C 0.36545 0.86608 0.43817 0.0
C4206 C 0.36417 0.85538 0.44318 0.0
H4207 H 0.34476 0.80253 0.45818 0.0
H4208 H 0.34513 0.82139 0.45324 0.0
H4209 H 0.37261 0.84097 0.46449 0.0
H4210 H 0.38465 0.88464 0.43264 0.0
H4211 H 0.38223 0.86784 0.44213 0.0
C4212 C 0.47228 0.11886 0.71815 0.0
C4213 C 0.48227 0.12286 0.71488 0.0
C4214 C 0.46426 0.11668 0.71069 0.0
C4215 C 0.45611 0.12352 0.68332 0.0
H4216 H 0.43824 0.09817 0.68535 0.0
C4217 C 0.42121 0.11693 0.65464 0.0
C4218 C 0.41983 0.10659 0.65039 0.0
C4219 C 0.4281 0.1187 0.66318 0.0
C4220 C 0.44321 0.10525 0.68464 0.0
H4221 H 0.49156 0.12784 0.7012 0.0
H4222 H 0.47777 0.12376 0.68825 0.0
H4223 H 0.4519 0.1016 0.69882 0.0
H4224 H 0.42426 0.08993 0.65194 0.0
H4225 H 0.43653 0.09303 0.66679 0.0
H4226 H 0.44776 0.12703 0.66901 0.0
C4227 C 0.47605 0.12242 0.69657 0.0
C4228 C 0.45095 0.10728 0.69243 0.0
C4229 C 0.48403 0.12462 0.704 0.0
C4230 C 0.42519 0.09798 0.65509 0.0
C4231 C 0.43217 0.09976 0.66361 0.0
C4232 C 0.44843 0.12148 0.67555 0.0
C4233 C 0.46605 0.11848 0.69981 0.0
C4234 C 0.45754 0.11641 0.69181 0.0
C4235 C 0.43384 0.11018 0.66763 0.0
C4236 C 0.44188 0.11232 0.67609 0.0
H4237 H 0.47069 0.11734 0.72646 0.0
H4238 H 0.45661 0.11373 0.71345 0.0
H4239 H 0.46094 0.1307 0.68267 0.0
H4240 H 0.417 0.12369 0.65131 0.0
H4241 H 0.42897 0.12678 0.66624 0.0
C4242 C 0.12976 0.19155 0.97074 0.0
C4243 C 0.13828 0.19887 0.97001 0.0
C4244 C 0.1305 0.18139 0.96606 0.0
C4245 C 0.14483 0.16732 0.94463 0.0
H4246 H 0.13276 0.14177 0.95733 0.0
C4247 C 0.14868 0.12605 0.92442 0.0
C4248 C 0.13941 0.11968 0.9241 0.0
C4249 C 0.14916 0.13518 0.93088 0.0
C4250 C 0.1361 0.14885 0.95365 0.0
H4251 H 0.15447 0.20107 0.9643 0.0
H4252 H 0.15579 0.18335 0.95618 0.0
H4253 H 0.13251 0.15869 0.96718 0.0
H4254 H 0.1235 0.11768 0.93062 0.0
H4255 H 0.12425 0.13374 0.94175 0.0
H4256 H 0.1483 0.15758 0.93105 0.0
C4257 C 0.14845 0.18553 0.96017 0.0
C4258 C 0.13596 0.15854 0.95929 0.0
C4259 C 0.1477 0.19568 0.96483 0.0
C4260 C 0.13072 0.12249 0.93061 0.0
C4261 C 0.13119 0.13163 0.93707 0.0
C4262 C 0.14498 0.15765 0.939 0.0
C4263 C 0.13979 0.17833 0.96056 0.0
C4264 C 0.14028 0.1679 0.95482 0.0
C4265 C 0.14036 0.13816 0.93717 0.0
C4266 C 0.14057 0.14831 0.94341 0.0
H4267 H 0.12236 0.19381 0.97459 0.0
H4268 H 0.12365 0.17608 0.96641 0.0
H4269 H 0.14805 0.17441 0.94086 0.0
H4270 H 0.15548 0.12418 0.91944 0.0
H4271 H 0.15639 0.13997 0.93088 0.0
C4272 C 0.29913 0.03175 0.12875 0.0
C4273 C 0.29551 0.02387 0.12159 0.0
C4274 C 0.30505 0.0405 0.12517 0.0
C4275 C 0.31291 0.05607 0.10149 0.0
H4276 H 0.33825 0.06195 0.11826 0.0
C4277 C 0.34757 0.0844 0.08814 0.0
C4278 C 0.35244 0.09057 0.09617 0.0
C4279 C 0.33973 0.07679 0.09071 0.0
C4280 C 0.33114 0.06053 0.11356 0.0
H4281 H 0.29485 0.01924 0.10498 0.0
H4282 H 0.30522 0.03459 0.09869 0.0
H4283 H 0.326 0.04792 0.12376 0.0
H4284 H 0.35242 0.09423 0.11301 0.0
H4285 H 0.33869 0.08118 0.11747 0.0
H4286 H 0.31817 0.06874 0.09126 0.0
C4287 C 0.30342 0.034 0.10708 0.0
C4288 C 0.32411 0.05248 0.11672 0.0
C4289 C 0.29748 0.02522 0.11068 0.0
C4290 C 0.34895 0.08941 0.1067 0.0
C4291 C 0.34111 0.08191 0.10925 0.0
C4292 C 0.31997 0.0642 0.09833 0.0
C4293 C 0.3075 0.04159 0.11433 0.0
C4294 C 0.31487 0.0502 0.11079 0.0
C4295 C 0.33661 0.0753 0.10135 0.0
C4296 C 0.32911 0.06658 0.1044 0.0
H4297 H 0.29756 0.03104 0.13718 0.0
H4298 H 0.30788 0.04634 0.13092 0.0
H4299 H 0.30584 0.0545 0.09678 0.0
H4300 H 0.35013 0.08517 0.07996 0.0
H4301 H 0.33643 0.07181 0.08445 0.0
C4302 C 0.79916 0.48301 0.89633 0.0
C4303 C 0.79867 0.48487 0.88534 0.0
C4304 C 0.80459 0.4741 0.90027 0.0
C4305 C 0.81582 0.44778 0.89236 0.0
H4306 H 0.83595 0.4531 0.9152 0.0
C4307 C 0.85208 0.42094 0.89963 0.0
C4308 C 0.85529 0.41888 0.91011 0.0
C4309 C 0.84383 0.4281 0.89758 0.0
C4310 C 0.83023 0.45142 0.90895 0.0
H4311 H 0.80306 0.47861 0.86986 0.0
H4312 H 0.81261 0.46318 0.8767 0.0
H4313 H 0.82372 0.46722 0.90985 0.0
H4314 H 0.85223 0.42256 0.92667 0.0
H4315 H 0.83772 0.43511 0.92308 0.0
H4316 H 0.82253 0.43207 0.89127 0.0
C4317 C 0.80878 0.46854 0.88229 0.0
C4318 C 0.82322 0.45951 0.90588 0.0
C4319 C 0.8034 0.47745 0.87837 0.0
C4320 C 0.84991 0.42397 0.91852 0.0
C4321 C 0.84166 0.43121 0.91646 0.0
C4322 C 0.82283 0.4397 0.89543 0.0
C4323 C 0.80957 0.46685 0.89329 0.0
C4324 C 0.8161 0.45786 0.89738 0.0
C4325 C 0.83858 0.4334 0.90595 0.0
C4326 C 0.83028 0.44151 0.90359 0.0
H4327 H 0.79566 0.48862 0.90191 0.0
H4328 H 0.80499 0.47296 0.90878 0.0
H4329 H 0.81029 0.44619 0.88592 0.0
H4330 H 0.85598 0.41702 0.89299 0.0
H4331 H 0.84176 0.4297 0.88939 0.0
C4332 C 0.80935 0.56167 0.1337 0.0
C4333 C 0.80593 0.55363 0.14069 0.0
C4334 C 0.82019 0.56368 0.13218 0.0
C4335 C 0.84618 0.56131 0.14521 0.0
H4336 H 0.85638 0.5699 0.11743 0.0
C4337 C 0.88907 0.57817 0.1368 0.0
C4338 C 0.88885 0.58798 0.13134 0.0
C4339 C 0.87978 0.57194 0.1378 0.0
C4340 C 0.85367 0.56745 0.12523 0.0
H4341 H 0.81121 0.54125 0.15144 0.0
H4342 H 0.83031 0.54476 0.14875 0.0
H4343 H 0.8385 0.56234 0.11924 0.0
H4344 H 0.87848 0.5991 0.1231 0.0
H4345 H 0.86254 0.58816 0.12455 0.0
H4346 H 0.86133 0.56674 0.15118 0.0
C4347 C 0.82453 0.54953 0.1445 0.0
C4348 C 0.84343 0.56317 0.12627 0.0
C4349 C 0.81363 0.54748 0.14598 0.0
C4350 C 0.8791 0.59144 0.12703 0.0
C4351 C 0.86992 0.58518 0.1279 0.0
C4352 C 0.85649 0.56557 0.14414 0.0
C4353 C 0.82792 0.5577 0.13761 0.0
C4354 C 0.83941 0.56042 0.13632 0.0
C4355 C 0.87015 0.57537 0.13324 0.0
C4356 C 0.86016 0.56904 0.13419 0.0
H4357 H 0.80361 0.56647 0.12941 0.0
H4358 H 0.82251 0.57013 0.12694 0.0
H4359 H 0.84331 0.55931 0.15306 0.0
H4360 H 0.89644 0.57525 0.1402 0.0
H4361 H 0.88013 0.5644 0.142 0.0
C4362 C 0.71601 0.53479 0.37477 0.0
C4363 C 0.72279 0.53025 0.38239 0.0
C4364 C 0.70825 0.54219 0.37777 0.0
C4365 C 0.69984 0.5606 0.39935 0.0
H4366 H 0.67207 0.55715 0.38612 0.0
C4367 C 0.66204 0.58404 0.41273 0.0
C4368 C 0.65553 0.58796 0.40455 0.0
C4369 C 0.67055 0.57717 0.41041 0.0
C4370 C 0.67981 0.55829 0.38982 0.0
H4371 H 0.72693 0.53014 0.3991 0.0
H4372 H 0.7133 0.54307 0.40438 0.0
H4373 H 0.68648 0.54505 0.38133 0.0
H4374 H 0.65312 0.58809 0.38749 0.0
H4375 H 0.66785 0.57611 0.38347 0.0
H4376 H 0.69306 0.57385 0.40789 0.0
C4377 C 0.71407 0.54097 0.39606 0.0
C4378 C 0.68808 0.55137 0.38706 0.0
C4379 C 0.72188 0.53357 0.39304 0.0
C4380 C 0.65782 0.58502 0.39401 0.0
C4381 C 0.66628 0.57816 0.3917 0.0
C4382 C 0.69153 0.56753 0.40214 0.0
C4383 C 0.70704 0.54522 0.38848 0.0
C4384 C 0.69823 0.5525 0.3917 0.0
C4385 C 0.67269 0.57408 0.39987 0.0
C4386 C 0.68145 0.56651 0.39731 0.0
H4387 H 0.71665 0.53254 0.36647 0.0
H4388 H 0.70314 0.5455 0.3717 0.0
H4389 H 0.70758 0.56173 0.40302 0.0
H4390 H 0.66044 0.5861 0.42095 0.0
H4391 H 0.67531 0.5741 0.41688 0.0
C4392 C 0.18946 0.97096 0.13874 0.0
C4393 C 0.19868 0.96519 0.13593 0.0
C4394 C 0.17936 0.96615 0.138 0.0
C4395 C 0.16521 0.94388 0.12459 0.0
H4396 H 0.14486 0.94624 0.1477 0.0
C4397 C 0.12985 0.91503 0.12819 0.0
C4398 C 0.11983 0.9192 0.131 0.0
C4399 C 0.139 0.9214 0.12876 0.0
C4400 C 0.1504 0.94563 0.14112 0.0
H4401 H 0.20449 0.94996 0.12996 0.0
H4402 H 0.18697 0.94158 0.12881 0.0
H4403 H 0.16173 0.95617 0.1486 0.0
H4404 H 0.1116 0.93329 0.13683 0.0
H4405 H 0.12768 0.94449 0.13787 0.0
H4406 H 0.15401 0.93328 0.11716 0.0
C4407 C 0.18751 0.94981 0.13153 0.0
C4408 C 0.16005 0.95131 0.14163 0.0
C4409 C 0.19757 0.95458 0.13231 0.0
C4410 C 0.11921 0.92984 0.13466 0.0
C4411 C 0.12841 0.93625 0.13524 0.0
C4412 C 0.1556 0.93823 0.12408 0.0
C4413 C 0.17829 0.95554 0.13434 0.0
C4414 C 0.16765 0.95032 0.13346 0.0
C4415 C 0.13838 0.93212 0.13217 0.0
C4416 C 0.14817 0.93887 0.13242 0.0
H4417 H 0.19008 0.97913 0.14161 0.0
H4418 H 0.17239 0.97078 0.14017 0.0
H4419 H 0.1708 0.94314 0.11806 0.0
H4420 H 0.13064 0.90678 0.12559 0.0
H4421 H 0.14659 0.9179 0.12658 0.0
C4422 C 0.21757 0.97251 0.63214 0.0
C4423 C 0.22441 0.97735 0.62472 0.0
C4424 C 0.21019 0.96473 0.62893 0.0
C4425 C 0.19499 0.95563 0.60565 0.0
H4426 H 0.18935 0.93068 0.623 0.0
C4427 C 0.16373 0.92326 0.59392 0.0
C4428 C 0.15717 0.91947 0.60216 0.0
C4429 C 0.17257 0.92978 0.59616 0.0
C4430 C 0.19076 0.93765 0.61811 0.0
H4431 H 0.22895 0.97774 0.60811 0.0
H4432 H 0.21605 0.96407 0.60248 0.0
H4433 H 0.20379 0.94291 0.62785 0.0
H4434 H 0.1549 0.91941 0.61924 0.0
H4435 H 0.1701 0.93097 0.62312 0.0
H4436 H 0.18182 0.9505 0.59603 0.0
C4437 C 0.21639 0.96635 0.61079 0.0
C4438 C 0.19905 0.94464 0.62088 0.0
C4439 C 0.22384 0.9741 0.61403 0.0
C4440 C 0.15969 0.92231 0.61269 0.0
C4441 C 0.1685 0.92881 0.61493 0.0
C4442 C 0.18666 0.94865 0.60289 0.0
C4443 C 0.20943 0.96164 0.6182 0.0
C4444 C 0.20116 0.95379 0.61478 0.0
C4445 C 0.17506 0.93262 0.6067 0.0
C4446 C 0.18436 0.93966 0.60918 0.0
H4447 H 0.21788 0.97478 0.64045 0.0
H4448 H 0.20487 0.96134 0.63481 0.0
H4449 H 0.19634 0.96268 0.60085 0.0
H4450 H 0.16196 0.92127 0.58572 0.0
H4451 H 0.17751 0.93252 0.58965 0.0
C4452 C 0.81294 0.45449 0.35583 0.0
C4453 C 0.80695 0.45875 0.36429 0.0
C4454 C 0.82385 0.45256 0.357 0.0
C4455 C 0.84345 0.44663 0.37768 0.0
H4456 H 0.86389 0.45004 0.3548 0.0
C4457 C 0.88672 0.43218 0.38215 0.0
C4458 C 0.89065 0.42612 0.37357 0.0
C4459 C 0.87743 0.43823 0.38106 0.0
C4460 C 0.85827 0.44902 0.36125 0.0
H4461 H 0.80782 0.46466 0.3805 0.0
H4462 H 0.82692 0.46143 0.38249 0.0
H4463 H 0.84581 0.45698 0.3528 0.0
H4464 H 0.8881 0.42192 0.35703 0.0
H4465 H 0.87189 0.4324 0.35514 0.0
H4466 H 0.85575 0.43838 0.38602 0.0
C4467 C 0.82313 0.45947 0.37499 0.0
C4468 C 0.84792 0.45299 0.36011 0.0
C4469 C 0.81221 0.46142 0.37381 0.0
C4470 C 0.88536 0.42661 0.36375 0.0
C4471 C 0.87605 0.43263 0.36267 0.0
C4472 C 0.85379 0.44264 0.37882 0.0
C4473 C 0.82903 0.45484 0.36666 0.0
C4474 C 0.84034 0.45167 0.36824 0.0
C4475 C 0.87184 0.43833 0.37138 0.0
C4476 C 0.86127 0.44362 0.37055 0.0
H4477 H 0.80914 0.45247 0.34835 0.0
H4478 H 0.82813 0.4489 0.35045 0.0
H4479 H 0.83777 0.44533 0.38404 0.0
H4480 H 0.89072 0.43208 0.38977 0.0
H4481 H 0.8745 0.44268 0.38787 0.0
C4482 C 0.69594 0.54211 0.86288 0.0
C4483 C 0.69997 0.5364 0.87159 0.0
C4484 C 0.68555 0.54616 0.86307 0.0
C4485 C 0.66511 0.55502 0.88191 0.0
H4486 H 0.6464 0.55468 0.85738 0.0
C4487 C 0.62331 0.57347 0.88425 0.0
C4488 C 0.62017 0.57982 0.87564 0.0
C4489 C 0.63223 0.56684 0.88343 0.0
C4490 C 0.65156 0.55491 0.86428 0.0
H4491 H 0.69602 0.53001 0.88709 0.0
H4492 H 0.67795 0.53718 0.88745 0.0
H4493 H 0.66361 0.54555 0.85651 0.0
H4494 H 0.62366 0.58397 0.85932 0.0
H4495 H 0.63937 0.57254 0.85793 0.0
H4496 H 0.65331 0.56461 0.88961 0.0
C4497 C 0.68289 0.53865 0.88055 0.0
C4498 C 0.6614 0.54966 0.86377 0.0
C4499 C 0.69325 0.53456 0.88035 0.0
C4500 C 0.62586 0.57909 0.86606 0.0
C4501 C 0.63485 0.57252 0.86526 0.0
C4502 C 0.65533 0.5603 0.8824 0.0
C4503 C 0.67898 0.54462 0.87198 0.0
C4504 C 0.6683 0.54971 0.87258 0.0
C4505 C 0.63827 0.56649 0.87402 0.0
C4506 C 0.64844 0.56037 0.87357 0.0
H4507 H 0.70094 0.54379 0.85606 0.0
H4508 H 0.68281 0.55084 0.85639 0.0
H4509 H 0.67032 0.55537 0.88877 0.0
H4510 H 0.61896 0.57377 0.89168 0.0
H4511 H 0.63447 0.56212 0.89025 0.0
C4512 C 0.89595 0.71314 0.94309 0.0
C4513 C 0.89278 0.70606 0.95116 0.0
C4514 C 0.89437 0.71042 0.93239 0.0
C4515 C 0.8786 0.69221 0.91508 0.0
H4516 H 0.90212 0.69506 0.89523 0.0
C4517 C 0.88137 0.66645 0.87765 0.0
C4518 C 0.88417 0.67134 0.86801 0.0
C4519 C 0.88207 0.6721 0.8872 0.0
C4520 C 0.89543 0.69437 0.90064 0.0
H4521 H 0.88515 0.69079 0.95436 0.0
H4522 H 0.88253 0.68601 0.93582 0.0
H4523 H 0.90373 0.70264 0.91315 0.0
H4524 H 0.8902 0.68596 0.86091 0.0
H4525 H 0.89163 0.69581 0.87777 0.0
H4526 H 0.87043 0.68367 0.90274 0.0
C4527 C 0.88618 0.69367 0.93769 0.0
C4528 C 0.89634 0.69872 0.91089 0.0
C4529 C 0.88781 0.69635 0.94833 0.0
C4530 C 0.88802 0.68195 0.86821 0.0
C4531 C 0.88881 0.6876 0.87783 0.0
C4532 C 0.87771 0.68786 0.90489 0.0
C4533 C 0.88948 0.70064 0.92959 0.0
C4534 C 0.88804 0.69741 0.9183 0.0
C4535 C 0.8857 0.68276 0.8874 0.0
C4536 C 0.88622 0.68862 0.89767 0.0
H4537 H 0.89984 0.72066 0.94505 0.0
H4538 H 0.89694 0.71597 0.92632 0.0
H4539 H 0.87197 0.69129 0.92053 0.0
H4540 H 0.87867 0.6582 0.87785 0.0
H4541 H 0.87987 0.66806 0.89448 0.0
C4542 C 0.05636 0.12425 0.73079 0.0
C4543 C 0.05157 0.13138 0.73801 0.0
C4544 C 0.06181 0.12808 0.72191 0.0
C4545 C 0.07625 0.15184 0.71254 0.0
H4546 H 0.07579 0.13662 0.68561 0.0
C4547 C 0.10308 0.16425 0.6771 0.0
C4548 C 0.10853 0.15574 0.67219 0.0
C4549 C 0.09481 0.16222 0.6843 0.0
C4550 C 0.07603 0.14094 0.69309 0.0
H4551 H 0.04851 0.14814 0.74142 0.0
H4552 H 0.05795 0.15484 0.7258 0.0
H4553 H 0.06352 0.13134 0.69969 0.0
H4554 H 0.10927 0.13844 0.67062 0.0
H4555 H 0.09501 0.1349 0.68324 0.0
H4556 H 0.08896 0.16127 0.70603 0.0
C4557 C 0.05756 0.14628 0.72708 0.0
C4558 C 0.069 0.13791 0.70115 0.0
C4559 C 0.05206 0.14243 0.73597 0.0
C4560 C 0.10534 0.14518 0.6744 0.0
C4561 C 0.09706 0.14315 0.68153 0.0
C4562 C 0.0833 0.15487 0.70446 0.0
C4563 C 0.06261 0.13915 0.72003 0.0
C4564 C 0.06919 0.14317 0.71106 0.0
C4565 C 0.09176 0.15163 0.68665 0.0
C4566 C 0.08343 0.14929 0.69473 0.0
H4567 H 0.05602 0.11568 0.73209 0.0
H4568 H 0.0657 0.12237 0.7167 0.0
H4569 H 0.07669 0.15598 0.72011 0.0
H4570 H 0.10538 0.17247 0.67554 0.0
H4571 H 0.09081 0.16892 0.68806 0.0
C4572 C 0.61229 0.28202 0.43811 0.0
C4573 C 0.61416 0.28815 0.44734 0.0
C4574 C 0.61322 0.28666 0.42805 0.0
C4575 C 0.62603 0.30951 0.41456 0.0
H4576 H 0.60449 0.30527 0.39279 0.0
C4577 C 0.62304 0.3377 0.37926 0.0
C4578 C 0.6216 0.33325 0.36908 0.0
C4579 C 0.62201 0.33138 0.38828 0.0
C4580 C 0.61064 0.30641 0.39875 0.0
H4581 H 0.61861 0.30393 0.45321 0.0
H4582 H 0.62006 0.31202 0.43578 0.0
H4583 H 0.60308 0.29556 0.40959 0.0
H4584 H 0.61755 0.31874 0.36041 0.0
H4585 H 0.6157 0.30761 0.37631 0.0
H4586 H 0.63352 0.32043 0.40387 0.0
C4587 C 0.61794 0.30361 0.43627 0.0
C4588 C 0.60984 0.30085 0.40835 0.0
C4589 C 0.61697 0.299 0.44628 0.0
C4590 C 0.61869 0.32239 0.36815 0.0
C4591 C 0.61764 0.31603 0.37724 0.0
C4592 C 0.62682 0.31504 0.40501 0.0
C4593 C 0.61614 0.2975 0.42704 0.0
C4594 C 0.61741 0.30253 0.41645 0.0
C4595 C 0.61949 0.32043 0.38739 0.0
C4596 C 0.61902 0.31374 0.39709 0.0
H4597 H 0.61005 0.27365 0.43868 0.0
H4598 H 0.61182 0.28174 0.42107 0.0
H4599 H 0.63213 0.31078 0.42054 0.0
H4600 H 0.625 0.34611 0.38026 0.0
H4601 H 0.62321 0.33508 0.396 0.0
C4602 C 0.44975 0.88076 0.23203 0.0
C4603 C 0.45438 0.87355 0.2392 0.0
C4604 C 0.44393 0.877 0.2233 0.0
C4605 C 0.42822 0.85372 0.21452 0.0
H4606 H 0.42905 0.868 0.18727 0.0
C4607 C 0.39435 0.85038 0.18364 0.0
C4608 C 0.39706 0.85015 0.17281 0.0
C4609 C 0.40222 0.85185 0.19138 0.0
C4610 C 0.42881 0.86382 0.19478 0.0
H4611 H 0.4567 0.85674 0.2427 0.0
H4612 H 0.44661 0.85016 0.22737 0.0
H4613 H 0.44163 0.87327 0.20114 0.0
H4614 H 0.4102 0.85101 0.16162 0.0
H4615 H 0.42397 0.85343 0.17515 0.0
H4616 H 0.41534 0.84432 0.20818 0.0
C4617 C 0.44743 0.85873 0.22856 0.0
C4618 C 0.43594 0.86692 0.20276 0.0
C4619 C 0.45331 0.86249 0.23727 0.0
C4620 C 0.40786 0.85106 0.16991 0.0
C4621 C 0.41573 0.85257 0.17765 0.0
C4622 C 0.42106 0.85063 0.20654 0.0
C4623 C 0.44256 0.86594 0.22156 0.0
C4624 C 0.43562 0.86202 0.21277 0.0
C4625 C 0.41298 0.85316 0.18846 0.0
C4626 C 0.42117 0.85575 0.19663 0.0
H4627 H 0.45053 0.88933 0.23324 0.0
H4628 H 0.4402 0.88278 0.21812 0.0
H4629 H 0.4277 0.84983 0.22217 0.0
H4630 H 0.3861 0.84961 0.18613 0.0
H4631 H 0.39981 0.85236 0.19963 0.0
C4632 C 0.88494 0.31083 0.55826 0.0
C4633 C 0.89181 0.30264 0.55488 0.0
C4634 C 0.88346 0.31292 0.56904 0.0
C4635 C 0.8965 0.31049 0.59489 0.0
H4636 H 0.8687 0.31961 0.60496 0.0
C4637 C 0.88778 0.32761 0.63755 0.0
C4638 C 0.88239 0.33748 0.63725 0.0
C4639 C 0.88895 0.32141 0.62829 0.0
C4640 C 0.8765 0.31702 0.60228 0.0
H4641 H 0.90239 0.29005 0.56015 0.0
H4642 H 0.89978 0.29372 0.57915 0.0
H4643 H 0.87042 0.31186 0.58724 0.0
H4644 H 0.87455 0.34879 0.6268 0.0
H4645 H 0.87629 0.3379 0.61091 0.0
H4646 H 0.90257 0.31596 0.60994 0.0
C4647 C 0.89558 0.29855 0.5734 0.0
C4648 C 0.87749 0.31261 0.59213 0.0
C4649 C 0.89702 0.2964 0.56255 0.0
C4650 C 0.87842 0.34108 0.62745 0.0
C4651 C 0.87945 0.33486 0.61831 0.0
C4652 C 0.89548 0.31486 0.60512 0.0
C4653 C 0.88881 0.30687 0.57675 0.0
C4654 C 0.88756 0.30968 0.58816 0.0
C4655 C 0.88463 0.32493 0.61863 0.0
C4656 C 0.88553 0.31852 0.60873 0.0
H4657 H 0.88071 0.31569 0.55255 0.0
H4658 H 0.87831 0.31949 0.57133 0.0
H4659 H 0.90437 0.30833 0.59205 0.0
H4660 H 0.89093 0.3246 0.64495 0.0
H4661 H 0.89302 0.31379 0.62871 0.0
C4662 C 0.46341 0.14918 0.27628 0.0
C4663 C 0.46458 0.1385 0.27288 0.0
C4664 C 0.45576 0.15186 0.28394 0.0
C4665 C 0.4393 0.14036 0.30536 0.0
H4666 H 0.42046 0.16429 0.29999 0.0
C4667 C 0.4007 0.14648 0.32929 0.0
C4668 C 0.39775 0.15698 0.33211 0.0
C4669 C 0.40916 0.14465 0.32231 0.0
C4670 C 0.42575 0.15768 0.3017 0.0
H4671 H 0.45892 0.12223 0.27506 0.0
H4672 H 0.4456 0.12689 0.28842 0.0
H4673 H 0.43498 0.16041 0.28763 0.0
H4674 H 0.40137 0.17379 0.32965 0.0
H4675 H 0.41633 0.17058 0.31765 0.0
H4676 H 0.43014 0.13761 0.31941 0.0
C4677 C 0.45057 0.13319 0.28517 0.0
C4678 C 0.43406 0.15546 0.29461 0.0
C4679 C 0.45814 0.13054 0.27746 0.0
C4680 C 0.40348 0.1656 0.32772 0.0
C4681 C 0.41199 0.16376 0.32075 0.0
C4682 C 0.43105 0.14261 0.31247 0.0
C4683 C 0.44923 0.14389 0.28843 0.0
C4684 C 0.44084 0.14669 0.2963 0.0
C4685 C 0.41497 0.15325 0.318 0.0
C4686 C 0.42407 0.15121 0.31067 0.0
H4687 H 0.46822 0.15549 0.27283 0.0
H4688 H 0.45495 0.16016 0.28635 0.0
H4689 H 0.44451 0.13365 0.30696 0.0
H4690 H 0.39658 0.13964 0.33263 0.0
H4691 H 0.41112 0.13645 0.32024 0.0
C4692 C 0.6244 0.71168 0.06426 0.0
C4693 C 0.6147 0.70952 0.05903 0.0
C4694 C 0.62549 0.70962 0.07511 0.0
C4695 C 0.61031 0.70366 0.09978 0.0
H4696 H 0.63574 0.68782 0.10729 0.0
C4697 C 0.61332 0.67719 0.13709 0.0
C4698 C 0.62326 0.67628 0.14218 0.0
C4699 C 0.61232 0.68321 0.12783 0.0
C4700 C 0.62868 0.69242 0.10541 0.0
H4701 H 0.59838 0.70411 0.06122 0.0
H4702 H 0.60033 0.70035 0.08008 0.0
H4703 H 0.63394 0.69495 0.08947 0.0
H4704 H 0.63977 0.68154 0.14195 0.0
H4705 H 0.63801 0.69215 0.12583 0.0
H4706 H 0.60496 0.70088 0.11569 0.0
C4707 C 0.60708 0.70368 0.07583 0.0
C4708 C 0.62765 0.69651 0.09517 0.0
C4709 C 0.606 0.70571 0.06499 0.0
C4710 C 0.63205 0.68195 0.1381 0.0
C4711 C 0.63104 0.68801 0.12886 0.0
C4712 C 0.61135 0.69957 0.11004 0.0
C4713 C 0.61691 0.70539 0.08097 0.0
C4714 C 0.61838 0.70203 0.09218 0.0
C4715 C 0.62123 0.68849 0.12346 0.0
C4716 C 0.62048 0.69376 0.11293 0.0
H4717 H 0.63128 0.71455 0.0599 0.0
H4718 H 0.63313 0.71115 0.07887 0.0
H4719 H 0.60314 0.708 0.09776 0.0
H4720 H 0.60643 0.67282 0.13999 0.0
H4721 H 0.60468 0.6833 0.12382 0.0
C4722 C 0.05517 0.86116 0.76734 0.0
C4723 C 0.05386 0.87226 0.76612 0.0
C4724 C 0.06096 0.85712 0.77592 0.0
C4725 C 0.07148 0.86421 0.80251 0.0
H4726 H 0.09292 0.84276 0.79623 0.0
C4727 C 0.09873 0.84724 0.83516 0.0
C4728 C 0.10967 0.84702 0.83266 0.0
C4729 C 0.09113 0.84894 0.82723 0.0
C4730 C 0.08696 0.84874 0.79811 0.0
H4731 H 0.05722 0.88781 0.77315 0.0
H4732 H 0.06738 0.88078 0.78806 0.0
H4733 H 0.08086 0.84865 0.78223 0.0
H4734 H 0.12117 0.84792 0.81983 0.0
H4735 H 0.10791 0.85097 0.80599 0.0
H4736 H 0.0778 0.86456 0.81829 0.0
C4737 C 0.06391 0.87518 0.78242 0.0
C4738 C 0.07998 0.85204 0.79012 0.0
C4739 C 0.05818 0.87922 0.77383 0.0
C4740 C 0.11281 0.84813 0.822 0.0
C4741 C 0.1052 0.84978 0.81407 0.0
C4742 C 0.07842 0.86087 0.81051 0.0
C4743 C 0.06549 0.8641 0.78349 0.0
C4744 C 0.07227 0.85993 0.79219 0.0
C4745 C 0.09429 0.8504 0.81663 0.0
C4746 C 0.08635 0.85322 0.80836 0.0
H4747 H 0.05201 0.8556 0.76149 0.0
H4748 H 0.06196 0.84854 0.77658 0.0
H4749 H 0.06556 0.87023 0.80438 0.0
H4750 H 0.09607 0.84652 0.84331 0.0
H4751 H 0.08278 0.84927 0.82943 0.0
C4752 C 0.94828 0.88275 0.71453 0.0
C4753 C 0.95488 0.89187 0.71425 0.0
C4754 C 0.9381 0.88293 0.70999 0.0
C4755 C 0.92268 0.89725 0.68966 0.0
H4756 H 0.89856 0.88226 0.70202 0.0
C4757 C 0.88091 0.89813 0.67044 0.0
C4758 C 0.87549 0.88826 0.66977 0.0
C4759 C 0.89011 0.89918 0.67665 0.0
C4760 C 0.90524 0.88643 0.69844 0.0
H4761 H 0.95579 0.9085 0.70943 0.0
H4762 H 0.93802 0.90884 0.70155 0.0
H4763 H 0.91549 0.88305 0.7116 0.0
H4764 H 0.87526 0.87187 0.67537 0.0
H4765 H 0.8914 0.87365 0.68606 0.0
H4766 H 0.91251 0.90051 0.67644 0.0
C4767 C 0.94078 0.90148 0.70509 0.0
C4768 C 0.91494 0.88687 0.70392 0.0
C4769 C 0.95096 0.90128 0.70962 0.0
C4770 C 0.87933 0.87954 0.67563 0.0
C4771 C 0.88851 0.8806 0.68185 0.0
C4772 C 0.913 0.89681 0.68418 0.0
C4773 C 0.93429 0.89226 0.70508 0.0
C4774 C 0.9238 0.89222 0.69955 0.0
C4775 C 0.89407 0.8904 0.68235 0.0
C4776 C 0.90418 0.89132 0.68846 0.0
H4777 H 0.95111 0.87534 0.71793 0.0
H4778 H 0.93336 0.87565 0.71 0.0
H4779 H 0.9294 0.90127 0.68597 0.0
H4780 H 0.8782 0.90498 0.66596 0.0
H4781 H 0.89414 0.90687 0.67696 0.0
C4782 C 0.88123 0.22394 0.46424 0.0
C4783 C 0.87399 0.22883 0.47126 0.0
C4784 C 0.87763 0.21684 0.45641 0.0
C4785 C 0.85473 0.19978 0.44837 0.0
H4786 H 0.86775 0.2021 0.42053 0.0
C4787 C 0.84868 0.1681 0.41519 0.0
C4788 C 0.84816 0.17163 0.40462 0.0
C4789 C 0.85092 0.17531 0.42344 0.0
C4790 C 0.86393 0.20141 0.42821 0.0
H4791 H 0.8573 0.22996 0.47568 0.0
H4792 H 0.85099 0.21755 0.46196 0.0
H4793 H 0.87349 0.21405 0.43476 0.0
H4794 H 0.84912 0.18557 0.39448 0.0
H4795 H 0.85294 0.19818 0.40889 0.0
H4796 H 0.84504 0.18724 0.44174 0.0
C4797 C 0.85947 0.21913 0.46259 0.0
C4798 C 0.86734 0.20817 0.43643 0.0
C4799 C 0.86309 0.22622 0.47046 0.0
C4800 C 0.84961 0.18259 0.40253 0.0
C4801 C 0.85182 0.1898 0.41078 0.0
C4802 C 0.85131 0.19301 0.44014 0.0
C4803 C 0.86669 0.21447 0.45538 0.0
C4804 C 0.86285 0.20738 0.44663 0.0
C4805 C 0.85268 0.18622 0.42131 0.0
C4806 C 0.85591 0.19371 0.42998 0.0
H4807 H 0.8897 0.22565 0.46477 0.0
H4808 H 0.88343 0.21321 0.45114 0.0
H4809 H 0.85115 0.19892 0.45615 0.0
H4810 H 0.84775 0.15969 0.41705 0.0
H4811 H 0.85166 0.17224 0.43143 0.0
C4812 C 0.55592 0.10605 0.19953 0.0
C4813 C 0.55074 0.11563 0.20236 0.0
C4814 C 0.56678 0.10605 0.19703 0.0
C4815 C 0.59183 0.12186 0.19862 0.0
H4816 H 0.5985 0.10708 0.17229 0.0
C4817 C 0.63022 0.13002 0.17443 0.0
C4818 C 0.63479 0.12154 0.16862 0.0
C4819 C 0.62068 0.12854 0.18 0.0
C4820 C 0.59687 0.11108 0.17977 0.0
H4821 H 0.55304 0.13263 0.20521 0.0
H4822 H 0.57204 0.13262 0.20087 0.0
H4823 H 0.58061 0.10582 0.17962 0.0
H4824 H 0.63305 0.10472 0.16448 0.0
H4825 H 0.61666 0.10205 0.17449 0.0
H4826 H 0.6081 0.12722 0.19868 0.0
C4827 C 0.56769 0.1251 0.20066 0.0
C4828 C 0.58658 0.11037 0.18396 0.0
C4829 C 0.55681 0.12511 0.20315 0.0
C4830 C 0.62983 0.11142 0.16892 0.0
C4831 C 0.62033 0.10992 0.17455 0.0
C4832 C 0.60217 0.12253 0.19445 0.0
C4833 C 0.57273 0.11562 0.19732 0.0
C4834 C 0.5839 0.11583 0.19338 0.0
C4835 C 0.6155 0.11852 0.17995 0.0
C4836 C 0.60478 0.11724 0.1849 0.0
H4837 H 0.55151 0.09858 0.19906 0.0
H4838 H 0.57048 0.09858 0.19468 0.0
H4839 H 0.59003 0.12608 0.20595 0.0
H4840 H 0.63392 0.13788 0.17451 0.0
H4841 H 0.61717 0.13537 0.184 0.0
C4842 C 0.6465 0.78176 0.97277 0.0
C4843 C 0.63566 0.77891 0.97353 0.0
C4844 C 0.64996 0.78896 0.96502 0.0
C4845 C 0.64183 0.80005 0.93909 0.0
H4846 H 0.66389 0.82118 0.94481 0.0
C4847 C 0.6591 0.82612 0.90568 0.0
C4848 C 0.66058 0.83705 0.908 0.0
C4849 C 0.65697 0.81883 0.91379 0.0
C4850 C 0.65768 0.81536 0.9431 0.0
H4851 H 0.61989 0.78173 0.96705 0.0
H4852 H 0.62589 0.79438 0.95364 0.0
H4853 H 0.65797 0.80928 0.95896 0.0
H4854 H 0.66117 0.84888 0.92066 0.0
H4855 H 0.65736 0.83619 0.93482 0.0
H4856 H 0.64127 0.80631 0.92335 0.0
C4857 C 0.63177 0.79086 0.95885 0.0
C4858 C 0.65437 0.80846 0.95118 0.0
C4859 C 0.62832 0.78364 0.96656 0.0
C4860 C 0.6602 0.84048 0.91864 0.0
C4861 C 0.65802 0.8332 0.92675 0.0
C4862 C 0.64512 0.80695 0.93103 0.0
C4863 C 0.64265 0.7935 0.95788 0.0
C4864 C 0.64635 0.80076 0.94929 0.0
C4865 C 0.65622 0.82231 0.92441 0.0
C4866 C 0.65306 0.81472 0.93293 0.0
H4867 H 0.65235 0.77817 0.97796 0.0
H4868 H 0.65841 0.79073 0.96442 0.0
H4869 H 0.63575 0.7941 0.93729 0.0
H4870 H 0.65949 0.82322 0.89756 0.0
H4871 H 0.65584 0.81047 0.91172 0.0
C4872 C 0.94553 0.11199 0.789 0.0
C4873 C 0.95466 0.11508 0.79479 0.0
C4874 C 0.93539 0.11255 0.79365 0.0
C4875 C 0.92087 0.12603 0.81544 0.0
H4876 H 0.90084 0.10234 0.81312 0.0
C4877 C 0.88545 0.12211 0.84376 0.0
C4878 C 0.87546 0.11917 0.83956 0.0
C4879 C 0.89463 0.12156 0.83754 0.0
C4880 C 0.9063 0.10908 0.81372 0.0
H4881 H 0.96025 0.12137 0.80989 0.0
H4882 H 0.94266 0.12221 0.818 0.0
H4883 H 0.9178 0.10163 0.80346 0.0
H4884 H 0.86733 0.11306 0.82557 0.0
H4885 H 0.88349 0.11204 0.81463 0.0
H4886 H 0.90951 0.13342 0.82577 0.0
C4887 C 0.9433 0.11941 0.80987 0.0
C4888 C 0.91599 0.10867 0.80819 0.0
C4889 C 0.95341 0.1188 0.80526 0.0
C4890 C 0.87492 0.11535 0.82904 0.0
C4891 C 0.88416 0.11477 0.82279 0.0
C4892 C 0.91122 0.12642 0.82094 0.0
C4893 C 0.93417 0.11632 0.80413 0.0
C4894 C 0.92347 0.11706 0.80917 0.0
C4895 C 0.89409 0.11802 0.82694 0.0
C4896 C 0.90391 0.11787 0.82033 0.0
H4897 H 0.94625 0.10903 0.78093 0.0
H4898 H 0.92849 0.11017 0.78901 0.0
H4899 H 0.92636 0.13272 0.81617 0.0
H4900 H 0.88619 0.12483 0.85192 0.0
H4901 H 0.9022 0.12386 0.84106 0.0
C4902 C 0.63615 0.23976 0.5601 0.0
C4903 C 0.63415 0.23779 0.54928 0.0
C4904 C 0.64055 0.23185 0.56649 0.0
C4905 C 0.65541 0.20634 0.56607 0.0
H4906 H 0.6428 0.20314 0.59401 0.0
C4907 C 0.66352 0.17036 0.59407 0.0
C4908 C 0.66403 0.17257 0.60502 0.0
C4909 C 0.66095 0.17847 0.58689 0.0
C4910 C 0.64653 0.20402 0.5863 0.0
H4911 H 0.63546 0.22604 0.53661 0.0
H4912 H 0.64312 0.21208 0.54786 0.0
H4913 H 0.6361 0.2168 0.58214 0.0
H4914 H 0.663 0.18509 0.61696 0.0
H4915 H 0.65863 0.19924 0.60445 0.0
H4916 H 0.66579 0.19342 0.57029 0.0
C4917 C 0.64134 0.21982 0.55135 0.0
C4918 C 0.64267 0.21185 0.57948 0.0
C4919 C 0.63694 0.22779 0.54492 0.0
C4920 C 0.66248 0.18313 0.60858 0.0
C4921 C 0.65994 0.19121 0.60142 0.0
C4922 C 0.65928 0.19846 0.57293 0.0
C4923 C 0.64305 0.22173 0.56224 0.0
C4924 C 0.64711 0.21317 0.56931 0.0
C4925 C 0.65887 0.18892 0.59053 0.0
C4926 C 0.65492 0.19727 0.58315 0.0
H4927 H 0.63434 0.24748 0.56364 0.0
H4928 H 0.642 0.23367 0.57478 0.0
H4929 H 0.65905 0.20721 0.55832 0.0
H4930 H 0.66459 0.16228 0.5911 0.0
H4931 H 0.66012 0.17643 0.57855 0.0
C4932 C 0.55335 0.88667 0.30681 0.0
C4933 C 0.55225 0.8898 0.29617 0.0
C4934 C 0.56333 0.88673 0.3117 0.0
C4935 C 0.59227 0.8864 0.30639 0.0
H4936 H 0.59383 0.89626 0.33562 0.0
C4937 C 0.63204 0.88983 0.33008 0.0
C4938 C 0.63171 0.88571 0.34044 0.0
C4939 C 0.62264 0.89096 0.32419 0.0
C4940 C 0.59352 0.89342 0.32748 0.0
H4941 H 0.56082 0.89533 0.28226 0.0
H4942 H 0.57835 0.89546 0.29085 0.0
H4943 H 0.57692 0.89707 0.32614 0.0
H4944 H 0.62126 0.87975 0.35283 0.0
H4945 H 0.60492 0.88163 0.34256 0.0
H4946 H 0.60892 0.8827 0.30781 0.0
C4947 C 0.57145 0.89288 0.29537 0.0
C4948 C 0.58383 0.89387 0.32205 0.0
C4949 C 0.56142 0.89281 0.29046 0.0
C4950 C 0.6218 0.88283 0.34482 0.0
C4951 C 0.61242 0.88402 0.33898 0.0
C4952 C 0.60201 0.88598 0.31183 0.0
C4953 C 0.57249 0.88994 0.30609 0.0
C4954 C 0.58303 0.89018 0.31151 0.0
C4955 C 0.61272 0.8881 0.32861 0.0
C4956 C 0.60267 0.88931 0.3225 0.0
H4957 H 0.54648 0.88407 0.31136 0.0
H4958 H 0.56388 0.88415 0.31988 0.0
H4959 H 0.59191 0.88343 0.2983 0.0
H4960 H 0.63959 0.89207 0.32649 0.0
H4961 H 0.62311 0.89418 0.31624 0.0
C4962 C 0.88077 0.78817 0.03904 0.0
C4963 C 0.8736 0.78269 0.03234 0.0
C4964 C 0.87703 0.79534 0.04673 0.0
C4965 C 0.85356 0.81133 0.05499 0.0
H4966 H 0.86712 0.80997 0.08262 0.0
C4967 C 0.84616 0.8425 0.08848 0.0
C4968 C 0.84605 0.83883 0.09901 0.0
C4969 C 0.84869 0.83554 0.08011 0.0
C4970 C 0.86316 0.81038 0.07499 0.0
H4971 H 0.85689 0.78062 0.0283 0.0
H4972 H 0.85035 0.79313 0.04177 0.0
H4973 H 0.87323 0.7983 0.06837 0.0
H4974 H 0.84792 0.82486 0.10897 0.0
H4975 H 0.8522 0.81268 0.09437 0.0
H4976 H 0.84334 0.82331 0.06172 0.0
C4977 C 0.85887 0.79197 0.041 0.0
C4978 C 0.86677 0.80379 0.06677 0.0
C4979 C 0.86262 0.78481 0.03327 0.0
C4980 C 0.84812 0.82796 0.10095 0.0
C4981 C 0.8506 0.821 0.09259 0.0
C4982 C 0.84993 0.81794 0.06324 0.0
C4983 C 0.86603 0.79718 0.04793 0.0
C4984 C 0.86206 0.80421 0.05665 0.0
C4985 C 0.85112 0.82475 0.08209 0.0
C4986 C 0.8547 0.81755 0.07334 0.0
H4987 H 0.88928 0.78685 0.0384 0.0
H4988 H 0.88278 0.7994 0.05178 0.0
H4989 H 0.8498 0.81189 0.04727 0.0
H4990 H 0.84472 0.85086 0.08675 0.0
H4991 H 0.84913 0.83872 0.07214 0.0
C4992 C 0.71991 0.94509 0.88677 0.0
C4993 C 0.71935 0.95183 0.89573 0.0
C4994 C 0.71575 0.93468 0.88711 0.0
C4995 C 0.69605 0.91844 0.90176 0.0
H4996 H 0.7093 0.89468 0.88685 0.0
C4997 C 0.67825 0.87589 0.90328 0.0
C4998 C 0.67735 0.87052 0.89348 0.0
C4999 C 0.6844 0.88521 0.9042 0.0
C5000 C 0.70548 0.90126 0.89101 0.0
H5001 H 0.71443 0.95278 0.91221 0.0
H5002 H 0.70725 0.9346 0.91284 0.0
H5003 H 0.71822 0.91212 0.88732 0.0
H5004 H 0.6826 0.87045 0.87707 0.0
H5005 H 0.69325 0.8868 0.87863 0.0
H5006 H 0.68327 0.90764 0.90534 0.0
C5007 C 0.7107 0.93743 0.90548 0.0
C5008 C 0.71058 0.91125 0.89127 0.0
C5009 C 0.71482 0.94784 0.90512 0.0
C5010 C 0.68305 0.87447 0.8847 0.0
C5011 C 0.68923 0.88378 0.88563 0.0
C5012 C 0.69098 0.90846 0.90152 0.0
C5013 C 0.71097 0.93077 0.89643 0.0
C5014 C 0.70588 0.91998 0.89657 0.0
C5015 C 0.68983 0.88936 0.89534 0.0
C5016 C 0.69559 0.89977 0.89607 0.0
H5017 H 0.72324 0.94797 0.87937 0.0
H5018 H 0.71597 0.92983 0.87995 0.0
H5019 H 0.6921 0.92503 0.90575 0.0
H5020 H 0.67389 0.8731 0.91017 0.0
H5021 H 0.6848 0.88926 0.91182 0.0
C5022 C 0.20848 0.55711 0.1014 0.0
C5023 C 0.21122 0.55204 0.11094 0.0
C5024 C 0.20649 0.5681 0.10119 0.0
C5025 C 0.20936 0.59351 0.1164 0.0
H5026 H 0.18318 0.60096 0.10185 0.0
C5027 C 0.18587 0.63246 0.12464 0.0
C5028 C 0.17994 0.637 0.11634 0.0
C5029 C 0.19153 0.62296 0.12304 0.0
C5030 C 0.19063 0.59911 0.10577 0.0
H5031 H 0.21443 0.55462 0.12769 0.0
H5032 H 0.21092 0.57384 0.12734 0.0
H5033 H 0.18978 0.58274 0.10079 0.0
H5034 H 0.17585 0.63541 0.09965 0.0
H5035 H 0.18604 0.61912 0.09677 0.0
H5036 H 0.21007 0.6099 0.12154 0.0
C5037 C 0.21042 0.56932 0.11999 0.0
C5038 C 0.19441 0.58863 0.10517 0.0
C5039 C 0.21242 0.5583 0.12019 0.0
C5040 C 0.18037 0.6322 0.10622 0.0
C5041 C 0.1861 0.62275 0.1046 0.0
C5042 C 0.20559 0.60404 0.11696 0.0
C5043 C 0.20718 0.57429 0.11053 0.0
C5044 C 0.20374 0.58567 0.11057 0.0
C5045 C 0.19146 0.61782 0.11307 0.0
C5046 C 0.1961 0.60694 0.11176 0.0
H5047 H 0.20771 0.55254 0.0941 0.0
H5048 H 0.20422 0.57173 0.09374 0.0
H5049 H 0.21664 0.5915 0.12056 0.0
H5050 H 0.18585 0.63605 0.13249 0.0
H5051 H 0.19553 0.61939 0.12976 0.0
C5052 C 0.22947 0.45093 0.88329 0.0
C5053 C 0.23571 0.45563 0.87529 0.0
C5054 C 0.22041 0.44493 0.88071 0.0
C5055 C 0.20085 0.43882 0.8595 0.0
H5056 H 0.19827 0.41193 0.87455 0.0
C5057 C 0.17037 0.40515 0.84828 0.0
C5058 C 0.16558 0.3997 0.85679 0.0
C5059 C 0.17852 0.41266 0.85015 0.0
C5060 C 0.19878 0.41946 0.87036 0.0
H5061 H 0.23711 0.45806 0.85831 0.0
H5062 H 0.22122 0.44751 0.85378 0.0
H5063 H 0.21304 0.42394 0.87857 0.0
H5064 H 0.16508 0.39833 0.87394 0.0
H5065 H 0.17915 0.41141 0.8772 0.0
H5066 H 0.18653 0.43424 0.85125 0.0
C5067 C 0.22333 0.44855 0.86206 0.0
C5068 C 0.20726 0.42636 0.87267 0.0
C5069 C 0.23242 0.45458 0.86466 0.0
C5070 C 0.16879 0.40221 0.8672 0.0
C5071 C 0.17687 0.4097 0.86907 0.0
C5072 C 0.19232 0.43189 0.85718 0.0
C5073 C 0.21737 0.44346 0.87006 0.0
C5074 C 0.20835 0.43616 0.86735 0.0
C5075 C 0.18198 0.41486 0.86057 0.0
C5076 C 0.19114 0.42218 0.86267 0.0
H5077 H 0.23168 0.45178 0.89157 0.0
H5078 H 0.21584 0.44133 0.88707 0.0
H5079 H 0.20147 0.44634 0.85529 0.0
H5080 H 0.16805 0.40336 0.84017 0.0
H5081 H 0.18233 0.41647 0.84343 0.0
C5082 C 0.29088 0.44731 0.60581 0.0
C5083 C 0.28578 0.45158 0.61482 0.0
C5084 C 0.29477 0.43683 0.60584 0.0
C5085 C 0.30431 0.41633 0.62423 0.0
H5086 H 0.30246 0.39752 0.59967 0.0
C5087 C 0.32237 0.37408 0.62498 0.0
C5088 C 0.3282 0.37094 0.61596 0.0
C5089 C 0.31587 0.38314 0.62473 0.0
C5090 C 0.30311 0.40271 0.60656 0.0
H5091 H 0.28059 0.44812 0.63088 0.0
H5092 H 0.28729 0.42979 0.63089 0.0
H5093 H 0.2935 0.41486 0.59942 0.0
H5094 H 0.3316 0.37469 0.59952 0.0
H5095 H 0.32036 0.39058 0.59909 0.0
H5096 H 0.31413 0.40438 0.63129 0.0
C5097 C 0.28835 0.43458 0.62382 0.0
C5098 C 0.29796 0.41263 0.60642 0.0
C5099 C 0.28441 0.44504 0.62378 0.0
C5100 C 0.32711 0.37684 0.60656 0.0
C5101 C 0.32065 0.38595 0.60632 0.0
C5102 C 0.30949 0.40645 0.62435 0.0
C5103 C 0.29369 0.4304 0.6149 0.0
C5104 C 0.29858 0.41959 0.61522 0.0
C5105 C 0.3151 0.38932 0.61546 0.0
C5106 C 0.30903 0.39954 0.61549 0.0
H5107 H 0.29195 0.4521 0.59874 0.0
H5108 H 0.29892 0.43388 0.59887 0.0
H5109 H 0.30509 0.42158 0.63107 0.0
H5110 H 0.32294 0.36958 0.63229 0.0
H5111 H 0.31154 0.38537 0.63185 0.0
C5112 C 0.77511 0.04933 0.8664 0.0
C5113 C 0.77272 0.04933 0.87731 0.0
C5114 C 0.7842 0.05464 0.86262 0.0
C5115 C 0.81014 0.06639 0.87089 0.0
H5116 H 0.80563 0.08562 0.84726 0.0
C5117 C 0.84372 0.09384 0.85487 0.0
C5118 C 0.84075 0.10461 0.85371 0.0
C5119 C 0.83595 0.08592 0.85644 0.0
C5120 C 0.80702 0.08026 0.85384 0.0
H5121 H 0.77824 0.05445 0.89285 0.0
H5122 H 0.79404 0.06378 0.88627 0.0
H5123 H 0.79126 0.07365 0.85283 0.0
H5124 H 0.82735 0.11548 0.85278 0.0
H5125 H 0.81379 0.10169 0.85551 0.0
H5126 H 0.82577 0.07328 0.87214 0.0
C5127 C 0.78892 0.05965 0.88063 0.0
C5128 C 0.79883 0.07333 0.85697 0.0
C5129 C 0.77981 0.05441 0.88439 0.0
C5130 C 0.82986 0.10725 0.85373 0.0
C5131 C 0.8221 0.09933 0.85521 0.0
C5132 C 0.81835 0.07328 0.86772 0.0
C5133 C 0.79112 0.05999 0.86969 0.0
C5134 C 0.80022 0.06647 0.86567 0.0
C5135 C 0.82506 0.08861 0.85675 0.0
C5136 C 0.81681 0.08044 0.8593 0.0
H5137 H 0.76977 0.04555 0.86074 0.0
H5138 H 0.78573 0.05468 0.85416 0.0
H5139 H 0.81148 0.06112 0.87756 0.0
H5140 H 0.85207 0.0916 0.85495 0.0
H5141 H 0.83846 0.07771 0.85753 0.0
C5142 C 0.79834 0.05908 0.38312 0.0
C5143 C 0.79893 0.05279 0.39232 0.0
C5144 C 0.80066 0.07005 0.38358 0.0
C5145 C 0.81651 0.08904 0.39938 0.0
H5146 H 0.80211 0.11062 0.3827 0.0
C5147 C 0.83097 0.13271 0.40007 0.0
C5148 C 0.83181 0.13774 0.39014 0.0
C5149 C 0.82531 0.1231 0.4011 0.0
C5150 C 0.80625 0.10467 0.38736 0.0
H5151 H 0.8017 0.05318 0.40931 0.0
H5152 H 0.80574 0.0723 0.4101 0.0
H5153 H 0.79507 0.09232 0.38306 0.0
H5154 H 0.82682 0.13693 0.37366 0.0
H5155 H 0.81725 0.12001 0.3754 0.0
H5156 H 0.82786 0.10119 0.40344 0.0
C5157 C 0.8037 0.06873 0.40251 0.0
C5158 C 0.80221 0.0942 0.38758 0.0
C5159 C 0.80139 0.05778 0.40205 0.0
C5160 C 0.82647 0.13317 0.38139 0.0
C5161 C 0.82086 0.12353 0.38241 0.0
C5162 C 0.82056 0.09946 0.39914 0.0
C5163 C 0.80361 0.07494 0.39323 0.0
C5164 C 0.80736 0.08625 0.39352 0.0
C5165 C 0.82041 0.11825 0.39224 0.0
C5166 C 0.81555 0.10739 0.39305 0.0
H5167 H 0.79656 0.05546 0.37549 0.0
H5168 H 0.80061 0.07459 0.37627 0.0
H5169 H 0.82079 0.08306 0.40387 0.0
H5170 H 0.83503 0.13595 0.40697 0.0
H5171 H 0.82497 0.11935 0.40883 0.0
C5172 C 0.2295 0.55789 0.62106 0.0
C5173 C 0.23585 0.55302 0.62884 0.0
C5174 C 0.22071 0.56409 0.62396 0.0
C5175 C 0.20206 0.57037 0.64591 0.0
H5176 H 0.19937 0.59735 0.63107 0.0
C5177 C 0.17269 0.60404 0.6588 0.0
C5178 C 0.1675 0.60957 0.65061 0.0
C5179 C 0.18073 0.59663 0.65645 0.0
C5180 C 0.19991 0.5898 0.63521 0.0
H5181 H 0.23773 0.55056 0.64577 0.0
H5182 H 0.22234 0.56142 0.65084 0.0
H5183 H 0.21371 0.58517 0.62636 0.0
H5184 H 0.16626 0.61124 0.63352 0.0
H5185 H 0.18018 0.59834 0.62942 0.0
H5186 H 0.18822 0.57508 0.65479 0.0
C5187 C 0.22414 0.56037 0.64249 0.0
C5188 C 0.20814 0.5828 0.6325 0.0
C5189 C 0.23295 0.55414 0.63958 0.0
C5190 C 0.17029 0.6073 0.64002 0.0
C5191 C 0.17827 0.5999 0.63768 0.0
C5192 C 0.19379 0.57739 0.64862 0.0
C5193 C 0.21805 0.56559 0.63471 0.0
C5194 C 0.20928 0.57298 0.63775 0.0
C5195 C 0.1837 0.59458 0.64585 0.0
C5196 C 0.19258 0.58715 0.64324 0.0
H5197 H 0.2314 0.55701 0.61271 0.0
H5198 H 0.21604 0.56781 0.61776 0.0
H5199 H 0.20269 0.56283 0.65007 0.0
H5200 H 0.17073 0.60566 0.66703 0.0
H5201 H 0.1848 0.59272 0.66293 0.0
C5202 C 0.28645 0.46133 0.12675 0.0
C5203 C 0.28181 0.46786 0.1346 0.0
C5204 C 0.29462 0.45423 0.12934 0.0
C5205 C 0.30547 0.43894 0.15153 0.0
H5206 H 0.32989 0.43541 0.13291 0.0
C5207 C 0.33947 0.40903 0.16064 0.0
C5208 C 0.3434 0.40307 0.15198 0.0
C5209 C 0.33252 0.41761 0.15902 0.0
C5210 C 0.32307 0.43623 0.13815 0.0
H5211 H 0.28212 0.47214 0.1513 0.0
H5212 H 0.29643 0.45968 0.15585 0.0
H5213 H 0.31678 0.44925 0.12916 0.0
H5214 H 0.34324 0.40162 0.1348 0.0
H5215 H 0.33091 0.4163 0.132 0.0
H5216 H 0.31161 0.42574 0.16037 0.0
C5217 C 0.29372 0.46006 0.1477 0.0
C5218 C 0.31558 0.44418 0.13601 0.0
C5219 C 0.2856 0.46725 0.14508 0.0
C5220 C 0.34026 0.40594 0.14167 0.0
C5221 C 0.3333 0.41447 0.14005 0.0
C5222 C 0.31294 0.43093 0.15364 0.0
C5223 C 0.29828 0.45345 0.13985 0.0
C5224 C 0.30663 0.44553 0.14259 0.0
C5225 C 0.32933 0.42042 0.1487 0.0
C5226 C 0.32176 0.42938 0.14689 0.0
H5227 H 0.28376 0.46169 0.11859 0.0
H5228 H 0.2979 0.44917 0.12314 0.0
H5229 H 0.29859 0.43973 0.15669 0.0
H5230 H 0.34167 0.40699 0.16869 0.0
H5231 H 0.32969 0.42208 0.16585 0.0
C5232 C 0.60866 0.80972 0.5188 0.0
C5233 C 0.61315 0.79957 0.52045 0.0
C5234 C 0.60557 0.81611 0.52739 0.0
C5235 C 0.59903 0.81582 0.556 0.0
H5236 H 0.60737 0.84573 0.55456 0.0
C5237 C 0.59772 0.84515 0.59203 0.0
C5238 C 0.59529 0.85591 0.58998 0.0
C5239 C 0.59868 0.83777 0.58367 0.0
C5240 C 0.60481 0.83745 0.55504 0.0
H5241 H 0.61762 0.78804 0.53245 0.0
H5242 H 0.61236 0.79931 0.54751 0.0
H5243 H 0.61147 0.8338 0.53983 0.0
H5244 H 0.5912 0.86725 0.5777 0.0
H5245 H 0.59262 0.85438 0.56314 0.0
H5246 H 0.59242 0.81953 0.5713 0.0
C5247 C 0.61116 0.80227 0.53953 0.0
C5248 C 0.60719 0.83059 0.54659 0.0
C5249 C 0.61428 0.79586 0.53091 0.0
C5250 C 0.59323 0.85903 0.57949 0.0
C5251 C 0.59411 0.85167 0.57115 0.0
C5252 C 0.59661 0.82271 0.56448 0.0
C5253 C 0.60692 0.81253 0.53786 0.0
C5254 C 0.60431 0.81971 0.54694 0.0
C5255 C 0.59716 0.84103 0.5731 0.0
C5256 C 0.59945 0.83362 0.56408 0.0
H5257 H 0.60779 0.8129 0.51087 0.0
H5258 H 0.6022 0.82392 0.52583 0.0
H5259 H 0.59664 0.80749 0.55647 0.0
H5260 H 0.59943 0.84256 0.60005 0.0
H5261 H 0.60111 0.82966 0.58545 0.0
C5262 C 0.45833 0.35835 0.80178 0.0
C5263 C 0.45116 0.36157 0.79383 0.0
C5264 C 0.45576 0.35974 0.81254 0.0
C5265 C 0.43808 0.3754 0.83024 0.0
H5266 H 0.44139 0.35191 0.84997 0.0
C5267 C 0.4145 0.3738 0.86896 0.0
C5268 C 0.41985 0.37094 0.87832 0.0
C5269 C 0.41945 0.37268 0.8591 0.0
C5270 C 0.44056 0.35859 0.84459 0.0
H5271 H 0.43585 0.36904 0.79092 0.0
H5272 H 0.43134 0.37134 0.80956 0.0
H5273 H 0.44827 0.35017 0.83183 0.0
H5274 H 0.43449 0.36431 0.88463 0.0
H5275 H 0.44314 0.36223 0.86726 0.0
H5276 H 0.4302 0.38373 0.84285 0.0
C5277 C 0.43895 0.36778 0.80754 0.0
C5278 C 0.44451 0.3576 0.83421 0.0
C5279 C 0.44148 0.36635 0.79685 0.0
C5280 C 0.43016 0.36656 0.87755 0.0
C5281 C 0.43511 0.36539 0.86763 0.0
C5282 C 0.43415 0.37637 0.84056 0.0
C5283 C 0.44604 0.36449 0.81552 0.0
C5284 C 0.44306 0.36591 0.82686 0.0
C5285 C 0.42986 0.36861 0.85832 0.0
C5286 C 0.4351 0.36788 0.84777 0.0
H5287 H 0.46583 0.35461 0.79969 0.0
H5288 H 0.46139 0.35717 0.81851 0.0
H5289 H 0.43707 0.38204 0.82484 0.0
H5290 H 0.40646 0.37693 0.86924 0.0
H5291 H 0.41508 0.37498 0.85205 0.0
C5292 C 0.89045 0.20666 0.02918 0.0
C5293 C 0.88694 0.21685 0.03244 0.0
C5294 C 0.8936 0.19908 0.03663 0.0
C5295 C 0.90269 0.19572 0.06424 0.0
H5296 H 0.89179 0.16682 0.0605 0.0
C5297 C 0.90612 0.16312 0.09663 0.0
C5298 C 0.90776 0.1525 0.09327 0.0
C5299 C 0.90432 0.17121 0.08921 0.0
C5300 C 0.89505 0.1748 0.06159 0.0
H5301 H 0.8842 0.2271 0.04614 0.0
H5302 H 0.8898 0.21384 0.05918 0.0
H5303 H 0.8873 0.18051 0.04761 0.0
H5304 H 0.90932 0.1421 0.07952 0.0
H5305 H 0.90637 0.15621 0.06656 0.0
H5306 H 0.91047 0.18998 0.07823 0.0
C5307 C 0.89014 0.21177 0.05082 0.0
C5308 C 0.89245 0.18266 0.0542 0.0
C5309 C 0.88694 0.21937 0.04335 0.0
C5310 C 0.90791 0.15019 0.08234 0.0
C5311 C 0.90619 0.15827 0.07493 0.0
C5312 C 0.90535 0.18783 0.07162 0.0
C5313 C 0.89338 0.2015 0.04754 0.0
C5314 C 0.89624 0.19321 0.05544 0.0
C5315 C 0.90418 0.16885 0.07827 0.0
C5316 C 0.90156 0.17727 0.07038 0.0
H5317 H 0.8908 0.20454 0.02084 0.0
H5318 H 0.89625 0.19131 0.03385 0.0
H5319 H 0.90581 0.20376 0.06534 0.0
H5320 H 0.90586 0.16511 0.10501 0.0
H5321 H 0.90269 0.17923 0.09207 0.0
C5322 C 0.06599 0.63932 0.29923 0.0
C5323 C 0.0563 0.64395 0.2961 0.0
C5324 C 0.06842 0.63806 0.30994 0.0
C5325 C 0.06239 0.64868 0.33649 0.0
H5326 H 0.07709 0.62302 0.34552 0.0
C5327 C 0.07625 0.64134 0.38004 0.0
C5328 C 0.08667 0.63731 0.38106 0.0
C5329 C 0.07139 0.64193 0.37004 0.0
C5330 C 0.07303 0.63025 0.34311 0.0
H5331 H 0.04149 0.65084 0.3018 0.0
H5332 H 0.04573 0.64858 0.32066 0.0
H5333 H 0.07045 0.62422 0.32739 0.0
H5334 H 0.1003 0.63119 0.37232 0.0
H5335 H 0.09182 0.63213 0.355 0.0
H5336 H 0.06516 0.65476 0.35223 0.0
C5337 C 0.05147 0.64599 0.31475 0.0
C5338 C 0.06923 0.63094 0.33273 0.0
C5339 C 0.04901 0.6472 0.30397 0.0
C5340 C 0.09217 0.63407 0.37186 0.0
C5341 C 0.08731 0.63462 0.36192 0.0
C5342 C 0.0662 0.64798 0.34692 0.0
C5343 C 0.06121 0.6414 0.31784 0.0
C5344 C 0.0641 0.64026 0.32922 0.0
C5345 C 0.07684 0.63846 0.3609 0.0
C5346 C 0.07179 0.63886 0.35025 0.0
H5347 H 0.07172 0.63661 0.29336 0.0
H5348 H 0.07605 0.63463 0.31205 0.0
H5349 H 0.05853 0.65599 0.334 0.0
H5350 H 0.07178 0.64384 0.38698 0.0
H5351 H 0.0633 0.6449 0.36949 0.0
C5352 C 0.60961 0.20937 0.98215 0.0
C5353 C 0.62054 0.20999 0.98465 0.0
C5354 C 0.60613 0.20354 0.97328 0.0
C5355 C 0.61541 0.19127 0.94802 0.0
H5356 H 0.59164 0.17173 0.95222 0.0
C5357 C 0.60099 0.16303 0.91457 0.0
C5358 C 0.59927 0.15232 0.91754 0.0
C5359 C 0.60222 0.17104 0.92229 0.0
C5360 C 0.59829 0.17714 0.95092 0.0
H5361 H 0.6364 0.20538 0.97951 0.0
H5362 H 0.63034 0.19512 0.96413 0.0
H5363 H 0.59672 0.18414 0.9664 0.0
H5364 H 0.59698 0.14172 0.93093 0.0
H5365 H 0.59932 0.15565 0.94439 0.0
H5366 H 0.61727 0.18399 0.93272 0.0
C5367 C 0.62445 0.19917 0.96899 0.0
C5368 C 0.60112 0.18434 0.959 0.0
C5369 C 0.62792 0.20496 0.97787 0.0
C5370 C 0.59842 0.14987 0.92839 0.0
C5371 C 0.59964 0.15788 0.9361 0.0
C5372 C 0.61257 0.18409 0.93994 0.0
C5373 C 0.6135 0.19826 0.96667 0.0
C5374 C 0.60984 0.19136 0.95771 0.0
C5375 C 0.60175 0.16853 0.93314 0.0
C5376 C 0.60409 0.17681 0.94136 0.0
H5377 H 0.60372 0.2131 0.98726 0.0
H5378 H 0.59765 0.20308 0.97164 0.0
H5379 H 0.62208 0.19666 0.94673 0.0
H5380 H 0.60177 0.16518 0.90629 0.0
H5381 H 0.60371 0.17919 0.91974 0.0
C5382 C 0.05442 0.34747 0.20346 0.0
C5383 C 0.04942 0.35569 0.20928 0.0
C5384 C 0.05673 0.34879 0.19269 0.0
C5385 C 0.06247 0.37033 0.17392 0.0
H5386 H 0.06281 0.34721 0.15319 0.0
C5387 C 0.08976 0.37123 0.13753 0.0
C5388 C 0.08571 0.36776 0.12767 0.0
C5389 C 0.08383 0.36991 0.1468 0.0
C5390 C 0.06263 0.35379 0.15885 0.0
H5391 H 0.04246 0.37152 0.2082 0.0
H5392 H 0.04631 0.37373 0.18936 0.0
H5393 H 0.05436 0.34442 0.17049 0.0
H5394 H 0.07225 0.36007 0.11987 0.0
H5395 H 0.06188 0.35764 0.1362 0.0
H5396 H 0.07084 0.37965 0.16239 0.0
C5397 C 0.04858 0.36633 0.19317 0.0
C5398 C 0.05789 0.35216 0.16878 0.0
C5399 C 0.04627 0.36502 0.20395 0.0
C5400 C 0.07562 0.36278 0.12735 0.0
C5401 C 0.06968 0.3614 0.13668 0.0
C5402 C 0.06722 0.37193 0.16404 0.0
C5403 C 0.05408 0.35835 0.18749 0.0
C5404 C 0.05794 0.36035 0.1765 0.0
C5405 C 0.07371 0.36502 0.14649 0.0
C5406 C 0.06758 0.36361 0.15648 0.0
H5407 H 0.0568 0.34012 0.2073 0.0
H5408 H 0.06103 0.34251 0.18858 0.0
H5409 H 0.06275 0.37678 0.17971 0.0
H5410 H 0.09762 0.37483 0.13814 0.0
H5411 H 0.08726 0.37255 0.15427 0.0
C5412 C 0.88016 0.80415 0.47515 0.0
C5413 C 0.8876 0.79965 0.48214 0.0
C5414 C 0.88354 0.80925 0.46591 0.0
C5415 C 0.90657 0.82352 0.45486 0.0
H5416 H 0.89025 0.82166 0.42875 0.0
C5417 C 0.91659 0.84935 0.41799 0.0
C5418 C 0.90772 0.85442 0.41342 0.0
C5419 C 0.91514 0.84127 0.42554 0.0
C5420 C 0.89489 0.82228 0.43599 0.0
H5421 H 0.90444 0.79676 0.48481 0.0
H5422 H 0.91038 0.80567 0.46858 0.0
H5423 H 0.88586 0.80984 0.44349 0.0
H5424 H 0.89042 0.85472 0.41285 0.0
H5425 H 0.88791 0.84081 0.42605 0.0
H5426 H 0.9154 0.83618 0.44747 0.0
C5427 C 0.90192 0.80528 0.47031 0.0
C5428 C 0.89237 0.81551 0.44443 0.0
C5429 C 0.89851 0.80011 0.47954 0.0
C5430 C 0.89741 0.85107 0.41634 0.0
C5431 C 0.89597 0.84299 0.42381 0.0
C5432 C 0.90909 0.83031 0.44641 0.0
C5433 C 0.89447 0.81001 0.46345 0.0
C5434 C 0.89801 0.81624 0.45405 0.0
C5435 C 0.9048 0.83805 0.42856 0.0
C5436 C 0.90309 0.82994 0.43699 0.0
H5437 H 0.87169 0.80382 0.47689 0.0
H5438 H 0.87761 0.81291 0.46086 0.0
H5439 H 0.91101 0.82435 0.46221 0.0
H5440 H 0.92462 0.85179 0.41589 0.0
H5441 H 0.9221 0.83757 0.42902 0.0
C5442 C 0.47102 0.64373 0.69759 0.0
C5443 C 0.46532 0.64041 0.70662 0.0
C5444 C 0.46631 0.6432 0.68751 0.0
C5445 C 0.44457 0.62961 0.67283 0.0
H5446 H 0.44655 0.65366 0.65357 0.0
C5447 C 0.41664 0.63337 0.63705 0.0
C5448 C 0.421 0.63678 0.62736 0.0
C5449 C 0.42265 0.63386 0.64636 0.0
C5450 C 0.44604 0.64682 0.6588 0.0
H5451 H 0.45032 0.63372 0.71213 0.0
H5452 H 0.44209 0.63292 0.69466 0.0
H5453 H 0.45617 0.65424 0.67046 0.0
H5454 H 0.43505 0.64355 0.61986 0.0
H5455 H 0.44561 0.64443 0.6362 0.0
H5456 H 0.4344 0.62221 0.66127 0.0
C5457 C 0.4502 0.63589 0.69532 0.0
C5458 C 0.45155 0.64715 0.66847 0.0
C5459 C 0.45487 0.63647 0.70536 0.0
C5460 C 0.43145 0.64093 0.62723 0.0
C5461 C 0.43749 0.64143 0.63657 0.0
C5462 C 0.43909 0.62927 0.66319 0.0
C5463 C 0.45585 0.63924 0.68628 0.0
C5464 C 0.45073 0.63862 0.67566 0.0
C5465 C 0.43319 0.63778 0.64622 0.0
C5466 C 0.43961 0.63794 0.65614 0.0
H5467 H 0.47907 0.64686 0.69833 0.0
H5468 H 0.47088 0.64577 0.68068 0.0
H5469 H 0.44395 0.62281 0.6781 0.0
H5470 H 0.40853 0.63035 0.63746 0.0
H5471 H 0.41901 0.63122 0.6537 0.0
C5472 C 0.51814 0.62176 0.81814 0.0
C5473 C 0.51947 0.62351 0.8072 0.0
C5474 C 0.52658 0.61807 0.82429 0.0
C5475 C 0.5527 0.60457 0.82336 0.0
H5476 H 0.55625 0.61843 0.85079 0.0
C5477 C 0.58907 0.59801 0.85156 0.0
C5478 C 0.58676 0.59762 0.86248 0.0
C5479 C 0.58102 0.60038 0.84423 0.0
C5480 C 0.55531 0.61438 0.84321 0.0
H5481 H 0.53063 0.62245 0.79409 0.0
H5482 H 0.54551 0.616 0.80493 0.0
H5483 H 0.54207 0.62421 0.83902 0.0
H5484 H 0.57413 0.59862 0.87421 0.0
H5485 H 0.56012 0.60265 0.86146 0.0
H5486 H 0.56604 0.59475 0.82763 0.0
C5487 C 0.53787 0.61745 0.80869 0.0
C5488 C 0.54718 0.6177 0.83646 0.0
C5489 C 0.52937 0.62116 0.80249 0.0
C5490 C 0.57618 0.59909 0.86586 0.0
C5491 C 0.56817 0.60142 0.85856 0.0
C5492 C 0.56089 0.60124 0.83015 0.0
C5493 C 0.53659 0.61604 0.81969 0.0
C5494 C 0.54566 0.61275 0.82652 0.0
C5495 C 0.57054 0.60237 0.8477 0.0
C5496 C 0.56217 0.60602 0.84021 0.0
H5497 H 0.51053 0.62323 0.82196 0.0
H5498 H 0.52525 0.6168 0.83269 0.0
H5499 H 0.5517 0.60057 0.81576 0.0
H5500 H 0.59717 0.59696 0.84874 0.0
H5501 H 0.58309 0.60109 0.83591 0.0
C5502 C 0.63198 0.31652 0.03741 0.0
C5503 C 0.64055 0.30933 0.0382 0.0
C5504 C 0.63265 0.32672 0.04204 0.0
C5505 C 0.64679 0.34113 0.06342 0.0
H5506 H 0.63449 0.36638 0.05057 0.0
C5507 C 0.64964 0.38247 0.08375 0.0
C5508 C 0.64023 0.38855 0.08397 0.0
C5509 C 0.65041 0.37339 0.07725 0.0
C5510 C 0.6379 0.35939 0.05429 0.0
H5511 H 0.65674 0.30742 0.04394 0.0
H5512 H 0.65792 0.32521 0.05196 0.0
H5513 H 0.63452 0.34943 0.04077 0.0
H5514 H 0.62441 0.39012 0.0772 0.0
H5515 H 0.62566 0.37417 0.06601 0.0
H5516 H 0.65002 0.35099 0.077 0.0
C5517 C 0.6506 0.32289 0.04797 0.0
C5518 C 0.63792 0.34968 0.04867 0.0
C5519 C 0.64993 0.3127 0.04337 0.0
C5520 C 0.63172 0.38553 0.0773 0.0
C5521 C 0.63249 0.37645 0.0708 0.0
C5522 C 0.64677 0.35082 0.06903 0.0
C5523 C 0.64191 0.32995 0.04752 0.0
C5524 C 0.6423 0.34042 0.05321 0.0
C5525 C 0.64178 0.37018 0.07081 0.0
C5526 C 0.64226 0.36005 0.06456 0.0
H5527 H 0.62461 0.31412 0.03358 0.0
H5528 H 0.62576 0.33191 0.04164 0.0
H5529 H 0.65006 0.33412 0.06723 0.0
H5530 H 0.65631 0.38451 0.08886 0.0
H5531 H 0.65773 0.36881 0.07735 0.0
C5532 C 0.97759 0.39006 0.2945 0.0
C5533 C 0.98 0.37909 0.29398 0.0
C5534 C 0.97058 0.39399 0.30224 0.0
C5535 C 0.95933 0.38691 0.32847 0.0
H5536 H 0.93924 0.40963 0.32249 0.0
C5537 C 0.93423 0.40605 0.36176 0.0
C5538 C 0.92342 0.4079 0.35949 0.0
C5539 C 0.94137 0.40342 0.35363 0.0
C5540 C 0.94477 0.40324 0.32428 0.0
H5541 H 0.9766 0.36356 0.30084 0.0
H5542 H 0.96427 0.37035 0.31422 0.0
H5543 H 0.95075 0.40288 0.30835 0.0
H5544 H 0.91164 0.40859 0.3469 0.0
H5545 H 0.92406 0.4039 0.33274 0.0
H5546 H 0.95314 0.387 0.34428 0.0
C5547 C 0.96799 0.37599 0.30885 0.0
C5548 C 0.95145 0.39945 0.3162 0.0
C5549 C 0.97502 0.37208 0.30115 0.0
C5550 C 0.91996 0.40735 0.34888 0.0
C5551 C 0.92709 0.40467 0.34076 0.0
C5552 C 0.95264 0.39067 0.33652 0.0
C5553 C 0.9658 0.38701 0.3096 0.0
C5554 C 0.95877 0.39119 0.31818 0.0
C5555 C 0.93785 0.40251 0.34305 0.0
C5556 C 0.94524 0.39886 0.33453 0.0
H5557 H 0.98139 0.39567 0.28916 0.0
H5558 H 0.96917 0.40253 0.30266 0.0
H5559 H 0.96499 0.38066 0.33033 0.0
H5560 H 0.93714 0.40655 0.36985 0.0
H5561 H 0.94965 0.40203 0.35566 0.0
C5562 C 0.8584 0.69843 0.5397 0.0
C5563 C 0.86795 0.70227 0.53523 0.0
C5564 C 0.85786 0.68815 0.54398 0.0
C5565 C 0.87177 0.66194 0.54469 0.0
H5566 H 0.85733 0.65912 0.57179 0.0
C5567 C 0.87746 0.62566 0.57238 0.0
C5568 C 0.86848 0.62177 0.57786 0.0
C5569 C 0.8768 0.63496 0.56631 0.0
C5570 C 0.86126 0.65973 0.56415 0.0
H5571 H 0.88438 0.69825 0.53161 0.0
H5572 H 0.88347 0.68033 0.53915 0.0
H5573 H 0.85724 0.67628 0.56272 0.0
H5574 H 0.85172 0.62455 0.58116 0.0
H5575 H 0.85053 0.64073 0.57046 0.0
H5576 H 0.87595 0.64541 0.54627 0.0
C5577 C 0.87634 0.6852 0.5392 0.0
C5578 C 0.8612 0.66957 0.55894 0.0
C5579 C 0.87687 0.69548 0.53489 0.0
C5580 C 0.85876 0.62728 0.57696 0.0
C5581 C 0.85811 0.63661 0.57092 0.0
C5582 C 0.87184 0.6521 0.54993 0.0
C5583 C 0.86687 0.68146 0.54393 0.0
C5584 C 0.86652 0.67082 0.54918 0.0
C5585 C 0.86715 0.64062 0.56562 0.0
C5586 C 0.86665 0.6509 0.55976 0.0
H5587 H 0.85134 0.70341 0.53993 0.0
H5588 H 0.85038 0.68544 0.54738 0.0
H5589 H 0.8758 0.66259 0.53712 0.0
H5590 H 0.88503 0.62153 0.57284 0.0
H5591 H 0.88393 0.63789 0.5624 0.0
C5592 C 0.53146 0.38932 0.71208 0.0
C5593 C 0.52858 0.37846 0.71286 0.0
C5594 C 0.53883 0.39268 0.70442 0.0
C5595 C 0.55004 0.38419 0.6786 0.0
H5596 H 0.57101 0.4065 0.68403 0.0
C5597 C 0.57524 0.40196 0.64479 0.0
C5598 C 0.58616 0.40357 0.64682 0.0
C5599 C 0.56819 0.39962 0.65306 0.0
C5600 C 0.56524 0.40022 0.6824 0.0
H5601 H 0.53157 0.36253 0.7066 0.0
H5602 H 0.54451 0.36835 0.69336 0.0
H5603 H 0.55924 0.40061 0.69834 0.0
H5604 H 0.59823 0.40413 0.65915 0.0
H5605 H 0.58594 0.39996 0.6736 0.0
H5606 H 0.55617 0.38357 0.66277 0.0
C5607 C 0.54088 0.37433 0.69846 0.0
C5608 C 0.55842 0.39692 0.69058 0.0
C5609 C 0.5335 0.37098 0.70608 0.0
C5610 C 0.58984 0.40305 0.65735 0.0
C5611 C 0.58279 0.40067 0.66563 0.0
C5612 C 0.55684 0.38747 0.67045 0.0
C5613 C 0.5435 0.38523 0.69741 0.0
C5614 C 0.55077 0.38883 0.68878 0.0
C5615 C 0.57191 0.39878 0.66356 0.0
C5616 C 0.56454 0.39551 0.67224 0.0
H5617 H 0.52772 0.39528 0.71712 0.0
H5618 H 0.5406 0.40115 0.70377 0.0
H5619 H 0.54414 0.37805 0.67689 0.0
H5620 H 0.57215 0.40248 0.63678 0.0
H5621 H 0.55983 0.39842 0.65122 0.0
C5622 C 0.87414 0.30995 0.96665 0.0
C5623 C 0.86453 0.30443 0.96467 0.0
C5624 C 0.87504 0.32088 0.96444 0.0
C5625 C 0.85931 0.34524 0.95787 0.0
H5626 H 0.88472 0.35316 0.94212 0.0
C5627 C 0.86132 0.38144 0.92973 0.0
C5628 C 0.87094 0.38724 0.92898 0.0
C5629 C 0.86064 0.37233 0.93609 0.0
C5630 C 0.87766 0.35116 0.94668 0.0
H5631 H 0.84814 0.30621 0.95943 0.0
H5632 H 0.84978 0.32517 0.95534 0.0
H5633 H 0.88337 0.3354 0.94983 0.0
H5634 H 0.88721 0.38834 0.93478 0.0
H5635 H 0.88603 0.37239 0.94586 0.0
H5636 H 0.85347 0.36093 0.95437 0.0
C5637 C 0.85661 0.32111 0.95868 0.0
C5638 C 0.87689 0.34096 0.95112 0.0
C5639 C 0.85571 0.3102 0.9609 0.0
C5640 C 0.87974 0.38395 0.93505 0.0
C5641 C 0.87906 0.37482 0.9414 0.0
C5642 C 0.86007 0.35544 0.9534 0.0
C5643 C 0.86635 0.32654 0.9602 0.0
C5644 C 0.86762 0.3378 0.9566 0.0
C5645 C 0.86957 0.36879 0.94183 0.0
C5646 C 0.86917 0.35844 0.94758 0.0
H5647 H 0.8811 0.30574 0.96951 0.0
H5648 H 0.88262 0.32486 0.96584 0.0
H5649 H 0.85214 0.34312 0.9622 0.0
H5650 H 0.85444 0.38367 0.92505 0.0
H5651 H 0.85325 0.36779 0.93613 0.0
C5652 C 0.97458 0.63558 0.20756 0.0
C5653 C 0.97938 0.62787 0.21406 0.0
C5654 C 0.96713 0.63254 0.19986 0.0
C5655 C 0.94914 0.61052 0.19115 0.0
H5656 H 0.95174 0.62459 0.16389 0.0
C5657 C 0.9254 0.59755 0.15335 0.0
C5658 C 0.92123 0.60593 0.14721 0.0
C5659 C 0.93231 0.59977 0.16185 0.0
C5660 C 0.95084 0.62065 0.17148 0.0
H5661 H 0.97993 0.61095 0.21776 0.0
H5662 H 0.96692 0.6056 0.20424 0.0
H5663 H 0.96395 0.62935 0.17818 0.0
H5664 H 0.92059 0.62321 0.14556 0.0
H5665 H 0.93264 0.62703 0.16023 0.0
H5666 H 0.93602 0.60177 0.18433 0.0
C5667 C 0.96885 0.61402 0.20518 0.0
C5668 C 0.95783 0.62339 0.17969 0.0
C5669 C 0.97629 0.61708 0.21293 0.0
C5670 C 0.92389 0.61655 0.14993 0.0
C5671 C 0.93079 0.61875 0.15836 0.0
C5672 C 0.94214 0.60774 0.1829 0.0
C5673 C 0.96432 0.6217 0.19843 0.0
C5674 C 0.95699 0.61847 0.18967 0.0
C5675 C 0.93517 0.6104 0.16434 0.0
C5676 C 0.94285 0.61288 0.17302 0.0
H5677 H 0.97665 0.64398 0.20837 0.0
H5678 H 0.96361 0.63869 0.19497 0.0
H5679 H 0.94824 0.60662 0.19876 0.0
H5680 H 0.92352 0.58929 0.15144 0.0
H5681 H 0.9356 0.59316 0.16629 0.0
C5682 C 0.63165 0.69177 0.46992 0.0
C5683 C 0.64021 0.69906 0.46927 0.0
C5684 C 0.63239 0.6816 0.46527 0.0
C5685 C 0.64668 0.66735 0.44398 0.0
H5686 H 0.6343 0.64201 0.4568 0.0
C5687 C 0.6493 0.626 0.42361 0.0
C5688 C 0.63988 0.61983 0.42348 0.0
C5689 C 0.65011 0.63511 0.43006 0.0
C5690 C 0.63773 0.64903 0.45308 0.0
H5691 H 0.65645 0.70118 0.46366 0.0
H5692 H 0.65774 0.68344 0.45555 0.0
H5693 H 0.63436 0.65894 0.46661 0.0
H5694 H 0.62407 0.6182 0.43033 0.0
H5695 H 0.6254 0.63423 0.44142 0.0
H5696 H 0.64988 0.65754 0.43039 0.0
C5697 C 0.65038 0.68566 0.45949 0.0
C5698 C 0.63777 0.65873 0.45871 0.0
C5699 C 0.64964 0.69582 0.46414 0.0
C5700 C 0.6314 0.62285 0.43016 0.0
C5701 C 0.63221 0.63196 0.43661 0.0
C5702 C 0.64663 0.65767 0.43836 0.0
C5703 C 0.6417 0.67849 0.45986 0.0
C5704 C 0.64217 0.66802 0.45418 0.0
C5705 C 0.64152 0.63829 0.43653 0.0
C5706 C 0.64208 0.64841 0.4428 0.0
H5707 H 0.62422 0.69406 0.47369 0.0
H5708 H 0.6255 0.67633 0.46558 0.0
H5709 H 0.64997 0.6744 0.44018 0.0
H5710 H 0.65595 0.62396 0.41849 0.0
H5711 H 0.65745 0.63973 0.42991 0.0
C5712 C 0.79575 0.52457 0.60861 0.0
C5713 C 0.79524 0.52321 0.61968 0.0
C5714 C 0.80148 0.53313 0.60427 0.0
C5715 C 0.81372 0.55945 0.61079 0.0
H5716 H 0.83339 0.55236 0.58803 0.0
C5717 C 0.8425 0.59095 0.59326 0.0
C5718 C 0.85317 0.58761 0.59245 0.0
C5719 C 0.83434 0.5835 0.59508 0.0
C5720 C 0.82792 0.55447 0.59436 0.0
H5721 H 0.7999 0.53004 0.63486 0.0
H5722 H 0.80997 0.5449 0.6273 0.0
H5723 H 0.82087 0.53882 0.59443 0.0
H5724 H 0.86359 0.5738 0.59234 0.0
H5725 H 0.8494 0.5608 0.59559 0.0
H5726 H 0.82105 0.57497 0.61101 0.0
C5727 C 0.80592 0.53939 0.62197 0.0
C5728 C 0.82068 0.54675 0.59796 0.0
C5729 C 0.80025 0.53081 0.6263 0.0
C5730 C 0.85546 0.57662 0.59303 0.0
C5731 C 0.84731 0.56917 0.5948 0.0
C5732 C 0.82094 0.56719 0.60716 0.0
C5733 C 0.80676 0.54055 0.6109 0.0
C5734 C 0.81364 0.54909 0.60635 0.0
C5735 C 0.83668 0.57254 0.59605 0.0
C5736 C 0.82826 0.56471 0.59905 0.0
H5737 H 0.79205 0.5188 0.6033 0.0
H5738 H 0.80189 0.53387 0.59571 0.0
H5739 H 0.80832 0.56154 0.61719 0.0
H5740 H 0.8405 0.59938 0.59291 0.0
H5741 H 0.82622 0.58633 0.59591 0.0
C5742 C 0.2987 0.98383 0.39815 0.0
C5743 C 0.29836 0.98612 0.38724 0.0
C5744 C 0.30419 0.97484 0.40182 0.0
C5745 C 0.31574 0.94896 0.39301 0.0
H5746 H 0.33543 0.95334 0.41642 0.0
C5747 C 0.35185 0.92185 0.39971 0.0
C5748 C 0.35471 0.91911 0.41013 0.0
C5749 C 0.34376 0.92922 0.39784 0.0
C5750 C 0.32984 0.95192 0.41 0.0
H5751 H 0.3031 0.98056 0.3716 0.0
H5752 H 0.31276 0.96499 0.37798 0.0
H5753 H 0.32322 0.96765 0.41146 0.0
H5754 H 0.35124 0.92188 0.42678 0.0
H5755 H 0.33699 0.93485 0.42351 0.0
H5756 H 0.32255 0.93335 0.39136 0.0
C5757 C 0.30875 0.97008 0.38371 0.0
C5758 C 0.32284 0.96012 0.40716 0.0
C5759 C 0.30332 0.97907 0.38006 0.0
C5760 C 0.34918 0.92382 0.41867 0.0
C5761 C 0.34109 0.93129 0.41679 0.0
C5762 C 0.32273 0.94078 0.39585 0.0
C5763 C 0.30938 0.96793 0.39464 0.0
C5764 C 0.31588 0.95881 0.39847 0.0
C5765 C 0.33831 0.93407 0.40635 0.0
C5766 C 0.33004 0.94226 0.4042 0.0
H5767 H 0.29501 0.98916 0.40387 0.0
H5768 H 0.30446 0.97335 0.41028 0.0
H5769 H 0.31033 0.94763 0.38642 0.0
H5770 H 0.35587 0.91824 0.39296 0.0
H5771 H 0.34191 0.93129 0.38971 0.0
C5772 C 0.31422 0.05454 0.65187 0.0
C5773 C 0.30812 0.04966 0.64379 0.0
C5774 C 0.325 0.05692 0.65024 0.0
C5775 C 0.34333 0.06316 0.62847 0.0
H5776 H 0.36446 0.06356 0.65097 0.0
C5777 C 0.37874 0.09221 0.62857 0.0
C5778 C 0.38875 0.08876 0.63224 0.0
C5779 C 0.36981 0.08555 0.62926 0.0
C5780 C 0.35872 0.06335 0.64455 0.0
H5781 H 0.30872 0.04301 0.62785 0.0
H5782 H 0.3276 0.047 0.62509 0.0
H5783 H 0.34733 0.0546 0.65382 0.0
H5784 H 0.3972 0.07551 0.63939 0.0
H5785 H 0.38146 0.06388 0.64071 0.0
H5786 H 0.35462 0.07203 0.61926 0.0
C5787 C 0.32399 0.04911 0.63263 0.0
C5788 C 0.34886 0.05832 0.64622 0.0
C5789 C 0.3132 0.04673 0.63425 0.0
C5790 C 0.38959 0.07844 0.63657 0.0
C5791 C 0.3806 0.07177 0.63731 0.0
C5792 C 0.35316 0.06819 0.62681 0.0
C5793 C 0.32995 0.05447 0.64051 0.0
C5794 C 0.34095 0.0584 0.63829 0.0
C5795 C 0.3706 0.07529 0.63369 0.0
C5796 C 0.36084 0.0686 0.63493 0.0
H5797 H 0.31059 0.05675 0.65937 0.0
H5798 H 0.32931 0.06113 0.65646 0.0
H5799 H 0.33741 0.06346 0.62222 0.0
H5800 H 0.37771 0.1002 0.62545 0.0
H5801 H 0.36218 0.08861 0.62662 0.0
C5802 C 0.21685 0.03588 0.87589 0.0
C5803 C 0.2235 0.03093 0.88337 0.0
C5804 C 0.20954 0.04368 0.87908 0.0
C5805 C 0.19409 0.05255 0.90222 0.0
H5806 H 0.18888 0.07765 0.88501 0.0
C5807 C 0.16268 0.08458 0.91369 0.0
C5808 C 0.15627 0.08838 0.90536 0.0
C5809 C 0.17157 0.07818 0.91155 0.0
C5810 C 0.19018 0.07064 0.88986 0.0
H5811 H 0.22781 0.03037 0.90002 0.0
H5812 H 0.21504 0.04408 0.9056 0.0
H5813 H 0.20334 0.06552 0.88028 0.0
H5814 H 0.15434 0.08859 0.88825 0.0
H5815 H 0.16964 0.07724 0.88454 0.0
H5816 H 0.18078 0.05755 0.91167 0.0
C5817 C 0.21547 0.04187 0.89728 0.0
C5818 C 0.19848 0.0637 0.88716 0.0
C5819 C 0.22284 0.03411 0.89408 0.0
C5820 C 0.15901 0.08568 0.89486 0.0
C5821 C 0.16788 0.07929 0.89272 0.0
C5822 C 0.18576 0.05948 0.90491 0.0
C5823 C 0.20868 0.04668 0.88982 0.0
C5824 C 0.20043 0.0545 0.89321 0.0
C5825 C 0.17428 0.07546 0.90103 0.0
C5826 C 0.18361 0.06852 0.89866 0.0
H5827 H 0.21724 0.03367 0.86757 0.0
H5828 H 0.20436 0.04715 0.87315 0.0
H5829 H 0.19532 0.04546 0.90697 0.0
H5830 H 0.16074 0.08647 0.92188 0.0
H5831 H 0.17638 0.07543 0.91813 0.0
C5832 C 0.68977 0.47062 0.62569 0.0
C5833 C 0.69662 0.46923 0.63441 0.0
C5834 C 0.67964 0.46589 0.62556 0.0
C5835 C 0.65892 0.45367 0.64262 0.0
H5836 H 0.65098 0.4385 0.61683 0.0
C5837 C 0.62437 0.4228 0.64086 0.0
C5838 C 0.6183 0.42214 0.63149 0.0
C5839 C 0.63329 0.42956 0.64144 0.0
C5840 C 0.65296 0.44285 0.62404 0.0
H5841 H 0.69809 0.46191 0.64992 0.0
H5842 H 0.68038 0.45373 0.64972 0.0
H5843 H 0.66764 0.44858 0.61745 0.0
H5844 H 0.61648 0.42842 0.6156 0.0
H5845 H 0.63194 0.44032 0.61664 0.0
H5846 H 0.64426 0.44787 0.64924 0.0
C5847 C 0.68282 0.45856 0.64302 0.0
C5848 C 0.66254 0.44861 0.62439 0.0
C5849 C 0.69297 0.46326 0.64313 0.0
C5850 C 0.62111 0.42865 0.62286 0.0
C5851 C 0.62998 0.43544 0.62345 0.0
C5852 C 0.64931 0.44793 0.64226 0.0
C5853 C 0.6761 0.45969 0.63417 0.0
C5854 C 0.66566 0.45403 0.63371 0.0
C5855 C 0.6363 0.43584 0.63268 0.0
C5856 C 0.64625 0.44239 0.63298 0.0
H5857 H 0.69225 0.47533 0.61892 0.0
H5858 H 0.67458 0.46705 0.61869 0.0
H5859 H 0.66106 0.45787 0.64988 0.0
H5860 H 0.62245 0.4178 0.6476 0.0
H5861 H 0.63803 0.42956 0.64862 0.0
C5862 C 0.71674 0.47337 0.13366 0.0
C5863 C 0.72333 0.47823 0.12603 0.0
C5864 C 0.70898 0.4659 0.13062 0.0
C5865 C 0.70028 0.44794 0.10873 0.0
H5866 H 0.67271 0.45068 0.12248 0.0
C5867 C 0.66239 0.42442 0.09523 0.0
C5868 C 0.65593 0.42025 0.10337 0.0
C5869 C 0.67092 0.4313 0.09764 0.0
C5870 C 0.68038 0.44974 0.11864 0.0
H5871 H 0.72712 0.47887 0.10925 0.0
H5872 H 0.71351 0.46582 0.10391 0.0
H5873 H 0.68715 0.46281 0.12738 0.0
H5874 H 0.65365 0.41969 0.12043 0.0
H5875 H 0.66842 0.4317 0.12461 0.0
H5876 H 0.69341 0.43485 0.09995 0.0
C5877 C 0.71442 0.46772 0.11226 0.0
C5878 C 0.68868 0.45668 0.12146 0.0
C5879 C 0.72223 0.47518 0.11532 0.0
C5880 C 0.65831 0.42296 0.11396 0.0
C5881 C 0.66679 0.42984 0.11636 0.0
C5882 C 0.69194 0.44098 0.10589 0.0
C5883 C 0.70758 0.46314 0.11986 0.0
C5884 C 0.69876 0.45581 0.11662 0.0
C5885 C 0.67314 0.43416 0.10823 0.0
C5886 C 0.68194 0.44174 0.11089 0.0
H5887 H 0.71752 0.47541 0.142 0.0
H5888 H 0.70401 0.46234 0.1367 0.0
H5889 H 0.70797 0.44701 0.10491 0.0
H5890 H 0.66073 0.42254 0.08699 0.0
H5891 H 0.67563 0.43458 0.0912 0.0
C5892 C 0.3119 0.95413 0.85512 0.0
C5893 C 0.30597 0.95836 0.86364 0.0
C5894 C 0.3228 0.95212 0.85623 0.0
C5895 C 0.34249 0.94594 0.87678 0.0
H5896 H 0.36285 0.94954 0.85386 0.0
C5897 C 0.38576 0.93156 0.8811 0.0
C5898 C 0.38971 0.92556 0.87248 0.0
C5899 C 0.37646 0.9376 0.88004 0.0
C5900 C 0.35725 0.94846 0.86032 0.0
H5901 H 0.30694 0.96412 0.8799 0.0
H5902 H 0.32602 0.96075 0.88178 0.0
H5903 H 0.34476 0.95649 0.85196 0.0
H5904 H 0.38722 0.92149 0.8559 0.0
H5905 H 0.37097 0.93196 0.85406 0.0
H5906 H 0.35481 0.93764 0.88502 0.0
C5907 C 0.3222 0.95888 0.87428 0.0
C5908 C 0.34689 0.95244 0.85923 0.0
C5909 C 0.31129 0.96091 0.87316 0.0
C5910 C 0.38444 0.92612 0.86265 0.0
C5911 C 0.37512 0.93214 0.8616 0.0
C5912 C 0.35282 0.94195 0.87785 0.0
C5913 C 0.32804 0.95429 0.86588 0.0
C5914 C 0.33934 0.95107 0.86738 0.0
C5915 C 0.37088 0.93775 0.87035 0.0
C5916 C 0.36028 0.943 0.86957 0.0
H5917 H 0.30806 0.9522 0.84764 0.0
H5918 H 0.32704 0.9485 0.84963 0.0
H5919 H 0.33683 0.9446 0.88314 0.0
H5920 H 0.38975 0.9314 0.88872 0.0
H5921 H 0.37352 0.94199 0.88688 0.0
C5922 C 0.19474 0.04115 0.36179 0.0
C5923 C 0.19925 0.03604 0.37063 0.0
C5924 C 0.18433 0.04512 0.36224 0.0
C5925 C 0.16468 0.05494 0.38152 0.0
H5926 H 0.14499 0.05323 0.3578 0.0
C5927 C 0.12285 0.07336 0.38442 0.0
C5928 C 0.11943 0.0793 0.37563 0.0
C5929 C 0.13177 0.06672 0.38365 0.0
C5930 C 0.15043 0.05384 0.36447 0.0
H5931 H 0.19629 0.03093 0.3868 0.0
H5932 H 0.17809 0.03775 0.38753 0.0
H5933 H 0.16218 0.04411 0.35672 0.0
H5934 H 0.12247 0.08273 0.35905 0.0
H5935 H 0.13813 0.07125 0.35771 0.0
H5936 H 0.15314 0.06488 0.38918 0.0
C5937 C 0.18263 0.03875 0.38028 0.0
C5938 C 0.16027 0.0486 0.36385 0.0
C5939 C 0.19302 0.03475 0.37982 0.0
C5940 C 0.12487 0.07816 0.36593 0.0
C5941 C 0.13384 0.07157 0.36517 0.0
C5942 C 0.15489 0.0602 0.38212 0.0
C5943 C 0.17823 0.04412 0.37155 0.0
C5944 C 0.16753 0.04916 0.37234 0.0
C5945 C 0.13752 0.06593 0.37408 0.0
C5946 C 0.14766 0.05978 0.37358 0.0
H5947 H 0.1993 0.04217 0.35455 0.0
H5948 H 0.1812 0.04929 0.3554 0.0
H5949 H 0.17017 0.05569 0.38813 0.0
H5950 H 0.11871 0.07396 0.39196 0.0
H5951 H 0.13424 0.06232 0.3906 0.0
C5952 C 0.38236 0.21326 0.44189 0.0
C5953 C 0.39198 0.21107 0.44716 0.0
C5954 C 0.38126 0.21103 0.43104 0.0
C5955 C 0.39649 0.20425 0.40652 0.0
H5956 H 0.37066 0.18881 0.3989 0.0
C5957 C 0.39325 0.17639 0.36994 0.0
C5958 C 0.38346 0.17572 0.36452 0.0
C5959 C 0.39426 0.18271 0.37908 0.0
C5960 C 0.37784 0.19328 0.40081 0.0
H5961 H 0.4082 0.20543 0.44506 0.0
H5962 H 0.40623 0.20133 0.42624 0.0
H5963 H 0.37245 0.1964 0.41663 0.0
H5964 H 0.36723 0.18167 0.36409 0.0
H5965 H 0.36899 0.19273 0.38005 0.0
H5966 H 0.40199 0.20081 0.39075 0.0
C5967 C 0.39954 0.20483 0.43043 0.0
C5968 C 0.37886 0.19765 0.411 0.0
C5969 C 0.40063 0.20705 0.44126 0.0
C5970 C 0.37483 0.18188 0.36819 0.0
C5971 C 0.37583 0.18821 0.37733 0.0
C5972 C 0.39547 0.19986 0.39632 0.0
C5973 C 0.38977 0.20658 0.42524 0.0
C5974 C 0.38828 0.20302 0.41404 0.0
C5975 C 0.38549 0.18851 0.38301 0.0
C5976 C 0.3862 0.19416 0.39342 0.0
H5977 H 0.37553 0.2163 0.44621 0.0
H5978 H 0.37367 0.2126 0.42725 0.0
H5979 H 0.40378 0.20848 0.40856 0.0
H5980 H 0.40001 0.17163 0.3674 0.0
H5981 H 0.40177 0.18266 0.38334 0.0
C5982 C 0.55404 0.64482 0.2401 0.0
C5983 C 0.55252 0.63372 0.24122 0.0
C5984 C 0.55998 0.64887 0.2316 0.0
C5985 C 0.57075 0.64196 0.20507 0.0
H5986 H 0.59255 0.66303 0.21196 0.0
C5987 C 0.5989 0.65945 0.17316 0.0
C5988 C 0.60979 0.65953 0.17585 0.0
C5989 C 0.59113 0.65751 0.1809 0.0
C5990 C 0.58649 0.65716 0.20991 0.0
H5991 H 0.55563 0.6182 0.23408 0.0
H5992 H 0.56605 0.62525 0.2193 0.0
H5993 H 0.58014 0.65711 0.2257 0.0
H5994 H 0.62105 0.65808 0.18882 0.0
H5995 H 0.6075 0.65464 0.20232 0.0
H5996 H 0.57731 0.64176 0.18937 0.0
C5997 C 0.56264 0.63083 0.22496 0.0
C5998 C 0.57932 0.65384 0.21775 0.0
C5999 C 0.55675 0.62679 0.23348 0.0
C6000 C 0.61272 0.65798 0.1865 0.0
C6001 C 0.60496 0.65611 0.19424 0.0
C6002 C 0.57789 0.64532 0.19722 0.0
C6003 C 0.56446 0.64191 0.22402 0.0
C6004 C 0.57147 0.64608 0.21546 0.0
C6005 C 0.59408 0.65569 0.1915 0.0
C6006 C 0.58594 0.65283 0.1996 0.0
H6007 H 0.55094 0.65036 0.24598 0.0
H6008 H 0.56117 0.65745 0.23103 0.0
H6009 H 0.56472 0.63604 0.20303 0.0
H6010 H 0.5964 0.66053 0.165 0.0
H6011 H 0.58281 0.65733 0.17856 0.0
C6012 C 0.11652 0.79975 0.94545 0.0
C6013 C 0.11494 0.78866 0.94654 0.0
C6014 C 0.11648 0.80447 0.93545 0.0
C6015 C 0.12027 0.79884 0.90701 0.0
H6016 H 0.10663 0.82649 0.90398 0.0
C6017 C 0.11892 0.82222 0.86714 0.0
C6018 C 0.12163 0.83313 0.86801 0.0
C6019 C 0.1172 0.81608 0.87627 0.0
C6020 C 0.1105 0.81879 0.90471 0.0
H6021 H 0.11214 0.77381 0.93793 0.0
H6022 H 0.1121 0.78211 0.92036 0.0
H6023 H 0.10528 0.81698 0.92076 0.0
H6024 H 0.1244 0.84622 0.87908 0.0
H6025 H 0.12151 0.83556 0.89493 0.0
H6026 H 0.12561 0.80077 0.89095 0.0
C6027 C 0.11342 0.78711 0.9273 0.0
C6028 C 0.10975 0.81335 0.91432 0.0
C6029 C 0.11345 0.78237 0.93735 0.0
C6030 C 0.12245 0.8378 0.87815 0.0
C6031 C 0.12068 0.83172 0.88723 0.0
C6032 C 0.12101 0.80429 0.89735 0.0
C6033 C 0.11486 0.79824 0.92626 0.0
C6034 C 0.11482 0.80343 0.91567 0.0
C6035 C 0.11804 0.8208 0.88641 0.0
C6036 C 0.11633 0.81444 0.89619 0.0
H6037 H 0.11795 0.80479 0.95234 0.0
H6038 H 0.11787 0.81302 0.93492 0.0
H6039 H 0.12432 0.79124 0.90782 0.0
H6040 H 0.11826 0.8184 0.85942 0.0
H6041 H 0.11513 0.80769 0.8754 0.0
C6042 C 0.95278 0.36519 0.73515 0.0
C6043 C 0.95435 0.37605 0.73778 0.0
C6044 C 0.94662 0.36227 0.72631 0.0
C6045 C 0.92485 0.37289 0.71004 0.0
H6046 H 0.93146 0.34959 0.69065 0.0
C6047 C 0.89938 0.36545 0.67309 0.0
C6048 C 0.89657 0.35483 0.67062 0.0
C6049 C 0.90718 0.36768 0.68068 0.0
C6050 C 0.92946 0.35605 0.69607 0.0
H6051 H 0.95131 0.39235 0.7328 0.0
H6052 H 0.9406 0.38728 0.71742 0.0
H6053 H 0.94395 0.35417 0.70496 0.0
H6054 H 0.9 0.33818 0.67384 0.0
H6055 H 0.91362 0.34206 0.68732 0.0
H6056 H 0.91036 0.37473 0.70136 0.0
C6057 C 0.94392 0.38101 0.7223 0.0
C6058 C 0.93662 0.35868 0.70424 0.0
C6059 C 0.95006 0.38391 0.73111 0.0
C6060 C 0.90202 0.34644 0.67561 0.0
C6061 C 0.90983 0.34867 0.6833 0.0
C6062 C 0.91772 0.37025 0.70194 0.0
C6063 C 0.94191 0.37017 0.71994 0.0
C6064 C 0.93442 0.3672 0.71126 0.0
C6065 C 0.91234 0.35934 0.68606 0.0
C6066 C 0.91996 0.36187 0.69478 0.0
H6067 H 0.95592 0.35894 0.74018 0.0
H6068 H 0.94517 0.35385 0.72473 0.0
H6069 H 0.92279 0.37932 0.71547 0.0
H6070 H 0.89547 0.37208 0.66918 0.0
H6071 H 0.90912 0.37598 0.6824 0.0
C6072 C 0.3969 0.79608 0.06205 0.0
C6073 C 0.39469 0.8035 0.05399 0.0
C6074 C 0.3952 0.79879 0.07273 0.0
C6075 C 0.37988 0.81748 0.08957 0.0
H6076 H 0.40225 0.81365 0.11047 0.0
C6077 C 0.38147 0.84271 0.12734 0.0
C6078 C 0.38381 0.83774 0.13705 0.0
C6079 C 0.3825 0.83713 0.11779 0.0
C6080 C 0.39586 0.81461 0.10477 0.0
H6081 H 0.38872 0.81943 0.05078 0.0
H6082 H 0.38582 0.82416 0.0693 0.0
H6083 H 0.40441 0.80617 0.09256 0.0
H6084 H 0.38938 0.82307 0.14428 0.0
H6085 H 0.3913 0.81329 0.12743 0.0
H6086 H 0.37143 0.82611 0.1016 0.0
C6087 C 0.38885 0.81626 0.06742 0.0
C6088 C 0.3971 0.81032 0.09453 0.0
C6089 C 0.39063 0.8136 0.05681 0.0
C6090 C 0.38753 0.82712 0.13693 0.0
C6091 C 0.38862 0.82152 0.12731 0.0
C6092 C 0.37865 0.82173 0.09975 0.0
C6093 C 0.3911 0.8089 0.0755 0.0
C6094 C 0.38925 0.81201 0.08674 0.0
C6095 C 0.38596 0.82644 0.11765 0.0
C6096 C 0.38676 0.82063 0.10737 0.0
H6097 H 0.40006 0.78825 0.06009 0.0
H6098 H 0.39698 0.79297 0.07881 0.0
H6099 H 0.37359 0.81869 0.0838 0.0
H6100 H 0.37887 0.85097 0.12711 0.0
H6101 H 0.38066 0.84124 0.11047 0.0
C6102 C 0.95302 0.64596 0.76745 0.0
C6103 C 0.96312 0.64233 0.77069 0.0
C6104 C 0.94535 0.64896 0.77493 0.0
C6105 C 0.94145 0.65729 0.80277 0.0
H6106 H 0.91301 0.64556 0.7987 0.0
C6107 C 0.90907 0.6583 0.83557 0.0
C6108 C 0.89836 0.65944 0.83248 0.0
C6109 C 0.91711 0.65721 0.82794 0.0
C6110 C 0.92085 0.64907 0.79988 0.0
H6111 H 0.97314 0.6393 0.78438 0.0
H6112 H 0.95974 0.64468 0.79747 0.0
H6113 H 0.92683 0.64192 0.78561 0.0
H6114 H 0.88773 0.66083 0.819 0.0
H6115 H 0.90177 0.65918 0.80567 0.0
H6116 H 0.93545 0.66448 0.81705 0.0
C6117 C 0.95781 0.64521 0.7891 0.0
C6118 C 0.92878 0.64695 0.79238 0.0
C6119 C 0.96548 0.64214 0.78161 0.0
C6120 C 0.8959 0.65983 0.82161 0.0
C6121 C 0.90395 0.65883 0.81398 0.0
C6122 C 0.93347 0.65949 0.81026 0.0
C6123 C 0.9476 0.64848 0.78584 0.0
C6124 C 0.93918 0.651 0.79376 0.0
C6125 C 0.91464 0.65731 0.81705 0.0
C6126 C 0.92308 0.65536 0.80893 0.0
H6127 H 0.95101 0.64645 0.7591 0.0
H6128 H 0.93763 0.65163 0.77217 0.0
H6129 H 0.94936 0.66061 0.80399 0.0
H6130 H 0.91118 0.65783 0.84389 0.0
H6131 H 0.92522 0.6559 0.83061 0.0
C6132 C 0.12004 0.1982 0.56092 0.0
C6133 C 0.11386 0.20689 0.55753 0.0
C6134 C 0.12164 0.19636 0.57169 0.0
C6135 C 0.10983 0.2004 0.59781 0.0
H6136 H 0.13758 0.1905 0.60713 0.0
C6137 C 0.11874 0.18331 0.64017 0.0
C6138 C 0.1239 0.17331 0.63972 0.0
C6139 C 0.11767 0.18953 0.63099 0.0
C6140 C 0.1298 0.19331 0.60467 0.0
H6141 H 0.10458 0.22055 0.56278 0.0
H6142 H 0.10733 0.21723 0.58181 0.0
H6143 H 0.13558 0.19783 0.58936 0.0
H6144 H 0.13146 0.16184 0.6291 0.0
H6145 H 0.12988 0.17274 0.61336 0.0
H6146 H 0.10402 0.19547 0.61308 0.0
C6147 C 0.11092 0.21188 0.57604 0.0
C6148 C 0.12865 0.19749 0.5945 0.0
C6149 C 0.1094 0.2138 0.56519 0.0
C6150 C 0.12778 0.16964 0.62987 0.0
C6151 C 0.12684 0.17588 0.62081 0.0
C6152 C 0.111 0.19621 0.60805 0.0
C6153 C 0.11709 0.20314 0.57939 0.0
C6154 C 0.11858 0.20069 0.5908 0.0
C6155 C 0.12185 0.18591 0.62126 0.0
C6156 C 0.12092 0.19225 0.6114 0.0
H6157 H 0.12368 0.19282 0.5552 0.0
H6158 H 0.12631 0.18947 0.574 0.0
H6159 H 0.10197 0.20279 0.59516 0.0
H6160 H 0.11565 0.18637 0.64763 0.0
H6161 H 0.11375 0.19723 0.63152 0.0
C6162 C 0.55949 0.3814 0.27406 0.0
C6163 C 0.55381 0.37421 0.26754 0.0
C6164 C 0.56559 0.37767 0.28253 0.0
C6165 C 0.57039 0.35445 0.29999 0.0
H6166 H 0.59866 0.36705 0.30232 0.0
C6167 C 0.59897 0.34794 0.33573 0.0
C6168 C 0.60996 0.34735 0.33353 0.0
C6169 C 0.59167 0.35005 0.32761 0.0
C6170 C 0.59084 0.36337 0.30172 0.0
H6171 H 0.54977 0.35747 0.26503 0.0
H6172 H 0.56044 0.35095 0.27987 0.0
H6173 H 0.58653 0.37328 0.28866 0.0
H6174 H 0.62183 0.34773 0.32101 0.0
H6175 H 0.60911 0.35133 0.30684 0.0
H6176 H 0.57482 0.34446 0.31305 0.0
C6177 C 0.56011 0.35949 0.27846 0.0
C6178 C 0.58382 0.36705 0.29398 0.0
C6179 C 0.55399 0.36323 0.26996 0.0
C6180 C 0.61343 0.34832 0.32297 0.0
C6181 C 0.60615 0.35041 0.31486 0.0
C6182 C 0.57743 0.35079 0.3078 0.0
C6183 C 0.56616 0.36665 0.28469 0.0
C6184 C 0.57351 0.36267 0.29303 0.0
C6185 C 0.59523 0.35161 0.31713 0.0
C6186 C 0.58774 0.3552 0.30873 0.0
H6187 H 0.55934 0.38993 0.27253 0.0
H6188 H 0.56997 0.38343 0.28733 0.0
H6189 H 0.56248 0.35096 0.29948 0.0
H6190 H 0.59607 0.34732 0.34381 0.0
H6191 H 0.58332 0.35099 0.32962 0.0
C6192 C 0.44725 0.38106 0.21699 0.0
C6193 C 0.45387 0.39009 0.21575 0.0
C6194 C 0.43703 0.38081 0.21254 0.0
C6195 C 0.41582 0.39792 0.20119 0.0
H6196 H 0.40805 0.37205 0.18579 0.0
C6197 C 0.38145 0.39627 0.1706 0.0
C6198 C 0.37526 0.38687 0.16998 0.0
C6199 C 0.39038 0.3968 0.17724 0.0
C6200 C 0.41 0.37928 0.1902 0.0
H6201 H 0.45475 0.40612 0.20926 0.0
H6202 H 0.43699 0.40562 0.20136 0.0
H6203 H 0.42475 0.37273 0.19563 0.0
H6204 H 0.37331 0.37082 0.17617 0.0
H6205 H 0.38886 0.37174 0.18781 0.0
H6206 H 0.40111 0.40451 0.19562 0.0
C6207 C 0.43967 0.39875 0.20582 0.0
C6208 C 0.41959 0.37967 0.19584 0.0
C6209 C 0.4499 0.39899 0.21024 0.0
C6210 C 0.37802 0.37811 0.17636 0.0
C6211 C 0.38694 0.37864 0.18301 0.0
C6212 C 0.40621 0.39753 0.19555 0.0
C6213 C 0.43318 0.38959 0.20677 0.0
C6214 C 0.42267 0.38902 0.20133 0.0
C6215 C 0.39331 0.38794 0.18343 0.0
C6216 C 0.40323 0.38823 0.18991 0.0
H6217 H 0.45009 0.37404 0.22111 0.0
H6218 H 0.43218 0.37368 0.21352 0.0
H6219 H 0.4179 0.4052 0.20546 0.0
H6220 H 0.3796 0.40311 0.16569 0.0
H6221 H 0.39519 0.40403 0.17726 0.0
C6222 C 0.37261 0.73162 0.9594 0.0
C6223 C 0.37159 0.72936 0.97028 0.0
C6224 C 0.37006 0.72391 0.95174 0.0
C6225 C 0.35492 0.69869 0.94767 0.0
H6226 H 0.37221 0.69689 0.92217 0.0
C6227 C 0.35042 0.66504 0.91591 0.0
C6228 C 0.35085 0.66823 0.90521 0.0
C6229 C 0.35262 0.67236 0.92408 0.0
C6230 C 0.36725 0.69736 0.9292 0.0
H6231 H 0.36711 0.71712 0.98162 0.0
H6232 H 0.36293 0.70351 0.96821 0.0
H6233 H 0.37703 0.70962 0.9361 0.0
H6234 H 0.35352 0.68176 0.89478 0.0
H6235 H 0.3575 0.69447 0.90903 0.0
H6236 H 0.34523 0.68629 0.94075 0.0
C6237 C 0.36554 0.71135 0.96562 0.0
C6238 C 0.37 0.70467 0.93719 0.0
C6239 C 0.36806 0.71911 0.97331 0.0
C6240 C 0.35332 0.67897 0.90291 0.0
C6241 C 0.35558 0.68626 0.91107 0.0
C6242 C 0.35222 0.69131 0.93969 0.0
C6243 C 0.36651 0.71366 0.95474 0.0
C6244 C 0.36381 0.70551 0.94648 0.0
C6245 C 0.35537 0.68301 0.92173 0.0
C6246 C 0.3583 0.69065 0.93033 0.0
H6247 H 0.37547 0.73936 0.95676 0.0
H6248 H 0.37077 0.72603 0.94345 0.0
H6249 H 0.34991 0.69921 0.95466 0.0
H6250 H 0.3487 0.6568 0.91797 0.0
H6251 H 0.35249 0.6696 0.93221 0.0
C6252 C 0.05537 0.60336 0.70029 0.0
C6253 C 0.05015 0.61285 0.7033 0.0
C6254 C 0.06623 0.60345 0.69779 0.0
C6255 C 0.09121 0.61936 0.69974 0.0
H6256 H 0.09795 0.60536 0.67301 0.0
C6257 C 0.12913 0.62899 0.67543 0.0
C6258 C 0.13375 0.62086 0.66919 0.0
C6259 C 0.11976 0.62707 0.68115 0.0
C6260 C 0.09631 0.60913 0.6806 0.0
H6261 H 0.05238 0.62981 0.70648 0.0
H6262 H 0.07137 0.62996 0.70216 0.0
H6263 H 0.08011 0.60369 0.68037 0.0
H6264 H 0.13236 0.60416 0.66449 0.0
H6265 H 0.11625 0.6007 0.67475 0.0
H6266 H 0.10741 0.62491 0.69988 0.0
C6267 C 0.06706 0.62243 0.7018 0.0
C6268 C 0.08604 0.60818 0.68481 0.0
C6269 C 0.05617 0.62234 0.70427 0.0
C6270 C 0.12907 0.6106 0.66925 0.0
C6271 C 0.11974 0.60866 0.67503 0.0
C6272 C 0.10153 0.62025 0.69555 0.0
C6273 C 0.07214 0.61303 0.69827 0.0
C6274 C 0.08333 0.6134 0.69435 0.0
C6275 C 0.1148 0.61694 0.68083 0.0
C6276 C 0.10416 0.61526 0.68585 0.0
H6277 H 0.05101 0.59587 0.69967 0.0
H6278 H 0.06997 0.59604 0.69529 0.0
H6279 H 0.08938 0.62337 0.70717 0.0
H6280 H 0.13262 0.63694 0.67571 0.0
H6281 H 0.11617 0.63367 0.68546 0.0
C6282 C 0.13493 0.27558 0.46207 0.0
C6283 C 0.13665 0.27764 0.47293 0.0
C6284 C 0.13752 0.28323 0.45446 0.0
C6285 C 0.15377 0.30764 0.45006 0.0
H6286 H 0.13503 0.31073 0.42579 0.0
C6287 C 0.16536 0.33236 0.41292 0.0
C6288 C 0.15721 0.33809 0.40785 0.0
C6289 C 0.16295 0.32539 0.42126 0.0
C6290 C 0.1403 0.31007 0.43256 0.0
H6291 H 0.14245 0.28944 0.48427 0.0
H6292 H 0.14671 0.30297 0.47096 0.0
H6293 H 0.13041 0.29813 0.43968 0.0
H6294 H 0.14024 0.34142 0.40786 0.0
H6295 H 0.13606 0.32943 0.42247 0.0
H6296 H 0.16353 0.31981 0.44302 0.0
C6297 C 0.14351 0.29532 0.46835 0.0
C6298 C 0.13772 0.30272 0.44047 0.0
C6299 C 0.14095 0.28762 0.47599 0.0
C6300 C 0.14666 0.33693 0.41147 0.0
C6301 C 0.14427 0.33004 0.41983 0.0
C6302 C 0.15633 0.31504 0.44215 0.0
C6303 C 0.14182 0.29321 0.45748 0.0
C6304 C 0.14445 0.30135 0.44929 0.0
C6305 C 0.15235 0.32408 0.42475 0.0
C6306 C 0.14964 0.31633 0.43328 0.0
H6307 H 0.13148 0.26805 0.45942 0.0
H6308 H 0.13624 0.28127 0.44617 0.0
H6309 H 0.15918 0.30672 0.4567 0.0
H6310 H 0.17356 0.33308 0.41025 0.0
H6311 H 0.16937 0.32084 0.42478 0.0
C6312 C 0.44876 0.60495 0.29656 0.0
C6313 C 0.45304 0.61449 0.29244 0.0
C6314 C 0.4385 0.60475 0.30091 0.0
C6315 C 0.41311 0.61995 0.30252 0.0
H6316 H 0.40978 0.60481 0.32912 0.0
C6317 C 0.37778 0.62689 0.33126 0.0
C6318 C 0.37356 0.61799 0.33663 0.0
C6319 C 0.38683 0.62584 0.32484 0.0
C6320 C 0.41052 0.60894 0.32161 0.0
H6321 H 0.44982 0.63126 0.2895 0.0
H6322 H 0.43195 0.63095 0.29717 0.0
H6323 H 0.42676 0.60411 0.31976 0.0
H6324 H 0.37539 0.60095 0.33929 0.0
H6325 H 0.3911 0.59908 0.32797 0.0
H6326 H 0.39689 0.62497 0.30454 0.0
C6327 C 0.43646 0.62357 0.29689 0.0
C6328 C 0.42026 0.60853 0.31623 0.0
C6329 C 0.44671 0.62376 0.2925 0.0
C6330 C 0.3784 0.60794 0.3352 0.0
C6331 C 0.38747 0.6069 0.32881 0.0
C6332 C 0.40336 0.62038 0.30792 0.0
C6333 C 0.43229 0.6141 0.30128 0.0
C6334 C 0.42171 0.6141 0.30666 0.0
C6335 C 0.39187 0.61586 0.32368 0.0
C6336 C 0.40199 0.61494 0.31757 0.0
H6337 H 0.45338 0.59763 0.29646 0.0
H6338 H 0.43546 0.59728 0.30404 0.0
H6339 H 0.41391 0.62421 0.29509 0.0
H6340 H 0.37416 0.63471 0.33212 0.0
H6341 H 0.39006 0.63292 0.32107 0.0
C6342 C 0.12621 0.72557 0.04908 0.0
C6343 C 0.13332 0.73319 0.04489 0.0
C6344 C 0.12994 0.71729 0.05546 0.0
C6345 C 0.15387 0.7023 0.06368 0.0
H6346 H 0.13758 0.69812 0.08953 0.0
C6347 C 0.16803 0.67541 0.09859 0.0
C6348 C 0.16008 0.66939 0.10373 0.0
C6349 C 0.16524 0.68293 0.09086 0.0
C6350 C 0.14216 0.69907 0.08229 0.0
H6351 H 0.14999 0.73782 0.04374 0.0
H6352 H 0.15652 0.72328 0.05488 0.0
H6353 H 0.13181 0.71138 0.07675 0.0
H6354 H 0.1431 0.66601 0.10438 0.0
H6355 H 0.13827 0.67896 0.0909 0.0
H6356 H 0.16422 0.68991 0.06928 0.0
C6357 C 0.14806 0.72371 0.05318 0.0
C6358 C 0.13884 0.70668 0.07496 0.0
C6359 C 0.14432 0.73203 0.04679 0.0
C6360 C 0.14937 0.67074 0.10074 0.0
C6361 C 0.14661 0.67817 0.09302 0.0
C6362 C 0.15719 0.69462 0.07103 0.0
C6363 C 0.14087 0.71642 0.0578 0.0
C6364 C 0.14459 0.70833 0.06553 0.0
C6365 C 0.15447 0.6845 0.08811 0.0
C6366 C 0.1513 0.69285 0.08037 0.0
H6367 H 0.11771 0.72612 0.04759 0.0
H6368 H 0.12423 0.71166 0.05872 0.0
H6369 H 0.15845 0.70338 0.05646 0.0
H6370 H 0.17634 0.67452 0.10075 0.0
H6371 H 0.17149 0.68772 0.08726 0.0
C6372 C 0.05369 0.38927 0.80594 0.0
C6373 C 0.05261 0.39181 0.79514 0.0
C6374 C 0.06365 0.38959 0.81084 0.0
C6375 C 0.09254 0.38861 0.80571 0.0
H6376 H 0.09406 0.39993 0.83443 0.0
C6377 C 0.13198 0.39097 0.83014 0.0
C6378 C 0.13111 0.38706 0.84055 0.0
C6379 C 0.12281 0.3926 0.824 0.0
C6380 C 0.09376 0.39672 0.82642 0.0
H6381 H 0.06123 0.39655 0.78097 0.0
H6382 H 0.07875 0.39709 0.78959 0.0
H6383 H 0.0773 0.40078 0.82468 0.0
H6384 H 0.12001 0.38208 0.85279 0.0
H6385 H 0.10408 0.38486 0.84212 0.0
H6386 H 0.10903 0.38443 0.80757 0.0
C6387 C 0.07183 0.39481 0.79423 0.0
C6388 C 0.08416 0.39718 0.82084 0.0
C6389 C 0.06181 0.39449 0.78929 0.0
C6390 C 0.12093 0.38499 0.84475 0.0
C6391 C 0.1118 0.38669 0.83868 0.0
C6392 C 0.10219 0.38817 0.8113 0.0
C6393 C 0.07283 0.39246 0.80509 0.0
C6394 C 0.08336 0.3929 0.81052 0.0
C6395 C 0.11262 0.39048 0.82823 0.0
C6396 C 0.10282 0.392 0.82181 0.0
H6397 H 0.04681 0.38692 0.81061 0.0
H6398 H 0.06418 0.38747 0.81915 0.0
H6399 H 0.09217 0.3852 0.79779 0.0
H6400 H 0.13974 0.39261 0.8267 0.0
H6401 H 0.12367 0.39558 0.81598 0.0
C6402 C 0.35935 0.28363 0.53401 0.0
C6403 C 0.37021 0.28102 0.53305 0.0
C6404 C 0.35592 0.29083 0.54185 0.0
C6405 C 0.36436 0.30218 0.56772 0.0
H6406 H 0.34185 0.32275 0.56268 0.0
C6407 C 0.34718 0.32751 0.60186 0.0
C6408 C 0.3455 0.33842 0.59982 0.0
C6409 C 0.34928 0.32036 0.59355 0.0
C6410 C 0.34819 0.31709 0.5642 0.0
H6411 H 0.38605 0.28428 0.53924 0.0
H6412 H 0.38011 0.29691 0.55281 0.0
H6413 H 0.34773 0.31102 0.54826 0.0
H6414 H 0.34446 0.35036 0.58744 0.0
H6415 H 0.34823 0.33791 0.57292 0.0
H6416 H 0.36508 0.30841 0.58354 0.0
C6417 C 0.37419 0.29321 0.54769 0.0
C6418 C 0.35148 0.31028 0.55596 0.0
C6419 C 0.3776 0.286 0.53989 0.0
C6420 C 0.34561 0.34197 0.58925 0.0
C6421 C 0.34777 0.33483 0.58093 0.0
C6422 C 0.3611 0.30897 0.57593 0.0
C6423 C 0.36329 0.29559 0.54888 0.0
C6424 C 0.35965 0.30279 0.55761 0.0
C6425 C 0.34981 0.32396 0.583 0.0
C6426 C 0.35299 0.31653 0.57428 0.0
H6427 H 0.35345 0.27984 0.52892 0.0
H6428 H 0.34746 0.2924 0.54261 0.0
H6429 H 0.37056 0.29639 0.56933 0.0
H6430 H 0.34699 0.32452 0.60992 0.0
H6431 H 0.35058 0.31201 0.59542 0.0
C6432 C 0.21234 0.44778 0.38751 0.0
C6433 C 0.20959 0.45352 0.39674 0.0
C6434 C 0.21076 0.43669 0.38694 0.0
C6435 C 0.2049 0.41255 0.40321 0.0
H6436 H 0.19043 0.40267 0.37775 0.0
C6437 C 0.17818 0.3749 0.40171 0.0
C6438 C 0.1776 0.36891 0.39224 0.0
C6439 C 0.18445 0.38417 0.4023 0.0
C6440 C 0.19466 0.40521 0.38483 0.0
H6441 H 0.20361 0.45204 0.41283 0.0
H6442 H 0.20064 0.43277 0.41178 0.0
H6443 H 0.19718 0.42093 0.37867 0.0
H6444 H 0.18374 0.36754 0.37619 0.0
H6445 H 0.19473 0.38372 0.37721 0.0
H6446 H 0.20203 0.39688 0.40949 0.0
C6447 C 0.20409 0.43679 0.40499 0.0
C6448 C 0.19854 0.4157 0.38536 0.0
C6449 C 0.20566 0.44787 0.40555 0.0
C6450 C 0.18389 0.37208 0.38355 0.0
C6451 C 0.19017 0.38135 0.38413 0.0
C6452 C 0.20101 0.40204 0.40268 0.0
C6453 C 0.20641 0.4311 0.39561 0.0
C6454 C 0.20351 0.41957 0.39464 0.0
C6455 C 0.19029 0.38766 0.39342 0.0
C6456 C 0.19564 0.39832 0.39357 0.0
H6457 H 0.21533 0.4519 0.38057 0.0
H6458 H 0.21275 0.43252 0.37964 0.0
H6459 H 0.20884 0.41524 0.41041 0.0
H6460 H 0.17333 0.37275 0.40851 0.0
H6461 H 0.18425 0.3889 0.40953 0.0
C6462 C 0.70935 0.05802 0.60011 0.0
C6463 C 0.7116 0.05277 0.60969 0.0
C6464 C 0.70743 0.06903 0.6 0.0
C6465 C 0.70969 0.0941 0.6159 0.0
H6466 H 0.6844 0.10218 0.60018 0.0
C6467 C 0.6858 0.13259 0.62451 0.0
C6468 C 0.68052 0.13767 0.61608 0.0
C6469 C 0.69145 0.12312 0.62278 0.0
C6470 C 0.69161 0.10015 0.60444 0.0
H6471 H 0.71397 0.05505 0.62661 0.0
H6472 H 0.71058 0.07427 0.62642 0.0
H6473 H 0.69098 0.08395 0.59889 0.0
H6474 H 0.67754 0.13707 0.59912 0.0
H6475 H 0.68765 0.1207 0.59606 0.0
H6476 H 0.71015 0.11029 0.62165 0.0
C6477 C 0.71042 0.06989 0.61897 0.0
C6478 C 0.69539 0.08967 0.60371 0.0
C6479 C 0.71236 0.05887 0.61908 0.0
C6480 C 0.68155 0.13339 0.60578 0.0
C6481 C 0.68723 0.12393 0.60405 0.0
C6482 C 0.70593 0.10462 0.61662 0.0
C6483 C 0.7077 0.07505 0.60946 0.0
C6484 C 0.70437 0.08647 0.60955 0.0
C6485 C 0.69201 0.11853 0.61257 0.0
C6486 C 0.69674 0.10772 0.61102 0.0
H6487 H 0.70891 0.05358 0.5927 0.0
H6488 H 0.70555 0.07281 0.59251 0.0
H6489 H 0.71672 0.09192 0.62039 0.0
H6490 H 0.6853 0.13578 0.63251 0.0
H6491 H 0.69497 0.11915 0.62955 0.0
C6492 C 0.72254 0.96701 0.35956 0.0
C6493 C 0.7271 0.96754 0.36975 0.0
C6494 C 0.71442 0.9596 0.35732 0.0
C6495 C 0.6939 0.94274 0.37011 0.0
H6496 H 0.69639 0.92488 0.34493 0.0
C6497 C 0.66978 0.90379 0.36527 0.0
C6498 C 0.66573 0.9011 0.35519 0.0
C6499 C 0.67676 0.91245 0.36656 0.0
C6500 C 0.69547 0.9299 0.35191 0.0
H6501 H 0.7265 0.96101 0.38565 0.0
H6502 H 0.71235 0.94811 0.38175 0.0
H6503 H 0.7093 0.93928 0.34803 0.0
H6504 H 0.66589 0.90541 0.33853 0.0
H6505 H 0.67792 0.92071 0.34082 0.0
H6506 H 0.68013 0.93339 0.37404 0.0
C6507 C 0.71504 0.9534 0.37549 0.0
C6508 C 0.70287 0.93815 0.35368 0.0
C6509 C 0.7232 0.96071 0.3777 0.0
C6510 C 0.66881 0.90732 0.34642 0.0
C6511 C 0.67578 0.91602 0.34771 0.0
C6512 C 0.68648 0.93454 0.36831 0.0
C6513 C 0.71061 0.95269 0.36526 0.0
C6514 C 0.70226 0.94454 0.36289 0.0
C6515 C 0.67982 0.9187 0.35781 0.0
C6516 C 0.68728 0.9279 0.35929 0.0
H6517 H 0.72544 0.97213 0.35327 0.0
H6518 H 0.7111 0.95928 0.34938 0.0
H6519 H 0.69312 0.94765 0.37719 0.0
H6520 H 0.66747 0.89928 0.37223 0.0
H6521 H 0.67983 0.91418 0.37443 0.0
C6522 C 0.78422 0.94494 0.12323 0.0
C6523 C 0.78594 0.95164 0.11445 0.0
C6524 C 0.78795 0.93441 0.12315 0.0
C6525 C 0.7977 0.91265 0.10558 0.0
H6526 H 0.81309 0.90371 0.13069 0.0
C6527 C 0.82669 0.87675 0.10581 0.0
C6528 C 0.82756 0.87068 0.11512 0.0
C6529 C 0.8202 0.88582 0.10555 0.0
C6530 C 0.80865 0.90597 0.12368 0.0
H6531 H 0.79253 0.95238 0.09855 0.0
H6532 H 0.79915 0.93403 0.09846 0.0
H6533 H 0.80426 0.92102 0.13058 0.0
H6534 H 0.82182 0.86897 0.13126 0.0
H6535 H 0.81034 0.8847 0.13078 0.0
H6536 H 0.80222 0.89763 0.09864 0.0
C6537 C 0.79488 0.93691 0.10539 0.0
C6538 C 0.8036 0.91592 0.12362 0.0
C6539 C 0.79119 0.94746 0.10548 0.0
C6540 C 0.82143 0.8736 0.12402 0.0
C6541 C 0.81489 0.88262 0.12375 0.0
C6542 C 0.80273 0.90266 0.10566 0.0
C6543 C 0.79344 0.93031 0.11429 0.0
C6544 C 0.79817 0.91942 0.11453 0.0
C6545 C 0.81438 0.889 0.11459 0.0
C6546 C 0.80837 0.89925 0.11468 0.0
H6547 H 0.78027 0.94794 0.13029 0.0
H6548 H 0.78662 0.92949 0.13009 0.0
H6549 H 0.79346 0.91507 0.0985 0.0
H6550 H 0.83141 0.87476 0.09886 0.0
H6551 H 0.82011 0.8906 0.0984 0.0
C6552 C 0.27297 0.55152 0.36878 0.0
C6553 C 0.27595 0.541 0.37134 0.0
C6554 C 0.28064 0.55908 0.36582 0.0
C6555 C 0.30789 0.56227 0.35541 0.0
H6556 H 0.30655 0.59006 0.36926 0.0
C6557 C 0.34215 0.59341 0.35283 0.0
C6558 C 0.33945 0.60431 0.35266 0.0
C6559 C 0.33429 0.58559 0.35435 0.0
C6560 C 0.30696 0.58242 0.36517 0.0
H6561 H 0.28936 0.53013 0.37255 0.0
H6562 H 0.30276 0.54334 0.36721 0.0
H6563 H 0.29308 0.57656 0.37321 0.0
H6564 H 0.32636 0.61557 0.35348 0.0
H6565 H 0.31258 0.60194 0.35587 0.0
H6566 H 0.32173 0.56815 0.3473 0.0
C6567 C 0.29445 0.54569 0.3675 0.0
C6568 C 0.29925 0.57467 0.36747 0.0
C6569 C 0.28677 0.53813 0.37054 0.0
C6570 C 0.32868 0.60723 0.35372 0.0
C6571 C 0.3208 0.59941 0.35514 0.0
C6572 C 0.31558 0.57007 0.35304 0.0
C6573 C 0.29147 0.55628 0.36525 0.0
C6574 C 0.29964 0.5645 0.36264 0.0
C6575 C 0.32352 0.5885 0.35565 0.0
C6576 C 0.31522 0.58024 0.35791 0.0
H6577 H 0.26469 0.55395 0.36906 0.0
H6578 H 0.27809 0.56713 0.36395 0.0
H6579 H 0.30833 0.55453 0.35149 0.0
H6580 H 0.35041 0.59094 0.35216 0.0
H6581 H 0.3367 0.57729 0.35485 0.0
C6582 C 0.2917 0.55988 0.90127 0.0
C6583 C 0.28723 0.55602 0.89175 0.0
C6584 C 0.29602 0.57019 0.90186 0.0
C6585 C 0.29717 0.59642 0.88812 0.0
H6586 H 0.32467 0.59876 0.90209 0.0
C6587 C 0.32627 0.63191 0.88185 0.0
C6588 C 0.33234 0.6355 0.89057 0.0
C6589 C 0.31963 0.62293 0.88273 0.0
C6590 C 0.31691 0.59831 0.89831 0.0
H6591 H 0.28354 0.56006 0.87544 0.0
H6592 H 0.29116 0.57806 0.87643 0.0
H6593 H 0.31508 0.58179 0.90229 0.0
H6594 H 0.33595 0.63266 0.90715 0.0
H6595 H 0.32422 0.6171 0.90875 0.0
H6596 H 0.29916 0.61293 0.88395 0.0
C6597 C 0.2912 0.57317 0.8835 0.0
C6598 C 0.31141 0.58857 0.89843 0.0
C6599 C 0.28684 0.56284 0.88292 0.0
C6600 C 0.33133 0.63014 0.9003 0.0
C6601 C 0.3247 0.62116 0.90119 0.0
C6602 C 0.3027 0.60618 0.88799 0.0
C6603 C 0.29601 0.57689 0.89292 0.0
C6604 C 0.30151 0.58747 0.89326 0.0
C6605 C 0.31892 0.61734 0.89236 0.0
C6606 C 0.31267 0.60721 0.89302 0.0
H6607 H 0.29194 0.55487 0.90826 0.0
H6608 H 0.29947 0.57289 0.9093 0.0
H6609 H 0.2895 0.59588 0.88418 0.0
H6610 H 0.32678 0.63595 0.87427 0.0
H6611 H 0.31535 0.62016 0.87576 0.0
C6612 C 0.73042 0.05705 0.1236 0.0
C6613 C 0.73681 0.05186 0.13114 0.0
C6614 C 0.72132 0.06264 0.12676 0.0
C6615 C 0.70995 0.07671 0.14975 0.0
H6616 H 0.6843 0.07677 0.13253 0.0
C6617 C 0.67317 0.10278 0.16025 0.0
C6618 C 0.66869 0.10837 0.15169 0.0
C6619 C 0.68079 0.0948 0.15844 0.0
C6620 C 0.69143 0.07688 0.1374 0.0
H6621 H 0.73855 0.0483 0.14788 0.0
H6622 H 0.72256 0.05803 0.15339 0.0
H6623 H 0.69879 0.06456 0.12809 0.0
H6624 H 0.66845 0.10975 0.13453 0.0
H6625 H 0.68183 0.09604 0.1314 0.0
H6626 H 0.70268 0.08921 0.15891 0.0
C6627 C 0.72465 0.05781 0.14505 0.0
C6628 C 0.69972 0.06988 0.13486 0.0
C6629 C 0.73374 0.05216 0.14188 0.0
C6630 C 0.67186 0.1057 0.1413 0.0
C6631 C 0.67943 0.09773 0.1395 0.0
C6632 C 0.70165 0.08373 0.15229 0.0
C6633 C 0.7184 0.06321 0.13753 0.0
C6634 C 0.70917 0.06986 0.14088 0.0
C6635 C 0.68402 0.09221 0.14804 0.0
C6636 C 0.69238 0.08404 0.14601 0.0
H6637 H 0.73251 0.05687 0.11526 0.0
H6638 H 0.71674 0.0668 0.12077 0.0
H6639 H 0.71717 0.07697 0.15448 0.0
H6640 H 0.67091 0.10469 0.16834 0.0
H6641 H 0.68413 0.09064 0.16518 0.0
C6642 C 0.78912 0.96872 0.63737 0.0
C6643 C 0.7782 0.96608 0.6378 0.0
C6644 C 0.79686 0.96121 0.64022 0.0
C6645 C 0.80079 0.9322 0.64175 0.0
H6646 H 0.82542 0.93938 0.65907 0.0
C6647 C 0.83029 0.89976 0.65491 0.0
C6648 C 0.84121 0.90235 0.65474 0.0
C6649 C 0.82261 0.90772 0.65365 0.0
C6650 C 0.81865 0.93727 0.65412 0.0
H6651 H 0.76686 0.95363 0.64211 0.0
H6652 H 0.78034 0.94052 0.64689 0.0
H6653 H 0.81208 0.95307 0.65532 0.0
H6654 H 0.85267 0.9153 0.65321 0.0
H6655 H 0.83927 0.92921 0.65077 0.0
H6656 H 0.80739 0.91652 0.64029 0.0
C6657 C 0.78292 0.94835 0.6442 0.0
C6658 C 0.81101 0.94511 0.652 0.0
C6659 C 0.7752 0.95586 0.64143 0.0
C6660 C 0.84429 0.9131 0.65348 0.0
C6661 C 0.83661 0.92107 0.65211 0.0
C6662 C 0.80846 0.9244 0.64378 0.0
C6663 C 0.79383 0.95089 0.6435 0.0
C6664 C 0.80198 0.94264 0.64582 0.0
C6665 C 0.82567 0.91846 0.65206 0.0
C6666 C 0.81748 0.92681 0.65002 0.0
H6667 H 0.79172 0.97647 0.63452 0.0
H6668 H 0.80521 0.96336 0.63953 0.0
H6669 H 0.79401 0.93011 0.6368 0.0
H6670 H 0.82769 0.89155 0.65603 0.0
H6671 H 0.81426 0.90545 0.65389 0.0
loop_
_geom_bond_atom_site_label_1
_geom_bond_atom_site_label_2
_geom_bond_distance
_geom_bond_site_symmetry_2
_ccdc_geom_bond_type
C0 C1 1.264 . S
C0 C5 1.479 . S
C0 C10 1.465 1_655 S
C1 C0 1.264 . S
C1 C3 1.339 . S
C1 H28 0.931 1_655 S
C2 C3 1.395 . S
C2 C4 1.320 . S
C3 C1 1.339 . S
C3 C2 1.395 . S
C3 H29 0.929 . S
C4 C2 1.320 . S
C4 C5 1.405 . S
C4 H30 0.930 . S
C5 C0 1.479 . S
C5 C4 1.405 . S
C5 H31 0.931 . S
U6 O7 2.454 . S
U6 O8 2.458 . S
U6 C9 2.984 . S
U6 C10 2.847 . S
U6 C23 2.882 . S
U6 O24 2.441 . S
U6 O25 2.420 . S
U6 O26 2.455 . S
U6 O27 2.449 . S
O7 U6 2.454 . S
O7 C9 1.353 . S
O8 U6 2.458 . S
O8 C9 1.286 . S
C9 U6 2.984 . S
C9 O7 1.353 . S
C9 O8 1.286 . S
C9 C11 1.363 . S
C10 C0 1.465 1_455 S
C10 U6 2.847 . S
C10 O24 1.249 . S
C10 O25 1.202 . S
C11 C9 1.363 . S
C11 C13 1.408 . S
C11 C16 1.342 . S
C12 C13 1.310 . S
C12 C15 1.461 . S
C12 H32 0.932 . S
C13 C11 1.408 . S
C13 C12 1.310 . S
C13 H33 0.930 . S
C14 C15 1.474 . S
C14 C16 1.285 . S
C14 H34 0.929 . S
C15 C12 1.461 . S
C15 C14 1.474 . S
C16 C11 1.342 . S
C16 C14 1.285 . S
C16 H35 0.930 . S
C17 C20 1.424 . S
C17 C22 1.245 . S
C17 C23 1.428 . S
C18 C21 1.260 . S
C18 C22 1.477 . S
C18 H36 0.932 . S
C19 C20 1.384 . S
C19 C21 1.479 . S
C19 H37 0.929 . S
C20 C17 1.424 . S
C20 C19 1.384 . S
C20 H38 0.928 . S
C21 C18 1.260 . S
C21 C19 1.479 . S
C22 C17 1.245 . S
C22 C18 1.477 . S
C22 H39 0.932 . S
C23 U6 2.882 . S
C23 C17 1.428 . S
C23 O26 1.301 . S
C23 O27 1.282 . S
O24 U6 2.441 . S
O24 C10 1.249 . S
O25 U6 2.420 . S
O25 C10 1.202 . S
O26 U6 2.455 . S
O26 C23 1.301 . S
O27 U6 2.449 . S
O27 C23 1.282 . S
H28 C1 0.931 1_455 S
H29 C3 0.929 . S
H30 C4 0.930 . S
H31 C5 0.931 . S
H32 C12 0.932 . S
H33 C13 0.930 . S
H34 C14 0.929 . S
H35 C16 0.930 . S
H36 C18 0.932 . S
H37 C19 0.929 . S
H38 C20 0.928 . S
H39 C22 0.932 . S
C40 C41 1.264 . S
C40 C45 1.479 . S
C40 C50 1.465 . S
C41 C40 1.264 . S
C41 C43 1.339 . S
C41 H68 0.931 . S
C42 C43 1.395 . S
C42 C44 1.320 . S
C43 C41 1.339 . S
C43 C42 1.395 . S
C43 H69 0.929 . S
C44 C42 1.320 . S
C44 C45 1.405 . S
C44 H70 0.930 . S
C45 C40 1.479 . S
C45 C44 1.405 . S
C45 H71 0.931 . S
U46 O47 2.454 . S
U46 O48 2.458 . S
U46 C49 2.984 . S
U46 C50 2.847 . S
U46 C63 2.882 . S
U46 O64 2.441 . S
U46 O65 2.420 . S
U46 O66 2.455 . S
U46 O67 2.449 . S
O47 U46 2.454 . S
O47 C49 1.353 . S
O48 U46 2.458 . S
O48 C49 1.286 . S
C49 U46 2.984 . S
C49 O47 1.353 . S
C49 O48 1.286 . S
C49 C51 1.363 . S
C50 C40 1.465 . S
C50 U46 2.847 . S
C50 O64 1.249 . S
C50 O65 1.202 . S
C51 C49 1.363 . S
C51 C53 1.408 . S
C51 C56 1.342 . S
C52 C53 1.310 . S
C52 C55 1.461 . S
C52 H72 0.932 . S
C53 C51 1.408 . S
C53 C52 1.310 . S
C53 H73 0.930 . S
C54 C55 1.474 . S
C54 C56 1.285 . S
C54 H74 0.929 . S
C55 C52 1.461 . S
C55 C54 1.474 . S
C56 C51 1.342 . S
C56 C54 1.285 . S
C56 H75 0.930 . S
C57 C60 1.424 . S
C57 C62 1.245 . S
C57 C63 1.428 . S
C58 C61 1.260 . S
C58 C62 1.477 . S
C58 H76 0.932 . S
C59 C60 1.384 . S
C59 C61 1.479 . S
C59 H77 0.929 . S
C60 C57 1.424 . S
C60 C59 1.384 . S
C60 H78 0.928 . S
C61 C58 1.260 . S
C61 C59 1.479 . S
C62 C57 1.245 . S
C62 C58 1.477 . S
C62 H79 0.932 . S
C63 U46 2.882 . S
C63 C57 1.428 . S
C63 O66 1.301 . S
C63 O67 1.282 . S
O64 U46 2.441 . S
O64 C50 1.249 . S
O65 U46 2.420 . S
O65 C50 1.202 . S
O66 U46 2.455 . S
O66 C63 1.301 . S
O67 U46 2.449 . S
O67 C63 1.282 . S
H68 C41 0.931 . S
H69 C43 0.929 . S
H70 C44 0.930 . S
H71 C45 0.931 . S
H72 C52 0.932 . S
H73 C53 0.930 . S
H74 C54 0.929 . S
H75 C56 0.930 . S
H76 C58 0.932 . S
H77 C59 0.929 . S
H78 C60 0.928 . S
H79 C62 0.932 . S
C80 C81 1.264 . S
C80 C85 1.479 . S
C80 C90 1.465 . S
C81 C80 1.264 . S
C81 C83 1.339 . S
C81 H108 0.931 . S
C82 C83 1.395 . S
C82 C84 1.320 . S
C83 C81 1.339 . S
C83 C82 1.395 . S
C83 H109 0.929 . S
C84 C82 1.320 . S
C84 C85 1.405 . S
C84 H110 0.930 . S
C85 C80 1.479 . S
C85 C84 1.405 . S
C85 H111 0.931 . S
U86 O87 2.454 . S
U86 O88 2.458 . S
U86 C89 2.984 . S
U86 C90 2.847 . S
U86 C103 2.882 . S
U86 O104 2.441 . S
U86 O105 2.420 . S
U86 O106 2.455 . S
U86 O107 2.449 . S
O87 U86 2.454 . S
O87 C89 1.353 . S
O88 U86 2.458 . S
O88 C89 1.286 . S
C89 U86 2.984 . S
C89 O87 1.353 . S
C89 O88 1.286 . S
C89 C91 1.363 . S
C90 C80 1.465 . S
C90 U86 2.847 . S
C90 O104 1.249 . S
C90 O105 1.202 . S
C91 C89 1.363 . S
C91 C93 1.408 . S
C91 C96 1.342 . S
C92 C93 1.310 . S
C92 C95 1.461 . S
C92 H112 0.932 . S
C93 C91 1.408 . S
C93 C92 1.310 . S
C93 H113 0.930 . S
C94 C95 1.474 . S
C94 C96 1.285 . S
C94 H114 0.929 . S
C95 C92 1.461 . S
C95 C94 1.474 . S
C96 C91 1.342 . S
C96 C94 1.285 . S
C96 H115 0.930 . S
C97 C100 1.424 . S
C97 C102 1.245 . S
C97 C103 1.428 . S
C98 C101 1.260 . S
C98 C102 1.477 . S
C98 H116 0.932 . S
C99 C100 1.384 . S
C99 C101 1.479 . S
C99 H117 0.929 . S
C100 C97 1.424 . S
C100 C99 1.384 . S
C100 H118 0.928 . S
C101 C98 1.260 . S
C101 C99 1.479 . S
C102 C97 1.245 . S
C102 C98 1.477 . S
C102 H119 0.932 . S
C103 U86 2.882 . S
C103 C97 1.428 . S
C103 O106 1.301 . S
C103 O107 1.282 . S
O104 U86 2.441 . S
O104 C90 1.249 . S
O105 U86 2.420 . S
O105 C90 1.202 . S
O106 U86 2.455 . S
O106 C103 1.301 . S
O107 U86 2.449 . S
O107 C103 1.282 . S
H108 C81 0.931 . S
H109 C83 0.929 . S
H110 C84 0.930 . S
H111 C85 0.931 . S
H112 C92 0.932 . S
H113 C93 0.930 . S
H114 C94 0.929 . S
H115 C96 0.930 . S
H116 C98 0.932 . S
H117 C99 0.929 . S
H118 C100 0.928 . S
H119 C102 0.932 . S
C120 C121 1.264 . S
C120 C125 1.479 . S
C120 C130 1.465 . S
C121 C120 1.264 . S
C121 C123 1.339 . S
C121 H148 0.931 . S
C122 C123 1.395 . S
C122 C124 1.320 . S
C123 C121 1.339 . S
C123 C122 1.395 . S
C123 H149 0.929 . S
C124 C122 1.320 . S
C124 C125 1.405 . S
C124 H150 0.930 . S
C125 C120 1.479 . S
C125 C124 1.405 . S
C125 H151 0.931 . S
U126 O127 2.454 . S
U126 O128 2.458 . S
U126 C129 2.984 . S
U126 C130 2.847 . S
U126 C143 2.882 . S
U126 O144 2.441 . S
U126 O145 2.420 . S
U126 O146 2.455 . S
U126 O147 2.449 . S
O127 U126 2.454 . S
O127 C129 1.353 . S
O128 U126 2.458 . S
O128 C129 1.286 . S
C129 U126 2.984 . S
C129 O127 1.353 . S
C129 O128 1.286 . S
C129 C131 1.363 1_554 S
C130 C120 1.465 . S
C130 U126 2.847 . S
C130 O144 1.249 . S
C130 O145 1.202 . S
C131 C129 1.363 1_556 S
C131 C133 1.408 . S
C131 C136 1.342 . S
C132 C133 1.310 . S
C132 C135 1.461 . S
C132 H152 0.932 . S
C133 C131 1.408 . S
C133 C132 1.310 . S
C133 H153 0.930 . S
C134 C135 1.474 . S
C134 C136 1.285 . S
C134 H154 0.929 . S
C135 C132 1.461 . S
C135 C134 1.474 . S
C136 C131 1.342 . S
C136 C134 1.285 . S
C136 H155 0.853 1_556 S
C137 C140 1.424 . S
C137 C142 1.245 . S
C137 C143 1.428 . S
C138 C141 1.260 . S
C138 C142 1.477 . S
C138 H156 0.932 . S
C139 C140 1.384 . S
C139 C141 1.479 . S
C139 H157 0.929 . S
C140 C137 1.424 . S
C140 C139 1.384 . S
C140 H158 0.928 . S
C141 C138 1.260 . S
C141 C139 1.479 . S
C142 C137 1.245 . S
C142 C138 1.477 . S
C142 H159 0.932 . S
C143 U126 2.882 . S
C143 C137 1.428 . S
C143 O146 1.301 . S
C143 O147 1.282 . S
O144 U126 2.441 . S
O144 C130 1.249 . S
O145 U126 2.420 . S
O145 C130 1.202 . S
O146 U126 2.455 . S
O146 C143 1.301 . S
O147 U126 2.449 . S
O147 C143 1.282 . S
H148 C121 0.931 . S
H149 C123 0.929 . S
H150 C124 0.930 . S
H151 C125 0.931 . S
H152 C132 0.932 . S
H153 C133 0.930 . S
H154 C134 0.929 . S
H155 C136 0.853 1_554 S
H156 C138 0.932 . S
H157 C139 0.929 . S
H158 C140 0.928 . S
H159 C142 0.932 . S
C160 C161 1.262 . S
C160 C165 1.409 1_455 S
C160 C170 1.537 . S
C161 C160 1.262 . S
C161 C163 1.318 1_455 S
C161 H188 0.950 . S
C162 C163 1.395 . S
C162 C164 1.320 . S
C163 C161 1.318 1_655 S
C163 C162 1.395 . S
C163 H189 0.929 . S
C164 C162 1.320 . S
C164 C165 1.405 . S
C164 H190 0.930 . S
C165 C160 1.409 1_655 S
C165 C164 1.405 . S
C165 H191 0.931 . S
U166 O167 2.454 . S
U166 O168 2.458 . S
U166 C169 2.984 . S
U166 C170 2.847 . S
U166 C183 2.882 . S
U166 O184 2.441 . S
U166 O185 2.420 . S
U166 O186 2.455 . S
U166 O187 2.449 . S
O167 U166 2.454 . S
O167 C169 1.353 . S
O168 U166 2.458 . S
O168 C169 1.286 . S
C169 U166 2.984 . S
C169 O167 1.353 . S
C169 O168 1.286 . S
C169 C171 1.363 . S
C170 C160 1.537 . S
C170 U166 2.847 . S
C170 O184 1.249 . S
C170 O185 1.202 . S
C171 C169 1.363 . S
C171 C173 1.408 . S
C171 C176 1.342 . S
C172 C173 1.310 . S
C172 C175 1.461 . S
C172 H192 0.932 . S
C173 C171 1.408 . S
C173 C172 1.310 . S
C173 H193 0.930 . S
C174 C175 1.474 . S
C174 C176 1.285 . S
C174 H194 0.929 . S
C175 C172 1.461 . S
C175 C174 1.474 . S
C176 C171 1.342 . S
C176 C174 1.285 . S
C176 H195 0.930 . S
C177 C180 1.424 . S
C177 C182 1.245 . S
C177 C183 1.428 . S
C178 C181 1.260 . S
C178 C182 1.477 . S
C178 H196 0.932 . S
C179 C180 1.384 . S
C179 C181 1.479 . S
C179 H197 0.929 . S
C180 C177 1.424 . S
C180 C179 1.384 . S
C180 H198 0.928 . S
C181 C178 1.260 . S
C181 C179 1.479 . S
C182 C177 1.245 . S
C182 C178 1.477 . S
C182 H199 0.932 . S
C183 U166 2.882 . S
C183 C177 1.428 . S
C183 O186 1.301 . S
C183 O187 1.282 . S
O184 U166 2.441 . S
O184 C170 1.249 . S
O185 U166 2.420 . S
O185 C170 1.202 . S
O186 U166 2.455 . S
O186 C183 1.301 . S
O187 U166 2.449 . S
O187 C183 1.282 . S
H188 C161 0.950 . S
H189 C163 0.929 . S
H190 C164 0.930 . S
H191 C165 0.931 . S
H192 C172 0.932 . S
H193 C173 0.930 . S
H194 C174 0.929 . S
H195 C176 0.930 . S
H196 C178 0.932 . S
H197 C179 0.929 . S
H198 C180 0.928 . S
H199 C182 0.932 . S
C200 C201 1.264 . S
C200 C205 1.479 . S
C200 C210 1.465 . S
C201 C200 1.264 . S
C201 C203 1.339 . S
C201 H228 0.931 . S
C202 C203 1.395 . S
C202 C204 1.320 . S
C203 C201 1.339 . S
C203 C202 1.395 . S
C203 H229 0.929 . S
C204 C202 1.320 . S
C204 C205 1.405 . S
C204 H230 0.930 . S
C205 C200 1.479 . S
C205 C204 1.405 . S
C205 H231 0.931 . S
U206 O207 2.454 . S
U206 O208 2.458 . S
U206 C209 2.984 . S
U206 C210 2.847 . S
U206 C223 2.882 . S
U206 O224 2.441 . S
U206 O225 2.420 . S
U206 O226 2.455 . S
U206 O227 2.449 . S
O207 U206 2.454 . S
O207 C209 1.353 . S
O208 U206 2.458 . S
O208 C209 1.286 . S
C209 U206 2.984 . S
C209 O207 1.353 . S
C209 O208 1.286 . S
C209 C211 1.363 . S
C210 C200 1.465 . S
C210 U206 2.847 . S
C210 O224 1.249 . S
C210 O225 1.202 . S
C211 C209 1.363 . S
C211 C213 1.408 . S
C211 C216 1.342 . S
C212 C213 1.310 . S
C212 C215 1.461 . S
C212 H232 0.932 . S
C213 C211 1.408 . S
C213 C212 1.310 . S
C213 H233 0.930 . S
C214 C215 1.474 . S
C214 C216 1.285 . S
C214 H234 0.929 . S
C215 C212 1.461 . S
C215 C214 1.474 . S
C216 C211 1.342 . S
C216 C214 1.285 . S
C216 H235 0.930 . S
C217 C220 1.424 . S
C217 C222 1.245 . S
C217 C223 1.428 . S
C218 C221 1.260 . S
C218 C222 1.477 . S
C218 H236 0.932 . S
C219 C220 1.384 . S
C219 C221 1.479 . S
C219 H237 0.929 . S
C220 C217 1.424 . S
C220 C219 1.384 . S
C220 H238 0.928 . S
C221 C218 1.260 . S
C221 C219 1.479 . S
C222 C217 1.245 . S
C222 C218 1.477 . S
C222 H239 0.932 . S
C223 U206 2.882 . S
C223 C217 1.428 . S
C223 O226 1.301 . S
C223 O227 1.282 . S
O224 U206 2.441 . S
O224 C210 1.249 . S
O225 U206 2.420 . S
O225 C210 1.202 . S
O226 U206 2.455 . S
O226 C223 1.301 . S
O227 U206 2.449 . S
O227 C223 1.282 . S
H228 C201 0.931 . S
H229 C203 0.929 . S
H230 C204 0.930 . S
H231 C205 0.931 . S
H232 C212 0.932 . S
H233 C213 0.930 . S
H234 C214 0.929 . S
H235 C216 0.930 . S
H236 C218 0.932 . S
H237 C219 0.929 . S
H238 C220 0.928 . S
H239 C222 0.932 . S
C240 C241 1.264 . S
C240 C245 1.479 . S
C240 C250 1.465 . S
C241 C240 1.264 . S
C241 C243 1.339 . S
C241 H268 0.931 . S
C242 C243 1.395 . S
C242 C244 1.320 . S
C243 C241 1.339 . S
C243 C242 1.395 . S
C243 H269 0.929 . S
C244 C242 1.320 . S
C244 C245 1.405 . S
C244 H270 0.930 . S
C245 C240 1.479 . S
C245 C244 1.405 . S
C245 H271 0.931 . S
U246 O247 2.454 . S
U246 O248 2.458 . S
U246 C249 2.984 . S
U246 C250 2.847 . S
U246 C263 2.882 . S
U246 O264 2.441 . S
U246 O265 2.420 . S
U246 O266 2.455 . S
U246 O267 2.449 . S
O247 U246 2.454 . S
O247 C249 1.353 . S
O248 U246 2.458 . S
O248 C249 1.286 . S
C249 U246 2.984 . S
C249 O247 1.353 . S
C249 O248 1.286 . S
C249 C251 1.363 . S
C250 C240 1.465 . S
C250 U246 2.847 . S
C250 O264 1.249 . S
C250 O265 1.202 . S
C251 C249 1.363 . S
C251 C253 1.408 . S
C251 C256 1.342 . S
C252 C253 1.310 . S
C252 C255 1.461 . S
C252 H272 0.932 . S
C253 C251 1.408 . S
C253 C252 1.310 . S
C253 H273 0.930 . S
C254 C255 1.474 . S
C254 C256 1.285 . S
C254 H274 0.929 . S
C255 C252 1.461 . S
C255 C254 1.474 . S
C256 C251 1.342 . S
C256 C254 1.285 . S
C256 H275 0.930 . S
C257 C260 1.424 . S
C257 C262 1.245 . S
C257 C263 1.428 . S
C258 C261 1.260 . S
C258 C262 1.477 . S
C258 H276 0.932 . S
C259 C260 1.384 . S
C259 C261 1.479 . S
C259 H277 0.929 . S
C260 C257 1.424 . S
C260 C259 1.384 . S
C260 H278 0.928 . S
C261 C258 1.260 . S
C261 C259 1.479 . S
C262 C257 1.245 . S
C262 C258 1.477 . S
C262 H279 0.932 . S
C263 U246 2.882 . S
C263 C257 1.428 . S
C263 O266 1.301 . S
C263 O267 1.282 . S
O264 U246 2.441 . S
O264 C250 1.249 . S
O265 U246 2.420 . S
O265 C250 1.202 . S
O266 U246 2.455 . S
O266 C263 1.301 . S
O267 U246 2.449 . S
O267 C263 1.282 . S
H268 C241 0.931 . S
H269 C243 0.929 . S
H270 C244 0.930 . S
H271 C245 0.931 . S
H272 C252 0.932 . S
H273 C253 0.930 . S
H274 C254 0.929 . S
H275 C256 0.930 . S
H276 C258 0.932 . S
H277 C259 0.929 . S
H278 C260 0.928 . S
H279 C262 0.932 . S
C280 C281 1.264 . S
C280 C285 1.479 . S
C280 C290 1.486 . S
C281 C280 1.264 . S
C281 C283 1.339 . S
C281 H308 0.931 . S
C282 C283 1.395 . S
C282 C284 1.320 . S
C283 C281 1.339 . S
C283 C282 1.395 . S
C283 H309 0.929 . S
C284 C282 1.320 . S
C284 C285 1.405 . S
C284 H310 0.930 . S
C285 C280 1.479 . S
C285 C284 1.405 . S
C285 H311 0.931 . S
U286 O287 2.454 . S
U286 O288 2.458 . S
U286 C289 2.984 . S
U286 C290 2.823 1_556 S
U286 C303 2.882 . S
U286 O304 2.441 . S
U286 O305 2.420 . S
U286 O306 2.455 . S
U286 O307 2.449 . S
O287 U286 2.454 . S
O287 C289 1.353 . S
O288 U286 2.458 . S
O288 C289 1.286 . S
C289 U286 2.984 . S
C289 O287 1.353 . S
C289 O288 1.286 . S
C289 C291 1.363 . S
C290 C280 1.486 . S
C290 U286 2.823 1_554 S
C290 O304 1.245 1_554 S
C290 O305 1.182 1_554 S
C291 C289 1.363 . S
C291 C293 1.408 . S
C291 C296 1.342 . S
C292 C293 1.310 . S
C292 C295 1.461 . S
C292 H312 0.932 . S
C293 C291 1.408 . S
C293 C292 1.310 . S
C293 H313 0.930 . S
C294 C295 1.474 . S
C294 C296 1.285 . S
C294 H314 0.929 . S
C295 C292 1.461 . S
C295 C294 1.474 . S
C296 C291 1.342 . S
C296 C294 1.285 . S
C296 H315 0.930 . S
C297 C300 1.424 . S
C297 C302 1.245 . S
C297 C303 1.428 . S
C298 C301 1.260 . S
C298 C302 1.477 . S
C298 H316 0.932 . S
C299 C300 1.384 . S
C299 C301 1.479 . S
C299 H317 0.929 . S
C300 C297 1.424 . S
C300 C299 1.384 . S
C300 H318 0.928 . S
C301 C298 1.260 . S
C301 C299 1.479 . S
C302 C297 1.245 . S
C302 C298 1.477 . S
C302 H319 0.932 . S
C303 U286 2.882 . S
C303 C297 1.428 . S
C303 O306 1.301 . S
C303 O307 1.282 . S
O304 U286 2.441 . S
O304 C290 1.245 1_556 S
O305 U286 2.420 . S
O305 C290 1.182 1_556 S
O306 U286 2.455 . S
O306 C303 1.301 . S
O307 U286 2.449 . S
O307 C303 1.282 . S
H308 C281 0.931 . S
H309 C283 0.929 . S
H310 C284 0.930 . S
H311 C285 0.931 . S
H312 C292 0.932 . S
H313 C293 0.930 . S
H314 C294 0.929 . S
H315 C296 0.930 . S
H316 C298 0.932 . S
H317 C299 0.929 . S
H318 C300 0.928 . S
H319 C302 0.932 . S
C320 C321 1.264 . S
C320 C325 1.479 . S
C320 C330 1.465 . S
C321 C320 1.264 . S
C321 C323 1.339 . S
C321 H348 0.931 . S
C322 C323 1.395 . S
C322 C324 1.320 . S
C323 C321 1.339 . S
C323 C322 1.395 . S
C323 H349 0.929 . S
C324 C322 1.320 . S
C324 C325 1.405 . S
C324 H350 0.930 . S
C325 C320 1.479 . S
C325 C324 1.405 . S
C325 H351 0.931 . S
U326 O327 2.454 . S
U326 O328 2.458 . S
U326 C329 2.984 . S
U326 C330 2.847 . S
U326 C343 2.882 . S
U326 O344 2.441 . S
U326 O345 2.420 . S
U326 O346 2.455 . S
U326 O347 2.449 . S
O327 U326 2.454 . S
O327 C329 1.353 . S
O328 U326 2.458 . S
O328 C329 1.286 . S
C329 U326 2.984 . S
C329 O327 1.353 . S
C329 O328 1.286 . S
C329 C331 1.363 1_545 S
C330 C320 1.465 . S
C330 U326 2.847 . S
C330 O344 1.249 . S
C330 O345 1.202 . S
C331 C329 1.363 1_565 S
C331 C333 1.408 . S
C331 C336 1.342 . S
C332 C333 1.310 . S
C332 C335 1.461 . S
C332 H352 0.932 . S
C333 C331 1.408 . S
C333 C332 1.310 . S
C333 H353 0.930 . S
C334 C335 1.474 . S
C334 C336 1.285 . S
C334 H354 0.929 . S
C335 C332 1.461 . S
C335 C334 1.474 . S
C336 C331 1.342 . S
C336 C334 1.285 . S
C336 H355 0.930 1_565 S
C337 C340 1.424 . S
C337 C342 1.245 . S
C337 C343 1.428 . S
C338 C341 1.260 . S
C338 C342 1.477 . S
C338 H356 0.932 . S
C339 C340 1.384 . S
C339 C341 1.479 . S
C339 H357 0.929 . S
C340 C337 1.424 . S
C340 C339 1.384 . S
C340 H358 0.928 . S
C341 C338 1.260 . S
C341 C339 1.479 . S
C342 C337 1.245 . S
C342 C338 1.477 . S
C342 H359 0.932 . S
C343 U326 2.882 . S
C343 C337 1.428 . S
C343 O346 1.301 . S
C343 O347 1.282 . S
O344 U326 2.441 . S
O344 C330 1.249 . S
O345 U326 2.420 . S
O345 C330 1.202 . S
O346 U326 2.455 . S
O346 C343 1.301 . S
O347 U326 2.449 . S
O347 C343 1.282 . S
H348 C321 0.931 . S
H349 C323 0.929 . S
H350 C324 0.930 . S
H351 C325 0.931 . S
H352 C332 0.932 . S
H353 C333 0.930 . S
H354 C334 0.929 . S
H355 C336 0.930 1_545 S
H356 C338 0.932 . S
H357 C339 0.929 . S
H358 C340 0.928 . S
H359 C342 0.932 . S
C360 C361 1.264 . S
C360 C365 1.479 . S
C360 C370 1.465 1_565 S
C361 C360 1.264 . S
C361 C363 1.339 . S
C361 H388 0.931 1_565 S
C362 C363 1.395 . S
C362 C364 1.320 . S
C363 C361 1.339 . S
C363 C362 1.395 . S
C363 H389 0.929 . S
C364 C362 1.320 . S
C364 C365 1.405 . S
C364 H390 0.930 . S
C365 C360 1.479 . S
C365 C364 1.405 . S
C365 H391 0.931 . S
U366 O367 2.454 . S
U366 O368 2.458 . S
U366 C369 2.984 . S
U366 C370 2.847 . S
U366 C383 2.882 . S
U366 O384 2.441 . S
U366 O385 2.420 . S
U366 O386 2.455 . S
U366 O387 2.449 . S
O367 U366 2.454 . S
O367 C369 1.353 . S
O368 U366 2.458 . S
O368 C369 1.286 . S
C369 U366 2.984 . S
C369 O367 1.353 . S
C369 O368 1.286 . S
C369 C371 1.363 . S
C370 C360 1.465 1_545 S
C370 U366 2.847 . S
C370 O384 1.249 . S
C370 O385 1.202 . S
C371 C369 1.363 . S
C371 C373 1.408 . S
C371 C376 1.342 . S
C372 C373 1.310 . S
C372 C375 1.461 . S
C372 H392 0.932 . S
C373 C371 1.408 . S
C373 C372 1.310 . S
C373 H393 0.930 . S
C374 C375 1.474 . S
C374 C376 1.285 . S
C374 H394 0.929 . S
C375 C372 1.461 . S
C375 C374 1.474 . S
C376 C371 1.342 . S
C376 C374 1.285 . S
C376 H395 0.930 . S
C377 C380 1.424 . S
C377 C382 1.245 . S
C377 C383 1.428 . S
C378 C381 1.260 . S
C378 C382 1.477 . S
C378 H396 0.932 . S
C379 C380 1.384 . S
C379 C381 1.479 . S
C379 H397 0.929 . S
C380 C377 1.424 . S
C380 C379 1.384 . S
C380 H398 0.928 . S
C381 C378 1.260 . S
C381 C379 1.479 . S
C382 C377 1.245 . S
C382 C378 1.477 . S
C382 H399 0.932 . S
C383 U366 2.882 . S
C383 C377 1.428 . S
C383 O386 1.301 . S
C383 O387 1.282 . S
O384 U366 2.441 . S
O384 C370 1.249 . S
O385 U366 2.420 . S
O385 C370 1.202 . S
O386 U366 2.455 . S
O386 C383 1.301 . S
O387 U366 2.449 . S
O387 C383 1.282 . S
H388 C361 0.931 1_545 S
H389 C363 0.929 . S
H390 C364 0.930 . S
H391 C365 0.931 . S
H392 C372 0.932 . S
H393 C373 0.930 . S
H394 C374 0.929 . S
H395 C376 0.930 . S
H396 C378 0.932 . S
H397 C379 0.929 . S
H398 C380 0.928 . S
H399 C382 0.932 . S
C400 C401 1.264 . S
C400 C405 1.479 . S
C400 C410 1.465 1_545 S
C401 C400 1.264 . S
C401 C403 1.339 . S
C401 H428 0.931 1_545 S
C402 C403 1.395 . S
C402 C404 1.320 . S
C403 C401 1.339 . S
C403 C402 1.395 . S
C403 H429 0.929 . S
C404 C402 1.320 . S
C404 C405 1.405 . S
C404 H430 0.930 . S
C405 C400 1.479 . S
C405 C404 1.405 . S
C405 H431 0.931 . S
U406 O407 2.454 . S
U406 O408 2.458 . S
U406 C409 2.984 . S
U406 C410 2.847 . S
U406 C423 2.882 . S
U406 O424 2.441 . S
U406 O425 2.420 . S
U406 O426 2.455 . S
U406 O427 2.449 . S
O407 U406 2.454 . S
O407 C409 1.353 . S
O408 U406 2.458 . S
O408 C409 1.286 . S
C409 U406 2.984 . S
C409 O407 1.353 . S
C409 O408 1.286 . S
C409 C411 1.363 . S
C410 C400 1.465 1_565 S
C410 U406 2.847 . S
C410 O424 1.249 . S
C410 O425 1.202 . S
C411 C409 1.363 . S
C411 C413 1.408 . S
C411 C416 1.342 . S
C412 C413 1.310 . S
C412 C415 1.461 . S
C412 H432 0.932 . S
C413 C411 1.408 . S
C413 C412 1.310 . S
C413 H433 0.930 . S
C414 C415 1.474 . S
C414 C416 1.285 . S
C414 H434 0.929 . S
C415 C412 1.461 . S
C415 C414 1.474 . S
C416 C411 1.342 . S
C416 C414 1.285 . S
C416 H435 0.930 . S
C417 C420 1.424 . S
C417 C422 1.245 . S
C417 C423 1.428 . S
C418 C421 1.260 . S
C418 C422 1.477 . S
C418 H436 0.932 . S
C419 C420 1.384 . S
C419 C421 1.479 . S
C419 H437 0.929 . S
C420 C417 1.424 . S
C420 C419 1.384 . S
C420 H438 0.928 . S
C421 C418 1.260 . S
C421 C419 1.479 . S
C422 C417 1.245 . S
C422 C418 1.477 . S
C422 H439 0.932 . S
C423 U406 2.882 . S
C423 C417 1.428 . S
C423 O426 1.301 . S
C423 O427 1.282 . S
O424 U406 2.441 . S
O424 C410 1.249 . S
O425 U406 2.420 . S
O425 C410 1.202 . S
O426 U406 2.455 . S
O426 C423 1.301 . S
O427 U406 2.449 . S
O427 C423 1.282 . S
H428 C401 0.931 1_565 S
H429 C403 0.929 . S
H430 C404 0.930 . S
H431 C405 0.931 . S
H432 C412 0.932 . S
H433 C413 0.930 . S
H434 C414 0.929 . S
H435 C416 0.930 . S
H436 C418 0.932 . S
H437 C419 0.929 . S
H438 C420 0.928 . S
H439 C422 0.932 . S
C440 C441 1.264 . S
C440 C445 1.479 . S
C440 C450 1.465 . S
C441 C440 1.264 . S
C441 C443 1.339 . S
C441 H468 0.931 . S
C442 C443 1.395 . S
C442 C444 1.320 . S
C443 C441 1.339 . S
C443 C442 1.395 . S
C443 H469 0.929 . S
C444 C442 1.320 . S
C444 C445 1.405 . S
C444 H470 0.930 . S
C445 C440 1.479 . S
C445 C444 1.405 . S
C445 H471 0.931 . S
U446 O447 2.454 . S
U446 O448 2.458 . S
U446 C449 2.984 . S
U446 C450 2.847 . S
U446 C463 2.882 . S
U446 O464 2.441 . S
U446 O465 2.420 . S
U446 O466 2.455 . S
U446 O467 2.449 . S
O447 U446 2.454 . S
O447 C449 1.353 . S
O448 U446 2.458 . S
O448 C449 1.286 . S
C449 U446 2.984 . S
C449 O447 1.353 . S
C449 O448 1.286 . S
C449 C451 1.363 1_565 S
C450 C440 1.465 . S
C450 U446 2.847 . S
C450 O464 1.249 . S
C450 O465 1.202 . S
C451 C449 1.363 1_545 S
C451 C453 1.408 . S
C451 C456 1.342 . S
C452 C453 1.310 . S
C452 C455 1.461 . S
C452 H472 0.932 . S
C453 C451 1.408 . S
C453 C452 1.310 . S
C453 H473 0.930 . S
C454 C455 1.474 . S
C454 C456 1.285 . S
C454 H474 0.929 . S
C455 C452 1.461 . S
C455 C454 1.474 . S
C456 C451 1.342 . S
C456 C454 1.285 . S
C456 H475 0.930 1_545 S
C457 C460 1.424 . S
C457 C462 1.245 . S
C457 C463 1.428 . S
C458 C461 1.260 . S
C458 C462 1.477 . S
C458 H476 0.932 . S
C459 C460 1.384 . S
C459 C461 1.479 . S
C459 H477 0.929 . S
C460 C457 1.424 . S
C460 C459 1.384 . S
C460 H478 0.928 . S
C461 C458 1.260 . S
C461 C459 1.479 . S
C462 C457 1.245 . S
C462 C458 1.477 . S
C462 H479 0.932 . S
C463 U446 2.882 . S
C463 C457 1.428 . S
C463 O466 1.301 . S
C463 O467 1.282 . S
O464 U446 2.441 . S
O464 C450 1.249 . S
O465 U446 2.420 . S
O465 C450 1.202 . S
O466 U446 2.455 . S
O466 C463 1.301 . S
O467 U446 2.449 . S
O467 C463 1.282 . S
H468 C441 0.931 . S
H469 C443 0.929 . S
H470 C444 0.930 . S
H471 C445 0.931 . S
H472 C452 0.932 . S
H473 C453 0.930 . S
H474 C454 0.929 . S
H475 C456 0.930 1_565 S
H476 C458 0.932 . S
H477 C459 0.929 . S
H478 C460 0.928 . S
H479 C462 0.932 . S
C480 C481 1.264 . S
C480 C485 1.479 . S
C480 C490 1.465 . S
C481 C480 1.264 . S
C481 C483 1.339 . S
C481 H508 0.931 . S
C482 C483 1.395 . S
C482 C484 1.320 . S
C483 C481 1.339 . S
C483 C482 1.395 . S
C483 H509 0.929 . S
C484 C482 1.320 . S
C484 C485 1.405 . S
C484 H510 0.930 . S
C485 C480 1.479 . S
C485 C484 1.405 . S
C485 H511 0.931 . S
U486 O487 2.454 . S
U486 O488 2.458 . S
U486 C489 2.984 . S
U486 C490 2.847 . S
U486 C503 2.882 . S
U486 O504 2.441 . S
U486 O505 2.420 . S
U486 O506 2.455 . S
U486 O507 2.449 . S
O487 U486 2.454 . S
O487 C489 1.353 . S
O488 U486 2.458 . S
O488 C489 1.286 . S
C489 U486 2.984 . S
C489 O487 1.353 . S
C489 O488 1.286 . S
C489 C491 1.363 1_554 S
C490 C480 1.465 . S
C490 U486 2.847 . S
C490 O504 1.249 . S
C490 O505 1.202 . S
C491 C489 1.363 1_556 S
C491 C493 1.408 . S
C491 C496 1.342 . S
C492 C493 1.310 . S
C492 C495 1.461 . S
C492 H512 0.932 . S
C493 C491 1.408 . S
C493 C492 1.310 . S
C493 H513 0.930 . S
C494 C495 1.474 . S
C494 C496 1.285 . S
C494 H514 0.929 . S
C495 C492 1.461 . S
C495 C494 1.474 . S
C496 C491 1.342 . S
C496 C494 1.285 . S
C496 H515 0.930 . S
C497 C500 1.424 . S
C497 C502 1.245 . S
C497 C503 1.428 . S
C498 C501 1.260 . S
C498 C502 1.477 . S
C498 H516 0.932 . S
C499 C500 1.384 . S
C499 C501 1.479 . S
C499 H517 0.929 . S
C500 C497 1.424 . S
C500 C499 1.384 . S
C500 H518 0.928 . S
C501 C498 1.260 . S
C501 C499 1.479 . S
C502 C497 1.245 . S
C502 C498 1.477 . S
C502 H519 0.932 . S
C503 U486 2.882 . S
C503 C497 1.428 . S
C503 O506 1.301 . S
C503 O507 1.282 . S
O504 U486 2.441 . S
O504 C490 1.249 . S
O505 U486 2.420 . S
O505 C490 1.202 . S
O506 U486 2.455 . S
O506 C503 1.301 . S
O507 U486 2.449 . S
O507 C503 1.282 . S
H508 C481 0.931 . S
H509 C483 0.929 . S
H510 C484 0.930 . S
H511 C485 0.931 . S
H512 C492 0.932 . S
H513 C493 0.930 . S
H514 C494 0.929 . S
H515 C496 0.930 . S
H516 C498 0.932 . S
H517 C499 0.929 . S
H518 C500 0.928 . S
H519 C502 0.932 . S
C520 C521 1.270 . S
C520 C525 1.537 . S
C520 C530 1.408 1_455 S
C521 C520 1.270 . S
C521 C523 1.339 . S
C521 H548 0.931 1_455 S
C522 C523 1.395 . S
C522 C524 1.320 . S
C523 C521 1.339 . S
C523 C522 1.395 . S
C523 H549 0.929 . S
C524 C522 1.320 . S
C524 C525 1.405 . S
C524 H550 0.930 . S
C525 C520 1.537 . S
C525 C524 1.405 . S
C525 H551 0.931 . S
U526 O527 2.454 . S
U526 O528 2.458 . S
U526 C529 2.984 . S
U526 C530 2.847 . S
U526 C543 2.882 . S
U526 O544 2.441 . S
U526 O545 2.420 . S
U526 O546 2.455 . S
U526 O547 2.449 . S
O527 U526 2.454 . S
O527 C529 1.353 . S
O528 U526 2.458 . S
O528 C529 1.286 . S
C529 U526 2.984 . S
C529 O527 1.353 . S
C529 O528 1.286 . S
C529 C531 1.363 . S
C530 C520 1.408 1_655 S
C530 U526 2.847 . S
C530 O544 1.249 . S
C530 O545 1.202 . S
C531 C529 1.363 . S
C531 C533 1.408 . S
C531 C536 1.342 . S
C532 C533 1.310 . S
C532 C535 1.461 . S
C532 H552 0.932 . S
C533 C531 1.408 . S
C533 C532 1.310 . S
C533 H553 0.930 . S
C534 C535 1.474 . S
C534 C536 1.285 . S
C534 H554 0.929 . S
C535 C532 1.461 . S
C535 C534 1.474 . S
C536 C531 1.342 . S
C536 C534 1.285 . S
C536 H555 0.930 . S
C537 C540 1.424 . S
C537 C542 1.245 . S
C537 C543 1.428 . S
C538 C541 1.260 . S
C538 C542 1.477 . S
C538 H556 0.932 . S
C539 C540 1.384 . S
C539 C541 1.479 . S
C539 H557 0.929 . S
C540 C537 1.424 . S
C540 C539 1.384 . S
C540 H558 0.928 . S
C541 C538 1.260 . S
C541 C539 1.479 . S
C542 C537 1.245 . S
C542 C538 1.477 . S
C542 H559 0.932 . S
C543 U526 2.882 . S
C543 C537 1.428 . S
C543 O546 1.301 . S
C543 O547 1.282 . S
O544 U526 2.441 . S
O544 C530 1.249 . S
O545 U526 2.420 . S
O545 C530 1.202 . S
O546 U526 2.455 . S
O546 C543 1.301 . S
O547 U526 2.449 . S
O547 C543 1.282 . S
H548 C521 0.931 1_655 S
H549 C523 0.929 . S
H550 C524 0.930 . S
H551 C525 0.931 . S
H552 C532 0.932 . S
H553 C533 0.930 . S
H554 C534 0.929 . S
H555 C536 0.930 . S
H556 C538 0.932 . S
H557 C539 0.929 . S
H558 C540 0.928 . S
H559 C542 0.932 . S
C560 C561 1.264 . S
C560 C565 1.479 . S
C560 C570 1.465 . S
C561 C560 1.264 . S
C561 C563 1.339 . S
C561 H588 0.931 . S
C562 C563 1.395 . S
C562 C564 1.320 . S
C563 C561 1.339 . S
C563 C562 1.395 . S
C563 H589 0.929 . S
C564 C562 1.320 . S
C564 C565 1.405 . S
C564 H590 0.930 . S
C565 C560 1.479 . S
C565 C564 1.405 . S
C565 H591 0.931 . S
U566 O567 2.454 . S
U566 O568 2.458 . S
U566 C569 2.984 . S
U566 C570 2.847 . S
U566 C583 2.882 . S
U566 O584 2.441 . S
U566 O585 2.420 . S
U566 O586 2.455 . S
U566 O587 2.449 . S
O567 U566 2.454 . S
O567 C569 1.353 . S
O568 U566 2.458 . S
O568 C569 1.286 . S
C569 U566 2.984 . S
C569 O567 1.353 . S
C569 O568 1.286 . S
C569 C571 1.363 . S
C570 C560 1.465 . S
C570 U566 2.847 . S
C570 O584 1.249 . S
C570 O585 1.202 . S
C571 C569 1.363 . S
C571 C573 1.408 . S
C571 C576 1.342 . S
C572 C573 1.310 . S
C572 C575 1.461 . S
C572 H592 0.932 . S
C573 C571 1.408 . S
C573 C572 1.310 . S
C573 H593 0.930 . S
C574 C575 1.474 . S
C574 C576 1.285 . S
C574 H594 0.929 . S
C575 C572 1.461 . S
C575 C574 1.474 . S
C576 C571 1.342 . S
C576 C574 1.285 . S
C576 H595 0.930 . S
C577 C580 1.424 . S
C577 C582 1.245 . S
C577 C583 1.428 . S
C578 C581 1.260 . S
C578 C582 1.477 . S
C578 H596 0.932 . S
C579 C580 1.384 . S
C579 C581 1.479 . S
C579 H597 0.929 . S
C580 C577 1.424 . S
C580 C579 1.384 . S
C580 H598 0.928 . S
C581 C578 1.260 . S
C581 C579 1.479 . S
C582 C577 1.245 . S
C582 C578 1.477 . S
C582 H599 0.932 . S
C583 U566 2.882 . S
C583 C577 1.428 . S
C583 O586 1.301 . S
C583 O587 1.282 . S
O584 U566 2.441 . S
O584 C570 1.249 . S
O585 U566 2.420 . S
O585 C570 1.202 . S
O586 U566 2.455 . S
O586 C583 1.301 . S
O587 U566 2.449 . S
O587 C583 1.282 . S
H588 C561 0.931 . S
H589 C563 0.929 . S
H590 C564 0.930 . S
H591 C565 0.931 . S
H592 C572 0.932 . S
H593 C573 0.930 . S
H594 C574 0.929 . S
H595 C576 0.930 . S
H596 C578 0.932 . S
H597 C579 0.929 . S
H598 C580 0.928 . S
H599 C582 0.932 . S
C600 C601 1.264 . S
C600 C605 1.479 . S
C600 C610 1.465 . S
C601 C600 1.264 . S
C601 C603 1.339 . S
C601 H628 0.931 . S
C602 C603 1.395 . S
C602 C604 1.320 . S
C603 C601 1.339 . S
C603 C602 1.395 . S
C603 H629 0.929 . S
C604 C602 1.320 . S
C604 C605 1.405 . S
C604 H630 0.930 . S
C605 C600 1.479 . S
C605 C604 1.405 . S
C605 H631 0.931 . S
U606 O607 2.454 1_655 S
U606 O608 2.458 1_655 S
U606 C609 2.984 1_655 S
U606 C610 2.847 . S
U606 C623 2.882 . S
U606 O624 2.441 . S
U606 O625 2.420 . S
U606 O626 2.455 . S
U606 O627 2.449 . S
O607 U606 2.454 1_455 S
O607 C609 1.353 . S
O608 U606 2.458 1_455 S
O608 C609 1.286 . S
C609 U606 2.984 1_455 S
C609 O607 1.353 . S
C609 O608 1.286 . S
C609 C611 1.363 . S
C610 C600 1.465 . S
C610 U606 2.847 . S
C610 O624 1.249 . S
C610 O625 1.202 . S
C611 C609 1.363 . S
C611 C613 1.408 . S
C611 C616 1.342 . S
C612 C613 1.310 . S
C612 C615 1.461 . S
C612 H632 0.932 . S
C613 C611 1.408 . S
C613 C612 1.310 . S
C613 H633 0.930 . S
C614 C615 1.474 . S
C614 C616 1.285 . S
C614 H634 0.929 . S
C615 C612 1.461 . S
C615 C614 1.474 . S
C616 C611 1.342 . S
C616 C614 1.285 . S
C616 H635 0.930 . S
C617 C620 1.424 . S
C617 C622 1.245 . S
C617 C623 1.428 . S
C618 C621 1.260 . S
C618 C622 1.477 . S
C618 H636 0.932 . S
C619 C620 1.384 . S
C619 C621 1.479 . S
C619 H637 0.929 . S
C620 C617 1.424 . S
C620 C619 1.384 . S
C620 H638 0.928 . S
C621 C618 1.260 . S
C621 C619 1.479 . S
C622 C617 1.245 . S
C622 C618 1.477 . S
C622 H639 0.932 . S
C623 U606 2.882 . S
C623 C617 1.428 . S
C623 O626 1.301 . S
C623 O627 1.282 . S
O624 U606 2.441 . S
O624 C610 1.249 . S
O625 U606 2.420 . S
O625 C610 1.202 . S
O626 U606 2.455 . S
O626 C623 1.301 . S
O627 U606 2.449 . S
O627 C623 1.282 . S
H628 C601 0.931 . S
H629 C603 0.929 . S
H630 C604 0.930 . S
H631 C605 0.931 . S
H632 C612 0.932 . S
H633 C613 0.930 . S
H634 C614 0.929 . S
H635 C616 0.930 . S
H636 C618 0.932 . S
H637 C619 0.929 . S
H638 C620 0.928 . S
H639 C622 0.932 . S
C640 C641 1.264 . S
C640 C645 1.479 . S
C640 C650 1.465 . S
C641 C640 1.264 . S
C641 C643 1.339 . S
C641 H668 0.931 . S
C642 C643 1.395 . S
C642 C644 1.320 . S
C643 C641 1.339 . S
C643 C642 1.395 . S
C643 H669 0.929 . S
C644 C642 1.320 . S
C644 C645 1.405 . S
C644 H670 0.930 . S
C645 C640 1.479 . S
C645 C644 1.405 . S
C645 H671 0.931 . S
U646 O647 2.454 . S
U646 O648 2.458 . S
U646 C649 2.984 . S
U646 C650 2.847 . S
U646 C663 2.882 . S
U646 O664 2.441 . S
U646 O665 2.420 . S
U646 O666 2.455 . S
U646 O667 2.449 . S
O647 U646 2.454 . S
O647 C649 1.353 . S
O648 U646 2.458 . S
O648 C649 1.286 . S
C649 U646 2.984 . S
C649 O647 1.353 . S
C649 O648 1.286 . S
C649 C651 1.363 . S
C650 C640 1.465 . S
C650 U646 2.847 . S
C650 O664 1.249 . S
C650 O665 1.202 . S
C651 C649 1.363 . S
C651 C653 1.408 . S
C651 C656 1.342 . S
C652 C653 1.310 . S
C652 C655 1.461 . S
C652 H672 0.932 . S
C653 C651 1.408 . S
C653 C652 1.310 . S
C653 H673 0.930 . S
C654 C655 1.474 . S
C654 C656 1.285 . S
C654 H674 0.929 . S
C655 C652 1.461 . S
C655 C654 1.474 . S
C656 C651 1.342 . S
C656 C654 1.285 . S
C656 H675 0.930 . S
C657 C660 1.424 . S
C657 C662 1.245 . S
C657 C663 1.428 . S
C658 C661 1.260 . S
C658 C662 1.477 . S
C658 H676 0.932 . S
C659 C660 1.384 . S
C659 C661 1.479 . S
C659 H677 0.929 . S
C660 C657 1.424 . S
C660 C659 1.384 . S
C660 H678 0.928 . S
C661 C658 1.260 . S
C661 C659 1.479 . S
C662 C657 1.245 . S
C662 C658 1.477 . S
C662 H679 0.932 . S
C663 U646 2.882 . S
C663 C657 1.428 . S
C663 O666 1.301 . S
C663 O667 1.282 . S
O664 U646 2.441 . S
O664 C650 1.249 . S
O665 U646 2.420 . S
O665 C650 1.202 . S
O666 U646 2.455 . S
O666 C663 1.301 . S
O667 U646 2.449 . S
O667 C663 1.282 . S
H668 C641 0.931 . S
H669 C643 0.929 . S
H670 C644 0.930 . S
H671 C645 0.931 . S
H672 C652 0.932 . S
H673 C653 0.930 . S
H674 C654 0.929 . S
H675 C656 0.930 . S
H676 C658 0.932 . S
H677 C659 0.929 . S
H678 C660 0.928 . S
H679 C662 0.932 . S
C680 C681 1.264 . S
C680 C685 1.479 . S
C680 C690 1.465 . S
C681 C680 1.264 . S
C681 C683 1.339 . S
C681 H708 0.931 . S
C682 C683 1.395 . S
C682 C684 1.320 . S
C683 C681 1.339 . S
C683 C682 1.395 . S
C683 H709 0.929 . S
C684 C682 1.320 . S
C684 C685 1.405 . S
C684 H710 0.930 . S
C685 C680 1.479 . S
C685 C684 1.405 . S
C685 H711 0.931 . S
U686 O687 2.454 . S
U686 O688 2.458 . S
U686 C689 2.984 . S
U686 C690 2.847 . S
U686 C703 2.882 . S
U686 O704 2.441 . S
U686 O705 2.420 . S
U686 O706 2.455 . S
U686 O707 2.449 . S
O687 U686 2.454 . S
O687 C689 1.353 . S
O688 U686 2.458 . S
O688 C689 1.286 . S
C689 U686 2.984 . S
C689 O687 1.353 . S
C689 O688 1.286 . S
C689 C691 1.363 . S
C690 C680 1.465 . S
C690 U686 2.847 . S
C690 O704 1.249 . S
C690 O705 1.202 . S
C691 C689 1.363 . S
C691 C693 1.408 . S
C691 C696 1.342 . S
C692 C693 1.310 . S
C692 C695 1.461 . S
C692 H712 0.932 . S
C693 C691 1.408 . S
C693 C692 1.310 . S
C693 H713 0.930 . S
C694 C695 1.474 . S
C694 C696 1.285 . S
C694 H714 0.929 . S
C695 C692 1.461 . S
C695 C694 1.474 . S
C696 C691 1.342 . S
C696 C694 1.285 . S
C696 H715 0.930 . S
C697 C700 1.424 . S
C697 C702 1.245 . S
C697 C703 1.428 . S
C698 C701 1.260 . S
C698 C702 1.477 . S
C698 H716 0.932 . S
C699 C700 1.384 . S
C699 C701 1.479 . S
C699 H717 0.929 . S
C700 C697 1.424 . S
C700 C699 1.384 . S
C700 H718 0.928 . S
C701 C698 1.260 . S
C701 C699 1.479 . S
C702 C697 1.245 . S
C702 C698 1.477 . S
C702 H719 0.932 . S
C703 U686 2.882 . S
C703 C697 1.428 . S
C703 O706 1.301 . S
C703 O707 1.282 . S
O704 U686 2.441 . S
O704 C690 1.249 . S
O705 U686 2.420 . S
O705 C690 1.202 . S
O706 U686 2.455 . S
O706 C703 1.301 . S
O707 U686 2.449 . S
O707 C703 1.282 . S
H708 C681 0.931 . S
H709 C683 0.929 . S
H710 C684 0.930 . S
H711 C685 0.931 . S
H712 C692 0.932 . S
H713 C693 0.930 . S
H714 C694 0.929 . S
H715 C696 0.930 . S
H716 C698 0.932 . S
H717 C699 0.929 . S
H718 C700 0.928 . S
H719 C702 0.932 . S
C720 C721 1.264 . S
C720 C725 1.479 . S
C720 C730 1.465 . S
C721 C720 1.264 . S
C721 C723 1.339 . S
C721 H748 0.931 . S
C722 C723 1.395 . S
C722 C724 1.320 . S
C723 C721 1.339 . S
C723 C722 1.395 . S
C723 H749 0.929 . S
C724 C722 1.320 . S
C724 C725 1.405 . S
C724 H750 0.930 . S
C725 C720 1.479 . S
C725 C724 1.405 . S
C725 H751 0.931 . S
U726 O727 2.454 1_556 S
U726 O728 2.458 1_556 S
U726 C729 2.984 1_556 S
U726 C730 2.847 . S
U726 C743 2.882 . S
U726 O744 2.441 . S
U726 O745 2.420 . S
U726 O746 2.455 . S
U726 O747 2.449 . S
O727 U726 2.454 1_554 S
O727 C729 1.353 . S
O728 U726 2.458 1_554 S
O728 C729 1.286 . S
C729 U726 2.984 1_554 S
C729 O727 1.353 . S
C729 O728 1.286 . S
C729 C731 1.363 . S
C730 C720 1.465 . S
C730 U726 2.847 . S
C730 O744 1.249 . S
C730 O745 1.202 . S
C731 C729 1.363 . S
C731 C733 1.408 . S
C731 C736 1.342 . S
C732 C733 1.310 . S
C732 C735 1.461 . S
C732 H752 0.932 . S
C733 C731 1.408 . S
C733 C732 1.310 . S
C733 H753 0.930 . S
C734 C735 1.474 . S
C734 C736 1.285 . S
C734 H754 0.929 . S
C735 C732 1.461 . S
C735 C734 1.474 . S
C736 C731 1.342 . S
C736 C734 1.285 . S
C736 H755 0.930 . S
C737 C740 1.424 . S
C737 C742 1.245 . S
C737 C743 1.428 . S
C738 C741 1.260 . S
C738 C742 1.477 . S
C738 H756 0.932 . S
C739 C740 1.384 . S
C739 C741 1.479 . S
C739 H757 0.929 . S
C740 C737 1.424 . S
C740 C739 1.384 . S
C740 H758 0.928 . S
C741 C738 1.260 . S
C741 C739 1.479 . S
C742 C737 1.245 . S
C742 C738 1.477 . S
C742 H759 0.932 . S
C743 U726 2.882 . S
C743 C737 1.428 . S
C743 O746 1.301 . S
C743 O747 1.282 . S
O744 U726 2.441 . S
O744 C730 1.249 . S
O745 U726 2.420 . S
O745 C730 1.202 . S
O746 U726 2.455 . S
O746 C743 1.301 . S
O747 U726 2.449 . S
O747 C743 1.282 . S
H748 C721 0.931 . S
H749 C723 0.929 . S
H750 C724 0.930 . S
H751 C725 0.931 . S
H752 C732 0.932 . S
H753 C733 0.930 . S
H754 C734 0.929 . S
H755 C736 0.930 . S
H756 C738 0.932 . S
H757 C739 0.929 . S
H758 C740 0.928 . S
H759 C742 0.932 . S
C760 C761 1.264 . S
C760 C765 1.479 . S
C760 C770 1.465 . S
C761 C760 1.264 . S
C761 C763 1.339 . S
C761 H788 0.931 . S
C762 C763 1.395 . S
C762 C764 1.320 . S
C763 C761 1.339 . S
C763 C762 1.395 . S
C763 H789 0.929 . S
C764 C762 1.320 . S
C764 C765 1.405 . S
C764 H790 0.930 . S
C765 C760 1.479 . S
C765 C764 1.405 . S
C765 H791 0.931 . S
U766 O767 2.454 . S
U766 O768 2.458 . S
U766 C769 2.984 . S
U766 C770 2.847 1_655 S
U766 C783 2.882 . S
U766 O784 2.441 1_655 S
U766 O785 2.420 1_655 S
U766 O786 2.455 . S
U766 O787 2.449 . S
O767 U766 2.454 . S
O767 C769 1.353 . S
O768 U766 2.458 . S
O768 C769 1.286 . S
C769 U766 2.984 . S
C769 O767 1.353 . S
C769 O768 1.286 . S
C769 C771 1.363 . S
C770 C760 1.465 . S
C770 U766 2.847 1_455 S
C770 O784 1.249 . S
C770 O785 1.202 . S
C771 C769 1.363 . S
C771 C773 1.408 . S
C771 C776 1.342 . S
C772 C773 1.310 . S
C772 C775 1.461 . S
C772 H792 0.932 . S
C773 C771 1.408 . S
C773 C772 1.310 . S
C773 H793 0.930 . S
C774 C775 1.474 . S
C774 C776 1.285 . S
C774 H794 0.929 . S
C775 C772 1.461 . S
C775 C774 1.474 . S
C776 C771 1.342 . S
C776 C774 1.285 . S
C776 H795 0.930 . S
C777 C780 1.424 . S
C777 C782 1.245 . S
C777 C783 1.428 . S
C778 C781 1.260 . S
C778 C782 1.477 . S
C778 H796 0.932 . S
C779 C780 1.384 . S
C779 C781 1.479 . S
C779 H797 0.929 . S
C780 C777 1.424 . S
C780 C779 1.384 . S
C780 H798 0.928 . S
C781 C778 1.260 . S
C781 C779 1.479 . S
C782 C777 1.245 . S
C782 C778 1.477 . S
C782 H799 0.932 . S
C783 U766 2.882 . S
C783 C777 1.428 . S
C783 O786 1.301 . S
C783 O787 1.282 . S
O784 U766 2.441 1_455 S
O784 C770 1.249 . S
O785 U766 2.420 1_455 S
O785 C770 1.202 . S
O786 U766 2.455 . S
O786 C783 1.301 . S
O787 U766 2.449 . S
O787 C783 1.282 . S
H788 C761 0.931 . S
H789 C763 0.929 . S
H790 C764 0.930 . S
H791 C765 0.931 . S
H792 C772 0.932 . S
H793 C773 0.930 . S
H794 C774 0.929 . S
H795 C776 0.930 . S
H796 C778 0.932 . S
H797 C779 0.929 . S
H798 C780 0.928 . S
H799 C782 0.932 . S
C800 C801 1.264 . S
C800 C805 1.479 . S
C800 C810 1.465 . S
C801 C800 1.264 . S
C801 C803 1.339 . S
C801 H828 0.931 . S
C802 C803 1.395 . S
C802 C804 1.320 . S
C803 C801 1.339 . S
C803 C802 1.395 . S
C803 H829 0.929 . S
C804 C802 1.320 . S
C804 C805 1.405 . S
C804 H830 0.930 . S
C805 C800 1.479 . S
C805 C804 1.405 . S
C805 H831 0.931 . S
U806 O807 2.454 . S
U806 O808 2.458 . S
U806 C809 2.984 . S
U806 C810 2.847 . S
U806 C823 2.882 . S
U806 O824 2.441 . S
U806 O825 2.420 . S
U806 O826 2.455 . S
U806 O827 2.449 . S
O807 U806 2.454 . S
O807 C809 1.353 . S
O808 U806 2.458 . S
O808 C809 1.286 . S
C809 U806 2.984 . S
C809 O807 1.353 . S
C809 O808 1.286 . S
C809 C811 1.363 . S
C810 C800 1.465 . S
C810 U806 2.847 . S
C810 O824 1.249 . S
C810 O825 1.202 . S
C811 C809 1.363 . S
C811 C813 1.408 . S
C811 C816 1.342 . S
C812 C813 1.310 . S
C812 C815 1.461 . S
C812 H832 0.932 . S
C813 C811 1.408 . S
C813 C812 1.310 . S
C813 H833 0.930 . S
C814 C815 1.474 . S
C814 C816 1.285 . S
C814 H834 0.929 . S
C815 C812 1.461 . S
C815 C814 1.474 . S
C816 C811 1.342 . S
C816 C814 1.285 . S
C816 H835 0.930 . S
C817 C820 1.424 . S
C817 C822 1.245 . S
C817 C823 1.428 . S
C818 C821 1.260 . S
C818 C822 1.477 . S
C818 H836 0.932 . S
C819 C820 1.384 . S
C819 C821 1.479 . S
C819 H837 0.929 . S
C820 C817 1.424 . S
C820 C819 1.384 . S
C820 H838 0.928 . S
C821 C818 1.260 . S
C821 C819 1.479 . S
C822 C817 1.245 . S
C822 C818 1.477 . S
C822 H839 0.932 . S
C823 U806 2.882 . S
C823 C817 1.428 . S
C823 O826 1.301 . S
C823 O827 1.282 . S
O824 U806 2.441 . S
O824 C810 1.249 . S
O825 U806 2.420 . S
O825 C810 1.202 . S
O826 U806 2.455 . S
O826 C823 1.301 . S
O827 U806 2.449 . S
O827 C823 1.282 . S
H828 C801 0.931 . S
H829 C803 0.929 . S
H830 C804 0.930 . S
H831 C805 0.931 . S
H832 C812 0.932 . S
H833 C813 0.930 . S
H834 C814 0.929 . S
H835 C816 0.930 . S
H836 C818 0.932 . S
H837 C819 0.929 . S
H838 C820 0.928 . S
H839 C822 0.932 . S
C840 C841 1.264 . S
C840 C845 1.479 . S
C840 C850 1.465 . S
C841 C840 1.264 . S
C841 C843 1.339 . S
C841 H868 0.931 . S
C842 C843 1.395 . S
C842 C844 1.320 . S
C843 C841 1.339 . S
C843 C842 1.395 . S
C843 H869 0.929 . S
C844 C842 1.320 . S
C844 C845 1.405 . S
C844 H870 0.930 . S
C845 C840 1.479 . S
C845 C844 1.405 . S
C845 H871 0.931 . S
U846 O847 2.454 . S
U846 O848 2.458 . S
U846 C849 2.984 . S
U846 C850 2.847 . S
U846 C863 2.882 . S
U846 O864 2.441 . S
U846 O865 2.420 . S
U846 O866 2.455 . S
U846 O867 2.449 . S
O847 U846 2.454 . S
O847 C849 1.353 . S
O848 U846 2.458 . S
O848 C849 1.286 . S
C849 U846 2.984 . S
C849 O847 1.353 . S
C849 O848 1.286 . S
C849 C851 1.363 . S
C850 C840 1.465 . S
C850 U846 2.847 . S
C850 O864 1.249 . S
C850 O865 1.202 . S
C851 C849 1.363 . S
C851 C853 1.408 . S
C851 C856 1.342 . S
C852 C853 1.310 . S
C852 C855 1.461 . S
C852 H872 0.932 . S
C853 C851 1.408 . S
C853 C852 1.310 . S
C853 H873 0.930 . S
C854 C855 1.474 . S
C854 C856 1.285 . S
C854 H874 0.929 . S
C855 C852 1.461 . S
C855 C854 1.474 . S
C856 C851 1.342 . S
C856 C854 1.285 . S
C856 H875 0.930 . S
C857 C860 1.424 . S
C857 C862 1.245 . S
C857 C863 1.428 . S
C858 C861 1.260 . S
C858 C862 1.477 . S
C858 H876 0.932 . S
C859 C860 1.384 . S
C859 C861 1.479 . S
C859 H877 0.929 . S
C860 C857 1.424 . S
C860 C859 1.384 . S
C860 H878 0.928 . S
C861 C858 1.260 . S
C861 C859 1.479 . S
C862 C857 1.245 . S
C862 C858 1.477 . S
C862 H879 0.932 . S
C863 U846 2.882 . S
C863 C857 1.428 . S
C863 O866 1.301 . S
C863 O867 1.282 . S
O864 U846 2.441 . S
O864 C850 1.249 . S
O865 U846 2.420 . S
O865 C850 1.202 . S
O866 U846 2.455 . S
O866 C863 1.301 . S
O867 U846 2.449 . S
O867 C863 1.282 . S
H868 C841 0.931 . S
H869 C843 0.929 . S
H870 C844 0.930 . S
H871 C845 0.931 . S
H872 C852 0.932 . S
H873 C853 0.930 . S
H874 C854 0.929 . S
H875 C856 0.930 . S
H876 C858 0.932 . S
H877 C859 0.929 . S
H878 C860 0.928 . S
H879 C862 0.932 . S
C880 C881 1.264 . S
C880 C885 1.479 . S
C880 C890 1.465 . S
C881 C880 1.264 . S
C881 C883 1.339 . S
C881 H908 0.931 . S
C882 C883 1.395 . S
C882 C884 1.320 . S
C883 C881 1.339 . S
C883 C882 1.395 . S
C883 H909 0.929 . S
C884 C882 1.320 . S
C884 C885 1.405 . S
C884 H910 0.930 . S
C885 C880 1.479 . S
C885 C884 1.405 . S
C885 H911 0.931 . S
U886 O887 2.454 . S
U886 O888 2.458 . S
U886 C889 2.984 . S
U886 C890 2.847 1_554 S
U886 C903 2.882 . S
U886 O904 2.441 1_554 S
U886 O905 2.420 1_554 S
U886 O906 2.455 . S
U886 O907 2.449 . S
O887 U886 2.454 . S
O887 C889 1.353 . S
O888 U886 2.458 . S
O888 C889 1.286 . S
C889 U886 2.984 . S
C889 O887 1.353 . S
C889 O888 1.286 . S
C889 C891 1.363 . S
C890 C880 1.465 . S
C890 U886 2.847 1_556 S
C890 O904 1.249 . S
C890 O905 1.202 . S
C891 C889 1.363 . S
C891 C893 1.408 . S
C891 C896 1.342 . S
C892 C893 1.310 . S
C892 C895 1.461 . S
C892 H912 0.932 . S
C893 C891 1.408 . S
C893 C892 1.310 . S
C893 H913 0.930 . S
C894 C895 1.474 . S
C894 C896 1.285 . S
C894 H914 0.929 . S
C895 C892 1.461 . S
C895 C894 1.474 . S
C896 C891 1.342 . S
C896 C894 1.285 . S
C896 H915 0.930 . S
C897 C900 1.424 . S
C897 C902 1.245 . S
C897 C903 1.428 . S
C898 C901 1.260 . S
C898 C902 1.477 . S
C898 H916 0.932 . S
C899 C900 1.384 . S
C899 C901 1.479 . S
C899 H917 0.929 . S
C900 C897 1.424 . S
C900 C899 1.384 . S
C900 H918 0.928 . S
C901 C898 1.260 . S
C901 C899 1.479 . S
C902 C897 1.245 . S
C902 C898 1.477 . S
C902 H919 0.932 . S
C903 U886 2.882 . S
C903 C897 1.428 . S
C903 O906 1.301 . S
C903 O907 1.282 . S
O904 U886 2.441 1_556 S
O904 C890 1.249 . S
O905 U886 2.420 1_556 S
O905 C890 1.202 . S
O906 U886 2.455 . S
O906 C903 1.301 . S
O907 U886 2.449 . S
O907 C903 1.282 . S
H908 C881 0.931 . S
H909 C883 0.929 . S
H910 C884 0.930 . S
H911 C885 0.931 . S
H912 C892 0.932 . S
H913 C893 0.930 . S
H914 C894 0.929 . S
H915 C896 0.930 . S
H916 C898 0.932 . S
H917 C899 0.929 . S
H918 C900 0.928 . S
H919 C902 0.932 . S
C920 C921 1.264 . S
C920 C925 1.479 . S
C920 C930 1.465 . S
C921 C920 1.264 . S
C921 C923 1.339 . S
C921 H948 0.931 . S
C922 C923 1.395 . S
C922 C924 1.320 . S
C923 C921 1.339 . S
C923 C922 1.395 . S
C923 H949 0.929 . S
C924 C922 1.320 . S
C924 C925 1.405 . S
C924 H950 0.930 . S
C925 C920 1.479 . S
C925 C924 1.405 . S
C925 H951 0.931 . S
U926 O927 2.454 1_565 S
U926 O928 2.458 1_565 S
U926 C929 2.984 1_565 S
U926 C930 2.847 . S
U926 C943 2.882 . S
U926 O944 2.441 . S
U926 O945 2.420 . S
U926 O946 2.455 . S
U926 O947 2.449 . S
O927 U926 2.454 1_545 S
O927 C929 1.353 . S
O928 U926 2.458 1_545 S
O928 C929 1.286 . S
C929 U926 2.984 1_545 S
C929 O927 1.353 . S
C929 O928 1.286 . S
C929 C931 1.363 . S
C930 C920 1.465 . S
C930 U926 2.847 . S
C930 O944 1.249 . S
C930 O945 1.202 . S
C931 C929 1.363 . S
C931 C933 1.408 . S
C931 C936 1.342 . S
C932 C933 1.310 . S
C932 C935 1.461 . S
C932 H952 0.932 . S
C933 C931 1.408 . S
C933 C932 1.310 . S
C933 H953 0.930 . S
C934 C935 1.474 . S
C934 C936 1.285 . S
C934 H954 0.929 . S
C935 C932 1.461 . S
C935 C934 1.474 . S
C936 C931 1.342 . S
C936 C934 1.285 . S
C936 H955 0.930 . S
C937 C940 1.424 . S
C937 C942 1.245 . S
C937 C943 1.428 . S
C938 C941 1.260 . S
C938 C942 1.477 . S
C938 H956 0.932 . S
C939 C940 1.384 . S
C939 C941 1.479 . S
C939 H957 0.929 . S
C940 C937 1.424 . S
C940 C939 1.384 . S
C940 H958 0.928 . S
C941 C938 1.260 . S
C941 C939 1.479 . S
C942 C937 1.245 . S
C942 C938 1.477 . S
C942 H959 0.932 . S
C943 U926 2.882 . S
C943 C937 1.428 . S
C943 O946 1.301 . S
C943 O947 1.282 . S
O944 U926 2.441 . S
O944 C930 1.249 . S
O945 U926 2.420 . S
O945 C930 1.202 . S
O946 U926 2.455 . S
O946 C943 1.301 . S
O947 U926 2.449 . S
O947 C943 1.282 . S
H948 C921 0.931 . S
H949 C923 0.929 . S
H950 C924 0.930 . S
H951 C925 0.931 . S
H952 C932 0.932 . S
H953 C933 0.930 . S
H954 C934 0.929 . S
H955 C936 0.930 . S
H956 C938 0.932 . S
H957 C939 0.929 . S
H958 C940 0.928 . S
H959 C942 0.932 . S
C960 C961 1.264 . S
C960 C965 1.479 . S
C960 C970 1.465 . S
C961 C960 1.264 . S
C961 C963 1.339 . S
C961 H988 0.931 . S
C962 C963 1.395 . S
C962 C964 1.320 . S
C963 C961 1.339 . S
C963 C962 1.395 . S
C963 H989 0.929 . S
C964 C962 1.320 . S
C964 C965 1.405 . S
C964 H990 0.930 . S
C965 C960 1.479 . S
C965 C964 1.405 . S
C965 H991 0.931 . S
U966 O967 2.454 1_565 S
U966 O968 2.458 1_565 S
U966 C969 2.984 1_565 S
U966 C970 2.847 . S
U966 C983 2.882 . S
U966 O984 2.441 . S
U966 O985 2.420 . S
U966 O986 2.455 . S
U966 O987 2.449 . S
O967 U966 2.454 1_545 S
O967 C969 1.353 . S
O968 U966 2.458 1_545 S
O968 C969 1.286 . S
C969 U966 2.984 1_545 S
C969 O967 1.353 . S
C969 O968 1.286 . S
C969 C971 1.363 . S
C970 C960 1.465 . S
C970 U966 2.847 . S
C970 O984 1.249 . S
C970 O985 1.202 . S
C971 C969 1.363 . S
C971 C973 1.408 . S
C971 C976 1.342 . S
C972 C973 1.310 . S
C972 C975 1.461 . S
C972 H992 0.932 . S
C973 C971 1.408 . S
C973 C972 1.310 . S
C973 H993 0.930 . S
C974 C975 1.474 . S
C974 C976 1.285 . S
C974 H994 0.929 . S
C975 C972 1.461 . S
C975 C974 1.474 . S
C976 C971 1.342 . S
C976 C974 1.285 . S
C976 H995 0.930 . S
C977 C980 1.424 . S
C977 C982 1.245 . S
C977 C983 1.428 . S
C978 C981 1.260 . S
C978 C982 1.477 . S
C978 H996 0.932 . S
C979 C980 1.384 . S
C979 C981 1.479 . S
C979 H997 0.929 . S
C980 C977 1.424 . S
C980 C979 1.384 . S
C980 H998 0.928 . S
C981 C978 1.260 . S
C981 C979 1.479 . S
C982 C977 1.245 . S
C982 C978 1.477 . S
C982 H999 0.932 . S
C983 U966 2.882 . S
C983 C977 1.428 . S
C983 O986 1.301 . S
C983 O987 1.282 . S
O984 U966 2.441 . S
O984 C970 1.249 . S
O985 U966 2.420 . S
O985 C970 1.202 . S
O986 U966 2.455 . S
O986 C983 1.301 . S
O987 U966 2.449 . S
O987 C983 1.282 . S
H988 C961 0.931 . S
H989 C963 0.929 . S
H990 C964 0.930 . S
H991 C965 0.931 . S
H992 C972 0.932 . S
H993 C973 0.930 . S
H994 C974 0.929 . S
H995 C976 0.930 . S
H996 C978 0.932 . S
H997 C979 0.929 . S
H998 C980 0.928 . S
H999 C982 0.932 . S
C1000 C1001 1.264 . S
C1000 C1005 1.479 . S
C1000 C1010 1.465 . S
C1001 C1000 1.264 . S
C1001 C1003 1.339 . S
C1001 H1028 0.931 . S
C1002 C1003 1.395 . S
C1002 C1004 1.320 . S
C1003 C1001 1.339 . S
C1003 C1002 1.395 . S
C1003 H1029 0.929 . S
C1004 C1002 1.320 . S
C1004 C1005 1.405 . S
C1004 H1030 0.930 . S
C1005 C1000 1.479 . S
C1005 C1004 1.405 . S
C1005 H1031 0.931 . S
U1006 O1007 2.454 . S
U1006 O1008 2.458 . S
U1006 C1009 2.984 . S
U1006 C1010 2.847 1_545 S
U1006 C1023 2.882 . S
U1006 O1024 2.441 1_545 S
U1006 O1025 2.420 1_545 S
U1006 O1026 2.455 . S
U1006 O1027 2.449 . S
O1007 U1006 2.454 . S
O1007 C1009 1.353 . S
O1008 U1006 2.458 . S
O1008 C1009 1.286 . S
C1009 U1006 2.984 . S
C1009 O1007 1.353 . S
C1009 O1008 1.286 . S
C1009 C1011 1.363 . S
C1010 C1000 1.465 . S
C1010 U1006 2.847 1_565 S
C1010 O1024 1.249 . S
C1010 O1025 1.202 . S
C1011 C1009 1.363 . S
C1011 C1013 1.408 . S
C1011 C1016 1.342 . S
C1012 C1013 1.310 . S
C1012 C1015 1.461 . S
C1012 H1032 0.932 . S
C1013 C1011 1.408 . S
C1013 C1012 1.310 . S
C1013 H1033 0.930 . S
C1014 C1015 1.474 . S
C1014 C1016 1.285 . S
C1014 H1034 0.929 . S
C1015 C1012 1.461 . S
C1015 C1014 1.474 . S
C1016 C1011 1.342 . S
C1016 C1014 1.285 . S
C1016 H1035 0.930 . S
C1017 C1020 1.424 . S
C1017 C1022 1.245 . S
C1017 C1023 1.428 . S
C1018 C1021 1.260 . S
C1018 C1022 1.477 . S
C1018 H1036 0.932 . S
C1019 C1020 1.384 . S
C1019 C1021 1.479 . S
C1019 H1037 0.929 . S
C1020 C1017 1.424 . S
C1020 C1019 1.384 . S
C1020 H1038 0.928 . S
C1021 C1018 1.260 . S
C1021 C1019 1.479 . S
C1022 C1017 1.245 . S
C1022 C1018 1.477 . S
C1022 H1039 0.932 . S
C1023 U1006 2.882 . S
C1023 C1017 1.428 . S
C1023 O1026 1.301 . S
C1023 O1027 1.282 . S
O1024 U1006 2.441 1_565 S
O1024 C1010 1.249 . S
O1025 U1006 2.420 1_565 S
O1025 C1010 1.202 . S
O1026 U1006 2.455 . S
O1026 C1023 1.301 . S
O1027 U1006 2.449 . S
O1027 C1023 1.282 . S
H1028 C1001 0.931 . S
H1029 C1003 0.929 . S
H1030 C1004 0.930 . S
H1031 C1005 0.931 . S
H1032 C1012 0.932 . S
H1033 C1013 0.930 . S
H1034 C1014 0.929 . S
H1035 C1016 0.930 . S
H1036 C1018 0.932 . S
H1037 C1019 0.929 . S
H1038 C1020 0.928 . S
H1039 C1022 0.932 . S
C1040 C1041 1.264 . S
C1040 C1045 1.479 . S
C1040 C1050 1.465 . S
C1041 C1040 1.264 . S
C1041 C1043 1.339 . S
C1041 H1068 0.931 . S
C1042 C1043 1.395 . S
C1042 C1044 1.320 . S
C1043 C1041 1.339 . S
C1043 C1042 1.395 . S
C1043 H1069 0.929 . S
C1044 C1042 1.320 . S
C1044 C1045 1.405 . S
C1044 H1070 0.930 . S
C1045 C1040 1.479 . S
C1045 C1044 1.405 . S
C1045 H1071 0.931 . S
U1046 O1047 2.454 . S
U1046 O1048 2.458 . S
U1046 C1049 2.984 . S
U1046 C1050 2.847 1_545 S
U1046 C1063 2.882 . S
U1046 O1064 2.441 1_545 S
U1046 O1065 2.420 1_545 S
U1046 O1066 2.455 . S
U1046 O1067 2.449 . S
O1047 U1046 2.454 . S
O1047 C1049 1.353 . S
O1048 U1046 2.458 . S
O1048 C1049 1.286 . S
C1049 U1046 2.984 . S
C1049 O1047 1.353 . S
C1049 O1048 1.286 . S
C1049 C1051 1.363 . S
C1050 C1040 1.465 . S
C1050 U1046 2.847 1_565 S
C1050 O1064 1.249 . S
C1050 O1065 1.202 . S
C1051 C1049 1.363 . S
C1051 C1053 1.408 . S
C1051 C1056 1.342 . S
C1052 C1053 1.310 . S
C1052 C1055 1.461 . S
C1052 H1072 0.932 . S
C1053 C1051 1.408 . S
C1053 C1052 1.310 . S
C1053 H1073 0.930 . S
C1054 C1055 1.474 . S
C1054 C1056 1.285 . S
C1054 H1074 0.929 . S
C1055 C1052 1.461 . S
C1055 C1054 1.474 . S
C1056 C1051 1.342 . S
C1056 C1054 1.285 . S
C1056 H1075 0.930 . S
C1057 C1060 1.424 . S
C1057 C1062 1.245 . S
C1057 C1063 1.428 . S
C1058 C1061 1.260 . S
C1058 C1062 1.477 . S
C1058 H1076 0.932 . S
C1059 C1060 1.384 . S
C1059 C1061 1.479 . S
C1059 H1077 0.929 . S
C1060 C1057 1.424 . S
C1060 C1059 1.384 . S
C1060 H1078 0.928 . S
C1061 C1058 1.260 . S
C1061 C1059 1.479 . S
C1062 C1057 1.245 . S
C1062 C1058 1.477 . S
C1062 H1079 0.932 . S
C1063 U1046 2.882 . S
C1063 C1057 1.428 . S
C1063 O1066 1.301 . S
C1063 O1067 1.282 . S
O1064 U1046 2.441 1_565 S
O1064 C1050 1.249 . S
O1065 U1046 2.420 1_565 S
O1065 C1050 1.202 . S
O1066 U1046 2.455 . S
O1066 C1063 1.301 . S
O1067 U1046 2.449 . S
O1067 C1063 1.282 . S
H1068 C1041 0.931 . S
H1069 C1043 0.929 . S
H1070 C1044 0.930 . S
H1071 C1045 0.931 . S
H1072 C1052 0.932 . S
H1073 C1053 0.930 . S
H1074 C1054 0.929 . S
H1075 C1056 0.930 . S
H1076 C1058 0.932 . S
H1077 C1059 0.929 . S
H1078 C1060 0.928 . S
H1079 C1062 0.932 . S
C1080 C1081 1.264 . S
C1080 C1085 1.479 . S
C1080 C1090 1.465 . S
C1081 C1080 1.264 . S
C1081 C1083 1.339 . S
C1081 H1108 0.931 . S
C1082 C1083 1.395 . S
C1082 C1084 1.320 . S
C1083 C1081 1.339 . S
C1083 C1082 1.395 . S
C1083 H1109 0.929 . S
C1084 C1082 1.320 . S
C1084 C1085 1.405 . S
C1084 H1110 0.930 . S
C1085 C1080 1.479 . S
C1085 C1084 1.405 . S
C1085 H1111 0.931 . S
U1086 O1087 2.454 1_556 S
U1086 O1088 2.458 1_556 S
U1086 C1089 2.984 1_556 S
U1086 C1090 2.847 . S
U1086 C1103 2.882 . S
U1086 O1104 2.441 . S
U1086 O1105 2.420 . S
U1086 O1106 2.455 . S
U1086 O1107 2.449 . S
O1087 U1086 2.454 1_554 S
O1087 C1089 1.353 . S
O1088 U1086 2.458 1_554 S
O1088 C1089 1.286 . S
C1089 U1086 2.984 1_554 S
C1089 O1087 1.353 . S
C1089 O1088 1.286 . S
C1089 C1091 1.363 . S
C1090 C1080 1.465 . S
C1090 U1086 2.847 . S
C1090 O1104 1.249 . S
C1090 O1105 1.202 . S
C1091 C1089 1.363 . S
C1091 C1093 1.408 . S
C1091 C1096 1.342 . S
C1092 C1093 1.310 . S
C1092 C1095 1.461 . S
C1092 H1112 0.932 . S
C1093 C1091 1.408 . S
C1093 C1092 1.310 . S
C1093 H1113 0.930 . S
C1094 C1095 1.474 . S
C1094 C1096 1.285 . S
C1094 H1114 0.929 . S
C1095 C1092 1.461 . S
C1095 C1094 1.474 . S
C1096 C1091 1.342 . S
C1096 C1094 1.285 . S
C1096 H1115 0.930 . S
C1097 C1100 1.424 . S
C1097 C1102 1.245 . S
C1097 C1103 1.428 . S
C1098 C1101 1.260 . S
C1098 C1102 1.477 . S
C1098 H1116 0.932 . S
C1099 C1100 1.384 . S
C1099 C1101 1.479 . S
C1099 H1117 0.929 . S
C1100 C1097 1.424 . S
C1100 C1099 1.384 . S
C1100 H1118 0.928 . S
C1101 C1098 1.260 . S
C1101 C1099 1.479 . S
C1102 C1097 1.245 . S
C1102 C1098 1.477 . S
C1102 H1119 0.932 . S
C1103 U1086 2.882 . S
C1103 C1097 1.428 . S
C1103 O1106 1.301 . S
C1103 O1107 1.282 . S
O1104 U1086 2.441 . S
O1104 C1090 1.249 . S
O1105 U1086 2.420 . S
O1105 C1090 1.202 . S
O1106 U1086 2.455 . S
O1106 C1103 1.301 . S
O1107 U1086 2.449 . S
O1107 C1103 1.282 . S
H1108 C1081 0.931 . S
H1109 C1083 0.929 . S
H1110 C1084 0.930 . S
H1111 C1085 0.931 . S
H1112 C1092 0.932 . S
H1113 C1093 0.930 . S
H1114 C1094 0.929 . S
H1115 C1096 0.930 . S
H1116 C1098 0.932 . S
H1117 C1099 0.929 . S
H1118 C1100 0.928 . S
H1119 C1102 0.932 . S
C1120 C1121 1.264 . S
C1120 C1125 1.479 . S
C1120 C1130 1.465 . S
C1121 C1120 1.264 . S
C1121 C1123 1.339 . S
C1121 H1148 0.931 . S
C1122 C1123 1.395 . S
C1122 C1124 1.320 . S
C1123 C1121 1.339 . S
C1123 C1122 1.395 . S
C1123 H1149 0.929 . S
C1124 C1122 1.320 . S
C1124 C1125 1.405 . S
C1124 H1150 0.930 . S
C1125 C1120 1.479 . S
C1125 C1124 1.405 . S
C1125 H1151 0.931 . S
U1126 O1127 2.454 . S
U1126 O1128 2.458 . S
U1126 C1129 2.984 . S
U1126 C1130 2.847 1_455 S
U1126 C1143 2.882 . S
U1126 O1144 2.441 1_455 S
U1126 O1145 2.420 1_455 S
U1126 O1146 2.455 . S
U1126 O1147 2.449 . S
O1127 U1126 2.454 . S
O1127 C1129 1.353 . S
O1128 U1126 2.458 . S
O1128 C1129 1.286 . S
C1129 U1126 2.984 . S
C1129 O1127 1.353 . S
C1129 O1128 1.286 . S
C1129 C1131 1.363 . S
C1130 C1120 1.465 . S
C1130 U1126 2.847 1_655 S
C1130 O1144 1.249 . S
C1130 O1145 1.202 . S
C1131 C1129 1.363 . S
C1131 C1133 1.408 . S
C1131 C1136 1.342 . S
C1132 C1133 1.310 . S
C1132 C1135 1.461 . S
C1132 H1152 0.932 . S
C1133 C1131 1.408 . S
C1133 C1132 1.310 . S
C1133 H1153 0.930 . S
C1134 C1135 1.474 . S
C1134 C1136 1.285 . S
C1134 H1154 0.929 . S
C1135 C1132 1.461 . S
C1135 C1134 1.474 . S
C1136 C1131 1.342 . S
C1136 C1134 1.285 . S
C1136 H1155 0.930 . S
C1137 C1140 1.424 . S
C1137 C1142 1.245 . S
C1137 C1143 1.428 . S
C1138 C1141 1.260 . S
C1138 C1142 1.477 . S
C1138 H1156 0.932 . S
C1139 C1140 1.384 . S
C1139 C1141 1.479 . S
C1139 H1157 0.929 . S
C1140 C1137 1.424 . S
C1140 C1139 1.384 . S
C1140 H1158 0.928 . S
C1141 C1138 1.260 . S
C1141 C1139 1.479 . S
C1142 C1137 1.245 . S
C1142 C1138 1.477 . S
C1142 H1159 0.932 . S
C1143 U1126 2.882 . S
C1143 C1137 1.428 . S
C1143 O1146 1.301 . S
C1143 O1147 1.282 . S
O1144 U1126 2.441 1_655 S
O1144 C1130 1.249 . S
O1145 U1126 2.420 1_655 S
O1145 C1130 1.202 . S
O1146 U1126 2.455 . S
O1146 C1143 1.301 . S
O1147 U1126 2.449 . S
O1147 C1143 1.282 . S
H1148 C1121 0.931 . S
H1149 C1123 0.929 . S
H1150 C1124 0.930 . S
H1151 C1125 0.931 . S
H1152 C1132 0.932 . S
H1153 C1133 0.930 . S
H1154 C1134 0.929 . S
H1155 C1136 0.930 . S
H1156 C1138 0.932 . S
H1157 C1139 0.929 . S
H1158 C1140 0.928 . S
H1159 C1142 0.932 . S
C1160 C1161 1.264 . S
C1160 C1165 1.479 . S
C1160 C1170 1.465 . S
C1161 C1160 1.264 . S
C1161 C1163 1.339 . S
C1161 H1188 0.931 . S
C1162 C1163 1.395 . S
C1162 C1164 1.320 . S
C1163 C1161 1.339 . S
C1163 C1162 1.395 . S
C1163 H1189 0.929 . S
C1164 C1162 1.320 . S
C1164 C1165 1.405 . S
C1164 H1190 0.930 . S
C1165 C1160 1.479 . S
C1165 C1164 1.405 . S
C1165 H1191 0.931 . S
U1166 O1167 2.454 . S
U1166 O1168 2.458 . S
U1166 C1169 2.984 . S
U1166 C1170 2.847 . S
U1166 C1183 2.882 . S
U1166 O1184 2.441 . S
U1166 O1185 2.420 . S
U1166 O1186 2.455 . S
U1166 O1187 2.449 . S
O1167 U1166 2.454 . S
O1167 C1169 1.353 . S
O1168 U1166 2.458 . S
O1168 C1169 1.286 . S
C1169 U1166 2.984 . S
C1169 O1167 1.353 . S
C1169 O1168 1.286 . S
C1169 C1171 1.363 . S
C1170 C1160 1.465 . S
C1170 U1166 2.847 . S
C1170 O1184 1.249 . S
C1170 O1185 1.202 . S
C1171 C1169 1.363 . S
C1171 C1173 1.408 . S
C1171 C1176 1.342 . S
C1172 C1173 1.310 . S
C1172 C1175 1.461 . S
C1172 H1192 0.932 . S
C1173 C1171 1.408 . S
C1173 C1172 1.310 . S
C1173 H1193 0.930 . S
C1174 C1175 1.474 . S
C1174 C1176 1.285 . S
C1174 H1194 0.929 . S
C1175 C1172 1.461 . S
C1175 C1174 1.474 . S
C1176 C1171 1.342 . S
C1176 C1174 1.285 . S
C1176 H1195 0.930 . S
C1177 C1180 1.424 . S
C1177 C1182 1.245 . S
C1177 C1183 1.428 . S
C1178 C1181 1.260 . S
C1178 C1182 1.477 . S
C1178 H1196 0.932 . S
C1179 C1180 1.384 . S
C1179 C1181 1.479 . S
C1179 H1197 0.929 . S
C1180 C1177 1.424 . S
C1180 C1179 1.384 . S
C1180 H1198 0.928 . S
C1181 C1178 1.260 . S
C1181 C1179 1.479 . S
C1182 C1177 1.245 . S
C1182 C1178 1.477 . S
C1182 H1199 0.932 . S
C1183 U1166 2.882 . S
C1183 C1177 1.428 . S
C1183 O1186 1.301 . S
C1183 O1187 1.282 . S
O1184 U1166 2.441 . S
O1184 C1170 1.249 . S
O1185 U1166 2.420 . S
O1185 C1170 1.202 . S
O1186 U1166 2.455 . S
O1186 C1183 1.301 . S
O1187 U1166 2.449 . S
O1187 C1183 1.282 . S
H1188 C1161 0.931 . S
H1189 C1163 0.929 . S
H1190 C1164 0.930 . S
H1191 C1165 0.931 . S
H1192 C1172 0.932 . S
H1193 C1173 0.930 . S
H1194 C1174 0.929 . S
H1195 C1176 0.930 . S
H1196 C1178 0.932 . S
H1197 C1179 0.929 . S
H1198 C1180 0.928 . S
H1199 C1182 0.932 . S
C1200 C1201 1.264 . S
C1200 C1205 1.479 . S
C1200 C1210 1.465 . S
C1201 C1200 1.264 . S
C1201 C1203 1.339 . S
C1201 H1228 0.931 . S
C1202 C1203 1.395 . S
C1202 C1204 1.320 . S
C1203 C1201 1.339 . S
C1203 C1202 1.395 . S
C1203 H1229 0.929 . S
C1204 C1202 1.320 . S
C1204 C1205 1.405 . S
C1204 H1230 0.930 . S
C1205 C1200 1.479 . S
C1205 C1204 1.405 . S
C1205 H1231 0.931 . S
U1206 O1207 2.454 . S
U1206 O1208 2.458 . S
U1206 C1209 2.984 . S
U1206 C1210 2.847 . S
U1206 C1223 2.882 . S
U1206 O1224 2.441 . S
U1206 O1225 2.420 . S
U1206 O1226 2.455 . S
U1206 O1227 2.449 . S
O1207 U1206 2.454 . S
O1207 C1209 1.353 . S
O1208 U1206 2.458 . S
O1208 C1209 1.286 . S
C1209 U1206 2.984 . S
C1209 O1207 1.353 . S
C1209 O1208 1.286 . S
C1209 C1211 1.363 . S
C1210 C1200 1.465 . S
C1210 U1206 2.847 . S
C1210 O1224 1.249 . S
C1210 O1225 1.202 . S
C1211 C1209 1.363 . S
C1211 C1213 1.408 . S
C1211 C1216 1.342 . S
C1212 C1213 1.310 . S
C1212 C1215 1.461 . S
C1212 H1232 0.932 . S
C1213 C1211 1.408 . S
C1213 C1212 1.310 . S
C1213 H1233 0.930 . S
C1214 C1215 1.474 . S
C1214 C1216 1.285 . S
C1214 H1234 0.929 . S
C1215 C1212 1.461 . S
C1215 C1214 1.474 . S
C1216 C1211 1.342 . S
C1216 C1214 1.285 . S
C1216 H1235 0.930 . S
C1217 C1220 1.424 . S
C1217 C1222 1.245 . S
C1217 C1223 1.428 . S
C1218 C1221 1.260 . S
C1218 C1222 1.477 . S
C1218 H1236 0.932 . S
C1219 C1220 1.384 . S
C1219 C1221 1.479 . S
C1219 H1237 0.929 . S
C1220 C1217 1.424 . S
C1220 C1219 1.384 . S
C1220 H1238 0.928 . S
C1221 C1218 1.260 . S
C1221 C1219 1.479 . S
C1222 C1217 1.245 . S
C1222 C1218 1.477 . S
C1222 H1239 0.932 . S
C1223 U1206 2.882 . S
C1223 C1217 1.428 . S
C1223 O1226 1.301 . S
C1223 O1227 1.282 . S
O1224 U1206 2.441 . S
O1224 C1210 1.249 . S
O1225 U1206 2.420 . S
O1225 C1210 1.202 . S
O1226 U1206 2.455 . S
O1226 C1223 1.301 . S
O1227 U1206 2.449 . S
O1227 C1223 1.282 . S
H1228 C1201 0.931 . S
H1229 C1203 0.929 . S
H1230 C1204 0.930 . S
H1231 C1205 0.931 . S
H1232 C1212 0.932 . S
H1233 C1213 0.930 . S
H1234 C1214 0.929 . S
H1235 C1216 0.930 . S
H1236 C1218 0.932 . S
H1237 C1219 0.929 . S
H1238 C1220 0.928 . S
H1239 C1222 0.932 . S
C1240 C1241 1.264 . S
C1240 C1245 1.479 . S
C1240 C1250 1.465 . S
C1241 C1240 1.264 . S
C1241 C1243 1.339 . S
C1241 H1268 0.931 . S
C1242 C1243 1.395 . S
C1242 C1244 1.320 . S
C1243 C1241 1.339 . S
C1243 C1242 1.395 . S
C1243 H1269 0.929 . S
C1244 C1242 1.320 . S
C1244 C1245 1.405 . S
C1244 H1270 0.930 . S
C1245 C1240 1.479 . S
C1245 C1244 1.405 . S
C1245 H1271 0.931 . S
U1246 O1247 2.454 . S
U1246 O1248 2.458 . S
U1246 C1249 2.984 . S
U1246 C1250 2.847 . S
U1246 C1263 2.882 . S
U1246 O1264 2.441 . S
U1246 O1265 2.420 . S
U1246 O1266 2.455 . S
U1246 O1267 2.449 . S
O1247 U1246 2.454 . S
O1247 C1249 1.353 . S
O1248 U1246 2.458 . S
O1248 C1249 1.286 . S
C1249 U1246 2.984 . S
C1249 O1247 1.353 . S
C1249 O1248 1.286 . S
C1249 C1251 1.363 1_655 S
C1250 C1240 1.465 . S
C1250 U1246 2.847 . S
C1250 O1264 1.249 . S
C1250 O1265 1.202 . S
C1251 C1249 1.363 1_455 S
C1251 C1253 1.408 . S
C1251 C1256 1.342 . S
C1252 C1253 1.310 . S
C1252 C1255 1.461 . S
C1252 H1272 0.932 . S
C1253 C1251 1.408 . S
C1253 C1252 1.310 . S
C1253 H1273 0.930 . S
C1254 C1255 1.474 . S
C1254 C1256 1.285 . S
C1254 H1274 0.929 . S
C1255 C1252 1.461 . S
C1255 C1254 1.474 . S
C1256 C1251 1.342 . S
C1256 C1254 1.285 . S
C1256 H1275 0.930 1_455 S
C1257 C1260 1.424 . S
C1257 C1262 1.245 . S
C1257 C1263 1.428 . S
C1258 C1261 1.260 . S
C1258 C1262 1.477 . S
C1258 H1276 0.932 . S
C1259 C1260 1.384 . S
C1259 C1261 1.479 . S
C1259 H1277 0.929 . S
C1260 C1257 1.424 . S
C1260 C1259 1.384 . S
C1260 H1278 0.928 . S
C1261 C1258 1.260 . S
C1261 C1259 1.479 . S
C1262 C1257 1.245 . S
C1262 C1258 1.477 . S
C1262 H1279 0.932 . S
C1263 U1246 2.882 . S
C1263 C1257 1.428 . S
C1263 O1266 1.301 . S
C1263 O1267 1.282 . S
O1264 U1246 2.441 . S
O1264 C1250 1.249 . S
O1265 U1246 2.420 . S
O1265 C1250 1.202 . S
O1266 U1246 2.455 . S
O1266 C1263 1.301 . S
O1267 U1246 2.449 . S
O1267 C1263 1.282 . S
H1268 C1241 0.931 . S
H1269 C1243 0.929 . S
H1270 C1244 0.930 . S
H1271 C1245 0.931 . S
H1272 C1252 0.932 . S
H1273 C1253 0.930 . S
H1274 C1254 0.929 . S
H1275 C1256 0.930 1_655 S
H1276 C1258 0.932 . S
H1277 C1259 0.929 . S
H1278 C1260 0.928 . S
H1279 C1262 0.932 . S
C1280 C1281 1.264 . S
C1280 C1285 1.479 . S
C1280 C1290 1.465 . S
C1281 C1280 1.264 . S
C1281 C1283 1.339 . S
C1281 H1308 0.931 . S
C1282 C1283 1.395 . S
C1282 C1284 1.320 . S
C1283 C1281 1.339 . S
C1283 C1282 1.395 . S
C1283 H1309 0.929 . S
C1284 C1282 1.320 . S
C1284 C1285 1.405 . S
C1284 H1310 0.930 . S
C1285 C1280 1.479 . S
C1285 C1284 1.405 . S
C1285 H1311 0.931 . S
U1286 O1287 2.454 . S
U1286 O1288 2.458 . S
U1286 C1289 2.984 . S
U1286 C1290 2.847 . S
U1286 C1303 2.882 . S
U1286 O1304 2.441 . S
U1286 O1305 2.420 . S
U1286 O1306 2.455 . S
U1286 O1307 2.449 . S
O1287 U1286 2.454 . S
O1287 C1289 1.353 . S
O1288 U1286 2.458 . S
O1288 C1289 1.286 . S
C1289 U1286 2.984 . S
C1289 O1287 1.353 . S
C1289 O1288 1.286 . S
C1289 C1291 1.363 . S
C1290 C1280 1.465 . S
C1290 U1286 2.847 . S
C1290 O1304 1.249 . S
C1290 O1305 1.202 . S
C1291 C1289 1.363 . S
C1291 C1293 1.408 . S
C1291 C1296 1.342 . S
C1292 C1293 1.310 . S
C1292 C1295 1.461 . S
C1292 H1312 0.932 . S
C1293 C1291 1.408 . S
C1293 C1292 1.310 . S
C1293 H1313 0.930 . S
C1294 C1295 1.474 . S
C1294 C1296 1.285 . S
C1294 H1314 0.929 . S
C1295 C1292 1.461 . S
C1295 C1294 1.474 . S
C1296 C1291 1.342 . S
C1296 C1294 1.285 . S
C1296 H1315 0.930 . S
C1297 C1300 1.424 . S
C1297 C1302 1.245 . S
C1297 C1303 1.428 . S
C1298 C1301 1.260 . S
C1298 C1302 1.477 . S
C1298 H1316 0.932 . S
C1299 C1300 1.384 . S
C1299 C1301 1.479 . S
C1299 H1317 0.929 . S
C1300 C1297 1.424 . S
C1300 C1299 1.384 . S
C1300 H1318 0.928 . S
C1301 C1298 1.260 . S
C1301 C1299 1.479 . S
C1302 C1297 1.245 . S
C1302 C1298 1.477 . S
C1302 H1319 0.932 . S
C1303 U1286 2.882 . S
C1303 C1297 1.428 . S
C1303 O1306 1.301 . S
C1303 O1307 1.282 . S
O1304 U1286 2.441 . S
O1304 C1290 1.249 . S
O1305 U1286 2.420 . S
O1305 C1290 1.202 . S
O1306 U1286 2.455 . S
O1306 C1303 1.301 . S
O1307 U1286 2.449 . S
O1307 C1303 1.282 . S
H1308 C1281 0.931 . S
H1309 C1283 0.929 . S
H1310 C1284 0.930 . S
H1311 C1285 0.931 . S
H1312 C1292 0.932 . S
H1313 C1293 0.930 . S
H1314 C1294 0.929 . S
H1315 C1296 0.930 . S
H1316 C1298 0.932 . S
H1317 C1299 0.929 . S
H1318 C1300 0.928 . S
H1319 C1302 0.932 . S
C1320 C1321 1.264 . S
C1320 C1325 1.479 . S
C1320 C1330 1.465 . S
C1321 C1320 1.264 . S
C1321 C1323 1.339 . S
C1321 H1348 0.931 . S
C1322 C1323 1.395 . S
C1322 C1324 1.320 . S
C1323 C1321 1.339 . S
C1323 C1322 1.395 . S
C1323 H1349 0.929 . S
C1324 C1322 1.320 . S
C1324 C1325 1.405 . S
C1324 H1350 0.930 . S
C1325 C1320 1.479 . S
C1325 C1324 1.405 . S
C1325 H1351 0.931 . S
U1326 O1327 2.454 . S
U1326 O1328 2.458 . S
U1326 C1329 2.984 . S
U1326 C1330 2.847 . S
U1326 C1343 2.882 . S
U1326 O1344 2.441 . S
U1326 O1345 2.420 . S
U1326 O1346 2.455 . S
U1326 O1347 2.449 . S
O1327 U1326 2.454 . S
O1327 C1329 1.353 . S
O1328 U1326 2.458 . S
O1328 C1329 1.286 . S
C1329 U1326 2.984 . S
C1329 O1327 1.353 . S
C1329 O1328 1.286 . S
C1329 C1331 1.363 1_556 S
C1330 C1320 1.465 . S
C1330 U1326 2.847 . S
C1330 O1344 1.249 . S
C1330 O1345 1.202 . S
C1331 C1329 1.363 1_554 S
C1331 C1333 1.408 . S
C1331 C1336 1.342 . S
C1332 C1333 1.310 . S
C1332 C1335 1.461 . S
C1332 H1352 0.932 . S
C1333 C1331 1.408 . S
C1333 C1332 1.310 . S
C1333 H1353 0.930 . S
C1334 C1335 1.474 . S
C1334 C1336 1.285 . S
C1334 H1354 0.929 . S
C1335 C1332 1.461 . S
C1335 C1334 1.474 . S
C1336 C1331 1.342 . S
C1336 C1334 1.285 . S
C1336 H1355 0.930 1_554 S
C1337 C1340 1.424 . S
C1337 C1342 1.245 . S
C1337 C1343 1.428 . S
C1338 C1341 1.260 . S
C1338 C1342 1.477 . S
C1338 H1356 0.932 . S
C1339 C1340 1.384 . S
C1339 C1341 1.479 . S
C1339 H1357 0.929 . S
C1340 C1337 1.424 . S
C1340 C1339 1.384 . S
C1340 H1358 0.928 . S
C1341 C1338 1.260 . S
C1341 C1339 1.479 . S
C1342 C1337 1.245 . S
C1342 C1338 1.477 . S
C1342 H1359 0.932 . S
C1343 U1326 2.882 . S
C1343 C1337 1.428 . S
C1343 O1346 1.301 . S
C1343 O1347 1.282 . S
O1344 U1326 2.441 . S
O1344 C1330 1.249 . S
O1345 U1326 2.420 . S
O1345 C1330 1.202 . S
O1346 U1326 2.455 . S
O1346 C1343 1.301 . S
O1347 U1326 2.449 . S
O1347 C1343 1.282 . S
H1348 C1321 0.931 . S
H1349 C1323 0.929 . S
H1350 C1324 0.930 . S
H1351 C1325 0.931 . S
H1352 C1332 0.932 . S
H1353 C1333 0.930 . S
H1354 C1334 0.929 . S
H1355 C1336 0.930 1_556 S
H1356 C1338 0.932 . S
H1357 C1339 0.929 . S
H1358 C1340 0.928 . S
H1359 C1342 0.932 . S
C1360 C1361 1.264 . S
C1360 C1365 1.479 . S
C1360 C1370 1.465 . S
C1361 C1360 1.264 . S
C1361 C1363 1.339 . S
C1361 H1388 0.931 . S
C1362 C1363 1.395 . S
C1362 C1364 1.320 . S
C1363 C1361 1.339 . S
C1363 C1362 1.395 . S
C1363 H1389 0.929 . S
C1364 C1362 1.320 . S
C1364 C1365 1.405 . S
C1364 H1390 0.930 . S
C1365 C1360 1.479 . S
C1365 C1364 1.405 . S
C1365 H1391 0.931 . S
U1366 O1367 2.454 . S
U1366 O1368 2.458 . S
U1366 C1369 2.984 . S
U1366 C1370 2.847 . S
U1366 C1383 2.882 . S
U1366 O1384 2.441 . S
U1366 O1385 2.420 . S
U1366 O1386 2.455 . S
U1366 O1387 2.449 . S
O1367 U1366 2.454 . S
O1367 C1369 1.353 . S
O1368 U1366 2.458 . S
O1368 C1369 1.286 . S
C1369 U1366 2.984 . S
C1369 O1367 1.353 . S
C1369 O1368 1.286 . S
C1369 C1371 1.363 . S
C1370 C1360 1.465 . S
C1370 U1366 2.847 . S
C1370 O1384 1.249 . S
C1370 O1385 1.202 . S
C1371 C1369 1.363 . S
C1371 C1373 1.408 . S
C1371 C1376 1.342 . S
C1372 C1373 1.310 . S
C1372 C1375 1.461 . S
C1372 H1392 0.932 . S
C1373 C1371 1.408 . S
C1373 C1372 1.310 . S
C1373 H1393 0.930 . S
C1374 C1375 1.474 . S
C1374 C1376 1.285 . S
C1374 H1394 0.929 . S
C1375 C1372 1.461 . S
C1375 C1374 1.474 . S
C1376 C1371 1.342 . S
C1376 C1374 1.285 . S
C1376 H1395 0.930 . S
C1377 C1380 1.424 . S
C1377 C1382 1.245 . S
C1377 C1383 1.428 . S
C1378 C1381 1.260 . S
C1378 C1382 1.477 . S
C1378 H1396 0.932 . S
C1379 C1380 1.384 . S
C1379 C1381 1.479 . S
C1379 H1397 0.929 . S
C1380 C1377 1.424 . S
C1380 C1379 1.384 . S
C1380 H1398 0.928 . S
C1381 C1378 1.260 . S
C1381 C1379 1.479 . S
C1382 C1377 1.245 . S
C1382 C1378 1.477 . S
C1382 H1399 0.932 . S
C1383 U1366 2.882 . S
C1383 C1377 1.428 . S
C1383 O1386 1.301 . S
C1383 O1387 1.282 . S
O1384 U1366 2.441 . S
O1384 C1370 1.249 . S
O1385 U1366 2.420 . S
O1385 C1370 1.202 . S
O1386 U1366 2.455 . S
O1386 C1383 1.301 . S
O1387 U1366 2.449 . S
O1387 C1383 1.282 . S
H1388 C1361 0.931 . S
H1389 C1363 0.929 . S
H1390 C1364 0.930 . S
H1391 C1365 0.931 . S
H1392 C1372 0.932 . S
H1393 C1373 0.930 . S
H1394 C1374 0.929 . S
H1395 C1376 0.930 . S
H1396 C1378 0.932 . S
H1397 C1379 0.929 . S
H1398 C1380 0.928 . S
H1399 C1382 0.932 . S
C1400 C1401 1.264 . S
C1400 C1405 1.479 . S
C1400 C1410 1.465 . S
C1401 C1400 1.264 . S
C1401 C1403 1.339 . S
C1401 H1428 0.931 . S
C1402 C1403 1.395 . S
C1402 C1404 1.320 . S
C1403 C1401 1.339 . S
C1403 C1402 1.395 . S
C1403 H1429 0.929 . S
C1404 C1402 1.320 . S
C1404 C1405 1.405 . S
C1404 H1430 0.930 . S
C1405 C1400 1.479 . S
C1405 C1404 1.405 . S
C1405 H1431 0.931 . S
U1406 O1407 2.454 . S
U1406 O1408 2.458 . S
U1406 C1409 2.984 . S
U1406 C1410 2.847 . S
U1406 C1423 2.882 . S
U1406 O1424 2.441 . S
U1406 O1425 2.420 . S
U1406 O1426 2.455 . S
U1406 O1427 2.449 . S
O1407 U1406 2.454 . S
O1407 C1409 1.353 . S
O1408 U1406 2.458 . S
O1408 C1409 1.286 . S
C1409 U1406 2.984 . S
C1409 O1407 1.353 . S
C1409 O1408 1.286 . S
C1409 C1411 1.363 . S
C1410 C1400 1.465 . S
C1410 U1406 2.847 . S
C1410 O1424 1.249 . S
C1410 O1425 1.202 . S
C1411 C1409 1.363 . S
C1411 C1413 1.408 . S
C1411 C1416 1.342 . S
C1412 C1413 1.310 . S
C1412 C1415 1.461 . S
C1412 H1432 0.932 . S
C1413 C1411 1.408 . S
C1413 C1412 1.310 . S
C1413 H1433 0.930 . S
C1414 C1415 1.474 . S
C1414 C1416 1.285 . S
C1414 H1434 0.929 . S
C1415 C1412 1.461 . S
C1415 C1414 1.474 . S
C1416 C1411 1.342 . S
C1416 C1414 1.285 . S
C1416 H1435 0.930 . S
C1417 C1420 1.424 . S
C1417 C1422 1.245 . S
C1417 C1423 1.428 . S
C1418 C1421 1.260 . S
C1418 C1422 1.477 . S
C1418 H1436 0.932 . S
C1419 C1420 1.384 . S
C1419 C1421 1.479 . S
C1419 H1437 0.929 . S
C1420 C1417 1.424 . S
C1420 C1419 1.384 . S
C1420 H1438 0.928 . S
C1421 C1418 1.260 . S
C1421 C1419 1.479 . S
C1422 C1417 1.245 . S
C1422 C1418 1.477 . S
C1422 H1439 0.932 . S
C1423 U1406 2.882 . S
C1423 C1417 1.428 . S
C1423 O1426 1.301 . S
C1423 O1427 1.282 . S
O1424 U1406 2.441 . S
O1424 C1410 1.249 . S
O1425 U1406 2.420 . S
O1425 C1410 1.202 . S
O1426 U1406 2.455 . S
O1426 C1423 1.301 . S
O1427 U1406 2.449 . S
O1427 C1423 1.282 . S
H1428 C1401 0.931 . S
H1429 C1403 0.929 . S
H1430 C1404 0.930 . S
H1431 C1405 0.931 . S
H1432 C1412 0.932 . S
H1433 C1413 0.930 . S
H1434 C1414 0.929 . S
H1435 C1416 0.930 . S
H1436 C1418 0.932 . S
H1437 C1419 0.929 . S
H1438 C1420 0.928 . S
H1439 C1422 0.932 . S
C1440 C1441 1.264 . S
C1440 C1445 1.479 . S
C1440 C1450 1.465 . S
C1441 C1440 1.264 . S
C1441 C1443 1.339 . S
C1441 H1468 0.931 . S
C1442 C1443 1.395 . S
C1442 C1444 1.320 . S
C1443 C1441 1.339 . S
C1443 C1442 1.395 . S
C1443 H1469 0.929 . S
C1444 C1442 1.320 . S
C1444 C1445 1.405 . S
C1444 H1470 0.930 . S
C1445 C1440 1.479 . S
C1445 C1444 1.405 . S
C1445 H1471 0.931 . S
U1446 O1447 2.454 . S
U1446 O1448 2.458 . S
U1446 C1449 2.984 . S
U1446 C1450 2.847 . S
U1446 C1463 2.882 . S
U1446 O1464 2.441 . S
U1446 O1465 2.420 . S
U1446 O1466 2.455 . S
U1446 O1467 2.449 . S
O1447 U1446 2.454 . S
O1447 C1449 1.353 . S
O1448 U1446 2.458 . S
O1448 C1449 1.286 . S
C1449 U1446 2.984 . S
C1449 O1447 1.353 . S
C1449 O1448 1.286 . S
C1449 C1451 1.363 . S
C1450 C1440 1.465 . S
C1450 U1446 2.847 . S
C1450 O1464 1.249 . S
C1450 O1465 1.202 . S
C1451 C1449 1.363 . S
C1451 C1453 1.408 . S
C1451 C1456 1.342 . S
C1452 C1453 1.310 . S
C1452 C1455 1.461 . S
C1452 H1472 0.932 . S
C1453 C1451 1.408 . S
C1453 C1452 1.310 . S
C1453 H1473 0.930 . S
C1454 C1455 1.474 . S
C1454 C1456 1.285 . S
C1454 H1474 0.929 . S
C1455 C1452 1.461 . S
C1455 C1454 1.474 . S
C1456 C1451 1.342 . S
C1456 C1454 1.285 . S
C1456 H1475 0.930 . S
C1457 C1460 1.424 . S
C1457 C1462 1.245 . S
C1457 C1463 1.428 . S
C1458 C1461 1.260 . S
C1458 C1462 1.477 . S
C1458 H1476 0.932 . S
C1459 C1460 1.384 . S
C1459 C1461 1.479 . S
C1459 H1477 0.929 . S
C1460 C1457 1.424 . S
C1460 C1459 1.384 . S
C1460 H1478 0.928 . S
C1461 C1458 1.260 . S
C1461 C1459 1.479 . S
C1462 C1457 1.245 . S
C1462 C1458 1.477 . S
C1462 H1479 0.932 . S
C1463 U1446 2.882 . S
C1463 C1457 1.428 . S
C1463 O1466 1.301 . S
C1463 O1467 1.282 . S
O1464 U1446 2.441 . S
O1464 C1450 1.249 . S
O1465 U1446 2.420 . S
O1465 C1450 1.202 . S
O1466 U1446 2.455 . S
O1466 C1463 1.301 . S
O1467 U1446 2.449 . S
O1467 C1463 1.282 . S
H1468 C1441 0.931 . S
H1469 C1443 0.929 . S
H1470 C1444 0.930 . S
H1471 C1445 0.931 . S
H1472 C1452 0.932 . S
H1473 C1453 0.930 . S
H1474 C1454 0.929 . S
H1475 C1456 0.930 . S
H1476 C1458 0.932 . S
H1477 C1459 0.929 . S
H1478 C1460 0.928 . S
H1479 C1462 0.932 . S
C1480 C1481 1.264 . S
C1480 C1485 1.479 . S
C1480 C1490 1.465 . S
C1481 C1480 1.264 . S
C1481 C1483 1.339 . S
C1481 H1508 0.931 . S
C1482 C1483 1.395 . S
C1482 C1484 1.320 . S
C1483 C1481 1.339 . S
C1483 C1482 1.395 . S
C1483 H1509 0.929 . S
C1484 C1482 1.320 . S
C1484 C1485 1.405 . S
C1484 H1510 0.930 . S
C1485 C1480 1.479 . S
C1485 C1484 1.405 . S
C1485 H1511 0.931 . S
U1486 O1487 2.454 . S
U1486 O1488 2.458 . S
U1486 C1489 2.984 . S
U1486 C1490 2.847 . S
U1486 C1503 2.882 . S
U1486 O1504 2.441 . S
U1486 O1505 2.420 . S
U1486 O1506 2.455 . S
U1486 O1507 2.449 . S
O1487 U1486 2.454 . S
O1487 C1489 1.353 . S
O1488 U1486 2.458 . S
O1488 C1489 1.286 . S
C1489 U1486 2.984 . S
C1489 O1487 1.353 . S
C1489 O1488 1.286 . S
C1489 C1491 1.363 . S
C1490 C1480 1.465 . S
C1490 U1486 2.847 . S
C1490 O1504 1.249 . S
C1490 O1505 1.202 . S
C1491 C1489 1.363 . S
C1491 C1493 1.408 . S
C1491 C1496 1.342 . S
C1492 C1493 1.310 . S
C1492 C1495 1.461 . S
C1492 H1512 0.932 . S
C1493 C1491 1.408 . S
C1493 C1492 1.310 . S
C1493 H1513 0.930 . S
C1494 C1495 1.474 . S
C1494 C1496 1.285 . S
C1494 H1514 0.929 . S
C1495 C1492 1.461 . S
C1495 C1494 1.474 . S
C1496 C1491 1.342 . S
C1496 C1494 1.285 . S
C1496 H1515 0.930 . S
C1497 C1500 1.424 . S
C1497 C1502 1.245 . S
C1497 C1503 1.428 . S
C1498 C1501 1.260 . S
C1498 C1502 1.477 . S
C1498 H1516 0.932 . S
C1499 C1500 1.384 . S
C1499 C1501 1.479 . S
C1499 H1517 0.929 . S
C1500 C1497 1.424 . S
C1500 C1499 1.384 . S
C1500 H1518 0.928 . S
C1501 C1498 1.260 . S
C1501 C1499 1.479 . S
C1502 C1497 1.245 . S
C1502 C1498 1.477 . S
C1502 H1519 0.932 . S
C1503 U1486 2.882 . S
C1503 C1497 1.428 . S
C1503 O1506 1.301 . S
C1503 O1507 1.282 . S
O1504 U1486 2.441 . S
O1504 C1490 1.249 . S
O1505 U1486 2.420 . S
O1505 C1490 1.202 . S
O1506 U1486 2.455 . S
O1506 C1503 1.301 . S
O1507 U1486 2.449 . S
O1507 C1503 1.282 . S
H1508 C1481 0.931 . S
H1509 C1483 0.929 . S
H1510 C1484 0.930 . S
H1511 C1485 0.931 . S
H1512 C1492 0.932 . S
H1513 C1493 0.930 . S
H1514 C1494 0.929 . S
H1515 C1496 0.930 . S
H1516 C1498 0.932 . S
H1517 C1499 0.929 . S
H1518 C1500 0.928 . S
H1519 C1502 0.932 . S
C1520 C1521 1.264 . S
C1520 C1525 1.479 . S
C1520 C1530 1.465 . S
C1521 C1520 1.264 . S
C1521 C1523 1.339 . S
C1521 H1548 0.931 . S
C1522 C1523 1.395 . S
C1522 C1524 1.320 . S
C1523 C1521 1.339 . S
C1523 C1522 1.395 . S
C1523 H1549 0.929 . S
C1524 C1522 1.320 . S
C1524 C1525 1.405 . S
C1524 H1550 0.930 . S
C1525 C1520 1.479 . S
C1525 C1524 1.405 . S
C1525 H1551 0.931 . S
U1526 O1527 2.454 . S
U1526 O1528 2.458 . S
U1526 C1529 2.984 . S
U1526 C1530 2.847 . S
U1526 C1543 2.882 . S
U1526 O1544 2.441 . S
U1526 O1545 2.420 . S
U1526 O1546 2.455 . S
U1526 O1547 2.449 . S
O1527 U1526 2.454 . S
O1527 C1529 1.353 . S
O1528 U1526 2.458 . S
O1528 C1529 1.286 . S
C1529 U1526 2.984 . S
C1529 O1527 1.353 . S
C1529 O1528 1.286 . S
C1529 C1531 1.363 . S
C1530 C1520 1.465 . S
C1530 U1526 2.847 . S
C1530 O1544 1.249 . S
C1530 O1545 1.202 . S
C1531 C1529 1.363 . S
C1531 C1533 1.408 . S
C1531 C1536 1.342 . S
C1532 C1533 1.310 . S
C1532 C1535 1.461 . S
C1532 H1552 0.932 . S
C1533 C1531 1.408 . S
C1533 C1532 1.310 . S
C1533 H1553 0.930 . S
C1534 C1535 1.474 . S
C1534 C1536 1.285 . S
C1534 H1554 0.929 . S
C1535 C1532 1.461 . S
C1535 C1534 1.474 . S
C1536 C1531 1.342 . S
C1536 C1534 1.285 . S
C1536 H1555 0.930 . S
C1537 C1540 1.424 . S
C1537 C1542 1.245 . S
C1537 C1543 1.428 . S
C1538 C1541 1.260 . S
C1538 C1542 1.477 . S
C1538 H1556 0.932 . S
C1539 C1540 1.384 . S
C1539 C1541 1.479 . S
C1539 H1557 0.929 . S
C1540 C1537 1.424 . S
C1540 C1539 1.384 . S
C1540 H1558 0.928 . S
C1541 C1538 1.260 . S
C1541 C1539 1.479 . S
C1542 C1537 1.245 . S
C1542 C1538 1.477 . S
C1542 H1559 0.932 . S
C1543 U1526 2.882 . S
C1543 C1537 1.428 . S
C1543 O1546 1.301 . S
C1543 O1547 1.282 . S
O1544 U1526 2.441 . S
O1544 C1530 1.249 . S
O1545 U1526 2.420 . S
O1545 C1530 1.202 . S
O1546 U1526 2.455 . S
O1546 C1543 1.301 . S
O1547 U1526 2.449 . S
O1547 C1543 1.282 . S
H1548 C1521 0.931 . S
H1549 C1523 0.929 . S
H1550 C1524 0.930 . S
H1551 C1525 0.931 . S
H1552 C1532 0.932 . S
H1553 C1533 0.930 . S
H1554 C1534 0.929 . S
H1555 C1536 0.930 . S
H1556 C1538 0.932 . S
H1557 C1539 0.929 . S
H1558 C1540 0.928 . S
H1559 C1542 0.932 . S
C1560 C1561 1.264 . S
C1560 C1565 1.479 . S
C1560 C1570 1.465 . S
C1561 C1560 1.264 . S
C1561 C1563 1.339 . S
C1561 H1588 0.931 . S
C1562 C1563 1.395 . S
C1562 C1564 1.320 . S
C1563 C1561 1.339 . S
C1563 C1562 1.395 . S
C1563 H1589 0.929 . S
C1564 C1562 1.320 . S
C1564 C1565 1.405 . S
C1564 H1590 0.930 . S
C1565 C1560 1.479 . S
C1565 C1564 1.405 . S
C1565 H1591 0.931 . S
U1566 O1567 2.454 . S
U1566 O1568 2.458 . S
U1566 C1569 2.984 . S
U1566 C1570 2.847 . S
U1566 C1583 2.882 . S
U1566 O1584 2.441 . S
U1566 O1585 2.420 . S
U1566 O1586 2.455 . S
U1566 O1587 2.449 . S
O1567 U1566 2.454 . S
O1567 C1569 1.353 . S
O1568 U1566 2.458 . S
O1568 C1569 1.286 . S
C1569 U1566 2.984 . S
C1569 O1567 1.353 . S
C1569 O1568 1.286 . S
C1569 C1571 1.363 . S
C1570 C1560 1.465 . S
C1570 U1566 2.847 . S
C1570 O1584 1.249 . S
C1570 O1585 1.202 . S
C1571 C1569 1.363 . S
C1571 C1573 1.408 . S
C1571 C1576 1.342 . S
C1572 C1573 1.310 . S
C1572 C1575 1.461 . S
C1572 H1592 0.932 . S
C1573 C1571 1.408 . S
C1573 C1572 1.310 . S
C1573 H1593 0.930 . S
C1574 C1575 1.474 . S
C1574 C1576 1.285 . S
C1574 H1594 0.929 . S
C1575 C1572 1.461 . S
C1575 C1574 1.474 . S
C1576 C1571 1.342 . S
C1576 C1574 1.285 . S
C1576 H1595 0.930 . S
C1577 C1580 1.424 . S
C1577 C1582 1.245 . S
C1577 C1583 1.428 . S
C1578 C1581 1.260 . S
C1578 C1582 1.477 . S
C1578 H1596 0.932 . S
C1579 C1580 1.384 . S
C1579 C1581 1.479 . S
C1579 H1597 0.929 . S
C1580 C1577 1.424 . S
C1580 C1579 1.384 . S
C1580 H1598 0.928 . S
C1581 C1578 1.260 . S
C1581 C1579 1.479 . S
C1582 C1577 1.245 . S
C1582 C1578 1.477 . S
C1582 H1599 0.932 . S
C1583 U1566 2.882 . S
C1583 C1577 1.428 . S
C1583 O1586 1.301 . S
C1583 O1587 1.282 . S
O1584 U1566 2.441 . S
O1584 C1570 1.249 . S
O1585 U1566 2.420 . S
O1585 C1570 1.202 . S
O1586 U1566 2.455 . S
O1586 C1583 1.301 . S
O1587 U1566 2.449 . S
O1587 C1583 1.282 . S
H1588 C1561 0.931 . S
H1589 C1563 0.929 . S
H1590 C1564 0.930 . S
H1591 C1565 0.931 . S
H1592 C1572 0.932 . S
H1593 C1573 0.930 . S
H1594 C1574 0.929 . S
H1595 C1576 0.930 . S
H1596 C1578 0.932 . S
H1597 C1579 0.929 . S
H1598 C1580 0.928 . S
H1599 C1582 0.932 . S
C1600 C1601 1.264 . S
C1600 C1605 1.479 . S
C1600 C1610 1.465 . S
C1601 C1600 1.264 . S
C1601 C1603 1.339 . S
C1601 H1628 0.931 . S
C1602 C1603 1.395 . S
C1602 C1604 1.320 . S
C1603 C1601 1.339 . S
C1603 C1602 1.395 . S
C1603 H1629 0.929 . S
C1604 C1602 1.320 . S
C1604 C1605 1.405 . S
C1604 H1630 0.930 . S
C1605 C1600 1.479 . S
C1605 C1604 1.405 . S
C1605 H1631 0.931 . S
U1606 O1607 2.454 . S
U1606 O1608 2.458 . S
U1606 C1609 2.984 . S
U1606 C1610 2.847 1_455 S
U1606 C1623 2.882 . S
U1606 O1624 2.441 1_455 S
U1606 O1625 2.420 1_455 S
U1606 O1626 2.455 . S
U1606 O1627 2.449 . S
O1607 U1606 2.454 . S
O1607 C1609 1.353 . S
O1608 U1606 2.458 . S
O1608 C1609 1.286 . S
C1609 U1606 2.984 . S
C1609 O1607 1.353 . S
C1609 O1608 1.286 . S
C1609 C1611 1.363 . S
C1610 C1600 1.465 . S
C1610 U1606 2.847 1_655 S
C1610 O1624 1.249 . S
C1610 O1625 1.202 . S
C1611 C1609 1.363 . S
C1611 C1613 1.408 . S
C1611 C1616 1.342 . S
C1612 C1613 1.310 . S
C1612 C1615 1.461 . S
C1612 H1632 0.932 . S
C1613 C1611 1.408 . S
C1613 C1612 1.310 . S
C1613 H1633 0.930 . S
C1614 C1615 1.474 . S
C1614 C1616 1.285 . S
C1614 H1634 0.929 . S
C1615 C1612 1.461 . S
C1615 C1614 1.474 . S
C1616 C1611 1.342 . S
C1616 C1614 1.285 . S
C1616 H1635 0.930 . S
C1617 C1620 1.424 . S
C1617 C1622 1.245 . S
C1617 C1623 1.428 . S
C1618 C1621 1.260 . S
C1618 C1622 1.477 . S
C1618 H1636 0.932 . S
C1619 C1620 1.384 . S
C1619 C1621 1.479 . S
C1619 H1637 0.929 . S
C1620 C1617 1.424 . S
C1620 C1619 1.384 . S
C1620 H1638 0.928 . S
C1621 C1618 1.260 . S
C1621 C1619 1.479 . S
C1622 C1617 1.245 . S
C1622 C1618 1.477 . S
C1622 H1639 0.932 . S
C1623 U1606 2.882 . S
C1623 C1617 1.428 . S
C1623 O1626 1.301 . S
C1623 O1627 1.282 . S
O1624 U1606 2.441 1_655 S
O1624 C1610 1.249 . S
O1625 U1606 2.420 1_655 S
O1625 C1610 1.202 . S
O1626 U1606 2.455 . S
O1626 C1623 1.301 . S
O1627 U1606 2.449 . S
O1627 C1623 1.282 . S
H1628 C1601 0.931 . S
H1629 C1603 0.929 . S
H1630 C1604 0.930 . S
H1631 C1605 0.931 . S
H1632 C1612 0.932 . S
H1633 C1613 0.930 . S
H1634 C1614 0.929 . S
H1635 C1616 0.930 . S
H1636 C1618 0.932 . S
H1637 C1619 0.929 . S
H1638 C1620 0.928 . S
H1639 C1622 0.932 . S
C1640 C1641 1.264 . S
C1640 C1645 1.479 . S
C1640 C1650 1.465 . S
C1641 C1640 1.264 . S
C1641 C1643 1.339 . S
C1641 H1668 0.931 . S
C1642 C1643 1.395 . S
C1642 C1644 1.320 . S
C1643 C1641 1.339 . S
C1643 C1642 1.395 . S
C1643 H1669 0.929 . S
C1644 C1642 1.320 . S
C1644 C1645 1.405 . S
C1644 H1670 0.930 . S
C1645 C1640 1.479 . S
C1645 C1644 1.405 . S
C1645 H1671 0.931 . S
U1646 O1647 2.454 . S
U1646 O1648 2.458 . S
U1646 C1649 2.984 . S
U1646 C1650 2.847 . S
U1646 C1663 2.882 . S
U1646 O1664 2.441 . S
U1646 O1665 2.420 . S
U1646 O1666 2.455 . S
U1646 O1667 2.449 . S
O1647 U1646 2.454 . S
O1647 C1649 1.353 . S
O1648 U1646 2.458 . S
O1648 C1649 1.286 . S
C1649 U1646 2.984 . S
C1649 O1647 1.353 . S
C1649 O1648 1.286 . S
C1649 C1651 1.363 . S
C1650 C1640 1.465 . S
C1650 U1646 2.847 . S
C1650 O1664 1.249 . S
C1650 O1665 1.202 . S
C1651 C1649 1.363 . S
C1651 C1653 1.408 . S
C1651 C1656 1.342 . S
C1652 C1653 1.310 . S
C1652 C1655 1.461 . S
C1652 H1672 0.932 . S
C1653 C1651 1.408 . S
C1653 C1652 1.310 . S
C1653 H1673 0.930 . S
C1654 C1655 1.474 . S
C1654 C1656 1.285 . S
C1654 H1674 0.929 . S
C1655 C1652 1.461 . S
C1655 C1654 1.474 . S
C1656 C1651 1.342 . S
C1656 C1654 1.285 . S
C1656 H1675 0.930 . S
C1657 C1660 1.424 . S
C1657 C1662 1.245 . S
C1657 C1663 1.428 . S
C1658 C1661 1.260 . S
C1658 C1662 1.477 . S
C1658 H1676 0.932 . S
C1659 C1660 1.384 . S
C1659 C1661 1.479 . S
C1659 H1677 0.929 . S
C1660 C1657 1.424 . S
C1660 C1659 1.384 . S
C1660 H1678 0.928 . S
C1661 C1658 1.260 . S
C1661 C1659 1.479 . S
C1662 C1657 1.245 . S
C1662 C1658 1.477 . S
C1662 H1679 0.932 . S
C1663 U1646 2.882 . S
C1663 C1657 1.428 . S
C1663 O1666 1.301 . S
C1663 O1667 1.282 . S
O1664 U1646 2.441 . S
O1664 C1650 1.249 . S
O1665 U1646 2.420 . S
O1665 C1650 1.202 . S
O1666 U1646 2.455 . S
O1666 C1663 1.301 . S
O1667 U1646 2.449 . S
O1667 C1663 1.282 . S
H1668 C1641 0.931 . S
H1669 C1643 0.929 . S
H1670 C1644 0.930 . S
H1671 C1645 0.931 . S
H1672 C1652 0.932 . S
H1673 C1653 0.930 . S
H1674 C1654 0.929 . S
H1675 C1656 0.930 . S
H1676 C1658 0.932 . S
H1677 C1659 0.929 . S
H1678 C1660 0.928 . S
H1679 C1662 0.932 . S
C1680 C1681 1.264 . S
C1680 C1685 1.479 . S
C1680 C1690 1.465 . S
C1681 C1680 1.264 . S
C1681 C1683 1.339 . S
C1681 H1708 0.931 . S
C1682 C1683 1.395 . S
C1682 C1684 1.320 . S
C1683 C1681 1.339 . S
C1683 C1682 1.395 . S
C1683 H1709 0.929 . S
C1684 C1682 1.320 . S
C1684 C1685 1.405 . S
C1684 H1710 0.930 . S
C1685 C1680 1.479 . S
C1685 C1684 1.405 . S
C1685 H1711 0.931 . S
U1686 O1687 2.454 1_554 S
U1686 O1688 2.458 1_554 S
U1686 C1689 2.984 1_554 S
U1686 C1690 2.847 . S
U1686 C1703 2.882 . S
U1686 O1704 2.441 . S
U1686 O1705 2.420 . S
U1686 O1706 2.455 . S
U1686 O1707 2.449 . S
O1687 U1686 2.454 1_556 S
O1687 C1689 1.353 . S
O1688 U1686 2.458 1_556 S
O1688 C1689 1.286 . S
C1689 U1686 2.984 1_556 S
C1689 O1687 1.353 . S
C1689 O1688 1.286 . S
C1689 C1691 1.363 . S
C1690 C1680 1.465 . S
C1690 U1686 2.847 . S
C1690 O1704 1.249 . S
C1690 O1705 1.202 . S
C1691 C1689 1.363 . S
C1691 C1693 1.408 . S
C1691 C1696 1.342 . S
C1692 C1693 1.310 . S
C1692 C1695 1.461 . S
C1692 H1712 0.932 . S
C1693 C1691 1.408 . S
C1693 C1692 1.310 . S
C1693 H1713 0.930 . S
C1694 C1695 1.474 . S
C1694 C1696 1.285 . S
C1694 H1714 0.929 . S
C1695 C1692 1.461 . S
C1695 C1694 1.474 . S
C1696 C1691 1.342 . S
C1696 C1694 1.285 . S
C1696 H1715 0.930 . S
C1697 C1700 1.424 . S
C1697 C1702 1.245 . S
C1697 C1703 1.428 . S
C1698 C1701 1.260 . S
C1698 C1702 1.477 . S
C1698 H1716 0.932 . S
C1699 C1700 1.384 . S
C1699 C1701 1.479 . S
C1699 H1717 0.929 . S
C1700 C1697 1.424 . S
C1700 C1699 1.384 . S
C1700 H1718 0.928 . S
C1701 C1698 1.260 . S
C1701 C1699 1.479 . S
C1702 C1697 1.245 . S
C1702 C1698 1.477 . S
C1702 H1719 0.932 . S
C1703 U1686 2.882 . S
C1703 C1697 1.428 . S
C1703 O1706 1.301 . S
C1703 O1707 1.282 . S
O1704 U1686 2.441 . S
O1704 C1690 1.249 . S
O1705 U1686 2.420 . S
O1705 C1690 1.202 . S
O1706 U1686 2.455 . S
O1706 C1703 1.301 . S
O1707 U1686 2.449 . S
O1707 C1703 1.282 . S
H1708 C1681 0.931 . S
H1709 C1683 0.929 . S
H1710 C1684 0.930 . S
H1711 C1685 0.931 . S
H1712 C1692 0.932 . S
H1713 C1693 0.930 . S
H1714 C1694 0.929 . S
H1715 C1696 0.930 . S
H1716 C1698 0.932 . S
H1717 C1699 0.929 . S
H1718 C1700 0.928 . S
H1719 C1702 0.932 . S
C1720 C1721 1.264 . S
C1720 C1725 1.479 . S
C1720 C1730 1.465 . S
C1721 C1720 1.264 . S
C1721 C1723 1.339 . S
C1721 H1748 0.931 . S
C1722 C1723 1.395 . S
C1722 C1724 1.320 . S
C1723 C1721 1.339 . S
C1723 C1722 1.395 . S
C1723 H1749 0.929 . S
C1724 C1722 1.320 . S
C1724 C1725 1.405 . S
C1724 H1750 0.930 . S
C1725 C1720 1.479 . S
C1725 C1724 1.405 . S
C1725 H1751 0.931 . S
U1726 O1727 2.454 . S
U1726 O1728 2.458 . S
U1726 C1729 2.984 . S
U1726 C1730 2.847 . S
U1726 C1743 2.882 . S
U1726 O1744 2.441 . S
U1726 O1745 2.420 . S
U1726 O1746 2.455 . S
U1726 O1747 2.449 . S
O1727 U1726 2.454 . S
O1727 C1729 1.353 . S
O1728 U1726 2.458 . S
O1728 C1729 1.286 . S
C1729 U1726 2.984 . S
C1729 O1727 1.353 . S
C1729 O1728 1.286 . S
C1729 C1731 1.363 . S
C1730 C1720 1.465 . S
C1730 U1726 2.847 . S
C1730 O1744 1.249 . S
C1730 O1745 1.202 . S
C1731 C1729 1.363 . S
C1731 C1733 1.408 . S
C1731 C1736 1.342 . S
C1732 C1733 1.310 . S
C1732 C1735 1.461 . S
C1732 H1752 0.932 . S
C1733 C1731 1.408 . S
C1733 C1732 1.310 . S
C1733 H1753 0.930 . S
C1734 C1735 1.474 . S
C1734 C1736 1.285 . S
C1734 H1754 0.929 . S
C1735 C1732 1.461 . S
C1735 C1734 1.474 . S
C1736 C1731 1.342 . S
C1736 C1734 1.285 . S
C1736 H1755 0.930 . S
C1737 C1740 1.424 . S
C1737 C1742 1.245 . S
C1737 C1743 1.428 . S
C1738 C1741 1.260 . S
C1738 C1742 1.477 . S
C1738 H1756 0.932 . S
C1739 C1740 1.384 . S
C1739 C1741 1.479 . S
C1739 H1757 0.929 . S
C1740 C1737 1.424 . S
C1740 C1739 1.384 . S
C1740 H1758 0.928 . S
C1741 C1738 1.260 . S
C1741 C1739 1.479 . S
C1742 C1737 1.245 . S
C1742 C1738 1.477 . S
C1742 H1759 0.932 . S
C1743 U1726 2.882 . S
C1743 C1737 1.428 . S
C1743 O1746 1.301 . S
C1743 O1747 1.282 . S
O1744 U1726 2.441 . S
O1744 C1730 1.249 . S
O1745 U1726 2.420 . S
O1745 C1730 1.202 . S
O1746 U1726 2.455 . S
O1746 C1743 1.301 . S
O1747 U1726 2.449 . S
O1747 C1743 1.282 . S
H1748 C1721 0.931 . S
H1749 C1723 0.929 . S
H1750 C1724 0.930 . S
H1751 C1725 0.931 . S
H1752 C1732 0.932 . S
H1753 C1733 0.930 . S
H1754 C1734 0.929 . S
H1755 C1736 0.930 . S
H1756 C1738 0.932 . S
H1757 C1739 0.929 . S
H1758 C1740 0.928 . S
H1759 C1742 0.932 . S
C1760 C1761 1.264 . S
C1760 C1765 1.479 . S
C1760 C1770 1.465 . S
C1761 C1760 1.264 . S
C1761 C1763 1.339 . S
C1761 H1788 0.931 . S
C1762 C1763 1.395 . S
C1762 C1764 1.320 . S
C1763 C1761 1.339 . S
C1763 C1762 1.395 . S
C1763 H1789 0.929 . S
C1764 C1762 1.320 . S
C1764 C1765 1.405 . S
C1764 H1790 0.930 . S
C1765 C1760 1.479 . S
C1765 C1764 1.405 . S
C1765 H1791 0.931 . S
U1766 O1767 2.454 . S
U1766 O1768 2.458 . S
U1766 C1769 2.984 . S
U1766 C1770 2.847 . S
U1766 C1783 2.882 . S
U1766 O1784 2.441 . S
U1766 O1785 2.420 . S
U1766 O1786 2.455 . S
U1766 O1787 2.449 . S
O1767 U1766 2.454 . S
O1767 C1769 1.353 . S
O1768 U1766 2.458 . S
O1768 C1769 1.286 . S
C1769 U1766 2.984 . S
C1769 O1767 1.353 . S
C1769 O1768 1.286 . S
C1769 C1771 1.363 . S
C1770 C1760 1.465 . S
C1770 U1766 2.847 . S
C1770 O1784 1.249 . S
C1770 O1785 1.202 . S
C1771 C1769 1.363 . S
C1771 C1773 1.408 . S
C1771 C1776 1.342 . S
C1772 C1773 1.310 . S
C1772 C1775 1.461 . S
C1772 H1792 0.932 . S
C1773 C1771 1.408 . S
C1773 C1772 1.310 . S
C1773 H1793 0.930 . S
C1774 C1775 1.474 . S
C1774 C1776 1.285 . S
C1774 H1794 0.929 . S
C1775 C1772 1.461 . S
C1775 C1774 1.474 . S
C1776 C1771 1.342 . S
C1776 C1774 1.285 . S
C1776 H1795 0.930 . S
C1777 C1780 1.424 . S
C1777 C1782 1.245 . S
C1777 C1783 1.428 . S
C1778 C1781 1.260 . S
C1778 C1782 1.477 . S
C1778 H1796 0.932 . S
C1779 C1780 1.384 . S
C1779 C1781 1.479 . S
C1779 H1797 0.929 . S
C1780 C1777 1.424 . S
C1780 C1779 1.384 . S
C1780 H1798 0.928 . S
C1781 C1778 1.260 . S
C1781 C1779 1.479 . S
C1782 C1777 1.245 . S
C1782 C1778 1.477 . S
C1782 H1799 0.932 . S
C1783 U1766 2.882 . S
C1783 C1777 1.428 . S
C1783 O1786 1.301 . S
C1783 O1787 1.282 . S
O1784 U1766 2.441 . S
O1784 C1770 1.249 . S
O1785 U1766 2.420 . S
O1785 C1770 1.202 . S
O1786 U1766 2.455 . S
O1786 C1783 1.301 . S
O1787 U1766 2.449 . S
O1787 C1783 1.282 . S
H1788 C1761 0.931 . S
H1789 C1763 0.929 . S
H1790 C1764 0.930 . S
H1791 C1765 0.931 . S
H1792 C1772 0.932 . S
H1793 C1773 0.930 . S
H1794 C1774 0.929 . S
H1795 C1776 0.930 . S
H1796 C1778 0.932 . S
H1797 C1779 0.929 . S
H1798 C1780 0.928 . S
H1799 C1782 0.932 . S
C1800 C1801 1.264 . S
C1800 C1805 1.479 . S
C1800 C1810 1.465 . S
C1801 C1800 1.264 . S
C1801 C1803 1.339 . S
C1801 H1828 0.931 . S
C1802 C1803 1.395 . S
C1802 C1804 1.320 . S
C1803 C1801 1.339 . S
C1803 C1802 1.395 . S
C1803 H1829 0.929 . S
C1804 C1802 1.320 . S
C1804 C1805 1.405 . S
C1804 H1830 0.930 . S
C1805 C1800 1.479 . S
C1805 C1804 1.405 . S
C1805 H1831 0.931 . S
U1806 O1807 2.454 . S
U1806 O1808 2.458 . S
U1806 C1809 2.984 . S
U1806 C1810 2.847 . S
U1806 C1823 2.882 . S
U1806 O1824 2.441 . S
U1806 O1825 2.420 . S
U1806 O1826 2.455 . S
U1806 O1827 2.449 . S
O1807 U1806 2.454 . S
O1807 C1809 1.353 . S
O1808 U1806 2.458 . S
O1808 C1809 1.286 . S
C1809 U1806 2.984 . S
C1809 O1807 1.353 . S
C1809 O1808 1.286 . S
C1809 C1811 1.363 . S
C1810 C1800 1.465 . S
C1810 U1806 2.847 . S
C1810 O1824 1.249 . S
C1810 O1825 1.202 . S
C1811 C1809 1.363 . S
C1811 C1813 1.408 . S
C1811 C1816 1.342 . S
C1812 C1813 1.310 . S
C1812 C1815 1.461 . S
C1812 H1832 0.932 . S
C1813 C1811 1.408 . S
C1813 C1812 1.310 . S
C1813 H1833 0.930 . S
C1814 C1815 1.474 . S
C1814 C1816 1.285 . S
C1814 H1834 0.929 . S
C1815 C1812 1.461 . S
C1815 C1814 1.474 . S
C1816 C1811 1.342 . S
C1816 C1814 1.285 . S
C1816 H1835 0.930 . S
C1817 C1820 1.424 . S
C1817 C1822 1.245 . S
C1817 C1823 1.428 . S
C1818 C1821 1.260 . S
C1818 C1822 1.477 . S
C1818 H1836 0.932 . S
C1819 C1820 1.384 . S
C1819 C1821 1.479 . S
C1819 H1837 0.929 . S
C1820 C1817 1.424 . S
C1820 C1819 1.384 . S
C1820 H1838 0.928 . S
C1821 C1818 1.260 . S
C1821 C1819 1.479 . S
C1822 C1817 1.245 . S
C1822 C1818 1.477 . S
C1822 H1839 0.932 . S
C1823 U1806 2.882 . S
C1823 C1817 1.428 . S
C1823 O1826 1.301 . S
C1823 O1827 1.282 . S
O1824 U1806 2.441 . S
O1824 C1810 1.249 . S
O1825 U1806 2.420 . S
O1825 C1810 1.202 . S
O1826 U1806 2.455 . S
O1826 C1823 1.301 . S
O1827 U1806 2.449 . S
O1827 C1823 1.282 . S
H1828 C1801 0.931 . S
H1829 C1803 0.929 . S
H1830 C1804 0.930 . S
H1831 C1805 0.931 . S
H1832 C1812 0.932 . S
H1833 C1813 0.930 . S
H1834 C1814 0.929 . S
H1835 C1816 0.930 . S
H1836 C1818 0.932 . S
H1837 C1819 0.929 . S
H1838 C1820 0.928 . S
H1839 C1822 0.932 . S
C1840 C1841 1.264 . S
C1840 C1845 1.479 . S
C1840 C1850 1.465 . S
C1841 C1840 1.264 . S
C1841 C1843 1.339 . S
C1841 H1868 0.931 . S
C1842 C1843 1.395 . S
C1842 C1844 1.320 . S
C1843 C1841 1.339 . S
C1843 C1842 1.395 . S
C1843 H1869 0.929 . S
C1844 C1842 1.320 . S
C1844 C1845 1.405 . S
C1844 H1870 0.930 . S
C1845 C1840 1.479 . S
C1845 C1844 1.405 . S
C1845 H1871 0.931 . S
U1846 O1847 2.454 . S
U1846 O1848 2.458 . S
U1846 C1849 2.984 . S
U1846 C1850 2.847 . S
U1846 C1863 2.882 . S
U1846 O1864 2.441 . S
U1846 O1865 2.420 . S
U1846 O1866 2.455 . S
U1846 O1867 2.449 . S
O1847 U1846 2.454 . S
O1847 C1849 1.353 . S
O1848 U1846 2.458 . S
O1848 C1849 1.286 . S
C1849 U1846 2.984 . S
C1849 O1847 1.353 . S
C1849 O1848 1.286 . S
C1849 C1851 1.363 . S
C1850 C1840 1.465 . S
C1850 U1846 2.847 . S
C1850 O1864 1.249 . S
C1850 O1865 1.202 . S
C1851 C1849 1.363 . S
C1851 C1853 1.408 . S
C1851 C1856 1.342 . S
C1852 C1853 1.310 . S
C1852 C1855 1.461 . S
C1852 H1872 0.932 . S
C1853 C1851 1.408 . S
C1853 C1852 1.310 . S
C1853 H1873 0.930 . S
C1854 C1855 1.474 . S
C1854 C1856 1.285 . S
C1854 H1874 0.929 . S
C1855 C1852 1.461 . S
C1855 C1854 1.474 . S
C1856 C1851 1.342 . S
C1856 C1854 1.285 . S
C1856 H1875 0.930 . S
C1857 C1860 1.424 . S
C1857 C1862 1.245 . S
C1857 C1863 1.428 . S
C1858 C1861 1.260 . S
C1858 C1862 1.477 . S
C1858 H1876 0.932 . S
C1859 C1860 1.384 . S
C1859 C1861 1.479 . S
C1859 H1877 0.929 . S
C1860 C1857 1.424 . S
C1860 C1859 1.384 . S
C1860 H1878 0.928 . S
C1861 C1858 1.260 . S
C1861 C1859 1.479 . S
C1862 C1857 1.245 . S
C1862 C1858 1.477 . S
C1862 H1879 0.932 . S
C1863 U1846 2.882 . S
C1863 C1857 1.428 . S
C1863 O1866 1.301 . S
C1863 O1867 1.282 . S
O1864 U1846 2.441 . S
O1864 C1850 1.249 . S
O1865 U1846 2.420 . S
O1865 C1850 1.202 . S
O1866 U1846 2.455 . S
O1866 C1863 1.301 . S
O1867 U1846 2.449 . S
O1867 C1863 1.282 . S
H1868 C1841 0.931 . S
H1869 C1843 0.929 . S
H1870 C1844 0.930 . S
H1871 C1845 0.931 . S
H1872 C1852 0.932 . S
H1873 C1853 0.930 . S
H1874 C1854 0.929 . S
H1875 C1856 0.930 . S
H1876 C1858 0.932 . S
H1877 C1859 0.929 . S
H1878 C1860 0.928 . S
H1879 C1862 0.932 . S
C1880 C1881 1.264 . S
C1880 C1885 1.479 . S
C1880 C1890 1.465 . S
C1881 C1880 1.264 . S
C1881 C1883 1.339 . S
C1881 H1908 0.931 . S
C1882 C1883 1.395 . S
C1882 C1884 1.320 . S
C1883 C1881 1.339 . S
C1883 C1882 1.395 . S
C1883 H1909 0.929 . S
C1884 C1882 1.320 . S
C1884 C1885 1.405 . S
C1884 H1910 0.930 . S
C1885 C1880 1.479 . S
C1885 C1884 1.405 . S
C1885 H1911 0.931 . S
U1886 O1887 2.454 . S
U1886 O1888 2.458 . S
U1886 C1889 2.984 . S
U1886 C1890 2.847 . S
U1886 C1903 2.882 . S
U1886 O1904 2.441 . S
U1886 O1905 2.420 . S
U1886 O1906 2.455 . S
U1886 O1907 2.449 . S
O1887 U1886 2.454 . S
O1887 C1889 1.353 . S
O1888 U1886 2.458 . S
O1888 C1889 1.286 . S
C1889 U1886 2.984 . S
C1889 O1887 1.353 . S
C1889 O1888 1.286 . S
C1889 C1891 1.363 . S
C1890 C1880 1.465 . S
C1890 U1886 2.847 . S
C1890 O1904 1.249 . S
C1890 O1905 1.202 . S
C1891 C1889 1.363 . S
C1891 C1893 1.408 . S
C1891 C1896 1.342 . S
C1892 C1893 1.310 . S
C1892 C1895 1.461 . S
C1892 H1912 0.932 . S
C1893 C1891 1.408 . S
C1893 C1892 1.310 . S
C1893 H1913 0.930 . S
C1894 C1895 1.474 . S
C1894 C1896 1.285 . S
C1894 H1914 0.929 . S
C1895 C1892 1.461 . S
C1895 C1894 1.474 . S
C1896 C1891 1.342 . S
C1896 C1894 1.285 . S
C1896 H1915 0.930 . S
C1897 C1900 1.424 . S
C1897 C1902 1.245 . S
C1897 C1903 1.428 . S
C1898 C1901 1.260 . S
C1898 C1902 1.477 . S
C1898 H1916 0.932 . S
C1899 C1900 1.384 . S
C1899 C1901 1.479 . S
C1899 H1917 0.929 . S
C1900 C1897 1.424 . S
C1900 C1899 1.384 . S
C1900 H1918 0.928 . S
C1901 C1898 1.260 . S
C1901 C1899 1.479 . S
C1902 C1897 1.245 . S
C1902 C1898 1.477 . S
C1902 H1919 0.932 . S
C1903 U1886 2.882 . S
C1903 C1897 1.428 . S
C1903 O1906 1.301 . S
C1903 O1907 1.282 . S
O1904 U1886 2.441 . S
O1904 C1890 1.249 . S
O1905 U1886 2.420 . S
O1905 C1890 1.202 . S
O1906 U1886 2.455 . S
O1906 C1903 1.301 . S
O1907 U1886 2.449 . S
O1907 C1903 1.282 . S
H1908 C1881 0.931 . S
H1909 C1883 0.929 . S
H1910 C1884 0.930 . S
H1911 C1885 0.931 . S
H1912 C1892 0.932 . S
H1913 C1893 0.930 . S
H1914 C1894 0.929 . S
H1915 C1896 0.930 . S
H1916 C1898 0.932 . S
H1917 C1899 0.929 . S
H1918 C1900 0.928 . S
H1919 C1902 0.932 . S
H1920 C1923 0.931 . S
H1921 C1926 0.928 . S
H1922 C1928 0.930 . S
C1923 H1920 0.931 . S
C1923 C1924 1.413 . S
C1923 C1925 1.360 . S
C1924 C1923 1.413 . S
C1924 C1928 1.429 . S
C1925 C1923 1.360 . S
C1925 C1926 1.372 . S
C1926 H1921 0.928 . S
C1926 C1925 1.372 . S
C1926 C1927 1.404 . S
C1927 C1926 1.404 . S
C1927 C1928 1.391 . S
C1928 H1922 0.930 . S
C1928 C1924 1.429 . S
C1928 C1927 1.391 . S
H1929 C1932 0.931 . S
H1930 C1935 0.928 . S
H1931 C1937 0.930 . S
C1932 H1929 0.931 . S
C1932 C1933 1.413 . S
C1932 C1934 1.360 . S
C1933 C1932 1.413 . S
C1933 C1937 1.429 . S
C1934 C1932 1.360 . S
C1934 C1935 1.372 . S
C1935 H1930 0.928 . S
C1935 C1934 1.372 . S
C1935 C1936 1.404 . S
C1936 C1935 1.404 . S
C1936 C1937 1.391 . S
C1937 H1931 0.930 . S
C1937 C1933 1.429 . S
C1937 C1936 1.391 . S
H1938 C1941 0.931 . S
H1939 C1944 0.928 . S
H1940 C1946 0.930 . S
C1941 H1938 0.931 . S
C1941 C1942 1.413 . S
C1941 C1943 1.360 . S
C1942 C1941 1.413 . S
C1942 C1946 1.429 . S
C1943 C1941 1.360 . S
C1943 C1944 1.372 . S
C1944 H1939 0.928 . S
C1944 C1943 1.372 . S
C1944 C1945 1.404 . S
C1945 C1944 1.404 . S
C1945 C1946 1.391 . S
C1946 H1940 0.930 . S
C1946 C1942 1.429 . S
C1946 C1945 1.391 . S
H1947 C1950 0.931 . S
H1948 C1953 0.928 . S
H1949 C1955 0.930 . S
C1950 H1947 0.931 . S
C1950 C1951 1.413 . S
C1950 C1952 1.360 . S
C1951 C1950 1.413 . S
C1951 C1955 1.429 . S
C1952 C1950 1.360 . S
C1952 C1953 1.372 . S
C1953 H1948 0.928 . S
C1953 C1952 1.372 . S
C1953 C1954 1.404 . S
C1954 C1953 1.404 . S
C1954 C1955 1.391 . S
C1955 H1949 0.930 . S
C1955 C1951 1.429 . S
C1955 C1954 1.391 . S
H1956 C1959 0.931 . S
H1957 C1962 0.928 . S
H1958 C1964 0.930 . S
C1959 H1956 0.931 . S
C1959 C1960 1.413 . S
C1959 C1961 1.360 . S
C1960 C1959 1.413 . S
C1960 C1964 1.429 . S
C1961 C1959 1.360 . S
C1961 C1962 1.372 . S
C1962 H1957 0.928 . S
C1962 C1961 1.372 . S
C1962 C1963 1.404 . S
C1963 C1962 1.404 . S
C1963 C1964 1.391 . S
C1964 H1958 0.930 . S
C1964 C1960 1.429 . S
C1964 C1963 1.391 . S
H1965 C1968 0.931 . S
H1966 C1971 0.928 . S
H1967 C1973 0.930 . S
C1968 H1965 0.931 . S
C1968 C1969 1.413 . S
C1968 C1970 1.360 . S
C1969 C1968 1.413 . S
C1969 C1973 1.429 . S
C1970 C1968 1.360 . S
C1970 C1971 1.372 . S
C1971 H1966 0.928 . S
C1971 C1970 1.372 . S
C1971 C1972 1.404 . S
C1972 C1971 1.404 . S
C1972 C1973 1.391 . S
C1973 H1967 0.930 . S
C1973 C1969 1.429 . S
C1973 C1972 1.391 . S
H1974 C1977 0.931 . S
H1975 C1980 0.928 . S
H1976 C1982 0.930 . S
C1977 H1974 0.931 . S
C1977 C1978 1.413 . S
C1977 C1979 1.360 . S
C1978 C1977 1.413 . S
C1978 C1982 1.429 . S
C1979 C1977 1.360 . S
C1979 C1980 1.372 . S
C1980 H1975 0.928 . S
C1980 C1979 1.372 . S
C1980 C1981 1.404 . S
C1981 C1980 1.404 . S
C1981 C1982 1.391 . S
C1982 H1976 0.930 . S
C1982 C1978 1.429 . S
C1982 C1981 1.391 . S
H1983 C1986 0.931 . S
H1984 C1989 0.928 . S
H1985 C1991 0.930 . S
C1986 H1983 0.931 . S
C1986 C1987 1.413 . S
C1986 C1988 1.360 . S
C1987 C1986 1.413 . S
C1987 C1991 1.429 . S
C1988 C1986 1.360 . S
C1988 C1989 1.372 . S
C1989 H1984 0.928 . S
C1989 C1988 1.372 . S
C1989 C1990 1.404 . S
C1990 C1989 1.404 . S
C1990 C1991 1.391 . S
C1991 H1985 0.930 . S
C1991 C1987 1.429 . S
C1991 C1990 1.391 . S
H1992 C1995 0.931 . S
H1993 C1998 0.928 . S
H1994 C2000 0.930 . S
C1995 H1992 0.931 . S
C1995 C1996 1.413 . S
C1995 C1997 1.360 . S
C1996 C1995 1.413 . S
C1996 C2000 1.429 . S
C1997 C1995 1.360 . S
C1997 C1998 1.372 . S
C1998 H1993 0.928 . S
C1998 C1997 1.372 . S
C1998 C1999 1.404 . S
C1999 C1998 1.404 . S
C1999 C2000 1.391 . S
C2000 H1994 0.930 . S
C2000 C1996 1.429 . S
C2000 C1999 1.391 . S
H2001 C2004 0.931 . S
H2002 C2007 0.928 . S
H2003 C2009 0.930 . S
C2004 H2001 0.931 . S
C2004 C2005 1.413 . S
C2004 C2006 1.360 . S
C2005 C2004 1.413 . S
C2005 C2009 1.429 . S
C2006 C2004 1.360 . S
C2006 C2007 1.372 . S
C2007 H2002 0.928 . S
C2007 C2006 1.372 . S
C2007 C2008 1.404 . S
C2008 C2007 1.404 . S
C2008 C2009 1.391 . S
C2009 H2003 0.930 . S
C2009 C2005 1.429 . S
C2009 C2008 1.391 . S
H2010 C2013 0.931 . S
H2011 C2016 0.928 . S
H2012 C2018 0.930 . S
C2013 H2010 0.931 . S
C2013 C2014 1.413 . S
C2013 C2015 1.360 . S
C2014 C2013 1.413 . S
C2014 C2018 1.429 . S
C2015 C2013 1.360 . S
C2015 C2016 1.372 . S
C2016 H2011 0.928 . S
C2016 C2015 1.372 . S
C2016 C2017 1.404 . S
C2017 C2016 1.404 . S
C2017 C2018 1.391 . S
C2018 H2012 0.930 . S
C2018 C2014 1.429 . S
C2018 C2017 1.391 . S
H2019 C2022 0.931 . S
H2020 C2025 0.928 . S
H2021 C2027 0.930 . S
C2022 H2019 0.931 . S
C2022 C2023 1.413 . S
C2022 C2024 1.360 . S
C2023 C2022 1.413 . S
C2023 C2027 1.429 . S
C2024 C2022 1.360 . S
C2024 C2025 1.372 . S
C2025 H2020 0.928 . S
C2025 C2024 1.372 . S
C2025 C2026 1.404 . S
C2026 C2025 1.404 . S
C2026 C2027 1.391 . S
C2027 H2021 0.930 . S
C2027 C2023 1.429 . S
C2027 C2026 1.391 . S
H2028 C2031 0.931 . S
H2029 C2034 0.928 . S
H2030 C2036 0.930 . S
C2031 H2028 0.931 . S
C2031 C2032 1.413 . S
C2031 C2033 1.360 . S
C2032 C2031 1.413 . S
C2032 C2036 1.429 . S
C2033 C2031 1.360 . S
C2033 C2034 1.372 . S
C2034 H2029 0.928 . S
C2034 C2033 1.372 . S
C2034 C2035 1.404 . S
C2035 C2034 1.404 . S
C2035 C2036 1.391 . S
C2036 H2030 0.930 . S
C2036 C2032 1.429 . S
C2036 C2035 1.391 . S
H2037 C2040 0.931 . S
H2038 C2043 0.928 . S
H2039 C2045 0.930 . S
C2040 H2037 0.931 . S
C2040 C2041 1.413 . S
C2040 C2042 1.360 . S
C2041 C2040 1.413 . S
C2041 C2045 1.429 . S
C2042 C2040 1.360 . S
C2042 C2043 1.372 . S
C2043 H2038 0.928 . S
C2043 C2042 1.372 . S
C2043 C2044 1.404 . S
C2044 C2043 1.404 . S
C2044 C2045 1.391 . S
C2045 H2039 0.930 . S
C2045 C2041 1.429 . S
C2045 C2044 1.391 . S
H2046 C2049 0.931 . S
H2047 C2052 0.928 . S
H2048 C2054 0.930 . S
C2049 H2046 0.931 . S
C2049 C2050 1.413 . S
C2049 C2051 1.360 . S
C2050 C2049 1.413 . S
C2050 C2054 1.429 . S
C2051 C2049 1.360 . S
C2051 C2052 1.372 . S
C2052 H2047 0.928 . S
C2052 C2051 1.372 . S
C2052 C2053 1.404 . S
C2053 C2052 1.404 . S
C2053 C2054 1.391 . S
C2054 H2048 0.930 . S
C2054 C2050 1.429 . S
C2054 C2053 1.391 . S
H2055 C2058 0.931 . S
H2056 C2061 0.928 . S
H2057 C2063 0.930 . S
C2058 H2055 0.931 . S
C2058 C2059 1.413 . S
C2058 C2060 1.360 . S
C2059 C2058 1.413 . S
C2059 C2063 1.429 . S
C2060 C2058 1.360 . S
C2060 C2061 1.372 . S
C2061 H2056 0.928 . S
C2061 C2060 1.372 . S
C2061 C2062 1.404 . S
C2062 C2061 1.404 . S
C2062 C2063 1.391 . S
C2063 H2057 0.930 . S
C2063 C2059 1.429 . S
C2063 C2062 1.391 . S
H2064 C2067 0.931 . S
H2065 C2070 0.928 . S
H2066 C2072 0.930 . S
C2067 H2064 0.931 . S
C2067 C2068 1.413 . S
C2067 C2069 1.360 . S
C2068 C2067 1.413 . S
C2068 C2072 1.429 . S
C2069 C2067 1.360 . S
C2069 C2070 1.372 . S
C2070 H2065 0.928 . S
C2070 C2069 1.372 . S
C2070 C2071 1.404 . S
C2071 C2070 1.404 . S
C2071 C2072 1.391 . S
C2072 H2066 0.930 . S
C2072 C2068 1.429 . S
C2072 C2071 1.391 . S
H2073 C2076 0.931 . S
H2074 C2079 0.928 . S
H2075 C2081 0.930 . S
C2076 H2073 0.931 . S
C2076 C2077 1.413 . S
C2076 C2078 1.360 . S
C2077 C2076 1.413 . S
C2077 C2081 1.429 . S
C2078 C2076 1.360 . S
C2078 C2079 1.372 . S
C2079 H2074 0.928 . S
C2079 C2078 1.372 . S
C2079 C2080 1.404 . S
C2080 C2079 1.404 . S
C2080 C2081 1.391 . S
C2081 H2075 0.930 . S
C2081 C2077 1.429 . S
C2081 C2080 1.391 . S
H2082 C2085 0.931 . S
H2083 C2088 0.928 . S
H2084 C2090 0.930 . S
C2085 H2082 0.931 . S
C2085 C2086 1.413 . S
C2085 C2087 1.360 . S
C2086 C2085 1.413 . S
C2086 C2090 1.429 . S
C2087 C2085 1.360 . S
C2087 C2088 1.372 . S
C2088 H2083 0.928 . S
C2088 C2087 1.372 . S
C2088 C2089 1.404 . S
C2089 C2088 1.404 . S
C2089 C2090 1.391 . S
C2090 H2084 0.930 . S
C2090 C2086 1.429 . S
C2090 C2089 1.391 . S
H2091 C2094 0.931 . S
H2092 C2097 0.928 . S
H2093 C2099 0.930 . S
C2094 H2091 0.931 . S
C2094 C2095 1.413 . S
C2094 C2096 1.360 . S
C2095 C2094 1.413 . S
C2095 C2099 1.429 . S
C2096 C2094 1.360 . S
C2096 C2097 1.372 . S
C2097 H2092 0.928 . S
C2097 C2096 1.372 . S
C2097 C2098 1.404 . S
C2098 C2097 1.404 . S
C2098 C2099 1.391 . S
C2099 H2093 0.930 . S
C2099 C2095 1.429 . S
C2099 C2098 1.391 . S
H2100 C2103 0.931 . S
H2101 C2106 0.928 . S
H2102 C2108 0.930 . S
C2103 H2100 0.931 . S
C2103 C2104 1.413 . S
C2103 C2105 1.360 . S
C2104 C2103 1.413 . S
C2104 C2108 1.429 . S
C2105 C2103 1.360 . S
C2105 C2106 1.372 . S
C2106 H2101 0.928 . S
C2106 C2105 1.372 . S
C2106 C2107 1.404 . S
C2107 C2106 1.404 . S
C2107 C2108 1.391 . S
C2108 H2102 0.930 . S
C2108 C2104 1.429 . S
C2108 C2107 1.391 . S
H2109 C2112 0.931 . S
H2110 C2115 0.928 . S
H2111 C2117 0.930 . S
C2112 H2109 0.931 . S
C2112 C2113 1.413 . S
C2112 C2114 1.360 . S
C2113 C2112 1.413 . S
C2113 C2117 1.429 . S
C2114 C2112 1.360 . S
C2114 C2115 1.372 . S
C2115 H2110 0.928 . S
C2115 C2114 1.372 . S
C2115 C2116 1.404 . S
C2116 C2115 1.404 . S
C2116 C2117 1.391 . S
C2117 H2111 0.930 . S
C2117 C2113 1.429 . S
C2117 C2116 1.391 . S
H2118 C2121 0.931 . S
H2119 C2124 0.928 . S
H2120 C2126 0.930 . S
C2121 H2118 0.931 . S
C2121 C2122 1.413 . S
C2121 C2123 1.360 . S
C2122 C2121 1.413 . S
C2122 C2126 1.429 . S
C2123 C2121 1.360 . S
C2123 C2124 1.372 . S
C2124 H2119 0.928 . S
C2124 C2123 1.372 . S
C2124 C2125 1.404 . S
C2125 C2124 1.404 . S
C2125 C2126 1.391 . S
C2126 H2120 0.930 . S
C2126 C2122 1.429 . S
C2126 C2125 1.391 . S
H2127 C2130 0.931 . S
H2128 C2133 0.928 . S
H2129 C2135 0.930 . S
C2130 H2127 0.931 . S
C2130 C2131 1.413 . S
C2130 C2132 1.360 . S
C2131 C2130 1.413 . S
C2131 C2135 1.429 . S
C2132 C2130 1.360 . S
C2132 C2133 1.372 . S
C2133 H2128 0.928 . S
C2133 C2132 1.372 . S
C2133 C2134 1.404 . S
C2134 C2133 1.404 . S
C2134 C2135 1.391 . S
C2135 H2129 0.930 . S
C2135 C2131 1.429 . S
C2135 C2134 1.391 . S
H2136 C2139 0.931 . S
H2137 C2142 0.928 . S
H2138 C2144 0.930 . S
C2139 H2136 0.931 . S
C2139 C2140 1.413 . S
C2139 C2141 1.360 . S
C2140 C2139 1.413 . S
C2140 C2144 1.429 . S
C2141 C2139 1.360 . S
C2141 C2142 1.372 . S
C2142 H2137 0.928 . S
C2142 C2141 1.372 . S
C2142 C2143 1.404 . S
C2143 C2142 1.404 . S
C2143 C2144 1.391 . S
C2144 H2138 0.930 . S
C2144 C2140 1.429 . S
C2144 C2143 1.391 . S
H2145 C2148 0.931 . S
H2146 C2151 0.928 . S
H2147 C2153 0.930 . S
C2148 H2145 0.931 . S
C2148 C2149 1.413 . S
C2148 C2150 1.360 . S
C2149 C2148 1.413 . S
C2149 C2153 1.429 . S
C2150 C2148 1.360 . S
C2150 C2151 1.372 . S
C2151 H2146 0.928 . S
C2151 C2150 1.372 . S
C2151 C2152 1.404 . S
C2152 C2151 1.404 . S
C2152 C2153 1.391 . S
C2153 H2147 0.930 . S
C2153 C2149 1.429 . S
C2153 C2152 1.391 . S
H2154 C2157 0.931 . S
H2155 C2160 0.928 . S
H2156 C2162 0.930 . S
C2157 H2154 0.931 . S
C2157 C2158 1.413 . S
C2157 C2159 1.360 . S
C2158 C2157 1.413 . S
C2158 C2162 1.429 . S
C2159 C2157 1.360 . S
C2159 C2160 1.372 . S
C2160 H2155 0.928 . S
C2160 C2159 1.372 . S
C2160 C2161 1.404 . S
C2161 C2160 1.404 . S
C2161 C2162 1.391 . S
C2162 H2156 0.930 . S
C2162 C2158 1.429 . S
C2162 C2161 1.391 . S
H2163 C2166 0.931 . S
H2164 C2169 0.928 . S
H2165 C2171 0.930 . S
C2166 H2163 0.931 . S
C2166 C2167 1.413 . S
C2166 C2168 1.360 . S
C2167 C2166 1.413 . S
C2167 C2171 1.429 . S
C2168 C2166 1.360 . S
C2168 C2169 1.372 . S
C2169 H2164 0.928 . S
C2169 C2168 1.372 . S
C2169 C2170 1.404 . S
C2170 C2169 1.404 . S
C2170 C2171 1.391 . S
C2171 H2165 0.930 . S
C2171 C2167 1.429 . S
C2171 C2170 1.391 . S
H2172 C2175 0.931 . S
H2173 C2178 0.928 . S
H2174 C2180 0.930 . S
C2175 H2172 0.931 . S
C2175 C2176 1.413 . S
C2175 C2177 1.360 . S
C2176 C2175 1.413 . S
C2176 C2180 1.429 . S
C2177 C2175 1.360 . S
C2177 C2178 1.372 . S
C2178 H2173 0.928 . S
C2178 C2177 1.372 . S
C2178 C2179 1.404 . S
C2179 C2178 1.404 . S
C2179 C2180 1.391 . S
C2180 H2174 0.930 . S
C2180 C2176 1.429 . S
C2180 C2179 1.391 . S
H2181 C2184 0.931 . S
H2182 C2187 0.928 . S
H2183 C2189 0.930 . S
C2184 H2181 0.931 . S
C2184 C2185 1.413 . S
C2184 C2186 1.360 . S
C2185 C2184 1.413 . S
C2185 C2189 1.429 . S
C2186 C2184 1.360 . S
C2186 C2187 1.372 . S
C2187 H2182 0.928 . S
C2187 C2186 1.372 . S
C2187 C2188 1.404 . S
C2188 C2187 1.404 . S
C2188 C2189 1.391 . S
C2189 H2183 0.930 . S
C2189 C2185 1.429 . S
C2189 C2188 1.391 . S
H2190 C2193 0.931 . S
H2191 C2196 0.928 . S
H2192 C2198 0.930 . S
C2193 H2190 0.931 . S
C2193 C2194 1.413 . S
C2193 C2195 1.360 . S
C2194 C2193 1.413 . S
C2194 C2198 1.429 . S
C2195 C2193 1.360 . S
C2195 C2196 1.372 . S
C2196 H2191 0.928 . S
C2196 C2195 1.372 . S
C2196 C2197 1.404 . S
C2197 C2196 1.404 . S
C2197 C2198 1.391 . S
C2198 H2192 0.930 . S
C2198 C2194 1.429 . S
C2198 C2197 1.391 . S
H2199 C2202 0.931 . S
H2200 C2205 0.928 . S
H2201 C2207 0.930 . S
C2202 H2199 0.931 . S
C2202 C2203 1.413 . S
C2202 C2204 1.360 . S
C2203 C2202 1.413 . S
C2203 C2207 1.429 . S
C2204 C2202 1.360 . S
C2204 C2205 1.372 . S
C2205 H2200 0.928 . S
C2205 C2204 1.372 . S
C2205 C2206 1.404 . S
C2206 C2205 1.404 . S
C2206 C2207 1.391 . S
C2207 H2201 0.930 . S
C2207 C2203 1.429 . S
C2207 C2206 1.391 . S
H2208 C2211 0.931 . S
H2209 C2214 0.928 . S
H2210 C2216 0.930 . S
C2211 H2208 0.931 . S
C2211 C2212 1.413 . S
C2211 C2213 1.360 . S
C2212 C2211 1.413 . S
C2212 C2216 1.429 . S
C2213 C2211 1.360 . S
C2213 C2214 1.372 . S
C2214 H2209 0.928 . S
C2214 C2213 1.372 . S
C2214 C2215 1.404 . S
C2215 C2214 1.404 . S
C2215 C2216 1.391 . S
C2216 H2210 0.930 . S
C2216 C2212 1.429 . S
C2216 C2215 1.391 . S
H2217 C2220 0.931 . S
H2218 C2223 0.928 . S
H2219 C2225 0.930 . S
C2220 H2217 0.931 . S
C2220 C2221 1.413 . S
C2220 C2222 1.360 . S
C2221 C2220 1.413 . S
C2221 C2225 1.429 . S
C2222 C2220 1.360 . S
C2222 C2223 1.372 . S
C2223 H2218 0.928 . S
C2223 C2222 1.372 . S
C2223 C2224 1.404 . S
C2224 C2223 1.404 . S
C2224 C2225 1.391 . S
C2225 H2219 0.930 . S
C2225 C2221 1.429 . S
C2225 C2224 1.391 . S
H2226 C2229 0.931 . S
H2227 C2232 0.928 . S
H2228 C2234 0.930 . S
C2229 H2226 0.931 . S
C2229 C2230 1.413 . S
C2229 C2231 1.360 . S
C2230 C2229 1.413 . S
C2230 C2234 1.429 . S
C2231 C2229 1.360 . S
C2231 C2232 1.372 . S
C2232 H2227 0.928 . S
C2232 C2231 1.372 . S
C2232 C2233 1.404 . S
C2233 C2232 1.404 . S
C2233 C2234 1.391 . S
C2234 H2228 0.930 . S
C2234 C2230 1.429 . S
C2234 C2233 1.391 . S
H2235 C2238 0.931 . S
H2236 C2241 0.928 . S
H2237 C2243 0.930 . S
C2238 H2235 0.931 . S
C2238 C2239 1.413 . S
C2238 C2240 1.360 . S
C2239 C2238 1.413 . S
C2239 C2243 1.429 . S
C2240 C2238 1.360 . S
C2240 C2241 1.372 . S
C2241 H2236 0.928 . S
C2241 C2240 1.372 . S
C2241 C2242 1.404 . S
C2242 C2241 1.404 . S
C2242 C2243 1.391 . S
C2243 H2237 0.930 . S
C2243 C2239 1.429 . S
C2243 C2242 1.391 . S
H2244 C2247 0.931 . S
H2245 C2250 0.928 . S
H2246 C2252 0.930 . S
C2247 H2244 0.931 . S
C2247 C2248 1.413 . S
C2247 C2249 1.360 . S
C2248 C2247 1.413 . S
C2248 C2252 1.429 . S
C2249 C2247 1.360 . S
C2249 C2250 1.372 . S
C2250 H2245 0.928 . S
C2250 C2249 1.372 . S
C2250 C2251 1.404 . S
C2251 C2250 1.404 . S
C2251 C2252 1.391 . S
C2252 H2246 0.930 . S
C2252 C2248 1.429 . S
C2252 C2251 1.391 . S
H2253 C2256 0.931 . S
H2254 C2259 0.928 . S
H2255 C2261 0.930 . S
C2256 H2253 0.931 . S
C2256 C2257 1.413 . S
C2256 C2258 1.360 . S
C2257 C2256 1.413 . S
C2257 C2261 1.429 . S
C2258 C2256 1.360 . S
C2258 C2259 1.372 . S
C2259 H2254 0.928 . S
C2259 C2258 1.372 . S
C2259 C2260 1.404 . S
C2260 C2259 1.404 . S
C2260 C2261 1.391 . S
C2261 H2255 0.930 . S
C2261 C2257 1.429 . S
C2261 C2260 1.391 . S
H2262 C2265 0.931 . S
H2263 C2268 0.928 . S
H2264 C2270 0.930 . S
C2265 H2262 0.931 . S
C2265 C2266 1.413 . S
C2265 C2267 1.360 . S
C2266 C2265 1.413 . S
C2266 C2270 1.429 . S
C2267 C2265 1.360 . S
C2267 C2268 1.372 . S
C2268 H2263 0.928 . S
C2268 C2267 1.372 . S
C2268 C2269 1.404 . S
C2269 C2268 1.404 . S
C2269 C2270 1.391 . S
C2270 H2264 0.930 . S
C2270 C2266 1.429 . S
C2270 C2269 1.391 . S
H2271 C2274 0.931 . S
H2272 C2277 0.928 . S
H2273 C2279 0.930 . S
C2274 H2271 0.931 . S
C2274 C2275 1.413 . S
C2274 C2276 1.360 . S
C2275 C2274 1.413 . S
C2275 C2279 1.429 . S
C2276 C2274 1.360 . S
C2276 C2277 1.372 . S
C2277 H2272 0.928 . S
C2277 C2276 1.372 . S
C2277 C2278 1.404 . S
C2278 C2277 1.404 . S
C2278 C2279 1.391 . S
C2279 H2273 0.930 . S
C2279 C2275 1.429 . S
C2279 C2278 1.391 . S
H2280 C2283 0.931 . S
H2281 C2286 0.928 . S
H2282 C2288 0.930 . S
C2283 H2280 0.931 . S
C2283 C2284 1.413 . S
C2283 C2285 1.360 . S
C2284 C2283 1.413 . S
C2284 C2288 1.429 . S
C2285 C2283 1.360 . S
C2285 C2286 1.372 . S
C2286 H2281 0.928 . S
C2286 C2285 1.372 . S
C2286 C2287 1.404 . S
C2287 C2286 1.404 . S
C2287 C2288 1.391 . S
C2288 H2282 0.930 . S
C2288 C2284 1.429 . S
C2288 C2287 1.391 . S
H2289 C2292 0.931 . S
H2290 C2295 0.928 . S
H2291 C2297 0.930 . S
C2292 H2289 0.931 . S
C2292 C2293 1.413 . S
C2292 C2294 1.360 . S
C2293 C2292 1.413 . S
C2293 C2297 1.429 . S
C2294 C2292 1.360 . S
C2294 C2295 1.372 . S
C2295 H2290 0.928 . S
C2295 C2294 1.372 . S
C2295 C2296 1.404 . S
C2296 C2295 1.404 . S
C2296 C2297 1.391 . S
C2297 H2291 0.930 . S
C2297 C2293 1.429 . S
C2297 C2296 1.391 . S
H2298 C2301 0.931 . S
H2299 C2304 0.928 . S
H2300 C2306 0.930 . S
C2301 H2298 0.931 . S
C2301 C2302 1.413 . S
C2301 C2303 1.360 . S
C2302 C2301 1.413 . S
C2302 C2306 1.429 . S
C2303 C2301 1.360 . S
C2303 C2304 1.372 . S
C2304 H2299 0.928 . S
C2304 C2303 1.372 . S
C2304 C2305 1.404 . S
C2305 C2304 1.404 . S
C2305 C2306 1.391 . S
C2306 H2300 0.930 . S
C2306 C2302 1.429 . S
C2306 C2305 1.391 . S
H2307 C2310 0.931 . S
H2308 C2313 0.928 . S
H2309 C2315 0.930 . S
C2310 H2307 0.931 . S
C2310 C2311 1.413 . S
C2310 C2312 1.360 . S
C2311 C2310 1.413 . S
C2311 C2315 1.429 . S
C2312 C2310 1.360 . S
C2312 C2313 1.372 . S
C2313 H2308 0.928 . S
C2313 C2312 1.372 . S
C2313 C2314 1.404 . S
C2314 C2313 1.404 . S
C2314 C2315 1.391 . S
C2315 H2309 0.930 . S
C2315 C2311 1.429 . S
C2315 C2314 1.391 . S
H2316 C2319 0.931 . S
H2317 C2322 0.928 . S
H2318 C2324 0.930 . S
C2319 H2316 0.931 . S
C2319 C2320 1.413 . S
C2319 C2321 1.360 . S
C2320 C2319 1.413 . S
C2320 C2324 1.429 . S
C2321 C2319 1.360 . S
C2321 C2322 1.372 . S
C2322 H2317 0.928 . S
C2322 C2321 1.372 . S
C2322 C2323 1.404 . S
C2323 C2322 1.404 . S
C2323 C2324 1.391 . S
C2324 H2318 0.930 . S
C2324 C2320 1.429 . S
C2324 C2323 1.391 . S
H2325 C2328 0.931 . S
H2326 C2331 0.928 . S
H2327 C2333 0.930 . S
C2328 H2325 0.931 . S
C2328 C2329 1.413 . S
C2328 C2330 1.360 . S
C2329 C2328 1.413 . S
C2329 C2333 1.429 . S
C2330 C2328 1.360 . S
C2330 C2331 1.372 . S
C2331 H2326 0.928 . S
C2331 C2330 1.372 . S
C2331 C2332 1.404 . S
C2332 C2331 1.404 . S
C2332 C2333 1.391 . S
C2333 H2327 0.930 . S
C2333 C2329 1.429 . S
C2333 C2332 1.391 . S
H2334 C2337 0.931 . S
H2335 C2340 0.928 . S
H2336 C2342 0.930 . S
C2337 H2334 0.931 . S
C2337 C2338 1.413 . S
C2337 C2339 1.360 . S
C2338 C2337 1.413 . S
C2338 C2342 1.429 . S
C2339 C2337 1.360 . S
C2339 C2340 1.372 . S
C2340 H2335 0.928 . S
C2340 C2339 1.372 . S
C2340 C2341 1.404 . S
C2341 C2340 1.404 . S
C2341 C2342 1.391 . S
C2342 H2336 0.930 . S
C2342 C2338 1.429 . S
C2342 C2341 1.391 . S
H2343 C2346 0.931 . S
H2344 C2349 0.928 . S
H2345 C2351 0.930 . S
C2346 H2343 0.931 . S
C2346 C2347 1.413 . S
C2346 C2348 1.360 . S
C2347 C2346 1.413 . S
C2347 C2351 1.429 . S
C2348 C2346 1.360 . S
C2348 C2349 1.372 . S
C2349 H2344 0.928 . S
C2349 C2348 1.372 . S
C2349 C2350 1.404 . S
C2350 C2349 1.404 . S
C2350 C2351 1.391 . S
C2351 H2345 0.930 . S
C2351 C2347 1.429 . S
C2351 C2350 1.391 . S
C2352 C2353 1.349 . S
C2352 C2354 1.327 . S
C2352 H2377 0.950 . S
C2353 C2352 1.349 . S
C2353 C2369 1.349 . S
C2354 C2352 1.327 . S
C2354 C2373 1.429 . S
C2354 H2378 0.950 . S
C2355 C2372 1.574 . S
C2355 C2374 1.368 . S
C2355 H2379 0.949 . S
H2356 C2360 0.949 . S
C2357 C2358 1.349 . S
C2357 C2359 1.327 . S
C2357 H2380 0.950 . S
C2358 C2357 1.349 . S
C2358 C2370 1.349 . S
C2359 C2357 1.327 . S
C2359 C2375 1.429 . S
C2359 H2381 0.950 . S
C2360 H2356 0.949 . S
C2360 C2368 1.574 . S
C2360 C2376 1.368 . S
H2361 C2369 0.950 . S
H2362 C2367 0.950 . S
H2363 C2368 0.949 . S
H2364 C2370 0.950 . S
H2365 C2371 0.950 . S
H2366 C2372 0.949 . S
C2367 H2362 0.950 . S
C2367 C2369 1.327 . S
C2367 C2373 1.429 . S
C2368 C2360 1.574 . S
C2368 H2363 0.949 . S
C2368 C2374 1.368 . S
C2369 C2353 1.349 . S
C2369 H2361 0.950 . S
C2369 C2367 1.327 . S
C2370 C2358 1.349 . S
C2370 H2364 0.950 . S
C2370 C2371 1.327 . S
C2371 H2365 0.950 . S
C2371 C2370 1.327 . S
C2371 C2375 1.429 . S
C2372 C2355 1.574 . S
C2372 H2366 0.949 . S
C2372 C2376 1.368 . S
C2373 C2354 1.429 . S
C2373 C2367 1.429 . S
C2373 C2374 1.523 . S
C2374 C2355 1.368 . S
C2374 C2368 1.368 . S
C2374 C2373 1.523 . S
C2375 C2359 1.429 . S
C2375 C2371 1.429 . S
C2375 C2376 1.523 . S
C2376 C2360 1.368 . S
C2376 C2372 1.368 . S
C2376 C2375 1.523 . S
H2377 C2352 0.950 . S
H2378 C2354 0.950 . S
H2379 C2355 0.949 . S
H2380 C2357 0.950 . S
H2381 C2359 0.950 . S
C2382 C2383 1.349 . S
C2382 C2384 1.327 . S
C2382 H2407 0.950 . S
C2383 C2382 1.349 . S
C2383 C2399 1.349 . S
C2384 C2382 1.327 . S
C2384 C2403 1.429 . S
C2384 H2408 0.950 . S
C2385 C2402 1.574 . S
C2385 C2404 1.368 . S
C2385 H2409 0.949 . S
H2386 C2390 0.949 . S
C2387 C2388 1.349 . S
C2387 C2389 1.327 . S
C2387 H2410 0.950 . S
C2388 C2387 1.349 . S
C2388 C2400 1.349 . S
C2389 C2387 1.327 . S
C2389 C2405 1.429 . S
C2389 H2411 0.950 . S
C2390 H2386 0.949 . S
C2390 C2398 1.574 . S
C2390 C2406 1.368 . S
H2391 C2399 0.950 . S
H2392 C2397 0.950 . S
H2393 C2398 0.949 . S
H2394 C2400 0.950 . S
H2395 C2401 0.950 . S
H2396 C2402 0.949 . S
C2397 H2392 0.950 . S
C2397 C2399 1.327 . S
C2397 C2403 1.429 . S
C2398 C2390 1.574 . S
C2398 H2393 0.949 . S
C2398 C2404 1.368 . S
C2399 C2383 1.349 . S
C2399 H2391 0.950 . S
C2399 C2397 1.327 . S
C2400 C2388 1.349 . S
C2400 H2394 0.950 . S
C2400 C2401 1.327 . S
C2401 H2395 0.950 . S
C2401 C2400 1.327 . S
C2401 C2405 1.429 . S
C2402 C2385 1.574 . S
C2402 H2396 0.949 . S
C2402 C2406 1.368 . S
C2403 C2384 1.429 . S
C2403 C2397 1.429 . S
C2403 C2404 1.523 . S
C2404 C2385 1.368 . S
C2404 C2398 1.368 . S
C2404 C2403 1.523 . S
C2405 C2389 1.429 . S
C2405 C2401 1.429 . S
C2405 C2406 1.523 . S
C2406 C2390 1.368 . S
C2406 C2402 1.368 . S
C2406 C2405 1.523 . S
H2407 C2382 0.950 . S
H2408 C2384 0.950 . S
H2409 C2385 0.949 . S
H2410 C2387 0.950 . S
H2411 C2389 0.950 . S
C2412 C2413 1.349 . S
C2412 C2414 1.327 . S
C2412 H2437 0.950 . S
C2413 C2412 1.349 . S
C2413 C2429 1.349 . S
C2414 C2412 1.327 . S
C2414 C2433 1.429 . S
C2414 H2438 0.950 . S
C2415 C2432 1.574 . S
C2415 C2434 1.368 . S
C2415 H2439 0.949 . S
H2416 C2420 0.949 . S
C2417 C2418 1.349 . S
C2417 C2419 1.327 . S
C2417 H2440 0.950 . S
C2418 C2417 1.349 . S
C2418 C2430 1.349 . S
C2419 C2417 1.327 . S
C2419 C2435 1.429 . S
C2419 H2441 0.950 . S
C2420 H2416 0.949 . S
C2420 C2428 1.574 . S
C2420 C2436 1.368 . S
H2421 C2429 0.950 . S
H2422 C2427 0.950 . S
H2423 C2428 0.949 . S
H2424 C2430 0.950 . S
H2425 C2431 0.950 . S
H2426 C2432 0.949 . S
C2427 H2422 0.950 . S
C2427 C2429 1.327 . S
C2427 C2433 1.429 . S
C2428 C2420 1.574 . S
C2428 H2423 0.949 . S
C2428 C2434 1.368 . S
C2429 C2413 1.349 . S
C2429 H2421 0.950 . S
C2429 C2427 1.327 . S
C2430 C2418 1.349 . S
C2430 H2424 0.950 . S
C2430 C2431 1.327 . S
C2431 H2425 0.950 . S
C2431 C2430 1.327 . S
C2431 C2435 1.429 . S
C2432 C2415 1.574 . S
C2432 H2426 0.949 . S
C2432 C2436 1.368 . S
C2433 C2414 1.429 . S
C2433 C2427 1.429 . S
C2433 C2434 1.523 . S
C2434 C2415 1.368 . S
C2434 C2428 1.368 . S
C2434 C2433 1.523 . S
C2435 C2419 1.429 . S
C2435 C2431 1.429 . S
C2435 C2436 1.523 . S
C2436 C2420 1.368 . S
C2436 C2432 1.368 . S
C2436 C2435 1.523 . S
H2437 C2412 0.950 . S
H2438 C2414 0.950 . S
H2439 C2415 0.949 . S
H2440 C2417 0.950 . S
H2441 C2419 0.950 . S
C2442 C2443 1.349 . S
C2442 C2444 1.327 . S
C2442 H2467 0.950 . S
C2443 C2442 1.349 . S
C2443 C2459 1.349 . S
C2444 C2442 1.327 . S
C2444 C2463 1.429 . S
C2444 H2468 0.950 . S
C2445 C2462 1.574 . S
C2445 C2464 1.368 . S
C2445 H2469 0.949 . S
H2446 C2450 0.949 . S
C2447 C2448 1.349 . S
C2447 C2449 1.327 . S
C2447 H2470 0.950 . S
C2448 C2447 1.349 . S
C2448 C2460 1.349 . S
C2449 C2447 1.327 . S
C2449 C2465 1.429 . S
C2449 H2471 0.950 . S
C2450 H2446 0.949 . S
C2450 C2458 1.574 . S
C2450 C2466 1.368 . S
H2451 C2459 0.950 . S
H2452 C2457 0.950 . S
H2453 C2458 0.949 . S
H2454 C2460 0.950 . S
H2455 C2461 0.950 . S
H2456 C2462 0.949 . S
C2457 H2452 0.950 . S
C2457 C2459 1.327 . S
C2457 C2463 1.429 . S
C2458 C2450 1.574 . S
C2458 H2453 0.949 . S
C2458 C2464 1.368 . S
C2459 C2443 1.349 . S
C2459 H2451 0.950 . S
C2459 C2457 1.327 . S
C2460 C2448 1.349 . S
C2460 H2454 0.950 . S
C2460 C2461 1.327 . S
C2461 H2455 0.950 . S
C2461 C2460 1.327 . S
C2461 C2465 1.429 . S
C2462 C2445 1.574 . S
C2462 H2456 0.949 . S
C2462 C2466 1.368 . S
C2463 C2444 1.429 . S
C2463 C2457 1.429 . S
C2463 C2464 1.523 . S
C2464 C2445 1.368 . S
C2464 C2458 1.368 . S
C2464 C2463 1.523 . S
C2465 C2449 1.429 . S
C2465 C2461 1.429 . S
C2465 C2466 1.523 . S
C2466 C2450 1.368 . S
C2466 C2462 1.368 . S
C2466 C2465 1.523 . S
H2467 C2442 0.950 . S
H2468 C2444 0.950 . S
H2469 C2445 0.949 . S
H2470 C2447 0.950 . S
H2471 C2449 0.950 . S
C2472 C2473 1.349 . S
C2472 C2474 1.327 . S
C2472 H2497 0.950 . S
C2473 C2472 1.349 . S
C2473 C2489 1.349 . S
C2474 C2472 1.327 . S
C2474 C2493 1.429 . S
C2474 H2498 0.950 . S
C2475 C2492 1.574 . S
C2475 C2494 1.368 . S
C2475 H2499 0.949 . S
H2476 C2480 0.949 . S
C2477 C2478 1.349 . S
C2477 C2479 1.327 . S
C2477 H2500 0.950 . S
C2478 C2477 1.349 . S
C2478 C2490 1.349 . S
C2479 C2477 1.327 . S
C2479 C2495 1.429 . S
C2479 H2501 0.950 . S
C2480 H2476 0.949 . S
C2480 C2488 1.574 . S
C2480 C2496 1.368 . S
H2481 C2489 0.950 . S
H2482 C2487 0.950 . S
H2483 C2488 0.949 . S
H2484 C2490 0.950 . S
H2485 C2491 0.950 . S
H2486 C2492 0.949 . S
C2487 H2482 0.950 . S
C2487 C2489 1.327 . S
C2487 C2493 1.429 . S
C2488 C2480 1.574 . S
C2488 H2483 0.949 . S
C2488 C2494 1.368 . S
C2489 C2473 1.349 . S
C2489 H2481 0.950 . S
C2489 C2487 1.327 . S
C2490 C2478 1.349 . S
C2490 H2484 0.950 . S
C2490 C2491 1.327 . S
C2491 H2485 0.950 . S
C2491 C2490 1.327 . S
C2491 C2495 1.429 . S
C2492 C2475 1.574 . S
C2492 H2486 0.949 . S
C2492 C2496 1.368 . S
C2493 C2474 1.429 . S
C2493 C2487 1.429 . S
C2493 C2494 1.523 . S
C2494 C2475 1.368 . S
C2494 C2488 1.368 . S
C2494 C2493 1.523 . S
C2495 C2479 1.429 . S
C2495 C2491 1.429 . S
C2495 C2496 1.523 . S
C2496 C2480 1.368 . S
C2496 C2492 1.368 . S
C2496 C2495 1.523 . S
H2497 C2472 0.950 . S
H2498 C2474 0.950 . S
H2499 C2475 0.949 . S
H2500 C2477 0.950 . S
H2501 C2479 0.950 . S
C2502 C2503 1.349 . S
C2502 C2504 1.327 . S
C2502 H2527 0.950 . S
C2503 C2502 1.349 . S
C2503 C2519 1.349 . S
C2504 C2502 1.327 . S
C2504 C2523 1.429 . S
C2504 H2528 0.950 . S
C2505 C2522 1.574 . S
C2505 C2524 1.368 . S
C2505 H2529 0.949 . S
H2506 C2510 0.949 . S
C2507 C2508 1.349 . S
C2507 C2509 1.327 . S
C2507 H2530 0.950 . S
C2508 C2507 1.349 . S
C2508 C2520 1.349 . S
C2509 C2507 1.327 . S
C2509 C2525 1.429 . S
C2509 H2531 0.950 . S
C2510 H2506 0.949 . S
C2510 C2518 1.574 . S
C2510 C2526 1.368 . S
H2511 C2519 0.950 . S
H2512 C2517 0.950 . S
H2513 C2518 0.949 . S
H2514 C2520 0.950 . S
H2515 C2521 0.950 . S
H2516 C2522 0.949 . S
C2517 H2512 0.950 . S
C2517 C2519 1.327 . S
C2517 C2523 1.429 . S
C2518 C2510 1.574 . S
C2518 H2513 0.949 . S
C2518 C2524 1.368 . S
C2519 C2503 1.349 . S
C2519 H2511 0.950 . S
C2519 C2517 1.327 . S
C2520 C2508 1.349 . S
C2520 H2514 0.950 . S
C2520 C2521 1.327 . S
C2521 H2515 0.950 . S
C2521 C2520 1.327 . S
C2521 C2525 1.429 . S
C2522 C2505 1.574 . S
C2522 H2516 0.949 . S
C2522 C2526 1.368 . S
C2523 C2504 1.429 . S
C2523 C2517 1.429 . S
C2523 C2524 1.523 . S
C2524 C2505 1.368 . S
C2524 C2518 1.368 . S
C2524 C2523 1.523 . S
C2525 C2509 1.429 . S
C2525 C2521 1.429 . S
C2525 C2526 1.523 . S
C2526 C2510 1.368 . S
C2526 C2522 1.368 . S
C2526 C2525 1.523 . S
H2527 C2502 0.950 . S
H2528 C2504 0.950 . S
H2529 C2505 0.949 . S
H2530 C2507 0.950 . S
H2531 C2509 0.950 . S
C2532 C2533 1.349 . S
C2532 C2534 1.327 . S
C2532 H2557 0.950 . S
C2533 C2532 1.349 . S
C2533 C2549 1.349 . S
C2534 C2532 1.327 . S
C2534 C2553 1.429 . S
C2534 H2558 0.950 . S
C2535 C2552 1.574 . S
C2535 C2554 1.368 . S
C2535 H2559 0.949 . S
H2536 C2540 0.949 . S
C2537 C2538 1.349 . S
C2537 C2539 1.327 . S
C2537 H2560 0.950 . S
C2538 C2537 1.349 . S
C2538 C2550 1.349 . S
C2539 C2537 1.327 . S
C2539 C2555 1.429 . S
C2539 H2561 0.950 . S
C2540 H2536 0.949 . S
C2540 C2548 1.574 . S
C2540 C2556 1.368 . S
H2541 C2549 0.950 . S
H2542 C2547 0.950 . S
H2543 C2548 0.949 . S
H2544 C2550 0.950 . S
H2545 C2551 0.950 . S
H2546 C2552 0.949 . S
C2547 H2542 0.950 . S
C2547 C2549 1.327 . S
C2547 C2553 1.429 . S
C2548 C2540 1.574 . S
C2548 H2543 0.949 . S
C2548 C2554 1.368 . S
C2549 C2533 1.349 . S
C2549 H2541 0.950 . S
C2549 C2547 1.327 . S
C2550 C2538 1.349 . S
C2550 H2544 0.950 . S
C2550 C2551 1.327 . S
C2551 H2545 0.950 . S
C2551 C2550 1.327 . S
C2551 C2555 1.429 . S
C2552 C2535 1.574 . S
C2552 H2546 0.949 . S
C2552 C2556 1.368 . S
C2553 C2534 1.429 . S
C2553 C2547 1.429 . S
C2553 C2554 1.523 . S
C2554 C2535 1.368 . S
C2554 C2548 1.368 . S
C2554 C2553 1.523 . S
C2555 C2539 1.429 . S
C2555 C2551 1.429 . S
C2555 C2556 1.523 . S
C2556 C2540 1.368 . S
C2556 C2552 1.368 . S
C2556 C2555 1.523 . S
H2557 C2532 0.950 . S
H2558 C2534 0.950 . S
H2559 C2535 0.949 . S
H2560 C2537 0.950 . S
H2561 C2539 0.950 . S
C2562 C2563 1.349 . S
C2562 C2564 1.327 . S
C2562 H2587 0.950 . S
C2563 C2562 1.349 . S
C2563 C2579 1.349 . S
C2564 C2562 1.327 . S
C2564 C2583 1.429 . S
C2564 H2588 0.950 . S
C2565 C2582 1.574 . S
C2565 C2584 1.368 . S
C2565 H2589 0.949 . S
H2566 C2570 0.949 . S
C2567 C2568 1.349 . S
C2567 C2569 1.327 . S
C2567 H2590 0.950 . S
C2568 C2567 1.349 . S
C2568 C2580 1.349 . S
C2569 C2567 1.327 . S
C2569 C2585 1.429 . S
C2569 H2591 0.950 . S
C2570 H2566 0.949 . S
C2570 C2578 1.574 . S
C2570 C2586 1.368 . S
H2571 C2579 0.950 . S
H2572 C2577 0.950 . S
H2573 C2578 0.949 . S
H2574 C2580 0.950 . S
H2575 C2581 0.950 . S
H2576 C2582 0.949 . S
C2577 H2572 0.950 . S
C2577 C2579 1.327 . S
C2577 C2583 1.429 . S
C2578 C2570 1.574 . S
C2578 H2573 0.949 . S
C2578 C2584 1.368 . S
C2579 C2563 1.349 . S
C2579 H2571 0.950 . S
C2579 C2577 1.327 . S
C2580 C2568 1.349 . S
C2580 H2574 0.950 . S
C2580 C2581 1.327 . S
C2581 H2575 0.950 . S
C2581 C2580 1.327 . S
C2581 C2585 1.429 . S
C2582 C2565 1.574 . S
C2582 H2576 0.949 . S
C2582 C2586 1.368 . S
C2583 C2564 1.429 . S
C2583 C2577 1.429 . S
C2583 C2584 1.523 . S
C2584 C2565 1.368 . S
C2584 C2578 1.368 . S
C2584 C2583 1.523 . S
C2585 C2569 1.429 . S
C2585 C2581 1.429 . S
C2585 C2586 1.523 . S
C2586 C2570 1.368 . S
C2586 C2582 1.368 . S
C2586 C2585 1.523 . S
H2587 C2562 0.950 . S
H2588 C2564 0.950 . S
H2589 C2565 0.949 . S
H2590 C2567 0.950 . S
H2591 C2569 0.950 . S
C2592 C2593 1.349 . S
C2592 C2594 1.327 . S
C2592 H2617 0.950 . S
C2593 C2592 1.349 . S
C2593 C2609 1.349 . S
C2594 C2592 1.327 . S
C2594 C2613 1.429 . S
C2594 H2618 0.950 . S
C2595 C2612 1.574 . S
C2595 C2614 1.368 . S
C2595 H2619 0.949 . S
H2596 C2600 0.949 . S
C2597 C2598 1.349 . S
C2597 C2599 1.327 . S
C2597 H2620 0.950 . S
C2598 C2597 1.349 . S
C2598 C2610 1.349 . S
C2599 C2597 1.327 . S
C2599 C2615 1.429 . S
C2599 H2621 0.950 . S
C2600 H2596 0.949 . S
C2600 C2608 1.574 . S
C2600 C2616 1.368 . S
H2601 C2609 0.950 . S
H2602 C2607 0.950 . S
H2603 C2608 0.949 . S
H2604 C2610 0.950 . S
H2605 C2611 0.950 . S
H2606 C2612 0.949 . S
C2607 H2602 0.950 . S
C2607 C2609 1.327 . S
C2607 C2613 1.429 . S
C2608 C2600 1.574 . S
C2608 H2603 0.949 . S
C2608 C2614 1.368 . S
C2609 C2593 1.349 . S
C2609 H2601 0.950 . S
C2609 C2607 1.327 . S
C2610 C2598 1.349 . S
C2610 H2604 0.950 . S
C2610 C2611 1.327 . S
C2611 H2605 0.950 . S
C2611 C2610 1.327 . S
C2611 C2615 1.429 . S
C2612 C2595 1.574 . S
C2612 H2606 0.949 . S
C2612 C2616 1.368 . S
C2613 C2594 1.429 . S
C2613 C2607 1.429 . S
C2613 C2614 1.523 . S
C2614 C2595 1.368 . S
C2614 C2608 1.368 . S
C2614 C2613 1.523 . S
C2615 C2599 1.429 . S
C2615 C2611 1.429 . S
C2615 C2616 1.523 . S
C2616 C2600 1.368 . S
C2616 C2612 1.368 . S
C2616 C2615 1.523 . S
H2617 C2592 0.950 . S
H2618 C2594 0.950 . S
H2619 C2595 0.949 . S
H2620 C2597 0.950 . S
H2621 C2599 0.950 . S
C2622 C2623 1.349 . S
C2622 C2624 1.327 . S
C2622 H2647 0.950 . S
C2623 C2622 1.349 . S
C2623 C2639 1.349 . S
C2624 C2622 1.327 . S
C2624 C2643 1.429 . S
C2624 H2648 0.950 . S
C2625 C2642 1.574 . S
C2625 C2644 1.368 . S
C2625 H2649 0.949 . S
H2626 C2630 0.949 . S
C2627 C2628 1.349 . S
C2627 C2629 1.327 . S
C2627 H2650 0.950 . S
C2628 C2627 1.349 . S
C2628 C2640 1.349 . S
C2629 C2627 1.327 . S
C2629 C2645 1.429 . S
C2629 H2651 0.950 . S
C2630 H2626 0.949 . S
C2630 C2638 1.574 . S
C2630 C2646 1.368 . S
H2631 C2639 0.950 . S
H2632 C2637 0.950 . S
H2633 C2638 0.949 . S
H2634 C2640 0.950 . S
H2635 C2641 0.950 . S
H2636 C2642 0.949 . S
C2637 H2632 0.950 . S
C2637 C2639 1.327 . S
C2637 C2643 1.429 . S
C2638 C2630 1.574 . S
C2638 H2633 0.949 . S
C2638 C2644 1.368 . S
C2639 C2623 1.349 . S
C2639 H2631 0.950 . S
C2639 C2637 1.327 . S
C2640 C2628 1.349 . S
C2640 H2634 0.950 . S
C2640 C2641 1.327 . S
C2641 H2635 0.950 . S
C2641 C2640 1.327 . S
C2641 C2645 1.429 . S
C2642 C2625 1.574 . S
C2642 H2636 0.949 . S
C2642 C2646 1.368 . S
C2643 C2624 1.429 . S
C2643 C2637 1.429 . S
C2643 C2644 1.523 . S
C2644 C2625 1.368 . S
C2644 C2638 1.368 . S
C2644 C2643 1.523 . S
C2645 C2629 1.429 . S
C2645 C2641 1.429 . S
C2645 C2646 1.523 . S
C2646 C2630 1.368 . S
C2646 C2642 1.368 . S
C2646 C2645 1.523 . S
H2647 C2622 0.950 . S
H2648 C2624 0.950 . S
H2649 C2625 0.949 . S
H2650 C2627 0.950 . S
H2651 C2629 0.950 . S
C2652 C2653 1.349 . S
C2652 C2654 1.327 . S
C2652 H2677 0.950 . S
C2653 C2652 1.349 . S
C2653 C2669 1.349 . S
C2654 C2652 1.327 . S
C2654 C2673 1.429 . S
C2654 H2678 0.950 . S
C2655 C2672 1.574 . S
C2655 C2674 1.368 . S
C2655 H2679 0.949 . S
H2656 C2660 0.949 . S
C2657 C2658 1.349 . S
C2657 C2659 1.327 . S
C2657 H2680 0.950 . S
C2658 C2657 1.349 . S
C2658 C2670 1.349 . S
C2659 C2657 1.327 . S
C2659 C2675 1.429 . S
C2659 H2681 0.950 . S
C2660 H2656 0.949 . S
C2660 C2668 1.574 . S
C2660 C2676 1.368 . S
H2661 C2669 0.950 . S
H2662 C2667 0.950 . S
H2663 C2668 0.949 . S
H2664 C2670 0.950 . S
H2665 C2671 0.950 . S
H2666 C2672 0.949 . S
C2667 H2662 0.950 . S
C2667 C2669 1.327 . S
C2667 C2673 1.429 . S
C2668 C2660 1.574 . S
C2668 H2663 0.949 . S
C2668 C2674 1.368 . S
C2669 C2653 1.349 . S
C2669 H2661 0.950 . S
C2669 C2667 1.327 . S
C2670 C2658 1.349 . S
C2670 H2664 0.950 . S
C2670 C2671 1.327 . S
C2671 H2665 0.950 . S
C2671 C2670 1.327 . S
C2671 C2675 1.429 . S
C2672 C2655 1.574 . S
C2672 H2666 0.949 . S
C2672 C2676 1.368 . S
C2673 C2654 1.429 . S
C2673 C2667 1.429 . S
C2673 C2674 1.523 . S
C2674 C2655 1.368 . S
C2674 C2668 1.368 . S
C2674 C2673 1.523 . S
C2675 C2659 1.429 . S
C2675 C2671 1.429 . S
C2675 C2676 1.523 . S
C2676 C2660 1.368 . S
C2676 C2672 1.368 . S
C2676 C2675 1.523 . S
H2677 C2652 0.950 . S
H2678 C2654 0.950 . S
H2679 C2655 0.949 . S
H2680 C2657 0.950 . S
H2681 C2659 0.950 . S
C2682 C2683 1.349 . S
C2682 C2684 1.327 . S
C2682 H2707 0.950 . S
C2683 C2682 1.349 . S
C2683 C2699 1.349 . S
C2684 C2682 1.327 . S
C2684 C2703 1.429 . S
C2684 H2708 0.950 . S
C2685 C2702 1.574 . S
C2685 C2704 1.368 . S
C2685 H2709 0.949 . S
H2686 C2690 0.949 . S
C2687 C2688 1.349 . S
C2687 C2689 1.327 . S
C2687 H2710 0.950 . S
C2688 C2687 1.349 . S
C2688 C2700 1.349 . S
C2689 C2687 1.327 . S
C2689 C2705 1.429 . S
C2689 H2711 0.950 . S
C2690 H2686 0.949 . S
C2690 C2698 1.574 . S
C2690 C2706 1.368 . S
H2691 C2699 0.950 . S
H2692 C2697 0.950 . S
H2693 C2698 0.949 . S
H2694 C2700 0.950 . S
H2695 C2701 0.950 . S
H2696 C2702 0.949 . S
C2697 H2692 0.950 . S
C2697 C2699 1.327 . S
C2697 C2703 1.429 . S
C2698 C2690 1.574 . S
C2698 H2693 0.949 . S
C2698 C2704 1.368 . S
C2699 C2683 1.349 . S
C2699 H2691 0.950 . S
C2699 C2697 1.327 . S
C2700 C2688 1.349 . S
C2700 H2694 0.950 . S
C2700 C2701 1.327 . S
C2701 H2695 0.950 . S
C2701 C2700 1.327 . S
C2701 C2705 1.429 . S
C2702 C2685 1.574 . S
C2702 H2696 0.949 . S
C2702 C2706 1.368 . S
C2703 C2684 1.429 . S
C2703 C2697 1.429 . S
C2703 C2704 1.523 . S
C2704 C2685 1.368 . S
C2704 C2698 1.368 . S
C2704 C2703 1.523 . S
C2705 C2689 1.429 . S
C2705 C2701 1.429 . S
C2705 C2706 1.523 . S
C2706 C2690 1.368 . S
C2706 C2702 1.368 . S
C2706 C2705 1.523 . S
H2707 C2682 0.950 . S
H2708 C2684 0.950 . S
H2709 C2685 0.949 . S
H2710 C2687 0.950 . S
H2711 C2689 0.950 . S
C2712 C2713 1.349 . S
C2712 C2714 1.327 . S
C2712 H2737 0.950 . S
C2713 C2712 1.349 . S
C2713 C2729 1.349 . S
C2714 C2712 1.327 . S
C2714 C2733 1.429 . S
C2714 H2738 0.950 . S
C2715 C2732 1.574 . S
C2715 C2734 1.368 . S
C2715 H2739 0.949 . S
H2716 C2720 0.949 . S
C2717 C2718 1.349 . S
C2717 C2719 1.327 . S
C2717 H2740 0.950 . S
C2718 C2717 1.349 . S
C2718 C2730 1.349 . S
C2719 C2717 1.327 . S
C2719 C2735 1.429 . S
C2719 H2741 0.950 . S
C2720 H2716 0.949 . S
C2720 C2728 1.574 . S
C2720 C2736 1.368 . S
H2721 C2729 0.950 . S
H2722 C2727 0.950 . S
H2723 C2728 0.949 . S
H2724 C2730 0.950 . S
H2725 C2731 0.950 . S
H2726 C2732 0.949 . S
C2727 H2722 0.950 . S
C2727 C2729 1.327 . S
C2727 C2733 1.429 . S
C2728 C2720 1.574 . S
C2728 H2723 0.949 . S
C2728 C2734 1.368 . S
C2729 C2713 1.349 . S
C2729 H2721 0.950 . S
C2729 C2727 1.327 . S
C2730 C2718 1.349 . S
C2730 H2724 0.950 . S
C2730 C2731 1.327 . S
C2731 H2725 0.950 . S
C2731 C2730 1.327 . S
C2731 C2735 1.429 . S
C2732 C2715 1.574 . S
C2732 H2726 0.949 . S
C2732 C2736 1.368 . S
C2733 C2714 1.429 . S
C2733 C2727 1.429 . S
C2733 C2734 1.523 . S
C2734 C2715 1.368 . S
C2734 C2728 1.368 . S
C2734 C2733 1.523 . S
C2735 C2719 1.429 . S
C2735 C2731 1.429 . S
C2735 C2736 1.523 . S
C2736 C2720 1.368 . S
C2736 C2732 1.368 . S
C2736 C2735 1.523 . S
H2737 C2712 0.950 . S
H2738 C2714 0.950 . S
H2739 C2715 0.949 . S
H2740 C2717 0.950 . S
H2741 C2719 0.950 . S
C2742 C2743 1.349 . S
C2742 C2744 1.327 . S
C2742 H2767 0.950 . S
C2743 C2742 1.349 . S
C2743 C2759 1.349 . S
C2744 C2742 1.327 . S
C2744 C2763 1.429 . S
C2744 H2768 0.950 . S
C2745 C2762 1.574 . S
C2745 C2764 1.368 . S
C2745 H2769 0.949 . S
H2746 C2750 0.949 . S
C2747 C2748 1.349 . S
C2747 C2749 1.327 . S
C2747 H2770 0.950 . S
C2748 C2747 1.349 . S
C2748 C2760 1.349 . S
C2749 C2747 1.327 . S
C2749 C2765 1.429 . S
C2749 H2771 0.950 . S
C2750 H2746 0.949 . S
C2750 C2758 1.574 . S
C2750 C2766 1.368 . S
H2751 C2759 0.950 . S
H2752 C2757 0.950 . S
H2753 C2758 0.949 . S
H2754 C2760 0.950 . S
H2755 C2761 0.950 . S
H2756 C2762 0.949 . S
C2757 H2752 0.950 . S
C2757 C2759 1.327 . S
C2757 C2763 1.429 . S
C2758 C2750 1.574 . S
C2758 H2753 0.949 . S
C2758 C2764 1.368 . S
C2759 C2743 1.349 . S
C2759 H2751 0.950 . S
C2759 C2757 1.327 . S
C2760 C2748 1.349 . S
C2760 H2754 0.950 . S
C2760 C2761 1.327 . S
C2761 H2755 0.950 . S
C2761 C2760 1.327 . S
C2761 C2765 1.429 . S
C2762 C2745 1.574 . S
C2762 H2756 0.949 . S
C2762 C2766 1.368 . S
C2763 C2744 1.429 . S
C2763 C2757 1.429 . S
C2763 C2764 1.523 . S
C2764 C2745 1.368 . S
C2764 C2758 1.368 . S
C2764 C2763 1.523 . S
C2765 C2749 1.429 . S
C2765 C2761 1.429 . S
C2765 C2766 1.523 . S
C2766 C2750 1.368 . S
C2766 C2762 1.368 . S
C2766 C2765 1.523 . S
H2767 C2742 0.950 . S
H2768 C2744 0.950 . S
H2769 C2745 0.949 . S
H2770 C2747 0.950 . S
H2771 C2749 0.950 . S
C2772 C2773 1.349 . S
C2772 C2774 1.327 . S
C2772 H2797 0.950 . S
C2773 C2772 1.349 . S
C2773 C2789 1.349 . S
C2774 C2772 1.327 . S
C2774 C2793 1.429 . S
C2774 H2798 0.950 . S
C2775 C2792 1.574 . S
C2775 C2794 1.368 . S
C2775 H2799 0.949 . S
H2776 C2780 0.949 . S
C2777 C2778 1.349 . S
C2777 C2779 1.327 . S
C2777 H2800 0.950 . S
C2778 C2777 1.349 . S
C2778 C2790 1.349 . S
C2779 C2777 1.327 . S
C2779 C2795 1.429 . S
C2779 H2801 0.950 . S
C2780 H2776 0.949 . S
C2780 C2788 1.574 . S
C2780 C2796 1.368 . S
H2781 C2789 0.950 . S
H2782 C2787 0.950 . S
H2783 C2788 0.949 . S
H2784 C2790 0.950 . S
H2785 C2791 0.950 . S
H2786 C2792 0.949 . S
C2787 H2782 0.950 . S
C2787 C2789 1.327 . S
C2787 C2793 1.429 . S
C2788 C2780 1.574 . S
C2788 H2783 0.949 . S
C2788 C2794 1.368 . S
C2789 C2773 1.349 . S
C2789 H2781 0.950 . S
C2789 C2787 1.327 . S
C2790 C2778 1.349 . S
C2790 H2784 0.950 . S
C2790 C2791 1.327 . S
C2791 H2785 0.950 . S
C2791 C2790 1.327 . S
C2791 C2795 1.429 . S
C2792 C2775 1.574 . S
C2792 H2786 0.949 . S
C2792 C2796 1.368 . S
C2793 C2774 1.429 . S
C2793 C2787 1.429 . S
C2793 C2794 1.523 . S
C2794 C2775 1.368 . S
C2794 C2788 1.368 . S
C2794 C2793 1.523 . S
C2795 C2779 1.429 . S
C2795 C2791 1.429 . S
C2795 C2796 1.523 . S
C2796 C2780 1.368 . S
C2796 C2792 1.368 . S
C2796 C2795 1.523 . S
H2797 C2772 0.950 . S
H2798 C2774 0.950 . S
H2799 C2775 0.949 . S
H2800 C2777 0.950 . S
H2801 C2779 0.950 . S
C2802 C2803 1.349 . S
C2802 C2804 1.327 . S
C2802 H2827 0.950 . S
C2803 C2802 1.349 . S
C2803 C2819 1.349 . S
C2804 C2802 1.327 . S
C2804 C2823 1.429 . S
C2804 H2828 0.950 . S
C2805 C2822 1.574 . S
C2805 C2824 1.368 . S
C2805 H2829 0.949 . S
H2806 C2810 0.949 . S
C2807 C2808 1.349 . S
C2807 C2809 1.327 . S
C2807 H2830 0.950 . S
C2808 C2807 1.349 . S
C2808 C2820 1.349 . S
C2809 C2807 1.327 . S
C2809 C2825 1.429 . S
C2809 H2831 0.950 . S
C2810 H2806 0.949 . S
C2810 C2818 1.574 . S
C2810 C2826 1.368 . S
H2811 C2819 0.950 . S
H2812 C2817 0.950 . S
H2813 C2818 0.949 . S
H2814 C2820 0.950 . S
H2815 C2821 0.950 . S
H2816 C2822 0.949 . S
C2817 H2812 0.950 . S
C2817 C2819 1.327 . S
C2817 C2823 1.429 . S
C2818 C2810 1.574 . S
C2818 H2813 0.949 . S
C2818 C2824 1.368 . S
C2819 C2803 1.349 . S
C2819 H2811 0.950 . S
C2819 C2817 1.327 . S
C2820 C2808 1.349 . S
C2820 H2814 0.950 . S
C2820 C2821 1.327 . S
C2821 H2815 0.950 . S
C2821 C2820 1.327 . S
C2821 C2825 1.429 . S
C2822 C2805 1.574 . S
C2822 H2816 0.949 . S
C2822 C2826 1.368 . S
C2823 C2804 1.429 . S
C2823 C2817 1.429 . S
C2823 C2824 1.523 . S
C2824 C2805 1.368 . S
C2824 C2818 1.368 . S
C2824 C2823 1.523 . S
C2825 C2809 1.429 . S
C2825 C2821 1.429 . S
C2825 C2826 1.523 . S
C2826 C2810 1.368 . S
C2826 C2822 1.368 . S
C2826 C2825 1.523 . S
H2827 C2802 0.950 . S
H2828 C2804 0.950 . S
H2829 C2805 0.949 . S
H2830 C2807 0.950 . S
H2831 C2809 0.950 . S
C2832 C2833 1.349 . S
C2832 C2834 1.327 . S
C2832 H2857 0.950 . S
C2833 C2832 1.349 . S
C2833 C2849 1.349 . S
C2834 C2832 1.327 . S
C2834 C2853 1.429 . S
C2834 H2858 0.950 . S
C2835 C2852 1.574 . S
C2835 C2854 1.368 . S
C2835 H2859 0.949 . S
H2836 C2840 0.949 . S
C2837 C2838 1.349 . S
C2837 C2839 1.327 . S
C2837 H2860 0.950 . S
C2838 C2837 1.349 . S
C2838 C2850 1.349 . S
C2839 C2837 1.327 . S
C2839 C2855 1.429 . S
C2839 H2861 0.950 . S
C2840 H2836 0.949 . S
C2840 C2848 1.574 . S
C2840 C2856 1.368 . S
H2841 C2849 0.950 . S
H2842 C2847 0.950 . S
H2843 C2848 0.949 . S
H2844 C2850 0.950 . S
H2845 C2851 0.950 . S
H2846 C2852 0.949 . S
C2847 H2842 0.950 . S
C2847 C2849 1.327 . S
C2847 C2853 1.429 . S
C2848 C2840 1.574 . S
C2848 H2843 0.949 . S
C2848 C2854 1.368 . S
C2849 C2833 1.349 . S
C2849 H2841 0.950 . S
C2849 C2847 1.327 . S
C2850 C2838 1.349 . S
C2850 H2844 0.950 . S
C2850 C2851 1.327 . S
C2851 H2845 0.950 . S
C2851 C2850 1.327 . S
C2851 C2855 1.429 . S
C2852 C2835 1.574 . S
C2852 H2846 0.949 . S
C2852 C2856 1.368 . S
C2853 C2834 1.429 . S
C2853 C2847 1.429 . S
C2853 C2854 1.523 . S
C2854 C2835 1.368 . S
C2854 C2848 1.368 . S
C2854 C2853 1.523 . S
C2855 C2839 1.429 . S
C2855 C2851 1.429 . S
C2855 C2856 1.523 . S
C2856 C2840 1.368 . S
C2856 C2852 1.368 . S
C2856 C2855 1.523 . S
H2857 C2832 0.950 . S
H2858 C2834 0.950 . S
H2859 C2835 0.949 . S
H2860 C2837 0.950 . S
H2861 C2839 0.950 . S
C2862 C2863 1.349 . S
C2862 C2864 1.327 . S
C2862 H2887 0.950 . S
C2863 C2862 1.349 . S
C2863 C2879 1.349 . S
C2864 C2862 1.327 . S
C2864 C2883 1.429 . S
C2864 H2888 0.950 . S
C2865 C2882 1.574 . S
C2865 C2884 1.368 . S
C2865 H2889 0.949 . S
H2866 C2870 0.949 . S
C2867 C2868 1.349 . S
C2867 C2869 1.327 . S
C2867 H2890 0.950 . S
C2868 C2867 1.349 . S
C2868 C2880 1.349 . S
C2869 C2867 1.327 . S
C2869 C2885 1.429 . S
C2869 H2891 0.950 . S
C2870 H2866 0.949 . S
C2870 C2878 1.574 . S
C2870 C2886 1.368 . S
H2871 C2879 0.950 . S
H2872 C2877 0.950 . S
H2873 C2878 0.949 . S
H2874 C2880 0.950 . S
H2875 C2881 0.950 . S
H2876 C2882 0.949 . S
C2877 H2872 0.950 . S
C2877 C2879 1.327 . S
C2877 C2883 1.429 . S
C2878 C2870 1.574 . S
C2878 H2873 0.949 . S
C2878 C2884 1.368 . S
C2879 C2863 1.349 . S
C2879 H2871 0.950 . S
C2879 C2877 1.327 . S
C2880 C2868 1.349 . S
C2880 H2874 0.950 . S
C2880 C2881 1.327 . S
C2881 H2875 0.950 . S
C2881 C2880 1.327 . S
C2881 C2885 1.429 . S
C2882 C2865 1.574 . S
C2882 H2876 0.949 . S
C2882 C2886 1.368 . S
C2883 C2864 1.429 . S
C2883 C2877 1.429 . S
C2883 C2884 1.523 . S
C2884 C2865 1.368 . S
C2884 C2878 1.368 . S
C2884 C2883 1.523 . S
C2885 C2869 1.429 . S
C2885 C2881 1.429 . S
C2885 C2886 1.523 . S
C2886 C2870 1.368 . S
C2886 C2882 1.368 . S
C2886 C2885 1.523 . S
H2887 C2862 0.950 . S
H2888 C2864 0.950 . S
H2889 C2865 0.949 . S
H2890 C2867 0.950 . S
H2891 C2869 0.950 . S
C2892 C2893 1.349 . S
C2892 C2894 1.327 . S
C2892 H2917 0.950 . S
C2893 C2892 1.349 . S
C2893 C2909 1.349 . S
C2894 C2892 1.327 . S
C2894 C2913 1.429 . S
C2894 H2918 0.950 . S
C2895 C2912 1.574 . S
C2895 C2914 1.368 . S
C2895 H2919 0.949 . S
H2896 C2900 0.949 . S
C2897 C2898 1.349 . S
C2897 C2899 1.327 . S
C2897 H2920 0.950 . S
C2898 C2897 1.349 . S
C2898 C2910 1.349 . S
C2899 C2897 1.327 . S
C2899 C2915 1.429 . S
C2899 H2921 0.950 . S
C2900 H2896 0.949 . S
C2900 C2908 1.574 . S
C2900 C2916 1.368 . S
H2901 C2909 0.950 . S
H2902 C2907 0.950 . S
H2903 C2908 0.949 . S
H2904 C2910 0.950 . S
H2905 C2911 0.950 . S
H2906 C2912 0.949 . S
C2907 H2902 0.950 . S
C2907 C2909 1.327 . S
C2907 C2913 1.429 . S
C2908 C2900 1.574 . S
C2908 H2903 0.949 . S
C2908 C2914 1.368 . S
C2909 C2893 1.349 . S
C2909 H2901 0.950 . S
C2909 C2907 1.327 . S
C2910 C2898 1.349 . S
C2910 H2904 0.950 . S
C2910 C2911 1.327 . S
C2911 H2905 0.950 . S
C2911 C2910 1.327 . S
C2911 C2915 1.429 . S
C2912 C2895 1.574 . S
C2912 H2906 0.949 . S
C2912 C2916 1.368 . S
C2913 C2894 1.429 . S
C2913 C2907 1.429 . S
C2913 C2914 1.523 . S
C2914 C2895 1.368 . S
C2914 C2908 1.368 . S
C2914 C2913 1.523 . S
C2915 C2899 1.429 . S
C2915 C2911 1.429 . S
C2915 C2916 1.523 . S
C2916 C2900 1.368 . S
C2916 C2912 1.368 . S
C2916 C2915 1.523 . S
H2917 C2892 0.950 . S
H2918 C2894 0.950 . S
H2919 C2895 0.949 . S
H2920 C2897 0.950 . S
H2921 C2899 0.950 . S
C2922 C2923 1.349 . S
C2922 C2924 1.327 . S
C2922 H2947 0.950 . S
C2923 C2922 1.349 . S
C2923 C2939 1.349 . S
C2924 C2922 1.327 . S
C2924 C2943 1.429 . S
C2924 H2948 0.950 . S
C2925 C2942 1.574 . S
C2925 C2944 1.368 . S
C2925 H2949 0.949 . S
H2926 C2930 0.949 . S
C2927 C2928 1.349 . S
C2927 C2929 1.327 . S
C2927 H2950 0.950 . S
C2928 C2927 1.349 . S
C2928 C2940 1.349 . S
C2929 C2927 1.327 . S
C2929 C2945 1.429 . S
C2929 H2951 0.950 . S
C2930 H2926 0.949 . S
C2930 C2938 1.574 . S
C2930 C2946 1.368 . S
H2931 C2939 0.950 . S
H2932 C2937 0.950 . S
H2933 C2938 0.949 . S
H2934 C2940 0.950 . S
H2935 C2941 0.950 . S
H2936 C2942 0.949 . S
C2937 H2932 0.950 . S
C2937 C2939 1.327 . S
C2937 C2943 1.429 . S
C2938 C2930 1.574 . S
C2938 H2933 0.949 . S
C2938 C2944 1.368 . S
C2939 C2923 1.349 . S
C2939 H2931 0.950 . S
C2939 C2937 1.327 . S
C2940 C2928 1.349 . S
C2940 H2934 0.950 . S
C2940 C2941 1.327 . S
C2941 H2935 0.950 . S
C2941 C2940 1.327 . S
C2941 C2945 1.429 . S
C2942 C2925 1.574 . S
C2942 H2936 0.949 . S
C2942 C2946 1.368 . S
C2943 C2924 1.429 . S
C2943 C2937 1.429 . S
C2943 C2944 1.523 . S
C2944 C2925 1.368 . S
C2944 C2938 1.368 . S
C2944 C2943 1.523 . S
C2945 C2929 1.429 . S
C2945 C2941 1.429 . S
C2945 C2946 1.523 . S
C2946 C2930 1.368 . S
C2946 C2942 1.368 . S
C2946 C2945 1.523 . S
H2947 C2922 0.950 . S
H2948 C2924 0.950 . S
H2949 C2925 0.949 . S
H2950 C2927 0.950 . S
H2951 C2929 0.950 . S
C2952 C2953 1.349 . S
C2952 C2954 1.327 . S
C2952 H2977 0.950 . S
C2953 C2952 1.349 . S
C2953 C2969 1.349 . S
C2954 C2952 1.327 . S
C2954 C2973 1.429 . S
C2954 H2978 0.950 . S
C2955 C2972 1.574 . S
C2955 C2974 1.368 . S
C2955 H2979 0.949 . S
H2956 C2960 0.949 . S
C2957 C2958 1.349 . S
C2957 C2959 1.327 . S
C2957 H2980 0.950 . S
C2958 C2957 1.349 . S
C2958 C2970 1.349 . S
C2959 C2957 1.327 . S
C2959 C2975 1.429 . S
C2959 H2981 0.950 . S
C2960 H2956 0.949 . S
C2960 C2968 1.574 . S
C2960 C2976 1.368 . S
H2961 C2969 0.950 . S
H2962 C2967 0.950 . S
H2963 C2968 0.949 . S
H2964 C2970 0.950 . S
H2965 C2971 0.950 . S
H2966 C2972 0.949 . S
C2967 H2962 0.950 . S
C2967 C2969 1.327 . S
C2967 C2973 1.429 . S
C2968 C2960 1.574 . S
C2968 H2963 0.949 . S
C2968 C2974 1.368 . S
C2969 C2953 1.349 . S
C2969 H2961 0.950 . S
C2969 C2967 1.327 . S
C2970 C2958 1.349 . S
C2970 H2964 0.950 . S
C2970 C2971 1.327 . S
C2971 H2965 0.950 . S
C2971 C2970 1.327 . S
C2971 C2975 1.429 . S
C2972 C2955 1.574 . S
C2972 H2966 0.949 . S
C2972 C2976 1.368 . S
C2973 C2954 1.429 . S
C2973 C2967 1.429 . S
C2973 C2974 1.523 . S
C2974 C2955 1.368 . S
C2974 C2968 1.368 . S
C2974 C2973 1.523 . S
C2975 C2959 1.429 . S
C2975 C2971 1.429 . S
C2975 C2976 1.523 . S
C2976 C2960 1.368 . S
C2976 C2972 1.368 . S
C2976 C2975 1.523 . S
H2977 C2952 0.950 . S
H2978 C2954 0.950 . S
H2979 C2955 0.949 . S
H2980 C2957 0.950 . S
H2981 C2959 0.950 . S
C2982 C2983 1.349 . S
C2982 C2984 1.327 . S
C2982 H3007 0.950 . S
C2983 C2982 1.349 . S
C2983 C2999 1.349 . S
C2984 C2982 1.327 . S
C2984 C3003 1.429 . S
C2984 H3008 0.950 . S
C2985 C3002 1.574 . S
C2985 C3004 1.368 . S
C2985 H3009 0.949 . S
H2986 C2990 0.949 . S
C2987 C2988 1.349 . S
C2987 C2989 1.327 . S
C2987 H3010 0.950 . S
C2988 C2987 1.349 . S
C2988 C3000 1.349 . S
C2989 C2987 1.327 . S
C2989 C3005 1.429 . S
C2989 H3011 0.950 . S
C2990 H2986 0.949 . S
C2990 C2998 1.574 . S
C2990 C3006 1.368 . S
H2991 C2999 0.950 . S
H2992 C2997 0.950 . S
H2993 C2998 0.949 . S
H2994 C3000 0.950 . S
H2995 C3001 0.950 . S
H2996 C3002 0.949 . S
C2997 H2992 0.950 . S
C2997 C2999 1.327 . S
C2997 C3003 1.429 . S
C2998 C2990 1.574 . S
C2998 H2993 0.949 . S
C2998 C3004 1.368 . S
C2999 C2983 1.349 . S
C2999 H2991 0.950 . S
C2999 C2997 1.327 . S
C3000 C2988 1.349 . S
C3000 H2994 0.950 . S
C3000 C3001 1.327 . S
C3001 H2995 0.950 . S
C3001 C3000 1.327 . S
C3001 C3005 1.429 . S
C3002 C2985 1.574 . S
C3002 H2996 0.949 . S
C3002 C3006 1.368 . S
C3003 C2984 1.429 . S
C3003 C2997 1.429 . S
C3003 C3004 1.523 . S
C3004 C2985 1.368 . S
C3004 C2998 1.368 . S
C3004 C3003 1.523 . S
C3005 C2989 1.429 . S
C3005 C3001 1.429 . S
C3005 C3006 1.523 . S
C3006 C2990 1.368 . S
C3006 C3002 1.368 . S
C3006 C3005 1.523 . S
H3007 C2982 0.950 . S
H3008 C2984 0.950 . S
H3009 C2985 0.949 . S
H3010 C2987 0.950 . S
H3011 C2989 0.950 . S
C3012 C3013 1.349 . S
C3012 C3014 1.327 . S
C3012 H3037 0.950 . S
C3013 C3012 1.349 . S
C3013 C3029 1.349 . S
C3014 C3012 1.327 . S
C3014 C3033 1.429 . S
C3014 H3038 0.950 . S
C3015 C3032 1.574 . S
C3015 C3034 1.368 . S
C3015 H3039 0.949 . S
H3016 C3020 0.949 . S
C3017 C3018 1.349 . S
C3017 C3019 1.327 . S
C3017 H3040 0.950 . S
C3018 C3017 1.349 . S
C3018 C3030 1.349 . S
C3019 C3017 1.327 . S
C3019 C3035 1.429 . S
C3019 H3041 0.950 . S
C3020 H3016 0.949 . S
C3020 C3028 1.574 . S
C3020 C3036 1.368 . S
H3021 C3029 0.950 . S
H3022 C3027 0.950 . S
H3023 C3028 0.949 . S
H3024 C3030 0.950 . S
H3025 C3031 0.950 . S
H3026 C3032 0.949 . S
C3027 H3022 0.950 . S
C3027 C3029 1.327 . S
C3027 C3033 1.429 . S
C3028 C3020 1.574 . S
C3028 H3023 0.949 . S
C3028 C3034 1.368 . S
C3029 C3013 1.349 . S
C3029 H3021 0.950 . S
C3029 C3027 1.327 . S
C3030 C3018 1.349 . S
C3030 H3024 0.950 . S
C3030 C3031 1.327 . S
C3031 H3025 0.950 . S
C3031 C3030 1.327 . S
C3031 C3035 1.429 . S
C3032 C3015 1.574 . S
C3032 H3026 0.949 . S
C3032 C3036 1.368 . S
C3033 C3014 1.429 . S
C3033 C3027 1.429 . S
C3033 C3034 1.523 . S
C3034 C3015 1.368 . S
C3034 C3028 1.368 . S
C3034 C3033 1.523 . S
C3035 C3019 1.429 . S
C3035 C3031 1.429 . S
C3035 C3036 1.523 . S
C3036 C3020 1.368 . S
C3036 C3032 1.368 . S
C3036 C3035 1.523 . S
H3037 C3012 0.950 . S
H3038 C3014 0.950 . S
H3039 C3015 0.949 . S
H3040 C3017 0.950 . S
H3041 C3019 0.950 . S
C3042 C3043 1.349 . S
C3042 C3044 1.327 . S
C3042 H3067 0.950 . S
C3043 C3042 1.349 . S
C3043 C3059 1.349 . S
C3044 C3042 1.327 . S
C3044 C3063 1.429 . S
C3044 H3068 0.950 . S
C3045 C3062 1.574 . S
C3045 C3064 1.368 . S
C3045 H3069 0.949 . S
H3046 C3050 0.949 . S
C3047 C3048 1.349 . S
C3047 C3049 1.327 . S
C3047 H3070 0.950 . S
C3048 C3047 1.349 . S
C3048 C3060 1.349 . S
C3049 C3047 1.327 . S
C3049 C3065 1.429 . S
C3049 H3071 0.950 . S
C3050 H3046 0.949 . S
C3050 C3058 1.574 . S
C3050 C3066 1.368 . S
H3051 C3059 0.950 . S
H3052 C3057 0.950 . S
H3053 C3058 0.949 . S
H3054 C3060 0.950 . S
H3055 C3061 0.950 . S
H3056 C3062 0.949 . S
C3057 H3052 0.950 . S
C3057 C3059 1.327 . S
C3057 C3063 1.429 . S
C3058 C3050 1.574 . S
C3058 H3053 0.949 . S
C3058 C3064 1.368 . S
C3059 C3043 1.349 . S
C3059 H3051 0.950 . S
C3059 C3057 1.327 . S
C3060 C3048 1.349 . S
C3060 H3054 0.950 . S
C3060 C3061 1.327 . S
C3061 H3055 0.950 . S
C3061 C3060 1.327 . S
C3061 C3065 1.429 . S
C3062 C3045 1.574 . S
C3062 H3056 0.949 . S
C3062 C3066 1.368 . S
C3063 C3044 1.429 . S
C3063 C3057 1.429 . S
C3063 C3064 1.523 . S
C3064 C3045 1.368 . S
C3064 C3058 1.368 . S
C3064 C3063 1.523 . S
C3065 C3049 1.429 . S
C3065 C3061 1.429 . S
C3065 C3066 1.523 . S
C3066 C3050 1.368 . S
C3066 C3062 1.368 . S
C3066 C3065 1.523 . S
H3067 C3042 0.950 . S
H3068 C3044 0.950 . S
H3069 C3045 0.949 . S
H3070 C3047 0.950 . S
H3071 C3049 0.950 . S
C3072 C3073 1.349 . S
C3072 C3074 1.327 . S
C3072 H3097 0.950 . S
C3073 C3072 1.349 . S
C3073 C3089 1.349 . S
C3074 C3072 1.327 . S
C3074 C3093 1.429 . S
C3074 H3098 0.950 . S
C3075 C3092 1.574 . S
C3075 C3094 1.368 . S
C3075 H3099 0.949 . S
H3076 C3080 0.949 . S
C3077 C3078 1.349 . S
C3077 C3079 1.327 . S
C3077 H3100 0.950 . S
C3078 C3077 1.349 . S
C3078 C3090 1.349 . S
C3079 C3077 1.327 . S
C3079 C3095 1.429 . S
C3079 H3101 0.950 . S
C3080 H3076 0.949 . S
C3080 C3088 1.574 . S
C3080 C3096 1.368 . S
H3081 C3089 0.950 . S
H3082 C3087 0.950 . S
H3083 C3088 0.949 . S
H3084 C3090 0.950 . S
H3085 C3091 0.950 . S
H3086 C3092 0.949 . S
C3087 H3082 0.950 . S
C3087 C3089 1.327 . S
C3087 C3093 1.429 . S
C3088 C3080 1.574 . S
C3088 H3083 0.949 . S
C3088 C3094 1.368 . S
C3089 C3073 1.349 . S
C3089 H3081 0.950 . S
C3089 C3087 1.327 . S
C3090 C3078 1.349 . S
C3090 H3084 0.950 . S
C3090 C3091 1.327 . S
C3091 H3085 0.950 . S
C3091 C3090 1.327 . S
C3091 C3095 1.429 . S
C3092 C3075 1.574 . S
C3092 H3086 0.949 . S
C3092 C3096 1.368 . S
C3093 C3074 1.429 . S
C3093 C3087 1.429 . S
C3093 C3094 1.523 . S
C3094 C3075 1.368 . S
C3094 C3088 1.368 . S
C3094 C3093 1.523 . S
C3095 C3079 1.429 . S
C3095 C3091 1.429 . S
C3095 C3096 1.523 . S
C3096 C3080 1.368 . S
C3096 C3092 1.368 . S
C3096 C3095 1.523 . S
H3097 C3072 0.950 . S
H3098 C3074 0.950 . S
H3099 C3075 0.949 . S
H3100 C3077 0.950 . S
H3101 C3079 0.950 . S
C3102 C3103 1.349 . S
C3102 C3104 1.327 . S
C3102 H3127 0.950 . S
C3103 C3102 1.349 . S
C3103 C3119 1.349 . S
C3104 C3102 1.327 . S
C3104 C3123 1.429 . S
C3104 H3128 0.950 . S
C3105 C3122 1.574 . S
C3105 C3124 1.368 . S
C3105 H3129 0.949 . S
H3106 C3110 0.949 . S
C3107 C3108 1.349 . S
C3107 C3109 1.327 . S
C3107 H3130 0.950 . S
C3108 C3107 1.349 . S
C3108 C3120 1.349 . S
C3109 C3107 1.327 . S
C3109 C3125 1.429 . S
C3109 H3131 0.950 . S
C3110 H3106 0.949 . S
C3110 C3118 1.574 . S
C3110 C3126 1.368 . S
H3111 C3119 0.950 . S
H3112 C3117 0.950 . S
H3113 C3118 0.949 . S
H3114 C3120 0.950 . S
H3115 C3121 0.950 . S
H3116 C3122 0.949 . S
C3117 H3112 0.950 . S
C3117 C3119 1.327 . S
C3117 C3123 1.429 . S
C3118 C3110 1.574 . S
C3118 H3113 0.949 . S
C3118 C3124 1.368 . S
C3119 C3103 1.349 . S
C3119 H3111 0.950 . S
C3119 C3117 1.327 . S
C3120 C3108 1.349 . S
C3120 H3114 0.950 . S
C3120 C3121 1.327 . S
C3121 H3115 0.950 . S
C3121 C3120 1.327 . S
C3121 C3125 1.429 . S
C3122 C3105 1.574 . S
C3122 H3116 0.949 . S
C3122 C3126 1.368 . S
C3123 C3104 1.429 . S
C3123 C3117 1.429 . S
C3123 C3124 1.523 . S
C3124 C3105 1.368 . S
C3124 C3118 1.368 . S
C3124 C3123 1.523 . S
C3125 C3109 1.429 . S
C3125 C3121 1.429 . S
C3125 C3126 1.523 . S
C3126 C3110 1.368 . S
C3126 C3122 1.368 . S
C3126 C3125 1.523 . S
H3127 C3102 0.950 . S
H3128 C3104 0.950 . S
H3129 C3105 0.949 . S
H3130 C3107 0.950 . S
H3131 C3109 0.950 . S
C3132 C3133 1.349 . S
C3132 C3134 1.327 . S
C3132 H3157 0.950 . S
C3133 C3132 1.349 . S
C3133 C3149 1.349 . S
C3134 C3132 1.327 . S
C3134 C3153 1.429 . S
C3134 H3158 0.950 . S
C3135 C3152 1.574 . S
C3135 C3154 1.368 . S
C3135 H3159 0.949 . S
H3136 C3140 0.949 . S
C3137 C3138 1.349 . S
C3137 C3139 1.327 . S
C3137 H3160 0.950 . S
C3138 C3137 1.349 . S
C3138 C3150 1.349 . S
C3139 C3137 1.327 . S
C3139 C3155 1.429 . S
C3139 H3161 0.950 . S
C3140 H3136 0.949 . S
C3140 C3148 1.574 . S
C3140 C3156 1.368 . S
H3141 C3149 0.950 . S
H3142 C3147 0.950 . S
H3143 C3148 0.949 . S
H3144 C3150 0.950 . S
H3145 C3151 0.950 . S
H3146 C3152 0.949 . S
C3147 H3142 0.950 . S
C3147 C3149 1.327 . S
C3147 C3153 1.429 . S
C3148 C3140 1.574 . S
C3148 H3143 0.949 . S
C3148 C3154 1.368 . S
C3149 C3133 1.349 . S
C3149 H3141 0.950 . S
C3149 C3147 1.327 . S
C3150 C3138 1.349 . S
C3150 H3144 0.950 . S
C3150 C3151 1.327 . S
C3151 H3145 0.950 . S
C3151 C3150 1.327 . S
C3151 C3155 1.429 . S
C3152 C3135 1.574 . S
C3152 H3146 0.949 . S
C3152 C3156 1.368 . S
C3153 C3134 1.429 . S
C3153 C3147 1.429 . S
C3153 C3154 1.523 . S
C3154 C3135 1.368 . S
C3154 C3148 1.368 . S
C3154 C3153 1.523 . S
C3155 C3139 1.429 . S
C3155 C3151 1.429 . S
C3155 C3156 1.523 . S
C3156 C3140 1.368 . S
C3156 C3152 1.368 . S
C3156 C3155 1.523 . S
H3157 C3132 0.950 . S
H3158 C3134 0.950 . S
H3159 C3135 0.949 . S
H3160 C3137 0.950 . S
H3161 C3139 0.950 . S
C3162 C3163 1.349 . S
C3162 C3164 1.327 . S
C3162 H3187 0.950 . S
C3163 C3162 1.349 . S
C3163 C3179 1.349 . S
C3164 C3162 1.327 . S
C3164 C3183 1.429 . S
C3164 H3188 0.950 . S
C3165 C3182 1.574 . S
C3165 C3184 1.368 . S
C3165 H3189 0.949 . S
H3166 C3170 0.949 . S
C3167 C3168 1.349 . S
C3167 C3169 1.327 . S
C3167 H3190 0.950 . S
C3168 C3167 1.349 . S
C3168 C3180 1.349 . S
C3169 C3167 1.327 . S
C3169 C3185 1.429 . S
C3169 H3191 0.950 . S
C3170 H3166 0.949 . S
C3170 C3178 1.574 . S
C3170 C3186 1.368 . S
H3171 C3179 0.950 . S
H3172 C3177 0.950 . S
H3173 C3178 0.949 . S
H3174 C3180 0.950 . S
H3175 C3181 0.950 . S
H3176 C3182 0.949 . S
C3177 H3172 0.950 . S
C3177 C3179 1.327 . S
C3177 C3183 1.429 . S
C3178 C3170 1.574 . S
C3178 H3173 0.949 . S
C3178 C3184 1.368 . S
C3179 C3163 1.349 . S
C3179 H3171 0.950 . S
C3179 C3177 1.327 . S
C3180 C3168 1.349 . S
C3180 H3174 0.950 . S
C3180 C3181 1.327 . S
C3181 H3175 0.950 . S
C3181 C3180 1.327 . S
C3181 C3185 1.429 . S
C3182 C3165 1.574 . S
C3182 H3176 0.949 . S
C3182 C3186 1.368 . S
C3183 C3164 1.429 . S
C3183 C3177 1.429 . S
C3183 C3184 1.523 . S
C3184 C3165 1.368 . S
C3184 C3178 1.368 . S
C3184 C3183 1.523 . S
C3185 C3169 1.429 . S
C3185 C3181 1.429 . S
C3185 C3186 1.523 . S
C3186 C3170 1.368 . S
C3186 C3182 1.368 . S
C3186 C3185 1.523 . S
H3187 C3162 0.950 . S
H3188 C3164 0.950 . S
H3189 C3165 0.949 . S
H3190 C3167 0.950 . S
H3191 C3169 0.950 . S
C3192 C3193 1.349 . S
C3192 C3194 1.327 . S
C3192 H3217 0.950 . S
C3193 C3192 1.349 . S
C3193 C3209 1.349 . S
C3194 C3192 1.327 . S
C3194 C3213 1.429 . S
C3194 H3218 0.950 . S
C3195 C3212 1.574 . S
C3195 C3214 1.368 . S
C3195 H3219 0.949 . S
H3196 C3200 0.949 . S
C3197 C3198 1.349 . S
C3197 C3199 1.327 . S
C3197 H3220 0.950 . S
C3198 C3197 1.349 . S
C3198 C3210 1.349 . S
C3199 C3197 1.327 . S
C3199 C3215 1.429 . S
C3199 H3221 0.950 . S
C3200 H3196 0.949 . S
C3200 C3208 1.574 . S
C3200 C3216 1.368 . S
H3201 C3209 0.950 . S
H3202 C3207 0.950 . S
H3203 C3208 0.949 . S
H3204 C3210 0.950 . S
H3205 C3211 0.950 . S
H3206 C3212 0.949 . S
C3207 H3202 0.950 . S
C3207 C3209 1.327 . S
C3207 C3213 1.429 . S
C3208 C3200 1.574 . S
C3208 H3203 0.949 . S
C3208 C3214 1.368 . S
C3209 C3193 1.349 . S
C3209 H3201 0.950 . S
C3209 C3207 1.327 . S
C3210 C3198 1.349 . S
C3210 H3204 0.950 . S
C3210 C3211 1.327 . S
C3211 H3205 0.950 . S
C3211 C3210 1.327 . S
C3211 C3215 1.429 . S
C3212 C3195 1.574 . S
C3212 H3206 0.949 . S
C3212 C3216 1.368 . S
C3213 C3194 1.429 . S
C3213 C3207 1.429 . S
C3213 C3214 1.523 . S
C3214 C3195 1.368 . S
C3214 C3208 1.368 . S
C3214 C3213 1.523 . S
C3215 C3199 1.429 . S
C3215 C3211 1.429 . S
C3215 C3216 1.523 . S
C3216 C3200 1.368 . S
C3216 C3212 1.368 . S
C3216 C3215 1.523 . S
H3217 C3192 0.950 . S
H3218 C3194 0.950 . S
H3219 C3195 0.949 . S
H3220 C3197 0.950 . S
H3221 C3199 0.950 . S
C3222 C3223 1.349 . S
C3222 C3224 1.327 . S
C3222 H3247 0.950 . S
C3223 C3222 1.349 . S
C3223 C3239 1.349 . S
C3224 C3222 1.327 . S
C3224 C3243 1.429 . S
C3224 H3248 0.950 . S
C3225 C3242 1.574 . S
C3225 C3244 1.368 . S
C3225 H3249 0.949 . S
H3226 C3230 0.949 . S
C3227 C3228 1.349 . S
C3227 C3229 1.327 . S
C3227 H3250 0.950 . S
C3228 C3227 1.349 . S
C3228 C3240 1.349 . S
C3229 C3227 1.327 . S
C3229 C3245 1.429 . S
C3229 H3251 0.950 . S
C3230 H3226 0.949 . S
C3230 C3238 1.574 . S
C3230 C3246 1.368 . S
H3231 C3239 0.950 . S
H3232 C3237 0.950 . S
H3233 C3238 0.949 . S
H3234 C3240 0.950 . S
H3235 C3241 0.950 . S
H3236 C3242 0.949 . S
C3237 H3232 0.950 . S
C3237 C3239 1.327 . S
C3237 C3243 1.429 . S
C3238 C3230 1.574 . S
C3238 H3233 0.949 . S
C3238 C3244 1.368 . S
C3239 C3223 1.349 . S
C3239 H3231 0.950 . S
C3239 C3237 1.327 . S
C3240 C3228 1.349 . S
C3240 H3234 0.950 . S
C3240 C3241 1.327 . S
C3241 H3235 0.950 . S
C3241 C3240 1.327 . S
C3241 C3245 1.429 . S
C3242 C3225 1.574 . S
C3242 H3236 0.949 . S
C3242 C3246 1.368 . S
C3243 C3224 1.429 . S
C3243 C3237 1.429 . S
C3243 C3244 1.523 . S
C3244 C3225 1.368 . S
C3244 C3238 1.368 . S
C3244 C3243 1.523 . S
C3245 C3229 1.429 . S
C3245 C3241 1.429 . S
C3245 C3246 1.523 . S
C3246 C3230 1.368 . S
C3246 C3242 1.368 . S
C3246 C3245 1.523 . S
H3247 C3222 0.950 . S
H3248 C3224 0.950 . S
H3249 C3225 0.949 . S
H3250 C3227 0.950 . S
H3251 C3229 0.950 . S
C3252 C3253 1.349 . S
C3252 C3254 1.327 . S
C3252 H3277 0.950 . S
C3253 C3252 1.349 . S
C3253 C3269 1.349 . S
C3254 C3252 1.327 . S
C3254 C3273 1.429 . S
C3254 H3278 0.950 . S
C3255 C3272 1.574 . S
C3255 C3274 1.368 . S
C3255 H3279 0.949 . S
H3256 C3260 0.949 . S
C3257 C3258 1.349 . S
C3257 C3259 1.327 . S
C3257 H3280 0.950 . S
C3258 C3257 1.349 . S
C3258 C3270 1.349 . S
C3259 C3257 1.327 . S
C3259 C3275 1.429 . S
C3259 H3281 0.950 . S
C3260 H3256 0.949 . S
C3260 C3268 1.574 . S
C3260 C3276 1.368 . S
H3261 C3269 0.950 . S
H3262 C3267 0.950 . S
H3263 C3268 0.949 . S
H3264 C3270 0.950 . S
H3265 C3271 0.950 . S
H3266 C3272 0.949 . S
C3267 H3262 0.950 . S
C3267 C3269 1.327 . S
C3267 C3273 1.429 . S
C3268 C3260 1.574 . S
C3268 H3263 0.949 . S
C3268 C3274 1.368 . S
C3269 C3253 1.349 . S
C3269 H3261 0.950 . S
C3269 C3267 1.327 . S
C3270 C3258 1.349 . S
C3270 H3264 0.950 . S
C3270 C3271 1.327 . S
C3271 H3265 0.950 . S
C3271 C3270 1.327 . S
C3271 C3275 1.429 . S
C3272 C3255 1.574 . S
C3272 H3266 0.949 . S
C3272 C3276 1.368 . S
C3273 C3254 1.429 . S
C3273 C3267 1.429 . S
C3273 C3274 1.523 . S
C3274 C3255 1.368 . S
C3274 C3268 1.368 . S
C3274 C3273 1.523 . S
C3275 C3259 1.429 . S
C3275 C3271 1.429 . S
C3275 C3276 1.523 . S
C3276 C3260 1.368 . S
C3276 C3272 1.368 . S
C3276 C3275 1.523 . S
H3277 C3252 0.950 . S
H3278 C3254 0.950 . S
H3279 C3255 0.949 . S
H3280 C3257 0.950 . S
H3281 C3259 0.950 . S
C3282 C3283 1.349 . S
C3282 C3284 1.327 . S
C3282 H3307 0.950 . S
C3283 C3282 1.349 . S
C3283 C3299 1.349 . S
C3284 C3282 1.327 . S
C3284 C3303 1.429 . S
C3284 H3308 0.950 . S
C3285 C3302 1.574 . S
C3285 C3304 1.368 . S
C3285 H3309 0.949 . S
H3286 C3290 0.949 . S
C3287 C3288 1.349 . S
C3287 C3289 1.327 . S
C3287 H3310 0.950 . S
C3288 C3287 1.349 . S
C3288 C3300 1.349 . S
C3289 C3287 1.327 . S
C3289 C3305 1.429 . S
C3289 H3311 0.950 . S
C3290 H3286 0.949 . S
C3290 C3298 1.574 . S
C3290 C3306 1.368 . S
H3291 C3299 0.950 . S
H3292 C3297 0.950 . S
H3293 C3298 0.949 . S
H3294 C3300 0.950 . S
H3295 C3301 0.950 . S
H3296 C3302 0.949 . S
C3297 H3292 0.950 . S
C3297 C3299 1.327 . S
C3297 C3303 1.429 . S
C3298 C3290 1.574 . S
C3298 H3293 0.949 . S
C3298 C3304 1.368 . S
C3299 C3283 1.349 . S
C3299 H3291 0.950 . S
C3299 C3297 1.327 . S
C3300 C3288 1.349 . S
C3300 H3294 0.950 . S
C3300 C3301 1.327 . S
C3301 H3295 0.950 . S
C3301 C3300 1.327 . S
C3301 C3305 1.429 . S
C3302 C3285 1.574 . S
C3302 H3296 0.949 . S
C3302 C3306 1.368 . S
C3303 C3284 1.429 . S
C3303 C3297 1.429 . S
C3303 C3304 1.523 . S
C3304 C3285 1.368 . S
C3304 C3298 1.368 . S
C3304 C3303 1.523 . S
C3305 C3289 1.429 . S
C3305 C3301 1.429 . S
C3305 C3306 1.523 . S
C3306 C3290 1.368 . S
C3306 C3302 1.368 . S
C3306 C3305 1.523 . S
H3307 C3282 0.950 . S
H3308 C3284 0.950 . S
H3309 C3285 0.949 . S
H3310 C3287 0.950 . S
H3311 C3289 0.950 . S
C3312 C3313 1.349 . S
C3312 C3314 1.327 . S
C3312 H3337 0.950 . S
C3313 C3312 1.349 . S
C3313 C3329 1.349 . S
C3314 C3312 1.327 . S
C3314 C3333 1.429 . S
C3314 H3338 0.950 . S
C3315 C3332 1.574 . S
C3315 C3334 1.368 . S
C3315 H3339 0.949 . S
H3316 C3320 0.949 . S
C3317 C3318 1.349 . S
C3317 C3319 1.327 . S
C3317 H3340 0.950 . S
C3318 C3317 1.349 . S
C3318 C3330 1.349 . S
C3319 C3317 1.327 . S
C3319 C3335 1.429 . S
C3319 H3341 0.950 . S
C3320 H3316 0.949 . S
C3320 C3328 1.574 . S
C3320 C3336 1.368 . S
H3321 C3329 0.950 . S
H3322 C3327 0.950 . S
H3323 C3328 0.949 . S
H3324 C3330 0.950 . S
H3325 C3331 0.950 . S
H3326 C3332 0.949 . S
C3327 H3322 0.950 . S
C3327 C3329 1.327 . S
C3327 C3333 1.429 . S
C3328 C3320 1.574 . S
C3328 H3323 0.949 . S
C3328 C3334 1.368 . S
C3329 C3313 1.349 . S
C3329 H3321 0.950 . S
C3329 C3327 1.327 . S
C3330 C3318 1.349 . S
C3330 H3324 0.950 . S
C3330 C3331 1.327 . S
C3331 H3325 0.950 . S
C3331 C3330 1.327 . S
C3331 C3335 1.429 . S
C3332 C3315 1.574 . S
C3332 H3326 0.949 . S
C3332 C3336 1.368 . S
C3333 C3314 1.429 . S
C3333 C3327 1.429 . S
C3333 C3334 1.523 . S
C3334 C3315 1.368 . S
C3334 C3328 1.368 . S
C3334 C3333 1.523 . S
C3335 C3319 1.429 . S
C3335 C3331 1.429 . S
C3335 C3336 1.523 . S
C3336 C3320 1.368 . S
C3336 C3332 1.368 . S
C3336 C3335 1.523 . S
H3337 C3312 0.950 . S
H3338 C3314 0.950 . S
H3339 C3315 0.949 . S
H3340 C3317 0.950 . S
H3341 C3319 0.950 . S
C3342 C3343 1.349 . S
C3342 C3344 1.327 . S
C3342 H3367 0.950 . S
C3343 C3342 1.349 . S
C3343 C3359 1.349 . S
C3344 C3342 1.327 . S
C3344 C3363 1.429 . S
C3344 H3368 0.950 . S
C3345 C3362 1.574 . S
C3345 C3364 1.368 . S
C3345 H3369 0.949 . S
H3346 C3350 0.949 . S
C3347 C3348 1.349 . S
C3347 C3349 1.327 . S
C3347 H3370 0.950 . S
C3348 C3347 1.349 . S
C3348 C3360 1.349 . S
C3349 C3347 1.327 . S
C3349 C3365 1.429 . S
C3349 H3371 0.950 . S
C3350 H3346 0.949 . S
C3350 C3358 1.574 . S
C3350 C3366 1.368 . S
H3351 C3359 0.950 . S
H3352 C3357 0.950 . S
H3353 C3358 0.949 . S
H3354 C3360 0.950 . S
H3355 C3361 0.950 . S
H3356 C3362 0.949 . S
C3357 H3352 0.950 . S
C3357 C3359 1.327 . S
C3357 C3363 1.429 . S
C3358 C3350 1.574 . S
C3358 H3353 0.949 . S
C3358 C3364 1.368 . S
C3359 C3343 1.349 . S
C3359 H3351 0.950 . S
C3359 C3357 1.327 . S
C3360 C3348 1.349 . S
C3360 H3354 0.950 . S
C3360 C3361 1.327 . S
C3361 H3355 0.950 . S
C3361 C3360 1.327 . S
C3361 C3365 1.429 . S
C3362 C3345 1.574 . S
C3362 H3356 0.949 . S
C3362 C3366 1.368 . S
C3363 C3344 1.429 . S
C3363 C3357 1.429 . S
C3363 C3364 1.523 . S
C3364 C3345 1.368 . S
C3364 C3358 1.368 . S
C3364 C3363 1.523 . S
C3365 C3349 1.429 . S
C3365 C3361 1.429 . S
C3365 C3366 1.523 . S
C3366 C3350 1.368 . S
C3366 C3362 1.368 . S
C3366 C3365 1.523 . S
H3367 C3342 0.950 . S
H3368 C3344 0.950 . S
H3369 C3345 0.949 . S
H3370 C3347 0.950 . S
H3371 C3349 0.950 . S
C3372 C3373 1.349 . S
C3372 C3374 1.327 . S
C3372 H3397 0.950 . S
C3373 C3372 1.349 . S
C3373 C3389 1.349 . S
C3374 C3372 1.327 . S
C3374 C3393 1.429 . S
C3374 H3398 0.950 . S
C3375 C3392 1.574 . S
C3375 C3394 1.368 . S
C3375 H3399 0.949 . S
H3376 C3380 0.949 . S
C3377 C3378 1.349 . S
C3377 C3379 1.327 . S
C3377 H3400 0.950 . S
C3378 C3377 1.349 . S
C3378 C3390 1.349 . S
C3379 C3377 1.327 . S
C3379 C3395 1.429 . S
C3379 H3401 0.950 . S
C3380 H3376 0.949 . S
C3380 C3388 1.574 . S
C3380 C3396 1.368 . S
H3381 C3389 0.950 . S
H3382 C3387 0.950 . S
H3383 C3388 0.949 . S
H3384 C3390 0.950 . S
H3385 C3391 0.950 . S
H3386 C3392 0.949 . S
C3387 H3382 0.950 . S
C3387 C3389 1.327 . S
C3387 C3393 1.429 . S
C3388 C3380 1.574 . S
C3388 H3383 0.949 . S
C3388 C3394 1.368 . S
C3389 C3373 1.349 . S
C3389 H3381 0.950 . S
C3389 C3387 1.327 . S
C3390 C3378 1.349 . S
C3390 H3384 0.950 . S
C3390 C3391 1.327 . S
C3391 H3385 0.950 . S
C3391 C3390 1.327 . S
C3391 C3395 1.429 . S
C3392 C3375 1.574 . S
C3392 H3386 0.949 . S
C3392 C3396 1.368 . S
C3393 C3374 1.429 . S
C3393 C3387 1.429 . S
C3393 C3394 1.523 . S
C3394 C3375 1.368 . S
C3394 C3388 1.368 . S
C3394 C3393 1.523 . S
C3395 C3379 1.429 . S
C3395 C3391 1.429 . S
C3395 C3396 1.523 . S
C3396 C3380 1.368 . S
C3396 C3392 1.368 . S
C3396 C3395 1.523 . S
H3397 C3372 0.950 . S
H3398 C3374 0.950 . S
H3399 C3375 0.949 . S
H3400 C3377 0.950 . S
H3401 C3379 0.950 . S
C3402 C3403 1.349 . S
C3402 C3404 1.327 . S
C3402 H3427 0.950 . S
C3403 C3402 1.349 . S
C3403 C3419 1.349 . S
C3404 C3402 1.327 . S
C3404 C3423 1.429 . S
C3404 H3428 0.950 . S
C3405 C3422 1.574 . S
C3405 C3424 1.368 . S
C3405 H3429 0.949 . S
H3406 C3410 0.949 . S
C3407 C3408 1.349 . S
C3407 C3409 1.327 . S
C3407 H3430 0.950 . S
C3408 C3407 1.349 . S
C3408 C3420 1.349 . S
C3409 C3407 1.327 . S
C3409 C3425 1.429 . S
C3409 H3431 0.950 . S
C3410 H3406 0.949 . S
C3410 C3418 1.574 . S
C3410 C3426 1.368 . S
H3411 C3419 0.950 . S
H3412 C3417 0.950 . S
H3413 C3418 0.949 . S
H3414 C3420 0.950 . S
H3415 C3421 0.950 . S
H3416 C3422 0.949 . S
C3417 H3412 0.950 . S
C3417 C3419 1.327 . S
C3417 C3423 1.429 . S
C3418 C3410 1.574 . S
C3418 H3413 0.949 . S
C3418 C3424 1.368 . S
C3419 C3403 1.349 . S
C3419 H3411 0.950 . S
C3419 C3417 1.327 . S
C3420 C3408 1.349 . S
C3420 H3414 0.950 . S
C3420 C3421 1.327 . S
C3421 H3415 0.950 . S
C3421 C3420 1.327 . S
C3421 C3425 1.429 . S
C3422 C3405 1.574 . S
C3422 H3416 0.949 . S
C3422 C3426 1.368 . S
C3423 C3404 1.429 . S
C3423 C3417 1.429 . S
C3423 C3424 1.523 . S
C3424 C3405 1.368 . S
C3424 C3418 1.368 . S
C3424 C3423 1.523 . S
C3425 C3409 1.429 . S
C3425 C3421 1.429 . S
C3425 C3426 1.523 . S
C3426 C3410 1.368 . S
C3426 C3422 1.368 . S
C3426 C3425 1.523 . S
H3427 C3402 0.950 . S
H3428 C3404 0.950 . S
H3429 C3405 0.949 . S
H3430 C3407 0.950 . S
H3431 C3409 0.950 . S
C3432 C3433 1.349 . S
C3432 C3434 1.327 . S
C3432 H3457 0.950 . S
C3433 C3432 1.349 . S
C3433 C3449 1.349 . S
C3434 C3432 1.327 . S
C3434 C3453 1.429 . S
C3434 H3458 0.950 . S
C3435 C3452 1.574 . S
C3435 C3454 1.368 . S
C3435 H3459 0.949 . S
H3436 C3440 0.949 . S
C3437 C3438 1.349 . S
C3437 C3439 1.327 . S
C3437 H3460 0.950 . S
C3438 C3437 1.349 . S
C3438 C3450 1.349 . S
C3439 C3437 1.327 . S
C3439 C3455 1.429 . S
C3439 H3461 0.950 . S
C3440 H3436 0.949 . S
C3440 C3448 1.574 . S
C3440 C3456 1.368 . S
H3441 C3449 0.950 . S
H3442 C3447 0.950 . S
H3443 C3448 0.949 . S
H3444 C3450 0.950 . S
H3445 C3451 0.950 . S
H3446 C3452 0.949 . S
C3447 H3442 0.950 . S
C3447 C3449 1.327 . S
C3447 C3453 1.429 . S
C3448 C3440 1.574 . S
C3448 H3443 0.949 . S
C3448 C3454 1.368 . S
C3449 C3433 1.349 . S
C3449 H3441 0.950 . S
C3449 C3447 1.327 . S
C3450 C3438 1.349 . S
C3450 H3444 0.950 . S
C3450 C3451 1.327 . S
C3451 H3445 0.950 . S
C3451 C3450 1.327 . S
C3451 C3455 1.429 . S
C3452 C3435 1.574 . S
C3452 H3446 0.949 . S
C3452 C3456 1.368 . S
C3453 C3434 1.429 . S
C3453 C3447 1.429 . S
C3453 C3454 1.523 . S
C3454 C3435 1.368 . S
C3454 C3448 1.368 . S
C3454 C3453 1.523 . S
C3455 C3439 1.429 . S
C3455 C3451 1.429 . S
C3455 C3456 1.523 . S
C3456 C3440 1.368 . S
C3456 C3452 1.368 . S
C3456 C3455 1.523 . S
H3457 C3432 0.950 . S
H3458 C3434 0.950 . S
H3459 C3435 0.949 . S
H3460 C3437 0.950 . S
H3461 C3439 0.950 . S
C3462 C3463 1.349 . S
C3462 C3464 1.327 . S
C3462 H3487 0.950 . S
C3463 C3462 1.349 . S
C3463 C3479 1.349 . S
C3464 C3462 1.327 . S
C3464 C3483 1.429 . S
C3464 H3488 0.950 . S
C3465 C3482 1.574 . S
C3465 C3484 1.368 . S
C3465 H3489 0.949 . S
H3466 C3470 0.949 . S
C3467 C3468 1.349 . S
C3467 C3469 1.327 . S
C3467 H3490 0.950 . S
C3468 C3467 1.349 . S
C3468 C3480 1.349 . S
C3469 C3467 1.327 . S
C3469 C3485 1.429 . S
C3469 H3491 0.950 . S
C3470 H3466 0.949 . S
C3470 C3478 1.574 . S
C3470 C3486 1.368 . S
H3471 C3479 0.950 . S
H3472 C3477 0.950 . S
H3473 C3478 0.949 . S
H3474 C3480 0.950 . S
H3475 C3481 0.950 . S
H3476 C3482 0.949 . S
C3477 H3472 0.950 . S
C3477 C3479 1.327 . S
C3477 C3483 1.429 . S
C3478 C3470 1.574 . S
C3478 H3473 0.949 . S
C3478 C3484 1.368 . S
C3479 C3463 1.349 . S
C3479 H3471 0.950 . S
C3479 C3477 1.327 . S
C3480 C3468 1.349 . S
C3480 H3474 0.950 . S
C3480 C3481 1.327 . S
C3481 H3475 0.950 . S
C3481 C3480 1.327 . S
C3481 C3485 1.429 . S
C3482 C3465 1.574 . S
C3482 H3476 0.949 . S
C3482 C3486 1.368 . S
C3483 C3464 1.429 . S
C3483 C3477 1.429 . S
C3483 C3484 1.523 . S
C3484 C3465 1.368 . S
C3484 C3478 1.368 . S
C3484 C3483 1.523 . S
C3485 C3469 1.429 . S
C3485 C3481 1.429 . S
C3485 C3486 1.523 . S
C3486 C3470 1.368 . S
C3486 C3482 1.368 . S
C3486 C3485 1.523 . S
H3487 C3462 0.950 . S
H3488 C3464 0.950 . S
H3489 C3465 0.949 . S
H3490 C3467 0.950 . S
H3491 C3469 0.950 . S
C3492 C3493 1.349 . S
C3492 C3494 1.327 . S
C3492 H3517 0.950 . S
C3493 C3492 1.349 . S
C3493 C3509 1.349 . S
C3494 C3492 1.327 . S
C3494 C3513 1.429 . S
C3494 H3518 0.950 . S
C3495 C3512 1.574 . S
C3495 C3514 1.368 . S
C3495 H3519 0.949 . S
H3496 C3500 0.949 . S
C3497 C3498 1.349 . S
C3497 C3499 1.327 . S
C3497 H3520 0.950 . S
C3498 C3497 1.349 . S
C3498 C3510 1.349 . S
C3499 C3497 1.327 . S
C3499 C3515 1.429 . S
C3499 H3521 0.950 . S
C3500 H3496 0.949 . S
C3500 C3508 1.574 . S
C3500 C3516 1.368 . S
H3501 C3509 0.950 . S
H3502 C3507 0.950 . S
H3503 C3508 0.949 . S
H3504 C3510 0.950 . S
H3505 C3511 0.950 . S
H3506 C3512 0.949 . S
C3507 H3502 0.950 . S
C3507 C3509 1.327 . S
C3507 C3513 1.429 . S
C3508 C3500 1.574 . S
C3508 H3503 0.949 . S
C3508 C3514 1.368 . S
C3509 C3493 1.349 . S
C3509 H3501 0.950 . S
C3509 C3507 1.327 . S
C3510 C3498 1.349 . S
C3510 H3504 0.950 . S
C3510 C3511 1.327 . S
C3511 H3505 0.950 . S
C3511 C3510 1.327 . S
C3511 C3515 1.429 . S
C3512 C3495 1.574 . S
C3512 H3506 0.949 . S
C3512 C3516 1.368 . S
C3513 C3494 1.429 . S
C3513 C3507 1.429 . S
C3513 C3514 1.523 . S
C3514 C3495 1.368 . S
C3514 C3508 1.368 . S
C3514 C3513 1.523 . S
C3515 C3499 1.429 . S
C3515 C3511 1.429 . S
C3515 C3516 1.523 . S
C3516 C3500 1.368 . S
C3516 C3512 1.368 . S
C3516 C3515 1.523 . S
H3517 C3492 0.950 . S
H3518 C3494 0.950 . S
H3519 C3495 0.949 . S
H3520 C3497 0.950 . S
H3521 C3499 0.950 . S
C3522 C3523 1.349 . S
C3522 C3524 1.327 . S
C3522 H3547 0.950 . S
C3523 C3522 1.349 . S
C3523 C3539 1.349 . S
C3524 C3522 1.327 . S
C3524 C3543 1.429 . S
C3524 H3548 0.950 . S
C3525 C3542 1.574 . S
C3525 C3544 1.368 . S
C3525 H3549 0.949 . S
H3526 C3530 0.949 . S
C3527 C3528 1.349 . S
C3527 C3529 1.327 . S
C3527 H3550 0.950 . S
C3528 C3527 1.349 . S
C3528 C3540 1.349 . S
C3529 C3527 1.327 . S
C3529 C3545 1.429 . S
C3529 H3551 0.950 . S
C3530 H3526 0.949 . S
C3530 C3538 1.574 . S
C3530 C3546 1.368 . S
H3531 C3539 0.950 . S
H3532 C3537 0.950 . S
H3533 C3538 0.949 . S
H3534 C3540 0.950 . S
H3535 C3541 0.950 . S
H3536 C3542 0.949 . S
C3537 H3532 0.950 . S
C3537 C3539 1.327 . S
C3537 C3543 1.429 . S
C3538 C3530 1.574 . S
C3538 H3533 0.949 . S
C3538 C3544 1.368 . S
C3539 C3523 1.349 . S
C3539 H3531 0.950 . S
C3539 C3537 1.327 . S
C3540 C3528 1.349 . S
C3540 H3534 0.950 . S
C3540 C3541 1.327 . S
C3541 H3535 0.950 . S
C3541 C3540 1.327 . S
C3541 C3545 1.429 . S
C3542 C3525 1.574 . S
C3542 H3536 0.949 . S
C3542 C3546 1.368 . S
C3543 C3524 1.429 . S
C3543 C3537 1.429 . S
C3543 C3544 1.523 . S
C3544 C3525 1.368 . S
C3544 C3538 1.368 . S
C3544 C3543 1.523 . S
C3545 C3529 1.429 . S
C3545 C3541 1.429 . S
C3545 C3546 1.523 . S
C3546 C3530 1.368 . S
C3546 C3542 1.368 . S
C3546 C3545 1.523 . S
H3547 C3522 0.950 . S
H3548 C3524 0.950 . S
H3549 C3525 0.949 . S
H3550 C3527 0.950 . S
H3551 C3529 0.950 . S
C3552 C3553 1.349 . S
C3552 C3554 1.327 . S
C3552 H3577 0.950 . S
C3553 C3552 1.349 . S
C3553 C3569 1.349 . S
C3554 C3552 1.327 . S
C3554 C3573 1.429 . S
C3554 H3578 0.950 . S
C3555 C3572 1.574 . S
C3555 C3574 1.368 . S
C3555 H3579 0.949 . S
H3556 C3560 0.949 . S
C3557 C3558 1.349 . S
C3557 C3559 1.327 . S
C3557 H3580 0.950 . S
C3558 C3557 1.349 . S
C3558 C3570 1.349 . S
C3559 C3557 1.327 . S
C3559 C3575 1.429 . S
C3559 H3581 0.950 . S
C3560 H3556 0.949 . S
C3560 C3568 1.574 . S
C3560 C3576 1.368 . S
H3561 C3569 0.950 . S
H3562 C3567 0.950 . S
H3563 C3568 0.949 . S
H3564 C3570 0.950 . S
H3565 C3571 0.950 . S
H3566 C3572 0.949 . S
C3567 H3562 0.950 . S
C3567 C3569 1.327 . S
C3567 C3573 1.429 . S
C3568 C3560 1.574 . S
C3568 H3563 0.949 . S
C3568 C3574 1.368 . S
C3569 C3553 1.349 . S
C3569 H3561 0.950 . S
C3569 C3567 1.327 . S
C3570 C3558 1.349 . S
C3570 H3564 0.950 . S
C3570 C3571 1.327 . S
C3571 H3565 0.950 . S
C3571 C3570 1.327 . S
C3571 C3575 1.429 . S
C3572 C3555 1.574 . S
C3572 H3566 0.949 . S
C3572 C3576 1.368 . S
C3573 C3554 1.429 . S
C3573 C3567 1.429 . S
C3573 C3574 1.523 . S
C3574 C3555 1.368 . S
C3574 C3568 1.368 . S
C3574 C3573 1.523 . S
C3575 C3559 1.429 . S
C3575 C3571 1.429 . S
C3575 C3576 1.523 . S
C3576 C3560 1.368 . S
C3576 C3572 1.368 . S
C3576 C3575 1.523 . S
H3577 C3552 0.950 . S
H3578 C3554 0.950 . S
H3579 C3555 0.949 . S
H3580 C3557 0.950 . S
H3581 C3559 0.950 . S
C3582 C3583 1.349 . S
C3582 C3584 1.327 . S
C3582 H3607 0.950 . S
C3583 C3582 1.349 . S
C3583 C3599 1.349 . S
C3584 C3582 1.327 . S
C3584 C3603 1.429 . S
C3584 H3608 0.950 . S
C3585 C3602 1.574 . S
C3585 C3604 1.368 . S
C3585 H3609 0.949 . S
H3586 C3590 0.949 . S
C3587 C3588 1.349 . S
C3587 C3589 1.327 . S
C3587 H3610 0.950 . S
C3588 C3587 1.349 . S
C3588 C3600 1.349 . S
C3589 C3587 1.327 . S
C3589 C3605 1.429 . S
C3589 H3611 0.950 . S
C3590 H3586 0.949 . S
C3590 C3598 1.574 . S
C3590 C3606 1.368 . S
H3591 C3599 0.950 . S
H3592 C3597 0.950 . S
H3593 C3598 0.949 . S
H3594 C3600 0.950 . S
H3595 C3601 0.950 . S
H3596 C3602 0.949 . S
C3597 H3592 0.950 . S
C3597 C3599 1.327 . S
C3597 C3603 1.429 . S
C3598 C3590 1.574 . S
C3598 H3593 0.949 . S
C3598 C3604 1.368 . S
C3599 C3583 1.349 . S
C3599 H3591 0.950 . S
C3599 C3597 1.327 . S
C3600 C3588 1.349 . S
C3600 H3594 0.950 . S
C3600 C3601 1.327 . S
C3601 H3595 0.950 . S
C3601 C3600 1.327 . S
C3601 C3605 1.429 . S
C3602 C3585 1.574 . S
C3602 H3596 0.949 . S
C3602 C3606 1.368 . S
C3603 C3584 1.429 . S
C3603 C3597 1.429 . S
C3603 C3604 1.523 . S
C3604 C3585 1.368 . S
C3604 C3598 1.368 . S
C3604 C3603 1.523 . S
C3605 C3589 1.429 . S
C3605 C3601 1.429 . S
C3605 C3606 1.523 . S
C3606 C3590 1.368 . S
C3606 C3602 1.368 . S
C3606 C3605 1.523 . S
H3607 C3582 0.950 . S
H3608 C3584 0.950 . S
H3609 C3585 0.949 . S
H3610 C3587 0.950 . S
H3611 C3589 0.950 . S
C3612 C3613 1.349 . S
C3612 C3614 1.327 . S
C3612 H3637 0.950 . S
C3613 C3612 1.349 . S
C3613 C3629 1.349 . S
C3614 C3612 1.327 . S
C3614 C3633 1.429 . S
C3614 H3638 0.950 . S
C3615 C3632 1.574 . S
C3615 C3634 1.368 . S
C3615 H3639 0.949 . S
H3616 C3620 0.949 . S
C3617 C3618 1.349 . S
C3617 C3619 1.327 . S
C3617 H3640 0.950 . S
C3618 C3617 1.349 . S
C3618 C3630 1.349 . S
C3619 C3617 1.327 . S
C3619 C3635 1.429 . S
C3619 H3641 0.950 . S
C3620 H3616 0.949 . S
C3620 C3628 1.574 . S
C3620 C3636 1.368 . S
H3621 C3629 0.950 . S
H3622 C3627 0.950 . S
H3623 C3628 0.949 . S
H3624 C3630 0.950 . S
H3625 C3631 0.950 . S
H3626 C3632 0.949 . S
C3627 H3622 0.950 . S
C3627 C3629 1.327 . S
C3627 C3633 1.429 . S
C3628 C3620 1.574 . S
C3628 H3623 0.949 . S
C3628 C3634 1.368 . S
C3629 C3613 1.349 . S
C3629 H3621 0.950 . S
C3629 C3627 1.327 . S
C3630 C3618 1.349 . S
C3630 H3624 0.950 . S
C3630 C3631 1.327 . S
C3631 H3625 0.950 . S
C3631 C3630 1.327 . S
C3631 C3635 1.429 . S
C3632 C3615 1.574 . S
C3632 H3626 0.949 . S
C3632 C3636 1.368 . S
C3633 C3614 1.429 . S
C3633 C3627 1.429 . S
C3633 C3634 1.523 . S
C3634 C3615 1.368 . S
C3634 C3628 1.368 . S
C3634 C3633 1.523 . S
C3635 C3619 1.429 . S
C3635 C3631 1.429 . S
C3635 C3636 1.523 . S
C3636 C3620 1.368 . S
C3636 C3632 1.368 . S
C3636 C3635 1.523 . S
H3637 C3612 0.950 . S
H3638 C3614 0.950 . S
H3639 C3615 0.949 . S
H3640 C3617 0.950 . S
H3641 C3619 0.950 . S
C3642 C3643 1.349 . S
C3642 C3644 1.327 . S
C3642 H3667 0.950 . S
C3643 C3642 1.349 . S
C3643 C3659 1.349 . S
C3644 C3642 1.327 . S
C3644 C3663 1.429 . S
C3644 H3668 0.950 . S
C3645 C3662 1.574 . S
C3645 C3664 1.368 . S
C3645 H3669 0.949 . S
H3646 C3650 0.949 . S
C3647 C3648 1.349 . S
C3647 C3649 1.327 . S
C3647 H3670 0.950 . S
C3648 C3647 1.349 . S
C3648 C3660 1.349 . S
C3649 C3647 1.327 . S
C3649 C3665 1.429 . S
C3649 H3671 0.950 . S
C3650 H3646 0.949 . S
C3650 C3658 1.574 . S
C3650 C3666 1.368 . S
H3651 C3659 0.950 . S
H3652 C3657 0.950 . S
H3653 C3658 0.949 . S
H3654 C3660 0.950 . S
H3655 C3661 0.950 . S
H3656 C3662 0.949 . S
C3657 H3652 0.950 . S
C3657 C3659 1.327 . S
C3657 C3663 1.429 . S
C3658 C3650 1.574 . S
C3658 H3653 0.949 . S
C3658 C3664 1.368 . S
C3659 C3643 1.349 . S
C3659 H3651 0.950 . S
C3659 C3657 1.327 . S
C3660 C3648 1.349 . S
C3660 H3654 0.950 . S
C3660 C3661 1.327 . S
C3661 H3655 0.950 . S
C3661 C3660 1.327 . S
C3661 C3665 1.429 . S
C3662 C3645 1.574 . S
C3662 H3656 0.949 . S
C3662 C3666 1.368 . S
C3663 C3644 1.429 . S
C3663 C3657 1.429 . S
C3663 C3664 1.523 . S
C3664 C3645 1.368 . S
C3664 C3658 1.368 . S
C3664 C3663 1.523 . S
C3665 C3649 1.429 . S
C3665 C3661 1.429 . S
C3665 C3666 1.523 . S
C3666 C3650 1.368 . S
C3666 C3662 1.368 . S
C3666 C3665 1.523 . S
H3667 C3642 0.950 . S
H3668 C3644 0.950 . S
H3669 C3645 0.949 . S
H3670 C3647 0.950 . S
H3671 C3649 0.950 . S
C3672 C3673 1.349 . S
C3672 C3674 1.327 . S
C3672 H3697 0.950 . S
C3673 C3672 1.349 . S
C3673 C3689 1.349 . S
C3674 C3672 1.327 . S
C3674 C3693 1.429 . S
C3674 H3698 0.950 . S
C3675 C3692 1.574 . S
C3675 C3694 1.368 . S
C3675 H3699 0.949 . S
H3676 C3680 0.949 . S
C3677 C3678 1.349 . S
C3677 C3679 1.327 . S
C3677 H3700 0.950 . S
C3678 C3677 1.349 . S
C3678 C3690 1.349 . S
C3679 C3677 1.327 . S
C3679 C3695 1.429 . S
C3679 H3701 0.950 . S
C3680 H3676 0.949 . S
C3680 C3688 1.574 . S
C3680 C3696 1.368 . S
H3681 C3689 0.950 . S
H3682 C3687 0.950 . S
H3683 C3688 0.949 . S
H3684 C3690 0.950 . S
H3685 C3691 0.950 . S
H3686 C3692 0.949 . S
C3687 H3682 0.950 . S
C3687 C3689 1.327 . S
C3687 C3693 1.429 . S
C3688 C3680 1.574 . S
C3688 H3683 0.949 . S
C3688 C3694 1.368 . S
C3689 C3673 1.349 . S
C3689 H3681 0.950 . S
C3689 C3687 1.327 . S
C3690 C3678 1.349 . S
C3690 H3684 0.950 . S
C3690 C3691 1.327 . S
C3691 H3685 0.950 . S
C3691 C3690 1.327 . S
C3691 C3695 1.429 . S
C3692 C3675 1.574 . S
C3692 H3686 0.949 . S
C3692 C3696 1.368 . S
C3693 C3674 1.429 . S
C3693 C3687 1.429 . S
C3693 C3694 1.523 . S
C3694 C3675 1.368 . S
C3694 C3688 1.368 . S
C3694 C3693 1.523 . S
C3695 C3679 1.429 . S
C3695 C3691 1.429 . S
C3695 C3696 1.523 . S
C3696 C3680 1.368 . S
C3696 C3692 1.368 . S
C3696 C3695 1.523 . S
H3697 C3672 0.950 . S
H3698 C3674 0.950 . S
H3699 C3675 0.949 . S
H3700 C3677 0.950 . S
H3701 C3679 0.950 . S
C3702 C3703 1.349 . S
C3702 C3704 1.327 . S
C3702 H3727 0.950 . S
C3703 C3702 1.349 . S
C3703 C3719 1.349 . S
C3704 C3702 1.327 . S
C3704 C3723 1.429 . S
C3704 H3728 0.950 . S
C3705 C3722 1.574 . S
C3705 C3724 1.368 . S
C3705 H3729 0.949 . S
H3706 C3710 0.949 . S
C3707 C3708 1.349 . S
C3707 C3709 1.327 . S
C3707 H3730 0.950 . S
C3708 C3707 1.349 . S
C3708 C3720 1.349 . S
C3709 C3707 1.327 . S
C3709 C3725 1.429 . S
C3709 H3731 0.950 . S
C3710 H3706 0.949 . S
C3710 C3718 1.574 . S
C3710 C3726 1.368 . S
H3711 C3719 0.950 . S
H3712 C3717 0.950 . S
H3713 C3718 0.949 . S
H3714 C3720 0.950 . S
H3715 C3721 0.950 . S
H3716 C3722 0.949 . S
C3717 H3712 0.950 . S
C3717 C3719 1.327 . S
C3717 C3723 1.429 . S
C3718 C3710 1.574 . S
C3718 H3713 0.949 . S
C3718 C3724 1.368 . S
C3719 C3703 1.349 . S
C3719 H3711 0.950 . S
C3719 C3717 1.327 . S
C3720 C3708 1.349 . S
C3720 H3714 0.950 . S
C3720 C3721 1.327 . S
C3721 H3715 0.950 . S
C3721 C3720 1.327 . S
C3721 C3725 1.429 . S
C3722 C3705 1.574 . S
C3722 H3716 0.949 . S
C3722 C3726 1.368 . S
C3723 C3704 1.429 . S
C3723 C3717 1.429 . S
C3723 C3724 1.523 . S
C3724 C3705 1.368 . S
C3724 C3718 1.368 . S
C3724 C3723 1.523 . S
C3725 C3709 1.429 . S
C3725 C3721 1.429 . S
C3725 C3726 1.523 . S
C3726 C3710 1.368 . S
C3726 C3722 1.368 . S
C3726 C3725 1.523 . S
H3727 C3702 0.950 . S
H3728 C3704 0.950 . S
H3729 C3705 0.949 . S
H3730 C3707 0.950 . S
H3731 C3709 0.950 . S
C3732 C3733 1.349 . S
C3732 C3734 1.327 . S
C3732 H3757 0.950 . S
C3733 C3732 1.349 . S
C3733 C3749 1.349 . S
C3734 C3732 1.327 . S
C3734 C3753 1.429 . S
C3734 H3758 0.950 . S
C3735 C3752 1.574 . S
C3735 C3754 1.368 . S
C3735 H3759 0.949 . S
H3736 C3740 0.949 . S
C3737 C3738 1.349 . S
C3737 C3739 1.327 . S
C3737 H3760 0.950 . S
C3738 C3737 1.349 . S
C3738 C3750 1.349 . S
C3739 C3737 1.327 . S
C3739 C3755 1.429 . S
C3739 H3761 0.950 . S
C3740 H3736 0.949 . S
C3740 C3748 1.574 . S
C3740 C3756 1.368 . S
H3741 C3749 0.950 . S
H3742 C3747 0.950 . S
H3743 C3748 0.949 . S
H3744 C3750 0.950 . S
H3745 C3751 0.950 . S
H3746 C3752 0.949 . S
C3747 H3742 0.950 . S
C3747 C3749 1.327 . S
C3747 C3753 1.429 . S
C3748 C3740 1.574 . S
C3748 H3743 0.949 . S
C3748 C3754 1.368 . S
C3749 C3733 1.349 . S
C3749 H3741 0.950 . S
C3749 C3747 1.327 . S
C3750 C3738 1.349 . S
C3750 H3744 0.950 . S
C3750 C3751 1.327 . S
C3751 H3745 0.950 . S
C3751 C3750 1.327 . S
C3751 C3755 1.429 . S
C3752 C3735 1.574 . S
C3752 H3746 0.949 . S
C3752 C3756 1.368 . S
C3753 C3734 1.429 . S
C3753 C3747 1.429 . S
C3753 C3754 1.523 . S
C3754 C3735 1.368 . S
C3754 C3748 1.368 . S
C3754 C3753 1.523 . S
C3755 C3739 1.429 . S
C3755 C3751 1.429 . S
C3755 C3756 1.523 . S
C3756 C3740 1.368 . S
C3756 C3752 1.368 . S
C3756 C3755 1.523 . S
H3757 C3732 0.950 . S
H3758 C3734 0.950 . S
H3759 C3735 0.949 . S
H3760 C3737 0.950 . S
H3761 C3739 0.950 . S
C3762 C3763 1.349 . S
C3762 C3764 1.327 . S
C3762 H3787 0.950 . S
C3763 C3762 1.349 . S
C3763 C3779 1.349 . S
C3764 C3762 1.327 . S
C3764 C3783 1.429 . S
C3764 H3788 0.950 . S
C3765 C3782 1.574 . S
C3765 C3784 1.368 . S
C3765 H3789 0.949 . S
H3766 C3770 0.949 . S
C3767 C3768 1.349 . S
C3767 C3769 1.327 . S
C3767 H3790 0.950 . S
C3768 C3767 1.349 . S
C3768 C3780 1.349 . S
C3769 C3767 1.327 . S
C3769 C3785 1.429 . S
C3769 H3791 0.950 . S
C3770 H3766 0.949 . S
C3770 C3778 1.574 . S
C3770 C3786 1.368 . S
H3771 C3779 0.950 . S
H3772 C3777 0.950 . S
H3773 C3778 0.949 . S
H3774 C3780 0.950 . S
H3775 C3781 0.950 . S
H3776 C3782 0.949 . S
C3777 H3772 0.950 . S
C3777 C3779 1.327 . S
C3777 C3783 1.429 . S
C3778 C3770 1.574 . S
C3778 H3773 0.949 . S
C3778 C3784 1.368 . S
C3779 C3763 1.349 . S
C3779 H3771 0.950 . S
C3779 C3777 1.327 . S
C3780 C3768 1.349 . S
C3780 H3774 0.950 . S
C3780 C3781 1.327 . S
C3781 H3775 0.950 . S
C3781 C3780 1.327 . S
C3781 C3785 1.429 . S
C3782 C3765 1.574 . S
C3782 H3776 0.949 . S
C3782 C3786 1.368 . S
C3783 C3764 1.429 . S
C3783 C3777 1.429 . S
C3783 C3784 1.523 . S
C3784 C3765 1.368 . S
C3784 C3778 1.368 . S
C3784 C3783 1.523 . S
C3785 C3769 1.429 . S
C3785 C3781 1.429 . S
C3785 C3786 1.523 . S
C3786 C3770 1.368 . S
C3786 C3782 1.368 . S
C3786 C3785 1.523 . S
H3787 C3762 0.950 . S
H3788 C3764 0.950 . S
H3789 C3765 0.949 . S
H3790 C3767 0.950 . S
H3791 C3769 0.950 . S
C3792 C3793 1.349 . S
C3792 C3794 1.327 . S
C3792 H3817 0.950 . S
C3793 C3792 1.349 . S
C3793 C3809 1.349 . S
C3794 C3792 1.327 . S
C3794 C3813 1.429 . S
C3794 H3818 0.950 . S
C3795 C3812 1.574 . S
C3795 C3814 1.368 . S
C3795 H3819 0.949 . S
H3796 C3800 0.949 . S
C3797 C3798 1.349 . S
C3797 C3799 1.327 . S
C3797 H3820 0.950 . S
C3798 C3797 1.349 . S
C3798 C3810 1.349 . S
C3799 C3797 1.327 . S
C3799 C3815 1.429 . S
C3799 H3821 0.950 . S
C3800 H3796 0.949 . S
C3800 C3808 1.574 . S
C3800 C3816 1.368 . S
H3801 C3809 0.950 . S
H3802 C3807 0.950 . S
H3803 C3808 0.949 . S
H3804 C3810 0.950 . S
H3805 C3811 0.950 . S
H3806 C3812 0.949 . S
C3807 H3802 0.950 . S
C3807 C3809 1.327 . S
C3807 C3813 1.429 . S
C3808 C3800 1.574 . S
C3808 H3803 0.949 . S
C3808 C3814 1.368 . S
C3809 C3793 1.349 . S
C3809 H3801 0.950 . S
C3809 C3807 1.327 . S
C3810 C3798 1.349 . S
C3810 H3804 0.950 . S
C3810 C3811 1.327 . S
C3811 H3805 0.950 . S
C3811 C3810 1.327 . S
C3811 C3815 1.429 . S
C3812 C3795 1.574 . S
C3812 H3806 0.949 . S
C3812 C3816 1.368 . S
C3813 C3794 1.429 . S
C3813 C3807 1.429 . S
C3813 C3814 1.523 . S
C3814 C3795 1.368 . S
C3814 C3808 1.368 . S
C3814 C3813 1.523 . S
C3815 C3799 1.429 . S
C3815 C3811 1.429 . S
C3815 C3816 1.523 . S
C3816 C3800 1.368 . S
C3816 C3812 1.368 . S
C3816 C3815 1.523 . S
H3817 C3792 0.950 . S
H3818 C3794 0.950 . S
H3819 C3795 0.949 . S
H3820 C3797 0.950 . S
H3821 C3799 0.950 . S
C3822 C3823 1.349 . S
C3822 C3824 1.327 . S
C3822 H3847 0.950 . S
C3823 C3822 1.349 . S
C3823 C3839 1.349 . S
C3824 C3822 1.327 . S
C3824 C3843 1.429 . S
C3824 H3848 0.950 . S
C3825 C3842 1.574 . S
C3825 C3844 1.368 . S
C3825 H3849 0.949 . S
H3826 C3830 0.949 . S
C3827 C3828 1.349 . S
C3827 C3829 1.327 . S
C3827 H3850 0.950 . S
C3828 C3827 1.349 . S
C3828 C3840 1.349 . S
C3829 C3827 1.327 . S
C3829 C3845 1.429 . S
C3829 H3851 0.950 . S
C3830 H3826 0.949 . S
C3830 C3838 1.574 . S
C3830 C3846 1.368 . S
H3831 C3839 0.950 . S
H3832 C3837 0.950 . S
H3833 C3838 0.949 . S
H3834 C3840 0.950 . S
H3835 C3841 0.950 . S
H3836 C3842 0.949 . S
C3837 H3832 0.950 . S
C3837 C3839 1.327 . S
C3837 C3843 1.429 . S
C3838 C3830 1.574 . S
C3838 H3833 0.949 . S
C3838 C3844 1.368 . S
C3839 C3823 1.349 . S
C3839 H3831 0.950 . S
C3839 C3837 1.327 . S
C3840 C3828 1.349 . S
C3840 H3834 0.950 . S
C3840 C3841 1.327 . S
C3841 H3835 0.950 . S
C3841 C3840 1.327 . S
C3841 C3845 1.429 . S
C3842 C3825 1.574 . S
C3842 H3836 0.949 . S
C3842 C3846 1.368 . S
C3843 C3824 1.429 . S
C3843 C3837 1.429 . S
C3843 C3844 1.523 . S
C3844 C3825 1.368 . S
C3844 C3838 1.368 . S
C3844 C3843 1.523 . S
C3845 C3829 1.429 . S
C3845 C3841 1.429 . S
C3845 C3846 1.523 . S
C3846 C3830 1.368 . S
C3846 C3842 1.368 . S
C3846 C3845 1.523 . S
H3847 C3822 0.950 . S
H3848 C3824 0.950 . S
H3849 C3825 0.949 . S
H3850 C3827 0.950 . S
H3851 C3829 0.950 . S
C3852 C3853 1.349 . S
C3852 C3854 1.327 . S
C3852 H3877 0.950 . S
C3853 C3852 1.349 . S
C3853 C3869 1.349 . S
C3854 C3852 1.327 . S
C3854 C3873 1.429 . S
C3854 H3878 0.950 . S
C3855 C3872 1.574 . S
C3855 C3874 1.368 . S
C3855 H3879 0.949 . S
H3856 C3860 0.949 . S
C3857 C3858 1.349 . S
C3857 C3859 1.327 . S
C3857 H3880 0.950 . S
C3858 C3857 1.349 . S
C3858 C3870 1.349 . S
C3859 C3857 1.327 . S
C3859 C3875 1.429 . S
C3859 H3881 0.950 . S
C3860 H3856 0.949 . S
C3860 C3868 1.574 . S
C3860 C3876 1.368 . S
H3861 C3869 0.950 . S
H3862 C3867 0.950 . S
H3863 C3868 0.949 . S
H3864 C3870 0.950 . S
H3865 C3871 0.950 . S
H3866 C3872 0.949 . S
C3867 H3862 0.950 . S
C3867 C3869 1.327 . S
C3867 C3873 1.429 . S
C3868 C3860 1.574 . S
C3868 H3863 0.949 . S
C3868 C3874 1.368 . S
C3869 C3853 1.349 . S
C3869 H3861 0.950 . S
C3869 C3867 1.327 . S
C3870 C3858 1.349 . S
C3870 H3864 0.950 . S
C3870 C3871 1.327 . S
C3871 H3865 0.950 . S
C3871 C3870 1.327 . S
C3871 C3875 1.429 . S
C3872 C3855 1.574 . S
C3872 H3866 0.949 . S
C3872 C3876 1.368 . S
C3873 C3854 1.429 . S
C3873 C3867 1.429 . S
C3873 C3874 1.523 . S
C3874 C3855 1.368 . S
C3874 C3868 1.368 . S
C3874 C3873 1.523 . S
C3875 C3859 1.429 . S
C3875 C3871 1.429 . S
C3875 C3876 1.523 . S
C3876 C3860 1.368 . S
C3876 C3872 1.368 . S
C3876 C3875 1.523 . S
H3877 C3852 0.950 . S
H3878 C3854 0.950 . S
H3879 C3855 0.949 . S
H3880 C3857 0.950 . S
H3881 C3859 0.950 . S
C3882 C3883 1.349 . S
C3882 C3884 1.327 . S
C3882 H3907 0.950 . S
C3883 C3882 1.349 . S
C3883 C3899 1.349 . S
C3884 C3882 1.327 . S
C3884 C3903 1.429 . S
C3884 H3908 0.950 . S
C3885 C3902 1.574 . S
C3885 C3904 1.368 . S
C3885 H3909 0.949 . S
H3886 C3890 0.949 . S
C3887 C3888 1.349 . S
C3887 C3889 1.327 . S
C3887 H3910 0.950 . S
C3888 C3887 1.349 . S
C3888 C3900 1.349 . S
C3889 C3887 1.327 . S
C3889 C3905 1.429 . S
C3889 H3911 0.950 . S
C3890 H3886 0.949 . S
C3890 C3898 1.574 . S
C3890 C3906 1.368 . S
H3891 C3899 0.950 . S
H3892 C3897 0.950 . S
H3893 C3898 0.949 . S
H3894 C3900 0.950 . S
H3895 C3901 0.950 . S
H3896 C3902 0.949 . S
C3897 H3892 0.950 . S
C3897 C3899 1.327 . S
C3897 C3903 1.429 . S
C3898 C3890 1.574 . S
C3898 H3893 0.949 . S
C3898 C3904 1.368 . S
C3899 C3883 1.349 . S
C3899 H3891 0.950 . S
C3899 C3897 1.327 . S
C3900 C3888 1.349 . S
C3900 H3894 0.950 . S
C3900 C3901 1.327 . S
C3901 H3895 0.950 . S
C3901 C3900 1.327 . S
C3901 C3905 1.429 . S
C3902 C3885 1.574 . S
C3902 H3896 0.949 . S
C3902 C3906 1.368 . S
C3903 C3884 1.429 . S
C3903 C3897 1.429 . S
C3903 C3904 1.523 . S
C3904 C3885 1.368 . S
C3904 C3898 1.368 . S
C3904 C3903 1.523 . S
C3905 C3889 1.429 . S
C3905 C3901 1.429 . S
C3905 C3906 1.523 . S
C3906 C3890 1.368 . S
C3906 C3902 1.368 . S
C3906 C3905 1.523 . S
H3907 C3882 0.950 . S
H3908 C3884 0.950 . S
H3909 C3885 0.949 . S
H3910 C3887 0.950 . S
H3911 C3889 0.950 . S
C3912 C3913 1.349 . S
C3912 C3914 1.327 . S
C3912 H3937 0.950 . S
C3913 C3912 1.349 . S
C3913 C3929 1.349 . S
C3914 C3912 1.327 . S
C3914 C3933 1.429 . S
C3914 H3938 0.950 . S
C3915 C3932 1.574 . S
C3915 C3934 1.368 . S
C3915 H3939 0.949 . S
H3916 C3920 0.949 . S
C3917 C3918 1.349 . S
C3917 C3919 1.327 . S
C3917 H3940 0.950 . S
C3918 C3917 1.349 . S
C3918 C3930 1.349 . S
C3919 C3917 1.327 . S
C3919 C3935 1.429 . S
C3919 H3941 0.950 . S
C3920 H3916 0.949 . S
C3920 C3928 1.574 . S
C3920 C3936 1.368 . S
H3921 C3929 0.950 . S
H3922 C3927 0.950 . S
H3923 C3928 0.949 . S
H3924 C3930 0.950 . S
H3925 C3931 0.950 . S
H3926 C3932 0.949 . S
C3927 H3922 0.950 . S
C3927 C3929 1.327 . S
C3927 C3933 1.429 . S
C3928 C3920 1.574 . S
C3928 H3923 0.949 . S
C3928 C3934 1.368 . S
C3929 C3913 1.349 . S
C3929 H3921 0.950 . S
C3929 C3927 1.327 . S
C3930 C3918 1.349 . S
C3930 H3924 0.950 . S
C3930 C3931 1.327 . S
C3931 H3925 0.950 . S
C3931 C3930 1.327 . S
C3931 C3935 1.429 . S
C3932 C3915 1.574 . S
C3932 H3926 0.949 . S
C3932 C3936 1.368 . S
C3933 C3914 1.429 . S
C3933 C3927 1.429 . S
C3933 C3934 1.523 . S
C3934 C3915 1.368 . S
C3934 C3928 1.368 . S
C3934 C3933 1.523 . S
C3935 C3919 1.429 . S
C3935 C3931 1.429 . S
C3935 C3936 1.523 . S
C3936 C3920 1.368 . S
C3936 C3932 1.368 . S
C3936 C3935 1.523 . S
H3937 C3912 0.950 . S
H3938 C3914 0.950 . S
H3939 C3915 0.949 . S
H3940 C3917 0.950 . S
H3941 C3919 0.950 . S
C3942 C3943 1.349 . S
C3942 C3944 1.327 . S
C3942 H3967 0.950 . S
C3943 C3942 1.349 . S
C3943 C3959 1.349 . S
C3944 C3942 1.327 . S
C3944 C3963 1.429 . S
C3944 H3968 0.950 . S
C3945 C3962 1.574 . S
C3945 C3964 1.368 . S
C3945 H3969 0.949 . S
H3946 C3950 0.949 . S
C3947 C3948 1.349 . S
C3947 C3949 1.327 . S
C3947 H3970 0.950 . S
C3948 C3947 1.349 . S
C3948 C3960 1.349 . S
C3949 C3947 1.327 . S
C3949 C3965 1.429 . S
C3949 H3971 0.950 . S
C3950 H3946 0.949 . S
C3950 C3958 1.574 . S
C3950 C3966 1.368 . S
H3951 C3959 0.950 . S
H3952 C3957 0.950 . S
H3953 C3958 0.949 . S
H3954 C3960 0.950 . S
H3955 C3961 0.950 . S
H3956 C3962 0.949 . S
C3957 H3952 0.950 . S
C3957 C3959 1.327 . S
C3957 C3963 1.429 . S
C3958 C3950 1.574 . S
C3958 H3953 0.949 . S
C3958 C3964 1.368 . S
C3959 C3943 1.349 . S
C3959 H3951 0.950 . S
C3959 C3957 1.327 . S
C3960 C3948 1.349 . S
C3960 H3954 0.950 . S
C3960 C3961 1.327 . S
C3961 H3955 0.950 . S
C3961 C3960 1.327 . S
C3961 C3965 1.429 . S
C3962 C3945 1.574 . S
C3962 H3956 0.949 . S
C3962 C3966 1.368 . S
C3963 C3944 1.429 . S
C3963 C3957 1.429 . S
C3963 C3964 1.523 . S
C3964 C3945 1.368 . S
C3964 C3958 1.368 . S
C3964 C3963 1.523 . S
C3965 C3949 1.429 . S
C3965 C3961 1.429 . S
C3965 C3966 1.523 . S
C3966 C3950 1.368 . S
C3966 C3962 1.368 . S
C3966 C3965 1.523 . S
H3967 C3942 0.950 . S
H3968 C3944 0.950 . S
H3969 C3945 0.949 . S
H3970 C3947 0.950 . S
H3971 C3949 0.950 . S
C3972 C3973 1.349 . S
C3972 C3974 1.327 . S
C3972 H3997 0.950 . S
C3973 C3972 1.349 . S
C3973 C3989 1.349 . S
C3974 C3972 1.327 . S
C3974 C3993 1.429 . S
C3974 H3998 0.950 . S
C3975 C3992 1.574 . S
C3975 C3994 1.368 . S
C3975 H3999 0.949 . S
H3976 C3980 0.949 . S
C3977 C3978 1.349 . S
C3977 C3979 1.327 . S
C3977 H4000 0.950 . S
C3978 C3977 1.349 . S
C3978 C3990 1.349 . S
C3979 C3977 1.327 . S
C3979 C3995 1.429 . S
C3979 H4001 0.950 . S
C3980 H3976 0.949 . S
C3980 C3988 1.574 . S
C3980 C3996 1.368 . S
H3981 C3989 0.950 . S
H3982 C3987 0.950 . S
H3983 C3988 0.949 . S
H3984 C3990 0.950 . S
H3985 C3991 0.950 . S
H3986 C3992 0.949 . S
C3987 H3982 0.950 . S
C3987 C3989 1.327 . S
C3987 C3993 1.429 . S
C3988 C3980 1.574 . S
C3988 H3983 0.949 . S
C3988 C3994 1.368 . S
C3989 C3973 1.349 . S
C3989 H3981 0.950 . S
C3989 C3987 1.327 . S
C3990 C3978 1.349 . S
C3990 H3984 0.950 . S
C3990 C3991 1.327 . S
C3991 H3985 0.950 . S
C3991 C3990 1.327 . S
C3991 C3995 1.429 . S
C3992 C3975 1.574 . S
C3992 H3986 0.949 . S
C3992 C3996 1.368 . S
C3993 C3974 1.429 . S
C3993 C3987 1.429 . S
C3993 C3994 1.523 . S
C3994 C3975 1.368 . S
C3994 C3988 1.368 . S
C3994 C3993 1.523 . S
C3995 C3979 1.429 . S
C3995 C3991 1.429 . S
C3995 C3996 1.523 . S
C3996 C3980 1.368 . S
C3996 C3992 1.368 . S
C3996 C3995 1.523 . S
H3997 C3972 0.950 . S
H3998 C3974 0.950 . S
H3999 C3975 0.949 . S
H4000 C3977 0.950 . S
H4001 C3979 0.950 . S
C4002 C4003 1.349 . S
C4002 C4004 1.327 . S
C4002 H4027 0.950 . S
C4003 C4002 1.349 . S
C4003 C4019 1.349 . S
C4004 C4002 1.327 . S
C4004 C4023 1.429 . S
C4004 H4028 0.950 . S
C4005 C4022 1.574 . S
C4005 C4024 1.368 . S
C4005 H4029 0.949 . S
H4006 C4010 0.949 . S
C4007 C4008 1.349 . S
C4007 C4009 1.327 . S
C4007 H4030 0.950 . S
C4008 C4007 1.349 . S
C4008 C4020 1.349 . S
C4009 C4007 1.327 . S
C4009 C4025 1.429 . S
C4009 H4031 0.950 . S
C4010 H4006 0.949 . S
C4010 C4018 1.574 . S
C4010 C4026 1.368 . S
H4011 C4019 0.950 . S
H4012 C4017 0.950 . S
H4013 C4018 0.949 . S
H4014 C4020 0.950 . S
H4015 C4021 0.950 . S
H4016 C4022 0.949 . S
C4017 H4012 0.950 . S
C4017 C4019 1.327 . S
C4017 C4023 1.429 . S
C4018 C4010 1.574 . S
C4018 H4013 0.949 . S
C4018 C4024 1.368 . S
C4019 C4003 1.349 . S
C4019 H4011 0.950 . S
C4019 C4017 1.327 . S
C4020 C4008 1.349 . S
C4020 H4014 0.950 . S
C4020 C4021 1.327 . S
C4021 H4015 0.950 . S
C4021 C4020 1.327 . S
C4021 C4025 1.429 . S
C4022 C4005 1.574 . S
C4022 H4016 0.949 . S
C4022 C4026 1.368 . S
C4023 C4004 1.429 . S
C4023 C4017 1.429 . S
C4023 C4024 1.523 . S
C4024 C4005 1.368 . S
C4024 C4018 1.368 . S
C4024 C4023 1.523 . S
C4025 C4009 1.429 . S
C4025 C4021 1.429 . S
C4025 C4026 1.523 . S
C4026 C4010 1.368 . S
C4026 C4022 1.368 . S
C4026 C4025 1.523 . S
H4027 C4002 0.950 . S
H4028 C4004 0.950 . S
H4029 C4005 0.949 . S
H4030 C4007 0.950 . S
H4031 C4009 0.950 . S
C4032 C4033 1.349 . S
C4032 C4034 1.327 . S
C4032 H4057 0.950 . S
C4033 C4032 1.349 . S
C4033 C4049 1.349 . S
C4034 C4032 1.327 . S
C4034 C4053 1.429 . S
C4034 H4058 0.950 . S
C4035 C4052 1.574 . S
C4035 C4054 1.368 . S
C4035 H4059 0.949 . S
H4036 C4040 0.949 . S
C4037 C4038 1.349 . S
C4037 C4039 1.327 . S
C4037 H4060 0.950 . S
C4038 C4037 1.349 . S
C4038 C4050 1.349 . S
C4039 C4037 1.327 . S
C4039 C4055 1.429 . S
C4039 H4061 0.950 . S
C4040 H4036 0.949 . S
C4040 C4048 1.574 . S
C4040 C4056 1.368 . S
H4041 C4049 0.950 . S
H4042 C4047 0.950 . S
H4043 C4048 0.949 . S
H4044 C4050 0.950 . S
H4045 C4051 0.950 . S
H4046 C4052 0.949 . S
C4047 H4042 0.950 . S
C4047 C4049 1.327 . S
C4047 C4053 1.429 . S
C4048 C4040 1.574 . S
C4048 H4043 0.949 . S
C4048 C4054 1.368 . S
C4049 C4033 1.349 . S
C4049 H4041 0.950 . S
C4049 C4047 1.327 . S
C4050 C4038 1.349 . S
C4050 H4044 0.950 . S
C4050 C4051 1.327 . S
C4051 H4045 0.950 . S
C4051 C4050 1.327 . S
C4051 C4055 1.429 . S
C4052 C4035 1.574 . S
C4052 H4046 0.949 . S
C4052 C4056 1.368 . S
C4053 C4034 1.429 . S
C4053 C4047 1.429 . S
C4053 C4054 1.523 . S
C4054 C4035 1.368 . S
C4054 C4048 1.368 . S
C4054 C4053 1.523 . S
C4055 C4039 1.429 . S
C4055 C4051 1.429 . S
C4055 C4056 1.523 . S
C4056 C4040 1.368 . S
C4056 C4052 1.368 . S
C4056 C4055 1.523 . S
H4057 C4032 0.950 . S
H4058 C4034 0.950 . S
H4059 C4035 0.949 . S
H4060 C4037 0.950 . S
H4061 C4039 0.950 . S
C4062 C4063 1.349 . S
C4062 C4064 1.327 . S
C4062 H4087 0.950 . S
C4063 C4062 1.349 . S
C4063 C4079 1.349 . S
C4064 C4062 1.327 . S
C4064 C4083 1.429 . S
C4064 H4088 0.950 . S
C4065 C4082 1.574 . S
C4065 C4084 1.368 . S
C4065 H4089 0.949 . S
H4066 C4070 0.949 . S
C4067 C4068 1.349 . S
C4067 C4069 1.327 . S
C4067 H4090 0.950 . S
C4068 C4067 1.349 . S
C4068 C4080 1.349 . S
C4069 C4067 1.327 . S
C4069 C4085 1.429 . S
C4069 H4091 0.950 . S
C4070 H4066 0.949 . S
C4070 C4078 1.574 . S
C4070 C4086 1.368 . S
H4071 C4079 0.950 . S
H4072 C4077 0.950 . S
H4073 C4078 0.949 . S
H4074 C4080 0.950 . S
H4075 C4081 0.950 . S
H4076 C4082 0.949 . S
C4077 H4072 0.950 . S
C4077 C4079 1.327 . S
C4077 C4083 1.429 . S
C4078 C4070 1.574 . S
C4078 H4073 0.949 . S
C4078 C4084 1.368 . S
C4079 C4063 1.349 . S
C4079 H4071 0.950 . S
C4079 C4077 1.327 . S
C4080 C4068 1.349 . S
C4080 H4074 0.950 . S
C4080 C4081 1.327 . S
C4081 H4075 0.950 . S
C4081 C4080 1.327 . S
C4081 C4085 1.429 . S
C4082 C4065 1.574 . S
C4082 H4076 0.949 . S
C4082 C4086 1.368 . S
C4083 C4064 1.429 . S
C4083 C4077 1.429 . S
C4083 C4084 1.523 . S
C4084 C4065 1.368 . S
C4084 C4078 1.368 . S
C4084 C4083 1.523 . S
C4085 C4069 1.429 . S
C4085 C4081 1.429 . S
C4085 C4086 1.523 . S
C4086 C4070 1.368 . S
C4086 C4082 1.368 . S
C4086 C4085 1.523 . S
H4087 C4062 0.950 . S
H4088 C4064 0.950 . S
H4089 C4065 0.949 . S
H4090 C4067 0.950 . S
H4091 C4069 0.950 . S
C4092 C4093 1.349 . S
C4092 C4094 1.327 . S
C4092 H4117 0.950 . S
C4093 C4092 1.349 . S
C4093 C4109 1.349 . S
C4094 C4092 1.327 . S
C4094 C4113 1.429 . S
C4094 H4118 0.950 . S
C4095 C4112 1.574 . S
C4095 C4114 1.368 . S
C4095 H4119 0.949 . S
H4096 C4100 0.949 . S
C4097 C4098 1.349 . S
C4097 C4099 1.327 . S
C4097 H4120 0.950 . S
C4098 C4097 1.349 . S
C4098 C4110 1.349 . S
C4099 C4097 1.327 . S
C4099 C4115 1.429 . S
C4099 H4121 0.950 . S
C4100 H4096 0.949 . S
C4100 C4108 1.574 . S
C4100 C4116 1.368 . S
H4101 C4109 0.950 . S
H4102 C4107 0.950 . S
H4103 C4108 0.949 . S
H4104 C4110 0.950 . S
H4105 C4111 0.950 . S
H4106 C4112 0.949 . S
C4107 H4102 0.950 . S
C4107 C4109 1.327 . S
C4107 C4113 1.429 . S
C4108 C4100 1.574 . S
C4108 H4103 0.949 . S
C4108 C4114 1.368 . S
C4109 C4093 1.349 . S
C4109 H4101 0.950 . S
C4109 C4107 1.327 . S
C4110 C4098 1.349 . S
C4110 H4104 0.950 . S
C4110 C4111 1.327 . S
C4111 H4105 0.950 . S
C4111 C4110 1.327 . S
C4111 C4115 1.429 . S
C4112 C4095 1.574 . S
C4112 H4106 0.949 . S
C4112 C4116 1.368 . S
C4113 C4094 1.429 . S
C4113 C4107 1.429 . S
C4113 C4114 1.523 . S
C4114 C4095 1.368 . S
C4114 C4108 1.368 . S
C4114 C4113 1.523 . S
C4115 C4099 1.429 . S
C4115 C4111 1.429 . S
C4115 C4116 1.523 . S
C4116 C4100 1.368 . S
C4116 C4112 1.368 . S
C4116 C4115 1.523 . S
H4117 C4092 0.950 . S
H4118 C4094 0.950 . S
H4119 C4095 0.949 . S
H4120 C4097 0.950 . S
H4121 C4099 0.950 . S
C4122 C4123 1.349 . S
C4122 C4124 1.327 . S
C4122 H4147 0.950 . S
C4123 C4122 1.349 . S
C4123 C4139 1.349 . S
C4124 C4122 1.327 . S
C4124 C4143 1.429 . S
C4124 H4148 0.950 . S
C4125 C4142 1.574 . S
C4125 C4144 1.368 . S
C4125 H4149 0.949 . S
H4126 C4130 0.949 . S
C4127 C4128 1.349 . S
C4127 C4129 1.327 . S
C4127 H4150 0.950 . S
C4128 C4127 1.349 . S
C4128 C4140 1.349 . S
C4129 C4127 1.327 . S
C4129 C4145 1.429 . S
C4129 H4151 0.950 . S
C4130 H4126 0.949 . S
C4130 C4138 1.574 . S
C4130 C4146 1.368 . S
H4131 C4139 0.950 . S
H4132 C4137 0.950 . S
H4133 C4138 0.949 . S
H4134 C4140 0.950 . S
H4135 C4141 0.950 . S
H4136 C4142 0.949 . S
C4137 H4132 0.950 . S
C4137 C4139 1.327 . S
C4137 C4143 1.429 . S
C4138 C4130 1.574 . S
C4138 H4133 0.949 . S
C4138 C4144 1.368 . S
C4139 C4123 1.349 . S
C4139 H4131 0.950 . S
C4139 C4137 1.327 . S
C4140 C4128 1.349 . S
C4140 H4134 0.950 . S
C4140 C4141 1.327 . S
C4141 H4135 0.950 . S
C4141 C4140 1.327 . S
C4141 C4145 1.429 . S
C4142 C4125 1.574 . S
C4142 H4136 0.949 . S
C4142 C4146 1.368 . S
C4143 C4124 1.429 . S
C4143 C4137 1.429 . S
C4143 C4144 1.523 . S
C4144 C4125 1.368 . S
C4144 C4138 1.368 . S
C4144 C4143 1.523 . S
C4145 C4129 1.429 . S
C4145 C4141 1.429 . S
C4145 C4146 1.523 . S
C4146 C4130 1.368 . S
C4146 C4142 1.368 . S
C4146 C4145 1.523 . S
H4147 C4122 0.950 . S
H4148 C4124 0.950 . S
H4149 C4125 0.949 . S
H4150 C4127 0.950 . S
H4151 C4129 0.950 . S
C4152 C4153 1.349 . S
C4152 C4154 1.327 . S
C4152 H4177 0.950 . S
C4153 C4152 1.349 . S
C4153 C4169 1.349 . S
C4154 C4152 1.327 . S
C4154 C4173 1.429 . S
C4154 H4178 0.950 . S
C4155 C4172 1.574 . S
C4155 C4174 1.368 . S
C4155 H4179 0.949 . S
H4156 C4160 0.949 . S
C4157 C4158 1.349 . S
C4157 C4159 1.327 . S
C4157 H4180 0.950 . S
C4158 C4157 1.349 . S
C4158 C4170 1.349 . S
C4159 C4157 1.327 . S
C4159 C4175 1.429 . S
C4159 H4181 0.950 . S
C4160 H4156 0.949 . S
C4160 C4168 1.574 . S
C4160 C4176 1.368 . S
H4161 C4169 0.950 . S
H4162 C4167 0.950 . S
H4163 C4168 0.949 . S
H4164 C4170 0.950 . S
H4165 C4171 0.950 . S
H4166 C4172 0.949 . S
C4167 H4162 0.950 . S
C4167 C4169 1.327 . S
C4167 C4173 1.429 . S
C4168 C4160 1.574 . S
C4168 H4163 0.949 . S
C4168 C4174 1.368 . S
C4169 C4153 1.349 . S
C4169 H4161 0.950 . S
C4169 C4167 1.327 . S
C4170 C4158 1.349 . S
C4170 H4164 0.950 . S
C4170 C4171 1.327 . S
C4171 H4165 0.950 . S
C4171 C4170 1.327 . S
C4171 C4175 1.429 . S
C4172 C4155 1.574 . S
C4172 H4166 0.949 . S
C4172 C4176 1.368 . S
C4173 C4154 1.429 . S
C4173 C4167 1.429 . S
C4173 C4174 1.523 . S
C4174 C4155 1.368 . S
C4174 C4168 1.368 . S
C4174 C4173 1.523 . S
C4175 C4159 1.429 . S
C4175 C4171 1.429 . S
C4175 C4176 1.523 . S
C4176 C4160 1.368 . S
C4176 C4172 1.368 . S
C4176 C4175 1.523 . S
H4177 C4152 0.950 . S
H4178 C4154 0.950 . S
H4179 C4155 0.949 . S
H4180 C4157 0.950 . S
H4181 C4159 0.950 . S
C4182 C4183 1.349 . S
C4182 C4184 1.327 . S
C4182 H4207 0.950 . S
C4183 C4182 1.349 . S
C4183 C4199 1.349 . S
C4184 C4182 1.327 . S
C4184 C4203 1.429 . S
C4184 H4208 0.950 . S
C4185 C4202 1.574 . S
C4185 C4204 1.368 . S
C4185 H4209 0.949 . S
H4186 C4190 0.949 . S
C4187 C4188 1.349 . S
C4187 C4189 1.327 . S
C4187 H4210 0.950 . S
C4188 C4187 1.349 . S
C4188 C4200 1.349 . S
C4189 C4187 1.327 . S
C4189 C4205 1.429 . S
C4189 H4211 0.950 . S
C4190 H4186 0.949 . S
C4190 C4198 1.574 . S
C4190 C4206 1.368 . S
H4191 C4199 0.950 . S
H4192 C4197 0.950 . S
H4193 C4198 0.949 . S
H4194 C4200 0.950 . S
H4195 C4201 0.950 . S
H4196 C4202 0.949 . S
C4197 H4192 0.950 . S
C4197 C4199 1.327 . S
C4197 C4203 1.429 . S
C4198 C4190 1.574 . S
C4198 H4193 0.949 . S
C4198 C4204 1.368 . S
C4199 C4183 1.349 . S
C4199 H4191 0.950 . S
C4199 C4197 1.327 . S
C4200 C4188 1.349 . S
C4200 H4194 0.950 . S
C4200 C4201 1.327 . S
C4201 H4195 0.950 . S
C4201 C4200 1.327 . S
C4201 C4205 1.429 . S
C4202 C4185 1.574 . S
C4202 H4196 0.949 . S
C4202 C4206 1.368 . S
C4203 C4184 1.429 . S
C4203 C4197 1.429 . S
C4203 C4204 1.523 . S
C4204 C4185 1.368 . S
C4204 C4198 1.368 . S
C4204 C4203 1.523 . S
C4205 C4189 1.429 . S
C4205 C4201 1.429 . S
C4205 C4206 1.523 . S
C4206 C4190 1.368 . S
C4206 C4202 1.368 . S
C4206 C4205 1.523 . S
H4207 C4182 0.950 . S
H4208 C4184 0.950 . S
H4209 C4185 0.949 . S
H4210 C4187 0.950 . S
H4211 C4189 0.950 . S
C4212 C4213 1.349 . S
C4212 C4214 1.327 . S
C4212 H4237 0.950 . S
C4213 C4212 1.349 . S
C4213 C4229 1.349 . S
C4214 C4212 1.327 . S
C4214 C4233 1.429 . S
C4214 H4238 0.950 . S
C4215 C4232 1.574 . S
C4215 C4234 1.368 . S
C4215 H4239 0.949 . S
H4216 C4220 0.949 . S
C4217 C4218 1.349 . S
C4217 C4219 1.327 . S
C4217 H4240 0.950 . S
C4218 C4217 1.349 . S
C4218 C4230 1.349 . S
C4219 C4217 1.327 . S
C4219 C4235 1.429 . S
C4219 H4241 0.950 . S
C4220 H4216 0.949 . S
C4220 C4228 1.574 . S
C4220 C4236 1.368 . S
H4221 C4229 0.950 . S
H4222 C4227 0.950 . S
H4223 C4228 0.949 . S
H4224 C4230 0.950 . S
H4225 C4231 0.950 . S
H4226 C4232 0.949 . S
C4227 H4222 0.950 . S
C4227 C4229 1.327 . S
C4227 C4233 1.429 . S
C4228 C4220 1.574 . S
C4228 H4223 0.949 . S
C4228 C4234 1.368 . S
C4229 C4213 1.349 . S
C4229 H4221 0.950 . S
C4229 C4227 1.327 . S
C4230 C4218 1.349 . S
C4230 H4224 0.950 . S
C4230 C4231 1.327 . S
C4231 H4225 0.950 . S
C4231 C4230 1.327 . S
C4231 C4235 1.429 . S
C4232 C4215 1.574 . S
C4232 H4226 0.949 . S
C4232 C4236 1.368 . S
C4233 C4214 1.429 . S
C4233 C4227 1.429 . S
C4233 C4234 1.523 . S
C4234 C4215 1.368 . S
C4234 C4228 1.368 . S
C4234 C4233 1.523 . S
C4235 C4219 1.429 . S
C4235 C4231 1.429 . S
C4235 C4236 1.523 . S
C4236 C4220 1.368 . S
C4236 C4232 1.368 . S
C4236 C4235 1.523 . S
H4237 C4212 0.950 . S
H4238 C4214 0.950 . S
H4239 C4215 0.949 . S
H4240 C4217 0.950 . S
H4241 C4219 0.950 . S
C4242 C4243 1.349 . S
C4242 C4244 1.327 . S
C4242 H4267 0.950 . S
C4243 C4242 1.349 . S
C4243 C4259 1.349 . S
C4244 C4242 1.327 . S
C4244 C4263 1.429 . S
C4244 H4268 0.950 . S
C4245 C4262 1.574 . S
C4245 C4264 1.368 . S
C4245 H4269 0.949 . S
H4246 C4250 0.949 . S
C4247 C4248 1.349 . S
C4247 C4249 1.327 . S
C4247 H4270 0.950 . S
C4248 C4247 1.349 . S
C4248 C4260 1.349 . S
C4249 C4247 1.327 . S
C4249 C4265 1.429 . S
C4249 H4271 0.950 . S
C4250 H4246 0.949 . S
C4250 C4258 1.574 . S
C4250 C4266 1.368 . S
H4251 C4259 0.950 . S
H4252 C4257 0.950 . S
H4253 C4258 0.949 . S
H4254 C4260 0.950 . S
H4255 C4261 0.950 . S
H4256 C4262 0.949 . S
C4257 H4252 0.950 . S
C4257 C4259 1.327 . S
C4257 C4263 1.429 . S
C4258 C4250 1.574 . S
C4258 H4253 0.949 . S
C4258 C4264 1.368 . S
C4259 C4243 1.349 . S
C4259 H4251 0.950 . S
C4259 C4257 1.327 . S
C4260 C4248 1.349 . S
C4260 H4254 0.950 . S
C4260 C4261 1.327 . S
C4261 H4255 0.950 . S
C4261 C4260 1.327 . S
C4261 C4265 1.429 . S
C4262 C4245 1.574 . S
C4262 H4256 0.949 . S
C4262 C4266 1.368 . S
C4263 C4244 1.429 . S
C4263 C4257 1.429 . S
C4263 C4264 1.523 . S
C4264 C4245 1.368 . S
C4264 C4258 1.368 . S
C4264 C4263 1.523 . S
C4265 C4249 1.429 . S
C4265 C4261 1.429 . S
C4265 C4266 1.523 . S
C4266 C4250 1.368 . S
C4266 C4262 1.368 . S
C4266 C4265 1.523 . S
H4267 C4242 0.950 . S
H4268 C4244 0.950 . S
H4269 C4245 0.949 . S
H4270 C4247 0.950 . S
H4271 C4249 0.950 . S
C4272 C4273 1.349 . S
C4272 C4274 1.327 . S
C4272 H4297 0.950 . S
C4273 C4272 1.349 . S
C4273 C4289 1.349 . S
C4274 C4272 1.327 . S
C4274 C4293 1.429 . S
C4274 H4298 0.950 . S
C4275 C4292 1.574 . S
C4275 C4294 1.368 . S
C4275 H4299 0.949 . S
H4276 C4280 0.949 . S
C4277 C4278 1.349 . S
C4277 C4279 1.327 . S
C4277 H4300 0.950 . S
C4278 C4277 1.349 . S
C4278 C4290 1.349 . S
C4279 C4277 1.327 . S
C4279 C4295 1.429 . S
C4279 H4301 0.950 . S
C4280 H4276 0.949 . S
C4280 C4288 1.574 . S
C4280 C4296 1.368 . S
H4281 C4289 0.950 . S
H4282 C4287 0.950 . S
H4283 C4288 0.949 . S
H4284 C4290 0.950 . S
H4285 C4291 0.950 . S
H4286 C4292 0.949 . S
C4287 H4282 0.950 . S
C4287 C4289 1.327 . S
C4287 C4293 1.429 . S
C4288 C4280 1.574 . S
C4288 H4283 0.949 . S
C4288 C4294 1.368 . S
C4289 C4273 1.349 . S
C4289 H4281 0.950 . S
C4289 C4287 1.327 . S
C4290 C4278 1.349 . S
C4290 H4284 0.950 . S
C4290 C4291 1.327 . S
C4291 H4285 0.950 . S
C4291 C4290 1.327 . S
C4291 C4295 1.429 . S
C4292 C4275 1.574 . S
C4292 H4286 0.949 . S
C4292 C4296 1.368 . S
C4293 C4274 1.429 . S
C4293 C4287 1.429 . S
C4293 C4294 1.523 . S
C4294 C4275 1.368 . S
C4294 C4288 1.368 . S
C4294 C4293 1.523 . S
C4295 C4279 1.429 . S
C4295 C4291 1.429 . S
C4295 C4296 1.523 . S
C4296 C4280 1.368 . S
C4296 C4292 1.368 . S
C4296 C4295 1.523 . S
H4297 C4272 0.950 . S
H4298 C4274 0.950 . S
H4299 C4275 0.949 . S
H4300 C4277 0.950 . S
H4301 C4279 0.950 . S
C4302 C4303 1.349 . S
C4302 C4304 1.327 . S
C4302 H4327 0.950 . S
C4303 C4302 1.349 . S
C4303 C4319 1.349 . S
C4304 C4302 1.327 . S
C4304 C4323 1.429 . S
C4304 H4328 0.950 . S
C4305 C4322 1.574 . S
C4305 C4324 1.368 . S
C4305 H4329 0.949 . S
H4306 C4310 0.949 . S
C4307 C4308 1.349 . S
C4307 C4309 1.327 . S
C4307 H4330 0.950 . S
C4308 C4307 1.349 . S
C4308 C4320 1.349 . S
C4309 C4307 1.327 . S
C4309 C4325 1.429 . S
C4309 H4331 0.950 . S
C4310 H4306 0.949 . S
C4310 C4318 1.574 . S
C4310 C4326 1.368 . S
H4311 C4319 0.950 . S
H4312 C4317 0.950 . S
H4313 C4318 0.949 . S
H4314 C4320 0.950 . S
H4315 C4321 0.950 . S
H4316 C4322 0.949 . S
C4317 H4312 0.950 . S
C4317 C4319 1.327 . S
C4317 C4323 1.429 . S
C4318 C4310 1.574 . S
C4318 H4313 0.949 . S
C4318 C4324 1.368 . S
C4319 C4303 1.349 . S
C4319 H4311 0.950 . S
C4319 C4317 1.327 . S
C4320 C4308 1.349 . S
C4320 H4314 0.950 . S
C4320 C4321 1.327 . S
C4321 H4315 0.950 . S
C4321 C4320 1.327 . S
C4321 C4325 1.429 . S
C4322 C4305 1.574 . S
C4322 H4316 0.949 . S
C4322 C4326 1.368 . S
C4323 C4304 1.429 . S
C4323 C4317 1.429 . S
C4323 C4324 1.523 . S
C4324 C4305 1.368 . S
C4324 C4318 1.368 . S
C4324 C4323 1.523 . S
C4325 C4309 1.429 . S
C4325 C4321 1.429 . S
C4325 C4326 1.523 . S
C4326 C4310 1.368 . S
C4326 C4322 1.368 . S
C4326 C4325 1.523 . S
H4327 C4302 0.950 . S
H4328 C4304 0.950 . S
H4329 C4305 0.949 . S
H4330 C4307 0.950 . S
H4331 C4309 0.950 . S
C4332 C4333 1.349 . S
C4332 C4334 1.327 . S
C4332 H4357 0.950 . S
C4333 C4332 1.349 . S
C4333 C4349 1.349 . S
C4334 C4332 1.327 . S
C4334 C4353 1.429 . S
C4334 H4358 0.950 . S
C4335 C4352 1.574 . S
C4335 C4354 1.368 . S
C4335 H4359 0.949 . S
H4336 C4340 0.949 . S
C4337 C4338 1.349 . S
C4337 C4339 1.327 . S
C4337 H4360 0.950 . S
C4338 C4337 1.349 . S
C4338 C4350 1.349 . S
C4339 C4337 1.327 . S
C4339 C4355 1.429 . S
C4339 H4361 0.950 . S
C4340 H4336 0.949 . S
C4340 C4348 1.574 . S
C4340 C4356 1.368 . S
H4341 C4349 0.950 . S
H4342 C4347 0.950 . S
H4343 C4348 0.949 . S
H4344 C4350 0.950 . S
H4345 C4351 0.950 . S
H4346 C4352 0.949 . S
C4347 H4342 0.950 . S
C4347 C4349 1.327 . S
C4347 C4353 1.429 . S
C4348 C4340 1.574 . S
C4348 H4343 0.949 . S
C4348 C4354 1.368 . S
C4349 C4333 1.349 . S
C4349 H4341 0.950 . S
C4349 C4347 1.327 . S
C4350 C4338 1.349 . S
C4350 H4344 0.950 . S
C4350 C4351 1.327 . S
C4351 H4345 0.950 . S
C4351 C4350 1.327 . S
C4351 C4355 1.429 . S
C4352 C4335 1.574 . S
C4352 H4346 0.949 . S
C4352 C4356 1.368 . S
C4353 C4334 1.429 . S
C4353 C4347 1.429 . S
C4353 C4354 1.523 . S
C4354 C4335 1.368 . S
C4354 C4348 1.368 . S
C4354 C4353 1.523 . S
C4355 C4339 1.429 . S
C4355 C4351 1.429 . S
C4355 C4356 1.523 . S
C4356 C4340 1.368 . S
C4356 C4352 1.368 . S
C4356 C4355 1.523 . S
H4357 C4332 0.950 . S
H4358 C4334 0.950 . S
H4359 C4335 0.949 . S
H4360 C4337 0.950 . S
H4361 C4339 0.950 . S
C4362 C4363 1.349 . S
C4362 C4364 1.327 . S
C4362 H4387 0.950 . S
C4363 C4362 1.349 . S
C4363 C4379 1.349 . S
C4364 C4362 1.327 . S
C4364 C4383 1.429 . S
C4364 H4388 0.950 . S
C4365 C4382 1.574 . S
C4365 C4384 1.368 . S
C4365 H4389 0.949 . S
H4366 C4370 0.949 . S
C4367 C4368 1.349 . S
C4367 C4369 1.327 . S
C4367 H4390 0.950 . S
C4368 C4367 1.349 . S
C4368 C4380 1.349 . S
C4369 C4367 1.327 . S
C4369 C4385 1.429 . S
C4369 H4391 0.950 . S
C4370 H4366 0.949 . S
C4370 C4378 1.574 . S
C4370 C4386 1.368 . S
H4371 C4379 0.950 . S
H4372 C4377 0.950 . S
H4373 C4378 0.949 . S
H4374 C4380 0.950 . S
H4375 C4381 0.950 . S
H4376 C4382 0.949 . S
C4377 H4372 0.950 . S
C4377 C4379 1.327 . S
C4377 C4383 1.429 . S
C4378 C4370 1.574 . S
C4378 H4373 0.949 . S
C4378 C4384 1.368 . S
C4379 C4363 1.349 . S
C4379 H4371 0.950 . S
C4379 C4377 1.327 . S
C4380 C4368 1.349 . S
C4380 H4374 0.950 . S
C4380 C4381 1.327 . S
C4381 H4375 0.950 . S
C4381 C4380 1.327 . S
C4381 C4385 1.429 . S
C4382 C4365 1.574 . S
C4382 H4376 0.949 . S
C4382 C4386 1.368 . S
C4383 C4364 1.429 . S
C4383 C4377 1.429 . S
C4383 C4384 1.523 . S
C4384 C4365 1.368 . S
C4384 C4378 1.368 . S
C4384 C4383 1.523 . S
C4385 C4369 1.429 . S
C4385 C4381 1.429 . S
C4385 C4386 1.523 . S
C4386 C4370 1.368 . S
C4386 C4382 1.368 . S
C4386 C4385 1.523 . S
H4387 C4362 0.950 . S
H4388 C4364 0.950 . S
H4389 C4365 0.949 . S
H4390 C4367 0.950 . S
H4391 C4369 0.950 . S
C4392 C4393 1.349 . S
C4392 C4394 1.327 . S
C4392 H4417 0.950 . S
C4393 C4392 1.349 . S
C4393 C4409 1.349 . S
C4394 C4392 1.327 . S
C4394 C4413 1.429 . S
C4394 H4418 0.950 . S
C4395 C4412 1.574 . S
C4395 C4414 1.368 . S
C4395 H4419 0.949 . S
H4396 C4400 0.949 . S
C4397 C4398 1.349 . S
C4397 C4399 1.327 . S
C4397 H4420 0.950 . S
C4398 C4397 1.349 . S
C4398 C4410 1.349 . S
C4399 C4397 1.327 . S
C4399 C4415 1.429 . S
C4399 H4421 0.950 . S
C4400 H4396 0.949 . S
C4400 C4408 1.574 . S
C4400 C4416 1.368 . S
H4401 C4409 0.950 . S
H4402 C4407 0.950 . S
H4403 C4408 0.949 . S
H4404 C4410 0.950 . S
H4405 C4411 0.950 . S
H4406 C4412 0.949 . S
C4407 H4402 0.950 . S
C4407 C4409 1.327 . S
C4407 C4413 1.429 . S
C4408 C4400 1.574 . S
C4408 H4403 0.949 . S
C4408 C4414 1.368 . S
C4409 C4393 1.349 . S
C4409 H4401 0.950 . S
C4409 C4407 1.327 . S
C4410 C4398 1.349 . S
C4410 H4404 0.950 . S
C4410 C4411 1.327 . S
C4411 H4405 0.950 . S
C4411 C4410 1.327 . S
C4411 C4415 1.429 . S
C4412 C4395 1.574 . S
C4412 H4406 0.949 . S
C4412 C4416 1.368 . S
C4413 C4394 1.429 . S
C4413 C4407 1.429 . S
C4413 C4414 1.523 . S
C4414 C4395 1.368 . S
C4414 C4408 1.368 . S
C4414 C4413 1.523 . S
C4415 C4399 1.429 . S
C4415 C4411 1.429 . S
C4415 C4416 1.523 . S
C4416 C4400 1.368 . S
C4416 C4412 1.368 . S
C4416 C4415 1.523 . S
H4417 C4392 0.950 . S
H4418 C4394 0.950 . S
H4419 C4395 0.949 . S
H4420 C4397 0.950 . S
H4421 C4399 0.950 . S
C4422 C4423 1.349 . S
C4422 C4424 1.327 . S
C4422 H4447 0.950 . S
C4423 C4422 1.349 . S
C4423 C4439 1.349 . S
C4424 C4422 1.327 . S
C4424 C4443 1.429 . S
C4424 H4448 0.950 . S
C4425 C4442 1.574 . S
C4425 C4444 1.368 . S
C4425 H4449 0.949 . S
H4426 C4430 0.949 . S
C4427 C4428 1.349 . S
C4427 C4429 1.327 . S
C4427 H4450 0.950 . S
C4428 C4427 1.349 . S
C4428 C4440 1.349 . S
C4429 C4427 1.327 . S
C4429 C4445 1.429 . S
C4429 H4451 0.950 . S
C4430 H4426 0.949 . S
C4430 C4438 1.574 . S
C4430 C4446 1.368 . S
H4431 C4439 0.950 . S
H4432 C4437 0.950 . S
H4433 C4438 0.949 . S
H4434 C4440 0.950 . S
H4435 C4441 0.950 . S
H4436 C4442 0.949 . S
C4437 H4432 0.950 . S
C4437 C4439 1.327 . S
C4437 C4443 1.429 . S
C4438 C4430 1.574 . S
C4438 H4433 0.949 . S
C4438 C4444 1.368 . S
C4439 C4423 1.349 . S
C4439 H4431 0.950 . S
C4439 C4437 1.327 . S
C4440 C4428 1.349 . S
C4440 H4434 0.950 . S
C4440 C4441 1.327 . S
C4441 H4435 0.950 . S
C4441 C4440 1.327 . S
C4441 C4445 1.429 . S
C4442 C4425 1.574 . S
C4442 H4436 0.949 . S
C4442 C4446 1.368 . S
C4443 C4424 1.429 . S
C4443 C4437 1.429 . S
C4443 C4444 1.523 . S
C4444 C4425 1.368 . S
C4444 C4438 1.368 . S
C4444 C4443 1.523 . S
C4445 C4429 1.429 . S
C4445 C4441 1.429 . S
C4445 C4446 1.523 . S
C4446 C4430 1.368 . S
C4446 C4442 1.368 . S
C4446 C4445 1.523 . S
H4447 C4422 0.950 . S
H4448 C4424 0.950 . S
H4449 C4425 0.949 . S
H4450 C4427 0.950 . S
H4451 C4429 0.950 . S
C4452 C4453 1.349 . S
C4452 C4454 1.327 . S
C4452 H4477 0.950 . S
C4453 C4452 1.349 . S
C4453 C4469 1.349 . S
C4454 C4452 1.327 . S
C4454 C4473 1.429 . S
C4454 H4478 0.950 . S
C4455 C4472 1.574 . S
C4455 C4474 1.368 . S
C4455 H4479 0.949 . S
H4456 C4460 0.949 . S
C4457 C4458 1.349 . S
C4457 C4459 1.327 . S
C4457 H4480 0.950 . S
C4458 C4457 1.349 . S
C4458 C4470 1.349 . S
C4459 C4457 1.327 . S
C4459 C4475 1.429 . S
C4459 H4481 0.950 . S
C4460 H4456 0.949 . S
C4460 C4468 1.574 . S
C4460 C4476 1.368 . S
H4461 C4469 0.950 . S
H4462 C4467 0.950 . S
H4463 C4468 0.949 . S
H4464 C4470 0.950 . S
H4465 C4471 0.950 . S
H4466 C4472 0.949 . S
C4467 H4462 0.950 . S
C4467 C4469 1.327 . S
C4467 C4473 1.429 . S
C4468 C4460 1.574 . S
C4468 H4463 0.949 . S
C4468 C4474 1.368 . S
C4469 C4453 1.349 . S
C4469 H4461 0.950 . S
C4469 C4467 1.327 . S
C4470 C4458 1.349 . S
C4470 H4464 0.950 . S
C4470 C4471 1.327 . S
C4471 H4465 0.950 . S
C4471 C4470 1.327 . S
C4471 C4475 1.429 . S
C4472 C4455 1.574 . S
C4472 H4466 0.949 . S
C4472 C4476 1.368 . S
C4473 C4454 1.429 . S
C4473 C4467 1.429 . S
C4473 C4474 1.523 . S
C4474 C4455 1.368 . S
C4474 C4468 1.368 . S
C4474 C4473 1.523 . S
C4475 C4459 1.429 . S
C4475 C4471 1.429 . S
C4475 C4476 1.523 . S
C4476 C4460 1.368 . S
C4476 C4472 1.368 . S
C4476 C4475 1.523 . S
H4477 C4452 0.950 . S
H4478 C4454 0.950 . S
H4479 C4455 0.949 . S
H4480 C4457 0.950 . S
H4481 C4459 0.950 . S
C4482 C4483 1.349 . S
C4482 C4484 1.327 . S
C4482 H4507 0.950 . S
C4483 C4482 1.349 . S
C4483 C4499 1.349 . S
C4484 C4482 1.327 . S
C4484 C4503 1.429 . S
C4484 H4508 0.950 . S
C4485 C4502 1.574 . S
C4485 C4504 1.368 . S
C4485 H4509 0.949 . S
H4486 C4490 0.949 . S
C4487 C4488 1.349 . S
C4487 C4489 1.327 . S
C4487 H4510 0.950 . S
C4488 C4487 1.349 . S
C4488 C4500 1.349 . S
C4489 C4487 1.327 . S
C4489 C4505 1.429 . S
C4489 H4511 0.950 . S
C4490 H4486 0.949 . S
C4490 C4498 1.574 . S
C4490 C4506 1.368 . S
H4491 C4499 0.950 . S
H4492 C4497 0.950 . S
H4493 C4498 0.949 . S
H4494 C4500 0.950 . S
H4495 C4501 0.950 . S
H4496 C4502 0.949 . S
C4497 H4492 0.950 . S
C4497 C4499 1.327 . S
C4497 C4503 1.429 . S
C4498 C4490 1.574 . S
C4498 H4493 0.949 . S
C4498 C4504 1.368 . S
C4499 C4483 1.349 . S
C4499 H4491 0.950 . S
C4499 C4497 1.327 . S
C4500 C4488 1.349 . S
C4500 H4494 0.950 . S
C4500 C4501 1.327 . S
C4501 H4495 0.950 . S
C4501 C4500 1.327 . S
C4501 C4505 1.429 . S
C4502 C4485 1.574 . S
C4502 H4496 0.949 . S
C4502 C4506 1.368 . S
C4503 C4484 1.429 . S
C4503 C4497 1.429 . S
C4503 C4504 1.523 . S
C4504 C4485 1.368 . S
C4504 C4498 1.368 . S
C4504 C4503 1.523 . S
C4505 C4489 1.429 . S
C4505 C4501 1.429 . S
C4505 C4506 1.523 . S
C4506 C4490 1.368 . S
C4506 C4502 1.368 . S
C4506 C4505 1.523 . S
H4507 C4482 0.950 . S
H4508 C4484 0.950 . S
H4509 C4485 0.949 . S
H4510 C4487 0.950 . S
H4511 C4489 0.950 . S
C4512 C4513 1.349 . S
C4512 C4514 1.327 . S
C4512 H4537 0.950 . S
C4513 C4512 1.349 . S
C4513 C4529 1.349 . S
C4514 C4512 1.327 . S
C4514 C4533 1.429 . S
C4514 H4538 0.950 . S
C4515 C4532 1.574 . S
C4515 C4534 1.368 . S
C4515 H4539 0.949 . S
H4516 C4520 0.949 . S
C4517 C4518 1.349 . S
C4517 C4519 1.327 . S
C4517 H4540 0.950 . S
C4518 C4517 1.349 . S
C4518 C4530 1.349 . S
C4519 C4517 1.327 . S
C4519 C4535 1.429 . S
C4519 H4541 0.950 . S
C4520 H4516 0.949 . S
C4520 C4528 1.574 . S
C4520 C4536 1.368 . S
H4521 C4529 0.950 . S
H4522 C4527 0.950 . S
H4523 C4528 0.949 . S
H4524 C4530 0.950 . S
H4525 C4531 0.950 . S
H4526 C4532 0.949 . S
C4527 H4522 0.950 . S
C4527 C4529 1.327 . S
C4527 C4533 1.429 . S
C4528 C4520 1.574 . S
C4528 H4523 0.949 . S
C4528 C4534 1.368 . S
C4529 C4513 1.349 . S
C4529 H4521 0.950 . S
C4529 C4527 1.327 . S
C4530 C4518 1.349 . S
C4530 H4524 0.950 . S
C4530 C4531 1.327 . S
C4531 H4525 0.950 . S
C4531 C4530 1.327 . S
C4531 C4535 1.429 . S
C4532 C4515 1.574 . S
C4532 H4526 0.949 . S
C4532 C4536 1.368 . S
C4533 C4514 1.429 . S
C4533 C4527 1.429 . S
C4533 C4534 1.523 . S
C4534 C4515 1.368 . S
C4534 C4528 1.368 . S
C4534 C4533 1.523 . S
C4535 C4519 1.429 . S
C4535 C4531 1.429 . S
C4535 C4536 1.523 . S
C4536 C4520 1.368 . S
C4536 C4532 1.368 . S
C4536 C4535 1.523 . S
H4537 C4512 0.950 . S
H4538 C4514 0.950 . S
H4539 C4515 0.949 . S
H4540 C4517 0.950 . S
H4541 C4519 0.950 . S
C4542 C4543 1.349 . S
C4542 C4544 1.327 . S
C4542 H4567 0.950 . S
C4543 C4542 1.349 . S
C4543 C4559 1.349 . S
C4544 C4542 1.327 . S
C4544 C4563 1.429 . S
C4544 H4568 0.950 . S
C4545 C4562 1.574 . S
C4545 C4564 1.368 . S
C4545 H4569 0.949 . S
H4546 C4550 0.949 . S
C4547 C4548 1.349 . S
C4547 C4549 1.327 . S
C4547 H4570 0.950 . S
C4548 C4547 1.349 . S
C4548 C4560 1.349 . S
C4549 C4547 1.327 . S
C4549 C4565 1.429 . S
C4549 H4571 0.950 . S
C4550 H4546 0.949 . S
C4550 C4558 1.574 . S
C4550 C4566 1.368 . S
H4551 C4559 0.950 . S
H4552 C4557 0.950 . S
H4553 C4558 0.949 . S
H4554 C4560 0.950 . S
H4555 C4561 0.950 . S
H4556 C4562 0.949 . S
C4557 H4552 0.950 . S
C4557 C4559 1.327 . S
C4557 C4563 1.429 . S
C4558 C4550 1.574 . S
C4558 H4553 0.949 . S
C4558 C4564 1.368 . S
C4559 C4543 1.349 . S
C4559 H4551 0.950 . S
C4559 C4557 1.327 . S
C4560 C4548 1.349 . S
C4560 H4554 0.950 . S
C4560 C4561 1.327 . S
C4561 H4555 0.950 . S
C4561 C4560 1.327 . S
C4561 C4565 1.429 . S
C4562 C4545 1.574 . S
C4562 H4556 0.949 . S
C4562 C4566 1.368 . S
C4563 C4544 1.429 . S
C4563 C4557 1.429 . S
C4563 C4564 1.523 . S
C4564 C4545 1.368 . S
C4564 C4558 1.368 . S
C4564 C4563 1.523 . S
C4565 C4549 1.429 . S
C4565 C4561 1.429 . S
C4565 C4566 1.523 . S
C4566 C4550 1.368 . S
C4566 C4562 1.368 . S
C4566 C4565 1.523 . S
H4567 C4542 0.950 . S
H4568 C4544 0.950 . S
H4569 C4545 0.949 . S
H4570 C4547 0.950 . S
H4571 C4549 0.950 . S
C4572 C4573 1.349 . S
C4572 C4574 1.327 . S
C4572 H4597 0.950 . S
C4573 C4572 1.349 . S
C4573 C4589 1.349 . S
C4574 C4572 1.327 . S
C4574 C4593 1.429 . S
C4574 H4598 0.950 . S
C4575 C4592 1.574 . S
C4575 C4594 1.368 . S
C4575 H4599 0.949 . S
H4576 C4580 0.949 . S
C4577 C4578 1.349 . S
C4577 C4579 1.327 . S
C4577 H4600 0.950 . S
C4578 C4577 1.349 . S
C4578 C4590 1.349 . S
C4579 C4577 1.327 . S
C4579 C4595 1.429 . S
C4579 H4601 0.950 . S
C4580 H4576 0.949 . S
C4580 C4588 1.574 . S
C4580 C4596 1.368 . S
H4581 C4589 0.950 . S
H4582 C4587 0.950 . S
H4583 C4588 0.949 . S
H4584 C4590 0.950 . S
H4585 C4591 0.950 . S
H4586 C4592 0.949 . S
C4587 H4582 0.950 . S
C4587 C4589 1.327 . S
C4587 C4593 1.429 . S
C4588 C4580 1.574 . S
C4588 H4583 0.949 . S
C4588 C4594 1.368 . S
C4589 C4573 1.349 . S
C4589 H4581 0.950 . S
C4589 C4587 1.327 . S
C4590 C4578 1.349 . S
C4590 H4584 0.950 . S
C4590 C4591 1.327 . S
C4591 H4585 0.950 . S
C4591 C4590 1.327 . S
C4591 C4595 1.429 . S
C4592 C4575 1.574 . S
C4592 H4586 0.949 . S
C4592 C4596 1.368 . S
C4593 C4574 1.429 . S
C4593 C4587 1.429 . S
C4593 C4594 1.523 . S
C4594 C4575 1.368 . S
C4594 C4588 1.368 . S
C4594 C4593 1.523 . S
C4595 C4579 1.429 . S
C4595 C4591 1.429 . S
C4595 C4596 1.523 . S
C4596 C4580 1.368 . S
C4596 C4592 1.368 . S
C4596 C4595 1.523 . S
H4597 C4572 0.950 . S
H4598 C4574 0.950 . S
H4599 C4575 0.949 . S
H4600 C4577 0.950 . S
H4601 C4579 0.950 . S
C4602 C4603 1.349 . S
C4602 C4604 1.327 . S
C4602 H4627 0.950 . S
C4603 C4602 1.349 . S
C4603 C4619 1.349 . S
C4604 C4602 1.327 . S
C4604 C4623 1.429 . S
C4604 H4628 0.950 . S
C4605 C4622 1.574 . S
C4605 C4624 1.368 . S
C4605 H4629 0.949 . S
H4606 C4610 0.949 . S
C4607 C4608 1.349 . S
C4607 C4609 1.327 . S
C4607 H4630 0.950 . S
C4608 C4607 1.349 . S
C4608 C4620 1.349 . S
C4609 C4607 1.327 . S
C4609 C4625 1.429 . S
C4609 H4631 0.950 . S
C4610 H4606 0.949 . S
C4610 C4618 1.574 . S
C4610 C4626 1.368 . S
H4611 C4619 0.950 . S
H4612 C4617 0.950 . S
H4613 C4618 0.949 . S
H4614 C4620 0.950 . S
H4615 C4621 0.950 . S
H4616 C4622 0.949 . S
C4617 H4612 0.950 . S
C4617 C4619 1.327 . S
C4617 C4623 1.429 . S
C4618 C4610 1.574 . S
C4618 H4613 0.949 . S
C4618 C4624 1.368 . S
C4619 C4603 1.349 . S
C4619 H4611 0.950 . S
C4619 C4617 1.327 . S
C4620 C4608 1.349 . S
C4620 H4614 0.950 . S
C4620 C4621 1.327 . S
C4621 H4615 0.950 . S
C4621 C4620 1.327 . S
C4621 C4625 1.429 . S
C4622 C4605 1.574 . S
C4622 H4616 0.949 . S
C4622 C4626 1.368 . S
C4623 C4604 1.429 . S
C4623 C4617 1.429 . S
C4623 C4624 1.523 . S
C4624 C4605 1.368 . S
C4624 C4618 1.368 . S
C4624 C4623 1.523 . S
C4625 C4609 1.429 . S
C4625 C4621 1.429 . S
C4625 C4626 1.523 . S
C4626 C4610 1.368 . S
C4626 C4622 1.368 . S
C4626 C4625 1.523 . S
H4627 C4602 0.950 . S
H4628 C4604 0.950 . S
H4629 C4605 0.949 . S
H4630 C4607 0.950 . S
H4631 C4609 0.950 . S
C4632 C4633 1.349 . S
C4632 C4634 1.327 . S
C4632 H4657 0.950 . S
C4633 C4632 1.349 . S
C4633 C4649 1.349 . S
C4634 C4632 1.327 . S
C4634 C4653 1.429 . S
C4634 H4658 0.950 . S
C4635 C4652 1.574 . S
C4635 C4654 1.368 . S
C4635 H4659 0.949 . S
H4636 C4640 0.949 . S
C4637 C4638 1.349 . S
C4637 C4639 1.327 . S
C4637 H4660 0.950 . S
C4638 C4637 1.349 . S
C4638 C4650 1.349 . S
C4639 C4637 1.327 . S
C4639 C4655 1.429 . S
C4639 H4661 0.950 . S
C4640 H4636 0.949 . S
C4640 C4648 1.574 . S
C4640 C4656 1.368 . S
H4641 C4649 0.950 . S
H4642 C4647 0.950 . S
H4643 C4648 0.949 . S
H4644 C4650 0.950 . S
H4645 C4651 0.950 . S
H4646 C4652 0.949 . S
C4647 H4642 0.950 . S
C4647 C4649 1.327 . S
C4647 C4653 1.429 . S
C4648 C4640 1.574 . S
C4648 H4643 0.949 . S
C4648 C4654 1.368 . S
C4649 C4633 1.349 . S
C4649 H4641 0.950 . S
C4649 C4647 1.327 . S
C4650 C4638 1.349 . S
C4650 H4644 0.950 . S
C4650 C4651 1.327 . S
C4651 H4645 0.950 . S
C4651 C4650 1.327 . S
C4651 C4655 1.429 . S
C4652 C4635 1.574 . S
C4652 H4646 0.949 . S
C4652 C4656 1.368 . S
C4653 C4634 1.429 . S
C4653 C4647 1.429 . S
C4653 C4654 1.523 . S
C4654 C4635 1.368 . S
C4654 C4648 1.368 . S
C4654 C4653 1.523 . S
C4655 C4639 1.429 . S
C4655 C4651 1.429 . S
C4655 C4656 1.523 . S
C4656 C4640 1.368 . S
C4656 C4652 1.368 . S
C4656 C4655 1.523 . S
H4657 C4632 0.950 . S
H4658 C4634 0.950 . S
H4659 C4635 0.949 . S
H4660 C4637 0.950 . S
H4661 C4639 0.950 . S
C4662 C4663 1.349 . S
C4662 C4664 1.327 . S
C4662 H4687 0.950 . S
C4663 C4662 1.349 . S
C4663 C4679 1.349 . S
C4664 C4662 1.327 . S
C4664 C4683 1.429 . S
C4664 H4688 0.950 . S
C4665 C4682 1.574 . S
C4665 C4684 1.368 . S
C4665 H4689 0.949 . S
H4666 C4670 0.949 . S
C4667 C4668 1.349 . S
C4667 C4669 1.327 . S
C4667 H4690 0.950 . S
C4668 C4667 1.349 . S
C4668 C4680 1.349 . S
C4669 C4667 1.327 . S
C4669 C4685 1.429 . S
C4669 H4691 0.950 . S
C4670 H4666 0.949 . S
C4670 C4678 1.574 . S
C4670 C4686 1.368 . S
H4671 C4679 0.950 . S
H4672 C4677 0.950 . S
H4673 C4678 0.949 . S
H4674 C4680 0.950 . S
H4675 C4681 0.950 . S
H4676 C4682 0.949 . S
C4677 H4672 0.950 . S
C4677 C4679 1.327 . S
C4677 C4683 1.429 . S
C4678 C4670 1.574 . S
C4678 H4673 0.949 . S
C4678 C4684 1.368 . S
C4679 C4663 1.349 . S
C4679 H4671 0.950 . S
C4679 C4677 1.327 . S
C4680 C4668 1.349 . S
C4680 H4674 0.950 . S
C4680 C4681 1.327 . S
C4681 H4675 0.950 . S
C4681 C4680 1.327 . S
C4681 C4685 1.429 . S
C4682 C4665 1.574 . S
C4682 H4676 0.949 . S
C4682 C4686 1.368 . S
C4683 C4664 1.429 . S
C4683 C4677 1.429 . S
C4683 C4684 1.523 . S
C4684 C4665 1.368 . S
C4684 C4678 1.368 . S
C4684 C4683 1.523 . S
C4685 C4669 1.429 . S
C4685 C4681 1.429 . S
C4685 C4686 1.523 . S
C4686 C4670 1.368 . S
C4686 C4682 1.368 . S
C4686 C4685 1.523 . S
H4687 C4662 0.950 . S
H4688 C4664 0.950 . S
H4689 C4665 0.949 . S
H4690 C4667 0.950 . S
H4691 C4669 0.950 . S
C4692 C4693 1.349 . S
C4692 C4694 1.327 . S
C4692 H4717 0.950 . S
C4693 C4692 1.349 . S
C4693 C4709 1.349 . S
C4694 C4692 1.327 . S
C4694 C4713 1.429 . S
C4694 H4718 0.950 . S
C4695 C4712 1.574 . S
C4695 C4714 1.368 . S
C4695 H4719 0.949 . S
H4696 C4700 0.949 . S
C4697 C4698 1.349 . S
C4697 C4699 1.327 . S
C4697 H4720 0.950 . S
C4698 C4697 1.349 . S
C4698 C4710 1.349 . S
C4699 C4697 1.327 . S
C4699 C4715 1.429 . S
C4699 H4721 0.950 . S
C4700 H4696 0.949 . S
C4700 C4708 1.574 . S
C4700 C4716 1.368 . S
H4701 C4709 0.950 . S
H4702 C4707 0.950 . S
H4703 C4708 0.949 . S
H4704 C4710 0.950 . S
H4705 C4711 0.950 . S
H4706 C4712 0.949 . S
C4707 H4702 0.950 . S
C4707 C4709 1.327 . S
C4707 C4713 1.429 . S
C4708 C4700 1.574 . S
C4708 H4703 0.949 . S
C4708 C4714 1.368 . S
C4709 C4693 1.349 . S
C4709 H4701 0.950 . S
C4709 C4707 1.327 . S
C4710 C4698 1.349 . S
C4710 H4704 0.950 . S
C4710 C4711 1.327 . S
C4711 H4705 0.950 . S
C4711 C4710 1.327 . S
C4711 C4715 1.429 . S
C4712 C4695 1.574 . S
C4712 H4706 0.949 . S
C4712 C4716 1.368 . S
C4713 C4694 1.429 . S
C4713 C4707 1.429 . S
C4713 C4714 1.523 . S
C4714 C4695 1.368 . S
C4714 C4708 1.368 . S
C4714 C4713 1.523 . S
C4715 C4699 1.429 . S
C4715 C4711 1.429 . S
C4715 C4716 1.523 . S
C4716 C4700 1.368 . S
C4716 C4712 1.368 . S
C4716 C4715 1.523 . S
H4717 C4692 0.950 . S
H4718 C4694 0.950 . S
H4719 C4695 0.949 . S
H4720 C4697 0.950 . S
H4721 C4699 0.950 . S
C4722 C4723 1.349 . S
C4722 C4724 1.327 . S
C4722 H4747 0.950 . S
C4723 C4722 1.349 . S
C4723 C4739 1.349 . S
C4724 C4722 1.327 . S
C4724 C4743 1.429 . S
C4724 H4748 0.950 . S
C4725 C4742 1.574 . S
C4725 C4744 1.368 . S
C4725 H4749 0.949 . S
H4726 C4730 0.949 . S
C4727 C4728 1.349 . S
C4727 C4729 1.327 . S
C4727 H4750 0.950 . S
C4728 C4727 1.349 . S
C4728 C4740 1.349 . S
C4729 C4727 1.327 . S
C4729 C4745 1.429 . S
C4729 H4751 0.950 . S
C4730 H4726 0.949 . S
C4730 C4738 1.574 . S
C4730 C4746 1.368 . S
H4731 C4739 0.950 . S
H4732 C4737 0.950 . S
H4733 C4738 0.949 . S
H4734 C4740 0.950 . S
H4735 C4741 0.950 . S
H4736 C4742 0.949 . S
C4737 H4732 0.950 . S
C4737 C4739 1.327 . S
C4737 C4743 1.429 . S
C4738 C4730 1.574 . S
C4738 H4733 0.949 . S
C4738 C4744 1.368 . S
C4739 C4723 1.349 . S
C4739 H4731 0.950 . S
C4739 C4737 1.327 . S
C4740 C4728 1.349 . S
C4740 H4734 0.950 . S
C4740 C4741 1.327 . S
C4741 H4735 0.950 . S
C4741 C4740 1.327 . S
C4741 C4745 1.429 . S
C4742 C4725 1.574 . S
C4742 H4736 0.949 . S
C4742 C4746 1.368 . S
C4743 C4724 1.429 . S
C4743 C4737 1.429 . S
C4743 C4744 1.523 . S
C4744 C4725 1.368 . S
C4744 C4738 1.368 . S
C4744 C4743 1.523 . S
C4745 C4729 1.429 . S
C4745 C4741 1.429 . S
C4745 C4746 1.523 . S
C4746 C4730 1.368 . S
C4746 C4742 1.368 . S
C4746 C4745 1.523 . S
H4747 C4722 0.950 . S
H4748 C4724 0.950 . S
H4749 C4725 0.949 . S
H4750 C4727 0.950 . S
H4751 C4729 0.950 . S
C4752 C4753 1.349 . S
C4752 C4754 1.327 . S
C4752 H4777 0.950 . S
C4753 C4752 1.349 . S
C4753 C4769 1.349 . S
C4754 C4752 1.327 . S
C4754 C4773 1.429 . S
C4754 H4778 0.950 . S
C4755 C4772 1.574 . S
C4755 C4774 1.368 . S
C4755 H4779 0.949 . S
H4756 C4760 0.949 . S
C4757 C4758 1.349 . S
C4757 C4759 1.327 . S
C4757 H4780 0.950 . S
C4758 C4757 1.349 . S
C4758 C4770 1.349 . S
C4759 C4757 1.327 . S
C4759 C4775 1.429 . S
C4759 H4781 0.950 . S
C4760 H4756 0.949 . S
C4760 C4768 1.574 . S
C4760 C4776 1.368 . S
H4761 C4769 0.950 . S
H4762 C4767 0.950 . S
H4763 C4768 0.949 . S
H4764 C4770 0.950 . S
H4765 C4771 0.950 . S
H4766 C4772 0.949 . S
C4767 H4762 0.950 . S
C4767 C4769 1.327 . S
C4767 C4773 1.429 . S
C4768 C4760 1.574 . S
C4768 H4763 0.949 . S
C4768 C4774 1.368 . S
C4769 C4753 1.349 . S
C4769 H4761 0.950 . S
C4769 C4767 1.327 . S
C4770 C4758 1.349 . S
C4770 H4764 0.950 . S
C4770 C4771 1.327 . S
C4771 H4765 0.950 . S
C4771 C4770 1.327 . S
C4771 C4775 1.429 . S
C4772 C4755 1.574 . S
C4772 H4766 0.949 . S
C4772 C4776 1.368 . S
C4773 C4754 1.429 . S
C4773 C4767 1.429 . S
C4773 C4774 1.523 . S
C4774 C4755 1.368 . S
C4774 C4768 1.368 . S
C4774 C4773 1.523 . S
C4775 C4759 1.429 . S
C4775 C4771 1.429 . S
C4775 C4776 1.523 . S
C4776 C4760 1.368 . S
C4776 C4772 1.368 . S
C4776 C4775 1.523 . S
H4777 C4752 0.950 . S
H4778 C4754 0.950 . S
H4779 C4755 0.949 . S
H4780 C4757 0.950 . S
H4781 C4759 0.950 . S
C4782 C4783 1.349 . S
C4782 C4784 1.327 . S
C4782 H4807 0.950 . S
C4783 C4782 1.349 . S
C4783 C4799 1.349 . S
C4784 C4782 1.327 . S
C4784 C4803 1.429 . S
C4784 H4808 0.950 . S
C4785 C4802 1.574 . S
C4785 C4804 1.368 . S
C4785 H4809 0.949 . S
H4786 C4790 0.949 . S
C4787 C4788 1.349 . S
C4787 C4789 1.327 . S
C4787 H4810 0.950 . S
C4788 C4787 1.349 . S
C4788 C4800 1.349 . S
C4789 C4787 1.327 . S
C4789 C4805 1.429 . S
C4789 H4811 0.950 . S
C4790 H4786 0.949 . S
C4790 C4798 1.574 . S
C4790 C4806 1.368 . S
H4791 C4799 0.950 . S
H4792 C4797 0.950 . S
H4793 C4798 0.949 . S
H4794 C4800 0.950 . S
H4795 C4801 0.950 . S
H4796 C4802 0.949 . S
C4797 H4792 0.950 . S
C4797 C4799 1.327 . S
C4797 C4803 1.429 . S
C4798 C4790 1.574 . S
C4798 H4793 0.949 . S
C4798 C4804 1.368 . S
C4799 C4783 1.349 . S
C4799 H4791 0.950 . S
C4799 C4797 1.327 . S
C4800 C4788 1.349 . S
C4800 H4794 0.950 . S
C4800 C4801 1.327 . S
C4801 H4795 0.950 . S
C4801 C4800 1.327 . S
C4801 C4805 1.429 . S
C4802 C4785 1.574 . S
C4802 H4796 0.949 . S
C4802 C4806 1.368 . S
C4803 C4784 1.429 . S
C4803 C4797 1.429 . S
C4803 C4804 1.523 . S
C4804 C4785 1.368 . S
C4804 C4798 1.368 . S
C4804 C4803 1.523 . S
C4805 C4789 1.429 . S
C4805 C4801 1.429 . S
C4805 C4806 1.523 . S
C4806 C4790 1.368 . S
C4806 C4802 1.368 . S
C4806 C4805 1.523 . S
H4807 C4782 0.950 . S
H4808 C4784 0.950 . S
H4809 C4785 0.949 . S
H4810 C4787 0.950 . S
H4811 C4789 0.950 . S
C4812 C4813 1.349 . S
C4812 C4814 1.327 . S
C4812 H4837 0.950 . S
C4813 C4812 1.349 . S
C4813 C4829 1.349 . S
C4814 C4812 1.327 . S
C4814 C4833 1.429 . S
C4814 H4838 0.950 . S
C4815 C4832 1.574 . S
C4815 C4834 1.368 . S
C4815 H4839 0.949 . S
H4816 C4820 0.949 . S
C4817 C4818 1.349 . S
C4817 C4819 1.327 . S
C4817 H4840 0.950 . S
C4818 C4817 1.349 . S
C4818 C4830 1.349 . S
C4819 C4817 1.327 . S
C4819 C4835 1.429 . S
C4819 H4841 0.950 . S
C4820 H4816 0.949 . S
C4820 C4828 1.574 . S
C4820 C4836 1.368 . S
H4821 C4829 0.950 . S
H4822 C4827 0.950 . S
H4823 C4828 0.949 . S
H4824 C4830 0.950 . S
H4825 C4831 0.950 . S
H4826 C4832 0.949 . S
C4827 H4822 0.950 . S
C4827 C4829 1.327 . S
C4827 C4833 1.429 . S
C4828 C4820 1.574 . S
C4828 H4823 0.949 . S
C4828 C4834 1.368 . S
C4829 C4813 1.349 . S
C4829 H4821 0.950 . S
C4829 C4827 1.327 . S
C4830 C4818 1.349 . S
C4830 H4824 0.950 . S
C4830 C4831 1.327 . S
C4831 H4825 0.950 . S
C4831 C4830 1.327 . S
C4831 C4835 1.429 . S
C4832 C4815 1.574 . S
C4832 H4826 0.949 . S
C4832 C4836 1.368 . S
C4833 C4814 1.429 . S
C4833 C4827 1.429 . S
C4833 C4834 1.523 . S
C4834 C4815 1.368 . S
C4834 C4828 1.368 . S
C4834 C4833 1.523 . S
C4835 C4819 1.429 . S
C4835 C4831 1.429 . S
C4835 C4836 1.523 . S
C4836 C4820 1.368 . S
C4836 C4832 1.368 . S
C4836 C4835 1.523 . S
H4837 C4812 0.950 . S
H4838 C4814 0.950 . S
H4839 C4815 0.949 . S
H4840 C4817 0.950 . S
H4841 C4819 0.950 . S
C4842 C4843 1.349 . S
C4842 C4844 1.327 . S
C4842 H4867 0.950 . S
C4843 C4842 1.349 . S
C4843 C4859 1.349 . S
C4844 C4842 1.327 . S
C4844 C4863 1.429 . S
C4844 H4868 0.950 . S
C4845 C4862 1.574 . S
C4845 C4864 1.368 . S
C4845 H4869 0.949 . S
H4846 C4850 0.949 . S
C4847 C4848 1.349 . S
C4847 C4849 1.327 . S
C4847 H4870 0.950 . S
C4848 C4847 1.349 . S
C4848 C4860 1.349 . S
C4849 C4847 1.327 . S
C4849 C4865 1.429 . S
C4849 H4871 0.950 . S
C4850 H4846 0.949 . S
C4850 C4858 1.574 . S
C4850 C4866 1.368 . S
H4851 C4859 0.950 . S
H4852 C4857 0.950 . S
H4853 C4858 0.949 . S
H4854 C4860 0.950 . S
H4855 C4861 0.950 . S
H4856 C4862 0.949 . S
C4857 H4852 0.950 . S
C4857 C4859 1.327 . S
C4857 C4863 1.429 . S
C4858 C4850 1.574 . S
C4858 H4853 0.949 . S
C4858 C4864 1.368 . S
C4859 C4843 1.349 . S
C4859 H4851 0.950 . S
C4859 C4857 1.327 . S
C4860 C4848 1.349 . S
C4860 H4854 0.950 . S
C4860 C4861 1.327 . S
C4861 H4855 0.950 . S
C4861 C4860 1.327 . S
C4861 C4865 1.429 . S
C4862 C4845 1.574 . S
C4862 H4856 0.949 . S
C4862 C4866 1.368 . S
C4863 C4844 1.429 . S
C4863 C4857 1.429 . S
C4863 C4864 1.523 . S
C4864 C4845 1.368 . S
C4864 C4858 1.368 . S
C4864 C4863 1.523 . S
C4865 C4849 1.429 . S
C4865 C4861 1.429 . S
C4865 C4866 1.523 . S
C4866 C4850 1.368 . S
C4866 C4862 1.368 . S
C4866 C4865 1.523 . S
H4867 C4842 0.950 . S
H4868 C4844 0.950 . S
H4869 C4845 0.949 . S
H4870 C4847 0.950 . S
H4871 C4849 0.950 . S
C4872 C4873 1.349 . S
C4872 C4874 1.327 . S
C4872 H4897 0.950 . S
C4873 C4872 1.349 . S
C4873 C4889 1.349 . S
C4874 C4872 1.327 . S
C4874 C4893 1.429 . S
C4874 H4898 0.950 . S
C4875 C4892 1.574 . S
C4875 C4894 1.368 . S
C4875 H4899 0.949 . S
H4876 C4880 0.949 . S
C4877 C4878 1.349 . S
C4877 C4879 1.327 . S
C4877 H4900 0.950 . S
C4878 C4877 1.349 . S
C4878 C4890 1.349 . S
C4879 C4877 1.327 . S
C4879 C4895 1.429 . S
C4879 H4901 0.950 . S
C4880 H4876 0.949 . S
C4880 C4888 1.574 . S
C4880 C4896 1.368 . S
H4881 C4889 0.950 . S
H4882 C4887 0.950 . S
H4883 C4888 0.949 . S
H4884 C4890 0.950 . S
H4885 C4891 0.950 . S
H4886 C4892 0.949 . S
C4887 H4882 0.950 . S
C4887 C4889 1.327 . S
C4887 C4893 1.429 . S
C4888 C4880 1.574 . S
C4888 H4883 0.949 . S
C4888 C4894 1.368 . S
C4889 C4873 1.349 . S
C4889 H4881 0.950 . S
C4889 C4887 1.327 . S
C4890 C4878 1.349 . S
C4890 H4884 0.950 . S
C4890 C4891 1.327 . S
C4891 H4885 0.950 . S
C4891 C4890 1.327 . S
C4891 C4895 1.429 . S
C4892 C4875 1.574 . S
C4892 H4886 0.949 . S
C4892 C4896 1.368 . S
C4893 C4874 1.429 . S
C4893 C4887 1.429 . S
C4893 C4894 1.523 . S
C4894 C4875 1.368 . S
C4894 C4888 1.368 . S
C4894 C4893 1.523 . S
C4895 C4879 1.429 . S
C4895 C4891 1.429 . S
C4895 C4896 1.523 . S
C4896 C4880 1.368 . S
C4896 C4892 1.368 . S
C4896 C4895 1.523 . S
H4897 C4872 0.950 . S
H4898 C4874 0.950 . S
H4899 C4875 0.949 . S
H4900 C4877 0.950 . S
H4901 C4879 0.950 . S
C4902 C4903 1.349 . S
C4902 C4904 1.327 . S
C4902 H4927 0.950 . S
C4903 C4902 1.349 . S
C4903 C4919 1.349 . S
C4904 C4902 1.327 . S
C4904 C4923 1.429 . S
C4904 H4928 0.950 . S
C4905 C4922 1.574 . S
C4905 C4924 1.368 . S
C4905 H4929 0.949 . S
H4906 C4910 0.949 . S
C4907 C4908 1.349 . S
C4907 C4909 1.327 . S
C4907 H4930 0.950 . S
C4908 C4907 1.349 . S
C4908 C4920 1.349 . S
C4909 C4907 1.327 . S
C4909 C4925 1.429 . S
C4909 H4931 0.950 . S
C4910 H4906 0.949 . S
C4910 C4918 1.574 . S
C4910 C4926 1.368 . S
H4911 C4919 0.950 . S
H4912 C4917 0.950 . S
H4913 C4918 0.949 . S
H4914 C4920 0.950 . S
H4915 C4921 0.950 . S
H4916 C4922 0.949 . S
C4917 H4912 0.950 . S
C4917 C4919 1.327 . S
C4917 C4923 1.429 . S
C4918 C4910 1.574 . S
C4918 H4913 0.949 . S
C4918 C4924 1.368 . S
C4919 C4903 1.349 . S
C4919 H4911 0.950 . S
C4919 C4917 1.327 . S
C4920 C4908 1.349 . S
C4920 H4914 0.950 . S
C4920 C4921 1.327 . S
C4921 H4915 0.950 . S
C4921 C4920 1.327 . S
C4921 C4925 1.429 . S
C4922 C4905 1.574 . S
C4922 H4916 0.949 . S
C4922 C4926 1.368 . S
C4923 C4904 1.429 . S
C4923 C4917 1.429 . S
C4923 C4924 1.523 . S
C4924 C4905 1.368 . S
C4924 C4918 1.368 . S
C4924 C4923 1.523 . S
C4925 C4909 1.429 . S
C4925 C4921 1.429 . S
C4925 C4926 1.523 . S
C4926 C4910 1.368 . S
C4926 C4922 1.368 . S
C4926 C4925 1.523 . S
H4927 C4902 0.950 . S
H4928 C4904 0.950 . S
H4929 C4905 0.949 . S
H4930 C4907 0.950 . S
H4931 C4909 0.950 . S
C4932 C4933 1.349 . S
C4932 C4934 1.327 . S
C4932 H4957 0.950 . S
C4933 C4932 1.349 . S
C4933 C4949 1.349 . S
C4934 C4932 1.327 . S
C4934 C4953 1.429 . S
C4934 H4958 0.950 . S
C4935 C4952 1.574 . S
C4935 C4954 1.368 . S
C4935 H4959 0.949 . S
H4936 C4940 0.949 . S
C4937 C4938 1.349 . S
C4937 C4939 1.327 . S
C4937 H4960 0.950 . S
C4938 C4937 1.349 . S
C4938 C4950 1.349 . S
C4939 C4937 1.327 . S
C4939 C4955 1.429 . S
C4939 H4961 0.950 . S
C4940 H4936 0.949 . S
C4940 C4948 1.574 . S
C4940 C4956 1.368 . S
H4941 C4949 0.950 . S
H4942 C4947 0.950 . S
H4943 C4948 0.949 . S
H4944 C4950 0.950 . S
H4945 C4951 0.950 . S
H4946 C4952 0.949 . S
C4947 H4942 0.950 . S
C4947 C4949 1.327 . S
C4947 C4953 1.429 . S
C4948 C4940 1.574 . S
C4948 H4943 0.949 . S
C4948 C4954 1.368 . S
C4949 C4933 1.349 . S
C4949 H4941 0.950 . S
C4949 C4947 1.327 . S
C4950 C4938 1.349 . S
C4950 H4944 0.950 . S
C4950 C4951 1.327 . S
C4951 H4945 0.950 . S
C4951 C4950 1.327 . S
C4951 C4955 1.429 . S
C4952 C4935 1.574 . S
C4952 H4946 0.949 . S
C4952 C4956 1.368 . S
C4953 C4934 1.429 . S
C4953 C4947 1.429 . S
C4953 C4954 1.523 . S
C4954 C4935 1.368 . S
C4954 C4948 1.368 . S
C4954 C4953 1.523 . S
C4955 C4939 1.429 . S
C4955 C4951 1.429 . S
C4955 C4956 1.523 . S
C4956 C4940 1.368 . S
C4956 C4952 1.368 . S
C4956 C4955 1.523 . S
H4957 C4932 0.950 . S
H4958 C4934 0.950 . S
H4959 C4935 0.949 . S
H4960 C4937 0.950 . S
H4961 C4939 0.950 . S
C4962 C4963 1.349 . S
C4962 C4964 1.327 . S
C4962 H4987 0.950 . S
C4963 C4962 1.349 . S
C4963 C4979 1.349 . S
C4964 C4962 1.327 . S
C4964 C4983 1.429 . S
C4964 H4988 0.950 . S
C4965 C4982 1.574 . S
C4965 C4984 1.368 . S
C4965 H4989 0.949 . S
H4966 C4970 0.949 . S
C4967 C4968 1.349 . S
C4967 C4969 1.327 . S
C4967 H4990 0.950 . S
C4968 C4967 1.349 . S
C4968 C4980 1.349 . S
C4969 C4967 1.327 . S
C4969 C4985 1.429 . S
C4969 H4991 0.950 . S
C4970 H4966 0.949 . S
C4970 C4978 1.574 . S
C4970 C4986 1.368 . S
H4971 C4979 0.950 . S
H4972 C4977 0.950 . S
H4973 C4978 0.949 . S
H4974 C4980 0.950 . S
H4975 C4981 0.950 . S
H4976 C4982 0.949 . S
C4977 H4972 0.950 . S
C4977 C4979 1.327 . S
C4977 C4983 1.429 . S
C4978 C4970 1.574 . S
C4978 H4973 0.949 . S
C4978 C4984 1.368 . S
C4979 C4963 1.349 . S
C4979 H4971 0.950 . S
C4979 C4977 1.327 . S
C4980 C4968 1.349 . S
C4980 H4974 0.950 . S
C4980 C4981 1.327 . S
C4981 H4975 0.950 . S
C4981 C4980 1.327 . S
C4981 C4985 1.429 . S
C4982 C4965 1.574 . S
C4982 H4976 0.949 . S
C4982 C4986 1.368 . S
C4983 C4964 1.429 . S
C4983 C4977 1.429 . S
C4983 C4984 1.523 . S
C4984 C4965 1.368 . S
C4984 C4978 1.368 . S
C4984 C4983 1.523 . S
C4985 C4969 1.429 . S
C4985 C4981 1.429 . S
C4985 C4986 1.523 . S
C4986 C4970 1.368 . S
C4986 C4982 1.368 . S
C4986 C4985 1.523 . S
H4987 C4962 0.950 . S
H4988 C4964 0.950 . S
H4989 C4965 0.949 . S
H4990 C4967 0.950 . S
H4991 C4969 0.950 . S
C4992 C4993 1.349 . S
C4992 C4994 1.327 . S
C4992 H5017 0.950 . S
C4993 C4992 1.349 . S
C4993 C5009 1.349 . S
C4994 C4992 1.327 . S
C4994 C5013 1.429 . S
C4994 H5018 0.950 . S
C4995 C5012 1.574 . S
C4995 C5014 1.368 . S
C4995 H5019 0.949 . S
H4996 C5000 0.949 . S
C4997 C4998 1.349 . S
C4997 C4999 1.327 . S
C4997 H5020 0.950 . S
C4998 C4997 1.349 . S
C4998 C5010 1.349 . S
C4999 C4997 1.327 . S
C4999 C5015 1.429 . S
C4999 H5021 0.950 . S
C5000 H4996 0.949 . S
C5000 C5008 1.574 . S
C5000 C5016 1.368 . S
H5001 C5009 0.950 . S
H5002 C5007 0.950 . S
H5003 C5008 0.949 . S
H5004 C5010 0.950 . S
H5005 C5011 0.950 . S
H5006 C5012 0.949 . S
C5007 H5002 0.950 . S
C5007 C5009 1.327 . S
C5007 C5013 1.429 . S
C5008 C5000 1.574 . S
C5008 H5003 0.949 . S
C5008 C5014 1.368 . S
C5009 C4993 1.349 . S
C5009 H5001 0.950 . S
C5009 C5007 1.327 . S
C5010 C4998 1.349 . S
C5010 H5004 0.950 . S
C5010 C5011 1.327 . S
C5011 H5005 0.950 . S
C5011 C5010 1.327 . S
C5011 C5015 1.429 . S
C5012 C4995 1.574 . S
C5012 H5006 0.949 . S
C5012 C5016 1.368 . S
C5013 C4994 1.429 . S
C5013 C5007 1.429 . S
C5013 C5014 1.523 . S
C5014 C4995 1.368 . S
C5014 C5008 1.368 . S
C5014 C5013 1.523 . S
C5015 C4999 1.429 . S
C5015 C5011 1.429 . S
C5015 C5016 1.523 . S
C5016 C5000 1.368 . S
C5016 C5012 1.368 . S
C5016 C5015 1.523 . S
H5017 C4992 0.950 . S
H5018 C4994 0.950 . S
H5019 C4995 0.949 . S
H5020 C4997 0.950 . S
H5021 C4999 0.950 . S
C5022 C5023 1.349 . S
C5022 C5024 1.327 . S
C5022 H5047 0.950 . S
C5023 C5022 1.349 . S
C5023 C5039 1.349 . S
C5024 C5022 1.327 . S
C5024 C5043 1.429 . S
C5024 H5048 0.950 . S
C5025 C5042 1.574 . S
C5025 C5044 1.368 . S
C5025 H5049 0.949 . S
H5026 C5030 0.949 . S
C5027 C5028 1.349 . S
C5027 C5029 1.327 . S
C5027 H5050 0.950 . S
C5028 C5027 1.349 . S
C5028 C5040 1.349 . S
C5029 C5027 1.327 . S
C5029 C5045 1.429 . S
C5029 H5051 0.950 . S
C5030 H5026 0.949 . S
C5030 C5038 1.574 . S
C5030 C5046 1.368 . S
H5031 C5039 0.950 . S
H5032 C5037 0.950 . S
H5033 C5038 0.949 . S
H5034 C5040 0.950 . S
H5035 C5041 0.950 . S
H5036 C5042 0.949 . S
C5037 H5032 0.950 . S
C5037 C5039 1.327 . S
C5037 C5043 1.429 . S
C5038 C5030 1.574 . S
C5038 H5033 0.949 . S
C5038 C5044 1.368 . S
C5039 C5023 1.349 . S
C5039 H5031 0.950 . S
C5039 C5037 1.327 . S
C5040 C5028 1.349 . S
C5040 H5034 0.950 . S
C5040 C5041 1.327 . S
C5041 H5035 0.950 . S
C5041 C5040 1.327 . S
C5041 C5045 1.429 . S
C5042 C5025 1.574 . S
C5042 H5036 0.949 . S
C5042 C5046 1.368 . S
C5043 C5024 1.429 . S
C5043 C5037 1.429 . S
C5043 C5044 1.523 . S
C5044 C5025 1.368 . S
C5044 C5038 1.368 . S
C5044 C5043 1.523 . S
C5045 C5029 1.429 . S
C5045 C5041 1.429 . S
C5045 C5046 1.523 . S
C5046 C5030 1.368 . S
C5046 C5042 1.368 . S
C5046 C5045 1.523 . S
H5047 C5022 0.950 . S
H5048 C5024 0.950 . S
H5049 C5025 0.949 . S
H5050 C5027 0.950 . S
H5051 C5029 0.950 . S
C5052 C5053 1.349 . S
C5052 C5054 1.327 . S
C5052 H5077 0.950 . S
C5053 C5052 1.349 . S
C5053 C5069 1.349 . S
C5054 C5052 1.327 . S
C5054 C5073 1.429 . S
C5054 H5078 0.950 . S
C5055 C5072 1.574 . S
C5055 C5074 1.368 . S
C5055 H5079 0.949 . S
H5056 C5060 0.949 . S
C5057 C5058 1.349 . S
C5057 C5059 1.327 . S
C5057 H5080 0.950 . S
C5058 C5057 1.349 . S
C5058 C5070 1.349 . S
C5059 C5057 1.327 . S
C5059 C5075 1.429 . S
C5059 H5081 0.950 . S
C5060 H5056 0.949 . S
C5060 C5068 1.574 . S
C5060 C5076 1.368 . S
H5061 C5069 0.950 . S
H5062 C5067 0.950 . S
H5063 C5068 0.949 . S
H5064 C5070 0.950 . S
H5065 C5071 0.950 . S
H5066 C5072 0.949 . S
C5067 H5062 0.950 . S
C5067 C5069 1.327 . S
C5067 C5073 1.429 . S
C5068 C5060 1.574 . S
C5068 H5063 0.949 . S
C5068 C5074 1.368 . S
C5069 C5053 1.349 . S
C5069 H5061 0.950 . S
C5069 C5067 1.327 . S
C5070 C5058 1.349 . S
C5070 H5064 0.950 . S
C5070 C5071 1.327 . S
C5071 H5065 0.950 . S
C5071 C5070 1.327 . S
C5071 C5075 1.429 . S
C5072 C5055 1.574 . S
C5072 H5066 0.949 . S
C5072 C5076 1.368 . S
C5073 C5054 1.429 . S
C5073 C5067 1.429 . S
C5073 C5074 1.523 . S
C5074 C5055 1.368 . S
C5074 C5068 1.368 . S
C5074 C5073 1.523 . S
C5075 C5059 1.429 . S
C5075 C5071 1.429 . S
C5075 C5076 1.523 . S
C5076 C5060 1.368 . S
C5076 C5072 1.368 . S
C5076 C5075 1.523 . S
H5077 C5052 0.950 . S
H5078 C5054 0.950 . S
H5079 C5055 0.949 . S
H5080 C5057 0.950 . S
H5081 C5059 0.950 . S
C5082 C5083 1.349 . S
C5082 C5084 1.327 . S
C5082 H5107 0.950 . S
C5083 C5082 1.349 . S
C5083 C5099 1.349 . S
C5084 C5082 1.327 . S
C5084 C5103 1.429 . S
C5084 H5108 0.950 . S
C5085 C5102 1.574 . S
C5085 C5104 1.368 . S
C5085 H5109 0.949 . S
H5086 C5090 0.949 . S
C5087 C5088 1.349 . S
C5087 C5089 1.327 . S
C5087 H5110 0.950 . S
C5088 C5087 1.349 . S
C5088 C5100 1.349 . S
C5089 C5087 1.327 . S
C5089 C5105 1.429 . S
C5089 H5111 0.950 . S
C5090 H5086 0.949 . S
C5090 C5098 1.574 . S
C5090 C5106 1.368 . S
H5091 C5099 0.950 . S
H5092 C5097 0.950 . S
H5093 C5098 0.949 . S
H5094 C5100 0.950 . S
H5095 C5101 0.950 . S
H5096 C5102 0.949 . S
C5097 H5092 0.950 . S
C5097 C5099 1.327 . S
C5097 C5103 1.429 . S
C5098 C5090 1.574 . S
C5098 H5093 0.949 . S
C5098 C5104 1.368 . S
C5099 C5083 1.349 . S
C5099 H5091 0.950 . S
C5099 C5097 1.327 . S
C5100 C5088 1.349 . S
C5100 H5094 0.950 . S
C5100 C5101 1.327 . S
C5101 H5095 0.950 . S
C5101 C5100 1.327 . S
C5101 C5105 1.429 . S
C5102 C5085 1.574 . S
C5102 H5096 0.949 . S
C5102 C5106 1.368 . S
C5103 C5084 1.429 . S
C5103 C5097 1.429 . S
C5103 C5104 1.523 . S
C5104 C5085 1.368 . S
C5104 C5098 1.368 . S
C5104 C5103 1.523 . S
C5105 C5089 1.429 . S
C5105 C5101 1.429 . S
C5105 C5106 1.523 . S
C5106 C5090 1.368 . S
C5106 C5102 1.368 . S
C5106 C5105 1.523 . S
H5107 C5082 0.950 . S
H5108 C5084 0.950 . S
H5109 C5085 0.949 . S
H5110 C5087 0.950 . S
H5111 C5089 0.950 . S
C5112 C5113 1.349 . S
C5112 C5114 1.327 . S
C5112 H5137 0.950 . S
C5113 C5112 1.349 . S
C5113 C5129 1.349 . S
C5114 C5112 1.327 . S
C5114 C5133 1.429 . S
C5114 H5138 0.950 . S
C5115 C5132 1.574 . S
C5115 C5134 1.368 . S
C5115 H5139 0.949 . S
H5116 C5120 0.949 . S
C5117 C5118 1.349 . S
C5117 C5119 1.327 . S
C5117 H5140 0.950 . S
C5118 C5117 1.349 . S
C5118 C5130 1.349 . S
C5119 C5117 1.327 . S
C5119 C5135 1.429 . S
C5119 H5141 0.950 . S
C5120 H5116 0.949 . S
C5120 C5128 1.574 . S
C5120 C5136 1.368 . S
H5121 C5129 0.950 . S
H5122 C5127 0.950 . S
H5123 C5128 0.949 . S
H5124 C5130 0.950 . S
H5125 C5131 0.950 . S
H5126 C5132 0.949 . S
C5127 H5122 0.950 . S
C5127 C5129 1.327 . S
C5127 C5133 1.429 . S
C5128 C5120 1.574 . S
C5128 H5123 0.949 . S
C5128 C5134 1.368 . S
C5129 C5113 1.349 . S
C5129 H5121 0.950 . S
C5129 C5127 1.327 . S
C5130 C5118 1.349 . S
C5130 H5124 0.950 . S
C5130 C5131 1.327 . S
C5131 H5125 0.950 . S
C5131 C5130 1.327 . S
C5131 C5135 1.429 . S
C5132 C5115 1.574 . S
C5132 H5126 0.949 . S
C5132 C5136 1.368 . S
C5133 C5114 1.429 . S
C5133 C5127 1.429 . S
C5133 C5134 1.523 . S
C5134 C5115 1.368 . S
C5134 C5128 1.368 . S
C5134 C5133 1.523 . S
C5135 C5119 1.429 . S
C5135 C5131 1.429 . S
C5135 C5136 1.523 . S
C5136 C5120 1.368 . S
C5136 C5132 1.368 . S
C5136 C5135 1.523 . S
H5137 C5112 0.950 . S
H5138 C5114 0.950 . S
H5139 C5115 0.949 . S
H5140 C5117 0.950 . S
H5141 C5119 0.950 . S
C5142 C5143 1.349 . S
C5142 C5144 1.327 . S
C5142 H5167 0.950 . S
C5143 C5142 1.349 . S
C5143 C5159 1.349 . S
C5144 C5142 1.327 . S
C5144 C5163 1.429 . S
C5144 H5168 0.950 . S
C5145 C5162 1.574 . S
C5145 C5164 1.368 . S
C5145 H5169 0.949 . S
H5146 C5150 0.949 . S
C5147 C5148 1.349 . S
C5147 C5149 1.327 . S
C5147 H5170 0.950 . S
C5148 C5147 1.349 . S
C5148 C5160 1.349 . S
C5149 C5147 1.327 . S
C5149 C5165 1.429 . S
C5149 H5171 0.950 . S
C5150 H5146 0.949 . S
C5150 C5158 1.574 . S
C5150 C5166 1.368 . S
H5151 C5159 0.950 . S
H5152 C5157 0.950 . S
H5153 C5158 0.949 . S
H5154 C5160 0.950 . S
H5155 C5161 0.950 . S
H5156 C5162 0.949 . S
C5157 H5152 0.950 . S
C5157 C5159 1.327 . S
C5157 C5163 1.429 . S
C5158 C5150 1.574 . S
C5158 H5153 0.949 . S
C5158 C5164 1.368 . S
C5159 C5143 1.349 . S
C5159 H5151 0.950 . S
C5159 C5157 1.327 . S
C5160 C5148 1.349 . S
C5160 H5154 0.950 . S
C5160 C5161 1.327 . S
C5161 H5155 0.950 . S
C5161 C5160 1.327 . S
C5161 C5165 1.429 . S
C5162 C5145 1.574 . S
C5162 H5156 0.949 . S
C5162 C5166 1.368 . S
C5163 C5144 1.429 . S
C5163 C5157 1.429 . S
C5163 C5164 1.523 . S
C5164 C5145 1.368 . S
C5164 C5158 1.368 . S
C5164 C5163 1.523 . S
C5165 C5149 1.429 . S
C5165 C5161 1.429 . S
C5165 C5166 1.523 . S
C5166 C5150 1.368 . S
C5166 C5162 1.368 . S
C5166 C5165 1.523 . S
H5167 C5142 0.950 . S
H5168 C5144 0.950 . S
H5169 C5145 0.949 . S
H5170 C5147 0.950 . S
H5171 C5149 0.950 . S
C5172 C5173 1.349 . S
C5172 C5174 1.327 . S
C5172 H5197 0.950 . S
C5173 C5172 1.349 . S
C5173 C5189 1.349 . S
C5174 C5172 1.327 . S
C5174 C5193 1.429 . S
C5174 H5198 0.950 . S
C5175 C5192 1.574 . S
C5175 C5194 1.368 . S
C5175 H5199 0.949 . S
H5176 C5180 0.949 . S
C5177 C5178 1.349 . S
C5177 C5179 1.327 . S
C5177 H5200 0.950 . S
C5178 C5177 1.349 . S
C5178 C5190 1.349 . S
C5179 C5177 1.327 . S
C5179 C5195 1.429 . S
C5179 H5201 0.950 . S
C5180 H5176 0.949 . S
C5180 C5188 1.574 . S
C5180 C5196 1.368 . S
H5181 C5189 0.950 . S
H5182 C5187 0.950 . S
H5183 C5188 0.949 . S
H5184 C5190 0.950 . S
H5185 C5191 0.950 . S
H5186 C5192 0.949 . S
C5187 H5182 0.950 . S
C5187 C5189 1.327 . S
C5187 C5193 1.429 . S
C5188 C5180 1.574 . S
C5188 H5183 0.949 . S
C5188 C5194 1.368 . S
C5189 C5173 1.349 . S
C5189 H5181 0.950 . S
C5189 C5187 1.327 . S
C5190 C5178 1.349 . S
C5190 H5184 0.950 . S
C5190 C5191 1.327 . S
C5191 H5185 0.950 . S
C5191 C5190 1.327 . S
C5191 C5195 1.429 . S
C5192 C5175 1.574 . S
C5192 H5186 0.949 . S
C5192 C5196 1.368 . S
C5193 C5174 1.429 . S
C5193 C5187 1.429 . S
C5193 C5194 1.523 . S
C5194 C5175 1.368 . S
C5194 C5188 1.368 . S
C5194 C5193 1.523 . S
C5195 C5179 1.429 . S
C5195 C5191 1.429 . S
C5195 C5196 1.523 . S
C5196 C5180 1.368 . S
C5196 C5192 1.368 . S
C5196 C5195 1.523 . S
H5197 C5172 0.950 . S
H5198 C5174 0.950 . S
H5199 C5175 0.949 . S
H5200 C5177 0.950 . S
H5201 C5179 0.950 . S
C5202 C5203 1.349 . S
C5202 C5204 1.327 . S
C5202 H5227 0.950 . S
C5203 C5202 1.349 . S
C5203 C5219 1.349 . S
C5204 C5202 1.327 . S
C5204 C5223 1.429 . S
C5204 H5228 0.950 . S
C5205 C5222 1.574 . S
C5205 C5224 1.368 . S
C5205 H5229 0.949 . S
H5206 C5210 0.949 . S
C5207 C5208 1.349 . S
C5207 C5209 1.327 . S
C5207 H5230 0.950 . S
C5208 C5207 1.349 . S
C5208 C5220 1.349 . S
C5209 C5207 1.327 . S
C5209 C5225 1.429 . S
C5209 H5231 0.950 . S
C5210 H5206 0.949 . S
C5210 C5218 1.574 . S
C5210 C5226 1.368 . S
H5211 C5219 0.950 . S
H5212 C5217 0.950 . S
H5213 C5218 0.949 . S
H5214 C5220 0.950 . S
H5215 C5221 0.950 . S
H5216 C5222 0.949 . S
C5217 H5212 0.950 . S
C5217 C5219 1.327 . S
C5217 C5223 1.429 . S
C5218 C5210 1.574 . S
C5218 H5213 0.949 . S
C5218 C5224 1.368 . S
C5219 C5203 1.349 . S
C5219 H5211 0.950 . S
C5219 C5217 1.327 . S
C5220 C5208 1.349 . S
C5220 H5214 0.950 . S
C5220 C5221 1.327 . S
C5221 H5215 0.950 . S
C5221 C5220 1.327 . S
C5221 C5225 1.429 . S
C5222 C5205 1.574 . S
C5222 H5216 0.949 . S
C5222 C5226 1.368 . S
C5223 C5204 1.429 . S
C5223 C5217 1.429 . S
C5223 C5224 1.523 . S
C5224 C5205 1.368 . S
C5224 C5218 1.368 . S
C5224 C5223 1.523 . S
C5225 C5209 1.429 . S
C5225 C5221 1.429 . S
C5225 C5226 1.523 . S
C5226 C5210 1.368 . S
C5226 C5222 1.368 . S
C5226 C5225 1.523 . S
H5227 C5202 0.950 . S
H5228 C5204 0.950 . S
H5229 C5205 0.949 . S
H5230 C5207 0.950 . S
H5231 C5209 0.950 . S
C5232 C5233 1.349 . S
C5232 C5234 1.327 . S
C5232 H5257 0.950 . S
C5233 C5232 1.349 . S
C5233 C5249 1.349 . S
C5234 C5232 1.327 . S
C5234 C5253 1.429 . S
C5234 H5258 0.950 . S
C5235 C5252 1.574 . S
C5235 C5254 1.368 . S
C5235 H5259 0.949 . S
H5236 C5240 0.949 . S
C5237 C5238 1.349 . S
C5237 C5239 1.327 . S
C5237 H5260 0.950 . S
C5238 C5237 1.349 . S
C5238 C5250 1.349 . S
C5239 C5237 1.327 . S
C5239 C5255 1.429 . S
C5239 H5261 0.950 . S
C5240 H5236 0.949 . S
C5240 C5248 1.574 . S
C5240 C5256 1.368 . S
H5241 C5249 0.950 . S
H5242 C5247 0.950 . S
H5243 C5248 0.949 . S
H5244 C5250 0.950 . S
H5245 C5251 0.950 . S
H5246 C5252 0.949 . S
C5247 H5242 0.950 . S
C5247 C5249 1.327 . S
C5247 C5253 1.429 . S
C5248 C5240 1.574 . S
C5248 H5243 0.949 . S
C5248 C5254 1.368 . S
C5249 C5233 1.349 . S
C5249 H5241 0.950 . S
C5249 C5247 1.327 . S
C5250 C5238 1.349 . S
C5250 H5244 0.950 . S
C5250 C5251 1.327 . S
C5251 H5245 0.950 . S
C5251 C5250 1.327 . S
C5251 C5255 1.429 . S
C5252 C5235 1.574 . S
C5252 H5246 0.949 . S
C5252 C5256 1.368 . S
C5253 C5234 1.429 . S
C5253 C5247 1.429 . S
C5253 C5254 1.523 . S
C5254 C5235 1.368 . S
C5254 C5248 1.368 . S
C5254 C5253 1.523 . S
C5255 C5239 1.429 . S
C5255 C5251 1.429 . S
C5255 C5256 1.523 . S
C5256 C5240 1.368 . S
C5256 C5252 1.368 . S
C5256 C5255 1.523 . S
H5257 C5232 0.950 . S
H5258 C5234 0.950 . S
H5259 C5235 0.949 . S
H5260 C5237 0.950 . S
H5261 C5239 0.950 . S
C5262 C5263 1.349 . S
C5262 C5264 1.327 . S
C5262 H5287 0.950 . S
C5263 C5262 1.349 . S
C5263 C5279 1.349 . S
C5264 C5262 1.327 . S
C5264 C5283 1.429 . S
C5264 H5288 0.950 . S
C5265 C5282 1.574 . S
C5265 C5284 1.368 . S
C5265 H5289 0.949 . S
H5266 C5270 0.949 . S
C5267 C5268 1.349 . S
C5267 C5269 1.327 . S
C5267 H5290 0.950 . S
C5268 C5267 1.349 . S
C5268 C5280 1.349 . S
C5269 C5267 1.327 . S
C5269 C5285 1.429 . S
C5269 H5291 0.950 . S
C5270 H5266 0.949 . S
C5270 C5278 1.574 . S
C5270 C5286 1.368 . S
H5271 C5279 0.950 . S
H5272 C5277 0.950 . S
H5273 C5278 0.949 . S
H5274 C5280 0.950 . S
H5275 C5281 0.950 . S
H5276 C5282 0.949 . S
C5277 H5272 0.950 . S
C5277 C5279 1.327 . S
C5277 C5283 1.429 . S
C5278 C5270 1.574 . S
C5278 H5273 0.949 . S
C5278 C5284 1.368 . S
C5279 C5263 1.349 . S
C5279 H5271 0.950 . S
C5279 C5277 1.327 . S
C5280 C5268 1.349 . S
C5280 H5274 0.950 . S
C5280 C5281 1.327 . S
C5281 H5275 0.950 . S
C5281 C5280 1.327 . S
C5281 C5285 1.429 . S
C5282 C5265 1.574 . S
C5282 H5276 0.949 . S
C5282 C5286 1.368 . S
C5283 C5264 1.429 . S
C5283 C5277 1.429 . S
C5283 C5284 1.523 . S
C5284 C5265 1.368 . S
C5284 C5278 1.368 . S
C5284 C5283 1.523 . S
C5285 C5269 1.429 . S
C5285 C5281 1.429 . S
C5285 C5286 1.523 . S
C5286 C5270 1.368 . S
C5286 C5282 1.368 . S
C5286 C5285 1.523 . S
H5287 C5262 0.950 . S
H5288 C5264 0.950 . S
H5289 C5265 0.949 . S
H5290 C5267 0.950 . S
H5291 C5269 0.950 . S
C5292 C5293 1.349 . S
C5292 C5294 1.327 . S
C5292 H5317 0.950 . S
C5293 C5292 1.349 . S
C5293 C5309 1.349 . S
C5294 C5292 1.327 . S
C5294 C5313 1.429 . S
C5294 H5318 0.950 . S
C5295 C5312 1.574 . S
C5295 C5314 1.368 . S
C5295 H5319 0.949 . S
H5296 C5300 0.949 . S
C5297 C5298 1.349 . S
C5297 C5299 1.327 . S
C5297 H5320 0.950 . S
C5298 C5297 1.349 . S
C5298 C5310 1.349 . S
C5299 C5297 1.327 . S
C5299 C5315 1.429 . S
C5299 H5321 0.950 . S
C5300 H5296 0.949 . S
C5300 C5308 1.574 . S
C5300 C5316 1.368 . S
H5301 C5309 0.950 . S
H5302 C5307 0.950 . S
H5303 C5308 0.949 . S
H5304 C5310 0.950 . S
H5305 C5311 0.950 . S
H5306 C5312 0.949 . S
C5307 H5302 0.950 . S
C5307 C5309 1.327 . S
C5307 C5313 1.429 . S
C5308 C5300 1.574 . S
C5308 H5303 0.949 . S
C5308 C5314 1.368 . S
C5309 C5293 1.349 . S
C5309 H5301 0.950 . S
C5309 C5307 1.327 . S
C5310 C5298 1.349 . S
C5310 H5304 0.950 . S
C5310 C5311 1.327 . S
C5311 H5305 0.950 . S
C5311 C5310 1.327 . S
C5311 C5315 1.429 . S
C5312 C5295 1.574 . S
C5312 H5306 0.949 . S
C5312 C5316 1.368 . S
C5313 C5294 1.429 . S
C5313 C5307 1.429 . S
C5313 C5314 1.523 . S
C5314 C5295 1.368 . S
C5314 C5308 1.368 . S
C5314 C5313 1.523 . S
C5315 C5299 1.429 . S
C5315 C5311 1.429 . S
C5315 C5316 1.523 . S
C5316 C5300 1.368 . S
C5316 C5312 1.368 . S
C5316 C5315 1.523 . S
H5317 C5292 0.950 . S
H5318 C5294 0.950 . S
H5319 C5295 0.949 . S
H5320 C5297 0.950 . S
H5321 C5299 0.950 . S
C5322 C5323 1.349 . S
C5322 C5324 1.327 . S
C5322 H5347 0.950 . S
C5323 C5322 1.349 . S
C5323 C5339 1.349 . S
C5324 C5322 1.327 . S
C5324 C5343 1.429 . S
C5324 H5348 0.950 . S
C5325 C5342 1.574 . S
C5325 C5344 1.368 . S
C5325 H5349 0.949 . S
H5326 C5330 0.949 . S
C5327 C5328 1.349 . S
C5327 C5329 1.327 . S
C5327 H5350 0.950 . S
C5328 C5327 1.349 . S
C5328 C5340 1.349 . S
C5329 C5327 1.327 . S
C5329 C5345 1.429 . S
C5329 H5351 0.950 . S
C5330 H5326 0.949 . S
C5330 C5338 1.574 . S
C5330 C5346 1.368 . S
H5331 C5339 0.950 . S
H5332 C5337 0.950 . S
H5333 C5338 0.949 . S
H5334 C5340 0.950 . S
H5335 C5341 0.950 . S
H5336 C5342 0.949 . S
C5337 H5332 0.950 . S
C5337 C5339 1.327 . S
C5337 C5343 1.429 . S
C5338 C5330 1.574 . S
C5338 H5333 0.949 . S
C5338 C5344 1.368 . S
C5339 C5323 1.349 . S
C5339 H5331 0.950 . S
C5339 C5337 1.327 . S
C5340 C5328 1.349 . S
C5340 H5334 0.950 . S
C5340 C5341 1.327 . S
C5341 H5335 0.950 . S
C5341 C5340 1.327 . S
C5341 C5345 1.429 . S
C5342 C5325 1.574 . S
C5342 H5336 0.949 . S
C5342 C5346 1.368 . S
C5343 C5324 1.429 . S
C5343 C5337 1.429 . S
C5343 C5344 1.523 . S
C5344 C5325 1.368 . S
C5344 C5338 1.368 . S
C5344 C5343 1.523 . S
C5345 C5329 1.429 . S
C5345 C5341 1.429 . S
C5345 C5346 1.523 . S
C5346 C5330 1.368 . S
C5346 C5342 1.368 . S
C5346 C5345 1.523 . S
H5347 C5322 0.950 . S
H5348 C5324 0.950 . S
H5349 C5325 0.949 . S
H5350 C5327 0.950 . S
H5351 C5329 0.950 . S
C5352 C5353 1.349 . S
C5352 C5354 1.327 . S
C5352 H5377 0.950 . S
C5353 C5352 1.349 . S
C5353 C5369 1.349 . S
C5354 C5352 1.327 . S
C5354 C5373 1.429 . S
C5354 H5378 0.950 . S
C5355 C5372 1.574 . S
C5355 C5374 1.368 . S
C5355 H5379 0.949 . S
H5356 C5360 0.949 . S
C5357 C5358 1.349 . S
C5357 C5359 1.327 . S
C5357 H5380 0.950 . S
C5358 C5357 1.349 . S
C5358 C5370 1.349 . S
C5359 C5357 1.327 . S
C5359 C5375 1.429 . S
C5359 H5381 0.950 . S
C5360 H5356 0.949 . S
C5360 C5368 1.574 . S
C5360 C5376 1.368 . S
H5361 C5369 0.950 . S
H5362 C5367 0.950 . S
H5363 C5368 0.949 . S
H5364 C5370 0.950 . S
H5365 C5371 0.950 . S
H5366 C5372 0.949 . S
C5367 H5362 0.950 . S
C5367 C5369 1.327 . S
C5367 C5373 1.429 . S
C5368 C5360 1.574 . S
C5368 H5363 0.949 . S
C5368 C5374 1.368 . S
C5369 C5353 1.349 . S
C5369 H5361 0.950 . S
C5369 C5367 1.327 . S
C5370 C5358 1.349 . S
C5370 H5364 0.950 . S
C5370 C5371 1.327 . S
C5371 H5365 0.950 . S
C5371 C5370 1.327 . S
C5371 C5375 1.429 . S
C5372 C5355 1.574 . S
C5372 H5366 0.949 . S
C5372 C5376 1.368 . S
C5373 C5354 1.429 . S
C5373 C5367 1.429 . S
C5373 C5374 1.523 . S
C5374 C5355 1.368 . S
C5374 C5368 1.368 . S
C5374 C5373 1.523 . S
C5375 C5359 1.429 . S
C5375 C5371 1.429 . S
C5375 C5376 1.523 . S
C5376 C5360 1.368 . S
C5376 C5372 1.368 . S
C5376 C5375 1.523 . S
H5377 C5352 0.950 . S
H5378 C5354 0.950 . S
H5379 C5355 0.949 . S
H5380 C5357 0.950 . S
H5381 C5359 0.950 . S
C5382 C5383 1.349 . S
C5382 C5384 1.327 . S
C5382 H5407 0.950 . S
C5383 C5382 1.349 . S
C5383 C5399 1.349 . S
C5384 C5382 1.327 . S
C5384 C5403 1.429 . S
C5384 H5408 0.950 . S
C5385 C5402 1.574 . S
C5385 C5404 1.368 . S
C5385 H5409 0.949 . S
H5386 C5390 0.949 . S
C5387 C5388 1.349 . S
C5387 C5389 1.327 . S
C5387 H5410 0.950 . S
C5388 C5387 1.349 . S
C5388 C5400 1.349 . S
C5389 C5387 1.327 . S
C5389 C5405 1.429 . S
C5389 H5411 0.950 . S
C5390 H5386 0.949 . S
C5390 C5398 1.574 . S
C5390 C5406 1.368 . S
H5391 C5399 0.950 . S
H5392 C5397 0.950 . S
H5393 C5398 0.949 . S
H5394 C5400 0.950 . S
H5395 C5401 0.950 . S
H5396 C5402 0.949 . S
C5397 H5392 0.950 . S
C5397 C5399 1.327 . S
C5397 C5403 1.429 . S
C5398 C5390 1.574 . S
C5398 H5393 0.949 . S
C5398 C5404 1.368 . S
C5399 C5383 1.349 . S
C5399 H5391 0.950 . S
C5399 C5397 1.327 . S
C5400 C5388 1.349 . S
C5400 H5394 0.950 . S
C5400 C5401 1.327 . S
C5401 H5395 0.950 . S
C5401 C5400 1.327 . S
C5401 C5405 1.429 . S
C5402 C5385 1.574 . S
C5402 H5396 0.949 . S
C5402 C5406 1.368 . S
C5403 C5384 1.429 . S
C5403 C5397 1.429 . S
C5403 C5404 1.523 . S
C5404 C5385 1.368 . S
C5404 C5398 1.368 . S
C5404 C5403 1.523 . S
C5405 C5389 1.429 . S
C5405 C5401 1.429 . S
C5405 C5406 1.523 . S
C5406 C5390 1.368 . S
C5406 C5402 1.368 . S
C5406 C5405 1.523 . S
H5407 C5382 0.950 . S
H5408 C5384 0.950 . S
H5409 C5385 0.949 . S
H5410 C5387 0.950 . S
H5411 C5389 0.950 . S
C5412 C5413 1.349 . S
C5412 C5414 1.327 . S
C5412 H5437 0.950 . S
C5413 C5412 1.349 . S
C5413 C5429 1.349 . S
C5414 C5412 1.327 . S
C5414 C5433 1.429 . S
C5414 H5438 0.950 . S
C5415 C5432 1.574 . S
C5415 C5434 1.368 . S
C5415 H5439 0.949 . S
H5416 C5420 0.949 . S
C5417 C5418 1.349 . S
C5417 C5419 1.327 . S
C5417 H5440 0.950 . S
C5418 C5417 1.349 . S
C5418 C5430 1.349 . S
C5419 C5417 1.327 . S
C5419 C5435 1.429 . S
C5419 H5441 0.950 . S
C5420 H5416 0.949 . S
C5420 C5428 1.574 . S
C5420 C5436 1.368 . S
H5421 C5429 0.950 . S
H5422 C5427 0.950 . S
H5423 C5428 0.949 . S
H5424 C5430 0.950 . S
H5425 C5431 0.950 . S
H5426 C5432 0.949 . S
C5427 H5422 0.950 . S
C5427 C5429 1.327 . S
C5427 C5433 1.429 . S
C5428 C5420 1.574 . S
C5428 H5423 0.949 . S
C5428 C5434 1.368 . S
C5429 C5413 1.349 . S
C5429 H5421 0.950 . S
C5429 C5427 1.327 . S
C5430 C5418 1.349 . S
C5430 H5424 0.950 . S
C5430 C5431 1.327 . S
C5431 H5425 0.950 . S
C5431 C5430 1.327 . S
C5431 C5435 1.429 . S
C5432 C5415 1.574 . S
C5432 H5426 0.949 . S
C5432 C5436 1.368 . S
C5433 C5414 1.429 . S
C5433 C5427 1.429 . S
C5433 C5434 1.523 . S
C5434 C5415 1.368 . S
C5434 C5428 1.368 . S
C5434 C5433 1.523 . S
C5435 C5419 1.429 . S
C5435 C5431 1.429 . S
C5435 C5436 1.523 . S
C5436 C5420 1.368 . S
C5436 C5432 1.368 . S
C5436 C5435 1.523 . S
H5437 C5412 0.950 . S
H5438 C5414 0.950 . S
H5439 C5415 0.949 . S
H5440 C5417 0.950 . S
H5441 C5419 0.950 . S
C5442 C5443 1.349 . S
C5442 C5444 1.327 . S
C5442 H5467 0.950 . S
C5443 C5442 1.349 . S
C5443 C5459 1.349 . S
C5444 C5442 1.327 . S
C5444 C5463 1.429 . S
C5444 H5468 0.950 . S
C5445 C5462 1.574 . S
C5445 C5464 1.368 . S
C5445 H5469 0.949 . S
H5446 C5450 0.949 . S
C5447 C5448 1.349 . S
C5447 C5449 1.327 . S
C5447 H5470 0.950 . S
C5448 C5447 1.349 . S
C5448 C5460 1.349 . S
C5449 C5447 1.327 . S
C5449 C5465 1.429 . S
C5449 H5471 0.950 . S
C5450 H5446 0.949 . S
C5450 C5458 1.574 . S
C5450 C5466 1.368 . S
H5451 C5459 0.950 . S
H5452 C5457 0.950 . S
H5453 C5458 0.949 . S
H5454 C5460 0.950 . S
H5455 C5461 0.950 . S
H5456 C5462 0.949 . S
C5457 H5452 0.950 . S
C5457 C5459 1.327 . S
C5457 C5463 1.429 . S
C5458 C5450 1.574 . S
C5458 H5453 0.949 . S
C5458 C5464 1.368 . S
C5459 C5443 1.349 . S
C5459 H5451 0.950 . S
C5459 C5457 1.327 . S
C5460 C5448 1.349 . S
C5460 H5454 0.950 . S
C5460 C5461 1.327 . S
C5461 H5455 0.950 . S
C5461 C5460 1.327 . S
C5461 C5465 1.429 . S
C5462 C5445 1.574 . S
C5462 H5456 0.949 . S
C5462 C5466 1.368 . S
C5463 C5444 1.429 . S
C5463 C5457 1.429 . S
C5463 C5464 1.523 . S
C5464 C5445 1.368 . S
C5464 C5458 1.368 . S
C5464 C5463 1.523 . S
C5465 C5449 1.429 . S
C5465 C5461 1.429 . S
C5465 C5466 1.523 . S
C5466 C5450 1.368 . S
C5466 C5462 1.368 . S
C5466 C5465 1.523 . S
H5467 C5442 0.950 . S
H5468 C5444 0.950 . S
H5469 C5445 0.949 . S
H5470 C5447 0.950 . S
H5471 C5449 0.950 . S
C5472 C5473 1.349 . S
C5472 C5474 1.327 . S
C5472 H5497 0.950 . S
C5473 C5472 1.349 . S
C5473 C5489 1.349 . S
C5474 C5472 1.327 . S
C5474 C5493 1.429 . S
C5474 H5498 0.950 . S
C5475 C5492 1.574 . S
C5475 C5494 1.368 . S
C5475 H5499 0.949 . S
H5476 C5480 0.949 . S
C5477 C5478 1.349 . S
C5477 C5479 1.327 . S
C5477 H5500 0.950 . S
C5478 C5477 1.349 . S
C5478 C5490 1.349 . S
C5479 C5477 1.327 . S
C5479 C5495 1.429 . S
C5479 H5501 0.950 . S
C5480 H5476 0.949 . S
C5480 C5488 1.574 . S
C5480 C5496 1.368 . S
H5481 C5489 0.950 . S
H5482 C5487 0.950 . S
H5483 C5488 0.949 . S
H5484 C5490 0.950 . S
H5485 C5491 0.950 . S
H5486 C5492 0.949 . S
C5487 H5482 0.950 . S
C5487 C5489 1.327 . S
C5487 C5493 1.429 . S
C5488 C5480 1.574 . S
C5488 H5483 0.949 . S
C5488 C5494 1.368 . S
C5489 C5473 1.349 . S
C5489 H5481 0.950 . S
C5489 C5487 1.327 . S
C5490 C5478 1.349 . S
C5490 H5484 0.950 . S
C5490 C5491 1.327 . S
C5491 H5485 0.950 . S
C5491 C5490 1.327 . S
C5491 C5495 1.429 . S
C5492 C5475 1.574 . S
C5492 H5486 0.949 . S
C5492 C5496 1.368 . S
C5493 C5474 1.429 . S
C5493 C5487 1.429 . S
C5493 C5494 1.523 . S
C5494 C5475 1.368 . S
C5494 C5488 1.368 . S
C5494 C5493 1.523 . S
C5495 C5479 1.429 . S
C5495 C5491 1.429 . S
C5495 C5496 1.523 . S
C5496 C5480 1.368 . S
C5496 C5492 1.368 . S
C5496 C5495 1.523 . S
H5497 C5472 0.950 . S
H5498 C5474 0.950 . S
H5499 C5475 0.949 . S
H5500 C5477 0.950 . S
H5501 C5479 0.950 . S
C5502 C5503 1.349 . S
C5502 C5504 1.327 . S
C5502 H5527 0.950 . S
C5503 C5502 1.349 . S
C5503 C5519 1.349 . S
C5504 C5502 1.327 . S
C5504 C5523 1.429 . S
C5504 H5528 0.950 . S
C5505 C5522 1.574 . S
C5505 C5524 1.368 . S
C5505 H5529 0.949 . S
H5506 C5510 0.949 . S
C5507 C5508 1.349 . S
C5507 C5509 1.327 . S
C5507 H5530 0.950 . S
C5508 C5507 1.349 . S
C5508 C5520 1.349 . S
C5509 C5507 1.327 . S
C5509 C5525 1.429 . S
C5509 H5531 0.950 . S
C5510 H5506 0.949 . S
C5510 C5518 1.574 . S
C5510 C5526 1.368 . S
H5511 C5519 0.950 . S
H5512 C5517 0.950 . S
H5513 C5518 0.949 . S
H5514 C5520 0.950 . S
H5515 C5521 0.950 . S
H5516 C5522 0.949 . S
C5517 H5512 0.950 . S
C5517 C5519 1.327 . S
C5517 C5523 1.429 . S
C5518 C5510 1.574 . S
C5518 H5513 0.949 . S
C5518 C5524 1.368 . S
C5519 C5503 1.349 . S
C5519 H5511 0.950 . S
C5519 C5517 1.327 . S
C5520 C5508 1.349 . S
C5520 H5514 0.950 . S
C5520 C5521 1.327 . S
C5521 H5515 0.950 . S
C5521 C5520 1.327 . S
C5521 C5525 1.429 . S
C5522 C5505 1.574 . S
C5522 H5516 0.949 . S
C5522 C5526 1.368 . S
C5523 C5504 1.429 . S
C5523 C5517 1.429 . S
C5523 C5524 1.523 . S
C5524 C5505 1.368 . S
C5524 C5518 1.368 . S
C5524 C5523 1.523 . S
C5525 C5509 1.429 . S
C5525 C5521 1.429 . S
C5525 C5526 1.523 . S
C5526 C5510 1.368 . S
C5526 C5522 1.368 . S
C5526 C5525 1.523 . S
H5527 C5502 0.950 . S
H5528 C5504 0.950 . S
H5529 C5505 0.949 . S
H5530 C5507 0.950 . S
H5531 C5509 0.950 . S
C5532 C5533 1.349 . S
C5532 C5534 1.327 . S
C5532 H5557 0.950 . S
C5533 C5532 1.349 . S
C5533 C5549 1.349 . S
C5534 C5532 1.327 . S
C5534 C5553 1.429 . S
C5534 H5558 0.950 . S
C5535 C5552 1.574 . S
C5535 C5554 1.368 . S
C5535 H5559 0.949 . S
H5536 C5540 0.949 . S
C5537 C5538 1.349 . S
C5537 C5539 1.327 . S
C5537 H5560 0.950 . S
C5538 C5537 1.349 . S
C5538 C5550 1.349 . S
C5539 C5537 1.327 . S
C5539 C5555 1.429 . S
C5539 H5561 0.950 . S
C5540 H5536 0.949 . S
C5540 C5548 1.574 . S
C5540 C5556 1.368 . S
H5541 C5549 0.950 . S
H5542 C5547 0.950 . S
H5543 C5548 0.949 . S
H5544 C5550 0.950 . S
H5545 C5551 0.950 . S
H5546 C5552 0.949 . S
C5547 H5542 0.950 . S
C5547 C5549 1.327 . S
C5547 C5553 1.429 . S
C5548 C5540 1.574 . S
C5548 H5543 0.949 . S
C5548 C5554 1.368 . S
C5549 C5533 1.349 . S
C5549 H5541 0.950 . S
C5549 C5547 1.327 . S
C5550 C5538 1.349 . S
C5550 H5544 0.950 . S
C5550 C5551 1.327 . S
C5551 H5545 0.950 . S
C5551 C5550 1.327 . S
C5551 C5555 1.429 . S
C5552 C5535 1.574 . S
C5552 H5546 0.949 . S
C5552 C5556 1.368 . S
C5553 C5534 1.429 . S
C5553 C5547 1.429 . S
C5553 C5554 1.523 . S
C5554 C5535 1.368 . S
C5554 C5548 1.368 . S
C5554 C5553 1.523 . S
C5555 C5539 1.429 . S
C5555 C5551 1.429 . S
C5555 C5556 1.523 . S
C5556 C5540 1.368 . S
C5556 C5552 1.368 . S
C5556 C5555 1.523 . S
H5557 C5532 0.950 . S
H5558 C5534 0.950 . S
H5559 C5535 0.949 . S
H5560 C5537 0.950 . S
H5561 C5539 0.950 . S
C5562 C5563 1.349 . S
C5562 C5564 1.327 . S
C5562 H5587 0.950 . S
C5563 C5562 1.349 . S
C5563 C5579 1.349 . S
C5564 C5562 1.327 . S
C5564 C5583 1.429 . S
C5564 H5588 0.950 . S
C5565 C5582 1.574 . S
C5565 C5584 1.368 . S
C5565 H5589 0.949 . S
H5566 C5570 0.949 . S
C5567 C5568 1.349 . S
C5567 C5569 1.327 . S
C5567 H5590 0.950 . S
C5568 C5567 1.349 . S
C5568 C5580 1.349 . S
C5569 C5567 1.327 . S
C5569 C5585 1.429 . S
C5569 H5591 0.950 . S
C5570 H5566 0.949 . S
C5570 C5578 1.574 . S
C5570 C5586 1.368 . S
H5571 C5579 0.950 . S
H5572 C5577 0.950 . S
H5573 C5578 0.949 . S
H5574 C5580 0.950 . S
H5575 C5581 0.950 . S
H5576 C5582 0.949 . S
C5577 H5572 0.950 . S
C5577 C5579 1.327 . S
C5577 C5583 1.429 . S
C5578 C5570 1.574 . S
C5578 H5573 0.949 . S
C5578 C5584 1.368 . S
C5579 C5563 1.349 . S
C5579 H5571 0.950 . S
C5579 C5577 1.327 . S
C5580 C5568 1.349 . S
C5580 H5574 0.950 . S
C5580 C5581 1.327 . S
C5581 H5575 0.950 . S
C5581 C5580 1.327 . S
C5581 C5585 1.429 . S
C5582 C5565 1.574 . S
C5582 H5576 0.949 . S
C5582 C5586 1.368 . S
C5583 C5564 1.429 . S
C5583 C5577 1.429 . S
C5583 C5584 1.523 . S
C5584 C5565 1.368 . S
C5584 C5578 1.368 . S
C5584 C5583 1.523 . S
C5585 C5569 1.429 . S
C5585 C5581 1.429 . S
C5585 C5586 1.523 . S
C5586 C5570 1.368 . S
C5586 C5582 1.368 . S
C5586 C5585 1.523 . S
H5587 C5562 0.950 . S
H5588 C5564 0.950 . S
H5589 C5565 0.949 . S
H5590 C5567 0.950 . S
H5591 C5569 0.950 . S
C5592 C5593 1.349 . S
C5592 C5594 1.327 . S
C5592 H5617 0.950 . S
C5593 C5592 1.349 . S
C5593 C5609 1.349 . S
C5594 C5592 1.327 . S
C5594 C5613 1.429 . S
C5594 H5618 0.950 . S
C5595 C5612 1.574 . S
C5595 C5614 1.368 . S
C5595 H5619 0.949 . S
H5596 C5600 0.949 . S
C5597 C5598 1.349 . S
C5597 C5599 1.327 . S
C5597 H5620 0.950 . S
C5598 C5597 1.349 . S
C5598 C5610 1.349 . S
C5599 C5597 1.327 . S
C5599 C5615 1.429 . S
C5599 H5621 0.950 . S
C5600 H5596 0.949 . S
C5600 C5608 1.574 . S
C5600 C5616 1.368 . S
H5601 C5609 0.950 . S
H5602 C5607 0.950 . S
H5603 C5608 0.949 . S
H5604 C5610 0.950 . S
H5605 C5611 0.950 . S
H5606 C5612 0.949 . S
C5607 H5602 0.950 . S
C5607 C5609 1.327 . S
C5607 C5613 1.429 . S
C5608 C5600 1.574 . S
C5608 H5603 0.949 . S
C5608 C5614 1.368 . S
C5609 C5593 1.349 . S
C5609 H5601 0.950 . S
C5609 C5607 1.327 . S
C5610 C5598 1.349 . S
C5610 H5604 0.950 . S
C5610 C5611 1.327 . S
C5611 H5605 0.950 . S
C5611 C5610 1.327 . S
C5611 C5615 1.429 . S
C5612 C5595 1.574 . S
C5612 H5606 0.949 . S
C5612 C5616 1.368 . S
C5613 C5594 1.429 . S
C5613 C5607 1.429 . S
C5613 C5614 1.523 . S
C5614 C5595 1.368 . S
C5614 C5608 1.368 . S
C5614 C5613 1.523 . S
C5615 C5599 1.429 . S
C5615 C5611 1.429 . S
C5615 C5616 1.523 . S
C5616 C5600 1.368 . S
C5616 C5612 1.368 . S
C5616 C5615 1.523 . S
H5617 C5592 0.950 . S
H5618 C5594 0.950 . S
H5619 C5595 0.949 . S
H5620 C5597 0.950 . S
H5621 C5599 0.950 . S
C5622 C5623 1.349 . S
C5622 C5624 1.327 . S
C5622 H5647 0.950 . S
C5623 C5622 1.349 . S
C5623 C5639 1.349 . S
C5624 C5622 1.327 . S
C5624 C5643 1.429 . S
C5624 H5648 0.950 . S
C5625 C5642 1.574 . S
C5625 C5644 1.368 . S
C5625 H5649 0.949 . S
H5626 C5630 0.949 . S
C5627 C5628 1.349 . S
C5627 C5629 1.327 . S
C5627 H5650 0.950 . S
C5628 C5627 1.349 . S
C5628 C5640 1.349 . S
C5629 C5627 1.327 . S
C5629 C5645 1.429 . S
C5629 H5651 0.950 . S
C5630 H5626 0.949 . S
C5630 C5638 1.574 . S
C5630 C5646 1.368 . S
H5631 C5639 0.950 . S
H5632 C5637 0.950 . S
H5633 C5638 0.949 . S
H5634 C5640 0.950 . S
H5635 C5641 0.950 . S
H5636 C5642 0.949 . S
C5637 H5632 0.950 . S
C5637 C5639 1.327 . S
C5637 C5643 1.429 . S
C5638 C5630 1.574 . S
C5638 H5633 0.949 . S
C5638 C5644 1.368 . S
C5639 C5623 1.349 . S
C5639 H5631 0.950 . S
C5639 C5637 1.327 . S
C5640 C5628 1.349 . S
C5640 H5634 0.950 . S
C5640 C5641 1.327 . S
C5641 H5635 0.950 . S
C5641 C5640 1.327 . S
C5641 C5645 1.429 . S
C5642 C5625 1.574 . S
C5642 H5636 0.949 . S
C5642 C5646 1.368 . S
C5643 C5624 1.429 . S
C5643 C5637 1.429 . S
C5643 C5644 1.523 . S
C5644 C5625 1.368 . S
C5644 C5638 1.368 . S
C5644 C5643 1.523 . S
C5645 C5629 1.429 . S
C5645 C5641 1.429 . S
C5645 C5646 1.523 . S
C5646 C5630 1.368 . S
C5646 C5642 1.368 . S
C5646 C5645 1.523 . S
H5647 C5622 0.950 . S
H5648 C5624 0.950 . S
H5649 C5625 0.949 . S
H5650 C5627 0.950 . S
H5651 C5629 0.950 . S
C5652 C5653 1.349 . S
C5652 C5654 1.327 . S
C5652 H5677 0.950 . S
C5653 C5652 1.349 . S
C5653 C5669 1.349 . S
C5654 C5652 1.327 . S
C5654 C5673 1.429 . S
C5654 H5678 0.950 . S
C5655 C5672 1.574 . S
C5655 C5674 1.368 . S
C5655 H5679 0.949 . S
H5656 C5660 0.949 . S
C5657 C5658 1.349 . S
C5657 C5659 1.327 . S
C5657 H5680 0.950 . S
C5658 C5657 1.349 . S
C5658 C5670 1.349 . S
C5659 C5657 1.327 . S
C5659 C5675 1.429 . S
C5659 H5681 0.950 . S
C5660 H5656 0.949 . S
C5660 C5668 1.574 . S
C5660 C5676 1.368 . S
H5661 C5669 0.950 . S
H5662 C5667 0.950 . S
H5663 C5668 0.949 . S
H5664 C5670 0.950 . S
H5665 C5671 0.950 . S
H5666 C5672 0.949 . S
C5667 H5662 0.950 . S
C5667 C5669 1.327 . S
C5667 C5673 1.429 . S
C5668 C5660 1.574 . S
C5668 H5663 0.949 . S
C5668 C5674 1.368 . S
C5669 C5653 1.349 . S
C5669 H5661 0.950 . S
C5669 C5667 1.327 . S
C5670 C5658 1.349 . S
C5670 H5664 0.950 . S
C5670 C5671 1.327 . S
C5671 H5665 0.950 . S
C5671 C5670 1.327 . S
C5671 C5675 1.429 . S
C5672 C5655 1.574 . S
C5672 H5666 0.949 . S
C5672 C5676 1.368 . S
C5673 C5654 1.429 . S
C5673 C5667 1.429 . S
C5673 C5674 1.523 . S
C5674 C5655 1.368 . S
C5674 C5668 1.368 . S
C5674 C5673 1.523 . S
C5675 C5659 1.429 . S
C5675 C5671 1.429 . S
C5675 C5676 1.523 . S
C5676 C5660 1.368 . S
C5676 C5672 1.368 . S
C5676 C5675 1.523 . S
H5677 C5652 0.950 . S
H5678 C5654 0.950 . S
H5679 C5655 0.949 . S
H5680 C5657 0.950 . S
H5681 C5659 0.950 . S
C5682 C5683 1.349 . S
C5682 C5684 1.327 . S
C5682 H5707 0.950 . S
C5683 C5682 1.349 . S
C5683 C5699 1.349 . S
C5684 C5682 1.327 . S
C5684 C5703 1.429 . S
C5684 H5708 0.950 . S
C5685 C5702 1.574 . S
C5685 C5704 1.368 . S
C5685 H5709 0.949 . S
H5686 C5690 0.949 . S
C5687 C5688 1.349 . S
C5687 C5689 1.327 . S
C5687 H5710 0.950 . S
C5688 C5687 1.349 . S
C5688 C5700 1.349 . S
C5689 C5687 1.327 . S
C5689 C5705 1.429 . S
C5689 H5711 0.950 . S
C5690 H5686 0.949 . S
C5690 C5698 1.574 . S
C5690 C5706 1.368 . S
H5691 C5699 0.950 . S
H5692 C5697 0.950 . S
H5693 C5698 0.949 . S
H5694 C5700 0.950 . S
H5695 C5701 0.950 . S
H5696 C5702 0.949 . S
C5697 H5692 0.950 . S
C5697 C5699 1.327 . S
C5697 C5703 1.429 . S
C5698 C5690 1.574 . S
C5698 H5693 0.949 . S
C5698 C5704 1.368 . S
C5699 C5683 1.349 . S
C5699 H5691 0.950 . S
C5699 C5697 1.327 . S
C5700 C5688 1.349 . S
C5700 H5694 0.950 . S
C5700 C5701 1.327 . S
C5701 H5695 0.950 . S
C5701 C5700 1.327 . S
C5701 C5705 1.429 . S
C5702 C5685 1.574 . S
C5702 H5696 0.949 . S
C5702 C5706 1.368 . S
C5703 C5684 1.429 . S
C5703 C5697 1.429 . S
C5703 C5704 1.523 . S
C5704 C5685 1.368 . S
C5704 C5698 1.368 . S
C5704 C5703 1.523 . S
C5705 C5689 1.429 . S
C5705 C5701 1.429 . S
C5705 C5706 1.523 . S
C5706 C5690 1.368 . S
C5706 C5702 1.368 . S
C5706 C5705 1.523 . S
H5707 C5682 0.950 . S
H5708 C5684 0.950 . S
H5709 C5685 0.949 . S
H5710 C5687 0.950 . S
H5711 C5689 0.950 . S
C5712 C5713 1.349 . S
C5712 C5714 1.327 . S
C5712 H5737 0.950 . S
C5713 C5712 1.349 . S
C5713 C5729 1.349 . S
C5714 C5712 1.327 . S
C5714 C5733 1.429 . S
C5714 H5738 0.950 . S
C5715 C5732 1.574 . S
C5715 C5734 1.368 . S
C5715 H5739 0.949 . S
H5716 C5720 0.949 . S
C5717 C5718 1.349 . S
C5717 C5719 1.327 . S
C5717 H5740 0.950 . S
C5718 C5717 1.349 . S
C5718 C5730 1.349 . S
C5719 C5717 1.327 . S
C5719 C5735 1.429 . S
C5719 H5741 0.950 . S
C5720 H5716 0.949 . S
C5720 C5728 1.574 . S
C5720 C5736 1.368 . S
H5721 C5729 0.950 . S
H5722 C5727 0.950 . S
H5723 C5728 0.949 . S
H5724 C5730 0.950 . S
H5725 C5731 0.950 . S
H5726 C5732 0.949 . S
C5727 H5722 0.950 . S
C5727 C5729 1.327 . S
C5727 C5733 1.429 . S
C5728 C5720 1.574 . S
C5728 H5723 0.949 . S
C5728 C5734 1.368 . S
C5729 C5713 1.349 . S
C5729 H5721 0.950 . S
C5729 C5727 1.327 . S
C5730 C5718 1.349 . S
C5730 H5724 0.950 . S
C5730 C5731 1.327 . S
C5731 H5725 0.950 . S
C5731 C5730 1.327 . S
C5731 C5735 1.429 . S
C5732 C5715 1.574 . S
C5732 H5726 0.949 . S
C5732 C5736 1.368 . S
C5733 C5714 1.429 . S
C5733 C5727 1.429 . S
C5733 C5734 1.523 . S
C5734 C5715 1.368 . S
C5734 C5728 1.368 . S
C5734 C5733 1.523 . S
C5735 C5719 1.429 . S
C5735 C5731 1.429 . S
C5735 C5736 1.523 . S
C5736 C5720 1.368 . S
C5736 C5732 1.368 . S
C5736 C5735 1.523 . S
H5737 C5712 0.950 . S
H5738 C5714 0.950 . S
H5739 C5715 0.949 . S
H5740 C5717 0.950 . S
H5741 C5719 0.950 . S
C5742 C5743 1.349 . S
C5742 C5744 1.327 . S
C5742 H5767 0.950 . S
C5743 C5742 1.349 . S
C5743 C5759 1.349 . S
C5744 C5742 1.327 . S
C5744 C5763 1.429 . S
C5744 H5768 0.950 . S
C5745 C5762 1.574 . S
C5745 C5764 1.368 . S
C5745 H5769 0.949 . S
H5746 C5750 0.949 . S
C5747 C5748 1.349 . S
C5747 C5749 1.327 . S
C5747 H5770 0.950 . S
C5748 C5747 1.349 . S
C5748 C5760 1.349 . S
C5749 C5747 1.327 . S
C5749 C5765 1.429 . S
C5749 H5771 0.950 . S
C5750 H5746 0.949 . S
C5750 C5758 1.574 . S
C5750 C5766 1.368 . S
H5751 C5759 0.950 . S
H5752 C5757 0.950 . S
H5753 C5758 0.949 . S
H5754 C5760 0.950 . S
H5755 C5761 0.950 . S
H5756 C5762 0.949 . S
C5757 H5752 0.950 . S
C5757 C5759 1.327 . S
C5757 C5763 1.429 . S
C5758 C5750 1.574 . S
C5758 H5753 0.949 . S
C5758 C5764 1.368 . S
C5759 C5743 1.349 . S
C5759 H5751 0.950 . S
C5759 C5757 1.327 . S
C5760 C5748 1.349 . S
C5760 H5754 0.950 . S
C5760 C5761 1.327 . S
C5761 H5755 0.950 . S
C5761 C5760 1.327 . S
C5761 C5765 1.429 . S
C5762 C5745 1.574 . S
C5762 H5756 0.949 . S
C5762 C5766 1.368 . S
C5763 C5744 1.429 . S
C5763 C5757 1.429 . S
C5763 C5764 1.523 . S
C5764 C5745 1.368 . S
C5764 C5758 1.368 . S
C5764 C5763 1.523 . S
C5765 C5749 1.429 . S
C5765 C5761 1.429 . S
C5765 C5766 1.523 . S
C5766 C5750 1.368 . S
C5766 C5762 1.368 . S
C5766 C5765 1.523 . S
H5767 C5742 0.950 . S
H5768 C5744 0.950 . S
H5769 C5745 0.949 . S
H5770 C5747 0.950 . S
H5771 C5749 0.950 . S
C5772 C5773 1.349 . S
C5772 C5774 1.327 . S
C5772 H5797 0.950 . S
C5773 C5772 1.349 . S
C5773 C5789 1.349 . S
C5774 C5772 1.327 . S
C5774 C5793 1.429 . S
C5774 H5798 0.950 . S
C5775 C5792 1.574 . S
C5775 C5794 1.368 . S
C5775 H5799 0.949 . S
H5776 C5780 0.949 . S
C5777 C5778 1.349 . S
C5777 C5779 1.327 . S
C5777 H5800 0.950 . S
C5778 C5777 1.349 . S
C5778 C5790 1.349 . S
C5779 C5777 1.327 . S
C5779 C5795 1.429 . S
C5779 H5801 0.950 . S
C5780 H5776 0.949 . S
C5780 C5788 1.574 . S
C5780 C5796 1.368 . S
H5781 C5789 0.950 . S
H5782 C5787 0.950 . S
H5783 C5788 0.949 . S
H5784 C5790 0.950 . S
H5785 C5791 0.950 . S
H5786 C5792 0.949 . S
C5787 H5782 0.950 . S
C5787 C5789 1.327 . S
C5787 C5793 1.429 . S
C5788 C5780 1.574 . S
C5788 H5783 0.949 . S
C5788 C5794 1.368 . S
C5789 C5773 1.349 . S
C5789 H5781 0.950 . S
C5789 C5787 1.327 . S
C5790 C5778 1.349 . S
C5790 H5784 0.950 . S
C5790 C5791 1.327 . S
C5791 H5785 0.950 . S
C5791 C5790 1.327 . S
C5791 C5795 1.429 . S
C5792 C5775 1.574 . S
C5792 H5786 0.949 . S
C5792 C5796 1.368 . S
C5793 C5774 1.429 . S
C5793 C5787 1.429 . S
C5793 C5794 1.523 . S
C5794 C5775 1.368 . S
C5794 C5788 1.368 . S
C5794 C5793 1.523 . S
C5795 C5779 1.429 . S
C5795 C5791 1.429 . S
C5795 C5796 1.523 . S
C5796 C5780 1.368 . S
C5796 C5792 1.368 . S
C5796 C5795 1.523 . S
H5797 C5772 0.950 . S
H5798 C5774 0.950 . S
H5799 C5775 0.949 . S
H5800 C5777 0.950 . S
H5801 C5779 0.950 . S
C5802 C5803 1.349 . S
C5802 C5804 1.327 . S
C5802 H5827 0.950 . S
C5803 C5802 1.349 . S
C5803 C5819 1.349 . S
C5804 C5802 1.327 . S
C5804 C5823 1.429 . S
C5804 H5828 0.950 . S
C5805 C5822 1.574 . S
C5805 C5824 1.368 . S
C5805 H5829 0.949 . S
H5806 C5810 0.949 . S
C5807 C5808 1.349 . S
C5807 C5809 1.327 . S
C5807 H5830 0.950 . S
C5808 C5807 1.349 . S
C5808 C5820 1.349 . S
C5809 C5807 1.327 . S
C5809 C5825 1.429 . S
C5809 H5831 0.950 . S
C5810 H5806 0.949 . S
C5810 C5818 1.574 . S
C5810 C5826 1.368 . S
H5811 C5819 0.950 . S
H5812 C5817 0.950 . S
H5813 C5818 0.949 . S
H5814 C5820 0.950 . S
H5815 C5821 0.950 . S
H5816 C5822 0.949 . S
C5817 H5812 0.950 . S
C5817 C5819 1.327 . S
C5817 C5823 1.429 . S
C5818 C5810 1.574 . S
C5818 H5813 0.949 . S
C5818 C5824 1.368 . S
C5819 C5803 1.349 . S
C5819 H5811 0.950 . S
C5819 C5817 1.327 . S
C5820 C5808 1.349 . S
C5820 H5814 0.950 . S
C5820 C5821 1.327 . S
C5821 H5815 0.950 . S
C5821 C5820 1.327 . S
C5821 C5825 1.429 . S
C5822 C5805 1.574 . S
C5822 H5816 0.949 . S
C5822 C5826 1.368 . S
C5823 C5804 1.429 . S
C5823 C5817 1.429 . S
C5823 C5824 1.523 . S
C5824 C5805 1.368 . S
C5824 C5818 1.368 . S
C5824 C5823 1.523 . S
C5825 C5809 1.429 . S
C5825 C5821 1.429 . S
C5825 C5826 1.523 . S
C5826 C5810 1.368 . S
C5826 C5822 1.368 . S
C5826 C5825 1.523 . S
H5827 C5802 0.950 . S
H5828 C5804 0.950 . S
H5829 C5805 0.949 . S
H5830 C5807 0.950 . S
H5831 C5809 0.950 . S
C5832 C5833 1.349 . S
C5832 C5834 1.327 . S
C5832 H5857 0.950 . S
C5833 C5832 1.349 . S
C5833 C5849 1.349 . S
C5834 C5832 1.327 . S
C5834 C5853 1.429 . S
C5834 H5858 0.950 . S
C5835 C5852 1.574 . S
C5835 C5854 1.368 . S
C5835 H5859 0.949 . S
H5836 C5840 0.949 . S
C5837 C5838 1.349 . S
C5837 C5839 1.327 . S
C5837 H5860 0.950 . S
C5838 C5837 1.349 . S
C5838 C5850 1.349 . S
C5839 C5837 1.327 . S
C5839 C5855 1.429 . S
C5839 H5861 0.950 . S
C5840 H5836 0.949 . S
C5840 C5848 1.574 . S
C5840 C5856 1.368 . S
H5841 C5849 0.950 . S
H5842 C5847 0.950 . S
H5843 C5848 0.949 . S
H5844 C5850 0.950 . S
H5845 C5851 0.950 . S
H5846 C5852 0.949 . S
C5847 H5842 0.950 . S
C5847 C5849 1.327 . S
C5847 C5853 1.429 . S
C5848 C5840 1.574 . S
C5848 H5843 0.949 . S
C5848 C5854 1.368 . S
C5849 C5833 1.349 . S
C5849 H5841 0.950 . S
C5849 C5847 1.327 . S
C5850 C5838 1.349 . S
C5850 H5844 0.950 . S
C5850 C5851 1.327 . S
C5851 H5845 0.950 . S
C5851 C5850 1.327 . S
C5851 C5855 1.429 . S
C5852 C5835 1.574 . S
C5852 H5846 0.949 . S
C5852 C5856 1.368 . S
C5853 C5834 1.429 . S
C5853 C5847 1.429 . S
C5853 C5854 1.523 . S
C5854 C5835 1.368 . S
C5854 C5848 1.368 . S
C5854 C5853 1.523 . S
C5855 C5839 1.429 . S
C5855 C5851 1.429 . S
C5855 C5856 1.523 . S
C5856 C5840 1.368 . S
C5856 C5852 1.368 . S
C5856 C5855 1.523 . S
H5857 C5832 0.950 . S
H5858 C5834 0.950 . S
H5859 C5835 0.949 . S
H5860 C5837 0.950 . S
H5861 C5839 0.950 . S
C5862 C5863 1.349 . S
C5862 C5864 1.327 . S
C5862 H5887 0.950 . S
C5863 C5862 1.349 . S
C5863 C5879 1.349 . S
C5864 C5862 1.327 . S
C5864 C5883 1.429 . S
C5864 H5888 0.950 . S
C5865 C5882 1.574 . S
C5865 C5884 1.368 . S
C5865 H5889 0.949 . S
H5866 C5870 0.949 . S
C5867 C5868 1.349 . S
C5867 C5869 1.327 . S
C5867 H5890 0.950 . S
C5868 C5867 1.349 . S
C5868 C5880 1.349 . S
C5869 C5867 1.327 . S
C5869 C5885 1.429 . S
C5869 H5891 0.950 . S
C5870 H5866 0.949 . S
C5870 C5878 1.574 . S
C5870 C5886 1.368 . S
H5871 C5879 0.950 . S
H5872 C5877 0.950 . S
H5873 C5878 0.949 . S
H5874 C5880 0.950 . S
H5875 C5881 0.950 . S
H5876 C5882 0.949 . S
C5877 H5872 0.950 . S
C5877 C5879 1.327 . S
C5877 C5883 1.429 . S
C5878 C5870 1.574 . S
C5878 H5873 0.949 . S
C5878 C5884 1.368 . S
C5879 C5863 1.349 . S
C5879 H5871 0.950 . S
C5879 C5877 1.327 . S
C5880 C5868 1.349 . S
C5880 H5874 0.950 . S
C5880 C5881 1.327 . S
C5881 H5875 0.950 . S
C5881 C5880 1.327 . S
C5881 C5885 1.429 . S
C5882 C5865 1.574 . S
C5882 H5876 0.949 . S
C5882 C5886 1.368 . S
C5883 C5864 1.429 . S
C5883 C5877 1.429 . S
C5883 C5884 1.523 . S
C5884 C5865 1.368 . S
C5884 C5878 1.368 . S
C5884 C5883 1.523 . S
C5885 C5869 1.429 . S
C5885 C5881 1.429 . S
C5885 C5886 1.523 . S
C5886 C5870 1.368 . S
C5886 C5882 1.368 . S
C5886 C5885 1.523 . S
H5887 C5862 0.950 . S
H5888 C5864 0.950 . S
H5889 C5865 0.949 . S
H5890 C5867 0.950 . S
H5891 C5869 0.950 . S
C5892 C5893 1.349 . S
C5892 C5894 1.327 . S
C5892 H5917 0.950 . S
C5893 C5892 1.349 . S
C5893 C5909 1.349 . S
C5894 C5892 1.327 . S
C5894 C5913 1.429 . S
C5894 H5918 0.950 . S
C5895 C5912 1.574 . S
C5895 C5914 1.368 . S
C5895 H5919 0.949 . S
H5896 C5900 0.949 . S
C5897 C5898 1.349 . S
C5897 C5899 1.327 . S
C5897 H5920 0.950 . S
C5898 C5897 1.349 . S
C5898 C5910 1.349 . S
C5899 C5897 1.327 . S
C5899 C5915 1.429 . S
C5899 H5921 0.950 . S
C5900 H5896 0.949 . S
C5900 C5908 1.574 . S
C5900 C5916 1.368 . S
H5901 C5909 0.950 . S
H5902 C5907 0.950 . S
H5903 C5908 0.949 . S
H5904 C5910 0.950 . S
H5905 C5911 0.950 . S
H5906 C5912 0.949 . S
C5907 H5902 0.950 . S
C5907 C5909 1.327 . S
C5907 C5913 1.429 . S
C5908 C5900 1.574 . S
C5908 H5903 0.949 . S
C5908 C5914 1.368 . S
C5909 C5893 1.349 . S
C5909 H5901 0.950 . S
C5909 C5907 1.327 . S
C5910 C5898 1.349 . S
C5910 H5904 0.950 . S
C5910 C5911 1.327 . S
C5911 H5905 0.950 . S
C5911 C5910 1.327 . S
C5911 C5915 1.429 . S
C5912 C5895 1.574 . S
C5912 H5906 0.949 . S
C5912 C5916 1.368 . S
C5913 C5894 1.429 . S
C5913 C5907 1.429 . S
C5913 C5914 1.523 . S
C5914 C5895 1.368 . S
C5914 C5908 1.368 . S
C5914 C5913 1.523 . S
C5915 C5899 1.429 . S
C5915 C5911 1.429 . S
C5915 C5916 1.523 . S
C5916 C5900 1.368 . S
C5916 C5912 1.368 . S
C5916 C5915 1.523 . S
H5917 C5892 0.950 . S
H5918 C5894 0.950 . S
H5919 C5895 0.949 . S
H5920 C5897 0.950 . S
H5921 C5899 0.950 . S
C5922 C5923 1.349 . S
C5922 C5924 1.327 . S
C5922 H5947 0.950 . S
C5923 C5922 1.349 . S
C5923 C5939 1.349 . S
C5924 C5922 1.327 . S
C5924 C5943 1.429 . S
C5924 H5948 0.950 . S
C5925 C5942 1.574 . S
C5925 C5944 1.368 . S
C5925 H5949 0.949 . S
H5926 C5930 0.949 . S
C5927 C5928 1.349 . S
C5927 C5929 1.327 . S
C5927 H5950 0.950 . S
C5928 C5927 1.349 . S
C5928 C5940 1.349 . S
C5929 C5927 1.327 . S
C5929 C5945 1.429 . S
C5929 H5951 0.950 . S
C5930 H5926 0.949 . S
C5930 C5938 1.574 . S
C5930 C5946 1.368 . S
H5931 C5939 0.950 . S
H5932 C5937 0.950 . S
H5933 C5938 0.949 . S
H5934 C5940 0.950 . S
H5935 C5941 0.950 . S
H5936 C5942 0.949 . S
C5937 H5932 0.950 . S
C5937 C5939 1.327 . S
C5937 C5943 1.429 . S
C5938 C5930 1.574 . S
C5938 H5933 0.949 . S
C5938 C5944 1.368 . S
C5939 C5923 1.349 . S
C5939 H5931 0.950 . S
C5939 C5937 1.327 . S
C5940 C5928 1.349 . S
C5940 H5934 0.950 . S
C5940 C5941 1.327 . S
C5941 H5935 0.950 . S
C5941 C5940 1.327 . S
C5941 C5945 1.429 . S
C5942 C5925 1.574 . S
C5942 H5936 0.949 . S
C5942 C5946 1.368 . S
C5943 C5924 1.429 . S
C5943 C5937 1.429 . S
C5943 C5944 1.523 . S
C5944 C5925 1.368 . S
C5944 C5938 1.368 . S
C5944 C5943 1.523 . S
C5945 C5929 1.429 . S
C5945 C5941 1.429 . S
C5945 C5946 1.523 . S
C5946 C5930 1.368 . S
C5946 C5942 1.368 . S
C5946 C5945 1.523 . S
H5947 C5922 0.950 . S
H5948 C5924 0.950 . S
H5949 C5925 0.949 . S
H5950 C5927 0.950 . S
H5951 C5929 0.950 . S
C5952 C5953 1.349 . S
C5952 C5954 1.327 . S
C5952 H5977 0.950 . S
C5953 C5952 1.349 . S
C5953 C5969 1.349 . S
C5954 C5952 1.327 . S
C5954 C5973 1.429 . S
C5954 H5978 0.950 . S
C5955 C5972 1.574 . S
C5955 C5974 1.368 . S
C5955 H5979 0.949 . S
H5956 C5960 0.949 . S
C5957 C5958 1.349 . S
C5957 C5959 1.327 . S
C5957 H5980 0.950 . S
C5958 C5957 1.349 . S
C5958 C5970 1.349 . S
C5959 C5957 1.327 . S
C5959 C5975 1.429 . S
C5959 H5981 0.950 . S
C5960 H5956 0.949 . S
C5960 C5968 1.574 . S
C5960 C5976 1.368 . S
H5961 C5969 0.950 . S
H5962 C5967 0.950 . S
H5963 C5968 0.949 . S
H5964 C5970 0.950 . S
H5965 C5971 0.950 . S
H5966 C5972 0.949 . S
C5967 H5962 0.950 . S
C5967 C5969 1.327 . S
C5967 C5973 1.429 . S
C5968 C5960 1.574 . S
C5968 H5963 0.949 . S
C5968 C5974 1.368 . S
C5969 C5953 1.349 . S
C5969 H5961 0.950 . S
C5969 C5967 1.327 . S
C5970 C5958 1.349 . S
C5970 H5964 0.950 . S
C5970 C5971 1.327 . S
C5971 H5965 0.950 . S
C5971 C5970 1.327 . S
C5971 C5975 1.429 . S
C5972 C5955 1.574 . S
C5972 H5966 0.949 . S
C5972 C5976 1.368 . S
C5973 C5954 1.429 . S
C5973 C5967 1.429 . S
C5973 C5974 1.523 . S
C5974 C5955 1.368 . S
C5974 C5968 1.368 . S
C5974 C5973 1.523 . S
C5975 C5959 1.429 . S
C5975 C5971 1.429 . S
C5975 C5976 1.523 . S
C5976 C5960 1.368 . S
C5976 C5972 1.368 . S
C5976 C5975 1.523 . S
H5977 C5952 0.950 . S
H5978 C5954 0.950 . S
H5979 C5955 0.949 . S
H5980 C5957 0.950 . S
H5981 C5959 0.950 . S
C5982 C5983 1.349 . S
C5982 C5984 1.327 . S
C5982 H6007 0.950 . S
C5983 C5982 1.349 . S
C5983 C5999 1.349 . S
C5984 C5982 1.327 . S
C5984 C6003 1.429 . S
C5984 H6008 0.950 . S
C5985 C6002 1.574 . S
C5985 C6004 1.368 . S
C5985 H6009 0.949 . S
H5986 C5990 0.949 . S
C5987 C5988 1.349 . S
C5987 C5989 1.327 . S
C5987 H6010 0.950 . S
C5988 C5987 1.349 . S
C5988 C6000 1.349 . S
C5989 C5987 1.327 . S
C5989 C6005 1.429 . S
C5989 H6011 0.950 . S
C5990 H5986 0.949 . S
C5990 C5998 1.574 . S
C5990 C6006 1.368 . S
H5991 C5999 0.950 . S
H5992 C5997 0.950 . S
H5993 C5998 0.949 . S
H5994 C6000 0.950 . S
H5995 C6001 0.950 . S
H5996 C6002 0.949 . S
C5997 H5992 0.950 . S
C5997 C5999 1.327 . S
C5997 C6003 1.429 . S
C5998 C5990 1.574 . S
C5998 H5993 0.949 . S
C5998 C6004 1.368 . S
C5999 C5983 1.349 . S
C5999 H5991 0.950 . S
C5999 C5997 1.327 . S
C6000 C5988 1.349 . S
C6000 H5994 0.950 . S
C6000 C6001 1.327 . S
C6001 H5995 0.950 . S
C6001 C6000 1.327 . S
C6001 C6005 1.429 . S
C6002 C5985 1.574 . S
C6002 H5996 0.949 . S
C6002 C6006 1.368 . S
C6003 C5984 1.429 . S
C6003 C5997 1.429 . S
C6003 C6004 1.523 . S
C6004 C5985 1.368 . S
C6004 C5998 1.368 . S
C6004 C6003 1.523 . S
C6005 C5989 1.429 . S
C6005 C6001 1.429 . S
C6005 C6006 1.523 . S
C6006 C5990 1.368 . S
C6006 C6002 1.368 . S
C6006 C6005 1.523 . S
H6007 C5982 0.950 . S
H6008 C5984 0.950 . S
H6009 C5985 0.949 . S
H6010 C5987 0.950 . S
H6011 C5989 0.950 . S
C6012 C6013 1.349 . S
C6012 C6014 1.327 . S
C6012 H6037 0.950 . S
C6013 C6012 1.349 . S
C6013 C6029 1.349 . S
C6014 C6012 1.327 . S
C6014 C6033 1.429 . S
C6014 H6038 0.950 . S
C6015 C6032 1.574 . S
C6015 C6034 1.368 . S
C6015 H6039 0.949 . S
H6016 C6020 0.949 . S
C6017 C6018 1.349 . S
C6017 C6019 1.327 . S
C6017 H6040 0.950 . S
C6018 C6017 1.349 . S
C6018 C6030 1.349 . S
C6019 C6017 1.327 . S
C6019 C6035 1.429 . S
C6019 H6041 0.950 . S
C6020 H6016 0.949 . S
C6020 C6028 1.574 . S
C6020 C6036 1.368 . S
H6021 C6029 0.950 . S
H6022 C6027 0.950 . S
H6023 C6028 0.949 . S
H6024 C6030 0.950 . S
H6025 C6031 0.950 . S
H6026 C6032 0.949 . S
C6027 H6022 0.950 . S
C6027 C6029 1.327 . S
C6027 C6033 1.429 . S
C6028 C6020 1.574 . S
C6028 H6023 0.949 . S
C6028 C6034 1.368 . S
C6029 C6013 1.349 . S
C6029 H6021 0.950 . S
C6029 C6027 1.327 . S
C6030 C6018 1.349 . S
C6030 H6024 0.950 . S
C6030 C6031 1.327 . S
C6031 H6025 0.950 . S
C6031 C6030 1.327 . S
C6031 C6035 1.429 . S
C6032 C6015 1.574 . S
C6032 H6026 0.949 . S
C6032 C6036 1.368 . S
C6033 C6014 1.429 . S
C6033 C6027 1.429 . S
C6033 C6034 1.523 . S
C6034 C6015 1.368 . S
C6034 C6028 1.368 . S
C6034 C6033 1.523 . S
C6035 C6019 1.429 . S
C6035 C6031 1.429 . S
C6035 C6036 1.523 . S
C6036 C6020 1.368 . S
C6036 C6032 1.368 . S
C6036 C6035 1.523 . S
H6037 C6012 0.950 . S
H6038 C6014 0.950 . S
H6039 C6015 0.949 . S
H6040 C6017 0.950 . S
H6041 C6019 0.950 . S
C6042 C6043 1.349 . S
C6042 C6044 1.327 . S
C6042 H6067 0.950 . S
C6043 C6042 1.349 . S
C6043 C6059 1.349 . S
C6044 C6042 1.327 . S
C6044 C6063 1.429 . S
C6044 H6068 0.950 . S
C6045 C6062 1.574 . S
C6045 C6064 1.368 . S
C6045 H6069 0.949 . S
H6046 C6050 0.949 . S
C6047 C6048 1.349 . S
C6047 C6049 1.327 . S
C6047 H6070 0.950 . S
C6048 C6047 1.349 . S
C6048 C6060 1.349 . S
C6049 C6047 1.327 . S
C6049 C6065 1.429 . S
C6049 H6071 0.950 . S
C6050 H6046 0.949 . S
C6050 C6058 1.574 . S
C6050 C6066 1.368 . S
H6051 C6059 0.950 . S
H6052 C6057 0.950 . S
H6053 C6058 0.949 . S
H6054 C6060 0.950 . S
H6055 C6061 0.950 . S
H6056 C6062 0.949 . S
C6057 H6052 0.950 . S
C6057 C6059 1.327 . S
C6057 C6063 1.429 . S
C6058 C6050 1.574 . S
C6058 H6053 0.949 . S
C6058 C6064 1.368 . S
C6059 C6043 1.349 . S
C6059 H6051 0.950 . S
C6059 C6057 1.327 . S
C6060 C6048 1.349 . S
C6060 H6054 0.950 . S
C6060 C6061 1.327 . S
C6061 H6055 0.950 . S
C6061 C6060 1.327 . S
C6061 C6065 1.429 . S
C6062 C6045 1.574 . S
C6062 H6056 0.949 . S
C6062 C6066 1.368 . S
C6063 C6044 1.429 . S
C6063 C6057 1.429 . S
C6063 C6064 1.523 . S
C6064 C6045 1.368 . S
C6064 C6058 1.368 . S
C6064 C6063 1.523 . S
C6065 C6049 1.429 . S
C6065 C6061 1.429 . S
C6065 C6066 1.523 . S
C6066 C6050 1.368 . S
C6066 C6062 1.368 . S
C6066 C6065 1.523 . S
H6067 C6042 0.950 . S
H6068 C6044 0.950 . S
H6069 C6045 0.949 . S
H6070 C6047 0.950 . S
H6071 C6049 0.950 . S
C6072 C6073 1.349 . S
C6072 C6074 1.327 . S
C6072 H6097 0.950 . S
C6073 C6072 1.349 . S
C6073 C6089 1.349 . S
C6074 C6072 1.327 . S
C6074 C6093 1.429 . S
C6074 H6098 0.950 . S
C6075 C6092 1.574 . S
C6075 C6094 1.368 . S
C6075 H6099 0.949 . S
H6076 C6080 0.949 . S
C6077 C6078 1.349 . S
C6077 C6079 1.327 . S
C6077 H6100 0.950 . S
C6078 C6077 1.349 . S
C6078 C6090 1.349 . S
C6079 C6077 1.327 . S
C6079 C6095 1.429 . S
C6079 H6101 0.950 . S
C6080 H6076 0.949 . S
C6080 C6088 1.574 . S
C6080 C6096 1.368 . S
H6081 C6089 0.950 . S
H6082 C6087 0.950 . S
H6083 C6088 0.949 . S
H6084 C6090 0.950 . S
H6085 C6091 0.950 . S
H6086 C6092 0.949 . S
C6087 H6082 0.950 . S
C6087 C6089 1.327 . S
C6087 C6093 1.429 . S
C6088 C6080 1.574 . S
C6088 H6083 0.949 . S
C6088 C6094 1.368 . S
C6089 C6073 1.349 . S
C6089 H6081 0.950 . S
C6089 C6087 1.327 . S
C6090 C6078 1.349 . S
C6090 H6084 0.950 . S
C6090 C6091 1.327 . S
C6091 H6085 0.950 . S
C6091 C6090 1.327 . S
C6091 C6095 1.429 . S
C6092 C6075 1.574 . S
C6092 H6086 0.949 . S
C6092 C6096 1.368 . S
C6093 C6074 1.429 . S
C6093 C6087 1.429 . S
C6093 C6094 1.523 . S
C6094 C6075 1.368 . S
C6094 C6088 1.368 . S
C6094 C6093 1.523 . S
C6095 C6079 1.429 . S
C6095 C6091 1.429 . S
C6095 C6096 1.523 . S
C6096 C6080 1.368 . S
C6096 C6092 1.368 . S
C6096 C6095 1.523 . S
H6097 C6072 0.950 . S
H6098 C6074 0.950 . S
H6099 C6075 0.949 . S
H6100 C6077 0.950 . S
H6101 C6079 0.950 . S
C6102 C6103 1.349 . S
C6102 C6104 1.327 . S
C6102 H6127 0.950 . S
C6103 C6102 1.349 . S
C6103 C6119 1.349 . S
C6104 C6102 1.327 . S
C6104 C6123 1.429 . S
C6104 H6128 0.950 . S
C6105 C6122 1.574 . S
C6105 C6124 1.368 . S
C6105 H6129 0.949 . S
H6106 C6110 0.949 . S
C6107 C6108 1.349 . S
C6107 C6109 1.327 . S
C6107 H6130 0.950 . S
C6108 C6107 1.349 . S
C6108 C6120 1.349 . S
C6109 C6107 1.327 . S
C6109 C6125 1.429 . S
C6109 H6131 0.950 . S
C6110 H6106 0.949 . S
C6110 C6118 1.574 . S
C6110 C6126 1.368 . S
H6111 C6119 0.950 . S
H6112 C6117 0.950 . S
H6113 C6118 0.949 . S
H6114 C6120 0.950 . S
H6115 C6121 0.950 . S
H6116 C6122 0.949 . S
C6117 H6112 0.950 . S
C6117 C6119 1.327 . S
C6117 C6123 1.429 . S
C6118 C6110 1.574 . S
C6118 H6113 0.949 . S
C6118 C6124 1.368 . S
C6119 C6103 1.349 . S
C6119 H6111 0.950 . S
C6119 C6117 1.327 . S
C6120 C6108 1.349 . S
C6120 H6114 0.950 . S
C6120 C6121 1.327 . S
C6121 H6115 0.950 . S
C6121 C6120 1.327 . S
C6121 C6125 1.429 . S
C6122 C6105 1.574 . S
C6122 H6116 0.949 . S
C6122 C6126 1.368 . S
C6123 C6104 1.429 . S
C6123 C6117 1.429 . S
C6123 C6124 1.523 . S
C6124 C6105 1.368 . S
C6124 C6118 1.368 . S
C6124 C6123 1.523 . S
C6125 C6109 1.429 . S
C6125 C6121 1.429 . S
C6125 C6126 1.523 . S
C6126 C6110 1.368 . S
C6126 C6122 1.368 . S
C6126 C6125 1.523 . S
H6127 C6102 0.950 . S
H6128 C6104 0.950 . S
H6129 C6105 0.949 . S
H6130 C6107 0.950 . S
H6131 C6109 0.950 . S
C6132 C6133 1.349 . S
C6132 C6134 1.327 . S
C6132 H6157 0.950 . S
C6133 C6132 1.349 . S
C6133 C6149 1.349 . S
C6134 C6132 1.327 . S
C6134 C6153 1.429 . S
C6134 H6158 0.950 . S
C6135 C6152 1.574 . S
C6135 C6154 1.368 . S
C6135 H6159 0.949 . S
H6136 C6140 0.949 . S
C6137 C6138 1.349 . S
C6137 C6139 1.327 . S
C6137 H6160 0.950 . S
C6138 C6137 1.349 . S
C6138 C6150 1.349 . S
C6139 C6137 1.327 . S
C6139 C6155 1.429 . S
C6139 H6161 0.950 . S
C6140 H6136 0.949 . S
C6140 C6148 1.574 . S
C6140 C6156 1.368 . S
H6141 C6149 0.950 . S
H6142 C6147 0.950 . S
H6143 C6148 0.949 . S
H6144 C6150 0.950 . S
H6145 C6151 0.950 . S
H6146 C6152 0.949 . S
C6147 H6142 0.950 . S
C6147 C6149 1.327 . S
C6147 C6153 1.429 . S
C6148 C6140 1.574 . S
C6148 H6143 0.949 . S
C6148 C6154 1.368 . S
C6149 C6133 1.349 . S
C6149 H6141 0.950 . S
C6149 C6147 1.327 . S
C6150 C6138 1.349 . S
C6150 H6144 0.950 . S
C6150 C6151 1.327 . S
C6151 H6145 0.950 . S
C6151 C6150 1.327 . S
C6151 C6155 1.429 . S
C6152 C6135 1.574 . S
C6152 H6146 0.949 . S
C6152 C6156 1.368 . S
C6153 C6134 1.429 . S
C6153 C6147 1.429 . S
C6153 C6154 1.523 . S
C6154 C6135 1.368 . S
C6154 C6148 1.368 . S
C6154 C6153 1.523 . S
C6155 C6139 1.429 . S
C6155 C6151 1.429 . S
C6155 C6156 1.523 . S
C6156 C6140 1.368 . S
C6156 C6152 1.368 . S
C6156 C6155 1.523 . S
H6157 C6132 0.950 . S
H6158 C6134 0.950 . S
H6159 C6135 0.949 . S
H6160 C6137 0.950 . S
H6161 C6139 0.950 . S
C6162 C6163 1.349 . S
C6162 C6164 1.327 . S
C6162 H6187 0.950 . S
C6163 C6162 1.349 . S
C6163 C6179 1.349 . S
C6164 C6162 1.327 . S
C6164 C6183 1.429 . S
C6164 H6188 0.950 . S
C6165 C6182 1.574 . S
C6165 C6184 1.368 . S
C6165 H6189 0.949 . S
H6166 C6170 0.949 . S
C6167 C6168 1.349 . S
C6167 C6169 1.327 . S
C6167 H6190 0.950 . S
C6168 C6167 1.349 . S
C6168 C6180 1.349 . S
C6169 C6167 1.327 . S
C6169 C6185 1.429 . S
C6169 H6191 0.950 . S
C6170 H6166 0.949 . S
C6170 C6178 1.574 . S
C6170 C6186 1.368 . S
H6171 C6179 0.950 . S
H6172 C6177 0.950 . S
H6173 C6178 0.949 . S
H6174 C6180 0.950 . S
H6175 C6181 0.950 . S
H6176 C6182 0.949 . S
C6177 H6172 0.950 . S
C6177 C6179 1.327 . S
C6177 C6183 1.429 . S
C6178 C6170 1.574 . S
C6178 H6173 0.949 . S
C6178 C6184 1.368 . S
C6179 C6163 1.349 . S
C6179 H6171 0.950 . S
C6179 C6177 1.327 . S
C6180 C6168 1.349 . S
C6180 H6174 0.950 . S
C6180 C6181 1.327 . S
C6181 H6175 0.950 . S
C6181 C6180 1.327 . S
C6181 C6185 1.429 . S
C6182 C6165 1.574 . S
C6182 H6176 0.949 . S
C6182 C6186 1.368 . S
C6183 C6164 1.429 . S
C6183 C6177 1.429 . S
C6183 C6184 1.523 . S
C6184 C6165 1.368 . S
C6184 C6178 1.368 . S
C6184 C6183 1.523 . S
C6185 C6169 1.429 . S
C6185 C6181 1.429 . S
C6185 C6186 1.523 . S
C6186 C6170 1.368 . S
C6186 C6182 1.368 . S
C6186 C6185 1.523 . S
H6187 C6162 0.950 . S
H6188 C6164 0.950 . S
H6189 C6165 0.949 . S
H6190 C6167 0.950 . S
H6191 C6169 0.950 . S
C6192 C6193 1.349 . S
C6192 C6194 1.327 . S
C6192 H6217 0.950 . S
C6193 C6192 1.349 . S
C6193 C6209 1.349 . S
C6194 C6192 1.327 . S
C6194 C6213 1.429 . S
C6194 H6218 0.950 . S
C6195 C6212 1.574 . S
C6195 C6214 1.368 . S
C6195 H6219 0.949 . S
H6196 C6200 0.949 . S
C6197 C6198 1.349 . S
C6197 C6199 1.327 . S
C6197 H6220 0.950 . S
C6198 C6197 1.349 . S
C6198 C6210 1.349 . S
C6199 C6197 1.327 . S
C6199 C6215 1.429 . S
C6199 H6221 0.950 . S
C6200 H6196 0.949 . S
C6200 C6208 1.574 . S
C6200 C6216 1.368 . S
H6201 C6209 0.950 . S
H6202 C6207 0.950 . S
H6203 C6208 0.949 . S
H6204 C6210 0.950 . S
H6205 C6211 0.950 . S
H6206 C6212 0.949 . S
C6207 H6202 0.950 . S
C6207 C6209 1.327 . S
C6207 C6213 1.429 . S
C6208 C6200 1.574 . S
C6208 H6203 0.949 . S
C6208 C6214 1.368 . S
C6209 C6193 1.349 . S
C6209 H6201 0.950 . S
C6209 C6207 1.327 . S
C6210 C6198 1.349 . S
C6210 H6204 0.950 . S
C6210 C6211 1.327 . S
C6211 H6205 0.950 . S
C6211 C6210 1.327 . S
C6211 C6215 1.429 . S
C6212 C6195 1.574 . S
C6212 H6206 0.949 . S
C6212 C6216 1.368 . S
C6213 C6194 1.429 . S
C6213 C6207 1.429 . S
C6213 C6214 1.523 . S
C6214 C6195 1.368 . S
C6214 C6208 1.368 . S
C6214 C6213 1.523 . S
C6215 C6199 1.429 . S
C6215 C6211 1.429 . S
C6215 C6216 1.523 . S
C6216 C6200 1.368 . S
C6216 C6212 1.368 . S
C6216 C6215 1.523 . S
H6217 C6192 0.950 . S
H6218 C6194 0.950 . S
H6219 C6195 0.949 . S
H6220 C6197 0.950 . S
H6221 C6199 0.950 . S
C6222 C6223 1.349 . S
C6222 C6224 1.327 . S
C6222 H6247 0.950 . S
C6223 C6222 1.349 . S
C6223 C6239 1.349 . S
C6224 C6222 1.327 . S
C6224 C6243 1.429 . S
C6224 H6248 0.950 . S
C6225 C6242 1.574 . S
C6225 C6244 1.368 . S
C6225 H6249 0.949 . S
H6226 C6230 0.949 . S
C6227 C6228 1.349 . S
C6227 C6229 1.327 . S
C6227 H6250 0.950 . S
C6228 C6227 1.349 . S
C6228 C6240 1.349 . S
C6229 C6227 1.327 . S
C6229 C6245 1.429 . S
C6229 H6251 0.950 . S
C6230 H6226 0.949 . S
C6230 C6238 1.574 . S
C6230 C6246 1.368 . S
H6231 C6239 0.950 . S
H6232 C6237 0.950 . S
H6233 C6238 0.949 . S
H6234 C6240 0.950 . S
H6235 C6241 0.950 . S
H6236 C6242 0.949 . S
C6237 H6232 0.950 . S
C6237 C6239 1.327 . S
C6237 C6243 1.429 . S
C6238 C6230 1.574 . S
C6238 H6233 0.949 . S
C6238 C6244 1.368 . S
C6239 C6223 1.349 . S
C6239 H6231 0.950 . S
C6239 C6237 1.327 . S
C6240 C6228 1.349 . S
C6240 H6234 0.950 . S
C6240 C6241 1.327 . S
C6241 H6235 0.950 . S
C6241 C6240 1.327 . S
C6241 C6245 1.429 . S
C6242 C6225 1.574 . S
C6242 H6236 0.949 . S
C6242 C6246 1.368 . S
C6243 C6224 1.429 . S
C6243 C6237 1.429 . S
C6243 C6244 1.523 . S
C6244 C6225 1.368 . S
C6244 C6238 1.368 . S
C6244 C6243 1.523 . S
C6245 C6229 1.429 . S
C6245 C6241 1.429 . S
C6245 C6246 1.523 . S
C6246 C6230 1.368 . S
C6246 C6242 1.368 . S
C6246 C6245 1.523 . S
H6247 C6222 0.950 . S
H6248 C6224 0.950 . S
H6249 C6225 0.949 . S
H6250 C6227 0.950 . S
H6251 C6229 0.950 . S
C6252 C6253 1.349 . S
C6252 C6254 1.327 . S
C6252 H6277 0.950 . S
C6253 C6252 1.349 . S
C6253 C6269 1.349 . S
C6254 C6252 1.327 . S
C6254 C6273 1.429 . S
C6254 H6278 0.950 . S
C6255 C6272 1.574 . S
C6255 C6274 1.368 . S
C6255 H6279 0.949 . S
H6256 C6260 0.949 . S
C6257 C6258 1.349 . S
C6257 C6259 1.327 . S
C6257 H6280 0.950 . S
C6258 C6257 1.349 . S
C6258 C6270 1.349 . S
C6259 C6257 1.327 . S
C6259 C6275 1.429 . S
C6259 H6281 0.950 . S
C6260 H6256 0.949 . S
C6260 C6268 1.574 . S
C6260 C6276 1.368 . S
H6261 C6269 0.950 . S
H6262 C6267 0.950 . S
H6263 C6268 0.949 . S
H6264 C6270 0.950 . S
H6265 C6271 0.950 . S
H6266 C6272 0.949 . S
C6267 H6262 0.950 . S
C6267 C6269 1.327 . S
C6267 C6273 1.429 . S
C6268 C6260 1.574 . S
C6268 H6263 0.949 . S
C6268 C6274 1.368 . S
C6269 C6253 1.349 . S
C6269 H6261 0.950 . S
C6269 C6267 1.327 . S
C6270 C6258 1.349 . S
C6270 H6264 0.950 . S
C6270 C6271 1.327 . S
C6271 H6265 0.950 . S
C6271 C6270 1.327 . S
C6271 C6275 1.429 . S
C6272 C6255 1.574 . S
C6272 H6266 0.949 . S
C6272 C6276 1.368 . S
C6273 C6254 1.429 . S
C6273 C6267 1.429 . S
C6273 C6274 1.523 . S
C6274 C6255 1.368 . S
C6274 C6268 1.368 . S
C6274 C6273 1.523 . S
C6275 C6259 1.429 . S
C6275 C6271 1.429 . S
C6275 C6276 1.523 . S
C6276 C6260 1.368 . S
C6276 C6272 1.368 . S
C6276 C6275 1.523 . S
H6277 C6252 0.950 . S
H6278 C6254 0.950 . S
H6279 C6255 0.949 . S
H6280 C6257 0.950 . S
H6281 C6259 0.950 . S
C6282 C6283 1.349 . S
C6282 C6284 1.327 . S
C6282 H6307 0.950 . S
C6283 C6282 1.349 . S
C6283 C6299 1.349 . S
C6284 C6282 1.327 . S
C6284 C6303 1.429 . S
C6284 H6308 0.950 . S
C6285 C6302 1.574 . S
C6285 C6304 1.368 . S
C6285 H6309 0.949 . S
H6286 C6290 0.949 . S
C6287 C6288 1.349 . S
C6287 C6289 1.327 . S
C6287 H6310 0.950 . S
C6288 C6287 1.349 . S
C6288 C6300 1.349 . S
C6289 C6287 1.327 . S
C6289 C6305 1.429 . S
C6289 H6311 0.950 . S
C6290 H6286 0.949 . S
C6290 C6298 1.574 . S
C6290 C6306 1.368 . S
H6291 C6299 0.950 . S
H6292 C6297 0.950 . S
H6293 C6298 0.949 . S
H6294 C6300 0.950 . S
H6295 C6301 0.950 . S
H6296 C6302 0.949 . S
C6297 H6292 0.950 . S
C6297 C6299 1.327 . S
C6297 C6303 1.429 . S
C6298 C6290 1.574 . S
C6298 H6293 0.949 . S
C6298 C6304 1.368 . S
C6299 C6283 1.349 . S
C6299 H6291 0.950 . S
C6299 C6297 1.327 . S
C6300 C6288 1.349 . S
C6300 H6294 0.950 . S
C6300 C6301 1.327 . S
C6301 H6295 0.950 . S
C6301 C6300 1.327 . S
C6301 C6305 1.429 . S
C6302 C6285 1.574 . S
C6302 H6296 0.949 . S
C6302 C6306 1.368 . S
C6303 C6284 1.429 . S
C6303 C6297 1.429 . S
C6303 C6304 1.523 . S
C6304 C6285 1.368 . S
C6304 C6298 1.368 . S
C6304 C6303 1.523 . S
C6305 C6289 1.429 . S
C6305 C6301 1.429 . S
C6305 C6306 1.523 . S
C6306 C6290 1.368 . S
C6306 C6302 1.368 . S
C6306 C6305 1.523 . S
H6307 C6282 0.950 . S
H6308 C6284 0.950 . S
H6309 C6285 0.949 . S
H6310 C6287 0.950 . S
H6311 C6289 0.950 . S
C6312 C6313 1.349 . S
C6312 C6314 1.327 . S
C6312 H6337 0.950 . S
C6313 C6312 1.349 . S
C6313 C6329 1.349 . S
C6314 C6312 1.327 . S
C6314 C6333 1.429 . S
C6314 H6338 0.950 . S
C6315 C6332 1.574 . S
C6315 C6334 1.368 . S
C6315 H6339 0.949 . S
H6316 C6320 0.949 . S
C6317 C6318 1.349 . S
C6317 C6319 1.327 . S
C6317 H6340 0.950 . S
C6318 C6317 1.349 . S
C6318 C6330 1.349 . S
C6319 C6317 1.327 . S
C6319 C6335 1.429 . S
C6319 H6341 0.950 . S
C6320 H6316 0.949 . S
C6320 C6328 1.574 . S
C6320 C6336 1.368 . S
H6321 C6329 0.950 . S
H6322 C6327 0.950 . S
H6323 C6328 0.949 . S
H6324 C6330 0.950 . S
H6325 C6331 0.950 . S
H6326 C6332 0.949 . S
C6327 H6322 0.950 . S
C6327 C6329 1.327 . S
C6327 C6333 1.429 . S
C6328 C6320 1.574 . S
C6328 H6323 0.949 . S
C6328 C6334 1.368 . S
C6329 C6313 1.349 . S
C6329 H6321 0.950 . S
C6329 C6327 1.327 . S
C6330 C6318 1.349 . S
C6330 H6324 0.950 . S
C6330 C6331 1.327 . S
C6331 H6325 0.950 . S
C6331 C6330 1.327 . S
C6331 C6335 1.429 . S
C6332 C6315 1.574 . S
C6332 H6326 0.949 . S
C6332 C6336 1.368 . S
C6333 C6314 1.429 . S
C6333 C6327 1.429 . S
C6333 C6334 1.523 . S
C6334 C6315 1.368 . S
C6334 C6328 1.368 . S
C6334 C6333 1.523 . S
C6335 C6319 1.429 . S
C6335 C6331 1.429 . S
C6335 C6336 1.523 . S
C6336 C6320 1.368 . S
C6336 C6332 1.368 . S
C6336 C6335 1.523 . S
H6337 C6312 0.950 . S
H6338 C6314 0.950 . S
H6339 C6315 0.949 . S
H6340 C6317 0.950 . S
H6341 C6319 0.950 . S
C6342 C6343 1.349 . S
C6342 C6344 1.327 . S
C6342 H6367 0.950 . S
C6343 C6342 1.349 . S
C6343 C6359 1.349 . S
C6344 C6342 1.327 . S
C6344 C6363 1.429 . S
C6344 H6368 0.950 . S
C6345 C6362 1.574 . S
C6345 C6364 1.368 . S
C6345 H6369 0.949 . S
H6346 C6350 0.949 . S
C6347 C6348 1.349 . S
C6347 C6349 1.327 . S
C6347 H6370 0.950 . S
C6348 C6347 1.349 . S
C6348 C6360 1.349 . S
C6349 C6347 1.327 . S
C6349 C6365 1.429 . S
C6349 H6371 0.950 . S
C6350 H6346 0.949 . S
C6350 C6358 1.574 . S
C6350 C6366 1.368 . S
H6351 C6359 0.950 . S
H6352 C6357 0.950 . S
H6353 C6358 0.949 . S
H6354 C6360 0.950 . S
H6355 C6361 0.950 . S
H6356 C6362 0.949 . S
C6357 H6352 0.950 . S
C6357 C6359 1.327 . S
C6357 C6363 1.429 . S
C6358 C6350 1.574 . S
C6358 H6353 0.949 . S
C6358 C6364 1.368 . S
C6359 C6343 1.349 . S
C6359 H6351 0.950 . S
C6359 C6357 1.327 . S
C6360 C6348 1.349 . S
C6360 H6354 0.950 . S
C6360 C6361 1.327 . S
C6361 H6355 0.950 . S
C6361 C6360 1.327 . S
C6361 C6365 1.429 . S
C6362 C6345 1.574 . S
C6362 H6356 0.949 . S
C6362 C6366 1.368 . S
C6363 C6344 1.429 . S
C6363 C6357 1.429 . S
C6363 C6364 1.523 . S
C6364 C6345 1.368 . S
C6364 C6358 1.368 . S
C6364 C6363 1.523 . S
C6365 C6349 1.429 . S
C6365 C6361 1.429 . S
C6365 C6366 1.523 . S
C6366 C6350 1.368 . S
C6366 C6362 1.368 . S
C6366 C6365 1.523 . S
H6367 C6342 0.950 . S
H6368 C6344 0.950 . S
H6369 C6345 0.949 . S
H6370 C6347 0.950 . S
H6371 C6349 0.950 . S
C6372 C6373 1.349 . S
C6372 C6374 1.327 . S
C6372 H6397 0.950 . S
C6373 C6372 1.349 . S
C6373 C6389 1.349 . S
C6374 C6372 1.327 . S
C6374 C6393 1.429 . S
C6374 H6398 0.950 . S
C6375 C6392 1.574 . S
C6375 C6394 1.368 . S
C6375 H6399 0.949 . S
H6376 C6380 0.949 . S
C6377 C6378 1.349 . S
C6377 C6379 1.327 . S
C6377 H6400 0.950 . S
C6378 C6377 1.349 . S
C6378 C6390 1.349 . S
C6379 C6377 1.327 . S
C6379 C6395 1.429 . S
C6379 H6401 0.950 . S
C6380 H6376 0.949 . S
C6380 C6388 1.574 . S
C6380 C6396 1.368 . S
H6381 C6389 0.950 . S
H6382 C6387 0.950 . S
H6383 C6388 0.949 . S
H6384 C6390 0.950 . S
H6385 C6391 0.950 . S
H6386 C6392 0.949 . S
C6387 H6382 0.950 . S
C6387 C6389 1.327 . S
C6387 C6393 1.429 . S
C6388 C6380 1.574 . S
C6388 H6383 0.949 . S
C6388 C6394 1.368 . S
C6389 C6373 1.349 . S
C6389 H6381 0.950 . S
C6389 C6387 1.327 . S
C6390 C6378 1.349 . S
C6390 H6384 0.950 . S
C6390 C6391 1.327 . S
C6391 H6385 0.950 . S
C6391 C6390 1.327 . S
C6391 C6395 1.429 . S
C6392 C6375 1.574 . S
C6392 H6386 0.949 . S
C6392 C6396 1.368 . S
C6393 C6374 1.429 . S
C6393 C6387 1.429 . S
C6393 C6394 1.523 . S
C6394 C6375 1.368 . S
C6394 C6388 1.368 . S
C6394 C6393 1.523 . S
C6395 C6379 1.429 . S
C6395 C6391 1.429 . S
C6395 C6396 1.523 . S
C6396 C6380 1.368 . S
C6396 C6392 1.368 . S
C6396 C6395 1.523 . S
H6397 C6372 0.950 . S
H6398 C6374 0.950 . S
H6399 C6375 0.949 . S
H6400 C6377 0.950 . S
H6401 C6379 0.950 . S
C6402 C6403 1.349 . S
C6402 C6404 1.327 . S
C6402 H6427 0.950 . S
C6403 C6402 1.349 . S
C6403 C6419 1.349 . S
C6404 C6402 1.327 . S
C6404 C6423 1.429 . S
C6404 H6428 0.950 . S
C6405 C6422 1.574 . S
C6405 C6424 1.368 . S
C6405 H6429 0.949 . S
H6406 C6410 0.949 . S
C6407 C6408 1.349 . S
C6407 C6409 1.327 . S
C6407 H6430 0.950 . S
C6408 C6407 1.349 . S
C6408 C6420 1.349 . S
C6409 C6407 1.327 . S
C6409 C6425 1.429 . S
C6409 H6431 0.950 . S
C6410 H6406 0.949 . S
C6410 C6418 1.574 . S
C6410 C6426 1.368 . S
H6411 C6419 0.950 . S
H6412 C6417 0.950 . S
H6413 C6418 0.949 . S
H6414 C6420 0.950 . S
H6415 C6421 0.950 . S
H6416 C6422 0.949 . S
C6417 H6412 0.950 . S
C6417 C6419 1.327 . S
C6417 C6423 1.429 . S
C6418 C6410 1.574 . S
C6418 H6413 0.949 . S
C6418 C6424 1.368 . S
C6419 C6403 1.349 . S
C6419 H6411 0.950 . S
C6419 C6417 1.327 . S
C6420 C6408 1.349 . S
C6420 H6414 0.950 . S
C6420 C6421 1.327 . S
C6421 H6415 0.950 . S
C6421 C6420 1.327 . S
C6421 C6425 1.429 . S
C6422 C6405 1.574 . S
C6422 H6416 0.949 . S
C6422 C6426 1.368 . S
C6423 C6404 1.429 . S
C6423 C6417 1.429 . S
C6423 C6424 1.523 . S
C6424 C6405 1.368 . S
C6424 C6418 1.368 . S
C6424 C6423 1.523 . S
C6425 C6409 1.429 . S
C6425 C6421 1.429 . S
C6425 C6426 1.523 . S
C6426 C6410 1.368 . S
C6426 C6422 1.368 . S
C6426 C6425 1.523 . S
H6427 C6402 0.950 . S
H6428 C6404 0.950 . S
H6429 C6405 0.949 . S
H6430 C6407 0.950 . S
H6431 C6409 0.950 . S
C6432 C6433 1.349 . S
C6432 C6434 1.327 . S
C6432 H6457 0.950 . S
C6433 C6432 1.349 . S
C6433 C6449 1.349 . S
C6434 C6432 1.327 . S
C6434 C6453 1.429 . S
C6434 H6458 0.950 . S
C6435 C6452 1.574 . S
C6435 C6454 1.368 . S
C6435 H6459 0.949 . S
H6436 C6440 0.949 . S
C6437 C6438 1.349 . S
C6437 C6439 1.327 . S
C6437 H6460 0.950 . S
C6438 C6437 1.349 . S
C6438 C6450 1.349 . S
C6439 C6437 1.327 . S
C6439 C6455 1.429 . S
C6439 H6461 0.950 . S
C6440 H6436 0.949 . S
C6440 C6448 1.574 . S
C6440 C6456 1.368 . S
H6441 C6449 0.950 . S
H6442 C6447 0.950 . S
H6443 C6448 0.949 . S
H6444 C6450 0.950 . S
H6445 C6451 0.950 . S
H6446 C6452 0.949 . S
C6447 H6442 0.950 . S
C6447 C6449 1.327 . S
C6447 C6453 1.429 . S
C6448 C6440 1.574 . S
C6448 H6443 0.949 . S
C6448 C6454 1.368 . S
C6449 C6433 1.349 . S
C6449 H6441 0.950 . S
C6449 C6447 1.327 . S
C6450 C6438 1.349 . S
C6450 H6444 0.950 . S
C6450 C6451 1.327 . S
C6451 H6445 0.950 . S
C6451 C6450 1.327 . S
C6451 C6455 1.429 . S
C6452 C6435 1.574 . S
C6452 H6446 0.949 . S
C6452 C6456 1.368 . S
C6453 C6434 1.429 . S
C6453 C6447 1.429 . S
C6453 C6454 1.523 . S
C6454 C6435 1.368 . S
C6454 C6448 1.368 . S
C6454 C6453 1.523 . S
C6455 C6439 1.429 . S
C6455 C6451 1.429 . S
C6455 C6456 1.523 . S
C6456 C6440 1.368 . S
C6456 C6452 1.368 . S
C6456 C6455 1.523 . S
H6457 C6432 0.950 . S
H6458 C6434 0.950 . S
H6459 C6435 0.949 . S
H6460 C6437 0.950 . S
H6461 C6439 0.950 . S
C6462 C6463 1.349 . S
C6462 C6464 1.327 . S
C6462 H6487 0.950 . S
C6463 C6462 1.349 . S
C6463 C6479 1.349 . S
C6464 C6462 1.327 . S
C6464 C6483 1.429 . S
C6464 H6488 0.950 . S
C6465 C6482 1.574 . S
C6465 C6484 1.368 . S
C6465 H6489 0.949 . S
H6466 C6470 0.949 . S
C6467 C6468 1.349 . S
C6467 C6469 1.327 . S
C6467 H6490 0.950 . S
C6468 C6467 1.349 . S
C6468 C6480 1.349 . S
C6469 C6467 1.327 . S
C6469 C6485 1.429 . S
C6469 H6491 0.950 . S
C6470 H6466 0.949 . S
C6470 C6478 1.574 . S
C6470 C6486 1.368 . S
H6471 C6479 0.950 . S
H6472 C6477 0.950 . S
H6473 C6478 0.949 . S
H6474 C6480 0.950 . S
H6475 C6481 0.950 . S
H6476 C6482 0.949 . S
C6477 H6472 0.950 . S
C6477 C6479 1.327 . S
C6477 C6483 1.429 . S
C6478 C6470 1.574 . S
C6478 H6473 0.949 . S
C6478 C6484 1.368 . S
C6479 C6463 1.349 . S
C6479 H6471 0.950 . S
C6479 C6477 1.327 . S
C6480 C6468 1.349 . S
C6480 H6474 0.950 . S
C6480 C6481 1.327 . S
C6481 H6475 0.950 . S
C6481 C6480 1.327 . S
C6481 C6485 1.429 . S
C6482 C6465 1.574 . S
C6482 H6476 0.949 . S
C6482 C6486 1.368 . S
C6483 C6464 1.429 . S
C6483 C6477 1.429 . S
C6483 C6484 1.523 . S
C6484 C6465 1.368 . S
C6484 C6478 1.368 . S
C6484 C6483 1.523 . S
C6485 C6469 1.429 . S
C6485 C6481 1.429 . S
C6485 C6486 1.523 . S
C6486 C6470 1.368 . S
C6486 C6482 1.368 . S
C6486 C6485 1.523 . S
H6487 C6462 0.950 . S
H6488 C6464 0.950 . S
H6489 C6465 0.949 . S
H6490 C6467 0.950 . S
H6491 C6469 0.950 . S
C6492 C6493 1.349 . S
C6492 C6494 1.327 . S
C6492 H6517 0.950 . S
C6493 C6492 1.349 . S
C6493 C6509 1.349 . S
C6494 C6492 1.327 . S
C6494 C6513 1.429 . S
C6494 H6518 0.950 . S
C6495 C6512 1.574 . S
C6495 C6514 1.368 . S
C6495 H6519 0.949 . S
H6496 C6500 0.949 . S
C6497 C6498 1.349 . S
C6497 C6499 1.327 . S
C6497 H6520 0.950 . S
C6498 C6497 1.349 . S
C6498 C6510 1.349 . S
C6499 C6497 1.327 . S
C6499 C6515 1.429 . S
C6499 H6521 0.950 . S
C6500 H6496 0.949 . S
C6500 C6508 1.574 . S
C6500 C6516 1.368 . S
H6501 C6509 0.950 . S
H6502 C6507 0.950 . S
H6503 C6508 0.949 . S
H6504 C6510 0.950 . S
H6505 C6511 0.950 . S
H6506 C6512 0.949 . S
C6507 H6502 0.950 . S
C6507 C6509 1.327 . S
C6507 C6513 1.429 . S
C6508 C6500 1.574 . S
C6508 H6503 0.949 . S
C6508 C6514 1.368 . S
C6509 C6493 1.349 . S
C6509 H6501 0.950 . S
C6509 C6507 1.327 . S
C6510 C6498 1.349 . S
C6510 H6504 0.950 . S
C6510 C6511 1.327 . S
C6511 H6505 0.950 . S
C6511 C6510 1.327 . S
C6511 C6515 1.429 . S
C6512 C6495 1.574 . S
C6512 H6506 0.949 . S
C6512 C6516 1.368 . S
C6513 C6494 1.429 . S
C6513 C6507 1.429 . S
C6513 C6514 1.523 . S
C6514 C6495 1.368 . S
C6514 C6508 1.368 . S
C6514 C6513 1.523 . S
C6515 C6499 1.429 . S
C6515 C6511 1.429 . S
C6515 C6516 1.523 . S
C6516 C6500 1.368 . S
C6516 C6512 1.368 . S
C6516 C6515 1.523 . S
H6517 C6492 0.950 . S
H6518 C6494 0.950 . S
H6519 C6495 0.949 . S
H6520 C6497 0.950 . S
H6521 C6499 0.950 . S
C6522 C6523 1.349 . S
C6522 C6524 1.327 . S
C6522 H6547 0.950 . S
C6523 C6522 1.349 . S
C6523 C6539 1.349 . S
C6524 C6522 1.327 . S
C6524 C6543 1.429 . S
C6524 H6548 0.950 . S
C6525 C6542 1.574 . S
C6525 C6544 1.368 . S
C6525 H6549 0.949 . S
H6526 C6530 0.949 . S
C6527 C6528 1.349 . S
C6527 C6529 1.327 . S
C6527 H6550 0.950 . S
C6528 C6527 1.349 . S
C6528 C6540 1.349 . S
C6529 C6527 1.327 . S
C6529 C6545 1.429 . S
C6529 H6551 0.950 . S
C6530 H6526 0.949 . S
C6530 C6538 1.574 . S
C6530 C6546 1.368 . S
H6531 C6539 0.950 . S
H6532 C6537 0.950 . S
H6533 C6538 0.949 . S
H6534 C6540 0.950 . S
H6535 C6541 0.950 . S
H6536 C6542 0.949 . S
C6537 H6532 0.950 . S
C6537 C6539 1.327 . S
C6537 C6543 1.429 . S
C6538 C6530 1.574 . S
C6538 H6533 0.949 . S
C6538 C6544 1.368 . S
C6539 C6523 1.349 . S
C6539 H6531 0.950 . S
C6539 C6537 1.327 . S
C6540 C6528 1.349 . S
C6540 H6534 0.950 . S
C6540 C6541 1.327 . S
C6541 H6535 0.950 . S
C6541 C6540 1.327 . S
C6541 C6545 1.429 . S
C6542 C6525 1.574 . S
C6542 H6536 0.949 . S
C6542 C6546 1.368 . S
C6543 C6524 1.429 . S
C6543 C6537 1.429 . S
C6543 C6544 1.523 . S
C6544 C6525 1.368 . S
C6544 C6538 1.368 . S
C6544 C6543 1.523 . S
C6545 C6529 1.429 . S
C6545 C6541 1.429 . S
C6545 C6546 1.523 . S
C6546 C6530 1.368 . S
C6546 C6542 1.368 . S
C6546 C6545 1.523 . S
H6547 C6522 0.950 . S
H6548 C6524 0.950 . S
H6549 C6525 0.949 . S
H6550 C6527 0.950 . S
H6551 C6529 0.950 . S
C6552 C6553 1.349 . S
C6552 C6554 1.327 . S
C6552 H6577 0.950 . S
C6553 C6552 1.349 . S
C6553 C6569 1.349 . S
C6554 C6552 1.327 . S
C6554 C6573 1.429 . S
C6554 H6578 0.950 . S
C6555 C6572 1.574 . S
C6555 C6574 1.368 . S
C6555 H6579 0.949 . S
H6556 C6560 0.949 . S
C6557 C6558 1.349 . S
C6557 C6559 1.327 . S
C6557 H6580 0.950 . S
C6558 C6557 1.349 . S
C6558 C6570 1.349 . S
C6559 C6557 1.327 . S
C6559 C6575 1.429 . S
C6559 H6581 0.950 . S
C6560 H6556 0.949 . S
C6560 C6568 1.574 . S
C6560 C6576 1.368 . S
H6561 C6569 0.950 . S
H6562 C6567 0.950 . S
H6563 C6568 0.949 . S
H6564 C6570 0.950 . S
H6565 C6571 0.950 . S
H6566 C6572 0.949 . S
C6567 H6562 0.950 . S
C6567 C6569 1.327 . S
C6567 C6573 1.429 . S
C6568 C6560 1.574 . S
C6568 H6563 0.949 . S
C6568 C6574 1.368 . S
C6569 C6553 1.349 . S
C6569 H6561 0.950 . S
C6569 C6567 1.327 . S
C6570 C6558 1.349 . S
C6570 H6564 0.950 . S
C6570 C6571 1.327 . S
C6571 H6565 0.950 . S
C6571 C6570 1.327 . S
C6571 C6575 1.429 . S
C6572 C6555 1.574 . S
C6572 H6566 0.949 . S
C6572 C6576 1.368 . S
C6573 C6554 1.429 . S
C6573 C6567 1.429 . S
C6573 C6574 1.523 . S
C6574 C6555 1.368 . S
C6574 C6568 1.368 . S
C6574 C6573 1.523 . S
C6575 C6559 1.429 . S
C6575 C6571 1.429 . S
C6575 C6576 1.523 . S
C6576 C6560 1.368 . S
C6576 C6572 1.368 . S
C6576 C6575 1.523 . S
H6577 C6552 0.950 . S
H6578 C6554 0.950 . S
H6579 C6555 0.949 . S
H6580 C6557 0.950 . S
H6581 C6559 0.950 . S
C6582 C6583 1.349 . S
C6582 C6584 1.327 . S
C6582 H6607 0.950 . S
C6583 C6582 1.349 . S
C6583 C6599 1.349 . S
C6584 C6582 1.327 . S
C6584 C6603 1.429 . S
C6584 H6608 0.950 . S
C6585 C6602 1.574 . S
C6585 C6604 1.368 . S
C6585 H6609 0.949 . S
H6586 C6590 0.949 . S
C6587 C6588 1.349 . S
C6587 C6589 1.327 . S
C6587 H6610 0.950 . S
C6588 C6587 1.349 . S
C6588 C6600 1.349 . S
C6589 C6587 1.327 . S
C6589 C6605 1.429 . S
C6589 H6611 0.950 . S
C6590 H6586 0.949 . S
C6590 C6598 1.574 . S
C6590 C6606 1.368 . S
H6591 C6599 0.950 . S
H6592 C6597 0.950 . S
H6593 C6598 0.949 . S
H6594 C6600 0.950 . S
H6595 C6601 0.950 . S
H6596 C6602 0.949 . S
C6597 H6592 0.950 . S
C6597 C6599 1.327 . S
C6597 C6603 1.429 . S
C6598 C6590 1.574 . S
C6598 H6593 0.949 . S
C6598 C6604 1.368 . S
C6599 C6583 1.349 . S
C6599 H6591 0.950 . S
C6599 C6597 1.327 . S
C6600 C6588 1.349 . S
C6600 H6594 0.950 . S
C6600 C6601 1.327 . S
C6601 H6595 0.950 . S
C6601 C6600 1.327 . S
C6601 C6605 1.429 . S
C6602 C6585 1.574 . S
C6602 H6596 0.949 . S
C6602 C6606 1.368 . S
C6603 C6584 1.429 . S
C6603 C6597 1.429 . S
C6603 C6604 1.523 . S
C6604 C6585 1.368 . S
C6604 C6598 1.368 . S
C6604 C6603 1.523 . S
C6605 C6589 1.429 . S
C6605 C6601 1.429 . S
C6605 C6606 1.523 . S
C6606 C6590 1.368 . S
C6606 C6602 1.368 . S
C6606 C6605 1.523 . S
H6607 C6582 0.950 . S
H6608 C6584 0.950 . S
H6609 C6585 0.949 . S
H6610 C6587 0.950 . S
H6611 C6589 0.950 . S
C6612 C6613 1.349 . S
C6612 C6614 1.327 . S
C6612 H6637 0.950 . S
C6613 C6612 1.349 . S
C6613 C6629 1.349 . S
C6614 C6612 1.327 . S
C6614 C6633 1.429 . S
C6614 H6638 0.950 . S
C6615 C6632 1.574 . S
C6615 C6634 1.368 . S
C6615 H6639 0.949 . S
H6616 C6620 0.949 . S
C6617 C6618 1.349 . S
C6617 C6619 1.327 . S
C6617 H6640 0.950 . S
C6618 C6617 1.349 . S
C6618 C6630 1.349 . S
C6619 C6617 1.327 . S
C6619 C6635 1.429 . S
C6619 H6641 0.950 . S
C6620 H6616 0.949 . S
C6620 C6628 1.574 . S
C6620 C6636 1.368 . S
H6621 C6629 0.950 . S
H6622 C6627 0.950 . S
H6623 C6628 0.949 . S
H6624 C6630 0.950 . S
H6625 C6631 0.950 . S
H6626 C6632 0.949 . S
C6627 H6622 0.950 . S
C6627 C6629 1.327 . S
C6627 C6633 1.429 . S
C6628 C6620 1.574 . S
C6628 H6623 0.949 . S
C6628 C6634 1.368 . S
C6629 C6613 1.349 . S
C6629 H6621 0.950 . S
C6629 C6627 1.327 . S
C6630 C6618 1.349 . S
C6630 H6624 0.950 . S
C6630 C6631 1.327 . S
C6631 H6625 0.950 . S
C6631 C6630 1.327 . S
C6631 C6635 1.429 . S
C6632 C6615 1.574 . S
C6632 H6626 0.949 . S
C6632 C6636 1.368 . S
C6633 C6614 1.429 . S
C6633 C6627 1.429 . S
C6633 C6634 1.523 . S
C6634 C6615 1.368 . S
C6634 C6628 1.368 . S
C6634 C6633 1.523 . S
C6635 C6619 1.429 . S
C6635 C6631 1.429 . S
C6635 C6636 1.523 . S
C6636 C6620 1.368 . S
C6636 C6632 1.368 . S
C6636 C6635 1.523 . S
H6637 C6612 0.950 . S
H6638 C6614 0.950 . S
H6639 C6615 0.949 . S
H6640 C6617 0.950 . S
H6641 C6619 0.950 . S
C6642 C6643 1.349 . S
C6642 C6644 1.327 . S
C6642 H6667 0.950 . S
C6643 C6642 1.349 . S
C6643 C6659 1.349 . S
C6644 C6642 1.327 . S
C6644 C6663 1.429 . S
C6644 H6668 0.950 . S
C6645 C6662 1.574 . S
C6645 C6664 1.368 . S
C6645 H6669 0.949 . S
H6646 C6650 0.949 . S
C6647 C6648 1.349 . S
C6647 C6649 1.327 . S
C6647 H6670 0.950 . S
C6648 C6647 1.349 . S
C6648 C6660 1.349 . S
C6649 C6647 1.327 . S
C6649 C6665 1.429 . S
C6649 H6671 0.950 . S
C6650 H6646 0.949 . S
C6650 C6658 1.574 . S
C6650 C6666 1.368 . S
H6651 C6659 0.950 . S
H6652 C6657 0.950 . S
H6653 C6658 0.949 . S
H6654 C6660 0.950 . S
H6655 C6661 0.950 . S
H6656 C6662 0.949 . S
C6657 H6652 0.950 . S
C6657 C6659 1.327 . S
C6657 C6663 1.429 . S
C6658 C6650 1.574 . S
C6658 H6653 0.949 . S
C6658 C6664 1.368 . S
C6659 C6643 1.349 . S
C6659 H6651 0.950 . S
C6659 C6657 1.327 . S
C6660 C6648 1.349 . S
C6660 H6654 0.950 . S
C6660 C6661 1.327 . S
C6661 H6655 0.950 . S
C6661 C6660 1.327 . S
C6661 C6665 1.429 . S
C6662 C6645 1.574 . S
C6662 H6656 0.949 . S
C6662 C6666 1.368 . S
C6663 C6644 1.429 . S
C6663 C6657 1.429 . S
C6663 C6664 1.523 . S
C6664 C6645 1.368 . S
C6664 C6658 1.368 . S
C6664 C6663 1.523 . S
C6665 C6649 1.429 . S
C6665 C6661 1.429 . S
C6665 C6666 1.523 . S
C6666 C6650 1.368 . S
C6666 C6662 1.368 . S
C6666 C6665 1.523 . S
H6667 C6642 0.950 . S
H6668 C6644 0.950 . S
H6669 C6645 0.949 . S
H6670 C6647 0.950 . S
H6671 C6649 0.950 . S
C2353 C1781 1.558 . S
C2358 C1925 1.587 . S
C2383 C981 1.560 . S
C2388 C1934 1.590 . S
C2418 C1943 1.579 . S
C2413 C1861 1.595 . S
C2443 C1061 1.624 . S
C2448 C1952 1.607 . S
C2473 C1901 1.574 . S
C2478 C1961 1.605 . S
C2503 C941 1.556 . S
C2508 C1970 1.585 . S
C2533 C1821 1.608 . S
C2538 C1979 1.591 . S
C2563 C1021 1.597 . S
C2568 C1988 1.581 . S
C2593 C661 1.586 . S
C2598 C1997 1.624 . S
C2623 C1621 1.627 . S
C2628 C2006 1.614 . S
C2653 C741 1.591 . S
C2658 C2015 1.628 . S
C2683 C1581 1.561 . S
C2688 C2024 1.595 . S
C2713 C901 1.648 . S
C2718 C2033 1.631 . S
C2748 C2042 1.595 . S
C2743 C1661 1.613 . S
C2778 C2051 1.656 . S
C2773 C821 1.613 . S
C2803 C1141 1.610 . S
C2808 C2060 1.597 . S
C2838 C2069 1.587 . S
C2833 C781 1.604 . S
C2868 C2078 1.660 . S
C2863 C1701 1.617 . S
C2893 C861 1.618 . S
C2898 C2087 1.606 . S
C2923 C1181 1.584 . S
C2928 C2096 1.622 . S
C2958 C2105 1.630 . S
C2953 C1101 1.593 . S
C2983 C1421 1.587 . S
C2988 C2114 1.622 . S
C3018 C2123 1.610 . S
C3013 C381 1.627 . S
C3048 C2132 1.631 . S
C3043 C1501 1.641 . S
C3078 C2141 1.658 . S
C3073 C461 1.621 . S
C3108 C2150 1.650 . S
C3103 C1541 1.613 . S
C3133 C341 1.589 . S
C3138 C2159 1.625 . S
C3168 C2168 1.618 . S
C3163 C1461 1.634 . S
C3193 C421 1.638 . S
C3198 C2177 1.628 . S
C3228 C2186 1.615 . S
C3223 C61 1.578 . S
C3258 C2195 1.614 . S
C3253 C1261 1.582 . S
C3283 C141 1.582 . S
C3288 C2204 1.612 . S
C3318 C2213 1.591 . S
C3313 C1221 1.606 . S
C3348 C2222 1.608 . S
C3343 C301 1.617 . S
C3373 C1301 1.604 . S
C3378 C2231 1.587 . S
C3408 C2240 1.627 . S
C3403 C221 1.599 . S
C3438 C2249 1.596 . S
C3433 C541 1.606 . S
C3463 C181 1.597 . S
C3468 C2258 1.580 . S
C3498 C2267 1.623 . S
C3493 C1341 1.596 . S
C3523 C261 1.613 . S
C3528 C2276 1.603 . S
C3558 C2285 1.620 . S
C3553 C581 1.589 . S
C3583 C501 1.570 . S
C3588 C2294 1.607 . S
C3613 C701 1.630 . S
C3618 C2303 1.617 . S
C3648 C2312 1.591 . S
C3643 C621 1.558 . S
C3673 C1741 1.644 . S
C3678 C2321 1.627 . S
C3703 C101 1.572 . S
C3708 C2330 1.604 . S
C3738 C2339 1.602 . S
C3733 C21 1.618 . S
C3768 C2348 1.612 . S
C3763 C1381 1.621 . S
C3793 C1335 1.743 . S
C3798 C1924 1.742 . S
C3823 C535 1.492 . S
C3828 C1936 1.498 . S
C3853 C1362 1.815 . S
C3858 C1942 1.772 . S
C3888 C1954 1.485 . S
C3883 C1295 1.482 . S
C3913 C575 1.768 . S
C3918 C1960 1.768 . S
C3943 C1215 1.482 . S
C3948 C1972 1.488 . S
C3978 C1978 1.789 . S
C3973 C495 1.790 . S
C4003 C1242 1.463 . S
C4008 C1990 1.492 . S
C4033 C1255 1.821 . S
C4038 C1996 1.821 . S
C4068 C2005 1.472 . S
C4063 C562 1.442 . S
C4093 C1202 1.855 . S
C4098 C2014 1.812 . S
C4128 C2026 1.465 . S
C4123 C482 1.439 . S
C4153 C522 1.883 . S
C4158 C2032 1.839 . S
C4183 C1375 1.482 . S
C4188 C2044 1.485 . S
C4218 C2053 1.815 . S
C4213 C1282 1.852 . S
C4248 C2059 1.461 . S
C4243 C1322 1.435 . S
C4273 C455 1.814 . S
C4278 C2023 1.813 . S
C4303 C1415 1.817 . S
C4308 C2068 1.814 . S
C4333 C1455 1.510 . S
C4338 C2077 1.521 . S
C4368 C2089 1.826 . S
C4363 C1482 1.866 . S
C4398 C2035 1.527 . S
C4393 C442 1.493 . S
C4423 C362 1.859 . S
C4428 C2008 1.820 . S
C4453 C1495 1.511 . S
C4458 C2098 1.519 . S
C4488 C2107 1.502 . S
C4483 C1402 1.468 . S
C4518 C2113 1.516 . S
C4513 C1695 1.503 . S
C4543 C1135 1.842 . S
C4548 C2125 1.833 . S
C4578 C2134 1.500 . S
C4573 C1722 1.509 . S
C4608 C2143 1.841 . S
C4603 C1655 1.852 . S
C4633 C1175 1.503 . S
C4638 C2149 1.516 . S
C4663 C1562 1.803 . S
C4668 C2161 1.819 . S
C4693 C1095 1.475 . S
C4698 C2167 1.487 . S
C4728 C2176 1.823 . S
C4723 C1615 1.823 . S
C4758 C2188 1.500 . S
C4753 C1602 1.508 . S
C4783 C1162 1.798 . S
C4788 C2197 1.816 . S
C4818 C2203 1.485 . S
C4813 C1575 1.475 . S
C4843 C1082 1.771 . S
C4848 C2215 1.789 . S
C4878 C2224 1.479 . S
C4873 C1122 1.486 . S
C4903 C1735 1.814 . S
C4908 C2233 1.805 . S
C4938 C2239 1.494 . S
C4933 C1642 1.505 . S
C4963 C1682 1.768 . S
C4968 C2248 1.796 . S
C4993 C1042 1.474 . S
C4998 C2212 1.462 . S
C5023 C1775 1.442 . S
C5028 C2257 1.449 . S
C5053 C1815 1.793 . S
C5058 C2269 1.784 . S
C5088 C2278 1.459 . S
C5083 C1842 1.469 . S
C5113 C1055 1.761 . S
C5118 C2221 1.763 . S
C5143 C975 1.464 . S
C5148 C2194 1.472 . S
C5178 C2287 1.780 . S
C5173 C1855 1.790 . S
C5203 C1762 1.736 . S
C5208 C2293 1.757 . S
C5238 C1969 1.749 . S
C5233 C215 1.750 . S
C5268 C1981 1.505 . S
C5263 C255 1.500 . S
C5298 C1987 1.766 . S
C5293 C282 1.807 . S
C5328 C1963 1.477 . S
C5323 C175 1.473 . S
C5358 C1951 1.789 . S
C5353 C135 1.790 . S
C5383 C15 1.485 . S
C5388 C1927 1.491 . S
C5413 C55 1.768 . S
C5418 C1933 1.768 . S
C5443 C82 1.461 . S
C5448 C1945 1.489 . S
C5473 C95 1.806 . S
C5478 C2104 1.807 . S
C5503 C122 1.448 . S
C5508 C2302 1.479 . S
C5533 C2 1.870 . S
C5538 C2095 1.826 . S
C5563 C42 1.432 . S
C5568 C2314 1.458 . S
C5593 C242 1.878 . S
C5598 C2320 1.834 . S
C5628 C2071 1.475 . S
C5623 C295 1.472 . S
C5653 C162 1.857 . S
C5658 C2080 1.821 . S
C5683 C202 1.444 . S
C5688 C2086 1.471 . S
C5718 C2311 1.809 . S
C5713 C1535 1.809 . S
C5743 C335 1.826 . S
C5748 C2041 1.824 . S
C5773 C375 1.502 . S
C5778 C2050 1.513 . S
C5803 C402 1.857 . S
C5808 C2062 1.817 . S
C5838 C2323 1.518 . S
C5833 C1522 1.485 . S
C5868 C2305 1.825 . S
C5863 C1442 1.864 . S
C5898 C2017 1.510 . S
C5893 C415 1.502 . S
C5923 C322 1.477 . S
C5928 C1999 1.510 . S
C5953 C815 1.507 . S
C5958 C2158 1.520 . S
C5983 C855 1.843 . S
C5988 C2170 1.834 . S
C6013 C882 1.505 . S
C6018 C2179 1.497 . S
C6043 C775 1.851 . S
C6048 C2152 1.840 . S
C6078 C2140 1.518 . S
C6073 C735 1.505 . S
C6108 C2116 1.815 . S
C6103 C602 1.800 . S
C6138 C2122 1.484 . S
C6133 C655 1.473 . S
C6163 C695 1.827 . S
C6168 C2131 1.827 . S
C6198 C2296 1.501 . S
C6193 C682 1.509 . S
C6223 C722 1.799 . S
C6228 C2332 1.818 . S
C6253 C615 1.474 . S
C6258 C2284 1.484 . S
C6288 C2341 1.787 . S
C6283 C642 1.769 . S
C6313 C842 1.501 . S
C6318 C2350 1.493 . S
C6348 C2260 1.797 . S
C6343 C895 1.806 . S
C6373 C762 1.490 . S
C6378 C2266 1.479 . S
C6403 C802 1.776 . S
C6408 C2275 1.805 . S
C6433 C1895 1.461 . S
C6438 C2338 1.469 . S
C6468 C2230 1.453 . S
C6463 C935 1.446 . S
C6493 C962 1.770 . S
C6498 C2242 1.784 . S
C6523 C1002 1.465 . S
C6528 C2251 1.454 . S
C6553 C1882 1.739 . S
C6558 C2347 1.763 . S
C6583 C1802 1.477 . S
C6588 C2329 1.465 . S
C6618 C2206 1.778 . S
C6613 C1015 1.788 . S
C6648 C2185 1.759 . S
C6643 C922 1.737 . S
