# Generated by pormake.
# Topology llk, (3,12)-cn, num edge types: 1
# Building blocks:
#     Node 0, Type 0, BuildingBlock: QEWDON_clean_linker_0, # of connection points: 3
#     Node 1, Type 0, BuildingBlock: QEWDON_clean_linker_0, # of connection points: 3
#     Node 2, Type 0, BuildingBlock: QEWDON_clean_linker_0, # of connection points: 3
#     Node 3, Type 0, BuildingBlock: QEWDON_clean_linker_0, # of connection points: 3
#     Node 4, Type 0, BuildingBlock: QEWDON_clean_linker_0, # of connection points: 3
#     Node 5, Type 0, BuildingBlock: QEWDON_clean_linker_0, # of connection points: 3
#     Node 6, Type 0, BuildingBlock: QEWDON_clean_linker_0, # of connection points: 3
#     Node 7, Type 0, BuildingBlock: QEWDON_clean_linker_0, # of connection points: 3
#     Node 8, Type 0, BuildingBlock: QEWDON_clean_linker_0, # of connection points: 3
#     Node 9, Type 0, BuildingBlock: QEWDON_clean_linker_0, # of connection points: 3
#     Node 10, Type 0, BuildingBlock: QEWDON_clean_linker_0, # of connection points: 3
#     Node 11, Type 0, BuildingBlock: QEWDON_clean_linker_0, # of connection points: 3
#     Node 12, Type 0, BuildingBlock: QEWDON_clean_linker_0, # of connection points: 3
#     Node 13, Type 0, BuildingBlock: QEWDON_clean_linker_0, # of connection points: 3
#     Node 14, Type 0, BuildingBlock: QEWDON_clean_linker_0, # of connection points: 3
#     Node 15, Type 0, BuildingBlock: QEWDON_clean_linker_0, # of connection points: 3
#     Node 16, Type 0, BuildingBlock: QEWDON_clean_linker_0, # of connection points: 3
#     Node 17, Type 0, BuildingBlock: QEWDON_clean_linker_0, # of connection points: 3
#     Node 18, Type 0, BuildingBlock: QEWDON_clean_linker_0, # of connection points: 3
#     Node 19, Type 0, BuildingBlock: QEWDON_clean_linker_0, # of connection points: 3
#     Node 20, Type 0, BuildingBlock: QEWDON_clean_linker_0, # of connection points: 3
#     Node 21, Type 0, BuildingBlock: QEWDON_clean_linker_0, # of connection points: 3
#     Node 22, Type 0, BuildingBlock: QEWDON_clean_linker_0, # of connection points: 3
#     Node 23, Type 0, BuildingBlock: QEWDON_clean_linker_0, # of connection points: 3
#     Node 24, Type 1, BuildingBlock: QEWDON_clean_sbu_0, # of connection points: 12
#     Node 25, Type 1, BuildingBlock: QEWDON_clean_sbu_0, # of connection points: 12
#     Node 26, Type 1, BuildingBlock: QEWDON_clean_sbu_0, # of connection points: 12
#     Node 27, Type 1, BuildingBlock: QEWDON_clean_sbu_0, # of connection points: 12
#     Node 28, Type 1, BuildingBlock: QEWDON_clean_sbu_0, # of connection points: 12
#     Node 29, Type 1, BuildingBlock: QEWDON_clean_sbu_0, # of connection points: 12
#     Edge 30, Type (0, 1), BuildingBlock: AJUNOK_clean_linker_0, # of connection points: 2
#     Edge 31, Type (0, 1), BuildingBlock: AJUNOK_clean_linker_0, # of connection points: 2
#     Edge 32, Type (0, 1), BuildingBlock: AJUNOK_clean_linker_0, # of connection points: 2
#     Edge 33, Type (0, 1), BuildingBlock: AJUNOK_clean_linker_0, # of connection points: 2
#     Edge 34, Type (0, 1), BuildingBlock: AJUNOK_clean_linker_0, # of connection points: 2
#     Edge 35, Type (0, 1), BuildingBlock: AJUNOK_clean_linker_0, # of connection points: 2
#     Edge 36, Type (0, 1), BuildingBlock: AJUNOK_clean_linker_0, # of connection points: 2
#     Edge 37, Type (0, 1), BuildingBlock: AJUNOK_clean_linker_0, # of connection points: 2
#     Edge 38, Type (0, 1), BuildingBlock: AJUNOK_clean_linker_0, # of connection points: 2
#     Edge 39, Type (0, 1), BuildingBlock: AJUNOK_clean_linker_0, # of connection points: 2
#     Edge 40, Type (0, 1), BuildingBlock: AJUNOK_clean_linker_0, # of connection points: 2
#     Edge 41, Type (0, 1), BuildingBlock: AJUNOK_clean_linker_0, # of connection points: 2
#     Edge 42, Type (0, 1), BuildingBlock: AJUNOK_clean_linker_0, # of connection points: 2
#     Edge 43, Type (0, 1), BuildingBlock: AJUNOK_clean_linker_0, # of connection points: 2
#     Edge 44, Type (0, 1), BuildingBlock: AJUNOK_clean_linker_0, # of connection points: 2
#     Edge 45, Type (0, 1), BuildingBlock: AJUNOK_clean_linker_0, # of connection points: 2
#     Edge 46, Type (0, 1), BuildingBlock: AJUNOK_clean_linker_0, # of connection points: 2
#     Edge 47, Type (0, 1), BuildingBlock: AJUNOK_clean_linker_0, # of connection points: 2
#     Edge 48, Type (0, 1), BuildingBlock: AJUNOK_clean_linker_0, # of connection points: 2
#     Edge 49, Type (0, 1), BuildingBlock: AJUNOK_clean_linker_0, # of connection points: 2
#     Edge 50, Type (0, 1), BuildingBlock: AJUNOK_clean_linker_0, # of connection points: 2
#     Edge 51, Type (0, 1), BuildingBlock: AJUNOK_clean_linker_0, # of connection points: 2
#     Edge 52, Type (0, 1), BuildingBlock: AJUNOK_clean_linker_0, # of connection points: 2
#     Edge 53, Type (0, 1), BuildingBlock: AJUNOK_clean_linker_0, # of connection points: 2
#     Edge 54, Type (0, 1), BuildingBlock: AJUNOK_clean_linker_0, # of connection points: 2
#     Edge 55, Type (0, 1), BuildingBlock: AJUNOK_clean_linker_0, # of connection points: 2
#     Edge 56, Type (0, 1), BuildingBlock: AJUNOK_clean_linker_0, # of connection points: 2
#     Edge 57, Type (0, 1), BuildingBlock: AJUNOK_clean_linker_0, # of connection points: 2
#     Edge 58, Type (0, 1), BuildingBlock: AJUNOK_clean_linker_0, # of connection points: 2
#     Edge 59, Type (0, 1), BuildingBlock: AJUNOK_clean_linker_0, # of connection points: 2
#     Edge 60, Type (0, 1), BuildingBlock: AJUNOK_clean_linker_0, # of connection points: 2
#     Edge 61, Type (0, 1), BuildingBlock: AJUNOK_clean_linker_0, # of connection points: 2
#     Edge 62, Type (0, 1), BuildingBlock: AJUNOK_clean_linker_0, # of connection points: 2
#     Edge 63, Type (0, 1), BuildingBlock: AJUNOK_clean_linker_0, # of connection points: 2
#     Edge 64, Type (0, 1), BuildingBlock: AJUNOK_clean_linker_0, # of connection points: 2
#     Edge 65, Type (0, 1), BuildingBlock: AJUNOK_clean_linker_0, # of connection points: 2
#     Edge 66, Type (0, 1), BuildingBlock: AJUNOK_clean_linker_0, # of connection points: 2
#     Edge 67, Type (0, 1), BuildingBlock: AJUNOK_clean_linker_0, # of connection points: 2
#     Edge 68, Type (0, 1), BuildingBlock: AJUNOK_clean_linker_0, # of connection points: 2
#     Edge 69, Type (0, 1), BuildingBlock: AJUNOK_clean_linker_0, # of connection points: 2
#     Edge 70, Type (0, 1), BuildingBlock: AJUNOK_clean_linker_0, # of connection points: 2
#     Edge 71, Type (0, 1), BuildingBlock: AJUNOK_clean_linker_0, # of connection points: 2
#     Edge 72, Type (0, 1), BuildingBlock: AJUNOK_clean_linker_0, # of connection points: 2
#     Edge 73, Type (0, 1), BuildingBlock: AJUNOK_clean_linker_0, # of connection points: 2
#     Edge 74, Type (0, 1), BuildingBlock: AJUNOK_clean_linker_0, # of connection points: 2
#     Edge 75, Type (0, 1), BuildingBlock: AJUNOK_clean_linker_0, # of connection points: 2
#     Edge 76, Type (0, 1), BuildingBlock: AJUNOK_clean_linker_0, # of connection points: 2
#     Edge 77, Type (0, 1), BuildingBlock: AJUNOK_clean_linker_0, # of connection points: 2
#     Edge 78, Type (0, 1), BuildingBlock: AJUNOK_clean_linker_0, # of connection points: 2
#     Edge 79, Type (0, 1), BuildingBlock: AJUNOK_clean_linker_0, # of connection points: 2
#     Edge 80, Type (0, 1), BuildingBlock: AJUNOK_clean_linker_0, # of connection points: 2
#     Edge 81, Type (0, 1), BuildingBlock: AJUNOK_clean_linker_0, # of connection points: 2
#     Edge 82, Type (0, 1), BuildingBlock: AJUNOK_clean_linker_0, # of connection points: 2
#     Edge 83, Type (0, 1), BuildingBlock: AJUNOK_clean_linker_0, # of connection points: 2
#     Edge 84, Type (0, 1), BuildingBlock: AJUNOK_clean_linker_0, # of connection points: 2
#     Edge 85, Type (0, 1), BuildingBlock: AJUNOK_clean_linker_0, # of connection points: 2
#     Edge 86, Type (0, 1), BuildingBlock: AJUNOK_clean_linker_0, # of connection points: 2
#     Edge 87, Type (0, 1), BuildingBlock: AJUNOK_clean_linker_0, # of connection points: 2
#     Edge 88, Type (0, 1), BuildingBlock: AJUNOK_clean_linker_0, # of connection points: 2
#     Edge 89, Type (0, 1), BuildingBlock: AJUNOK_clean_linker_0, # of connection points: 2
#     Edge 90, Type (0, 1), BuildingBlock: AJUNOK_clean_linker_0, # of connection points: 2
#     Edge 91, Type (0, 1), BuildingBlock: AJUNOK_clean_linker_0, # of connection points: 2
#     Edge 92, Type (0, 1), BuildingBlock: AJUNOK_clean_linker_0, # of connection points: 2
#     Edge 93, Type (0, 1), BuildingBlock: AJUNOK_clean_linker_0, # of connection points: 2
#     Edge 94, Type (0, 1), BuildingBlock: AJUNOK_clean_linker_0, # of connection points: 2
#     Edge 95, Type (0, 1), BuildingBlock: AJUNOK_clean_linker_0, # of connection points: 2
#     Edge 96, Type (0, 1), BuildingBlock: AJUNOK_clean_linker_0, # of connection points: 2
#     Edge 97, Type (0, 1), BuildingBlock: AJUNOK_clean_linker_0, # of connection points: 2
#     Edge 98, Type (0, 1), BuildingBlock: AJUNOK_clean_linker_0, # of connection points: 2
#     Edge 99, Type (0, 1), BuildingBlock: AJUNOK_clean_linker_0, # of connection points: 2
#     Edge 100, Type (0, 1), BuildingBlock: AJUNOK_clean_linker_0, # of connection points: 2
#     Edge 101, Type (0, 1), BuildingBlock: AJUNOK_clean_linker_0, # of connection points: 2
# Relax obj value: 0.118
# Max RMSD: 0.259
# Mean RMSD: 0.203
data_MOF--net-llk--node1-QEWDON_clean_sbu_0--node2-QEWDON_clean_linker_0--edge1-AJUNOK_clean_linker_0
_symmetry_space_group_name_H-M    P1
_symmetry_Int_Tables_number       1
_symmetry_cell_setting            triclinic
loop_
_symmetry_equiv_pos_as_xyz
'x, y, z'
_cell_length_a     38.060759
_cell_length_b     38.147202
_cell_length_c     37.405465
_cell_angle_alpha  90.073001
_cell_angle_beta   89.899664
_cell_angle_gamma 89.564652
loop_
_atom_site_label
_atom_site_type_symbol
_atom_site_fract_x
_atom_site_fract_y
_atom_site_fract_z
_atom_type_partial_charge
H0 H 0.01345 0.33524 0.28372 0.0
C1 C 0.02198 0.31185 0.29772 0.0
C2 C 0.03168 0.31504 0.33366 0.0
C3 C 0.0216 0.27898 0.2805 0.0
H4 H 0.0498 0.28806 0.38029 0.0
C5 C 0.04155 0.28509 0.35278 0.0
C6 C 0.03751 0.25146 0.33783 0.0
C7 C 0.02889 0.24876 0.30117 0.0
C8 C 0.01116 0.27673 0.24183 0.0
H9 H 0.02672 0.22308 0.28916 0.0
C10 C 0.01765 0.30504 0.21851 0.0
C11 C 0.00503 0.30521 0.18318 0.0
C12 C 0.99318 0.24748 0.22814 0.0
H13 H 0.98682 0.22537 0.24495 0.0
C14 C 0.98192 0.24686 0.19253 0.0
H15 H 0.0324 0.32746 0.22773 0.0
C16 C 0.98748 0.27565 0.17021 0.0
H17 H 0.97723 0.27518 0.14322 0.0
H18 H 0.96793 0.22431 0.18248 0.0
H19 H 0.72529 0.05475 0.28914 0.0
C20 C 0.71435 0.05282 0.26249 0.0
C21 C 0.67895 0.04399 0.25886 0.0
C22 C 0.73487 0.06101 0.23232 0.0
H23 H 0.63635 0.03604 0.22243 0.0
C24 C 0.66372 0.04333 0.22495 0.0
C25 C 0.68332 0.05208 0.19449 0.0
C26 C 0.71892 0.06085 0.19838 0.0
C27 C 0.77244 0.0708 0.23669 0.0
H28 H 0.73407 0.06779 0.17499 0.0
C29 C 0.79256 0.05607 0.26448 0.0
C30 C 0.8269 0.06734 0.27098 0.0
C31 C 0.78809 0.09598 0.21435 0.0
H32 H 0.77339 0.10862 0.19319 0.0
C33 C 0.8228 0.10623 0.21989 0.0
H34 H 0.7815 0.0361 0.28163 0.0
C35 C 0.84207 0.09228 0.24826 0.0
H36 H 0.86834 0.10186 0.25314 0.0
H37 H 0.83445 0.12585 0.20279 0.0
H38 H 0.00419 0.73721 0.32008 0.0
C39 C 0.00825 0.72555 0.29403 0.0
C40 C 0.01471 0.68912 0.2918 0.0
C41 C 0.00544 0.74642 0.26285 0.0
H42 H 0.02457 0.6462 0.25523 0.0
C43 C 0.01785 0.67371 0.25784 0.0
C44 C 0.01162 0.6931 0.2268 0.0
C45 C 0.00742 0.72947 0.22926 0.0
C46 C -0.00094 0.78536 0.26501 0.0
H47 H 0.00533 0.74413 0.20465 0.0
C48 C 0.0089 0.80513 0.29545 0.0
C49 C 0.00231 0.84143 0.29694 0.0
C50 C 0.98243 0.80329 0.23652 0.0
H51 H 0.97251 0.78963 0.21338 0.0
C52 C 0.97727 0.83948 0.23761 0.0
H53 H 0.02133 0.79271 0.31818 0.0
C54 C 0.98714 0.85849 0.26762 0.0
H55 H 0.98165 0.8864 0.26857 0.0
H56 H 0.96465 0.85271 0.21544 0.0
H57 H 0.26483 0.98664 0.29058 0.0
C58 C 0.28205 0.99113 0.268 0.0
C59 C 0.31748 0.9974 0.27471 0.0
C60 C 0.26875 0.9918 0.23287 0.0
H61 H 0.3684 0.00547 0.25146 0.0
C62 C 0.34074 1.00155 0.24602 0.0
C63 C 0.32855 1.00061 0.21058 0.0
C64 C 0.2923 0.99668 0.2043 0.0
C65 C 0.23025 0.98818 0.22673 0.0
H66 H 0.28231 0.99862 0.17729 0.0
C67 C 0.20654 1.0001 0.25292 0.0
C68 C 0.17099 0.99138 0.25148 0.0
C69 C 0.2168 0.97079 0.19652 0.0
H70 H 0.23412 0.96095 0.17576 0.0
C71 C 0.18067 0.96453 0.1936 0.0
H72 H 0.21581 0.01457 0.27595 0.0
C73 C 0.15782 0.97418 0.22133 0.0
H74 H 0.13037 0.96702 0.21993 0.0
H75 H 0.17062 0.95073 0.17052 0.0
H76 H 0.96832 0.71419 0.72829 0.0
C77 C 0.97512 0.73793 0.71414 0.0
C78 C 0.98174 0.73582 0.67732 0.0
C79 C 0.97908 0.76957 0.73301 0.0
H80 H -0.00651 0.76551 0.62982 0.0
C81 C 0.98774 0.7669 0.65818 0.0
C82 C 0.98859 0.79955 0.67582 0.0
C83 C 0.98435 0.80052 0.71327 0.0
C84 C 0.98078 0.76934 0.7731 0.0
H85 H 0.98608 0.82537 0.72702 0.0
C86 C 0.99273 0.73909 0.79127 0.0
C87 C -0.00639 0.73766 0.82871 0.0
C88 C 0.97124 0.79892 0.79366 0.0
H89 H 0.96129 0.82256 0.78121 0.0
C90 C 0.97373 0.79814 0.83098 0.0
H91 H 0.00105 0.71598 0.77663 0.0
C92 C 0.98464 0.76762 0.84851 0.0
H93 H 0.98456 0.76692 0.87747 0.0
H94 H 0.96615 0.82099 0.84644 0.0
H95 H 0.29932 0.00983 0.72579 0.0
C96 C 0.31052 1.00032 0.75059 0.0
C97 C 0.34445 0.98632 0.74968 0.0
C98 C 0.29235 0.00462 0.78311 0.0
H99 H 0.38685 0.96497 0.78022 0.0
C100 C 0.36027 0.97537 0.78128 0.0
C101 C 0.34499 0.98351 0.81442 0.0
C102 C 0.31031 0.99699 0.81526 0.0
C103 C 0.25646 0.02077 0.78251 0.0
H104 H 0.2982 0.00335 0.84061 0.0
C105 C 0.23474 0.01561 0.75252 0.0
C106 C 0.20378 0.0351 0.74788 0.0
C107 C 0.24479 0.04381 0.80956 0.0
H108 H 0.26075 0.04913 0.8328 0.0
C109 C 0.21277 0.06174 0.80605 0.0
H110 H 0.2423 0.99704 0.7319 0.0
C111 C 0.19257 0.05788 0.77515 0.0
H112 H 0.16882 0.07341 0.77214 0.0
H113 H 0.20422 0.07971 0.82679 0.0
H114 H 0.99079 0.29402 0.70068 0.0
C115 C -0.00288 0.30518 0.7265 0.0
C116 C 0.00488 0.34084 0.72852 0.0
C117 C -0.00319 0.28434 0.75755 0.0
H118 H 0.01654 0.38422 0.7628 0.0
C119 C 0.01166 0.35627 0.76164 0.0
C120 C 0.01123 0.3363 0.79315 0.0
C121 C 0.00441 0.30014 0.79082 0.0
C122 C 0.98717 0.24659 0.75512 0.0
H123 H 0.00508 0.2844 0.81488 0.0
C124 C -0.00337 0.22641 0.72489 0.0
C125 C 0.98516 0.19168 0.72122 0.0
C126 C 0.96698 0.23084 0.78219 0.0
H127 H 0.95862 0.24557 0.80549 0.0
C128 C 0.95648 0.19598 0.77906 0.0
H129 H 0.01267 0.23764 0.70394 0.0
C130 C 0.96542 0.17653 0.74873 0.0
H131 H 0.95741 0.1495 0.74698 0.0
H132 H 0.9411 0.18408 0.8001 0.0
H133 H 0.71753 0.06438 0.74608 0.0
C134 C 0.74388 0.05589 0.73898 0.0
C135 C 0.75072 0.0453 0.70383 0.0
C136 C 0.77092 0.05611 0.76461 0.0
H137 H 0.78974 0.0274 0.66654 0.0
C138 C 0.78461 0.03504 0.69402 0.0
C139 C 0.81189 0.03477 0.71918 0.0
C140 C 0.80496 0.04531 0.75449 0.0
C141 C 0.76324 0.06721 0.80188 0.0
H142 H 0.82591 0.04462 0.77407 0.0
C143 C 0.73175 0.05703 0.81833 0.0
C144 C 0.72376 0.06751 0.85336 0.0
C145 C 0.78689 0.08814 0.82115 0.0
H146 H 0.81127 0.09668 0.80912 0.0
C147 C 0.77891 0.09882 0.85604 0.0
H148 H 0.71344 0.0405 0.80405 0.0
C149 C 0.74743 0.08866 0.87211 0.0
H150 H 0.7419 0.09664 0.89935 0.0
H151 H 0.79722 0.11495 0.87068 0.0
H152 H 0.26765 0.33383 0.03401 0.0
C153 C 0.27877 0.30821 0.02831 0.0
C154 C 0.31458 0.3056 0.01974 0.0
C155 C 0.25755 0.27789 0.02913 0.0
H156 H 0.35769 0.27067 0.00883 0.0
C157 C 0.32963 0.27273 0.01381 0.0
C158 C 0.30941 0.24246 0.01456 0.0
C159 C 0.27337 0.24493 0.02208 0.0
C160 C 0.21901 0.28069 0.03645 0.0
H161 H 0.25781 0.22128 0.02175 0.0
C162 C 0.19966 0.31026 0.02507 0.0
C163 C 0.1634 0.31312 0.0317 0.0
C164 C 0.20111 0.25381 0.05458 0.0
H165 H 0.21502 0.23099 0.06453 0.0
C166 C 0.16492 0.2563 0.06062 0.0
H167 H 0.21251 0.33102 0.01041 0.0
C168 C 0.14608 0.28575 0.04922 0.0
H169 H 0.1182 0.28744 0.05469 0.0
H170 H 0.15149 0.23545 0.07455 0.0
H171 H 0.24332 0.71891 0.00487 0.0
C172 C 0.25762 0.74317 0.00815 0.0
C173 C 0.29412 0.74176 0.01205 0.0
C174 C 0.23983 0.77574 0.0071 0.0
H175 H 0.34146 0.77183 0.01712 0.0
C176 C 0.31304 0.77286 0.01491 0.0
C177 C 0.29576 0.80531 0.01321 0.0
C178 C 0.25923 0.80684 0.00933 0.0
C179 C 0.20141 0.77668 0.00112 0.0
H180 H 0.2461 0.83211 0.00779 0.0
C181 C 0.18007 0.75193 0.0181 0.0
C182 C 0.14578 0.74554 0.00601 0.0
C183 C 0.18666 0.79888 0.97519 0.0
H184 H 0.20252 0.81819 0.96157 0.0
C185 C 0.15176 0.79464 0.96482 0.0
H186 H 0.19125 0.73585 0.03912 0.0
C187 C 0.13178 0.76749 0.97917 0.0
H188 H 0.10625 0.76273 0.96759 0.0
H189 H 0.14085 0.81106 0.94396 0.0
H190 H 0.7464 0.28105 0.02788 0.0
C191 C 0.77126 0.29383 0.0231 0.0
C192 C 0.77142 0.33026 0.01826 0.0
C193 C 0.80299 0.27428 0.02198 0.0
H194 H 0.80341 0.3758 0.0131 0.0
C195 C 0.80334 0.34738 0.01432 0.0
C196 C 0.83499 0.32869 0.01168 0.0
C197 C 0.83483 0.29214 0.01561 0.0
C198 C 0.80293 0.23557 0.02817 0.0
H199 H 0.85943 0.27784 0.01338 0.0
C200 C 0.77402 0.21496 0.01788 0.0
C201 C 0.77278 0.17904 0.02624 0.0
C202 C 0.83116 0.21912 0.04598 0.0
H203 H 0.85353 0.234 0.05511 0.0
C204 C 0.83039 0.18329 0.05346 0.0
H205 H 0.75195 0.22687 0.00417 0.0
C206 C 0.80127 0.16338 0.04399 0.0
H207 H 0.80082 0.13579 0.05082 0.0
H208 H 0.85216 0.17106 0.06738 0.0
H209 H 0.72283 0.75831 0.9926 0.0
C210 C 0.74788 0.74487 0.99485 0.0
C211 C 0.74763 0.70854 -0.00221 0.0
C212 C 0.77977 0.76348 0.99368 0.0
H213 H 0.77865 0.66193 0.00225 0.0
C214 C 0.77931 0.69009 -0.0015 0.0
C215 C 0.81147 0.70734 0.99391 0.0
C216 C 0.8117 0.74427 0.99268 0.0
C217 C 0.77861 0.80261 0.99207 0.0
H218 H 0.83656 0.75773 0.99084 0.0
C219 C 0.74962 0.82071 0.0068 0.0
C220 C 0.74328 0.85599 -0.00114 0.0
C221 C 0.80397 0.82197 0.97324 0.0
H222 H 0.82657 0.80927 0.96118 0.0
C223 C 0.79948 0.85811 0.96828 0.0
H224 H 0.73045 0.80704 0.02292 0.0
C225 C 0.76894 0.875 0.98038 0.0
H226 H 0.76469 0.90239 0.97401 0.0
H227 H 0.81891 0.87272 0.95344 0.0
H228 H 0.51314 0.82946 0.7653 0.0
C229 C 0.5199 0.80483 0.77805 0.0
C230 C 0.52627 0.80478 0.81478 0.0
C231 C 0.52073 0.77348 0.75814 0.0
H232 H 0.53629 0.77312 0.86104 0.0
C233 C 0.53327 0.77313 0.8322 0.0
C234 C 0.53299 0.74127 0.81337 0.0
C235 C 0.52681 0.74154 0.77621 0.0
C236 C 0.51274 0.77491 0.71916 0.0
H237 H 0.52633 0.71697 0.76167 0.0
C238 C 0.52382 0.80391 0.69897 0.0
C239 C 0.51033 0.81045 0.66467 0.0
C240 C 0.49099 0.75 0.70279 0.0
H241 H 0.48166 0.72749 0.71752 0.0
C242 C 0.47965 0.75488 0.66755 0.0
H243 H 0.54201 0.82237 0.71066 0.0
C244 C 0.48875 0.78519 0.64873 0.0
H245 H 0.47804 0.78936 0.62225 0.0
H246 H 0.46255 0.73579 0.65529 0.0
H247 H 0.26121 0.56219 0.8022 0.0
C248 C 0.25383 0.55535 0.77513 0.0
C249 C 0.21901 0.54551 0.76817 0.0
C250 C 0.27898 0.55608 0.74725 0.0
H251 H 0.182 0.53171 0.72732 0.0
C252 C 0.20923 0.53769 0.73316 0.0
C253 C 0.23373 0.538 0.70536 0.0
C254 C 0.26853 0.54723 0.71226 0.0
C255 C 0.31624 0.5651 0.75462 0.0
H256 H 0.28733 0.54698 0.69048 0.0
C257 C 0.33262 0.55357 0.7862 0.0
C258 C 0.36814 0.5609 0.79287 0.0
C259 C 0.33595 0.58458 0.72984 0.0
H260 H 0.32409 0.59436 0.70548 0.0
C261 C 0.37121 0.59207 0.73643 0.0
H262 H 0.31782 0.53867 0.80562 0.0
C263 C 0.38728 0.58035 0.76776 0.0
H264 H 0.41472 0.58622 0.77224 0.0
H265 H 0.38613 0.60703 0.71717 0.0
H266 H 0.47307 0.24797 0.81375 0.0
C267 C 0.47461 0.23442 0.78838 0.0
C268 C 0.47982 0.19784 0.78867 0.0
C269 C 0.47179 0.25314 0.75594 0.0
H270 H 0.4873 0.15163 0.7563 0.0
C271 C 0.48166 0.17953 0.75607 0.0
C272 C 0.47897 0.19733 0.72325 0.0
C273 C 0.47339 0.23384 0.72364 0.0
C274 C 0.4701 0.29272 0.75515 0.0
H275 H 0.47159 0.24722 0.6983 0.0
C276 C 0.48427 0.3134 0.7831 0.0
C277 C 0.48657 0.35038 0.78024 0.0
C278 C 0.4562 0.31033 0.72515 0.0
H279 H 0.44298 0.2964 0.70397 0.0
C280 C 0.45976 0.34644 0.72138 0.0
H281 H 0.49402 0.30084 0.80696 0.0
C282 C 0.47577 0.36613 0.74803 0.0
H283 H 0.47975 0.3937 0.74297 0.0
H284 H 0.45039 0.35923 0.69737 0.0
H285 H 0.74281 0.49289 0.81305 0.0
C286 C 0.75722 0.5006 0.78936 0.0
C287 C 0.79212 0.51063 0.79317 0.0
C288 C 0.74154 0.49934 0.75518 0.0
H289 H 0.83946 0.52564 0.76667 0.0
C290 C 0.81205 0.51865 0.76326 0.0
C291 C 0.79816 0.51521 0.72901 0.0
C292 C 0.76255 0.50635 0.72476 0.0
C293 C 0.70393 0.48904 0.75216 0.0
H294 H 0.75171 0.50423 0.69811 0.0
C295 C 0.68019 0.49838 0.7795 0.0
C296 C 0.64617 0.48478 0.78039 0.0
C297 C 0.69193 0.46767 0.72407 0.0
H298 H 0.70943 0.45953 0.70274 0.0
C299 C 0.65738 0.45521 0.72417 0.0
H300 H 0.68844 0.51532 0.80116 0.0
C301 C 0.63467 0.46323 0.75254 0.0
H302 H 0.60852 0.45221 0.75309 0.0
H303 H 0.64855 0.43836 0.70274 0.0
H304 H 0.48948 0.22746 0.24567 0.0
C305 C 0.4912 0.25276 0.23294 0.0
C306 C 0.49388 0.2534 0.19556 0.0
C307 C 0.49213 0.28417 0.25321 0.0
H308 H 0.49715 0.28596 0.14899 0.0
C309 C 0.49461 0.2856 0.17788 0.0
C310 C 0.49397 0.3172 0.19688 0.0
C311 C 0.49396 0.31635 0.23441 0.0
C312 C 0.49179 0.28339 0.29353 0.0
H313 H 0.49593 0.341 0.24847 0.0
C314 C 0.50055 0.2525 0.3126 0.0
C315 C 0.49692 0.25085 0.34989 0.0
C316 C 0.48125 0.31312 0.31361 0.0
H317 H 0.47292 0.3372 0.30095 0.0
C318 C 0.47988 0.31204 0.3509 0.0
H319 H 0.50876 0.22885 0.29895 0.0
C320 C 0.4872 0.28096 0.36899 0.0
H321 H 0.48342 0.27986 0.39769 0.0
H322 H 0.47148 0.33501 0.36574 0.0
H323 H 0.75649 0.51417 0.20793 0.0
C324 C 0.76872 0.51215 0.23389 0.0
C325 C 0.80563 0.51128 0.23536 0.0
C326 C 0.74847 0.51047 0.26586 0.0
H327 H 0.85093 0.5118 0.26941 0.0
C328 C 0.82242 0.51107 0.26828 0.0
C329 C 0.80315 0.51149 0.29982 0.0
C330 C 0.76662 0.50947 0.29881 0.0
C331 C 0.70895 0.50958 0.2655 0.0
H332 H 0.75294 0.50773 0.32407 0.0
C333 C 0.69025 0.49892 0.23483 0.0
C334 C 0.65326 0.49713 0.23491 0.0
C335 C 0.68931 0.51938 0.2961 0.0
H336 H 0.70155 0.53023 0.31962 0.0
C337 C 0.65294 0.51584 0.29695 0.0
H338 H 0.70417 0.49317 0.2104 0.0
C339 C 0.63504 0.50429 0.26685 0.0
H340 H 0.60667 0.5026 0.26808 0.0
H341 H 0.63845 0.52291 0.32086 0.0
H342 H 0.53486 0.79062 0.21111 0.0
C343 C 0.5411 0.80193 0.23686 0.0
C344 C 0.54694 0.83822 0.23936 0.0
C345 C 0.53905 0.78079 0.26762 0.0
H346 H 0.55488 0.88133 0.27587 0.0
C347 C 0.55153 0.85323 0.27335 0.0
C348 C 0.54765 0.83314 0.30442 0.0
C349 C 0.54228 0.79687 0.30148 0.0
C350 C 0.52766 0.7435 0.26406 0.0
H351 H 0.5389 0.7817 0.32568 0.0
C352 C 0.53794 0.72281 0.2343 0.0
C353 C 0.52206 0.6901 0.22735 0.0
C354 C 0.50304 0.72978 0.28826 0.0
H355 H 0.49385 0.74489 0.31098 0.0
C356 C 0.48789 0.69724 0.28217 0.0
H357 H 0.55753 0.73274 0.21597 0.0
C358 C 0.49645 0.67807 0.25162 0.0
H359 H 0.4816 0.65456 0.24653 0.0
H360 H 0.46808 0.68756 0.30039 0.0
H361 H 0.23013 0.56634 0.23141 0.0
C362 C 0.25642 0.56401 0.22052 0.0
C363 C 0.26013 0.55878 0.18367 0.0
C364 C 0.28607 0.56524 0.24307 0.0
H365 H 0.29683 0.55375 0.14013 0.0
C366 C 0.29369 0.55819 0.16863 0.0
C367 C 0.32338 0.56065 0.19044 0.0
C368 C 0.31972 0.5634 0.22755 0.0
C369 C 0.28154 0.56621 0.2826 0.0
H370 H 0.34305 0.56279 0.24408 0.0
C371 C 0.25177 0.5509 0.2982 0.0
C372 C 0.24544 0.55365 0.33485 0.0
C373 C 0.30616 0.58262 0.30505 0.0
H374 H 0.32924 0.59515 0.29417 0.0
C375 C 0.30075 0.58382 0.34204 0.0
H376 H 0.23289 0.53695 0.282 0.0
C377 C 0.27033 0.56967 0.35695 0.0
H378 H 0.26572 0.57216 0.38543 0.0
H379 H 0.31973 0.59661 0.35906 0.0
H380 H 0.7863 0.83527 0.51119 0.0
C381 C 0.7979 0.80996 0.50499 0.0
C382 C 0.83408 0.80821 0.49811 0.0
C383 C 0.77749 0.77931 0.50659 0.0
H384 H 0.87879 0.77423 0.49026 0.0
C385 C 0.85044 0.77563 0.4931 0.0
C386 C 0.83097 0.74472 0.49572 0.0
C387 C 0.79446 0.74669 0.50133 0.0
C388 C 0.73961 0.78146 0.51743 0.0
H389 H 0.77976 0.72256 0.50307 0.0
C390 C 0.71908 0.81122 0.50891 0.0
C391 C 0.68485 0.81564 0.52268 0.0
C392 C 0.72435 0.7551 0.53862 0.0
H393 H 0.73922 0.73216 0.54666 0.0
C394 C 0.68992 0.7587 0.5512 0.0
H395 H 0.72982 0.83143 0.49187 0.0
C396 C 0.67038 0.78892 0.54371 0.0
H397 H 0.64443 0.79179 0.55529 0.0
H398 H 0.67871 0.73842 0.56781 0.0
H399 H 0.78865 0.21207 0.48819 0.0
C400 C 0.80216 0.23684 0.4902 0.0
C401 C 0.83885 0.23616 0.49209 0.0
C402 C 0.78336 0.26882 0.49061 0.0
H403 H 0.88585 0.26657 0.4958 0.0
C404 C 0.85751 0.26758 0.49308 0.0
C405 C 0.83985 0.30002 0.49253 0.0
C406 C 0.80274 0.30039 0.49193 0.0
C407 C 0.74384 0.26891 0.48934 0.0
H408 H 0.78919 0.32539 0.49288 0.0
C409 C 0.72426 0.23985 0.50172 0.0
C410 C 0.68752 0.23849 0.49747 0.0
C411 C 0.72524 0.29735 0.47425 0.0
H412 H 0.73876 0.31977 0.46337 0.0
C413 C 0.68864 0.29688 0.47182 0.0
H414 H 0.7373 0.21781 0.51429 0.0
C415 C 0.66988 0.26764 0.48311 0.0
H416 H 0.64168 0.26724 0.47922 0.0
H417 H 0.67481 0.31889 0.46001 0.0
H418 H 0.19989 0.79196 0.53793 0.0
C419 C 0.2246 0.80424 0.53142 0.0
C420 C 0.22442 0.8402 0.52347 0.0
C421 C 0.25622 0.7847 0.53196 0.0
H422 H 0.25651 0.88528 0.5125 0.0
C423 C 0.25634 0.85734 0.5179 0.0
C424 C 0.28823 0.83897 0.51946 0.0
C425 C 0.28808 0.80258 0.5252 0.0
C426 C 0.25591 0.74619 0.54062 0.0
H427 H 0.313 0.78876 0.52523 0.0
C428 C 0.22596 0.72527 0.53392 0.0
C429 C 0.22601 0.68921 0.54197 0.0
C430 C 0.28561 0.72987 0.55605 0.0
H431 H 0.30866 0.74468 0.56323 0.0
C432 C 0.28605 0.69393 0.5629 0.0
H433 H 0.2028 0.7364 0.52146 0.0
C434 C 0.25668 0.67362 0.55546 0.0
H435 H 0.25788 0.64571 0.56041 0.0
H436 H 0.30931 0.68174 0.57412 0.0
H437 H 0.20646 0.23779 0.51154 0.0
C438 C 0.23257 0.22676 0.51432 0.0
C439 C 0.23577 0.19046 0.51956 0.0
C440 C 0.2627 0.24784 0.50966 0.0
H441 H 0.27151 0.14686 0.52358 0.0
C442 C 0.26911 0.17499 0.51983 0.0
C443 C 0.29908 0.19454 0.51247 0.0
C444 C 0.29612 0.23109 0.5094 0.0
C445 C 0.25906 0.28644 0.50216 0.0
H446 H 0.31996 0.24589 0.50586 0.0
C447 C 0.22859 0.30555 0.51245 0.0
C448 C 0.22474 0.34107 0.5034 0.0
C449 C 0.28549 0.30444 0.48311 0.0
H450 H 0.30865 0.29119 0.47303 0.0
C451 C 0.28209 0.34007 0.47549 0.0
H452 H 0.20763 0.29323 0.52729 0.0
C453 C 0.25187 0.35832 0.48547 0.0
H454 H 0.2492 0.38574 0.47833 0.0
H455 H 0.30265 0.3534 0.46094 0.0
Zn456 Zn 0.95652 0.9981 0.44329 0.0
Zn457 Zn 0.95563 0.08148 0.4441 0.0
O458 O 0.98888 0.04001 0.44532 0.0
H459 H 0.01014 0.03825 0.43133 0.0
C460 C 0.91925 0.93248 0.51744 0.0
O461 O 0.9205 0.95647 0.49233 0.0
Zn462 Zn 0.08367 0.06783 0.56312 0.0
Zn463 Zn 0.07527 0.98259 0.57367 0.0
O464 O 0.05057 0.02693 0.55747 0.0
H465 H 0.0259 0.02806 0.55179 0.0
Zn466 Zn 0.95946 0.98222 0.56631 0.0
O467 O 0.96104 0.02691 0.53653 0.0
Zn468 Zn 0.95811 0.06698 0.57155 0.0
H469 H 0.95959 0.02808 0.51079 0.0
Zn470 Zn 0.08026 0.99128 0.4607 0.0
O471 O 0.06037 0.03758 0.47644 0.0
H472 H 0.04024 0.04066 0.49186 0.0
Zn473 Zn 0.07395 0.07203 0.43889 0.0
C474 C 0.10388 0.92909 0.49547 0.0
O475 O 0.07524 0.91831 0.47943 0.0
O476 O 0.91617 0.01048 0.40944 0.0
O477 O 0.915 0.06884 0.41243 0.0
O478 O 0.11468 0.99743 0.60689 0.0
O479 O 0.125 0.05367 0.59474 0.0
O480 O 0.94117 0.99154 0.61707 0.0
O481 O 0.93676 0.04971 0.618 0.0
C482 C 0.01245 0.1243 0.41663 0.0
O483 O 0.0973 0.99193 0.40877 0.0
O484 O 0.09253 0.04827 0.39387 0.0
O485 O 0.04792 0.94241 0.59876 0.0
C486 C 0.90333 0.03997 0.40028 0.0
O487 O 0.97654 0.94932 0.42868 0.0
C488 C 0.02691 0.10653 0.59833 0.0
O489 O 0.93446 0.93787 0.54711 0.0
C490 C 0.13157 0.02558 0.61212 0.0
O491 O 0.11116 0.96147 0.49443 0.0
C492 C 0.92278 0.11103 0.5175 0.0
O493 O 0.97951 0.12266 0.4205 0.0
O494 O 0.03072 0.09885 0.42788 0.0
C495 C 0.93234 0.0199 0.63271 0.0
O496 O 0.05974 0.10519 0.5923 0.0
O497 O 0.00729 0.08596 0.58045 0.0
C498 C 0.11533 0.10392 0.49317 0.0
O499 O 0.92611 0.10418 0.55058 0.0
O500 O 0.94094 0.09292 0.49536 0.0
C501 C 0.10066 0.01662 0.38619 0.0
O502 O 0.11018 0.10306 0.45961 0.0
O503 O 0.09556 0.08584 0.51339 0.0
C504 C 0.02419 0.92141 0.58856 0.0
O505 O 0.0119 0.92388 0.55585 0.0
C506 C 0.00221 0.946 0.40713 0.0
O507 O 0.02038 0.97393 0.39866 0.0
Zn508 Zn 0.45861 0.08316 0.04965 0.0
Zn509 Zn 0.46037 0.08387 0.96326 0.0
O510 O 0.47576 0.05646 0.00657 0.0
H511 H 0.47827 0.03136 0.00841 0.0
C512 C 0.52283 0.13103 0.10675 0.0
O513 O 0.50664 0.1009 0.1097 0.0
Zn514 Zn 0.55939 0.96058 0.95674 0.0
Zn515 Zn 0.558 0.97942 0.03964 0.0
O516 O 0.53888 0.99459 0.99152 0.0
H517 H 0.53119 0.01795 0.98541 0.0
Zn518 Zn 0.56787 0.09888 0.04694 0.0
O519 O 0.54114 0.09042 0.00086 0.0
Zn520 Zn 0.57572 0.08886 0.96052 0.0
H521 H 0.55134 0.09426 0.02413 0.0
Zn522 Zn 0.47173 0.92935 0.04624 0.0
O523 O 0.4941 0.94245 -0.00095 0.0
H524 H 0.48644 0.93602 0.02275 0.0
Zn525 Zn 0.45466 0.95043 0.96487 0.0
C526 C 0.50527 0.92046 0.11556 0.0
O527 O 0.49063 0.95148 0.12003 0.0
O528 O 0.42064 0.1185 0.036 0.0
O529 O 0.42409 0.12097 0.97669 0.0
O530 O 0.59787 0.94254 0.03629 0.0
O531 O 0.59281 0.92583 0.97965 0.0
O532 O 0.62021 0.10845 0.03681 0.0
O533 O 0.62344 0.10676 0.97739 0.0
C534 C 0.43271 0.01877 0.93289 0.0
O535 O 0.42191 0.90997 0.03903 0.0
O536 O 0.411 0.92673 0.98318 0.0
O537 O 0.57372 0.01761 0.07442 0.0
C538 C 0.40987 0.13029 0.00618 0.0
O539 O 0.44325 0.05554 0.09418 0.0
C540 C 0.59743 0.01841 0.92423 0.0
O541 O 0.54697 0.13452 0.0835 0.0
C542 C 0.60735 0.92329 0.0102 0.0
O543 O 0.50203 0.90524 0.08556 0.0
C544 C 0.52283 0.12039 0.91591 0.0
O545 O 0.43519 0.05183 0.93041 0.0
O546 O 0.4484 1.0025 0.95783 0.0
C547 C 0.63751 0.11219 0.00788 0.0
O548 O 0.59062 0.98595 0.92327 0.0
O549 O 0.57905 0.03799 0.94472 0.0
C550 C 0.49868 0.9207 0.91069 0.0
O551 O 0.55599 0.11873 0.92025 0.0
O552 O 0.50352 0.10375 0.93795 0.0
C553 C 0.40183 0.91116 0.01182 0.0
O554 O 0.46673 0.92558 0.91921 0.0
O555 O 0.52233 0.93611 0.92848 0.0
C556 C 0.60393 0.02899 0.0662 0.0
O557 O 0.61726 0.02048 0.03492 0.0
C558 C 0.41933 0.03286 0.09013 0.0
O559 O 0.40882 0.02534 0.05759 0.0
Zn560 Zn 0.95444 0.48072 0.94477 0.0
Zn561 Zn 0.94169 0.56391 0.94684 0.0
O562 O 0.97945 0.52714 0.94938 0.0
H563 H 0.0005 0.52996 0.96318 0.0
C564 C 0.93559 0.43661 0.02344 0.0
O565 O 0.92596 0.4669 0.00981 0.0
Zn566 Zn 0.0754 0.56861 0.06206 0.0
Zn567 Zn 0.07745 0.48522 0.07156 0.0
O568 O 0.04478 0.5263 0.06263 0.0
H569 H 0.02404 0.5243 0.04812 0.0
Zn570 Zn 0.96256 0.48574 0.07379 0.0
O571 O 0.95952 0.52819 0.04125 0.0
Zn572 Zn 0.95305 0.56849 0.07488 0.0
H573 H 0.96929 0.52897 0.0175 0.0
Zn574 Zn 0.0718 0.49245 0.9308 0.0
O575 O 0.06422 0.53269 0.96442 0.0
H576 H 0.05568 0.52968 0.98853 0.0
Zn577 Zn 0.06452 0.57566 0.93337 0.0
C578 C 0.09967 0.44302 0.98253 0.0
O579 O 0.10836 0.47276 -0.00221 0.0
O580 O 0.91045 0.48735 0.91455 0.0
O581 O 0.89938 0.54423 0.92062 0.0
O582 O 0.12345 0.50058 0.09553 0.0
O583 O 0.12332 0.55755 0.08247 0.0
O584 O 0.92875 0.49393 0.11563 0.0
O585 O 0.9224 0.5519 0.11622 0.0
C586 C 0.99038 0.6087 0.90878 0.0
O587 O 0.10209 0.50844 0.88874 0.0
O588 O 0.09638 0.56667 0.88998 0.0
O589 O 0.05673 0.43687 0.08579 0.0
C590 C 0.8917 0.5142 0.90783 0.0
O591 O 0.9806 0.43482 0.93097 0.0
C592 C 0.0229 0.60749 0.10118 0.0
O593 O 0.95488 0.43679 0.05107 0.0
C594 C 0.13787 0.53061 0.09638 0.0
O595 O 0.08307 0.44389 0.95311 0.0
C596 C 0.92124 0.60715 0.01656 0.0
O597 O 0.95833 0.60272 0.91577 0.0
O598 O 0.0137 0.58916 0.92319 0.0
C599 C 0.91465 0.52162 0.12836 0.0
O600 O 0.05539 0.60553 0.09389 0.0
O601 O 0.00221 0.58624 0.08566 0.0
C602 C 0.08511 0.61357 -0.00428 0.0
O603 O 0.92635 0.6068 0.05011 0.0
O604 O 0.93407 0.58221 -0.00224 0.0
C605 C 0.10938 0.53863 0.87633 0.0
O606 O 0.08375 0.61491 0.96192 0.0
O607 O 0.0774 0.58525 0.01144 0.0
C608 C 0.03178 0.43565 0.10836 0.0
O609 O 0.019 0.46522 0.12115 0.0
C610 C 0.00458 0.4357 0.90739 0.0
O611 O 0.01587 0.46641 0.89666 0.0
Zn612 Zn 0.46633 0.46373 0.97304 0.0
Zn613 Zn 0.46627 0.46404 0.0582 0.0
O614 O 0.47656 0.49476 0.01612 0.0
H615 H 0.48735 0.51757 0.01615 0.0
C616 C 0.53986 0.43062 0.90252 0.0
O617 O 0.53122 0.46351 0.90847 0.0
Zn618 Zn 0.57461 0.58119 0.0535 0.0
Zn619 Zn 0.56875 0.57714 0.96975 0.0
O620 O 0.56372 0.54714 0.01412 0.0
H621 H 0.55016 0.52593 0.01607 0.0
Zn622 Zn 0.58216 0.43933 0.96918 0.0
O623 O 0.55211 0.44961 0.01286 0.0
Zn624 Zn 0.58492 0.45194 0.0553 0.0
H625 H 0.52709 0.44567 0.01293 0.0
Zn626 Zn 0.45644 0.59971 0.96371 0.0
O627 O 0.48522 0.58904 0.00765 0.0
H628 H 0.51046 0.58688 0.0072 0.0
Zn629 Zn 0.45366 0.59324 0.05062 0.0
C630 C 0.51111 0.63439 0.91857 0.0
O631 O 0.52985 0.6337 0.94801 0.0
O632 O 0.43279 0.42398 0.98514 0.0
O633 O 0.43064 0.42698 0.04427 0.0
O634 O 0.60633 0.6145 0.97734 0.0
O635 O 0.61028 0.61726 0.03663 0.0
O636 O 0.6304 0.4199 0.98368 0.0
O637 O 0.63068 0.42673 0.04288 0.0
C638 C 0.43657 0.52461 0.09681 0.0
O639 O 0.40926 0.62259 0.97711 0.0
O640 O 0.40733 0.61734 0.03631 0.0
O641 O 0.57156 0.55326 0.92002 0.0
C642 C 0.42023 0.41384 0.01483 0.0
O643 O 0.45033 0.48586 0.92556 0.0
C644 C 0.59768 0.52128 0.09566 0.0
O645 O 0.55995 0.41505 0.9246 0.0
C646 C 0.62022 0.62688 0.00553 0.0
O647 O 0.48063 0.62106 0.91891 0.0
C648 C 0.53027 0.42753 0.10023 0.0
O649 O 0.44282 0.49189 0.09586 0.0
O650 O 0.44856 0.54373 0.07158 0.0
C651 C 0.6451 0.41602 0.01399 0.0
O652 O 0.59434 0.55445 0.09435 0.0
O653 O 0.59117 0.50327 0.06777 0.0
C654 C 0.51074 0.62112 0.09176 0.0
O655 O 0.56344 0.42699 0.09693 0.0
O656 O 0.51261 0.44534 0.07765 0.0
C657 C 0.39375 0.62779 0.00686 0.0
O658 O 0.47778 0.62322 0.08755 0.0
O659 O 0.52838 0.60282 0.0695 0.0
C660 C 0.58926 0.52505 0.91708 0.0
O661 O 0.60286 0.51108 0.94606 0.0
C662 C 0.43518 0.51556 0.92426 0.0
O663 O 0.43257 0.53472 0.95333 0.0
Zn664 Zn 0.95682 0.4898 0.45634 0.0
Zn665 Zn 0.94579 0.57476 0.45876 0.0
O666 O 0.98095 0.53615 0.4705 0.0
H667 H -0.00058 0.53825 0.48798 0.0
C668 C 0.926 0.42393 0.51719 0.0
O669 O 0.95913 0.42463 0.50733 0.0
Zn670 Zn 0.07435 0.56975 0.56977 0.0
Zn671 Zn 0.07177 0.48486 0.57116 0.0
O672 O 0.04169 0.52853 0.56541 0.0
H673 H 0.01941 0.52866 0.55311 0.0
Zn674 Zn 0.94148 0.48925 0.56215 0.0
O675 O 0.94801 0.5346 0.53483 0.0
Zn676 Zn 0.94952 0.57437 0.57055 0.0
H677 H 0.93351 0.53516 0.51374 0.0
Zn678 Zn 0.07047 0.48406 0.45443 0.0
O679 O 0.06462 0.52867 0.4828 0.0
H680 H 0.0733 0.52818 0.50697 0.0
Zn681 Zn 0.06857 0.56923 0.44796 0.0
C682 C 0.11241 0.44097 0.50231 0.0
O683 O 0.1223 0.47235 0.51245 0.0
O684 O 0.90982 0.4969 0.43037 0.0
O685 O 0.91037 0.55487 0.4261 0.0
O686 O 0.1218 0.49673 0.58741 0.0
O687 O 0.12081 0.55495 0.59035 0.0
O688 O 0.91609 0.50184 0.60832 0.0
O689 O 0.91741 0.56036 0.61156 0.0
C690 C 0.00102 0.61058 0.42274 0.0
O691 O 0.10456 0.49627 0.41464 0.0
O692 O 0.09453 0.55291 0.40376 0.0
O693 O 0.05211 0.44273 0.59968 0.0
C694 C 0.89722 0.5254 0.41816 0.0
O695 O 0.98234 0.44598 0.43414 0.0
C696 C 0.01796 0.60773 0.60232 0.0
O697 O 0.91438 0.44768 0.53808 0.0
C698 C 0.13663 0.52568 0.59457 0.0
O699 O 0.0878 0.43853 0.47952 0.0
C700 C 0.91752 0.62112 0.51793 0.0
O701 O 0.96832 0.612 0.42922 0.0
O702 O 0.01994 0.58981 0.44118 0.0
C703 C 0.90683 0.53063 0.62286 0.0
O704 O 0.05127 0.60559 0.60103 0.0
O705 O 2e-05 0.58591 0.58412 0.0
C706 C 0.10396 0.60752 0.50209 0.0
O707 O 0.92973 0.61805 0.54928 0.0
O708 O 0.91478 0.59378 0.49886 0.0
C709 C 0.11084 0.52419 0.39735 0.0
O710 O 0.10074 0.60585 0.46844 0.0
O711 O 0.08307 0.58917 0.52075 0.0
C712 C 0.0213 0.43918 0.61228 0.0
O713 O -0.00262 0.46323 0.60547 0.0
C714 C 0.00814 0.44454 0.41252 0.0
O715 O 0.02451 0.47336 0.40347 0.0
Zn716 Zn 0.44958 0.97808 0.44388 0.0
Zn717 Zn 0.43596 0.06171 0.44991 0.0
O718 O 0.47486 0.02532 0.44726 0.0
H719 H 0.49795 0.02897 0.43726 0.0
C720 C 0.416 0.92218 0.5171 0.0
O721 O 0.44484 0.91004 0.50205 0.0
Zn722 Zn 0.579 0.07931 0.56483 0.0
Zn723 Zn 0.58485 0.99443 0.55996 0.0
O724 O 0.55058 0.03499 0.56197 0.0
H725 H 0.52635 0.03145 0.56844 0.0
Zn726 Zn 0.45781 0.98002 0.556 0.0
O727 O 0.46735 0.02821 0.53554 0.0
Zn728 Zn 0.45852 0.06459 0.57349 0.0
H729 H 0.48008 0.03228 0.51371 0.0
Zn730 Zn 0.57212 0.99881 0.4559 0.0
O731 O 0.55284 0.04312 0.47878 0.0
H732 H 0.53615 0.04371 0.49812 0.0
Zn733 Zn 0.55588 0.08086 0.44175 0.0
C734 C 0.6173 0.94977 0.49206 0.0
O735 O 0.63835 0.97649 0.48714 0.0
O736 O 0.40251 0.98537 0.41807 0.0
O737 O 0.39417 0.043 0.42236 0.0
O738 O 0.6278 0.009 0.58926 0.0
O739 O 0.62563 0.06758 0.58876 0.0
O740 O 0.44474 0.98395 0.60888 0.0
O741 O 0.43774 0.04144 0.61673 0.0
C742 C 0.48083 0.11552 0.41914 0.0
O743 O 0.59574 0.00671 0.40755 0.0
O744 O 0.58014 0.06216 0.3973 0.0
O745 O 0.56557 0.94481 0.57231 0.0
C746 C 0.38485 0.01294 0.41092 0.0
O747 O 0.47545 0.93391 0.42265 0.0
C748 C 0.52085 0.11263 0.60118 0.0
O749 O 0.41711 0.94989 0.53595 0.0
C750 C 0.64016 0.03871 0.59818 0.0
O751 O 0.58531 0.95305 0.48301 0.0
C752 C 0.41582 0.10065 0.52235 0.0
O753 O 0.44978 0.10478 0.42405 0.0
O754 O 0.50602 0.09669 0.43092 0.0
C755 C 0.43476 0.00996 0.62776 0.0
O756 O 0.55383 0.11453 0.59629 0.0
O757 O 0.50437 0.08874 0.58456 0.0
C758 C 0.59564 0.12047 0.49299 0.0
O759 O 0.42424 0.09994 0.55517 0.0
O760 O 0.42901 0.0773 0.50171 0.0
C761 C 0.59553 0.03378 0.38774 0.0
O762 O 0.58661 0.11942 0.46033 0.0
O763 O 0.58227 0.09838 0.51442 0.0
C764 C 0.5428 0.94409 0.59716 0.0
O765 O 0.53148 0.97395 0.61058 0.0
C766 C 0.50798 0.93084 0.41533 0.0
O767 O 0.52902 0.95681 0.42318 0.0
C768 C 0.20586 0.14053 0.49105 0.0
C769 C 0.20495 0.16719 0.51698 0.0
C770 C 0.17726 0.11876 0.48568 0.0
C771 C 0.14641 0.12266 0.5059 0.0
H772 H 0.22853 0.13716 0.47378 0.0
H773 H 0.17887 0.09943 0.46445 0.0
S774 S 0.13087 0.1871 0.57845 0.0
N775 N 0.17118 0.19545 0.56439 0.0
N776 N 0.11664 0.15409 0.55384 0.0
C777 C 0.14524 0.14827 0.53287 0.0
C778 C 0.17465 0.17083 0.53834 0.0
C779 C 0.85376 0.18273 0.52706 0.0
C780 C 0.85774 0.20243 0.49575 0.0
C781 C 0.87392 0.15242 0.5328 0.0
C782 C 0.89856 0.14028 0.50725 0.0
H783 H 0.83583 0.1915 0.54781 0.0
H784 H 0.87066 0.13886 0.55801 0.0
S785 S 0.91447 0.18061 0.41847 0.0
N786 N 0.88546 0.20696 0.43767 0.0
N787 N 0.9222 0.14901 0.44765 0.0
C788 C 0.90089 0.1588 0.47484 0.0
C789 C 0.88087 0.1902 0.46935 0.0
C790 C 0.86853 0.85841 0.47334 0.0
C791 C 0.85575 0.83973 0.50288 0.0
C792 C 0.88898 0.88858 0.47817 0.0
C793 C 0.89789 0.90045 0.51266 0.0
H794 H 0.8624 0.84982 0.44646 0.0
H795 H 0.89796 0.90262 0.4548 0.0
S796 S 0.86986 0.86025 0.59849 0.0
N797 N 0.85252 0.83503 0.56739 0.0
N798 N 0.89136 0.89107 0.5768 0.0
C799 C 0.88516 0.88163 0.54233 0.0
C800 C 0.864 0.8514 0.53734 0.0
C801 C 0.18722 0.89306 0.5371 0.0
C802 C 0.19096 0.86016 0.52038 0.0
C803 C 0.15786 0.91449 0.53055 0.0
C804 C 0.13106 0.90369 0.50722 0.0
H805 H 0.20767 0.90276 0.55455 0.0
H806 H 0.15671 0.94017 0.54293 0.0
S807 S 0.12786 0.81934 0.45772 0.0
N808 N 0.16507 0.81746 0.48023 0.0
N809 N 0.10954 0.85726 0.46851 0.0
C810 C 0.13365 0.87009 0.49178 0.0
C811 C 0.1637 0.84845 0.49819 0.0
C812 C 0.53006 0.21934 0.15233 0.0
C813 C 0.5004 0.22091 0.17467 0.0
C814 C 0.53689 0.19013 0.13087 0.0
C815 C 0.51442 0.161 0.13078 0.0
H816 H 0.54825 0.24105 0.15138 0.0
H817 H 0.56017 0.19057 0.11417 0.0
S818 S 0.43288 0.15207 0.18467 0.0
N819 N 0.44819 0.19103 0.19575 0.0
N820 N 0.46101 0.13558 0.15532 0.0
C821 C 0.48474 0.16194 0.15341 0.0
C822 C 0.47777 0.19197 0.17542 0.0
C823 C 0.83464 0.54334 0.18568 0.0
C824 C 0.82834 0.51163 0.20344 0.0
C825 C 0.86292 0.54653 0.16179 0.0
C826 C 0.88591 0.51809 0.15497 0.0
H827 H 0.81863 0.56624 0.19157 0.0
H828 H 0.86689 0.57156 0.14883 0.0
S829 S 0.88004 0.42933 0.19539 0.0
N830 N 0.84667 0.45136 0.21286 0.0
N831 N 0.89979 0.45694 0.16814 0.0
C832 C 0.87927 0.486 0.17228 0.0
C833 C 0.85048 0.48287 0.19642 0.0
C834 C 0.52075 0.89185 0.21107 0.0
C835 C 0.54135 0.86118 0.20753 0.0
C836 C 0.51082 0.9117 0.1813 0.0
C837 C 0.52042 0.90145 0.14653 0.0
H838 H 0.51062 0.89988 0.23691 0.0
H839 H 0.49399 0.93436 0.1856 0.0
S840 S 0.57775 0.82581 0.12252 0.0
N841 N 0.57419 0.82367 0.16647 0.0
N842 N 0.55422 0.86029 0.11024 0.0
C843 C 0.54225 0.87173 0.14249 0.0
C844 C 0.55294 0.85177 0.173 0.0
C845 C 0.22266 0.57006 0.13 0.0
C846 C 0.22921 0.55083 0.16131 0.0
C847 C 0.19345 0.56278 0.10857 0.0
C848 C 0.17029 0.53551 0.11733 0.0
H849 H 0.23989 0.59128 0.12241 0.0
H850 H 0.18886 0.57877 0.08509 0.0
S851 S 0.17684 0.47659 0.19601 0.0
N852 N 0.21095 0.50284 0.19964 0.0
N853 N 0.15619 0.4889 0.15928 0.0
C854 C 0.17708 0.51554 0.14818 0.0
C855 C 0.20649 0.5233 0.17023 0.0
C856 C 0.48814 0.85333 0.83713 0.0
C857 C 0.52138 0.83718 0.83586 0.0
C858 C 0.48149 0.88147 0.86028 0.0
C859 C 0.50798 0.8947 0.8827 0.0
H860 H 0.46673 0.84318 0.82121 0.0
H861 H 0.45507 0.89222 0.86134 0.0
S862 S 0.60072 0.86367 0.88584 0.0
N863 N 0.58173 0.83763 0.85647 0.0
N864 N 0.56974 0.89106 0.89969 0.0
C865 C 0.54196 0.8799 0.88007 0.0
C866 C 0.54851 0.85092 0.85679 0.0
C867 C 0.18523 0.57161 0.81955 0.0
C868 C 0.19213 0.54303 0.79679 0.0
C869 C 0.15755 0.57058 0.84443 0.0
C870 C 0.13606 0.54081 0.84755 0.0
H871 H 0.2009 0.59513 0.81767 0.0
H872 H 0.1534 0.593 0.86178 0.0
S873 S 0.1436 0.45901 0.79403 0.0
N874 N 0.17569 0.48398 0.77922 0.0
N875 N 0.1235 0.48224 0.8253 0.0
C876 C 0.14283 0.51208 0.82486 0.0
C877 C 0.17092 0.51312 0.79971 0.0
C878 C 0.51686 0.1897 0.84322 0.0
C879 C 0.48772 0.17937 0.82284 0.0
C880 C 0.5272 0.17094 0.87374 0.0
C881 C 0.50843 0.14145 0.88568 0.0
H882 H 0.53257 0.21179 0.83478 0.0
H883 H 0.55049 0.17938 0.88786 0.0
S884 S 0.42908 0.10465 0.84259 0.0
N885 N 0.43959 0.13835 0.81709 0.0
N886 N 0.45848 0.10354 0.87505 0.0
C887 C 0.47846 0.13157 0.86624 0.0
C888 C 0.46832 0.15034 0.83464 0.0
C889 C 0.8172 0.54014 0.84581 0.0
C890 C 0.81031 0.50894 0.82752 0.0
C891 C 0.84306 0.54125 0.87223 0.0
C892 C 0.86251 0.51118 0.8818 0.0
H893 H 0.80432 0.56433 0.83785 0.0
H894 H 0.84951 0.56645 0.88325 0.0
S895 S 0.85693 0.42414 0.83717 0.0
N896 N 0.82586 0.44799 0.81813 0.0
N897 N 0.87527 0.45 0.86709 0.0
C898 C 0.85586 0.47977 0.86307 0.0
C899 C 0.82934 0.47866 0.83631 0.0
C900 C 0.68999 0.6945 0.02641 0.0
C901 C 0.71412 0.6894 -0.00163 0.0
C902 C 0.65915 0.67463 0.02836 0.0
C903 C 0.6512 0.64972 0.00185 0.0
H904 H 0.6955 0.71323 0.04743 0.0
H905 H 0.64159 0.67859 0.05085 0.0
S906 S 0.70568 0.62801 0.92217 0.0
N907 N 0.72794 0.65869 0.94324 0.0
N908 N 0.66989 0.62177 0.94626 0.0
C909 C 0.67478 0.64532 0.97308 0.0
C910 C 0.70631 0.66506 0.97152 0.0
C911 C 0.32631 0.69298 0.0419 0.0
C912 C 0.31335 0.70817 0.01045 0.0
C913 C 0.35014 0.66483 0.04049 0.0
C914 C 0.36239 0.65135 0.00762 0.0
H915 H 0.3192 0.70396 0.06767 0.0
H916 H 0.36053 0.65504 0.06537 0.0
S917 S 0.33263 0.68031 0.91763 0.0
N918 N 0.31143 0.70637 0.94574 0.0
N919 N 0.35633 0.65354 0.94269 0.0
C920 C 0.34753 0.66505 0.97596 0.0
C921 C 0.32309 0.69356 0.9775 0.0
C922 C 0.34322 0.35854 0.04591 0.0
C923 C 0.33745 0.33654 0.01645 0.0
C924 C 0.36992 0.38371 0.0451 0.0
C925 C 0.39178 0.38753 0.01488 0.0
H926 H 0.32803 0.3553 0.07019 0.0
H927 H 0.37376 0.39992 0.06855 0.0
S928 S 0.38507 0.33749 0.92989 0.0
N929 N 0.35373 0.32148 0.9555 0.0
N930 N 0.40427 0.36807 0.95405 0.0
C931 C 0.38518 0.36643 0.98476 0.0
C932 C 0.35793 0.34113 0.98555 0.0
C933 C 0.71428 0.35076 0.04475 0.0
C934 C 0.73864 0.3513 0.01651 0.0
C935 C 0.68461 0.37285 0.04445 0.0
C936 C 0.6782 0.39576 0.01566 0.0
H937 H 0.71849 0.33361 0.06743 0.0
H938 H 0.6662 0.3714 0.06651 0.0
S939 S 0.73445 0.4074 0.93557 0.0
N940 N 0.75457 0.37673 0.95915 0.0
N941 N 0.69905 0.41825 0.95875 0.0
C942 C 0.70246 0.39657 0.98737 0.0
C943 C 0.7326 0.3743 0.98774 0.0
C944 C 0.97284 0.69363 0.62596 0.0
C945 C 0.9868 0.70082 0.66006 0.0
C946 C 0.98059 0.66195 0.60812 0.0
C947 C 0.0023 0.63633 0.62389 0.0
H948 H 0.95676 0.71307 0.61251 0.0
H949 H 0.97154 0.65865 0.58097 0.0
S950 S 0.04553 0.64191 0.71242 0.0
N951 N 0.02381 0.6793 0.70854 0.0
N952 N 0.03707 0.61977 0.67554 0.0
C953 C 0.01543 0.6427 0.65832 0.0
C954 C 0.00796 0.67486 0.6763 0.0
C955 C 0.37003 0.02438 0.70296 0.0
C956 C 0.36646 0.99071 0.71761 0.0
C957 C 0.3934 0.03058 0.67496 0.0
C958 C 0.41396 1.00327 0.66037 0.0
H959 H 0.3551 0.04631 0.71369 0.0
H960 H 0.39472 0.05694 0.66431 0.0
S961 S 0.41395 0.91019 0.68963 0.0
N962 N 0.3851 0.92979 0.71608 0.0
N963 N 0.42916 0.94109 0.66302 0.0
C964 C 0.41071 0.9694 0.67501 0.0
C965 C 0.38693 0.96321 0.70372 0.0
C966 C 0.03938 0.36658 0.67903 0.0
C967 C 0.00687 0.36236 0.69597 0.0
C968 C 0.04323 0.39029 0.65082 0.0
C969 C 0.01472 0.41096 0.63876 0.0
H970 H 0.06225 0.35225 0.68841 0.0
H971 H 0.06918 0.3933 0.63936 0.0
S972 S 0.92309 0.40655 0.67286 0.0
N973 N 0.94512 0.37826 0.69779 0.0
N974 N 0.95197 0.42316 0.64463 0.0
C975 C 0.98156 0.40564 0.65466 0.0
C976 C 0.97774 0.38129 0.68338 0.0
C977 C 0.72171 0.06709 0.64822 0.0
C978 C 0.72225 0.0438 0.6773 0.0
C979 C 0.69511 0.06533 0.62236 0.0
C980 C 0.66901 0.03954 0.62436 0.0
H981 H 0.74179 0.08691 0.64568 0.0
H982 H 0.69511 0.08402 0.60057 0.0
S983 S 0.65905 0.97282 0.69582 0.0
N984 N 0.69452 0.99484 0.70717 0.0
N985 N 0.645 0.99073 0.65825 0.0
C986 C 0.66956 0.01599 0.65332 0.0
C987 C 0.6961 0.01833 0.67992 0.0
C988 C 0.05393 0.36536 0.37079 0.0
C989 C 0.02618 0.34876 0.35276 0.0
C990 C 0.04826 0.39682 0.3898 0.0
C991 C 0.01448 0.41188 0.3922 0.0
H992 H 0.08012 0.35406 0.37002 0.0
H993 H 0.07021 0.40904 0.40321 0.0
S994 S 0.93331 0.37875 0.34961 0.0
N995 N 0.96398 0.34997 0.33824 0.0
N996 N 0.95326 0.40836 0.37443 0.0
C997 C 0.98665 0.39544 0.37436 0.0
C998 C 0.99251 0.36403 0.35454 0.0
C999 C 0.62767 0.06079 0.2963 0.0
C1000 C 0.65685 0.03872 0.29076 0.0
C1001 C 0.60746 0.05832 0.32738 0.0
C1002 C 0.61546 0.03337 0.35384 0.0
H1003 H 0.62103 0.08082 0.27689 0.0
H1004 H 0.58568 0.07645 0.33086 0.0
S1005 S 0.68837 0.96809 0.35082 0.0
N1006 N 0.69225 0.99032 0.31317 0.0
N1007 N 0.65406 0.9852 0.37177 0.0
C1008 C 0.64402 0.0103 0.34804 0.0
C1009 C 0.66486 0.01317 0.31648 0.0
C1010 C 0.03127 0.67874 0.3566 0.0
C1011 C 0.01566 0.66665 0.32464 0.0
C1012 C 0.02956 0.6591 0.38844 0.0
C1013 C 0.01295 0.62638 0.38907 0.0
H1014 H 0.044 0.70402 0.35732 0.0
H1015 H 0.03964 0.67031 0.41295 0.0
S1016 S 0.96863 0.58201 0.31371 0.0
N1017 N 0.9825 0.61935 0.29681 0.0
N1018 N 0.98193 0.58197 0.35564 0.0
C1019 C -0.00109 0.6132 0.35723 0.0
C1020 C -0.0004 0.63339 0.32527 0.0
C1021 C 0.34466 0.03419 0.32193 0.0
C1022 C 0.32981 1.00211 0.31183 0.0
C1023 C 0.35899 0.03879 0.35602 0.0
C1024 C 0.35969 0.01113 0.38092 0.0
H1025 H 0.34608 0.05558 0.30296 0.0
H1026 H 0.37195 0.06334 0.36179 0.0
S1027 S 0.31974 0.92353 0.3689 0.0
N1028 N 0.31282 0.94366 0.33043 0.0
N1029 N 0.34079 0.95183 0.3944 0.0
C1030 C 0.34276 0.97969 0.3719 0.0
C1031 C 0.3276 0.97526 0.33733 0.0
C1032 C 0.05035 0.18694 0.34885 0.0
C1033 C 0.03747 0.2196 0.36139 0.0
C1034 C 0.04527 0.15584 0.36845 0.0
C1035 C 0.02749 0.15646 0.40138 0.0
H1036 H 0.06322 0.18513 0.32307 0.0
H1037 H 0.05326 0.13104 0.35673 0.0
S1038 S 0.9916 0.23432 0.44835 0.0
N1039 N 0.00732 0.24978 0.41046 0.0
N1040 N 0.0002 0.1919 0.44751 0.0
C1041 C 0.01687 0.18887 0.41544 0.0
C1042 C 0.02126 0.2203 0.39545 0.0
C1043 C 0.8288 0.05915 0.33711 0.0
C1044 C 0.84546 0.05567 0.30357 0.0
C1045 C 0.8471 0.05256 0.36889 0.0
C1046 C 0.88221 0.04146 0.36783 0.0
H1047 H 0.80195 0.06866 0.33885 0.0
H1048 H 0.83413 0.05709 0.3943 0.0
S1049 S 0.93707 0.02599 0.28736 0.0
N1050 N 0.89859 0.03881 0.27147 0.0
N1051 N 0.93277 0.0258 0.3313 0.0
C1052 C 0.89869 0.03629 0.33464 0.0
C1053 C 0.88034 0.04355 0.30239 0.0
C1054 C 0.03528 0.88369 0.33524 0.0
C1055 C 0.00643 0.86147 0.3304 0.0
C1056 C 0.03502 0.90933 0.36226 0.0
C1057 C 0.0057 0.91376 0.385 0.0
H1058 H 0.05722 0.88256 0.31678 0.0
H1059 H 0.05707 0.92705 0.36399 0.0
S1060 S 0.92444 0.86029 0.38363 0.0
N1061 N 0.94888 0.84395 0.35107 0.0
N1062 N 0.94798 0.89179 0.40179 0.0
C1063 C 0.97767 0.89001 0.38161 0.0
C1064 C 0.97809 0.86402 0.35419 0.0
C1065 C 0.12291 0.02019 0.28716 0.0
C1066 C 0.15007 0.99521 0.28444 0.0
C1067 C 0.1066 0.02695 0.32023 0.0
C1068 C 0.11671 0.0085 0.35121 0.0
H1069 H 0.11515 0.03534 0.26396 0.0
H1070 H 0.08617 0.04683 0.32164 0.0
S1071 S 0.18704 0.94086 0.35753 0.0
N1072 N 0.1865 0.95221 0.31498 0.0
N1073 N 0.1559 0.96457 0.37686 0.0
C1074 C 0.14344 0.98302 0.34843 0.0
C1075 C 0.16011 0.97646 0.31506 0.0
C1076 C 0.97982 0.83836 0.62208 0.0
C1077 C -0.00366 0.83215 0.6552 0.0
C1078 C 0.98811 0.86776 0.60118 0.0
C1079 C 0.01325 0.89227 0.61255 0.0
H1080 H 0.96044 0.82017 0.61206 0.0
H1081 H 0.9751 0.8709 0.57564 0.0
S1082 S 0.06321 0.88897 0.6979 0.0
N1083 N 0.03892 0.85336 0.69845 0.0
N1084 N 0.05332 0.90912 0.66022 0.0
C1085 C 0.02906 0.88701 0.64624 0.0
C1086 C 0.02094 0.85688 0.66726 0.0
C1087 C 0.20345 0.03724 0.68094 0.0
C1088 C 0.18485 0.03306 0.71336 0.0
C1089 C 0.18633 0.03522 0.64778 0.0
C1090 C 0.1503 0.02831 0.64621 0.0
H1091 H 0.2314 0.04241 0.68127 0.0
H1092 H 0.20133 0.03863 0.62341 0.0
S1093 S 0.08965 0.01557 0.72275 0.0
N1094 N 0.12837 0.02204 0.7414 0.0
N1095 N 0.09631 0.01789 0.6792 0.0
C1096 C 0.13143 0.02416 0.67826 0.0
C1097 C 0.14867 0.02665 0.71187 0.0
C1098 C 0.03 0.16471 0.68088 0.0
C1099 C -0.00541 0.17098 0.68902 0.0
C1100 C 0.03968 0.14436 0.65125 0.0
C1101 C 0.01437 0.12938 0.6283 0.0
H1102 H 0.05042 0.17515 0.69792 0.0
H1103 H 0.0675 0.13998 0.64678 0.0
S1104 S 0.91788 0.14201 0.6361 0.0
N1105 N 0.934 0.16347 0.67069 0.0
N1106 N 0.95214 0.12497 0.615 0.0
C1107 C 0.97878 0.13642 0.63578 0.0
C1108 C 0.96891 0.15726 0.6661 0.0
C1109 C 0.85266 0.9956 0.68533 0.0
C1110 C 0.84771 0.0254 0.70697 0.0
C1111 C 0.88282 0.99175 0.66426 0.0
C1112 C 0.90874 0.01785 0.66388 0.0
H1113 H 0.83185 0.97657 0.68251 0.0
H1114 H 0.884 0.97002 0.6456 0.0
S1115 S 0.91246 0.09545 0.72307 0.0
N1116 N 0.87419 0.07754 0.73223 0.0
N1117 N 0.9311 0.07032 0.69234 0.0
C1118 C 0.90615 0.04533 0.68872 0.0
C1119 C 0.87554 0.04908 0.71044 0.0
C1120 C 0.37941 0.03192 0.18285 0.0
C1121 C 0.35345 0.00596 0.18037 0.0
C1122 C 0.40184 0.03905 0.15415 0.0
C1123 C 0.39897 0.02085 0.12154 0.0
H1124 H 0.3817 0.04782 0.20673 0.0
H1125 H 0.42056 0.0601 0.15717 0.0
S1126 S 0.33793 0.94781 0.10245 0.0
N1127 N 0.32845 0.95965 0.14382 0.0
N1128 N 0.36988 0.97387 0.08932 0.0
C1129 C 0.37411 0.99385 0.11909 0.0
C1130 C 0.35148 0.98629 0.14856 0.0
C1131 C -0.00164 0.36993 0.17592 0.0
C1132 C 0.00857 0.33745 0.16121 0.0
C1133 C 0.00429 0.40138 0.15771 0.0
C1134 C 0.02109 0.40169 0.12419 0.0
H1135 H 0.98627 0.37111 0.20215 0.0
H1136 H -0.0031 0.42569 0.17081 0.0
S1137 S 0.04876 0.32344 0.07186 0.0
N1138 N 0.03319 0.30719 0.10958 0.0
N1139 N 0.0445 0.36643 0.07525 0.0
C1140 C 0.02964 0.36927 0.10819 0.0
C1141 C 0.0233 0.33712 0.1267 0.0
C1142 C 0.6314 0.06482 0.15556 0.0
C1143 C 0.66599 0.05178 0.15895 0.0
C1144 C 0.61205 0.05956 0.12429 0.0
C1145 C 0.62688 0.04187 0.09494 0.0
H1146 H 0.61861 0.07792 0.17782 0.0
H1147 H 0.58483 0.06808 0.12363 0.0
S1148 S 0.71752 0.00588 0.08844 0.0
N1149 N 0.71486 0.02216 0.12926 0.0
N1150 N 0.67913 0.01418 0.06975 0.0
C1151 C 0.66233 0.03135 0.09676 0.0
C1152 C 0.68178 0.03585 0.12896 0.0
C1153 C 0.02967 0.68497 0.16284 0.0
C1154 C 0.00879 0.67474 0.19191 0.0
C1155 C 0.03121 0.66459 0.13168 0.0
C1156 C 0.01179 0.6334 0.12839 0.0
H1157 H 0.04653 0.70763 0.16499 0.0
H1158 H 0.04946 0.67216 0.11083 0.0
S1159 S 0.94882 0.59853 0.19477 0.0
N1160 N 0.96458 0.63424 0.21368 0.0
N1161 N 0.96835 0.59547 0.15541 0.0
C1162 C 0.98859 0.62459 0.15602 0.0
C1163 C 0.98698 0.64534 0.18778 0.0
C1164 C 0.40264 0.99954 0.84091 0.0
C1165 C 0.36865 0.98573 0.84601 0.0
C1166 C 0.42473 0.00647 0.86954 0.0
C1167 C 0.41371 1.00063 0.90463 0.0
H1168 H 0.4118 0.00729 0.81468 0.0
H1169 H 0.44974 0.01891 0.86429 0.0
S1170 S 0.32806 0.96502 0.93364 0.0
N1171 N 0.32591 0.965 0.88952 0.0
N1172 N 0.36726 0.9804 0.94386 0.0
C1173 C 0.38054 0.98593 0.91064 0.0
C1174 C 0.35796 0.97814 0.88121 0.0
C1175 C 0.04078 0.3811 0.83156 0.0
C1176 C 0.01541 0.35461 0.82809 0.0
C1177 C 0.03918 0.40548 0.85956 0.0
C1178 C 0.01233 0.40413 0.88539 0.0
H1179 H 0.06064 0.38448 0.81108 0.0
H1180 H 0.05772 0.4269 0.85952 0.0
S1181 S 0.94405 0.33542 0.89281 0.0
N1182 N 0.96578 0.32541 0.8559 0.0
N1183 N 0.96352 0.37041 0.90925 0.0
C1184 C 0.98947 0.37522 0.88476 0.0
C1185 C 0.99082 0.35063 0.85591 0.0
C1186 C 0.66667 0.07883 0.88488 0.0
C1187 C 0.69127 0.05498 0.8706 0.0
C1188 C 0.63573 0.06709 0.90128 0.0
C1189 C 0.62851 0.03111 0.90416 0.0
H1190 H 0.67122 0.10673 0.8829 0.0
H1191 H 0.61744 0.08635 0.9116 0.0
S1192 S 0.68483 0.95811 0.86971 0.0
N1193 N 0.70647 0.99404 0.85955 0.0
N1194 N 0.64866 0.97165 0.88995 0.0
C1195 C 0.65284 0.00704 0.88909 0.0
C1196 C 0.68416 0.01906 0.87249 0.0
C1197 C 0.97367 0.67684 0.83843 0.0
C1198 C -0.00217 0.70326 0.84655 0.0
C1199 C 0.97362 0.64528 0.85721 0.0
C1200 C -0.00215 0.63858 0.8848 0.0
H1201 H 0.95351 0.68125 0.81846 0.0
H1202 H 0.95328 0.62647 0.85107 0.0
S1203 S 0.0692 0.69789 0.91361 0.0
N1204 N 0.04859 0.71992 0.8818 0.0
N1205 N 0.04848 0.66014 0.91736 0.0
C1206 C 0.02356 0.66394 0.8918 0.0
C1207 C 0.02343 0.69649 0.87273 0.0
C1208 C 0.1565 0.37808 0.03314 0.0
C1209 C 0.14429 0.34545 0.02119 0.0
C1210 C 0.14086 0.4094 0.02165 0.0
C1211 C 0.11275 0.40932 -0.00275 0.0
H1212 H 0.1787 0.3794 0.05119 0.0
H1213 H 0.15178 0.43387 0.03107 0.0
S1214 S 0.06936 0.33048 0.95999 0.0
N1215 N 0.10117 0.31461 0.9854 0.0
N1216 N 0.07181 0.37356 0.96337 0.0
C1217 C 0.09944 0.37675 0.98607 0.0
C1218 C 0.11519 0.34478 -0.00184 0.0
C1219 C 0.14857 0.68135 0.01989 0.0
C1220 C 0.12804 0.7122 0.01613 0.0
C1221 C 0.13328 0.6482 0.01944 0.0
C1222 C 0.09712 0.64466 0.01459 0.0
H1223 H 0.17697 0.68218 0.01951 0.0
H1224 H 0.15031 0.6253 0.01849 0.0
S1225 S 0.03061 0.71589 0.01186 0.0
N1226 N 0.06855 0.7364 0.01522 0.0
N1227 N 0.04028 0.6736 0.01158 0.0
C1228 C 0.07581 0.67479 0.01489 0.0
C1229 C 0.0912 0.70872 0.01625 0.0
C1230 C 0.34994 0.20496 0.97882 0.0
C1231 C 0.32773 0.20872 0.00873 0.0
C1232 C 0.37553 0.1785 0.97741 0.0
C1233 C 0.37989 0.15507 0.00602 0.0
H1234 H 0.34897 0.22403 0.95738 0.0
H1235 H 0.39319 0.17766 0.95467 0.0
S1236 S 0.32419 0.15026 0.08756 0.0
N1237 N 0.30874 0.18449 0.06546 0.0
N1238 N 0.35649 0.13419 0.06281 0.0
C1239 C 0.35584 0.15676 0.03472 0.0
C1240 C 0.32971 0.18368 0.03602 0.0
C1241 C 0.89506 0.34668 0.03123 0.0
C1242 C 0.86766 0.34886 0.00622 0.0
C1243 C 0.91966 0.37379 0.03426 0.0
C1244 C 0.91714 0.40408 0.01275 0.0
H1245 H 0.89558 0.32567 0.05068 0.0
H1246 H 0.93874 0.37231 0.05567 0.0
S1247 S 0.85367 0.41836 0.93895 0.0
N1248 N 0.84327 0.37981 0.95538 0.0
N1249 N 0.88788 0.43167 0.96216 0.0
C1250 C 0.89224 0.40435 0.98499 0.0
C1251 C 0.86795 0.37641 0.98141 0.0
C1252 C 0.70364 0.90298 0.02381 0.0
C1253 C 0.70786 0.87108 0.00546 0.0
C1254 C 0.67025 0.9184 0.02781 0.0
C1255 C 0.64021 0.90278 0.01287 0.0
H1256 H 0.72632 0.91635 0.03455 0.0
H1257 H 0.66823 0.94369 0.04089 0.0
S1258 S 0.63699 0.81821 0.96436 0.0
N1259 N 0.67895 0.82347 0.97392 0.0
N1260 N 0.61648 0.8529 0.98099 0.0
C1261 C 0.64396 0.87038 -0.00443 0.0
C1262 C 0.67773 0.85442 0.99196 0.0
C1263 C 0.8735 0.69388 0.01272 0.0
C1264 C 0.84425 0.6859 0.99143 0.0
C1265 C 0.90055 0.66917 0.01776 0.0
C1266 C 0.89924 0.63569 0.00178 0.0
H1267 H 0.87421 0.71811 0.02782 0.0
H1268 H 0.92139 0.67538 0.03638 0.0
S1269 S 0.8298 0.60363 0.94133 0.0
N1270 N 0.81799 0.64424 0.95046 0.0
N1271 N 0.8672 0.59687 0.96256 0.0
C1272 C 0.87165 0.62859 0.97826 0.0
C1273 C 0.84458 0.65399 0.97243 0.0
C1274 C 0.33118 0.84991 0.04472 0.0
C1275 C 0.31688 0.83727 0.01277 0.0
C1276 C 0.3572 0.8756 0.04425 0.0
C1277 C 0.36977 0.88945 0.01179 0.0
H1278 H 0.32347 0.83858 0.07007 0.0
H1279 H 0.36881 0.88326 0.06944 0.0
S1280 S 0.34009 0.86405 0.92075 0.0
N1281 N 0.31605 0.84013 0.94808 0.0
N1282 N 0.3653 0.88819 0.9467 0.0
C1283 C 0.35448 0.8777 0.97963 0.0
C1284 C 0.32794 0.8516 0.98026 0.0
C1285 C 0.72411 0.14103 0.04781 0.0
C1286 C 0.74039 0.15875 0.01941 0.0
C1287 C 0.69152 0.12486 0.04335 0.0
C1288 C 0.67393 0.12564 0.01024 0.0
H1289 H 0.73602 0.1408 0.0741 0.0
H1290 H 0.67967 0.1124 0.06637 0.0
S1291 S 0.70713 0.16628 0.92665 0.0
N1292 N 0.73799 0.17417 0.9565 0.0
N1293 N 0.67647 0.14408 0.94796 0.0
C1294 C 0.69074 0.14199 0.98116 0.0
C1295 C 0.72395 0.15857 0.98582 0.0
C1296 C 0.50474 0.68549 0.83202 0.0
C1297 C 0.53356 0.70817 0.83418 0.0
C1298 C 0.49911 0.65981 0.85812 0.0
C1299 C 0.52208 0.6559 0.88743 0.0
H1300 H 0.48491 0.68937 0.81162 0.0
H1301 H 0.47535 0.64445 0.8564 0.0
S1302 S 0.60562 0.7039 0.90071 0.0
N1303 N 0.58829 0.72154 0.86442 0.0
N1304 N 0.57797 0.67318 0.9135 0.0
C1305 C 0.55294 0.67605 0.88777 0.0
C1306 C 0.55858 0.70226 0.86118 0.0
C1307 C 0.40425 0.57232 0.84743 0.0
C1308 C 0.3851 0.54865 0.8263 0.0
C1309 C 0.41992 0.56158 0.87951 0.0
C1310 C 0.4177 0.52671 0.89107 0.0
H1311 H 0.4067 0.59946 0.83938 0.0
H1312 H 0.43413 0.58056 0.89516 0.0
S1313 S 0.36911 0.45489 0.84673 0.0
N1314 N 0.36394 0.4889 0.81992 0.0
N1315 N 0.39334 0.46895 0.88034 0.0
C1316 C 0.39823 0.5029 0.87059 0.0
C1317 C 0.38199 0.51381 0.83812 0.0
C1318 C 0.52715 0.3588 0.83303 0.0
C1319 C 0.50055 0.37223 0.81056 0.0
C1320 C 0.53962 0.37785 0.86244 0.0
C1321 C 0.52672 0.41164 0.87046 0.0
H1322 H 0.53884 0.33334 0.82791 0.0
H1323 H 0.55976 0.3659 0.87893 0.0
S1324 S 0.45976 0.46098 0.81854 0.0
N1325 N 0.46238 0.42257 0.79847 0.0
N1326 N 0.48797 0.45909 0.85187 0.0
C1327 C 0.5013 0.4262 0.84751 0.0
C1328 C 0.48777 0.40642 0.81809 0.0
C1329 C 0.60544 0.52169 0.81691 0.0
C1330 C 0.62492 0.49059 0.81284 0.0
C1331 C 0.5921 0.53161 0.85046 0.0
C1332 C 0.59856 0.51112 0.88117 0.0
H1333 H 0.60201 0.53926 0.79443 0.0
H1334 H 0.57831 0.55647 0.85258 0.0
S1335 S 0.64606 0.42571 0.88318 0.0
N1336 N 0.64789 0.43805 0.84094 0.0
N1337 N 0.62395 0.45689 0.90428 0.0
C1338 C 0.61669 0.47906 0.87682 0.0
C1339 C 0.62964 0.46878 0.84257 0.0
C1340 C 0.52395 0.37421 0.18477 0.0
C1341 C 0.49685 0.35065 0.17678 0.0
C1342 C 0.53256 0.40127 0.16103 0.0
C1343 C 0.5143 0.40583 0.12859 0.0
H1344 H 0.54029 0.3702 0.20811 0.0
H1345 H 0.55511 0.41741 0.16707 0.0
S1346 S 0.43891 0.35326 0.09734 0.0
N1347 N 0.4493 0.33598 0.13635 0.0
N1348 N 0.46663 0.38579 0.0911 0.0
C1349 C 0.48557 0.38409 0.12169 0.0
C1350 C 0.47659 0.35673 0.14596 0.0
C1351 C 0.60543 0.51783 0.19491 0.0
C1352 C 0.63357 0.49444 0.20061 0.0
C1353 C 0.59183 0.52322 0.16088 0.0
C1354 C 0.60565 0.50588 0.13088 0.0
H1355 H 0.59565 0.53458 0.21616 0.0
H1356 H 0.57219 0.54344 0.15754 0.0
S1357 S 0.67427 0.43662 0.13184 0.0
N1358 N 0.67055 0.44883 0.1741 0.0
N1359 N 0.64574 0.46083 0.10934 0.0
C1360 C 0.63131 0.4799 0.13632 0.0
C1361 C 0.64512 0.47386 0.17139 0.0
C1362 C 0.53259 0.68924 0.16059 0.0
C1363 C 0.52869 0.67059 0.19296 0.0
C1364 C 0.53098 0.67223 0.12724 0.0
C1365 C 0.52541 0.63597 0.12488 0.0
H1366 H 0.53413 0.71756 0.16066 0.0
H1367 H 0.53128 0.68798 0.10316 0.0
S1368 S 0.51617 0.57435 0.20071 0.0
N1369 N 0.5235 0.61261 0.21981 0.0
N1370 N 0.5165 0.58182 0.15723 0.0
C1371 C 0.52333 0.61673 0.15671 0.0
C1372 C 0.52609 0.63371 0.19068 0.0
C1373 C 0.3707 0.52038 0.1721 0.0
C1374 C 0.35783 0.55468 0.17409 0.0
C1375 C 0.39803 0.51187 0.14877 0.0
C1376 C 0.41309 0.53728 0.12597 0.0
H1377 H 0.35808 0.49959 0.18698 0.0
H1378 H 0.40575 0.48452 0.14725 0.0
S1379 S 0.39338 0.63257 0.12861 0.0
N1380 N 0.36522 0.61534 0.15708 0.0
N1381 N 0.4165 0.5994 0.11228 0.0
C1382 C 0.40229 0.57232 0.13038 0.0
C1383 C 0.37457 0.581 0.15463 0.0
C1384 C 0.85387 0.4969 0.7001 0.0
C1385 C 0.82315 0.5177 0.69896 0.0
C1386 C 0.88141 0.50229 0.67616 0.0
C1387 C 0.87936 0.52877 0.6503 0.0
H1388 H 0.85692 0.47676 0.72029 0.0
H1389 H 0.90458 0.48572 0.67796 0.0
S1390 S 0.80332 0.58783 0.63362 0.0
N1391 N 0.7913 0.56419 0.6685 0.0
N1392 N 0.84324 0.57413 0.62275 0.0
C1393 C 0.84844 0.54909 0.64803 0.0
C1394 C 0.82018 0.54345 0.67244 0.0
C1395 C 0.52682 0.84652 0.61076 0.0
C1396 C 0.51693 0.8448 0.64702 0.0
C1397 C 0.53472 0.87875 0.59451 0.0
C1398 C 0.53249 0.91043 0.61381 0.0
H1399 H 0.52933 0.82273 0.59509 0.0
H1400 H 0.54283 0.87884 0.56673 0.0
S1401 S 0.50707 0.92032 0.70922 0.0
N1402 N 0.50416 0.87791 0.70127 0.0
N1403 N 0.51958 0.93797 0.67108 0.0
C1404 C 0.52191 0.90909 0.64982 0.0
C1405 C 0.51401 0.87643 0.66633 0.0
C1406 C 0.20284 0.49893 0.66349 0.0
C1407 C 0.22092 0.5304 0.66915 0.0
C1408 C 0.17771 0.49634 0.63653 0.0
C1409 C 0.17015 0.52506 0.61421 0.0
H1410 H 0.20535 0.47761 0.68248 0.0
H1411 H 0.1617 0.473 0.63574 0.0
S1412 S 0.21578 0.61044 0.61377 0.0
N1413 N 0.23379 0.58871 0.64729 0.0
N1414 N 0.187 0.58364 0.5956 0.0
C1415 C 0.19127 0.55501 0.61677 0.0
C1416 C 0.21677 0.55767 0.64445 0.0
C1417 C 0.47057 0.14477 0.6828 0.0
C1418 C 0.48529 0.17816 0.68874 0.0
C1419 C 0.47969 0.1245 0.65259 0.0
C1420 C 0.50405 0.13681 0.62733 0.0
H1421 H 0.4527 0.13373 0.70226 0.0
H1422 H 0.46935 0.09824 0.65025 0.0
S1423 S 0.5473 0.22362 0.62767 0.0
N1424 N 0.5238 0.22325 0.66478 0.0
N1425 N 0.53983 0.18567 0.60802 0.0
C1426 C 0.51709 0.17094 0.63162 0.0
C1427 C 0.50802 0.19148 0.66227 0.0
C1428 C 0.82418 0.49135 0.35946 0.0
C1429 C 0.82196 0.51758 0.33333 0.0
C1430 C 0.84769 0.49462 0.38801 0.0
C1431 C 0.86923 0.52433 0.39117 0.0
H1432 H 0.80909 0.46753 0.35676 0.0
H1433 H 0.84983 0.47331 0.40703 0.0
S1434 S 0.87069 0.60117 0.33018 0.0
N1435 N 0.84097 0.57479 0.31306 0.0
N1436 N 0.88522 0.5812 0.3664 0.0
C1437 C 0.86561 0.55153 0.36601 0.0
C1438 C 0.8419 0.54807 0.33711 0.0
C1439 C 0.50546 0.85448 0.35027 0.0
C1440 C 0.54042 0.8518 0.33845 0.0
C1441 C 0.49563 0.87862 0.37679 0.0
C1442 C 0.52041 0.90114 0.39255 0.0
H1443 H 0.48513 0.83938 0.33725 0.0
H1444 H 0.468 0.8809 0.38347 0.0
S1445 S 0.61658 0.89951 0.37536 0.0
N1446 N 0.60061 0.87026 0.34723 0.0
N1447 N 0.58253 0.91528 0.39781 0.0
C1448 C 0.55602 0.89659 0.38297 0.0
C1449 C 0.56592 0.8721 0.35566 0.0
C1450 C 0.18031 0.558 0.33485 0.0
C1451 C 0.21108 0.54271 0.34889 0.0
C1452 C 0.14731 0.55013 0.34907 0.0
C1453 C 0.14399 0.52608 0.3772 0.0
H1454 H 0.18194 0.57726 0.31365 0.0
H1455 H 0.1244 0.56385 0.33888 0.0
S1456 S 0.21673 0.47722 0.42158 0.0
N1457 N 0.23639 0.50147 0.39108 0.0
N1458 N 0.17434 0.48586 0.41764 0.0
C1459 C 0.17456 0.50928 0.39026 0.0
C1460 C 0.20818 0.51789 0.37621 0.0
C1461 C 0.52325 0.19797 0.38067 0.0
C1462 C 0.49395 0.21632 0.36725 0.0
C1463 C 0.51924 0.16497 0.3971 0.0
C1464 C 0.48584 0.14951 0.40039 0.0
H1465 H 0.5492 0.20925 0.37864 0.0
H1466 H 0.5423 0.15171 0.40751 0.0
S1467 S 0.40133 0.18762 0.36759 0.0
N1468 N 0.43118 0.21702 0.35721 0.0
N1469 N 0.4231 0.15555 0.38734 0.0
C1470 C 0.45655 0.16788 0.38629 0.0
C1471 C 0.46076 0.20116 0.36991 0.0
C1472 C 0.68351 0.88114 0.52174 0.0
C1473 C 0.66564 0.84933 0.51701 0.0
C1474 C 0.66711 0.9134 0.51501 0.0
C1475 C 0.63204 0.91535 0.50333 0.0
H1476 H 0.71063 0.88114 0.53049 0.0
H1477 H 0.68242 0.937 0.51838 0.0
S1478 S 0.57282 0.83973 0.4885 0.0
N1479 N 0.61042 0.82174 0.50107 0.0
N1480 N 0.57928 0.88248 0.48893 0.0
C1481 C 0.61329 0.88379 0.49982 0.0
C1482 C 0.63015 0.85079 0.50654 0.0
C1483 C 0.63567 0.20574 0.52256 0.0
C1484 C 0.66786 0.2054 0.50375 0.0
C1485 C 0.61346 0.17636 0.52253 0.0
C1486 C 0.62269 0.14591 0.50345 0.0
H1487 H 0.62682 0.22945 0.53587 0.0
H1488 H 0.58789 0.17845 0.53517 0.0
S1489 S 0.70448 0.13071 0.45168 0.0
N1490 N 0.70833 0.17101 0.46725 0.0
N1491 N 0.6666 0.11627 0.46712 0.0
C1492 C 0.65554 0.14454 0.48639 0.0
C1493 C 0.67818 0.17415 0.48658 0.0
C1494 C 0.87248 0.69831 0.47264 0.0
C1495 C 0.84992 0.71094 0.49968 0.0
C1496 C 0.89357 0.66836 0.47819 0.0
C1497 C 0.89347 0.65094 0.51129 0.0
H1498 H 0.87417 0.71197 0.44733 0.0
H1499 H 0.91092 0.65952 0.45696 0.0
S1500 S 0.83848 0.67339 0.59027 0.0
N1501 N 0.82811 0.70333 0.56019 0.0
N1502 N 0.86794 0.64766 0.57089 0.0
C1503 C 0.87054 0.66306 0.53823 0.0
C1504 C 0.84873 0.69295 0.53235 0.0
C1505 C 0.34637 0.85502 0.49153 0.0
C1506 C 0.32144 0.85904 0.51908 0.0
C1507 C 0.37692 0.87569 0.4907 0.0
C1508 C 0.38334 0.90104 0.51734 0.0
H1509 H 0.34197 0.83621 0.47032 0.0
H1510 H 0.39542 0.87201 0.46896 0.0
S1511 S 0.32721 0.91889 0.59692 0.0
N1512 N 0.30601 0.88838 0.57451 0.0
N1513 N 0.36286 0.92702 0.57329 0.0
C1514 C 0.3587 0.9046 0.54534 0.0
C1515 C 0.32792 0.88363 0.54612 0.0
C1516 C 0.1644 0.35797 0.48465 0.0
C1517 C 0.19156 0.36027 0.50984 0.0
C1518 C 0.13676 0.38248 0.48445 0.0
C1519 C 0.13571 0.41037 0.50921 0.0
H1520 H 0.16584 0.3386 0.46347 0.0
H1521 H 0.11771 0.38105 0.46302 0.0
S1522 S 0.19763 0.42339 0.58454 0.0
N1523 N 0.21357 0.38904 0.56289 0.0
N1524 N 0.16169 0.43531 0.56287 0.0
C1525 C 0.16116 0.41085 0.53649 0.0
C1526 C 0.18918 0.38578 0.53665 0.0
C1527 C 0.36223 0.18381 0.52779 0.0
C1528 C 0.33288 0.17562 0.5069 0.0
C1529 C 0.39102 0.16073 0.52958 0.0
C1530 C 0.39143 0.12873 0.51054 0.0
H1531 H 0.36182 0.2067 0.54497 0.0
H1532 H 0.41202 0.16681 0.54805 0.0
S1533 S 0.3238 0.09891 0.44656 0.0
N1534 N 0.30841 0.13658 0.46203 0.0
N1535 N 0.36197 0.09266 0.4666 0.0
C1536 C 0.3639 0.12218 0.48672 0.0
C1537 C 0.3347 0.14577 0.48467 0.0
C1538 C 0.84999 0.35956 0.51946 0.0
C1539 C 0.86037 0.33323 0.49518 0.0
C1540 C 0.87078 0.38924 0.52535 0.0
C1541 C 0.90305 0.39387 0.50744 0.0
H1542 H 0.82625 0.35663 0.53515 0.0
H1543 H 0.86192 0.40812 0.54512 0.0
S1544 S 0.94028 0.33456 0.43797 0.0
N1545 N 0.90346 0.31545 0.45042 0.0
N1546 N 0.94293 0.3707 0.46213 0.0
C1547 C 0.91304 0.36848 0.48192 0.0
C1548 C 0.89167 0.33836 0.47568 0.0
C1549 C 0.19712 0.64056 0.50875 0.0
C1550 C 0.19478 0.66726 0.53451 0.0
C1551 C 0.16775 0.62044 0.49979 0.0
C1552 C 0.13507 0.62561 0.51683 0.0
H1553 H 0.2216 0.6359 0.49464 0.0
H1554 H 0.17048 0.60104 0.47876 0.0
S1555 S 0.11595 0.69035 0.58828 0.0
N1556 N 0.15775 0.69681 0.57832 0.0
N1557 N 0.10261 0.65821 0.56201 0.0
C1558 C 0.13274 0.65114 0.54382 0.0
C1559 C 0.16257 0.67222 0.55245 0.0
loop_
_geom_bond_atom_site_label_1
_geom_bond_atom_site_label_2
_geom_bond_distance
_geom_bond_site_symmetry_2
_ccdc_geom_bond_type
H0 C1 0.949 . S
C1 H0 0.949 . S
C1 C2 1.395 . S
C1 C3 1.391 . S
C2 C1 1.395 . S
C2 C5 1.390 . S
C3 C1 1.391 . S
C3 C7 1.387 . S
C3 C8 1.491 . S
H4 C5 0.950 . S
C5 C2 1.390 . S
C5 H4 0.950 . S
C5 C6 1.378 . S
C6 C5 1.378 . S
C6 C7 1.409 . S
C7 C3 1.387 . S
C7 C6 1.409 . S
C7 H9 0.951 . S
C8 C3 1.491 . S
C8 C10 1.382 . S
C8 C12 1.404 1_455 S
H9 C7 0.951 . S
C10 C8 1.382 . S
C10 C11 1.390 . S
C10 H15 0.949 . S
C11 C10 1.390 . S
C11 C16 1.399 . S
C12 C8 1.404 1_655 S
C12 H13 0.950 . S
C12 C14 1.375 . S
H13 C12 0.950 . S
C14 C12 1.375 . S
C14 C16 1.382 1_655 S
C14 H18 0.950 . S
H15 C10 0.949 . S
C16 C11 1.399 . S
C16 C14 1.382 1_455 S
C16 H17 0.952 1_455 S
H17 C16 0.952 1_655 S
H18 C14 0.950 . S
H19 C20 0.949 . S
C20 H19 0.949 . S
C20 C21 1.395 . S
C20 C22 1.391 . S
C21 C20 1.395 . S
C21 C24 1.390 . S
C22 C20 1.391 . S
C22 C26 1.387 . S
C22 C27 1.491 . S
H23 C24 0.950 . S
C24 C21 1.390 . S
C24 H23 0.950 . S
C24 C25 1.378 . S
C25 C24 1.378 . S
C25 C26 1.409 . S
C26 C22 1.387 . S
C26 C25 1.409 . S
C26 H28 0.951 . S
C27 C22 1.491 . S
C27 C29 1.382 . S
C27 C31 1.404 . S
H28 C26 0.951 . S
C29 C27 1.382 . S
C29 C30 1.390 . S
C29 H34 0.949 . S
C30 C29 1.390 . S
C30 C35 1.399 . S
C31 C27 1.404 . S
C31 H32 0.950 . S
C31 C33 1.375 . S
H32 C31 0.950 . S
C33 C31 1.375 . S
C33 C35 1.382 . S
C33 H37 0.950 . S
H34 C29 0.949 . S
C35 C30 1.399 . S
C35 C33 1.382 . S
C35 H36 0.952 . S
H36 C35 0.952 . S
H37 C33 0.950 . S
H38 C39 0.949 . S
C39 H38 0.949 . S
C39 C40 1.395 . S
C39 C41 1.391 . S
C40 C39 1.395 . S
C40 C43 1.390 . S
C41 C39 1.391 . S
C41 C45 1.387 . S
C41 C46 1.491 . S
H42 C43 0.950 . S
C43 C40 1.390 . S
C43 H42 0.950 . S
C43 C44 1.378 . S
C44 C43 1.378 . S
C44 C45 1.409 . S
C45 C41 1.387 . S
C45 C44 1.409 . S
C45 H47 0.951 . S
C46 C41 1.491 . S
C46 C48 1.382 . S
C46 C50 1.404 1_455 S
H47 C45 0.951 . S
C48 C46 1.382 . S
C48 C49 1.390 . S
C48 H53 0.949 . S
C49 C48 1.390 . S
C49 C54 1.399 1_455 S
C50 C46 1.404 1_655 S
C50 H51 0.950 . S
C50 C52 1.375 . S
H51 C50 0.950 . S
C52 C50 1.375 . S
C52 C54 1.382 . S
C52 H56 0.950 . S
H53 C48 0.949 . S
C54 C49 1.399 1_655 S
C54 C52 1.382 . S
C54 H55 0.952 . S
H55 C54 0.952 . S
H56 C52 0.950 . S
H57 C58 0.949 . S
C58 H57 0.949 . S
C58 C59 1.395 1_565 S
C58 C60 1.391 . S
C59 C58 1.395 1_545 S
C59 C62 1.390 . S
C60 C58 1.391 . S
C60 C64 1.387 . S
C60 C65 1.491 . S
H61 C62 0.950 . S
C62 C59 1.390 . S
C62 H61 0.950 . S
C62 C63 1.378 . S
C63 C62 1.378 . S
C63 C64 1.409 1_545 S
C64 C60 1.387 . S
C64 C63 1.409 1_565 S
C64 H66 0.951 . S
C65 C60 1.491 . S
C65 C67 1.382 1_565 S
C65 C69 1.404 . S
H66 C64 0.951 . S
C67 C65 1.382 1_545 S
C67 C68 1.390 1_545 S
C67 H72 0.949 . S
C68 C67 1.390 1_565 S
C68 C73 1.399 . S
C69 C65 1.404 . S
C69 H70 0.950 . S
C69 C71 1.375 . S
H70 C69 0.950 . S
C71 C69 1.375 . S
C71 C73 1.382 . S
C71 H75 0.950 . S
H72 C67 0.949 . S
C73 C68 1.399 . S
C73 C71 1.382 . S
C73 H74 0.952 . S
H74 C73 0.952 . S
H75 C71 0.950 . S
H76 C77 0.949 . S
C77 H76 0.949 . S
C77 C78 1.393 1_655 S
C77 C79 1.391 . S
C78 C77 1.393 1_455 S
C78 C81 1.391 . S
C79 C77 1.391 . S
C79 C83 1.387 . S
C79 C84 1.491 . S
H80 C81 0.950 . S
C81 C78 1.391 . S
C81 H80 0.950 . S
C81 C82 1.379 . S
C82 C81 1.379 . S
C82 C83 1.406 1_455 S
C83 C79 1.387 . S
C83 C82 1.406 1_655 S
C83 H85 0.951 . S
C84 C79 1.491 . S
C84 C86 1.382 . S
C84 C88 1.404 . S
H85 C83 0.951 . S
C86 C84 1.382 . S
C86 C87 1.390 . S
C86 H91 0.949 1_655 S
C87 C86 1.390 . S
C87 C92 1.399 . S
C88 C84 1.404 . S
C88 H89 0.950 . S
C88 C90 1.375 . S
H89 C88 0.950 . S
C90 C88 1.375 . S
C90 C92 1.382 . S
C90 H94 0.950 . S
H91 C86 0.949 1_455 S
C92 C87 1.399 . S
C92 C90 1.382 . S
C92 H93 0.952 . S
H93 C92 0.952 . S
H94 C90 0.950 . S
H95 C96 0.949 . S
C96 H95 0.949 . S
C96 C97 1.395 . S
C96 C98 1.391 . S
C97 C96 1.395 . S
C97 C100 1.390 . S
C98 C96 1.391 . S
C98 C102 1.387 . S
C98 C103 1.491 . S
H99 C100 0.950 . S
C100 C97 1.390 . S
C100 H99 0.950 . S
C100 C101 1.378 . S
C101 C100 1.378 . S
C101 C102 1.409 . S
C102 C98 1.387 . S
C102 C101 1.409 . S
C102 H104 0.951 . S
C103 C98 1.491 . S
C103 C105 1.382 . S
C103 C107 1.404 . S
H104 C102 0.951 . S
C105 C103 1.382 . S
C105 C106 1.390 . S
C105 H110 0.949 1_545 S
C106 C105 1.390 . S
C106 C111 1.399 . S
C107 C103 1.404 . S
C107 H108 0.950 . S
C107 C109 1.375 . S
H108 C107 0.950 . S
C109 C107 1.375 . S
C109 C111 1.382 . S
C109 H113 0.950 . S
H110 C105 0.949 1_565 S
C111 C106 1.399 . S
C111 C109 1.382 . S
C111 H112 0.952 . S
H112 C111 0.952 . S
H113 C109 0.950 . S
H114 C115 0.949 . S
C115 H114 0.949 . S
C115 C116 1.395 . S
C115 C117 1.391 . S
C116 C115 1.395 . S
C116 C119 1.390 . S
C117 C115 1.391 . S
C117 C121 1.387 . S
C117 C122 1.491 . S
H118 C119 0.950 . S
C119 C116 1.390 . S
C119 H118 0.950 . S
C119 C120 1.378 . S
C120 C119 1.378 . S
C120 C121 1.409 . S
C121 C117 1.387 . S
C121 C120 1.409 . S
C121 H123 0.951 . S
C122 C117 1.491 . S
C122 C124 1.382 . S
C122 C126 1.404 1_455 S
H123 C121 0.951 . S
C124 C122 1.382 . S
C124 C125 1.390 . S
C124 H129 0.949 . S
C125 C124 1.390 . S
C125 C130 1.399 1_455 S
C126 C122 1.404 1_655 S
C126 H127 0.950 . S
C126 C128 1.375 . S
H127 C126 0.950 . S
C128 C126 1.375 . S
C128 C130 1.382 . S
C128 H132 0.950 . S
H129 C124 0.949 . S
C130 C125 1.399 1_655 S
C130 C128 1.382 . S
C130 H131 0.952 . S
H131 C130 0.952 . S
H132 C128 0.950 . S
H133 C134 0.949 . S
C134 H133 0.949 . S
C134 C135 1.395 . S
C134 C136 1.391 . S
C135 C134 1.395 . S
C135 C138 1.390 . S
C136 C134 1.391 . S
C136 C140 1.387 . S
C136 C141 1.491 . S
H137 C138 0.950 . S
C138 C135 1.390 . S
C138 H137 0.950 . S
C138 C139 1.378 . S
C139 C138 1.378 . S
C139 C140 1.409 . S
C140 C136 1.387 . S
C140 C139 1.409 . S
C140 H142 0.951 . S
C141 C136 1.491 . S
C141 C143 1.382 . S
C141 C145 1.404 . S
H142 C140 0.951 . S
C143 C141 1.382 . S
C143 C144 1.390 . S
C143 H148 0.949 . S
C144 C143 1.390 . S
C144 C149 1.399 . S
C145 C141 1.404 . S
C145 H146 0.950 . S
C145 C147 1.375 . S
H146 C145 0.950 . S
C147 C145 1.375 . S
C147 C149 1.382 . S
C147 H151 0.950 . S
H148 C143 0.949 . S
C149 C144 1.399 . S
C149 C147 1.382 . S
C149 H150 0.952 . S
H150 C149 0.952 . S
H151 C147 0.950 . S
H152 C153 0.949 . S
C153 H152 0.949 . S
C153 C154 1.395 . S
C153 C155 1.391 . S
C154 C153 1.395 . S
C154 C157 1.390 . S
C155 C153 1.391 . S
C155 C159 1.387 . S
C155 C160 1.491 . S
H156 C157 0.950 . S
C157 C154 1.390 . S
C157 H156 0.950 . S
C157 C158 1.378 . S
C158 C157 1.378 . S
C158 C159 1.409 . S
C159 C155 1.387 . S
C159 C158 1.409 . S
C159 H161 0.951 . S
C160 C155 1.491 . S
C160 C162 1.382 . S
C160 C164 1.404 . S
H161 C159 0.951 . S
C162 C160 1.382 . S
C162 C163 1.390 . S
C162 H167 0.949 . S
C163 C162 1.390 . S
C163 C168 1.399 . S
C164 C160 1.404 . S
C164 H165 0.950 . S
C164 C166 1.375 . S
H165 C164 0.950 . S
C166 C164 1.375 . S
C166 C168 1.382 . S
C166 H170 0.950 . S
H167 C162 0.949 . S
C168 C163 1.399 . S
C168 C166 1.382 . S
C168 H169 0.952 . S
H169 C168 0.952 . S
H170 C166 0.950 . S
H171 C172 0.949 . S
C172 H171 0.949 . S
C172 C173 1.395 . S
C172 C174 1.391 . S
C173 C172 1.395 . S
C173 C176 1.390 . S
C174 C172 1.391 . S
C174 C178 1.387 . S
C174 C179 1.491 1_554 S
H175 C176 0.950 . S
C176 C173 1.390 . S
C176 H175 0.950 . S
C176 C177 1.378 . S
C177 C176 1.378 . S
C177 C178 1.409 . S
C178 C174 1.387 . S
C178 C177 1.409 . S
C178 H180 0.951 . S
C179 C174 1.491 1_556 S
C179 C181 1.382 1_556 S
C179 C183 1.404 . S
H180 C178 0.951 . S
C181 C179 1.382 1_554 S
C181 C182 1.390 . S
C181 H186 0.949 . S
C182 C181 1.390 . S
C182 C187 1.399 1_554 S
C183 C179 1.404 . S
C183 H184 0.950 . S
C183 C185 1.375 . S
H184 C183 0.950 . S
C185 C183 1.375 . S
C185 C187 1.382 . S
C185 H189 0.950 . S
H186 C181 0.949 . S
C187 C182 1.399 1_556 S
C187 C185 1.382 . S
C187 H188 0.952 . S
H188 C187 0.952 . S
H189 C185 0.950 . S
H190 C191 0.949 . S
C191 H190 0.949 . S
C191 C192 1.395 . S
C191 C193 1.391 . S
C192 C191 1.395 . S
C192 C195 1.390 . S
C193 C191 1.391 . S
C193 C197 1.387 . S
C193 C198 1.491 . S
H194 C195 0.950 1_556 S
C195 C192 1.390 . S
C195 H194 0.950 1_554 S
C195 C196 1.378 . S
C196 C195 1.378 . S
C196 C197 1.409 . S
C197 C193 1.387 . S
C197 C196 1.409 . S
C197 H199 0.951 . S
C198 C193 1.491 . S
C198 C200 1.382 . S
C198 C202 1.404 . S
H199 C197 0.951 . S
C200 C198 1.382 . S
C200 C201 1.390 . S
C200 H205 0.949 1_554 S
C201 C200 1.390 . S
C201 C206 1.399 . S
C202 C198 1.404 . S
C202 H203 0.950 . S
C202 C204 1.375 . S
H203 C202 0.950 . S
C204 C202 1.375 . S
C204 C206 1.382 . S
C204 H208 0.950 . S
H205 C200 0.949 1_556 S
C206 C201 1.399 . S
C206 C204 1.382 . S
C206 H207 0.952 . S
H207 C206 0.952 . S
H208 C204 0.950 . S
H209 C210 0.950 . S
C210 H209 0.950 . S
C210 C211 1.395 . S
C210 C212 1.391 1_554 S
C211 C210 1.395 . S
C211 C214 1.390 . S
C212 C210 1.391 1_556 S
C212 C216 1.389 . S
C212 C217 1.491 . S
H213 C214 0.950 . S
C214 C211 1.390 . S
C214 H213 0.950 . S
C214 C215 1.378 . S
C215 C214 1.378 . S
C215 C216 1.407 1_554 S
C216 C212 1.389 . S
C216 C215 1.407 1_556 S
C216 H218 0.952 . S
C217 C212 1.491 . S
C217 C219 1.382 1_556 S
C217 C221 1.404 . S
H218 C216 0.952 . S
C219 C217 1.382 1_554 S
C219 C220 1.390 1_554 S
C219 H224 0.949 . S
C220 C219 1.390 1_556 S
C220 C225 1.399 . S
C221 C217 1.404 . S
C221 H222 0.950 . S
C221 C223 1.375 . S
H222 C221 0.950 . S
C223 C221 1.375 . S
C223 C225 1.382 . S
C223 H227 0.950 . S
H224 C219 0.949 . S
C225 C220 1.399 . S
C225 C223 1.382 . S
C225 H226 0.952 . S
H226 C225 0.952 . S
H227 C223 0.950 . S
H228 C229 0.949 . S
C229 H228 0.949 . S
C229 C230 1.395 . S
C229 C231 1.391 . S
C230 C229 1.395 . S
C230 C233 1.390 . S
C231 C229 1.391 . S
C231 C235 1.387 . S
C231 C236 1.491 . S
H232 C233 0.950 . S
C233 C230 1.390 . S
C233 H232 0.950 . S
C233 C234 1.378 . S
C234 C233 1.378 . S
C234 C235 1.409 . S
C235 C231 1.387 . S
C235 C234 1.409 . S
C235 H237 0.951 . S
C236 C231 1.491 . S
C236 C238 1.382 . S
C236 C240 1.404 . S
H237 C235 0.951 . S
C238 C236 1.382 . S
C238 C239 1.390 . S
C238 H243 0.949 . S
C239 C238 1.390 . S
C239 C244 1.399 . S
C240 C236 1.404 . S
C240 H241 0.950 . S
C240 C242 1.375 . S
H241 C240 0.950 . S
C242 C240 1.375 . S
C242 C244 1.382 . S
C242 H246 0.950 . S
H243 C238 0.949 . S
C244 C239 1.399 . S
C244 C242 1.382 . S
C244 H245 0.952 . S
H245 C244 0.952 . S
H246 C242 0.950 . S
H247 C248 0.949 . S
C248 H247 0.949 . S
C248 C249 1.395 . S
C248 C250 1.391 . S
C249 C248 1.395 . S
C249 C252 1.390 . S
C250 C248 1.391 . S
C250 C254 1.387 . S
C250 C255 1.491 . S
H251 C252 0.950 . S
C252 C249 1.390 . S
C252 H251 0.950 . S
C252 C253 1.378 . S
C253 C252 1.378 . S
C253 C254 1.409 . S
C254 C250 1.387 . S
C254 C253 1.409 . S
C254 H256 0.951 . S
C255 C250 1.491 . S
C255 C257 1.382 . S
C255 C259 1.404 . S
H256 C254 0.951 . S
C257 C255 1.382 . S
C257 C258 1.390 . S
C257 H262 0.949 . S
C258 C257 1.390 . S
C258 C263 1.399 . S
C259 C255 1.404 . S
C259 H260 0.950 . S
C259 C261 1.375 . S
H260 C259 0.950 . S
C261 C259 1.375 . S
C261 C263 1.382 . S
C261 H265 0.950 . S
H262 C257 0.949 . S
C263 C258 1.399 . S
C263 C261 1.382 . S
C263 H264 0.952 . S
H264 C263 0.952 . S
H265 C261 0.950 . S
H266 C267 0.949 . S
C267 H266 0.949 . S
C267 C268 1.395 . S
C267 C269 1.391 . S
C268 C267 1.395 . S
C268 C271 1.390 . S
C269 C267 1.391 . S
C269 C273 1.387 . S
C269 C274 1.491 . S
H270 C271 0.950 . S
C271 C268 1.390 . S
C271 H270 0.950 . S
C271 C272 1.378 . S
C272 C271 1.378 . S
C272 C273 1.409 . S
C273 C269 1.387 . S
C273 C272 1.409 . S
C273 H275 0.951 . S
C274 C269 1.491 . S
C274 C276 1.382 . S
C274 C278 1.404 . S
H275 C273 0.951 . S
C276 C274 1.382 . S
C276 C277 1.390 . S
C276 H281 0.949 . S
C277 C276 1.390 . S
C277 C282 1.399 . S
C278 C274 1.404 . S
C278 H279 0.950 . S
C278 C280 1.375 . S
H279 C278 0.950 . S
C280 C278 1.375 . S
C280 C282 1.382 . S
C280 H284 0.950 . S
H281 C276 0.949 . S
C282 C277 1.399 . S
C282 C280 1.382 . S
C282 H283 0.952 . S
H283 C282 0.952 . S
H284 C280 0.950 . S
H285 C286 0.949 . S
C286 H285 0.949 . S
C286 C287 1.395 . S
C286 C288 1.391 . S
C287 C286 1.395 . S
C287 C290 1.390 . S
C288 C286 1.391 . S
C288 C292 1.387 . S
C288 C293 1.491 . S
H289 C290 0.950 . S
C290 C287 1.390 . S
C290 H289 0.950 . S
C290 C291 1.378 . S
C291 C290 1.378 . S
C291 C292 1.409 . S
C292 C288 1.387 . S
C292 C291 1.409 . S
C292 H294 0.951 . S
C293 C288 1.491 . S
C293 C295 1.382 . S
C293 C297 1.404 . S
H294 C292 0.951 . S
C295 C293 1.382 . S
C295 C296 1.390 . S
C295 H300 0.949 . S
C296 C295 1.390 . S
C296 C301 1.399 . S
C297 C293 1.404 . S
C297 H298 0.950 . S
C297 C299 1.375 . S
H298 C297 0.950 . S
C299 C297 1.375 . S
C299 C301 1.382 . S
C299 H303 0.950 . S
H300 C295 0.949 . S
C301 C296 1.399 . S
C301 C299 1.382 . S
C301 H302 0.952 . S
H302 C301 0.952 . S
H303 C299 0.950 . S
H304 C305 0.949 . S
C305 H304 0.949 . S
C305 C306 1.395 . S
C305 C307 1.391 . S
C306 C305 1.395 . S
C306 C309 1.390 . S
C307 C305 1.391 . S
C307 C311 1.387 . S
C307 C312 1.491 . S
H308 C309 0.950 . S
C309 C306 1.390 . S
C309 H308 0.950 . S
C309 C310 1.378 . S
C310 C309 1.378 . S
C310 C311 1.409 . S
C311 C307 1.387 . S
C311 C310 1.409 . S
C311 H313 0.951 . S
C312 C307 1.491 . S
C312 C314 1.382 . S
C312 C316 1.404 . S
H313 C311 0.951 . S
C314 C312 1.382 . S
C314 C315 1.390 . S
C314 H319 0.949 . S
C315 C314 1.390 . S
C315 C320 1.399 . S
C316 C312 1.404 . S
C316 H317 0.950 . S
C316 C318 1.375 . S
H317 C316 0.950 . S
C318 C316 1.375 . S
C318 C320 1.382 . S
C318 H322 0.950 . S
H319 C314 0.949 . S
C320 C315 1.399 . S
C320 C318 1.382 . S
C320 H321 0.952 . S
H321 C320 0.952 . S
H322 C318 0.950 . S
H323 C324 0.949 . S
C324 H323 0.949 . S
C324 C325 1.395 . S
C324 C326 1.391 . S
C325 C324 1.395 . S
C325 C328 1.390 . S
C326 C324 1.391 . S
C326 C330 1.387 . S
C326 C331 1.491 . S
H327 C328 0.950 . S
C328 C325 1.390 . S
C328 H327 0.950 . S
C328 C329 1.378 . S
C329 C328 1.378 . S
C329 C330 1.409 . S
C330 C326 1.387 . S
C330 C329 1.409 . S
C330 H332 0.951 . S
C331 C326 1.491 . S
C331 C333 1.382 . S
C331 C335 1.404 . S
H332 C330 0.951 . S
C333 C331 1.382 . S
C333 C334 1.390 . S
C333 H338 0.949 . S
C334 C333 1.390 . S
C334 C339 1.399 . S
C335 C331 1.404 . S
C335 H336 0.950 . S
C335 C337 1.375 . S
H336 C335 0.950 . S
C337 C335 1.375 . S
C337 C339 1.382 . S
C337 H341 0.950 . S
H338 C333 0.949 . S
C339 C334 1.399 . S
C339 C337 1.382 . S
C339 H340 0.952 . S
H340 C339 0.952 . S
H341 C337 0.950 . S
H342 C343 0.949 . S
C343 H342 0.949 . S
C343 C344 1.395 . S
C343 C345 1.391 . S
C344 C343 1.395 . S
C344 C347 1.390 . S
C345 C343 1.391 . S
C345 C349 1.387 . S
C345 C350 1.491 . S
H346 C347 0.950 . S
C347 C344 1.390 . S
C347 H346 0.950 . S
C347 C348 1.378 . S
C348 C347 1.378 . S
C348 C349 1.409 . S
C349 C345 1.387 . S
C349 C348 1.409 . S
C349 H351 0.951 . S
C350 C345 1.491 . S
C350 C352 1.382 . S
C350 C354 1.404 . S
H351 C349 0.951 . S
C352 C350 1.382 . S
C352 C353 1.390 . S
C352 H357 0.949 . S
C353 C352 1.390 . S
C353 C358 1.399 . S
C354 C350 1.404 . S
C354 H355 0.950 . S
C354 C356 1.375 . S
H355 C354 0.950 . S
C356 C354 1.375 . S
C356 C358 1.382 . S
C356 H360 0.950 . S
H357 C352 0.949 . S
C358 C353 1.399 . S
C358 C356 1.382 . S
C358 H359 0.952 . S
H359 C358 0.952 . S
H360 C356 0.950 . S
H361 C362 0.949 . S
C362 H361 0.949 . S
C362 C363 1.395 . S
C362 C364 1.391 . S
C363 C362 1.395 . S
C363 C366 1.390 . S
C364 C362 1.391 . S
C364 C368 1.387 . S
C364 C369 1.491 . S
H365 C366 0.950 . S
C366 C363 1.390 . S
C366 H365 0.950 . S
C366 C367 1.378 . S
C367 C366 1.378 . S
C367 C368 1.409 . S
C368 C364 1.387 . S
C368 C367 1.409 . S
C368 H370 0.951 . S
C369 C364 1.491 . S
C369 C371 1.382 . S
C369 C373 1.404 . S
H370 C368 0.951 . S
C371 C369 1.382 . S
C371 C372 1.390 . S
C371 H376 0.949 . S
C372 C371 1.390 . S
C372 C377 1.399 . S
C373 C369 1.404 . S
C373 H374 0.950 . S
C373 C375 1.375 . S
H374 C373 0.950 . S
C375 C373 1.375 . S
C375 C377 1.382 . S
C375 H379 0.950 . S
H376 C371 0.949 . S
C377 C372 1.399 . S
C377 C375 1.382 . S
C377 H378 0.952 . S
H378 C377 0.952 . S
H379 C375 0.950 . S
H380 C381 0.949 . S
C381 H380 0.949 . S
C381 C382 1.395 . S
C381 C383 1.391 . S
C382 C381 1.395 . S
C382 C385 1.390 . S
C383 C381 1.391 . S
C383 C387 1.387 . S
C383 C388 1.491 . S
H384 C385 0.950 . S
C385 C382 1.390 . S
C385 H384 0.950 . S
C385 C386 1.378 . S
C386 C385 1.378 . S
C386 C387 1.409 . S
C387 C383 1.387 . S
C387 C386 1.409 . S
C387 H389 0.951 . S
C388 C383 1.491 . S
C388 C390 1.382 . S
C388 C392 1.404 . S
H389 C387 0.951 . S
C390 C388 1.382 . S
C390 C391 1.390 . S
C390 H395 0.949 . S
C391 C390 1.390 . S
C391 C396 1.399 . S
C392 C388 1.404 . S
C392 H393 0.950 . S
C392 C394 1.375 . S
H393 C392 0.950 . S
C394 C392 1.375 . S
C394 C396 1.382 . S
C394 H398 0.950 . S
H395 C390 0.949 . S
C396 C391 1.399 . S
C396 C394 1.382 . S
C396 H397 0.952 . S
H397 C396 0.952 . S
H398 C394 0.950 . S
H399 C400 0.949 . S
C400 H399 0.949 . S
C400 C401 1.395 . S
C400 C402 1.391 . S
C401 C400 1.395 . S
C401 C404 1.390 . S
C402 C400 1.391 . S
C402 C406 1.387 . S
C402 C407 1.491 . S
H403 C404 0.950 . S
C404 C401 1.390 . S
C404 H403 0.950 . S
C404 C405 1.378 . S
C405 C404 1.378 . S
C405 C406 1.409 . S
C406 C402 1.387 . S
C406 C405 1.409 . S
C406 H408 0.951 . S
C407 C402 1.491 . S
C407 C409 1.382 . S
C407 C411 1.404 . S
H408 C406 0.951 . S
C409 C407 1.382 . S
C409 C410 1.390 . S
C409 H414 0.949 . S
C410 C409 1.390 . S
C410 C415 1.399 . S
C411 C407 1.404 . S
C411 H412 0.950 . S
C411 C413 1.375 . S
H412 C411 0.950 . S
C413 C411 1.375 . S
C413 C415 1.382 . S
C413 H417 0.950 . S
H414 C409 0.949 . S
C415 C410 1.399 . S
C415 C413 1.382 . S
C415 H416 0.952 . S
H416 C415 0.952 . S
H417 C413 0.950 . S
H418 C419 0.949 . S
C419 H418 0.949 . S
C419 C420 1.395 . S
C419 C421 1.391 . S
C420 C419 1.395 . S
C420 C423 1.390 . S
C421 C419 1.391 . S
C421 C425 1.387 . S
C421 C426 1.491 . S
H422 C423 0.950 . S
C423 C420 1.390 . S
C423 H422 0.950 . S
C423 C424 1.378 . S
C424 C423 1.378 . S
C424 C425 1.409 . S
C425 C421 1.387 . S
C425 C424 1.409 . S
C425 H427 0.951 . S
C426 C421 1.491 . S
C426 C428 1.382 . S
C426 C430 1.404 . S
H427 C425 0.951 . S
C428 C426 1.382 . S
C428 C429 1.390 . S
C428 H433 0.949 . S
C429 C428 1.390 . S
C429 C434 1.399 . S
C430 C426 1.404 . S
C430 H431 0.950 . S
C430 C432 1.375 . S
H431 C430 0.950 . S
C432 C430 1.375 . S
C432 C434 1.382 . S
C432 H436 0.950 . S
H433 C428 0.949 . S
C434 C429 1.399 . S
C434 C432 1.382 . S
C434 H435 0.952 . S
H435 C434 0.952 . S
H436 C432 0.950 . S
H437 C438 0.949 . S
C438 H437 0.949 . S
C438 C439 1.395 . S
C438 C440 1.391 . S
C439 C438 1.395 . S
C439 C442 1.390 . S
C440 C438 1.391 . S
C440 C444 1.387 . S
C440 C445 1.491 . S
H441 C442 0.950 . S
C442 C439 1.390 . S
C442 H441 0.950 . S
C442 C443 1.378 . S
C443 C442 1.378 . S
C443 C444 1.409 . S
C444 C440 1.387 . S
C444 C443 1.409 . S
C444 H446 0.951 . S
C445 C440 1.491 . S
C445 C447 1.382 . S
C445 C449 1.404 . S
H446 C444 0.951 . S
C447 C445 1.382 . S
C447 C448 1.390 . S
C447 H452 0.949 . S
C448 C447 1.390 . S
C448 C453 1.399 . S
C449 C445 1.404 . S
C449 H450 0.950 . S
C449 C451 1.375 . S
H450 C449 0.950 . S
C451 C449 1.375 . S
C451 C453 1.382 . S
C451 H455 0.950 . S
H452 C447 0.949 . S
C453 C448 1.399 . S
C453 C451 1.382 . S
C453 H454 0.952 . S
H454 C453 0.952 . S
H455 C451 0.950 . S
Zn456 O458 1.933 1_565 S
Zn456 O476 1.985 . S
Zn456 O487 1.955 . S
Zn457 O458 1.911 . S
Zn457 O477 1.970 . S
Zn457 O493 1.945 . S
Zn457 O500 1.981 . S
O458 Zn456 1.933 1_545 S
O458 Zn457 1.911 . S
O458 H459 0.841 1_655 S
H459 O458 0.841 1_455 S
C460 O461 1.246 . S
C460 O489 1.276 . S
O461 C460 1.246 . S
Zn462 O464 1.911 . S
Zn462 O479 1.970 . S
Zn462 O496 1.945 . S
Zn462 O503 1.981 . S
Zn463 O464 1.933 1_565 S
Zn463 O478 1.985 . S
Zn463 O485 1.955 . S
O464 Zn462 1.911 . S
O464 Zn463 1.933 1_545 S
O464 H465 0.841 . S
H465 O464 0.841 . S
Zn466 O467 1.933 1_565 S
Zn466 O480 1.985 . S
Zn466 O489 1.955 . S
O467 Zn466 1.933 1_545 S
O467 Zn468 1.911 . S
O467 H469 0.841 . S
Zn468 O467 1.911 . S
Zn468 O481 1.970 . S
Zn468 O497 1.981 1_655 S
Zn468 O499 1.945 . S
H469 O467 0.841 . S
Zn470 O471 1.933 1_565 S
Zn470 O483 1.985 . S
Zn470 O491 1.955 . S
O471 Zn470 1.933 1_545 S
O471 H472 0.841 . S
O471 Zn473 1.911 . S
H472 O471 0.841 . S
Zn473 O471 1.911 . S
Zn473 O484 1.970 . S
Zn473 O494 1.981 . S
Zn473 O502 1.945 . S
C474 O475 1.246 . S
C474 O491 1.276 . S
O475 C474 1.246 . S
O476 Zn456 1.985 . S
O476 C486 1.245 1_565 S
O477 Zn457 1.970 . S
O477 C486 1.263 . S
O478 Zn463 1.985 . S
O478 C490 1.245 1_565 S
O479 Zn462 1.970 . S
O479 C490 1.263 . S
O480 Zn466 1.985 . S
O480 C495 1.245 1_565 S
O481 Zn468 1.970 . S
O481 C495 1.263 . S
C482 O493 1.262 1_455 S
C482 O494 1.245 . S
O483 Zn470 1.985 . S
O483 C501 1.245 1_565 S
O484 Zn473 1.970 . S
O484 C501 1.263 . S
O485 Zn463 1.955 . S
O485 C504 1.276 . S
C486 O476 1.245 1_545 S
C486 O477 1.263 . S
O487 Zn456 1.955 . S
O487 C506 1.276 1_655 S
C488 O496 1.262 . S
C488 O497 1.245 . S
O489 C460 1.276 . S
O489 Zn466 1.955 . S
C490 O478 1.245 1_545 S
C490 O479 1.263 . S
O491 Zn470 1.955 . S
O491 C474 1.276 . S
C492 O499 1.262 . S
C492 O500 1.245 . S
O493 Zn457 1.945 . S
O493 C482 1.262 1_655 S
O494 Zn473 1.981 . S
O494 C482 1.245 . S
C495 O480 1.245 1_545 S
C495 O481 1.263 . S
O496 Zn462 1.945 . S
O496 C488 1.262 . S
O497 Zn468 1.981 1_455 S
O497 C488 1.245 . S
C498 O502 1.262 . S
C498 O503 1.245 . S
O499 Zn468 1.945 . S
O499 C492 1.262 . S
O500 Zn457 1.981 . S
O500 C492 1.245 . S
C501 O483 1.245 1_545 S
C501 O484 1.263 . S
O502 Zn473 1.945 . S
O502 C498 1.262 . S
O503 Zn462 1.981 . S
O503 C498 1.245 . S
C504 O485 1.276 . S
C504 O505 1.246 . S
O505 C504 1.246 . S
C506 O487 1.276 1_455 S
C506 O507 1.246 . S
O507 C506 1.246 . S
Zn508 O510 1.933 . S
Zn508 O528 1.985 . S
Zn508 O539 1.955 . S
Zn509 O510 1.911 1_556 S
Zn509 O529 1.970 . S
Zn509 O545 1.945 . S
Zn509 O552 1.981 . S
O510 Zn508 1.933 . S
O510 Zn509 1.911 1_554 S
O510 H511 0.841 . S
H511 O510 0.841 . S
C512 O513 1.246 . S
C512 O541 1.276 . S
O513 C512 1.246 . S
Zn514 O516 1.911 1_556 S
Zn514 O531 1.970 . S
Zn514 O548 1.945 . S
Zn514 O555 1.981 . S
Zn515 O516 1.933 . S
Zn515 O530 1.985 . S
Zn515 O537 1.955 . S
O516 Zn514 1.911 1_554 S
O516 Zn515 1.933 . S
O516 H517 0.841 1_565 S
H517 O516 0.841 1_545 S
Zn518 O519 1.933 . S
Zn518 O532 1.985 . S
Zn518 O541 1.955 . S
O519 Zn518 1.933 . S
O519 Zn520 1.911 1_554 S
O519 H521 0.841 . S
Zn520 O519 1.911 1_556 S
Zn520 O533 1.970 . S
Zn520 O549 1.981 . S
Zn520 O551 1.945 . S
H521 O519 0.841 . S
Zn522 O523 1.933 . S
Zn522 O535 1.985 . S
Zn522 O543 1.955 . S
O523 Zn522 1.933 . S
O523 H524 0.841 . S
O523 Zn525 1.911 1_554 S
H524 O523 0.841 . S
Zn525 O523 1.911 1_556 S
Zn525 O536 1.970 . S
Zn525 O546 1.969 1_565 S
Zn525 O554 1.945 . S
C526 O527 1.246 . S
C526 O543 1.276 . S
O527 C526 1.246 . S
O528 Zn508 1.985 . S
O528 C538 1.245 . S
O529 Zn509 1.970 . S
O529 C538 1.263 1_556 S
O530 Zn515 1.985 . S
O530 C542 1.245 . S
O531 Zn514 1.970 . S
O531 C542 1.263 1_556 S
O532 Zn518 1.985 . S
O532 C547 1.245 . S
O533 Zn520 1.970 . S
O533 C547 1.263 1_556 S
C534 O545 1.262 . S
C534 O546 1.253 . S
O535 Zn522 1.985 . S
O535 C553 1.245 . S
O536 Zn525 1.970 . S
O536 C553 1.263 1_556 S
O537 Zn515 1.955 . S
O537 C556 1.276 1_565 S
C538 O528 1.245 . S
C538 O529 1.263 1_554 S
O539 Zn508 1.955 . S
O539 C558 1.276 . S
C540 O548 1.262 1_545 S
C540 O549 1.245 . S
O541 C512 1.276 . S
O541 Zn518 1.955 . S
C542 O530 1.245 . S
C542 O531 1.263 1_554 S
O543 Zn522 1.955 . S
O543 C526 1.276 . S
C544 O551 1.262 . S
C544 O552 1.245 . S
O545 Zn509 1.945 . S
O545 C534 1.262 . S
O546 Zn525 1.969 1_545 S
O546 C534 1.253 . S
C547 O532 1.245 . S
C547 O533 1.263 1_554 S
O548 Zn514 1.945 . S
O548 C540 1.262 1_565 S
O549 Zn520 1.981 . S
O549 C540 1.245 . S
C550 O554 1.262 . S
C550 O555 1.245 . S
O551 Zn520 1.945 . S
O551 C544 1.262 . S
O552 Zn509 1.981 . S
O552 C544 1.245 . S
C553 O535 1.245 . S
C553 O536 1.263 1_554 S
O554 Zn525 1.945 . S
O554 C550 1.262 . S
O555 Zn514 1.981 . S
O555 C550 1.245 . S
C556 O537 1.276 1_545 S
C556 O557 1.246 . S
O557 C556 1.246 . S
C558 O539 1.276 . S
C558 O559 1.229 1_545 S
O559 C558 1.229 1_565 S
Zn560 O562 1.933 . S
Zn560 O580 1.985 . S
Zn560 O591 1.955 . S
Zn561 O562 1.911 . S
Zn561 O581 1.970 . S
Zn561 O597 1.945 . S
Zn561 O604 1.981 . S
O562 Zn560 1.933 . S
O562 Zn561 1.911 . S
O562 H563 0.841 1_655 S
H563 O562 0.841 1_455 S
C564 O565 1.246 1_554 S
C564 O593 1.276 . S
O565 C564 1.246 1_556 S
Zn566 O568 1.911 . S
Zn566 O583 1.970 . S
Zn566 O600 1.945 . S
Zn566 O607 1.981 . S
Zn567 O568 1.933 . S
Zn567 O582 1.985 . S
Zn567 O589 1.955 . S
O568 Zn566 1.911 . S
O568 Zn567 1.933 . S
O568 H569 0.841 . S
H569 O568 0.841 . S
Zn570 O571 1.933 . S
Zn570 O584 1.985 . S
Zn570 O593 1.955 . S
O571 Zn570 1.933 . S
O571 Zn572 1.911 . S
O571 H573 0.841 . S
Zn572 O571 1.911 . S
Zn572 O585 1.970 . S
Zn572 O601 1.981 . S
Zn572 O603 1.945 . S
H573 O571 0.841 . S
Zn574 O575 1.933 . S
Zn574 O587 1.985 . S
Zn574 O595 1.955 . S
O575 Zn574 1.933 . S
O575 H576 0.841 . S
O575 Zn577 1.911 . S
H576 O575 0.841 . S
Zn577 O575 1.911 . S
Zn577 O588 1.970 . S
Zn577 O598 1.981 . S
Zn577 O606 1.945 . S
C578 O579 1.246 . S
C578 O595 1.276 1_554 S
O579 C578 1.246 . S
O580 Zn560 1.985 . S
O580 C590 1.245 . S
O581 Zn561 1.970 . S
O581 C590 1.263 . S
O582 Zn567 1.985 . S
O582 C594 1.245 . S
O583 Zn566 1.970 . S
O583 C594 1.263 . S
O584 Zn570 1.985 . S
O584 C599 1.245 . S
O585 Zn572 1.970 . S
O585 C599 1.263 . S
C586 O597 1.262 1_455 S
C586 O598 1.245 . S
O587 Zn574 1.985 . S
O587 C605 1.245 . S
O588 Zn577 1.970 . S
O588 C605 1.263 . S
O589 Zn567 1.955 . S
O589 C608 1.276 . S
C590 O580 1.245 . S
C590 O581 1.263 . S
O591 Zn560 1.955 . S
O591 C610 1.276 1_655 S
C592 O600 1.262 . S
C592 O601 1.245 1_455 S
O593 C564 1.276 . S
O593 Zn570 1.955 . S
C594 O582 1.245 . S
C594 O583 1.263 . S
O595 Zn574 1.955 . S
O595 C578 1.276 1_556 S
C596 O603 1.262 . S
C596 O604 1.245 1_554 S
O597 Zn561 1.945 . S
O597 C586 1.262 1_655 S
O598 Zn577 1.981 . S
O598 C586 1.245 . S
C599 O584 1.245 . S
C599 O585 1.263 . S
O600 Zn566 1.945 . S
O600 C592 1.262 . S
O601 Zn572 1.981 . S
O601 C592 1.245 1_655 S
C602 O606 1.262 1_554 S
C602 O607 1.245 . S
O603 Zn572 1.945 . S
O603 C596 1.262 . S
O604 Zn561 1.981 . S
O604 C596 1.245 1_556 S
C605 O587 1.245 . S
C605 O588 1.263 . S
O606 Zn577 1.945 . S
O606 C602 1.262 1_556 S
O607 Zn566 1.981 . S
O607 C602 1.245 . S
C608 O589 1.276 . S
C608 O609 1.246 1_455 S
O609 C608 1.246 1_655 S
C610 O591 1.276 1_455 S
C610 O611 1.246 . S
O611 C610 1.246 . S
Zn612 O614 1.933 1_556 S
Zn612 O632 1.985 . S
Zn612 O643 1.955 . S
Zn613 O614 1.911 . S
Zn613 O633 1.970 . S
Zn613 O649 1.945 . S
Zn613 O656 1.981 . S
O614 Zn612 1.933 1_554 S
O614 Zn613 1.911 . S
O614 H615 0.841 . S
H615 O614 0.841 . S
C616 O617 1.246 . S
C616 O645 1.276 . S
O617 C616 1.246 . S
Zn618 O620 1.911 . S
Zn618 O635 1.970 . S
Zn618 O652 1.945 . S
Zn618 O659 1.981 . S
Zn619 O620 1.933 1_556 S
Zn619 O634 1.985 . S
Zn619 O641 1.955 . S
O620 Zn618 1.911 . S
O620 Zn619 1.933 1_554 S
O620 H621 0.841 . S
H621 O620 0.841 . S
Zn622 O623 1.933 1_556 S
Zn622 O636 1.985 . S
Zn622 O645 1.955 . S
O623 Zn622 1.933 1_554 S
O623 Zn624 1.911 . S
O623 H625 0.841 . S
Zn624 O623 1.911 . S
Zn624 O637 1.970 . S
Zn624 O653 1.981 . S
Zn624 O655 1.945 . S
H625 O623 0.841 . S
Zn626 O627 1.933 1_556 S
Zn626 O639 1.985 . S
Zn626 O647 1.955 . S
O627 Zn626 1.933 1_554 S
O627 H628 0.841 . S
O627 Zn629 1.911 . S
H628 O627 0.841 . S
Zn629 O627 1.911 . S
Zn629 O640 1.970 . S
Zn629 O650 1.981 . S
Zn629 O658 1.945 . S
C630 O631 1.246 . S
C630 O647 1.276 . S
O631 C630 1.246 . S
O632 Zn612 1.985 . S
O632 C642 1.245 1_556 S
O633 Zn613 1.970 . S
O633 C642 1.263 . S
O634 Zn619 1.985 . S
O634 C646 1.245 1_556 S
O635 Zn618 1.970 . S
O635 C646 1.263 . S
O636 Zn622 1.985 . S
O636 C651 1.245 1_556 S
O637 Zn624 1.970 . S
O637 C651 1.263 . S
C638 O649 1.262 . S
C638 O650 1.245 . S
O639 Zn626 1.985 . S
O639 C657 1.245 1_556 S
O640 Zn629 1.970 . S
O640 C657 1.263 . S
O641 Zn619 1.955 . S
O641 C660 1.276 . S
C642 O632 1.245 1_554 S
C642 O633 1.263 . S
O643 Zn612 1.955 . S
O643 C662 1.276 . S
C644 O652 1.262 . S
C644 O653 1.245 . S
O645 C616 1.276 . S
O645 Zn622 1.955 . S
C646 O634 1.245 1_554 S
C646 O635 1.263 . S
O647 Zn626 1.955 . S
O647 C630 1.276 . S
C648 O655 1.262 . S
C648 O656 1.245 . S
O649 Zn613 1.945 . S
O649 C638 1.262 . S
O650 Zn629 1.981 . S
O650 C638 1.245 . S
C651 O636 1.245 1_554 S
C651 O637 1.263 . S
O652 Zn618 1.945 . S
O652 C644 1.262 . S
O653 Zn624 1.981 . S
O653 C644 1.245 . S
C654 O658 1.262 . S
C654 O659 1.245 . S
O655 Zn624 1.945 . S
O655 C648 1.262 . S
O656 Zn613 1.981 . S
O656 C648 1.245 . S
C657 O639 1.245 1_554 S
C657 O640 1.263 . S
O658 Zn629 1.945 . S
O658 C654 1.262 . S
O659 Zn618 1.981 . S
O659 C654 1.245 . S
C660 O641 1.276 . S
C660 O661 1.246 . S
O661 C660 1.246 . S
C662 O643 1.276 . S
C662 O663 1.246 . S
O663 C662 1.246 . S
Zn664 O666 1.933 . S
Zn664 O684 1.985 . S
Zn664 O695 1.955 . S
Zn665 O666 1.911 . S
Zn665 O685 1.970 . S
Zn665 O701 1.945 . S
Zn665 O708 1.981 . S
O666 Zn664 1.933 . S
O666 Zn665 1.911 . S
O666 H667 0.841 1_655 S
H667 O666 0.841 1_455 S
C668 O669 1.246 . S
C668 O697 1.276 . S
O669 C668 1.246 . S
Zn670 O672 1.911 . S
Zn670 O687 1.970 . S
Zn670 O704 1.945 . S
Zn670 O711 1.981 . S
Zn671 O672 1.933 . S
Zn671 O686 1.985 . S
Zn671 O693 1.955 . S
O672 Zn670 1.911 . S
O672 Zn671 1.933 . S
O672 H673 0.841 . S
H673 O672 0.841 . S
Zn674 O675 1.933 . S
Zn674 O688 1.985 . S
Zn674 O697 1.955 . S
O675 Zn674 1.933 . S
O675 Zn676 1.911 . S
O675 H677 0.841 . S
Zn676 O675 1.911 . S
Zn676 O689 1.970 . S
Zn676 O705 1.966 1_655 S
Zn676 O707 1.945 . S
H677 O675 0.841 . S
Zn678 O679 1.933 . S
Zn678 O691 1.985 . S
Zn678 O699 1.955 . S
O679 Zn678 1.933 . S
O679 H680 0.841 . S
O679 Zn681 1.911 . S
H680 O679 0.841 . S
Zn681 O679 1.911 . S
Zn681 O692 1.970 . S
Zn681 O702 1.981 . S
Zn681 O710 1.945 . S
C682 O683 1.246 . S
C682 O699 1.276 . S
O683 C682 1.246 . S
O684 Zn664 1.985 . S
O684 C694 1.245 . S
O685 Zn665 1.970 . S
O685 C694 1.263 . S
O686 Zn671 1.985 . S
O686 C698 1.245 . S
O687 Zn670 1.970 . S
O687 C698 1.263 . S
O688 Zn674 1.985 . S
O688 C703 1.245 . S
O689 Zn676 1.970 . S
O689 C703 1.263 . S
C690 O701 1.262 1_455 S
C690 O702 1.245 . S
O691 Zn678 1.985 . S
O691 C709 1.245 . S
O692 Zn681 1.970 . S
O692 C709 1.263 . S
O693 Zn671 1.955 . S
O693 C712 1.276 . S
C694 O684 1.245 . S
C694 O685 1.263 . S
O695 Zn664 1.955 . S
O695 C714 1.276 1_655 S
C696 O704 1.262 . S
C696 O705 1.255 . S
O697 C668 1.276 . S
O697 Zn674 1.955 . S
C698 O686 1.245 . S
C698 O687 1.263 . S
O699 Zn678 1.955 . S
O699 C682 1.276 . S
C700 O707 1.262 . S
C700 O708 1.245 . S
O701 Zn665 1.945 . S
O701 C690 1.262 1_655 S
O702 Zn681 1.981 . S
O702 C690 1.245 . S
C703 O688 1.245 . S
C703 O689 1.263 . S
O704 Zn670 1.945 . S
O704 C696 1.262 . S
O705 Zn676 1.966 1_455 S
O705 C696 1.255 . S
C706 O710 1.262 . S
C706 O711 1.245 . S
O707 Zn676 1.945 . S
O707 C700 1.262 . S
O708 Zn665 1.981 . S
O708 C700 1.245 . S
C709 O691 1.245 . S
C709 O692 1.263 . S
O710 Zn681 1.945 . S
O710 C706 1.262 . S
O711 Zn670 1.981 . S
O711 C706 1.245 . S
C712 O693 1.276 . S
C712 O713 1.246 . S
O713 C712 1.246 . S
C714 O695 1.276 1_455 S
C714 O715 1.246 . S
O715 C714 1.246 . S
Zn716 O718 1.933 1_565 S
Zn716 O736 1.985 . S
Zn716 O747 1.955 . S
Zn717 O718 1.911 . S
Zn717 O737 1.970 . S
Zn717 O753 1.945 . S
Zn717 O760 1.981 . S
O718 Zn716 1.933 1_545 S
O718 Zn717 1.911 . S
O718 H719 0.841 . S
H719 O718 0.841 . S
C720 O721 1.246 . S
C720 O749 1.276 . S
O721 C720 1.246 . S
Zn722 O724 1.911 . S
Zn722 O739 1.970 . S
Zn722 O756 1.945 . S
Zn722 O763 1.981 . S
Zn723 O724 1.933 1_565 S
Zn723 O738 1.985 . S
Zn723 O745 1.955 . S
O724 Zn722 1.911 . S
O724 Zn723 1.933 1_545 S
O724 H725 0.841 . S
H725 O724 0.841 . S
Zn726 O727 1.933 1_565 S
Zn726 O740 1.985 . S
Zn726 O749 1.955 . S
O727 Zn726 1.933 1_545 S
O727 Zn728 1.911 . S
O727 H729 0.841 . S
Zn728 O727 1.911 . S
Zn728 O741 1.970 . S
Zn728 O757 1.981 . S
Zn728 O759 1.945 . S
H729 O727 0.841 . S
Zn730 O731 1.933 1_565 S
Zn730 O743 1.985 . S
Zn730 O751 1.955 . S
O731 Zn730 1.933 1_545 S
O731 H732 0.841 . S
O731 Zn733 1.911 . S
H732 O731 0.841 . S
Zn733 O731 1.911 . S
Zn733 O744 1.970 . S
Zn733 O754 1.981 . S
Zn733 O762 1.945 . S
C734 O735 1.246 . S
C734 O751 1.276 . S
O735 C734 1.246 . S
O736 Zn716 1.985 . S
O736 C746 1.245 1_565 S
O737 Zn717 1.970 . S
O737 C746 1.263 . S
O738 Zn723 1.985 . S
O738 C750 1.245 1_565 S
O739 Zn722 1.970 . S
O739 C750 1.263 . S
O740 Zn726 1.985 . S
O740 C755 1.245 1_565 S
O741 Zn728 1.970 . S
O741 C755 1.263 . S
C742 O753 1.262 . S
C742 O754 1.245 . S
O743 Zn730 1.985 . S
O743 C761 1.245 1_565 S
O744 Zn733 1.970 . S
O744 C761 1.263 . S
O745 Zn723 1.955 . S
O745 C764 1.276 . S
C746 O736 1.245 1_545 S
C746 O737 1.263 . S
O747 Zn716 1.955 . S
O747 C766 1.276 . S
C748 O756 1.262 . S
C748 O757 1.245 . S
O749 C720 1.276 . S
O749 Zn726 1.955 . S
C750 O738 1.245 1_545 S
C750 O739 1.263 . S
O751 Zn730 1.955 . S
O751 C734 1.276 . S
C752 O759 1.262 . S
C752 O760 1.245 . S
O753 Zn717 1.945 . S
O753 C742 1.262 . S
O754 Zn733 1.981 . S
O754 C742 1.245 . S
C755 O740 1.245 1_545 S
C755 O741 1.263 . S
O756 Zn722 1.945 . S
O756 C748 1.262 . S
O757 Zn728 1.981 . S
O757 C748 1.245 . S
C758 O762 1.262 . S
C758 O763 1.245 . S
O759 Zn728 1.945 . S
O759 C752 1.262 . S
O760 Zn717 1.981 . S
O760 C752 1.245 . S
C761 O743 1.245 1_545 S
C761 O744 1.263 . S
O762 Zn733 1.945 . S
O762 C758 1.262 . S
O763 Zn722 1.981 . S
O763 C758 1.245 . S
C764 O745 1.276 . S
C764 O765 1.246 . S
O765 C764 1.246 . S
C766 O747 1.276 . S
C766 O767 1.246 . S
O767 C766 1.246 . S
C768 C769 1.369 . S
C768 C770 1.419 . S
C768 H772 0.930 . S
C769 C768 1.369 . S
C769 C778 1.429 . S
C770 C768 1.419 . S
C770 C771 1.363 . S
C770 H773 0.929 . S
C771 C770 1.363 . S
C771 C777 1.428 . S
H772 C768 0.930 . S
H773 C770 0.929 . S
S774 N775 1.613 . S
S774 N776 1.610 . S
N775 S774 1.613 . S
N775 C778 1.350 . S
N776 S774 1.610 . S
N776 C777 1.351 . S
C777 C771 1.428 . S
C777 N776 1.351 . S
C777 C778 1.434 . S
C778 C769 1.429 . S
C778 N775 1.350 . S
C778 C777 1.434 . S
C779 C780 1.369 . S
C779 C781 1.419 . S
C779 H783 0.930 . S
C780 C779 1.369 . S
C780 C789 1.429 . S
C781 C779 1.419 . S
C781 C782 1.363 . S
C781 H784 0.929 . S
C782 C781 1.363 . S
C782 C788 1.428 . S
H783 C779 0.930 . S
H784 C781 0.929 . S
S785 N786 1.613 . S
S785 N787 1.610 . S
N786 S785 1.613 . S
N786 C789 1.350 . S
N787 S785 1.610 . S
N787 C788 1.351 . S
C788 C782 1.428 . S
C788 N787 1.351 . S
C788 C789 1.434 . S
C789 C780 1.429 . S
C789 N786 1.350 . S
C789 C788 1.434 . S
C790 C791 1.369 . S
C790 C792 1.419 . S
C790 H794 0.930 . S
C791 C790 1.369 . S
C791 C800 1.429 . S
C792 C790 1.419 . S
C792 C793 1.363 . S
C792 H795 0.929 . S
C793 C792 1.363 . S
C793 C799 1.428 . S
H794 C790 0.930 . S
H795 C792 0.929 . S
S796 N797 1.613 . S
S796 N798 1.610 . S
N797 S796 1.613 . S
N797 C800 1.350 . S
N798 S796 1.610 . S
N798 C799 1.351 . S
C799 C793 1.428 . S
C799 N798 1.351 . S
C799 C800 1.434 . S
C800 C791 1.429 . S
C800 N797 1.350 . S
C800 C799 1.434 . S
C801 C802 1.369 . S
C801 C803 1.419 . S
C801 H805 0.930 . S
C802 C801 1.369 . S
C802 C811 1.429 . S
C803 C801 1.419 . S
C803 C804 1.363 . S
C803 H806 0.929 . S
C804 C803 1.363 . S
C804 C810 1.428 . S
H805 C801 0.930 . S
H806 C803 0.929 . S
S807 N808 1.613 . S
S807 N809 1.610 . S
N808 S807 1.613 . S
N808 C811 1.350 . S
N809 S807 1.610 . S
N809 C810 1.351 . S
C810 C804 1.428 . S
C810 N809 1.351 . S
C810 C811 1.434 . S
C811 C802 1.429 . S
C811 N808 1.350 . S
C811 C810 1.434 . S
C812 C813 1.369 . S
C812 C814 1.419 . S
C812 H816 0.930 . S
C813 C812 1.369 . S
C813 C822 1.429 . S
C814 C812 1.419 . S
C814 C815 1.363 . S
C814 H817 0.929 . S
C815 C814 1.363 . S
C815 C821 1.428 . S
H816 C812 0.930 . S
H817 C814 0.929 . S
S818 N819 1.613 . S
S818 N820 1.610 . S
N819 S818 1.613 . S
N819 C822 1.350 . S
N820 S818 1.610 . S
N820 C821 1.351 . S
C821 C815 1.428 . S
C821 N820 1.351 . S
C821 C822 1.434 . S
C822 C813 1.429 . S
C822 N819 1.350 . S
C822 C821 1.434 . S
C823 C824 1.369 . S
C823 C825 1.419 . S
C823 H827 0.930 . S
C824 C823 1.369 . S
C824 C833 1.429 . S
C825 C823 1.419 . S
C825 C826 1.363 . S
C825 H828 0.929 . S
C826 C825 1.363 . S
C826 C832 1.428 . S
H827 C823 0.930 . S
H828 C825 0.929 . S
S829 N830 1.613 . S
S829 N831 1.610 . S
N830 S829 1.613 . S
N830 C833 1.350 . S
N831 S829 1.610 . S
N831 C832 1.351 . S
C832 C826 1.428 . S
C832 N831 1.351 . S
C832 C833 1.434 . S
C833 C824 1.429 . S
C833 N830 1.350 . S
C833 C832 1.434 . S
C834 C835 1.369 . S
C834 C836 1.419 . S
C834 H838 0.930 . S
C835 C834 1.369 . S
C835 C844 1.429 . S
C836 C834 1.419 . S
C836 C837 1.363 . S
C836 H839 0.929 . S
C837 C836 1.363 . S
C837 C843 1.428 . S
H838 C834 0.930 . S
H839 C836 0.929 . S
S840 N841 1.613 . S
S840 N842 1.610 . S
N841 S840 1.613 . S
N841 C844 1.350 . S
N842 S840 1.610 . S
N842 C843 1.351 . S
C843 C837 1.428 . S
C843 N842 1.351 . S
C843 C844 1.434 . S
C844 C835 1.429 . S
C844 N841 1.350 . S
C844 C843 1.434 . S
C845 C846 1.369 . S
C845 C847 1.419 . S
C845 H849 0.930 . S
C846 C845 1.369 . S
C846 C855 1.429 . S
C847 C845 1.419 . S
C847 C848 1.363 . S
C847 H850 0.929 . S
C848 C847 1.363 . S
C848 C854 1.428 . S
H849 C845 0.930 . S
H850 C847 0.929 . S
S851 N852 1.613 . S
S851 N853 1.610 . S
N852 S851 1.613 . S
N852 C855 1.350 . S
N853 S851 1.610 . S
N853 C854 1.351 . S
C854 C848 1.428 . S
C854 N853 1.351 . S
C854 C855 1.434 . S
C855 C846 1.429 . S
C855 N852 1.350 . S
C855 C854 1.434 . S
C856 C857 1.369 . S
C856 C858 1.419 . S
C856 H860 0.930 . S
C857 C856 1.369 . S
C857 C866 1.429 . S
C858 C856 1.419 . S
C858 C859 1.363 . S
C858 H861 0.929 . S
C859 C858 1.363 . S
C859 C865 1.428 . S
H860 C856 0.930 . S
H861 C858 0.929 . S
S862 N863 1.613 . S
S862 N864 1.610 . S
N863 S862 1.613 . S
N863 C866 1.350 . S
N864 S862 1.610 . S
N864 C865 1.351 . S
C865 C859 1.428 . S
C865 N864 1.351 . S
C865 C866 1.434 . S
C866 C857 1.429 . S
C866 N863 1.350 . S
C866 C865 1.434 . S
C867 C868 1.369 . S
C867 C869 1.419 . S
C867 H871 0.930 . S
C868 C867 1.369 . S
C868 C877 1.429 . S
C869 C867 1.419 . S
C869 C870 1.363 . S
C869 H872 0.929 . S
C870 C869 1.363 . S
C870 C876 1.428 . S
H871 C867 0.930 . S
H872 C869 0.929 . S
S873 N874 1.613 . S
S873 N875 1.610 . S
N874 S873 1.613 . S
N874 C877 1.350 . S
N875 S873 1.610 . S
N875 C876 1.351 . S
C876 C870 1.428 . S
C876 N875 1.351 . S
C876 C877 1.434 . S
C877 C868 1.429 . S
C877 N874 1.350 . S
C877 C876 1.434 . S
C878 C879 1.369 . S
C878 C880 1.419 . S
C878 H882 0.930 . S
C879 C878 1.369 . S
C879 C888 1.429 . S
C880 C878 1.419 . S
C880 C881 1.363 . S
C880 H883 0.929 . S
C881 C880 1.363 . S
C881 C887 1.428 . S
H882 C878 0.930 . S
H883 C880 0.929 . S
S884 N885 1.613 . S
S884 N886 1.610 . S
N885 S884 1.613 . S
N885 C888 1.350 . S
N886 S884 1.610 . S
N886 C887 1.351 . S
C887 C881 1.428 . S
C887 N886 1.351 . S
C887 C888 1.434 . S
C888 C879 1.429 . S
C888 N885 1.350 . S
C888 C887 1.434 . S
C889 C890 1.369 . S
C889 C891 1.419 . S
C889 H893 0.930 . S
C890 C889 1.369 . S
C890 C899 1.429 . S
C891 C889 1.419 . S
C891 C892 1.363 . S
C891 H894 0.929 . S
C892 C891 1.363 . S
C892 C898 1.428 . S
H893 C889 0.930 . S
H894 C891 0.929 . S
S895 N896 1.613 . S
S895 N897 1.610 . S
N896 S895 1.613 . S
N896 C899 1.350 . S
N897 S895 1.610 . S
N897 C898 1.351 . S
C898 C892 1.428 . S
C898 N897 1.351 . S
C898 C899 1.434 . S
C899 C890 1.429 . S
C899 N896 1.350 . S
C899 C898 1.434 . S
C900 C901 1.369 . S
C900 C902 1.419 . S
C900 H904 0.930 . S
C901 C900 1.369 . S
C901 C910 1.429 1_554 S
C902 C900 1.419 . S
C902 C903 1.363 . S
C902 H905 0.929 . S
C903 C902 1.363 . S
C903 C909 1.428 1_554 S
H904 C900 0.930 . S
H905 C902 0.929 . S
S906 N907 1.613 . S
S906 N908 1.610 . S
N907 S906 1.613 . S
N907 C910 1.350 . S
N908 S906 1.610 . S
N908 C909 1.351 . S
C909 C903 1.428 1_556 S
C909 N908 1.351 . S
C909 C910 1.434 . S
C910 C901 1.429 1_556 S
C910 N907 1.350 . S
C910 C909 1.434 . S
C911 C912 1.369 . S
C911 C913 1.419 . S
C911 H915 0.930 . S
C912 C911 1.369 . S
C912 C921 1.429 1_554 S
C913 C911 1.419 . S
C913 C914 1.363 . S
C913 H916 0.929 . S
C914 C913 1.363 . S
C914 C920 1.428 1_554 S
H915 C911 0.930 . S
H916 C913 0.929 . S
S917 N918 1.613 . S
S917 N919 1.610 . S
N918 S917 1.613 . S
N918 C921 1.350 . S
N919 S917 1.610 . S
N919 C920 1.351 . S
C920 C914 1.428 1_556 S
C920 N919 1.351 . S
C920 C921 1.434 . S
C921 C912 1.429 1_556 S
C921 N918 1.350 . S
C921 C920 1.434 . S
C922 C923 1.369 . S
C922 C924 1.419 . S
C922 H926 0.930 . S
C923 C922 1.369 . S
C923 C932 1.429 1_554 S
C924 C922 1.419 . S
C924 C925 1.363 . S
C924 H927 0.929 . S
C925 C924 1.363 . S
C925 C931 1.428 1_554 S
H926 C922 0.930 . S
H927 C924 0.929 . S
S928 N929 1.613 . S
S928 N930 1.610 . S
N929 S928 1.613 . S
N929 C932 1.350 . S
N930 S928 1.610 . S
N930 C931 1.351 . S
C931 C925 1.428 1_556 S
C931 N930 1.351 . S
C931 C932 1.434 . S
C932 C923 1.429 1_556 S
C932 N929 1.350 . S
C932 C931 1.434 . S
C933 C934 1.369 . S
C933 C935 1.419 . S
C933 H937 0.930 . S
C934 C933 1.369 . S
C934 C943 1.429 1_554 S
C935 C933 1.419 . S
C935 C936 1.363 . S
C935 H938 0.929 . S
C936 C935 1.363 . S
C936 C942 1.428 1_554 S
H937 C933 0.930 . S
H938 C935 0.929 . S
S939 N940 1.613 . S
S939 N941 1.610 . S
N940 S939 1.613 . S
N940 C943 1.350 . S
N941 S939 1.610 . S
N941 C942 1.351 . S
C942 C936 1.428 1_556 S
C942 N941 1.351 . S
C942 C943 1.434 . S
C943 C934 1.429 1_556 S
C943 N940 1.350 . S
C943 C942 1.434 . S
C944 C945 1.369 1_655 S
C944 C946 1.419 . S
C944 H948 0.930 . S
C945 C944 1.369 1_455 S
C945 C954 1.429 . S
C946 C944 1.419 . S
C946 C947 1.363 1_655 S
C946 H949 0.929 . S
C947 C946 1.363 1_455 S
C947 C953 1.428 . S
H948 C944 0.930 . S
H949 C946 0.929 . S
S950 N951 1.613 . S
S950 N952 1.610 . S
N951 S950 1.613 . S
N951 C954 1.350 . S
N952 S950 1.610 . S
N952 C953 1.351 . S
C953 C947 1.428 . S
C953 N952 1.351 . S
C953 C954 1.434 . S
C954 C945 1.429 . S
C954 N951 1.350 . S
C954 C953 1.434 . S
C955 C956 1.369 . S
C955 C957 1.419 . S
C955 H959 0.930 . S
C956 C955 1.369 . S
C956 C965 1.429 1_545 S
C957 C955 1.419 . S
C957 C958 1.363 . S
C957 H960 0.929 . S
C958 C957 1.363 . S
C958 C964 1.428 1_545 S
H959 C955 0.930 . S
H960 C957 0.929 . S
S961 N962 1.613 . S
S961 N963 1.610 . S
N962 S961 1.613 . S
N962 C965 1.350 . S
N963 S961 1.610 . S
N963 C964 1.351 . S
C964 C958 1.428 1_565 S
C964 N963 1.351 . S
C964 C965 1.434 . S
C965 C956 1.429 1_565 S
C965 N962 1.350 . S
C965 C964 1.434 . S
C966 C967 1.369 . S
C966 C968 1.419 . S
C966 H970 0.930 . S
C967 C966 1.369 . S
C967 C976 1.429 1_455 S
C968 C966 1.419 . S
C968 C969 1.363 . S
C968 H971 0.929 . S
C969 C968 1.363 . S
C969 C975 1.428 1_455 S
H970 C966 0.930 . S
H971 C968 0.929 . S
S972 N973 1.613 . S
S972 N974 1.610 . S
N973 S972 1.613 . S
N973 C976 1.350 . S
N974 S972 1.610 . S
N974 C975 1.351 . S
C975 C969 1.428 1_655 S
C975 N974 1.351 . S
C975 C976 1.434 . S
C976 C967 1.429 1_655 S
C976 N973 1.350 . S
C976 C975 1.434 . S
C977 C978 1.369 . S
C977 C979 1.419 . S
C977 H981 0.930 . S
C978 C977 1.369 . S
C978 C987 1.429 . S
C979 C977 1.419 . S
C979 C980 1.363 . S
C979 H982 0.929 . S
C980 C979 1.363 . S
C980 C986 1.428 . S
H981 C977 0.930 . S
H982 C979 0.929 . S
S983 N984 1.613 . S
S983 N985 1.610 . S
N984 S983 1.613 . S
N984 C987 1.350 1_565 S
N985 S983 1.610 . S
N985 C986 1.351 1_565 S
C986 C980 1.428 . S
C986 N985 1.351 1_545 S
C986 C987 1.434 . S
C987 C978 1.429 . S
C987 N984 1.350 1_545 S
C987 C986 1.434 . S
C988 C989 1.369 . S
C988 C990 1.419 . S
C988 H992 0.930 . S
C989 C988 1.369 . S
C989 C998 1.429 . S
C990 C988 1.419 . S
C990 C991 1.363 . S
C990 H993 0.929 . S
C991 C990 1.363 . S
C991 C997 1.428 . S
H992 C988 0.930 . S
H993 C990 0.929 . S
S994 N995 1.613 . S
S994 N996 1.610 . S
N995 S994 1.613 . S
N995 C998 1.350 1_655 S
N996 S994 1.610 . S
N996 C997 1.351 1_655 S
C997 C991 1.428 . S
C997 N996 1.351 1_455 S
C997 C998 1.434 . S
C998 C989 1.429 . S
C998 N995 1.350 1_455 S
C998 C997 1.434 . S
C999 C1000 1.369 . S
C999 C1001 1.419 . S
C999 H1003 0.930 . S
C1000 C999 1.369 . S
C1000 C1009 1.429 . S
C1001 C999 1.419 . S
C1001 C1002 1.363 . S
C1001 H1004 0.929 . S
C1002 C1001 1.363 . S
C1002 C1008 1.428 . S
H1003 C999 0.930 . S
H1004 C1001 0.929 . S
S1005 N1006 1.613 . S
S1005 N1007 1.610 . S
N1006 S1005 1.613 . S
N1006 C1009 1.350 1_565 S
N1007 S1005 1.610 . S
N1007 C1008 1.351 1_565 S
C1008 C1002 1.428 . S
C1008 N1007 1.351 1_545 S
C1008 C1009 1.434 . S
C1009 C1000 1.429 . S
C1009 N1006 1.350 1_545 S
C1009 C1008 1.434 . S
C1010 C1011 1.369 . S
C1010 C1012 1.419 . S
C1010 H1014 0.930 . S
C1011 C1010 1.369 . S
C1011 C1020 1.429 . S
C1012 C1010 1.419 . S
C1012 C1013 1.363 . S
C1012 H1015 0.929 . S
C1013 C1012 1.363 . S
C1013 C1019 1.428 . S
H1014 C1010 0.930 . S
H1015 C1012 0.929 . S
S1016 N1017 1.613 . S
S1016 N1018 1.610 . S
N1017 S1016 1.613 . S
N1017 C1020 1.350 . S
N1018 S1016 1.610 . S
N1018 C1019 1.351 . S
C1019 C1013 1.428 . S
C1019 N1018 1.351 . S
C1019 C1020 1.434 . S
C1020 C1011 1.429 . S
C1020 N1017 1.350 . S
C1020 C1019 1.434 . S
C1021 C1022 1.369 . S
C1021 C1023 1.419 . S
C1021 H1025 0.930 . S
C1022 C1021 1.369 . S
C1022 C1031 1.429 1_545 S
C1023 C1021 1.419 . S
C1023 C1024 1.363 . S
C1023 H1026 0.929 . S
C1024 C1023 1.363 . S
C1024 C1030 1.428 1_545 S
H1025 C1021 0.930 . S
H1026 C1023 0.929 . S
S1027 N1028 1.613 . S
S1027 N1029 1.610 . S
N1028 S1027 1.613 . S
N1028 C1031 1.350 . S
N1029 S1027 1.610 . S
N1029 C1030 1.351 . S
C1030 C1024 1.428 1_565 S
C1030 N1029 1.351 . S
C1030 C1031 1.434 . S
C1031 C1022 1.429 1_565 S
C1031 N1028 1.350 . S
C1031 C1030 1.434 . S
C1032 C1033 1.369 . S
C1032 C1034 1.419 . S
C1032 H1036 0.930 . S
C1033 C1032 1.369 . S
C1033 C1042 1.429 . S
C1034 C1032 1.419 . S
C1034 C1035 1.363 . S
C1034 H1037 0.929 . S
C1035 C1034 1.363 . S
C1035 C1041 1.428 . S
H1036 C1032 0.930 . S
H1037 C1034 0.929 . S
S1038 N1039 1.613 . S
S1038 N1040 1.610 . S
N1039 S1038 1.613 . S
N1039 C1042 1.350 . S
N1040 S1038 1.610 . S
N1040 C1041 1.351 . S
C1041 C1035 1.428 . S
C1041 N1040 1.351 . S
C1041 C1042 1.434 . S
C1042 C1033 1.429 . S
C1042 N1039 1.350 . S
C1042 C1041 1.434 . S
C1043 C1044 1.369 . S
C1043 C1045 1.419 . S
C1043 H1047 0.930 . S
C1044 C1043 1.369 . S
C1044 C1053 1.429 . S
C1045 C1043 1.419 . S
C1045 C1046 1.363 . S
C1045 H1048 0.929 . S
C1046 C1045 1.363 . S
C1046 C1052 1.428 . S
H1047 C1043 0.930 . S
H1048 C1045 0.929 . S
S1049 N1050 1.613 . S
S1049 N1051 1.610 . S
N1050 S1049 1.613 . S
N1050 C1053 1.350 . S
N1051 S1049 1.610 . S
N1051 C1052 1.351 . S
C1052 C1046 1.428 . S
C1052 N1051 1.351 . S
C1052 C1053 1.434 . S
C1053 C1044 1.429 . S
C1053 N1050 1.350 . S
C1053 C1052 1.434 . S
C1054 C1055 1.369 . S
C1054 C1056 1.419 . S
C1054 H1058 0.930 . S
C1055 C1054 1.369 . S
C1055 C1064 1.429 1_455 S
C1056 C1054 1.419 . S
C1056 C1057 1.363 . S
C1056 H1059 0.929 . S
C1057 C1056 1.363 . S
C1057 C1063 1.426 1_455 S
H1058 C1054 0.930 . S
H1059 C1056 0.929 . S
S1060 N1061 1.613 . S
S1060 N1062 1.610 . S
N1061 S1060 1.613 . S
N1061 C1064 1.350 . S
N1062 S1060 1.610 . S
N1062 C1063 1.354 . S
C1063 C1057 1.426 1_655 S
C1063 N1062 1.354 . S
C1063 C1064 1.434 . S
C1064 C1055 1.429 1_655 S
C1064 N1061 1.350 . S
C1064 C1063 1.434 . S
C1065 C1066 1.369 . S
C1065 C1067 1.419 . S
C1065 H1069 0.930 . S
C1066 C1065 1.369 . S
C1066 C1075 1.429 1_545 S
C1067 C1065 1.419 . S
C1067 C1068 1.363 . S
C1067 H1070 0.929 . S
C1068 C1067 1.363 . S
C1068 C1074 1.428 1_545 S
H1069 C1065 0.930 . S
H1070 C1067 0.929 . S
S1071 N1072 1.613 . S
S1071 N1073 1.610 . S
N1072 S1071 1.613 . S
N1072 C1075 1.350 . S
N1073 S1071 1.610 . S
N1073 C1074 1.351 . S
C1074 C1068 1.428 1_565 S
C1074 N1073 1.351 . S
C1074 C1075 1.434 . S
C1075 C1066 1.429 1_565 S
C1075 N1072 1.350 . S
C1075 C1074 1.434 . S
C1076 C1077 1.369 1_655 S
C1076 C1078 1.419 . S
C1076 H1080 0.930 . S
C1077 C1076 1.369 1_455 S
C1077 C1086 1.429 . S
C1078 C1076 1.419 . S
C1078 C1079 1.363 1_655 S
C1078 H1081 0.929 . S
C1079 C1078 1.363 1_455 S
C1079 C1085 1.428 . S
H1080 C1076 0.930 . S
H1081 C1078 0.929 . S
S1082 N1083 1.613 . S
S1082 N1084 1.610 . S
N1083 S1082 1.613 . S
N1083 C1086 1.350 . S
N1084 S1082 1.610 . S
N1084 C1085 1.351 . S
C1085 C1079 1.428 . S
C1085 N1084 1.351 . S
C1085 C1086 1.434 . S
C1086 C1077 1.429 . S
C1086 N1083 1.350 . S
C1086 C1085 1.434 . S
C1087 C1088 1.369 1_565 S
C1087 C1089 1.416 1_565 S
C1087 H1091 0.930 . S
C1088 C1087 1.369 1_545 S
C1088 C1097 1.429 . S
C1089 C1087 1.416 1_545 S
C1089 C1090 1.376 . S
C1089 H1092 0.919 1_545 S
C1090 C1089 1.376 . S
C1090 C1096 1.428 . S
H1091 C1087 0.930 . S
H1092 C1089 0.919 1_565 S
S1093 N1094 1.613 . S
S1093 N1095 1.610 . S
N1094 S1093 1.613 . S
N1094 C1097 1.350 . S
N1095 S1093 1.610 . S
N1095 C1096 1.351 . S
C1096 C1090 1.428 . S
C1096 N1095 1.351 . S
C1096 C1097 1.434 . S
C1097 C1088 1.429 . S
C1097 N1094 1.350 . S
C1097 C1096 1.434 . S
C1098 C1099 1.369 . S
C1098 C1100 1.419 . S
C1098 H1102 0.930 . S
C1099 C1098 1.369 . S
C1099 C1108 1.429 1_455 S
C1100 C1098 1.419 . S
C1100 C1101 1.363 . S
C1100 H1103 0.929 . S
C1101 C1100 1.363 . S
C1101 C1107 1.428 1_455 S
H1102 C1098 0.930 . S
H1103 C1100 0.929 . S
S1104 N1105 1.613 . S
S1104 N1106 1.610 . S
N1105 S1104 1.613 . S
N1105 C1108 1.350 . S
N1106 S1104 1.610 . S
N1106 C1107 1.351 . S
C1107 C1101 1.428 1_655 S
C1107 N1106 1.351 . S
C1107 C1108 1.434 . S
C1108 C1099 1.429 1_655 S
C1108 N1105 1.350 . S
C1108 C1107 1.434 . S
C1109 C1110 1.369 . S
C1109 C1111 1.419 . S
C1109 H1113 0.930 1_545 S
C1110 C1109 1.369 . S
C1110 C1119 1.429 . S
C1111 C1109 1.419 . S
C1111 C1112 1.363 . S
C1111 H1114 0.929 1_545 S
C1112 C1111 1.363 . S
C1112 C1118 1.428 . S
H1113 C1109 0.930 1_565 S
H1114 C1111 0.929 1_565 S
S1115 N1116 1.613 . S
S1115 N1117 1.610 . S
N1116 S1115 1.613 . S
N1116 C1119 1.350 . S
N1117 S1115 1.610 . S
N1117 C1118 1.351 . S
C1118 C1112 1.428 . S
C1118 N1117 1.351 . S
C1118 C1119 1.434 . S
C1119 C1110 1.429 . S
C1119 N1116 1.350 . S
C1119 C1118 1.434 . S
C1120 C1121 1.369 . S
C1120 C1122 1.419 . S
C1120 H1124 0.930 . S
C1121 C1120 1.369 . S
C1121 C1130 1.429 1_545 S
C1122 C1120 1.419 . S
C1122 C1123 1.363 . S
C1122 H1125 0.929 . S
C1123 C1122 1.363 . S
C1123 C1129 1.428 1_545 S
H1124 C1120 0.930 . S
H1125 C1122 0.929 . S
S1126 N1127 1.613 . S
S1126 N1128 1.610 . S
N1127 S1126 1.613 . S
N1127 C1130 1.350 . S
N1128 S1126 1.610 . S
N1128 C1129 1.351 . S
C1129 C1123 1.428 1_565 S
C1129 N1128 1.351 . S
C1129 C1130 1.434 . S
C1130 C1121 1.429 1_565 S
C1130 N1127 1.350 . S
C1130 C1129 1.434 . S
C1131 C1132 1.369 . S
C1131 C1133 1.419 . S
C1131 H1135 0.930 . S
C1132 C1131 1.369 . S
C1132 C1141 1.429 . S
C1133 C1131 1.419 . S
C1133 C1134 1.363 . S
C1133 H1136 0.929 1_455 S
C1134 C1133 1.363 . S
C1134 C1140 1.428 . S
H1135 C1131 0.930 . S
H1136 C1133 0.929 1_655 S
S1137 N1138 1.613 . S
S1137 N1139 1.610 . S
N1138 S1137 1.613 . S
N1138 C1141 1.350 . S
N1139 S1137 1.610 . S
N1139 C1140 1.351 . S
C1140 C1134 1.428 . S
C1140 N1139 1.351 . S
C1140 C1141 1.434 . S
C1141 C1132 1.429 . S
C1141 N1138 1.350 . S
C1141 C1140 1.434 . S
C1142 C1143 1.369 . S
C1142 C1144 1.419 . S
C1142 H1146 0.930 . S
C1143 C1142 1.369 . S
C1143 C1152 1.429 . S
C1144 C1142 1.419 . S
C1144 C1145 1.363 . S
C1144 H1147 0.929 . S
C1145 C1144 1.363 . S
C1145 C1151 1.428 . S
H1146 C1142 0.930 . S
H1147 C1144 0.929 . S
S1148 N1149 1.613 . S
S1148 N1150 1.610 . S
N1149 S1148 1.613 . S
N1149 C1152 1.350 . S
N1150 S1148 1.610 . S
N1150 C1151 1.351 . S
C1151 C1145 1.428 . S
C1151 N1150 1.351 . S
C1151 C1152 1.434 . S
C1152 C1143 1.429 . S
C1152 N1149 1.350 . S
C1152 C1151 1.434 . S
C1153 C1154 1.369 . S
C1153 C1155 1.419 . S
C1153 H1157 0.930 . S
C1154 C1153 1.369 . S
C1154 C1163 1.429 1_455 S
C1155 C1153 1.419 . S
C1155 C1156 1.363 . S
C1155 H1158 0.929 . S
C1156 C1155 1.363 . S
C1156 C1162 1.428 1_455 S
H1157 C1153 0.930 . S
H1158 C1155 0.929 . S
S1159 N1160 1.613 . S
S1159 N1161 1.610 . S
N1160 S1159 1.613 . S
N1160 C1163 1.350 . S
N1161 S1159 1.610 . S
N1161 C1162 1.351 . S
C1162 C1156 1.428 1_655 S
C1162 N1161 1.351 . S
C1162 C1163 1.434 . S
C1163 C1154 1.429 1_655 S
C1163 N1160 1.350 . S
C1163 C1162 1.434 . S
C1164 C1165 1.369 . S
C1164 C1166 1.419 . S
C1164 H1168 0.930 . S
C1165 C1164 1.369 . S
C1165 C1174 1.425 1_545 S
C1166 C1164 1.419 . S
C1166 C1167 1.363 . S
C1166 H1169 0.929 . S
C1167 C1166 1.363 . S
C1167 C1173 1.430 . S
H1168 C1164 0.930 . S
H1169 C1166 0.929 . S
S1170 N1171 1.613 . S
S1170 N1172 1.610 . S
N1171 S1170 1.613 . S
N1171 C1174 1.354 . S
N1172 S1170 1.610 . S
N1172 C1173 1.350 1_565 S
C1173 C1167 1.430 . S
C1173 N1172 1.350 1_545 S
C1173 C1174 1.434 1_545 S
C1174 C1165 1.425 1_565 S
C1174 N1171 1.354 . S
C1174 C1173 1.434 1_565 S
C1175 C1176 1.369 . S
C1175 C1177 1.419 . S
C1175 H1179 0.930 . S
C1176 C1175 1.369 . S
C1176 C1185 1.429 1_455 S
C1177 C1175 1.419 . S
C1177 C1178 1.363 . S
C1177 H1180 0.929 . S
C1178 C1177 1.363 . S
C1178 C1184 1.452 . S
H1179 C1175 0.930 . S
H1180 C1177 0.929 . S
S1181 N1182 1.613 . S
S1181 N1183 1.610 . S
N1182 S1181 1.613 . S
N1182 C1185 1.350 . S
N1183 S1181 1.610 . S
N1183 C1184 1.328 1_655 S
C1184 C1178 1.452 . S
C1184 N1183 1.328 1_455 S
C1184 C1185 1.432 1_455 S
C1185 C1176 1.429 1_655 S
C1185 N1182 1.350 . S
C1185 C1184 1.432 1_655 S
C1186 C1187 1.369 . S
C1186 C1188 1.419 . S
C1186 H1190 0.930 . S
C1187 C1186 1.369 . S
C1187 C1196 1.429 . S
C1188 C1186 1.419 . S
C1188 C1189 1.363 . S
C1188 H1191 0.929 . S
C1189 C1188 1.363 . S
C1189 C1195 1.454 . S
H1190 C1186 0.930 . S
H1191 C1188 0.929 . S
S1192 N1193 1.613 . S
S1192 N1194 1.610 . S
N1193 S1192 1.613 . S
N1193 C1196 1.350 1_565 S
N1194 S1192 1.610 . S
N1194 C1195 1.322 1_565 S
C1195 C1189 1.454 . S
C1195 N1194 1.322 1_545 S
C1195 C1196 1.436 . S
C1196 C1187 1.429 . S
C1196 N1193 1.350 1_545 S
C1196 C1195 1.436 . S
C1197 C1198 1.369 1_655 S
C1197 C1199 1.419 . S
C1197 H1201 0.930 . S
C1198 C1197 1.369 1_455 S
C1198 C1207 1.429 . S
C1199 C1197 1.419 . S
C1199 C1200 1.363 1_655 S
C1199 H1202 0.929 . S
C1200 C1199 1.363 1_455 S
C1200 C1206 1.428 . S
H1201 C1197 0.930 . S
H1202 C1199 0.929 . S
S1203 N1204 1.613 . S
S1203 N1205 1.610 . S
N1204 S1203 1.613 . S
N1204 C1207 1.350 . S
N1205 S1203 1.610 . S
N1205 C1206 1.351 . S
C1206 C1200 1.428 . S
C1206 N1205 1.351 . S
C1206 C1207 1.434 . S
C1207 C1198 1.429 . S
C1207 N1204 1.350 . S
C1207 C1206 1.434 . S
C1208 C1209 1.369 . S
C1208 C1210 1.419 . S
C1208 H1212 0.930 . S
C1209 C1208 1.369 . S
C1209 C1218 1.429 . S
C1210 C1208 1.419 . S
C1210 C1211 1.363 . S
C1210 H1213 0.929 . S
C1211 C1210 1.363 . S
C1211 C1217 1.428 . S
H1212 C1208 0.930 . S
H1213 C1210 0.929 . S
S1214 N1215 1.613 . S
S1214 N1216 1.610 . S
N1215 S1214 1.613 . S
N1215 C1218 1.350 1_556 S
N1216 S1214 1.610 . S
N1216 C1217 1.351 1_556 S
C1217 C1211 1.428 . S
C1217 N1216 1.351 1_554 S
C1217 C1218 1.434 . S
C1218 C1209 1.429 . S
C1218 N1215 1.350 1_554 S
C1218 C1217 1.434 . S
C1219 C1220 1.369 . S
C1219 C1221 1.419 . S
C1219 H1223 0.930 . S
C1220 C1219 1.369 . S
C1220 C1229 1.429 1_554 S
C1221 C1219 1.419 . S
C1221 C1222 1.363 . S
C1221 H1224 0.929 . S
C1222 C1221 1.363 . S
C1222 C1228 1.428 1_554 S
H1223 C1219 0.930 . S
H1224 C1221 0.929 . S
S1225 N1226 1.613 . S
S1225 N1227 1.610 . S
N1226 S1225 1.613 . S
N1226 C1229 1.350 . S
N1227 S1225 1.610 . S
N1227 C1228 1.351 . S
C1228 C1222 1.428 1_556 S
C1228 N1227 1.351 . S
C1228 C1229 1.434 . S
C1229 C1220 1.429 1_556 S
C1229 N1226 1.350 . S
C1229 C1228 1.434 . S
C1230 C1231 1.369 . S
C1230 C1232 1.419 . S
C1230 H1234 0.930 1_554 S
C1231 C1230 1.369 . S
C1231 C1240 1.429 . S
C1232 C1230 1.419 . S
C1232 C1233 1.363 . S
C1232 H1235 0.929 1_554 S
C1233 C1232 1.363 . S
C1233 C1239 1.428 . S
H1234 C1230 0.930 1_556 S
H1235 C1232 0.929 1_556 S
S1236 N1237 1.613 . S
S1236 N1238 1.610 . S
N1237 S1236 1.613 . S
N1237 C1240 1.350 . S
N1238 S1236 1.610 . S
N1238 C1239 1.351 . S
C1239 C1233 1.428 . S
C1239 N1238 1.351 . S
C1239 C1240 1.434 . S
C1240 C1231 1.429 . S
C1240 N1237 1.350 . S
C1240 C1239 1.434 . S
C1241 C1242 1.369 . S
C1241 C1243 1.419 . S
C1241 H1245 0.930 . S
C1242 C1241 1.369 . S
C1242 C1251 1.429 1_554 S
C1243 C1241 1.419 . S
C1243 C1244 1.363 1_554 S
C1243 H1246 0.929 . S
C1244 C1243 1.363 1_556 S
C1244 C1250 1.428 . S
H1245 C1241 0.930 . S
H1246 C1243 0.929 . S
S1247 N1248 1.613 . S
S1247 N1249 1.610 . S
N1248 S1247 1.613 . S
N1248 C1251 1.350 . S
N1249 S1247 1.610 . S
N1249 C1250 1.351 . S
C1250 C1244 1.428 . S
C1250 N1249 1.351 . S
C1250 C1251 1.434 . S
C1251 C1242 1.429 1_556 S
C1251 N1248 1.350 . S
C1251 C1250 1.434 . S
C1252 C1253 1.369 . S
C1252 C1254 1.419 . S
C1252 H1256 0.930 . S
C1253 C1252 1.369 . S
C1253 C1262 1.429 1_554 S
C1254 C1252 1.419 . S
C1254 C1255 1.363 . S
C1254 H1257 0.929 . S
C1255 C1254 1.363 . S
C1255 C1261 1.428 1_554 S
H1256 C1252 0.930 . S
H1257 C1254 0.929 . S
S1258 N1259 1.613 . S
S1258 N1260 1.610 . S
N1259 S1258 1.613 . S
N1259 C1262 1.350 . S
N1260 S1258 1.610 . S
N1260 C1261 1.351 . S
C1261 C1255 1.428 1_556 S
C1261 N1260 1.351 . S
C1261 C1262 1.434 . S
C1262 C1253 1.429 1_556 S
C1262 N1259 1.350 . S
C1262 C1261 1.434 . S
C1263 C1264 1.369 . S
C1263 C1265 1.419 . S
C1263 H1267 0.930 . S
C1264 C1263 1.369 . S
C1264 C1273 1.429 1_554 S
C1265 C1263 1.419 . S
C1265 C1266 1.355 1_554 S
C1265 H1268 0.929 . S
C1266 C1265 1.355 1_556 S
C1266 C1272 1.436 . S
H1267 C1263 0.930 . S
H1268 C1265 0.929 . S
S1269 N1270 1.613 . S
S1269 N1271 1.610 . S
N1270 S1269 1.613 . S
N1270 C1273 1.350 . S
N1271 S1269 1.610 . S
N1271 C1272 1.351 . S
C1272 C1266 1.436 . S
C1272 N1271 1.351 . S
C1272 C1273 1.434 . S
C1273 C1264 1.429 1_556 S
C1273 N1270 1.350 . S
C1273 C1272 1.434 . S
C1274 C1275 1.369 . S
C1274 C1276 1.419 . S
C1274 H1278 0.930 . S
C1275 C1274 1.369 . S
C1275 C1284 1.429 1_554 S
C1276 C1274 1.419 . S
C1276 C1277 1.363 . S
C1276 H1279 0.929 . S
C1277 C1276 1.363 . S
C1277 C1283 1.428 1_554 S
H1278 C1274 0.930 . S
H1279 C1276 0.929 . S
S1280 N1281 1.613 . S
S1280 N1282 1.610 . S
N1281 S1280 1.613 . S
N1281 C1284 1.350 . S
N1282 S1280 1.610 . S
N1282 C1283 1.351 . S
C1283 C1277 1.428 1_556 S
C1283 N1282 1.351 . S
C1283 C1284 1.434 . S
C1284 C1275 1.429 1_556 S
C1284 N1281 1.350 . S
C1284 C1283 1.434 . S
C1285 C1286 1.369 . S
C1285 C1287 1.419 . S
C1285 H1289 0.930 . S
C1286 C1285 1.369 . S
C1286 C1295 1.429 1_554 S
C1287 C1285 1.419 . S
C1287 C1288 1.363 . S
C1287 H1290 0.929 . S
C1288 C1287 1.363 . S
C1288 C1294 1.428 1_554 S
H1289 C1285 0.930 . S
H1290 C1287 0.929 . S
S1291 N1292 1.613 . S
S1291 N1293 1.610 . S
N1292 S1291 1.613 . S
N1292 C1295 1.350 . S
N1293 S1291 1.610 . S
N1293 C1294 1.351 . S
C1294 C1288 1.428 1_556 S
C1294 N1293 1.351 . S
C1294 C1295 1.434 . S
C1295 C1286 1.429 1_556 S
C1295 N1292 1.350 . S
C1295 C1294 1.434 . S
C1296 C1297 1.369 . S
C1296 C1298 1.419 . S
C1296 H1300 0.930 . S
C1297 C1296 1.369 . S
C1297 C1306 1.429 . S
C1298 C1296 1.419 . S
C1298 C1299 1.363 . S
C1298 H1301 0.929 . S
C1299 C1298 1.363 . S
C1299 C1305 1.428 . S
H1300 C1296 0.930 . S
H1301 C1298 0.929 . S
S1302 N1303 1.613 . S
S1302 N1304 1.610 . S
N1303 S1302 1.613 . S
N1303 C1306 1.350 . S
N1304 S1302 1.610 . S
N1304 C1305 1.351 . S
C1305 C1299 1.428 . S
C1305 N1304 1.351 . S
C1305 C1306 1.434 . S
C1306 C1297 1.429 . S
C1306 N1303 1.350 . S
C1306 C1305 1.434 . S
C1307 C1308 1.369 . S
C1307 C1309 1.419 . S
C1307 H1311 0.930 . S
C1308 C1307 1.369 . S
C1308 C1317 1.429 . S
C1309 C1307 1.419 . S
C1309 C1310 1.363 . S
C1309 H1312 0.929 . S
C1310 C1309 1.363 . S
C1310 C1316 1.428 . S
H1311 C1307 0.930 . S
H1312 C1309 0.929 . S
S1313 N1314 1.613 . S
S1313 N1315 1.610 . S
N1314 S1313 1.613 . S
N1314 C1317 1.350 . S
N1315 S1313 1.610 . S
N1315 C1316 1.351 . S
C1316 C1310 1.428 . S
C1316 N1315 1.351 . S
C1316 C1317 1.434 . S
C1317 C1308 1.429 . S
C1317 N1314 1.350 . S
C1317 C1316 1.434 . S
C1318 C1319 1.369 . S
C1318 C1320 1.419 . S
C1318 H1322 0.930 . S
C1319 C1318 1.369 . S
C1319 C1328 1.429 . S
C1320 C1318 1.419 . S
C1320 C1321 1.363 . S
C1320 H1323 0.929 . S
C1321 C1320 1.363 . S
C1321 C1327 1.428 . S
H1322 C1318 0.930 . S
H1323 C1320 0.929 . S
S1324 N1325 1.613 . S
S1324 N1326 1.610 . S
N1325 S1324 1.613 . S
N1325 C1328 1.350 . S
N1326 S1324 1.610 . S
N1326 C1327 1.351 . S
C1327 C1321 1.428 . S
C1327 N1326 1.351 . S
C1327 C1328 1.434 . S
C1328 C1319 1.429 . S
C1328 N1325 1.350 . S
C1328 C1327 1.434 . S
C1329 C1330 1.369 . S
C1329 C1331 1.419 . S
C1329 H1333 0.930 . S
C1330 C1329 1.369 . S
C1330 C1339 1.429 . S
C1331 C1329 1.419 . S
C1331 C1332 1.363 . S
C1331 H1334 0.929 . S
C1332 C1331 1.363 . S
C1332 C1338 1.428 . S
H1333 C1329 0.930 . S
H1334 C1331 0.929 . S
S1335 N1336 1.613 . S
S1335 N1337 1.610 . S
N1336 S1335 1.613 . S
N1336 C1339 1.350 . S
N1337 S1335 1.610 . S
N1337 C1338 1.351 . S
C1338 C1332 1.428 . S
C1338 N1337 1.351 . S
C1338 C1339 1.434 . S
C1339 C1330 1.429 . S
C1339 N1336 1.350 . S
C1339 C1338 1.434 . S
C1340 C1341 1.369 . S
C1340 C1342 1.419 . S
C1340 H1344 0.930 . S
C1341 C1340 1.369 . S
C1341 C1350 1.429 . S
C1342 C1340 1.419 . S
C1342 C1343 1.363 . S
C1342 H1345 0.929 . S
C1343 C1342 1.363 . S
C1343 C1349 1.428 . S
H1344 C1340 0.930 . S
H1345 C1342 0.929 . S
S1346 N1347 1.613 . S
S1346 N1348 1.610 . S
N1347 S1346 1.613 . S
N1347 C1350 1.350 . S
N1348 S1346 1.610 . S
N1348 C1349 1.351 . S
C1349 C1343 1.428 . S
C1349 N1348 1.351 . S
C1349 C1350 1.434 . S
C1350 C1341 1.429 . S
C1350 N1347 1.350 . S
C1350 C1349 1.434 . S
C1351 C1352 1.369 . S
C1351 C1353 1.419 . S
C1351 H1355 0.930 . S
C1352 C1351 1.369 . S
C1352 C1361 1.429 . S
C1353 C1351 1.419 . S
C1353 C1354 1.363 . S
C1353 H1356 0.929 . S
C1354 C1353 1.363 . S
C1354 C1360 1.428 . S
H1355 C1351 0.930 . S
H1356 C1353 0.929 . S
S1357 N1358 1.613 . S
S1357 N1359 1.610 . S
N1358 S1357 1.613 . S
N1358 C1361 1.350 . S
N1359 S1357 1.610 . S
N1359 C1360 1.351 . S
C1360 C1354 1.428 . S
C1360 N1359 1.351 . S
C1360 C1361 1.434 . S
C1361 C1352 1.429 . S
C1361 N1358 1.350 . S
C1361 C1360 1.434 . S
C1362 C1363 1.369 . S
C1362 C1364 1.419 . S
C1362 H1366 0.930 . S
C1363 C1362 1.369 . S
C1363 C1372 1.429 . S
C1364 C1362 1.419 . S
C1364 C1365 1.363 . S
C1364 H1367 0.929 . S
C1365 C1364 1.363 . S
C1365 C1371 1.428 . S
H1366 C1362 0.930 . S
H1367 C1364 0.929 . S
S1368 N1369 1.613 . S
S1368 N1370 1.610 . S
N1369 S1368 1.613 . S
N1369 C1372 1.350 . S
N1370 S1368 1.610 . S
N1370 C1371 1.351 . S
C1371 C1365 1.428 . S
C1371 N1370 1.351 . S
C1371 C1372 1.434 . S
C1372 C1363 1.429 . S
C1372 N1369 1.350 . S
C1372 C1371 1.434 . S
C1373 C1374 1.369 . S
C1373 C1375 1.419 . S
C1373 H1377 0.930 . S
C1374 C1373 1.369 . S
C1374 C1383 1.429 . S
C1375 C1373 1.419 . S
C1375 C1376 1.363 . S
C1375 H1378 0.929 . S
C1376 C1375 1.363 . S
C1376 C1382 1.428 . S
H1377 C1373 0.930 . S
H1378 C1375 0.929 . S
S1379 N1380 1.613 . S
S1379 N1381 1.610 . S
N1380 S1379 1.613 . S
N1380 C1383 1.350 . S
N1381 S1379 1.610 . S
N1381 C1382 1.351 . S
C1382 C1376 1.428 . S
C1382 N1381 1.351 . S
C1382 C1383 1.434 . S
C1383 C1374 1.429 . S
C1383 N1380 1.350 . S
C1383 C1382 1.434 . S
C1384 C1385 1.369 . S
C1384 C1386 1.419 . S
C1384 H1388 0.930 . S
C1385 C1384 1.369 . S
C1385 C1394 1.429 . S
C1386 C1384 1.419 . S
C1386 C1387 1.363 . S
C1386 H1389 0.929 . S
C1387 C1386 1.363 . S
C1387 C1393 1.428 . S
H1388 C1384 0.930 . S
H1389 C1386 0.929 . S
S1390 N1391 1.613 . S
S1390 N1392 1.610 . S
N1391 S1390 1.613 . S
N1391 C1394 1.350 . S
N1392 S1390 1.610 . S
N1392 C1393 1.351 . S
C1393 C1387 1.428 . S
C1393 N1392 1.351 . S
C1393 C1394 1.434 . S
C1394 C1385 1.429 . S
C1394 N1391 1.350 . S
C1394 C1393 1.434 . S
C1395 C1396 1.369 . S
C1395 C1397 1.419 . S
C1395 H1399 0.930 . S
C1396 C1395 1.369 . S
C1396 C1405 1.429 . S
C1397 C1395 1.419 . S
C1397 C1398 1.363 . S
C1397 H1400 0.929 . S
C1398 C1397 1.363 . S
C1398 C1404 1.428 . S
H1399 C1395 0.930 . S
H1400 C1397 0.929 . S
S1401 N1402 1.613 . S
S1401 N1403 1.610 . S
N1402 S1401 1.613 . S
N1402 C1405 1.350 . S
N1403 S1401 1.610 . S
N1403 C1404 1.351 . S
C1404 C1398 1.428 . S
C1404 N1403 1.351 . S
C1404 C1405 1.434 . S
C1405 C1396 1.429 . S
C1405 N1402 1.350 . S
C1405 C1404 1.434 . S
C1406 C1407 1.369 . S
C1406 C1408 1.419 . S
C1406 H1410 0.930 . S
C1407 C1406 1.369 . S
C1407 C1416 1.429 . S
C1408 C1406 1.419 . S
C1408 C1409 1.363 . S
C1408 H1411 0.929 . S
C1409 C1408 1.363 . S
C1409 C1415 1.428 . S
H1410 C1406 0.930 . S
H1411 C1408 0.929 . S
S1412 N1413 1.613 . S
S1412 N1414 1.610 . S
N1413 S1412 1.613 . S
N1413 C1416 1.350 . S
N1414 S1412 1.610 . S
N1414 C1415 1.351 . S
C1415 C1409 1.428 . S
C1415 N1414 1.351 . S
C1415 C1416 1.434 . S
C1416 C1407 1.429 . S
C1416 N1413 1.350 . S
C1416 C1415 1.434 . S
C1417 C1418 1.369 . S
C1417 C1419 1.419 . S
C1417 H1421 0.930 . S
C1418 C1417 1.369 . S
C1418 C1427 1.429 . S
C1419 C1417 1.419 . S
C1419 C1420 1.363 . S
C1419 H1422 0.929 . S
C1420 C1419 1.363 . S
C1420 C1426 1.428 . S
H1421 C1417 0.930 . S
H1422 C1419 0.929 . S
S1423 N1424 1.613 . S
S1423 N1425 1.610 . S
N1424 S1423 1.613 . S
N1424 C1427 1.350 . S
N1425 S1423 1.610 . S
N1425 C1426 1.351 . S
C1426 C1420 1.428 . S
C1426 N1425 1.351 . S
C1426 C1427 1.434 . S
C1427 C1418 1.429 . S
C1427 N1424 1.350 . S
C1427 C1426 1.434 . S
C1428 C1429 1.369 . S
C1428 C1430 1.419 . S
C1428 H1432 0.930 . S
C1429 C1428 1.369 . S
C1429 C1438 1.429 . S
C1430 C1428 1.419 . S
C1430 C1431 1.363 . S
C1430 H1433 0.929 . S
C1431 C1430 1.363 . S
C1431 C1437 1.428 . S
H1432 C1428 0.930 . S
H1433 C1430 0.929 . S
S1434 N1435 1.613 . S
S1434 N1436 1.610 . S
N1435 S1434 1.613 . S
N1435 C1438 1.350 . S
N1436 S1434 1.610 . S
N1436 C1437 1.351 . S
C1437 C1431 1.428 . S
C1437 N1436 1.351 . S
C1437 C1438 1.434 . S
C1438 C1429 1.429 . S
C1438 N1435 1.350 . S
C1438 C1437 1.434 . S
C1439 C1440 1.369 . S
C1439 C1441 1.419 . S
C1439 H1443 0.930 . S
C1440 C1439 1.369 . S
C1440 C1449 1.429 . S
C1441 C1439 1.419 . S
C1441 C1442 1.363 . S
C1441 H1444 0.929 . S
C1442 C1441 1.363 . S
C1442 C1448 1.428 . S
H1443 C1439 0.930 . S
H1444 C1441 0.929 . S
S1445 N1446 1.613 . S
S1445 N1447 1.610 . S
N1446 S1445 1.613 . S
N1446 C1449 1.350 . S
N1447 S1445 1.610 . S
N1447 C1448 1.351 . S
C1448 C1442 1.428 . S
C1448 N1447 1.351 . S
C1448 C1449 1.434 . S
C1449 C1440 1.429 . S
C1449 N1446 1.350 . S
C1449 C1448 1.434 . S
C1450 C1451 1.369 . S
C1450 C1452 1.419 . S
C1450 H1454 0.930 . S
C1451 C1450 1.369 . S
C1451 C1460 1.429 . S
C1452 C1450 1.419 . S
C1452 C1453 1.363 . S
C1452 H1455 0.929 . S
C1453 C1452 1.363 . S
C1453 C1459 1.428 . S
H1454 C1450 0.930 . S
H1455 C1452 0.929 . S
S1456 N1457 1.613 . S
S1456 N1458 1.610 . S
N1457 S1456 1.613 . S
N1457 C1460 1.350 . S
N1458 S1456 1.610 . S
N1458 C1459 1.351 . S
C1459 C1453 1.428 . S
C1459 N1458 1.351 . S
C1459 C1460 1.434 . S
C1460 C1451 1.429 . S
C1460 N1457 1.350 . S
C1460 C1459 1.434 . S
C1461 C1462 1.369 . S
C1461 C1463 1.419 . S
C1461 H1465 0.930 . S
C1462 C1461 1.369 . S
C1462 C1471 1.429 . S
C1463 C1461 1.419 . S
C1463 C1464 1.363 . S
C1463 H1466 0.929 . S
C1464 C1463 1.363 . S
C1464 C1470 1.428 . S
H1465 C1461 0.930 . S
H1466 C1463 0.929 . S
S1467 N1468 1.613 . S
S1467 N1469 1.610 . S
N1468 S1467 1.613 . S
N1468 C1471 1.350 . S
N1469 S1467 1.610 . S
N1469 C1470 1.351 . S
C1470 C1464 1.428 . S
C1470 N1469 1.351 . S
C1470 C1471 1.434 . S
C1471 C1462 1.429 . S
C1471 N1468 1.350 . S
C1471 C1470 1.434 . S
C1472 C1473 1.369 . S
C1472 C1474 1.419 . S
C1472 H1476 0.930 . S
C1473 C1472 1.369 . S
C1473 C1482 1.429 . S
C1474 C1472 1.419 . S
C1474 C1475 1.363 . S
C1474 H1477 0.929 . S
C1475 C1474 1.363 . S
C1475 C1481 1.428 . S
H1476 C1472 0.930 . S
H1477 C1474 0.929 . S
S1478 N1479 1.613 . S
S1478 N1480 1.610 . S
N1479 S1478 1.613 . S
N1479 C1482 1.350 . S
N1480 S1478 1.610 . S
N1480 C1481 1.351 . S
C1481 C1475 1.428 . S
C1481 N1480 1.351 . S
C1481 C1482 1.434 . S
C1482 C1473 1.429 . S
C1482 N1479 1.350 . S
C1482 C1481 1.434 . S
C1483 C1484 1.369 . S
C1483 C1485 1.419 . S
C1483 H1487 0.930 . S
C1484 C1483 1.369 . S
C1484 C1493 1.429 . S
C1485 C1483 1.419 . S
C1485 C1486 1.363 . S
C1485 H1488 0.929 . S
C1486 C1485 1.363 . S
C1486 C1492 1.428 . S
H1487 C1483 0.930 . S
H1488 C1485 0.929 . S
S1489 N1490 1.613 . S
S1489 N1491 1.610 . S
N1490 S1489 1.613 . S
N1490 C1493 1.350 . S
N1491 S1489 1.610 . S
N1491 C1492 1.351 . S
C1492 C1486 1.428 . S
C1492 N1491 1.351 . S
C1492 C1493 1.434 . S
C1493 C1484 1.429 . S
C1493 N1490 1.350 . S
C1493 C1492 1.434 . S
C1494 C1495 1.369 . S
C1494 C1496 1.419 . S
C1494 H1498 0.930 . S
C1495 C1494 1.369 . S
C1495 C1504 1.429 . S
C1496 C1494 1.419 . S
C1496 C1497 1.363 . S
C1496 H1499 0.929 . S
C1497 C1496 1.363 . S
C1497 C1503 1.428 . S
H1498 C1494 0.930 . S
H1499 C1496 0.929 . S
S1500 N1501 1.613 . S
S1500 N1502 1.610 . S
N1501 S1500 1.613 . S
N1501 C1504 1.350 . S
N1502 S1500 1.610 . S
N1502 C1503 1.351 . S
C1503 C1497 1.428 . S
C1503 N1502 1.351 . S
C1503 C1504 1.434 . S
C1504 C1495 1.429 . S
C1504 N1501 1.350 . S
C1504 C1503 1.434 . S
C1505 C1506 1.369 . S
C1505 C1507 1.419 . S
C1505 H1509 0.930 . S
C1506 C1505 1.369 . S
C1506 C1515 1.429 . S
C1507 C1505 1.419 . S
C1507 C1508 1.363 . S
C1507 H1510 0.929 . S
C1508 C1507 1.363 . S
C1508 C1514 1.428 . S
H1509 C1505 0.930 . S
H1510 C1507 0.929 . S
S1511 N1512 1.613 . S
S1511 N1513 1.610 . S
N1512 S1511 1.613 . S
N1512 C1515 1.350 . S
N1513 S1511 1.610 . S
N1513 C1514 1.351 . S
C1514 C1508 1.428 . S
C1514 N1513 1.351 . S
C1514 C1515 1.434 . S
C1515 C1506 1.429 . S
C1515 N1512 1.350 . S
C1515 C1514 1.434 . S
C1516 C1517 1.369 . S
C1516 C1518 1.419 . S
C1516 H1520 0.930 . S
C1517 C1516 1.369 . S
C1517 C1526 1.429 . S
C1518 C1516 1.419 . S
C1518 C1519 1.363 . S
C1518 H1521 0.929 . S
C1519 C1518 1.363 . S
C1519 C1525 1.428 . S
H1520 C1516 0.930 . S
H1521 C1518 0.929 . S
S1522 N1523 1.613 . S
S1522 N1524 1.610 . S
N1523 S1522 1.613 . S
N1523 C1526 1.350 . S
N1524 S1522 1.610 . S
N1524 C1525 1.351 . S
C1525 C1519 1.428 . S
C1525 N1524 1.351 . S
C1525 C1526 1.434 . S
C1526 C1517 1.429 . S
C1526 N1523 1.350 . S
C1526 C1525 1.434 . S
C1527 C1528 1.369 . S
C1527 C1529 1.419 . S
C1527 H1531 0.930 . S
C1528 C1527 1.369 . S
C1528 C1537 1.429 . S
C1529 C1527 1.419 . S
C1529 C1530 1.363 . S
C1529 H1532 0.929 . S
C1530 C1529 1.363 . S
C1530 C1536 1.428 . S
H1531 C1527 0.930 . S
H1532 C1529 0.929 . S
S1533 N1534 1.613 . S
S1533 N1535 1.610 . S
N1534 S1533 1.613 . S
N1534 C1537 1.350 . S
N1535 S1533 1.610 . S
N1535 C1536 1.351 . S
C1536 C1530 1.428 . S
C1536 N1535 1.351 . S
C1536 C1537 1.434 . S
C1537 C1528 1.429 . S
C1537 N1534 1.350 . S
C1537 C1536 1.434 . S
C1538 C1539 1.369 . S
C1538 C1540 1.419 . S
C1538 H1542 0.930 . S
C1539 C1538 1.369 . S
C1539 C1548 1.429 . S
C1540 C1538 1.419 . S
C1540 C1541 1.363 . S
C1540 H1543 0.929 . S
C1541 C1540 1.363 . S
C1541 C1547 1.428 . S
H1542 C1538 0.930 . S
H1543 C1540 0.929 . S
S1544 N1545 1.613 . S
S1544 N1546 1.610 . S
N1545 S1544 1.613 . S
N1545 C1548 1.350 . S
N1546 S1544 1.610 . S
N1546 C1547 1.351 . S
C1547 C1541 1.428 . S
C1547 N1546 1.351 . S
C1547 C1548 1.434 . S
C1548 C1539 1.429 . S
C1548 N1545 1.350 . S
C1548 C1547 1.434 . S
C1549 C1550 1.369 . S
C1549 C1551 1.419 . S
C1549 H1553 0.930 . S
C1550 C1549 1.369 . S
C1550 C1559 1.429 . S
C1551 C1549 1.419 . S
C1551 C1552 1.363 . S
C1551 H1554 0.929 . S
C1552 C1551 1.363 . S
C1552 C1558 1.428 . S
H1553 C1549 0.930 . S
H1554 C1551 0.929 . S
S1555 N1556 1.613 . S
S1555 N1557 1.610 . S
N1556 S1555 1.613 . S
N1556 C1559 1.350 . S
N1557 S1555 1.610 . S
N1557 C1558 1.351 . S
C1558 C1552 1.428 . S
C1558 N1557 1.351 . S
C1558 C1559 1.434 . S
C1559 C1550 1.429 . S
C1559 N1556 1.350 . S
C1559 C1558 1.434 . S
C771 C498 1.619 . S
C769 C439 1.721 . S
C780 C401 1.876 . S
C782 C492 1.809 . S
C793 C460 1.892 . S
C791 C382 1.986 . S
C802 C420 1.904 . S
C804 C474 1.731 . S
C815 C512 2.021 . S
C813 C306 2.208 . S
C826 C599 1.713 . S
C824 C325 1.732 . S
C835 C344 2.137 . S
C837 C526 2.060 . S
C848 C594 1.573 . S
C846 C363 1.586 . S
C857 C230 2.309 . S
C859 C550 2.155 . S
C870 C605 1.737 . S
C868 C249 1.770 . S
C879 C268 2.213 . S
C881 C544 2.156 . S
C890 C287 1.475 . S
C892 C590 1.408 . S
C903 C646 1.445 . S
C901 C211 1.517 . S
C912 C173 1.912 . S
C914 C657 1.851 . S
C923 C154 1.662 . S
C925 C642 1.646 . S
C936 C651 1.778 . S
C934 C192 1.790 . S
C945 C78 1.796 . S
C947 C696 1.749 . S
C956 C97 1.214 . S
C958 C755 1.212 . S
C967 C116 1.910 . S
C969 C712 1.746 . S
C978 C135 1.559 . S
C980 C750 1.535 . S
C991 C714 1.926 . S
C989 C2 2.022 . S
C1002 C761 1.100 . S
C1000 C21 1.107 . S
C1011 C40 1.910 . S
C1013 C690 1.756 . S
C1024 C746 1.367 . S
C1022 C59 1.463 . S
C1035 C482 1.604 . S
C1033 C6 1.655 . S
C1044 C30 1.314 . S
C1046 C486 1.253 . S
C1055 C49 1.552 . S
C1057 C506 1.394 . S
C1066 C68 0.970 1_545 S
C1068 C501 0.983 . S
C1077 C82 1.685 . S
C1079 C504 1.619 . S
C1090 C490 1.195 . S
C1088 C106 1.238 . S
C1099 C125 1.460 . S
C1101 C488 1.352 . S
C1112 C495 1.379 . S
C1110 C139 1.429 . S
C1123 C558 1.520 . S
C1121 C63 1.590 . S
C1132 C11 1.619 . S
C1134 C608 1.604 . S
C1145 C556 1.296 . S
C1143 C25 1.355 . S
C1156 C592 1.734 . S
C1154 C44 1.875 . S
C1165 C101 1.434 . S
C1167 C534 1.384 . S
C1178 C610 1.630 . S
C1176 C120 1.743 . S
C1189 C540 1.338 . S
C1187 C144 1.466 . S
C1200 C586 1.485 . S
C1198 C87 1.527 1_455 S
C1211 C578 1.467 . S
C1209 C163 1.471 . S
C1220 C182 1.369 . S
C1222 C602 1.381 . S
C1233 C538 1.420 . S
C1231 C158 1.422 . S
C1244 C564 1.498 1_556 S
C1242 C196 1.561 . S
C1253 C220 1.184 1_554 S
C1255 C542 1.126 . S
C1264 C215 1.624 . S
C1266 C596 1.571 1_556 S
C1277 C553 1.597 . S
C1275 C177 1.596 . S
C1288 C547 1.396 . S
C1286 C201 1.342 . S
C1299 C630 1.818 . S
C1297 C234 1.924 . S
C1310 C662 1.495 . S
C1308 C258 1.503 . S
C1319 C277 1.680 . S
C1321 C616 1.673 . S
C1332 C660 1.152 . S
C1330 C296 1.139 . S
C1343 C648 1.785 . S
C1341 C310 1.858 . S
C1352 C334 1.385 . S
C1354 C644 1.408 . S
C1363 C353 1.637 . S
C1365 C654 1.688 . S
C1376 C638 1.471 . S
C1374 C367 1.575 . S
C1387 C703 1.438 . S
C1385 C291 1.449 . S
C1396 C239 1.515 . S
C1398 C764 1.526 . S
C1409 C698 1.208 . S
C1407 C253 1.187 . S
C1420 C748 1.623 . S
C1418 C272 1.664 . S
C1431 C694 1.273 . S
C1429 C329 1.278 . S
C1440 C348 1.498 . S
C1442 C766 1.479 . S
C1453 C709 1.272 . S
C1451 C372 1.367 . S
C1464 C742 1.371 . S
C1462 C315 1.387 . S
C1475 C734 1.576 . S
C1473 C391 1.581 . S
C1484 C410 1.655 . S
C1486 C758 1.587 . S
C1497 C700 1.644 . S
C1495 C386 1.693 . S
C1506 C424 2.026 . S
C1508 C720 1.840 . S
C1519 C682 1.343 . S
C1517 C448 1.465 . S
C1530 C752 1.699 . S
C1528 C443 1.807 . S
C1541 C668 1.653 . S
C1539 C405 1.716 . S
C1550 C429 1.435 . S
C1552 C706 1.323 . S
