# Generated by pormake.
# Topology rtl, (3,6)-cn, num edge types: 1
# Building blocks:
#     Node 0, Type 0, BuildingBlock: BETDAH_clean_linker_0, # of connection points: 3
#     Node 1, Type 0, BuildingBlock: BETDAH_clean_linker_0, # of connection points: 3
#     Node 2, Type 0, BuildingBlock: BETDAH_clean_linker_0, # of connection points: 3
#     Node 3, Type 0, BuildingBlock: BETDAH_clean_linker_0, # of connection points: 3
#     Node 4, Type 1, BuildingBlock: KUMBOL_clean_sbu_1, # of connection points: 6
#     Node 5, Type 1, BuildingBlock: KUMBOL_clean_sbu_1, # of connection points: 6
#     Edge 6, Type (0, 1), BuildingBlock: CIFDUS_clean_linker_0, # of connection points: 2
#     Edge 7, Type (0, 1), BuildingBlock: CIFDUS_clean_linker_0, # of connection points: 2
#     Edge 8, Type (0, 1), BuildingBlock: CIFDUS_clean_linker_0, # of connection points: 2
#     Edge 9, Type (0, 1), BuildingBlock: CIFDUS_clean_linker_0, # of connection points: 2
#     Edge 10, Type (0, 1), BuildingBlock: CIFDUS_clean_linker_0, # of connection points: 2
#     Edge 11, Type (0, 1), BuildingBlock: CIFDUS_clean_linker_0, # of connection points: 2
#     Edge 12, Type (0, 1), BuildingBlock: CIFDUS_clean_linker_0, # of connection points: 2
#     Edge 13, Type (0, 1), BuildingBlock: CIFDUS_clean_linker_0, # of connection points: 2
#     Edge 14, Type (0, 1), BuildingBlock: CIFDUS_clean_linker_0, # of connection points: 2
#     Edge 15, Type (0, 1), BuildingBlock: CIFDUS_clean_linker_0, # of connection points: 2
#     Edge 16, Type (0, 1), BuildingBlock: CIFDUS_clean_linker_0, # of connection points: 2
#     Edge 17, Type (0, 1), BuildingBlock: CIFDUS_clean_linker_0, # of connection points: 2
# Relax obj value: 0.050
# Max RMSD: 0.227
# Mean RMSD: 0.161
data_MOF--net-rtl--node1-KUMBOL_clean_sbu_1--node2-BETDAH_clean_linker_0--edge1-CIFDUS_clean_linker_0
_symmetry_space_group_name_H-M    P1
_symmetry_Int_Tables_number       1
_symmetry_cell_setting            triclinic
loop_
_symmetry_equiv_pos_as_xyz
'x, y, z'
_cell_length_a     31.206653
_cell_length_b     31.316876
_cell_length_c     24.175399
_cell_angle_alpha  77.067486
_cell_angle_beta   100.55596
_cell_angle_gamma 91.224015
loop_
_atom_site_label
_atom_site_type_symbol
_atom_site_fract_x
_atom_site_fract_y
_atom_site_fract_z
_atom_type_partial_charge
H0 H 0.12751 0.88049 0.01084 0.0
H1 H 0.20062 0.76308 0.10719 0.0
H2 H 0.16656 0.78633 0.92347 0.0
C3 C 0.1447 0.85042 0.01239 0.0
C4 C 0.14553 0.83711 0.96062 0.0
C5 C 0.16448 0.82394 0.06616 0.0
C6 C 0.18661 0.7849 0.06668 0.0
C7 C 0.18771 0.77179 0.01523 0.0
C8 C 0.16677 0.79758 0.96282 0.0
N9 N 0.20359 0.7296 0.01615 0.0
C10 C 0.24744 0.71727 0.03141 0.0
H11 H 0.62589 0.65243 0.65817 0.0
H12 H 0.72666 0.72763 0.58403 0.0
H13 H 0.7322 0.69923 0.76774 0.0
C14 C 0.65526 0.67135 0.66347 0.0
C15 C 0.6761 0.67402 0.71908 0.0
C16 C 0.67304 0.69062 0.61462 0.0
C17 C 0.71244 0.71327 0.62145 0.0
C18 C 0.7337 0.71638 0.67703 0.0
C19 C 0.7155 0.69657 0.72524 0.0
N20 N 0.77429 0.73733 0.68705 0.0
C21 C 0.79166 0.76851 0.64683 0.0
H22 H 0.89073 0.1366 0.12996 0.0
H23 H 0.79144 0.21871 0.15716 0.0
H24 H 0.79856 0.20648 0.98517 0.0
C25 C 0.86301 0.15892 0.11256 0.0
C26 C 0.84731 0.1692 0.05289 0.0
C27 C 0.84304 0.17632 0.15045 0.0
C28 C 0.80714 0.20541 0.12809 0.0
C29 C 0.79162 0.21686 0.06805 0.0
C30 C 0.81153 0.19835 0.03109 0.0
N31 N 0.75544 0.24585 0.04281 0.0
C32 C 0.73675 0.27346 0.06997 0.0
H33 H 0.39624 0.38708 0.44266 0.0
H34 H 0.29394 0.31188 0.51347 0.0
H35 H 0.28873 0.34543 0.3298 0.0
C36 C 0.36645 0.36887 0.43657 0.0
C37 C 0.34541 0.36796 0.38043 0.0
C38 C 0.34813 0.349 0.48477 0.0
C39 C 0.3085 0.32691 0.4766 0.0
C40 C 0.28724 0.32546 0.42044 0.0
C41 C 0.30555 0.34644 0.37288 0.0
N42 N 0.24642 0.30518 0.40944 0.0
C43 C 0.23005 0.27177 0.44789 0.0
C44 C 0.9556 0.15342 0.49235 0.0
C45 C 0.87843 0.14823 0.45534 0.0
C46 C 0.91751 0.12995 0.49121 0.0
C47 C 0.87886 0.18964 0.41813 0.0
C48 C 0.95567 0.19599 0.45733 0.0
C49 C 0.91747 0.2134 0.41895 0.0
N50 N 0.99166 0.13592 0.5308 0.0
C51 C 0.02679 0.16149 0.54156 0.0
C52 C 0.99357 0.22047 0.46379 0.0
C53 C 0.02895 0.2035 0.50708 0.0
Gd54 Gd 0.04243 0.97218 0.51901 0.0
Gd55 Gd 0.98607 0.06335 0.58289 0.0
N56 N 0.91846 0.08951 0.52647 0.0
C57 C 0.84009 0.12443 0.45836 0.0
C58 C 0.8809 0.06707 0.53188 0.0
C59 C 0.84126 0.0839 0.49737 0.0
H60 H 0.88184 0.03583 0.56215 0.0
H61 H 0.81167 0.06562 0.5008 0.0
H62 H 0.13839 0.02223 0.50201 0.0
H63 H 0.05286 0.1499 0.57749 0.0
H64 H 0.21444 0.01658 0.553 0.0
H65 H 0.8094 0.1373 0.43145 0.0
H66 H 0.84936 0.20392 0.38942 0.0
H67 H 0.99626 0.8792 0.57181 0.0
H68 H 0.99502 0.25327 0.43767 0.0
H69 H 0.05753 0.22307 0.5147 0.0
H70 H 0.21981 0.88522 0.70133 0.0
H71 H 0.91706 0.24581 0.39116 0.0
H72 H 0.09002 0.80057 0.70557 0.0
H73 H 0.01537 0.81143 0.64759 0.0
N74 N 0.05894 0.90629 0.5879 0.0
C75 C 0.10056 0.90015 0.61735 0.0
C76 C 0.02873 0.87462 0.59714 0.0
C77 C 0.08178 0.83018 0.67229 0.0
C78 C 0.03957 0.83623 0.63976 0.0
C79 C 0.113 0.8622 0.66103 0.0
H80 H 0.16612 0.82874 0.72598 0.0
N81 N 0.11735 0.96793 0.56049 0.0
C82 C 0.13051 0.93227 0.60382 0.0
C83 C 0.20429 0.95838 0.61575 0.0
C84 C 0.17415 0.92686 0.63319 0.0
C85 C 0.14742 0.9968 0.54045 0.0
C86 C 0.191 0.99306 0.56847 0.0
O87 O 0.95615 0.04748 0.49734 0.0
O88 O 0.01434 0.0347 0.458 0.0
O89 O 0.07874 0.95717 0.45732 0.0
O90 O 0.01448 0.93103 0.45984 0.0
O91 O 0.96001 0.99438 0.59878 0.0
O92 O 0.97084 0.96092 0.52505 0.0
O93 O 0.03835 0.96214 0.61371 0.0
O94 O 0.04969 0.03016 0.63247 0.0
O95 O 0.9576 0.04362 0.65988 0.0
O96 O 0.97805 0.1102 0.6347 0.0
O97 O 0.06375 0.0426 0.49775 0.0
O98 O 0.05752 0.07328 0.5746 0.0
C99 C 0.97604 0.05296 0.45322 0.0
C100 C 0.94976 0.96532 0.56646 0.0
C101 C 0.06468 0.89291 0.42326 0.0
C102 C 0.09088 0.8574 0.35479 0.0
C103 C 0.09609 0.81944 0.45549 0.0
C104 C 0.07719 0.85562 0.46739 0.0
C105 C 0.10317 0.82033 0.39977 0.0
C106 C 0.0712 0.89352 0.36693 0.0
C107 C 0.0488 0.93307 0.43574 0.0
C108 C 0.18653 0.8897 0.67793 0.0
C109 C 0.15601 0.85745 0.69184 0.0
H110 H 0.23814 0.95541 0.63712 0.0
C111 C 0.05488 0.98742 0.6485 0.0
C112 C 0.07517 0.07162 0.52948 0.0
C113 C 0.98011 0.08126 0.73384 0.0
C114 C 0.97133 0.09816 0.82484 0.0
C115 C 0.03626 0.05902 0.81894 0.0
C116 C 0.02057 0.06111 0.76047 0.0
C117 C 0.01171 0.07719 0.85116 0.0
C118 C 0.95578 0.10018 0.7659 0.0
C119 C 0.96224 0.08165 0.67321 0.0
H120 H 0.10577 0.79074 0.48975 0.0
H121 H 0.07307 0.85474 0.51107 0.0
H122 H 0.11801 0.79189 0.39172 0.0
H123 H 0.06231 0.92268 0.333 0.0
H124 H 0.06745 0.04318 0.83936 0.0
H125 H 0.0397 0.04688 0.736 0.0
H126 H 0.02447 0.07533 0.89645 0.0
H127 H 0.92436 0.11561 0.74531 0.0
C128 C 0.64815 0.57927 0.06917 0.0
C129 C 0.63682 0.6513 1.00469 0.0
C130 C 0.62053 0.61448 0.03933 0.0
C131 C 0.68116 0.65231 1.0006 0.0
C132 C 0.69264 0.58013 0.06497 0.0
C133 C 0.70898 0.61684 0.03062 0.0
N134 N 0.63126 0.54374 0.10105 0.0
C135 C 0.65725 0.50864 0.1313 0.0
C136 C 0.71933 0.54386 0.09501 0.0
C137 C 0.70157 0.50804 0.12845 0.0
Gd138 Gd 0.46807 0.48691 1.00302 0.0
Gd139 Gd 0.55642 0.54759 0.1015 0.0
N140 N 0.5773 0.61172 0.04201 0.0
C141 C 0.6079 0.68576 0.97453 0.0
C142 C 0.5493 0.64587 0.0144 0.0
C143 C 0.56404 0.68315 0.97979 0.0
H144 H 0.51564 0.6447 0.019 0.0
H145 H 0.54158 0.70992 0.9573 0.0
H146 H 0.52278 0.39064 0.06934 0.0
H147 H 0.64391 0.4812 0.15815 0.0
H148 H 0.51073 0.3226 0.1372 0.0
H149 H 0.61912 0.71457 0.94735 0.0
H150 H 0.69421 0.68024 0.97396 0.0
H151 H 0.37437 0.54387 0.97069 0.0
H152 H 0.75368 0.54324 0.09279 0.0
H153 H 0.72202 0.48001 0.15218 0.0
H154 H 0.36283 0.33588 0.16099 0.0
H155 H 0.74305 0.61801 0.02673 0.0
H156 H 0.28197 0.46713 0.05934 0.0
H157 H 0.30052 0.53542 0.99482 0.0
N158 N 0.3973 0.48175 0.02229 0.0
C159 C 0.38765 0.4435 0.05677 0.0
C160 C 0.36664 0.51433 0.99954 0.0
C161 C 0.31437 0.47072 0.04893 0.0
C162 C 0.32476 0.50942 0.01269 0.0
C163 C 0.34591 0.43716 0.07145 0.0
H164 H 0.30546 0.39275 0.121 0.0
N165 N 0.46086 0.41912 0.06635 0.0
C166 C 0.42036 0.41146 0.07974 0.0
C167 C 0.44488 0.34041 0.13922 0.0
C168 C 0.41158 0.37218 0.11734 0.0
C169 C 0.49245 0.38701 0.08467 0.0
C170 C 0.48527 0.34764 0.12216 0.0
O171 O 0.56735 0.54948 0.01095 0.0
O172 O 0.49988 0.54543 0.9541 0.0
O173 O 0.47116 0.43914 0.95149 0.0
O174 O 0.42183 0.49057 0.92274 0.0
O175 O 0.48663 0.57507 0.07631 0.0
O176 O 0.45752 0.55975 0.98763 0.0
O177 O 0.45631 0.49457 0.09028 0.0
O178 O 0.52474 0.48726 0.14516 0.0
O179 O 0.54261 0.59386 0.15064 0.0
O180 O 0.59767 0.54882 0.18409 0.0
O181 O 0.53904 0.4665 0.0186 0.0
O182 O 0.5662 0.47499 0.11059 0.0
C183 C 0.54117 0.55634 0.96053 0.0
C184 C 0.45771 0.58217 0.0277 0.0
C185 C 0.45028 0.46522 0.85181 0.0
C186 C 0.43779 0.44828 0.75659 0.0
C187 C 0.49655 0.49632 0.78316 0.0
C188 C 0.48546 0.49133 0.83754 0.0
C189 C 0.47304 0.47481 0.74293 0.0
C190 C 0.42629 0.44398 0.81117 0.0
C191 C 0.44011 0.45794 0.91007 0.0
C192 C 0.37 0.36575 0.1319 0.0
C193 C 0.33726 0.3981 0.10898 0.0
H194 H 0.43945 0.30984 0.16825 0.0
C195 C 0.48249 0.48241 0.14031 0.0
C196 C 0.56914 0.45889 0.06566 0.0
C197 C 0.56327 0.57224 0.25145 0.0
C198 C 0.57663 0.58832 0.34714 0.0
C199 C 0.51622 0.54234 0.31952 0.0
C200 C 0.5274 0.54706 0.26517 0.0
C201 C 0.54049 0.56302 0.36025 0.0
C202 C 0.58801 0.59247 0.2926 0.0
C203 C 0.57427 0.57931 0.19372 0.0
H204 H 0.52369 0.51658 0.77237 0.0
H205 H 0.50472 0.50727 0.8687 0.0
H206 H 0.48223 0.47911 0.70097 0.0
H207 H 0.39954 0.42324 0.82255 0.0
H208 H 0.48851 0.52287 0.32996 0.0
H209 H 0.50783 0.53159 0.23368 0.0
H210 H 0.53127 0.55895 0.40217 0.0
H211 H 0.61544 0.61233 0.28164 0.0
H212 H 0.18847 0.21343 0.39558 0.0
H213 H 0.21934 0.24858 0.56031 0.0
H214 H 0.1753 0.18774 0.60218 0.0
H215 H 0.1262 0.12539 0.59002 0.0
H216 H 0.09479 0.09403 0.42224 0.0
H217 H 0.14137 0.15169 0.38392 0.0
C218 C 0.18575 0.20744 0.4408 0.0
C219 C 0.20693 0.23488 0.4751 0.0
C220 C 0.16019 0.17307 0.46392 0.0
C221 C 0.20325 0.22741 0.53341 0.0
C222 C 0.17805 0.19277 0.55715 0.0
C223 C 0.12922 0.13155 0.54498 0.0
C224 C 0.1059 0.10594 0.50887 0.0
C225 C 0.15596 0.16556 0.52258 0.0
C226 C 0.11154 0.11347 0.45105 0.0
C227 C 0.13829 0.14654 0.42887 0.0
H228 H 0.2891 0.70369 0.94993 0.0
H229 H 0.30147 0.68765 0.13373 0.0
H230 H 0.37081 0.64711 0.14916 0.0
H231 H 0.42451 0.61107 0.11001 0.0
H232 H 0.40988 0.62562 0.9257 0.0
H233 H 0.34513 0.6721 0.91061 0.0
C234 C 0.30752 0.69191 0.99323 0.0
C235 C 0.29082 0.69863 0.04069 0.0
C236 C 0.34671 0.6681 1.00156 0.0
C237 C 0.31424 0.68297 0.09669 0.0
C238 C 0.35367 0.65968 0.10542 0.0
C239 C 0.40757 0.62506 0.06654 0.0
C240 C 0.42184 0.61463 0.01905 0.0
C241 C 0.36981 0.65131 0.05818 0.0
C242 C 0.39936 0.6328 0.963 0.0
C243 C 0.36229 0.65938 0.95431 0.0
H244 H 0.80795 0.84484 0.67542 0.0
H245 H 0.83082 0.76946 0.55475 0.0
H246 H 0.88012 0.82583 0.51527 0.0
H247 H 0.92052 0.89447 0.52042 0.0
H248 H 0.89873 0.96655 0.6462 0.0
H249 H 0.84504 0.91416 0.6775 0.0
C250 C 0.8232 0.84127 0.63975 0.0
C251 C 0.81574 0.80364 0.61745 0.0
C252 C 0.85202 0.87314 0.61849 0.0
C253 C 0.83595 0.79865 0.57197 0.0
C254 C 0.86426 0.83071 0.54975 0.0
C255 C 0.90396 0.89881 0.55452 0.0
C256 C 0.91445 0.93439 0.5812 0.0
C257 C 0.87323 0.86779 0.57347 0.0
C258 C 0.892 0.93953 0.62492 0.0
C259 C 0.86109 0.90948 0.64309 0.0
H260 H 0.71495 0.35246 1.00492 0.0
H261 H 0.7028 0.26717 0.16741 0.0
H262 H 0.65278 0.32049 0.18468 0.0
H263 H 0.60681 0.38857 0.14788 0.0
H264 H 0.61645 0.47004 0.98159 0.0
H265 H 0.67356 0.42177 0.97157 0.0
C266 C 0.70188 0.34606 0.04456 0.0
C267 C 0.71233 0.30645 0.08503 0.0
C268 C 0.67256 0.3762 0.05319 0.0
C269 C 0.69513 0.29784 0.13597 0.0
C270 C 0.66648 0.32819 0.14562 0.0
C271 C 0.62218 0.39595 0.11016 0.0
C272 C 0.6076 0.43253 0.06539 0.0
C273 C 0.65414 0.36711 0.10385 0.0
C274 C 0.62713 0.44179 0.01628 0.0
C275 C 0.65969 0.41422 0.01052 0.0
H276 H 0.0921 0.85698 0.09317 0.0
H277 H 0.22512 0.81397 0.16586 0.0
H278 H 0.2143 0.82117 0.26075 0.0
H279 H 0.16603 0.83573 0.32461 0.0
H280 H 0.03392 0.88112 0.25215 0.0
H281 H 0.04567 0.87778 0.15573 0.0
C282 C 0.11906 0.85005 0.12941 0.0
C283 C 0.15928 0.83439 0.1221 0.0
C284 C 0.11269 0.85445 0.18418 0.0
C285 C 0.19356 0.82522 0.17011 0.0
C286 C 0.18745 0.82945 0.22452 0.0
C287 C 0.13984 0.84495 0.28764 0.0
C288 C 0.099 0.85821 0.29566 0.0
C289 C 0.14693 0.84317 0.23233 0.0
C290 C 0.06565 0.87084 0.24718 0.0
C291 C 0.07233 0.86878 0.19206 0.0
H292 H 0.59027 0.66797 0.72963 0.0
H293 H 0.71993 0.62902 0.8242 0.0
H294 H 0.68945 0.58947 0.90658 0.0
H295 H 0.62626 0.5635 0.95036 0.0
H296 H 0.49641 0.60107 0.85603 0.0
H297 H 0.52678 0.64192 0.77379 0.0
C298 C 0.61194 0.65054 0.76802 0.0
C299 C 0.65745 0.65158 0.77038 0.0
C300 C 0.59417 0.62703 0.81493 0.0
C301 C 0.68489 0.62947 0.82118 0.0
C302 C 0.66747 0.60641 0.8682 0.0
C303 C 0.60453 0.58097 0.91206 0.0
C304 C 0.55911 0.57957 0.9096 0.0
C305 C 0.6222 0.60471 0.86536 0.0
C306 C 0.53147 0.60155 0.85907 0.0
C307 C 0.54884 0.62511 0.81216 0.0
H308 H 0.92613 0.17663 0.20647 0.0
H309 H 0.79644 0.14083 0.2344 0.0
H310 H 0.82611 0.10037 0.33285 0.0
H311 H 0.89001 0.06754 0.40587 0.0
H312 H 0.01927 0.10382 0.37626 0.0
H313 H 0.98894 0.15061 0.28281 0.0
C314 C 0.90436 0.16059 0.23459 0.0
C315 C 0.8593 0.16127 0.2133 0.0
C316 C 0.92169 0.13655 0.29014 0.0
C317 C 0.83126 0.14086 0.25008 0.0
C318 C 0.84826 0.11728 0.30601 0.0
C319 C 0.91135 0.08639 0.37931 0.0
C320 C 0.95677 0.08229 0.39783 0.0
C321 C 0.89355 0.11365 0.32571 0.0
C322 C 0.98423 0.10614 0.36267 0.0
C323 C 0.9669 0.13315 0.30942 0.0
H324 H 0.31092 0.37864 0.56274 0.0
H325 H 0.43349 0.3345 0.53473 0.0
H326 H 0.47191 0.35877 0.61943 0.0
H327 H 0.47151 0.39949 0.69494 0.0
H328 H 0.34951 0.4451 0.72264 0.0
H329 H 0.30986 0.41286 0.64518 0.0
C330 C 0.34587 0.37332 0.5762 0.0
C331 C 0.36944 0.35511 0.54245 0.0
C332 C 0.36787 0.38818 0.62435 0.0
C333 C 0.41478 0.34877 0.5599 0.0
C334 C 0.43676 0.36279 0.60812 0.0
C335 C 0.43622 0.40215 0.68413 0.0
C336 C 0.41346 0.42513 0.71375 0.0
C337 C 0.4138 0.38381 0.63948 0.0
C338 C 0.3677 0.42759 0.70029 0.0
C339 C 0.34507 0.40931 0.65591 0.0
H340 H 0.70813 0.65728 0.53783 0.0
H341 H 0.58789 0.70693 0.56556 0.0
H342 H 0.54748 0.68147 0.4829 0.0
H343 H 0.54538 0.63871 0.40898 0.0
H344 H 0.66507 0.58792 0.38126 0.0
H345 H 0.70675 0.62039 0.4572 0.0
C346 C 0.67327 0.6635 0.52468 0.0
C347 C 0.65091 0.68375 0.5577 0.0
C348 C 0.6501 0.64792 0.47775 0.0
C349 C 0.60567 0.69121 0.54078 0.0
C350 C 0.58255 0.67646 0.49379 0.0
C351 C 0.5806 0.6349 0.41955 0.0
C352 C 0.60211 0.61052 0.39025 0.0
C353 C 0.60423 0.65358 0.46313 0.0
C354 C 0.64782 0.60652 0.40339 0.0
C355 C 0.67163 0.62499 0.44685 0.0
H356 H 0.86491 0.20761 0.94624 0.0
H357 H 0.87672 0.08461 0.07224 0.0
H358 H 0.91636 0.05225 0.01337 0.0
H359 H 0.94931 0.05902 0.9272 0.0
H360 H 0.93488 0.18032 0.79861 0.0
H361 H 0.89396 0.21293 0.85674 0.0
C362 C 0.87558 0.17356 0.96045 0.0
C363 C 0.86835 0.1489 0.01415 0.0
C364 C 0.89796 0.15481 0.92591 0.0
C365 C 0.88273 0.10481 0.03188 0.0
C366 C 0.9052 0.0861 0.99806 0.0
C367 C 0.93723 0.09262 0.91207 0.0
C368 C 0.94533 0.1174 0.85908 0.0
C369 C 0.91346 0.11092 0.94538 0.0
C370 C 0.92892 0.16064 0.83932 0.0
C371 C 0.90566 0.17929 0.87258 0.0
H372 H 0.43035 0.36793 0.36759 0.0
H373 H 0.303 0.42053 0.28004 0.0
H374 H 0.33444 0.46142 0.19899 0.0
H375 H 0.39827 0.48386 0.15434 0.0
H376 H 0.52537 0.42974 0.24019 0.0
H377 H 0.49411 0.38922 0.32171 0.0
C378 C 0.4095 0.38848 0.33086 0.0
C379 C 0.36437 0.39117 0.32997 0.0
C380 C 0.42782 0.41207 0.28451 0.0
C381 C 0.33773 0.41745 0.28162 0.0
C382 C 0.35574 0.44115 0.23547 0.0
C383 C 0.41906 0.46274 0.19053 0.0
C384 C 0.46397 0.45936 0.1908 0.0
C385 C 0.40073 0.43885 0.2366 0.0
C386 C 0.49067 0.4329 0.23883 0.0
C387 C 0.47279 0.40953 0.28532 0.0
H388 H 0.15695 0.92188 0.90558 0.0
H389 H 0.08162 0.80708 0.88824 0.0
H390 H 0.04655 0.84368 0.79075 0.0
H391 H 0.03844 0.90728 0.70971 0.0
H392 H 0.11579 0.02142 0.72306 0.0
H393 H 0.14848 0.98661 0.82285 0.0
C394 C 0.13239 0.90531 0.88058 0.0
C395 C 0.12167 0.86196 0.90403 0.0
C396 C 0.11289 0.92635 0.82384 0.0
C397 C 0.0903 0.84047 0.87101 0.0
C398 C 0.07033 0.86131 0.81528 0.0
C399 C 0.06271 0.92446 0.73425 0.0
C400 C 0.07472 0.96684 0.70898 0.0
C401 C 0.0817 0.90401 0.79104 0.0
C402 C 0.10581 0.98883 0.74169 0.0
C403 C 0.12456 0.96889 0.79869 0.0
loop_
_geom_bond_atom_site_label_1
_geom_bond_atom_site_label_2
_geom_bond_distance
_geom_bond_site_symmetry_2
_ccdc_geom_bond_type
H0 C3 0.929 . S
H1 C6 0.929 . S
H2 C8 0.930 . S
C3 H0 0.929 . S
C3 C4 1.398 1_554 S
C3 C5 1.396 . S
C4 C3 1.398 1_556 S
C4 C8 1.407 . S
C5 C3 1.396 . S
C5 C6 1.394 . S
C6 H1 0.929 . S
C6 C5 1.394 . S
C6 C7 1.382 . S
C7 C6 1.382 . S
C7 C8 1.392 1_554 S
C7 N9 1.420 . S
C8 H2 0.930 . S
C8 C4 1.407 . S
C8 C7 1.392 1_556 S
N9 C7 1.420 . S
N9 C10 1.244 . S
C10 N9 1.244 . S
H11 C14 0.929 . S
H12 C17 0.929 . S
H13 C19 0.930 . S
C14 H11 0.929 . S
C14 C15 1.398 . S
C14 C16 1.396 . S
C15 C14 1.398 . S
C15 C19 1.407 . S
C16 C14 1.396 . S
C16 C17 1.394 . S
C17 H12 0.929 . S
C17 C16 1.394 . S
C17 C18 1.382 . S
C18 C17 1.382 . S
C18 C19 1.392 . S
C18 N20 1.420 . S
C19 H13 0.930 . S
C19 C15 1.407 . S
C19 C18 1.392 . S
N20 C18 1.420 . S
N20 C21 1.244 . S
C21 N20 1.244 . S
H22 C25 0.929 . S
H23 C28 0.929 . S
H24 C30 0.930 1_556 S
C25 H22 0.929 . S
C25 C26 1.398 . S
C25 C27 1.396 . S
C26 C25 1.398 . S
C26 C30 1.407 . S
C27 C25 1.396 . S
C27 C28 1.394 . S
C28 H23 0.929 . S
C28 C27 1.394 . S
C28 C29 1.382 . S
C29 C28 1.382 . S
C29 C30 1.392 . S
C29 N31 1.420 . S
C30 H24 0.930 1_554 S
C30 C26 1.407 . S
C30 C29 1.392 . S
N31 C29 1.420 . S
N31 C32 1.244 . S
C32 N31 1.244 . S
H33 C36 0.929 . S
H34 C39 0.929 . S
H35 C41 0.930 . S
C36 H33 0.929 . S
C36 C37 1.398 . S
C36 C38 1.396 . S
C37 C36 1.398 . S
C37 C41 1.407 . S
C38 C36 1.396 . S
C38 C39 1.394 . S
C39 H34 0.929 . S
C39 C38 1.394 . S
C39 C40 1.382 . S
C40 C39 1.382 . S
C40 C41 1.392 . S
C40 N42 1.420 . S
C41 H35 0.930 . S
C41 C37 1.407 . S
C41 C40 1.392 . S
N42 C40 1.420 . S
N42 C43 1.244 . S
C43 N42 1.244 . S
C44 C46 1.422 . S
C44 C48 1.415 . S
C44 N50 1.369 . S
C45 C46 1.421 . S
C45 C47 1.417 . S
C45 C57 1.422 . S
C46 C44 1.422 . S
C46 C45 1.421 . S
C46 N56 1.359 . S
C47 C45 1.417 . S
C47 C49 1.329 . S
C47 H66 0.930 . S
C48 C44 1.415 . S
C48 C49 1.437 . S
C48 C52 1.413 . S
C49 C47 1.329 . S
C49 C48 1.437 . S
C49 H71 0.929 . S
N50 C44 1.369 . S
N50 C51 1.338 1_655 S
N50 Gd55 2.622 . S
C51 N50 1.338 1_455 S
C51 C53 1.378 . S
C51 H63 0.929 . S
C52 C48 1.413 . S
C52 C53 1.348 1_655 S
C52 H68 0.931 . S
C53 C51 1.378 . S
C53 C52 1.348 1_455 S
C53 H69 0.930 . S
Gd54 N74 2.622 . S
Gd54 N81 2.570 . S
Gd54 O88 2.353 1_465 S
Gd54 O89 2.468 . S
Gd54 O90 2.427 . S
Gd54 O92 2.388 1_455 S
Gd54 O93 2.386 . S
Gd54 O97 2.307 1_565 S
Gd54 C107 2.805 . S
Gd55 N50 2.622 . S
Gd55 N56 2.570 . S
Gd55 O87 2.386 . S
Gd55 O91 2.307 1_545 S
Gd55 O94 2.353 1_655 S
Gd55 O95 2.468 . S
Gd55 O96 2.427 . S
Gd55 O98 2.388 1_655 S
Gd55 C119 2.805 . S
N56 C46 1.359 . S
N56 Gd55 2.570 . S
N56 C58 1.343 . S
C57 C45 1.422 . S
C57 C59 1.321 . S
C57 H65 0.931 . S
C58 N56 1.343 . S
C58 C59 1.390 . S
C58 H60 0.931 . S
C59 C57 1.321 . S
C59 C58 1.390 . S
C59 H61 0.930 . S
H60 C58 0.931 . S
H61 C59 0.930 . S
H62 C85 0.931 . S
H63 C51 0.929 . S
H64 C86 0.930 . S
H65 C57 0.931 . S
H66 C47 0.930 . S
H67 C76 0.929 1_655 S
H68 C52 0.931 . S
H69 C53 0.930 . S
H70 C108 0.930 . S
H71 C49 0.929 . S
H72 C77 0.931 . S
H73 C78 0.930 1_655 S
N74 Gd54 2.622 . S
N74 C75 1.369 . S
N74 C76 1.338 . S
C75 N74 1.369 . S
C75 C79 1.415 . S
C75 C82 1.422 . S
C76 H67 0.929 1_455 S
C76 N74 1.338 . S
C76 C78 1.378 . S
C77 H72 0.931 . S
C77 C78 1.348 . S
C77 C79 1.413 . S
C78 H73 0.930 1_455 S
C78 C76 1.378 . S
C78 C77 1.348 . S
C79 C75 1.415 . S
C79 C77 1.413 . S
C79 C109 1.437 . S
H80 C109 0.929 . S
N81 Gd54 2.570 . S
N81 C82 1.359 . S
N81 C85 1.343 . S
C82 C75 1.422 . S
C82 N81 1.359 . S
C82 C84 1.421 . S
C83 C84 1.422 . S
C83 C86 1.321 . S
C83 H110 0.931 . S
C84 C82 1.421 . S
C84 C83 1.422 . S
C84 C108 1.417 . S
C85 H62 0.931 . S
C85 N81 1.343 . S
C85 C86 1.390 . S
C86 H64 0.930 . S
C86 C83 1.321 . S
C86 C85 1.390 . S
O87 Gd55 2.386 . S
O87 C99 1.265 . S
O88 Gd54 2.353 1_645 S
O88 C99 1.242 . S
O89 Gd54 2.468 . S
O89 C107 1.263 . S
O90 Gd54 2.427 . S
O90 C107 1.252 . S
O91 Gd55 2.307 1_565 S
O91 C100 1.261 . S
O92 Gd54 2.388 1_655 S
O92 C100 1.252 . S
O93 Gd54 2.386 . S
O93 C111 1.265 . S
O94 Gd55 2.353 1_455 S
O94 C111 1.242 1_545 S
O95 Gd55 2.468 . S
O95 C119 1.263 . S
O96 Gd55 2.427 . S
O96 C119 1.252 . S
O97 Gd54 2.307 1_545 S
O97 C112 1.261 . S
O98 Gd55 2.388 1_455 S
O98 C112 1.252 . S
C99 O87 1.265 . S
C99 O88 1.242 . S
C100 O91 1.261 . S
C100 O92 1.252 . S
C101 C104 1.394 . S
C101 C106 1.370 . S
C101 C107 1.500 . S
C102 C105 1.383 . S
C102 C106 1.395 . S
C103 C104 1.396 . S
C103 C105 1.365 . S
C103 H120 0.929 . S
C104 C101 1.394 . S
C104 C103 1.396 . S
C104 H121 0.930 . S
C105 C102 1.383 . S
C105 C103 1.365 . S
C105 H122 0.931 . S
C106 C101 1.370 . S
C106 C102 1.395 . S
C106 H123 0.930 . S
C107 Gd54 2.805 . S
C107 O89 1.263 . S
C107 O90 1.252 . S
C107 C101 1.500 . S
C108 H70 0.930 . S
C108 C84 1.417 . S
C108 C109 1.329 . S
C109 C79 1.437 . S
C109 H80 0.929 . S
C109 C108 1.329 . S
H110 C83 0.931 . S
C111 O93 1.265 . S
C111 O94 1.242 1_565 S
C112 O97 1.261 . S
C112 O98 1.252 . S
C113 C116 1.394 . S
C113 C118 1.370 . S
C113 C119 1.500 . S
C114 C117 1.383 . S
C114 C118 1.395 . S
C115 C116 1.396 . S
C115 C117 1.365 . S
C115 H124 0.929 . S
C116 C113 1.394 . S
C116 C115 1.396 . S
C116 H125 0.930 . S
C117 C114 1.383 . S
C117 C115 1.365 . S
C117 H126 0.931 . S
C118 C113 1.370 . S
C118 C114 1.395 . S
C118 H127 0.930 . S
C119 Gd55 2.805 . S
C119 O95 1.263 . S
C119 O96 1.252 . S
C119 C113 1.500 . S
H120 C103 0.929 . S
H121 C104 0.930 . S
H122 C105 0.931 . S
H123 C106 0.930 . S
H124 C115 0.929 . S
H125 C116 0.930 . S
H126 C117 0.931 . S
H127 C118 0.930 . S
C128 C130 1.422 . S
C128 C132 1.415 . S
C128 N134 1.369 . S
C129 C130 1.421 . S
C129 C131 1.417 . S
C129 C141 1.422 . S
C130 C128 1.422 . S
C130 C129 1.421 . S
C130 N140 1.359 . S
C131 C129 1.417 . S
C131 C133 1.329 . S
C131 H150 0.930 . S
C132 C128 1.415 . S
C132 C133 1.437 . S
C132 C136 1.413 . S
C133 C131 1.329 . S
C133 C132 1.437 . S
C133 H155 0.929 . S
N134 C128 1.369 . S
N134 C135 1.338 . S
N134 Gd139 2.622 . S
C135 N134 1.338 . S
C135 C137 1.378 . S
C135 H147 0.929 . S
C136 C132 1.413 . S
C136 C137 1.348 . S
C136 H152 0.931 . S
C137 C135 1.378 . S
C137 C136 1.348 . S
C137 H153 0.930 . S
Gd138 N158 2.622 . S
Gd138 N165 2.570 . S
Gd138 O172 2.353 1_554 S
Gd138 O173 2.468 1_554 S
Gd138 O174 2.427 1_554 S
Gd138 O176 2.388 . S
Gd138 O177 2.386 . S
Gd138 O181 2.307 . S
Gd138 C191 2.805 1_554 S
Gd139 N134 2.622 . S
Gd139 N140 2.570 . S
Gd139 O171 2.386 . S
Gd139 O175 2.307 . S
Gd139 O178 2.353 . S
Gd139 O179 2.468 . S
Gd139 O180 2.427 . S
Gd139 O182 2.388 . S
Gd139 C203 2.805 . S
N140 C130 1.359 . S
N140 Gd139 2.570 . S
N140 C142 1.343 . S
C141 C129 1.422 . S
C141 C143 1.321 . S
C141 H149 0.931 . S
C142 N140 1.343 . S
C142 C143 1.390 . S
C142 H144 0.931 . S
C143 C141 1.321 . S
C143 C142 1.390 . S
C143 H145 0.930 . S
H144 C142 0.931 . S
H145 C143 0.930 . S
H146 C169 0.931 . S
H147 C135 0.929 . S
H148 C170 0.930 . S
H149 C141 0.931 . S
H150 C131 0.930 . S
H151 C160 0.929 . S
H152 C136 0.931 . S
H153 C137 0.930 . S
H154 C192 0.930 . S
H155 C133 0.929 . S
H156 C161 0.931 . S
H157 C162 0.930 . S
N158 Gd138 2.622 . S
N158 C159 1.369 . S
N158 C160 1.338 1_554 S
C159 N158 1.369 . S
C159 C163 1.415 . S
C159 C166 1.422 . S
C160 H151 0.929 . S
C160 N158 1.338 1_556 S
C160 C162 1.378 . S
C161 H156 0.931 . S
C161 C162 1.348 1_554 S
C161 C163 1.413 . S
C162 H157 0.930 . S
C162 C160 1.378 . S
C162 C161 1.348 1_556 S
C163 C159 1.415 . S
C163 C161 1.413 . S
C163 C193 1.437 . S
H164 C193 0.929 . S
N165 Gd138 2.570 . S
N165 C166 1.359 . S
N165 C169 1.343 . S
C166 C159 1.422 . S
C166 N165 1.359 . S
C166 C168 1.421 . S
C167 C168 1.422 . S
C167 C170 1.321 . S
C167 H194 0.931 . S
C168 C166 1.421 . S
C168 C167 1.422 . S
C168 C192 1.417 . S
C169 H146 0.931 . S
C169 N165 1.343 . S
C169 C170 1.390 . S
C170 H148 0.930 . S
C170 C167 1.321 . S
C170 C169 1.390 . S
O171 Gd139 2.386 . S
O171 C183 1.265 1_554 S
O172 Gd138 2.353 1_556 S
O172 C183 1.242 . S
O173 Gd138 2.468 1_556 S
O173 C191 1.263 . S
O174 Gd138 2.427 1_556 S
O174 C191 1.252 . S
O175 Gd139 2.307 . S
O175 C184 1.261 . S
O176 Gd138 2.388 . S
O176 C184 1.252 . S
O177 Gd138 2.386 . S
O177 C195 1.265 . S
O178 Gd139 2.353 . S
O178 C195 1.242 . S
O179 Gd139 2.468 . S
O179 C203 1.263 . S
O180 Gd139 2.427 . S
O180 C203 1.252 . S
O181 Gd138 2.307 . S
O181 C196 1.261 . S
O182 Gd139 2.388 . S
O182 C196 1.252 . S
C183 O171 1.265 1_556 S
C183 O172 1.242 . S
C184 O175 1.261 . S
C184 O176 1.252 . S
C185 C188 1.394 . S
C185 C190 1.370 . S
C185 C191 1.500 . S
C186 C189 1.383 . S
C186 C190 1.395 . S
C187 C188 1.396 . S
C187 C189 1.365 . S
C187 H204 0.929 . S
C188 C185 1.394 . S
C188 C187 1.396 . S
C188 H205 0.930 . S
C189 C186 1.383 . S
C189 C187 1.365 . S
C189 H206 0.931 . S
C190 C185 1.370 . S
C190 C186 1.395 . S
C190 H207 0.930 . S
C191 Gd138 2.805 1_556 S
C191 O173 1.263 . S
C191 O174 1.252 . S
C191 C185 1.500 . S
C192 H154 0.930 . S
C192 C168 1.417 . S
C192 C193 1.329 . S
C193 C163 1.437 . S
C193 H164 0.929 . S
C193 C192 1.329 . S
H194 C167 0.931 . S
C195 O177 1.265 . S
C195 O178 1.242 . S
C196 O181 1.261 . S
C196 O182 1.252 . S
C197 C200 1.394 . S
C197 C202 1.370 . S
C197 C203 1.500 . S
C198 C201 1.383 . S
C198 C202 1.395 . S
C199 C200 1.396 . S
C199 C201 1.365 . S
C199 H208 0.929 . S
C200 C197 1.394 . S
C200 C199 1.396 . S
C200 H209 0.930 . S
C201 C198 1.383 . S
C201 C199 1.365 . S
C201 H210 0.931 . S
C202 C197 1.370 . S
C202 C198 1.395 . S
C202 H211 0.930 . S
C203 Gd139 2.805 . S
C203 O179 1.263 . S
C203 O180 1.252 . S
C203 C197 1.500 . S
H204 C187 0.929 . S
H205 C188 0.930 . S
H206 C189 0.931 . S
H207 C190 0.930 . S
H208 C199 0.929 . S
H209 C200 0.930 . S
H210 C201 0.931 . S
H211 C202 0.930 . S
H212 C218 0.930 . S
H213 C221 0.930 . S
H214 C222 0.930 . S
H215 C223 0.930 . S
H216 C226 0.930 . S
H217 C227 0.930 . S
C218 H212 0.930 . S
C218 C219 1.355 . S
C218 C220 1.415 . S
C219 C218 1.355 . S
C219 C221 1.419 . S
C220 C218 1.415 . S
C220 C225 1.425 . S
C220 C227 1.409 . S
C221 H213 0.930 . S
C221 C219 1.419 . S
C221 C222 1.362 . S
C222 H214 0.930 . S
C222 C221 1.362 . S
C222 C225 1.409 . S
C223 H215 0.930 . S
C223 C224 1.355 . S
C223 C225 1.415 . S
C224 C223 1.355 . S
C224 C226 1.419 . S
C225 C220 1.425 . S
C225 C222 1.409 . S
C225 C223 1.415 . S
C226 H216 0.930 . S
C226 C224 1.419 . S
C226 C227 1.362 . S
C227 H217 0.930 . S
C227 C220 1.409 . S
C227 C226 1.362 . S
H228 C234 0.930 1_556 S
H229 C237 0.930 . S
H230 C238 0.930 . S
H231 C239 0.930 . S
H232 C242 0.930 1_556 S
H233 C243 0.930 . S
C234 H228 0.930 1_554 S
C234 C235 1.355 . S
C234 C236 1.415 . S
C235 C234 1.355 . S
C235 C237 1.419 . S
C236 C234 1.415 . S
C236 C241 1.425 . S
C236 C243 1.409 1_554 S
C237 H229 0.930 . S
C237 C235 1.419 . S
C237 C238 1.362 . S
C238 H230 0.930 . S
C238 C237 1.362 . S
C238 C241 1.409 . S
C239 H231 0.930 . S
C239 C240 1.355 . S
C239 C241 1.415 . S
C240 C239 1.355 . S
C240 C242 1.419 . S
C241 C236 1.425 . S
C241 C238 1.409 . S
C241 C239 1.415 . S
C242 H232 0.930 1_554 S
C242 C240 1.419 . S
C242 C243 1.362 1_554 S
C243 H233 0.930 . S
C243 C236 1.409 1_556 S
C243 C242 1.362 1_556 S
H244 C250 0.930 . S
H245 C253 0.930 . S
H246 C254 0.930 . S
H247 C255 0.930 . S
H248 C258 0.930 . S
H249 C259 0.930 . S
C250 H244 0.930 . S
C250 C251 1.355 . S
C250 C252 1.415 . S
C251 C250 1.355 . S
C251 C253 1.419 . S
C252 C250 1.415 . S
C252 C257 1.425 . S
C252 C259 1.409 . S
C253 H245 0.930 . S
C253 C251 1.419 . S
C253 C254 1.362 . S
C254 H246 0.930 . S
C254 C253 1.362 . S
C254 C257 1.409 . S
C255 H247 0.930 . S
C255 C256 1.355 . S
C255 C257 1.415 . S
C256 C255 1.355 . S
C256 C258 1.419 . S
C257 C252 1.425 . S
C257 C254 1.409 . S
C257 C255 1.415 . S
C258 H248 0.930 . S
C258 C256 1.419 . S
C258 C259 1.362 . S
C259 H249 0.930 . S
C259 C252 1.409 . S
C259 C258 1.362 . S
H260 C266 0.930 . S
H261 C269 0.930 . S
H262 C270 0.930 . S
H263 C271 0.930 . S
H264 C274 0.930 1_556 S
H265 C275 0.930 1_556 S
C266 H260 0.930 . S
C266 C267 1.355 . S
C266 C268 1.415 . S
C267 C266 1.355 . S
C267 C269 1.419 . S
C268 C266 1.415 . S
C268 C273 1.425 . S
C268 C275 1.409 . S
C269 H261 0.930 . S
C269 C267 1.419 . S
C269 C270 1.362 . S
C270 H262 0.930 . S
C270 C269 1.362 . S
C270 C273 1.409 . S
C271 H263 0.930 . S
C271 C272 1.355 . S
C271 C273 1.415 . S
C272 C271 1.355 . S
C272 C274 1.419 . S
C273 C268 1.425 . S
C273 C270 1.409 . S
C273 C271 1.415 . S
C274 H264 0.930 1_554 S
C274 C272 1.419 . S
C274 C275 1.362 . S
C275 H265 0.930 1_554 S
C275 C268 1.409 . S
C275 C274 1.362 . S
H276 C282 0.930 . S
H277 C285 0.930 . S
H278 C286 0.930 . S
H279 C287 0.930 . S
H280 C290 0.930 . S
H281 C291 0.930 . S
C282 H276 0.930 . S
C282 C283 1.355 . S
C282 C284 1.415 . S
C283 C282 1.355 . S
C283 C285 1.419 . S
C284 C282 1.415 . S
C284 C289 1.425 . S
C284 C291 1.409 . S
C285 H277 0.930 . S
C285 C283 1.419 . S
C285 C286 1.362 . S
C286 H278 0.930 . S
C286 C285 1.362 . S
C286 C289 1.409 . S
C287 H279 0.930 . S
C287 C288 1.355 . S
C287 C289 1.415 . S
C288 C287 1.355 . S
C288 C290 1.419 . S
C289 C284 1.425 . S
C289 C286 1.409 . S
C289 C287 1.415 . S
C290 H280 0.930 . S
C290 C288 1.419 . S
C290 C291 1.362 . S
C291 H281 0.930 . S
C291 C284 1.409 . S
C291 C290 1.362 . S
H292 C298 0.930 . S
H293 C301 0.930 . S
H294 C302 0.930 . S
H295 C303 0.930 . S
H296 C306 0.930 . S
H297 C307 0.930 . S
C298 H292 0.930 . S
C298 C299 1.355 . S
C298 C300 1.415 . S
C299 C298 1.355 . S
C299 C301 1.419 . S
C300 C298 1.415 . S
C300 C305 1.425 . S
C300 C307 1.409 . S
C301 H293 0.930 . S
C301 C299 1.419 . S
C301 C302 1.362 . S
C302 H294 0.930 . S
C302 C301 1.362 . S
C302 C305 1.409 . S
C303 H295 0.930 . S
C303 C304 1.355 . S
C303 C305 1.415 . S
C304 C303 1.355 . S
C304 C306 1.419 . S
C305 C300 1.425 . S
C305 C302 1.409 . S
C305 C303 1.415 . S
C306 H296 0.930 . S
C306 C304 1.419 . S
C306 C307 1.362 . S
C307 H297 0.930 . S
C307 C300 1.409 . S
C307 C306 1.362 . S
H308 C314 0.930 . S
H309 C317 0.930 . S
H310 C318 0.930 . S
H311 C319 0.930 . S
H312 C322 0.930 . S
H313 C323 0.930 . S
C314 H308 0.930 . S
C314 C315 1.355 . S
C314 C316 1.415 . S
C315 C314 1.355 . S
C315 C317 1.419 . S
C316 C314 1.415 . S
C316 C321 1.425 . S
C316 C323 1.409 . S
C317 H309 0.930 . S
C317 C315 1.419 . S
C317 C318 1.362 . S
C318 H310 0.930 . S
C318 C317 1.362 . S
C318 C321 1.409 . S
C319 H311 0.930 . S
C319 C320 1.355 . S
C319 C321 1.415 . S
C320 C319 1.355 . S
C320 C322 1.419 . S
C321 C316 1.425 . S
C321 C318 1.409 . S
C321 C319 1.415 . S
C322 H312 0.930 . S
C322 C320 1.419 . S
C322 C323 1.362 . S
C323 H313 0.930 . S
C323 C316 1.409 . S
C323 C322 1.362 . S
H324 C330 0.930 . S
H325 C333 0.930 . S
H326 C334 0.930 . S
H327 C335 0.930 . S
H328 C338 0.930 . S
H329 C339 0.930 . S
C330 H324 0.930 . S
C330 C331 1.355 . S
C330 C332 1.415 . S
C331 C330 1.355 . S
C331 C333 1.419 . S
C332 C330 1.415 . S
C332 C337 1.425 . S
C332 C339 1.409 . S
C333 H325 0.930 . S
C333 C331 1.419 . S
C333 C334 1.362 . S
C334 H326 0.930 . S
C334 C333 1.362 . S
C334 C337 1.409 . S
C335 H327 0.930 . S
C335 C336 1.355 . S
C335 C337 1.415 . S
C336 C335 1.355 . S
C336 C338 1.419 . S
C337 C332 1.425 . S
C337 C334 1.409 . S
C337 C335 1.415 . S
C338 H328 0.930 . S
C338 C336 1.419 . S
C338 C339 1.362 . S
C339 H329 0.930 . S
C339 C332 1.409 . S
C339 C338 1.362 . S
H340 C346 0.930 . S
H341 C349 0.930 . S
H342 C350 0.930 . S
H343 C351 0.930 . S
H344 C354 0.930 . S
H345 C355 0.930 . S
C346 H340 0.930 . S
C346 C347 1.355 . S
C346 C348 1.415 . S
C347 C346 1.355 . S
C347 C349 1.419 . S
C348 C346 1.415 . S
C348 C353 1.425 . S
C348 C355 1.409 . S
C349 H341 0.930 . S
C349 C347 1.419 . S
C349 C350 1.362 . S
C350 H342 0.930 . S
C350 C349 1.362 . S
C350 C353 1.409 . S
C351 H343 0.930 . S
C351 C352 1.355 . S
C351 C353 1.415 . S
C352 C351 1.355 . S
C352 C354 1.419 . S
C353 C348 1.425 . S
C353 C350 1.409 . S
C353 C351 1.415 . S
C354 H344 0.930 . S
C354 C352 1.419 . S
C354 C355 1.362 . S
C355 H345 0.930 . S
C355 C348 1.409 . S
C355 C354 1.362 . S
H356 C362 0.930 . S
H357 C365 0.930 . S
H358 C366 0.930 . S
H359 C367 0.930 . S
H360 C370 0.930 . S
H361 C371 0.930 . S
C362 H356 0.930 . S
C362 C363 1.355 . S
C362 C364 1.415 . S
C363 C362 1.355 . S
C363 C365 1.419 1_556 S
C364 C362 1.415 . S
C364 C369 1.425 . S
C364 C371 1.409 . S
C365 H357 0.930 . S
C365 C363 1.419 1_554 S
C365 C366 1.362 1_554 S
C366 H358 0.930 . S
C366 C365 1.362 1_556 S
C366 C369 1.409 . S
C367 H359 0.930 . S
C367 C368 1.355 . S
C367 C369 1.415 . S
C368 C367 1.355 . S
C368 C370 1.419 . S
C369 C364 1.425 . S
C369 C366 1.409 . S
C369 C367 1.415 . S
C370 H360 0.930 . S
C370 C368 1.419 . S
C370 C371 1.362 . S
C371 H361 0.930 . S
C371 C364 1.409 . S
C371 C370 1.362 . S
H372 C378 0.930 . S
H373 C381 0.930 . S
H374 C382 0.930 . S
H375 C383 0.930 . S
H376 C386 0.930 . S
H377 C387 0.930 . S
C378 H372 0.930 . S
C378 C379 1.355 . S
C378 C380 1.415 . S
C379 C378 1.355 . S
C379 C381 1.419 . S
C380 C378 1.415 . S
C380 C385 1.425 . S
C380 C387 1.409 . S
C381 H373 0.930 . S
C381 C379 1.419 . S
C381 C382 1.362 . S
C382 H374 0.930 . S
C382 C381 1.362 . S
C382 C385 1.409 . S
C383 H375 0.930 . S
C383 C384 1.355 . S
C383 C385 1.415 . S
C384 C383 1.355 . S
C384 C386 1.419 . S
C385 C380 1.425 . S
C385 C382 1.409 . S
C385 C383 1.415 . S
C386 H376 0.930 . S
C386 C384 1.419 . S
C386 C387 1.362 . S
C387 H377 0.930 . S
C387 C380 1.409 . S
C387 C386 1.362 . S
H388 C394 0.930 . S
H389 C397 0.930 . S
H390 C398 0.930 . S
H391 C399 0.930 . S
H392 C402 0.930 1_545 S
H393 C403 0.930 1_545 S
C394 H388 0.930 . S
C394 C395 1.355 . S
C394 C396 1.415 . S
C395 C394 1.355 . S
C395 C397 1.419 . S
C396 C394 1.415 . S
C396 C401 1.425 . S
C396 C403 1.409 . S
C397 H389 0.930 . S
C397 C395 1.419 . S
C397 C398 1.362 . S
C398 H390 0.930 . S
C398 C397 1.362 . S
C398 C401 1.409 . S
C399 H391 0.930 . S
C399 C400 1.355 . S
C399 C401 1.415 . S
C400 C399 1.355 . S
C400 C402 1.419 . S
C401 C396 1.425 . S
C401 C398 1.409 . S
C401 C399 1.415 . S
C402 H392 0.930 1_565 S
C402 C400 1.419 . S
C402 C403 1.362 . S
C403 H393 0.930 1_565 S
C403 C396 1.409 . S
C403 C402 1.362 . S
C224 C112 1.634 . S
C219 C43 1.633 . S
C235 C10 1.648 . S
C240 C184 1.612 . S
C251 C21 1.663 . S
C256 C100 1.638 . S
C267 C32 1.600 . S
C272 C196 1.625 . S
C288 C102 1.414 . S
C283 C5 1.611 . S
C304 C183 1.699 . S
C299 C15 1.692 . S
C315 C27 1.643 . S
C320 C99 1.645 . S
C331 C38 1.588 . S
C336 C186 1.372 . S
C352 C198 1.326 . S
C347 C16 1.552 . S
C368 C114 1.312 . S
C363 C26 1.543 1_556 S
C384 C195 1.624 . S
C379 C37 1.611 . S
C395 C4 1.548 . S
C400 C111 1.581 . S
