# Generated by pormake.
# Topology pyr, (3,6)-cn, num edge types: 1
# Building blocks:
#     Node 0, Type 0, BuildingBlock: QEWDON_clean_linker_0, # of connection points: 3
#     Node 1, Type 0, BuildingBlock: QEWDON_clean_linker_0, # of connection points: 3
#     Node 2, Type 0, BuildingBlock: QEWDON_clean_linker_0, # of connection points: 3
#     Node 3, Type 0, BuildingBlock: QEWDON_clean_linker_0, # of connection points: 3
#     Node 4, Type 0, BuildingBlock: QEWDON_clean_linker_0, # of connection points: 3
#     Node 5, Type 0, BuildingBlock: QEWDON_clean_linker_0, # of connection points: 3
#     Node 6, Type 0, BuildingBlock: QEWDON_clean_linker_0, # of connection points: 3
#     Node 7, Type 0, BuildingBlock: QEWDON_clean_linker_0, # of connection points: 3
#     Node 8, Type 1, BuildingBlock: BETDEL_clean_sbu_0, # of connection points: 6
#     Node 9, Type 1, BuildingBlock: BETDEL_clean_sbu_0, # of connection points: 6
#     Node 10, Type 1, BuildingBlock: BETDEL_clean_sbu_0, # of connection points: 6
#     Node 11, Type 1, BuildingBlock: BETDEL_clean_sbu_0, # of connection points: 6
#     Edge 12, Type (0, 1), BuildingBlock: XIVTED_clean_linker_0, # of connection points: 2
#     Edge 13, Type (0, 1), BuildingBlock: XIVTED_clean_linker_0, # of connection points: 2
#     Edge 14, Type (0, 1), BuildingBlock: XIVTED_clean_linker_0, # of connection points: 2
#     Edge 15, Type (0, 1), BuildingBlock: XIVTED_clean_linker_0, # of connection points: 2
#     Edge 16, Type (0, 1), BuildingBlock: XIVTED_clean_linker_0, # of connection points: 2
#     Edge 17, Type (0, 1), BuildingBlock: XIVTED_clean_linker_0, # of connection points: 2
#     Edge 18, Type (0, 1), BuildingBlock: XIVTED_clean_linker_0, # of connection points: 2
#     Edge 19, Type (0, 1), BuildingBlock: XIVTED_clean_linker_0, # of connection points: 2
#     Edge 20, Type (0, 1), BuildingBlock: XIVTED_clean_linker_0, # of connection points: 2
#     Edge 21, Type (0, 1), BuildingBlock: XIVTED_clean_linker_0, # of connection points: 2
#     Edge 22, Type (0, 1), BuildingBlock: XIVTED_clean_linker_0, # of connection points: 2
#     Edge 23, Type (0, 1), BuildingBlock: XIVTED_clean_linker_0, # of connection points: 2
#     Edge 24, Type (0, 1), BuildingBlock: XIVTED_clean_linker_0, # of connection points: 2
#     Edge 25, Type (0, 1), BuildingBlock: XIVTED_clean_linker_0, # of connection points: 2
#     Edge 26, Type (0, 1), BuildingBlock: XIVTED_clean_linker_0, # of connection points: 2
#     Edge 27, Type (0, 1), BuildingBlock: XIVTED_clean_linker_0, # of connection points: 2
#     Edge 28, Type (0, 1), BuildingBlock: XIVTED_clean_linker_0, # of connection points: 2
#     Edge 29, Type (0, 1), BuildingBlock: XIVTED_clean_linker_0, # of connection points: 2
#     Edge 30, Type (0, 1), BuildingBlock: XIVTED_clean_linker_0, # of connection points: 2
#     Edge 31, Type (0, 1), BuildingBlock: XIVTED_clean_linker_0, # of connection points: 2
#     Edge 32, Type (0, 1), BuildingBlock: XIVTED_clean_linker_0, # of connection points: 2
#     Edge 33, Type (0, 1), BuildingBlock: XIVTED_clean_linker_0, # of connection points: 2
#     Edge 34, Type (0, 1), BuildingBlock: XIVTED_clean_linker_0, # of connection points: 2
#     Edge 35, Type (0, 1), BuildingBlock: XIVTED_clean_linker_0, # of connection points: 2
# Relax obj value: 0.120
# Max RMSD: 0.262
# Mean RMSD: 0.190
data_MOF--net-pyr--node1-BETDEL_clean_sbu_0--node2-QEWDON_clean_linker_0--edge1-XIVTED_clean_linker_0
_symmetry_space_group_name_H-M    P1
_symmetry_Int_Tables_number       1
_symmetry_cell_setting            triclinic
loop_
_symmetry_equiv_pos_as_xyz
'x, y, z'
_cell_length_a     36.636712
_cell_length_b     38.546892
_cell_length_c     37.941145
_cell_angle_alpha  91.882181
_cell_angle_beta   89.513677
_cell_angle_gamma 103.63939
loop_
_atom_site_label
_atom_site_type_symbol
_atom_site_fract_x
_atom_site_fract_y
_atom_site_fract_z
_atom_type_partial_charge
H0 H 0.29021 0.24711 0.17205 0.0
C1 C 0.26971 0.23671 0.19219 0.0
C2 C 0.26887 0.20334 0.20607 0.0
C3 C 0.24468 0.25697 0.20433 0.0
H4 H 0.24247 0.16439 0.24327 0.0
C5 C 0.24261 0.19001 0.23225 0.0
C6 C 0.21659 0.20945 0.24417 0.0
C7 C 0.21782 0.24304 0.23003 0.0
C8 C 0.24768 0.29302 0.19049 0.0
H9 H 0.1982 0.25847 0.23917 0.0
C10 C 0.2161 0.3029 0.17687 0.0
C11 C 0.22013 0.33616 0.16112 0.0
C12 C 0.28298 0.31721 0.18938 0.0
H13 H 0.30762 0.31032 0.19999 0.0
C14 C 0.28685 0.35047 0.17453 0.0
H15 H 0.18887 0.28423 0.17715 0.0
C16 C 0.25574 0.35985 0.16025 0.0
H17 H 0.25944 0.38577 0.14865 0.0
H18 H 0.31414 0.36894 0.17383 0.0
H19 H 0.27537 0.88469 0.77396 0.0
C20 C 0.2918 0.86832 0.76047 0.0
C21 C 0.32784 0.86815 0.77285 0.0
C22 C 0.27644 0.84668 0.73123 0.0
H23 H 0.3759 0.84529 0.76518 0.0
C24 C 0.34838 0.84613 0.75547 0.0
C25 C 0.33336 0.82445 0.72613 0.0
C26 C 0.29738 0.82498 0.71404 0.0
C27 C 0.2369 0.84352 0.72123 0.0
H28 H 0.2851 0.80755 0.69206 0.0
C29 C 0.22567 0.8712 0.7042 0.0
C30 C 0.18756 0.86778 0.69565 0.0
C31 C 0.21001 0.81242 0.72946 0.0
H32 H 0.21822 0.79088 0.74255 0.0
C33 C 0.17228 0.80907 0.7213 0.0
H34 H 0.24643 0.89521 0.69773 0.0
C35 C 0.16105 0.83655 0.70461 0.0
H36 H 0.13165 0.83308 0.69807 0.0
H37 H 0.15167 0.78505 0.72784 0.0
H38 H 0.65581 0.45455 0.92506 0.0
C39 C 0.64619 0.42847 0.93628 0.0
C40 C 0.67211 0.41203 0.95197 0.0
C41 C 0.60772 0.41184 0.93582 0.0
H42 H 0.67871 0.36636 0.98039 0.0
C43 C 0.65911 0.37846 0.96692 0.0
C44 C 0.62084 0.36113 0.96617 0.0
C45 C 0.59537 0.37806 0.95042 0.0
C46 C 0.58008 0.43039 0.92166 0.0
H47 H 0.56581 0.36483 0.94916 0.0
C48 C 0.58604 0.44724 0.88904 0.0
C49 C 0.55985 0.46519 0.87609 0.0
C50 C 0.54763 0.43166 0.9412 0.0
H51 H 0.54255 0.41924 0.96655 0.0
C52 C 0.5217 0.44949 0.92854 0.0
H53 H 0.61095 0.44634 0.87376 0.0
C54 C 0.52769 0.46617 0.89625 0.0
H55 H 0.5068 0.47934 0.88676 0.0
H56 H 0.49681 0.45033 0.94381 0.0
H57 H 0.86246 0.77105 0.34257 0.0
C58 C 0.84393 0.75416 0.36077 0.0
C59 C 0.84589 0.76267 0.39713 0.0
C60 C 0.81711 0.72447 0.34764 0.0
H61 H 0.82049 0.74905 0.44769 0.0
C62 C 0.82057 0.74109 0.42006 0.0
C63 C 0.7937 0.71103 0.40733 0.0
C64 C 0.79274 0.7027 0.37091 0.0
C65 C 0.81104 0.71842 0.30937 0.0
H66 H 0.77241 0.67974 0.36021 0.0
C67 C 0.83387 0.70119 0.28869 0.0
C68 C 0.82542 0.69287 0.25281 0.0
C69 C 0.78042 0.72816 0.29391 0.0
H70 H 0.76248 0.74132 0.3096 0.0
C71 C 0.77247 0.72064 0.25821 0.0
H72 H 0.85713 0.69309 0.30078 0.0
C73 C 0.79464 0.70288 0.23778 0.0
H74 H 0.78776 0.69699 0.21018 0.0
H75 H 0.74879 0.72821 0.24645 0.0
H76 H 0.83417 0.8258 0.9427 0.0
C77 C 0.84677 0.84376 0.9222 0.0
C78 C 0.88489 0.84783 0.91364 0.0
C79 C 0.82411 0.86129 0.90338 0.0
H80 H 0.92944 0.87306 0.87862 0.0
C81 C 0.90024 0.87014 0.88598 0.0
C82 C 0.87759 0.88724 0.86645 0.0
C83 C 0.83959 0.88304 0.87553 0.0
C84 C 0.78352 0.85416 0.91096 0.0
H85 H 0.82179 0.89565 0.86016 0.0
C86 C 0.76666 0.88201 0.92151 0.0
C87 C 0.72802 0.87474 0.92924 0.0
C88 C 0.76157 0.81903 0.90804 0.0
H89 H 0.77414 0.79725 0.89993 0.0
C90 C 0.72321 0.81177 0.91528 0.0
H91 H 0.78361 0.90913 0.92389 0.0
C92 C 0.70647 0.83939 0.92582 0.0
H93 H 0.67674 0.83298 0.93194 0.0
H94 H 0.70643 0.78463 0.91293 0.0
H95 H 0.76095 0.20699 0.47266 0.0
C96 C 0.75488 0.20501 0.44463 0.0
C97 C 0.77608 0.18815 0.42174 0.0
C98 C 0.72453 0.21752 0.4323 0.0
H99 H 0.78405 0.17239 0.36786 0.0
C100 C 0.7679 0.18568 0.38548 0.0
C101 C 0.73746 0.19814 0.37235 0.0
C102 C 0.71627 0.21445 0.39612 0.0
C103 C 0.69819 0.22833 0.45804 0.0
H104 H 0.69151 0.22229 0.38706 0.0
C105 C 0.68567 0.25998 0.45466 0.0
C106 C 0.65964 0.26863 0.47901 0.0
C107 C 0.68454 0.20576 0.48602 0.0
H108 H 0.69331 0.18106 0.48898 0.0
C109 C 0.65888 0.21435 0.51006 0.0
H110 H 0.69594 0.2776 0.43323 0.0
C111 C 0.6464 0.24549 0.50658 0.0
H112 H 0.6266 0.25173 0.52574 0.0
H113 H 0.64852 0.19672 0.53143 0.0
H114 H 0.43583 0.74678 0.19847 0.0
C115 C 0.40631 0.7355 0.19316 0.0
C116 C 0.3841 0.75651 0.17845 0.0
C117 C 0.39105 0.69937 0.19937 0.0
H118 H 0.3293 0.75679 0.15839 0.0
C119 C 0.34634 0.74086 0.17027 0.0
C120 C 0.33077 0.7046 0.17644 0.0
C121 C 0.35338 0.68415 0.19134 0.0
C122 C 0.41528 0.67628 0.21044 0.0
H123 H 0.34199 0.6561 0.19617 0.0
C124 C 0.42225 0.67253 0.24629 0.0
C125 C 0.44422 0.64908 0.25647 0.0
C126 C 0.4303 0.65671 0.1847 0.0
H127 H 0.42488 0.65923 0.15698 0.0
C128 C 0.45209 0.63352 0.19456 0.0
H129 H 0.41064 0.68786 0.26603 0.0
C130 C 0.45893 0.62958 0.23014 0.0
H131 H 0.47527 0.61075 0.237 0.0
H132 H 0.46342 0.61829 0.17459 0.0
H133 H 0.24557 0.42788 0.76528 0.0
C134 C 0.23069 0.40446 0.7503 0.0
C135 C 0.23519 0.40221 0.71349 0.0
C136 C 0.20826 0.37592 0.76828 0.0
H137 H 0.21815 0.3695 0.6665 0.0
C138 C 0.21505 0.37159 0.69482 0.0
C139 C 0.19185 0.34303 0.71245 0.0
C140 C 0.18908 0.34532 0.74937 0.0
C141 C 0.20691 0.37708 0.80714 0.0
H142 H 0.17252 0.32309 0.76364 0.0
C143 C 0.19056 0.4019 0.82532 0.0
C144 C 0.19002 0.40336 0.86239 0.0
C145 C 0.22256 0.35354 0.82616 0.0
H146 H 0.23527 0.33422 0.8125 0.0
C147 C 0.2225 0.35523 0.86298 0.0
H148 H 0.17828 0.41999 0.81064 0.0
C149 C 0.20647 0.38009 0.88107 0.0
H150 H 0.20625 0.38068 0.90964 0.0
H151 H 0.23483 0.33716 0.87752 0.0
Dy152 Dy 0.04077 0.06892 0.51174 0.0
C153 C 0.98234 0.00819 0.64596 0.0
C154 C 0.06606 0.10133 0.45036 0.0
Dy155 Dy 0.99977 0.04054 0.58321 0.0
O156 O 0.06397 0.06811 0.45691 0.0
O157 O 0.05409 0.11709 0.47739 0.0
O158 O 0.08041 0.03242 0.51735 0.0
O159 O 0.05644 0.05066 0.56207 0.0
C160 C 0.07548 0.02938 0.55111 0.0
C161 C 0.95394 0.06872 0.54315 0.0
O162 O 0.03622 0.09317 0.60147 0.0
O163 O 0.05975 0.11714 0.5476 0.0
O164 O 0.98599 0.99166 0.61618 0.0
O165 O 0.98852 0.04236 0.6415 0.0
O166 O 0.94451 0.05524 0.57379 0.0
O167 O 0.9868 0.06592 0.53649 0.0
O168 O 0.99534 0.02227 0.494 0.0
O169 O 0.99082 0.99243 0.54659 0.0
C170 C 0.05537 0.11974 0.58235 0.0
C171 C 0.98527 0.99267 0.51209 0.0
Dy172 Dy 0.54867 0.07423 0.10373 0.0
C173 C 0.44958 0.00586 0.9873 0.0
C174 C 0.60273 0.11506 0.14662 0.0
Dy175 Dy 0.48896 0.04181 0.04335 0.0
O176 O 0.60291 0.0836 0.13341 0.0
O177 O 0.57321 0.12489 0.13561 0.0
O178 O 0.53505 0.02727 0.13981 0.0
O179 O 0.50711 0.02568 0.09261 0.0
C180 C 0.50962 0.00792 0.11919 0.0
C181 C 0.51958 0.1121 0.04268 0.0
O182 O 0.45095 0.05408 0.0854 0.0
O183 O 0.49696 0.09352 0.11922 0.0
O184 O 0.48028 0.03072 0.98547 0.0
O185 O 0.43982 1.00045 0.02019 0.0
O186 O 0.48568 0.09751 0.03212 0.0
O187 O 0.53652 0.08843 0.05044 0.0
O188 O 0.58492 0.055 0.06307 0.0
O189 O 0.53671 0.01668 0.03146 0.0
C190 C 0.46122 0.07917 0.11063 0.0
C191 C 0.57274 0.02913 0.03902 0.0
Dy192 Dy 0.52394 0.53465 0.55242 0.0
C193 C 0.47055 0.65289 0.61359 0.0
C194 C 0.55553 0.48183 0.52563 0.0
Dy195 Dy 0.50633 0.6036 0.58548 0.0
O196 O 0.51983 0.48061 0.52655 0.0
O197 O 0.57423 0.51204 0.53948 0.0
O198 O 0.46208 0.50947 0.54948 0.0
O199 O 0.48307 0.54659 0.59006 0.0
C200 C 0.45353 0.52809 0.57611 0.0
C201 C 0.57664 0.61011 0.56148 0.0
O202 O 0.52645 0.58226 0.63371 0.0
O203 O 0.54768 0.53522 0.60712 0.0
O204 O 0.49703 0.65951 0.59 0.0
O205 O 0.46374 0.61953 0.62168 0.0
O206 O 0.5684 0.62957 0.58774 0.0
O207 O 0.54691 0.59145 0.54811 0.0
O208 O 0.51305 0.56221 0.50442 0.0
O209 O 0.47832 0.59855 0.53187 0.0
C210 C 0.54348 0.55554 0.63517 0.0
C211 C 0.48992 0.58388 0.50293 0.0
Dy212 Dy 0.00958 0.52045 0.05907 0.0
C213 C 0.99049 0.65631 0.01224 0.0
C214 C 0.03373 0.46049 0.07299 0.0
Dy215 Dy 0.00672 0.59428 0.03208 0.0
O216 O 0.03954 0.4776 0.04381 0.0
O217 O 0.01392 0.4757 0.09436 0.0
O218 O 0.96062 0.52106 0.09468 0.0
O219 O 0.99911 0.56936 0.08306 0.0
C220 C 0.96844 0.55574 0.09802 0.0
C221 C 0.04825 0.55818 0.99432 0.0
O222 O 0.05435 0.61212 0.06948 0.0
O223 O 0.0656 0.55568 0.07514 0.0
O224 O 0.0076 0.63672 0.99291 0.0
O225 O 0.98203 0.64203 0.0427 0.0
O226 O 0.05738 0.59268 0.99876 0.0
O227 O 0.01697 0.54536 0.00838 0.0
O228 O 0.96025 0.50316 0.02347 0.0
O229 O 0.94961 0.55996 0.01794 0.0
C230 C 0.07564 0.59094 0.07981 0.0
C231 C 0.93897 0.52464 0.01374 0.0
H232 H 0.1754 0.14071 0.24911 0.0
H233 H 0.08442 0.17278 0.43662 0.0
H234 H 0.19424 0.24423 0.302 0.0
H235 H 0.08521 0.06913 0.39067 0.0
H236 H 0.11672 0.20058 0.38396 0.0
H237 H 0.13423 0.11525 0.29721 0.0
C238 C 0.17085 0.15812 0.27086 0.0
C239 C 0.18875 0.19458 0.27175 0.0
C240 C 0.10955 0.17176 0.38535 0.0
C241 C 0.14127 0.16558 0.32694 0.0
C242 C 0.09106 0.15593 0.41528 0.0
C243 C 0.08242 0.11868 0.41795 0.0
C244 C 0.11913 0.15007 0.35796 0.0
C245 C 0.09159 0.09798 0.3897 0.0
C246 C 0.1472 0.14358 0.29828 0.0
C247 C 0.18099 0.216 0.3002 0.0
N248 N 0.10954 0.11394 0.36096 0.0
N249 N 0.15804 0.20113 0.32683 0.0
H250 H 0.2935 0.87497 0.83653 0.0
H251 H 0.47358 0.01136 0.91959 0.0
H252 H 0.39854 0.91047 0.78154 0.0
H253 H 0.38172 0.95615 0.98375 0.0
H254 H 0.44291 0.97906 0.86752 0.0
H255 H 0.32172 0.90905 0.88936 0.0
C256 C 0.32238 0.89019 0.83549 0.0
C257 C 0.34375 0.88988 0.80461 0.0
C258 C 0.42935 0.97392 0.89292 0.0
C259 C 0.37614 0.92871 0.86484 0.0
C260 C 0.44682 0.99243 0.92269 0.0
C261 C 0.43016 0.98634 0.95603 0.0
C262 C 0.39472 0.9492 0.89629 0.0
C263 C 0.3955 0.96151 0.95848 0.0
C264 C 0.33852 0.90937 0.8657 0.0
C265 C 0.38116 0.9097 0.80485 0.0
N266 N 0.37881 0.94383 0.92893 0.0
N267 N 0.39609 0.92833 0.83441 0.0
H268 H 0.5495 0.53063 0.85919 0.0
H269 H 0.57223 0.49834 0.65182 0.0
H270 H 0.58227 0.43846 0.81375 0.0
H271 H 0.54001 0.59031 0.69879 0.0
H272 H 0.58293 0.47909 0.71083 0.0
H273 H 0.55237 0.55577 0.80075 0.0
C274 C 0.55745 0.51574 0.83688 0.0
C275 C 0.56525 0.48222 0.84129 0.0
C276 C 0.57388 0.50366 0.70817 0.0
C277 C 0.56866 0.51086 0.77416 0.0
C278 C 0.56782 0.51475 0.67445 0.0
C279 C 0.55476 0.54582 0.67024 0.0
C280 C 0.56676 0.52375 0.73791 0.0
C281 C 0.54971 0.56599 0.70063 0.0
C282 C 0.55924 0.53017 0.80352 0.0
C283 C 0.57612 0.46442 0.81156 0.0
N284 N 0.55539 0.55444 0.7331 0.0
N285 N 0.57713 0.47879 0.77918 0.0
H286 H 0.90188 0.70651 0.2449 0.0
H287 H 0.89797 0.53217 0.12434 0.0
H288 H 0.7991 0.63322 0.21148 0.0
H289 H 0.99064 0.62494 0.1227 0.0
H290 H 0.86332 0.56545 0.16279 0.0
H291 H 0.93737 0.67326 0.20689 0.0
C292 C 0.88689 0.68331 0.22971 0.0
C293 C 0.84758 0.67261 0.23111 0.0
C294 C 0.89121 0.57854 0.15396 0.0
C295 C 0.88773 0.63455 0.188 0.0
C296 C 0.91097 0.55956 0.13212 0.0
C297 C 0.94712 0.5759 0.12044 0.0
C298 C 0.90798 0.61391 0.1646 0.0
C299 C 0.96274 0.61146 0.13114 0.0
C300 C 0.90705 0.66454 0.20792 0.0
C301 C 0.82938 0.64251 0.21083 0.0
N302 N 0.94316 0.62927 0.15287 0.0
N303 N 0.8496 0.62443 0.19023 0.0
H304 H 0.27931 0.18247 0.13831 0.0
H305 H 0.46424 0.11674 0.17377 0.0
H306 H 0.31902 0.17735 0.24419 0.0
H307 H 0.39076 0.07593 0.08592 0.0
H308 H 0.41579 0.14485 0.19873 0.0
H309 H 0.32492 0.14939 0.11659 0.0
C310 C 0.29768 0.17428 0.15692 0.0
C311 C 0.29555 0.18248 0.193 0.0
C312 C 0.41029 0.12943 0.17417 0.0
C313 C 0.34788 0.1452 0.16847 0.0
C314 C 0.43788 0.11349 0.15988 0.0
C315 C 0.43152 0.09395 0.12774 0.0
C316 C 0.37656 0.12644 0.15573 0.0
C317 C 0.39684 0.09056 0.11085 0.0
C318 C 0.3235 0.15533 0.1446 0.0
C319 C 0.31981 0.17127 0.21617 0.0
N320 N 0.37086 0.10701 0.12483 0.0
N321 N 0.34533 0.15347 0.20346 0.0
H322 H 0.21743 0.90102 0.63567 0.0
H323 H 0.06495 0.01856 0.62167 0.0
H324 H 0.12872 0.89789 0.71178 0.0
H325 H 0.1271 0.99139 0.53209 0.0
H326 H 0.09462 0.98194 0.65858 0.0
H327 H 0.19191 0.94262 0.60113 0.0
C328 C 0.19292 0.90951 0.64534 0.0
C329 C 0.17504 0.89591 0.67651 0.0
C330 C 0.10178 0.98403 0.63085 0.0
C331 C 0.14566 0.94325 0.6372 0.0
C332 C 0.08482 0.00484 0.6098 0.0
C333 C 0.09338 0.0077 0.57376 0.0
C334 C 0.12792 0.96641 0.61584 0.0
C335 C 0.11959 0.9897 0.55975 0.0
C336 C 0.17819 0.93297 0.62551 0.0
C337 C 0.14313 0.90751 0.6877 0.0
N338 N 0.13603 0.96989 0.58083 0.0
N339 N 0.12946 0.93049 0.66808 0.0
H340 H 0.70293 0.48299 0.96706 0.0
H341 H 0.9093 0.45471 0.99383 0.0
H342 H 0.73337 0.38312 0.9435 0.0
H343 H 0.88275 0.55813 0.99997 0.0
H344 H 0.84547 0.42833 0.97346 0.0
H345 H 0.7691 0.51156 0.97671 0.0
C346 C 0.72355 0.46716 0.96338 0.0
C347 C 0.71249 0.4305 0.9547 0.0
C348 C 0.8537 0.45685 0.97899 0.0
C349 C 0.78831 0.46295 0.96643 0.0
C350 C 0.89015 0.47193 0.99071 0.0
C351 C 0.90136 0.50867 0.99889 0.0
C352 C 0.82813 0.47858 0.97573 0.0
C353 C 0.87536 0.52967 0.99409 0.0
C354 C 0.76135 0.48346 0.96912 0.0
C355 C 0.74051 0.41129 0.95083 0.0
N356 N 0.83987 0.51427 0.98313 0.0
N357 N 0.77707 0.42766 0.95701 0.0
H358 H 0.80059 0.69741 0.47793 0.0
H359 H 0.59085 0.58322 0.49714 0.0
H360 H 0.71998 0.67783 0.39262 0.0
H361 H 0.64365 0.65548 0.58109 0.0
H362 H 0.64666 0.60314 0.46079 0.0
H363 H 0.75051 0.6688 0.51799 0.0
C364 C 0.77261 0.68711 0.46743 0.0
C365 C 0.76477 0.69046 0.43157 0.0
C366 C 0.64616 0.6143 0.48732 0.0
C367 C 0.70795 0.65649 0.47722 0.0
C368 C 0.61442 0.60293 0.50814 0.0
C369 C 0.61246 0.61822 0.54196 0.0
C370 C 0.67642 0.64071 0.50058 0.0
C371 C 0.64399 0.64337 0.55498 0.0
C372 C 0.7442 0.67059 0.49036 0.0
C373 C 0.72799 0.6755 0.41964 0.0
N374 N 0.67478 0.65406 0.53413 0.0
N375 N 0.70108 0.65919 0.44237 0.0
H376 H 0.21628 0.36182 0.09563 0.0
H377 H 0.02878 0.42555 0.13506 0.0
H378 H 0.15058 0.33378 0.18973 0.0
H379 H 0.08376 0.43359 0.03368 0.0
H380 H 0.06963 0.38778 0.15431 0.0
H381 H 0.1654 0.38454 0.07116 0.0
C382 C 0.19093 0.36028 0.11102 0.0
C383 C 0.18771 0.34633 0.14487 0.0
C384 C 0.07234 0.39732 0.12767 0.0
C385 C 0.12935 0.37247 0.11719 0.0
C386 C 0.049 0.4188 0.11667 0.0
C387 C 0.05321 0.43289 0.08288 0.0
C388 C 0.10029 0.39031 0.10478 0.0
C389 C 0.07977 0.4234 0.06004 0.0
C390 C 0.16181 0.37309 0.09701 0.0
C391 C 0.15411 0.34442 0.16353 0.0
N392 N 0.10265 0.4031 0.07157 0.0
N393 N 0.12638 0.35785 0.14965 0.0
H394 H 0.556 0.33656 1.0038 0.0
H395 H 0.59458 0.14465 0.03826 0.0
H396 H 0.65528 0.30491 0.96598 0.0
H397 H 0.48414 0.16584 0.03795 0.0
H398 H 0.62153 0.20732 0.02397 0.0
H399 H 0.53328 0.27742 0.0279 0.0
C400 C 0.573 0.31721 1.0004 0.0
C401 C 0.60743 0.32571 0.98235 0.0
C402 C 0.59144 0.19822 0.02738 0.0
C403 C 0.5819 0.25818 0.01077 0.0
C404 C 0.57615 0.16265 0.0357 0.0
C405 C 0.53714 0.15022 0.03885 0.0
C406 C 0.56748 0.22135 0.0228 0.0
C407 C 0.51436 0.17443 0.03533 0.0
C408 C 0.56012 0.28354 0.01444 0.0
C409 C 0.6287 0.29974 0.97984 0.0
N410 N 0.52985 0.20883 0.02739 0.0
N411 N 0.61554 0.2671 0.99378 0.0
H412 H 0.88776 0.77089 0.45757 0.0
H413 H 0.96169 0.98266 0.44323 0.0
H414 H 0.86309 0.82955 0.36941 0.0
H415 H 0.96862 0.92523 0.53785 0.0
H416 H 0.93192 0.92619 0.413 0.0
H417 H 0.9245 0.82657 0.48426 0.0
C418 C 0.89025 0.79548 0.44373 0.0
C419 C 0.87201 0.79558 0.41135 0.0
C420 C 0.94003 0.92599 0.44035 0.0
C421 C 0.91415 0.85947 0.44174 0.0
C422 C 0.95704 0.95821 0.45766 0.0
C423 C 0.96748 0.95875 0.49324 0.0
C424 C 0.93362 0.89404 0.45867 0.0
C425 C 0.96081 0.92619 0.51051 0.0
C426 C 0.91125 0.82725 0.45897 0.0
C427 C 0.87683 0.82814 0.39428 0.0
N428 N 0.9443 0.89521 0.49307 0.0
N429 N 0.89721 0.85883 0.40981 0.0
H430 H 0.36281 0.77504 0.75828 0.0
H431 H 0.46842 0.71864 0.58951 0.0
H432 H 0.35149 0.81767 0.65639 0.0
H433 H 0.42864 0.64664 0.67357 0.0
H434 H 0.43504 0.76127 0.61649 0.0
H435 H 0.39683 0.73361 0.73058 0.0
C436 C 0.36772 0.77576 0.73008 0.0
C437 C 0.35439 0.79972 0.70952 0.0
C438 C 0.43367 0.7361 0.62892 0.0
C439 C 0.39347 0.75276 0.67779 0.0
C440 C 0.45277 0.71191 0.61367 0.0
C441 C 0.45116 0.67915 0.62937 0.0
C442 C 0.41362 0.72769 0.66045 0.0
C443 C 0.43046 0.6716 0.6606 0.0
C444 C 0.38691 0.75205 0.7143 0.0
C445 C 0.36121 0.79944 0.67306 0.0
N446 N 0.41273 0.6958 0.67528 0.0
N447 N 0.38056 0.77647 0.65833 0.0
H448 H 0.85078 0.87387 0.79963 0.0
H449 H 0.98875 0.03821 0.71241 0.0
H450 H 0.93909 0.94312 0.86053 0.0
H451 H 0.94688 0.93855 0.65491 0.0
H452 H 0.96398 0.00909 0.76718 0.0
H453 H 0.87804 0.90314 0.74586 0.0
C454 C 0.8757 0.89553 0.80162 0.0
C455 C 0.89272 0.90632 0.83438 0.0
C456 C 0.96047 0.99364 0.74256 0.0
C457 C 0.92384 0.9398 0.77333 0.0
C458 C 0.97448 0.01018 0.71141 0.0
C459 C 0.96981 0.99064 0.67928 0.0
C460 C 0.94087 0.95765 0.74126 0.0
C461 C 0.95116 0.95444 0.67925 0.0
C462 C 0.89137 0.91194 0.77102 0.0
C463 C 0.92524 0.93415 0.83565 0.0
N464 N 0.93693 0.93917 0.70975 0.0
N465 N 0.93965 0.95022 0.80551 0.0
H466 H 0.73865 0.13841 0.33098 0.0
H467 H 0.6026 0.17776 0.18337 0.0
H468 H 0.70576 0.23882 0.32838 0.0
H469 H 0.66138 0.09323 0.17424 0.0
H470 H 0.64085 0.20208 0.23541 0.0
H471 H 0.71183 0.12281 0.27266 0.0
C472 C 0.72652 0.15762 0.318 0.0
C473 C 0.72463 0.19011 0.335 0.0
C474 C 0.6457 0.1785 0.22168 0.0
C475 C 0.69243 0.17159 0.26803 0.0
C476 C 0.62394 0.16468 0.19199 0.0
C477 C 0.62872 0.13334 0.17465 0.0
C478 C 0.67205 0.16057 0.23422 0.0
C479 C 0.65665 0.11736 0.18692 0.0
C480 C 0.71082 0.14847 0.28462 0.0
C481 C 0.7074 0.21322 0.31675 0.0
N482 N 0.67692 0.13089 0.21612 0.0
N483 N 0.69163 0.20336 0.28448 0.0
H484 H 0.50961 0.64181 0.28615 0.0
H485 H 0.4349 0.61814 0.48427 0.0
H486 H 0.39582 0.64551 0.31312 0.0
H487 H 0.5253 0.57542 0.44121 0.0
H488 H 0.42346 0.63753 0.42491 0.0
H489 H 0.51988 0.62792 0.34684 0.0
C490 C 0.48671 0.63965 0.30482 0.0
C491 C 0.45157 0.6442 0.29427 0.0
C492 C 0.44568 0.62381 0.42869 0.0
C493 C 0.4634 0.62874 0.36419 0.0
C494 C 0.45222 0.61278 0.46244 0.0
C495 C 0.48094 0.59495 0.46769 0.0
C496 C 0.46854 0.61751 0.40041 0.0
C497 C 0.50262 0.58876 0.43851 0.0
C498 C 0.49265 0.63182 0.33953 0.0
C499 C 0.42337 0.64223 0.32006 0.0
N500 N 0.49609 0.60017 0.4063 0.0
N501 N 0.42982 0.63444 0.35387 0.0
H502 H 0.21882 0.45107 0.91571 0.0
H503 H 0.12284 0.57798 0.97863 0.0
H504 H 0.11894 0.41183 0.85327 0.0
H505 H 0.02526 0.49052 0.96649 0.0
H506 H 0.16031 0.54216 0.9466 0.0
H507 H 0.18653 0.49083 0.94876 0.0
C508 C 0.19016 0.45105 0.90889 0.0
C509 C 0.17149 0.42845 0.88166 0.0
C510 C 0.13079 0.53073 0.95129 0.0
C511 C 0.13457 0.47358 0.91909 0.0
C512 C 0.1094 0.5512 0.96925 0.0
C513 C 0.07108 0.53699 0.97525 0.0
C514 C 0.11348 0.49608 0.93888 0.0
C515 C 0.05485 0.50226 0.96255 0.0
C516 C 0.1719 0.47388 0.9275 0.0
C517 C 0.13436 0.42923 0.87384 0.0
N518 N 0.07609 0.48304 0.94463 0.0
N519 N 0.11692 0.45118 0.89276 0.0
H520 H 0.75278 0.92723 0.98008 0.0
H521 H 0.56085 0.99153 0.97676 0.0
H522 H 0.66203 0.88741 0.90683 0.0
H523 H 0.64581 0.02896 0.05634 0.0
H524 H 0.60205 0.9593 0.94682 0.0
H525 H 0.71862 0.97039 1.00421 0.0
C526 C 0.72593 0.92795 0.96876 0.0
C527 C 0.70996 0.9035 0.94167 0.0
C528 C 0.61193 0.97463 0.97072 0.0
C529 C 0.67082 0.95245 0.96916 0.0
C530 C 0.58832 0.99307 0.98795 0.0
C531 C 0.59968 0.01258 0.01945 0.0
C532 C 0.64725 0.9753 0.9851 0.0
C533 C 0.63589 0.01407 0.03222 0.0
C534 C 0.7064 0.95241 0.98265 0.0
C535 C 0.67506 0.90537 0.92809 0.0
N536 N 0.65831 0.99528 0.01518 0.0
N537 N 0.65663 0.92923 0.94209 0.0
H538 H 0.76459 0.14489 0.47773 0.0
H539 H 0.96981 0.1048 0.48062 0.0
H540 H 0.84832 0.18706 0.39978 0.0
H541 H 0.88202 0.06954 0.55687 0.0
H542 H 0.92689 0.13309 0.44808 0.0
H543 H 0.80806 0.11501 0.50451 0.0
C544 C 0.79238 0.14811 0.46637 0.0
C545 C 0.80303 0.16913 0.43685 0.0
C546 C 0.91715 0.11902 0.47188 0.0
C547 C 0.85342 0.13426 0.4674 0.0
C548 C 0.94156 0.1029 0.49037 0.0
C549 C 0.92943 0.08497 0.52153 0.0
C550 C 0.88054 0.11693 0.48476 0.0
C551 C 0.89264 0.0832 0.53308 0.0
C552 C 0.81725 0.1308 0.4816 0.0
C553 C 0.83908 0.17128 0.42267 0.0
N554 N 0.8697 0.09895 0.5148 0.0
N555 N 0.86318 0.15425 0.43824 0.0
H556 H 0.26807 0.7322 0.18139 0.0
H557 H 0.1316 0.55794 0.09511 0.0
H558 H 0.30449 0.63827 0.14559 0.0
H559 H 0.10274 0.6603 0.10327 0.0
H560 H 0.19255 0.58502 0.12131 0.0
H561 H 0.20481 0.70434 0.1599 0.0
C562 C 0.26282 0.70577 0.16904 0.0
C563 C 0.29173 0.68759 0.1653 0.0
C564 C 0.17286 0.60155 0.11742 0.0
C565 C 0.21938 0.65546 0.14118 0.0
C566 C 0.13797 0.58609 0.10256 0.0
C567 C 0.11206 0.60693 0.09683 0.0
C568 C 0.1819 0.63808 0.12686 0.0
C569 C 0.12195 0.64329 0.107 0.0
C570 C 0.22669 0.68986 0.15692 0.0
C571 C 0.28307 0.65312 0.14962 0.0
N572 N 0.15615 0.65774 0.12154 0.0
N573 N 0.24772 0.63822 0.13814 0.0
H574 H 0.30382 0.44061 0.73784 0.0
H575 H 0.3863 0.48968 0.55034 0.0
H576 H 0.23182 0.42688 0.64627 0.0
H577 H 0.43885 0.54406 0.64458 0.0
H578 H 0.32901 0.46652 0.58434 0.0
H579 H 0.35318 0.4793 0.70446 0.0
C580 C 0.29792 0.44622 0.71099 0.0
C581 C 0.26346 0.4299 0.69488 0.0
C582 C 0.35287 0.48403 0.59741 0.0
C583 C 0.32076 0.47347 0.65607 0.0
C584 C 0.38552 0.49714 0.57807 0.0
C585 C 0.41733 0.51845 0.59481 0.0
C586 C 0.35243 0.49175 0.63384 0.0
C587 C 0.41494 0.52753 0.63073 0.0
C588 C 0.32636 0.46822 0.69184 0.0
C589 C 0.25817 0.43791 0.65963 0.0
N590 N 0.38325 0.51359 0.64922 0.0
N591 N 0.28673 0.4586 0.64123 0.0
H592 H 0.88557 0.83214 0.98376 0.0
H593 H 0.00813 0.6879 0.9495 0.0
H594 H 0.9343 0.8124 0.88327 0.0
H595 H 0.95033 0.69833 0.04737 0.0
H596 H 0.98814 0.73926 0.92757 0.0
H597 H 0.91581 0.78903 0.01015 0.0
C598 C 0.90288 0.81899 0.96731 0.0
C599 C 0.90715 0.82574 0.93116 0.0
C600 C 0.97996 0.73053 0.95393 0.0
C601 C 0.94191 0.77651 0.96122 0.0
C602 C 0.99138 0.70121 0.96646 0.0
C603 C 0.98056 0.68879 1.00015 0.0
C604 C 0.95743 0.74751 0.97522 0.0
C605 C 0.95906 0.70706 0.02114 0.0
C606 C 0.92018 0.79445 0.98242 0.0
C607 C 0.93043 0.80837 0.91127 0.0
N608 N 0.94794 0.73543 0.00822 0.0
N609 N 0.94664 0.78437 0.9265 0.0
H610 H 0.4314 0.80706 0.21941 0.0
H611 H 0.45773 0.96108 0.07768 0.0
H612 H 0.37477 0.79202 0.11882 0.0
H613 H 0.51307 0.97259 0.17872 0.0
H614 H 0.42486 0.89983 0.09227 0.0
H615 H 0.45995 0.86872 0.205 0.0
C616 C 0.42504 0.81675 0.19424 0.0
C617 C 0.40074 0.79435 0.17029 0.0
C618 C 0.44411 0.91589 0.11124 0.0
C619 C 0.43317 0.8651 0.15356 0.0
C620 C 0.46275 0.95074 0.10292 0.0
C621 C 0.48809 0.9717 0.12702 0.0
C622 C 0.45105 0.90221 0.14383 0.0
C623 C 0.4938 0.95723 0.15935 0.0
C624 C 0.4412 0.85202 0.18605 0.0
C625 C 0.39305 0.8085 0.13824 0.0
N626 N 0.47552 0.92343 0.16676 0.0
N627 N 0.40933 0.84296 0.13074 0.0
H628 H 0.21622 0.30969 0.65464 0.0
H629 H 0.0406 0.14291 0.64868 0.0
H630 H 0.12112 0.30157 0.72462 0.0
H631 H 0.11304 0.17302 0.55889 0.0
H632 H 0.0732 0.19775 0.67997 0.0
H633 H 0.18204 0.25653 0.62202 0.0
C634 C 0.18804 0.29702 0.66302 0.0
C635 C 0.17151 0.31042 0.69243 0.0
C636 C 0.08182 0.19239 0.65337 0.0
C637 C 0.13265 0.24886 0.65556 0.0
C638 C 0.06335 0.16104 0.63552 0.0
C639 C 0.07415 0.15334 0.60111 0.0
C640 C 0.11169 0.21596 0.63692 0.0
C641 C 0.10369 0.17793 0.58533 0.0
C642 C 0.16865 0.26652 0.64444 0.0
C643 C 0.13527 0.29206 0.70247 0.0
N644 N 0.12163 0.20803 0.60347 0.0
N645 N 0.11712 0.26215 0.68417 0.0
H646 H 0.70095 0.33791 0.47732 0.0
H647 H 0.5181 0.41733 0.49838 0.0
H648 H 0.58717 0.27425 0.47654 0.0
H649 H 0.62978 0.47918 0.52274 0.0
H650 H 0.54429 0.36696 0.47998 0.0
H651 H 0.67667 0.39218 0.48334 0.0
C652 C 0.67088 0.33548 0.47767 0.0
C653 C 0.64595 0.3017 0.47662 0.0
C654 C 0.56318 0.39157 0.48916 0.0
C655 C 0.61809 0.36322 0.48371 0.0
C656 C 0.54822 0.42035 0.49965 0.0
C657 C 0.5718 0.4523 0.51239 0.0
C658 C 0.60208 0.39468 0.49138 0.0
C659 C 0.61064 0.45485 0.51327 0.0
C660 C 0.65706 0.36634 0.48139 0.0
C661 C 0.60728 0.29985 0.47753 0.0
N662 N 0.62461 0.4263 0.50309 0.0
N663 N 0.59456 0.33011 0.48118 0.0
loop_
_geom_bond_atom_site_label_1
_geom_bond_atom_site_label_2
_geom_bond_distance
_geom_bond_site_symmetry_2
_ccdc_geom_bond_type
H0 C1 0.949 . S
C1 H0 0.949 . S
C1 C2 1.395 . S
C1 C3 1.391 . S
C2 C1 1.395 . S
C2 C5 1.390 . S
C3 C1 1.391 . S
C3 C7 1.387 . S
C3 C8 1.491 . S
H4 C5 0.950 . S
C5 C2 1.390 . S
C5 H4 0.950 . S
C5 C6 1.378 . S
C6 C5 1.378 . S
C6 C7 1.409 . S
C7 C3 1.387 . S
C7 C6 1.409 . S
C7 H9 0.951 . S
C8 C3 1.491 . S
C8 C10 1.382 . S
C8 C12 1.404 . S
H9 C7 0.951 . S
C10 C8 1.382 . S
C10 C11 1.390 . S
C10 H15 0.949 . S
C11 C10 1.390 . S
C11 C16 1.399 . S
C12 C8 1.404 . S
C12 H13 0.950 . S
C12 C14 1.375 . S
H13 C12 0.950 . S
C14 C12 1.375 . S
C14 C16 1.382 . S
C14 H18 0.950 . S
H15 C10 0.949 . S
C16 C11 1.399 . S
C16 C14 1.382 . S
C16 H17 0.952 . S
H17 C16 0.952 . S
H18 C14 0.950 . S
H19 C20 0.949 . S
C20 H19 0.949 . S
C20 C21 1.395 . S
C20 C22 1.391 . S
C21 C20 1.395 . S
C21 C24 1.390 . S
C22 C20 1.391 . S
C22 C26 1.387 . S
C22 C27 1.491 . S
H23 C24 0.950 . S
C24 C21 1.390 . S
C24 H23 0.950 . S
C24 C25 1.378 . S
C25 C24 1.378 . S
C25 C26 1.409 . S
C26 C22 1.387 . S
C26 C25 1.409 . S
C26 H28 0.951 . S
C27 C22 1.491 . S
C27 C29 1.382 . S
C27 C31 1.404 . S
H28 C26 0.951 . S
C29 C27 1.382 . S
C29 C30 1.390 . S
C29 H34 0.949 . S
C30 C29 1.390 . S
C30 C35 1.399 . S
C31 C27 1.404 . S
C31 H32 0.950 . S
C31 C33 1.375 . S
H32 C31 0.950 . S
C33 C31 1.375 . S
C33 C35 1.382 . S
C33 H37 0.950 . S
H34 C29 0.949 . S
C35 C30 1.399 . S
C35 C33 1.382 . S
C35 H36 0.952 . S
H36 C35 0.952 . S
H37 C33 0.950 . S
H38 C39 0.949 . S
C39 H38 0.949 . S
C39 C40 1.395 . S
C39 C41 1.391 . S
C40 C39 1.395 . S
C40 C43 1.390 . S
C41 C39 1.391 . S
C41 C45 1.387 . S
C41 C46 1.491 . S
H42 C43 0.950 . S
C43 C40 1.390 . S
C43 H42 0.950 . S
C43 C44 1.378 . S
C44 C43 1.378 . S
C44 C45 1.409 . S
C45 C41 1.387 . S
C45 C44 1.409 . S
C45 H47 0.951 . S
C46 C41 1.491 . S
C46 C48 1.382 . S
C46 C50 1.404 . S
H47 C45 0.951 . S
C48 C46 1.382 . S
C48 C49 1.390 . S
C48 H53 0.949 . S
C49 C48 1.390 . S
C49 C54 1.399 . S
C50 C46 1.404 . S
C50 H51 0.950 . S
C50 C52 1.375 . S
H51 C50 0.950 . S
C52 C50 1.375 . S
C52 C54 1.382 . S
C52 H56 0.950 . S
H53 C48 0.949 . S
C54 C49 1.399 . S
C54 C52 1.382 . S
C54 H55 0.952 . S
H55 C54 0.952 . S
H56 C52 0.950 . S
H57 C58 0.949 . S
C58 H57 0.949 . S
C58 C59 1.395 . S
C58 C60 1.391 . S
C59 C58 1.395 . S
C59 C62 1.390 . S
C60 C58 1.391 . S
C60 C64 1.387 . S
C60 C65 1.491 . S
H61 C62 0.950 . S
C62 C59 1.390 . S
C62 H61 0.950 . S
C62 C63 1.378 . S
C63 C62 1.378 . S
C63 C64 1.409 . S
C64 C60 1.387 . S
C64 C63 1.409 . S
C64 H66 0.951 . S
C65 C60 1.491 . S
C65 C67 1.382 . S
C65 C69 1.404 . S
H66 C64 0.951 . S
C67 C65 1.382 . S
C67 C68 1.390 . S
C67 H72 0.949 . S
C68 C67 1.390 . S
C68 C73 1.399 . S
C69 C65 1.404 . S
C69 H70 0.950 . S
C69 C71 1.375 . S
H70 C69 0.950 . S
C71 C69 1.375 . S
C71 C73 1.382 . S
C71 H75 0.950 . S
H72 C67 0.949 . S
C73 C68 1.399 . S
C73 C71 1.382 . S
C73 H74 0.952 . S
H74 C73 0.952 . S
H75 C71 0.950 . S
H76 C77 0.949 . S
C77 H76 0.949 . S
C77 C78 1.395 . S
C77 C79 1.391 . S
C78 C77 1.395 . S
C78 C81 1.390 . S
C79 C77 1.391 . S
C79 C83 1.387 . S
C79 C84 1.491 . S
H80 C81 0.950 . S
C81 C78 1.390 . S
C81 H80 0.950 . S
C81 C82 1.378 . S
C82 C81 1.378 . S
C82 C83 1.409 . S
C83 C79 1.387 . S
C83 C82 1.409 . S
C83 H85 0.951 . S
C84 C79 1.491 . S
C84 C86 1.382 . S
C84 C88 1.404 . S
H85 C83 0.951 . S
C86 C84 1.382 . S
C86 C87 1.390 . S
C86 H91 0.949 . S
C87 C86 1.390 . S
C87 C92 1.399 . S
C88 C84 1.404 . S
C88 H89 0.950 . S
C88 C90 1.375 . S
H89 C88 0.950 . S
C90 C88 1.375 . S
C90 C92 1.382 . S
C90 H94 0.950 . S
H91 C86 0.949 . S
C92 C87 1.399 . S
C92 C90 1.382 . S
C92 H93 0.952 . S
H93 C92 0.952 . S
H94 C90 0.950 . S
H95 C96 0.949 . S
C96 H95 0.949 . S
C96 C97 1.395 . S
C96 C98 1.391 . S
C97 C96 1.395 . S
C97 C100 1.390 . S
C98 C96 1.391 . S
C98 C102 1.387 . S
C98 C103 1.491 . S
H99 C100 0.950 . S
C100 C97 1.390 . S
C100 H99 0.950 . S
C100 C101 1.378 . S
C101 C100 1.378 . S
C101 C102 1.409 . S
C102 C98 1.387 . S
C102 C101 1.409 . S
C102 H104 0.951 . S
C103 C98 1.491 . S
C103 C105 1.382 . S
C103 C107 1.404 . S
H104 C102 0.951 . S
C105 C103 1.382 . S
C105 C106 1.390 . S
C105 H110 0.949 . S
C106 C105 1.390 . S
C106 C111 1.399 . S
C107 C103 1.404 . S
C107 H108 0.950 . S
C107 C109 1.375 . S
H108 C107 0.950 . S
C109 C107 1.375 . S
C109 C111 1.382 . S
C109 H113 0.950 . S
H110 C105 0.949 . S
C111 C106 1.399 . S
C111 C109 1.382 . S
C111 H112 0.952 . S
H112 C111 0.952 . S
H113 C109 0.950 . S
H114 C115 0.949 . S
C115 H114 0.949 . S
C115 C116 1.395 . S
C115 C117 1.391 . S
C116 C115 1.395 . S
C116 C119 1.390 . S
C117 C115 1.391 . S
C117 C121 1.387 . S
C117 C122 1.491 . S
H118 C119 0.950 . S
C119 C116 1.390 . S
C119 H118 0.950 . S
C119 C120 1.378 . S
C120 C119 1.378 . S
C120 C121 1.409 . S
C121 C117 1.387 . S
C121 C120 1.409 . S
C121 H123 0.951 . S
C122 C117 1.491 . S
C122 C124 1.382 . S
C122 C126 1.404 . S
H123 C121 0.951 . S
C124 C122 1.382 . S
C124 C125 1.390 . S
C124 H129 0.949 . S
C125 C124 1.390 . S
C125 C130 1.399 . S
C126 C122 1.404 . S
C126 H127 0.950 . S
C126 C128 1.375 . S
H127 C126 0.950 . S
C128 C126 1.375 . S
C128 C130 1.382 . S
C128 H132 0.950 . S
H129 C124 0.949 . S
C130 C125 1.399 . S
C130 C128 1.382 . S
C130 H131 0.952 . S
H131 C130 0.952 . S
H132 C128 0.950 . S
H133 C134 0.949 . S
C134 H133 0.949 . S
C134 C135 1.395 . S
C134 C136 1.391 . S
C135 C134 1.395 . S
C135 C138 1.390 . S
C136 C134 1.391 . S
C136 C140 1.387 . S
C136 C141 1.491 . S
H137 C138 0.950 . S
C138 C135 1.390 . S
C138 H137 0.950 . S
C138 C139 1.378 . S
C139 C138 1.378 . S
C139 C140 1.409 . S
C140 C136 1.387 . S
C140 C139 1.409 . S
C140 H142 0.951 . S
C141 C136 1.491 . S
C141 C143 1.382 . S
C141 C145 1.404 . S
H142 C140 0.951 . S
C143 C141 1.382 . S
C143 C144 1.390 . S
C143 H148 0.949 . S
C144 C143 1.390 . S
C144 C149 1.399 . S
C145 C141 1.404 . S
C145 H146 0.950 . S
C145 C147 1.375 . S
H146 C145 0.950 . S
C147 C145 1.375 . S
C147 C149 1.382 . S
C147 H151 0.950 . S
H148 C143 0.949 . S
C149 C144 1.399 . S
C149 C147 1.382 . S
C149 H150 0.952 . S
H150 C149 0.952 . S
H151 C147 0.950 . S
Dy152 O156 2.398 . S
Dy152 O157 2.491 . S
Dy152 O158 2.403 . S
Dy152 O159 2.664 . S
Dy152 O163 2.326 . S
Dy152 O167 2.310 1_455 S
Dy152 O168 2.351 1_445 S
C153 O164 1.185 . S
C153 O165 1.355 . S
C154 O156 1.185 . S
C154 O157 1.355 . S
Dy155 O159 2.310 1_655 S
Dy155 O162 2.351 1_655 S
Dy155 O164 2.398 1_545 S
Dy155 O165 2.491 1_545 S
Dy155 O166 2.403 . S
Dy155 O167 2.664 . S
Dy155 O169 2.326 1_545 S
O156 Dy152 2.398 . S
O156 C154 1.185 . S
O157 Dy152 2.491 . S
O157 C154 1.355 . S
O158 Dy152 2.403 . S
O158 C160 1.254 . S
O159 Dy152 2.664 . S
O159 Dy155 2.310 1_455 S
O159 C160 1.268 . S
C160 O158 1.254 . S
C160 O159 1.268 . S
C161 O166 1.254 . S
C161 O167 1.268 . S
O162 Dy155 2.351 1_455 S
O162 C170 1.249 . S
O163 Dy152 2.326 . S
O163 C170 1.267 . S
O164 C153 1.185 . S
O164 Dy155 2.398 1_565 S
O165 C153 1.355 . S
O165 Dy155 2.491 1_565 S
O166 Dy155 2.403 . S
O166 C161 1.254 . S
O167 Dy152 2.310 1_655 S
O167 Dy155 2.664 . S
O167 C161 1.268 . S
O168 Dy152 2.351 1_665 S
O168 C171 1.249 . S
O169 Dy155 2.326 1_565 S
O169 C171 1.267 . S
C170 O162 1.249 . S
C170 O163 1.267 . S
C171 O168 1.249 . S
C171 O169 1.267 . S
Dy172 O176 2.398 . S
Dy172 O177 2.491 . S
Dy172 O178 2.403 1_545 S
Dy172 O179 2.664 1_545 S
Dy172 O183 2.326 . S
Dy172 O187 2.310 . S
Dy172 O188 2.351 . S
C173 O184 1.185 1_565 S
C173 O185 1.355 1_556 S
C174 O176 1.185 . S
C174 O177 1.355 . S
Dy175 O179 2.310 1_545 S
Dy175 O182 2.351 . S
Dy175 O184 2.398 1_554 S
Dy175 O185 2.491 1_545 S
Dy175 O186 2.403 . S
Dy175 O187 2.664 . S
Dy175 O189 2.326 . S
O176 Dy172 2.398 . S
O176 C174 1.185 . S
O177 Dy172 2.491 . S
O177 C174 1.355 . S
O178 Dy172 2.403 1_565 S
O178 C180 1.254 . S
O179 Dy172 2.664 1_565 S
O179 Dy175 2.310 1_565 S
O179 C180 1.268 . S
C180 O178 1.254 . S
C180 O179 1.268 . S
C181 O186 1.254 . S
C181 O187 1.268 . S
O182 Dy175 2.351 . S
O182 C190 1.249 . S
O183 Dy172 2.326 . S
O183 C190 1.267 . S
O184 C173 1.185 1_545 S
O184 Dy175 2.398 1_556 S
O185 C173 1.355 1_554 S
O185 Dy175 2.491 1_565 S
O186 Dy175 2.403 . S
O186 C181 1.254 . S
O187 Dy172 2.310 . S
O187 Dy175 2.664 . S
O187 C181 1.268 . S
O188 Dy172 2.351 . S
O188 C191 1.249 1_545 S
O189 Dy175 2.326 . S
O189 C191 1.267 1_545 S
C190 O182 1.249 . S
C190 O183 1.267 . S
C191 O188 1.249 1_565 S
C191 O189 1.267 1_565 S
Dy192 O196 2.398 . S
Dy192 O197 2.491 . S
Dy192 O198 2.403 . S
Dy192 O199 2.664 . S
Dy192 O203 2.326 . S
Dy192 O207 2.310 . S
Dy192 O208 2.351 . S
C193 O204 1.185 . S
C193 O205 1.355 . S
C194 O196 1.185 . S
C194 O197 1.355 . S
Dy195 O199 2.310 . S
Dy195 O202 2.351 . S
Dy195 O204 2.398 . S
Dy195 O205 2.491 . S
Dy195 O206 2.403 . S
Dy195 O207 2.664 . S
Dy195 O209 2.326 . S
O196 Dy192 2.398 . S
O196 C194 1.185 . S
O197 Dy192 2.491 . S
O197 C194 1.355 . S
O198 Dy192 2.403 . S
O198 C200 1.254 . S
O199 Dy192 2.664 . S
O199 Dy195 2.310 . S
O199 C200 1.268 . S
C200 O198 1.254 . S
C200 O199 1.268 . S
C201 O206 1.254 . S
C201 O207 1.268 . S
O202 Dy195 2.351 . S
O202 C210 1.249 . S
O203 Dy192 2.326 . S
O203 C210 1.267 . S
O204 C193 1.185 . S
O204 Dy195 2.398 . S
O205 C193 1.355 . S
O205 Dy195 2.491 . S
O206 Dy195 2.403 . S
O206 C201 1.254 . S
O207 Dy192 2.310 . S
O207 Dy195 2.664 . S
O207 C201 1.268 . S
O208 Dy192 2.351 . S
O208 C211 1.249 . S
O209 Dy195 2.326 . S
O209 C211 1.267 . S
C210 O202 1.249 . S
C210 O203 1.267 . S
C211 O208 1.249 . S
C211 O209 1.267 . S
Dy212 O216 2.398 . S
Dy212 O217 2.491 . S
Dy212 O218 2.419 . S
Dy212 O219 2.664 . S
Dy212 O223 2.326 . S
Dy212 O227 2.310 1_554 S
Dy212 O228 2.351 1_455 S
C213 O224 1.185 . S
C213 O225 1.355 1_556 S
C214 O216 1.185 . S
C214 O217 1.355 . S
Dy215 O219 2.310 . S
Dy215 O222 2.351 . S
Dy215 O224 2.398 1_454 S
Dy215 O225 2.491 1_455 S
Dy215 O226 2.403 1_554 S
Dy215 O227 2.664 1_554 S
Dy215 O229 2.326 1_454 S
O216 Dy212 2.398 . S
O216 C214 1.185 . S
O217 Dy212 2.491 . S
O217 C214 1.355 . S
O218 Dy212 2.419 . S
O218 C220 1.241 1_455 S
O219 Dy212 2.664 . S
O219 Dy215 2.310 . S
O219 C220 1.268 1_455 S
C220 O218 1.241 1_655 S
C220 O219 1.268 1_655 S
C221 O226 1.254 . S
C221 O227 1.268 . S
O222 Dy215 2.351 . S
O222 C230 1.249 . S
O223 Dy212 2.326 . S
O223 C230 1.267 . S
O224 C213 1.185 . S
O224 Dy215 2.398 1_656 S
O225 C213 1.355 1_554 S
O225 Dy215 2.491 1_655 S
O226 Dy215 2.403 1_556 S
O226 C221 1.254 . S
O227 Dy212 2.310 1_556 S
O227 Dy215 2.664 1_556 S
O227 C221 1.268 . S
O228 Dy212 2.351 1_655 S
O228 C231 1.249 1_554 S
O229 Dy215 2.326 1_656 S
O229 C231 1.267 . S
C230 O222 1.249 . S
C230 O223 1.267 . S
C231 O228 1.249 1_556 S
C231 O229 1.267 . S
H232 C238 0.930 . S
H233 C242 0.930 . S
H234 C247 0.929 . S
H235 C245 0.929 . S
H236 C240 0.929 . S
H237 C246 0.929 . S
C238 H232 0.930 . S
C238 C239 1.367 . S
C238 C246 1.378 . S
C239 C238 1.367 . S
C239 C247 1.433 . S
C240 H236 0.929 . S
C240 C242 1.378 . S
C240 C244 1.350 . S
C241 C244 1.463 . S
C241 C246 1.350 . S
C241 N249 1.427 . S
C242 H233 0.930 . S
C242 C240 1.378 . S
C242 C243 1.367 . S
C243 C242 1.367 . S
C243 C245 1.433 . S
C244 C240 1.350 . S
C244 C241 1.463 . S
C244 N248 1.427 . S
C245 H235 0.929 . S
C245 C243 1.433 . S
C245 N248 1.384 . S
C246 H237 0.929 . S
C246 C238 1.378 . S
C246 C241 1.350 . S
C247 H234 0.929 . S
C247 C239 1.433 . S
C247 N249 1.384 . S
N248 C244 1.427 . S
N248 C245 1.384 . S
N249 C241 1.427 . S
N249 C247 1.384 . S
H250 C256 0.930 . S
H251 C260 0.930 . S
H252 C265 0.929 . S
H253 C263 0.929 . S
H254 C258 0.929 . S
H255 C264 0.929 . S
C256 H250 0.930 . S
C256 C257 1.367 . S
C256 C264 1.378 . S
C257 C256 1.367 . S
C257 C265 1.433 . S
C258 H254 0.929 . S
C258 C260 1.378 . S
C258 C262 1.350 . S
C259 C262 1.463 . S
C259 C264 1.350 . S
C259 N267 1.427 . S
C260 H251 0.930 . S
C260 C258 1.378 . S
C260 C261 1.367 . S
C261 C260 1.367 . S
C261 C263 1.433 . S
C262 C258 1.350 . S
C262 C259 1.463 . S
C262 N266 1.427 . S
C263 H253 0.929 . S
C263 C261 1.433 . S
C263 N266 1.384 . S
C264 H255 0.929 . S
C264 C256 1.378 . S
C264 C259 1.350 . S
C265 H252 0.929 . S
C265 C257 1.433 . S
C265 N267 1.384 . S
N266 C262 1.427 . S
N266 C263 1.384 . S
N267 C259 1.427 . S
N267 C265 1.384 . S
H268 C274 0.930 . S
H269 C278 0.930 . S
H270 C283 0.929 . S
H271 C281 0.929 . S
H272 C276 0.929 . S
H273 C282 0.929 . S
C274 H268 0.930 . S
C274 C275 1.367 . S
C274 C282 1.378 . S
C275 C274 1.367 . S
C275 C283 1.433 . S
C276 H272 0.929 . S
C276 C278 1.378 . S
C276 C280 1.350 . S
C277 C280 1.463 . S
C277 C282 1.350 . S
C277 N285 1.427 . S
C278 H269 0.930 . S
C278 C276 1.378 . S
C278 C279 1.367 . S
C279 C278 1.367 . S
C279 C281 1.433 . S
C280 C276 1.350 . S
C280 C277 1.463 . S
C280 N284 1.427 . S
C281 H271 0.929 . S
C281 C279 1.433 . S
C281 N284 1.384 . S
C282 H273 0.929 . S
C282 C274 1.378 . S
C282 C277 1.350 . S
C283 H270 0.929 . S
C283 C275 1.433 . S
C283 N285 1.384 . S
N284 C280 1.427 . S
N284 C281 1.384 . S
N285 C277 1.427 . S
N285 C283 1.384 . S
H286 C292 0.930 . S
H287 C296 0.930 . S
H288 C301 0.929 . S
H289 C299 0.929 1_455 S
H290 C294 0.929 . S
H291 C300 0.929 . S
C292 H286 0.930 . S
C292 C293 1.367 . S
C292 C300 1.378 . S
C293 C292 1.367 . S
C293 C301 1.433 . S
C294 H290 0.929 . S
C294 C296 1.378 . S
C294 C298 1.350 . S
C295 C298 1.463 . S
C295 C300 1.350 . S
C295 N303 1.427 . S
C296 H287 0.930 . S
C296 C294 1.378 . S
C296 C297 1.367 . S
C297 C296 1.367 . S
C297 C299 1.433 . S
C298 C294 1.350 . S
C298 C295 1.463 . S
C298 N302 1.427 . S
C299 H289 0.929 1_655 S
C299 C297 1.433 . S
C299 N302 1.384 . S
C300 H291 0.929 . S
C300 C292 1.378 . S
C300 C295 1.350 . S
C301 H288 0.929 . S
C301 C293 1.433 . S
C301 N303 1.384 . S
N302 C298 1.427 . S
N302 C299 1.384 . S
N303 C295 1.427 . S
N303 C301 1.384 . S
H304 C310 0.930 . S
H305 C314 0.930 . S
H306 C319 0.929 . S
H307 C317 0.929 . S
H308 C312 0.929 . S
H309 C318 0.929 . S
C310 H304 0.930 . S
C310 C311 1.367 . S
C310 C318 1.378 . S
C311 C310 1.367 . S
C311 C319 1.433 . S
C312 H308 0.929 . S
C312 C314 1.378 . S
C312 C316 1.350 . S
C313 C316 1.463 . S
C313 C318 1.350 . S
C313 N321 1.427 . S
C314 H305 0.930 . S
C314 C312 1.378 . S
C314 C315 1.367 . S
C315 C314 1.367 . S
C315 C317 1.433 . S
C316 C312 1.350 . S
C316 C313 1.463 . S
C316 N320 1.427 . S
C317 H307 0.929 . S
C317 C315 1.433 . S
C317 N320 1.384 . S
C318 H309 0.929 . S
C318 C310 1.378 . S
C318 C313 1.350 . S
C319 H306 0.929 . S
C319 C311 1.433 . S
C319 N321 1.384 . S
N320 C316 1.427 . S
N320 C317 1.384 . S
N321 C313 1.427 . S
N321 C319 1.384 . S
H322 C328 0.930 . S
H323 C332 0.930 . S
H324 C337 0.929 . S
H325 C335 0.929 . S
H326 C330 0.929 . S
H327 C336 0.929 . S
C328 H322 0.930 . S
C328 C329 1.367 . S
C328 C336 1.378 . S
C329 C328 1.367 . S
C329 C337 1.433 . S
C330 H326 0.929 . S
C330 C332 1.378 . S
C330 C334 1.350 1_545 S
C331 C334 1.463 . S
C331 C336 1.350 . S
C331 N339 1.427 . S
C332 H323 0.930 . S
C332 C330 1.378 . S
C332 C333 1.367 . S
C333 C332 1.367 . S
C333 C335 1.433 1_545 S
C334 C330 1.350 1_565 S
C334 C331 1.463 . S
C334 N338 1.427 . S
C335 H325 0.929 . S
C335 C333 1.433 1_565 S
C335 N338 1.384 . S
C336 H327 0.929 . S
C336 C328 1.378 . S
C336 C331 1.350 . S
C337 H324 0.929 . S
C337 C329 1.433 . S
C337 N339 1.384 . S
N338 C334 1.427 . S
N338 C335 1.384 . S
N339 C331 1.427 . S
N339 C337 1.384 . S
H340 C346 0.930 . S
H341 C350 0.930 . S
H342 C355 0.929 . S
H343 C353 0.929 . S
H344 C348 0.929 . S
H345 C354 0.929 . S
C346 H340 0.930 . S
C346 C347 1.367 . S
C346 C354 1.378 . S
C347 C346 1.367 . S
C347 C355 1.433 . S
C348 H344 0.929 . S
C348 C350 1.378 . S
C348 C352 1.350 . S
C349 C352 1.463 . S
C349 C354 1.350 . S
C349 N357 1.427 . S
C350 H341 0.930 . S
C350 C348 1.378 . S
C350 C351 1.367 . S
C351 C350 1.367 . S
C351 C353 1.433 . S
C352 C348 1.350 . S
C352 C349 1.463 . S
C352 N356 1.427 . S
C353 H343 0.929 . S
C353 C351 1.433 . S
C353 N356 1.384 . S
C354 H345 0.929 . S
C354 C346 1.378 . S
C354 C349 1.350 . S
C355 H342 0.929 . S
C355 C347 1.433 . S
C355 N357 1.384 . S
N356 C352 1.427 . S
N356 C353 1.384 . S
N357 C349 1.427 . S
N357 C355 1.384 . S
H358 C364 0.930 . S
H359 C368 0.930 . S
H360 C373 0.929 . S
H361 C371 0.929 . S
H362 C366 0.929 . S
H363 C372 0.929 . S
C364 H358 0.930 . S
C364 C365 1.367 . S
C364 C372 1.378 . S
C365 C364 1.367 . S
C365 C373 1.433 . S
C366 H362 0.929 . S
C366 C368 1.378 . S
C366 C370 1.350 . S
C367 C370 1.463 . S
C367 C372 1.350 . S
C367 N375 1.427 . S
C368 H359 0.930 . S
C368 C366 1.378 . S
C368 C369 1.367 . S
C369 C368 1.367 . S
C369 C371 1.433 . S
C370 C366 1.350 . S
C370 C367 1.463 . S
C370 N374 1.427 . S
C371 H361 0.929 . S
C371 C369 1.433 . S
C371 N374 1.384 . S
C372 H363 0.929 . S
C372 C364 1.378 . S
C372 C367 1.350 . S
C373 H360 0.929 . S
C373 C365 1.433 . S
C373 N375 1.384 . S
N374 C370 1.427 . S
N374 C371 1.384 . S
N375 C367 1.427 . S
N375 C373 1.384 . S
H376 C382 0.930 . S
H377 C386 0.930 . S
H378 C391 0.929 . S
H379 C389 0.929 . S
H380 C384 0.929 . S
H381 C390 0.929 . S
C382 H376 0.930 . S
C382 C383 1.367 . S
C382 C390 1.378 . S
C383 C382 1.367 . S
C383 C391 1.433 . S
C384 H380 0.929 . S
C384 C386 1.378 . S
C384 C388 1.350 . S
C385 C388 1.463 . S
C385 C390 1.350 . S
C385 N393 1.427 . S
C386 H377 0.930 . S
C386 C384 1.378 . S
C386 C387 1.367 . S
C387 C386 1.367 . S
C387 C389 1.433 . S
C388 C384 1.350 . S
C388 C385 1.463 . S
C388 N392 1.427 . S
C389 H379 0.929 . S
C389 C387 1.433 . S
C389 N392 1.384 . S
C390 H381 0.929 . S
C390 C382 1.378 . S
C390 C385 1.350 . S
C391 H378 0.929 . S
C391 C383 1.433 . S
C391 N393 1.384 . S
N392 C388 1.427 . S
N392 C389 1.384 . S
N393 C385 1.427 . S
N393 C391 1.384 . S
H394 C400 0.930 . S
H395 C404 0.930 . S
H396 C409 0.929 . S
H397 C407 0.929 . S
H398 C402 0.929 1_556 S
H399 C408 0.929 . S
C400 H394 0.930 . S
C400 C401 1.367 . S
C400 C408 1.378 . S
C401 C400 1.367 . S
C401 C409 1.433 . S
C402 H398 0.929 1_554 S
C402 C404 1.378 . S
C402 C406 1.350 . S
C403 C406 1.463 1_556 S
C403 C408 1.350 . S
C403 N411 1.427 . S
C404 H395 0.930 . S
C404 C402 1.378 . S
C404 C405 1.367 . S
C405 C404 1.367 . S
C405 C407 1.433 . S
C406 C402 1.350 . S
C406 C403 1.463 1_554 S
C406 N410 1.427 . S
C407 H397 0.929 . S
C407 C405 1.433 . S
C407 N410 1.384 . S
C408 H399 0.929 . S
C408 C400 1.378 . S
C408 C403 1.350 . S
C409 H396 0.929 . S
C409 C401 1.433 . S
C409 N411 1.384 . S
N410 C406 1.427 . S
N410 C407 1.384 . S
N411 C403 1.427 . S
N411 C409 1.384 . S
H412 C418 0.930 . S
H413 C422 0.930 . S
H414 C427 0.929 . S
H415 C425 0.929 . S
H416 C420 0.929 . S
H417 C426 0.929 . S
C418 H412 0.930 . S
C418 C419 1.367 . S
C418 C426 1.378 . S
C419 C418 1.367 . S
C419 C427 1.433 . S
C420 H416 0.929 . S
C420 C422 1.378 . S
C420 C424 1.350 . S
C421 C424 1.463 . S
C421 C426 1.350 . S
C421 N429 1.427 . S
C422 H413 0.930 . S
C422 C420 1.378 . S
C422 C423 1.367 . S
C423 C422 1.367 . S
C423 C425 1.433 . S
C424 C420 1.350 . S
C424 C421 1.463 . S
C424 N428 1.427 . S
C425 H415 0.929 . S
C425 C423 1.433 . S
C425 N428 1.384 . S
C426 H417 0.929 . S
C426 C418 1.378 . S
C426 C421 1.350 . S
C427 H414 0.929 . S
C427 C419 1.433 . S
C427 N429 1.384 . S
N428 C424 1.427 . S
N428 C425 1.384 . S
N429 C421 1.427 . S
N429 C427 1.384 . S
H430 C436 0.930 . S
H431 C440 0.930 . S
H432 C445 0.929 . S
H433 C443 0.929 . S
H434 C438 0.929 . S
H435 C444 0.929 . S
C436 H430 0.930 . S
C436 C437 1.367 . S
C436 C444 1.378 . S
C437 C436 1.367 . S
C437 C445 1.433 . S
C438 H434 0.929 . S
C438 C440 1.378 . S
C438 C442 1.350 . S
C439 C442 1.463 . S
C439 C444 1.350 . S
C439 N447 1.427 . S
C440 H431 0.930 . S
C440 C438 1.378 . S
C440 C441 1.367 . S
C441 C440 1.367 . S
C441 C443 1.433 . S
C442 C438 1.350 . S
C442 C439 1.463 . S
C442 N446 1.427 . S
C443 H433 0.929 . S
C443 C441 1.433 . S
C443 N446 1.384 . S
C444 H435 0.929 . S
C444 C436 1.378 . S
C444 C439 1.350 . S
C445 H432 0.929 . S
C445 C437 1.433 . S
C445 N447 1.384 . S
N446 C442 1.427 . S
N446 C443 1.384 . S
N447 C439 1.427 . S
N447 C445 1.384 . S
H448 C454 0.930 . S
H449 C458 0.930 . S
H450 C463 0.929 . S
H451 C461 0.929 . S
H452 C456 0.929 . S
H453 C462 0.929 . S
C454 H448 0.930 . S
C454 C455 1.367 . S
C454 C462 1.378 . S
C455 C454 1.367 . S
C455 C463 1.433 . S
C456 H452 0.929 . S
C456 C458 1.378 . S
C456 C460 1.350 . S
C457 C460 1.463 . S
C457 C462 1.350 . S
C457 N465 1.427 . S
C458 H449 0.930 . S
C458 C456 1.378 . S
C458 C459 1.367 . S
C459 C458 1.367 . S
C459 C461 1.433 . S
C460 C456 1.350 . S
C460 C457 1.463 . S
C460 N464 1.427 . S
C461 H451 0.929 . S
C461 C459 1.433 . S
C461 N464 1.384 . S
C462 H453 0.929 . S
C462 C454 1.378 . S
C462 C457 1.350 . S
C463 H450 0.929 . S
C463 C455 1.433 . S
C463 N465 1.384 . S
N464 C460 1.427 . S
N464 C461 1.384 . S
N465 C457 1.427 . S
N465 C463 1.384 . S
H466 C472 0.930 . S
H467 C476 0.930 . S
H468 C481 0.929 . S
H469 C479 0.929 . S
H470 C474 0.929 . S
H471 C480 0.929 . S
C472 H466 0.930 . S
C472 C473 1.367 . S
C472 C480 1.378 . S
C473 C472 1.367 . S
C473 C481 1.433 . S
C474 H470 0.929 . S
C474 C476 1.378 . S
C474 C478 1.350 . S
C475 C478 1.463 . S
C475 C480 1.350 . S
C475 N483 1.427 . S
C476 H467 0.930 . S
C476 C474 1.378 . S
C476 C477 1.367 . S
C477 C476 1.367 . S
C477 C479 1.433 . S
C478 C474 1.350 . S
C478 C475 1.463 . S
C478 N482 1.427 . S
C479 H469 0.929 . S
C479 C477 1.433 . S
C479 N482 1.384 . S
C480 H471 0.929 . S
C480 C472 1.378 . S
C480 C475 1.350 . S
C481 H468 0.929 . S
C481 C473 1.433 . S
C481 N483 1.384 . S
N482 C478 1.427 . S
N482 C479 1.384 . S
N483 C475 1.427 . S
N483 C481 1.384 . S
H484 C490 0.930 . S
H485 C494 0.930 . S
H486 C499 0.929 . S
H487 C497 0.929 . S
H488 C492 0.929 . S
H489 C498 0.929 . S
C490 H484 0.930 . S
C490 C491 1.367 . S
C490 C498 1.378 . S
C491 C490 1.367 . S
C491 C499 1.433 . S
C492 H488 0.929 . S
C492 C494 1.378 . S
C492 C496 1.350 . S
C493 C496 1.463 . S
C493 C498 1.350 . S
C493 N501 1.427 . S
C494 H485 0.930 . S
C494 C492 1.378 . S
C494 C495 1.367 . S
C495 C494 1.367 . S
C495 C497 1.433 . S
C496 C492 1.350 . S
C496 C493 1.463 . S
C496 N500 1.427 . S
C497 H487 0.929 . S
C497 C495 1.433 . S
C497 N500 1.384 . S
C498 H489 0.929 . S
C498 C490 1.378 . S
C498 C493 1.350 . S
C499 H486 0.929 . S
C499 C491 1.433 . S
C499 N501 1.384 . S
N500 C496 1.427 . S
N500 C497 1.384 . S
N501 C493 1.427 . S
N501 C499 1.384 . S
H502 C508 0.930 . S
H503 C512 0.930 . S
H504 C517 0.929 . S
H505 C515 0.929 . S
H506 C510 0.929 . S
H507 C516 0.929 . S
C508 H502 0.930 . S
C508 C509 1.367 . S
C508 C516 1.378 . S
C509 C508 1.367 . S
C509 C517 1.433 . S
C510 H506 0.929 . S
C510 C512 1.378 . S
C510 C514 1.350 . S
C511 C514 1.463 . S
C511 C516 1.350 . S
C511 N519 1.427 . S
C512 H503 0.930 . S
C512 C510 1.378 . S
C512 C513 1.367 . S
C513 C512 1.367 . S
C513 C515 1.433 . S
C514 C510 1.350 . S
C514 C511 1.463 . S
C514 N518 1.427 . S
C515 H505 0.929 . S
C515 C513 1.433 . S
C515 N518 1.384 . S
C516 H507 0.929 . S
C516 C508 1.378 . S
C516 C511 1.350 . S
C517 H504 0.929 . S
C517 C509 1.433 . S
C517 N519 1.384 . S
N518 C514 1.427 . S
N518 C515 1.384 . S
N519 C511 1.427 . S
N519 C517 1.384 . S
H520 C526 0.930 . S
H521 C530 0.930 . S
H522 C535 0.929 . S
H523 C533 0.929 . S
H524 C528 0.929 . S
H525 C534 0.945 . S
C526 H520 0.930 . S
C526 C527 1.367 . S
C526 C534 1.378 . S
C527 C526 1.367 . S
C527 C535 1.433 . S
C528 H524 0.929 . S
C528 C530 1.378 . S
C528 C532 1.350 . S
C529 C532 1.463 . S
C529 C534 1.350 . S
C529 N537 1.427 . S
C530 H521 0.930 . S
C530 C528 1.378 . S
C530 C531 1.367 1_556 S
C531 C530 1.367 1_554 S
C531 C533 1.433 . S
C532 C528 1.350 . S
C532 C529 1.463 . S
C532 N536 1.427 1_556 S
C533 H523 0.929 . S
C533 C531 1.433 . S
C533 N536 1.384 . S
C534 H525 0.945 . S
C534 C526 1.378 . S
C534 C529 1.350 . S
C535 H522 0.929 . S
C535 C527 1.433 . S
C535 N537 1.384 . S
N536 C532 1.427 1_554 S
N536 C533 1.384 . S
N537 C529 1.427 . S
N537 C535 1.384 . S
H538 C544 0.930 . S
H539 C548 0.930 . S
H540 C553 0.929 . S
H541 C551 0.929 . S
H542 C546 0.929 . S
H543 C552 0.929 . S
C544 H538 0.930 . S
C544 C545 1.367 . S
C544 C552 1.378 . S
C545 C544 1.367 . S
C545 C553 1.433 . S
C546 H542 0.929 . S
C546 C548 1.378 . S
C546 C550 1.350 . S
C547 C550 1.463 . S
C547 C552 1.350 . S
C547 N555 1.427 . S
C548 H539 0.930 . S
C548 C546 1.378 . S
C548 C549 1.367 . S
C549 C548 1.367 . S
C549 C551 1.433 . S
C550 C546 1.350 . S
C550 C547 1.463 . S
C550 N554 1.427 . S
C551 H541 0.929 . S
C551 C549 1.433 . S
C551 N554 1.384 . S
C552 H543 0.929 . S
C552 C544 1.378 . S
C552 C547 1.350 . S
C553 H540 0.929 . S
C553 C545 1.433 . S
C553 N555 1.384 . S
N554 C550 1.427 . S
N554 C551 1.384 . S
N555 C547 1.427 . S
N555 C553 1.384 . S
H556 C562 0.930 . S
H557 C566 0.930 . S
H558 C571 0.929 . S
H559 C569 0.929 . S
H560 C564 0.929 . S
H561 C570 0.929 . S
C562 H556 0.930 . S
C562 C563 1.367 . S
C562 C570 1.378 . S
C563 C562 1.367 . S
C563 C571 1.433 . S
C564 H560 0.929 . S
C564 C566 1.378 . S
C564 C568 1.350 . S
C565 C568 1.463 . S
C565 C570 1.350 . S
C565 N573 1.427 . S
C566 H557 0.930 . S
C566 C564 1.378 . S
C566 C567 1.367 . S
C567 C566 1.367 . S
C567 C569 1.433 . S
C568 C564 1.350 . S
C568 C565 1.463 . S
C568 N572 1.427 . S
C569 H559 0.929 . S
C569 C567 1.433 . S
C569 N572 1.384 . S
C570 H561 0.929 . S
C570 C562 1.378 . S
C570 C565 1.350 . S
C571 H558 0.929 . S
C571 C563 1.433 . S
C571 N573 1.384 . S
N572 C568 1.427 . S
N572 C569 1.384 . S
N573 C565 1.427 . S
N573 C571 1.384 . S
H574 C580 0.930 . S
H575 C584 0.930 . S
H576 C589 0.929 . S
H577 C587 0.929 . S
H578 C582 0.929 . S
H579 C588 0.929 . S
C580 H574 0.930 . S
C580 C581 1.367 . S
C580 C588 1.378 . S
C581 C580 1.367 . S
C581 C589 1.433 . S
C582 H578 0.929 . S
C582 C584 1.378 . S
C582 C586 1.350 . S
C583 C586 1.463 . S
C583 C588 1.350 . S
C583 N591 1.427 . S
C584 H575 0.930 . S
C584 C582 1.378 . S
C584 C585 1.367 . S
C585 C584 1.367 . S
C585 C587 1.433 . S
C586 C582 1.350 . S
C586 C583 1.463 . S
C586 N590 1.427 . S
C587 H577 0.929 . S
C587 C585 1.433 . S
C587 N590 1.384 . S
C588 H579 0.929 . S
C588 C580 1.378 . S
C588 C583 1.350 . S
C589 H576 0.929 . S
C589 C581 1.433 . S
C589 N591 1.384 . S
N590 C586 1.427 . S
N590 C587 1.384 . S
N591 C583 1.427 . S
N591 C589 1.384 . S
H592 C598 0.930 . S
H593 C602 0.930 . S
H594 C607 0.929 . S
H595 C605 0.929 . S
H596 C600 0.929 . S
H597 C606 0.929 . S
C598 H592 0.930 . S
C598 C599 1.367 . S
C598 C606 1.378 . S
C599 C598 1.367 . S
C599 C607 1.433 . S
C600 H596 0.929 . S
C600 C602 1.378 . S
C600 C604 1.350 . S
C601 C604 1.463 . S
C601 C606 1.350 . S
C601 N609 1.427 . S
C602 H593 0.930 . S
C602 C600 1.378 . S
C602 C603 1.367 . S
C603 C602 1.367 . S
C603 C605 1.433 . S
C604 C600 1.350 . S
C604 C601 1.463 . S
C604 N608 1.427 . S
C605 H595 0.929 . S
C605 C603 1.433 . S
C605 N608 1.384 . S
C606 H597 0.929 . S
C606 C598 1.378 . S
C606 C601 1.350 . S
C607 H594 0.929 . S
C607 C599 1.433 . S
C607 N609 1.384 . S
N608 C604 1.427 . S
N608 C605 1.384 . S
N609 C601 1.427 . S
N609 C607 1.384 . S
H610 C616 0.930 . S
H611 C620 0.930 . S
H612 C625 0.929 . S
H613 C623 0.929 . S
H614 C618 0.929 . S
H615 C624 0.929 . S
C616 H610 0.930 . S
C616 C617 1.367 . S
C616 C624 1.378 . S
C617 C616 1.367 . S
C617 C625 1.433 . S
C618 H614 0.929 . S
C618 C620 1.378 . S
C618 C622 1.350 . S
C619 C622 1.463 . S
C619 C624 1.350 . S
C619 N627 1.427 . S
C620 H611 0.930 . S
C620 C618 1.378 . S
C620 C621 1.367 . S
C621 C620 1.367 . S
C621 C623 1.433 . S
C622 C618 1.350 . S
C622 C619 1.463 . S
C622 N626 1.427 . S
C623 H613 0.929 . S
C623 C621 1.433 . S
C623 N626 1.384 . S
C624 H615 0.929 . S
C624 C616 1.378 . S
C624 C619 1.350 . S
C625 H612 0.929 . S
C625 C617 1.433 . S
C625 N627 1.384 . S
N626 C622 1.427 . S
N626 C623 1.384 . S
N627 C619 1.427 . S
N627 C625 1.384 . S
H628 C634 0.930 . S
H629 C638 0.930 . S
H630 C643 0.929 . S
H631 C641 0.929 . S
H632 C636 0.929 . S
H633 C642 0.929 . S
C634 H628 0.930 . S
C634 C635 1.367 . S
C634 C642 1.378 . S
C635 C634 1.367 . S
C635 C643 1.433 . S
C636 H632 0.929 . S
C636 C638 1.378 . S
C636 C640 1.350 . S
C637 C640 1.463 . S
C637 C642 1.350 . S
C637 N645 1.427 . S
C638 H629 0.930 . S
C638 C636 1.378 . S
C638 C639 1.367 . S
C639 C638 1.367 . S
C639 C641 1.433 . S
C640 C636 1.350 . S
C640 C637 1.463 . S
C640 N644 1.427 . S
C641 H631 0.929 . S
C641 C639 1.433 . S
C641 N644 1.384 . S
C642 H633 0.929 . S
C642 C634 1.378 . S
C642 C637 1.350 . S
C643 H630 0.929 . S
C643 C635 1.433 . S
C643 N645 1.384 . S
N644 C640 1.427 . S
N644 C641 1.384 . S
N645 C637 1.427 . S
N645 C643 1.384 . S
H646 C652 0.930 . S
H647 C656 0.930 . S
H648 C661 0.929 . S
H649 C659 0.929 . S
H650 C654 0.929 . S
H651 C660 0.929 . S
C652 H646 0.930 . S
C652 C653 1.367 . S
C652 C660 1.378 . S
C653 C652 1.367 . S
C653 C661 1.433 . S
C654 H650 0.929 . S
C654 C656 1.378 . S
C654 C658 1.350 . S
C655 C658 1.463 . S
C655 C660 1.350 . S
C655 N663 1.427 . S
C656 H647 0.930 . S
C656 C654 1.378 . S
C656 C657 1.367 . S
C657 C656 1.367 . S
C657 C659 1.433 . S
C658 C654 1.350 . S
C658 C655 1.463 . S
C658 N662 1.427 . S
C659 H649 0.929 . S
C659 C657 1.433 . S
C659 N662 1.384 . S
C660 H651 0.929 . S
C660 C652 1.378 . S
C660 C655 1.350 . S
C661 H648 0.929 . S
C661 C653 1.433 . S
C661 N663 1.384 . S
N662 C658 1.427 . S
N662 C659 1.384 . S
N663 C655 1.427 . S
N663 C661 1.384 . S
C239 C6 1.615 . S
C243 C154 1.605 . S
C257 C21 1.803 . S
C261 C173 1.777 . S
C279 C210 1.193 . S
C275 C49 1.165 . S
C293 C68 1.388 . S
C297 C220 1.434 . S
C315 C190 2.582 . S
C311 C2 2.526 . S
C333 C160 1.156 . S
C329 C30 1.073 . S
C351 C231 1.420 . S
C347 C40 1.451 . S
C369 C201 1.244 . S
C365 C63 1.248 . S
C383 C11 1.551 . S
C387 C214 1.683 . S
C405 C181 1.889 . S
C401 C44 1.946 . S
C419 C59 1.480 . S
C423 C171 1.476 . S
C437 C25 1.446 . S
C441 C193 1.430 . S
C459 C153 1.795 . S
C455 C82 1.818 . S
C473 C101 1.610 . S
C477 C174 1.575 . S
C491 C125 1.510 . S
C495 C211 1.607 . S
C509 C144 1.156 . S
C513 C221 1.238 . S
C527 C87 1.577 . S
C531 C191 1.677 . S
C549 C161 2.132 . S
C545 C97 2.193 . S
C567 C230 1.281 . S
C563 C120 1.314 . S
C585 C200 1.234 . S
C581 C135 1.287 . S
C599 C78 1.959 . S
C603 C213 2.009 . S
C621 C180 1.358 . S
C617 C116 1.393 . S
C639 C170 1.976 . S
C635 C139 1.974 . S
C653 C106 1.198 . S
C657 C194 1.320 . S
