# Generated by pormake.
# Topology zzz, (3,6)-cn, num edge types: 1
# Building blocks:
#     Node 0, Type 0, BuildingBlock: BELTOD_clean_linker_0, # of connection points: 3
#     Node 1, Type 0, BuildingBlock: BELTOD_clean_linker_0, # of connection points: 3
#     Node 2, Type 0, BuildingBlock: BELTOD_clean_linker_0, # of connection points: 3
#     Node 3, Type 0, BuildingBlock: BELTOD_clean_linker_0, # of connection points: 3
#     Node 4, Type 0, BuildingBlock: BELTOD_clean_linker_0, # of connection points: 3
#     Node 5, Type 0, BuildingBlock: BELTOD_clean_linker_0, # of connection points: 3
#     Node 6, Type 0, BuildingBlock: BELTOD_clean_linker_0, # of connection points: 3
#     Node 7, Type 0, BuildingBlock: BELTOD_clean_linker_0, # of connection points: 3
#     Node 8, Type 1, BuildingBlock: BETFEN_clean_sbu_0, # of connection points: 6
#     Node 9, Type 1, BuildingBlock: BETFEN_clean_sbu_0, # of connection points: 6
#     Node 10, Type 1, BuildingBlock: BETFEN_clean_sbu_0, # of connection points: 6
#     Node 11, Type 1, BuildingBlock: BETFEN_clean_sbu_0, # of connection points: 6
#     Edge 12, Type (0, 1), BuildingBlock: MIFKUJ_clean_linker_0, # of connection points: 2
#     Edge 13, Type (0, 1), BuildingBlock: MIFKUJ_clean_linker_0, # of connection points: 2
#     Edge 14, Type (0, 1), BuildingBlock: MIFKUJ_clean_linker_0, # of connection points: 2
#     Edge 15, Type (0, 1), BuildingBlock: MIFKUJ_clean_linker_0, # of connection points: 2
#     Edge 16, Type (0, 1), BuildingBlock: MIFKUJ_clean_linker_0, # of connection points: 2
#     Edge 17, Type (0, 1), BuildingBlock: MIFKUJ_clean_linker_0, # of connection points: 2
#     Edge 18, Type (0, 1), BuildingBlock: MIFKUJ_clean_linker_0, # of connection points: 2
#     Edge 19, Type (0, 1), BuildingBlock: MIFKUJ_clean_linker_0, # of connection points: 2
#     Edge 20, Type (0, 1), BuildingBlock: MIFKUJ_clean_linker_0, # of connection points: 2
#     Edge 21, Type (0, 1), BuildingBlock: MIFKUJ_clean_linker_0, # of connection points: 2
#     Edge 22, Type (0, 1), BuildingBlock: MIFKUJ_clean_linker_0, # of connection points: 2
#     Edge 23, Type (0, 1), BuildingBlock: MIFKUJ_clean_linker_0, # of connection points: 2
#     Edge 24, Type (0, 1), BuildingBlock: MIFKUJ_clean_linker_0, # of connection points: 2
#     Edge 25, Type (0, 1), BuildingBlock: MIFKUJ_clean_linker_0, # of connection points: 2
#     Edge 26, Type (0, 1), BuildingBlock: MIFKUJ_clean_linker_0, # of connection points: 2
#     Edge 27, Type (0, 1), BuildingBlock: MIFKUJ_clean_linker_0, # of connection points: 2
#     Edge 28, Type (0, 1), BuildingBlock: MIFKUJ_clean_linker_0, # of connection points: 2
#     Edge 29, Type (0, 1), BuildingBlock: MIFKUJ_clean_linker_0, # of connection points: 2
#     Edge 30, Type (0, 1), BuildingBlock: MIFKUJ_clean_linker_0, # of connection points: 2
#     Edge 31, Type (0, 1), BuildingBlock: MIFKUJ_clean_linker_0, # of connection points: 2
#     Edge 32, Type (0, 1), BuildingBlock: MIFKUJ_clean_linker_0, # of connection points: 2
#     Edge 33, Type (0, 1), BuildingBlock: MIFKUJ_clean_linker_0, # of connection points: 2
#     Edge 34, Type (0, 1), BuildingBlock: MIFKUJ_clean_linker_0, # of connection points: 2
#     Edge 35, Type (0, 1), BuildingBlock: MIFKUJ_clean_linker_0, # of connection points: 2
# Relax obj value: 0.401
# Max RMSD: 0.260
# Mean RMSD: 0.243
data_MOF--net-zzz--node1-BETFEN_clean_sbu_0--node2-BELTOD_clean_linker_0--edge1-MIFKUJ_clean_linker_0
_symmetry_space_group_name_H-M    P1
_symmetry_Int_Tables_number       1
_symmetry_cell_setting            triclinic
loop_
_symmetry_equiv_pos_as_xyz
'x, y, z'
_cell_length_a     71.177609
_cell_length_b     71.148871
_cell_length_c     21.470508
_cell_angle_alpha  90.006527
_cell_angle_beta   89.918533
_cell_angle_gamma 89.994616
loop_
_atom_site_label
_atom_site_type_symbol
_atom_site_fract_x
_atom_site_fract_y
_atom_site_fract_z
_atom_type_partial_charge
P0 P 0.71244 0.47801 0.34277 0.0
H1 H 0.72706 0.48205 0.4691 0.0
H2 H 0.75766 0.49208 0.50537 0.0
H3 H 0.76907 0.51663 0.32508 0.0
H4 H 0.7388 0.50546 0.28804 0.0
H5 H 0.67476 0.46453 0.31995 0.0
H6 H 0.65012 0.47374 0.24773 0.0
H7 H 0.68341 0.52132 0.18937 0.0
H8 H 0.70805 0.51218 0.26309 0.0
H9 H 0.73526 0.44516 0.37028 0.0
H10 H 0.7218 0.47906 0.20998 0.0
O11 O 0.70309 0.46502 0.39969 0.0
H12 H 0.76262 0.43258 0.31577 0.0
H13 H 0.74928 0.46721 0.15638 0.0
C14 C 0.73025 0.4932 0.3759 0.0
C15 C 0.73576 0.49023 0.43786 0.0
C16 C 0.75348 0.49598 0.45868 0.0
C17 C 0.76618 0.50496 0.41805 0.0
C18 C 0.75994 0.50939 0.35752 0.0
C19 C 0.74227 0.50343 0.33657 0.0
C20 C 0.69326 0.48774 0.29779 0.0
C21 C 0.67662 0.47726 0.29302 0.0
C22 C 0.66249 0.48253 0.2515 0.0
C23 C 0.66477 0.49827 0.21272 0.0
C24 C 0.68128 0.50906 0.21841 0.0
C25 C 0.69536 0.50389 0.26086 0.0
C26 C 0.72641 0.46297 0.29415 0.0
C27 C 0.73769 0.44927 0.32237 0.0
C28 C 0.7535 0.44229 0.29145 0.0
C29 C 0.75839 0.44917 0.23219 0.0
C30 C 0.74593 0.46145 0.20172 0.0
C31 C 0.73009 0.46829 0.23252 0.0
P32 P 0.02395 0.71236 0.3346 0.0
H33 H 0.01881 0.72566 0.46178 0.0
H34 H 0.0074 0.75556 0.50009 0.0
H35 H 0.98286 0.76713 0.32007 0.0
H36 H 0.99508 0.73722 0.2813 0.0
H37 H 0.04392 0.68241 0.27467 0.0
H38 H 0.03542 0.65844 0.19898 0.0
H39 H 0.97801 0.67811 0.20152 0.0
H40 H 0.98671 0.7022 0.27896 0.0
H41 H 0.05663 0.73432 0.37219 0.0
H42 H 0.02399 0.72539 0.20584 0.0
O43 O 0.0361 0.70188 0.39126 0.0
H44 H 0.07236 0.76099 0.32272 0.0
H45 H 0.03912 0.7522 0.15683 0.0
C46 C 0.00767 0.72895 0.36867 0.0
C47 C 0.01027 0.73418 0.43108 0.0
C48 C 0.00374 0.75149 0.45306 0.0
C49 C 0.99443 0.76409 0.41306 0.0
C50 C 0.99033 0.75804 0.35201 0.0
C51 C 0.99697 0.74069 0.33 0.0
C52 C 0.01599 0.6941 0.28241 0.0
C53 C 0.02944 0.68151 0.25947 0.0
C54 C 0.02458 0.66786 0.21579 0.0
C55 C 0.00607 0.66646 0.19358 0.0
C56 C 0.99238 0.67879 0.21788 0.0
C57 C 0.99733 0.69261 0.26187 0.0
C58 C 0.03944 0.72764 0.29223 0.0
C59 C 0.05333 0.73769 0.32425 0.0
C60 C 0.06212 0.75308 0.29619 0.0
C61 C 0.05693 0.75883 0.23591 0.0
C62 C 0.04374 0.74802 0.20282 0.0
C63 C 0.03504 0.73261 0.23085 0.0
P64 P 0.78881 0.02165 0.33565 0.0
H65 H 0.77709 0.0158 0.46473 0.0
H66 H 0.74701 0.00679 0.50828 0.0
H67 H 0.72896 0.98771 0.32673 0.0
H68 H 0.75879 0.99795 0.28282 0.0
H69 H 0.82775 0.03102 0.31232 0.0
H70 H 0.85063 0.02082 0.23528 0.0
H71 H 0.81129 0.97957 0.16663 0.0
H72 H 0.78834 0.98972 0.24517 0.0
H73 H 0.76993 0.05599 0.37399 0.0
H74 H 0.77706 0.02403 0.20493 0.0
O75 O 0.80023 0.03276 0.39268 0.0
H76 H 0.74456 0.07382 0.32539 0.0
H77 H 0.75153 0.04131 0.15686 0.0
C78 C 0.77052 0.00735 0.37037 0.0
C79 C 0.76698 0.00907 0.43444 0.0
C80 C 0.74957 0.00389 0.45953 0.0
C81 C 0.73522 0.99674 0.42115 0.0
C82 C 0.73941 0.99356 0.35778 0.0
C83 C 0.75678 0.99898 0.33263 0.0
C84 C 0.80633 0.011 0.28547 0.0
C85 C 0.82412 0.01942 0.28198 0.0
C86 C 0.83726 0.01358 0.23767 0.0
C87 C 0.83284 0.99935 0.19475 0.0
C88 C 0.8151 0.99063 0.19888 0.0
C89 C 0.80199 0.99635 0.2441 0.0
C90 C 0.77557 0.03883 0.29292 0.0
C91 C 0.76656 0.0533 0.32563 0.0
C92 C 0.7519 0.06334 0.29803 0.0
C93 C 0.74588 0.05886 0.23748 0.0
C94 C 0.75594 0.04533 0.20324 0.0
C95 C 0.77061 0.03536 0.23084 0.0
P96 P 0.47313 0.78881 0.35212 0.0
H97 H 0.46638 0.77142 0.4732 0.0
H98 H 0.47625 0.74151 0.51542 0.0
H99 H 0.51786 0.73652 0.36936 0.0
H100 H 0.507 0.76622 0.32519 0.0
H101 H 0.45725 0.82475 0.32103 0.0
H102 H 0.46877 0.85116 0.26135 0.0
H103 H 0.52444 0.82688 0.26097 0.0
H104 H 0.5125 0.8 0.3209 0.0
H105 H 0.44169 0.76359 0.32759 0.0
H106 H 0.48949 0.78551 0.22725 0.0
O107 O 0.45392 0.79466 0.39243 0.0
H108 H 0.43561 0.74161 0.24217 0.0
H109 H 0.48338 0.76381 0.14225 0.0
C110 C 0.48603 0.77135 0.39617 0.0
C111 C 0.47806 0.76428 0.45118 0.0
C112 C 0.48378 0.74697 0.47551 0.0
C113 C 0.49777 0.73622 0.44564 0.0
C114 C 0.50676 0.74407 0.39311 0.0
C115 C 0.50085 0.76137 0.36841 0.0
C116 C 0.48401 0.81043 0.32638 0.0
C117 C 0.4721 0.82534 0.31026 0.0
C118 C 0.47876 0.84056 0.27577 0.0
C119 C 0.49758 0.84127 0.25592 0.0
C120 C 0.50981 0.82674 0.27488 0.0
C121 C 0.50307 0.81144 0.30986 0.0
C122 C 0.46585 0.77639 0.2835 0.0
C123 C 0.45045 0.76416 0.28635 0.0
C124 C 0.44697 0.75165 0.23755 0.0
C125 C 0.45906 0.75106 0.18581 0.0
C126 C 0.47389 0.76399 0.18174 0.0
C127 C 0.4773 0.7765 0.23031 0.0
P128 P 0.2662 0.45739 0.08109 0.0
H129 H 0.25005 0.43319 0.9849 0.0
H130 H 0.22584 0.43934 0.90745 0.0
H131 H 0.23134 0.49895 0.94022 0.0
H132 H 0.2559 0.49268 0.0176 0.0
H133 H 0.29821 0.4318 0.08909 0.0
H134 H 0.32975 0.43658 0.12964 0.0
H135 H 0.32099 0.49665 0.1265 0.0
H136 H 0.28944 0.49172 0.08391 0.0
H137 H 0.22726 0.46926 0.09777 0.0
H138 H 0.2791 0.47353 0.20088 0.0
O139 O 0.26223 0.43486 0.0984 0.0
H140 H 0.21159 0.48862 0.17531 0.0
H141 H 0.26361 0.49356 0.27759 0.0
C142 C 0.25466 0.46245 0.00783 0.0
C143 C 0.24657 0.44764 0.97413 0.0
C144 C 0.23254 0.45117 0.93015 0.0
C145 C 0.22627 0.4696 0.91884 0.0
C146 C 0.23578 0.48458 0.94791 0.0
C147 C 0.24992 0.48102 0.99199 0.0
C148 C 0.29128 0.46139 0.08468 0.0
C149 C 0.30323 0.44605 0.09495 0.0
C150 C 0.32127 0.4488 0.11886 0.0
C151 C 0.3277 0.46697 0.13336 0.0
C152 C 0.31649 0.48245 0.11622 0.0
C153 C 0.29843 0.47966 0.09158 0.0
C154 C 0.25466 0.47086 0.14122 0.0
C155 C 0.23541 0.47468 0.13633 0.0
C156 C 0.22645 0.4858 0.18077 0.0
C157 C 0.23651 0.49316 0.23159 0.0
C158 C 0.25554 0.48834 0.23853 0.0
C159 C 0.26448 0.47709 0.19404 0.0
P160 P 0.03814 0.28102 0.98949 0.0
H161 H 0.033 0.26821 0.86104 0.0
H162 H 0.02168 0.23843 0.8211 0.0
H163 H 0.99752 0.22573 0.00114 0.0
H164 H 0.01013 0.25502 0.04178 0.0
H165 H 0.05099 0.31944 0.00599 0.0
H166 H 0.04163 0.34479 0.07557 0.0
H167 H 0.99521 0.31116 0.14169 0.0
H168 H 0.00463 0.28576 0.07129 0.0
H169 H 0.06235 0.24937 0.96333 0.0
H170 H 0.0437 0.27964 0.12616 0.0
O171 O 0.05227 0.28955 0.93419 0.0
H172 H 0.07205 0.22321 0.02853 0.0
H173 H 0.05428 0.25394 0.19211 0.0
C174 C 0.02223 0.2642 0.95441 0.0
C175 C 0.02466 0.2594 0.8915 0.0
C176 C 0.01815 0.24217 0.86856 0.0
C177 C 0.00891 0.2293 0.90796 0.0
C178 C 0.00496 0.23497 0.96954 0.0
C179 C 0.01172 0.25211 0.99261 0.0
C180 C 0.02838 0.3007 0.03236 0.0
C181 C 0.03848 0.31763 0.03411 0.0
C182 C 0.03312 0.33218 0.07414 0.0
C183 C 0.01765 0.33006 0.11431 0.0
C184 C 0.00727 0.31322 0.11163 0.0
C185 C 0.01256 0.2987 0.07092 0.0
C186 C 0.05203 0.26633 0.03963 0.0
C187 C 0.06114 0.25075 0.01343 0.0
C188 C 0.06675 0.23576 0.05096 0.0
C189 C 0.06355 0.23625 0.11559 0.0
C190 C 0.05644 0.25288 0.14229 0.0
C191 C 0.05051 0.26772 0.10453 0.0
P192 P 0.22267 0.05372 0.02818 0.0
H193 H 0.23606 0.06008 0.90065 0.0
H194 H 0.26473 0.04985 0.8488 0.0
H195 H 0.2739 0.00888 0.99395 0.0
H196 H 0.24509 0.01922 0.04578 0.0
H197 H 0.18881 0.0716 0.07144 0.0
H198 H 0.16155 0.06062 0.1282 0.0
H199 H 0.18086 1.00332 0.1082 0.0
H200 H 0.20872 0.01473 0.05173 0.0
H201 H 0.24981 0.08334 0.05574 0.0
H202 H 0.22793 0.03379 0.14589 0.0
O203 O 0.21772 0.07414 0.99356 0.0
H204 H 0.27473 0.08521 0.13354 0.0
H205 H 0.25308 0.03493 0.22131 0.0
C206 C 0.23829 0.04052 0.97753 0.0
C207 C 0.24377 0.04839 0.9203 0.0
C208 C 0.26033 0.04256 0.8906 0.0
C209 C 0.27192 0.02879 0.91772 0.0
C210 C 0.26554 0.01979 0.97229 0.0
C211 C 0.24886 0.02553 0.00165 0.0
C212 C 0.20068 0.044 0.05596 0.0
C213 C 0.18698 0.0566 0.07746 0.0
C214 C 0.17127 0.05025 0.1102 0.0
C215 C 0.16878 0.03101 0.12287 0.0
C216 C 0.18231 0.01825 0.09976 0.0
C217 C 0.19816 0.02471 0.06671 0.0
C218 C 0.23691 0.05853 0.09528 0.0
C219 C 0.25 0.07321 0.09338 0.0
C220 C 0.26438 0.07412 0.13752 0.0
C221 C 0.26613 0.06007 0.1833 0.0
C222 C 0.25212 0.04618 0.18753 0.0
C223 C 0.23765 0.04545 0.14396 0.0
P224 P 0.46588 0.21689 0.01524 0.0
H225 H 0.47363 0.22689 0.88508 0.0
H226 H 0.48367 0.2566 0.83946 0.0
H227 H 0.49945 0.27666 0.02191 0.0
H228 H 0.4902 0.24657 0.06677 0.0
H229 H 0.45296 0.17888 0.03713 0.0
H230 H 0.46269 0.15429 0.10864 0.0
H231 H 0.51069 0.18768 0.16255 0.0
H232 H 0.50065 0.21251 0.09027 0.0
H233 H 0.43745 0.24524 0.99319 0.0
H234 H 0.46504 0.22055 0.15215 0.0
O235 O 0.45159 0.20819 0.96083 0.0
H236 H 0.4312 0.27359 0.05365 0.0
H237 H 0.4592 0.24876 0.21189 0.0
C238 C 0.48105 0.23436 0.97955 0.0
C239 C 0.48 0.23732 0.91506 0.0
C240 C 0.48544 0.25455 0.88908 0.0
C241 C 0.49191 0.26934 0.9271 0.0
C242 C 0.49461 0.26568 0.99095 0.0
C243 C 0.48938 0.24833 0.01676 0.0
C244 C 0.47625 0.19743 0.05725 0.0
C245 C 0.4659 0.18074 0.06282 0.0
C246 C 0.4715 0.16662 0.10403 0.0
C247 C 0.48751 0.16891 0.14154 0.0
C248 C 0.49822 0.18548 0.13468 0.0
C249 C 0.49264 0.19961 0.09281 0.0
C250 C 0.45206 0.23093 0.0676 0.0
C251 C 0.44121 0.24544 0.04206 0.0
C252 C 0.43781 0.26174 0.07647 0.0
C253 C 0.44522 0.26359 0.13678 0.0
C254 C 0.45337 0.24782 0.16542 0.0
C255 C 0.45681 0.23158 0.13092 0.0
Pr256 Pr 0.01228 0.99021 0.71765 0.0
Pr257 Pr 0.99072 1.0034 0.59247 0.0
C258 C 0.02536 0.98173 0.83179 0.0
C259 C 0.03332 0.96528 0.8636 0.0
C260 C 0.04598 0.96778 0.9128 0.0
C261 C 0.05303 0.95222 0.94501 0.0
C262 C 0.04745 0.9339 0.92861 0.0
C263 C 0.03495 0.93152 0.87845 0.0
C264 C 0.02804 0.94705 0.84606 0.0
C265 C 0.03418 0.99446 0.61052 0.0
C266 C 0.9979 0.9575 0.61958 0.0
C267 C 0.98602 0.01598 0.47613 0.0
C268 C 0.99448 0.03222 0.44431 0.0
C269 C 0.99788 0.04884 0.47768 0.0
C270 C 0.00664 0.06404 0.44909 0.0
C271 C 0.01226 0.06298 0.38649 0.0
C272 C 0.00921 0.04621 0.35327 0.0
C273 C 1.00034 0.03092 0.38206 0.0
C274 C 0.96443 0.99433 0.68581 0.0
C275 C 1.00227 0.03595 0.69696 0.0
O276 O 0.00762 0.9805 0.81628 0.0
O277 O 0.0358 0.98958 0.78885 0.0
O278 O 0.02107 0.00531 0.62746 0.0
O279 O 0.03691 0.98116 0.6511 0.0
O280 O 0.99527 0.97093 0.57765 0.0
O281 O 1.00205 0.9612 0.67849 0.0
O282 O 0.99762 1.00224 0.4895 0.0
O283 O 0.97432 0.01997 0.52153 0.0
O284 O 0.98204 0.99353 0.68863 0.0
O285 O 0.95948 0.9997 0.63028 0.0
O286 O 0.00675 0.02239 0.73654 0.0
O287 O 0.99761 0.03247 0.63845 0.0
H288 H 0.05028 0.98178 0.92666 0.0
H289 H 0.06283 0.95456 0.98276 0.0
H290 H 0.03009 0.91767 0.8651 0.0
H291 H 0.01832 0.94481 0.80796 0.0
H292 H 0.99389 0.05007 0.52616 0.0
H293 H 0.00918 0.07662 0.47628 0.0
H294 H 0.01342 0.04503 0.30494 0.0
H295 H 0.99811 0.01809 0.3559 0.0
Pr296 Pr 0.51104 0.0133 0.75356 0.0
Pr297 Pr 0.49855 0.99023 0.63239 0.0
C298 C 0.52086 0.022 0.87107 0.0
C299 C 0.53594 0.03193 0.90389 0.0
C300 C 0.54553 0.04699 0.87609 0.0
C301 C 0.56071 0.05538 0.90661 0.0
C302 C 0.56662 0.04873 0.96515 0.0
C303 C 0.55672 0.0338 0.99299 0.0
C304 C 0.54151 0.02552 0.96264 0.0
C305 C 0.50568 0.03826 0.65317 0.0
C306 C 0.54461 0.99916 0.65682 0.0
C307 C 0.49041 0.97722 0.51823 0.0
C308 C 0.47416 0.98072 0.47714 0.0
C309 C 0.45877 0.96835 0.47761 0.0
C310 C 0.4419 0.97346 0.44925 0.0
C311 C 0.44015 0.99096 0.41954 0.0
C312 C 0.45601 1.00263 0.41477 0.0
C313 C 0.47285 0.99755 0.44313 0.0
C314 C 0.5003 0.96982 0.74348 0.0
C315 C 0.4657 0.00798 0.71941 0.0
O316 O 0.52571 0.00629 0.84385 0.0
O317 O 0.50924 0.03219 0.83804 0.0
O318 O 0.50343 0.02075 0.654 0.0
O319 O 0.51155 0.04374 0.70757 0.0
O320 O 0.53149 0.99108 0.6221 0.0
O321 O 0.54073 0.00832 0.70905 0.0
O322 O 0.5017 0.99146 0.52777 0.0
O323 O 0.48694 0.96766 0.56903 0.0
O324 O 0.51192 0.98209 0.72584 0.0
O325 O 0.48754 0.96699 0.70131 0.0
O326 O 0.47842 0.00786 0.76453 0.0
O327 O 0.47057 0.00525 0.66063 0.0
H328 H 0.54149 0.05205 0.83043 0.0
H329 H 0.56792 0.06694 0.88413 0.0
H330 H 0.56109 0.02805 0.03736 0.0
H331 H 0.53435 0.01379 0.98443 0.0
H332 H 0.45946 0.95513 0.50255 0.0
H333 H 0.43004 0.96395 0.45226 0.0
H334 H 0.45519 0.01615 0.392 0.0
H335 H 0.48452 0.00731 0.44103 0.0
Pr336 Pr 0.48764 0.5045 0.71083 0.0
Pr337 Pr 0.51343 0.49475 0.59298 0.0
C338 C 0.47034 0.51786 0.81286 0.0
C339 C 0.469 0.53604 0.84418 0.0
C340 C 0.45313 0.5402 0.88026 0.0
C341 C 0.45095 0.55807 0.9061 0.0
C342 C 0.46466 0.57196 0.89621 0.0
C343 C 0.48069 0.56762 0.86071 0.0
C344 C 0.48281 0.5498 0.83465 0.0
C345 C 0.46901 0.49215 0.60434 0.0
C346 C 0.5046 0.5397 0.62147 0.0
C347 C 0.52287 0.48325 0.47773 0.0
C348 C 0.52668 0.46519 0.44747 0.0
C349 C 0.53236 0.44955 0.48247 0.0
C350 C 0.53235 0.43165 0.45568 0.0
C351 C 0.52631 0.42906 0.3938 0.0
C352 C 0.52178 0.44502 0.35804 0.0
C353 C 0.52197 0.46291 0.38471 0.0
C354 C 0.53641 0.50055 0.69739 0.0
C355 C 0.50114 0.46068 0.6941 0.0
O356 O 0.48674 0.50951 0.81464 0.0
O357 O 0.46226 0.51704 0.75824 0.0
O358 O 0.48258 0.50358 0.60538 0.0
O359 O 0.4645 0.48674 0.66019 0.0
O360 O 0.51112 0.52734 0.58069 0.0
O361 O 0.49663 0.53455 0.6747 0.0
O362 O 0.5055 0.48545 0.49622 0.0
O363 O 0.53523 0.48937 0.51802 0.0
O364 O 0.51877 0.50148 0.69511 0.0
O365 O 0.54308 0.49675 0.64237 0.0
O366 O 0.49557 0.47364 0.7341 0.0
O367 O 0.50644 0.46486 0.63638 0.0
H368 H 0.44229 0.52973 0.88753 0.0
H369 H 0.43854 0.56105 0.93364 0.0
H370 H 0.49134 0.57816 0.85169 0.0
H371 H 0.49503 0.54686 0.80609 0.0
H372 H 0.53593 0.45105 0.53127 0.0
H373 H 0.53632 0.41977 0.4843 0.0
H374 H 0.51683 0.44366 0.31064 0.0
H375 H 0.51737 0.47483 0.35729 0.0
Pr376 Pr 0.99346 0.4891 0.71409 0.0
Pr377 Pr 0.00636 0.51251 0.58257 0.0
C378 C 0.98406 0.48194 0.83301 0.0
C379 C 0.96849 0.48484 0.87645 0.0
C380 C 0.96827 0.47483 0.93251 0.0
C381 C 0.95224 0.4749 0.97 0.0
C382 C 0.93617 0.48502 0.95185 0.0
C383 C 0.93694 0.49602 0.89738 0.0
C384 C 0.95298 0.49586 0.85975 0.0
C385 C 0.99929 0.46491 0.61214 0.0
C386 C 0.96097 0.50419 0.61104 0.0
C387 C 0.02251 0.52205 0.47503 0.0
C388 C 0.04205 0.52852 0.46688 0.0
C389 C 0.04598 0.54567 0.43725 0.0
C390 C 0.06428 0.55297 0.43775 0.0
C391 C 0.07875 0.54333 0.46885 0.0
C392 C 0.07483 0.52601 0.49712 0.0
C393 C 0.05674 0.51867 0.49606 0.0
C394 C 1.00102 0.53606 0.68662 0.0
C395 C 0.03925 0.49638 0.68304 0.0
O396 O 0.99367 0.49684 0.81632 0.0
O397 O 0.98065 0.47032 0.78706 0.0
O398 O 1.00101 0.48252 0.61406 0.0
O399 O 0.99466 0.45886 0.66734 0.0
O400 O 0.97407 0.50772 0.56828 0.0
O401 O 0.96485 0.49941 0.66975 0.0
O402 O 0.0205 0.50448 0.49234 0.0
O403 O 0.01143 0.53364 0.50525 0.0
O404 O 0.99877 0.51867 0.6821 0.0
O405 O 0.00666 0.54243 0.63303 0.0
O406 O 0.02638 0.49001 0.72258 0.0
O407 O 0.03509 0.5045 0.62921 0.0
H408 H 0.98016 0.46622 0.94582 0.0
H409 H 0.9521 0.46613 0.0112 0.0
H410 H 0.92492 0.50421 0.88267 0.0
H411 H 0.95298 0.50368 0.81644 0.0
H412 H 0.03485 0.55359 0.41507 0.0
H413 H 0.06706 0.56626 0.41493 0.0
H414 H 0.08584 0.51803 0.51981 0.0
H415 H 0.05425 0.50543 0.51949 0.0
H416 H 0.16851 1.00329 0.21261 0.0
H417 H 0.14341 0.99578 0.28649 0.0
H418 H 0.10792 0.03763 0.2017 0.0
H419 H 0.13264 0.04481 0.1264 0.0
H420 H 0.10947 0.0416 0.32889 0.0
H421 H 0.09762 0.99237 0.18262 0.0
H422 H 0.10515 0.96524 0.11559 0.0
H423 H 0.12194 0.9334 0.27599 0.0
H424 H 0.11474 0.96043 0.34395 0.0
H425 H 0.03032 0.02106 0.51887 0.0
H426 H 0.05033 0.02579 0.42733 0.0
H427 H 0.08557 0.97971 0.48604 0.0
H428 H 0.06495 0.97429 0.57537 0.0
H429 H 0.08254 0.9783 0.36622 0.0
H430 H 0.09684 0.02816 0.51146 0.0
H431 H 0.08811 0.05464 0.57979 0.0
H432 H 0.06666 0.08495 0.42234 0.0
H433 H 0.07537 0.05867 0.353 0.0
C434 C 0.15523 0.0106 0.2085 0.0
C435 C 0.15277 0.02479 0.16346 0.0
C436 C 0.14089 0.00635 0.25117 0.0
C437 C 0.12376 0.01619 0.24993 0.0
C438 C 0.12105 0.02995 0.20401 0.0
C439 C 0.13528 0.03408 0.16104 0.0
C440 C 0.10904 0.01277 0.29828 0.0
C441 C 0.10339 0.0278 0.33642 0.0
C442 C 0.10131 0.99473 0.30909 0.0
C443 C 0.10582 0.9785 0.26832 0.0
C444 C 0.1031 0.97965 0.20355 0.0
C445 C 0.10726 0.96427 0.16539 0.0
C446 C 0.11407 0.94763 0.19149 0.0
C447 C 0.11669 0.94631 0.25582 0.0
C448 C 0.11255 0.96165 0.2942 0.0
C449 C 0.04218 0.01181 0.51174 0.0
C450 C 0.04603 0.9973 0.55434 0.0
C451 C 0.05376 0.01461 0.45963 0.0
C452 C 0.06978 1.00333 0.45002 0.0
C453 C 0.07338 0.98863 0.4921 0.0
C454 C 0.06161 0.98562 0.54345 0.0
C455 C 0.08315 0.00706 0.39753 0.0
C456 C 0.08857 0.99211 0.3586 0.0
C457 C 0.09079 0.02516 0.3862 0.0
C458 C 0.08651 0.04137 0.42721 0.0
C459 C 0.09027 0.04049 0.49143 0.0
C460 C 0.08536 0.05546 0.53031 0.0
C461 C 0.07679 0.07145 0.50543 0.0
C462 C 0.07331 0.07258 0.44151 0.0
C463 C 0.07826 0.05767 0.40237 0.0
H464 H 0.07287 0.08295 0.53576 0.0
H465 H 0.11727 0.93573 0.16187 0.0
H466 H 0.49923 0.17482 0.26178 0.0
H467 H 0.50367 0.15148 0.34401 0.0
H468 H 0.49009 0.10716 0.21466 0.0
H469 H 0.48568 0.13043 0.13212 0.0
H470 H 0.47142 0.10214 0.31997 0.0
H471 H 0.53541 0.11401 0.26677 0.0
H472 H 0.56363 0.13314 0.24616 0.0
H473 H 0.56202 0.15435 0.43333 0.0
H474 H 0.53363 0.13553 0.45484 0.0
H475 H 0.49662 0.02849 0.53317 0.0
H476 H 0.49484 0.04918 0.44192 0.0
H477 H 0.50864 0.09675 0.55789 0.0
H478 H 0.51099 0.07604 0.64829 0.0
H479 H 0.52792 0.09863 0.45423 0.0
H480 H 0.46332 0.08489 0.50612 0.0
H481 H 0.43608 0.06416 0.52348 0.0
H482 H 0.43877 0.04571 0.3333 0.0
H483 H 0.46657 0.06561 0.31557 0.0
C484 C 0.49756 0.16009 0.25039 0.0
C485 C 0.4921 0.15456 0.19013 0.0
C486 C 0.50004 0.14672 0.29764 0.0
C487 C 0.4973 0.12747 0.28571 0.0
C488 C 0.4922 0.12189 0.22529 0.0
C489 C 0.48968 0.13524 0.17808 0.0
C490 C 0.49908 0.11327 0.33667 0.0
C491 C 0.48389 0.10117 0.34876 0.0
C492 C 0.51522 0.11214 0.37496 0.0
C493 C 0.53228 0.12349 0.36222 0.0
C494 C 0.54098 0.12287 0.30338 0.0
C495 C 0.55703 0.13363 0.29157 0.0
C496 C 0.56458 0.14499 0.33835 0.0
C497 C 0.55614 0.14556 0.39711 0.0
C498 C 0.54008 0.13484 0.40916 0.0
C499 C 0.49931 0.04334 0.53898 0.0
C500 C 0.50399 0.05062 0.59782 0.0
C501 C 0.4982 0.0552 0.48688 0.0
C502 C 0.50144 0.07465 0.49285 0.0
C503 C 0.50611 0.08185 0.55178 0.0
C504 C 0.50737 0.06999 0.60358 0.0
C505 C 0.50015 0.08761 0.4382 0.0
C506 C 0.51545 0.09951 0.42537 0.0
C507 C 0.48414 0.08842 0.39896 0.0
C508 C 0.46727 0.07655 0.40979 0.0
C509 C 0.45828 0.07622 0.4682 0.0
C510 C 0.44274 0.06458 0.47815 0.0
C511 C 0.43578 0.05349 0.42966 0.0
C512 C 0.44425 0.05417 0.371 0.0
C513 C 0.45997 0.06554 0.36107 0.0
H514 H 0.42385 0.04437 0.4375 0.0
H515 H 0.57701 0.15331 0.32912 0.0
H516 H 0.33772 0.44615 0.23452 0.0
H517 H 0.36376 0.45123 0.30592 0.0
H518 H 0.38191 0.4989 0.19758 0.0
H519 H 0.35577 0.49374 0.12461 0.0
H520 H 0.41216 0.47468 0.24116 0.0
H521 H 0.35887 0.50814 0.32126 0.0
H522 H 0.32574 0.51188 0.35251 0.0
H523 H 0.33223 0.46843 0.4896 0.0
H524 H 0.36535 0.46423 0.45846 0.0
H525 H 0.47061 0.50932 0.49008 0.0
H526 H 0.44861 0.50557 0.40315 0.0
H527 H 0.41844 0.46334 0.50722 0.0
H528 H 0.44009 0.46737 0.59447 0.0
H529 H 0.39468 0.48754 0.46086 0.0
H530 H 0.44736 0.45316 0.38042 0.0
H531 H 0.48016 0.44808 0.34775 0.0
H532 H 0.47503 0.49199 0.21165 0.0
H533 H 0.44223 0.49753 0.24416 0.0
C534 C 0.34744 0.4575 0.22478 0.0
C535 C 0.34466 0.46948 0.1734 0.0
C536 C 0.36226 0.46047 0.26611 0.0
C537 C 0.37471 0.47552 0.2574 0.0
C538 C 0.37245 0.4872 0.20517 0.0
C539 C 0.35745 0.4843 0.16376 0.0
C540 C 0.38935 0.47942 0.30511 0.0
C541 C 0.40841 0.47783 0.28903 0.0
C542 C 0.38441 0.48313 0.36779 0.0
C543 C 0.36456 0.48577 0.38716 0.0
C544 C 0.3532 0.49929 0.35775 0.0
C545 C 0.33443 0.5015 0.37549 0.0
C546 C 0.32687 0.49037 0.42292 0.0
C547 C 0.3381 0.47704 0.45283 0.0
C548 C 0.35688 0.47474 0.43519 0.0
C549 C 0.4594 0.49909 0.49403 0.0
C550 C 0.45702 0.48867 0.54915 0.0
C551 C 0.44685 0.49692 0.44423 0.0
C552 C 0.43183 0.48412 0.44836 0.0
C553 C 0.42981 0.47338 0.50288 0.0
C554 C 0.44225 0.47563 0.5527 0.0
C555 C 0.41764 0.48247 0.39751 0.0
C556 C 0.39857 0.48453 0.41301 0.0
C557 C 0.42262 0.47911 0.33449 0.0
C558 C 0.44239 0.47589 0.31519 0.0
C559 C 0.45328 0.46186 0.34394 0.0
C560 C 0.47187 0.45888 0.32538 0.0
C561 C 0.47969 0.46974 0.27772 0.0
C562 C 0.46895 0.48361 0.24859 0.0
C563 C 0.45035 0.48666 0.26705 0.0
H564 H 0.49406 0.46738 0.26318 0.0
H565 H 0.31233 0.4921 0.43658 0.0
H566 H 0.01703 0.36832 0.09752 0.0
H567 H 0.01246 0.3927 0.17649 0.0
H568 H 0.00422 0.34997 0.31638 0.0
H569 H 0.00854 0.32555 0.23746 0.0
H570 H 0.98027 0.37751 0.33509 0.0
H571 H 0.04689 0.37403 0.29698 0.0
H572 H 0.07564 0.37475 0.23281 0.0
H573 H 0.06323 0.43134 0.17683 0.0
H574 H 0.03425 0.43086 0.24004 0.0
H575 H 1.00092 0.4269 0.61114 0.0
H576 H 1.00254 0.40588 0.52136 0.0
H577 H 1.00327 0.45369 0.39797 0.0
H578 H 1.0012 0.47485 0.48829 0.0
H579 H 0.0297 0.42584 0.36531 0.0
H580 H 0.9641 0.4298 0.41074 0.0
H581 H 0.93586 0.42888 0.47727 0.0
H582 H 0.94686 0.37108 0.52163 0.0
H583 H 0.97535 0.37172 0.45606 0.0
C584 C 0.01419 0.36411 0.14509 0.0
C585 C 0.01325 0.34495 0.16115 0.0
C586 C 0.01162 0.37808 0.1903 0.0
C587 C 0.00833 0.37324 0.25285 0.0
C588 C 0.00677 0.35412 0.26857 0.0
C589 C 0.00918 0.34014 0.22329 0.0
C590 C 0.00689 0.38799 0.30221 0.0
C591 C 0.99119 0.38795 0.34195 0.0
C592 C 0.02085 0.402 0.31049 0.0
C593 C 0.0383 0.40233 0.27268 0.0
C594 C 0.05022 0.38658 0.27061 0.0
C595 C 0.06657 0.38695 0.23447 0.0
C596 C 0.07123 0.40306 0.20062 0.0
C597 C 0.05958 0.41886 0.20298 0.0
C598 C 0.0432 0.41855 0.23898 0.0
C599 C 1.0015 0.43298 0.56492 0.0
C600 C 1.00122 0.45258 0.5568 0.0
C601 C 1.00237 0.42093 0.51359 0.0
C602 C 1.00291 0.42817 0.45281 0.0
C603 C 1.00295 0.44777 0.44444 0.0
C604 C 1.00194 0.45988 0.49604 0.0
C605 C 1.00326 0.41512 0.39851 0.0
C606 C 0.01873 0.41549 0.35796 0.0
C607 C 0.98914 0.40135 0.38964 0.0
C608 C 0.97195 0.40086 0.42886 0.0
C609 C 0.96059 0.41693 0.43505 0.0
C610 C 0.94452 0.41645 0.47253 0.0
C611 C 0.93959 0.39994 0.50376 0.0
C612 C 0.95071 0.38386 0.49745 0.0
C613 C 0.9668 0.38427 0.46007 0.0
H614 H 0.92715 0.3996 0.53276 0.0
H615 H 0.0839 0.40333 0.17267 0.0
H616 H 0.82553 0.99443 0.07053 0.0
H617 H 0.8482 0.99037 0.98587 0.0
H618 H 0.8935 0.9898 0.11916 0.0
H619 H 0.87088 0.99416 0.20382 0.0
H620 H 0.90234 0.01219 0.02848 0.0
H621 H 0.8788 0.94938 0.03795 0.0
H622 H 0.85481 0.92438 0.03957 0.0
H623 H 0.83603 0.94097 0.85773 0.0
H624 H 0.85975 0.96624 0.85535 0.0
H625 H 0.97283 0.98817 0.80844 0.0
H626 H 0.95093 0.98557 0.89608 0.0
H627 H 0.90426 0.99185 0.76985 0.0
H628 H 0.92617 0.99415 0.68208 0.0
H629 H 0.89701 0.96521 0.85867 0.0
H630 H 0.92016 0.02895 0.85298 0.0
H631 H 0.94502 0.0531 0.85135 0.0
H632 H 0.96527 0.03367 0.0283 0.0
H633 H 0.94069 0.00921 0.03051 0.0
C634 C 0.84028 0.99306 0.08191 0.0
C635 C 0.84638 0.99463 0.14399 0.0
C636 C 0.85327 0.99074 0.03338 0.0
C637 C 0.87265 0.98964 0.04587 0.0
C638 C 0.87869 0.99069 0.10806 0.0
C639 C 0.86573 0.99316 0.15649 0.0
C640 C 0.88666 0.98843 0.99409 0.0
C641 C 0.90131 1.00168 0.99202 0.0
C642 C 0.88522 0.97501 0.94551 0.0
C643 C 0.87094 0.95982 0.94674 0.0
C644 C 0.86946 0.94779 0.99851 0.0
C645 C 0.85592 0.93355 0.99952 0.0
C646 C 0.84387 0.93112 0.94885 0.0
C647 C 0.84536 0.94288 0.89698 0.0
C648 C 0.85886 0.95715 0.89575 0.0
C649 C 0.95793 0.98871 0.79933 0.0
C650 C 0.95126 0.99136 0.73844 0.0
C651 C 0.94539 0.98735 0.84948 0.0
C652 C 0.92591 0.98873 0.83975 0.0
C653 C 0.9192 0.99075 0.77862 0.0
C654 C 0.93175 0.99213 0.72851 0.0
C655 C 0.91256 0.98894 0.89333 0.0
C656 C 0.89805 0.97558 0.89554 0.0
C657 C 0.91416 1.00218 0.94228 0.0
C658 C 0.9287 0.01714 0.94162 0.0
C659 C 0.92998 0.02976 0.89137 0.0
C660 C 0.94401 0.0435 0.89035 0.0
C661 C 0.95675 0.04488 0.93961 0.0
C662 C 0.95541 0.03257 0.99013 0.0
C663 C 0.94143 0.01877 0.99131 0.0
H664 H 0.96762 0.05552 0.93869 0.0
H665 H 0.83341 0.92008 0.94972 0.0
H666 H 0.52114 0.83776 0.15498 0.0
H667 H 0.52703 0.8608 0.07292 0.0
H668 H 0.49217 0.901 0.16942 0.0
H669 H 0.48722 0.87851 0.25331 0.0
H670 H 0.5039 0.87408 0.99498 0.0
H671 H 0.50146 0.94546 0.1286 0.0
H672 H 0.51209 0.95863 0.22881 0.0
H673 H 0.55489 0.91627 0.24107 0.0
H674 H 0.5447 0.903 0.14056 0.0
H675 H 0.47488 0.94529 0.7918 0.0
H676 H 0.4786 0.92466 0.88193 0.0
H677 H 0.53431 0.94669 0.9123 0.0
H678 H 0.53045 0.96771 0.82259 0.0
H679 H 0.51758 0.94201 0.02041 0.0
H680 H 0.52758 0.90343 0.84297 0.0
H681 H 0.52084 0.88962 0.74007 0.0
H682 H 0.47017 0.865 0.81184 0.0
H683 H 0.47646 0.87889 0.915 0.0
C684 C 0.51524 0.8517 0.15991 0.0
C685 C 0.5036 0.85616 0.21088 0.0
C686 C 0.51844 0.86484 0.1124 0.0
C687 C 0.51007 0.88274 0.11456 0.0
C688 C 0.49907 0.88746 0.16666 0.0
C689 C 0.49604 0.87443 0.21445 0.0
C690 C 0.51145 0.89582 0.06024 0.0
C691 C 0.50702 0.8889 1.00074 0.0
C692 C 0.51587 0.91516 0.06692 0.0
C693 C 0.5222 0.92314 0.12723 0.0
C694 C 0.5132 0.93901 0.15252 0.0
C695 C 0.51913 0.94648 0.20942 0.0
C696 C 0.53412 0.93826 0.24136 0.0
C697 C 0.54324 0.92258 0.21639 0.0
C698 C 0.53737 0.91506 0.1595 0.0
C699 C 0.48789 0.9458 0.81783 0.0
C700 C 0.5024 0.95806 0.8 0.0
C701 C 0.49005 0.93393 0.86924 0.0
C702 C 0.50688 0.93381 0.90343 0.0
C703 C 0.52122 0.94644 0.88667 0.0
C704 C 0.519 0.95846 0.83539 0.0
C705 C 0.50949 0.9203 0.95593 0.0
C706 C 0.51464 0.92715 0.01487 0.0
C707 C 0.50625 0.90078 0.94853 0.0
C708 C 0.50243 0.89233 0.88661 0.0
C709 C 0.51493 0.89518 0.83671 0.0
C710 C 0.5112 0.88732 0.77834 0.0
C711 C 0.49507 0.87647 0.76939 0.0
C712 C 0.48265 0.87342 0.81883 0.0
C713 C 0.4863 0.88127 0.87729 0.0
H714 H 0.4922 0.8704 0.72417 0.0
H715 H 0.53869 0.94407 0.28541 0.0
H716 H 0.67074 0.50689 0.09011 0.0
H717 H 0.64733 0.51031 0.00777 0.0
H718 H 0.60296 0.50234 0.14237 0.0
H719 H 0.62641 0.49851 0.2247 0.0
H720 H 0.59581 0.48186 0.04599 0.0
H721 H 0.61253 0.5462 0.07213 0.0
H722 H 0.63358 0.57359 0.08111 0.0
H723 H 0.65408 0.56382 0.89573 0.0
H724 H 0.63333 0.53621 0.88592 0.0
H725 H 0.52499 0.50359 0.81919 0.0
H726 H 0.54505 0.50626 0.91188 0.0
H727 H 0.5943 0.50592 0.79461 0.0
H728 H 0.57439 0.50322 0.70237 0.0
H729 H 0.59657 0.53265 0.88777 0.0
H730 H 0.58088 0.46672 0.86719 0.0
H731 H 0.55894 0.44 0.85913 0.0
H732 H 0.53535 0.45404 0.03733 0.0
H733 H 0.55696 0.48104 0.04599 0.0
C734 C 0.65599 0.50623 0.10238 0.0
C735 C 0.65046 0.50247 0.16402 0.0
C736 C 0.64257 0.50819 0.05519 0.0
C737 C 0.62327 0.50678 0.06867 0.0
C738 C 0.61772 0.50345 0.13053 0.0
C739 C 0.63114 0.50129 0.17762 0.0
C740 C 0.60899 0.50781 0.01782 0.0
C741 C 0.59579 0.4932 0.01219 0.0
C742 C 0.609 0.52241 0.97287 0.0
C743 C 0.62148 0.53903 0.9785 0.0
C744 C 0.62162 0.54981 0.03344 0.0
C745 C 0.63348 0.56539 0.03865 0.0
C746 C 0.64518 0.57042 0.98908 0.0
C747 C 0.64502 0.5599 0.93412 0.0
C748 C 0.63319 0.5443 0.92868 0.0
C749 C 0.54008 0.50423 0.81333 0.0
C750 C 0.54813 0.50314 0.75364 0.0
C751 C 0.55153 0.5057 0.86624 0.0
C752 C 0.57121 0.50618 0.86023 0.0
C753 C 0.57918 0.50561 0.80045 0.0
C754 C 0.56778 0.50399 0.74777 0.0
C755 C 0.58366 0.50665 0.91588 0.0
C756 C 0.59651 0.5215 0.92222 0.0
C757 C 0.58323 0.49238 0.96178 0.0
C758 C 0.57039 0.47602 0.95691 0.0
C759 C 0.57091 0.46419 0.90443 0.0
C760 C 0.55855 0.44899 0.89978 0.0
C761 C 0.54572 0.44535 0.9476 0.0
C762 C 0.54527 0.45689 1.00027 0.0
C763 C 0.55757 0.47214 0.00508 0.0
H764 H 0.53616 0.43358 0.9439 0.0
H765 H 0.65436 0.58249 0.9932 0.0
H766 H 0.02647 0.6592 0.08895 0.0
H767 H 0.02053 0.63582 0.00849 0.0
H768 H 0.96969 0.61894 0.10247 0.0
H769 H 0.97577 0.64237 0.18458 0.0
H770 H 0.99145 0.58797 0.0597 0.0
H771 H 0.96506 0.64397 0.97625 0.0
H772 H 0.9639 0.67761 0.94898 0.0
H773 H 0.01154 0.67068 0.82823 0.0
H774 H 0.01317 0.63705 0.85547 0.0
H775 H 0.97642 0.53122 0.78392 0.0
H776 H 0.97167 0.5524 0.87298 0.0
H777 H 0.01668 0.58776 0.80578 0.0
H778 H 0.02048 0.56736 0.71546 0.0
H779 H 0.99014 0.60897 0.83945 0.0
H780 H 0.01927 0.55382 0.93891 0.0
H781 H 0.0193 0.51984 0.96221 0.0
H782 H 0.96524 0.52492 0.04958 0.0
H783 H 0.96486 0.55892 0.02648 0.0
C784 C 0.01405 0.65048 0.09291 0.0
C785 C 1.00163 0.65263 0.14343 0.0
C786 C 0.01062 0.63716 0.04659 0.0
C787 C 0.99462 0.62566 0.04915 0.0
C788 C 0.98213 0.62766 0.09953 0.0
C789 C 0.98553 0.64115 0.14605 0.0
C790 C 0.99114 0.61188 0.99812 0.0
C791 C 0.99085 0.59254 0.01156 0.0
C792 C 0.99031 0.61778 0.93525 0.0
C793 C 0.98929 0.63799 0.9182 0.0
C794 C 0.97536 0.64964 0.94418 0.0
C795 C 0.97461 0.66871 0.92868 0.0
C796 C 0.98765 0.67628 0.88696 0.0
C797 C 1.00144 0.66479 0.86054 0.0
C798 C 1.00227 0.64572 0.87592 0.0
C799 C 0.98536 0.54344 0.78884 0.0
C800 C 0.99889 0.54764 0.74325 0.0
C801 C 0.98269 0.55555 0.83979 0.0
C802 C 0.99397 0.57169 0.84699 0.0
C803 C 0.00768 0.57555 0.80155 0.0
C804 C 0.00995 0.56381 0.75002 0.0
C805 C 0.9916 0.58497 0.90049 0.0
C806 C 0.9906 0.60431 0.88753 0.0
C807 C 0.99121 0.57901 0.96356 0.0
C808 C 0.99199 0.55886 0.98071 0.0
C809 C 0.00743 0.54768 0.96328 0.0
C810 C 0.00749 0.52843 0.97634 0.0
C811 C 0.99227 0.52022 0.00725 0.0
C812 C 0.97702 0.5313 0.02567 0.0
C813 C 0.97689 0.55057 0.01276 0.0
H814 H 0.99229 0.5053 0.01697 0.0
H815 H 0.98705 0.69105 0.87504 0.0
H816 H 0.08953 0.20752 0.10725 0.0
H817 H 0.08738 0.17641 0.156 0.0
H818 H 0.03771 0.19403 0.25537 0.0
H819 H 0.03939 0.22466 0.20632 0.0
H820 H 0.06057 0.17328 0.32828 0.0
H821 H 0.03566 0.17146 0.11826 0.0
H822 H 0.0371 0.17363 0.00388 0.0
H823 H 0.07821 0.12953 0.99883 0.0
H824 H 0.07753 0.12753 0.11358 0.0
H825 H 1.00072 0.09929 0.39404 0.0
H826 H 0.01597 0.12705 0.35109 0.0
H827 H 0.05891 0.09215 0.26865 0.0
H828 H 0.0433 0.06406 0.31068 0.0
H829 H 0.04754 0.11907 0.1895 0.0
H830 H 0.06964 0.11894 0.40049 0.0
H831 H 0.06632 0.1162 0.51459 0.0
H832 H 0.02863 0.1633 0.51625 0.0
H833 H 0.03164 0.16625 0.40217 0.0
C834 C 0.07826 0.20481 0.13999 0.0
C835 C 0.06462 0.21864 0.15271 0.0
C836 C 0.07709 0.18705 0.1678 0.0
C837 C 0.06228 0.18289 0.20876 0.0
C838 C 0.0493 0.19698 0.22408 0.0
C839 C 0.05039 0.2146 0.19623 0.0
C840 C 0.05927 0.16369 0.23327 0.0
C841 C 0.05781 0.1614 0.29795 0.0
C842 C 0.05613 0.14807 0.19362 0.0
C843 C 0.0568 0.14959 0.12469 0.0
C844 C 0.04522 0.16242 0.09292 0.0
C845 C 0.04585 0.16357 0.02795 0.0
C846 C 0.0577 0.15171 0.99406 0.0
C847 C 0.06905 0.13873 0.02514 0.0
C848 C 0.06861 0.13764 0.09016 0.0
C849 C 0.01347 0.09751 0.36703 0.0
C850 C 0.02103 0.07955 0.3566 0.0
C851 C 0.02222 0.11339 0.34273 0.0
C852 C 0.0389 0.11172 0.30828 0.0
C853 C 0.04617 0.09376 0.29578 0.0
C854 C 0.03725 0.07776 0.31962 0.0
C855 C 0.04824 0.12888 0.28435 0.0
C856 C 0.05089 0.13078 0.21991 0.0
C857 C 0.05238 0.14421 0.32405 0.0
C858 C 0.05079 0.14272 0.3928 0.0
C859 C 0.06056 0.12862 0.42521 0.0
C860 C 0.05874 0.12704 0.48985 0.0
C861 C 0.04721 0.1395 0.52261 0.0
C862 C 0.03755 0.15365 0.49083 0.0
C863 C 0.03936 0.15532 0.42621 0.0
H864 H 0.0458 0.13822 0.57263 0.0
H865 H 0.05807 0.15255 0.94373 0.0
H866 H 0.30199 0.0669 0.14366 0.0
H867 H 0.33098 0.05724 0.19365 0.0
H868 H 0.29967 0.03706 0.35228 0.0
H869 H 0.27047 0.04786 0.30421 0.0
H870 H 0.33286 0.05003 0.389 0.0
H871 H 0.31098 0.00761 0.23526 0.0
H872 H 0.29986 0.99599 0.13363 0.0
H873 H 0.35189 0.0127 0.04866 0.0
H874 H 0.36316 0.02483 0.14948 0.0
H875 H 0.40625 0.98711 0.47802 0.0
H876 H 0.37594 0.99971 0.4453 0.0
H877 H 0.402 0.02389 0.28232 0.0
H878 H 0.43213 0.01032 0.31274 0.0
H879 H 0.36987 0.00709 0.25407 0.0
H880 H 0.38967 0.0516 0.41666 0.0
H881 H 0.40022 0.05851 0.52383 0.0
H882 H 0.3505 0.03248 0.59737 0.0
H883 H 0.3397 0.0254 0.49067 0.0
C884 C 0.3012 0.06111 0.19022 0.0
C885 C 0.28378 0.05793 0.21948 0.0
C886 C 0.31783 0.05533 0.21838 0.0
C887 C 0.31739 0.04589 0.2757 0.0
C888 C 0.30028 0.04409 0.30757 0.0
C889 C 0.28359 0.05013 0.27977 0.0
C890 C 0.33454 0.03652 0.29925 0.0
C891 C 0.34088 0.04054 0.35968 0.0
C892 C 0.34488 0.02393 0.26128 0.0
C893 C 0.33786 0.01729 0.19993 0.0
C894 C 0.31996 0.00905 0.19476 0.0
C895 C 0.31364 1.00233 0.1373 0.0
C896 C 0.32517 0.00358 0.08476 0.0
C897 C 0.34296 0.01174 0.08939 0.0
C898 C 0.34932 0.01855 0.14668 0.0
C899 C 0.40546 0.99481 0.43459 0.0
C900 C 0.42159 0.99772 0.39788 0.0
C901 C 0.38819 1.00229 0.41656 0.0
C902 C 0.3868 0.01308 0.36211 0.0
C903 C 0.4028 0.01572 0.32483 0.0
C904 C 0.42002 0.00806 0.34241 0.0
C905 C 0.36862 0.02122 0.34259 0.0
C906 C 0.36193 0.01674 0.28309 0.0
C907 C 0.3578 0.03298 0.38194 0.0
C908 C 0.36397 0.03786 0.44583 0.0
C909 C 0.38104 0.04732 0.45576 0.0
C910 C 0.38705 0.05127 0.51636 0.0
C911 C 0.37609 0.04586 0.56736 0.0
C912 C 0.35899 0.03665 0.55784 0.0
C913 C 0.35289 0.03273 0.49732 0.0
H914 H 0.38082 0.04883 0.61423 0.0
H915 H 0.32034 0.99813 0.04053 0.0
H916 H 0.45883 0.29388 0.07493 0.0
H917 H 0.47277 0.32185 0.12041 0.0
H918 H 0.45567 0.30368 0.3034 0.0
H919 H 0.4414 0.27544 0.25799 0.0
H920 H 0.4526 0.34206 0.28791 0.0
H921 H 0.4976 0.29349 0.24855 0.0
H922 H 0.51369 0.27011 0.18275 0.0
H923 H 0.53552 0.31423 0.06705 0.0
H924 H 0.51949 0.33786 0.13194 0.0
H925 H 0.51288 0.39852 0.45781 0.0
H926 H 0.50113 0.3692 0.4144 0.0
H927 H 0.51713 0.38713 0.23031 0.0
H928 H 0.53034 0.41605 0.27349 0.0
H929 H 0.52103 0.34854 0.2476 0.0
H930 H 0.47371 0.39612 0.27741 0.0
H931 H 0.45608 0.41988 0.33705 0.0
H932 H 0.43891 0.37773 0.46835 0.0
H933 H 0.4565 0.35367 0.40943 0.0
C934 C 0.45729 0.29614 0.12458 0.0
C935 C 0.44895 0.28245 0.16298 0.0
C936 C 0.46547 0.31208 0.1505 0.0
C937 C 0.46551 0.31465 0.21516 0.0
C938 C 0.45588 0.30183 0.25331 0.0
C939 C 0.44774 0.28576 0.22741 0.0
C940 C 0.47678 0.32993 0.243 0.0
C941 C 0.4676 0.34332 0.27987 0.0
C942 C 0.49633 0.33169 0.23129 0.0
C943 C 0.5069 0.31749 0.1943 0.0
C944 C 0.5057 0.29823 0.20882 0.0
C945 C 0.51488 0.28491 0.17179 0.0
C946 C 0.52555 0.29067 0.12059 0.0
C947 C 0.52719 0.30977 0.10661 0.0
C948 C 0.51805 0.32314 0.14351 0.0
C949 C 0.51461 0.39608 0.40838 0.0
C950 C 0.52233 0.40992 0.36906 0.0
C951 C 0.5076 0.37938 0.38366 0.0
C952 C 0.50771 0.37636 0.31921 0.0
C953 C 0.5167 0.38935 0.28021 0.0
C954 C 0.52404 0.40597 0.30497 0.0
C955 C 0.49682 0.36061 0.29245 0.0
C956 C 0.50606 0.34717 0.25581 0.0
C957 C 0.47731 0.35876 0.30415 0.0
C958 C 0.46657 0.37314 0.33938 0.0
C959 C 0.46627 0.39194 0.31922 0.0
C960 C 0.45628 0.40547 0.35288 0.0
C961 C 0.44647 0.40037 0.40669 0.0
C962 C 0.44651 0.38167 0.42666 0.0
C963 C 0.45646 0.36807 0.39308 0.0
H964 H 0.43878 0.41088 0.43275 0.0
H965 H 0.53258 0.28033 0.09183 0.0
H966 H 0.21169 0.52115 0.20551 0.0
H967 H 0.19283 0.53913 0.27822 0.0
H968 H 0.22144 0.51289 0.43264 0.0
H969 H 0.23976 0.49386 0.35928 0.0
H970 H 0.18638 0.51047 0.45137 0.0
H971 H 0.22409 0.56222 0.40711 0.0
H972 H 0.24329 0.5844 0.34607 0.0
H973 H 0.19441 0.60179 0.24431 0.0
H974 H 0.17493 0.57952 0.30392 0.0
H975 H 0.10259 0.54656 0.56794 0.0
H976 H 0.13684 0.54952 0.56257 0.0
H977 H 0.13318 0.55767 0.3637 0.0
H978 H 0.09906 0.55517 0.36919 0.0
H979 H 0.16401 0.57543 0.41197 0.0
H980 H 0.13275 0.51235 0.43443 0.0
H981 H 0.11422 0.4899 0.49715 0.0
H982 H 0.1536 0.4952 0.64749 0.0
H983 H 0.17214 0.51794 0.58602 0.0
C984 C 0.21406 0.51922 0.25493 0.0
C985 C 0.22699 0.50582 0.27658 0.0
C986 C 0.20351 0.52985 0.29666 0.0
C987 C 0.20588 0.52766 0.36119 0.0
C988 C 0.21945 0.51494 0.38309 0.0
C989 C 0.22995 0.50412 0.34112 0.0
C990 C 0.19218 0.53663 0.40417 0.0
C991 C 0.18196 0.52492 0.44446 0.0
C992 C 0.18645 0.55555 0.39627 0.0
C993 C 0.19802 0.56917 0.36027 0.0
C994 C 0.21742 0.57071 0.37156 0.0
C995 C 0.22837 0.58331 0.33717 0.0
C996 C 0.22008 0.5945 0.29138 0.0
C997 C 0.20081 0.59314 0.27992 0.0
C998 C 0.18979 0.58056 0.31416 0.0
C999 C 0.10912 0.54965 0.52347 0.0
C1000 C 0.09831 0.55028 0.46867 0.0
C1001 C 0.12865 0.55137 0.52051 0.0
C1002 C 0.13756 0.55333 0.46254 0.0
C1003 C 0.12659 0.5561 0.40895 0.0
C1004 C 0.10708 0.55462 0.412 0.0
C1005 C 0.15772 0.5488 0.45449 0.0
C1006 C 0.16913 0.56134 0.4211 0.0
C1007 C 0.16476 0.53074 0.46953 0.0
C1008 C 0.15371 0.51691 0.50593 0.0
C1009 C 0.1374 0.50874 0.48094 0.0
C1010 C 0.12689 0.49601 0.5163 0.0
C1011 C 0.13272 0.49114 0.57631 0.0
C1012 C 0.14906 0.49902 0.60112 0.0
C1013 C 0.15956 0.51184 0.56608 0.0
H1014 H 0.12459 0.48124 0.6035 0.0
H1015 H 0.22858 0.60424 0.26478 0.0
H1016 H 0.06632 0.76745 0.11517 0.0
H1017 H 0.07085 0.79873 0.071 0.0
H1018 H 0.06687 0.82306 0.25443 0.0
H1019 H 0.06131 0.79199 0.29873 0.0
H1020 H 0.04386 0.83987 0.18058 0.0
H1021 H 0.10863 0.82363 0.16825 0.0
H1022 H 0.13614 0.80404 0.14249 0.0
H1023 H 0.12248 0.80743 0.94809 0.0
H1024 H 0.09473 0.82683 0.97272 0.0
H1025 H 0.05267 0.93115 0.05496 0.0
H1026 H 0.06078 0.90314 0.11481 0.0
H1027 H 0.06409 0.87091 0.94492 0.0
H1028 H 0.05707 0.89905 0.88449 0.0
H1029 H 0.09067 0.85999 0.0228 0.0
H1030 H 0.02381 0.8725 0.03769 0.0
H1031 H 0.99566 0.89113 0.06381 0.0
H1032 H 0.01313 0.89385 0.25498 0.0
H1033 H 0.04155 0.8755 0.22973 0.0
C1034 C 0.06661 0.77943 0.14626 0.0
C1035 C 0.06332 0.77718 0.21045 0.0
C1036 C 0.06944 0.79731 0.12101 0.0
C1037 C 0.06931 0.81325 0.15957 0.0
C1038 C 0.06706 0.81093 0.22401 0.0
C1039 C 0.06408 0.79311 0.24926 0.0
C1040 C 0.06933 0.83239 0.13211 0.0
C1041 C 0.05436 0.84442 0.14714 0.0
C1042 C 0.08278 0.83819 0.08751 0.0
C1043 C 0.09952 0.82659 0.07242 0.0
C1044 C 0.11141 0.82009 0.12004 0.0
C1045 C 0.12706 0.80904 0.10563 0.0
C1046 C 0.13103 0.80446 0.0437 0.0
C1047 C 0.11938 0.81098 0.99604 0.0
C1048 C 0.10371 0.82203 0.0102 0.0
C1049 C 0.05555 0.91822 0.03013 0.0
C1050 C 0.05397 0.91733 0.96484 0.0
C1051 C 0.06 0.90216 0.06453 0.0
C1052 C 0.06265 0.88484 0.03445 0.0
C1053 C 0.06197 0.88409 0.9692 0.0
C1054 C 0.05772 0.90017 0.93474 0.0
C1055 C 0.06504 0.86724 0.07062 0.0
C1056 C 0.0804 0.85551 0.05712 0.0
C1057 C 0.05193 0.86165 0.11669 0.0
C1058 C 0.03493 0.87285 0.13165 0.0
C1059 C 0.02174 0.87723 0.08516 0.0
C1060 C 0.00572 0.88772 0.09982 0.0
C1061 C 1.00264 0.89374 0.16096 0.0
C1062 C 0.01556 0.88924 0.2076 0.0
C1063 C 0.03163 0.87881 0.19313 0.0
H1064 H 0.99022 0.90183 0.17223 0.0
H1065 H 0.14315 0.7959 0.03265 0.0
H1066 H 0.7132 0.0629 0.30255 0.0
H1067 H 0.68188 0.06802 0.26039 0.0
H1068 H 0.70531 0.07442 0.07627 0.0
H1069 H 0.73694 0.06992 0.11852 0.0
H1070 H 0.67445 0.0974 0.09469 0.0
H1071 H 0.6916 0.03286 0.12314 0.0
H1072 H 0.70204 0.00442 0.17875 0.0
H1073 H 0.65444 0.00837 0.30117 0.0
H1074 H 0.64405 0.03718 0.24761 0.0
H1075 H 0.59975 0.05918 0.91002 0.0
H1076 H 0.62901 0.06805 0.96144 0.0
H1077 H 0.60183 0.06375 0.14048 0.0
H1078 H 0.57231 0.05542 0.08945 0.0
H1079 H 0.63374 0.04172 0.1289 0.0
H1080 H 0.61548 0.10543 0.09279 0.0
H1081 H 0.6046 0.13239 0.03041 0.0
H1082 H 0.65379 0.12841 0.91518 0.0
H1083 H 0.66484 0.10123 0.97632 0.0
C1084 C 0.71184 0.06609 0.25345 0.0
C1085 C 0.72759 0.06584 0.21375 0.0
C1086 C 0.69387 0.06884 0.22936 0.0
C1087 C 0.69128 0.07122 0.16511 0.0
C1088 C 0.70704 0.07249 0.12598 0.0
C1089 C 0.72507 0.06979 0.1501 0.0
C1090 C 0.67219 0.07021 0.13814 0.0
C1091 C 0.66556 0.08521 0.10182 0.0
C1092 C 0.66056 0.05434 0.14813 0.0
C1093 C 0.66718 0.03735 0.18184 0.0
C1094 C 0.68353 0.02786 0.16257 0.0
C1095 C 0.68943 0.01164 0.19369 0.0
C1096 C 0.67895 0.00461 0.24357 0.0
C1097 C 0.66262 0.01387 0.26275 0.0
C1098 C 0.65673 0.03017 0.23211 0.0
C1099 C 0.5998 0.06066 0.96021 0.0
C1100 C 0.5837 0.05643 0.99564 0.0
C1101 C 0.61657 0.0657 0.98952 0.0
C1102 C 0.61754 0.06655 0.05469 0.0
C1103 C 0.60134 0.06311 0.09009 0.0
C1104 C 0.58453 0.05823 0.06085 0.0
C1105 C 0.63589 0.06896 0.08594 0.0
C1106 C 0.64248 0.05408 0.12263 0.0
C1107 C 0.64748 0.08481 0.07565 0.0
C1108 C 0.64091 0.10118 0.03884 0.0
C1109 C 0.6239 0.11019 0.05381 0.0
C1110 C 0.61772 0.12554 0.01874 0.0
C1111 C 0.62847 0.13208 0.96877 0.0
C1112 C 0.64546 0.12332 0.95387 0.0
C1113 C 0.65171 0.10795 0.98877 0.0
H1114 H 0.62366 0.14397 0.94168 0.0
H1115 H 0.68342 0.99194 0.26714 0.0
H1116 H 0.42803 0.73799 0.12392 0.0
H1117 H 0.42613 0.7097 0.0587 0.0
H1118 H 0.48548 0.70013 0.08566 0.0
H1119 H 0.4875 0.7285 0.14853 0.0
H1120 H 0.47701 0.6909 0.9734 0.0
H1121 H 0.45061 0.67861 0.17701 0.0
H1122 H 0.42869 0.68365 0.26453 0.0
H1123 H 0.38188 0.67243 0.14414 0.0
H1124 H 0.40355 0.66755 0.05568 0.0
H1125 H 0.49043 0.5934 0.95722 0.0
H1126 H 0.48661 0.62562 0.99462 0.0
H1127 H 0.42937 0.626 0.92866 0.0
H1128 H 0.43306 0.59362 0.89166 0.0
H1129 H 0.43297 0.64134 0.04528 0.0
H1130 H 0.46373 0.64758 0.84536 0.0
H1131 H 0.48864 0.63898 0.77053 0.0
H1132 H 0.53065 0.65941 0.89682 0.0
H1133 H 0.50605 0.66783 0.97285 0.0
C1134 C 0.44067 0.72994 0.1149 0.0
C1135 C 0.4579 0.73537 0.14102 0.0
C1136 C 0.43958 0.7138 0.07791 0.0
C1137 C 0.45562 0.70266 0.06806 0.0
C1138 C 0.47294 0.70854 0.09228 0.0
C1139 C 0.47408 0.72476 0.12822 0.0
C1140 C 0.45442 0.68417 0.0366 0.0
C1141 C 0.46735 0.68008 0.98905 0.0
C1142 C 0.44169 0.6701 0.05653 0.0
C1143 C 0.42866 0.67296 0.10963 0.0
C1144 C 0.43563 0.67735 0.16914 0.0
C1145 C 0.42326 0.68016 0.21891 0.0
C1146 C 0.4039 0.67842 0.20985 0.0
C1147 C 0.39688 0.67382 0.15104 0.0
C1148 C 0.40919 0.67103 0.10108 0.0
C1149 C 0.47706 0.60038 0.9506 0.0
C1150 C 0.46208 0.59111 0.92128 0.0
C1151 C 0.47489 0.61876 0.97186 0.0
C1152 C 0.45782 0.62826 0.96323 0.0
C1153 C 0.44267 0.61889 0.93539 0.0
C1154 C 0.44479 0.60043 0.91451 0.0
C1155 C 0.45586 0.648 0.98346 0.0
C1156 C 0.4423 0.65231 0.02864 0.0
C1157 C 0.46835 0.66213 0.96252 0.0
C1158 C 0.48303 0.65823 0.91498 0.0
C1159 C 0.47828 0.65024 0.85716 0.0
C1160 C 0.49235 0.64536 0.81461 0.0
C1161 C 0.51121 0.64853 0.82916 0.0
C1162 C 0.51603 0.6569 0.88577 0.0
C1163 C 0.50203 0.66176 0.92855 0.0
H1164 H 0.52211 0.6445 0.79665 0.0
H1165 H 0.39435 0.68059 0.24844 0.0
H1166 H 0.76917 0.44416 0.11031 0.0
H1167 H 0.80091 0.44726 0.06846 0.0
H1168 H 0.82299 0.45102 0.25492 0.0
H1169 H 0.79135 0.44899 0.29712 0.0
H1170 H 0.83561 0.47844 0.19216 0.0
H1171 H 0.83237 0.41271 0.1555 0.0
H1172 H 0.81895 0.38278 0.11865 0.0
H1173 H 0.82035 0.40291 0.93019 0.0
H1174 H 0.83355 0.43309 0.96597 0.0
H1175 H 0.93048 0.48236 0.07821 0.0
H1176 H 0.90138 0.47365 0.13174 0.0
H1177 H 0.87211 0.47307 0.95591 0.0
H1178 H 0.90119 0.4809 0.90193 0.0
H1179 H 0.86501 0.44189 0.0213 0.0
H1180 H 0.86698 0.50889 0.0643 0.0
H1181 H 0.88077 0.53812 0.10578 0.0
H1182 H 0.88256 0.51395 0.28898 0.0
H1183 H 0.86908 0.48447 0.2483 0.0
C1184 C 0.78082 0.44534 0.14248 0.0
C1185 C 0.77764 0.44641 0.20705 0.0
C1186 C 0.79901 0.44693 0.1185 0.0
C1187 C 0.81439 0.44928 0.15869 0.0
C1188 C 0.81135 0.44915 0.2232 0.0
C1189 C 0.7932 0.44776 0.24721 0.0
C1190 C 0.83325 0.45391 0.13359 0.0
C1191 C 0.8422 0.47021 0.1556 0.0
C1192 C 0.84175 0.44337 0.08533 0.0
C1193 C 0.83382 0.42523 0.06352 0.0
C1194 C 0.82969 0.41082 0.10624 0.0
C1195 C 0.82214 0.39379 0.08554 0.0
C1196 C 0.81877 0.39096 0.02214 0.0
C1197 C 0.82297 0.40513 0.97929 0.0
C1198 C 0.8305 0.4222 0.99976 0.0
C1199 C 0.91782 0.48044 0.05101 0.0
C1200 C 0.91818 0.48234 0.98577 0.0
C1201 C 0.90118 0.4756 0.08171 0.0
C1202 C 0.88457 0.47276 0.04778 0.0
C1203 C 0.88478 0.47517 0.98296 0.0
C1204 C 0.90139 0.4799 0.95225 0.0
C1205 C 0.86707 0.46657 0.07904 0.0
C1206 C 0.85844 0.44997 0.05825 0.0
C1207 C 0.85898 0.47669 0.12902 0.0
C1208 C 0.86724 0.4944 0.15313 0.0
C1209 C 0.8705 0.50974 0.11329 0.0
C1210 C 0.87823 0.52637 0.13667 0.0
C1211 C 0.8826 0.52788 0.19992 0.0
C1212 C 0.87922 0.51277 0.23996 0.0
C1213 C 0.87154 0.4961 0.21677 0.0
H1214 H 0.88856 0.54077 0.21793 0.0
H1215 H 0.81293 0.37777 0.0062 0.0
H1216 H 0.99944 0.21642 0.79043 0.0
H1217 H 0.99759 0.18389 0.75485 0.0
H1218 H 0.00761 0.1645 0.94211 0.0
H1219 H 0.01075 0.19685 0.97737 0.0
H1220 H 0.0288 0.14566 0.86615 0.0
H1221 H 0.96328 0.16185 0.868 0.0
H1222 H 0.93535 0.18071 0.84149 0.0
H1223 H 0.94475 0.17021 0.64698 0.0
H1224 H 0.97289 0.15148 0.67229 0.0
H1225 H 0.00701 0.0491 0.81632 0.0
H1226 H 0.00722 0.08174 0.85191 0.0
H1227 H 0.99869 0.10065 0.66322 0.0
H1228 H 0.99812 0.06808 0.62741 0.0
H1229 H 0.97673 0.1198 0.73918 0.0
H1230 H 0.04195 0.10313 0.73769 0.0
H1231 H 0.07026 0.08484 0.76406 0.0
H1232 H 0.06182 0.09674 0.95818 0.0
H1233 H 0.03329 0.11487 0.9331 0.0
C1234 C 1.00133 0.20529 0.82421 0.0
C1235 C 0.00531 0.20949 0.887 0.0
C1236 C 1.00003 0.18661 0.80381 0.0
C1237 C 1.00234 0.17161 0.84579 0.0
C1238 C 0.0058 0.17576 0.90866 0.0
C1239 C 0.00732 0.19439 0.92897 0.0
C1240 C 1.00202 0.15164 0.82407 0.0
C1241 C 0.01725 0.13994 0.83923 0.0
C1242 C 0.98725 0.14422 0.78733 0.0
C1243 C 0.97029 0.15541 0.77203 0.0
C1244 C 0.95947 0.16367 0.81955 0.0
C1245 C 0.94358 0.17432 0.80474 0.0
C1246 C 0.9383 0.1767 0.74258 0.0
C1247 C 0.94887 0.16838 0.6951 0.0
C1248 C 0.96477 0.15773 0.70966 0.0
C1249 C 0.00524 0.06018 0.78225 0.0
C1250 C 1.0026 0.05585 0.71885 0.0
C1251 C 0.00543 0.07889 0.80271 0.0
C1252 C 1.0032 0.09378 0.76024 0.0
C1253 C 1.00045 0.08949 0.69701 0.0
C1254 C 1.00017 0.07078 0.67656 0.0
C1255 C 0.00346 0.11378 0.78166 0.0
C1256 C 0.98825 0.1255 0.7663 0.0
C1257 C 0.01825 0.12123 0.81831 0.0
C1258 C 0.03531 0.11014 0.83354 0.0
C1259 C 0.046 0.10168 0.78606 0.0
C1260 C 0.06212 0.09137 0.80078 0.0
C1261 C 0.06779 0.08957 0.86277 0.0
C1262 C 0.05738 0.0981 0.91019 0.0
C1263 C 0.04123 0.10839 0.89575 0.0
H1264 H 0.08029 0.08161 0.87405 0.0
H1265 H 0.926 0.18495 0.73122 0.0
H1266 H 0.28356 0.02603 0.79524 0.0
H1267 H 0.31576 0.02292 0.75597 0.0
H1268 H 0.33641 0.02071 0.94451 0.0
H1269 H 0.30442 0.02455 0.98383 0.0
H1270 H 0.35741 0.04365 0.87851 0.0
H1271 H 0.33337 0.98085 0.84642 0.0
H1272 H 0.31142 0.95718 0.80472 0.0
H1273 H 0.32415 0.97489 0.61817 0.0
H1274 H 0.34601 0.99883 0.65883 0.0
H1275 H 0.44987 0.01056 0.8356 0.0
H1276 H 0.41679 0.01438 0.86261 0.0
H1277 H 0.40229 0.01549 0.66768 0.0
H1278 H 0.43544 0.01124 0.64017 0.0
H1279 H 0.37766 0.99458 0.72874 0.0
H1280 H 0.40237 0.05604 0.75735 0.0
H1281 H 0.4242 0.08029 0.79589 0.0
H1282 H 0.40985 0.06631 0.9846 0.0
H1283 H 0.38811 0.04178 0.94721 0.0
C1284 C 0.29495 0.0248 0.82836 0.0
C1285 C 0.29129 0.02528 0.89286 0.0
C1286 C 0.31339 0.02289 0.80581 0.0
C1287 C 0.32864 0.02134 0.84717 0.0
C1288 C 0.32497 0.02176 0.9115 0.0
C1289 C 0.30659 0.02369 0.934 0.0
C1290 C 0.34847 0.01988 0.82404 0.0
C1291 C 0.36184 0.03275 0.84638 0.0
C1292 C 0.35428 0.00615 0.78014 0.0
C1293 C 0.34117 0.99176 0.75571 0.0
C1294 C 0.33138 0.97979 0.79654 0.0
C1295 C 0.31897 0.96631 0.77308 0.0
C1296 C 0.31635 0.96457 0.70885 0.0
C1297 C 0.32617 0.97628 0.66792 0.0
C1298 C 0.33858 0.98979 0.69114 0.0
C1299 C 0.43971 0.01167 0.79829 0.0
C1300 C 0.44545 0.01065 0.73561 0.0
C1301 C 0.42072 0.01395 0.81388 0.0
C1302 C 0.40693 0.0155 0.76731 0.0
C1303 C 0.41258 0.01436 0.70462 0.0
C1304 C 0.43161 0.01198 0.68894 0.0
C1305 C 0.38666 0.01808 0.78442 0.0
C1306 C 0.37321 0.00551 0.76075 0.0
C1307 C 0.38071 0.03219 0.82671 0.0
C1308 C 0.39374 0.04695 0.84946 0.0
C1309 C 0.40398 0.05804 0.80708 0.0
C1310 C 0.41632 0.07185 0.82872 0.0
C1311 C 0.41844 0.07481 0.89266 0.0
C1312 C 0.4082 0.06399 0.93509 0.0
C1313 C 0.39585 0.05014 0.9137 0.0
H1314 H 0.428 0.08551 0.90932 0.0
H1315 H 0.30675 0.95412 0.69078 0.0
H1316 H 0.51864 0.2962 0.95591 0.0
H1317 H 0.52103 0.32833 0.91586 0.0
H1318 H 0.4722 0.31899 0.80122 0.0
H1319 H 0.46974 0.28704 0.84083 0.0
H1320 H 0.49496 0.33747 0.73551 0.0
H1321 H 0.46966 0.34685 0.93442 0.0
H1322 H 0.46455 0.34639 0.04782 0.0
H1323 H 0.51813 0.37272 0.07646 0.0
H1324 H 0.52349 0.3735 0.96279 0.0
H1325 H 0.48122 0.44585 0.79068 0.0
H1326 H 0.4805 0.41349 0.82706 0.0
H1327 H 0.52053 0.39797 0.68483 0.0
H1328 H 0.52055 0.43041 0.64611 0.0
H1329 H 0.50251 0.39176 0.87805 0.0
H1330 H 0.51596 0.3532 0.64237 0.0
H1331 H 0.50887 0.35809 0.53092 0.0
H1332 H 0.46147 0.39242 0.57966 0.0
H1333 H 0.46816 0.38761 0.69119 0.0
C1334 C 0.5084 0.30097 0.92221 0.0
C1335 C 0.4941 0.28882 0.9013 0.0
C1336 C 0.50975 0.31943 0.89934 0.0
C1337 C 0.49676 0.32627 0.85543 0.0
C1338 C 0.48256 0.31412 0.83441 0.0
C1339 C 0.48123 0.29572 0.85704 0.0
C1340 C 0.49785 0.34604 0.83142 0.0
C1341 C 0.49673 0.3493 0.76683 0.0
C1342 C 0.4994 0.36172 0.8718 0.0
C1343 C 0.49711 0.35994 0.94019 0.0
C1344 C 0.4805 0.35225 0.96493 0.0
C1345 C 0.47751 0.35204 0.02925 0.0
C1346 C 0.49106 0.35941 0.06942 0.0
C1347 C 0.50766 0.36699 0.04527 0.0
C1348 C 0.51067 0.36734 0.98089 0.0
C1349 C 0.48986 0.43557 0.76687 0.0
C1350 C 0.50092 0.44076 0.7153 0.0
C1351 C 0.4895 0.417 0.78803 0.0
C1352 C 0.50039 0.40306 0.75884 0.0
C1353 C 0.51168 0.40826 0.70767 0.0
C1354 C 0.51176 0.42686 0.68562 0.0
C1355 C 0.49974 0.3832 0.78224 0.0
C1356 C 0.50103 0.37991 0.84667 0.0
C1357 C 0.49697 0.36764 0.74207 0.0
C1358 C 0.49271 0.37021 0.67504 0.0
C1359 C 0.50399 0.36172 0.62924 0.0
C1360 C 0.50005 0.3645 0.5661 0.0
C1361 C 0.48477 0.37561 0.54835 0.0
C1362 C 0.47334 0.38389 0.59356 0.0
C1363 C 0.47722 0.38116 0.65668 0.0
H1364 H 0.48174 0.37783 0.49963 0.0
H1365 H 0.48868 0.35929 0.11923 0.0
H1366 H 0.19348 0.45021 0.92874 0.0
H1367 H 0.16391 0.45575 0.87539 0.0
H1368 H 0.18882 0.50202 0.77502 0.0
H1369 H 0.21862 0.49675 0.83019 0.0
H1370 H 0.15561 0.51202 0.80766 0.0
H1371 H 0.17782 0.45909 0.70107 0.0
H1372 H 0.19191 0.42785 0.68407 0.0
H1373 H 0.1457 0.40193 0.77992 0.0
H1374 H 0.13146 0.43305 0.79832 0.0
H1375 H 0.06958 0.51417 0.63046 0.0
H1376 H 0.1028 0.51044 0.65644 0.0
H1377 H 0.08811 0.47039 0.79916 0.0
H1378 H 0.05486 0.47389 0.77299 0.0
H1379 H 0.11834 0.45865 0.725 0.0
H1380 H 0.09974 0.51627 0.83818 0.0
H1381 H 0.08655 0.54837 0.83885 0.0
H1382 H 0.12789 0.5659 0.70499 0.0
H1383 H 0.14124 0.53387 0.70337 0.0
C1384 C 0.19283 0.46138 0.89456 0.0
C1385 C 0.20857 0.47283 0.88307 0.0
C1386 C 0.17584 0.46454 0.86386 0.0
C1387 C 0.17409 0.47905 0.81982 0.0
C1388 C 0.18975 0.49066 0.80844 0.0
C1389 C 0.2068 0.48763 0.83991 0.0
C1390 C 0.15566 0.48227 0.78807 0.0
C1391 C 0.14766 0.50035 0.78866 0.0
C1392 C 0.14517 0.46723 0.76214 0.0
C1393 C 0.15365 0.44844 0.75151 0.0
C1394 C 0.17074 0.44675 0.71898 0.0
C1395 C 0.17874 0.42906 0.70901 0.0
C1396 C 0.16973 0.41292 0.73101 0.0
C1397 C 0.15267 0.41444 0.76294 0.0
C1398 C 0.14461 0.43211 0.77308 0.0
C1399 C 0.07339 0.50446 0.66708 0.0
C1400 C 0.05947 0.49428 0.69944 0.0
C1401 C 0.09243 0.50243 0.68215 0.0
C1402 C 0.098 0.49018 0.73 0.0
C1403 C 0.08417 0.4799 0.76203 0.0
C1404 C 0.06513 0.482 0.74722 0.0
C1405 C 0.11815 0.48809 0.7475 0.0
C1406 C 0.12645 0.47024 0.74375 0.0
C1407 C 0.12914 0.50344 0.76822 0.0
C1408 C 0.12145 0.52274 0.77063 0.0
C1409 C 0.106 0.527 0.80895 0.0
C1410 C 0.0985 0.54516 0.80948 0.0
C1411 C 0.10638 0.55917 0.77202 0.0
C1412 C 0.12182 0.55505 0.73409 0.0
C1413 C 0.12939 0.53692 0.73347 0.0
H1414 H 0.10053 0.5732 0.77238 0.0
H1415 H 0.17594 0.39923 0.72323 0.0
H1416 H 0.99733 0.79617 0.34233 0.0
H1417 H 0.99567 0.82871 0.37696 0.0
H1418 H 0.984 0.81019 0.5643 0.0
H1419 H 0.98444 0.77752 0.52923 0.0
H1420 H 0.96481 0.84054 0.54362 0.0
H1421 H 0.02911 0.82406 0.51708 0.0
H1422 H 0.05722 0.81182 0.46351 0.0
H1423 H 0.05152 0.85405 0.32197 0.0
H1424 H 0.02321 0.86646 0.37442 0.0
H1425 H 0.99555 0.92571 0.69208 0.0
H1426 H 0.99324 0.89298 0.65713 0.0
H1427 H 0.99491 0.91133 0.46587 0.0
H1428 H 0.99708 0.94401 0.50017 0.0
H1429 H 0.01914 0.88119 0.49029 0.0
H1430 H 0.9543 0.898 0.52652 0.0
H1431 H 0.92782 0.90992 0.58935 0.0
H1432 H 0.93662 0.86605 0.72353 0.0
H1433 H 0.96333 0.85403 0.66191 0.0
C1434 C 0.99389 0.79892 0.39061 0.0
C1435 C 0.99114 0.78402 0.43292 0.0
C1436 C 0.99325 0.81763 0.41063 0.0
C1437 C 0.99021 0.82201 0.47369 0.0
C1438 C 0.98657 0.80726 0.51551 0.0
C1439 C 0.98699 0.78851 0.49539 0.0
C1440 C 0.99149 0.84186 0.49625 0.0
C1441 C 0.97681 0.84932 0.53249 0.0
C1442 C 0.00705 0.85352 0.48159 0.0
C1443 C 0.02396 0.84609 0.44945 0.0
C1444 C 0.03377 0.83066 0.47429 0.0
C1445 C 0.04974 0.82371 0.4442 0.0
C1446 C 0.05615 0.83217 0.38945 0.0
C1447 C 0.04654 0.84754 0.36447 0.0
C1448 C 0.03054 0.85456 0.3944 0.0
C1449 C 0.9954 0.9228 0.64257 0.0
C1450 C 0.99643 0.93756 0.599 0.0
C1451 C 0.99401 0.90407 0.62266 0.0
C1452 C 0.99378 0.89969 0.55882 0.0
C1453 C 0.99503 0.91436 0.51532 0.0
C1454 C 0.9962 0.93307 0.53512 0.0
C1455 C 0.99242 0.87983 0.53716 0.0
C1456 C 0.00713 0.87238 0.50117 0.0
C1457 C 0.97707 0.86811 0.5531 0.0
C1458 C 0.96093 0.87523 0.58991 0.0
C1459 C 0.95068 0.89099 0.56968 0.0
C1460 C 0.93562 0.89774 0.60502 0.0
C1461 C 0.93057 0.88878 0.66048 0.0
C1462 C 0.94056 0.873 0.68061 0.0
C1463 C 0.95565 0.8662 0.64546 0.0
H1464 H 0.91891 0.89403 0.68778 0.0
H1465 H 0.06861 0.82683 0.36662 0.0
H1466 H 0.72373 0.9861 0.53927 0.0
H1467 H 0.69193 0.98601 0.58138 0.0
H1468 H 0.67009 1.00094 0.40079 0.0
H1469 H 0.7019 1.00287 0.35995 0.0
H1470 H 0.65265 0.02035 0.47737 0.0
H1471 H 0.66613 0.95471 0.47272 0.0
H1472 H 0.68378 0.92554 0.49333 0.0
H1473 H 0.67765 0.93418 0.69024 0.0
H1474 H 0.66016 0.96354 0.67082 0.0
H1475 H 0.55726 0.99337 0.53821 0.0
H1476 H 0.58981 0.99225 0.50142 0.0
H1477 H 0.60951 1.00095 0.68889 0.0
H1478 H 0.57688 1.00257 0.72611 0.0
H1479 H 0.6276 0.96958 0.61224 0.0
H1480 H 0.61225 0.03594 0.60815 0.0
H1481 H 0.59279 0.06321 0.57891 0.0
H1482 H 0.60071 0.0503 0.38527 0.0
H1483 H 0.61997 0.02274 0.4134 0.0
C1484 C 0.71221 0.98948 0.50838 0.0
C1485 C 0.7156 0.9944 0.44575 0.0
C1486 C 0.69389 0.98914 0.53246 0.0
C1487 C 0.67836 0.99319 0.49424 0.0
C1488 C 0.68169 0.99771 0.43148 0.0
C1489 C 0.7 0.99847 0.40774 0.0
C1490 C 0.65876 0.99355 0.51988 0.0
C1491 C 0.6472 0.00906 0.50613 0.0
C1492 C 0.65147 0.97905 0.5584 0.0
C1493 C 0.66201 0.96143 0.5703 0.0
C1494 C 0.66868 0.95047 0.52042 0.0
C1495 C 0.67862 0.93388 0.53189 0.0
C1496 C 0.68188 0.92804 0.59306 0.0
C1497 C 0.67514 0.93874 0.64289 0.0
C1498 C 0.6652 0.95535 0.63168 0.0
C1499 C 0.56849 0.99498 0.57178 0.0
C1500 C 0.56445 0.99806 0.63518 0.0
C1501 C 0.58709 0.99438 0.55059 0.0
C1502 C 0.60207 0.99652 0.59239 0.0
C1503 C 0.59814 0.99924 0.65589 0.0
C1504 C 0.5795 1.00024 0.67701 0.0
C1505 C 0.62178 0.99623 0.56926 0.0
C1506 C 0.63324 0.98078 0.58349 0.0
C1507 C 0.62884 0.01051 0.52986 0.0
C1508 C 0.61736 0.02715 0.51293 0.0
C1509 C 0.60968 0.0388 0.55936 0.0
C1510 C 0.59872 0.05433 0.54298 0.0
C1511 C 0.59546 0.05845 0.48028 0.0
C1512 C 0.60321 0.04707 0.43383 0.0
C1513 C 0.61416 0.0315 0.44996 0.0
H1514 H 0.58697 0.07048 0.46769 0.0
H1515 H 0.68958 0.91519 0.60184 0.0
H1516 H 0.49662 0.72133 0.56457 0.0
H1517 H 0.49876 0.68849 0.59511 0.0
H1518 H 0.51086 0.67298 0.40504 0.0
H1519 H 0.50714 0.70561 0.37309 0.0
H1520 H 0.48731 0.64936 0.44756 0.0
H1521 H 0.54615 0.67213 0.53095 0.0
H1522 H 0.56618 0.6936 0.59207 0.0
H1523 H 0.5346 0.68071 0.75725 0.0
H1524 H 0.51424 0.65937 0.69657 0.0
H1525 H 0.51613 0.55594 0.51194 0.0
H1526 H 0.51655 0.58927 0.48476 0.0
H1527 H 0.4959 0.60333 0.66778 0.0
H1528 H 0.49549 0.56995 0.69564 0.0
H1529 H 0.52395 0.62745 0.63002 0.0
H1530 H 0.46644 0.60315 0.54547 0.0
H1531 H 0.44694 0.58144 0.48362 0.0
H1532 H 0.47656 0.59743 0.31751 0.0
H1533 H 0.49644 0.61904 0.37856 0.0
C1534 C 0.49965 0.711 0.52893 0.0
C1535 C 0.50162 0.71638 0.46606 0.0
C1536 C 0.50119 0.69212 0.5468 0.0
C1537 C 0.50528 0.67807 0.50272 0.0
C1538 C 0.50774 0.68344 0.44022 0.0
C1539 C 0.50587 0.70228 0.42209 0.0
C1540 C 0.50612 0.65776 0.52109 0.0
C1541 C 0.49563 0.64459 0.48679 0.0
C1542 C 0.5165 0.65137 0.5733 0.0
C1543 C 0.52875 0.66414 0.60951 0.0
C1544 C 0.54348 0.67392 0.58028 0.0
C1545 C 0.55487 0.68607 0.61477 0.0
C1546 C 0.55169 0.6885 0.67852 0.0
C1547 C 0.5371 0.67877 0.70792 0.0
C1548 C 0.52568 0.66662 0.67359 0.0
C1549 C 0.51175 0.56607 0.54669 0.0
C1550 C 0.50568 0.56013 0.60598 0.0
C1551 C 0.51193 0.58517 0.5309 0.0
C1552 C 0.50604 0.59886 0.57389 0.0
C1553 C 0.50046 0.59306 0.63369 0.0
C1554 C 0.50018 0.57392 0.64947 0.0
C1555 C 0.50538 0.61915 0.5559 0.0
C1556 C 0.51579 0.63227 0.59046 0.0
C1557 C 0.49506 0.62548 0.50355 0.0
C1558 C 0.48305 0.61257 0.4667 0.0
C1559 C 0.46889 0.60193 0.49583 0.0
C1560 C 0.45776 0.58966 0.46091 0.0
C1561 C 0.46054 0.58802 0.39671 0.0
C1562 C 0.47444 0.59869 0.36727 0.0
C1563 C 0.48563 0.61096 0.402 0.0
H1564 H 0.45191 0.57851 0.36975 0.0
H1565 H 0.56051 0.69792 0.70513 0.0
H1566 H 0.79789 0.50243 0.34475 0.0
H1567 H 0.8306 0.50447 0.37656 0.0
H1568 H 0.8133 0.51429 0.56641 0.0
H1569 H 0.78045 0.51377 0.53413 0.0
H1570 H 0.84249 0.53429 0.54615 0.0
H1571 H 0.82841 0.46953 0.50864 0.0
H1572 H 0.81763 0.44171 0.45022 0.0
H1573 H 0.85965 0.45172 0.31041 0.0
H1574 H 0.87057 0.47973 0.36777 0.0
H1575 H 0.92948 0.50523 0.68548 0.0
H1576 H 0.89658 0.50703 0.65258 0.0
H1577 H 0.91404 0.50765 0.46026 0.0
H1578 H 0.9469 0.50593 0.4925 0.0
H1579 H 0.88508 0.48251 0.48267 0.0
H1580 H 0.89939 0.54734 0.52661 0.0
H1581 H 0.91054 0.5736 0.59175 0.0
H1582 H 0.86778 0.56159 0.7273 0.0
H1583 H 0.85654 0.53508 0.66333 0.0
C1584 C 0.80091 0.50554 0.39306 0.0
C1585 C 0.78628 0.50785 0.43677 0.0
C1586 C 0.81976 0.50635 0.41147 0.0
C1587 C 0.82457 0.50901 0.47434 0.0
C1588 C 0.81006 0.51203 0.51771 0.0
C1589 C 0.79119 0.51153 0.49917 0.0
C1590 C 0.84463 0.50829 0.49504 0.0
C1591 C 0.85169 0.52281 0.53282 0.0
C1592 C 0.85689 0.49349 0.47724 0.0
C1593 C 0.8502 0.47681 0.44221 0.0
C1594 C 0.83526 0.46588 0.4652 0.0
C1595 C 0.82916 0.45005 0.43238 0.0
C1596 C 0.83799 0.44492 0.37678 0.0
C1597 C 0.85288 0.45567 0.35365 0.0
C1598 C 0.85903 0.47152 0.38627 0.0
C1599 C 0.92635 0.50578 0.63617 0.0
C1600 C 0.94092 0.50548 0.59171 0.0
C1601 C 0.90751 0.50689 0.61744 0.0
C1602 C 0.90282 0.5076 0.55391 0.0
C1603 C 0.9173 0.50715 0.50951 0.0
C1604 C 0.93612 0.50624 0.52814 0.0
C1605 C 0.88283 0.50847 0.53347 0.0
C1606 C 0.87582 0.49396 0.49582 0.0
C1607 C 0.87058 0.5231 0.55216 0.0
C1608 C 0.87724 0.53911 0.59046 0.0
C1609 C 0.89246 0.5502 0.57054 0.0
C1610 C 0.89878 0.56515 0.60721 0.0
C1611 C 0.88991 0.56923 0.66371 0.0
C1612 C 0.87466 0.5584 0.68357 0.0
C1613 C 0.86829 0.54342 0.64709 0.0
H1614 H 0.89482 0.58081 0.69204 0.0
H1615 H 0.83328 0.43262 0.35158 0.0
loop_
_geom_bond_atom_site_label_1
_geom_bond_atom_site_label_2
_geom_bond_distance
_geom_bond_site_symmetry_2
_ccdc_geom_bond_type
P0 O11 1.490 . S
P0 C14 1.812 . S
P0 C20 1.803 . S
P0 C26 1.819 . S
H1 C15 0.941 . S
H2 C16 0.939 . S
H3 C18 0.940 . S
H4 C19 0.940 . S
H5 C21 0.939 . S
H6 C22 0.942 . S
H7 C24 0.940 . S
H8 C25 0.939 . S
H9 C27 0.941 . S
H10 C31 0.939 . S
O11 P0 1.490 . S
H12 C28 0.939 . S
H13 C30 0.940 . S
C14 P0 1.812 . S
C14 C15 1.389 . S
C14 C19 1.391 . S
C15 H1 0.941 . S
C15 C14 1.389 . S
C15 C16 1.397 . S
C16 H2 0.939 . S
C16 C15 1.397 . S
C16 C17 1.378 . S
C17 C16 1.378 . S
C17 C18 1.378 . S
C18 H3 0.940 . S
C18 C17 1.378 . S
C18 C19 1.396 . S
C19 H4 0.940 . S
C19 C14 1.391 . S
C19 C18 1.396 . S
C20 P0 1.803 . S
C20 C21 1.378 . S
C20 C25 1.400 . S
C21 H5 0.939 . S
C21 C20 1.378 . S
C21 C22 1.361 . S
C22 H6 0.942 . S
C22 C21 1.361 . S
C22 C23 1.369 . S
C23 C22 1.369 . S
C23 C24 1.404 . S
C24 H7 0.940 . S
C24 C23 1.404 . S
C24 C25 1.389 . S
C25 H8 0.939 . S
C25 C20 1.400 . S
C25 C24 1.389 . S
C26 P0 1.819 . S
C26 C27 1.391 . S
C26 C31 1.391 . S
C27 H9 0.941 . S
C27 C26 1.391 . S
C27 C28 1.396 . S
C28 H12 0.939 . S
C28 C27 1.396 . S
C28 C29 1.397 . S
C29 C28 1.397 . S
C29 C30 1.385 . S
C30 H13 0.940 . S
C30 C29 1.385 . S
C30 C31 1.388 . S
C31 H10 0.939 . S
C31 C26 1.391 . S
C31 C30 1.388 . S
P32 O43 1.490 . S
P32 C46 1.812 . S
P32 C52 1.803 . S
P32 C58 1.819 . S
H33 C47 0.941 . S
H34 C48 0.939 . S
H35 C50 0.940 . S
H36 C51 0.968 . S
H37 C53 0.939 . S
H38 C54 0.942 . S
H39 C56 0.940 . S
H40 C57 0.939 . S
H41 C59 0.941 . S
H42 C63 0.920 1_655 S
O43 P32 1.490 . S
H44 C60 0.939 . S
H45 C62 0.940 . S
C46 P32 1.812 . S
C46 C47 1.389 . S
C46 C51 1.347 1_455 S
C47 H33 0.941 . S
C47 C46 1.389 . S
C47 C48 1.397 . S
C48 H34 0.939 . S
C48 C47 1.397 . S
C48 C49 1.378 . S
C49 C48 1.378 . S
C49 C50 1.378 1_455 S
C50 H35 0.940 . S
C50 C49 1.378 1_655 S
C50 C51 1.414 . S
C51 H36 0.968 . S
C51 C46 1.347 1_655 S
C51 C50 1.414 . S
C52 P32 1.803 . S
C52 C53 1.378 . S
C52 C57 1.400 1_455 S
C53 H37 0.939 . S
C53 C52 1.378 . S
C53 C54 1.361 . S
C54 H38 0.942 . S
C54 C53 1.361 . S
C54 C55 1.369 . S
C55 C54 1.369 . S
C55 C56 1.404 1_455 S
C56 H39 0.940 . S
C56 C55 1.404 1_655 S
C56 C57 1.389 . S
C57 H40 0.939 . S
C57 C52 1.400 1_655 S
C57 C56 1.389 . S
C58 P32 1.819 . S
C58 C59 1.391 . S
C58 C63 1.391 . S
C59 H41 0.941 . S
C59 C58 1.391 . S
C59 C60 1.396 . S
C60 H44 0.939 . S
C60 C59 1.396 . S
C60 C61 1.397 . S
C61 C60 1.397 . S
C61 C62 1.385 1_455 S
C62 H45 0.940 . S
C62 C61 1.385 1_655 S
C62 C63 1.388 1_655 S
C63 H42 0.920 1_455 S
C63 C58 1.391 . S
C63 C62 1.388 1_455 S
P64 O75 1.490 . S
P64 C78 1.812 . S
P64 C84 1.803 . S
P64 C90 1.819 . S
H65 C79 0.941 . S
H66 C80 0.939 . S
H67 C82 0.940 . S
H68 C83 0.954 . S
H69 C85 0.939 . S
H70 C86 0.942 . S
H71 C88 0.940 . S
H72 C89 0.963 . S
H73 C91 0.941 . S
H74 C95 0.927 1_565 S
O75 P64 1.490 . S
H76 C92 0.939 . S
H77 C94 0.940 . S
C78 P64 1.812 . S
C78 C79 1.389 . S
C78 C83 1.369 1_545 S
C79 H65 0.941 . S
C79 C78 1.389 . S
C79 C80 1.397 . S
C80 H66 0.939 . S
C80 C79 1.397 . S
C80 C81 1.378 . S
C81 C80 1.378 . S
C81 C82 1.378 1_545 S
C82 H67 0.940 . S
C82 C81 1.378 1_565 S
C82 C83 1.405 . S
C83 H68 0.954 . S
C83 C78 1.369 1_565 S
C83 C82 1.405 . S
C84 P64 1.803 . S
C84 C85 1.378 . S
C84 C89 1.362 1_545 S
C85 H69 0.939 . S
C85 C84 1.378 . S
C85 C86 1.361 . S
C86 H70 0.942 . S
C86 C85 1.361 . S
C86 C87 1.369 . S
C87 C86 1.369 . S
C87 C88 1.404 1_545 S
C88 H71 0.940 . S
C88 C87 1.404 1_565 S
C88 C89 1.405 . S
C89 H72 0.963 . S
C89 C84 1.362 1_565 S
C89 C88 1.405 . S
C90 P64 1.819 . S
C90 C91 1.391 . S
C90 C95 1.391 . S
C91 H73 0.941 . S
C91 C90 1.391 . S
C91 C92 1.396 . S
C92 H76 0.939 . S
C92 C91 1.396 . S
C92 C93 1.397 . S
C93 C92 1.397 . S
C93 C94 1.385 1_545 S
C94 H77 0.940 . S
C94 C93 1.385 1_565 S
C94 C95 1.388 1_565 S
C95 H74 0.927 1_545 S
C95 C90 1.391 . S
C95 C94 1.388 1_545 S
P96 O107 1.490 . S
P96 C110 1.812 . S
P96 C116 1.803 . S
P96 C122 1.819 . S
H97 C111 0.941 . S
H98 C112 0.939 . S
H99 C114 0.940 . S
H100 C115 0.940 . S
H101 C117 0.939 . S
H102 C118 0.942 . S
H103 C120 0.940 . S
H104 C121 0.939 . S
H105 C123 0.941 . S
H106 C127 0.939 . S
O107 P96 1.490 . S
H108 C124 0.939 . S
H109 C126 0.940 . S
C110 P96 1.812 . S
C110 C111 1.389 . S
C110 C115 1.391 . S
C111 H97 0.941 . S
C111 C110 1.389 . S
C111 C112 1.397 . S
C112 H98 0.939 . S
C112 C111 1.397 . S
C112 C113 1.378 . S
C113 C112 1.378 . S
C113 C114 1.378 . S
C114 H99 0.940 . S
C114 C113 1.378 . S
C114 C115 1.396 . S
C115 H100 0.940 . S
C115 C110 1.391 . S
C115 C114 1.396 . S
C116 P96 1.803 . S
C116 C117 1.378 . S
C116 C121 1.400 . S
C117 H101 0.939 . S
C117 C116 1.378 . S
C117 C118 1.361 . S
C118 H102 0.942 . S
C118 C117 1.361 . S
C118 C119 1.369 . S
C119 C118 1.369 . S
C119 C120 1.404 . S
C120 H103 0.940 . S
C120 C119 1.404 . S
C120 C121 1.389 . S
C121 H104 0.939 . S
C121 C116 1.400 . S
C121 C120 1.389 . S
C122 P96 1.819 . S
C122 C123 1.391 . S
C122 C127 1.391 . S
C123 H105 0.941 . S
C123 C122 1.391 . S
C123 C124 1.396 . S
C124 H108 0.939 . S
C124 C123 1.396 . S
C124 C125 1.397 . S
C125 C124 1.397 . S
C125 C126 1.385 . S
C126 H109 0.940 . S
C126 C125 1.385 . S
C126 C127 1.388 . S
C127 H106 0.939 . S
C127 C122 1.391 . S
C127 C126 1.388 . S
P128 O139 1.490 . S
P128 C142 1.812 1_554 S
P128 C148 1.803 . S
P128 C154 1.819 . S
H129 C143 0.941 . S
H130 C144 0.939 . S
H131 C146 0.940 . S
H132 C147 0.955 . S
H133 C149 0.939 . S
H134 C150 0.942 . S
H135 C152 0.940 . S
H136 C153 0.939 . S
H137 C155 0.941 . S
H138 C159 0.939 . S
O139 P128 1.490 . S
H140 C156 0.939 . S
H141 C158 0.940 . S
C142 P128 1.812 1_556 S
C142 C143 1.389 . S
C142 C147 1.391 . S
C143 H129 0.941 . S
C143 C142 1.389 . S
C143 C144 1.397 . S
C144 H130 0.939 . S
C144 C143 1.397 . S
C144 C145 1.378 . S
C145 C144 1.378 . S
C145 C146 1.378 . S
C146 H131 0.940 . S
C146 C145 1.378 . S
C146 C147 1.396 . S
C147 H132 0.955 . S
C147 C142 1.391 . S
C147 C146 1.396 . S
C148 P128 1.803 . S
C148 C149 1.378 . S
C148 C153 1.400 . S
C149 H133 0.939 . S
C149 C148 1.378 . S
C149 C150 1.361 . S
C150 H134 0.942 . S
C150 C149 1.361 . S
C150 C151 1.369 . S
C151 C150 1.369 . S
C151 C152 1.404 . S
C152 H135 0.940 . S
C152 C151 1.404 . S
C152 C153 1.389 . S
C153 H136 0.939 . S
C153 C148 1.400 . S
C153 C152 1.389 . S
C154 P128 1.819 . S
C154 C155 1.391 . S
C154 C159 1.391 . S
C155 H137 0.941 . S
C155 C154 1.391 . S
C155 C156 1.396 . S
C156 H140 0.939 . S
C156 C155 1.396 . S
C156 C157 1.397 . S
C157 C156 1.397 . S
C157 C158 1.385 . S
C158 H141 0.940 . S
C158 C157 1.385 . S
C158 C159 1.388 . S
C159 H138 0.939 . S
C159 C154 1.391 . S
C159 C158 1.388 . S
P160 O171 1.490 . S
P160 C174 1.812 1_554 S
P160 C180 1.803 . S
P160 C186 1.819 . S
H161 C175 0.941 . S
H162 C176 0.939 . S
H163 C178 0.940 . S
H164 C179 0.927 1_655 S
H165 C181 0.939 . S
H166 C182 0.942 . S
H167 C184 0.940 . S
H168 C185 0.935 1_655 S
H169 C187 0.941 . S
H170 C191 0.943 . S
O171 P160 1.490 . S
H172 C188 0.939 . S
H173 C190 0.940 . S
C174 P160 1.812 1_556 S
C174 C175 1.389 . S
C174 C179 1.412 . S
C175 H161 0.941 . S
C175 C174 1.389 . S
C175 C176 1.397 . S
C176 H162 0.939 . S
C176 C175 1.397 . S
C176 C177 1.378 . S
C177 C176 1.378 . S
C177 C178 1.378 1_455 S
C178 H163 0.940 . S
C178 C177 1.378 1_655 S
C178 C179 1.389 1_655 S
C179 H164 0.927 1_455 S
C179 C174 1.412 . S
C179 C178 1.389 1_455 S
C180 P160 1.803 . S
C180 C181 1.378 . S
C180 C185 1.406 . S
C181 H165 0.939 . S
C181 C180 1.378 . S
C181 C182 1.361 . S
C182 H166 0.942 . S
C182 C181 1.361 . S
C182 C183 1.369 . S
C183 C182 1.369 . S
C183 C184 1.404 1_455 S
C184 H167 0.940 . S
C184 C183 1.404 1_655 S
C184 C185 1.387 1_655 S
C185 H168 0.935 1_455 S
C185 C180 1.406 . S
C185 C184 1.387 1_455 S
C186 P160 1.819 . S
C186 C187 1.391 . S
C186 C191 1.391 . S
C187 H169 0.941 . S
C187 C186 1.391 . S
C187 C188 1.396 . S
C188 H172 0.939 . S
C188 C187 1.396 . S
C188 C189 1.397 . S
C189 C188 1.397 . S
C189 C190 1.385 1_455 S
C190 H173 0.940 . S
C190 C189 1.385 1_655 S
C190 C191 1.388 1_655 S
C191 H170 0.943 . S
C191 C186 1.391 . S
C191 C190 1.388 1_455 S
P192 O203 1.490 . S
P192 C206 1.812 1_554 S
P192 C212 1.803 . S
P192 C218 1.819 . S
H193 C207 0.941 . S
H194 C208 0.939 . S
H195 C210 0.940 . S
H196 C211 0.958 1_565 S
H197 C213 0.939 . S
H198 C214 0.942 . S
H199 C216 0.940 . S
H200 C217 0.943 . S
H201 C219 0.941 . S
H202 C223 0.938 1_565 S
O203 P192 1.490 . S
H204 C220 0.939 . S
H205 C222 0.940 . S
C206 P192 1.812 1_556 S
C206 C207 1.389 . S
C206 C211 1.387 . S
C207 H193 0.941 . S
C207 C206 1.389 . S
C207 C208 1.397 . S
C208 H194 0.939 . S
C208 C207 1.397 . S
C208 C209 1.378 . S
C209 C208 1.378 . S
C209 C210 1.378 1_545 S
C210 H195 0.940 . S
C210 C209 1.378 1_565 S
C210 C211 1.398 1_565 S
C211 H196 0.958 1_545 S
C211 C206 1.387 . S
C211 C210 1.398 1_545 S
C212 P192 1.803 . S
C212 C213 1.378 . S
C212 C217 1.394 1_545 S
C213 H197 0.939 . S
C213 C212 1.378 . S
C213 C214 1.361 . S
C214 H198 0.942 . S
C214 C213 1.361 . S
C214 C215 1.369 . S
C215 C214 1.369 . S
C215 C216 1.404 1_545 S
C216 H199 0.940 . S
C216 C215 1.404 1_565 S
C216 C217 1.392 . S
C217 H200 0.943 . S
C217 C212 1.394 1_565 S
C217 C216 1.392 . S
C218 P192 1.819 . S
C218 C219 1.391 . S
C218 C223 1.391 . S
C219 H201 0.941 . S
C219 C218 1.391 . S
C219 C220 1.396 . S
C220 H204 0.939 . S
C220 C219 1.396 . S
C220 C221 1.397 . S
C221 C220 1.397 . S
C221 C222 1.385 1_545 S
C222 H205 0.940 . S
C222 C221 1.385 1_565 S
C222 C223 1.388 1_565 S
C223 H202 0.938 1_545 S
C223 C218 1.391 . S
C223 C222 1.388 1_545 S
P224 O235 1.490 . S
P224 C238 1.812 1_554 S
P224 C244 1.803 . S
P224 C250 1.819 . S
H225 C239 0.941 . S
H226 C240 0.939 . S
H227 C242 0.940 . S
H228 C243 0.956 . S
H229 C245 0.939 . S
H230 C246 0.942 . S
H231 C248 0.940 . S
H232 C249 0.939 . S
H233 C251 0.941 . S
H234 C255 0.939 . S
O235 P224 1.490 . S
H236 C252 0.939 . S
H237 C254 0.940 . S
C238 P224 1.812 1_556 S
C238 C239 1.389 . S
C238 C243 1.391 . S
C239 H225 0.941 . S
C239 C238 1.389 . S
C239 C240 1.397 . S
C240 H226 0.939 . S
C240 C239 1.397 . S
C240 C241 1.378 . S
C241 C240 1.378 . S
C241 C242 1.378 . S
C242 H227 0.940 . S
C242 C241 1.378 . S
C242 C243 1.396 . S
C243 H228 0.956 . S
C243 C238 1.391 . S
C243 C242 1.396 . S
C244 P224 1.803 . S
C244 C245 1.378 . S
C244 C249 1.400 . S
C245 H229 0.939 . S
C245 C244 1.378 . S
C245 C246 1.361 . S
C246 H230 0.942 . S
C246 C245 1.361 . S
C246 C247 1.369 . S
C247 C246 1.369 . S
C247 C248 1.404 . S
C248 H231 0.940 . S
C248 C247 1.404 . S
C248 C249 1.389 . S
C249 H232 0.939 . S
C249 C244 1.400 . S
C249 C248 1.389 . S
C250 P224 1.819 . S
C250 C251 1.391 . S
C250 C255 1.391 . S
C251 H233 0.941 . S
C251 C250 1.391 . S
C251 C252 1.396 . S
C252 H236 0.939 . S
C252 C251 1.396 . S
C252 C253 1.397 . S
C253 C252 1.397 . S
C253 C254 1.385 . S
C254 H237 0.940 . S
C254 C253 1.385 . S
C254 C255 1.388 . S
C255 H234 0.939 . S
C255 C250 1.391 . S
C255 C254 1.388 . S
Pr256 C258 2.880 . S
Pr256 O276 2.562 . S
Pr256 O277 2.490 . S
Pr256 O278 2.695 1_565 S
Pr256 O279 2.512 . S
Pr256 O281 2.437 . S
Pr256 O284 2.436 1_455 S
Pr256 O286 2.438 1_565 S
Pr257 C267 2.880 . S
Pr257 O278 2.436 1_655 S
Pr257 O280 2.438 1_545 S
Pr257 O282 2.562 . S
Pr257 O283 2.490 . S
Pr257 O284 2.695 1_545 S
Pr257 O285 2.512 . S
Pr257 O287 2.437 . S
C258 Pr256 2.880 . S
C258 C259 1.491 . S
C258 O276 1.254 . S
C258 O277 1.225 . S
C259 C258 1.491 . S
C259 C260 1.392 . S
C259 C264 1.356 . S
C260 C259 1.392 . S
C260 C261 1.368 . S
C260 H288 0.929 . S
C261 C260 1.368 . S
C261 C262 1.386 . S
C261 H289 0.929 . S
C262 C261 1.386 . S
C262 C263 1.373 . S
C263 C262 1.373 . S
C263 C264 1.409 . S
C263 H290 0.931 1_455 S
C264 C259 1.356 . S
C264 C263 1.409 . S
C264 H291 0.930 1_455 S
C265 O278 1.254 1_565 S
C265 O279 1.277 . S
C266 O280 1.267 . S
C266 O281 1.278 1_655 S
C267 Pr257 2.880 . S
C267 C268 1.491 . S
C267 O282 1.254 . S
C267 O283 1.225 . S
C268 C267 1.491 . S
C268 C269 1.392 . S
C268 C273 1.356 . S
C269 C268 1.392 . S
C269 C270 1.368 . S
C269 H292 0.929 . S
C270 C269 1.368 . S
C270 C271 1.386 . S
C270 H293 0.929 . S
C271 C270 1.386 . S
C271 C272 1.373 . S
C272 C271 1.373 . S
C272 C273 1.409 . S
C272 H294 0.931 1_655 S
C273 C268 1.356 . S
C273 C272 1.409 . S
C273 H295 0.930 1_655 S
C274 O284 1.270 1_545 S
C274 O285 1.248 . S
C275 O286 1.267 . S
C275 O287 1.278 1_455 S
O276 Pr256 2.562 . S
O276 C258 1.254 . S
O277 Pr256 2.490 . S
O277 C258 1.225 . S
O278 Pr256 2.695 1_545 S
O278 Pr257 2.436 1_455 S
O278 C265 1.254 1_545 S
O279 Pr256 2.512 . S
O279 C265 1.277 . S
O280 Pr257 2.438 1_565 S
O280 C266 1.267 . S
O281 Pr256 2.437 . S
O281 C266 1.278 1_455 S
O282 Pr257 2.562 . S
O282 C267 1.254 . S
O283 Pr257 2.490 . S
O283 C267 1.225 . S
O284 Pr256 2.436 1_655 S
O284 Pr257 2.695 1_565 S
O284 C274 1.270 1_565 S
O285 Pr257 2.512 . S
O285 C274 1.248 . S
O286 Pr256 2.438 1_545 S
O286 C275 1.267 . S
O287 Pr257 2.437 . S
O287 C275 1.278 1_655 S
H288 C260 0.929 . S
H289 C261 0.929 . S
H290 C263 0.931 1_655 S
H291 C264 0.930 1_655 S
H292 C269 0.929 . S
H293 C270 0.929 . S
H294 C272 0.931 1_455 S
H295 C273 0.930 1_455 S
Pr296 C298 2.880 . S
Pr296 O316 2.562 . S
Pr296 O317 2.490 . S
Pr296 O318 2.695 . S
Pr296 O319 2.512 . S
Pr296 O321 2.437 . S
Pr296 O324 2.436 1_545 S
Pr296 O326 2.438 . S
Pr297 C307 2.880 . S
Pr297 O318 2.436 1_565 S
Pr297 O320 2.438 . S
Pr297 O322 2.562 . S
Pr297 O323 2.490 . S
Pr297 O324 2.695 . S
Pr297 O325 2.512 . S
Pr297 O327 2.437 . S
C298 Pr296 2.880 . S
C298 C299 1.491 . S
C298 O316 1.254 . S
C298 O317 1.225 . S
C299 C298 1.491 . S
C299 C300 1.392 . S
C299 C304 1.356 . S
C300 C299 1.392 . S
C300 C301 1.368 . S
C300 H328 0.929 . S
C301 C300 1.368 . S
C301 C302 1.386 . S
C301 H329 0.929 . S
C302 C301 1.386 . S
C302 C303 1.373 . S
C303 C302 1.373 . S
C303 C304 1.409 . S
C303 H330 0.931 1_545 S
C304 C299 1.356 . S
C304 C303 1.409 . S
C304 H331 0.930 1_545 S
C305 O318 1.270 . S
C305 O319 1.248 . S
C306 O320 1.267 . S
C306 O321 1.278 1_565 S
C307 Pr297 2.880 . S
C307 C308 1.491 . S
C307 O322 1.254 . S
C307 O323 1.225 . S
C308 C307 1.491 . S
C308 C309 1.392 . S
C308 C313 1.356 . S
C309 C308 1.392 . S
C309 C310 1.368 . S
C309 H332 0.929 . S
C310 C309 1.368 . S
C310 C311 1.386 . S
C310 H333 0.929 . S
C311 C310 1.386 . S
C311 C312 1.373 . S
C312 C311 1.373 . S
C312 C313 1.409 . S
C312 H334 0.931 1_565 S
C313 C308 1.356 . S
C313 C312 1.409 . S
C313 H335 0.930 1_565 S
C314 O324 1.270 . S
C314 O325 1.248 . S
C315 O326 1.267 . S
C315 O327 1.278 1_545 S
O316 Pr296 2.562 . S
O316 C298 1.254 . S
O317 Pr296 2.490 . S
O317 C298 1.225 . S
O318 Pr296 2.695 . S
O318 Pr297 2.436 1_545 S
O318 C305 1.270 . S
O319 Pr296 2.512 . S
O319 C305 1.248 . S
O320 Pr297 2.438 . S
O320 C306 1.267 . S
O321 Pr296 2.437 . S
O321 C306 1.278 1_545 S
O322 Pr297 2.562 . S
O322 C307 1.254 . S
O323 Pr297 2.490 . S
O323 C307 1.225 . S
O324 Pr296 2.436 1_565 S
O324 Pr297 2.695 . S
O324 C314 1.270 . S
O325 Pr297 2.512 . S
O325 C314 1.248 . S
O326 Pr296 2.438 . S
O326 C315 1.267 . S
O327 Pr297 2.437 . S
O327 C315 1.278 1_565 S
H328 C300 0.929 . S
H329 C301 0.929 . S
H330 C303 0.931 1_565 S
H331 C304 0.930 1_565 S
H332 C309 0.929 . S
H333 C310 0.929 . S
H334 C312 0.931 1_545 S
H335 C313 0.930 1_545 S
Pr336 C338 2.880 . S
Pr336 O356 2.562 . S
Pr336 O357 2.490 . S
Pr336 O358 2.695 . S
Pr336 O359 2.512 . S
Pr336 O361 2.437 . S
Pr336 O364 2.436 . S
Pr336 O366 2.438 . S
Pr337 C347 2.880 . S
Pr337 O358 2.436 . S
Pr337 O360 2.438 . S
Pr337 O362 2.562 . S
Pr337 O363 2.490 . S
Pr337 O364 2.695 . S
Pr337 O365 2.512 . S
Pr337 O367 2.437 . S
C338 Pr336 2.880 . S
C338 C339 1.491 . S
C338 O356 1.254 . S
C338 O357 1.225 . S
C339 C338 1.491 . S
C339 C340 1.392 . S
C339 C344 1.356 . S
C340 C339 1.392 . S
C340 C341 1.368 . S
C340 H368 0.929 . S
C341 C340 1.368 . S
C341 C342 1.386 . S
C341 H369 0.929 . S
C342 C341 1.386 . S
C342 C343 1.373 . S
C343 C342 1.373 . S
C343 C344 1.409 . S
C343 H370 0.931 . S
C344 C339 1.356 . S
C344 C343 1.409 . S
C344 H371 0.930 . S
C345 O358 1.270 . S
C345 O359 1.248 . S
C346 O360 1.267 . S
C346 O361 1.278 . S
C347 Pr337 2.880 . S
C347 C348 1.491 . S
C347 O362 1.254 . S
C347 O363 1.225 . S
C348 C347 1.491 . S
C348 C349 1.392 . S
C348 C353 1.356 . S
C349 C348 1.392 . S
C349 C350 1.368 . S
C349 H372 0.929 . S
C350 C349 1.368 . S
C350 C351 1.386 . S
C350 H373 0.929 . S
C351 C350 1.386 . S
C351 C352 1.373 . S
C352 C351 1.373 . S
C352 C353 1.409 . S
C352 H374 0.931 . S
C353 C348 1.356 . S
C353 C352 1.409 . S
C353 H375 0.930 . S
C354 O364 1.270 . S
C354 O365 1.248 . S
C355 O366 1.267 . S
C355 O367 1.278 . S
O356 Pr336 2.562 . S
O356 C338 1.254 . S
O357 Pr336 2.490 . S
O357 C338 1.225 . S
O358 Pr336 2.695 . S
O358 Pr337 2.436 . S
O358 C345 1.270 . S
O359 Pr336 2.512 . S
O359 C345 1.248 . S
O360 Pr337 2.438 . S
O360 C346 1.267 . S
O361 Pr336 2.437 . S
O361 C346 1.278 . S
O362 Pr337 2.562 . S
O362 C347 1.254 . S
O363 Pr337 2.490 . S
O363 C347 1.225 . S
O364 Pr336 2.436 . S
O364 Pr337 2.695 . S
O364 C354 1.270 . S
O365 Pr337 2.512 . S
O365 C354 1.248 . S
O366 Pr336 2.438 . S
O366 C355 1.267 . S
O367 Pr337 2.437 . S
O367 C355 1.278 . S
H368 C340 0.929 . S
H369 C341 0.929 . S
H370 C343 0.931 . S
H371 C344 0.930 . S
H372 C349 0.929 . S
H373 C350 0.929 . S
H374 C352 0.931 . S
H375 C353 0.930 . S
Pr376 C378 2.880 . S
Pr376 O396 2.562 . S
Pr376 O397 2.490 . S
Pr376 O398 2.695 1_655 S
Pr376 O399 2.512 . S
Pr376 O401 2.437 . S
Pr376 O404 2.436 . S
Pr376 O406 2.438 1_655 S
Pr377 C387 2.880 . S
Pr377 O398 2.436 . S
Pr377 O400 2.438 1_455 S
Pr377 O402 2.562 . S
Pr377 O403 2.490 . S
Pr377 O404 2.695 1_455 S
Pr377 O405 2.512 . S
Pr377 O407 2.437 . S
C378 Pr376 2.880 . S
C378 C379 1.491 . S
C378 O396 1.254 . S
C378 O397 1.225 . S
C379 C378 1.491 . S
C379 C380 1.392 . S
C379 C384 1.356 . S
C380 C379 1.392 . S
C380 C381 1.368 . S
C380 H408 0.929 . S
C381 C380 1.368 . S
C381 C382 1.386 . S
C381 H409 0.929 . S
C382 C381 1.386 . S
C382 C383 1.373 . S
C383 C382 1.373 . S
C383 C384 1.409 . S
C383 H410 0.931 . S
C384 C379 1.356 . S
C384 C383 1.409 . S
C384 H411 0.930 . S
C385 O398 1.255 1_655 S
C385 O399 1.275 . S
C386 O400 1.267 . S
C386 O401 1.278 . S
C387 Pr377 2.880 . S
C387 C388 1.491 . S
C387 O402 1.254 . S
C387 O403 1.225 . S
C388 C387 1.491 . S
C388 C389 1.392 . S
C388 C393 1.356 . S
C389 C388 1.392 . S
C389 C390 1.368 . S
C389 H412 0.929 . S
C390 C389 1.368 . S
C390 C391 1.386 . S
C390 H413 0.929 . S
C391 C390 1.386 . S
C391 C392 1.373 . S
C392 C391 1.373 . S
C392 C393 1.409 . S
C392 H414 0.931 . S
C393 C388 1.356 . S
C393 C392 1.409 . S
C393 H415 0.930 . S
C394 O404 1.251 1_455 S
C394 O405 1.283 . S
C395 O406 1.267 . S
C395 O407 1.278 . S
O396 Pr376 2.562 . S
O396 C378 1.254 . S
O397 Pr376 2.490 . S
O397 C378 1.225 . S
O398 Pr376 2.695 1_455 S
O398 Pr377 2.436 . S
O398 C385 1.255 1_455 S
O399 Pr376 2.512 . S
O399 C385 1.275 . S
O400 Pr377 2.438 1_655 S
O400 C386 1.267 . S
O401 Pr376 2.437 . S
O401 C386 1.278 . S
O402 Pr377 2.562 . S
O402 C387 1.254 . S
O403 Pr377 2.490 . S
O403 C387 1.225 . S
O404 Pr376 2.436 . S
O404 Pr377 2.695 1_655 S
O404 C394 1.251 1_655 S
O405 Pr377 2.512 . S
O405 C394 1.283 . S
O406 Pr376 2.438 1_455 S
O406 C395 1.267 . S
O407 Pr377 2.437 . S
O407 C395 1.278 . S
H408 C380 0.929 . S
H409 C381 0.929 . S
H410 C383 0.931 . S
H411 C384 0.930 . S
H412 C389 0.929 . S
H413 C390 0.929 . S
H414 C392 0.931 . S
H415 C393 0.930 . S
H416 C434 0.951 . S
H417 C436 0.951 . S
H418 C438 0.950 . S
H419 C439 0.950 . S
H420 C441 0.950 . S
H421 C444 0.950 . S
H422 C445 0.950 . S
H423 C447 0.950 . S
H424 C448 0.950 . S
H425 C449 0.951 . S
H426 C451 0.951 . S
H427 C453 0.950 . S
H428 C454 0.950 . S
H429 C456 0.950 . S
H430 C459 0.950 . S
H431 C460 0.950 . S
H432 C462 0.950 . S
H433 C463 0.950 . S
C434 H416 0.951 . S
C434 C435 1.359 1_565 S
C434 C436 1.388 . S
C435 C434 1.359 1_545 S
C435 C439 1.392 . S
C436 H417 0.951 . S
C436 C434 1.388 . S
C436 C437 1.371 . S
C437 C436 1.371 . S
C437 C438 1.408 1_565 S
C437 C440 1.499 . S
C438 H418 0.950 . S
C438 C437 1.408 1_545 S
C438 C439 1.374 . S
C439 H419 0.950 . S
C439 C435 1.392 . S
C439 C438 1.374 . S
C440 C437 1.499 . S
C440 C441 1.374 1_565 S
C440 C442 1.389 . S
C441 H420 0.950 . S
C441 C440 1.374 1_545 S
C441 C457 1.377 . S
C442 C440 1.389 . S
C442 C443 1.524 . S
C442 C456 1.377 . S
C443 C442 1.524 . S
C443 C444 1.397 . S
C443 C448 1.363 . S
C444 H421 0.950 . S
C444 C443 1.397 . S
C444 C445 1.334 . S
C445 H422 0.950 . S
C445 C444 1.334 . S
C445 C446 1.287 . S
C446 C445 1.287 . S
C446 C447 1.524 . S
C446 H465 0.913 . S
C447 H423 0.950 . S
C447 C446 1.524 . S
C447 C448 1.415 . S
C448 H424 0.950 . S
C448 C443 1.363 . S
C448 C447 1.415 . S
C449 H425 0.951 . S
C449 C450 1.366 . S
C449 C451 1.388 . S
C450 C449 1.366 . S
C450 C454 1.385 1_545 S
C451 H426 0.951 . S
C451 C449 1.388 . S
C451 C452 1.366 . S
C452 C451 1.366 . S
C452 C453 1.414 1_545 S
C452 C455 1.499 . S
C453 H427 0.950 . S
C453 C452 1.414 1_565 S
C453 C454 1.374 . S
C454 H428 0.950 . S
C454 C450 1.385 1_565 S
C454 C453 1.374 . S
C455 C452 1.499 . S
C455 C456 1.373 1_545 S
C455 C457 1.389 . S
C456 H429 0.950 . S
C456 C442 1.377 . S
C456 C455 1.373 1_565 S
C457 C441 1.377 . S
C457 C455 1.389 . S
C457 C458 1.524 . S
C458 C457 1.524 . S
C458 C459 1.397 . S
C458 C463 1.363 . S
C459 H430 0.950 . S
C459 C458 1.397 . S
C459 C460 1.334 . S
C460 H431 0.950 . S
C460 C459 1.334 . S
C460 C461 1.287 . S
C461 C460 1.287 . S
C461 C462 1.524 . S
C461 H464 0.999 . S
C462 H432 0.950 . S
C462 C461 1.524 . S
C462 C463 1.415 . S
C463 H433 0.950 . S
C463 C458 1.363 . S
C463 C462 1.415 . S
H464 C461 0.999 . S
H465 C446 0.913 . S
H466 C484 0.951 . S
H467 C486 0.951 . S
H468 C488 0.950 . S
H469 C489 0.950 . S
H470 C491 0.950 . S
H471 C494 0.950 . S
H472 C495 0.950 . S
H473 C497 0.950 . S
H474 C498 0.950 . S
H475 C499 0.951 . S
H476 C501 0.951 . S
H477 C503 0.950 . S
H478 C504 0.950 . S
H479 C506 0.950 . S
H480 C509 0.950 . S
H481 C510 0.950 . S
H482 C512 0.950 . S
H483 C513 0.950 . S
C484 H466 0.951 . S
C484 C485 1.366 . S
C484 C486 1.388 . S
C485 C484 1.366 . S
C485 C489 1.385 . S
C486 H467 0.951 . S
C486 C484 1.388 . S
C486 C487 1.366 . S
C487 C486 1.366 . S
C487 C488 1.414 . S
C487 C490 1.499 . S
C488 H468 0.950 . S
C488 C487 1.414 . S
C488 C489 1.374 . S
C489 H469 0.950 . S
C489 C485 1.385 . S
C489 C488 1.374 . S
C490 C487 1.499 . S
C490 C491 1.373 . S
C490 C492 1.389 . S
C491 H470 0.950 . S
C491 C490 1.373 . S
C491 C507 1.377 . S
C492 C490 1.389 . S
C492 C493 1.524 . S
C492 C506 1.377 . S
C493 C492 1.524 . S
C493 C494 1.397 . S
C493 C498 1.363 . S
C494 H471 0.950 . S
C494 C493 1.397 . S
C494 C495 1.334 . S
C495 H472 0.950 . S
C495 C494 1.334 . S
C495 C496 1.287 . S
C496 C495 1.287 . S
C496 C497 1.524 . S
C496 H515 0.913 . S
C497 H473 0.950 . S
C497 C496 1.524 . S
C497 C498 1.415 . S
C498 H474 0.950 . S
C498 C493 1.363 . S
C498 C497 1.415 . S
C499 H475 0.951 . S
C499 C500 1.366 . S
C499 C501 1.388 . S
C500 C499 1.366 . S
C500 C504 1.385 . S
C501 H476 0.951 . S
C501 C499 1.388 . S
C501 C502 1.366 . S
C502 C501 1.366 . S
C502 C503 1.414 . S
C502 C505 1.499 . S
C503 H477 0.950 . S
C503 C502 1.414 . S
C503 C504 1.374 . S
C504 H478 0.950 . S
C504 C500 1.385 . S
C504 C503 1.374 . S
C505 C502 1.499 . S
C505 C506 1.373 . S
C505 C507 1.389 . S
C506 H479 0.950 . S
C506 C492 1.377 . S
C506 C505 1.373 . S
C507 C491 1.377 . S
C507 C505 1.389 . S
C507 C508 1.524 . S
C508 C507 1.524 . S
C508 C509 1.397 . S
C508 C513 1.363 . S
C509 H480 0.950 . S
C509 C508 1.397 . S
C509 C510 1.334 . S
C510 H481 0.950 . S
C510 C509 1.334 . S
C510 C511 1.287 . S
C511 C510 1.287 . S
C511 C512 1.524 . S
C511 H514 0.999 . S
C512 H482 0.950 . S
C512 C511 1.524 . S
C512 C513 1.415 . S
C513 H483 0.950 . S
C513 C508 1.363 . S
C513 C512 1.415 . S
H514 C511 0.999 . S
H515 C496 0.913 . S
H516 C534 0.951 . S
H517 C536 0.951 . S
H518 C538 0.950 . S
H519 C539 0.950 . S
H520 C541 0.950 . S
H521 C544 0.950 . S
H522 C545 0.950 . S
H523 C547 0.950 . S
H524 C548 0.950 . S
H525 C549 0.951 . S
H526 C551 0.951 . S
H527 C553 0.950 . S
H528 C554 0.950 . S
H529 C556 0.950 . S
H530 C559 0.950 . S
H531 C560 0.950 . S
H532 C562 0.950 . S
H533 C563 0.950 . S
C534 H516 0.951 . S
C534 C535 1.366 . S
C534 C536 1.388 . S
C535 C534 1.366 . S
C535 C539 1.385 . S
C536 H517 0.951 . S
C536 C534 1.388 . S
C536 C537 1.366 . S
C537 C536 1.366 . S
C537 C538 1.414 . S
C537 C540 1.499 . S
C538 H518 0.950 . S
C538 C537 1.414 . S
C538 C539 1.374 . S
C539 H519 0.950 . S
C539 C535 1.385 . S
C539 C538 1.374 . S
C540 C537 1.499 . S
C540 C541 1.373 . S
C540 C542 1.389 . S
C541 H520 0.950 . S
C541 C540 1.373 . S
C541 C557 1.377 . S
C542 C540 1.389 . S
C542 C543 1.524 . S
C542 C556 1.377 . S
C543 C542 1.524 . S
C543 C544 1.397 . S
C543 C548 1.363 . S
C544 H521 0.950 . S
C544 C543 1.397 . S
C544 C545 1.334 . S
C545 H522 0.950 . S
C545 C544 1.334 . S
C545 C546 1.287 . S
C546 C545 1.287 . S
C546 C547 1.524 . S
C546 H565 0.913 . S
C547 H523 0.950 . S
C547 C546 1.524 . S
C547 C548 1.415 . S
C548 H524 0.950 . S
C548 C543 1.363 . S
C548 C547 1.415 . S
C549 H525 0.951 . S
C549 C550 1.366 . S
C549 C551 1.388 . S
C550 C549 1.366 . S
C550 C554 1.385 . S
C551 H526 0.951 . S
C551 C549 1.388 . S
C551 C552 1.366 . S
C552 C551 1.366 . S
C552 C553 1.414 . S
C552 C555 1.499 . S
C553 H527 0.950 . S
C553 C552 1.414 . S
C553 C554 1.374 . S
C554 H528 0.950 . S
C554 C550 1.385 . S
C554 C553 1.374 . S
C555 C552 1.499 . S
C555 C556 1.373 . S
C555 C557 1.389 . S
C556 H529 0.950 . S
C556 C542 1.377 . S
C556 C555 1.373 . S
C557 C541 1.377 . S
C557 C555 1.389 . S
C557 C558 1.524 . S
C558 C557 1.524 . S
C558 C559 1.397 . S
C558 C563 1.363 . S
C559 H530 0.950 . S
C559 C558 1.397 . S
C559 C560 1.334 . S
C560 H531 0.950 . S
C560 C559 1.334 . S
C560 C561 1.287 . S
C561 C560 1.287 . S
C561 C562 1.524 . S
C561 H564 0.999 . S
C562 H532 0.950 . S
C562 C561 1.524 . S
C562 C563 1.415 . S
C563 H533 0.950 . S
C563 C558 1.363 . S
C563 C562 1.415 . S
H564 C561 0.999 . S
H565 C546 0.913 . S
H566 C584 0.951 . S
H567 C586 0.951 . S
H568 C588 0.950 . S
H569 C589 0.950 . S
H570 C591 0.950 . S
H571 C594 0.950 . S
H572 C595 0.950 . S
H573 C597 0.950 . S
H574 C598 0.950 1_655 S
H575 C599 0.951 . S
H576 C601 0.951 . S
H577 C603 0.950 . S
H578 C604 0.950 . S
H579 C606 0.950 . S
H580 C609 0.950 . S
H581 C610 0.950 . S
H582 C612 0.950 . S
H583 C613 0.950 1_455 S
C584 H566 0.951 . S
C584 C585 1.347 1_655 S
C584 C586 1.388 . S
C585 C584 1.347 1_455 S
C585 C589 1.406 . S
C586 H567 0.951 . S
C586 C584 1.388 . S
C586 C587 1.366 1_655 S
C587 C586 1.366 1_455 S
C587 C588 1.414 . S
C587 C590 1.499 . S
C588 H568 0.950 . S
C588 C587 1.414 . S
C588 C589 1.374 . S
C589 H569 0.950 . S
C589 C585 1.406 . S
C589 C588 1.374 . S
C590 C587 1.499 . S
C590 C591 1.373 1_455 S
C590 C592 1.389 . S
C591 H570 0.950 . S
C591 C590 1.373 1_655 S
C591 C607 1.377 . S
C592 C590 1.389 . S
C592 C593 1.524 . S
C592 C606 1.377 . S
C593 C592 1.524 . S
C593 C594 1.397 . S
C593 C598 1.363 . S
C594 H571 0.950 . S
C594 C593 1.397 . S
C594 C595 1.334 . S
C595 H572 0.950 . S
C595 C594 1.334 . S
C595 C596 1.287 . S
C596 C595 1.287 . S
C596 C597 1.524 . S
C596 H615 0.913 . S
C597 H573 0.950 . S
C597 C596 1.524 . S
C597 C598 1.415 . S
C598 H574 0.950 1_455 S
C598 C593 1.363 . S
C598 C597 1.415 . S
C599 H575 0.951 . S
C599 C600 1.366 . S
C599 C601 1.388 . S
C600 C599 1.366 . S
C600 C604 1.385 1_455 S
C601 H576 0.951 . S
C601 C599 1.388 . S
C601 C602 1.371 . S
C602 C601 1.371 . S
C602 C603 1.409 1_455 S
C602 C605 1.498 1_455 S
C603 H577 0.950 . S
C603 C602 1.409 1_655 S
C603 C604 1.374 . S
C604 H578 0.950 . S
C604 C600 1.385 1_655 S
C604 C603 1.374 . S
C605 C602 1.498 1_655 S
C605 C606 1.372 1_655 S
C605 C607 1.390 . S
C606 H579 0.950 . S
C606 C592 1.377 . S
C606 C605 1.372 1_455 S
C607 C591 1.377 . S
C607 C605 1.390 . S
C607 C608 1.524 . S
C608 C607 1.524 . S
C608 C609 1.397 . S
C608 C613 1.363 . S
C609 H580 0.950 . S
C609 C608 1.397 . S
C609 C610 1.334 . S
C610 H581 0.950 . S
C610 C609 1.334 . S
C610 C611 1.287 . S
C611 C610 1.287 . S
C611 C612 1.524 . S
C611 H614 0.999 . S
C612 H582 0.950 . S
C612 C611 1.524 . S
C612 C613 1.415 . S
C613 H583 0.950 1_655 S
C613 C608 1.363 . S
C613 C612 1.415 . S
H614 C611 0.999 . S
H615 C596 0.913 . S
H616 C634 0.951 . S
H617 C636 0.951 . S
H618 C638 0.950 . S
H619 C639 0.950 . S
H620 C641 0.950 . S
H621 C644 0.950 . S
H622 C645 0.950 . S
H623 C647 0.950 . S
H624 C648 0.950 . S
H625 C649 0.951 . S
H626 C651 0.951 . S
H627 C653 0.950 . S
H628 C654 0.950 . S
H629 C656 0.950 . S
H630 C659 0.950 . S
H631 C660 0.950 . S
H632 C662 0.950 . S
H633 C663 0.950 . S
C634 H616 0.951 . S
C634 C635 1.368 . S
C634 C636 1.388 . S
C635 C634 1.368 . S
C635 C639 1.383 1_565 S
C636 H617 0.951 . S
C636 C634 1.388 . S
C636 C637 1.366 . S
C637 C636 1.366 . S
C637 C638 1.414 1_565 S
C637 C640 1.499 . S
C638 H618 0.950 . S
C638 C637 1.414 1_545 S
C638 C639 1.374 . S
C639 H619 0.950 . S
C639 C635 1.383 1_545 S
C639 C638 1.374 . S
C640 C637 1.499 . S
C640 C641 1.373 1_565 S
C640 C642 1.389 . S
C641 H620 0.950 . S
C641 C640 1.373 1_545 S
C641 C657 1.377 1_554 S
C642 C640 1.389 . S
C642 C643 1.524 . S
C642 C656 1.377 1_554 S
C643 C642 1.524 . S
C643 C644 1.397 . S
C643 C648 1.363 1_554 S
C644 H621 0.950 . S
C644 C643 1.397 . S
C644 C645 1.334 . S
C645 H622 0.950 . S
C645 C644 1.334 . S
C645 C646 1.287 . S
C646 C645 1.287 . S
C646 C647 1.524 1_554 S
C646 H665 0.913 . S
C647 H623 0.950 . S
C647 C646 1.524 1_556 S
C647 C648 1.415 . S
C648 H624 0.950 . S
C648 C643 1.363 1_556 S
C648 C647 1.415 . S
C649 H625 0.951 . S
C649 C650 1.366 1_545 S
C649 C651 1.388 . S
C650 C649 1.366 1_565 S
C650 C654 1.385 . S
C651 H626 0.951 . S
C651 C649 1.388 . S
C651 C652 1.366 . S
C652 C651 1.366 . S
C652 C653 1.414 1_545 S
C652 C655 1.499 . S
C653 H627 0.950 . S
C653 C652 1.414 1_565 S
C653 C654 1.374 . S
C654 H628 0.950 . S
C654 C650 1.385 . S
C654 C653 1.374 . S
C655 C652 1.499 . S
C655 C656 1.375 1_545 S
C655 C657 1.388 . S
C656 H629 0.950 . S
C656 C642 1.377 1_556 S
C656 C655 1.375 1_565 S
C657 C641 1.377 1_556 S
C657 C655 1.388 . S
C657 C658 1.524 . S
C658 C657 1.524 . S
C658 C659 1.397 . S
C658 C663 1.363 1_556 S
C659 H630 0.950 . S
C659 C658 1.397 . S
C659 C660 1.334 . S
C660 H631 0.950 . S
C660 C659 1.334 . S
C660 C661 1.287 . S
C661 C660 1.287 . S
C661 C662 1.524 1_556 S
C661 H664 0.999 . S
C662 H632 0.950 . S
C662 C661 1.524 1_554 S
C662 C663 1.415 . S
C663 H633 0.950 . S
C663 C658 1.363 1_554 S
C663 C662 1.415 . S
H664 C661 0.999 . S
H665 C646 0.913 . S
H666 C684 0.951 . S
H667 C686 0.951 . S
H668 C688 0.950 . S
H669 C689 0.950 . S
H670 C691 0.951 . S
H671 C694 0.950 . S
H672 C695 0.950 . S
H673 C697 0.950 . S
H674 C698 0.950 . S
H675 C699 0.951 . S
H676 C701 0.951 . S
H677 C703 0.950 . S
H678 C704 0.950 . S
H679 C706 0.950 . S
H680 C709 0.950 . S
H681 C710 0.950 . S
H682 C712 0.950 . S
H683 C713 0.950 . S
C684 H666 0.951 . S
C684 C685 1.366 . S
C684 C686 1.388 . S
C685 C684 1.366 . S
C685 C689 1.385 . S
C686 H667 0.951 . S
C686 C684 1.388 . S
C686 C687 1.366 . S
C687 C686 1.366 . S
C687 C688 1.414 . S
C687 C690 1.499 . S
C688 H668 0.950 . S
C688 C687 1.414 . S
C688 C689 1.374 . S
C689 H669 0.950 . S
C689 C685 1.385 . S
C689 C688 1.374 . S
C690 C687 1.499 . S
C690 C691 1.365 1_554 S
C690 C692 1.389 . S
C691 H670 0.951 . S
C691 C690 1.365 1_556 S
C691 C707 1.385 . S
C692 C690 1.389 . S
C692 C693 1.524 . S
C692 C706 1.380 . S
C693 C692 1.524 . S
C693 C694 1.397 . S
C693 C698 1.363 . S
C694 H671 0.950 . S
C694 C693 1.397 . S
C694 C695 1.334 . S
C695 H672 0.950 . S
C695 C694 1.334 . S
C695 C696 1.287 . S
C696 C695 1.287 . S
C696 C697 1.524 . S
C696 H715 0.913 . S
C697 H673 0.950 . S
C697 C696 1.524 . S
C697 C698 1.415 . S
C698 H674 0.950 . S
C698 C693 1.363 . S
C698 C697 1.415 . S
C699 H675 0.951 . S
C699 C700 1.366 . S
C699 C701 1.388 . S
C700 C699 1.366 . S
C700 C704 1.385 . S
C701 H676 0.951 . S
C701 C699 1.388 . S
C701 C702 1.366 . S
C702 C701 1.366 . S
C702 C703 1.414 . S
C702 C705 1.499 . S
C703 H677 0.950 . S
C703 C702 1.414 . S
C703 C704 1.374 . S
C704 H678 0.950 . S
C704 C700 1.385 . S
C704 C703 1.374 . S
C705 C702 1.499 . S
C705 C706 1.370 1_556 S
C705 C707 1.389 . S
C706 H679 0.950 . S
C706 C692 1.380 . S
C706 C705 1.370 1_554 S
C707 C691 1.385 . S
C707 C705 1.389 . S
C707 C708 1.524 . S
C708 C707 1.524 . S
C708 C709 1.397 . S
C708 C713 1.363 . S
C709 H680 0.950 . S
C709 C708 1.397 . S
C709 C710 1.334 . S
C710 H681 0.950 . S
C710 C709 1.334 . S
C710 C711 1.287 . S
C711 C710 1.287 . S
C711 C712 1.524 . S
C711 H714 0.999 . S
C712 H682 0.950 . S
C712 C711 1.524 . S
C712 C713 1.415 . S
C713 H683 0.950 . S
C713 C708 1.363 . S
C713 C712 1.415 . S
H714 C711 0.999 . S
H715 C696 0.913 . S
H716 C734 0.951 . S
H717 C736 0.951 . S
H718 C738 0.950 . S
H719 C739 0.950 . S
H720 C741 0.950 . S
H721 C744 0.950 . S
H722 C745 0.950 . S
H723 C747 0.950 . S
H724 C748 0.950 . S
H725 C749 0.951 . S
H726 C751 0.951 . S
H727 C753 0.950 . S
H728 C754 0.950 . S
H729 C756 0.950 . S
H730 C759 0.950 . S
H731 C760 0.950 . S
H732 C762 0.950 . S
H733 C763 0.950 . S
C734 H716 0.951 . S
C734 C735 1.366 . S
C734 C736 1.388 . S
C735 C734 1.366 . S
C735 C739 1.385 . S
C736 H717 0.951 . S
C736 C734 1.388 . S
C736 C737 1.366 . S
C737 C736 1.366 . S
C737 C738 1.414 . S
C737 C740 1.499 . S
C738 H718 0.950 . S
C738 C737 1.414 . S
C738 C739 1.374 . S
C739 H719 0.950 . S
C739 C735 1.385 . S
C739 C738 1.374 . S
C740 C737 1.499 . S
C740 C741 1.373 . S
C740 C742 1.389 1_554 S
C741 H720 0.950 . S
C741 C740 1.373 . S
C741 C757 1.377 . S
C742 C740 1.389 1_556 S
C742 C743 1.524 . S
C742 C756 1.377 . S
C743 C742 1.524 . S
C743 C744 1.397 1_556 S
C743 C748 1.363 . S
C744 H721 0.950 . S
C744 C743 1.397 1_554 S
C744 C745 1.334 . S
C745 H722 0.950 . S
C745 C744 1.334 . S
C745 C746 1.287 1_554 S
C746 C745 1.287 1_556 S
C746 C747 1.524 . S
C746 H765 0.913 . S
C747 H723 0.950 . S
C747 C746 1.524 . S
C747 C748 1.415 . S
C748 H724 0.950 . S
C748 C743 1.363 . S
C748 C747 1.415 . S
C749 H725 0.951 . S
C749 C750 1.366 . S
C749 C751 1.388 . S
C750 C749 1.366 . S
C750 C754 1.385 . S
C751 H726 0.951 . S
C751 C749 1.388 . S
C751 C752 1.366 . S
C752 C751 1.366 . S
C752 C753 1.414 . S
C752 C755 1.499 . S
C753 H727 0.950 . S
C753 C752 1.414 . S
C753 C754 1.374 . S
C754 H728 0.950 . S
C754 C750 1.385 . S
C754 C753 1.374 . S
C755 C752 1.499 . S
C755 C756 1.373 . S
C755 C757 1.389 1_556 S
C756 H729 0.950 . S
C756 C742 1.377 . S
C756 C755 1.373 . S
C757 C741 1.377 . S
C757 C755 1.389 1_554 S
C757 C758 1.524 . S
C758 C757 1.524 . S
C758 C759 1.397 1_554 S
C758 C763 1.363 . S
C759 H730 0.950 . S
C759 C758 1.397 1_556 S
C759 C760 1.334 . S
C760 H731 0.950 . S
C760 C759 1.334 . S
C760 C761 1.287 1_556 S
C761 C760 1.287 1_554 S
C761 C762 1.524 . S
C761 H764 0.999 . S
C762 H732 0.950 . S
C762 C761 1.524 . S
C762 C763 1.415 . S
C763 H733 0.950 . S
C763 C758 1.363 . S
C763 C762 1.415 . S
H764 C761 0.999 . S
H765 C746 0.913 . S
H766 C784 0.951 . S
H767 C786 0.951 . S
H768 C788 0.950 . S
H769 C789 0.950 . S
H770 C791 0.950 . S
H771 C794 0.950 1_554 S
H772 C795 0.950 . S
H773 C797 0.950 . S
H774 C798 0.950 . S
H775 C799 0.951 . S
H776 C801 0.951 . S
H777 C803 0.950 . S
H778 C804 0.950 . S
H779 C806 0.950 . S
H780 C809 0.950 1_556 S
H781 C810 0.950 . S
H782 C812 0.950 . S
H783 C813 0.950 . S
C784 H766 0.951 . S
C784 C785 1.339 1_455 S
C784 C786 1.388 . S
C785 C784 1.339 1_655 S
C785 C789 1.412 . S
C786 H767 0.951 . S
C786 C784 1.388 . S
C786 C787 1.366 1_455 S
C787 C786 1.366 1_655 S
C787 C788 1.414 . S
C787 C790 1.499 . S
C788 H768 0.950 . S
C788 C787 1.414 . S
C788 C789 1.374 . S
C789 H769 0.950 . S
C789 C785 1.412 . S
C789 C788 1.374 . S
C790 C787 1.499 . S
C790 C791 1.373 . S
C790 C792 1.389 1_654 S
C791 H770 0.950 . S
C791 C790 1.373 . S
C791 C807 1.377 . S
C792 C790 1.389 1_456 S
C792 C793 1.524 . S
C792 C806 1.377 . S
C793 C792 1.524 . S
C793 C794 1.397 1_455 S
C793 C798 1.363 . S
C794 H771 0.950 1_556 S
C794 C793 1.397 1_655 S
C794 C795 1.334 . S
C795 H772 0.950 . S
C795 C794 1.334 . S
C795 C796 1.287 1_655 S
C796 C795 1.287 1_455 S
C796 C797 1.524 . S
C796 H815 0.913 . S
C797 H773 0.950 . S
C797 C796 1.524 . S
C797 C798 1.415 . S
C798 H774 0.950 . S
C798 C793 1.363 . S
C798 C797 1.415 . S
C799 H775 0.951 . S
C799 C800 1.366 . S
C799 C801 1.388 . S
C800 C799 1.366 . S
C800 C804 1.385 1_655 S
C801 H776 0.951 . S
C801 C799 1.388 . S
C801 C802 1.391 . S
C802 C801 1.391 . S
C802 C803 1.390 1_655 S
C802 C805 1.498 1_655 S
C803 H777 0.950 . S
C803 C802 1.390 1_455 S
C803 C804 1.374 . S
C804 H778 0.950 . S
C804 C800 1.385 1_455 S
C804 C803 1.374 . S
C805 C802 1.498 1_455 S
C805 C806 1.373 . S
C805 C807 1.390 1_456 S
C806 H779 0.950 . S
C806 C792 1.377 . S
C806 C805 1.373 . S
C807 C791 1.377 . S
C807 C805 1.390 1_654 S
C807 C808 1.524 . S
C808 C807 1.524 . S
C808 C809 1.397 1_655 S
C808 C813 1.363 . S
C809 H780 0.950 1_554 S
C809 C808 1.397 1_455 S
C809 C810 1.334 . S
C810 H781 0.950 . S
C810 C809 1.334 . S
C810 C811 1.287 1_455 S
C811 C810 1.287 1_655 S
C811 C812 1.524 . S
C811 H814 0.999 . S
C812 H782 0.950 . S
C812 C811 1.524 . S
C812 C813 1.415 . S
C813 H783 0.950 . S
C813 C808 1.363 . S
C813 C812 1.415 . S
H814 C811 0.999 . S
H815 C796 0.913 . S
H816 C834 0.951 . S
H817 C836 0.951 . S
H818 C838 0.950 . S
H819 C839 0.950 . S
H820 C841 0.950 . S
H821 C844 0.950 1_655 S
H822 C845 0.950 . S
H823 C847 0.950 . S
H824 C848 0.950 . S
H825 C849 0.951 . S
H826 C851 0.951 . S
H827 C853 0.950 1_455 S
H828 C854 0.957 . S
H829 C856 0.950 1_455 S
H830 C859 0.950 . S
H831 C860 0.950 . S
H832 C862 0.950 . S
H833 C863 0.950 . S
C834 H816 0.951 . S
C834 C835 1.366 . S
C834 C836 1.388 . S
C835 C834 1.366 . S
C835 C839 1.385 1_455 S
C836 H817 0.951 . S
C836 C834 1.388 . S
C836 C837 1.366 1_455 S
C837 C836 1.366 1_655 S
C837 C838 1.414 . S
C837 C840 1.499 . S
C838 H818 0.950 . S
C838 C837 1.414 . S
C838 C839 1.374 . S
C839 H819 0.950 . S
C839 C835 1.385 1_655 S
C839 C838 1.374 . S
C840 C837 1.499 . S
C840 C841 1.373 . S
C840 C842 1.408 . S
C841 H820 0.950 . S
C841 C840 1.373 . S
C841 C857 1.377 . S
C842 C840 1.408 . S
C842 C843 1.502 1_655 S
C842 C856 1.383 . S
C843 C842 1.502 1_455 S
C843 C844 1.397 . S
C843 C848 1.363 . S
C844 H821 0.950 1_455 S
C844 C843 1.397 . S
C844 C845 1.334 . S
C845 H822 0.950 . S
C845 C844 1.334 . S
C845 C846 1.287 . S
C846 C845 1.287 . S
C846 C847 1.524 . S
C846 H865 0.913 . S
C847 H823 0.950 . S
C847 C846 1.524 . S
C847 C848 1.415 . S
C848 H824 0.950 . S
C848 C843 1.363 . S
C848 C847 1.415 . S
C849 H825 0.951 . S
C849 C850 1.366 . S
C849 C851 1.388 . S
C850 C849 1.366 . S
C850 C854 1.385 . S
C851 H826 0.951 . S
C851 C849 1.388 . S
C851 C852 1.366 . S
C852 C851 1.366 . S
C852 C853 1.414 . S
C852 C855 1.499 . S
C853 H827 0.950 1_655 S
C853 C852 1.414 . S
C853 C854 1.374 . S
C854 H828 0.957 . S
C854 C850 1.385 . S
C854 C853 1.374 . S
C855 C852 1.499 . S
C855 C856 1.373 . S
C855 C857 1.389 . S
C856 H829 0.950 1_655 S
C856 C842 1.383 . S
C856 C855 1.373 . S
C857 C841 1.377 . S
C857 C855 1.389 . S
C857 C858 1.524 . S
C858 C857 1.524 . S
C858 C859 1.397 . S
C858 C863 1.363 . S
C859 H830 0.950 . S
C859 C858 1.397 . S
C859 C860 1.334 . S
C860 H831 0.950 . S
C860 C859 1.334 . S
C860 C861 1.287 . S
C861 C860 1.287 . S
C861 C862 1.524 . S
C861 H864 0.999 . S
C862 H832 0.950 . S
C862 C861 1.524 . S
C862 C863 1.415 . S
C863 H833 0.950 . S
C863 C858 1.363 . S
C863 C862 1.415 . S
H864 C861 0.999 . S
H865 C846 0.913 . S
H866 C884 0.951 . S
H867 C886 0.951 1_545 S
H868 C888 0.950 . S
H869 C889 0.950 . S
H870 C891 0.950 1_545 S
H871 C894 0.950 . S
H872 C895 0.950 . S
H873 C897 0.950 . S
H874 C898 0.950 . S
H875 C899 0.951 . S
H876 C901 0.951 . S
H877 C903 0.950 . S
H878 C904 0.950 . S
H879 C906 0.950 . S
H880 C909 0.950 . S
H881 C910 0.950 . S
H882 C912 0.950 . S
H883 C913 0.950 1_565 S
C884 H866 0.951 . S
C884 C885 1.366 . S
C884 C886 1.389 1_545 S
C885 C884 1.366 . S
C885 C889 1.385 1_545 S
C886 H867 0.951 1_565 S
C886 C884 1.389 1_565 S
C886 C887 1.364 . S
C887 C886 1.364 . S
C887 C888 1.414 . S
C887 C890 1.499 . S
C888 H868 0.950 . S
C888 C887 1.414 . S
C888 C889 1.374 . S
C889 H869 0.950 . S
C889 C885 1.385 1_565 S
C889 C888 1.374 . S
C890 C887 1.499 . S
C890 C891 1.373 . S
C890 C892 1.389 . S
C891 H870 0.950 1_565 S
C891 C890 1.373 . S
C891 C907 1.377 . S
C892 C890 1.389 . S
C892 C893 1.524 . S
C892 C906 1.377 . S
C893 C892 1.524 . S
C893 C894 1.397 . S
C893 C898 1.363 . S
C894 H871 0.950 . S
C894 C893 1.397 . S
C894 C895 1.334 . S
C895 H872 0.950 . S
C895 C894 1.334 . S
C895 C896 1.287 . S
C896 C895 1.287 . S
C896 C897 1.524 . S
C896 H915 0.913 . S
C897 H873 0.950 . S
C897 C896 1.524 . S
C897 C898 1.415 . S
C898 H874 0.950 . S
C898 C893 1.363 . S
C898 C897 1.415 . S
C899 H875 0.951 . S
C899 C900 1.366 . S
C899 C901 1.388 . S
C900 C899 1.366 . S
C900 C904 1.385 . S
C901 H876 0.951 . S
C901 C899 1.388 . S
C901 C902 1.366 . S
C902 C901 1.366 . S
C902 C903 1.414 . S
C902 C905 1.499 . S
C903 H877 0.950 . S
C903 C902 1.414 . S
C903 C904 1.374 . S
C904 H878 0.950 . S
C904 C900 1.385 . S
C904 C903 1.374 . S
C905 C902 1.499 . S
C905 C906 1.373 . S
C905 C907 1.389 . S
C906 H879 0.950 . S
C906 C892 1.377 . S
C906 C905 1.373 . S
C907 C891 1.377 . S
C907 C905 1.389 . S
C907 C908 1.524 1_565 S
C908 C907 1.524 1_545 S
C908 C909 1.397 . S
C908 C913 1.363 . S
C909 H880 0.950 . S
C909 C908 1.397 . S
C909 C910 1.334 . S
C910 H881 0.950 . S
C910 C909 1.334 . S
C910 C911 1.287 . S
C911 C910 1.287 . S
C911 C912 1.524 . S
C911 H914 0.999 . S
C912 H882 0.950 . S
C912 C911 1.524 . S
C912 C913 1.415 . S
C913 H883 0.950 1_545 S
C913 C908 1.363 . S
C913 C912 1.415 . S
H914 C911 0.999 . S
H915 C896 0.913 . S
H916 C934 0.951 . S
H917 C936 0.951 . S
H918 C938 0.950 . S
H919 C939 0.950 . S
H920 C941 0.950 . S
H921 C944 0.950 . S
H922 C945 0.950 . S
H923 C947 0.950 . S
H924 C948 0.950 . S
H925 C949 0.951 . S
H926 C951 0.951 . S
H927 C953 0.950 . S
H928 C954 0.950 . S
H929 C956 0.950 . S
H930 C959 0.950 . S
H931 C960 0.950 . S
H932 C962 0.950 . S
H933 C963 0.950 . S
C934 H916 0.951 . S
C934 C935 1.366 . S
C934 C936 1.388 . S
C935 C934 1.366 . S
C935 C939 1.385 . S
C936 H917 0.951 . S
C936 C934 1.388 . S
C936 C937 1.366 . S
C937 C936 1.366 . S
C937 C938 1.414 . S
C937 C940 1.499 . S
C938 H918 0.950 . S
C938 C937 1.414 . S
C938 C939 1.374 . S
C939 H919 0.950 . S
C939 C935 1.385 . S
C939 C938 1.374 . S
C940 C937 1.499 . S
C940 C941 1.373 . S
C940 C942 1.389 . S
C941 H920 0.950 . S
C941 C940 1.373 . S
C941 C957 1.377 . S
C942 C940 1.389 . S
C942 C943 1.524 . S
C942 C956 1.377 . S
C943 C942 1.524 . S
C943 C944 1.397 . S
C943 C948 1.363 . S
C944 H921 0.950 . S
C944 C943 1.397 . S
C944 C945 1.334 . S
C945 H922 0.950 . S
C945 C944 1.334 . S
C945 C946 1.287 . S
C946 C945 1.287 . S
C946 C947 1.524 . S
C946 H965 0.913 . S
C947 H923 0.950 . S
C947 C946 1.524 . S
C947 C948 1.415 . S
C948 H924 0.950 . S
C948 C943 1.363 . S
C948 C947 1.415 . S
C949 H925 0.951 . S
C949 C950 1.366 . S
C949 C951 1.388 . S
C950 C949 1.366 . S
C950 C954 1.385 . S
C951 H926 0.951 . S
C951 C949 1.388 . S
C951 C952 1.366 . S
C952 C951 1.366 . S
C952 C953 1.414 . S
C952 C955 1.499 . S
C953 H927 0.950 . S
C953 C952 1.414 . S
C953 C954 1.374 . S
C954 H928 0.950 . S
C954 C950 1.385 . S
C954 C953 1.374 . S
C955 C952 1.499 . S
C955 C956 1.373 . S
C955 C957 1.389 . S
C956 H929 0.950 . S
C956 C942 1.377 . S
C956 C955 1.373 . S
C957 C941 1.377 . S
C957 C955 1.389 . S
C957 C958 1.524 . S
C958 C957 1.524 . S
C958 C959 1.397 . S
C958 C963 1.363 . S
C959 H930 0.950 . S
C959 C958 1.397 . S
C959 C960 1.334 . S
C960 H931 0.950 . S
C960 C959 1.334 . S
C960 C961 1.287 . S
C961 C960 1.287 . S
C961 C962 1.524 . S
C961 H964 0.999 . S
C962 H932 0.950 . S
C962 C961 1.524 . S
C962 C963 1.415 . S
C963 H933 0.950 . S
C963 C958 1.363 . S
C963 C962 1.415 . S
H964 C961 0.999 . S
H965 C946 0.913 . S
H966 C984 0.951 . S
H967 C986 0.951 . S
H968 C988 0.950 . S
H969 C989 0.950 . S
H970 C991 0.950 . S
H971 C994 0.950 . S
H972 C995 0.950 . S
H973 C997 0.950 . S
H974 C998 0.950 . S
H975 C999 0.951 . S
H976 C1001 0.951 . S
H977 C1003 0.950 . S
H978 C1004 0.950 . S
H979 C1006 0.950 . S
H980 C1009 0.950 . S
H981 C1010 0.950 . S
H982 C1012 0.950 . S
H983 C1013 0.950 . S
C984 H966 0.951 . S
C984 C985 1.366 . S
C984 C986 1.388 . S
C985 C984 1.366 . S
C985 C989 1.385 . S
C986 H967 0.951 . S
C986 C984 1.388 . S
C986 C987 1.366 . S
C987 C986 1.366 . S
C987 C988 1.414 . S
C987 C990 1.499 . S
C988 H968 0.950 . S
C988 C987 1.414 . S
C988 C989 1.374 . S
C989 H969 0.950 . S
C989 C985 1.385 . S
C989 C988 1.374 . S
C990 C987 1.499 . S
C990 C991 1.373 . S
C990 C992 1.389 . S
C991 H970 0.950 . S
C991 C990 1.373 . S
C991 C1007 1.377 . S
C992 C990 1.389 . S
C992 C993 1.524 . S
C992 C1006 1.377 . S
C993 C992 1.524 . S
C993 C994 1.397 . S
C993 C998 1.363 . S
C994 H971 0.950 . S
C994 C993 1.397 . S
C994 C995 1.334 . S
C995 H972 0.950 . S
C995 C994 1.334 . S
C995 C996 1.287 . S
C996 C995 1.287 . S
C996 C997 1.524 . S
C996 H1015 0.913 . S
C997 H973 0.950 . S
C997 C996 1.524 . S
C997 C998 1.415 . S
C998 H974 0.950 . S
C998 C993 1.363 . S
C998 C997 1.415 . S
C999 H975 0.951 . S
C999 C1000 1.366 . S
C999 C1001 1.388 . S
C1000 C999 1.366 . S
C1000 C1004 1.385 . S
C1001 H976 0.951 . S
C1001 C999 1.388 . S
C1001 C1002 1.366 . S
C1002 C1001 1.366 . S
C1002 C1003 1.414 . S
C1002 C1005 1.499 . S
C1003 H977 0.950 . S
C1003 C1002 1.414 . S
C1003 C1004 1.374 . S
C1004 H978 0.950 . S
C1004 C1000 1.385 . S
C1004 C1003 1.374 . S
C1005 C1002 1.499 . S
C1005 C1006 1.373 . S
C1005 C1007 1.389 . S
C1006 H979 0.950 . S
C1006 C992 1.377 . S
C1006 C1005 1.373 . S
C1007 C991 1.377 . S
C1007 C1005 1.389 . S
C1007 C1008 1.524 . S
C1008 C1007 1.524 . S
C1008 C1009 1.397 . S
C1008 C1013 1.363 . S
C1009 H980 0.950 . S
C1009 C1008 1.397 . S
C1009 C1010 1.334 . S
C1010 H981 0.950 . S
C1010 C1009 1.334 . S
C1010 C1011 1.287 . S
C1011 C1010 1.287 . S
C1011 C1012 1.524 . S
C1011 H1014 0.999 . S
C1012 H982 0.950 . S
C1012 C1011 1.524 . S
C1012 C1013 1.415 . S
C1013 H983 0.950 . S
C1013 C1008 1.363 . S
C1013 C1012 1.415 . S
H1014 C1011 0.999 . S
H1015 C996 0.913 . S
H1016 C1034 0.958 . S
H1017 C1036 0.951 . S
H1018 C1038 0.950 . S
H1019 C1039 0.948 1_655 S
H1020 C1041 0.948 . S
H1021 C1044 0.950 . S
H1022 C1045 0.950 . S
H1023 C1047 0.950 . S
H1024 C1048 0.950 . S
H1025 C1049 0.951 . S
H1026 C1051 0.951 1_554 S
H1027 C1053 0.950 . S
H1028 C1054 0.950 . S
H1029 C1056 0.950 . S
H1030 C1059 0.950 . S
H1031 C1060 0.959 . S
H1032 C1062 0.950 . S
H1033 C1063 0.950 . S
C1034 H1016 0.958 . S
C1034 C1035 1.370 . S
C1034 C1036 1.379 1_655 S
C1035 C1034 1.370 . S
C1035 C1039 1.381 1_655 S
C1036 H1017 0.951 . S
C1036 C1034 1.379 1_455 S
C1036 C1037 1.366 . S
C1037 C1036 1.366 . S
C1037 C1038 1.414 . S
C1037 C1040 1.499 . S
C1038 H1018 0.950 . S
C1038 C1037 1.414 . S
C1038 C1039 1.379 . S
C1039 H1019 0.948 1_455 S
C1039 C1035 1.381 1_455 S
C1039 C1038 1.379 . S
C1040 C1037 1.499 . S
C1040 C1041 1.375 1_455 S
C1040 C1042 1.389 . S
C1041 H1020 0.948 . S
C1041 C1040 1.375 1_655 S
C1041 C1057 1.377 1_655 S
C1042 C1040 1.389 . S
C1042 C1043 1.524 1_554 S
C1042 C1056 1.377 1_554 S
C1043 C1042 1.524 1_556 S
C1043 C1044 1.397 1_556 S
C1043 C1048 1.363 . S
C1044 H1021 0.950 . S
C1044 C1043 1.397 1_554 S
C1044 C1045 1.334 . S
C1045 H1022 0.950 . S
C1045 C1044 1.334 . S
C1045 C1046 1.287 1_554 S
C1046 C1045 1.287 1_556 S
C1046 C1047 1.524 . S
C1046 H1065 0.913 . S
C1047 H1023 0.950 . S
C1047 C1046 1.524 . S
C1047 C1048 1.415 . S
C1048 H1024 0.950 . S
C1048 C1043 1.363 . S
C1048 C1047 1.415 . S
C1049 H1025 0.951 . S
C1049 C1050 1.366 . S
C1049 C1051 1.388 . S
C1050 C1049 1.366 . S
C1050 C1054 1.385 . S
C1051 H1026 0.951 1_556 S
C1051 C1049 1.388 . S
C1051 C1052 1.366 . S
C1052 C1051 1.366 . S
C1052 C1053 1.414 . S
C1052 C1055 1.499 . S
C1053 H1027 0.950 . S
C1053 C1052 1.414 . S
C1053 C1054 1.374 . S
C1054 H1028 0.950 . S
C1054 C1050 1.385 . S
C1054 C1053 1.374 . S
C1055 C1052 1.499 . S
C1055 C1056 1.373 . S
C1055 C1057 1.389 1_556 S
C1056 H1029 0.950 . S
C1056 C1042 1.377 1_556 S
C1056 C1055 1.373 . S
C1057 C1041 1.377 1_455 S
C1057 C1055 1.389 1_554 S
C1057 C1058 1.524 1_455 S
C1058 C1057 1.524 1_655 S
C1058 C1059 1.397 1_554 S
C1058 C1063 1.363 . S
C1059 H1030 0.950 . S
C1059 C1058 1.397 1_556 S
C1059 C1060 1.335 . S
C1060 H1031 0.959 . S
C1060 C1059 1.335 . S
C1060 C1061 1.277 1_556 S
C1061 C1060 1.277 1_554 S
C1061 C1062 1.524 . S
C1061 H1064 0.999 . S
C1062 H1032 0.950 . S
C1062 C1061 1.524 . S
C1062 C1063 1.415 . S
C1063 H1033 0.950 . S
C1063 C1058 1.363 . S
C1063 C1062 1.415 . S
H1064 C1061 0.999 . S
H1065 C1046 0.913 . S
H1066 C1084 0.951 . S
H1067 C1086 0.951 . S
H1068 C1088 0.950 . S
H1069 C1089 0.950 . S
H1070 C1091 0.950 . S
H1071 C1094 0.950 1_556 S
H1072 C1095 0.950 1_556 S
H1073 C1097 0.950 . S
H1074 C1098 0.950 . S
H1075 C1099 0.951 . S
H1076 C1101 0.951 . S
H1077 C1103 0.950 1_554 S
H1078 C1104 0.950 . S
H1079 C1106 0.970 1_556 S
H1080 C1109 0.950 . S
H1081 C1110 0.950 . S
H1082 C1112 0.950 . S
H1083 C1113 0.950 . S
C1084 H1066 0.951 . S
C1084 C1085 1.366 . S
C1084 C1086 1.388 . S
C1085 C1084 1.366 . S
C1085 C1089 1.385 1_565 S
C1086 H1067 0.951 . S
C1086 C1084 1.388 . S
C1086 C1087 1.366 1_565 S
C1087 C1086 1.366 1_545 S
C1087 C1088 1.414 . S
C1087 C1090 1.499 . S
C1088 H1068 0.950 . S
C1088 C1087 1.414 . S
C1088 C1089 1.374 . S
C1089 H1069 0.950 . S
C1089 C1085 1.385 1_545 S
C1089 C1088 1.374 . S
C1090 C1087 1.499 . S
C1090 C1091 1.373 . S
C1090 C1092 1.389 1_545 S
C1091 H1070 0.950 . S
C1091 C1090 1.373 . S
C1091 C1107 1.377 . S
C1092 C1090 1.389 1_565 S
C1092 C1093 1.524 . S
C1092 C1106 1.383 . S
C1093 C1092 1.524 . S
C1093 C1094 1.397 . S
C1093 C1098 1.363 . S
C1094 H1071 0.950 1_554 S
C1094 C1093 1.397 . S
C1094 C1095 1.334 . S
C1095 H1072 0.950 1_554 S
C1095 C1094 1.334 . S
C1095 C1096 1.287 . S
C1096 C1095 1.287 . S
C1096 C1097 1.524 . S
C1096 H1115 0.913 . S
C1097 H1073 0.950 . S
C1097 C1096 1.524 . S
C1097 C1098 1.415 . S
C1098 H1074 0.950 . S
C1098 C1093 1.363 . S
C1098 C1097 1.415 . S
C1099 H1075 0.951 . S
C1099 C1100 1.366 . S
C1099 C1101 1.388 . S
C1100 C1099 1.366 . S
C1100 C1104 1.385 . S
C1101 H1076 0.951 . S
C1101 C1099 1.388 . S
C1101 C1102 1.366 . S
C1102 C1101 1.366 . S
C1102 C1103 1.414 . S
C1102 C1105 1.499 . S
C1103 H1077 0.950 1_556 S
C1103 C1102 1.414 . S
C1103 C1104 1.374 . S
C1104 H1078 0.950 . S
C1104 C1100 1.385 . S
C1104 C1103 1.374 . S
C1105 C1102 1.499 . S
C1105 C1106 1.348 1_546 S
C1105 C1107 1.389 1_556 S
C1106 H1079 0.970 1_554 S
C1106 C1092 1.383 . S
C1106 C1105 1.348 1_564 S
C1107 C1091 1.377 . S
C1107 C1105 1.389 1_554 S
C1107 C1108 1.524 . S
C1108 C1107 1.524 . S
C1108 C1109 1.397 . S
C1108 C1113 1.363 1_554 S
C1109 H1080 0.950 . S
C1109 C1108 1.397 . S
C1109 C1110 1.334 . S
C1110 H1081 0.950 . S
C1110 C1109 1.334 . S
C1110 C1111 1.287 . S
C1111 C1110 1.287 . S
C1111 C1112 1.524 1_554 S
C1111 H1114 1.000 . S
C1112 H1082 0.950 . S
C1112 C1111 1.524 1_556 S
C1112 C1113 1.415 . S
C1113 H1083 0.950 . S
C1113 C1108 1.363 1_556 S
C1113 C1112 1.415 . S
H1114 C1111 1.000 . S
H1115 C1096 0.913 . S
H1116 C1134 0.951 . S
H1117 C1136 0.951 . S
H1118 C1138 0.950 . S
H1119 C1139 0.950 . S
H1120 C1141 0.950 . S
H1121 C1144 0.950 . S
H1122 C1145 0.950 . S
H1123 C1147 0.950 . S
H1124 C1148 0.950 . S
H1125 C1149 0.951 . S
H1126 C1151 0.951 . S
H1127 C1153 0.950 . S
H1128 C1154 0.950 . S
H1129 C1156 0.950 . S
H1130 C1159 0.950 . S
H1131 C1160 0.950 . S
H1132 C1162 0.950 . S
H1133 C1163 0.950 . S
C1134 H1116 0.951 . S
C1134 C1135 1.366 . S
C1134 C1136 1.388 . S
C1135 C1134 1.366 . S
C1135 C1139 1.385 . S
C1136 H1117 0.951 . S
C1136 C1134 1.388 . S
C1136 C1137 1.366 . S
C1137 C1136 1.366 . S
C1137 C1138 1.414 . S
C1137 C1140 1.499 . S
C1138 H1118 0.950 . S
C1138 C1137 1.414 . S
C1138 C1139 1.374 . S
C1139 H1119 0.950 . S
C1139 C1135 1.385 . S
C1139 C1138 1.374 . S
C1140 C1137 1.499 . S
C1140 C1141 1.373 . S
C1140 C1142 1.389 . S
C1141 H1120 0.950 . S
C1141 C1140 1.373 . S
C1141 C1157 1.377 1_554 S
C1142 C1140 1.389 . S
C1142 C1143 1.524 . S
C1142 C1156 1.377 . S
C1143 C1142 1.524 . S
C1143 C1144 1.397 . S
C1143 C1148 1.363 . S
C1144 H1121 0.950 . S
C1144 C1143 1.397 . S
C1144 C1145 1.334 . S
C1145 H1122 0.950 . S
C1145 C1144 1.334 . S
C1145 C1146 1.287 . S
C1146 C1145 1.287 . S
C1146 C1147 1.524 . S
C1146 H1165 0.913 . S
C1147 H1123 0.950 . S
C1147 C1146 1.524 . S
C1147 C1148 1.415 . S
C1148 H1124 0.950 . S
C1148 C1143 1.363 . S
C1148 C1147 1.415 . S
C1149 H1125 0.951 . S
C1149 C1150 1.366 . S
C1149 C1151 1.388 . S
C1150 C1149 1.366 . S
C1150 C1154 1.385 . S
C1151 H1126 0.951 . S
C1151 C1149 1.388 . S
C1151 C1152 1.366 . S
C1152 C1151 1.366 . S
C1152 C1153 1.414 . S
C1152 C1155 1.499 . S
C1153 H1127 0.950 . S
C1153 C1152 1.414 . S
C1153 C1154 1.374 . S
C1154 H1128 0.950 . S
C1154 C1150 1.385 . S
C1154 C1153 1.374 . S
C1155 C1152 1.499 . S
C1155 C1156 1.373 1_556 S
C1155 C1157 1.389 . S
C1156 H1129 0.950 . S
C1156 C1142 1.377 . S
C1156 C1155 1.373 1_554 S
C1157 C1141 1.377 1_556 S
C1157 C1155 1.389 . S
C1157 C1158 1.524 . S
C1158 C1157 1.524 . S
C1158 C1159 1.397 . S
C1158 C1163 1.363 . S
C1159 H1130 0.950 . S
C1159 C1158 1.397 . S
C1159 C1160 1.334 . S
C1160 H1131 0.950 . S
C1160 C1159 1.334 . S
C1160 C1161 1.287 . S
C1161 C1160 1.287 . S
C1161 C1162 1.524 . S
C1161 H1164 0.999 . S
C1162 H1132 0.950 . S
C1162 C1161 1.524 . S
C1162 C1163 1.415 . S
C1163 H1133 0.950 . S
C1163 C1158 1.363 . S
C1163 C1162 1.415 . S
H1164 C1161 0.999 . S
H1165 C1146 0.913 . S
H1166 C1184 0.951 . S
H1167 C1186 0.951 . S
H1168 C1188 0.950 . S
H1169 C1189 0.950 . S
H1170 C1191 0.950 . S
H1171 C1194 0.950 . S
H1172 C1195 0.950 1_554 S
H1173 C1197 0.950 . S
H1174 C1198 0.950 . S
H1175 C1199 0.951 . S
H1176 C1201 0.951 1_554 S
H1177 C1203 0.950 . S
H1178 C1204 0.950 . S
H1179 C1206 0.950 . S
H1180 C1209 0.950 1_556 S
H1181 C1210 0.950 . S
H1182 C1212 0.950 . S
H1183 C1213 0.950 . S
C1184 H1166 0.951 . S
C1184 C1185 1.366 . S
C1184 C1186 1.388 . S
C1185 C1184 1.366 . S
C1185 C1189 1.385 . S
C1186 H1167 0.951 . S
C1186 C1184 1.388 . S
C1186 C1187 1.366 . S
C1187 C1186 1.366 . S
C1187 C1188 1.414 . S
C1187 C1190 1.499 . S
C1188 H1168 0.950 . S
C1188 C1187 1.414 . S
C1188 C1189 1.374 . S
C1189 H1169 0.950 . S
C1189 C1185 1.385 . S
C1189 C1188 1.374 . S
C1190 C1187 1.499 . S
C1190 C1191 1.373 . S
C1190 C1192 1.389 1_554 S
C1191 H1170 0.950 . S
C1191 C1190 1.373 . S
C1191 C1207 1.377 . S
C1192 C1190 1.389 1_556 S
C1192 C1193 1.524 . S
C1192 C1206 1.377 . S
C1193 C1192 1.524 . S
C1193 C1194 1.397 1_556 S
C1193 C1198 1.363 . S
C1194 H1171 0.950 . S
C1194 C1193 1.397 1_554 S
C1194 C1195 1.334 1_554 S
C1195 H1172 0.950 1_556 S
C1195 C1194 1.334 1_556 S
C1195 C1196 1.287 . S
C1196 C1195 1.287 . S
C1196 C1197 1.524 . S
C1196 H1215 0.913 . S
C1197 H1173 0.950 . S
C1197 C1196 1.524 . S
C1197 C1198 1.415 . S
C1198 H1174 0.950 . S
C1198 C1193 1.363 . S
C1198 C1197 1.415 . S
C1199 H1175 0.951 . S
C1199 C1200 1.366 . S
C1199 C1201 1.388 . S
C1200 C1199 1.366 . S
C1200 C1204 1.385 . S
C1201 H1176 0.951 1_556 S
C1201 C1199 1.388 . S
C1201 C1202 1.366 . S
C1202 C1201 1.366 . S
C1202 C1203 1.414 . S
C1202 C1205 1.499 . S
C1203 H1177 0.950 . S
C1203 C1202 1.414 . S
C1203 C1204 1.374 . S
C1204 H1178 0.950 . S
C1204 C1200 1.385 . S
C1204 C1203 1.374 . S
C1205 C1202 1.499 . S
C1205 C1206 1.373 . S
C1205 C1207 1.389 1_556 S
C1206 H1179 0.950 . S
C1206 C1192 1.377 . S
C1206 C1205 1.373 . S
C1207 C1191 1.377 . S
C1207 C1205 1.389 1_554 S
C1207 C1208 1.524 . S
C1208 C1207 1.524 . S
C1208 C1209 1.397 . S
C1208 C1213 1.363 . S
C1209 H1180 0.950 1_554 S
C1209 C1208 1.397 . S
C1209 C1210 1.334 . S
C1210 H1181 0.950 . S
C1210 C1209 1.334 . S
C1210 C1211 1.287 . S
C1211 C1210 1.287 . S
C1211 C1212 1.524 . S
C1211 H1214 0.999 . S
C1212 H1182 0.950 . S
C1212 C1211 1.524 . S
C1212 C1213 1.415 . S
C1213 H1183 0.950 . S
C1213 C1208 1.363 . S
C1213 C1212 1.415 . S
H1214 C1211 0.999 . S
H1215 C1196 0.913 . S
H1216 C1234 0.951 . S
H1217 C1236 0.951 . S
H1218 C1238 0.953 . S
H1219 C1239 0.962 . S
H1220 C1241 0.950 . S
H1221 C1244 0.950 . S
H1222 C1245 0.950 . S
H1223 C1247 0.950 . S
H1224 C1248 0.950 . S
H1225 C1249 0.951 . S
H1226 C1251 0.951 . S
H1227 C1253 0.950 . S
H1228 C1254 0.950 . S
H1229 C1256 0.950 . S
H1230 C1259 0.950 . S
H1231 C1260 0.950 . S
H1232 C1262 0.950 . S
H1233 C1263 0.950 . S
C1234 H1216 0.951 . S
C1234 C1235 1.366 . S
C1234 C1236 1.388 . S
C1235 C1234 1.366 . S
C1235 C1239 1.377 1_455 S
C1236 H1217 0.951 . S
C1236 C1234 1.388 . S
C1236 C1237 1.366 . S
C1237 C1236 1.366 . S
C1237 C1238 1.411 1_455 S
C1237 C1240 1.499 . S
C1238 H1218 0.953 . S
C1238 C1237 1.411 1_655 S
C1238 C1239 1.373 . S
C1239 H1219 0.962 . S
C1239 C1235 1.377 1_655 S
C1239 C1238 1.373 . S
C1240 C1237 1.499 . S
C1240 C1241 1.373 . S
C1240 C1242 1.389 1_455 S
C1241 H1220 0.950 . S
C1241 C1240 1.373 . S
C1241 C1257 1.377 . S
C1242 C1240 1.389 1_655 S
C1242 C1243 1.524 . S
C1242 C1256 1.377 . S
C1243 C1242 1.524 . S
C1243 C1244 1.397 . S
C1243 C1248 1.363 . S
C1244 H1221 0.950 . S
C1244 C1243 1.397 . S
C1244 C1245 1.334 . S
C1245 H1222 0.950 . S
C1245 C1244 1.334 . S
C1245 C1246 1.287 . S
C1246 C1245 1.287 . S
C1246 C1247 1.524 . S
C1246 H1265 0.913 . S
C1247 H1223 0.950 . S
C1247 C1246 1.524 . S
C1247 C1248 1.415 . S
C1248 H1224 0.950 . S
C1248 C1243 1.363 . S
C1248 C1247 1.415 . S
C1249 H1225 0.951 . S
C1249 C1250 1.366 . S
C1249 C1251 1.388 . S
C1250 C1249 1.366 . S
C1250 C1254 1.385 . S
C1251 H1226 0.951 . S
C1251 C1249 1.388 . S
C1251 C1252 1.366 . S
C1252 C1251 1.366 . S
C1252 C1253 1.414 . S
C1252 C1255 1.499 . S
C1253 H1227 0.950 . S
C1253 C1252 1.414 . S
C1253 C1254 1.374 . S
C1254 H1228 0.950 . S
C1254 C1250 1.385 . S
C1254 C1253 1.374 . S
C1255 C1252 1.499 . S
C1255 C1256 1.373 1_455 S
C1255 C1257 1.389 . S
C1256 H1229 0.950 . S
C1256 C1242 1.377 . S
C1256 C1255 1.373 1_655 S
C1257 C1241 1.377 . S
C1257 C1255 1.389 . S
C1257 C1258 1.524 . S
C1258 C1257 1.524 . S
C1258 C1259 1.397 . S
C1258 C1263 1.363 . S
C1259 H1230 0.950 . S
C1259 C1258 1.397 . S
C1259 C1260 1.334 . S
C1260 H1231 0.950 . S
C1260 C1259 1.334 . S
C1260 C1261 1.287 . S
C1261 C1260 1.287 . S
C1261 C1262 1.524 . S
C1261 H1264 0.999 . S
C1262 H1232 0.950 . S
C1262 C1261 1.524 . S
C1262 C1263 1.415 . S
C1263 H1233 0.950 . S
C1263 C1258 1.363 . S
C1263 C1262 1.415 . S
H1264 C1261 0.999 . S
H1265 C1246 0.913 . S
H1266 C1284 0.951 . S
H1267 C1286 0.951 . S
H1268 C1288 0.950 . S
H1269 C1289 0.950 . S
H1270 C1291 0.950 . S
H1271 C1294 0.950 . S
H1272 C1295 0.950 . S
H1273 C1297 0.950 . S
H1274 C1298 0.950 . S
H1275 C1299 0.951 . S
H1276 C1301 0.951 . S
H1277 C1303 0.950 . S
H1278 C1304 0.950 . S
H1279 C1306 0.950 . S
H1280 C1309 0.950 . S
H1281 C1310 0.950 . S
H1282 C1312 0.950 1_564 S
H1283 C1313 0.972 . S
C1284 H1266 0.951 . S
C1284 C1285 1.366 . S
C1284 C1286 1.388 . S
C1285 C1284 1.366 . S
C1285 C1289 1.385 1_545 S
C1286 H1267 0.951 . S
C1286 C1284 1.388 . S
C1286 C1287 1.366 . S
C1287 C1286 1.366 . S
C1287 C1288 1.414 1_545 S
C1287 C1290 1.499 . S
C1288 H1268 0.950 . S
C1288 C1287 1.414 1_565 S
C1288 C1289 1.374 . S
C1289 H1269 0.950 . S
C1289 C1285 1.385 1_565 S
C1289 C1288 1.374 . S
C1290 C1287 1.499 . S
C1290 C1291 1.373 . S
C1290 C1292 1.389 . S
C1291 H1270 0.950 . S
C1291 C1290 1.373 . S
C1291 C1307 1.377 . S
C1292 C1290 1.389 . S
C1292 C1293 1.521 1_545 S
C1292 C1306 1.377 . S
C1293 C1292 1.521 1_565 S
C1293 C1294 1.416 . S
C1293 C1298 1.349 1_565 S
C1294 H1271 0.950 . S
C1294 C1293 1.416 . S
C1294 C1295 1.334 . S
C1295 H1272 0.950 . S
C1295 C1294 1.334 . S
C1295 C1296 1.287 . S
C1296 C1295 1.287 . S
C1296 C1297 1.524 1_565 S
C1296 H1315 0.913 . S
C1297 H1273 0.950 . S
C1297 C1296 1.524 1_545 S
C1297 C1298 1.415 . S
C1298 H1274 0.950 . S
C1298 C1293 1.349 1_545 S
C1298 C1297 1.415 . S
C1299 H1275 0.951 . S
C1299 C1300 1.366 1_565 S
C1299 C1301 1.388 . S
C1300 C1299 1.366 1_545 S
C1300 C1304 1.385 . S
C1301 H1276 0.951 . S
C1301 C1299 1.388 . S
C1301 C1302 1.366 1_565 S
C1302 C1301 1.366 1_545 S
C1302 C1303 1.414 . S
C1302 C1305 1.499 . S
C1303 H1277 0.950 . S
C1303 C1302 1.414 . S
C1303 C1304 1.374 . S
C1304 H1278 0.950 . S
C1304 C1300 1.385 . S
C1304 C1303 1.374 . S
C1305 C1302 1.499 . S
C1305 C1306 1.373 . S
C1305 C1307 1.389 . S
C1306 H1279 0.950 . S
C1306 C1292 1.377 . S
C1306 C1305 1.373 . S
C1307 C1291 1.377 . S
C1307 C1305 1.389 . S
C1307 C1308 1.524 . S
C1308 C1307 1.524 . S
C1308 C1309 1.397 . S
C1308 C1313 1.347 1_545 S
C1309 H1280 0.950 . S
C1309 C1308 1.397 . S
C1309 C1310 1.334 . S
C1310 H1281 0.950 . S
C1310 C1309 1.334 . S
C1310 C1311 1.287 . S
C1311 C1310 1.287 . S
C1311 C1312 1.524 . S
C1311 H1314 0.999 1_556 S
C1312 H1282 0.950 1_546 S
C1312 C1311 1.524 . S
C1312 C1313 1.410 1_545 S
C1313 H1283 0.972 . S
C1313 C1308 1.347 1_565 S
C1313 C1312 1.410 1_565 S
H1314 C1311 0.999 1_554 S
H1315 C1296 0.913 . S
H1316 C1334 0.951 . S
H1317 C1336 0.951 . S
H1318 C1338 0.950 . S
H1319 C1339 0.950 . S
H1320 C1341 0.950 . S
H1321 C1344 0.950 . S
H1322 C1345 0.950 . S
H1323 C1347 0.950 . S
H1324 C1348 0.950 . S
H1325 C1349 0.951 . S
H1326 C1351 0.951 . S
H1327 C1353 0.950 . S
H1328 C1354 0.950 . S
H1329 C1356 0.950 . S
H1330 C1359 0.950 . S
H1331 C1360 0.950 . S
H1332 C1362 0.950 . S
H1333 C1363 0.950 . S
C1334 H1316 0.951 . S
C1334 C1335 1.366 . S
C1334 C1336 1.388 . S
C1335 C1334 1.366 . S
C1335 C1339 1.385 . S
C1336 H1317 0.951 . S
C1336 C1334 1.388 . S
C1336 C1337 1.366 . S
C1337 C1336 1.366 . S
C1337 C1338 1.414 . S
C1337 C1340 1.499 . S
C1338 H1318 0.950 . S
C1338 C1337 1.414 . S
C1338 C1339 1.374 . S
C1339 H1319 0.950 . S
C1339 C1335 1.385 . S
C1339 C1338 1.374 . S
C1340 C1337 1.499 . S
C1340 C1341 1.373 . S
C1340 C1342 1.389 . S
C1341 H1320 0.950 . S
C1341 C1340 1.373 . S
C1341 C1357 1.377 . S
C1342 C1340 1.389 . S
C1342 C1343 1.524 . S
C1342 C1356 1.377 . S
C1343 C1342 1.524 . S
C1343 C1344 1.397 . S
C1343 C1348 1.363 . S
C1344 H1321 0.950 . S
C1344 C1343 1.397 . S
C1344 C1345 1.334 . S
C1345 H1322 0.950 . S
C1345 C1344 1.334 . S
C1345 C1346 1.287 1_556 S
C1346 C1345 1.287 1_554 S
C1346 C1347 1.524 . S
C1346 H1365 0.913 . S
C1347 H1323 0.950 . S
C1347 C1346 1.524 . S
C1347 C1348 1.415 1_554 S
C1348 H1324 0.950 . S
C1348 C1343 1.363 . S
C1348 C1347 1.415 1_556 S
C1349 H1325 0.951 . S
C1349 C1350 1.366 . S
C1349 C1351 1.388 . S
C1350 C1349 1.366 . S
C1350 C1354 1.385 . S
C1351 H1326 0.951 . S
C1351 C1349 1.388 . S
C1351 C1352 1.366 . S
C1352 C1351 1.366 . S
C1352 C1353 1.414 . S
C1352 C1355 1.499 . S
C1353 H1327 0.950 . S
C1353 C1352 1.414 . S
C1353 C1354 1.374 . S
C1354 H1328 0.950 . S
C1354 C1350 1.385 . S
C1354 C1353 1.374 . S
C1355 C1352 1.499 . S
C1355 C1356 1.373 . S
C1355 C1357 1.389 . S
C1356 H1329 0.950 . S
C1356 C1342 1.377 . S
C1356 C1355 1.373 . S
C1357 C1341 1.377 . S
C1357 C1355 1.389 . S
C1357 C1358 1.524 . S
C1358 C1357 1.524 . S
C1358 C1359 1.397 . S
C1358 C1363 1.363 . S
C1359 H1330 0.950 . S
C1359 C1358 1.397 . S
C1359 C1360 1.334 . S
C1360 H1331 0.950 . S
C1360 C1359 1.334 . S
C1360 C1361 1.287 . S
C1361 C1360 1.287 . S
C1361 C1362 1.524 . S
C1361 H1364 0.999 . S
C1362 H1332 0.950 . S
C1362 C1361 1.524 . S
C1362 C1363 1.415 . S
C1363 H1333 0.950 . S
C1363 C1358 1.363 . S
C1363 C1362 1.415 . S
H1364 C1361 0.999 . S
H1365 C1346 0.913 . S
H1366 C1384 0.951 . S
H1367 C1386 0.951 . S
H1368 C1388 0.950 . S
H1369 C1389 0.950 . S
H1370 C1391 0.950 . S
H1371 C1394 0.950 . S
H1372 C1395 0.950 . S
H1373 C1397 0.950 . S
H1374 C1398 0.950 . S
H1375 C1399 0.951 . S
H1376 C1401 0.951 . S
H1377 C1403 0.950 . S
H1378 C1404 0.950 . S
H1379 C1406 0.950 . S
H1380 C1409 0.950 . S
H1381 C1410 0.950 . S
H1382 C1412 0.950 . S
H1383 C1413 0.950 . S
C1384 H1366 0.951 . S
C1384 C1385 1.366 . S
C1384 C1386 1.388 . S
C1385 C1384 1.366 . S
C1385 C1389 1.385 . S
C1386 H1367 0.951 . S
C1386 C1384 1.388 . S
C1386 C1387 1.366 . S
C1387 C1386 1.366 . S
C1387 C1388 1.414 . S
C1387 C1390 1.499 . S
C1388 H1368 0.950 . S
C1388 C1387 1.414 . S
C1388 C1389 1.374 . S
C1389 H1369 0.950 . S
C1389 C1385 1.385 . S
C1389 C1388 1.374 . S
C1390 C1387 1.499 . S
C1390 C1391 1.373 . S
C1390 C1392 1.389 . S
C1391 H1370 0.950 . S
C1391 C1390 1.373 . S
C1391 C1407 1.377 . S
C1392 C1390 1.389 . S
C1392 C1393 1.524 . S
C1392 C1406 1.377 . S
C1393 C1392 1.524 . S
C1393 C1394 1.397 . S
C1393 C1398 1.363 . S
C1394 H1371 0.950 . S
C1394 C1393 1.397 . S
C1394 C1395 1.334 . S
C1395 H1372 0.950 . S
C1395 C1394 1.334 . S
C1395 C1396 1.287 . S
C1396 C1395 1.287 . S
C1396 C1397 1.524 . S
C1396 H1415 0.913 . S
C1397 H1373 0.950 . S
C1397 C1396 1.524 . S
C1397 C1398 1.415 . S
C1398 H1374 0.950 . S
C1398 C1393 1.363 . S
C1398 C1397 1.415 . S
C1399 H1375 0.951 . S
C1399 C1400 1.366 . S
C1399 C1401 1.388 . S
C1400 C1399 1.366 . S
C1400 C1404 1.385 . S
C1401 H1376 0.951 . S
C1401 C1399 1.388 . S
C1401 C1402 1.366 . S
C1402 C1401 1.366 . S
C1402 C1403 1.414 . S
C1402 C1405 1.499 . S
C1403 H1377 0.950 . S
C1403 C1402 1.414 . S
C1403 C1404 1.374 . S
C1404 H1378 0.950 . S
C1404 C1400 1.385 . S
C1404 C1403 1.374 . S
C1405 C1402 1.499 . S
C1405 C1406 1.373 . S
C1405 C1407 1.389 . S
C1406 H1379 0.950 . S
C1406 C1392 1.377 . S
C1406 C1405 1.373 . S
C1407 C1391 1.377 . S
C1407 C1405 1.389 . S
C1407 C1408 1.524 . S
C1408 C1407 1.524 . S
C1408 C1409 1.397 . S
C1408 C1413 1.363 . S
C1409 H1380 0.950 . S
C1409 C1408 1.397 . S
C1409 C1410 1.334 . S
C1410 H1381 0.950 . S
C1410 C1409 1.334 . S
C1410 C1411 1.287 . S
C1411 C1410 1.287 . S
C1411 C1412 1.524 . S
C1411 H1414 0.999 . S
C1412 H1382 0.950 . S
C1412 C1411 1.524 . S
C1412 C1413 1.415 . S
C1413 H1383 0.950 . S
C1413 C1408 1.363 . S
C1413 C1412 1.415 . S
H1414 C1411 0.999 . S
H1415 C1396 0.913 . S
H1416 C1434 0.951 . S
H1417 C1436 0.951 . S
H1418 C1438 0.950 . S
H1419 C1439 0.950 . S
H1420 C1441 0.950 . S
H1421 C1444 0.950 . S
H1422 C1445 0.950 . S
H1423 C1447 0.950 . S
H1424 C1448 0.950 . S
H1425 C1449 0.951 . S
H1426 C1451 0.951 . S
H1427 C1453 0.950 . S
H1428 C1454 0.950 . S
H1429 C1456 0.950 . S
H1430 C1459 0.950 . S
H1431 C1460 0.950 . S
H1432 C1462 0.950 . S
H1433 C1463 0.950 1_455 S
C1434 H1416 0.951 . S
C1434 C1435 1.366 . S
C1434 C1436 1.388 . S
C1435 C1434 1.366 . S
C1435 C1439 1.385 1_655 S
C1436 H1417 0.951 . S
C1436 C1434 1.388 . S
C1436 C1437 1.366 . S
C1437 C1436 1.366 . S
C1437 C1438 1.414 1_655 S
C1437 C1440 1.499 . S
C1438 H1418 0.950 . S
C1438 C1437 1.414 1_455 S
C1438 C1439 1.374 . S
C1439 H1419 0.950 . S
C1439 C1435 1.385 1_455 S
C1439 C1438 1.374 . S
C1440 C1437 1.499 . S
C1440 C1441 1.373 . S
C1440 C1442 1.389 . S
C1441 H1420 0.950 . S
C1441 C1440 1.373 . S
C1441 C1457 1.377 . S
C1442 C1440 1.389 . S
C1442 C1443 1.524 1_655 S
C1442 C1456 1.377 . S
C1443 C1442 1.524 1_455 S
C1443 C1444 1.397 . S
C1443 C1448 1.363 1_455 S
C1444 H1421 0.950 . S
C1444 C1443 1.397 . S
C1444 C1445 1.334 . S
C1445 H1422 0.950 . S
C1445 C1444 1.334 . S
C1445 C1446 1.287 . S
C1446 C1445 1.287 . S
C1446 C1447 1.524 1_455 S
C1446 H1465 0.913 . S
C1447 H1423 0.950 . S
C1447 C1446 1.524 1_655 S
C1447 C1448 1.415 . S
C1448 H1424 0.950 . S
C1448 C1443 1.363 1_655 S
C1448 C1447 1.415 . S
C1449 H1425 0.951 . S
C1449 C1450 1.366 1_455 S
C1449 C1451 1.388 . S
C1450 C1449 1.366 1_655 S
C1450 C1454 1.385 . S
C1451 H1426 0.951 . S
C1451 C1449 1.388 . S
C1451 C1452 1.366 1_455 S
C1452 C1451 1.366 1_655 S
C1452 C1453 1.414 . S
C1452 C1455 1.499 . S
C1453 H1427 0.950 . S
C1453 C1452 1.414 . S
C1453 C1454 1.374 . S
C1454 H1428 0.950 . S
C1454 C1450 1.385 . S
C1454 C1453 1.374 . S
C1455 C1452 1.499 . S
C1455 C1456 1.373 . S
C1455 C1457 1.389 . S
C1456 H1429 0.950 . S
C1456 C1442 1.377 . S
C1456 C1455 1.373 . S
C1457 C1441 1.377 . S
C1457 C1455 1.389 . S
C1457 C1458 1.524 . S
C1458 C1457 1.524 . S
C1458 C1459 1.397 . S
C1458 C1463 1.363 . S
C1459 H1430 0.950 . S
C1459 C1458 1.397 . S
C1459 C1460 1.334 . S
C1460 H1431 0.950 . S
C1460 C1459 1.334 . S
C1460 C1461 1.287 . S
C1461 C1460 1.287 . S
C1461 C1462 1.524 . S
C1461 H1464 0.999 . S
C1462 H1432 0.950 . S
C1462 C1461 1.524 . S
C1462 C1463 1.415 . S
C1463 H1433 0.950 1_655 S
C1463 C1458 1.363 . S
C1463 C1462 1.415 . S
H1464 C1461 0.999 . S
H1465 C1446 0.913 . S
H1466 C1484 0.951 . S
H1467 C1486 0.951 . S
H1468 C1488 0.950 . S
H1469 C1489 0.950 . S
H1470 C1491 0.950 . S
H1471 C1494 0.950 . S
H1472 C1495 0.950 . S
H1473 C1497 0.950 . S
H1474 C1498 0.950 . S
H1475 C1499 0.951 . S
H1476 C1501 0.951 . S
H1477 C1503 0.950 . S
H1478 C1504 0.950 . S
H1479 C1506 0.950 . S
H1480 C1509 0.950 . S
H1481 C1510 0.950 . S
H1482 C1512 0.950 . S
H1483 C1513 0.950 . S
C1484 H1466 0.951 . S
C1484 C1485 1.366 . S
C1484 C1486 1.388 . S
C1485 C1484 1.366 . S
C1485 C1489 1.385 1_565 S
C1486 H1467 0.951 . S
C1486 C1484 1.388 . S
C1486 C1487 1.366 . S
C1487 C1486 1.366 . S
C1487 C1488 1.414 1_565 S
C1487 C1490 1.499 . S
C1488 H1468 0.950 . S
C1488 C1487 1.414 1_545 S
C1488 C1489 1.374 . S
C1489 H1469 0.950 . S
C1489 C1485 1.385 1_545 S
C1489 C1488 1.374 . S
C1490 C1487 1.499 . S
C1490 C1491 1.373 1_565 S
C1490 C1492 1.389 . S
C1491 H1470 0.950 . S
C1491 C1490 1.373 1_545 S
C1491 C1507 1.377 . S
C1492 C1490 1.389 . S
C1492 C1493 1.524 . S
C1492 C1506 1.377 . S
C1493 C1492 1.524 . S
C1493 C1494 1.397 . S
C1493 C1498 1.363 . S
C1494 H1471 0.950 . S
C1494 C1493 1.397 . S
C1494 C1495 1.334 . S
C1495 H1472 0.950 . S
C1495 C1494 1.334 . S
C1495 C1496 1.287 . S
C1496 C1495 1.287 . S
C1496 C1497 1.524 . S
C1496 H1515 0.913 . S
C1497 H1473 0.950 . S
C1497 C1496 1.524 . S
C1497 C1498 1.415 . S
C1498 H1474 0.950 . S
C1498 C1493 1.363 . S
C1498 C1497 1.415 . S
C1499 H1475 0.951 . S
C1499 C1500 1.366 1_545 S
C1499 C1501 1.388 . S
C1500 C1499 1.366 1_565 S
C1500 C1504 1.385 . S
C1501 H1476 0.951 . S
C1501 C1499 1.388 . S
C1501 C1502 1.366 1_545 S
C1502 C1501 1.366 1_565 S
C1502 C1503 1.414 . S
C1502 C1505 1.499 . S
C1503 H1477 0.950 . S
C1503 C1502 1.414 . S
C1503 C1504 1.374 . S
C1504 H1478 0.950 . S
C1504 C1500 1.385 . S
C1504 C1503 1.374 . S
C1505 C1502 1.499 . S
C1505 C1506 1.373 . S
C1505 C1507 1.389 1_565 S
C1506 H1479 0.950 . S
C1506 C1492 1.377 . S
C1506 C1505 1.373 . S
C1507 C1491 1.377 . S
C1507 C1505 1.389 1_545 S
C1507 C1508 1.524 . S
C1508 C1507 1.524 . S
C1508 C1509 1.397 . S
C1508 C1513 1.363 . S
C1509 H1480 0.950 . S
C1509 C1508 1.397 . S
C1509 C1510 1.334 . S
C1510 H1481 0.950 . S
C1510 C1509 1.334 . S
C1510 C1511 1.287 . S
C1511 C1510 1.287 . S
C1511 C1512 1.524 . S
C1511 H1514 0.999 . S
C1512 H1482 0.950 . S
C1512 C1511 1.524 . S
C1512 C1513 1.415 . S
C1513 H1483 0.950 . S
C1513 C1508 1.363 . S
C1513 C1512 1.415 . S
H1514 C1511 0.999 . S
H1515 C1496 0.913 . S
H1516 C1534 0.951 . S
H1517 C1536 0.951 . S
H1518 C1538 0.950 . S
H1519 C1539 0.950 . S
H1520 C1541 0.950 . S
H1521 C1544 0.950 . S
H1522 C1545 0.950 . S
H1523 C1547 0.950 . S
H1524 C1548 0.950 . S
H1525 C1549 0.951 . S
H1526 C1551 0.951 . S
H1527 C1553 0.950 . S
H1528 C1554 0.950 . S
H1529 C1556 0.950 . S
H1530 C1559 0.950 . S
H1531 C1560 0.950 . S
H1532 C1562 0.950 . S
H1533 C1563 0.950 . S
C1534 H1516 0.951 . S
C1534 C1535 1.366 . S
C1534 C1536 1.388 . S
C1535 C1534 1.366 . S
C1535 C1539 1.385 . S
C1536 H1517 0.951 . S
C1536 C1534 1.388 . S
C1536 C1537 1.366 . S
C1537 C1536 1.366 . S
C1537 C1538 1.414 . S
C1537 C1540 1.499 . S
C1538 H1518 0.950 . S
C1538 C1537 1.414 . S
C1538 C1539 1.374 . S
C1539 H1519 0.950 . S
C1539 C1535 1.385 . S
C1539 C1538 1.374 . S
C1540 C1537 1.499 . S
C1540 C1541 1.373 . S
C1540 C1542 1.389 . S
C1541 H1520 0.950 . S
C1541 C1540 1.373 . S
C1541 C1557 1.377 . S
C1542 C1540 1.389 . S
C1542 C1543 1.524 . S
C1542 C1556 1.377 . S
C1543 C1542 1.524 . S
C1543 C1544 1.397 . S
C1543 C1548 1.363 . S
C1544 H1521 0.950 . S
C1544 C1543 1.397 . S
C1544 C1545 1.334 . S
C1545 H1522 0.950 . S
C1545 C1544 1.334 . S
C1545 C1546 1.287 . S
C1546 C1545 1.287 . S
C1546 C1547 1.524 . S
C1546 H1565 0.913 . S
C1547 H1523 0.950 . S
C1547 C1546 1.524 . S
C1547 C1548 1.415 . S
C1548 H1524 0.950 . S
C1548 C1543 1.363 . S
C1548 C1547 1.415 . S
C1549 H1525 0.951 . S
C1549 C1550 1.366 . S
C1549 C1551 1.388 . S
C1550 C1549 1.366 . S
C1550 C1554 1.385 . S
C1551 H1526 0.951 . S
C1551 C1549 1.388 . S
C1551 C1552 1.366 . S
C1552 C1551 1.366 . S
C1552 C1553 1.414 . S
C1552 C1555 1.499 . S
C1553 H1527 0.950 . S
C1553 C1552 1.414 . S
C1553 C1554 1.374 . S
C1554 H1528 0.950 . S
C1554 C1550 1.385 . S
C1554 C1553 1.374 . S
C1555 C1552 1.499 . S
C1555 C1556 1.373 . S
C1555 C1557 1.389 . S
C1556 H1529 0.950 . S
C1556 C1542 1.377 . S
C1556 C1555 1.373 . S
C1557 C1541 1.377 . S
C1557 C1555 1.389 . S
C1557 C1558 1.524 . S
C1558 C1557 1.524 . S
C1558 C1559 1.397 . S
C1558 C1563 1.363 . S
C1559 H1530 0.950 . S
C1559 C1558 1.397 . S
C1559 C1560 1.334 . S
C1560 H1531 0.950 . S
C1560 C1559 1.334 . S
C1560 C1561 1.287 . S
C1561 C1560 1.287 . S
C1561 C1562 1.524 . S
C1561 H1564 0.999 . S
C1562 H1532 0.950 . S
C1562 C1561 1.524 . S
C1562 C1563 1.415 . S
C1563 H1533 0.950 . S
C1563 C1558 1.363 . S
C1563 C1562 1.415 . S
H1564 C1561 0.999 . S
H1565 C1546 0.913 . S
H1566 C1584 0.951 . S
H1567 C1586 0.951 . S
H1568 C1588 0.950 . S
H1569 C1589 0.950 . S
H1570 C1591 0.950 . S
H1571 C1594 0.950 . S
H1572 C1595 0.950 . S
H1573 C1597 0.950 . S
H1574 C1598 0.950 . S
H1575 C1599 0.951 . S
H1576 C1601 0.951 . S
H1577 C1603 0.950 . S
H1578 C1604 0.950 . S
H1579 C1606 0.950 . S
H1580 C1609 0.950 . S
H1581 C1610 0.950 . S
H1582 C1612 0.950 . S
H1583 C1613 0.950 . S
C1584 H1566 0.951 . S
C1584 C1585 1.366 . S
C1584 C1586 1.388 . S
C1585 C1584 1.366 . S
C1585 C1589 1.385 . S
C1586 H1567 0.951 . S
C1586 C1584 1.388 . S
C1586 C1587 1.366 . S
C1587 C1586 1.366 . S
C1587 C1588 1.414 . S
C1587 C1590 1.499 . S
C1588 H1568 0.950 . S
C1588 C1587 1.414 . S
C1588 C1589 1.374 . S
C1589 H1569 0.950 . S
C1589 C1585 1.385 . S
C1589 C1588 1.374 . S
C1590 C1587 1.499 . S
C1590 C1591 1.373 . S
C1590 C1592 1.389 . S
C1591 H1570 0.950 . S
C1591 C1590 1.373 . S
C1591 C1607 1.377 . S
C1592 C1590 1.389 . S
C1592 C1593 1.524 . S
C1592 C1606 1.377 . S
C1593 C1592 1.524 . S
C1593 C1594 1.397 . S
C1593 C1598 1.363 . S
C1594 H1571 0.950 . S
C1594 C1593 1.397 . S
C1594 C1595 1.334 . S
C1595 H1572 0.950 . S
C1595 C1594 1.334 . S
C1595 C1596 1.287 . S
C1596 C1595 1.287 . S
C1596 C1597 1.524 . S
C1596 H1615 0.913 . S
C1597 H1573 0.950 . S
C1597 C1596 1.524 . S
C1597 C1598 1.415 . S
C1598 H1574 0.950 . S
C1598 C1593 1.363 . S
C1598 C1597 1.415 . S
C1599 H1575 0.951 . S
C1599 C1600 1.366 . S
C1599 C1601 1.388 . S
C1600 C1599 1.366 . S
C1600 C1604 1.385 . S
C1601 H1576 0.951 . S
C1601 C1599 1.388 . S
C1601 C1602 1.366 . S
C1602 C1601 1.366 . S
C1602 C1603 1.414 . S
C1602 C1605 1.499 . S
C1603 H1577 0.950 . S
C1603 C1602 1.414 . S
C1603 C1604 1.374 . S
C1604 H1578 0.950 . S
C1604 C1600 1.385 . S
C1604 C1603 1.374 . S
C1605 C1602 1.499 . S
C1605 C1606 1.373 . S
C1605 C1607 1.389 . S
C1606 H1579 0.950 . S
C1606 C1592 1.377 . S
C1606 C1605 1.373 . S
C1607 C1591 1.377 . S
C1607 C1605 1.389 . S
C1607 C1608 1.524 . S
C1608 C1607 1.524 . S
C1608 C1609 1.397 . S
C1608 C1613 1.363 . S
C1609 H1580 0.950 . S
C1609 C1608 1.397 . S
C1609 C1610 1.334 . S
C1610 H1581 0.950 . S
C1610 C1609 1.334 . S
C1610 C1611 1.287 . S
C1611 C1610 1.287 . S
C1611 C1612 1.524 . S
C1611 H1614 0.999 . S
C1612 H1582 0.950 . S
C1612 C1611 1.524 . S
C1612 C1613 1.415 . S
C1613 H1583 0.950 . S
C1613 C1608 1.363 . S
C1613 C1612 1.415 . S
H1614 C1611 0.999 . S
H1615 C1596 0.913 . S
C435 C215 1.795 . S
C450 C265 1.893 1_545 S
C500 C305 1.897 . S
C485 C247 1.789 . S
C550 C345 1.897 . S
C535 C151 1.792 . S
C600 C385 1.894 1_455 S
C585 C183 1.799 . S
C650 C274 1.898 1_565 S
C635 C87 1.793 1_565 S
C685 C119 1.793 . S
C700 C314 1.900 . S
C735 C23 1.793 . S
C750 C354 1.897 . S
C785 C55 1.789 1_655 S
C800 C394 1.893 1_655 S
C850 C271 0.278 . S
C835 C189 0.234 . S
C900 C311 0.281 . S
C885 C221 0.231 . S
C950 C351 0.281 . S
C935 C253 0.231 . S
C985 C157 0.232 . S
C1000 C391 0.280 . S
C1035 C61 0.444 1_655 S
C1050 C262 0.282 . S
C1100 C302 0.277 . S
C1085 C93 0.435 1_565 S
C1150 C342 0.281 . S
C1135 C125 0.444 . S
C1185 C29 0.442 . S
C1200 C382 0.282 . S
C1235 C177 2.226 . S
C1250 C275 2.462 . S
C1285 C209 2.226 . S
C1300 C315 2.466 . S
C1350 C355 2.466 . S
C1335 C241 2.227 . S
C1400 C395 2.466 . S
C1385 C145 2.224 . S
C1435 C49 2.245 1_655 S
C1450 C266 2.471 . S
C1500 C306 2.467 . S
C1485 C81 2.245 1_565 S
C1550 C346 2.466 . S
C1535 C113 2.244 . S
C1585 C17 2.246 . S
C1600 C386 2.468 . S
