# Generated by pormake.
# Topology dag, (6,3)-cn, num edge types: 1
# Building blocks:
#     Node 0, Type 0, BuildingBlock: OJICUG_clean_sbu_0, # of connection points: 6
#     Node 1, Type 0, BuildingBlock: OJICUG_clean_sbu_0, # of connection points: 6
#     Node 2, Type 0, BuildingBlock: OJICUG_clean_sbu_0, # of connection points: 6
#     Node 3, Type 0, BuildingBlock: OJICUG_clean_sbu_0, # of connection points: 6
#     Node 4, Type 1, BuildingBlock: QEWDON_clean_linker_0, # of connection points: 3
#     Node 5, Type 1, BuildingBlock: QEWDON_clean_linker_0, # of connection points: 3
#     Node 6, Type 1, BuildingBlock: QEWDON_clean_linker_0, # of connection points: 3
#     Node 7, Type 1, BuildingBlock: QEWDON_clean_linker_0, # of connection points: 3
#     Node 8, Type 1, BuildingBlock: QEWDON_clean_linker_0, # of connection points: 3
#     Node 9, Type 1, BuildingBlock: QEWDON_clean_linker_0, # of connection points: 3
#     Node 10, Type 1, BuildingBlock: QEWDON_clean_linker_0, # of connection points: 3
#     Node 11, Type 1, BuildingBlock: QEWDON_clean_linker_0, # of connection points: 3
#     Edge 12, Type (0, 1), BuildingBlock: KIFKEQ_clean_linker_1, # of connection points: 2
#     Edge 13, Type (0, 1), BuildingBlock: KIFKEQ_clean_linker_1, # of connection points: 2
#     Edge 14, Type (0, 1), BuildingBlock: KIFKEQ_clean_linker_1, # of connection points: 2
#     Edge 15, Type (0, 1), BuildingBlock: KIFKEQ_clean_linker_1, # of connection points: 2
#     Edge 16, Type (0, 1), BuildingBlock: KIFKEQ_clean_linker_1, # of connection points: 2
#     Edge 17, Type (0, 1), BuildingBlock: KIFKEQ_clean_linker_1, # of connection points: 2
#     Edge 18, Type (0, 1), BuildingBlock: KIFKEQ_clean_linker_1, # of connection points: 2
#     Edge 19, Type (0, 1), BuildingBlock: KIFKEQ_clean_linker_1, # of connection points: 2
#     Edge 20, Type (0, 1), BuildingBlock: KIFKEQ_clean_linker_1, # of connection points: 2
#     Edge 21, Type (0, 1), BuildingBlock: KIFKEQ_clean_linker_1, # of connection points: 2
#     Edge 22, Type (0, 1), BuildingBlock: KIFKEQ_clean_linker_1, # of connection points: 2
#     Edge 23, Type (0, 1), BuildingBlock: KIFKEQ_clean_linker_1, # of connection points: 2
#     Edge 24, Type (0, 1), BuildingBlock: KIFKEQ_clean_linker_1, # of connection points: 2
#     Edge 25, Type (0, 1), BuildingBlock: KIFKEQ_clean_linker_1, # of connection points: 2
#     Edge 26, Type (0, 1), BuildingBlock: KIFKEQ_clean_linker_1, # of connection points: 2
#     Edge 27, Type (0, 1), BuildingBlock: KIFKEQ_clean_linker_1, # of connection points: 2
#     Edge 28, Type (0, 1), BuildingBlock: KIFKEQ_clean_linker_1, # of connection points: 2
#     Edge 29, Type (0, 1), BuildingBlock: KIFKEQ_clean_linker_1, # of connection points: 2
#     Edge 30, Type (0, 1), BuildingBlock: KIFKEQ_clean_linker_1, # of connection points: 2
#     Edge 31, Type (0, 1), BuildingBlock: KIFKEQ_clean_linker_1, # of connection points: 2
#     Edge 32, Type (0, 1), BuildingBlock: KIFKEQ_clean_linker_1, # of connection points: 2
#     Edge 33, Type (0, 1), BuildingBlock: KIFKEQ_clean_linker_1, # of connection points: 2
#     Edge 34, Type (0, 1), BuildingBlock: KIFKEQ_clean_linker_1, # of connection points: 2
#     Edge 35, Type (0, 1), BuildingBlock: KIFKEQ_clean_linker_1, # of connection points: 2
# Relax obj value: 0.045
# Max RMSD: 0.070
# Mean RMSD: 0.064
data_MOF--net-dag--node1-OJICUG_clean_sbu_0--node2-QEWDON_clean_linker_0--edge1-KIFKEQ_clean_linker_1
_symmetry_space_group_name_H-M    P1
_symmetry_Int_Tables_number       1
_symmetry_cell_setting            triclinic
loop_
_symmetry_equiv_pos_as_xyz
'x, y, z'
_cell_length_a     40.475664
_cell_length_b     40.504919
_cell_length_c     42.534499
_cell_angle_alpha  90.056688
_cell_angle_beta   89.992999
_cell_angle_gamma 89.982316
loop_
_atom_site_label
_atom_site_type_symbol
_atom_site_fract_x
_atom_site_fract_y
_atom_site_fract_z
_atom_type_partial_charge
Sc0 Sc 0.11368 0.88025 0.00166 0.0
Sc1 Sc 0.1362 0.79669 0.00468 0.0
Sc2 Sc 0.19755 0.85908 0.00231 0.0
O3 O 0.14924 0.84524 0.00276 0.0
C4 C 0.16439 0.90718 0.95119 0.0
C5 C 0.08024 0.82333 0.95988 0.0
C6 C 0.19875 0.79495 0.95845 0.0
C7 C 0.08498 0.83116 0.05241 0.0
C8 C 0.16802 0.91655 0.04402 0.0
C9 C 0.19667 0.80064 0.05285 0.0
O10 O 0.13494 0.9025 0.96069 0.0
O11 O 0.10056 0.80055 0.96684 0.0
O12 O 0.20997 0.82278 0.96726 0.0
O13 O 0.09026 0.86034 0.04262 0.0
O14 O 0.19145 0.8968 0.03777 0.0
O15 O 0.17005 0.78764 0.04283 0.0
O16 O 0.1397 0.9142 0.03149 0.0
O17 O 0.09803 0.80573 0.03974 0.0
O18 O 0.20989 0.82578 0.04006 0.0
O19 O 0.08163 0.85198 0.97189 0.0
O20 O 0.18953 0.8945 0.96469 0.0
O21 O 0.17276 0.78218 0.97015 0.0
Sc22 Sc 0.69296 0.62858 0.49697 0.0
Sc23 Sc 0.63379 0.69338 0.49583 0.0
Sc24 Sc 0.60816 0.6105 0.49522 0.0
O25 O 0.64503 0.64422 0.49614 0.0
C26 C 0.66122 0.57503 0.45111 0.0
C27 C 0.69459 0.68822 0.44776 0.0
C28 C 0.58097 0.66393 0.44709 0.0
C29 C 0.69589 0.69175 0.54224 0.0
C30 C 0.65821 0.57937 0.54529 0.0
C31 C 0.57758 0.66574 0.54074 0.0
O32 O 0.68606 0.59044 0.46194 0.0
O33 O 0.66905 0.70259 0.45873 0.0
O34 O 0.58378 0.63445 0.45687 0.0
O35 O 0.7068 0.66436 0.53199 0.0
O36 O 0.62951 0.58323 0.53359 0.0
O37 O 0.5971 0.68892 0.53281 0.0
O38 O 0.68374 0.59389 0.53456 0.0
O39 O 0.6698 0.70518 0.53159 0.0
O40 O 0.57868 0.6371 0.52861 0.0
O41 O 0.70615 0.66159 0.45924 0.0
O42 O 0.63206 0.57992 0.46095 0.0
O43 O 0.59629 0.68804 0.45961 0.0
Sc44 Sc 0.86621 0.19248 0.99361 0.0
Sc45 Sc 0.80433 0.13026 0.99505 0.0
Sc46 Sc 0.88852 0.10882 0.99354 0.0
O47 O 0.85294 0.14391 0.99419 0.0
C48 C 0.91831 0.1608 0.94552 0.0
C49 C 0.8054 0.18985 0.94562 0.0
C50 C 0.8343 0.07591 0.94889 0.0
C51 C 0.80412 0.19354 0.04015 0.0
C52 C 0.92069 0.16294 0.03918 0.0
C53 C 0.83715 0.07953 0.04331 0.0
O54 O 0.90381 0.18556 0.95778 0.0
O55 O 0.79231 0.16408 0.95742 0.0
O56 O 0.86352 0.07943 0.95911 0.0
O57 O 0.83049 0.20583 0.02894 0.0
O58 O 0.91875 0.13428 0.02717 0.0
O59 O 0.81208 0.09481 0.0325 0.0
O60 O 0.90218 0.18678 0.03088 0.0
O61 O 0.79203 0.16641 0.03044 0.0
O62 O 0.86597 0.08256 0.03173 0.0
O63 O 0.83179 0.20274 0.95632 0.0
O64 O 0.91419 0.13153 0.95537 0.0
O65 O 0.80994 0.09219 0.95962 0.0
Sc66 Sc 0.38278 0.37879 0.49652 0.0
Sc67 Sc 0.29877 0.35766 0.50106 0.0
Sc68 Sc 0.36058 0.29532 0.50382 0.0
O69 O 0.3473 0.34386 0.50041 0.0
C70 C 0.41237 0.32121 0.45338 0.0
C71 C 0.32877 0.40533 0.44839 0.0
C72 C 0.29699 0.29193 0.45919 0.0
C73 C 0.33112 0.41531 0.54158 0.0
C74 C 0.41441 0.33047 0.54742 0.0
C75 C 0.30135 0.30094 0.55326 0.0
O76 O 0.41018 0.35092 0.46258 0.0
O77 O 0.30423 0.39166 0.46188 0.0
O78 O 0.32373 0.28014 0.47022 0.0
O79 O 0.3595 0.41167 0.52935 0.0
O80 O 0.39877 0.30504 0.53812 0.0
O81 O 0.2881 0.32609 0.54056 0.0
O82 O 0.4107 0.35876 0.53499 0.0
O83 O 0.30663 0.39707 0.53465 0.0
O84 O 0.32729 0.28727 0.54249 0.0
O85 O 0.35831 0.40202 0.45794 0.0
O86 O 0.39594 0.29779 0.46565 0.0
O87 O 0.28521 0.31964 0.46785 0.0
H88 H 0.16442 0.08888 0.23743 0.0
C89 C 0.14753 0.10453 0.22443 0.0
C90 C 0.14533 0.10168 0.19159 0.0
C91 C 0.12707 0.12678 0.24066 0.0
H92 H 0.11969 0.11831 0.1502 0.0
C93 C 0.12275 0.12168 0.17532 0.0
C94 C 0.10186 0.14373 0.19128 0.0
C95 C 0.10414 0.14613 0.22412 0.0
C96 C 0.12764 0.12776 0.27522 0.0
H97 H 0.08774 0.16254 0.23687 0.0
C98 C 0.15093 0.14722 0.29117 0.0
C99 C 0.15135 0.14806 0.32426 0.0
C100 C 0.10468 0.10911 0.2923 0.0
H101 H 0.08655 0.09405 0.28023 0.0
C102 C 0.10506 0.10973 0.32509 0.0
H103 H 0.16873 0.16145 0.27781 0.0
C104 C 0.12821 0.12904 0.34103 0.0
H105 H 0.12766 0.1295 0.36649 0.0
H106 H 0.08726 0.09531 0.3382 0.0
H107 H 0.40554 0.6657 0.73556 0.0
C108 C 0.39004 0.64887 0.72232 0.0
C109 C 0.39377 0.64632 0.6896 0.0
C110 C 0.36704 0.62889 0.73813 0.0
H111 H 0.37843 0.62025 0.64803 0.0
C112 C 0.37421 0.6236 0.673 0.0
C113 C 0.35162 0.60296 0.68853 0.0
C114 C 0.34804 0.60589 0.72126 0.0
C115 C 0.36552 0.62946 0.7727 0.0
H116 H 0.33119 0.58975 0.73374 0.0
C117 C 0.34406 0.65109 0.78853 0.0
C118 C 0.34345 0.65187 0.82164 0.0
C119 C 0.3861 0.60833 0.78994 0.0
H120 H 0.40272 0.59151 0.77798 0.0
C121 C 0.38543 0.60885 0.82271 0.0
H122 H 0.32837 0.66758 0.77512 0.0
C123 C 0.36434 0.6305 0.83852 0.0
H124 H 0.36413 0.63031 0.86399 0.0
H125 H 0.40134 0.59246 0.83592 0.0
H126 H 0.86453 0.78852 0.19037 0.0
C127 C 0.85788 0.81421 0.18703 0.0
C128 C 0.88221 0.83729 0.17871 0.0
C129 C 0.82475 0.82406 0.18986 0.0
H130 H 0.89163 0.88788 0.16608 0.0
C131 C 0.87312 0.87033 0.17385 0.0
C132 C 0.83997 0.88027 0.17581 0.0
C133 C 0.8158 0.85693 0.18383 0.0
C134 C 0.79906 0.79949 0.1969 0.0
H135 H 0.79004 0.86418 0.18495 0.0
C136 C 0.794 0.7887 0.22787 0.0
C137 C 0.76915 0.76546 0.23463 0.0
C138 C 0.77932 0.78702 0.17257 0.0
H139 H 0.78293 0.79525 0.14859 0.0
C140 C 0.75487 0.76373 0.17907 0.0
H141 H 0.80938 0.79841 0.24659 0.0
C142 C 0.74976 0.75297 0.20987 0.0
H143 H 0.73022 0.73534 0.21439 0.0
H144 H 0.73968 0.75414 0.16021 0.0
H145 H 0.70577 0.36387 0.68661 0.0
C146 C 0.68002 0.35664 0.68522 0.0
C147 C 0.65584 0.38019 0.67774 0.0
C148 C 0.67114 0.32353 0.68997 0.0
H149 H 0.6043 0.38797 0.66774 0.0
C150 C 0.62275 0.37022 0.67527 0.0
C151 C 0.61371 0.33701 0.67902 0.0
C152 C 0.63807 0.31371 0.68666 0.0
C153 C 0.69689 0.29868 0.69573 0.0
H154 H 0.63154 0.28787 0.68905 0.0
C155 C 0.70481 0.2892 0.72653 0.0
C156 C 0.73008 0.26604 0.73203 0.0
C157 C 0.71396 0.28477 0.67029 0.0
H158 H 0.70804 0.29193 0.64641 0.0
C159 C 0.73879 0.26154 0.67556 0.0
H160 H 0.69183 0.30043 0.74611 0.0
C161 C 0.74691 0.25224 0.70621 0.0
H162 H 0.76619 0.23406 0.7097 0.0
H163 H 0.75186 0.25078 0.65585 0.0
H164 H 0.6656 0.39188 0.26542 0.0
C165 C 0.64873 0.37614 0.27835 0.0
C166 C 0.64383 0.38127 0.31068 0.0
C167 C 0.63038 0.35213 0.26222 0.0
H168 H 0.61568 0.36662 0.35131 0.0
C169 C 0.62092 0.36145 0.3268 0.0
C170 C 0.6019 0.33777 0.31078 0.0
C171 C 0.60703 0.33307 0.27843 0.0
C172 C 0.63188 0.35055 0.22769 0.0
H173 H 0.59192 0.31557 0.26555 0.0
C174 C 0.65639 0.33202 0.21236 0.0
C175 C 0.65761 0.33109 0.17927 0.0
C176 C 0.6085 0.36805 0.20999 0.0
H177 H 0.58946 0.38241 0.22157 0.0
C178 C 0.60965 0.36727 0.17724 0.0
H179 H 0.6745 0.31864 0.22613 0.0
C180 C 0.63402 0.34895 0.16192 0.0
H181 H 0.63409 0.34835 0.13646 0.0
H182 H 0.59153 0.3808 0.16368 0.0
H183 H 0.21523 0.12742 0.81976 0.0
C184 C 0.18958 0.1351 0.82069 0.0
C185 C 0.16483 0.11193 0.82741 0.0
C186 C 0.1813 0.16825 0.81524 0.0
H187 H 0.11277 0.10485 0.83556 0.0
C188 C 0.13179 0.12235 0.82884 0.0
C189 C 0.12339 0.15566 0.82455 0.0
C190 C 0.14827 0.17854 0.8174 0.0
C191 C 0.20737 0.19236 0.80813 0.0
H192 H 0.14208 0.20437 0.81425 0.0
C193 C 0.21139 0.20392 0.77733 0.0
C194 C 0.23669 0.22646 0.77011 0.0
C195 C 0.2285 0.20351 0.83197 0.0
H196 H 0.22568 0.19466 0.85585 0.0
C197 C 0.25331 0.22633 0.82509 0.0
H198 H 0.19494 0.19517 0.75901 0.0
C199 C 0.25745 0.23778 0.79436 0.0
H200 H 0.27733 0.25491 0.78945 0.0
H201 H 0.26956 0.23495 0.84356 0.0
H202 H 0.35852 0.70755 0.30993 0.0
C203 C 0.3535 0.68195 0.31564 0.0
C204 C 0.37948 0.661 0.32434 0.0
C205 C 0.32086 0.67015 0.31543 0.0
H206 H 0.39284 0.61212 0.33917 0.0
C207 C 0.37262 0.62814 0.33231 0.0
C208 C 0.33999 0.61639 0.33364 0.0
C209 C 0.31416 0.63756 0.32476 0.0
C210 C 0.29345 0.69245 0.30725 0.0
H211 H 0.28877 0.62914 0.32595 0.0
C212 C 0.28995 0.70408 0.27637 0.0
C213 C 0.26345 0.72491 0.26837 0.0
C214 C 0.27047 0.7018 0.33027 0.0
H215 H 0.27283 0.69293 0.35419 0.0
C216 C 0.24446 0.72293 0.3226 0.0
H217 H 0.30767 0.69668 0.25858 0.0
C218 C 0.24091 0.73447 0.29186 0.0
H219 H 0.22013 0.75028 0.2863 0.0
H220 H 0.22683 0.73017 0.34047 0.0
H221 H 0.90663 0.81594 0.76856 0.0
C222 C 0.89104 0.83413 0.77997 0.0
C223 C 0.89368 0.8394 0.8125 0.0
C224 C 0.86925 0.85321 0.76185 0.0
H225 H 0.87732 0.86936 0.85139 0.0
C226 C 0.87397 0.86383 0.82665 0.0
C227 C 0.85266 0.88363 0.80869 0.0
C228 C 0.85019 0.87794 0.7762 0.0
C229 C 0.86964 0.85019 0.72738 0.0
H230 H 0.83449 0.89355 0.76187 0.0
C231 C 0.84661 0.83014 0.71171 0.0
C232 C 0.84784 0.82684 0.67876 0.0
C233 C 0.89365 0.86729 0.71013 0.0
H234 H 0.91153 0.88284 0.72197 0.0
C235 C 0.89474 0.86443 0.67748 0.0
H236 H 0.82835 0.81665 0.72521 0.0
C237 C 0.87206 0.84433 0.66184 0.0
H238 H 0.87332 0.84266 0.63645 0.0
H239 H 0.91325 0.87778 0.66424 0.0
H240 H 0.14069 0.97734 0.04129 0.0
H241 H 0.20763 0.91797 0.09653 0.0
H242 H 0.14621 0.02237 0.07877 0.0
H243 H 0.21262 0.96335 0.13484 0.0
H244 H 0.15187 0.03655 0.2076 0.0
H245 H 0.16692 0.99129 0.17227 0.0
H246 H 0.19204 0.06171 0.10009 0.0
H247 H 0.17763 0.10698 0.13548 0.0
C248 C 0.15677 0.97402 0.06142 0.0
C249 C 0.17361 0.94414 0.0661 0.0
C250 C 0.16016 -9e-05 0.08272 0.0
C251 C 0.18004 0.99639 0.10955 0.0
C252 C 0.19728 0.96666 0.11422 0.0
C253 C 0.19446 0.94083 0.09236 0.0
C254 C 0.16193 0.04242 0.18468 0.0
C255 C 0.163 0.07528 0.17408 0.0
C256 C 0.17049 0.01649 0.16445 0.0
C257 C 0.1801 0.02309 0.13335 0.0
C258 C 0.18429 0.05601 0.12386 0.0
C259 C 0.17599 0.08186 0.14408 0.0
H260 H 0.51583 0.64115 0.53869 0.0
H261 H 0.57887 0.70451 0.59411 0.0
H262 H 0.47175 0.64764 0.57691 0.0
H263 H 0.53428 0.71052 0.6333 0.0
H264 H 0.45906 0.65106 0.70574 0.0
H265 H 0.50465 0.6656 0.67052 0.0
H266 H 0.43452 0.69413 0.59915 0.0
H267 H 0.38903 0.67992 0.63432 0.0
C268 C 0.52017 0.65665 0.55905 0.0
C269 C 0.55081 0.67218 0.56354 0.0
C270 C 0.4948 0.66061 0.5808 0.0
C271 C 0.49952 0.6798 0.60793 0.0
C272 C 0.53004 0.69573 0.61246 0.0
C273 C 0.55541 0.69235 0.59011 0.0
C274 C 0.45341 0.66175 0.68304 0.0
C275 C 0.42053 0.66385 0.67254 0.0
C276 C 0.47951 0.67005 0.66288 0.0
C277 C 0.47303 0.68046 0.63199 0.0
C278 C 0.44015 0.68577 0.62274 0.0
C279 C 0.41416 0.67762 0.64284 0.0
H280 H 0.88542 0.05188 0.07924 0.0
H281 H 0.77941 0.0535 0.06693 0.0
H282 H 0.88002 0.00823 0.11765 0.0
H283 H 0.77393 0.0098 0.10631 0.0
H284 H 0.79288 0.89776 0.13317 0.0
H285 H 0.78732 0.95101 0.10702 0.0
H286 H 0.86129 0.99217 0.16894 0.0
H287 H 0.86734 0.93858 0.19451 0.0
C288 C 0.86084 0.04328 0.08509 0.0
C289 C 0.83288 0.05594 0.06964 0.0
C290 C 0.8577 0.0184 0.10748 0.0
C291 C 0.82651 0.00545 0.11512 0.0
C292 C 0.79833 0.01907 0.10074 0.0
C293 C 0.80147 0.0442 0.07829 0.0
C294 C 0.80716 0.91848 0.14181 0.0
C295 C 0.83085 0.91401 0.16556 0.0
C296 C 0.80397 0.94905 0.12685 0.0
C297 C 0.82431 0.97571 0.1355 0.0
C298 C 0.84581 0.97192 0.16123 0.0
C299 C 0.84919 0.94132 0.17598 0.0
H300 H 0.43949 0.27355 0.57332 0.0
H301 H 0.44439 0.37995 0.58023 0.0
H302 H 0.48297 0.26891 0.61301 0.0
H303 H 0.48777 0.37527 0.61922 0.0
H304 H 0.55536 0.36433 0.69797 0.0
H305 H 0.50177 0.35782 0.67234 0.0
H306 H 0.5426 0.28142 0.61295 0.0
H307 H 0.59592 0.28767 0.6389 0.0
C308 C 0.44953 0.29591 0.58351 0.0
C309 C 0.43869 0.32713 0.57331 0.0
C310 C 0.47447 0.29322 0.60618 0.0
C311 C 0.48879 0.32169 0.61932 0.0
C312 C 0.47695 0.3528 0.61 0.0
C313 C 0.45228 0.35549 0.5873 0.0
C314 C 0.55252 0.34548 0.68008 0.0
C315 C 0.57983 0.3268 0.67012 0.0
C316 C 0.52194 0.34186 0.6653 0.0
C317 C 0.51816 0.31962 0.64015 0.0
C318 C 0.54464 0.29869 0.63231 0.0
C319 C 0.57523 0.30223 0.64721 0.0
H320 H 0.61799 0.55842 0.4051 0.0
H321 H 0.71469 0.53457 0.44151 0.0
H322 H 0.62237 0.51336 0.36743 0.0
H323 H 0.71886 0.48874 0.40378 0.0
H324 H 0.67314 0.38425 0.36865 0.0
H325 H 0.68462 0.43409 0.39937 0.0
H326 H 0.65659 0.49432 0.32009 0.0
H327 H 0.64497 0.44467 0.28948 0.0
C328 C 0.64036 0.54372 0.4048 0.0
C329 C 0.66592 0.54987 0.42634 0.0
C330 C 0.64298 0.51808 0.38305 0.0
C331 C 0.67099 0.49763 0.38265 0.0
C332 C 0.69701 0.5042 0.40364 0.0
C333 C 0.69467 0.53041 0.42508 0.0
C334 C 0.67029 0.40815 0.35758 0.0
C335 C 0.65798 0.41058 0.32676 0.0
C336 C 0.67703 0.43664 0.37507 0.0
C337 C 0.67119 0.46801 0.36215 0.0
C338 C 0.6611 0.47041 0.33064 0.0
C339 C 0.6547 0.44197 0.31306 0.0
H340 H 0.94654 0.21892 0.92529 0.0
H341 H 0.94482 0.11388 0.90732 0.0
H342 H 0.99165 0.22504 0.88741 0.0
H343 H 0.98994 0.11976 0.87064 0.0
H344 H 0.06589 0.13142 0.80046 0.0
H345 H 0.01051 0.13939 0.82195 0.0
H346 H 0.04942 0.21044 0.88822 0.0
H347 H 0.10435 0.20328 0.86578 0.0
C348 C 0.95541 0.19725 0.91298 0.0
C349 C 0.9424 0.16585 0.91972 0.0
C350 C 0.98135 0.20073 0.89138 0.0
C351 C 0.9946 0.1729 0.87603 0.0
C352 C 0.98019 0.14187 0.88156 0.0
C353 C 0.95445 0.13841 0.90302 0.0
C354 C 0.06225 0.14949 0.81894 0.0
C355 C 0.0893 0.16648 0.83173 0.0
C356 C 0.03065 0.15393 0.83141 0.0
C357 C 0.02562 0.17496 0.85734 0.0
C358 C 0.05226 0.19417 0.86819 0.0
C359 C 0.08381 0.19005 0.85538 0.0
H360 H 0.37243 0.42265 0.40293 0.0
H361 H 0.27333 0.44232 0.43589 0.0
H362 H 0.3701 0.47172 0.37 0.0
H363 H 0.27113 0.49165 0.40239 0.0
H364 H 0.29393 0.57018 0.31438 0.0
H365 H 0.28518 0.51455 0.33622 0.0
H366 H 0.36237 0.53209 0.40407 0.0
H367 H 0.37018 0.58746 0.38371 0.0
C368 C 0.34976 0.43689 0.40243 0.0
C369 C 0.3233 0.42904 0.42249 0.0
C370 C 0.34844 0.46486 0.38348 0.0
C371 C 0.32059 0.48541 0.38402 0.0
C372 C 0.29278 0.47593 0.40155 0.0
C373 C 0.29408 0.44778 0.42069 0.0
C374 C 0.30873 0.56224 0.33418 0.0
C375 C 0.33327 0.58305 0.34684 0.0
C376 C 0.30376 0.53048 0.34652 0.0
C377 C 0.32351 0.51916 0.37138 0.0
C378 C 0.34728 0.54019 0.38448 0.0
C379 C 0.35191 0.5718 0.37259 0.0
H380 H 0.07839 0.78182 0.90842 0.0
H381 H 0.01918 0.84969 0.9629 0.0
H382 H 0.03224 0.77514 0.87112 0.0
H383 H 0.97366 0.84278 0.92645 0.0
H384 H 0.88827 0.81276 0.87125 0.0
H385 H 0.93352 0.79939 0.907 0.0
H386 H 0.00384 0.81665 0.83253 0.0
H387 H 0.95863 0.83029 0.79678 0.0
C388 C 0.05545 0.79486 0.91264 0.0
C389 C 0.05243 0.8165 0.93833 0.0
C390 C 0.02916 0.79109 0.89136 0.0
C391 C 0.9993 0.80823 0.89607 0.0
C392 C 0.99612 0.82884 0.92243 0.0
C393 C 0.02237 0.83308 0.94315 0.0
C394 C 0.91334 0.81292 0.86231 0.0
C395 C 0.91993 0.82313 0.83138 0.0
C396 C 0.9392 0.80522 0.88274 0.0
C397 C 0.97218 0.80749 0.87263 0.0
C398 C 0.97865 0.81454 0.84089 0.0
C399 C 0.95272 0.82234 0.82042 0.0
H400 H 0.87751 0.05937 0.90294 0.0
H401 H 0.77973 0.0373 0.93769 0.0
H402 H 0.87262 0.01528 0.86442 0.0
H403 H 0.77495 0.99243 0.89897 0.0
H404 H 0.81918 0.88729 0.86451 0.0
H405 H 0.80686 0.93737 0.89445 0.0
H406 H 0.84041 0.99682 0.81657 0.0
H407 H 0.85307 0.94685 0.7868 0.0
C408 C 0.85477 0.04529 0.90206 0.0
C409 C 0.8291 0.05157 0.92346 0.0
C410 C 0.85184 0.02022 0.87978 0.0
C411 C 0.82336 0.00047 0.87862 0.0
C412 C 0.79716 0.00733 0.89937 0.0
C413 C 0.79985 0.03299 0.9214 0.0
C414 C 0.82306 0.91109 0.85351 0.0
C415 C 0.83741 0.91317 0.82347 0.0
C416 C 0.8158 0.93974 0.87055 0.0
C417 C 0.82305 0.97095 0.85795 0.0
C418 C 0.83485 0.97304 0.82693 0.0
C419 C 0.84185 0.94442 0.8098 0.0
H420 H 0.42471 0.3599 0.40308 0.0
H421 H 0.45315 0.26762 0.44599 0.0
H422 H 0.4687 0.3539 0.36455 0.0
H423 H 0.49796 0.26175 0.4073 0.0
H424 H 0.60013 0.30987 0.36944 0.0
H425 H 0.55078 0.29691 0.40022 0.0
H426 H 0.48962 0.31869 0.31973 0.0
H427 H 0.53874 0.33213 0.28914 0.0
C428 C 0.44009 0.338 0.40387 0.0
C429 C 0.4357 0.3143 0.42755 0.0
C430 C 0.46513 0.33443 0.38167 0.0
C431 C 0.48674 0.30733 0.38291 0.0
C432 C 0.48161 0.28287 0.40586 0.0
C433 C 0.45596 0.28613 0.42783 0.0
C434 C 0.57617 0.31108 0.35813 0.0
C435 C 0.5733 0.32236 0.327 0.0
C436 C 0.54796 0.3034 0.37566 0.0
C437 C 0.51638 0.30714 0.36242 0.0
C438 C 0.51368 0.31585 0.33056 0.0
C439 C 0.54185 0.3233 0.31299 0.0
H440 H 0.2226 0.93419 0.92983 0.0
H441 H 0.11723 0.93385 0.91312 0.0
H442 H 0.22885 0.97922 0.89212 0.0
H443 H 0.12333 0.97906 0.87653 0.0
H444 H 0.21033 0.09177 0.87043 0.0
H445 H 0.21519 0.03705 0.89369 0.0
H446 H 0.14288 -0.00017 0.82778 0.0
H447 H 0.13736 0.055 0.80529 0.0
C448 C 0.20085 0.94331 0.9178 0.0
C449 C 0.16935 0.93069 0.92489 0.0
C450 C 0.20443 0.96926 0.89632 0.0
C451 C 0.17659 0.98302 0.88145 0.0
C452 C 0.14542 0.96894 0.88716 0.0
C453 C 0.14186 0.9431 0.90851 0.0
C454 C 0.19621 0.07165 0.86037 0.0
C455 C 0.17316 0.07762 0.83638 0.0
C456 C 0.19903 0.04021 0.87363 0.0
C457 C 0.17901 0.0141 0.86296 0.0
C458 C 0.15808 0.01956 0.83707 0.0
C459 C 0.15501 0.05106 0.82407 0.0
H460 H 0.55423 0.72303 0.42748 0.0
H461 H 0.55466 0.61843 0.40728 0.0
H462 H 0.51041 0.73089 0.38849 0.0
H463 H 0.51089 0.62605 0.36941 0.0
H464 H 0.39753 0.70976 0.36452 0.0
H465 H 0.45224 0.71707 0.38742 0.0
H466 H 0.49228 0.64735 0.32048 0.0
H467 H 0.43711 0.63917 0.29859 0.0
C468 C 0.54538 0.70183 0.41444 0.0
C469 C 0.55762 0.67003 0.42086 0.0
C470 C 0.52019 0.70632 0.39219 0.0
C471 C 0.50699 0.67913 0.3758 0.0
C472 C 0.52067 0.64771 0.38109 0.0
C473 C 0.5456 0.64324 0.40324 0.0
C474 C 0.41832 0.69706 0.35393 0.0
C475 C 0.4132 0.67366 0.33007 0.0
C476 C 0.44974 0.7012 0.36705 0.0
C477 C 0.47656 0.68215 0.35632 0.0
C478 C 0.47198 0.66173 0.32987 0.0
C479 C 0.44052 0.65726 0.31709 0.0
H480 H 0.2897 0.41885 0.59278 0.0
H481 H 0.36249 0.47422 0.54054 0.0
H482 H 0.28523 0.46466 0.63071 0.0
H483 H 0.35742 0.51973 0.57761 0.0
H484 H 0.32251 0.60686 0.63072 0.0
H485 H 0.30996 0.56087 0.59557 0.0
H486 H 0.33148 0.49194 0.67004 0.0
H487 H 0.34495 0.53791 0.70514 0.0
C488 C 0.30438 0.44089 0.58923 0.0
C489 C 0.32658 0.44296 0.56386 0.0
C490 C 0.30185 0.46696 0.61087 0.0
C491 C 0.32076 0.49574 0.60683 0.0
C492 C 0.34225 0.49798 0.58103 0.0
C493 C 0.34535 0.47182 0.55997 0.0
C494 C 0.32388 0.58193 0.63983 0.0
C495 C 0.33536 0.57601 0.67051 0.0
C496 C 0.3166 0.55567 0.61974 0.0
C497 C 0.32019 0.52296 0.63005 0.0
C498 C 0.3284 0.51699 0.66161 0.0
C499 C 0.33603 0.54333 0.6817 0.0
H500 H 0.0572 0.77365 0.07469 0.0
H501 H 0.05815 0.8793 0.08925 0.0
H502 H 0.01275 0.76845 0.11333 0.0
H503 H 0.01362 0.87424 0.12676 0.0
H504 H 0.94015 0.8633 0.20004 0.0
H505 H 0.99475 0.85594 0.17664 0.0
H506 H 0.95477 0.78224 0.11368 0.0
H507 H 0.90062 0.78889 0.13795 0.0
C508 C 0.04828 0.79569 0.08637 0.0
C509 C 0.061 0.82694 0.07852 0.0
C510 C 0.0227 0.79272 0.10842 0.0
C511 C 0.00945 0.82091 0.12314 0.0
C512 C 0.02343 0.85187 0.11637 0.0
C513 C 0.04884 0.85483 0.09445 0.0
C514 C 0.94341 0.8448 0.18188 0.0
C515 C 0.91622 0.82687 0.17058 0.0
C516 C 0.97456 0.84074 0.16829 0.0
C517 C 0.97902 0.81907 0.14275 0.0
C518 C 0.95237 0.79903 0.13338 0.0
C519 C 0.92127 0.80283 0.14726 0.0
H520 H 0.60928 0.55032 0.57964 0.0
H521 H 0.7156 0.55449 0.5705 0.0
H522 H 0.6146 0.50684 0.61838 0.0
H523 H 0.7209 0.51102 0.61001 0.0
H524 H 0.70363 0.39852 0.63615 0.0
H525 H 0.70861 0.4518 0.61001 0.0
H526 H 0.63277 0.49171 0.67064 0.0
H527 H 0.62748 0.43812 0.6964 0.0
C528 C 0.63387 0.54232 0.58623 0.0
C529 C 0.66199 0.55566 0.5716 0.0
C530 C 0.63694 0.51755 0.60877 0.0
C531 C 0.66821 0.50541 0.61733 0.0
C532 C 0.69646 0.51967 0.60372 0.0
C533 C 0.6934 0.54465 0.58117 0.0
C534 C 0.68887 0.419 0.64461 0.0
C535 C 0.66488 0.41413 0.66801 0.0
C536 C 0.69169 0.44957 0.62962 0.0
C537 C 0.67063 0.47583 0.63785 0.0
C538 C 0.64882 0.47174 0.66328 0.0
C539 C 0.64589 0.44115 0.67814 0.0
H540 H 0.9198 0.20346 0.09122 0.0
H541 H 0.98119 0.1351 0.03953 0.0
H542 H 0.96374 0.20924 0.13103 0.0
H543 H 0.02476 0.14148 0.07838 0.0
H544 H 0.1076 0.17632 0.13548 0.0
H545 H 0.06275 0.18989 0.09936 0.0
H546 H 0.99132 0.1628 0.17005 0.0
H547 H 0.0362 0.14857 0.20615 0.0
C548 C 0.94277 0.1901 0.08819 0.0
C549 C 0.94709 0.16866 0.06249 0.0
C550 C 0.96776 0.19338 0.11087 0.0
C551 C 0.99765 0.17606 0.1075 0.0
C552 C 0.00214 0.15546 0.0813 0.0
C553 C 0.97708 0.15159 0.05923 0.0
C554 C 0.08233 0.17409 0.14362 0.0
C555 C 0.07539 0.16077 0.17339 0.0
C556 C 0.05672 0.18195 0.123 0.0
C557 C 0.0237 0.17695 0.13187 0.0
C558 C 0.01662 0.16701 0.16276 0.0
C559 C 0.04232 0.1589 0.1834 0.0
H560 H 0.24414 0.82924 0.08975 0.0
H561 H 0.18271 0.74223 0.08237 0.0
H562 H 0.26434 0.81018 0.14062 0.0
H563 H 0.20293 0.72338 0.13328 0.0
H564 H 0.26614 0.6872 0.21521 0.0
H565 H 0.25435 0.70431 0.16123 0.0
H566 H 0.23715 0.80399 0.19346 0.0
H567 H 0.24928 0.78696 0.24732 0.0
C568 C 0.23526 0.80585 0.09872 0.0
C569 C 0.21163 0.78736 0.08201 0.0
C570 C 0.2467 0.79507 0.12795 0.0
C571 C 0.23506 0.76542 0.14096 0.0
C572 C 0.21252 0.74624 0.12372 0.0
C573 C 0.20081 0.75715 0.09463 0.0
C574 C 0.26032 0.71285 0.21065 0.0
C575 C 0.25852 0.73576 0.23544 0.0
C576 C 0.25333 0.72257 0.17983 0.0
C577 C 0.2448 0.75545 0.17318 0.0
C578 C 0.24396 0.77854 0.19785 0.0
C579 C 0.2506 0.76876 0.22869 0.0
H580 H 0.68427 0.75301 0.56781 0.0
H581 H 0.75221 0.67067 0.57164 0.0
H582 H 0.71978 0.78394 0.60361 0.0
H583 H 0.78724 0.70144 0.60767 0.0
H584 H 0.86179 0.78315 0.63186 0.0
H585 H 0.82335 0.74934 0.60188 0.0
H586 H 0.74231 0.78648 0.65778 0.0
H587 H 0.78092 0.82113 0.68741 0.0
C588 C 0.7065 0.74131 0.57655 0.0
C589 C 0.71552 0.70945 0.56647 0.0
C590 C 0.72676 0.75901 0.59722 0.0
C591 C 0.75649 0.74526 0.60823 0.0
C592 C 0.7648 0.71295 0.59916 0.0
C593 C 0.74458 0.69526 0.57857 0.0
C594 C 0.83576 0.78418 0.63772 0.0
C595 C 0.82436 0.80497 0.66185 0.0
C596 C 0.81376 0.76452 0.62077 0.0
C597 C 0.77977 0.76517 0.62749 0.0
C598 C 0.76834 0.78563 0.65191 0.0
C599 C 0.79045 0.80523 0.66904 0.0
H600 H 0.74802 0.1753 0.07189 0.0
H601 H 0.81892 0.25472 0.06383 0.0
H602 H 0.71571 0.20837 0.10861 0.0
H603 H 0.78672 0.28748 0.10083 0.0
H604 H 0.6773 0.26782 0.1919 0.0
H605 H 0.71591 0.23379 0.16167 0.0
H606 H 0.73275 0.31532 0.09826 0.0
H607 H 0.69485 0.34939 0.12878 0.0
C608 C 0.75694 0.19963 0.07817 0.0
C609 C 0.78595 0.21241 0.06459 0.0
C610 C 0.73851 0.2185 0.09941 0.0
C611 C 0.74857 0.25061 0.10748 0.0
C612 C 0.7781 0.26299 0.09474 0.0
C613 C 0.79661 0.2441 0.07362 0.0
C614 C 0.6897 0.27857 0.1718 0.0
C615 C 0.68294 0.31119 0.16258 0.0
C616 C 0.71155 0.25902 0.15435 0.0
C617 C 0.72728 0.27183 0.12752 0.0
C618 C 0.72128 0.3048 0.11896 0.0
C619 C 0.69932 0.32422 0.13625 0.0
H620 H 0.31684 0.24346 0.5836 0.0
H621 H 0.25435 0.3298 0.59066 0.0
H622 H 0.29787 0.22523 0.63503 0.0
H623 H 0.2352 0.31122 0.64208 0.0
H624 H 0.24918 0.28887 0.74875 0.0
H625 H 0.26134 0.30586 0.6949 0.0
H626 H 0.24816 0.20534 0.66331 0.0
H627 H 0.23675 0.18822 0.71724 0.0
C628 C 0.29877 0.25838 0.59592 0.0
C629 C 0.28727 0.2882 0.58302 0.0
C630 C 0.28777 0.24781 0.62534 0.0
C631 C 0.26516 0.26689 0.64262 0.0
C632 C 0.25292 0.29621 0.62941 0.0
C633 C 0.26374 0.3067 0.59986 0.0
C634 C 0.24888 0.27044 0.73028 0.0
C635 C 0.24214 0.23721 0.73721 0.0
C636 C 0.25549 0.28021 0.69942 0.0
C637 C 0.25571 0.25691 0.67491 0.0
C638 C 0.2484 0.22379 0.68177 0.0
C639 C 0.24159 0.21406 0.71258 0.0
H640 H 0.74468 0.6613 0.41274 0.0
H641 H 0.67983 0.74606 0.41739 0.0
H642 H 0.76655 0.68107 0.36284 0.0
H643 H 0.70155 0.76549 0.36732 0.0
H644 H 0.75814 0.70287 0.25599 0.0
H645 H 0.74365 0.68578 0.3092 0.0
H646 H 0.75168 0.78685 0.3408 0.0
H647 H 0.76548 0.80407 0.28731 0.0
C648 C 0.73528 0.6843 0.40335 0.0
C649 C 0.71027 0.70194 0.41907 0.0
C650 C 0.74772 0.6955 0.37463 0.0
C651 C 0.7356 0.72469 0.36104 0.0
C652 C 0.71158 0.74304 0.3773 0.0
C653 C 0.699 0.73177 0.40595 0.0
C654 C 0.75685 0.72142 0.27432 0.0
C655 C 0.76277 0.75482 0.26745 0.0
C656 C 0.7489 0.7116 0.30486 0.0
C657 C 0.74651 0.73498 0.32919 0.0
C658 C 0.75309 0.76831 0.32247 0.0
C659 C 0.76126 0.77811 0.29193 0.0
H660 H 0.82612 0.24445 0.91334 0.0
H661 H 0.75158 0.16794 0.91223 0.0
H662 H 0.80591 0.26481 0.86315 0.0
H663 H 0.7317 0.18826 0.86169 0.0
H664 H 0.79213 0.25969 0.75617 0.0
H665 H 0.80783 0.24327 0.80916 0.0
H666 H 0.70484 0.23575 0.83485 0.0
H667 H 0.68908 0.25147 0.78137 0.0
C668 C 0.80526 0.23208 0.90257 0.0
C669 C 0.79069 0.20431 0.91679 0.0
C670 C 0.79381 0.24369 0.87368 0.0
C671 C 0.76749 0.2279 0.8583 0.0
C672 C 0.75194 0.20105 0.87306 0.0
C673 C 0.76344 0.18934 0.90199 0.0
C674 C 0.77283 0.25435 0.77306 0.0
C675 C 0.73938 0.25673 0.76457 0.0
C676 C 0.78181 0.24533 0.80353 0.0
C677 C 0.75756 0.23836 0.82623 0.0
C678 C 0.72407 0.2408 0.81781 0.0
C679 C 0.71506 0.25004 0.7873 0.0
H680 H 0.31115 0.22963 0.43796 0.0
H681 H 0.2399 0.30857 0.42823 0.0
H682 H 0.27831 0.1953 0.40286 0.0
H683 H 0.20694 0.27393 0.39343 0.0
H684 H 0.16923 0.21179 0.31133 0.0
H685 H 0.20687 0.24707 0.34121 0.0
H686 H 0.22462 0.16719 0.40628 0.0
H687 H 0.18773 0.13177 0.37603 0.0
C688 C 0.28861 0.23978 0.42825 0.0
C689 C 0.27811 0.27186 0.43617 0.0
C690 C 0.26971 0.21999 0.40823 0.0
C691 C 0.23994 0.23181 0.39553 0.0
C692 C 0.22991 0.2642 0.40263 0.0
C693 C 0.24874 0.28398 0.42276 0.0
C694 C 0.18156 0.20166 0.33176 0.0
C695 C 0.17544 0.16904 0.3414 0.0
C696 C 0.20285 0.22195 0.34902 0.0
C697 C 0.21865 0.20995 0.37614 0.0
C698 C 0.21308 0.17709 0.38534 0.0
C699 C 0.19168 0.1569 0.3682 0.0
H700 H 0.18337 0.73507 0.93162 0.0
H701 H 0.25766 0.8118 0.93128 0.0
H702 H 0.21742 0.70222 0.89594 0.0
H703 H 0.29131 0.77906 0.89559 0.0
H704 H 0.3594 0.69137 0.87121 0.0
H705 H 0.32299 0.72717 0.90158 0.0
H706 H 0.24128 0.70081 0.84128 0.0
H707 H 0.27784 0.66445 0.811 0.0
C708 C 0.20674 0.74512 0.92375 0.0
C709 C 0.21784 0.77601 0.93465 0.0
C710 C 0.22616 0.72634 0.90315 0.0
C711 C 0.25716 0.73795 0.89317 0.0
C712 C 0.26775 0.76924 0.90324 0.0
C713 C 0.24833 0.78806 0.92363 0.0
C714 C 0.33367 0.69321 0.86443 0.0
C715 C 0.32143 0.67501 0.83883 0.0
C716 C 0.31287 0.71394 0.88164 0.0
C717 C 0.27926 0.71685 0.8738 0.0
C718 C 0.26702 0.6989 0.84799 0.0
C719 C 0.28798 0.67834 0.83052 0.0
loop_
_geom_bond_atom_site_label_1
_geom_bond_atom_site_label_2
_geom_bond_distance
_geom_bond_site_symmetry_2
_ccdc_geom_bond_type
Sc0 O3 2.025 . S
Sc0 O10 2.105 1_554 S
Sc0 O13 2.105 . S
Sc0 O16 2.105 . S
Sc0 O19 2.105 1_554 S
Sc1 O3 2.025 . S
Sc1 O11 2.105 1_554 S
Sc1 O15 2.105 . S
Sc1 O17 2.105 . S
Sc1 O21 2.105 1_554 S
Sc2 O3 2.025 . S
Sc2 O12 2.105 1_554 S
Sc2 O14 2.105 . S
Sc2 O18 2.105 . S
Sc2 O20 2.105 1_554 S
O3 Sc0 2.025 . S
O3 Sc1 2.025 . S
O3 Sc2 2.025 . S
C4 O10 1.268 . S
C4 O20 1.268 . S
C5 O11 1.268 . S
C5 O19 1.268 . S
C6 O12 1.268 . S
C6 O21 1.268 . S
C7 O13 1.268 . S
C7 O17 1.268 . S
C8 O14 1.268 . S
C8 O16 1.268 . S
C9 O15 1.268 . S
C9 O18 1.268 . S
O10 Sc0 2.105 1_556 S
O10 C4 1.268 . S
O11 Sc1 2.105 1_556 S
O11 C5 1.268 . S
O12 Sc2 2.105 1_556 S
O12 C6 1.268 . S
O13 Sc0 2.105 . S
O13 C7 1.268 . S
O14 Sc2 2.105 . S
O14 C8 1.268 . S
O15 Sc1 2.105 . S
O15 C9 1.268 . S
O16 Sc0 2.105 . S
O16 C8 1.268 . S
O17 Sc1 2.105 . S
O17 C7 1.268 . S
O18 Sc2 2.105 . S
O18 C9 1.268 . S
O19 Sc0 2.105 1_556 S
O19 C5 1.268 . S
O20 Sc2 2.105 1_556 S
O20 C4 1.268 . S
O21 Sc1 2.105 1_556 S
O21 C6 1.268 . S
Sc22 O25 2.025 . S
Sc22 O32 2.105 . S
Sc22 O35 2.105 . S
Sc22 O38 2.105 . S
Sc22 O41 2.105 . S
Sc23 O25 2.025 . S
Sc23 O33 2.105 . S
Sc23 O37 2.105 . S
Sc23 O39 2.105 . S
Sc23 O43 2.105 . S
Sc24 O25 2.025 . S
Sc24 O34 2.105 . S
Sc24 O36 2.105 . S
Sc24 O40 2.105 . S
Sc24 O42 2.105 . S
O25 Sc22 2.025 . S
O25 Sc23 2.025 . S
O25 Sc24 2.025 . S
C26 O32 1.268 . S
C26 O42 1.268 . S
C27 O33 1.268 . S
C27 O41 1.268 . S
C28 O34 1.268 . S
C28 O43 1.268 . S
C29 O35 1.268 . S
C29 O39 1.268 . S
C30 O36 1.268 . S
C30 O38 1.268 . S
C31 O37 1.268 . S
C31 O40 1.268 . S
O32 Sc22 2.105 . S
O32 C26 1.268 . S
O33 Sc23 2.105 . S
O33 C27 1.268 . S
O34 Sc24 2.105 . S
O34 C28 1.268 . S
O35 Sc22 2.105 . S
O35 C29 1.268 . S
O36 Sc24 2.105 . S
O36 C30 1.268 . S
O37 Sc23 2.105 . S
O37 C31 1.268 . S
O38 Sc22 2.105 . S
O38 C30 1.268 . S
O39 Sc23 2.105 . S
O39 C29 1.268 . S
O40 Sc24 2.105 . S
O40 C31 1.268 . S
O41 Sc22 2.105 . S
O41 C27 1.268 . S
O42 Sc24 2.105 . S
O42 C26 1.268 . S
O43 Sc23 2.105 . S
O43 C28 1.268 . S
Sc44 O47 2.025 . S
Sc44 O54 2.105 1_554 S
Sc44 O57 2.105 . S
Sc44 O60 2.105 . S
Sc44 O63 2.105 1_554 S
Sc45 O47 2.025 . S
Sc45 O55 2.105 1_554 S
Sc45 O59 2.105 . S
Sc45 O61 2.105 . S
Sc45 O65 2.105 1_554 S
Sc46 O47 2.025 . S
Sc46 O56 2.105 1_554 S
Sc46 O58 2.105 . S
Sc46 O62 2.105 . S
Sc46 O64 2.105 1_554 S
O47 Sc44 2.025 . S
O47 Sc45 2.025 . S
O47 Sc46 2.025 . S
C48 O54 1.268 . S
C48 O64 1.268 . S
C49 O55 1.268 . S
C49 O63 1.268 . S
C50 O56 1.268 . S
C50 O65 1.268 . S
C51 O57 1.268 . S
C51 O61 1.268 . S
C52 O58 1.268 . S
C52 O60 1.268 . S
C53 O59 1.268 . S
C53 O62 1.268 . S
O54 Sc44 2.105 1_556 S
O54 C48 1.268 . S
O55 Sc45 2.105 1_556 S
O55 C49 1.268 . S
O56 Sc46 2.105 1_556 S
O56 C50 1.268 . S
O57 Sc44 2.105 . S
O57 C51 1.268 . S
O58 Sc46 2.105 . S
O58 C52 1.268 . S
O59 Sc45 2.105 . S
O59 C53 1.268 . S
O60 Sc44 2.105 . S
O60 C52 1.268 . S
O61 Sc45 2.105 . S
O61 C51 1.268 . S
O62 Sc46 2.105 . S
O62 C53 1.268 . S
O63 Sc44 2.105 1_556 S
O63 C49 1.268 . S
O64 Sc46 2.105 1_556 S
O64 C48 1.268 . S
O65 Sc45 2.105 1_556 S
O65 C50 1.268 . S
Sc66 O69 2.025 . S
Sc66 O76 2.105 . S
Sc66 O79 2.105 . S
Sc66 O82 2.105 . S
Sc66 O85 2.105 . S
Sc67 O69 2.025 . S
Sc67 O77 2.105 . S
Sc67 O81 2.105 . S
Sc67 O83 2.105 . S
Sc67 O87 2.105 . S
Sc68 O69 2.025 . S
Sc68 O78 2.105 . S
Sc68 O80 2.105 . S
Sc68 O84 2.105 . S
Sc68 O86 2.105 . S
O69 Sc66 2.025 . S
O69 Sc67 2.025 . S
O69 Sc68 2.025 . S
C70 O76 1.268 . S
C70 O86 1.268 . S
C71 O77 1.268 . S
C71 O85 1.268 . S
C72 O78 1.268 . S
C72 O87 1.268 . S
C73 O79 1.268 . S
C73 O83 1.268 . S
C74 O80 1.268 . S
C74 O82 1.268 . S
C75 O81 1.268 . S
C75 O84 1.268 . S
O76 Sc66 2.105 . S
O76 C70 1.268 . S
O77 Sc67 2.105 . S
O77 C71 1.268 . S
O78 Sc68 2.105 . S
O78 C72 1.268 . S
O79 Sc66 2.105 . S
O79 C73 1.268 . S
O80 Sc68 2.105 . S
O80 C74 1.268 . S
O81 Sc67 2.105 . S
O81 C75 1.268 . S
O82 Sc66 2.105 . S
O82 C74 1.268 . S
O83 Sc67 2.105 . S
O83 C73 1.268 . S
O84 Sc68 2.105 . S
O84 C75 1.268 . S
O85 Sc66 2.105 . S
O85 C71 1.268 . S
O86 Sc68 2.105 . S
O86 C70 1.268 . S
O87 Sc67 2.105 . S
O87 C72 1.268 . S
H88 C89 0.949 . S
C89 H88 0.949 . S
C89 C90 1.395 . S
C89 C91 1.391 . S
C90 C89 1.395 . S
C90 C93 1.390 . S
C91 C89 1.391 . S
C91 C95 1.387 . S
C91 C96 1.491 . S
H92 C93 0.950 . S
C93 C90 1.390 . S
C93 H92 0.950 . S
C93 C94 1.378 . S
C94 C93 1.378 . S
C94 C95 1.409 . S
C95 C91 1.387 . S
C95 C94 1.409 . S
C95 H97 0.951 . S
C96 C91 1.491 . S
C96 C98 1.382 . S
C96 C100 1.404 . S
H97 C95 0.951 . S
C98 C96 1.382 . S
C98 C99 1.390 . S
C98 H103 0.949 . S
C99 C98 1.390 . S
C99 C104 1.399 . S
C100 C96 1.404 . S
C100 H101 0.950 . S
C100 C102 1.375 . S
H101 C100 0.950 . S
C102 C100 1.375 . S
C102 C104 1.382 . S
C102 H106 0.950 . S
H103 C98 0.949 . S
C104 C99 1.399 . S
C104 C102 1.382 . S
C104 H105 0.952 . S
H105 C104 0.952 . S
H106 C102 0.950 . S
H107 C108 0.949 . S
C108 H107 0.949 . S
C108 C109 1.395 . S
C108 C110 1.391 . S
C109 C108 1.395 . S
C109 C112 1.390 . S
C110 C108 1.391 . S
C110 C114 1.387 . S
C110 C115 1.491 . S
H111 C112 0.950 . S
C112 C109 1.390 . S
C112 H111 0.950 . S
C112 C113 1.378 . S
C113 C112 1.378 . S
C113 C114 1.409 . S
C114 C110 1.387 . S
C114 C113 1.409 . S
C114 H116 0.951 . S
C115 C110 1.491 . S
C115 C117 1.382 . S
C115 C119 1.404 . S
H116 C114 0.951 . S
C117 C115 1.382 . S
C117 C118 1.390 . S
C117 H122 0.949 . S
C118 C117 1.390 . S
C118 C123 1.399 . S
C119 C115 1.404 . S
C119 H120 0.950 . S
C119 C121 1.375 . S
H120 C119 0.950 . S
C121 C119 1.375 . S
C121 C123 1.382 . S
C121 H125 0.950 . S
H122 C117 0.949 . S
C123 C118 1.399 . S
C123 C121 1.382 . S
C123 H124 0.952 . S
H124 C123 0.952 . S
H125 C121 0.950 . S
H126 C127 0.949 . S
C127 H126 0.949 . S
C127 C128 1.395 . S
C127 C129 1.391 . S
C128 C127 1.395 . S
C128 C131 1.390 . S
C129 C127 1.391 . S
C129 C133 1.387 . S
C129 C134 1.491 . S
H130 C131 0.950 . S
C131 C128 1.390 . S
C131 H130 0.950 . S
C131 C132 1.378 . S
C132 C131 1.378 . S
C132 C133 1.409 . S
C133 C129 1.387 . S
C133 C132 1.409 . S
C133 H135 0.951 . S
C134 C129 1.491 . S
C134 C136 1.382 . S
C134 C138 1.404 . S
H135 C133 0.951 . S
C136 C134 1.382 . S
C136 C137 1.390 . S
C136 H141 0.949 . S
C137 C136 1.390 . S
C137 C142 1.399 . S
C138 C134 1.404 . S
C138 H139 0.950 . S
C138 C140 1.375 . S
H139 C138 0.950 . S
C140 C138 1.375 . S
C140 C142 1.382 . S
C140 H144 0.950 . S
H141 C136 0.949 . S
C142 C137 1.399 . S
C142 C140 1.382 . S
C142 H143 0.952 . S
H143 C142 0.952 . S
H144 C140 0.950 . S
H145 C146 0.949 . S
C146 H145 0.949 . S
C146 C147 1.395 . S
C146 C148 1.391 . S
C147 C146 1.395 . S
C147 C150 1.390 . S
C148 C146 1.391 . S
C148 C152 1.387 . S
C148 C153 1.491 . S
H149 C150 0.950 . S
C150 C147 1.390 . S
C150 H149 0.950 . S
C150 C151 1.378 . S
C151 C150 1.378 . S
C151 C152 1.409 . S
C152 C148 1.387 . S
C152 C151 1.409 . S
C152 H154 0.951 . S
C153 C148 1.491 . S
C153 C155 1.382 . S
C153 C157 1.404 . S
H154 C152 0.951 . S
C155 C153 1.382 . S
C155 C156 1.390 . S
C155 H160 0.949 . S
C156 C155 1.390 . S
C156 C161 1.399 . S
C157 C153 1.404 . S
C157 H158 0.950 . S
C157 C159 1.375 . S
H158 C157 0.950 . S
C159 C157 1.375 . S
C159 C161 1.382 . S
C159 H163 0.950 . S
H160 C155 0.949 . S
C161 C156 1.399 . S
C161 C159 1.382 . S
C161 H162 0.952 . S
H162 C161 0.952 . S
H163 C159 0.950 . S
H164 C165 0.949 . S
C165 H164 0.949 . S
C165 C166 1.395 . S
C165 C167 1.391 . S
C166 C165 1.395 . S
C166 C169 1.390 . S
C167 C165 1.391 . S
C167 C171 1.387 . S
C167 C172 1.491 . S
H168 C169 0.950 . S
C169 C166 1.390 . S
C169 H168 0.950 . S
C169 C170 1.378 . S
C170 C169 1.378 . S
C170 C171 1.409 . S
C171 C167 1.387 . S
C171 C170 1.409 . S
C171 H173 0.951 . S
C172 C167 1.491 . S
C172 C174 1.382 . S
C172 C176 1.404 . S
H173 C171 0.951 . S
C174 C172 1.382 . S
C174 C175 1.390 . S
C174 H179 0.949 . S
C175 C174 1.390 . S
C175 C180 1.399 . S
C176 C172 1.404 . S
C176 H177 0.950 . S
C176 C178 1.375 . S
H177 C176 0.950 . S
C178 C176 1.375 . S
C178 C180 1.382 . S
C178 H182 0.950 . S
H179 C174 0.949 . S
C180 C175 1.399 . S
C180 C178 1.382 . S
C180 H181 0.952 . S
H181 C180 0.952 . S
H182 C178 0.950 . S
H183 C184 0.949 . S
C184 H183 0.949 . S
C184 C185 1.395 . S
C184 C186 1.391 . S
C185 C184 1.395 . S
C185 C188 1.390 . S
C186 C184 1.391 . S
C186 C190 1.387 . S
C186 C191 1.491 . S
H187 C188 0.950 . S
C188 C185 1.390 . S
C188 H187 0.950 . S
C188 C189 1.378 . S
C189 C188 1.378 . S
C189 C190 1.409 . S
C190 C186 1.387 . S
C190 C189 1.409 . S
C190 H192 0.951 . S
C191 C186 1.491 . S
C191 C193 1.382 . S
C191 C195 1.404 . S
H192 C190 0.951 . S
C193 C191 1.382 . S
C193 C194 1.390 . S
C193 H198 0.949 . S
C194 C193 1.390 . S
C194 C199 1.399 . S
C195 C191 1.404 . S
C195 H196 0.950 . S
C195 C197 1.375 . S
H196 C195 0.950 . S
C197 C195 1.375 . S
C197 C199 1.382 . S
C197 H201 0.950 . S
H198 C193 0.949 . S
C199 C194 1.399 . S
C199 C197 1.382 . S
C199 H200 0.952 . S
H200 C199 0.952 . S
H201 C197 0.950 . S
H202 C203 0.949 . S
C203 H202 0.949 . S
C203 C204 1.395 . S
C203 C205 1.391 . S
C204 C203 1.395 . S
C204 C207 1.390 . S
C205 C203 1.391 . S
C205 C209 1.387 . S
C205 C210 1.491 . S
H206 C207 0.950 . S
C207 C204 1.390 . S
C207 H206 0.950 . S
C207 C208 1.378 . S
C208 C207 1.378 . S
C208 C209 1.409 . S
C209 C205 1.387 . S
C209 C208 1.409 . S
C209 H211 0.951 . S
C210 C205 1.491 . S
C210 C212 1.382 . S
C210 C214 1.404 . S
H211 C209 0.951 . S
C212 C210 1.382 . S
C212 C213 1.390 . S
C212 H217 0.949 . S
C213 C212 1.390 . S
C213 C218 1.399 . S
C214 C210 1.404 . S
C214 H215 0.950 . S
C214 C216 1.375 . S
H215 C214 0.950 . S
C216 C214 1.375 . S
C216 C218 1.382 . S
C216 H220 0.950 . S
H217 C212 0.949 . S
C218 C213 1.399 . S
C218 C216 1.382 . S
C218 H219 0.952 . S
H219 C218 0.952 . S
H220 C216 0.950 . S
H221 C222 0.949 . S
C222 H221 0.949 . S
C222 C223 1.395 . S
C222 C224 1.391 . S
C223 C222 1.395 . S
C223 C226 1.390 . S
C224 C222 1.391 . S
C224 C228 1.387 . S
C224 C229 1.491 . S
H225 C226 0.950 . S
C226 C223 1.390 . S
C226 H225 0.950 . S
C226 C227 1.378 . S
C227 C226 1.378 . S
C227 C228 1.409 . S
C228 C224 1.387 . S
C228 C227 1.409 . S
C228 H230 0.951 . S
C229 C224 1.491 . S
C229 C231 1.382 . S
C229 C233 1.404 . S
H230 C228 0.951 . S
C231 C229 1.382 . S
C231 C232 1.390 . S
C231 H236 0.949 . S
C232 C231 1.390 . S
C232 C237 1.399 . S
C233 C229 1.404 . S
C233 H234 0.950 . S
C233 C235 1.375 . S
H234 C233 0.950 . S
C235 C233 1.375 . S
C235 C237 1.382 . S
C235 H239 0.950 . S
H236 C231 0.949 . S
C237 C232 1.399 . S
C237 C235 1.382 . S
C237 H238 0.952 . S
H238 C237 0.952 . S
H239 C235 0.950 . S
H240 C248 0.950 . S
H241 C253 0.950 . S
H242 C250 0.950 . S
H243 C252 0.950 . S
H244 C254 0.950 . S
H245 C256 0.950 . S
H246 C258 0.950 . S
H247 C259 0.950 . S
C248 H240 0.950 . S
C248 C249 1.386 . S
C248 C250 1.391 1_565 S
C249 C248 1.386 . S
C249 C253 1.393 . S
C250 H242 0.950 . S
C250 C248 1.391 1_545 S
C250 C251 1.400 . S
C251 C250 1.400 . S
C251 C252 1.398 1_545 S
C251 C257 1.491 . S
C252 H243 0.950 . S
C252 C251 1.398 1_565 S
C252 C253 1.391 . S
C253 H241 0.950 . S
C253 C249 1.393 . S
C253 C252 1.391 . S
C254 H244 0.950 . S
C254 C255 1.386 . S
C254 C256 1.391 . S
C255 C254 1.386 . S
C255 C259 1.393 . S
C256 H245 0.950 . S
C256 C254 1.391 . S
C256 C257 1.400 . S
C257 C251 1.491 . S
C257 C256 1.400 . S
C257 C258 1.398 . S
C258 H246 0.950 . S
C258 C257 1.398 . S
C258 C259 1.391 . S
C259 H247 0.950 . S
C259 C255 1.393 . S
C259 C258 1.391 . S
H260 C268 0.950 . S
H261 C273 0.950 . S
H262 C270 0.950 . S
H263 C272 0.950 . S
H264 C274 0.950 . S
H265 C276 0.950 . S
H266 C278 0.950 . S
H267 C279 0.950 . S
C268 H260 0.950 . S
C268 C269 1.386 . S
C268 C270 1.391 . S
C269 C268 1.386 . S
C269 C273 1.393 . S
C270 H262 0.950 . S
C270 C268 1.391 . S
C270 C271 1.400 . S
C271 C270 1.400 . S
C271 C272 1.398 . S
C271 C277 1.491 . S
C272 H263 0.950 . S
C272 C271 1.398 . S
C272 C273 1.391 . S
C273 H261 0.950 . S
C273 C269 1.393 . S
C273 C272 1.391 . S
C274 H264 0.950 . S
C274 C275 1.386 . S
C274 C276 1.391 . S
C275 C274 1.386 . S
C275 C279 1.393 . S
C276 H265 0.950 . S
C276 C274 1.391 . S
C276 C277 1.400 . S
C277 C271 1.491 . S
C277 C276 1.400 . S
C277 C278 1.398 . S
C278 H266 0.950 . S
C278 C277 1.398 . S
C278 C279 1.391 . S
C279 H267 0.950 . S
C279 C275 1.393 . S
C279 C278 1.391 . S
H280 C288 0.950 . S
H281 C293 0.950 . S
H282 C290 0.941 1_565 S
H283 C292 0.950 1_565 S
H284 C294 0.950 . S
H285 C296 0.950 . S
H286 C298 0.950 . S
H287 C299 0.950 . S
C288 H280 0.950 . S
C288 C289 1.386 . S
C288 C290 1.391 . S
C289 C288 1.386 . S
C289 C293 1.393 . S
C290 H282 0.941 1_545 S
C290 C288 1.391 . S
C290 C291 1.400 1_545 S
C291 C290 1.400 1_565 S
C291 C292 1.398 1_565 S
C291 C297 1.491 . S
C292 H283 0.950 1_545 S
C292 C291 1.398 1_545 S
C292 C293 1.391 . S
C293 H281 0.950 . S
C293 C289 1.393 . S
C293 C292 1.391 . S
C294 H284 0.950 . S
C294 C295 1.386 . S
C294 C296 1.391 . S
C295 C294 1.386 . S
C295 C299 1.393 . S
C296 H285 0.950 . S
C296 C294 1.391 . S
C296 C297 1.400 . S
C297 C291 1.491 . S
C297 C296 1.400 . S
C297 C298 1.398 . S
C298 H286 0.950 . S
C298 C297 1.398 . S
C298 C299 1.391 . S
C299 H287 0.950 . S
C299 C295 1.393 . S
C299 C298 1.391 . S
H300 C308 0.950 . S
H301 C313 0.950 . S
H302 C310 0.950 . S
H303 C312 0.950 . S
H304 C314 0.950 . S
H305 C316 0.950 . S
H306 C318 0.950 . S
H307 C319 0.950 . S
C308 H300 0.950 . S
C308 C309 1.386 . S
C308 C310 1.391 . S
C309 C308 1.386 . S
C309 C313 1.393 . S
C310 H302 0.950 . S
C310 C308 1.391 . S
C310 C311 1.400 . S
C311 C310 1.400 . S
C311 C312 1.398 . S
C311 C317 1.491 . S
C312 H303 0.950 . S
C312 C311 1.398 . S
C312 C313 1.391 . S
C313 H301 0.950 . S
C313 C309 1.393 . S
C313 C312 1.391 . S
C314 H304 0.950 . S
C314 C315 1.386 . S
C314 C316 1.391 . S
C315 C314 1.386 . S
C315 C319 1.393 . S
C316 H305 0.950 . S
C316 C314 1.391 . S
C316 C317 1.400 . S
C317 C311 1.491 . S
C317 C316 1.400 . S
C317 C318 1.398 . S
C318 H306 0.950 . S
C318 C317 1.398 . S
C318 C319 1.391 . S
C319 H307 0.950 . S
C319 C315 1.393 . S
C319 C318 1.391 . S
H320 C328 0.950 . S
H321 C333 0.950 . S
H322 C330 0.950 . S
H323 C332 0.950 . S
H324 C334 0.950 . S
H325 C336 0.950 . S
H326 C338 0.950 . S
H327 C339 0.950 . S
C328 H320 0.950 . S
C328 C329 1.386 . S
C328 C330 1.391 . S
C329 C328 1.386 . S
C329 C333 1.393 . S
C330 H322 0.950 . S
C330 C328 1.391 . S
C330 C331 1.400 . S
C331 C330 1.400 . S
C331 C332 1.398 . S
C331 C337 1.491 . S
C332 H323 0.950 . S
C332 C331 1.398 . S
C332 C333 1.391 . S
C333 H321 0.950 . S
C333 C329 1.393 . S
C333 C332 1.391 . S
C334 H324 0.950 . S
C334 C335 1.386 . S
C334 C336 1.391 . S
C335 C334 1.386 . S
C335 C339 1.393 . S
C336 H325 0.950 . S
C336 C334 1.391 . S
C336 C337 1.400 . S
C337 C331 1.491 . S
C337 C336 1.400 . S
C337 C338 1.398 . S
C338 H326 0.950 . S
C338 C337 1.398 . S
C338 C339 1.391 . S
C339 H327 0.950 . S
C339 C335 1.393 . S
C339 C338 1.391 . S
H340 C348 0.950 . S
H341 C353 0.950 . S
H342 C350 0.950 . S
H343 C352 0.950 . S
H344 C354 0.950 . S
H345 C356 0.950 . S
H346 C358 0.950 . S
H347 C359 0.950 . S
C348 H340 0.950 . S
C348 C349 1.386 . S
C348 C350 1.391 1_655 S
C349 C348 1.386 . S
C349 C353 1.393 . S
C350 H342 0.950 . S
C350 C348 1.391 1_455 S
C350 C351 1.400 . S
C351 C350 1.400 . S
C351 C352 1.398 1_455 S
C351 C357 1.491 . S
C352 H343 0.950 . S
C352 C351 1.398 1_655 S
C352 C353 1.391 . S
C353 H341 0.950 . S
C353 C349 1.393 . S
C353 C352 1.391 . S
C354 H344 0.950 . S
C354 C355 1.386 . S
C354 C356 1.391 . S
C355 C354 1.386 . S
C355 C359 1.393 . S
C356 H345 0.950 . S
C356 C354 1.391 . S
C356 C357 1.400 . S
C357 C351 1.491 . S
C357 C356 1.400 . S
C357 C358 1.398 . S
C358 H346 0.950 . S
C358 C357 1.398 . S
C358 C359 1.391 . S
C359 H347 0.950 . S
C359 C355 1.393 . S
C359 C358 1.391 . S
H360 C368 0.950 . S
H361 C373 0.950 . S
H362 C370 0.950 . S
H363 C372 0.950 . S
H364 C374 0.950 . S
H365 C376 0.950 . S
H366 C378 0.950 . S
H367 C379 0.950 . S
C368 H360 0.950 . S
C368 C369 1.386 . S
C368 C370 1.391 . S
C369 C368 1.386 . S
C369 C373 1.393 . S
C370 H362 0.950 . S
C370 C368 1.391 . S
C370 C371 1.400 . S
C371 C370 1.400 . S
C371 C372 1.398 . S
C371 C377 1.491 . S
C372 H363 0.950 . S
C372 C371 1.398 . S
C372 C373 1.391 . S
C373 H361 0.950 . S
C373 C369 1.393 . S
C373 C372 1.391 . S
C374 H364 0.950 . S
C374 C375 1.386 . S
C374 C376 1.391 . S
C375 C374 1.386 . S
C375 C379 1.393 . S
C376 H365 0.950 . S
C376 C374 1.391 . S
C376 C377 1.400 . S
C377 C371 1.491 . S
C377 C376 1.400 . S
C377 C378 1.398 . S
C378 H366 0.950 . S
C378 C377 1.398 . S
C378 C379 1.391 . S
C379 H367 0.950 . S
C379 C375 1.393 . S
C379 C378 1.391 . S
H380 C388 0.950 . S
H381 C393 0.950 . S
H382 C390 0.950 . S
H383 C392 0.950 . S
H384 C394 0.950 . S
H385 C396 0.950 . S
H386 C398 0.950 . S
H387 C399 0.950 . S
C388 H380 0.950 . S
C388 C389 1.386 . S
C388 C390 1.391 . S
C389 C388 1.386 . S
C389 C393 1.393 . S
C390 H382 0.950 . S
C390 C388 1.391 . S
C390 C391 1.400 1_455 S
C391 C390 1.400 1_655 S
C391 C392 1.398 . S
C391 C397 1.491 . S
C392 H383 0.950 . S
C392 C391 1.398 . S
C392 C393 1.391 1_655 S
C393 H381 0.950 . S
C393 C389 1.393 . S
C393 C392 1.391 1_455 S
C394 H384 0.950 . S
C394 C395 1.386 . S
C394 C396 1.391 . S
C395 C394 1.386 . S
C395 C399 1.393 . S
C396 H385 0.950 . S
C396 C394 1.391 . S
C396 C397 1.400 . S
C397 C391 1.491 . S
C397 C396 1.400 . S
C397 C398 1.398 . S
C398 H386 0.950 . S
C398 C397 1.398 . S
C398 C399 1.391 . S
C399 H387 0.950 . S
C399 C395 1.393 . S
C399 C398 1.391 . S
H400 C408 0.950 . S
H401 C413 0.950 . S
H402 C410 0.950 1_565 S
H403 C412 0.950 1_565 S
H404 C414 0.950 . S
H405 C416 0.950 . S
H406 C418 0.950 . S
H407 C419 0.950 . S
C408 H400 0.950 . S
C408 C409 1.386 . S
C408 C410 1.391 . S
C409 C408 1.386 . S
C409 C413 1.393 . S
C410 H402 0.950 1_545 S
C410 C408 1.391 . S
C410 C411 1.400 1_545 S
C411 C410 1.400 1_565 S
C411 C412 1.398 1_565 S
C411 C417 1.491 . S
C412 H403 0.950 1_545 S
C412 C411 1.398 1_545 S
C412 C413 1.391 . S
C413 H401 0.950 . S
C413 C409 1.393 . S
C413 C412 1.391 . S
C414 H404 0.950 . S
C414 C415 1.386 . S
C414 C416 1.391 . S
C415 C414 1.386 . S
C415 C419 1.393 . S
C416 H405 0.950 . S
C416 C414 1.391 . S
C416 C417 1.400 . S
C417 C411 1.491 . S
C417 C416 1.400 . S
C417 C418 1.398 . S
C418 H406 0.950 . S
C418 C417 1.398 . S
C418 C419 1.391 . S
C419 H407 0.950 . S
C419 C415 1.393 . S
C419 C418 1.391 . S
H420 C428 0.950 . S
H421 C433 0.950 . S
H422 C430 0.950 . S
H423 C432 0.950 . S
H424 C434 0.950 . S
H425 C436 0.950 . S
H426 C438 0.950 . S
H427 C439 0.950 . S
C428 H420 0.950 . S
C428 C429 1.386 . S
C428 C430 1.391 . S
C429 C428 1.386 . S
C429 C433 1.393 . S
C430 H422 0.950 . S
C430 C428 1.391 . S
C430 C431 1.400 . S
C431 C430 1.400 . S
C431 C432 1.398 . S
C431 C437 1.491 . S
C432 H423 0.950 . S
C432 C431 1.398 . S
C432 C433 1.391 . S
C433 H421 0.950 . S
C433 C429 1.393 . S
C433 C432 1.391 . S
C434 H424 0.950 . S
C434 C435 1.386 . S
C434 C436 1.391 . S
C435 C434 1.386 . S
C435 C439 1.393 . S
C436 H425 0.950 . S
C436 C434 1.391 . S
C436 C437 1.400 . S
C437 C431 1.491 . S
C437 C436 1.400 . S
C437 C438 1.398 . S
C438 H426 0.950 . S
C438 C437 1.398 . S
C438 C439 1.391 . S
C439 H427 0.950 . S
C439 C435 1.393 . S
C439 C438 1.391 . S
H440 C448 0.950 . S
H441 C453 0.950 . S
H442 C450 0.950 . S
H443 C452 0.950 . S
H444 C454 0.950 . S
H445 C456 0.950 . S
H446 C458 0.950 . S
H447 C459 0.950 . S
C448 H440 0.950 . S
C448 C449 1.386 . S
C448 C450 1.391 . S
C449 C448 1.386 . S
C449 C453 1.393 . S
C450 H442 0.950 . S
C450 C448 1.391 . S
C450 C451 1.400 1_565 S
C451 C450 1.400 1_545 S
C451 C452 1.398 . S
C451 C457 1.491 . S
C452 H443 0.950 . S
C452 C451 1.398 . S
C452 C453 1.391 1_545 S
C453 H441 0.950 . S
C453 C449 1.393 . S
C453 C452 1.391 1_565 S
C454 H444 0.950 . S
C454 C455 1.386 . S
C454 C456 1.391 . S
C455 C454 1.386 . S
C455 C459 1.393 . S
C456 H445 0.950 . S
C456 C454 1.391 . S
C456 C457 1.400 . S
C457 C451 1.491 . S
C457 C456 1.400 . S
C457 C458 1.398 . S
C458 H446 0.950 . S
C458 C457 1.398 . S
C458 C459 1.391 . S
C459 H447 0.950 . S
C459 C455 1.393 . S
C459 C458 1.391 . S
H460 C468 0.950 . S
H461 C473 0.950 . S
H462 C470 0.950 . S
H463 C472 0.950 . S
H464 C474 0.950 . S
H465 C476 0.950 . S
H466 C478 0.950 . S
H467 C479 0.950 . S
C468 H460 0.950 . S
C468 C469 1.386 . S
C468 C470 1.391 . S
C469 C468 1.386 . S
C469 C473 1.393 . S
C470 H462 0.950 . S
C470 C468 1.391 . S
C470 C471 1.400 . S
C471 C470 1.400 . S
C471 C472 1.398 . S
C471 C477 1.491 . S
C472 H463 0.950 . S
C472 C471 1.398 . S
C472 C473 1.391 . S
C473 H461 0.950 . S
C473 C469 1.393 . S
C473 C472 1.391 . S
C474 H464 0.950 . S
C474 C475 1.386 . S
C474 C476 1.391 . S
C475 C474 1.386 . S
C475 C479 1.393 . S
C476 H465 0.950 . S
C476 C474 1.391 . S
C476 C477 1.400 . S
C477 C471 1.491 . S
C477 C476 1.400 . S
C477 C478 1.398 . S
C478 H466 0.950 . S
C478 C477 1.398 . S
C478 C479 1.391 . S
C479 H467 0.950 . S
C479 C475 1.393 . S
C479 C478 1.391 . S
H480 C488 0.950 . S
H481 C493 0.950 . S
H482 C490 0.950 . S
H483 C492 0.950 . S
H484 C494 0.950 . S
H485 C496 0.950 . S
H486 C498 0.950 . S
H487 C499 0.950 . S
C488 H480 0.950 . S
C488 C489 1.386 . S
C488 C490 1.391 . S
C489 C488 1.386 . S
C489 C493 1.393 . S
C490 H482 0.950 . S
C490 C488 1.391 . S
C490 C491 1.400 . S
C491 C490 1.400 . S
C491 C492 1.398 . S
C491 C497 1.491 . S
C492 H483 0.950 . S
C492 C491 1.398 . S
C492 C493 1.391 . S
C493 H481 0.950 . S
C493 C489 1.393 . S
C493 C492 1.391 . S
C494 H484 0.950 . S
C494 C495 1.386 . S
C494 C496 1.391 . S
C495 C494 1.386 . S
C495 C499 1.393 . S
C496 H485 0.950 . S
C496 C494 1.391 . S
C496 C497 1.400 . S
C497 C491 1.491 . S
C497 C496 1.400 . S
C497 C498 1.398 . S
C498 H486 0.950 . S
C498 C497 1.398 . S
C498 C499 1.391 . S
C499 H487 0.950 . S
C499 C495 1.393 . S
C499 C498 1.391 . S
H500 C508 0.950 . S
H501 C513 0.950 . S
H502 C510 0.950 . S
H503 C512 0.950 . S
H504 C514 0.950 . S
H505 C516 0.950 . S
H506 C518 0.950 . S
H507 C519 0.950 . S
C508 H500 0.950 . S
C508 C509 1.386 . S
C508 C510 1.391 1_455 S
C509 C508 1.386 . S
C509 C513 1.393 . S
C510 H502 0.950 . S
C510 C508 1.391 1_655 S
C510 C511 1.400 . S
C511 C510 1.400 . S
C511 C512 1.398 1_655 S
C511 C517 1.491 . S
C512 H503 0.950 . S
C512 C511 1.398 1_455 S
C512 C513 1.391 . S
C513 H501 0.950 . S
C513 C509 1.393 . S
C513 C512 1.391 . S
C514 H504 0.950 . S
C514 C515 1.386 . S
C514 C516 1.391 . S
C515 C514 1.386 . S
C515 C519 1.393 . S
C516 H505 0.950 . S
C516 C514 1.391 . S
C516 C517 1.400 . S
C517 C511 1.491 . S
C517 C516 1.400 . S
C517 C518 1.398 . S
C518 H506 0.950 . S
C518 C517 1.398 . S
C518 C519 1.391 . S
C519 H507 0.950 . S
C519 C515 1.393 . S
C519 C518 1.391 . S
H520 C528 0.950 . S
H521 C533 0.950 . S
H522 C530 0.950 . S
H523 C532 0.950 . S
H524 C534 0.950 . S
H525 C536 0.950 . S
H526 C538 0.950 . S
H527 C539 0.950 . S
C528 H520 0.950 . S
C528 C529 1.386 . S
C528 C530 1.391 . S
C529 C528 1.386 . S
C529 C533 1.393 . S
C530 H522 0.950 . S
C530 C528 1.391 . S
C530 C531 1.400 . S
C531 C530 1.400 . S
C531 C532 1.398 . S
C531 C537 1.491 . S
C532 H523 0.950 . S
C532 C531 1.398 . S
C532 C533 1.391 . S
C533 H521 0.950 . S
C533 C529 1.393 . S
C533 C532 1.391 . S
C534 H524 0.950 . S
C534 C535 1.386 . S
C534 C536 1.391 . S
C535 C534 1.386 . S
C535 C539 1.393 . S
C536 H525 0.950 . S
C536 C534 1.391 . S
C536 C537 1.400 . S
C537 C531 1.491 . S
C537 C536 1.400 . S
C537 C538 1.398 . S
C538 H526 0.950 . S
C538 C537 1.398 . S
C538 C539 1.391 . S
C539 H527 0.950 . S
C539 C535 1.393 . S
C539 C538 1.391 . S
H540 C548 0.950 . S
H541 C553 0.950 . S
H542 C550 0.950 . S
H543 C552 0.950 . S
H544 C554 0.950 . S
H545 C556 0.950 . S
H546 C558 0.950 . S
H547 C559 0.950 . S
C548 H540 0.950 . S
C548 C549 1.386 . S
C548 C550 1.391 . S
C549 C548 1.386 . S
C549 C553 1.393 . S
C550 H542 0.950 . S
C550 C548 1.391 . S
C550 C551 1.400 1_655 S
C551 C550 1.400 1_455 S
C551 C552 1.398 . S
C551 C557 1.491 . S
C552 H543 0.950 . S
C552 C551 1.398 . S
C552 C553 1.391 1_455 S
C553 H541 0.950 . S
C553 C549 1.393 . S
C553 C552 1.391 1_655 S
C554 H544 0.950 . S
C554 C555 1.386 . S
C554 C556 1.391 . S
C555 C554 1.386 . S
C555 C559 1.393 . S
C556 H545 0.950 . S
C556 C554 1.391 . S
C556 C557 1.400 . S
C557 C551 1.491 . S
C557 C556 1.400 . S
C557 C558 1.398 . S
C558 H546 0.950 . S
C558 C557 1.398 . S
C558 C559 1.391 . S
C559 H547 0.950 . S
C559 C555 1.393 . S
C559 C558 1.391 . S
H560 C568 0.950 . S
H561 C573 0.950 . S
H562 C570 0.950 . S
H563 C572 0.950 . S
H564 C574 0.950 . S
H565 C576 0.950 . S
H566 C578 0.950 . S
H567 C579 0.950 . S
C568 H560 0.950 . S
C568 C569 1.386 . S
C568 C570 1.391 . S
C569 C568 1.386 . S
C569 C573 1.393 . S
C570 H562 0.950 . S
C570 C568 1.391 . S
C570 C571 1.400 . S
C571 C570 1.400 . S
C571 C572 1.398 . S
C571 C577 1.491 . S
C572 H563 0.950 . S
C572 C571 1.398 . S
C572 C573 1.391 . S
C573 H561 0.950 . S
C573 C569 1.393 . S
C573 C572 1.391 . S
C574 H564 0.950 . S
C574 C575 1.386 . S
C574 C576 1.391 . S
C575 C574 1.386 . S
C575 C579 1.393 . S
C576 H565 0.950 . S
C576 C574 1.391 . S
C576 C577 1.400 . S
C577 C571 1.491 . S
C577 C576 1.400 . S
C577 C578 1.398 . S
C578 H566 0.950 . S
C578 C577 1.398 . S
C578 C579 1.391 . S
C579 H567 0.950 . S
C579 C575 1.393 . S
C579 C578 1.391 . S
H580 C588 0.950 . S
H581 C593 0.950 . S
H582 C590 0.950 . S
H583 C592 0.950 . S
H584 C594 0.950 . S
H585 C596 0.950 . S
H586 C598 0.950 . S
H587 C599 0.950 . S
C588 H580 0.950 . S
C588 C589 1.386 . S
C588 C590 1.391 . S
C589 C588 1.386 . S
C589 C593 1.393 . S
C590 H582 0.950 . S
C590 C588 1.391 . S
C590 C591 1.400 . S
C591 C590 1.400 . S
C591 C592 1.398 . S
C591 C597 1.491 . S
C592 H583 0.950 . S
C592 C591 1.398 . S
C592 C593 1.391 . S
C593 H581 0.950 . S
C593 C589 1.393 . S
C593 C592 1.391 . S
C594 H584 0.950 . S
C594 C595 1.386 . S
C594 C596 1.391 . S
C595 C594 1.386 . S
C595 C599 1.393 . S
C596 H585 0.950 . S
C596 C594 1.391 . S
C596 C597 1.400 . S
C597 C591 1.491 . S
C597 C596 1.400 . S
C597 C598 1.398 . S
C598 H586 0.950 . S
C598 C597 1.398 . S
C598 C599 1.391 . S
C599 H587 0.950 . S
C599 C595 1.393 . S
C599 C598 1.391 . S
H600 C608 0.950 . S
H601 C613 0.950 . S
H602 C610 0.950 . S
H603 C612 0.950 . S
H604 C614 0.950 . S
H605 C616 0.950 . S
H606 C618 0.950 . S
H607 C619 0.950 . S
C608 H600 0.950 . S
C608 C609 1.386 . S
C608 C610 1.391 . S
C609 C608 1.386 . S
C609 C613 1.393 . S
C610 H602 0.950 . S
C610 C608 1.391 . S
C610 C611 1.400 . S
C611 C610 1.400 . S
C611 C612 1.398 . S
C611 C617 1.491 . S
C612 H603 0.950 . S
C612 C611 1.398 . S
C612 C613 1.391 . S
C613 H601 0.950 . S
C613 C609 1.393 . S
C613 C612 1.391 . S
C614 H604 0.950 . S
C614 C615 1.386 . S
C614 C616 1.391 . S
C615 C614 1.386 . S
C615 C619 1.393 . S
C616 H605 0.950 . S
C616 C614 1.391 . S
C616 C617 1.400 . S
C617 C611 1.491 . S
C617 C616 1.400 . S
C617 C618 1.398 . S
C618 H606 0.950 . S
C618 C617 1.398 . S
C618 C619 1.391 . S
C619 H607 0.950 . S
C619 C615 1.393 . S
C619 C618 1.391 . S
H620 C628 0.950 . S
H621 C633 0.950 . S
H622 C630 0.950 . S
H623 C632 0.950 . S
H624 C634 0.950 . S
H625 C636 0.950 . S
H626 C638 0.950 . S
H627 C639 0.950 . S
C628 H620 0.950 . S
C628 C629 1.386 . S
C628 C630 1.391 . S
C629 C628 1.386 . S
C629 C633 1.393 . S
C630 H622 0.950 . S
C630 C628 1.391 . S
C630 C631 1.400 . S
C631 C630 1.400 . S
C631 C632 1.398 . S
C631 C637 1.491 . S
C632 H623 0.950 . S
C632 C631 1.398 . S
C632 C633 1.391 . S
C633 H621 0.950 . S
C633 C629 1.393 . S
C633 C632 1.391 . S
C634 H624 0.950 . S
C634 C635 1.386 . S
C634 C636 1.391 . S
C635 C634 1.386 . S
C635 C639 1.393 . S
C636 H625 0.950 . S
C636 C634 1.391 . S
C636 C637 1.400 . S
C637 C631 1.491 . S
C637 C636 1.400 . S
C637 C638 1.398 . S
C638 H626 0.950 . S
C638 C637 1.398 . S
C638 C639 1.391 . S
C639 H627 0.950 . S
C639 C635 1.393 . S
C639 C638 1.391 . S
H640 C648 0.950 . S
H641 C653 0.950 . S
H642 C650 0.950 . S
H643 C652 0.950 . S
H644 C654 0.950 . S
H645 C656 0.950 . S
H646 C658 0.950 . S
H647 C659 0.950 . S
C648 H640 0.950 . S
C648 C649 1.386 . S
C648 C650 1.391 . S
C649 C648 1.386 . S
C649 C653 1.393 . S
C650 H642 0.950 . S
C650 C648 1.391 . S
C650 C651 1.400 . S
C651 C650 1.400 . S
C651 C652 1.398 . S
C651 C657 1.491 . S
C652 H643 0.950 . S
C652 C651 1.398 . S
C652 C653 1.391 . S
C653 H641 0.950 . S
C653 C649 1.393 . S
C653 C652 1.391 . S
C654 H644 0.950 . S
C654 C655 1.386 . S
C654 C656 1.391 . S
C655 C654 1.386 . S
C655 C659 1.393 . S
C656 H645 0.950 . S
C656 C654 1.391 . S
C656 C657 1.400 . S
C657 C651 1.491 . S
C657 C656 1.400 . S
C657 C658 1.398 . S
C658 H646 0.950 . S
C658 C657 1.398 . S
C658 C659 1.391 . S
C659 H647 0.950 . S
C659 C655 1.393 . S
C659 C658 1.391 . S
H660 C668 0.950 . S
H661 C673 0.950 . S
H662 C670 0.950 . S
H663 C672 0.950 . S
H664 C674 0.950 . S
H665 C676 0.950 . S
H666 C678 0.950 . S
H667 C679 0.950 . S
C668 H660 0.950 . S
C668 C669 1.386 . S
C668 C670 1.391 . S
C669 C668 1.386 . S
C669 C673 1.393 . S
C670 H662 0.950 . S
C670 C668 1.391 . S
C670 C671 1.400 . S
C671 C670 1.400 . S
C671 C672 1.398 . S
C671 C677 1.491 . S
C672 H663 0.950 . S
C672 C671 1.398 . S
C672 C673 1.391 . S
C673 H661 0.950 . S
C673 C669 1.393 . S
C673 C672 1.391 . S
C674 H664 0.950 . S
C674 C675 1.386 . S
C674 C676 1.391 . S
C675 C674 1.386 . S
C675 C679 1.393 . S
C676 H665 0.950 . S
C676 C674 1.391 . S
C676 C677 1.400 . S
C677 C671 1.491 . S
C677 C676 1.400 . S
C677 C678 1.398 . S
C678 H666 0.950 . S
C678 C677 1.398 . S
C678 C679 1.391 . S
C679 H667 0.950 . S
C679 C675 1.393 . S
C679 C678 1.391 . S
H680 C688 0.950 . S
H681 C693 0.950 . S
H682 C690 0.950 . S
H683 C692 0.950 . S
H684 C694 0.950 . S
H685 C696 0.950 . S
H686 C698 0.950 . S
H687 C699 0.950 . S
C688 H680 0.950 . S
C688 C689 1.386 . S
C688 C690 1.391 . S
C689 C688 1.386 . S
C689 C693 1.393 . S
C690 H682 0.950 . S
C690 C688 1.391 . S
C690 C691 1.400 . S
C691 C690 1.400 . S
C691 C692 1.398 . S
C691 C697 1.491 . S
C692 H683 0.950 . S
C692 C691 1.398 . S
C692 C693 1.391 . S
C693 H681 0.950 . S
C693 C689 1.393 . S
C693 C692 1.391 . S
C694 H684 0.950 . S
C694 C695 1.386 . S
C694 C696 1.391 . S
C695 C694 1.386 . S
C695 C699 1.393 . S
C696 H685 0.950 . S
C696 C694 1.391 . S
C696 C697 1.400 . S
C697 C691 1.491 . S
C697 C696 1.400 . S
C697 C698 1.398 . S
C698 H686 0.950 . S
C698 C697 1.398 . S
C698 C699 1.391 . S
C699 H687 0.950 . S
C699 C695 1.393 . S
C699 C698 1.391 . S
H700 C708 0.950 . S
H701 C713 0.950 . S
H702 C710 0.950 . S
H703 C712 0.950 . S
H704 C714 0.950 . S
H705 C716 0.950 . S
H706 C718 0.950 . S
H707 C719 0.950 . S
C708 H700 0.950 . S
C708 C709 1.386 . S
C708 C710 1.391 . S
C709 C708 1.386 . S
C709 C713 1.393 . S
C710 H702 0.950 . S
C710 C708 1.391 . S
C710 C711 1.400 . S
C711 C710 1.400 . S
C711 C712 1.398 . S
C711 C717 1.491 . S
C712 H703 0.950 . S
C712 C711 1.398 . S
C712 C713 1.391 . S
C713 H701 0.950 . S
C713 C709 1.393 . S
C713 C712 1.391 . S
C714 H704 0.950 . S
C714 C715 1.386 . S
C714 C716 1.391 . S
C715 C714 1.386 . S
C715 C719 1.393 . S
C716 H705 0.950 . S
C716 C714 1.391 . S
C716 C717 1.400 . S
C717 C711 1.491 . S
C717 C716 1.400 . S
C717 C718 1.398 . S
C718 H706 0.950 . S
C718 C717 1.398 . S
C718 C719 1.391 . S
C719 H707 0.950 . S
C719 C715 1.393 . S
C719 C718 1.391 . S
C249 C8 1.412 . S
C255 C90 1.357 . S
C269 C31 1.475 . S
C275 C109 1.406 . S
C289 C53 1.238 . S
C295 C132 1.211 . S
C315 C151 1.178 . S
C309 C74 1.159 . S
C335 C166 1.334 . S
C329 C26 1.423 . S
C349 C48 1.163 . S
C355 C189 1.179 . S
C369 C71 1.238 . S
C375 C208 1.215 . S
C389 C5 1.468 . S
C395 C223 1.391 . S
C409 C50 1.217 . S
C415 C227 1.231 . S
C435 C170 1.163 . S
C429 C70 1.162 . S
C455 C185 1.347 . S
C449 C4 1.423 . S
C469 C28 1.478 . S
C475 C204 1.399 . S
C495 C113 1.235 . S
C489 C73 1.223 . S
C509 C7 1.478 . S
C515 C128 1.376 . S
C535 C147 1.352 . S
C529 C30 1.406 . S
C555 C94 1.178 . S
C549 C52 1.159 . S
C575 C213 1.309 . S
C569 C9 1.406 . S
C595 C232 1.298 . S
C589 C29 1.408 . S
C609 C51 1.316 . S
C615 C175 1.212 . S
C635 C194 1.231 . S
C629 C75 1.314 . S
C655 C137 1.287 . S
C649 C27 1.405 . S
C669 C49 1.312 . S
C675 C156 1.201 . S
C695 C99 1.233 . S
C689 C72 1.305 . S
C715 C118 1.279 . S
C709 C6 1.410 . S
