# Generated by pormake.
# Topology pyr, (3,6)-cn, num edge types: 1
# Building blocks:
#     Node 0, Type 0, BuildingBlock: MIDCAF_clean_linker_0, # of connection points: 3
#     Node 1, Type 0, BuildingBlock: MIDCAF_clean_linker_0, # of connection points: 3
#     Node 2, Type 0, BuildingBlock: MIDCAF_clean_linker_0, # of connection points: 3
#     Node 3, Type 0, BuildingBlock: MIDCAF_clean_linker_0, # of connection points: 3
#     Node 4, Type 0, BuildingBlock: MIDCAF_clean_linker_0, # of connection points: 3
#     Node 5, Type 0, BuildingBlock: MIDCAF_clean_linker_0, # of connection points: 3
#     Node 6, Type 0, BuildingBlock: MIDCAF_clean_linker_0, # of connection points: 3
#     Node 7, Type 0, BuildingBlock: MIDCAF_clean_linker_0, # of connection points: 3
#     Node 8, Type 1, BuildingBlock: BETDIP_clean_sbu_0, # of connection points: 6
#     Node 9, Type 1, BuildingBlock: BETDIP_clean_sbu_0, # of connection points: 6
#     Node 10, Type 1, BuildingBlock: BETDIP_clean_sbu_0, # of connection points: 6
#     Node 11, Type 1, BuildingBlock: BETDIP_clean_sbu_0, # of connection points: 6
#     Edge 12, Type (0, 1), BuildingBlock: TEMPAE_clean_linker_10, # of connection points: 2
#     Edge 13, Type (0, 1), BuildingBlock: TEMPAE_clean_linker_10, # of connection points: 2
#     Edge 14, Type (0, 1), BuildingBlock: TEMPAE_clean_linker_10, # of connection points: 2
#     Edge 15, Type (0, 1), BuildingBlock: TEMPAE_clean_linker_10, # of connection points: 2
#     Edge 16, Type (0, 1), BuildingBlock: TEMPAE_clean_linker_10, # of connection points: 2
#     Edge 17, Type (0, 1), BuildingBlock: TEMPAE_clean_linker_10, # of connection points: 2
#     Edge 18, Type (0, 1), BuildingBlock: TEMPAE_clean_linker_10, # of connection points: 2
#     Edge 19, Type (0, 1), BuildingBlock: TEMPAE_clean_linker_10, # of connection points: 2
#     Edge 20, Type (0, 1), BuildingBlock: TEMPAE_clean_linker_10, # of connection points: 2
#     Edge 21, Type (0, 1), BuildingBlock: TEMPAE_clean_linker_10, # of connection points: 2
#     Edge 22, Type (0, 1), BuildingBlock: TEMPAE_clean_linker_10, # of connection points: 2
#     Edge 23, Type (0, 1), BuildingBlock: TEMPAE_clean_linker_10, # of connection points: 2
#     Edge 24, Type (0, 1), BuildingBlock: TEMPAE_clean_linker_10, # of connection points: 2
#     Edge 25, Type (0, 1), BuildingBlock: TEMPAE_clean_linker_10, # of connection points: 2
#     Edge 26, Type (0, 1), BuildingBlock: TEMPAE_clean_linker_10, # of connection points: 2
#     Edge 27, Type (0, 1), BuildingBlock: TEMPAE_clean_linker_10, # of connection points: 2
#     Edge 28, Type (0, 1), BuildingBlock: TEMPAE_clean_linker_10, # of connection points: 2
#     Edge 29, Type (0, 1), BuildingBlock: TEMPAE_clean_linker_10, # of connection points: 2
#     Edge 30, Type (0, 1), BuildingBlock: TEMPAE_clean_linker_10, # of connection points: 2
#     Edge 31, Type (0, 1), BuildingBlock: TEMPAE_clean_linker_10, # of connection points: 2
#     Edge 32, Type (0, 1), BuildingBlock: TEMPAE_clean_linker_10, # of connection points: 2
#     Edge 33, Type (0, 1), BuildingBlock: TEMPAE_clean_linker_10, # of connection points: 2
#     Edge 34, Type (0, 1), BuildingBlock: TEMPAE_clean_linker_10, # of connection points: 2
#     Edge 35, Type (0, 1), BuildingBlock: TEMPAE_clean_linker_10, # of connection points: 2
# Relax obj value: 0.118
# Max RMSD: 0.192
# Mean RMSD: 0.086
data_MOF--net-pyr--node1-BETDIP_clean_sbu_0--node2-MIDCAF_clean_linker_0--edge1-TEMPAE_clean_linker_10
_symmetry_space_group_name_H-M    P1
_symmetry_Int_Tables_number       1
_symmetry_cell_setting            triclinic
loop_
_symmetry_equiv_pos_as_xyz
'x, y, z'
_cell_length_a     43.559644
_cell_length_b     48.06797
_cell_length_c     47.484045
_cell_angle_alpha  88.727907
_cell_angle_beta   93.001381
_cell_angle_gamma 102.4156
loop_
_atom_site_label
_atom_site_type_symbol
_atom_site_fract_x
_atom_site_fract_y
_atom_site_fract_z
_atom_type_partial_charge
C0 C 0.29018 0.24269 0.31116 0.0
C1 C 0.2957 0.21662 0.32186 0.0
C2 C 0.31927 0.20513 0.31032 0.0
C3 C 0.33615 0.21889 0.28789 0.0
H4 H 0.40188 0.21022 0.23401 0.0
H5 H 0.43624 0.18518 0.21125 0.0
H6 H 0.44599 0.2468 0.14287 0.0
H7 H 0.41059 0.27161 0.16531 0.0
H8 H 0.33851 0.29585 0.15478 0.0
H9 H 0.30619 0.32526 0.13003 0.0
H10 H 0.29054 0.3608 0.20953 0.0
H11 H 0.32152 0.33051 0.23418 0.0
H12 H 0.30159 0.27616 0.28066 0.0
H13 H 0.2726 0.25238 0.31996 0.0
H14 H 0.32393 0.18497 0.31795 0.0
H15 H 0.35348 0.20897 0.27899 0.0
N16 N 0.36751 0.24621 0.23913 0.0
N17 N 0.36858 0.27762 0.20043 0.0
N18 N 0.33466 0.27887 0.23697 0.0
C19 C 0.37964 0.25634 0.21418 0.0
C20 C 0.34627 0.28914 0.21193 0.0
C21 C 0.34504 0.25735 0.25068 0.0
C22 C 0.40308 0.24282 0.20137 0.0
C23 C 0.41149 0.21871 0.21425 0.0
C24 C 0.43153 0.20442 0.20129 0.0
C25 C 0.44391 0.21393 0.17519 0.0
C26 C 0.43652 0.23869 0.1628 0.0
C27 C 0.41629 0.25296 0.17572 0.0
C28 C 0.33211 0.31061 0.19642 0.0
C29 C 0.32861 0.31036 0.16684 0.0
C30 C 0.31013 0.32727 0.15267 0.0
C31 C 0.2952 0.345 0.16784 0.0
C32 C 0.30086 0.34676 0.19725 0.0
C33 C 0.31881 0.32956 0.21139 0.0
C34 C 0.32976 0.24441 0.27644 0.0
C35 C 0.30698 0.25641 0.28871 0.0
C36 C 0.09547 0.82146 0.71196 0.0
C37 C 0.09732 0.82774 0.68295 0.0
C38 C 0.11516 0.81342 0.66679 0.0
C39 C 0.13153 0.79405 0.67948 0.0
H40 H 0.19516 0.74215 0.66405 0.0
H41 H 0.22903 0.71772 0.63913 0.0
H42 H 0.24048 0.66743 0.71403 0.0
H43 H 0.20781 0.69272 0.73918 0.0
H44 H 0.22531 0.73855 0.79351 0.0
H45 H 0.25392 0.75725 0.83683 0.0
H46 H 0.19439 0.81792 0.84198 0.0
H47 H 0.16544 0.79916 0.79887 0.0
H48 H 0.11084 0.7986 0.74723 0.0
H49 H 0.08143 0.83156 0.72497 0.0
H50 H 0.11754 0.81796 0.64448 0.0
H51 H 0.1458 0.7841 0.66654 0.0
N52 N 0.16345 0.75277 0.70753 0.0
N53 N 0.19185 0.74172 0.74805 0.0
N54 N 0.15974 0.77476 0.75052 0.0
C55 C 0.18351 0.73772 0.72025 0.0
C56 C 0.1802 0.76024 0.76335 0.0
C57 C 0.15107 0.77102 0.72271 0.0
C58 C 0.1992 0.71963 0.70368 0.0
C59 C 0.20449 0.72553 0.67501 0.0
C60 C 0.22386 0.71144 0.66071 0.0
C61 C 0.23796 0.69091 0.6747 0.0
C62 C 0.23076 0.68368 0.70282 0.0
C63 C 0.21185 0.69804 0.7172 0.0
C64 C 0.19337 0.76769 0.79233 0.0
C65 C 0.21782 0.7555 0.8041 0.0
C66 C 0.23435 0.76626 0.8289 0.0
C67 C 0.2267 0.7893 0.84256 0.0
C68 C 0.20077 0.80006 0.832 0.0
C69 C 0.18427 0.78937 0.80715 0.0
C70 C 0.13083 0.78885 0.70869 0.0
C71 C 0.1122 0.80241 0.72471 0.0
C72 C 0.6147 0.275 0.91552 0.0
C73 C 0.59947 0.25176 0.89882 0.0
C74 C 0.59562 0.25664 0.86948 0.0
C75 C 0.60737 0.28367 0.85732 0.0
H76 H 0.60725 0.34601 0.78187 0.0
H77 H 0.58954 0.36886 0.73894 0.0
H78 H 0.63204 0.45145 0.77284 0.0
H79 H 0.65013 0.42892 0.81516 0.0
H80 H 0.71286 0.43137 0.8583 0.0
H81 H 0.76026 0.45655 0.88451 0.0
H82 H 0.758 0.38275 0.93846 0.0
H83 H 0.71115 0.35761 0.91245 0.0
H84 H 0.63866 0.31868 0.9172 0.0
H85 H 0.61734 0.27276 0.9382 0.0
H86 H 0.58424 0.23943 0.85571 0.0
H87 H 0.60462 0.28649 0.83471 0.0
N88 N 0.62807 0.34565 0.83755 0.0
N89 N 0.66796 0.38727 0.84307 0.0
N90 N 0.66468 0.35022 0.87625 0.0
C91 C 0.64237 0.37223 0.8281 0.0
C92 C 0.67946 0.37634 0.86703 0.0
C93 C 0.63908 0.33468 0.86197 0.0
C94 C 0.63022 0.38552 0.80211 0.0
C95 C 0.61272 0.36903 0.78019 0.0
C96 C 0.60273 0.38213 0.75551 0.0
C97 C 0.6093 0.41204 0.75241 0.0
C98 C 0.62634 0.42842 0.77452 0.0
C99 C 0.63686 0.4154 0.79881 0.0
C100 C 0.70803 0.39233 0.88307 0.0
C101 C 0.72244 0.4205 0.87575 0.0
C102 C 0.74956 0.43502 0.89088 0.0
C103 C 0.76312 0.42163 0.91351 0.0
C104 C 0.74855 0.3936 0.9209 0.0
C105 C 0.72144 0.37921 0.90599 0.0
C106 C 0.62364 0.30641 0.87413 0.0
C107 C 0.62676 0.30165 0.9034 0.0
C108 C 0.76804 0.67048 0.3966 0.0
C109 C 0.76163 0.64067 0.39967 0.0
C110 C 0.78212 0.62561 0.38781 0.0
C111 C 0.80828 0.64007 0.37316 0.0
H112 H 0.86434 0.63443 0.30299 0.0
H113 H 0.88236 0.61295 0.26296 0.0
H114 H 0.94767 0.69198 0.24596 0.0
H115 H 0.93007 0.71337 0.28683 0.0
H116 H 0.9467 0.75674 0.35852 0.0
H117 H 0.96846 0.80232 0.38227 0.0
H118 H 0.87455 0.81041 0.3994 0.0
H119 H 0.85305 0.76518 0.37629 0.0
H120 H 0.7989 0.70797 0.38114 0.0
H121 H 0.75286 0.68273 0.40558 0.0
H122 H 0.77777 0.60262 0.38973 0.0
H123 H 0.82362 0.62786 0.36439 0.0
N124 N 0.85684 0.67429 0.33574 0.0
N125 N 0.89679 0.71596 0.33259 0.0
N126 N 0.85755 0.71268 0.36551 0.0
C127 C 0.88305 0.6891 0.32309 0.0
C128 C 0.88402 0.72787 0.35395 0.0
C129 C 0.8439 0.68593 0.35688 0.0
C130 C 0.89553 0.67591 0.29855 0.0
C131 C 0.88262 0.64741 0.29089 0.0
C132 C 0.89289 0.635 0.2675 0.0
C133 C 0.91646 0.65052 0.25051 0.0
C134 C 0.92972 0.67897 0.25837 0.0
C135 C 0.91948 0.6914 0.28194 0.0
C136 C 0.89804 0.75709 0.36535 0.0
C137 C 0.93072 0.76844 0.36704 0.0
C138 C 0.9432 0.79449 0.38091 0.0
C139 C 0.92333 0.81023 0.39291 0.0
C140 C 0.89067 0.7992 0.39035 0.0
C141 C 0.87832 0.77306 0.37709 0.0
C142 C 0.81508 0.67 0.3707 0.0
C143 C 0.79455 0.68495 0.38264 0.0
C144 C 0.57525 0.82183 0.85404 0.0
C145 C 0.57605 0.82645 0.88327 0.0
C146 C 0.59542 0.81299 0.9011 0.0
C147 C 0.61415 0.79613 0.88999 0.0
H148 H 0.67573 0.74392 0.91293 0.0
H149 H 0.70874 0.71891 0.94284 0.0
H150 H 0.7388 0.68371 0.86878 0.0
H151 H 0.70594 0.70844 0.83896 0.0
H152 H 0.70253 0.74317 0.77956 0.0
H153 H 0.7312 0.76149 0.73804 0.0
H154 H 0.69525 0.83843 0.74117 0.0
H155 H 0.66562 0.81961 0.78185 0.0
H156 H 0.59388 0.80281 0.82024 0.0
H157 H 0.5602 0.83133 0.83967 0.0
H158 H 0.59727 0.81641 0.92363 0.0
H159 H 0.62943 0.78683 0.90434 0.0
N160 N 0.65014 0.75923 0.86538 0.0
N161 N 0.68111 0.75239 0.82831 0.0
N162 N 0.64647 0.78341 0.82222 0.0
C163 C 0.67204 0.74638 0.85508 0.0
C164 C 0.66856 0.7709 0.81177 0.0
C165 C 0.63691 0.77746 0.84891 0.0
C166 C 0.68841 0.72836 0.87353 0.0
C167 C 0.68892 0.73041 0.90307 0.0
C168 C 0.70793 0.71624 0.9202 0.0
C169 C 0.72639 0.69944 0.90814 0.0
C170 C 0.7246 0.69627 0.87872 0.0
C171 C 0.70593 0.71063 0.86161 0.0
C172 C 0.68199 0.78003 0.78419 0.0
C173 C 0.70032 0.76379 0.77107 0.0
C174 C 0.71695 0.77439 0.74736 0.0
C175 C 0.71598 0.80164 0.73642 0.0
C176 C 0.69635 0.81723 0.74873 0.0
C177 C 0.67939 0.80647 0.77222 0.0
C178 C 0.61446 0.7927 0.86073 0.0
C179 C 0.59445 0.80535 0.84289 0.0
C180 C 0.81729 0.24644 0.22909 0.0
C181 C 0.79086 0.25601 0.21786 0.0
C182 C 0.78 0.27685 0.23241 0.0
C183 C 0.79394 0.28645 0.25859 0.0
H184 H 0.79783 0.34654 0.32335 0.0
H185 H 0.76518 0.37174 0.34888 0.0
H186 H 0.78521 0.32793 0.42573 0.0
H187 H 0.81801 0.30265 0.40032 0.0
H188 H 0.88624 0.27535 0.39462 0.0
H189 H 0.91409 0.24251 0.41947 0.0
H190 H 0.89508 0.18633 0.34785 0.0
H191 H 0.86865 0.2196 0.32269 0.0
H192 H 0.85071 0.24721 0.26377 0.0
H193 H 0.82659 0.2308 0.21806 0.0
H194 H 0.7596 0.28456 0.22434 0.0
H195 H 0.78401 0.30151 0.26985 0.0
N196 N 0.81863 0.30046 0.31538 0.0
N197 N 0.84484 0.28807 0.35667 0.0
N198 N 0.84899 0.26589 0.31397 0.0
C199 C 0.82596 0.30397 0.34342 0.0
C200 C 0.85665 0.2691 0.34197 0.0
C201 C 0.83013 0.28155 0.30046 0.0
C202 C 0.81028 0.32236 0.35973 0.0
C203 C 0.79571 0.34258 0.34579 0.0
C204 C 0.77713 0.35714 0.3604 0.0
C205 C 0.77249 0.35157 0.38918 0.0
C206 C 0.78821 0.33238 0.40345 0.0
C207 C 0.80712 0.31806 0.38892 0.0
C208 C 0.87515 0.25013 0.35667 0.0
C209 C 0.88828 0.2561 0.38411 0.0
C210 C 0.90408 0.23715 0.39842 0.0
C211 C 0.90675 0.21161 0.38577 0.0
C212 C 0.89403 0.20596 0.35814 0.0
C213 C 0.87865 0.22504 0.34372 0.0
C214 C 0.81897 0.27531 0.27079 0.0
C215 C 0.83117 0.25594 0.25527 0.0
C216 C 0.28264 0.62296 0.18543 0.0
C217 C 0.26841 0.63642 0.16327 0.0
C218 C 0.28248 0.66464 0.15606 0.0
C219 C 0.30983 0.67907 0.17058 0.0
H220 H 0.36597 0.75581 0.17581 0.0
H221 H 0.38835 0.80041 0.15289 0.0
H222 H 0.47836 0.80043 0.19557 0.0
H223 H 0.45538 0.75543 0.21945 0.0
H224 H 0.44889 0.70373 0.27633 0.0
H225 H 0.46795 0.68206 0.31924 0.0
H226 H 0.38304 0.61637 0.31694 0.0
H227 H 0.36402 0.63779 0.27463 0.0
H228 H 0.32024 0.62656 0.21719 0.0
H229 H 0.27234 0.6013 0.19167 0.0
H230 H 0.27252 0.67557 0.13886 0.0
H231 H 0.31976 0.70078 0.1642 0.0
N232 N 0.36781 0.7077 0.19849 0.0
N233 N 0.40695 0.71158 0.23505 0.0
N234 N 0.36572 0.67075 0.23162 0.0
C235 C 0.39448 0.72291 0.21151 0.0
C236 C 0.39245 0.68541 0.24538 0.0
C237 C 0.35328 0.68169 0.20812 0.0
C238 C 0.40886 0.75158 0.19941 0.0
C239 C 0.39058 0.76514 0.1805 0.0
C240 C 0.40355 0.79086 0.16707 0.0
C241 C 0.43544 0.80406 0.17176 0.0
C242 C 0.45368 0.79105 0.19137 0.0
C243 C 0.44053 0.76517 0.20508 0.0
C244 C 0.40481 0.67268 0.27172 0.0
C245 C 0.43425 0.6847 0.28499 0.0
C246 C 0.44527 0.67216 0.30959 0.0
C247 C 0.42702 0.64745 0.32184 0.0
C248 C 0.39763 0.63558 0.30855 0.0
C249 C 0.38679 0.64788 0.28397 0.0
C250 C 0.32402 0.66583 0.19293 0.0
C251 C 0.31003 0.63753 0.20018 0.0
C252 C 0.12969 0.26692 0.67218 0.0
C253 C 0.09989 0.25098 0.6789 0.0
C254 C 0.08404 0.26185 0.70001 0.0
C255 C 0.09731 0.28814 0.71326 0.0
H256 H 0.09853 0.34592 0.7878 0.0
H257 H 0.08175 0.36681 0.82939 0.0
H258 H 0.14849 0.44533 0.81368 0.0
H259 H 0.16574 0.42432 0.77302 0.0
H260 H 0.22603 0.42292 0.73184 0.0
H261 H 0.27164 0.44825 0.70641 0.0
H262 H 0.24396 0.39079 0.63664 0.0
H263 H 0.19883 0.36568 0.66171 0.0
H264 H 0.16571 0.3042 0.67891 0.0
H265 H 0.14325 0.25923 0.65676 0.0
H266 H 0.061 0.25041 0.70585 0.0
H267 H 0.08417 0.29601 0.7289 0.0
N268 N 0.13054 0.34408 0.74108 0.0
N269 N 0.17029 0.38594 0.73755 0.0
N270 N 0.16634 0.34939 0.70499 0.0
C271 C 0.14501 0.37057 0.75114 0.0
C272 C 0.18105 0.37554 0.71438 0.0
C273 C 0.14131 0.33329 0.71787 0.0
C274 C 0.13374 0.38314 0.7767 0.0
C275 C 0.10969 0.36763 0.79321 0.0
C276 C 0.09989 0.3798 0.81716 0.0
C277 C 0.11369 0.40799 0.82551 0.0
C278 C 0.13752 0.42346 0.80876 0.0
C279 C 0.14736 0.41131 0.785 0.0
C280 C 0.20854 0.39211 0.69901 0.0
C281 C 0.22958 0.41578 0.71103 0.0
C282 C 0.25588 0.43022 0.69648 0.0
C283 C 0.26157 0.42168 0.66934 0.0
C284 C 0.24027 0.39828 0.65729 0.0
C285 C 0.21436 0.3837 0.67187 0.0
C286 C 0.1268 0.30434 0.70577 0.0
C287 C 0.14277 0.29295 0.68522 0.0
Tb288 Tb 0.9724 1.01824 0.54932 0.0
Tb289 Tb 0.04241 0.03756 0.53479 0.0
C290 C 0.91786 0.99227 0.56023 0.0
C291 C 0.90237 0.96587 0.57455 0.0
C292 C 0.87352 0.95037 0.56329 0.0
C293 C 0.85599 0.92782 0.57861 0.0
C294 C 0.867 0.92059 0.60556 0.0
C295 C 0.89676 0.9351 0.61609 0.0
C296 C 0.91436 0.9575 0.60068 0.0
C297 C 1.00363 0.06719 0.57156 0.0
C298 C 0.02437 0.98912 0.58002 0.0
C299 C 0.09756 0.06661 0.53353 0.0
C300 C 0.11853 0.08039 0.51181 0.0
C301 C 0.14728 0.09832 0.5199 0.0
C302 C 0.16708 0.11245 0.4995 0.0
C303 C 0.15841 0.10882 0.47065 0.0
C304 C 0.1296 0.09057 0.46264 0.0
C305 C 0.10975 0.07651 0.48309 0.0
C306 C 0.01297 0.99414 0.50175 0.0
C307 C 0.98917 0.06155 0.4998 0.0
O308 O 0.93057 0.98967 0.53626 0.0
O309 O 0.93532 1.01185 0.57639 0.0
O310 O 0.01432 0.04494 0.56858 0.0
O311 O 0.97428 0.0618 0.56292 0.0
O312 O 0.99421 0.98754 0.57306 0.0
O313 O 0.04695 1.00948 0.57038 0.0
O314 O 0.07294 0.07759 0.5369 0.0
O315 O 0.09064 0.03867 0.53358 0.0
O316 O 1.00258 1.00669 0.5209 0.0
O317 O 0.04202 1.0075 0.49963 0.0
O318 O 0.01921 0.06553 0.50847 0.0
O319 O 0.96707 0.04111 0.51011 0.0
H320 H 0.86388 0.95651 0.54317 0.0
H321 H 0.83307 0.91708 0.57007 0.0
H322 H 0.90596 0.9297 0.63665 0.0
H323 H 0.93669 0.96901 0.60975 0.0
H324 H 0.15431 0.10154 0.54202 0.0
H325 H 0.18927 0.12611 0.5063 0.0
H326 H 0.12213 0.08762 0.44059 0.0
H327 H 0.08745 0.06285 0.47655 0.0
Tb328 Tb 0.55238 0.0313 1.03256 0.0
Tb329 Tb 0.48266 1.0173 1.02613 0.0
C330 C 0.60942 0.0561 0.03536 0.0
C331 C 0.62749 0.08377 0.04528 0.0
C332 C 0.61306 0.10696 0.04805 0.0
C333 C 0.63003 0.13227 0.06016 0.0
C334 C 0.66169 0.13473 0.06942 0.0
C335 C 0.67626 0.11176 0.06552 0.0
C336 C 0.65925 0.08648 0.05361 0.0
C337 C 0.52546 0.98407 0.05929 0.0
C338 C 0.51188 0.06216 0.07044 0.0
C339 C 0.42506 0.99414 1.02207 0.0
C340 C 0.40503 0.97001 1.00702 0.0
C341 C 0.41639 0.94588 1.00023 0.0
C342 C 0.39715 0.92385 0.98469 0.0
C343 C 0.36642 0.92577 0.97558 0.0
C344 C 0.3551 0.9498 0.98281 0.0
C345 C 0.37425 0.9717 0.9984 0.0
C346 C 0.51021 0.06481 1.00021 0.0
C347 C 0.52315 0.98547 0.98874 0.0
O348 O 0.59077 0.05663 1.01293 0.0
O349 O 0.59605 0.03881 0.05497 0.0
O350 O 0.51559 1.00696 0.05729 0.0
O351 O 0.55233 0.98793 0.04767 0.0
O352 O 0.53863 0.06391 0.05788 0.0
O353 O 0.48703 0.0418 0.06425 0.0
O354 O 0.44448 0.98805 0.04204 0.0
O355 O 0.43819 1.0155 1.00619 0.0
O356 O 0.51943 0.04162 1.00155 0.0
O357 O 0.48382 0.0614 1.01255 0.0
O358 O 0.49558 0.98549 0.99918 0.0
O359 O 0.54878 1.00431 0.99642 0.0
H360 H 0.58856 0.10529 0.04144 0.0
H361 H 0.61827 0.14968 0.06275 0.0
H362 H 0.70046 0.11284 0.07286 0.0
H363 H 0.67068 0.06874 0.05166 0.0
H364 H 0.44018 0.94424 1.00661 0.0
H365 H 0.40654 0.90568 0.97917 0.0
H366 H 0.33141 0.95168 0.97631 0.0
H367 H 0.36513 0.99017 1.00347 0.0
Tb368 Tb 0.51702 0.55829 0.55125 0.0
Tb369 Tb 0.51502 0.49846 0.52688 0.0
C370 C 0.50287 0.60401 0.5647 0.0
C371 C 0.47407 0.61171 0.57409 0.0
C372 C 0.46216 0.63314 0.55956 0.0
C373 C 0.4345 0.64035 0.56762 0.0
C374 C 0.41827 0.62636 0.59054 0.0
C375 C 0.43029 0.60487 0.60506 0.0
C376 C 0.45781 0.59751 0.59684 0.0
C377 C 0.5454 0.52389 0.58234 0.0
C378 C 0.45673 0.5065 0.5604 0.0
C379 C 0.53077 0.45157 0.5242 0.0
C380 C 0.55235 0.4402 0.50726 0.0
C381 C 0.56676 0.41896 0.519 0.0
C382 C 0.59069 0.41055 0.50516 0.0
C383 C 0.6005 0.4232 0.47927 0.0
C384 C 0.58539 0.44391 0.46709 0.0
C385 C 0.56162 0.45255 0.48113 0.0
C386 C 0.49453 0.53161 0.48749 0.0
C387 C 0.57178 0.55159 0.51305 0.0
O388 O 0.50141 0.5952 0.53872 0.0
O389 O 0.51696 0.58874 0.58216 0.0
O390 O 0.52003 0.51727 0.56759 0.0
O391 O 0.55557 0.55133 0.58059 0.0
O392 O 0.46959 0.53426 0.56177 0.0
O393 O 0.47094 0.48819 0.5486 0.0
O394 O 0.54484 0.47202 0.54122 0.0
O395 O 0.50519 0.45686 0.51118 0.0
O396 O 0.50409 0.53725 0.5127 0.0
O397 O 0.49546 0.50507 0.48388 0.0
O398 O 0.56092 0.52351 0.51399 0.0
O399 O 0.55725 0.56973 0.52469 0.0
H400 H 0.47419 0.64419 0.54179 0.0
H401 H 0.42569 0.65673 0.55575 0.0
H402 H 0.41872 0.594 0.62309 0.0
H403 H 0.46629 0.58072 0.60834 0.0
H404 H 0.56015 0.4095 0.53933 0.0
H405 H 0.60181 0.39437 0.51485 0.0
H406 H 0.59273 0.45412 0.44726 0.0
H407 H 0.55116 0.46942 0.47203 0.0
Tb408 Tb 0.01467 0.55441 1.01991 0.0
Tb409 Tb 0.01688 0.50421 0.05673 0.0
C410 C 0.99691 0.59319 0.99135 0.0
C411 C 0.96914 0.60599 0.99061 0.0
C412 C 0.9396 0.58984 0.99764 0.0
C413 C 0.9128 0.60139 0.99407 0.0
C414 C 0.91513 0.62935 0.98362 0.0
C415 C 0.94505 0.64585 0.97797 0.0
C416 C 0.97179 0.63421 0.98133 0.0
C417 C 0.07044 0.55528 0.04546 0.0
C418 C 0.98937 0.55226 0.08282 0.0
C419 C 0.03525 0.46561 0.08507 0.0
C420 C 0.06344 0.45347 0.08507 0.0
C421 C 0.09198 0.46975 0.07581 0.0
C422 C 0.11933 0.45893 0.07823 0.0
C423 C 0.11848 0.43156 0.08965 0.0
C424 C 0.08957 0.41494 0.09784 0.0
C425 C 0.06229 0.42587 0.09563 0.0
C426 C 0.96109 0.50334 1.03117 0.0
C427 C 0.04194 0.50628 0.99373 0.0
O428 O 0.99163 0.5666 0.98356 0.0
O429 O 0.01597 0.59813 1.01374 0.0
O430 O 0.04388 0.54659 0.0555 0.0
O431 O 0.06631 0.56604 1.02063 0.0
O432 O 0.9878 0.56222 0.05652 0.0
O433 O 1.00247 0.53025 0.08859 0.0
O434 O 0.04021 0.49214 0.09299 0.0
O435 O 0.01586 0.46054 0.0629 0.0
O436 O 0.98768 0.51198 1.02117 0.0
O437 O 0.96522 0.49254 0.05601 0.0
O438 O 0.04355 0.49633 1.02002 0.0
O439 O 0.02888 0.52832 0.988 0.0
H440 H 0.93709 0.56801 1.00503 0.0
H441 H 0.89014 0.588 0.9984 0.0
H442 H 0.94775 0.66763 0.97042 0.0
H443 H 0.99444 0.64703 0.97604 0.0
H444 H 0.09327 0.49108 0.06737 0.0
H445 H 0.14122 0.4721 0.07156 0.0
H446 H 0.08828 0.39391 0.10701 0.0
H447 H 0.04046 0.41304 0.10284 0.0
C448 C 0.24341 0.19909 0.34288 0.0
C449 C 0.27604 0.20093 0.34419 0.0
C450 C 0.22433 0.184 0.36346 0.0
C451 C 0.2382 0.17029 0.38586 0.0
C452 C 0.27109 0.17199 0.38732 0.0
C453 C 0.28964 0.18732 0.36647 0.0
C454 C 0.18932 0.18262 0.36117 0.0
C455 C 0.28669 0.15766 0.41092 0.0
C456 C 0.1931 0.15334 0.45256 0.0
C457 C 0.17915 0.12441 0.44904 0.0
C458 C 0.21254 0.16848 0.43224 0.0
C459 C 0.21821 0.15433 0.40785 0.0
C460 C 0.20434 0.12509 0.40422 0.0
C461 C 0.18491 0.11049 0.42486 0.0
C462 C 0.22672 0.1997 0.43672 0.0
C463 C 0.20998 0.10926 0.37853 0.0
H464 H 0.23265 0.20911 0.32546 0.0
H465 H 0.31487 0.18889 0.36775 0.0
H466 H 0.17637 0.16012 0.35957 0.0
H467 H 0.18185 0.19143 0.38045 0.0
H468 H 0.18228 0.19464 0.34255 0.0
H469 H 0.31249 0.16075 0.40883 0.0
H470 H 0.28243 0.16624 0.43152 0.0
H471 H 0.27627 0.13447 0.41126 0.0
H472 H 0.18837 0.1643 0.47103 0.0
H473 H 0.17446 0.08805 0.42221 0.0
H474 H 0.21849 0.21254 0.41936 0.0
H475 H 0.25274 0.20359 0.43628 0.0
H476 H 0.22045 0.20742 0.45709 0.0
H477 H 0.20161 0.11931 0.35918 0.0
H478 H 0.19779 0.08646 0.37909 0.0
H479 H 0.23556 0.11057 0.37689 0.0
C480 C 0.23511 0.81379 0.88932 0.0
C481 C 0.24765 0.80416 0.86571 0.0
C482 C 0.25464 0.83113 0.90937 0.0
C483 C 0.28739 0.83921 0.90552 0.0
C484 C 0.30034 0.82845 0.88244 0.0
C485 C 0.28032 0.81102 0.86285 0.0
C486 C 0.24003 0.84194 0.93391 0.0
C487 C 0.33511 0.83674 0.87748 0.0
C488 C 0.33026 0.91104 0.93355 0.0
C489 C 0.34642 0.90334 0.95777 0.0
C490 C 0.31098 0.89032 0.91645 0.0
C491 C 0.30761 0.86117 0.92385 0.0
C492 C 0.32387 0.85321 0.94829 0.0
C493 C 0.34327 0.87444 0.96492 0.0
C494 C 0.29437 0.89967 0.89035 0.0
C495 C 0.32065 0.82234 0.95688 0.0
H496 H 0.20991 0.80829 0.89175 0.0
H497 H 0.29012 0.80397 0.84444 0.0
H498 H 0.25308 0.83862 0.95397 0.0
H499 H 0.24156 0.86519 0.93133 0.0
H500 H 0.21491 0.83125 0.93561 0.0
H501 H 0.34185 0.82436 0.8602 0.0
H502 H 0.34153 0.85972 0.87185 0.0
H503 H 0.34915 0.83347 0.89696 0.0
H504 H 0.33303 0.93335 0.92776 0.0
H505 H 0.35559 0.86848 0.98376 0.0
H506 H 0.26855 0.89199 0.89147 0.0
H507 H 0.30161 0.89013 0.87138 0.0
H508 H 0.29953 0.9232 0.88758 0.0
H509 H 0.29557 0.81247 0.95998 0.0
H510 H 0.33461 0.81973 0.97664 0.0
H511 H 0.32851 0.81044 0.93987 0.0
C512 C 0.60457 0.41809 0.69933 0.0
C513 C 0.59872 0.42642 0.72637 0.0
C514 C 0.59646 0.43275 0.67485 0.0
C515 C 0.58146 0.45601 0.67724 0.0
C516 C 0.5748 0.46399 0.70448 0.0
C517 C 0.58377 0.44938 0.72859 0.0
C518 C 0.60462 0.42376 0.64642 0.0
C519 C 0.55825 0.48812 0.70822 0.0
C520 C 0.58501 0.51372 0.6196 0.0
C521 C 0.55569 0.50538 0.60507 0.0
C522 C 0.5941 0.49738 0.6424 0.0
C523 C 0.57311 0.47232 0.65147 0.0
C524 C 0.5436 0.46364 0.63656 0.0
C525 C 0.53543 0.48003 0.61343 0.0
C526 C 0.62605 0.50723 0.65709 0.0
C527 C 0.52015 0.43749 0.64561 0.0
H528 H 0.61637 0.40059 0.69737 0.0
H529 H 0.57888 0.45584 0.74932 0.0
H530 H 0.58309 0.41823 0.63237 0.0
H531 H 0.6208 0.44174 0.63627 0.0
H532 H 0.61599 0.40516 0.64799 0.0
H533 H 0.55346 0.4909 0.73062 0.0
H534 H 0.57283 0.50833 0.70035 0.0
H535 H 0.53559 0.48417 0.6956 0.0
H536 H 0.60085 0.5332 0.61324 0.0
H537 H 0.51265 0.47344 0.60244 0.0
H538 H 0.63896 0.48967 0.6581 0.0
H539 H 0.62325 0.51318 0.6791 0.0
H540 H 0.64053 0.52588 0.6463 0.0
H541 H 0.53094 0.41858 0.64597 0.0
H542 H 0.49857 0.43313 0.63146 0.0
H543 H 0.51327 0.44032 0.66737 0.0
C544 C 0.90534 0.61671 0.20859 0.0
C545 C 0.92683 0.63698 0.2249 0.0
C546 C 0.91467 0.60326 0.1852 0.0
C547 C 0.94642 0.61009 0.17726 0.0
C548 C 0.96817 0.6308 0.19328 0.0
C549 C 0.95824 0.64384 0.21671 0.0
C550 C 0.89043 0.58146 0.16904 0.0
C551 C 1.00222 0.63901 0.18587 0.0
C552 C 0.97797 0.55581 0.13444 0.0
C553 C 0.9772 0.56663 0.10665 0.0
C554 C 0.968 0.56954 0.1573 0.0
C555 C 0.95694 0.59508 0.15275 0.0
C556 C 0.95592 0.60607 0.12474 0.0
C557 C 0.96591 0.5918 0.1022 0.0
C558 C 0.96945 0.55667 0.18649 0.0
C559 C 0.94449 0.63315 0.11857 0.0
H560 H 0.88089 0.61139 0.21392 0.0
H561 H 0.97542 0.65907 0.22898 0.0
H562 H 0.88904 0.58796 0.14652 0.0
H563 H 0.89751 0.56061 0.16984 0.0
H564 H 0.86665 0.57859 0.17752 0.0
H565 H 0.01607 0.65613 0.19957 0.0
H566 H 0.01306 0.62014 0.18794 0.0
H567 H 1.00389 0.64638 0.16358 0.0
H568 H 0.98658 0.53649 0.13847 0.0
H569 H 0.9652 0.60064 0.08104 0.0
H570 H 0.94571 0.55211 0.1952 0.0
H571 H 0.98512 0.57206 0.20079 0.0
H572 H 0.97824 0.53662 0.18666 0.0
H573 H 0.92013 0.6308 0.12551 0.0
H574 H 0.94482 0.63894 0.09579 0.0
H575 H 0.95949 0.65097 0.13065 0.0
C576 C 0.45614 0.19171 0.13107 0.0
C577 C 0.46212 0.19654 0.16007 0.0
C578 C 0.4693 0.17189 0.1173 0.0
C579 C 0.48866 0.15631 0.13294 0.0
C580 C 0.49648 0.16241 0.16176 0.0
C581 C 0.48319 0.18254 0.17497 0.0
C582 C 0.46075 0.16626 0.0864 0.0
C583 C 0.51729 0.14644 0.17906 0.0
C584 C 0.48173 0.08183 0.10545 0.0
C585 C 0.50846 0.08511 0.0895 0.0
C586 C 0.47586 0.10457 0.12073 0.0
C587 C 0.49718 0.13132 0.11994 0.0
C588 C 0.52505 0.13441 0.10505 0.0
C589 C 0.53039 0.11121 0.09001 0.0
C590 C 0.44606 0.10027 0.1367 0.0
C591 C 0.5484 0.16255 0.10372 0.0
H592 H 0.43975 0.20222 0.11938 0.0
H593 H 0.4885 0.18662 0.19724 0.0
H594 H 0.48213 0.16622 0.07471 0.0
H595 H 0.445 0.1449 0.08397 0.0
H596 H 0.44854 0.18235 0.07656 0.0
H597 H 0.52446 0.15623 0.20001 0.0
H598 H 0.50445 0.12413 0.18237 0.0
H599 H 0.53874 0.14568 0.16776 0.0
H600 H 0.46484 0.06165 0.1054 0.0
H601 H 0.55111 0.11395 0.07771 0.0
H602 H 0.43025 0.11341 0.12685 0.0
H603 H 0.45159 0.10737 0.15881 0.0
H604 H 0.43315 0.07767 0.13689 0.0
H605 H 0.53848 0.17743 0.08957 0.0
H606 H 0.57112 0.16019 0.09551 0.0
H607 H 0.553 0.17243 0.12484 0.0
C608 C 0.08257 0.8754 0.6846 0.0
C609 C 0.08231 0.85031 0.66987 0.0
C610 C 0.07078 0.89782 0.67185 0.0
C611 C 0.05893 0.89537 0.6435 0.0
C612 C 0.05772 0.86986 0.62874 0.0
C613 C 0.06918 0.84757 0.64217 0.0
C614 C 0.07212 0.92457 0.68839 0.0
C615 C 0.04542 0.86651 0.5984 0.0
C616 C 0.01054 0.94661 0.61215 0.0
C617 C 0.03336 0.96632 0.59805 0.0
C618 C 0.01857 0.92372 0.6276 0.0
C619 C 0.05007 0.92025 0.62858 0.0
C620 C 0.07327 0.94029 0.61474 0.0
C621 C 0.06468 0.96316 0.59983 0.0
C622 C 0.9933 0.90306 0.6425 0.0
C623 C 0.10707 0.93716 0.61504 0.0
H624 H 0.09303 0.87801 0.70585 0.0
H625 H 0.06827 0.8281 0.63078 0.0
H626 H 0.08953 0.9424 0.67939 0.0
H627 H 0.04895 0.93071 0.68683 0.0
H628 H 0.07891 0.92197 0.71102 0.0
H629 H 0.04458 0.84482 0.59036 0.0
H630 H 0.02143 0.87091 0.59614 0.0
H631 H 0.06074 0.88223 0.58494 0.0
H632 H 0.9863 0.9489 0.61096 0.0
H633 H 0.08246 0.97813 0.58886 0.0
H634 H 1.00042 0.90132 0.66514 0.0
H635 H 0.99022 0.88155 0.63336 0.0
H636 H 0.97028 0.90957 0.64083 0.0
H637 H 0.11676 0.93669 0.63707 0.0
H638 H 0.1223 0.95476 0.60346 0.0
H639 H 0.10825 0.91668 0.60529 0.0
C640 C 0.79639 0.46489 0.93782 0.0
C641 C 0.79247 0.43647 0.92935 0.0
C642 C 0.82337 0.47842 0.95395 0.0
C643 C 0.84716 0.46328 0.96168 0.0
C644 C 0.84362 0.43482 0.95262 0.0
C645 C 0.8164 0.42181 0.93669 0.0
C646 C 0.82611 0.50872 0.96325 0.0
C647 C 0.86848 0.41794 0.96002 0.0
C648 C 0.93082 0.50097 0.98454 0.0
C649 C 0.93115 0.49613 1.01379 0.0
C650 C 0.90335 0.49136 0.9674 0.0
C651 C 0.87545 0.47668 0.97981 0.0
C652 C 0.87534 0.47294 1.00951 0.0
C653 C 0.90318 0.48264 1.02611 0.0
C654 C 0.90461 0.49586 0.93589 0.0
C655 C 0.84611 0.45771 1.0237 0.0
H656 H 0.77796 0.47634 0.93245 0.0
H657 H 0.81388 0.40003 0.92987 0.0
H658 H 0.82644 0.50942 0.98661 0.0
H659 H 0.84858 0.52227 0.95661 0.0
H660 H 0.80634 0.51802 0.95447 0.0
H661 H 0.86266 0.39635 0.95066 0.0
H662 H 0.89154 0.42942 0.95251 0.0
H663 H 0.87122 0.41564 0.98326 0.0
H664 H 0.95234 0.51142 0.97486 0.0
H665 H 0.90323 0.47901 0.04872 0.0
H666 H 0.88495 0.50557 0.92775 0.0
H667 H 0.90182 0.47498 0.92544 0.0
H668 H 0.92717 0.50973 0.92976 0.0
H669 H 0.82582 0.4672 1.01686 0.0
H670 H 0.84909 0.45859 0.04706 0.0
H671 H 0.84019 0.43503 1.01734 0.0
C672 C 0.70371 0.63047 0.40876 0.0
C673 C 0.73389 0.62562 0.41558 0.0
C674 C 0.67753 0.6173 0.42416 0.0
C675 C 0.68157 0.59938 0.44761 0.0
C676 C 0.71205 0.5944 0.45456 0.0
C677 C 0.73768 0.60724 0.43829 0.0
C678 C 0.64549 0.62269 0.41538 0.0
C679 C 0.71778 0.57609 0.47969 0.0
C680 C 0.61907 0.59049 0.50299 0.0
C681 C 0.60072 0.56323 0.49723 0.0
C682 C 0.64578 0.6021 0.48757 0.0
C683 C 0.65409 0.58651 0.46518 0.0
C684 C 0.63564 0.55895 0.45929 0.0
C685 C 0.60953 0.54755 0.47554 0.0
C686 C 0.66508 0.63118 0.49522 0.0
C687 C 0.64297 0.54174 0.43529 0.0
H688 H 0.70055 0.64449 0.39115 0.0
H689 H 0.76095 0.60359 0.44386 0.0
H690 H 0.62843 0.60215 0.41202 0.0
H691 H 0.63675 0.63395 0.43238 0.0
H692 H 0.64588 0.6357 0.39571 0.0
H693 H 0.74274 0.57417 0.4823 0.0
H694 H 0.71129 0.58533 0.49917 0.0
H695 H 0.70268 0.55444 0.47751 0.0
H696 H 0.61266 0.60275 0.51976 0.0
H697 H 0.59542 0.52658 0.47068 0.0
H698 H 0.66405 0.64627 0.47737 0.0
H699 H 0.69014 0.63012 0.49924 0.0
H700 H 0.65673 0.63985 0.5142 0.0
H701 H 0.64121 0.5535 0.4151 0.0
H702 H 0.62675 0.52051 0.43367 0.0
H703 H 0.66746 0.53864 0.43803 0.0
C704 C 0.24394 0.36055 0.16689 0.0
C705 C 0.27177 0.35974 0.15361 0.0
C706 C 0.22099 0.37356 0.15387 0.0
C707 C 0.22562 0.38574 0.12661 0.0
C708 C 0.25353 0.38497 0.11293 0.0
C709 C 0.27637 0.37205 0.12664 0.0
C710 C 0.19157 0.37396 0.16924 0.0
C711 C 0.25912 0.3976 0.08378 0.0
C712 C 0.14884 0.39287 0.08898 0.0
C713 C 0.14789 0.42106 0.09508 0.0
C714 C 0.17506 0.38159 0.09746 0.0
C715 C 0.20076 0.39887 0.11264 0.0
C716 C 0.20066 0.42782 0.11746 0.0
C717 C 0.17423 0.43859 0.10854 0.0
C718 C 0.17445 0.35074 0.09157 0.0
C719 C 0.22749 0.4469 0.13373 0.0
H720 H 0.23971 0.35048 0.18737 0.0
H721 H 0.29786 0.37168 0.11629 0.0
H722 H 0.18865 0.3962 0.17119 0.0
H723 H 0.1706 0.36209 0.15704 0.0
H724 H 0.19205 0.36432 0.1907 0.0
H725 H 0.2821 0.39536 0.07607 0.0
H726 H 0.24009 0.38698 0.06872 0.0
H727 H 0.25844 0.42054 0.08377 0.0
H728 H 0.12868 0.37939 0.07821 0.0
H729 H 0.17352 0.46035 0.11349 0.0
H730 H 0.17171 0.33825 0.11155 0.0
H731 H 0.19695 0.34853 0.08289 0.0
H732 H 0.15479 0.34132 0.07649 0.0
H733 H 0.22745 0.44008 0.15621 0.0
H734 H 0.22566 0.4696 0.13258 0.0
H735 H 0.25041 0.44511 0.12564 0.0
C736 C 0.60439 0.21398 0.936 0.0
C737 C 0.58797 0.22285 0.91228 0.0
C738 C 0.59309 0.18793 0.95006 0.0
C739 C 0.5649 0.16959 0.93998 0.0
C740 C 0.54874 0.17781 0.91552 0.0
C741 C 0.56028 0.20428 0.90214 0.0
C742 C 0.61103 0.18034 0.97618 0.0
C743 C 0.51882 0.15884 0.90375 0.0
C744 C 0.54764 0.09148 0.96505 0.0
C745 C 0.52546 0.09148 0.98542 0.0
C746 C 0.56055 0.1166 0.94998 0.0
C747 C 0.55158 0.14253 0.9558 0.0
C748 C 0.52981 0.14267 0.97696 0.0
C749 C 0.51684 0.11719 0.99123 0.0
C750 C 0.58337 0.1153 0.92747 0.0
C751 C 0.5201 0.16977 0.98453 0.0
H752 H 0.62625 0.22748 0.94379 0.0
H753 H 0.54705 0.21067 0.8841 0.0
H754 H 0.59591 0.1782 0.99454 0.0
H755 H 0.61744 0.15947 0.97352 0.0
H756 H 0.63285 0.19659 0.98109 0.0
H757 H 0.51025 0.16718 0.8835 0.0
H758 H 0.52266 0.13711 0.90031 0.0
H759 H 0.50015 0.15688 0.91915 0.0
H760 H 0.55434 0.07168 0.96041 0.0
H761 H 0.49993 0.11742 1.00714 0.0
H762 H 0.60605 0.13037 0.93233 0.0
H763 H 0.57391 0.12193 0.90684 0.0
H764 H 0.58797 0.09359 0.92542 0.0
H765 H 0.5412 0.18632 0.99071 0.0
H766 H 0.50383 0.16655 1.00214 0.0
H767 H 0.50832 0.17811 0.96592 0.0
C768 C 0.92241 0.86146 0.40415 0.0
C769 C 0.93619 0.83768 0.40853 0.0
C770 C 0.93349 0.88704 0.41918 0.0
C771 C 0.95874 0.88912 0.43972 0.0
C772 C 0.97258 0.86509 0.44442 0.0
C773 C 0.96142 0.83993 0.42867 0.0
C774 C 0.91834 0.91206 0.4128 0.0
C775 C 0.99914 0.86589 0.46629 0.0
C776 C 0.00949 0.96231 0.45999 0.0
C777 C 0.99709 0.96823 0.48537 0.0
C778 C 0.99688 0.93716 0.44481 0.0
C779 C 0.97148 0.91668 0.4554 0.0
C780 C 0.95872 0.92261 0.48104 0.0
C781 C 0.97147 0.94832 0.49555 0.0
C782 C 0.01101 0.93241 0.41743 0.0
C783 C 0.93209 0.90141 0.49357 0.0
H784 H 0.90309 0.8602 0.38857 0.0
H785 H 0.97205 0.82171 0.43261 0.0
H786 H 0.90884 0.91864 0.43222 0.0
H787 H 0.93623 0.93051 0.40551 0.0
H788 H 0.89891 0.90715 0.39636 0.0
H789 H 1.00655 0.84519 0.46838 0.0
H790 H 0.01976 0.88261 0.46063 0.0
H791 H 0.99187 0.87151 0.48711 0.0
H792 H 0.02933 0.97747 0.45195 0.0
H793 H 0.9621 0.95235 0.51538 0.0
H794 H 0.99241 0.92839 0.40023 0.0
H795 H 0.02142 0.91329 0.41935 0.0
H796 H 0.02961 0.9509 0.41129 0.0
H797 H 0.91173 0.89651 0.47812 0.0
H798 H 0.92424 0.90932 0.5132 0.0
H799 H 0.93968 0.88116 0.49846 0.0
C800 C 0.28915 0.67504 0.6765 0.0
C801 C 0.26201 0.67878 0.66091 0.0
C802 C 0.313 0.66513 0.66378 0.0
C803 C 0.30997 0.65918 0.63461 0.0
C804 C 0.28255 0.66254 0.61873 0.0
C805 C 0.25882 0.6722 0.6321 0.0
C806 C 0.34182 0.66168 0.68149 0.0
C807 C 0.27861 0.65651 0.58754 0.0
C808 C 0.38759 0.66336 0.6004 0.0
C809 C 0.38936 0.63458 0.59977 0.0
C810 C 0.36125 0.67156 0.6106 0.0
C811 C 0.33621 0.6505 0.62073 0.0
C812 C 0.33743 0.62138 0.61946 0.0
C813 C 0.3639 0.61377 0.60884 0.0
C814 C 0.36072 0.70284 0.61145 0.0
C815 C 0.31127 0.5983 0.63018 0.0
H816 H 0.29225 0.68062 0.6986 0.0
H817 H 0.23781 0.67471 0.61994 0.0
H818 H 0.3458 0.6398 0.67939 0.0
H819 H 0.36291 0.67667 0.67391 0.0
H820 H 0.33979 0.66577 0.70418 0.0
H821 H 0.25542 0.65922 0.5784 0.0
H822 H 0.29743 0.6711 0.57627 0.0
H823 H 0.28106 0.63446 0.58358 0.0
H824 H 0.40725 0.67963 0.59372 0.0
H825 H 0.36476 0.59148 0.60785 0.0
H826 H 0.3618 0.70975 0.63368 0.0
H827 H 0.33843 0.70668 0.60136 0.0
H828 H 0.38076 0.71632 0.60063 0.0
H829 H 0.30971 0.60065 0.65323 0.0
H830 H 0.31496 0.5766 0.62617 0.0
H831 H 0.28833 0.60038 0.62006 0.0
C832 C 0.72727 0.83284 0.69334 0.0
C833 C 0.73717 0.81475 0.71385 0.0
C834 C 0.74827 0.84802 0.67414 0.0
C835 C 0.77983 0.8447 0.67517 0.0
C836 C 0.78956 0.82535 0.69478 0.0
C837 C 0.76822 0.81081 0.71402 0.0
C838 C 0.73705 0.86859 0.65364 0.0
C839 C 0.82292 0.82099 0.69632 0.0
C840 C 0.82958 0.87378 0.61324 0.0
C841 C 0.8462 0.90007 0.62371 0.0
C842 C 0.80834 0.85515 0.62994 0.0
C843 C 0.80328 0.86332 0.65751 0.0
C844 C 0.82025 0.88976 0.66821 0.0
C845 C 0.84163 0.90771 0.65124 0.0
C846 C 0.7911 0.8269 0.61805 0.0
C847 C 0.81527 0.89943 0.69736 0.0
H848 H 0.70321 0.83563 0.69265 0.0
H849 H 0.77635 0.79724 0.72997 0.0
H850 H 0.74959 0.89068 0.65871 0.0
H851 H 0.74257 0.86431 0.63183 0.0
H852 H 0.71133 0.86735 0.65428 0.0
H853 H 0.82574 0.80283 0.71038 0.0
H854 H 0.8303 0.81711 0.67501 0.0
H855 H 0.8391 0.84054 0.70444 0.0
H856 H 0.83321 0.86781 0.59198 0.0
H857 H 0.85407 0.92823 0.65922 0.0
H858 H 0.76541 0.82603 0.61665 0.0
H859 H 0.79507 0.80928 0.63231 0.0
H860 H 0.79872 0.82319 0.59674 0.0
H861 H 0.79034 0.90086 0.69897 0.0
H862 H 0.83053 0.92051 0.70258 0.0
H863 H 0.82022 0.88364 0.71341 0.0
C864 C 0.76067 0.25817 0.1715 0.0
C865 C 0.77284 0.24217 0.19267 0.0
C866 C 0.74207 0.24472 0.14853 0.0
C867 C 0.73541 0.21463 0.14694 0.0
C868 C 0.74787 0.19845 0.16816 0.0
C869 C 0.7664 0.21241 0.19071 0.0
C870 C 0.72931 0.26259 0.12618 0.0
C871 C 0.74117 0.16628 0.16735 0.0
C872 C 0.66467 0.16988 0.10795 0.0
C873 C 0.67888 0.15983 0.08557 0.0
C874 C 0.6824 0.18963 0.12702 0.0
C875 C 0.71503 0.19954 0.12352 0.0
C876 C 0.72887 0.1913 0.09961 0.0
C877 C 0.71062 0.17147 0.08093 0.0
C878 C 0.66672 0.19793 0.1522 0.0
C879 C 0.7635 0.20166 0.09495 0.0
H880 H 0.7657 0.2812 0.1729 0.0
H881 H 0.77517 0.19989 0.2073 0.0
H882 H 0.73658 0.25775 0.10511 0.0
H883 H 0.7032 0.2573 0.12553 0.0
H884 H 0.73752 0.28578 0.13002 0.0
H885 H 0.75298 0.15692 0.18536 0.0
H886 H 0.71544 0.15761 0.16782 0.0
H887 H 0.74918 0.15919 0.14745 0.0
H888 H 0.64018 0.16086 0.11171 0.0
H889 H 0.72153 0.16409 0.06335 0.0
H890 H 0.67392 0.22118 0.15584 0.0
H891 H 0.67421 0.18697 0.17134 0.0
H892 H 0.64063 0.19198 0.14961 0.0
H893 H 0.77084 0.22494 0.09843 0.0
H894 H 0.7695 0.19695 0.07336 0.0
H895 H 0.77736 0.19102 0.11036 0.0
C896 C 0.41742 0.6227 0.36921 0.0
C897 C 0.43834 0.6337 0.3481 0.0
C898 C 0.42695 0.60806 0.39307 0.0
C899 C 0.45824 0.60395 0.39612 0.0
C900 C 0.47973 0.61564 0.3753 0.0
C901 C 0.46961 0.63041 0.35171 0.0
C902 C 0.40322 0.59637 0.41474 0.0
C903 C 0.51323 0.6117 0.37742 0.0
C904 C 0.48961 0.5803 0.46804 0.0
C905 C 0.4849 0.55071 0.4649 0.0
C906 C 0.48093 0.5979 0.44607 0.0
C907 C 0.46773 0.58577 0.41998 0.0
C908 C 0.4633 0.55591 0.41666 0.0
C909 C 0.47179 0.53888 0.43905 0.0
C910 C 0.48604 0.62953 0.45075 0.0
C911 C 0.44961 0.54184 0.38934 0.0
H912 H 0.39336 0.62546 0.36704 0.0
H913 H 0.486 0.63854 0.33556 0.0
H914 H 0.3987 0.57276 0.41502 0.0
H915 H 0.41267 0.60368 0.4361 0.0
H916 H 0.38049 0.60297 0.4104 0.0
H917 H 0.52761 0.62355 0.36059 0.0
H918 H 0.52451 0.61896 0.39823 0.0
H919 H 0.51338 0.58874 0.37579 0.0
H920 H 0.50058 0.5898 0.48743 0.0
H921 H 0.46826 0.51608 0.43619 0.0
H922 H 0.46358 0.63665 0.44677 0.0
H923 H 0.50289 0.64118 0.4356 0.0
H924 H 0.4953 0.63558 0.47251 0.0
H925 H 0.42566 0.54576 0.38475 0.0
H926 H 0.44812 0.51848 0.38989 0.0
H927 H 0.46426 0.55124 0.37166 0.0
C928 C 0.1252 0.44126 0.86785 0.0
C929 C 0.10351 0.42137 0.85131 0.0
C930 C 0.11602 0.4547 0.89132 0.0
C931 C 0.08422 0.44822 0.89912 0.0
C932 C 0.06227 0.42784 0.88291 0.0
C933 C 0.07205 0.41483 0.85939 0.0
C934 C 0.14047 0.47616 0.90767 0.0
C935 C 0.02817 0.41998 0.8902 0.0
C936 C 0.06483 0.46646 0.97423 0.0
C937 C 0.05395 0.49184 0.96986 0.0
C938 C 0.07464 0.45212 0.95164 0.0
C939 C 0.07386 0.46327 0.92367 0.0
C940 C 0.06323 0.48903 0.91923 0.0
C941 C 0.05341 0.50282 0.94213 0.0
C942 C 0.08557 0.42478 0.9577 0.0
C943 C 0.06209 0.5021 0.8901 0.0
H944 H 0.14969 0.44633 0.86262 0.0
H945 H 0.05472 0.39991 0.84696 0.0
H946 H 0.13375 0.49717 0.90695 0.0
H947 H 0.14163 0.46951 0.93015 0.0
H948 H 0.16426 0.47877 0.89928 0.0
H949 H 0.01417 0.40301 0.87641 0.0
H950 H 0.0263 0.41256 0.91246 0.0
H951 H 0.01763 0.43903 0.88813 0.0
H952 H 0.06535 0.4575 0.99535 0.0
H953 H 0.04511 0.52231 0.93816 0.0
H954 H 0.10992 0.42685 0.95083 0.0
H955 H 0.07037 0.40716 0.9455 0.0
H956 H 0.08506 0.41887 0.98045 0.0
H957 H 0.08586 0.5064 0.88146 0.0
H958 H 0.05365 0.52232 0.89 0.0
H959 H 0.04627 0.48694 0.87569 0.0
C960 C 0.55711 0.87235 0.88039 0.0
C961 C 0.55899 0.84701 0.89507 0.0
C962 C 0.54569 0.89395 0.89307 0.0
C963 C 0.53668 0.89048 0.92134 0.0
C964 C 0.53642 0.86427 0.9356 0.0
C965 C 0.54719 0.84273 0.92216 0.0
C966 C 0.54559 0.92134 0.87691 0.0
C967 C 0.52724 0.85976 0.96586 0.0
C968 C 0.55597 0.95662 0.96623 0.0
C969 C 0.52617 0.96226 0.96983 0.0
C970 C 0.55952 0.93339 0.95043 0.0
C971 C 0.53266 0.91558 0.93737 0.0
C972 C 0.50251 0.92153 0.94024 0.0
C973 C 0.49957 0.9447 0.95672 0.0
C974 C 0.59206 0.92754 0.94831 0.0
C975 C 0.47345 0.90337 0.9261 0.0
H976 H 0.56623 0.87614 0.85954 0.0
H977 H 0.54758 0.82294 0.9334 0.0
H978 H 0.52378 0.92897 0.88029 0.0
H979 H 0.56581 0.93806 0.88462 0.0
H980 H 0.54754 0.91878 0.85392 0.0
H981 H 0.5245 0.83715 0.97273 0.0
H982 H 0.54569 0.87301 0.9798 0.0
H983 H 0.5049 0.86658 0.96889 0.0
H984 H 0.57662 0.96988 0.9765 0.0
H985 H 0.47647 0.949 0.95938 0.0
H986 H 0.5982 0.92803 0.9259 0.0
H987 H 0.59257 0.90594 0.95681 0.0
H988 H 0.61043 0.94327 0.96005 0.0
H989 H 0.47631 0.90284 0.90305 0.0
H990 H 0.45188 0.91134 0.92976 0.0
H991 H 0.47012 0.88112 0.93409 0.0
C992 C 0.93942 0.17425 0.38772 0.0
C993 C 0.92156 0.19036 0.4016 0.0
C994 C 0.95173 0.15288 0.40201 0.0
C995 C 0.94658 0.14781 0.43102 0.0
C996 C 0.92933 0.16445 0.44536 0.0
C997 C 0.91682 0.18532 0.43045 0.0
C998 C 0.96983 0.13543 0.38597 0.0
C999 C 0.92367 0.15991 0.4764 0.0
C1000 C 0.94983 0.07646 0.46563 0.0
C1001 C 0.97956 0.08247 0.47974 0.0
C1002 C 0.93928 0.09724 0.4488 0.0
C1003 C 0.95872 0.1248 0.44641 0.0
C1004 C 0.98909 0.13075 0.45996 0.0
C1005 C 0.99924 0.10944 0.47628 0.0
C1006 C 0.90696 0.08994 0.43422 0.0
C1007 C 0.01035 0.15997 0.45823 0.0
H1008 H 0.94375 0.17828 0.36558 0.0
H1009 H 0.90266 0.19723 0.44133 0.0
H1010 H 0.99382 0.13732 0.39585 0.0
H1011 H 0.95794 0.11258 0.38691 0.0
H1012 H 0.9719 0.14213 0.36349 0.0
H1013 H 0.91111 0.17555 0.48473 0.0
H1014 H 0.90951 0.13815 0.48008 0.0
H1015 H 0.94641 0.16164 0.48863 0.0
H1016 H 0.93458 0.05562 0.46805 0.0
H1017 H 0.02218 0.11435 0.48726 0.0
H1018 H 0.9084 0.09547 0.41145 0.0
H1019 H 0.8915 0.10265 0.44328 0.0
H1020 H 0.89578 0.06699 0.43643 0.0
H1021 H 0.01332 0.16682 0.4359 0.0
H1022 H 0.03396 0.16065 0.46859 0.0
H1023 H 0.99944 0.17567 0.46857 0.0
C1024 C 0.21479 0.63593 0.14063 0.0
C1025 C 0.23897 0.62145 0.14761 0.0
C1026 C 0.18763 0.62293 0.12465 0.0
C1027 C 0.18434 0.59463 0.1152 0.0
C1028 C 0.20832 0.57961 0.12264 0.0
C1029 C 0.23528 0.59316 0.1388 0.0
C1030 C 0.16255 0.63967 0.11756 0.0
C1031 C 0.20582 0.54946 0.11298 0.0
C1032 C 0.10078 0.55701 0.09202 0.0
C1033 C 0.10041 0.56229 0.06283 0.0
C1034 C 0.12825 0.56637 0.1092 0.0
C1035 C 0.15613 0.58132 0.09693 0.0
C1036 C 0.15621 0.5855 0.06728 0.0
C1037 C 0.12836 0.57599 0.05062 0.0
C1038 C 0.12702 0.56137 0.14065 0.0
C1039 C 0.1854 0.60104 0.05323 0.0
H1040 H 0.21711 0.6576 0.14773 0.0
H1041 H 0.25388 0.58184 0.14388 0.0
H1042 H 0.15979 0.64228 0.09435 0.0
H1043 H 0.13956 0.62792 0.12497 0.0
H1044 H 0.16818 0.66113 0.1272 0.0
H1045 H 0.22557 0.54015 0.12176 0.0
H1046 H 0.18333 0.53572 0.11933 0.0
H1047 H 0.20572 0.54908 0.08962 0.0
H1048 H 0.07928 0.5464 0.10161 0.0
H1049 H 0.12829 0.57997 1.02805 0.0
H1050 H 0.12957 0.58204 0.15143 0.0
H1051 H 0.14683 0.55175 0.14859 0.0
H1052 H 0.10456 0.54721 0.14661 0.0
H1053 H 0.19121 0.62362 0.05988 0.0
H1054 H 0.18242 0.60047 1.02985 0.0
H1055 H 0.20575 0.59156 0.05988 0.0
C1056 C 0.28679 0.44238 0.62455 0.0
C1057 C 0.28969 0.43657 0.65361 0.0
C1058 C 0.31316 0.45486 0.60907 0.0
C1059 C 0.34352 0.46156 0.62275 0.0
C1060 C 0.34655 0.4562 0.65218 0.0
C1061 C 0.3197 0.44397 0.66722 0.0
C1062 C 0.30854 0.46054 0.57791 0.0
C1063 C 0.37835 0.46285 0.6677 0.0
C1064 C 0.41525 0.46564 0.57812 0.0
C1065 C 0.42675 0.49516 0.57503 0.0
C1066 C 0.38836 0.45455 0.59347 0.0
C1067 C 0.37214 0.47327 0.60613 0.0
C1068 C 0.38337 0.50308 0.60284 0.0
C1069 C 0.4104 0.51362 0.5874 0.0
C1070 C 0.37753 0.42266 0.59649 0.0
C1071 C 0.36683 0.52394 0.61562 0.0
H1072 H 0.26374 0.43717 0.61382 0.0
H1073 H 0.32237 0.43941 0.68956 0.0
H1074 H 0.31818 0.48332 0.57304 0.0
H1075 H 0.32165 0.44785 0.56576 0.0
H1076 H 0.28336 0.45513 0.57056 0.0
H1077 H 0.37678 0.45818 0.69067 0.0
H1078 H 0.39397 0.45013 0.6589 0.0
H1079 H 0.38962 0.48565 0.66473 0.0
H1080 H 0.42759 0.45103 0.56892 0.0
H1081 H 0.41883 0.53644 0.58522 0.0
H1082 H 0.35295 0.41586 0.58786 0.0
H1083 H 0.37775 0.41646 0.61914 0.0
H1084 H 0.3926 0.41091 0.58543 0.0
H1085 H 0.34333 0.52237 0.60479 0.0
H1086 H 0.38032 0.54622 0.61377 0.0
H1087 H 0.36305 0.51884 0.63824 0.0
C1088 C 0.75328 0.65948 0.92077 0.0
C1089 C 0.7496 0.68721 0.9256 0.0
C1090 C 0.77843 0.64929 0.93375 0.0
C1091 C 0.80051 0.66736 0.95185 0.0
C1092 C 0.79579 0.69473 0.95818 0.0
C1093 C 0.77032 0.70433 0.945 0.0
C1094 C 0.78244 0.61983 0.92672 0.0
C1095 C 0.81881 0.71464 0.97734 0.0
C1096 C 0.86072 0.63474 0.99431 0.0
C1097 C 0.88631 0.64053 0.97672 0.0
C1098 C 0.83273 0.64376 0.98683 0.0
C1099 C 0.83036 0.65895 0.96122 0.0
C1100 C 0.85634 0.66538 0.94371 0.0
C1101 C 0.88389 0.65601 0.95161 0.0
C1102 C 0.80552 0.63659 1.00603 0.0
C1103 C 0.8548 0.68158 0.91621 0.0
H1104 H 0.73704 0.64607 0.90606 0.0
H1105 H 0.76771 0.72587 0.94863 0.0
H1106 H 0.80309 0.62157 0.91355 0.0
H1107 H 0.78702 0.60795 0.94622 0.0
H1108 H 0.76142 0.60732 0.915 0.0
H1109 H 0.80961 0.73348 0.98312 0.0
H1110 H 0.82449 0.70339 0.99693 0.0
H1111 H 0.84111 0.72224 0.96654 0.0
H1112 H 0.86253 0.62306 1.0139 0.0
H1113 H 0.90327 0.66013 0.93762 0.0
H1114 H 0.78522 0.6224 0.99497 0.0
H1115 H 0.79776 0.65623 1.01151 0.0
H1116 H 0.81164 0.62583 1.02584 0.0
H1117 H 0.83634 0.66922 0.90167 0.0
H1118 H 0.87752 0.68588 0.90563 0.0
H1119 H 0.84824 0.70221 0.91996 0.0
C1120 C 0.47156 0.8531 0.16852 0.0
C1121 C 0.44923 0.83087 0.15572 0.0
C1122 C 0.48384 0.87851 0.15362 0.0
C1123 C 0.47364 0.88203 0.12512 0.0
C1124 C 0.45122 0.85967 0.11207 0.0
C1125 C 0.43951 0.8345 0.12737 0.0
C1126 C 0.50777 0.90166 0.1684 0.0
C1127 C 0.43968 0.86226 0.08177 0.0
C1128 C 0.48503 0.95691 0.09183 0.0
C1129 C 0.51175 0.95822 0.07616 0.0
C1130 C 0.47246 0.93241 0.10795 0.0
C1131 C 0.48702 0.90862 0.10862 0.0
C1132 C 0.51407 0.90998 0.09285 0.0
C1133 C 0.52599 0.93462 0.07686 0.0
C1134 C 0.44349 0.93193 0.12418 0.0
C1135 C 0.53044 0.8853 0.09279 0.0
H1136 H 0.47913 0.85086 0.19039 0.0
H1137 H 0.42283 0.81742 0.11688 0.0
H1138 H 0.52992 0.90611 0.15698 0.0
H1139 H 0.49895 0.92167 0.16824 0.0
H1140 H 0.51319 0.89585 0.19059 0.0
H1141 H 0.42149 0.84339 0.0749 0.0
H1142 H 0.42962 0.88153 0.07894 0.0
H1143 H 0.45968 0.86479 0.06772 0.0
H1144 H 0.47401 0.97509 0.09162 0.0
H1145 H 0.54663 0.93538 0.06482 0.0
H1146 H 0.44855 0.92821 0.14693 0.0
H1147 H 0.42428 0.91407 0.11688 0.0
H1148 H 0.43505 0.95211 0.1217 0.0
H1149 H 0.53775 0.88013 0.11467 0.0
H1150 H 0.55156 0.88986 0.07991 0.0
H1151 H 0.51398 0.86609 0.08431 0.0
C1152 C 0.09064 0.22091 0.63463 0.0
C1153 C 0.0858 0.22353 0.66349 0.0
C1154 C 0.07865 0.19534 0.61989 0.0
C1155 C 0.06097 0.17134 0.63401 0.0
C1156 C 0.05581 0.17377 0.66308 0.0
C1157 C 0.06816 0.19966 0.67738 0.0
C1158 C 0.08468 0.19415 0.58896 0.0
C1159 C 0.03711 0.14894 0.67913 0.0
C1160 C 1.00314 0.11591 0.58933 0.0
C1161 C 0.01936 0.0938 0.58703 0.0
C1162 C 0.01628 0.14092 0.60453 0.0
C1163 C 0.04668 0.14433 0.61799 0.0
C1164 C 0.06337 0.12215 0.61556 0.0
C1165 C 0.04956 0.09722 0.60018 0.0
C1166 C 0.99747 0.16375 0.60619 0.0
C1167 C 0.09584 0.12473 0.62931 0.0
H1168 H 0.10358 0.23911 0.62327 0.0
H1169 H 0.06438 0.20102 0.69963 0.0
H1170 H 0.09616 0.17619 0.58509 0.0
H1171 H 0.06201 0.1902 0.57637 0.0
H1172 H 0.09983 0.21416 0.5812 0.0
H1173 H 0.03568 0.15384 0.70172 0.0
H1174 H 0.01287 0.1429 0.66952 0.0
H1175 H 0.04795 0.13017 0.67776 0.0
H1176 H 0.97983 0.11364 0.57927 0.0
H1177 H 0.06232 0.08033 0.59863 0.0
H1178 H 0.01066 0.18402 0.59714 0.0
H1179 H 0.99379 0.16776 0.62855 0.0
H1180 H 0.97413 0.1579 0.59474 0.0
H1181 H 0.11194 0.14393 0.62107 0.0
H1182 H 0.10581 0.10579 0.62557 0.0
H1183 H 0.09503 0.12746 0.65238 0.0
C1184 C 0.74925 0.39303 0.40094 0.0
C1185 C 0.74927 0.36394 0.40361 0.0
C1186 C 0.72613 0.40448 0.41325 0.0
C1187 C 0.70225 0.38625 0.42812 0.0
C1188 C 0.7023 0.35688 0.43097 0.0
C1189 C 0.72594 0.34613 0.41884 0.0
C1190 C 0.72711 0.43598 0.4102 0.0
C1191 C 0.67703 0.3367 0.44638 0.0
C1192 C 0.65522 0.41497 0.48125 0.0
C1193 C 0.62711 0.41527 0.46559 0.0
C1194 C 0.6803 0.40648 0.46903 0.0
C1195 C 0.67696 0.39769 0.44059 0.0
C1196 C 0.64881 0.39845 0.42451 0.0
C1197 C 0.62426 0.40747 0.43718 0.0
C1198 C 0.71013 0.40642 0.4867 0.0
C1199 C 0.64425 0.3889 0.39422 0.0
H1200 H 0.76737 0.40683 0.38925 0.0
H1201 H 0.72565 0.32354 0.42054 0.0
H1202 H 0.70545 0.43941 0.39856 0.0
H1203 H 0.72777 0.4456 0.43131 0.0
H1204 H 0.74785 0.44739 0.39882 0.0
H1205 H 0.68047 0.31446 0.44669 0.0
H1206 H 0.67676 0.3437 0.46845 0.0
H1207 H 0.65359 0.33698 0.43616 0.0
H1208 H 0.65756 0.42141 0.50314 0.0
H1209 H 0.60246 0.40761 0.42512 0.0
H1210 H 0.73079 0.41871 0.47585 0.0
H1211 H 0.7135 0.38428 0.48947 0.0
H1212 H 0.70973 0.41566 0.50788 0.0
H1213 H 0.66355 0.40101 0.38163 0.0
H1214 H 0.62142 0.39176 0.38435 0.0
H1215 H 0.64516 0.36605 0.39316 0.0
loop_
_geom_bond_atom_site_label_1
_geom_bond_atom_site_label_2
_geom_bond_distance
_geom_bond_site_symmetry_2
_ccdc_geom_bond_type
C0 C1 1.384 . S
C0 H13 0.947 . S
C0 C35 1.382 . S
C1 C0 1.384 . S
C1 C2 1.378 . S
C2 C1 1.378 . S
C2 C3 1.378 . S
C2 H14 0.952 . S
C3 C2 1.378 . S
C3 H15 0.950 . S
C3 C34 1.383 . S
H4 C23 0.947 . S
H5 C24 0.946 . S
H6 C26 0.953 . S
H7 C27 0.945 . S
H8 C29 0.952 . S
H9 C30 0.949 . S
H10 C32 0.950 . S
H11 C33 0.948 . S
H12 C35 0.951 . S
H13 C0 0.947 . S
H14 C2 0.952 . S
H15 C3 0.950 . S
N16 C19 1.382 . S
N16 C21 1.363 . S
N17 C19 1.371 . S
N17 C20 1.372 . S
N18 C20 1.361 . S
N18 C21 1.377 . S
C19 N16 1.382 . S
C19 N17 1.371 . S
C19 C22 1.480 . S
C20 N17 1.372 . S
C20 N18 1.361 . S
C20 C28 1.457 . S
C21 N16 1.363 . S
C21 N18 1.377 . S
C21 C34 1.479 . S
C22 C19 1.480 . S
C22 C23 1.383 . S
C22 C27 1.385 . S
C23 H4 0.947 . S
C23 C22 1.383 . S
C23 C24 1.388 . S
C24 H5 0.946 . S
C24 C23 1.388 . S
C24 C25 1.384 . S
C25 C24 1.384 . S
C25 C26 1.377 . S
C26 H6 0.953 . S
C26 C25 1.377 . S
C26 C27 1.369 . S
C27 H7 0.945 . S
C27 C22 1.385 . S
C27 C26 1.369 . S
C28 C20 1.457 . S
C28 C29 1.372 . S
C28 C33 1.364 . S
C29 H8 0.952 . S
C29 C28 1.372 . S
C29 C30 1.389 . S
C30 H9 0.949 . S
C30 C29 1.389 . S
C30 C31 1.387 . S
C31 C30 1.387 . S
C31 C32 1.372 . S
C32 H10 0.950 . S
C32 C31 1.372 . S
C32 C33 1.379 . S
C33 H11 0.948 . S
C33 C28 1.364 . S
C33 C32 1.379 . S
C34 C3 1.383 . S
C34 C21 1.479 . S
C34 C35 1.398 . S
C35 C0 1.382 . S
C35 H12 0.951 . S
C35 C34 1.398 . S
C36 C37 1.384 . S
C36 H49 0.947 . S
C36 C71 1.382 . S
C37 C36 1.384 . S
C37 C38 1.378 . S
C38 C37 1.378 . S
C38 C39 1.378 . S
C38 H50 0.952 . S
C39 C38 1.378 . S
C39 H51 0.950 . S
C39 C70 1.383 . S
H40 C59 0.947 . S
H41 C60 0.946 . S
H42 C62 0.953 . S
H43 C63 0.945 . S
H44 C65 0.952 . S
H45 C66 0.949 . S
H46 C68 0.950 . S
H47 C69 0.948 . S
H48 C71 0.951 . S
H49 C36 0.947 . S
H50 C38 0.952 . S
H51 C39 0.950 . S
N52 C55 1.382 . S
N52 C57 1.363 . S
N53 C55 1.371 . S
N53 C56 1.372 . S
N54 C56 1.361 . S
N54 C57 1.377 . S
C55 N52 1.382 . S
C55 N53 1.371 . S
C55 C58 1.480 . S
C56 N53 1.372 . S
C56 N54 1.361 . S
C56 C64 1.457 . S
C57 N52 1.363 . S
C57 N54 1.377 . S
C57 C70 1.479 . S
C58 C55 1.480 . S
C58 C59 1.383 . S
C58 C63 1.385 . S
C59 H40 0.947 . S
C59 C58 1.383 . S
C59 C60 1.388 . S
C60 H41 0.946 . S
C60 C59 1.388 . S
C60 C61 1.384 . S
C61 C60 1.384 . S
C61 C62 1.377 . S
C62 H42 0.953 . S
C62 C61 1.377 . S
C62 C63 1.369 . S
C63 H43 0.945 . S
C63 C58 1.385 . S
C63 C62 1.369 . S
C64 C56 1.457 . S
C64 C65 1.372 . S
C64 C69 1.364 . S
C65 H44 0.952 . S
C65 C64 1.372 . S
C65 C66 1.389 . S
C66 H45 0.949 . S
C66 C65 1.389 . S
C66 C67 1.387 . S
C67 C66 1.387 . S
C67 C68 1.372 . S
C68 H46 0.950 . S
C68 C67 1.372 . S
C68 C69 1.379 . S
C69 H47 0.948 . S
C69 C64 1.364 . S
C69 C68 1.379 . S
C70 C39 1.383 . S
C70 C57 1.479 . S
C70 C71 1.398 . S
C71 C36 1.382 . S
C71 H48 0.951 . S
C71 C70 1.398 . S
C72 C73 1.384 . S
C72 H85 0.947 . S
C72 C107 1.382 . S
C73 C72 1.384 . S
C73 C74 1.378 . S
C74 C73 1.378 . S
C74 C75 1.378 . S
C74 H86 0.952 . S
C75 C74 1.378 . S
C75 H87 0.950 . S
C75 C106 1.383 . S
H76 C95 0.947 . S
H77 C96 0.946 . S
H78 C98 0.953 . S
H79 C99 0.945 . S
H80 C101 0.952 . S
H81 C102 0.949 . S
H82 C104 0.950 . S
H83 C105 0.948 . S
H84 C107 0.951 . S
H85 C72 0.947 . S
H86 C74 0.952 . S
H87 C75 0.950 . S
N88 C91 1.382 . S
N88 C93 1.363 . S
N89 C91 1.371 . S
N89 C92 1.372 . S
N90 C92 1.361 . S
N90 C93 1.377 . S
C91 N88 1.382 . S
C91 N89 1.371 . S
C91 C94 1.480 . S
C92 N89 1.372 . S
C92 N90 1.361 . S
C92 C100 1.457 . S
C93 N88 1.363 . S
C93 N90 1.377 . S
C93 C106 1.479 . S
C94 C91 1.480 . S
C94 C95 1.383 . S
C94 C99 1.385 . S
C95 H76 0.947 . S
C95 C94 1.383 . S
C95 C96 1.388 . S
C96 H77 0.946 . S
C96 C95 1.388 . S
C96 C97 1.384 . S
C97 C96 1.384 . S
C97 C98 1.377 . S
C98 H78 0.953 . S
C98 C97 1.377 . S
C98 C99 1.369 . S
C99 H79 0.945 . S
C99 C94 1.385 . S
C99 C98 1.369 . S
C100 C92 1.457 . S
C100 C101 1.372 . S
C100 C105 1.364 . S
C101 H80 0.952 . S
C101 C100 1.372 . S
C101 C102 1.389 . S
C102 H81 0.949 . S
C102 C101 1.389 . S
C102 C103 1.387 . S
C103 C102 1.387 . S
C103 C104 1.372 . S
C104 H82 0.950 . S
C104 C103 1.372 . S
C104 C105 1.379 . S
C105 H83 0.948 . S
C105 C100 1.364 . S
C105 C104 1.379 . S
C106 C75 1.383 . S
C106 C93 1.479 . S
C106 C107 1.398 . S
C107 C72 1.382 . S
C107 H84 0.951 . S
C107 C106 1.398 . S
C108 C109 1.384 . S
C108 H121 0.947 . S
C108 C143 1.382 . S
C109 C108 1.384 . S
C109 C110 1.378 . S
C110 C109 1.378 . S
C110 C111 1.378 . S
C110 H122 0.952 . S
C111 C110 1.378 . S
C111 H123 0.950 . S
C111 C142 1.383 . S
H112 C131 0.947 . S
H113 C132 0.946 . S
H114 C134 0.953 . S
H115 C135 0.945 . S
H116 C137 0.952 . S
H117 C138 0.949 . S
H118 C140 0.950 . S
H119 C141 0.948 . S
H120 C143 0.951 . S
H121 C108 0.947 . S
H122 C110 0.952 . S
H123 C111 0.950 . S
N124 C127 1.382 . S
N124 C129 1.363 . S
N125 C127 1.371 . S
N125 C128 1.372 . S
N126 C128 1.361 . S
N126 C129 1.377 . S
C127 N124 1.382 . S
C127 N125 1.371 . S
C127 C130 1.480 . S
C128 N125 1.372 . S
C128 N126 1.361 . S
C128 C136 1.457 . S
C129 N124 1.363 . S
C129 N126 1.377 . S
C129 C142 1.479 . S
C130 C127 1.480 . S
C130 C131 1.383 . S
C130 C135 1.385 . S
C131 H112 0.947 . S
C131 C130 1.383 . S
C131 C132 1.388 . S
C132 H113 0.946 . S
C132 C131 1.388 . S
C132 C133 1.384 . S
C133 C132 1.384 . S
C133 C134 1.377 . S
C134 H114 0.953 . S
C134 C133 1.377 . S
C134 C135 1.369 . S
C135 H115 0.945 . S
C135 C130 1.385 . S
C135 C134 1.369 . S
C136 C128 1.457 . S
C136 C137 1.372 . S
C136 C141 1.364 . S
C137 H116 0.952 . S
C137 C136 1.372 . S
C137 C138 1.389 . S
C138 H117 0.949 . S
C138 C137 1.389 . S
C138 C139 1.387 . S
C139 C138 1.387 . S
C139 C140 1.372 . S
C140 H118 0.950 . S
C140 C139 1.372 . S
C140 C141 1.379 . S
C141 H119 0.948 . S
C141 C136 1.364 . S
C141 C140 1.379 . S
C142 C111 1.383 . S
C142 C129 1.479 . S
C142 C143 1.398 . S
C143 C108 1.382 . S
C143 H120 0.951 . S
C143 C142 1.398 . S
C144 C145 1.384 . S
C144 H157 0.947 . S
C144 C179 1.382 . S
C145 C144 1.384 . S
C145 C146 1.378 . S
C146 C145 1.378 . S
C146 C147 1.378 . S
C146 H158 0.952 . S
C147 C146 1.378 . S
C147 H159 0.950 . S
C147 C178 1.383 . S
H148 C167 0.947 . S
H149 C168 0.946 . S
H150 C170 0.953 . S
H151 C171 0.945 . S
H152 C173 0.952 . S
H153 C174 0.949 . S
H154 C176 0.950 . S
H155 C177 0.948 . S
H156 C179 0.951 . S
H157 C144 0.947 . S
H158 C146 0.952 . S
H159 C147 0.950 . S
N160 C163 1.382 . S
N160 C165 1.363 . S
N161 C163 1.371 . S
N161 C164 1.372 . S
N162 C164 1.361 . S
N162 C165 1.377 . S
C163 N160 1.382 . S
C163 N161 1.371 . S
C163 C166 1.480 . S
C164 N161 1.372 . S
C164 N162 1.361 . S
C164 C172 1.457 . S
C165 N160 1.363 . S
C165 N162 1.377 . S
C165 C178 1.479 . S
C166 C163 1.480 . S
C166 C167 1.383 . S
C166 C171 1.385 . S
C167 H148 0.947 . S
C167 C166 1.383 . S
C167 C168 1.388 . S
C168 H149 0.946 . S
C168 C167 1.388 . S
C168 C169 1.384 . S
C169 C168 1.384 . S
C169 C170 1.377 . S
C170 H150 0.953 . S
C170 C169 1.377 . S
C170 C171 1.369 . S
C171 H151 0.945 . S
C171 C166 1.385 . S
C171 C170 1.369 . S
C172 C164 1.457 . S
C172 C173 1.372 . S
C172 C177 1.364 . S
C173 H152 0.952 . S
C173 C172 1.372 . S
C173 C174 1.389 . S
C174 H153 0.949 . S
C174 C173 1.389 . S
C174 C175 1.387 . S
C175 C174 1.387 . S
C175 C176 1.372 . S
C176 H154 0.950 . S
C176 C175 1.372 . S
C176 C177 1.379 . S
C177 H155 0.948 . S
C177 C172 1.364 . S
C177 C176 1.379 . S
C178 C147 1.383 . S
C178 C165 1.479 . S
C178 C179 1.398 . S
C179 C144 1.382 . S
C179 H156 0.951 . S
C179 C178 1.398 . S
C180 C181 1.384 . S
C180 H193 0.947 . S
C180 C215 1.382 . S
C181 C180 1.384 . S
C181 C182 1.378 . S
C182 C181 1.378 . S
C182 C183 1.378 . S
C182 H194 0.952 . S
C183 C182 1.378 . S
C183 H195 0.950 . S
C183 C214 1.383 . S
H184 C203 0.947 . S
H185 C204 0.946 . S
H186 C206 0.953 . S
H187 C207 0.945 . S
H188 C209 0.952 . S
H189 C210 0.949 . S
H190 C212 0.950 . S
H191 C213 0.948 . S
H192 C215 0.951 . S
H193 C180 0.947 . S
H194 C182 0.952 . S
H195 C183 0.950 . S
N196 C199 1.382 . S
N196 C201 1.363 . S
N197 C199 1.371 . S
N197 C200 1.372 . S
N198 C200 1.361 . S
N198 C201 1.377 . S
C199 N196 1.382 . S
C199 N197 1.371 . S
C199 C202 1.480 . S
C200 N197 1.372 . S
C200 N198 1.361 . S
C200 C208 1.457 . S
C201 N196 1.363 . S
C201 N198 1.377 . S
C201 C214 1.479 . S
C202 C199 1.480 . S
C202 C203 1.383 . S
C202 C207 1.385 . S
C203 H184 0.947 . S
C203 C202 1.383 . S
C203 C204 1.388 . S
C204 H185 0.946 . S
C204 C203 1.388 . S
C204 C205 1.384 . S
C205 C204 1.384 . S
C205 C206 1.377 . S
C206 H186 0.953 . S
C206 C205 1.377 . S
C206 C207 1.369 . S
C207 H187 0.945 . S
C207 C202 1.385 . S
C207 C206 1.369 . S
C208 C200 1.457 . S
C208 C209 1.372 . S
C208 C213 1.364 . S
C209 H188 0.952 . S
C209 C208 1.372 . S
C209 C210 1.389 . S
C210 H189 0.949 . S
C210 C209 1.389 . S
C210 C211 1.387 . S
C211 C210 1.387 . S
C211 C212 1.372 . S
C212 H190 0.950 . S
C212 C211 1.372 . S
C212 C213 1.379 . S
C213 H191 0.948 . S
C213 C208 1.364 . S
C213 C212 1.379 . S
C214 C183 1.383 . S
C214 C201 1.479 . S
C214 C215 1.398 . S
C215 C180 1.382 . S
C215 H192 0.951 . S
C215 C214 1.398 . S
C216 C217 1.384 . S
C216 H229 0.947 . S
C216 C251 1.382 . S
C217 C216 1.384 . S
C217 C218 1.378 . S
C218 C217 1.378 . S
C218 C219 1.378 . S
C218 H230 0.952 . S
C219 C218 1.378 . S
C219 H231 0.950 . S
C219 C250 1.383 . S
H220 C239 0.947 . S
H221 C240 0.946 . S
H222 C242 0.953 . S
H223 C243 0.945 . S
H224 C245 0.952 . S
H225 C246 0.949 . S
H226 C248 0.950 . S
H227 C249 0.948 . S
H228 C251 0.951 . S
H229 C216 0.947 . S
H230 C218 0.952 . S
H231 C219 0.950 . S
N232 C235 1.382 . S
N232 C237 1.363 . S
N233 C235 1.371 . S
N233 C236 1.372 . S
N234 C236 1.361 . S
N234 C237 1.377 . S
C235 N232 1.382 . S
C235 N233 1.371 . S
C235 C238 1.480 . S
C236 N233 1.372 . S
C236 N234 1.361 . S
C236 C244 1.457 . S
C237 N232 1.363 . S
C237 N234 1.377 . S
C237 C250 1.479 . S
C238 C235 1.480 . S
C238 C239 1.383 . S
C238 C243 1.385 . S
C239 H220 0.947 . S
C239 C238 1.383 . S
C239 C240 1.388 . S
C240 H221 0.946 . S
C240 C239 1.388 . S
C240 C241 1.384 . S
C241 C240 1.384 . S
C241 C242 1.377 . S
C242 H222 0.953 . S
C242 C241 1.377 . S
C242 C243 1.369 . S
C243 H223 0.945 . S
C243 C238 1.385 . S
C243 C242 1.369 . S
C244 C236 1.457 . S
C244 C245 1.372 . S
C244 C249 1.364 . S
C245 H224 0.952 . S
C245 C244 1.372 . S
C245 C246 1.389 . S
C246 H225 0.949 . S
C246 C245 1.389 . S
C246 C247 1.387 . S
C247 C246 1.387 . S
C247 C248 1.372 . S
C248 H226 0.950 . S
C248 C247 1.372 . S
C248 C249 1.379 . S
C249 H227 0.948 . S
C249 C244 1.364 . S
C249 C248 1.379 . S
C250 C219 1.383 . S
C250 C237 1.479 . S
C250 C251 1.398 . S
C251 C216 1.382 . S
C251 H228 0.951 . S
C251 C250 1.398 . S
C252 C253 1.384 . S
C252 H265 0.947 . S
C252 C287 1.382 . S
C253 C252 1.384 . S
C253 C254 1.378 . S
C254 C253 1.378 . S
C254 C255 1.378 . S
C254 H266 0.952 . S
C255 C254 1.378 . S
C255 H267 0.950 . S
C255 C286 1.383 . S
H256 C275 0.947 . S
H257 C276 0.946 . S
H258 C278 0.953 . S
H259 C279 0.945 . S
H260 C281 0.952 . S
H261 C282 0.949 . S
H262 C284 0.950 . S
H263 C285 0.948 . S
H264 C287 0.951 . S
H265 C252 0.947 . S
H266 C254 0.952 . S
H267 C255 0.950 . S
N268 C271 1.382 . S
N268 C273 1.363 . S
N269 C271 1.371 . S
N269 C272 1.372 . S
N270 C272 1.361 . S
N270 C273 1.377 . S
C271 N268 1.382 . S
C271 N269 1.371 . S
C271 C274 1.480 . S
C272 N269 1.372 . S
C272 N270 1.361 . S
C272 C280 1.457 . S
C273 N268 1.363 . S
C273 N270 1.377 . S
C273 C286 1.479 . S
C274 C271 1.480 . S
C274 C275 1.383 . S
C274 C279 1.385 . S
C275 H256 0.947 . S
C275 C274 1.383 . S
C275 C276 1.388 . S
C276 H257 0.946 . S
C276 C275 1.388 . S
C276 C277 1.384 . S
C277 C276 1.384 . S
C277 C278 1.377 . S
C278 H258 0.953 . S
C278 C277 1.377 . S
C278 C279 1.369 . S
C279 H259 0.945 . S
C279 C274 1.385 . S
C279 C278 1.369 . S
C280 C272 1.457 . S
C280 C281 1.372 . S
C280 C285 1.364 . S
C281 H260 0.952 . S
C281 C280 1.372 . S
C281 C282 1.389 . S
C282 H261 0.949 . S
C282 C281 1.389 . S
C282 C283 1.387 . S
C283 C282 1.387 . S
C283 C284 1.372 . S
C284 H262 0.950 . S
C284 C283 1.372 . S
C284 C285 1.379 . S
C285 H263 0.948 . S
C285 C280 1.364 . S
C285 C284 1.379 . S
C286 C255 1.383 . S
C286 C273 1.479 . S
C286 C287 1.398 . S
C287 C252 1.382 . S
C287 H264 0.951 . S
C287 C286 1.398 . S
Tb288 C290 2.831 . S
Tb288 O308 2.518 . S
Tb288 O309 2.446 . S
Tb288 O310 2.645 1_665 S
Tb288 O311 2.383 1_565 S
Tb288 O312 2.400 1_655 S
Tb288 O316 2.350 . S
Tb288 O319 2.318 1_565 S
Tb289 C299 2.809 . S
Tb289 O310 2.325 . S
Tb289 O313 2.341 1_545 S
Tb289 O314 2.484 . S
Tb289 O315 2.440 . S
Tb289 O316 2.658 1_445 S
Tb289 O317 2.409 1_545 S
Tb289 O318 2.378 1_455 S
C290 Tb288 2.831 . S
C290 C291 1.514 . S
C290 O308 1.248 . S
C290 O309 1.266 . S
C291 C290 1.514 . S
C291 C292 1.359 . S
C291 C296 1.348 . S
C292 C291 1.359 . S
C292 C293 1.380 . S
C292 H320 0.929 . S
C293 C292 1.380 . S
C293 C294 1.347 . S
C293 H321 0.931 . S
C294 C293 1.347 . S
C294 C295 1.369 . S
C295 C294 1.369 . S
C295 C296 1.408 . S
C295 H322 0.930 . S
C296 C291 1.348 . S
C296 C295 1.408 . S
C296 H323 0.930 . S
C297 O310 1.281 . S
C297 O311 1.254 1_455 S
C298 O312 1.236 . S
C298 O313 1.266 . S
C299 Tb289 2.809 . S
C299 C300 1.514 . S
C299 O314 1.248 . S
C299 O315 1.266 . S
C300 C299 1.514 . S
C300 C301 1.359 . S
C300 C305 1.348 . S
C301 C300 1.359 . S
C301 C302 1.380 . S
C301 H324 0.929 . S
C302 C301 1.380 . S
C302 C303 1.347 . S
C302 H325 0.931 . S
C303 C302 1.347 . S
C303 C304 1.369 . S
C304 C303 1.369 . S
C304 C305 1.408 . S
C304 H326 0.930 . S
C305 C300 1.348 . S
C305 C304 1.408 . S
C305 H327 0.930 . S
C306 O316 1.281 . S
C306 O317 1.254 1_655 S
C307 O318 1.236 . S
C307 O319 1.266 . S
O308 Tb288 2.518 . S
O308 C290 1.248 . S
O309 Tb288 2.446 . S
O309 C290 1.266 . S
O310 Tb288 2.645 1_445 S
O310 Tb289 2.325 . S
O310 C297 1.281 . S
O311 Tb288 2.383 1_545 S
O311 C297 1.254 1_655 S
O312 Tb288 2.400 1_455 S
O312 C298 1.236 . S
O313 Tb289 2.341 1_565 S
O313 C298 1.266 . S
O314 Tb289 2.484 . S
O314 C299 1.248 . S
O315 Tb289 2.440 . S
O315 C299 1.266 . S
O316 Tb288 2.350 . S
O316 Tb289 2.658 1_665 S
O316 C306 1.281 . S
O317 Tb289 2.409 1_565 S
O317 C306 1.254 1_455 S
O318 Tb289 2.378 1_655 S
O318 C307 1.236 . S
O319 Tb288 2.318 1_545 S
O319 C307 1.266 . S
H320 C292 0.929 . S
H321 C293 0.931 . S
H322 C295 0.930 . S
H323 C296 0.930 . S
H324 C301 0.929 . S
H325 C302 0.931 . S
H326 C304 0.930 . S
H327 C305 0.930 . S
Tb328 C330 2.809 . S
Tb328 O348 2.484 . S
Tb328 O349 2.440 . S
Tb328 O350 2.658 1_545 S
Tb328 O351 2.409 1_545 S
Tb328 O352 2.378 . S
Tb328 O356 2.325 1_554 S
Tb328 O359 2.341 1_544 S
Tb329 C339 2.809 . S
Tb329 O350 2.325 1_556 S
Tb329 O353 2.341 1_566 S
Tb329 O354 2.484 . S
Tb329 O355 2.440 . S
Tb329 O356 2.658 1_565 S
Tb329 O357 2.409 1_565 S
Tb329 O358 2.378 . S
C330 Tb328 2.809 . S
C330 C331 1.514 . S
C330 O348 1.248 . S
C330 O349 1.266 . S
C331 C330 1.514 . S
C331 C332 1.359 . S
C331 C336 1.348 . S
C332 C331 1.359 . S
C332 C333 1.380 . S
C332 H360 0.929 . S
C333 C332 1.380 . S
C333 C334 1.347 . S
C333 H361 0.931 . S
C334 C333 1.347 . S
C334 C335 1.369 . S
C335 C334 1.369 . S
C335 C336 1.408 . S
C335 H362 0.930 . S
C336 C331 1.348 . S
C336 C335 1.408 . S
C336 H363 0.930 . S
C337 O350 1.281 . S
C337 O351 1.254 . S
C338 O352 1.236 . S
C338 O353 1.266 . S
C339 Tb329 2.809 . S
C339 C340 1.514 . S
C339 O354 1.248 . S
C339 O355 1.266 . S
C340 C339 1.514 . S
C340 C341 1.359 . S
C340 C345 1.348 . S
C341 C340 1.359 . S
C341 C342 1.380 . S
C341 H364 0.929 . S
C342 C341 1.380 . S
C342 C343 1.347 . S
C342 H365 0.931 . S
C343 C342 1.347 . S
C343 C344 1.369 . S
C344 C343 1.369 . S
C344 C345 1.408 . S
C344 H366 0.930 . S
C345 C340 1.348 . S
C345 C344 1.408 . S
C345 H367 0.930 . S
C346 O356 1.281 . S
C346 O357 1.254 . S
C347 O358 1.236 . S
C347 O359 1.266 . S
O348 Tb328 2.484 . S
O348 C330 1.248 . S
O349 Tb328 2.440 . S
O349 C330 1.266 . S
O350 Tb328 2.658 1_565 S
O350 Tb329 2.325 1_554 S
O350 C337 1.281 . S
O351 Tb328 2.409 1_565 S
O351 C337 1.254 . S
O352 Tb328 2.378 . S
O352 C338 1.236 . S
O353 Tb329 2.341 1_544 S
O353 C338 1.266 . S
O354 Tb329 2.484 . S
O354 C339 1.248 . S
O355 Tb329 2.440 . S
O355 C339 1.266 . S
O356 Tb328 2.325 1_556 S
O356 Tb329 2.658 1_545 S
O356 C346 1.281 . S
O357 Tb329 2.409 1_545 S
O357 C346 1.254 . S
O358 Tb329 2.378 . S
O358 C347 1.236 . S
O359 Tb328 2.341 1_566 S
O359 C347 1.266 . S
H360 C332 0.929 . S
H361 C333 0.931 . S
H362 C335 0.930 . S
H363 C336 0.930 . S
H364 C341 0.929 . S
H365 C342 0.931 . S
H366 C344 0.930 . S
H367 C345 0.930 . S
Tb368 C370 2.809 . S
Tb368 O388 2.484 . S
Tb368 O389 2.440 . S
Tb368 O390 2.658 . S
Tb368 O391 2.409 . S
Tb368 O392 2.378 . S
Tb368 O396 2.325 . S
Tb368 O399 2.341 . S
Tb369 C379 2.809 . S
Tb369 O390 2.325 . S
Tb369 O393 2.341 . S
Tb369 O394 2.484 . S
Tb369 O395 2.440 . S
Tb369 O396 2.658 . S
Tb369 O397 2.409 . S
Tb369 O398 2.378 . S
C370 Tb368 2.809 . S
C370 C371 1.514 . S
C370 O388 1.248 . S
C370 O389 1.266 . S
C371 C370 1.514 . S
C371 C372 1.359 . S
C371 C376 1.348 . S
C372 C371 1.359 . S
C372 C373 1.380 . S
C372 H400 0.929 . S
C373 C372 1.380 . S
C373 C374 1.347 . S
C373 H401 0.931 . S
C374 C373 1.347 . S
C374 C375 1.369 . S
C375 C374 1.369 . S
C375 C376 1.408 . S
C375 H402 0.930 . S
C376 C371 1.348 . S
C376 C375 1.408 . S
C376 H403 0.930 . S
C377 O390 1.281 . S
C377 O391 1.254 . S
C378 O392 1.236 . S
C378 O393 1.266 . S
C379 Tb369 2.809 . S
C379 C380 1.514 . S
C379 O394 1.248 . S
C379 O395 1.266 . S
C380 C379 1.514 . S
C380 C381 1.359 . S
C380 C385 1.348 . S
C381 C380 1.359 . S
C381 C382 1.380 . S
C381 H404 0.929 . S
C382 C381 1.380 . S
C382 C383 1.347 . S
C382 H405 0.931 . S
C383 C382 1.347 . S
C383 C384 1.369 . S
C384 C383 1.369 . S
C384 C385 1.408 . S
C384 H406 0.930 . S
C385 C380 1.348 . S
C385 C384 1.408 . S
C385 H407 0.930 . S
C386 O396 1.281 . S
C386 O397 1.254 . S
C387 O398 1.236 . S
C387 O399 1.266 . S
O388 Tb368 2.484 . S
O388 C370 1.248 . S
O389 Tb368 2.440 . S
O389 C370 1.266 . S
O390 Tb368 2.658 . S
O390 Tb369 2.325 . S
O390 C377 1.281 . S
O391 Tb368 2.409 . S
O391 C377 1.254 . S
O392 Tb368 2.378 . S
O392 C378 1.236 . S
O393 Tb369 2.341 . S
O393 C378 1.266 . S
O394 Tb369 2.484 . S
O394 C379 1.248 . S
O395 Tb369 2.440 . S
O395 C379 1.266 . S
O396 Tb368 2.325 . S
O396 Tb369 2.658 . S
O396 C386 1.281 . S
O397 Tb369 2.409 . S
O397 C386 1.254 . S
O398 Tb369 2.378 . S
O398 C387 1.236 . S
O399 Tb368 2.341 . S
O399 C387 1.266 . S
H400 C372 0.929 . S
H401 C373 0.931 . S
H402 C375 0.930 . S
H403 C376 0.930 . S
H404 C381 0.929 . S
H405 C382 0.931 . S
H406 C384 0.930 . S
H407 C385 0.930 . S
Tb408 C410 2.802 1_455 S
Tb408 O428 2.475 1_455 S
Tb408 O429 2.437 1_455 S
Tb408 O430 2.664 1_556 S
Tb408 O431 2.415 1_556 S
Tb408 O432 2.374 1_456 S
Tb408 O436 2.321 1_455 S
Tb408 O439 2.348 . S
Tb409 C419 2.809 . S
Tb409 O430 2.325 . S
Tb409 O433 2.341 1_455 S
Tb409 O434 2.484 . S
Tb409 O435 2.440 . S
Tb409 O436 2.658 1_454 S
Tb409 O437 2.409 1_455 S
Tb409 O438 2.378 1_554 S
C410 Tb408 2.802 1_655 S
C410 C411 1.514 . S
C410 O428 1.248 . S
C410 O429 1.266 . S
C411 C410 1.514 . S
C411 C412 1.359 . S
C411 C416 1.348 . S
C412 C411 1.359 . S
C412 C413 1.380 . S
C412 H440 0.929 . S
C413 C412 1.380 . S
C413 C414 1.347 . S
C413 H441 0.931 . S
C414 C413 1.347 . S
C414 C415 1.369 . S
C415 C414 1.369 . S
C415 C416 1.408 . S
C415 H442 0.930 . S
C416 C411 1.348 . S
C416 C415 1.408 . S
C416 H443 0.930 . S
C417 O430 1.281 . S
C417 O431 1.254 . S
C418 O432 1.236 . S
C418 O433 1.266 . S
C419 Tb409 2.809 . S
C419 C420 1.514 . S
C419 O434 1.248 . S
C419 O435 1.266 . S
C420 C419 1.514 . S
C420 C421 1.359 . S
C420 C425 1.348 . S
C421 C420 1.359 . S
C421 C422 1.380 . S
C421 H444 0.929 . S
C422 C421 1.380 . S
C422 C423 1.347 . S
C422 H445 0.931 . S
C423 C422 1.347 . S
C423 C424 1.369 . S
C424 C423 1.369 . S
C424 C425 1.408 . S
C424 H446 0.930 . S
C425 C420 1.348 . S
C425 C424 1.408 . S
C425 H447 0.930 . S
C426 O436 1.281 . S
C426 O437 1.254 1_556 S
C427 O438 1.236 . S
C427 O439 1.266 . S
O428 Tb408 2.475 1_655 S
O428 C410 1.248 . S
O429 Tb408 2.437 1_655 S
O429 C410 1.266 . S
O430 Tb408 2.664 1_554 S
O430 Tb409 2.325 . S
O430 C417 1.281 . S
O431 Tb408 2.415 1_554 S
O431 C417 1.254 . S
O432 Tb408 2.374 1_654 S
O432 C418 1.236 . S
O433 Tb409 2.341 1_655 S
O433 C418 1.266 . S
O434 Tb409 2.484 . S
O434 C419 1.248 . S
O435 Tb409 2.440 . S
O435 C419 1.266 . S
O436 Tb408 2.321 1_655 S
O436 Tb409 2.658 1_656 S
O436 C426 1.281 . S
O437 Tb409 2.409 1_655 S
O437 C426 1.254 1_554 S
O438 Tb409 2.378 1_556 S
O438 C427 1.236 . S
O439 Tb408 2.348 . S
O439 C427 1.266 . S
H440 C412 0.929 . S
H441 C413 0.931 . S
H442 C415 0.930 . S
H443 C416 0.930 . S
H444 C421 0.929 . S
H445 C422 0.931 . S
H446 C424 0.930 . S
H447 C425 0.930 . S
C448 C449 1.391 . S
C448 C450 1.394 . S
C448 H464 0.931 . S
C449 C448 1.391 . S
C449 C453 1.376 . S
C450 C448 1.394 . S
C450 C451 1.369 . S
C450 C454 1.531 . S
C451 C450 1.369 . S
C451 C452 1.410 . S
C451 C459 1.503 . S
C452 C451 1.410 . S
C452 C453 1.392 . S
C452 C455 1.511 . S
C453 C449 1.376 . S
C453 C452 1.392 . S
C453 H465 0.929 . S
C454 C450 1.531 . S
C454 H466 0.960 . S
C454 H467 0.962 . S
C454 H468 0.960 . S
C455 C452 1.511 . S
C455 H469 0.961 . S
C455 H470 0.961 . S
C455 H471 0.961 . S
C456 C457 1.370 . S
C456 C458 1.363 . S
C456 H472 0.931 . S
C457 C456 1.370 . S
C457 C461 1.408 . S
C458 C456 1.363 . S
C458 C459 1.370 . S
C458 C462 1.524 . S
C459 C451 1.503 . S
C459 C458 1.370 . S
C459 C460 1.403 . S
C460 C459 1.403 . S
C460 C461 1.404 . S
C460 C463 1.539 . S
C461 C457 1.408 . S
C461 C460 1.404 . S
C461 H473 0.930 . S
C462 C458 1.524 . S
C462 H474 0.956 . S
C462 H475 0.961 . S
C462 H476 0.961 . S
C463 C460 1.539 . S
C463 H477 0.958 . S
C463 H478 0.961 . S
C463 H479 0.960 . S
H464 C448 0.931 . S
H465 C453 0.929 . S
H466 C454 0.960 . S
H467 C454 0.962 . S
H468 C454 0.960 . S
H469 C455 0.961 . S
H470 C455 0.961 . S
H471 C455 0.961 . S
H472 C456 0.931 . S
H473 C461 0.930 . S
H474 C462 0.956 . S
H475 C462 0.961 . S
H476 C462 0.961 . S
H477 C463 0.958 . S
H478 C463 0.961 . S
H479 C463 0.960 . S
C480 C481 1.391 . S
C480 C482 1.394 . S
C480 H496 0.931 . S
C481 C480 1.391 . S
C481 C485 1.376 . S
C482 C480 1.394 . S
C482 C483 1.369 . S
C482 C486 1.531 . S
C483 C482 1.369 . S
C483 C484 1.410 . S
C483 C491 1.503 . S
C484 C483 1.410 . S
C484 C485 1.392 . S
C484 C487 1.511 . S
C485 C481 1.376 . S
C485 C484 1.392 . S
C485 H497 0.929 . S
C486 C482 1.531 . S
C486 H498 0.960 . S
C486 H499 0.962 . S
C486 H500 0.960 . S
C487 C484 1.511 . S
C487 H501 0.961 . S
C487 H502 0.961 . S
C487 H503 0.961 . S
C488 C489 1.370 . S
C488 C490 1.363 . S
C488 H504 0.931 . S
C489 C488 1.370 . S
C489 C493 1.408 . S
C490 C488 1.363 . S
C490 C491 1.370 . S
C490 C494 1.524 . S
C491 C483 1.503 . S
C491 C490 1.370 . S
C491 C492 1.403 . S
C492 C491 1.403 . S
C492 C493 1.404 . S
C492 C495 1.539 . S
C493 C489 1.408 . S
C493 C492 1.404 . S
C493 H505 0.930 . S
C494 C490 1.524 . S
C494 H506 0.956 . S
C494 H507 0.961 . S
C494 H508 0.961 . S
C495 C492 1.539 . S
C495 H509 0.958 . S
C495 H510 0.961 . S
C495 H511 0.960 . S
H496 C480 0.931 . S
H497 C485 0.929 . S
H498 C486 0.960 . S
H499 C486 0.962 . S
H500 C486 0.960 . S
H501 C487 0.961 . S
H502 C487 0.961 . S
H503 C487 0.961 . S
H504 C488 0.931 . S
H505 C493 0.930 . S
H506 C494 0.956 . S
H507 C494 0.961 . S
H508 C494 0.961 . S
H509 C495 0.958 . S
H510 C495 0.961 . S
H511 C495 0.960 . S
C512 C513 1.391 . S
C512 C514 1.394 . S
C512 H528 0.931 . S
C513 C512 1.391 . S
C513 C517 1.376 . S
C514 C512 1.394 . S
C514 C515 1.369 . S
C514 C518 1.531 . S
C515 C514 1.369 . S
C515 C516 1.410 . S
C515 C523 1.503 . S
C516 C515 1.410 . S
C516 C517 1.392 . S
C516 C519 1.511 . S
C517 C513 1.376 . S
C517 C516 1.392 . S
C517 H529 0.929 . S
C518 C514 1.531 . S
C518 H530 0.960 . S
C518 H531 0.962 . S
C518 H532 0.960 . S
C519 C516 1.511 . S
C519 H533 0.961 . S
C519 H534 0.961 . S
C519 H535 0.961 . S
C520 C521 1.370 . S
C520 C522 1.363 . S
C520 H536 0.931 . S
C521 C520 1.370 . S
C521 C525 1.408 . S
C522 C520 1.363 . S
C522 C523 1.370 . S
C522 C526 1.524 . S
C523 C515 1.503 . S
C523 C522 1.370 . S
C523 C524 1.403 . S
C524 C523 1.403 . S
C524 C525 1.404 . S
C524 C527 1.539 . S
C525 C521 1.408 . S
C525 C524 1.404 . S
C525 H537 0.930 . S
C526 C522 1.524 . S
C526 H538 0.956 . S
C526 H539 0.961 . S
C526 H540 0.961 . S
C527 C524 1.539 . S
C527 H541 0.958 . S
C527 H542 0.961 . S
C527 H543 0.960 . S
H528 C512 0.931 . S
H529 C517 0.929 . S
H530 C518 0.960 . S
H531 C518 0.962 . S
H532 C518 0.960 . S
H533 C519 0.961 . S
H534 C519 0.961 . S
H535 C519 0.961 . S
H536 C520 0.931 . S
H537 C525 0.930 . S
H538 C526 0.956 . S
H539 C526 0.961 . S
H540 C526 0.961 . S
H541 C527 0.958 . S
H542 C527 0.961 . S
H543 C527 0.960 . S
C544 C545 1.391 . S
C544 C546 1.394 . S
C544 H560 0.931 . S
C545 C544 1.391 . S
C545 C549 1.376 . S
C546 C544 1.394 . S
C546 C547 1.369 . S
C546 C550 1.531 . S
C547 C546 1.369 . S
C547 C548 1.410 . S
C547 C555 1.503 . S
C548 C547 1.410 . S
C548 C549 1.392 . S
C548 C551 1.511 . S
C549 C545 1.376 . S
C549 C548 1.392 . S
C549 H561 0.929 . S
C550 C546 1.531 . S
C550 H562 0.960 . S
C550 H563 0.962 . S
C550 H564 0.960 . S
C551 C548 1.511 . S
C551 H565 0.961 . S
C551 H566 0.961 . S
C551 H567 0.961 . S
C552 C553 1.370 . S
C552 C554 1.363 . S
C552 H568 0.931 . S
C553 C552 1.370 . S
C553 C557 1.408 . S
C554 C552 1.363 . S
C554 C555 1.370 . S
C554 C558 1.524 . S
C555 C547 1.503 . S
C555 C554 1.370 . S
C555 C556 1.403 . S
C556 C555 1.403 . S
C556 C557 1.404 . S
C556 C559 1.539 . S
C557 C553 1.408 . S
C557 C556 1.404 . S
C557 H569 0.930 . S
C558 C554 1.524 . S
C558 H570 0.956 . S
C558 H571 0.961 . S
C558 H572 0.961 . S
C559 C556 1.539 . S
C559 H573 0.958 . S
C559 H574 0.961 . S
C559 H575 0.960 . S
H560 C544 0.931 . S
H561 C549 0.929 . S
H562 C550 0.960 . S
H563 C550 0.962 . S
H564 C550 0.960 . S
H565 C551 0.961 . S
H566 C551 0.961 . S
H567 C551 0.961 . S
H568 C552 0.931 . S
H569 C557 0.930 . S
H570 C558 0.956 . S
H571 C558 0.961 . S
H572 C558 0.961 . S
H573 C559 0.958 . S
H574 C559 0.961 . S
H575 C559 0.960 . S
C576 C577 1.391 . S
C576 C578 1.394 . S
C576 H592 0.931 . S
C577 C576 1.391 . S
C577 C581 1.376 . S
C578 C576 1.394 . S
C578 C579 1.369 . S
C578 C582 1.531 . S
C579 C578 1.369 . S
C579 C580 1.410 . S
C579 C587 1.503 . S
C580 C579 1.410 . S
C580 C581 1.392 . S
C580 C583 1.511 . S
C581 C577 1.376 . S
C581 C580 1.392 . S
C581 H593 0.929 . S
C582 C578 1.531 . S
C582 H594 0.960 . S
C582 H595 0.962 . S
C582 H596 0.960 . S
C583 C580 1.511 . S
C583 H597 0.961 . S
C583 H598 0.961 . S
C583 H599 0.961 . S
C584 C585 1.370 . S
C584 C586 1.363 . S
C584 H600 0.931 . S
C585 C584 1.370 . S
C585 C589 1.408 . S
C586 C584 1.363 . S
C586 C587 1.370 . S
C586 C590 1.524 . S
C587 C579 1.503 . S
C587 C586 1.370 . S
C587 C588 1.403 . S
C588 C587 1.403 . S
C588 C589 1.404 . S
C588 C591 1.539 . S
C589 C585 1.408 . S
C589 C588 1.404 . S
C589 H601 0.930 . S
C590 C586 1.524 . S
C590 H602 0.956 . S
C590 H603 0.961 . S
C590 H604 0.961 . S
C591 C588 1.539 . S
C591 H605 0.958 . S
C591 H606 0.961 . S
C591 H607 0.960 . S
H592 C576 0.931 . S
H593 C581 0.929 . S
H594 C582 0.960 . S
H595 C582 0.962 . S
H596 C582 0.960 . S
H597 C583 0.961 . S
H598 C583 0.961 . S
H599 C583 0.961 . S
H600 C584 0.931 . S
H601 C589 0.930 . S
H602 C590 0.956 . S
H603 C590 0.961 . S
H604 C590 0.961 . S
H605 C591 0.958 . S
H606 C591 0.961 . S
H607 C591 0.960 . S
C608 C609 1.391 . S
C608 C610 1.394 . S
C608 H624 0.931 . S
C609 C608 1.391 . S
C609 C613 1.376 . S
C610 C608 1.394 . S
C610 C611 1.369 . S
C610 C614 1.531 . S
C611 C610 1.369 . S
C611 C612 1.410 . S
C611 C619 1.503 . S
C612 C611 1.410 . S
C612 C613 1.392 . S
C612 C615 1.511 . S
C613 C609 1.376 . S
C613 C612 1.392 . S
C613 H625 0.929 . S
C614 C610 1.531 . S
C614 H626 0.960 . S
C614 H627 0.962 . S
C614 H628 0.960 . S
C615 C612 1.511 . S
C615 H629 0.961 . S
C615 H630 0.961 . S
C615 H631 0.961 . S
C616 C617 1.370 . S
C616 C618 1.363 . S
C616 H632 0.931 1_455 S
C617 C616 1.370 . S
C617 C621 1.408 . S
C618 C616 1.363 . S
C618 C619 1.370 . S
C618 C622 1.524 1_455 S
C619 C611 1.503 . S
C619 C618 1.370 . S
C619 C620 1.403 . S
C620 C619 1.403 . S
C620 C621 1.404 . S
C620 C623 1.539 . S
C621 C617 1.408 . S
C621 C620 1.404 . S
C621 H633 0.930 . S
C622 C618 1.524 1_655 S
C622 H634 0.956 1_655 S
C622 H635 0.961 . S
C622 H636 0.961 . S
C623 C620 1.539 . S
C623 H637 0.958 . S
C623 H638 0.961 . S
C623 H639 0.960 . S
H624 C608 0.931 . S
H625 C613 0.929 . S
H626 C614 0.960 . S
H627 C614 0.962 . S
H628 C614 0.960 . S
H629 C615 0.961 . S
H630 C615 0.961 . S
H631 C615 0.961 . S
H632 C616 0.931 1_655 S
H633 C621 0.930 . S
H634 C622 0.956 1_455 S
H635 C622 0.961 . S
H636 C622 0.961 . S
H637 C623 0.958 . S
H638 C623 0.961 . S
H639 C623 0.960 . S
C640 C641 1.391 . S
C640 C642 1.394 . S
C640 H656 0.931 . S
C641 C640 1.391 . S
C641 C645 1.376 . S
C642 C640 1.394 . S
C642 C643 1.369 . S
C642 C646 1.531 . S
C643 C642 1.369 . S
C643 C644 1.410 . S
C643 C651 1.503 . S
C644 C643 1.410 . S
C644 C645 1.392 . S
C644 C647 1.511 . S
C645 C641 1.376 . S
C645 C644 1.392 . S
C645 H657 0.929 . S
C646 C642 1.531 . S
C646 H658 0.960 . S
C646 H659 0.962 . S
C646 H660 0.960 . S
C647 C644 1.511 . S
C647 H661 0.961 . S
C647 H662 0.961 . S
C647 H663 0.961 . S
C648 C649 1.370 . S
C648 C650 1.363 . S
C648 H664 0.931 . S
C649 C648 1.370 . S
C649 C653 1.408 . S
C650 C648 1.363 . S
C650 C651 1.370 . S
C650 C654 1.524 . S
C651 C643 1.503 . S
C651 C650 1.370 . S
C651 C652 1.403 . S
C652 C651 1.403 . S
C652 C653 1.404 . S
C652 C655 1.539 . S
C653 C649 1.408 . S
C653 C652 1.404 . S
C653 H665 0.930 . S
C654 C650 1.524 . S
C654 H666 0.956 . S
C654 H667 0.961 . S
C654 H668 0.961 . S
C655 C652 1.539 . S
C655 H669 0.958 . S
C655 H670 0.961 . S
C655 H671 0.960 . S
H656 C640 0.931 . S
H657 C645 0.929 . S
H658 C646 0.960 . S
H659 C646 0.962 . S
H660 C646 0.960 . S
H661 C647 0.961 . S
H662 C647 0.961 . S
H663 C647 0.961 . S
H664 C648 0.931 . S
H665 C653 0.930 . S
H666 C654 0.956 . S
H667 C654 0.961 . S
H668 C654 0.961 . S
H669 C655 0.958 . S
H670 C655 0.961 . S
H671 C655 0.960 . S
C672 C673 1.391 . S
C672 C674 1.394 . S
C672 H688 0.931 . S
C673 C672 1.391 . S
C673 C677 1.376 . S
C674 C672 1.394 . S
C674 C675 1.369 . S
C674 C678 1.531 . S
C675 C674 1.369 . S
C675 C676 1.410 . S
C675 C683 1.503 . S
C676 C675 1.410 . S
C676 C677 1.392 . S
C676 C679 1.511 . S
C677 C673 1.376 . S
C677 C676 1.392 . S
C677 H689 0.929 . S
C678 C674 1.531 . S
C678 H690 0.960 . S
C678 H691 0.962 . S
C678 H692 0.960 . S
C679 C676 1.511 . S
C679 H693 0.961 . S
C679 H694 0.961 . S
C679 H695 0.961 . S
C680 C681 1.370 . S
C680 C682 1.363 . S
C680 H696 0.931 . S
C681 C680 1.370 . S
C681 C685 1.408 . S
C682 C680 1.363 . S
C682 C683 1.370 . S
C682 C686 1.524 . S
C683 C675 1.503 . S
C683 C682 1.370 . S
C683 C684 1.403 . S
C684 C683 1.403 . S
C684 C685 1.404 . S
C684 C687 1.539 . S
C685 C681 1.408 . S
C685 C684 1.404 . S
C685 H697 0.930 . S
C686 C682 1.524 . S
C686 H698 0.956 . S
C686 H699 0.961 . S
C686 H700 0.961 . S
C687 C684 1.539 . S
C687 H701 0.958 . S
C687 H702 0.961 . S
C687 H703 0.960 . S
H688 C672 0.931 . S
H689 C677 0.929 . S
H690 C678 0.960 . S
H691 C678 0.962 . S
H692 C678 0.960 . S
H693 C679 0.961 . S
H694 C679 0.961 . S
H695 C679 0.961 . S
H696 C680 0.931 . S
H697 C685 0.930 . S
H698 C686 0.956 . S
H699 C686 0.961 . S
H700 C686 0.961 . S
H701 C687 0.958 . S
H702 C687 0.961 . S
H703 C687 0.960 . S
C704 C705 1.391 . S
C704 C706 1.394 . S
C704 H720 0.931 . S
C705 C704 1.391 . S
C705 C709 1.376 . S
C706 C704 1.394 . S
C706 C707 1.369 . S
C706 C710 1.531 . S
C707 C706 1.369 . S
C707 C708 1.410 . S
C707 C715 1.503 . S
C708 C707 1.410 . S
C708 C709 1.392 . S
C708 C711 1.511 . S
C709 C705 1.376 . S
C709 C708 1.392 . S
C709 H721 0.929 . S
C710 C706 1.531 . S
C710 H722 0.960 . S
C710 H723 0.962 . S
C710 H724 0.960 . S
C711 C708 1.511 . S
C711 H725 0.961 . S
C711 H726 0.961 . S
C711 H727 0.961 . S
C712 C713 1.370 . S
C712 C714 1.363 . S
C712 H728 0.931 . S
C713 C712 1.370 . S
C713 C717 1.408 . S
C714 C712 1.363 . S
C714 C715 1.370 . S
C714 C718 1.524 . S
C715 C707 1.503 . S
C715 C714 1.370 . S
C715 C716 1.403 . S
C716 C715 1.403 . S
C716 C717 1.404 . S
C716 C719 1.539 . S
C717 C713 1.408 . S
C717 C716 1.404 . S
C717 H729 0.930 . S
C718 C714 1.524 . S
C718 H730 0.956 . S
C718 H731 0.961 . S
C718 H732 0.961 . S
C719 C716 1.539 . S
C719 H733 0.958 . S
C719 H734 0.961 . S
C719 H735 0.960 . S
H720 C704 0.931 . S
H721 C709 0.929 . S
H722 C710 0.960 . S
H723 C710 0.962 . S
H724 C710 0.960 . S
H725 C711 0.961 . S
H726 C711 0.961 . S
H727 C711 0.961 . S
H728 C712 0.931 . S
H729 C717 0.930 . S
H730 C718 0.956 . S
H731 C718 0.961 . S
H732 C718 0.961 . S
H733 C719 0.958 . S
H734 C719 0.961 . S
H735 C719 0.960 . S
C736 C737 1.391 . S
C736 C738 1.394 . S
C736 H752 0.931 . S
C737 C736 1.391 . S
C737 C741 1.376 . S
C738 C736 1.394 . S
C738 C739 1.369 . S
C738 C742 1.531 . S
C739 C738 1.369 . S
C739 C740 1.410 . S
C739 C747 1.503 . S
C740 C739 1.410 . S
C740 C741 1.392 . S
C740 C743 1.511 . S
C741 C737 1.376 . S
C741 C740 1.392 . S
C741 H753 0.929 . S
C742 C738 1.531 . S
C742 H754 0.960 . S
C742 H755 0.962 . S
C742 H756 0.960 . S
C743 C740 1.511 . S
C743 H757 0.961 . S
C743 H758 0.961 . S
C743 H759 0.961 . S
C744 C745 1.370 . S
C744 C746 1.363 . S
C744 H760 0.931 . S
C745 C744 1.370 . S
C745 C749 1.408 . S
C746 C744 1.363 . S
C746 C747 1.370 . S
C746 C750 1.524 . S
C747 C739 1.503 . S
C747 C746 1.370 . S
C747 C748 1.403 . S
C748 C747 1.403 . S
C748 C749 1.404 . S
C748 C751 1.539 . S
C749 C745 1.408 . S
C749 C748 1.404 . S
C749 H761 0.930 . S
C750 C746 1.524 . S
C750 H762 0.956 . S
C750 H763 0.961 . S
C750 H764 0.961 . S
C751 C748 1.539 . S
C751 H765 0.958 . S
C751 H766 0.961 . S
C751 H767 0.960 . S
H752 C736 0.931 . S
H753 C741 0.929 . S
H754 C742 0.960 . S
H755 C742 0.962 . S
H756 C742 0.960 . S
H757 C743 0.961 . S
H758 C743 0.961 . S
H759 C743 0.961 . S
H760 C744 0.931 . S
H761 C749 0.930 . S
H762 C750 0.956 . S
H763 C750 0.961 . S
H764 C750 0.961 . S
H765 C751 0.958 . S
H766 C751 0.961 . S
H767 C751 0.960 . S
C768 C769 1.391 . S
C768 C770 1.394 . S
C768 H784 0.931 . S
C769 C768 1.391 . S
C769 C773 1.376 . S
C770 C768 1.394 . S
C770 C771 1.369 . S
C770 C774 1.531 . S
C771 C770 1.369 . S
C771 C772 1.410 . S
C771 C779 1.503 . S
C772 C771 1.410 . S
C772 C773 1.392 . S
C772 C775 1.511 . S
C773 C769 1.376 . S
C773 C772 1.392 . S
C773 H785 0.929 . S
C774 C770 1.531 . S
C774 H786 0.960 . S
C774 H787 0.962 . S
C774 H788 0.960 . S
C775 C772 1.511 . S
C775 H789 0.961 . S
C775 H790 0.961 . S
C775 H791 0.961 . S
C776 C777 1.370 . S
C776 C778 1.363 . S
C776 H792 0.931 . S
C777 C776 1.370 . S
C777 C781 1.408 . S
C778 C776 1.363 . S
C778 C779 1.370 . S
C778 C782 1.524 . S
C779 C771 1.503 . S
C779 C778 1.370 . S
C779 C780 1.403 . S
C780 C779 1.403 . S
C780 C781 1.404 . S
C780 C783 1.539 . S
C781 C777 1.408 . S
C781 C780 1.404 . S
C781 H793 0.930 . S
C782 C778 1.524 . S
C782 H794 0.956 . S
C782 H795 0.961 . S
C782 H796 0.961 . S
C783 C780 1.539 . S
C783 H797 0.958 . S
C783 H798 0.961 . S
C783 H799 0.960 . S
H784 C768 0.931 . S
H785 C773 0.929 . S
H786 C774 0.960 . S
H787 C774 0.962 . S
H788 C774 0.960 . S
H789 C775 0.961 . S
H790 C775 0.961 . S
H791 C775 0.961 . S
H792 C776 0.931 . S
H793 C781 0.930 . S
H794 C782 0.956 . S
H795 C782 0.961 . S
H796 C782 0.961 . S
H797 C783 0.958 . S
H798 C783 0.961 . S
H799 C783 0.960 . S
C800 C801 1.391 . S
C800 C802 1.394 . S
C800 H816 0.931 . S
C801 C800 1.391 . S
C801 C805 1.376 . S
C802 C800 1.394 . S
C802 C803 1.369 . S
C802 C806 1.531 . S
C803 C802 1.369 . S
C803 C804 1.410 . S
C803 C811 1.503 . S
C804 C803 1.410 . S
C804 C805 1.392 . S
C804 C807 1.511 . S
C805 C801 1.376 . S
C805 C804 1.392 . S
C805 H817 0.929 . S
C806 C802 1.531 . S
C806 H818 0.960 . S
C806 H819 0.962 . S
C806 H820 0.960 . S
C807 C804 1.511 . S
C807 H821 0.961 . S
C807 H822 0.961 . S
C807 H823 0.961 . S
C808 C809 1.370 . S
C808 C810 1.363 . S
C808 H824 0.931 . S
C809 C808 1.370 . S
C809 C813 1.408 . S
C810 C808 1.363 . S
C810 C811 1.370 . S
C810 C814 1.524 . S
C811 C803 1.503 . S
C811 C810 1.370 . S
C811 C812 1.403 . S
C812 C811 1.403 . S
C812 C813 1.404 . S
C812 C815 1.539 . S
C813 C809 1.408 . S
C813 C812 1.404 . S
C813 H825 0.930 . S
C814 C810 1.524 . S
C814 H826 0.956 . S
C814 H827 0.961 . S
C814 H828 0.961 . S
C815 C812 1.539 . S
C815 H829 0.958 . S
C815 H830 0.961 . S
C815 H831 0.960 . S
H816 C800 0.931 . S
H817 C805 0.929 . S
H818 C806 0.960 . S
H819 C806 0.962 . S
H820 C806 0.960 . S
H821 C807 0.961 . S
H822 C807 0.961 . S
H823 C807 0.961 . S
H824 C808 0.931 . S
H825 C813 0.930 . S
H826 C814 0.956 . S
H827 C814 0.961 . S
H828 C814 0.961 . S
H829 C815 0.958 . S
H830 C815 0.961 . S
H831 C815 0.960 . S
C832 C833 1.391 . S
C832 C834 1.394 . S
C832 H848 0.931 . S
C833 C832 1.391 . S
C833 C837 1.376 . S
C834 C832 1.394 . S
C834 C835 1.369 . S
C834 C838 1.531 . S
C835 C834 1.369 . S
C835 C836 1.410 . S
C835 C843 1.503 . S
C836 C835 1.410 . S
C836 C837 1.392 . S
C836 C839 1.511 . S
C837 C833 1.376 . S
C837 C836 1.392 . S
C837 H849 0.929 . S
C838 C834 1.531 . S
C838 H850 0.960 . S
C838 H851 0.962 . S
C838 H852 0.960 . S
C839 C836 1.511 . S
C839 H853 0.961 . S
C839 H854 0.961 . S
C839 H855 0.961 . S
C840 C841 1.370 . S
C840 C842 1.363 . S
C840 H856 0.931 . S
C841 C840 1.370 . S
C841 C845 1.408 . S
C842 C840 1.363 . S
C842 C843 1.370 . S
C842 C846 1.524 . S
C843 C835 1.503 . S
C843 C842 1.370 . S
C843 C844 1.403 . S
C844 C843 1.403 . S
C844 C845 1.404 . S
C844 C847 1.539 . S
C845 C841 1.408 . S
C845 C844 1.404 . S
C845 H857 0.930 . S
C846 C842 1.524 . S
C846 H858 0.956 . S
C846 H859 0.961 . S
C846 H860 0.961 . S
C847 C844 1.539 . S
C847 H861 0.958 . S
C847 H862 0.961 . S
C847 H863 0.960 . S
H848 C832 0.931 . S
H849 C837 0.929 . S
H850 C838 0.960 . S
H851 C838 0.962 . S
H852 C838 0.960 . S
H853 C839 0.961 . S
H854 C839 0.961 . S
H855 C839 0.961 . S
H856 C840 0.931 . S
H857 C845 0.930 . S
H858 C846 0.956 . S
H859 C846 0.961 . S
H860 C846 0.961 . S
H861 C847 0.958 . S
H862 C847 0.961 . S
H863 C847 0.960 . S
C864 C865 1.391 . S
C864 C866 1.394 . S
C864 H880 0.931 . S
C865 C864 1.391 . S
C865 C869 1.376 . S
C866 C864 1.394 . S
C866 C867 1.369 . S
C866 C870 1.531 . S
C867 C866 1.369 . S
C867 C868 1.410 . S
C867 C875 1.503 . S
C868 C867 1.410 . S
C868 C869 1.392 . S
C868 C871 1.511 . S
C869 C865 1.376 . S
C869 C868 1.392 . S
C869 H881 0.929 . S
C870 C866 1.531 . S
C870 H882 0.960 . S
C870 H883 0.962 . S
C870 H884 0.960 . S
C871 C868 1.511 . S
C871 H885 0.961 . S
C871 H886 0.961 . S
C871 H887 0.961 . S
C872 C873 1.370 . S
C872 C874 1.363 . S
C872 H888 0.931 . S
C873 C872 1.370 . S
C873 C877 1.408 . S
C874 C872 1.363 . S
C874 C875 1.370 . S
C874 C878 1.524 . S
C875 C867 1.503 . S
C875 C874 1.370 . S
C875 C876 1.403 . S
C876 C875 1.403 . S
C876 C877 1.404 . S
C876 C879 1.539 . S
C877 C873 1.408 . S
C877 C876 1.404 . S
C877 H889 0.930 . S
C878 C874 1.524 . S
C878 H890 0.956 . S
C878 H891 0.961 . S
C878 H892 0.961 . S
C879 C876 1.539 . S
C879 H893 0.958 . S
C879 H894 0.961 . S
C879 H895 0.960 . S
H880 C864 0.931 . S
H881 C869 0.929 . S
H882 C870 0.960 . S
H883 C870 0.962 . S
H884 C870 0.960 . S
H885 C871 0.961 . S
H886 C871 0.961 . S
H887 C871 0.961 . S
H888 C872 0.931 . S
H889 C877 0.930 . S
H890 C878 0.956 . S
H891 C878 0.961 . S
H892 C878 0.961 . S
H893 C879 0.958 . S
H894 C879 0.961 . S
H895 C879 0.960 . S
C896 C897 1.391 . S
C896 C898 1.394 . S
C896 H912 0.931 . S
C897 C896 1.391 . S
C897 C901 1.376 . S
C898 C896 1.394 . S
C898 C899 1.369 . S
C898 C902 1.531 . S
C899 C898 1.369 . S
C899 C900 1.410 . S
C899 C907 1.503 . S
C900 C899 1.410 . S
C900 C901 1.392 . S
C900 C903 1.511 . S
C901 C897 1.376 . S
C901 C900 1.392 . S
C901 H913 0.929 . S
C902 C898 1.531 . S
C902 H914 0.960 . S
C902 H915 0.962 . S
C902 H916 0.960 . S
C903 C900 1.511 . S
C903 H917 0.961 . S
C903 H918 0.961 . S
C903 H919 0.961 . S
C904 C905 1.370 . S
C904 C906 1.363 . S
C904 H920 0.931 . S
C905 C904 1.370 . S
C905 C909 1.408 . S
C906 C904 1.363 . S
C906 C907 1.370 . S
C906 C910 1.524 . S
C907 C899 1.503 . S
C907 C906 1.370 . S
C907 C908 1.403 . S
C908 C907 1.403 . S
C908 C909 1.404 . S
C908 C911 1.539 . S
C909 C905 1.408 . S
C909 C908 1.404 . S
C909 H921 0.930 . S
C910 C906 1.524 . S
C910 H922 0.956 . S
C910 H923 0.961 . S
C910 H924 0.961 . S
C911 C908 1.539 . S
C911 H925 0.958 . S
C911 H926 0.961 . S
C911 H927 0.960 . S
H912 C896 0.931 . S
H913 C901 0.929 . S
H914 C902 0.960 . S
H915 C902 0.962 . S
H916 C902 0.960 . S
H917 C903 0.961 . S
H918 C903 0.961 . S
H919 C903 0.961 . S
H920 C904 0.931 . S
H921 C909 0.930 . S
H922 C910 0.956 . S
H923 C910 0.961 . S
H924 C910 0.961 . S
H925 C911 0.958 . S
H926 C911 0.961 . S
H927 C911 0.960 . S
C928 C929 1.391 . S
C928 C930 1.394 . S
C928 H944 0.931 . S
C929 C928 1.391 . S
C929 C933 1.376 . S
C930 C928 1.394 . S
C930 C931 1.369 . S
C930 C934 1.531 . S
C931 C930 1.369 . S
C931 C932 1.410 . S
C931 C939 1.503 . S
C932 C931 1.410 . S
C932 C933 1.392 . S
C932 C935 1.511 . S
C933 C929 1.376 . S
C933 C932 1.392 . S
C933 H945 0.929 . S
C934 C930 1.531 . S
C934 H946 0.960 . S
C934 H947 0.962 . S
C934 H948 0.960 . S
C935 C932 1.511 . S
C935 H949 0.961 . S
C935 H950 0.961 . S
C935 H951 0.961 . S
C936 C937 1.370 . S
C936 C938 1.363 . S
C936 H952 0.931 . S
C937 C936 1.370 . S
C937 C941 1.408 . S
C938 C936 1.363 . S
C938 C939 1.370 . S
C938 C942 1.524 . S
C939 C931 1.503 . S
C939 C938 1.370 . S
C939 C940 1.403 . S
C940 C939 1.403 . S
C940 C941 1.404 . S
C940 C943 1.539 . S
C941 C937 1.408 . S
C941 C940 1.404 . S
C941 H953 0.930 . S
C942 C938 1.524 . S
C942 H954 0.956 . S
C942 H955 0.961 . S
C942 H956 0.961 . S
C943 C940 1.539 . S
C943 H957 0.958 . S
C943 H958 0.961 . S
C943 H959 0.960 . S
H944 C928 0.931 . S
H945 C933 0.929 . S
H946 C934 0.960 . S
H947 C934 0.962 . S
H948 C934 0.960 . S
H949 C935 0.961 . S
H950 C935 0.961 . S
H951 C935 0.961 . S
H952 C936 0.931 . S
H953 C941 0.930 . S
H954 C942 0.956 . S
H955 C942 0.961 . S
H956 C942 0.961 . S
H957 C943 0.958 . S
H958 C943 0.961 . S
H959 C943 0.960 . S
C960 C961 1.391 . S
C960 C962 1.394 . S
C960 H976 0.931 . S
C961 C960 1.391 . S
C961 C965 1.376 . S
C962 C960 1.394 . S
C962 C963 1.369 . S
C962 C966 1.531 . S
C963 C962 1.369 . S
C963 C964 1.410 . S
C963 C971 1.503 . S
C964 C963 1.410 . S
C964 C965 1.392 . S
C964 C967 1.511 . S
C965 C961 1.376 . S
C965 C964 1.392 . S
C965 H977 0.929 . S
C966 C962 1.531 . S
C966 H978 0.960 . S
C966 H979 0.962 . S
C966 H980 0.960 . S
C967 C964 1.511 . S
C967 H981 0.961 . S
C967 H982 0.961 . S
C967 H983 0.961 . S
C968 C969 1.370 . S
C968 C970 1.363 . S
C968 H984 0.931 . S
C969 C968 1.370 . S
C969 C973 1.408 . S
C970 C968 1.363 . S
C970 C971 1.370 . S
C970 C974 1.524 . S
C971 C963 1.503 . S
C971 C970 1.370 . S
C971 C972 1.403 . S
C972 C971 1.403 . S
C972 C973 1.404 . S
C972 C975 1.539 . S
C973 C969 1.408 . S
C973 C972 1.404 . S
C973 H985 0.930 . S
C974 C970 1.524 . S
C974 H986 0.956 . S
C974 H987 0.961 . S
C974 H988 0.961 . S
C975 C972 1.539 . S
C975 H989 0.958 . S
C975 H990 0.961 . S
C975 H991 0.960 . S
H976 C960 0.931 . S
H977 C965 0.929 . S
H978 C966 0.960 . S
H979 C966 0.962 . S
H980 C966 0.960 . S
H981 C967 0.961 . S
H982 C967 0.961 . S
H983 C967 0.961 . S
H984 C968 0.931 . S
H985 C973 0.930 . S
H986 C974 0.956 . S
H987 C974 0.961 . S
H988 C974 0.961 . S
H989 C975 0.958 . S
H990 C975 0.961 . S
H991 C975 0.960 . S
C992 C993 1.391 . S
C992 C994 1.394 . S
C992 H1008 0.931 . S
C993 C992 1.391 . S
C993 C997 1.376 . S
C994 C992 1.394 . S
C994 C995 1.369 . S
C994 C998 1.531 1_655 S
C995 C994 1.369 . S
C995 C996 1.410 . S
C995 C1003 1.503 . S
C996 C995 1.410 . S
C996 C997 1.392 . S
C996 C999 1.511 . S
C997 C993 1.376 . S
C997 C996 1.392 . S
C997 H1009 0.929 . S
C998 C994 1.531 1_455 S
C998 H1010 0.960 . S
C998 H1011 0.962 . S
C998 H1012 0.960 . S
C999 C996 1.511 . S
C999 H1013 0.961 . S
C999 H1014 0.961 . S
C999 H1015 0.961 . S
C1000 C1001 1.370 . S
C1000 C1002 1.363 . S
C1000 H1016 0.931 . S
C1001 C1000 1.370 . S
C1001 C1005 1.408 . S
C1002 C1000 1.363 . S
C1002 C1003 1.370 . S
C1002 C1006 1.524 . S
C1003 C995 1.503 . S
C1003 C1002 1.370 . S
C1003 C1004 1.403 . S
C1004 C1003 1.403 . S
C1004 C1005 1.404 . S
C1004 C1007 1.539 . S
C1005 C1001 1.408 . S
C1005 C1004 1.404 . S
C1005 H1017 0.930 . S
C1006 C1002 1.524 . S
C1006 H1018 0.956 . S
C1006 H1019 0.961 . S
C1006 H1020 0.961 . S
C1007 C1004 1.539 . S
C1007 H1021 0.958 1_655 S
C1007 H1022 0.961 . S
C1007 H1023 0.960 . S
H1008 C992 0.931 . S
H1009 C997 0.929 . S
H1010 C998 0.960 . S
H1011 C998 0.962 . S
H1012 C998 0.960 . S
H1013 C999 0.961 . S
H1014 C999 0.961 . S
H1015 C999 0.961 . S
H1016 C1000 0.931 . S
H1017 C1005 0.930 . S
H1018 C1006 0.956 . S
H1019 C1006 0.961 . S
H1020 C1006 0.961 . S
H1021 C1007 0.958 1_455 S
H1022 C1007 0.961 . S
H1023 C1007 0.960 . S
C1024 C1025 1.391 . S
C1024 C1026 1.394 . S
C1024 H1040 0.931 . S
C1025 C1024 1.391 . S
C1025 C1029 1.376 . S
C1026 C1024 1.394 . S
C1026 C1027 1.369 . S
C1026 C1030 1.531 . S
C1027 C1026 1.369 . S
C1027 C1028 1.410 . S
C1027 C1035 1.503 . S
C1028 C1027 1.410 . S
C1028 C1029 1.392 . S
C1028 C1031 1.511 . S
C1029 C1025 1.376 . S
C1029 C1028 1.392 . S
C1029 H1041 0.929 . S
C1030 C1026 1.531 . S
C1030 H1042 0.960 . S
C1030 H1043 0.962 . S
C1030 H1044 0.960 . S
C1031 C1028 1.511 . S
C1031 H1045 0.961 . S
C1031 H1046 0.961 . S
C1031 H1047 0.961 . S
C1032 C1033 1.370 . S
C1032 C1034 1.363 . S
C1032 H1048 0.931 . S
C1033 C1032 1.370 . S
C1033 C1037 1.408 . S
C1034 C1032 1.363 . S
C1034 C1035 1.370 . S
C1034 C1038 1.524 . S
C1035 C1027 1.503 . S
C1035 C1034 1.370 . S
C1035 C1036 1.403 . S
C1036 C1035 1.403 . S
C1036 C1037 1.404 . S
C1036 C1039 1.539 . S
C1037 C1033 1.408 . S
C1037 C1036 1.404 . S
C1037 H1049 0.930 . S
C1038 C1034 1.524 . S
C1038 H1050 0.956 . S
C1038 H1051 0.961 . S
C1038 H1052 0.961 . S
C1039 C1036 1.539 . S
C1039 H1053 0.958 . S
C1039 H1054 0.961 . S
C1039 H1055 0.960 . S
H1040 C1024 0.931 . S
H1041 C1029 0.929 . S
H1042 C1030 0.960 . S
H1043 C1030 0.962 . S
H1044 C1030 0.960 . S
H1045 C1031 0.961 . S
H1046 C1031 0.961 . S
H1047 C1031 0.961 . S
H1048 C1032 0.931 . S
H1049 C1037 0.930 . S
H1050 C1038 0.956 . S
H1051 C1038 0.961 . S
H1052 C1038 0.961 . S
H1053 C1039 0.958 . S
H1054 C1039 0.961 . S
H1055 C1039 0.960 . S
C1056 C1057 1.391 . S
C1056 C1058 1.394 . S
C1056 H1072 0.931 . S
C1057 C1056 1.391 . S
C1057 C1061 1.376 . S
C1058 C1056 1.394 . S
C1058 C1059 1.369 . S
C1058 C1062 1.531 . S
C1059 C1058 1.369 . S
C1059 C1060 1.410 . S
C1059 C1067 1.503 . S
C1060 C1059 1.410 . S
C1060 C1061 1.392 . S
C1060 C1063 1.511 . S
C1061 C1057 1.376 . S
C1061 C1060 1.392 . S
C1061 H1073 0.929 . S
C1062 C1058 1.531 . S
C1062 H1074 0.960 . S
C1062 H1075 0.962 . S
C1062 H1076 0.960 . S
C1063 C1060 1.511 . S
C1063 H1077 0.961 . S
C1063 H1078 0.961 . S
C1063 H1079 0.961 . S
C1064 C1065 1.370 . S
C1064 C1066 1.363 . S
C1064 H1080 0.931 . S
C1065 C1064 1.370 . S
C1065 C1069 1.408 . S
C1066 C1064 1.363 . S
C1066 C1067 1.370 . S
C1066 C1070 1.524 . S
C1067 C1059 1.503 . S
C1067 C1066 1.370 . S
C1067 C1068 1.403 . S
C1068 C1067 1.403 . S
C1068 C1069 1.404 . S
C1068 C1071 1.539 . S
C1069 C1065 1.408 . S
C1069 C1068 1.404 . S
C1069 H1081 0.930 . S
C1070 C1066 1.524 . S
C1070 H1082 0.956 . S
C1070 H1083 0.961 . S
C1070 H1084 0.961 . S
C1071 C1068 1.539 . S
C1071 H1085 0.958 . S
C1071 H1086 0.961 . S
C1071 H1087 0.960 . S
H1072 C1056 0.931 . S
H1073 C1061 0.929 . S
H1074 C1062 0.960 . S
H1075 C1062 0.962 . S
H1076 C1062 0.960 . S
H1077 C1063 0.961 . S
H1078 C1063 0.961 . S
H1079 C1063 0.961 . S
H1080 C1064 0.931 . S
H1081 C1069 0.930 . S
H1082 C1070 0.956 . S
H1083 C1070 0.961 . S
H1084 C1070 0.961 . S
H1085 C1071 0.958 . S
H1086 C1071 0.961 . S
H1087 C1071 0.960 . S
C1088 C1089 1.391 . S
C1088 C1090 1.394 . S
C1088 H1104 0.931 . S
C1089 C1088 1.391 . S
C1089 C1093 1.376 . S
C1090 C1088 1.394 . S
C1090 C1091 1.369 . S
C1090 C1094 1.531 . S
C1091 C1090 1.369 . S
C1091 C1092 1.410 . S
C1091 C1099 1.503 . S
C1092 C1091 1.410 . S
C1092 C1093 1.392 . S
C1092 C1095 1.511 . S
C1093 C1089 1.376 . S
C1093 C1092 1.392 . S
C1093 H1105 0.929 . S
C1094 C1090 1.531 . S
C1094 H1106 0.960 . S
C1094 H1107 0.962 . S
C1094 H1108 0.960 . S
C1095 C1092 1.511 . S
C1095 H1109 0.961 . S
C1095 H1110 0.961 . S
C1095 H1111 0.961 . S
C1096 C1097 1.370 . S
C1096 C1098 1.363 . S
C1096 H1112 0.931 . S
C1097 C1096 1.370 . S
C1097 C1101 1.408 . S
C1098 C1096 1.363 . S
C1098 C1099 1.370 . S
C1098 C1102 1.524 . S
C1099 C1091 1.503 . S
C1099 C1098 1.370 . S
C1099 C1100 1.403 . S
C1100 C1099 1.403 . S
C1100 C1101 1.404 . S
C1100 C1103 1.539 . S
C1101 C1097 1.408 . S
C1101 C1100 1.404 . S
C1101 H1113 0.930 . S
C1102 C1098 1.524 . S
C1102 H1114 0.956 . S
C1102 H1115 0.961 . S
C1102 H1116 0.961 . S
C1103 C1100 1.539 . S
C1103 H1117 0.958 . S
C1103 H1118 0.961 . S
C1103 H1119 0.960 . S
H1104 C1088 0.931 . S
H1105 C1093 0.929 . S
H1106 C1094 0.960 . S
H1107 C1094 0.962 . S
H1108 C1094 0.960 . S
H1109 C1095 0.961 . S
H1110 C1095 0.961 . S
H1111 C1095 0.961 . S
H1112 C1096 0.931 . S
H1113 C1101 0.930 . S
H1114 C1102 0.956 . S
H1115 C1102 0.961 . S
H1116 C1102 0.961 . S
H1117 C1103 0.958 . S
H1118 C1103 0.961 . S
H1119 C1103 0.960 . S
C1120 C1121 1.391 . S
C1120 C1122 1.394 . S
C1120 H1136 0.931 . S
C1121 C1120 1.391 . S
C1121 C1125 1.376 . S
C1122 C1120 1.394 . S
C1122 C1123 1.369 . S
C1122 C1126 1.531 . S
C1123 C1122 1.369 . S
C1123 C1124 1.410 . S
C1123 C1131 1.503 . S
C1124 C1123 1.410 . S
C1124 C1125 1.392 . S
C1124 C1127 1.511 . S
C1125 C1121 1.376 . S
C1125 C1124 1.392 . S
C1125 H1137 0.929 . S
C1126 C1122 1.531 . S
C1126 H1138 0.960 . S
C1126 H1139 0.962 . S
C1126 H1140 0.960 . S
C1127 C1124 1.511 . S
C1127 H1141 0.961 . S
C1127 H1142 0.961 . S
C1127 H1143 0.961 . S
C1128 C1129 1.370 . S
C1128 C1130 1.363 . S
C1128 H1144 0.931 . S
C1129 C1128 1.370 . S
C1129 C1133 1.408 . S
C1130 C1128 1.363 . S
C1130 C1131 1.370 . S
C1130 C1134 1.524 . S
C1131 C1123 1.503 . S
C1131 C1130 1.370 . S
C1131 C1132 1.403 . S
C1132 C1131 1.403 . S
C1132 C1133 1.404 . S
C1132 C1135 1.539 . S
C1133 C1129 1.408 . S
C1133 C1132 1.404 . S
C1133 H1145 0.930 . S
C1134 C1130 1.524 . S
C1134 H1146 0.956 . S
C1134 H1147 0.961 . S
C1134 H1148 0.961 . S
C1135 C1132 1.539 . S
C1135 H1149 0.958 . S
C1135 H1150 0.961 . S
C1135 H1151 0.960 . S
H1136 C1120 0.931 . S
H1137 C1125 0.929 . S
H1138 C1126 0.960 . S
H1139 C1126 0.962 . S
H1140 C1126 0.960 . S
H1141 C1127 0.961 . S
H1142 C1127 0.961 . S
H1143 C1127 0.961 . S
H1144 C1128 0.931 . S
H1145 C1133 0.930 . S
H1146 C1134 0.956 . S
H1147 C1134 0.961 . S
H1148 C1134 0.961 . S
H1149 C1135 0.958 . S
H1150 C1135 0.961 . S
H1151 C1135 0.960 . S
C1152 C1153 1.391 . S
C1152 C1154 1.394 . S
C1152 H1168 0.931 . S
C1153 C1152 1.391 . S
C1153 C1157 1.376 . S
C1154 C1152 1.394 . S
C1154 C1155 1.369 . S
C1154 C1158 1.531 . S
C1155 C1154 1.369 . S
C1155 C1156 1.410 . S
C1155 C1163 1.503 . S
C1156 C1155 1.410 . S
C1156 C1157 1.392 . S
C1156 C1159 1.511 . S
C1157 C1153 1.376 . S
C1157 C1156 1.392 . S
C1157 H1169 0.929 . S
C1158 C1154 1.531 . S
C1158 H1170 0.960 . S
C1158 H1171 0.962 . S
C1158 H1172 0.960 . S
C1159 C1156 1.511 . S
C1159 H1173 0.961 . S
C1159 H1174 0.961 . S
C1159 H1175 0.961 . S
C1160 C1161 1.370 . S
C1160 C1162 1.363 . S
C1160 H1176 0.931 . S
C1161 C1160 1.370 . S
C1161 C1165 1.408 . S
C1162 C1160 1.363 . S
C1162 C1163 1.370 . S
C1162 C1166 1.524 . S
C1163 C1155 1.503 . S
C1163 C1162 1.370 . S
C1163 C1164 1.403 . S
C1164 C1163 1.403 . S
C1164 C1165 1.404 . S
C1164 C1167 1.539 . S
C1165 C1161 1.408 . S
C1165 C1164 1.404 . S
C1165 H1177 0.930 . S
C1166 C1162 1.524 . S
C1166 H1178 0.956 . S
C1166 H1179 0.961 . S
C1166 H1180 0.961 . S
C1167 C1164 1.539 . S
C1167 H1181 0.958 . S
C1167 H1182 0.961 . S
C1167 H1183 0.960 . S
H1168 C1152 0.931 . S
H1169 C1157 0.929 . S
H1170 C1158 0.960 . S
H1171 C1158 0.962 . S
H1172 C1158 0.960 . S
H1173 C1159 0.961 . S
H1174 C1159 0.961 . S
H1175 C1159 0.961 . S
H1176 C1160 0.931 . S
H1177 C1165 0.930 . S
H1178 C1166 0.956 . S
H1179 C1166 0.961 . S
H1180 C1166 0.961 . S
H1181 C1167 0.958 . S
H1182 C1167 0.961 . S
H1183 C1167 0.960 . S
C1184 C1185 1.391 . S
C1184 C1186 1.394 . S
C1184 H1200 0.931 . S
C1185 C1184 1.391 . S
C1185 C1189 1.376 . S
C1186 C1184 1.394 . S
C1186 C1187 1.369 . S
C1186 C1190 1.531 . S
C1187 C1186 1.369 . S
C1187 C1188 1.410 . S
C1187 C1195 1.503 . S
C1188 C1187 1.410 . S
C1188 C1189 1.392 . S
C1188 C1191 1.511 . S
C1189 C1185 1.376 . S
C1189 C1188 1.392 . S
C1189 H1201 0.929 . S
C1190 C1186 1.531 . S
C1190 H1202 0.960 . S
C1190 H1203 0.962 . S
C1190 H1204 0.960 . S
C1191 C1188 1.511 . S
C1191 H1205 0.961 . S
C1191 H1206 0.961 . S
C1191 H1207 0.961 . S
C1192 C1193 1.370 . S
C1192 C1194 1.363 . S
C1192 H1208 0.931 . S
C1193 C1192 1.370 . S
C1193 C1197 1.408 . S
C1194 C1192 1.363 . S
C1194 C1195 1.370 . S
C1194 C1198 1.524 . S
C1195 C1187 1.503 . S
C1195 C1194 1.370 . S
C1195 C1196 1.403 . S
C1196 C1195 1.403 . S
C1196 C1197 1.404 . S
C1196 C1199 1.539 . S
C1197 C1193 1.408 . S
C1197 C1196 1.404 . S
C1197 H1209 0.930 . S
C1198 C1194 1.524 . S
C1198 H1210 0.956 . S
C1198 H1211 0.961 . S
C1198 H1212 0.961 . S
C1199 C1196 1.539 . S
C1199 H1213 0.958 . S
C1199 H1214 0.961 . S
C1199 H1215 0.960 . S
H1200 C1184 0.931 . S
H1201 C1189 0.929 . S
H1202 C1190 0.960 . S
H1203 C1190 0.962 . S
H1204 C1190 0.960 . S
H1205 C1191 0.961 . S
H1206 C1191 0.961 . S
H1207 C1191 0.961 . S
H1208 C1192 0.931 . S
H1209 C1197 0.930 . S
H1210 C1198 0.956 . S
H1211 C1198 0.961 . S
H1212 C1198 0.961 . S
H1213 C1199 0.958 . S
H1214 C1199 0.961 . S
H1215 C1199 0.960 . S
C449 C1 1.340 . S
C457 C303 1.320 . S
C481 C67 1.355 . S
C489 C343 1.326 . S
C521 C377 2.241 . S
C513 C97 2.261 . S
C545 C133 2.648 . S
C553 C418 2.604 . S
C585 C338 1.459 . S
C577 C25 1.453 . S
C617 C298 2.188 . S
C609 C37 2.083 . S
C649 C426 1.570 . S
C641 C103 1.566 . S
C681 C387 1.819 . S
C673 C109 1.868 . S
C705 C31 1.419 . S
C713 C423 1.377 . S
C745 C346 1.973 . S
C737 C73 2.027 . S
C769 C139 2.443 . S
C777 C306 2.405 . S
C801 C61 1.585 . S
C809 C374 1.628 . S
C841 C294 1.321 . S
C833 C175 1.313 . S
C865 C181 1.331 . S
C873 C334 1.302 . S
C897 C247 2.247 . S
C905 C386 2.259 . S
C929 C277 2.619 . S
C937 C427 2.602 . S
C961 C145 1.384 . S
C969 C347 1.443 . S
C1001 C307 2.193 . S
C993 C211 2.121 . S
C1033 C417 1.556 . S
C1025 C217 1.526 . S
C1065 C378 1.839 . S
C1057 C283 1.872 . S
C1089 C169 1.282 . S
C1097 C414 1.391 . S
C1129 C337 1.979 . S
C1121 C241 2.025 . S
C1161 C297 2.400 . S
C1153 C253 2.454 . S
C1185 C205 1.585 . S
C1193 C383 1.638 . S
