# Generated by pormake.
# Topology pth, (4,4)-cn, num edge types: 1
# Building blocks:
#     Node 0, Type 0, BuildingBlock: AZAVOO_clean_sbu_0, # of connection points: 4
#     Node 1, Type 0, BuildingBlock: AZAVOO_clean_sbu_0, # of connection points: 4
#     Node 2, Type 0, BuildingBlock: AZAVOO_clean_sbu_0, # of connection points: 4
#     Node 3, Type 1, BuildingBlock: AZAVOO_clean_linker_0, # of connection points: 4
#     Node 4, Type 1, BuildingBlock: AZAVOO_clean_linker_0, # of connection points: 4
#     Node 5, Type 1, BuildingBlock: AZAVOO_clean_linker_0, # of connection points: 4
#     Edge 6, Type (0, 1), BuildingBlock: CIFDUS_clean_linker_0, # of connection points: 2
#     Edge 7, Type (0, 1), BuildingBlock: CIFDUS_clean_linker_0, # of connection points: 2
#     Edge 8, Type (0, 1), BuildingBlock: CIFDUS_clean_linker_0, # of connection points: 2
#     Edge 9, Type (0, 1), BuildingBlock: CIFDUS_clean_linker_0, # of connection points: 2
#     Edge 10, Type (0, 1), BuildingBlock: CIFDUS_clean_linker_0, # of connection points: 2
#     Edge 11, Type (0, 1), BuildingBlock: CIFDUS_clean_linker_0, # of connection points: 2
#     Edge 12, Type (0, 1), BuildingBlock: CIFDUS_clean_linker_0, # of connection points: 2
#     Edge 13, Type (0, 1), BuildingBlock: CIFDUS_clean_linker_0, # of connection points: 2
#     Edge 14, Type (0, 1), BuildingBlock: CIFDUS_clean_linker_0, # of connection points: 2
#     Edge 15, Type (0, 1), BuildingBlock: CIFDUS_clean_linker_0, # of connection points: 2
#     Edge 16, Type (0, 1), BuildingBlock: CIFDUS_clean_linker_0, # of connection points: 2
#     Edge 17, Type (0, 1), BuildingBlock: CIFDUS_clean_linker_0, # of connection points: 2
# Relax obj value: 0.179
# Max RMSD: 0.231
# Mean RMSD: 0.224
data_MOF--net-pth--node1-AZAVOO_clean_sbu_0--node2-AZAVOO_clean_linker_0--edge1-CIFDUS_clean_linker_0
_symmetry_space_group_name_H-M    P1
_symmetry_Int_Tables_number       1
_symmetry_cell_setting            triclinic
loop_
_symmetry_equiv_pos_as_xyz
'x, y, z'
_cell_length_a     23.309112
_cell_length_b     23.958841
_cell_length_c     62.585814
_cell_angle_alpha  92.351266
_cell_angle_beta   91.993905
_cell_angle_gamma 122.1901
loop_
_atom_site_label
_atom_site_type_symbol
_atom_site_fract_x
_atom_site_fract_y
_atom_site_fract_z
_atom_type_partial_charge
Mg0 Mg 0.22123 0.13456 0.07362 0.0
O1 O 0.13906 0.06918 0.04687 0.0
O2 O 0.13296 0.1364 0.02433 0.0
Mg3 Mg 0.20736 0.24313 0.03728 0.0
C4 C 0.11433 0.07869 0.02986 0.0
C5 C 0.18722 0.99753 0.09017 0.0
O6 O 0.21717 0.99479 0.07311 0.0
O7 O 0.14994 0.1586 0.08873 0.0
O8 O 0.14465 0.22716 0.06684 0.0
O9 O 0.3007 0.13694 0.05399 0.0
O10 O 0.26787 0.20829 0.05277 0.0
C11 C 0.12817 0.19546 0.0838 0.0
C12 C 0.30285 0.18584 0.0451 0.0
O13 O 0.18264 0.04734 0.09411 0.0
Mg14 Mg 0.87137 0.93081 0.39621 0.0
O15 O 0.98452 0.98852 0.40774 0.0
O16 O 0.01271 0.08872 0.4212 0.0
Mg17 Mg 0.91763 0.0937 0.42003 0.0
C18 C 0.02806 0.04622 0.41628 0.0
C19 C 0.84515 0.82437 0.36033 0.0
O20 O 0.79916 0.83747 0.35437 0.0
O21 O 0.8931 0.99403 0.36741 0.0
O22 O 0.9165 0.08987 0.38354 0.0
O23 O 0.8429 0.89163 0.42875 0.0
O24 O 0.85602 0.98536 0.41913 0.0
C25 C 0.90827 0.05362 0.36677 0.0
C26 C 0.84521 0.94573 0.43388 0.0
O27 O 0.88379 0.85513 0.37707 0.0
Mg28 Mg 0.04736 0.12554 0.72437 0.0
O29 O 0.1342 0.22236 0.74081 0.0
O30 O 0.09161 0.2636 0.76327 0.0
Mg31 Mg 0.97612 0.18906 0.76217 0.0
C32 C 0.14196 0.2673 0.75441 0.0
C33 C 0.17826 0.14572 0.70398 0.0
O34 O 0.2023 0.16064 0.72409 0.0
O35 O 0.01482 0.18159 0.70408 0.0
O36 O 0.96252 0.21022 0.72731 0.0
O37 O 0.05405 0.06733 0.7502 0.0
O38 O 0.98871 0.10823 0.75051 0.0
C39 C 0.97983 0.20682 0.70836 0.0
C40 C 0.0103 0.07529 0.75982 0.0
O41 O 0.11756 0.12959 0.69933 0.0
H42 H 0.00529 0.40453 0.08548 0.0
H43 H 0.08088 0.89651 0.26998 0.0
H44 H 0.88111 0.33878 0.191 0.0
H45 H 0.88952 0.25705 0.16892 0.0
H46 H 0.07947 0.31725 0.20358 0.0
H47 H 0.07087 0.39915 0.22549 0.0
H48 H 0.92127 0.46271 0.16608 0.0
H49 H 0.94002 0.43819 0.12955 0.0
H50 H 0.12828 0.45972 0.15269 0.0
H51 H 0.10933 0.48503 0.18906 0.0
H52 H 0.93459 0.59215 0.18959 0.0
H53 H 0.97288 0.67552 0.16305 0.0
H54 H 0.17162 0.7023 0.1677 0.0
H55 H 0.13305 0.61936 0.19425 0.0
H56 H 0.89069 0.576 0.23764 0.0
H57 H 0.8989 0.67737 0.25127 0.0
H58 H 0.11781 0.78238 0.25073 0.0
H59 H 0.10886 0.68026 0.23749 0.0
H60 H 0.8553 0.45807 0.26207 0.0
H61 H 0.83072 0.50783 0.29255 0.0
H62 H 0.04595 0.64557 0.30685 0.0
H63 H 0.06987 0.59514 0.27658 0.0
H64 H 0.87375 0.31813 0.23925 0.0
H65 H 0.874 0.2379 0.26179 0.0
H66 H 0.05101 0.39705 0.29878 0.0
H67 H 0.0551 0.47497 0.27442 0.0
O68 O -0.00056 0.41554 0.09995 0.0
O69 O 0.09743 0.43044 0.11251 0.0
O70 O 0.96352 0.79918 0.26487 0.0
O71 O 0.07612 0.85596 0.26431 0.0
C72 C 0.98213 0.43776 0.21726 0.0
C73 C 0.00052 0.4869 0.20252 0.0
C74 C 0.0075 0.54727 0.209 0.0
C75 C 0.99416 0.55801 0.23004 0.0
C76 C 0.97771 0.50972 0.24507 0.0
C77 C 0.9729 0.4498 0.23883 0.0
C78 C 0.9758 0.37523 0.20962 0.0
C79 C 0.92305 0.33232 0.1944 0.0
C80 C 0.92812 0.28608 0.18174 0.0
C81 C 0.98566 0.28173 0.18434 0.0
C82 C 0.03444 0.31943 0.2013 0.0
C83 C 0.0296 0.36613 0.21386 0.0
C84 C 0.01378 0.47535 0.18018 0.0
C85 C 0.96676 0.46261 0.16317 0.0
C86 C 0.97749 0.44838 0.14235 0.0
C87 C 0.03556 0.44679 0.13821 0.0
C88 C 0.08302 0.46049 0.15532 0.0
C89 C 0.0723 0.47487 0.1761 0.0
C90 C 0.0311 0.59989 0.19378 0.0
C91 C 0.98649 0.61653 0.18498 0.0
C92 C 0.00841 0.66396 0.16985 0.0
C93 C 0.0751 0.695 0.16324 0.0
C94 C 0.11969 0.67845 0.17226 0.0
C95 C 0.09793 0.63149 0.18748 0.0
C96 C -0.00083 0.62085 0.23663 0.0
C97 C 0.94033 0.62103 0.2404 0.0
C98 C 0.94518 0.67897 0.2482 0.0
C99 C 0.00907 0.73798 0.25214 0.0
C100 C 0.06786 0.73782 0.2479 0.0
C101 C 0.06292 0.6797 0.24023 0.0
C102 C 0.9643 0.52314 0.26709 0.0
C103 C 0.89709 0.49695 0.27239 0.0
C104 C 0.88318 0.52604 0.2896 0.0
C105 C 0.9364 0.5814 0.30183 0.0
C106 C 0.00386 0.60289 0.29782 0.0
C107 C 0.01767 0.57396 0.28057 0.0
C108 C 0.96476 0.4026 0.25498 0.0
C109 C 0.91274 0.33549 0.25219 0.0
C110 C 0.91265 0.28961 0.26532 0.0
C111 C 0.96324 0.31019 0.2821 0.0
C112 C 0.01257 0.37831 0.28564 0.0
C113 C 0.01402 0.42363 0.27202 0.0
C114 C 0.04629 0.43056 0.11616 0.0
C115 C 0.01457 0.79938 0.2608 0.0
H116 H 0.66671 0.04507 0.42302 0.0
H117 H 0.19184 0.17465 0.57306 0.0
H118 H 0.635 0.06353 0.55825 0.0
H119 H 0.71703 0.03687 0.5466 0.0
H120 H 0.8079 0.20845 0.50919 0.0
H121 H 0.7289 0.23696 0.52218 0.0
H122 H 0.57509 0.03964 0.50911 0.0
H123 H 0.60971 0.0236 0.47412 0.0
H124 H 0.64208 0.21074 0.45675 0.0
H125 H 0.60851 0.22674 0.49199 0.0
H126 H 0.44426 0.03185 0.5002 0.0
H127 H 0.35596 0.0025 0.47206 0.0
H128 H 0.37673 0.19146 0.48543 0.0
H129 H 0.46949 0.22249 0.51188 0.0
H130 H 0.36548 0.04086 0.54095 0.0
H131 H 0.25665 0.02934 0.54707 0.0
H132 H 0.36253 0.23711 0.56775 0.0
H133 H 0.4709 0.24816 0.56123 0.0
H134 H 0.43551 0.05938 0.58527 0.0
H135 H 0.38094 0.06333 0.61744 0.0
H136 H 0.52669 0.27352 0.62725 0.0
H137 H 0.58104 0.26929 0.59471 0.0
H138 H 0.57322 0.08981 0.59738 0.0
H139 H 0.64812 0.11343 0.62936 0.0
H140 H 0.80277 0.29523 0.60437 0.0
H141 H 0.72634 0.27275 0.57268 0.0
O142 O 0.65266 0.05218 0.43669 0.0
O143 O 0.66639 0.14768 0.42826 0.0
O144 O 0.18187 0.072 0.55871 0.0
O145 O 0.23405 0.17809 0.57011 0.0
C146 C 0.61523 0.15701 0.54313 0.0
C147 C 0.57181 0.14568 0.52479 0.0
C148 C 0.5107 0.14369 0.52711 0.0
C149 C 0.49227 0.15152 0.54778 0.0
C150 C 0.53536 0.16243 0.56604 0.0
C151 C 0.59759 0.16667 0.56372 0.0
C152 C 0.67526 0.15153 0.54073 0.0
C153 C 0.67457 0.09687 0.54829 0.0
C154 C 0.72097 0.08123 0.54137 0.0
C155 C 0.76797 0.11934 0.52645 0.0
C156 C 0.7728 0.1779 0.52071 0.0
C157 C 0.72725 0.19417 0.52799 0.0
C158 C 0.58974 0.13456 0.50313 0.0
C159 C 0.58979 0.07716 0.49774 0.0
C160 C 0.60949 0.06808 0.47772 0.0
C161 C 0.62883 0.11597 0.46265 0.0
C162 C 0.6276 0.17295 0.468 0.0
C163 C 0.60825 0.18214 0.48808 0.0
C164 C 0.46336 0.12933 0.50815 0.0
C165 C 0.43132 0.06775 0.49648 0.0
C166 C 0.37985 0.05062 0.48063 0.0
C167 C 0.35788 0.09397 0.47656 0.0
C168 C 0.3924 0.15684 0.48771 0.0
C169 C 0.44516 0.17459 0.5031 0.0
C170 C 0.42601 0.14538 0.55057 0.0
C171 C 0.36496 0.08396 0.54658 0.0
C172 C 0.30293 0.07747 0.55018 0.0
C173 C 0.30091 0.13231 0.55796 0.0
C174 C 0.36225 0.19388 0.56179 0.0
C175 C 0.42421 0.20036 0.55808 0.0
C176 C 0.51164 0.16416 0.58759 0.0
C177 C 0.45643 0.10607 0.59457 0.0
C178 C 0.42525 0.10844 0.61285 0.0
C179 C 0.44918 0.16887 0.62458 0.0
C180 C 0.50747 0.22637 0.61844 0.0
C181 C 0.53847 0.22405 0.59995 0.0
C182 C 0.64379 0.18011 0.58286 0.0
C183 C 0.62274 0.1353 0.59894 0.0
C184 C 0.66553 0.14874 0.61714 0.0
C185 C 0.73075 0.20645 0.61934 0.0
C186 C 0.75257 0.25054 0.60302 0.0
C187 C 0.70913 0.23771 0.58497 0.0
C188 C 0.6504 0.10647 0.44148 0.0
C189 C 0.23525 0.12539 0.56223 0.0
H190 H 0.7041 0.5802 0.03181 0.0
H191 H 0.27333 0.24331 0.81952 0.0
H192 H 0.68775 0.7191 0.93269 0.0
H193 H 0.78113 0.81146 0.95495 0.0
H194 H 0.92589 0.79563 0.91829 0.0
H195 H 0.83168 0.70061 0.89649 0.0
H196 H 0.59215 0.59306 0.94844 0.0
H197 H 0.62369 0.58893 0.98574 0.0
H198 H 0.7905 0.57404 0.9651 0.0
H199 H 0.75776 0.57728 0.92779 0.0
H200 H 0.47545 0.50994 0.91843 0.0
H201 H 0.4028 0.42422 0.94177 0.0
H202 H 0.5312 0.34472 0.93804 0.0
H203 H 0.60508 0.43271 0.91511 0.0
H204 H 0.45818 0.53648 0.87459 0.0
H205 H 0.35122 0.45124 0.85546 0.0
H206 H 0.433 0.32757 0.84621 0.0
H207 H 0.53961 0.41317 0.86555 0.0
H208 H 0.57065 0.66528 0.85539 0.0
H209 H 0.48542 0.63083 0.82568 0.0
H210 H 0.51922 0.47638 0.80533 0.0
H211 H 0.60717 0.51444 0.83402 0.0
H212 H 0.71584 0.77318 0.88388 0.0
H213 H 0.79966 0.86489 0.86408 0.0
H214 H 0.82826 0.72827 0.82574 0.0
H215 H 0.74711 0.63792 0.84627 0.0
O216 O 0.69243 0.58156 0.01695 0.0
O217 O 0.77783 0.57456 0.00553 0.0
O218 O 0.2732 0.34066 0.83403 0.0
O219 O 0.31416 0.27672 0.82783 0.0
C220 C 0.69503 0.64301 0.90127 0.0
C221 C 0.65289 0.58697 0.91271 0.0
C222 C 0.59206 0.53336 0.90267 0.0
C223 C 0.57339 0.53534 0.88125 0.0
C224 C 0.61718 0.58973 0.86937 0.0
C225 C 0.67834 0.64355 0.87933 0.0
C226 C 0.75292 0.70276 0.91311 0.0
C227 C 0.73958 0.73534 0.92946 0.0
C228 C 0.79272 0.78789 0.94215 0.0
C229 C 0.86025 0.80988 0.93836 0.0
C230 C 0.87398 0.77915 0.92145 0.0
C231 C 0.82049 0.72531 0.90901 0.0
C232 C 0.67226 0.58478 0.93541 0.0
C233 C 0.63509 0.58828 0.95199 0.0
C234 C 0.65343 0.58623 0.9733 0.0
C235 C 0.70955 0.581 0.97841 0.0
C236 C 0.74694 0.57795 0.96172 0.0
C237 C 0.72841 0.57984 0.94041 0.0
C238 C 0.54527 0.4773 0.91515 0.0
C239 C 0.48723 0.47339 0.92243 0.0
C240 C 0.44561 0.42407 0.93566 0.0
C241 C 0.461 0.37733 0.94174 0.0
C242 C 0.51835 0.38035 0.93385 0.0
C243 C 0.56033 0.43018 0.92069 0.0
C244 C 0.5066 0.48102 0.87133 0.0
C245 C 0.4526 0.49067 0.86858 0.0
C246 C 0.39169 0.44201 0.85759 0.0
C247 C 0.38381 0.38285 0.8491 0.0
C248 C 0.43751 0.37269 0.85243 0.0
C249 C 0.49831 0.42129 0.86354 0.0
C250 C 0.59375 0.5912 0.84715 0.0
C251 C 0.56258 0.62675 0.84369 0.0
C252 C 0.51277 0.60597 0.82691 0.0
C253 C 0.49288 0.54873 0.81366 0.0
C254 C 0.53233 0.52029 0.81518 0.0
C255 C 0.58312 0.5421 0.83165 0.0
C256 C 0.72568 0.69894 0.86659 0.0
C257 C 0.74055 0.7633 0.87126 0.0
C258 C 0.78818 0.81553 0.85985 0.0
C259 C 0.82124 0.80414 0.84341 0.0
C260 C 0.80506 0.73922 0.83859 0.0
C261 C 0.75797 0.68729 0.85011 0.0
C262 C 0.72888 0.57884 0.00107 0.0
C263 C 0.32027 0.33228 0.83659 0.0
H264 H 0.10494 0.15688 0.12449 0.0
H265 H 0.05958 0.25795 0.07766 0.0
H266 H 0.00334 0.28602 0.10433 0.0
H267 H 0.97893 0.29276 0.14178 0.0
H268 H 0.02965 0.19717 0.18907 0.0
H269 H 0.07217 0.15595 0.16129 0.0
C270 C 0.08207 0.18437 0.11999 0.0
C271 C 0.08717 0.20585 0.09913 0.0
C272 C 0.05139 0.20183 0.13553 0.0
C273 C 0.05706 0.24134 0.09364 0.0
C274 C 0.02499 0.25755 0.10889 0.0
C275 C -0.00239 0.2614 0.1459 0.0
C276 C 0.00094 0.24762 0.16738 0.0
C277 C 0.02348 0.23954 0.13 0.0
C278 C 0.02674 0.20834 0.17262 0.0
C279 C 0.05113 0.185 0.15677 0.0
H280 H 0.92068 0.06233 0.45718 0.0
H281 H 0.74475 0.86539 0.45896 0.0
H282 H 0.70974 0.90035 0.49065 0.0
H283 H 0.71893 0.99115 0.51312 0.0
H284 H 0.89631 0.18839 0.51183 0.0
H285 H 0.94098 0.14903 0.48441 0.0
C286 C 0.8753 0.027 0.46477 0.0
C287 C 0.83435 0.96195 0.45564 0.0
C288 C 0.85534 0.0477 0.48274 0.0
C289 C 0.77677 0.9158 0.46581 0.0
C290 C 0.75654 0.93595 0.48376 0.0
C291 C 0.76857 0.02535 0.50752 0.0
C292 C 0.8034 0.09312 0.51425 0.0
C293 C 0.79396 0.00244 0.49176 0.0
C294 C 0.86744 0.13638 0.50653 0.0
C295 C 0.89315 0.1139 0.49088 0.0
H296 H 0.03779 0.99469 0.78121 0.0
H297 H 0.91159 0.07647 0.78168 0.0
H298 H 0.84518 0.0032 0.80901 0.0
H299 H 0.81426 0.90683 0.8294 0.0
H300 H 0.94044 0.825 0.82911 0.0
H301 H 0.01486 0.90683 0.80491 0.0
C302 C 0.99659 0.99739 0.78758 0.0
C303 C 0.97935 0.04058 0.77922 0.0
C304 C 0.95765 0.95417 0.80303 0.0
C305 C 0.92593 0.04359 0.78774 0.0
C306 C 0.88755 0.00136 0.8033 0.0
C307 C 0.85883 0.9077 0.82445 0.0
C308 C 0.8709 0.85896 0.83081 0.0
C309 C 0.90162 0.95504 0.81056 0.0
C310 C 0.9288 0.86078 0.82404 0.0
C311 C 0.97173 0.90786 0.81031 0.0
H312 H 0.20134 0.89167 0.0899 0.0
H313 H 0.11032 0.98294 0.12379 0.0
H314 H 0.06614 0.89648 0.14891 0.0
H315 H 0.05575 0.79672 0.16194 0.0
H316 H 0.14747 0.70561 0.1286 0.0
H317 H 0.1893 0.79043 0.10267 0.0
C318 C 0.17163 0.89249 0.10273 0.0
C319 C 0.15936 0.9438 0.10496 0.0
C320 C 0.14671 0.84282 0.11729 0.0
C321 C 0.12086 0.9442 0.12173 0.0
C322 C 0.09545 0.89474 0.13612 0.0
C323 C 0.08425 0.79508 0.14885 0.0
C324 C 0.09854 0.74513 0.14716 0.0
C325 C 0.10836 0.84405 0.13412 0.0
C326 C 0.13644 0.74408 0.13033 0.0
C327 C 0.16012 0.79235 0.11547 0.0
H328 H 0.0644 0.96411 0.43099 0.0
H329 H 0.14603 0.16624 0.4163 0.0
H330 H 0.25847 0.19719 0.43116 0.0
H331 H 0.33058 0.16856 0.45102 0.0
H332 H 0.24352 0.96906 0.47012 0.0
H333 H 0.13746 0.93503 0.45017 0.0
C334 C 0.10719 0.01464 0.43069 0.0
C335 C 0.09726 0.06285 0.42256 0.0
C336 C 0.17084 0.03257 0.44008 0.0
C337 C 0.15266 0.12838 0.42255 0.0
C338 C 0.21682 0.14607 0.43107 0.0
C339 C 0.28848 0.11767 0.45099 0.0
C340 C 0.29573 0.07186 0.46229 0.0
C341 C 0.22603 0.09891 0.4404 0.0
C342 C 0.24064 0.00563 0.46138 0.0
C343 C 0.17929 0.98605 0.45014 0.0
H344 H 0.18158 0.36614 0.78562 0.0
H345 H 0.26024 0.29593 0.73714 0.0
H346 H 0.37599 0.38267 0.74936 0.0
H347 H 0.45523 0.47291 0.77558 0.0
H348 H 0.37548 0.53795 0.82535 0.0
H349 H 0.26071 0.46105 0.81023 0.0
C350 C 0.22391 0.37011 0.77756 0.0
C351 C 0.2119 0.32382 0.76066 0.0
C352 C 0.29061 0.41982 0.78477 0.0
C353 C 0.26768 0.3302 0.75037 0.0
C354 C 0.3341 0.37999 0.75731 0.0
C355 C 0.41289 0.47066 0.78308 0.0
C356 C 0.42479 0.5114 0.8017 0.0
C357 C 0.34622 0.42421 0.7748 0.0
C358 C 0.36885 0.50845 0.81082 0.0
C359 C 0.30264 0.46356 0.80236 0.0
H360 H 0.87 0.21777 0.7084 0.0
H361 H 0.02247 0.23229 0.66768 0.0
H362 H 0.96206 0.24126 0.6366 0.0
H363 H 0.85889 0.23173 0.62043 0.0
H364 H 0.70281 0.20825 0.661 0.0
H365 H 0.77167 0.21625 0.69275 0.0
C366 C 0.89088 0.22428 0.69282 0.0
C367 C 0.95049 0.22402 0.69036 0.0
C368 C 0.85465 0.22692 0.67494 0.0
C369 C 0.97645 0.23196 0.66999 0.0
C370 C 0.94181 0.23685 0.6522 0.0
C371 C 0.84076 0.2296 0.63629 0.0
C372 C 0.776 0.21913 0.63849 0.0
C373 C 0.87979 0.23233 0.65438 0.0
C374 C 0.75239 0.21574 0.65902 0.0
C375 C 0.7917 0.22036 0.67713 0.0
H376 H 0.09855 0.07264 0.98667 0.0
H377 H 0.01871 0.95566 0.04114 0.0
H378 H 0.93344 0.86124 0.01743 0.0
H379 H 0.87972 0.81329 0.98124 0.0
H380 H 0.96386 0.92802 0.92666 0.0
H381 H 0.05009 0.02224 0.95034 0.0
C382 C 0.06231 0.02646 0.99332 0.0
C383 C 0.06406 0.02117 0.0156 0.0
C384 C 0.01464 0.97219 0.97958 0.0
C385 C 0.01799 0.96079 0.02403 0.0
C386 C 0.9693 0.90694 0.0105 0.0
C387 C 0.91734 0.85895 0.97462 0.0
C388 C 0.91569 0.8644 0.95238 0.0
C389 C 0.96693 0.91226 0.98828 0.0
C390 C 0.96471 0.92311 0.94378 0.0
C391 C 0.01359 0.97686 0.9573 0.0
H392 H 0.92688 0.77801 0.36993 0.0
H393 H 0.77883 0.75959 0.322 0.0
H394 H 0.79142 0.68018 0.30041 0.0
H395 H 0.84747 0.61937 0.29437 0.0
H396 H 0.99545 0.63689 0.34201 0.0
H397 H 0.97986 0.7133 0.36449 0.0
C398 C 0.89722 0.7565 0.35479 0.0
C399 C 0.85215 0.77503 0.34759 0.0
C400 C 0.9046 0.71064 0.34241 0.0
C401 C 0.81394 0.74639 0.32796 0.0
C402 C 0.82107 0.7009 0.31557 0.0
C403 C 0.87522 0.63872 0.30989 0.0
C404 C 0.92209 0.62199 0.3166 0.0
C405 C 0.86643 0.68292 0.32259 0.0
C406 C 0.95909 0.64904 0.33649 0.0
C407 C 0.95022 0.69274 0.34932 0.0
H408 H 0.31475 0.19739 0.70682 0.0
H409 H 0.13699 0.09602 0.66259 0.0
H410 H 0.20563 0.09495 0.63428 0.0
H411 H 0.31535 0.12144 0.62211 0.0
H412 H 0.49436 0.22487 0.66552 0.0
H413 H 0.42613 0.22707 0.69417 0.0
C414 C 0.29107 0.17499 0.691 0.0
C415 C 0.22077 0.14648 0.68687 0.0
C416 C 0.33099 0.17497 0.67469 0.0
C417 C 0.19095 0.11828 0.66622 0.0
C418 C 0.23011 0.11754 0.65001 0.0
C419 C 0.33925 0.14405 0.63792 0.0
C420 C 0.40936 0.17216 0.64189 0.0
C421 C 0.29998 0.14542 0.6541 0.0
C422 C 0.4403 0.20281 0.6622 0.0
C423 C 0.40132 0.20387 0.67854 0.0
H424 H 0.25375 0.20412 0.00839 0.0
H425 H 0.43353 0.22498 0.03866 0.0
H426 H 0.49845 0.28217 0.00811 0.0
H427 H 0.50559 0.33611 0.97479 0.0
H428 H 0.3231 0.30948 0.94393 0.0
H429 H 0.25734 0.2446 0.9729 0.0
C430 C 0.30702 0.22096 0.00821 0.0
C431 C 0.33951 0.21195 0.02577 0.0
C432 C 0.34336 0.25301 0.99064 0.0
C433 C 0.40795 0.232 0.02523 0.0
C434 C 0.44493 0.2648 0.00786 0.0
C435 C 0.45117 0.31477 0.97408 0.0
C436 C 0.41964 0.32888 0.95741 0.0
C437 C 0.41343 0.27693 0.99071 0.0
C438 C 0.34903 0.30097 0.95687 0.0
C439 C 0.31128 0.26362 0.97337 0.0
H440 H 0.018 0.15251 0.34977 0.0
H441 H 0.80152 0.01938 0.33905 0.0
H442 H 0.79893 0.08619 0.31085 0.0
H443 H 0.85649 0.1903 0.29318 0.0
H444 H 0.07538 0.31818 0.30158 0.0
H445 H 0.07843 0.24614 0.32711 0.0
C446 C 0.97079 0.13713 0.34068 0.0
C447 C 0.91015 0.08124 0.34617 0.0
C448 C 0.96979 0.17584 0.32462 0.0
C449 C 0.84888 0.06181 0.33469 0.0
C450 C 0.84734 0.10045 0.31881 0.0
C451 C 0.90527 0.202 0.30005 0.0
C452 C 0.96531 0.26145 0.2958 0.0
C453 C 0.90725 0.15886 0.31417 0.0
C454 C 0.0277 0.27483 0.30516 0.0
C455 C 0.02982 0.23304 0.3196 0.0
loop_
_geom_bond_atom_site_label_1
_geom_bond_atom_site_label_2
_geom_bond_distance
_geom_bond_site_symmetry_2
_ccdc_geom_bond_type
Mg0 O1 2.028 . S
Mg0 O7 1.986 . S
Mg0 O9 2.114 . S
Mg0 O10 2.251 . S
Mg0 O13 2.010 . S
O1 Mg0 2.028 . S
O1 C4 1.250 . S
O2 Mg3 2.028 . S
O2 C4 1.248 . S
Mg3 O2 2.028 . S
Mg3 O8 2.032 . S
Mg3 O10 2.079 . S
C4 O1 1.250 . S
C4 O2 1.248 . S
C5 O6 1.264 . S
C5 O13 1.249 . S
O6 C5 1.264 . S
O7 Mg0 1.986 . S
O7 C11 1.246 . S
O8 Mg3 2.032 . S
O8 C11 1.259 . S
O9 Mg0 2.114 . S
O9 C12 1.252 . S
O10 Mg0 2.251 . S
O10 Mg3 2.079 . S
O10 C12 1.273 . S
C11 O7 1.246 . S
C11 O8 1.259 . S
C12 O9 1.252 . S
C12 O10 1.273 . S
O13 Mg0 2.010 . S
O13 C5 1.249 . S
Mg14 O15 2.028 1_665 S
Mg14 O21 1.986 1_665 S
Mg14 O23 2.114 . S
Mg14 O24 2.251 1_565 S
Mg14 O27 2.010 . S
O15 Mg14 2.028 1_445 S
O15 C18 1.250 . S
O16 Mg17 2.028 . S
O16 C18 1.248 . S
Mg17 O16 2.028 . S
Mg17 O22 2.032 . S
Mg17 O24 2.079 1_455 S
C18 O15 1.250 . S
C18 O16 1.248 . S
C19 O20 1.264 . S
C19 O27 1.249 . S
O20 C19 1.264 . S
O21 Mg14 1.986 1_445 S
O21 C25 1.246 . S
O22 Mg17 2.032 . S
O22 C25 1.259 . S
O23 Mg14 2.114 . S
O23 C26 1.252 . S
O24 Mg14 2.251 1_545 S
O24 Mg17 2.079 1_655 S
O24 C26 1.273 1_545 S
C25 O21 1.246 . S
C25 O22 1.259 . S
C26 O23 1.252 . S
C26 O24 1.273 1_565 S
O27 Mg14 2.010 . S
O27 C19 1.249 . S
Mg28 O29 2.028 . S
Mg28 O35 1.986 . S
Mg28 O37 2.114 . S
Mg28 O38 2.251 . S
Mg28 O41 2.010 . S
O29 Mg28 2.028 . S
O29 C32 1.250 . S
O30 Mg31 2.028 . S
O30 C32 1.248 . S
Mg31 O30 2.028 . S
Mg31 O36 2.032 . S
Mg31 O38 2.079 . S
C32 O29 1.250 . S
C32 O30 1.248 . S
C33 O34 1.264 1_545 S
C33 O41 1.249 . S
O34 C33 1.264 1_565 S
O35 Mg28 1.986 . S
O35 C39 1.246 . S
O36 Mg31 2.032 . S
O36 C39 1.259 . S
O37 Mg28 2.114 . S
O37 C40 1.252 . S
O38 Mg28 2.251 . S
O38 Mg31 2.079 . S
O38 C40 1.273 . S
C39 O35 1.246 . S
C39 O36 1.259 . S
C40 O37 1.252 . S
C40 O38 1.273 . S
O41 Mg28 2.010 . S
O41 C33 1.249 . S
H42 O68 0.856 . S
H43 O71 0.854 . S
H44 C79 0.930 . S
H45 C80 0.930 . S
H46 C82 0.930 . S
H47 C83 0.930 . S
H48 C85 0.931 1_655 S
H49 C86 0.930 . S
H50 C88 0.930 . S
H51 C89 0.929 . S
H52 C91 0.930 1_655 S
H53 C92 0.931 1_655 S
H54 C94 0.930 . S
H55 C95 0.929 . S
H56 C97 0.931 . S
H57 C98 0.917 1_655 S
H58 C100 0.930 . S
H59 C101 0.932 . S
H60 C103 0.930 . S
H61 C104 0.929 . S
H62 C106 0.931 . S
H63 C107 0.930 . S
H64 C109 0.929 . S
H65 C110 0.931 . S
H66 C112 0.930 . S
H67 C113 0.929 . S
O68 H42 0.856 . S
O68 C114 1.300 . S
O69 C114 1.209 . S
O70 C115 1.199 . S
O71 H43 0.854 . S
O71 C115 1.297 . S
C72 C73 1.404 . S
C72 C77 1.397 . S
C72 C78 1.492 . S
C73 C72 1.404 . S
C73 C74 1.396 . S
C73 C84 1.492 . S
C74 C73 1.396 . S
C74 C75 1.397 . S
C74 C90 1.509 . S
C75 C74 1.397 . S
C75 C76 1.412 . S
C75 C96 1.485 . S
C76 C75 1.412 . S
C76 C77 1.388 . S
C76 C102 1.490 . S
C77 C72 1.397 . S
C77 C76 1.388 . S
C77 C108 1.519 . S
C78 C72 1.492 . S
C78 C79 1.363 1_455 S
C78 C83 1.390 . S
C79 H44 0.930 . S
C79 C78 1.363 1_655 S
C79 C80 1.372 . S
C80 H45 0.930 . S
C80 C79 1.372 . S
C80 C81 1.383 1_655 S
C81 C80 1.383 1_455 S
C81 C82 1.395 . S
C82 H46 0.930 . S
C82 C81 1.395 . S
C82 C83 1.362 . S
C83 H47 0.930 . S
C83 C78 1.390 . S
C83 C82 1.362 . S
C84 C73 1.492 . S
C84 C85 1.377 . S
C84 C89 1.397 . S
C85 H48 0.931 1_455 S
C85 C84 1.377 . S
C85 C86 1.376 . S
C86 H49 0.930 . S
C86 C85 1.376 . S
C86 C87 1.376 . S
C87 C86 1.376 . S
C87 C88 1.378 . S
C87 C114 1.486 . S
C88 H50 0.930 . S
C88 C87 1.378 . S
C88 C89 1.376 . S
C89 H51 0.929 . S
C89 C84 1.397 . S
C89 C88 1.376 . S
C90 C74 1.509 . S
C90 C91 1.391 . S
C90 C95 1.386 . S
C91 H52 0.930 1_455 S
C91 C90 1.391 . S
C91 C92 1.375 . S
C92 H53 0.931 1_455 S
C92 C91 1.375 . S
C92 C93 1.375 . S
C93 C92 1.375 . S
C93 C94 1.361 . S
C94 H54 0.930 . S
C94 C93 1.361 . S
C94 C95 1.399 . S
C95 H55 0.929 . S
C95 C90 1.386 . S
C95 C94 1.399 . S
C96 C75 1.485 . S
C96 C97 1.394 1_455 S
C96 C101 1.360 . S
C97 H56 0.931 . S
C97 C96 1.394 1_655 S
C97 C98 1.378 1_655 S
C98 H57 0.917 1_455 S
C98 C97 1.378 1_455 S
C98 C99 1.402 . S
C99 C98 1.402 . S
C99 C100 1.390 . S
C99 C115 1.476 . S
C100 H58 0.930 . S
C100 C99 1.390 . S
C100 C101 1.366 . S
C101 H59 0.932 . S
C101 C96 1.360 . S
C101 C100 1.366 . S
C102 C76 1.490 . S
C102 C103 1.380 1_455 S
C102 C107 1.386 . S
C103 H60 0.930 . S
C103 C102 1.380 1_655 S
C103 C104 1.381 . S
C104 H61 0.929 . S
C104 C103 1.381 . S
C104 C105 1.365 1_655 S
C105 C104 1.365 1_455 S
C105 C106 1.392 . S
C106 H62 0.931 . S
C106 C105 1.392 . S
C106 C107 1.387 . S
C107 H63 0.930 . S
C107 C102 1.386 . S
C107 C106 1.387 . S
C108 C77 1.519 . S
C108 C109 1.377 1_455 S
C108 C113 1.361 . S
C109 H64 0.929 . S
C109 C108 1.377 1_655 S
C109 C110 1.386 . S
C110 H65 0.931 . S
C110 C109 1.386 . S
C110 C111 1.363 1_655 S
C111 C110 1.363 1_455 S
C111 C112 1.385 . S
C112 H66 0.930 . S
C112 C111 1.385 . S
C112 C113 1.396 . S
C113 H67 0.929 . S
C113 C108 1.361 . S
C113 C112 1.396 . S
C114 O68 1.300 . S
C114 O69 1.209 . S
C114 C87 1.486 . S
C115 O70 1.199 . S
C115 O71 1.297 . S
C115 C99 1.476 . S
H116 O142 0.856 . S
H117 O145 0.854 . S
H118 C153 0.930 . S
H119 C154 0.930 1_565 S
H120 C156 0.930 . S
H121 C157 0.930 . S
H122 C159 0.931 . S
H123 C160 0.930 . S
H124 C162 0.930 . S
H125 C163 0.929 . S
H126 C165 0.930 . S
H127 C166 0.931 . S
H128 C168 0.930 . S
H129 C169 0.929 . S
H130 C171 0.931 . S
H131 C172 0.930 . S
H132 C174 0.930 . S
H133 C175 0.932 . S
H134 C177 0.930 . S
H135 C178 0.929 . S
H136 C180 0.931 . S
H137 C181 0.930 . S
H138 C183 0.929 . S
H139 C184 0.931 . S
H140 C186 0.930 . S
H141 C187 0.929 . S
O142 H116 0.856 . S
O142 C188 1.300 . S
O143 C188 1.209 . S
O144 C189 1.199 . S
O145 H117 0.854 . S
O145 C189 1.297 . S
C146 C147 1.404 . S
C146 C151 1.397 . S
C146 C152 1.492 . S
C147 C146 1.404 . S
C147 C148 1.396 . S
C147 C158 1.492 . S
C148 C147 1.396 . S
C148 C149 1.397 . S
C148 C164 1.509 . S
C149 C148 1.397 . S
C149 C150 1.412 . S
C149 C170 1.485 . S
C150 C149 1.412 . S
C150 C151 1.388 . S
C150 C176 1.490 . S
C151 C146 1.397 . S
C151 C150 1.388 . S
C151 C182 1.519 . S
C152 C146 1.492 . S
C152 C153 1.363 . S
C152 C157 1.390 . S
C153 H118 0.930 . S
C153 C152 1.363 . S
C153 C154 1.372 . S
C154 H119 0.930 1_545 S
C154 C153 1.372 . S
C154 C155 1.383 . S
C155 C154 1.383 . S
C155 C156 1.395 . S
C156 H120 0.930 . S
C156 C155 1.395 . S
C156 C157 1.362 . S
C157 H121 0.930 . S
C157 C152 1.390 . S
C157 C156 1.362 . S
C158 C147 1.492 . S
C158 C159 1.377 . S
C158 C163 1.397 . S
C159 H122 0.931 . S
C159 C158 1.377 . S
C159 C160 1.376 . S
C160 H123 0.930 . S
C160 C159 1.376 . S
C160 C161 1.376 . S
C161 C160 1.376 . S
C161 C162 1.378 . S
C161 C188 1.486 . S
C162 H124 0.930 . S
C162 C161 1.378 . S
C162 C163 1.376 . S
C163 H125 0.929 . S
C163 C158 1.397 . S
C163 C162 1.376 . S
C164 C148 1.509 . S
C164 C165 1.391 . S
C164 C169 1.386 . S
C165 H126 0.930 . S
C165 C164 1.391 . S
C165 C166 1.375 . S
C166 H127 0.931 . S
C166 C165 1.375 . S
C166 C167 1.375 . S
C167 C166 1.375 . S
C167 C168 1.361 . S
C168 H128 0.930 . S
C168 C167 1.361 . S
C168 C169 1.399 . S
C169 H129 0.929 . S
C169 C164 1.386 . S
C169 C168 1.399 . S
C170 C149 1.485 . S
C170 C171 1.394 . S
C170 C175 1.360 . S
C171 H130 0.931 . S
C171 C170 1.394 . S
C171 C172 1.372 . S
C172 H131 0.930 . S
C172 C171 1.372 . S
C172 C173 1.397 . S
C173 C172 1.397 . S
C173 C174 1.390 . S
C173 C189 1.476 . S
C174 H132 0.930 . S
C174 C173 1.390 . S
C174 C175 1.366 . S
C175 H133 0.932 . S
C175 C170 1.360 . S
C175 C174 1.366 . S
C176 C150 1.490 . S
C176 C177 1.380 . S
C176 C181 1.386 . S
C177 H134 0.930 . S
C177 C176 1.380 . S
C177 C178 1.381 . S
C178 H135 0.929 . S
C178 C177 1.381 . S
C178 C179 1.371 . S
C179 C178 1.371 . S
C179 C180 1.380 . S
C180 H136 0.931 . S
C180 C179 1.380 . S
C180 C181 1.387 . S
C181 H137 0.930 . S
C181 C176 1.386 . S
C181 C180 1.387 . S
C182 C151 1.519 . S
C182 C183 1.377 . S
C182 C187 1.361 . S
C183 H138 0.929 . S
C183 C182 1.377 . S
C183 C184 1.386 . S
C184 H139 0.931 . S
C184 C183 1.386 . S
C184 C185 1.363 . S
C185 C184 1.363 . S
C185 C186 1.385 . S
C186 H140 0.930 . S
C186 C185 1.385 . S
C186 C187 1.396 . S
C187 H141 0.929 . S
C187 C182 1.361 . S
C187 C186 1.396 . S
C188 O142 1.300 . S
C188 O143 1.209 . S
C188 C161 1.486 . S
C189 O144 1.199 . S
C189 O145 1.297 . S
C189 C173 1.476 . S
H190 O216 0.856 . S
H191 O219 0.854 . S
H192 C227 0.930 . S
H193 C228 0.930 . S
H194 C230 0.930 . S
H195 C231 0.930 . S
H196 C233 0.931 . S
H197 C234 0.934 . S
H198 C236 0.930 . S
H199 C237 0.929 . S
H200 C239 0.930 . S
H201 C240 0.931 . S
H202 C242 0.930 . S
H203 C243 0.929 . S
H204 C245 0.931 . S
H205 C246 0.930 . S
H206 C248 0.930 . S
H207 C249 0.932 . S
H208 C251 0.930 . S
H209 C252 0.929 . S
H210 C254 0.931 . S
H211 C255 0.930 . S
H212 C257 0.929 . S
H213 C258 0.931 . S
H214 C260 0.930 . S
H215 C261 0.929 . S
O216 H190 0.856 . S
O216 C262 1.300 . S
O217 C262 1.209 . S
O218 C263 1.199 . S
O219 H191 0.854 . S
O219 C263 1.297 . S
C220 C221 1.404 . S
C220 C225 1.397 . S
C220 C226 1.492 . S
C221 C220 1.404 . S
C221 C222 1.396 . S
C221 C232 1.492 . S
C222 C221 1.396 . S
C222 C223 1.397 . S
C222 C238 1.509 . S
C223 C222 1.397 . S
C223 C224 1.412 . S
C223 C244 1.485 . S
C224 C223 1.412 . S
C224 C225 1.388 . S
C224 C250 1.490 . S
C225 C220 1.397 . S
C225 C224 1.388 . S
C225 C256 1.519 . S
C226 C220 1.492 . S
C226 C227 1.363 . S
C226 C231 1.390 . S
C227 H192 0.930 . S
C227 C226 1.363 . S
C227 C228 1.372 . S
C228 H193 0.930 . S
C228 C227 1.372 . S
C228 C229 1.383 . S
C229 C228 1.383 . S
C229 C230 1.395 . S
C230 H194 0.930 . S
C230 C229 1.395 . S
C230 C231 1.362 . S
C231 H195 0.930 . S
C231 C226 1.390 . S
C231 C230 1.362 . S
C232 C221 1.492 . S
C232 C233 1.377 . S
C232 C237 1.397 . S
C233 H196 0.931 . S
C233 C232 1.377 . S
C233 C234 1.376 . S
C234 H197 0.934 . S
C234 C233 1.376 . S
C234 C235 1.376 . S
C235 C234 1.376 . S
C235 C236 1.378 . S
C235 C262 1.486 1_556 S
C236 H198 0.930 . S
C236 C235 1.378 . S
C236 C237 1.376 . S
C237 H199 0.929 . S
C237 C232 1.397 . S
C237 C236 1.376 . S
C238 C222 1.509 . S
C238 C239 1.391 . S
C238 C243 1.386 . S
C239 H200 0.930 . S
C239 C238 1.391 . S
C239 C240 1.375 . S
C240 H201 0.931 . S
C240 C239 1.375 . S
C240 C241 1.375 . S
C241 C240 1.375 . S
C241 C242 1.361 . S
C242 H202 0.930 . S
C242 C241 1.361 . S
C242 C243 1.399 . S
C243 H203 0.929 . S
C243 C238 1.386 . S
C243 C242 1.399 . S
C244 C223 1.485 . S
C244 C245 1.394 . S
C244 C249 1.360 . S
C245 H204 0.931 . S
C245 C244 1.394 . S
C245 C246 1.372 . S
C246 H205 0.930 . S
C246 C245 1.372 . S
C246 C247 1.397 . S
C247 C246 1.397 . S
C247 C248 1.390 . S
C247 C263 1.476 . S
C248 H206 0.930 . S
C248 C247 1.390 . S
C248 C249 1.366 . S
C249 H207 0.932 . S
C249 C244 1.360 . S
C249 C248 1.366 . S
C250 C224 1.490 . S
C250 C251 1.380 . S
C250 C255 1.386 . S
C251 H208 0.930 . S
C251 C250 1.380 . S
C251 C252 1.381 . S
C252 H209 0.929 . S
C252 C251 1.381 . S
C252 C253 1.371 . S
C253 C252 1.371 . S
C253 C254 1.380 . S
C254 H210 0.931 . S
C254 C253 1.380 . S
C254 C255 1.387 . S
C255 H211 0.930 . S
C255 C250 1.386 . S
C255 C254 1.387 . S
C256 C225 1.519 . S
C256 C257 1.377 . S
C256 C261 1.361 . S
C257 H212 0.929 . S
C257 C256 1.377 . S
C257 C258 1.386 . S
C258 H213 0.931 . S
C258 C257 1.386 . S
C258 C259 1.363 . S
C259 C258 1.363 . S
C259 C260 1.385 . S
C260 H214 0.930 . S
C260 C259 1.385 . S
C260 C261 1.396 . S
C261 H215 0.929 . S
C261 C256 1.361 . S
C261 C260 1.396 . S
C262 O216 1.300 . S
C262 O217 1.209 . S
C262 C235 1.486 1_554 S
C263 O218 1.199 . S
C263 O219 1.297 . S
C263 C247 1.476 . S
H264 C270 0.930 1_655 S
H265 C273 0.930 . S
H266 C274 0.930 . S
H267 C275 0.930 . S
H268 C278 0.930 . S
H269 C279 0.930 . S
C270 H264 0.930 1_455 S
C270 C271 1.355 . S
C270 C272 1.415 . S
C271 C270 1.355 . S
C271 C273 1.419 . S
C272 C270 1.415 . S
C272 C277 1.425 . S
C272 C279 1.409 1_455 S
C273 H265 0.930 . S
C273 C271 1.419 . S
C273 C274 1.362 . S
C274 H266 0.930 . S
C274 C273 1.362 . S
C274 C277 1.409 . S
C275 H267 0.930 . S
C275 C276 1.355 . S
C275 C277 1.415 . S
C276 C275 1.355 . S
C276 C278 1.419 1_455 S
C277 C272 1.425 . S
C277 C274 1.409 . S
C277 C275 1.415 . S
C278 H268 0.930 . S
C278 C276 1.419 1_655 S
C278 C279 1.362 . S
C279 H269 0.930 . S
C279 C272 1.409 1_655 S
C279 C278 1.362 . S
H280 C286 0.930 . S
H281 C289 0.930 . S
H282 C290 0.930 . S
H283 C291 0.930 . S
H284 C294 0.930 . S
H285 C295 0.930 . S
C286 H280 0.930 . S
C286 C287 1.355 1_545 S
C286 C288 1.415 . S
C287 C286 1.355 1_565 S
C287 C289 1.419 . S
C288 C286 1.415 . S
C288 C293 1.425 . S
C288 C295 1.409 . S
C289 H281 0.930 . S
C289 C287 1.419 . S
C289 C290 1.362 . S
C290 H282 0.930 . S
C290 C289 1.362 . S
C290 C293 1.409 1_565 S
C291 H283 0.930 . S
C291 C292 1.355 . S
C291 C293 1.415 . S
C292 C291 1.355 . S
C292 C294 1.419 . S
C293 C288 1.425 . S
C293 C290 1.409 1_545 S
C293 C291 1.415 . S
C294 H284 0.930 . S
C294 C292 1.419 . S
C294 C295 1.362 . S
C295 H285 0.930 . S
C295 C288 1.409 . S
C295 C294 1.362 . S
H296 C302 0.930 . S
H297 C305 0.930 1_545 S
H298 C306 0.930 . S
H299 C307 0.930 . S
H300 C310 0.930 . S
H301 C311 0.930 . S
C302 H296 0.930 . S
C302 C303 1.355 . S
C302 C304 1.415 . S
C303 C302 1.355 . S
C303 C305 1.419 . S
C304 C302 1.415 . S
C304 C309 1.425 . S
C304 C311 1.409 . S
C305 H297 0.930 1_565 S
C305 C303 1.419 . S
C305 C306 1.362 . S
C306 H298 0.930 . S
C306 C305 1.362 . S
C306 C309 1.409 . S
C307 H299 0.930 . S
C307 C308 1.355 . S
C307 C309 1.415 . S
C308 C307 1.355 . S
C308 C310 1.419 . S
C309 C304 1.425 . S
C309 C306 1.409 . S
C309 C307 1.415 . S
C310 H300 0.930 . S
C310 C308 1.419 . S
C310 C311 1.362 . S
C311 H301 0.930 . S
C311 C304 1.409 . S
C311 C310 1.362 . S
H312 C318 0.930 . S
H313 C321 0.930 . S
H314 C322 0.930 1_655 S
H315 C323 0.930 . S
H316 C326 0.930 . S
H317 C327 0.930 . S
C318 H312 0.930 . S
C318 C319 1.355 . S
C318 C320 1.415 . S
C319 C318 1.355 . S
C319 C321 1.419 . S
C320 C318 1.415 . S
C320 C325 1.425 . S
C320 C327 1.409 . S
C321 H313 0.930 . S
C321 C319 1.419 . S
C321 C322 1.362 . S
C322 H314 0.930 1_455 S
C322 C321 1.362 . S
C322 C325 1.409 . S
C323 H315 0.930 . S
C323 C324 1.355 . S
C323 C325 1.415 . S
C324 C323 1.355 . S
C324 C326 1.419 . S
C325 C320 1.425 . S
C325 C322 1.409 . S
C325 C323 1.415 . S
C326 H316 0.930 . S
C326 C324 1.419 . S
C326 C327 1.362 . S
C327 H317 0.930 . S
C327 C320 1.409 . S
C327 C326 1.362 . S
H328 C334 0.930 1_565 S
H329 C337 0.930 . S
H330 C338 0.930 . S
H331 C339 0.930 . S
H332 C342 0.930 . S
H333 C343 0.930 1_565 S
C334 H328 0.930 1_545 S
C334 C335 1.355 . S
C334 C336 1.415 . S
C335 C334 1.355 . S
C335 C337 1.419 . S
C336 C334 1.415 . S
C336 C341 1.425 . S
C336 C343 1.409 . S
C337 H329 0.930 . S
C337 C335 1.419 . S
C337 C338 1.362 . S
C338 H330 0.930 . S
C338 C337 1.362 . S
C338 C341 1.409 . S
C339 H331 0.930 . S
C339 C340 1.355 . S
C339 C341 1.415 . S
C340 C339 1.355 . S
C340 C342 1.419 . S
C341 C336 1.425 . S
C341 C338 1.409 . S
C341 C339 1.415 . S
C342 H332 0.930 . S
C342 C340 1.419 . S
C342 C343 1.362 . S
C343 H333 0.930 1_545 S
C343 C336 1.409 . S
C343 C342 1.362 . S
H344 C350 0.930 . S
H345 C353 0.930 . S
H346 C354 0.930 . S
H347 C355 0.930 . S
H348 C358 0.930 . S
H349 C359 0.930 . S
C350 H344 0.930 . S
C350 C351 1.355 . S
C350 C352 1.415 . S
C351 C350 1.355 . S
C351 C353 1.419 . S
C352 C350 1.415 . S
C352 C357 1.425 . S
C352 C359 1.409 . S
C353 H345 0.930 . S
C353 C351 1.419 . S
C353 C354 1.362 . S
C354 H346 0.930 . S
C354 C353 1.362 . S
C354 C357 1.409 . S
C355 H347 0.930 . S
C355 C356 1.355 . S
C355 C357 1.415 . S
C356 C355 1.355 . S
C356 C358 1.419 . S
C357 C352 1.425 . S
C357 C354 1.409 . S
C357 C355 1.415 . S
C358 H348 0.930 . S
C358 C356 1.419 . S
C358 C359 1.362 . S
C359 H349 0.930 . S
C359 C352 1.409 . S
C359 C358 1.362 . S
H360 C366 0.930 . S
H361 C369 0.930 1_455 S
H362 C370 0.930 . S
H363 C371 0.930 . S
H364 C374 0.930 . S
H365 C375 0.930 . S
C366 H360 0.930 . S
C366 C367 1.355 . S
C366 C368 1.415 . S
C367 C366 1.355 . S
C367 C369 1.419 . S
C368 C366 1.415 . S
C368 C373 1.425 . S
C368 C375 1.409 . S
C369 H361 0.930 1_655 S
C369 C367 1.419 . S
C369 C370 1.362 . S
C370 H362 0.930 . S
C370 C369 1.362 . S
C370 C373 1.409 . S
C371 H363 0.930 . S
C371 C372 1.355 . S
C371 C373 1.415 . S
C372 C371 1.355 . S
C372 C374 1.419 . S
C373 C368 1.425 . S
C373 C370 1.409 . S
C373 C371 1.415 . S
C374 H364 0.930 . S
C374 C372 1.419 . S
C374 C375 1.362 . S
C375 H365 0.930 . S
C375 C368 1.409 . S
C375 C374 1.362 . S
H376 C382 0.935 1_445 S
H377 C385 0.930 . S
H378 C386 0.930 . S
H379 C387 0.930 . S
H380 C390 0.930 . S
H381 C391 0.930 1_545 S
C382 H376 0.935 1_665 S
C382 C383 1.355 . S
C382 C384 1.415 1_554 S
C383 C382 1.355 . S
C383 C385 1.419 . S
C384 C382 1.415 1_556 S
C384 C389 1.425 . S
C384 C391 1.409 . S
C385 H377 0.930 . S
C385 C383 1.419 . S
C385 C386 1.362 . S
C386 H378 0.930 . S
C386 C385 1.362 . S
C386 C389 1.409 1_554 S
C387 H379 0.930 . S
C387 C388 1.355 . S
C387 C389 1.415 . S
C388 C387 1.355 . S
C388 C390 1.419 . S
C389 C384 1.425 . S
C389 C386 1.409 1_556 S
C389 C387 1.415 . S
C390 H380 0.930 . S
C390 C388 1.419 . S
C390 C391 1.362 . S
C391 H381 0.930 1_565 S
C391 C384 1.409 . S
C391 C390 1.362 . S
H392 C398 0.930 . S
H393 C401 0.930 . S
H394 C402 0.930 . S
H395 C403 0.930 . S
H396 C406 0.930 . S
H397 C407 0.930 . S
C398 H392 0.930 . S
C398 C399 1.355 1_455 S
C398 C400 1.415 . S
C399 C398 1.355 1_655 S
C399 C401 1.419 . S
C400 C398 1.415 . S
C400 C405 1.425 1_455 S
C400 C407 1.409 . S
C401 H393 0.930 . S
C401 C399 1.419 . S
C401 C402 1.362 . S
C402 H394 0.930 . S
C402 C401 1.362 . S
C402 C405 1.409 . S
C403 H395 0.930 . S
C403 C404 1.355 . S
C403 C405 1.415 . S
C404 C403 1.355 . S
C404 C406 1.419 1_655 S
C405 C400 1.425 1_655 S
C405 C402 1.409 . S
C405 C403 1.415 . S
C406 H396 0.930 . S
C406 C404 1.419 1_455 S
C406 C407 1.362 . S
C407 H397 0.930 . S
C407 C400 1.409 . S
C407 C406 1.362 . S
H408 C414 0.930 . S
H409 C417 0.930 . S
H410 C418 0.930 . S
H411 C419 0.930 . S
H412 C422 0.930 . S
H413 C423 0.930 . S
C414 H408 0.930 . S
C414 C415 1.355 . S
C414 C416 1.415 . S
C415 C414 1.355 . S
C415 C417 1.419 . S
C416 C414 1.415 . S
C416 C421 1.425 . S
C416 C423 1.409 . S
C417 H409 0.930 . S
C417 C415 1.419 . S
C417 C418 1.362 . S
C418 H410 0.930 . S
C418 C417 1.362 . S
C418 C421 1.409 . S
C419 H411 0.930 . S
C419 C420 1.355 . S
C419 C421 1.415 . S
C420 C419 1.355 . S
C420 C422 1.419 . S
C421 C416 1.425 . S
C421 C418 1.409 . S
C421 C419 1.415 . S
C422 H412 0.930 . S
C422 C420 1.419 . S
C422 C423 1.362 . S
C423 H413 0.930 . S
C423 C416 1.409 . S
C423 C422 1.362 . S
H424 C430 0.930 . S
H425 C433 0.930 . S
H426 C434 0.930 . S
H427 C435 0.930 . S
H428 C438 0.930 . S
H429 C439 0.930 . S
C430 H424 0.930 . S
C430 C431 1.355 . S
C430 C432 1.431 . S
C431 C430 1.355 . S
C431 C433 1.419 . S
C432 C430 1.431 . S
C432 C437 1.439 . S
C432 C439 1.380 1_554 S
C433 H425 0.930 . S
C433 C431 1.419 . S
C433 C434 1.362 . S
C434 H426 0.930 . S
C434 C433 1.362 . S
C434 C437 1.409 . S
C435 H427 0.930 . S
C435 C436 1.355 1_554 S
C435 C437 1.415 . S
C436 C435 1.355 1_556 S
C436 C438 1.419 . S
C437 C432 1.439 . S
C437 C434 1.409 . S
C437 C435 1.415 . S
C438 H428 0.930 . S
C438 C436 1.419 . S
C438 C439 1.362 . S
C439 H429 0.930 . S
C439 C432 1.380 1_556 S
C439 C438 1.362 . S
H440 C446 0.930 . S
H441 C449 0.930 . S
H442 C450 0.930 . S
H443 C451 0.930 1_655 S
H444 C454 0.930 . S
H445 C455 0.930 . S
C446 H440 0.930 . S
C446 C447 1.355 . S
C446 C448 1.415 . S
C447 C446 1.355 . S
C447 C449 1.419 1_455 S
C448 C446 1.415 . S
C448 C453 1.425 . S
C448 C455 1.409 . S
C449 H441 0.930 . S
C449 C447 1.419 1_655 S
C449 C450 1.362 . S
C450 H442 0.930 . S
C450 C449 1.362 . S
C450 C453 1.409 1_655 S
C451 H443 0.930 1_455 S
C451 C452 1.355 . S
C451 C453 1.415 . S
C452 C451 1.355 . S
C452 C454 1.419 . S
C453 C448 1.425 . S
C453 C450 1.409 1_455 S
C453 C451 1.415 . S
C454 H444 0.930 . S
C454 C452 1.419 . S
C454 C455 1.362 . S
C455 H445 0.930 . S
C455 C448 1.409 . S
C455 C454 1.362 . S
C276 C81 1.393 . S
C271 C11 1.447 . S
C287 C26 1.532 . S
C292 C155 1.475 . S
C303 C40 1.978 1_665 S
C308 C259 2.003 . S
C319 C5 0.849 1_565 S
C324 C93 0.784 . S
C340 C167 0.913 . S
C335 C18 0.911 . S
C351 C32 1.568 . S
C356 C253 1.400 . S
C372 C185 1.933 . S
C367 C39 1.932 1_655 S
C383 C4 1.446 1_665 S
C388 C229 1.417 . S
C404 C105 1.430 1_655 S
C399 C19 1.339 . S
C420 C179 1.357 . S
C415 C33 1.242 . S
C436 C241 0.803 . S
C431 C12 0.834 . S
C447 C25 2.044 . S
C452 C111 2.072 . S
