# Generated by pormake.
# Topology eea, (3,6)-cn, num edge types: 1
# Building blocks:
#     Node 0, Type 0, BuildingBlock: CUQRIR_clean_linker_1, # of connection points: 3
#     Node 1, Type 0, BuildingBlock: CUQRIR_clean_linker_1, # of connection points: 3
#     Node 2, Type 0, BuildingBlock: CUQRIR_clean_linker_1, # of connection points: 3
#     Node 3, Type 0, BuildingBlock: CUQRIR_clean_linker_1, # of connection points: 3
#     Node 4, Type 0, BuildingBlock: CUQRIR_clean_linker_1, # of connection points: 3
#     Node 5, Type 0, BuildingBlock: CUQRIR_clean_linker_1, # of connection points: 3
#     Node 6, Type 0, BuildingBlock: CUQRIR_clean_linker_1, # of connection points: 3
#     Node 7, Type 0, BuildingBlock: CUQRIR_clean_linker_1, # of connection points: 3
#     Node 8, Type 0, BuildingBlock: CUQRIR_clean_linker_1, # of connection points: 3
#     Node 9, Type 0, BuildingBlock: CUQRIR_clean_linker_1, # of connection points: 3
#     Node 10, Type 0, BuildingBlock: CUQRIR_clean_linker_1, # of connection points: 3
#     Node 11, Type 0, BuildingBlock: CUQRIR_clean_linker_1, # of connection points: 3
#     Node 12, Type 0, BuildingBlock: CUQRIR_clean_linker_1, # of connection points: 3
#     Node 13, Type 0, BuildingBlock: CUQRIR_clean_linker_1, # of connection points: 3
#     Node 14, Type 0, BuildingBlock: CUQRIR_clean_linker_1, # of connection points: 3
#     Node 15, Type 0, BuildingBlock: CUQRIR_clean_linker_1, # of connection points: 3
#     Node 16, Type 0, BuildingBlock: CUQRIR_clean_linker_1, # of connection points: 3
#     Node 17, Type 0, BuildingBlock: CUQRIR_clean_linker_1, # of connection points: 3
#     Node 18, Type 1, BuildingBlock: NUHQIS_clean_sbu_0, # of connection points: 6
#     Node 19, Type 1, BuildingBlock: NUHQIS_clean_sbu_0, # of connection points: 6
#     Node 20, Type 1, BuildingBlock: NUHQIS_clean_sbu_0, # of connection points: 6
#     Node 21, Type 1, BuildingBlock: NUHQIS_clean_sbu_0, # of connection points: 6
#     Node 22, Type 1, BuildingBlock: NUHQIS_clean_sbu_0, # of connection points: 6
#     Node 23, Type 1, BuildingBlock: NUHQIS_clean_sbu_0, # of connection points: 6
#     Node 24, Type 1, BuildingBlock: NUHQIS_clean_sbu_0, # of connection points: 6
#     Node 25, Type 1, BuildingBlock: NUHQIS_clean_sbu_0, # of connection points: 6
#     Node 26, Type 1, BuildingBlock: NUHQIS_clean_sbu_0, # of connection points: 6
#     Edge 27, Type (0, 1), BuildingBlock: AJUNOK_clean_linker_0, # of connection points: 2
#     Edge 28, Type (0, 1), BuildingBlock: AJUNOK_clean_linker_0, # of connection points: 2
#     Edge 29, Type (0, 1), BuildingBlock: AJUNOK_clean_linker_0, # of connection points: 2
#     Edge 30, Type (0, 1), BuildingBlock: AJUNOK_clean_linker_0, # of connection points: 2
#     Edge 31, Type (0, 1), BuildingBlock: AJUNOK_clean_linker_0, # of connection points: 2
#     Edge 32, Type (0, 1), BuildingBlock: AJUNOK_clean_linker_0, # of connection points: 2
#     Edge 33, Type (0, 1), BuildingBlock: AJUNOK_clean_linker_0, # of connection points: 2
#     Edge 34, Type (0, 1), BuildingBlock: AJUNOK_clean_linker_0, # of connection points: 2
#     Edge 35, Type (0, 1), BuildingBlock: AJUNOK_clean_linker_0, # of connection points: 2
#     Edge 36, Type (0, 1), BuildingBlock: AJUNOK_clean_linker_0, # of connection points: 2
#     Edge 37, Type (0, 1), BuildingBlock: AJUNOK_clean_linker_0, # of connection points: 2
#     Edge 38, Type (0, 1), BuildingBlock: AJUNOK_clean_linker_0, # of connection points: 2
#     Edge 39, Type (0, 1), BuildingBlock: AJUNOK_clean_linker_0, # of connection points: 2
#     Edge 40, Type (0, 1), BuildingBlock: AJUNOK_clean_linker_0, # of connection points: 2
#     Edge 41, Type (0, 1), BuildingBlock: AJUNOK_clean_linker_0, # of connection points: 2
#     Edge 42, Type (0, 1), BuildingBlock: AJUNOK_clean_linker_0, # of connection points: 2
#     Edge 43, Type (0, 1), BuildingBlock: AJUNOK_clean_linker_0, # of connection points: 2
#     Edge 44, Type (0, 1), BuildingBlock: AJUNOK_clean_linker_0, # of connection points: 2
#     Edge 45, Type (0, 1), BuildingBlock: AJUNOK_clean_linker_0, # of connection points: 2
#     Edge 46, Type (0, 1), BuildingBlock: AJUNOK_clean_linker_0, # of connection points: 2
#     Edge 47, Type (0, 1), BuildingBlock: AJUNOK_clean_linker_0, # of connection points: 2
#     Edge 48, Type (0, 1), BuildingBlock: AJUNOK_clean_linker_0, # of connection points: 2
#     Edge 49, Type (0, 1), BuildingBlock: AJUNOK_clean_linker_0, # of connection points: 2
#     Edge 50, Type (0, 1), BuildingBlock: AJUNOK_clean_linker_0, # of connection points: 2
#     Edge 51, Type (0, 1), BuildingBlock: AJUNOK_clean_linker_0, # of connection points: 2
#     Edge 52, Type (0, 1), BuildingBlock: AJUNOK_clean_linker_0, # of connection points: 2
#     Edge 53, Type (0, 1), BuildingBlock: AJUNOK_clean_linker_0, # of connection points: 2
#     Edge 54, Type (0, 1), BuildingBlock: AJUNOK_clean_linker_0, # of connection points: 2
#     Edge 55, Type (0, 1), BuildingBlock: AJUNOK_clean_linker_0, # of connection points: 2
#     Edge 56, Type (0, 1), BuildingBlock: AJUNOK_clean_linker_0, # of connection points: 2
#     Edge 57, Type (0, 1), BuildingBlock: AJUNOK_clean_linker_0, # of connection points: 2
#     Edge 58, Type (0, 1), BuildingBlock: AJUNOK_clean_linker_0, # of connection points: 2
#     Edge 59, Type (0, 1), BuildingBlock: AJUNOK_clean_linker_0, # of connection points: 2
#     Edge 60, Type (0, 1), BuildingBlock: AJUNOK_clean_linker_0, # of connection points: 2
#     Edge 61, Type (0, 1), BuildingBlock: AJUNOK_clean_linker_0, # of connection points: 2
#     Edge 62, Type (0, 1), BuildingBlock: AJUNOK_clean_linker_0, # of connection points: 2
#     Edge 63, Type (0, 1), BuildingBlock: AJUNOK_clean_linker_0, # of connection points: 2
#     Edge 64, Type (0, 1), BuildingBlock: AJUNOK_clean_linker_0, # of connection points: 2
#     Edge 65, Type (0, 1), BuildingBlock: AJUNOK_clean_linker_0, # of connection points: 2
#     Edge 66, Type (0, 1), BuildingBlock: AJUNOK_clean_linker_0, # of connection points: 2
#     Edge 67, Type (0, 1), BuildingBlock: AJUNOK_clean_linker_0, # of connection points: 2
#     Edge 68, Type (0, 1), BuildingBlock: AJUNOK_clean_linker_0, # of connection points: 2
#     Edge 69, Type (0, 1), BuildingBlock: AJUNOK_clean_linker_0, # of connection points: 2
#     Edge 70, Type (0, 1), BuildingBlock: AJUNOK_clean_linker_0, # of connection points: 2
#     Edge 71, Type (0, 1), BuildingBlock: AJUNOK_clean_linker_0, # of connection points: 2
#     Edge 72, Type (0, 1), BuildingBlock: AJUNOK_clean_linker_0, # of connection points: 2
#     Edge 73, Type (0, 1), BuildingBlock: AJUNOK_clean_linker_0, # of connection points: 2
#     Edge 74, Type (0, 1), BuildingBlock: AJUNOK_clean_linker_0, # of connection points: 2
#     Edge 75, Type (0, 1), BuildingBlock: AJUNOK_clean_linker_0, # of connection points: 2
#     Edge 76, Type (0, 1), BuildingBlock: AJUNOK_clean_linker_0, # of connection points: 2
#     Edge 77, Type (0, 1), BuildingBlock: AJUNOK_clean_linker_0, # of connection points: 2
#     Edge 78, Type (0, 1), BuildingBlock: AJUNOK_clean_linker_0, # of connection points: 2
#     Edge 79, Type (0, 1), BuildingBlock: AJUNOK_clean_linker_0, # of connection points: 2
#     Edge 80, Type (0, 1), BuildingBlock: AJUNOK_clean_linker_0, # of connection points: 2
# Relax obj value: 0.109
# Max RMSD: 0.270
# Mean RMSD: 0.197
data_MOF--net-eea--node1-NUHQIS_clean_sbu_0--node2-CUQRIR_clean_linker_1--edge1-AJUNOK_clean_linker_0
_symmetry_space_group_name_H-M    P1
_symmetry_Int_Tables_number       1
_symmetry_cell_setting            triclinic
loop_
_symmetry_equiv_pos_as_xyz
'x, y, z'
_cell_length_a     34.44338
_cell_length_b     35.738434
_cell_length_c     50.497018
_cell_angle_alpha  86.600659
_cell_angle_beta   92.450935
_cell_angle_gamma 119.07952
loop_
_atom_site_label
_atom_site_type_symbol
_atom_site_fract_x
_atom_site_fract_y
_atom_site_fract_z
_atom_type_partial_charge
C0 C 0.20777 0.10305 0.41131 0.0
N1 N 0.22375 0.13732 0.42683 0.0
N2 N 0.21409 0.07141 0.42327 0.0
C3 C 0.18179 0.0988 0.38588 0.0
C4 C 0.23386 0.08746 0.44677 0.0
N5 N 0.23925 0.12725 0.44909 0.0
C6 C 0.25074 0.06549 0.46672 0.0
H7 H 0.15841 0.06466 0.38217 0.0
H8 H 0.20501 0.11273 0.36906 0.0
H9 H 0.16291 0.11655 0.38656 0.0
H10 H 0.25964 0.0438 0.45689 0.0
H11 H 0.2243 0.04619 0.48126 0.0
H12 H 0.28029 0.08929 0.47767 0.0
C13 C 0.92122 0.124 0.41486 0.0
N14 N 0.94021 0.15738 0.43127 0.0
N15 N 0.88458 0.09092 0.42584 0.0
C16 C 0.93995 0.1223 0.38884 0.0
C17 C 0.88189 0.10502 0.44961 0.0
N18 N 0.9159 0.14512 0.45318 0.0
C19 C 0.84477 0.08049 0.46893 0.0
H20 H 0.92547 0.13417 0.37261 0.0
H21 H 0.93121 0.08888 0.38485 0.0
H22 H 0.97662 0.14259 0.38871 0.0
H23 H 0.81524 0.05442 0.45928 0.0
H24 H 0.83484 0.1022 0.47776 0.0
H25 H 0.85667 0.06632 0.4853 0.0
C26 C 0.87978 0.74927 0.40216 0.0
N27 N 0.90354 0.73949 0.42067 0.0
N28 N 0.84425 0.74844 0.41316 0.0
C29 C 0.89396 0.76421 0.37392 0.0
C30 C 0.84741 0.73846 0.43911 0.0
N31 N 0.88371 0.73357 0.44379 0.0
C32 C 0.81721 0.73694 0.46036 0.0
H33 H 0.92672 0.79382 0.37384 0.0
H34 H 0.86951 0.77051 0.36234 0.0
H35 H 0.89782 0.7395 0.36388 0.0
H36 H 0.81061 0.7103 0.47509 0.0
H37 H 0.78521 0.73301 0.45212 0.0
H38 H 0.83391 0.76738 0.47089 0.0
C39 C 0.13066 0.27115 0.67403 0.0
N40 N 0.16374 0.28567 0.65622 0.0
N41 N 0.09545 0.27403 0.66351 0.0
C42 C 0.13034 0.24828 0.70015 0.0
C43 C 0.10806 0.29055 0.63861 0.0
N44 N 0.14941 0.29732 0.63403 0.0
C45 C 0.079 0.29814 0.6184 0.0
H46 H 0.1383 0.2223 0.69693 0.0
H47 H 0.09792 0.23437 0.71015 0.0
H48 H 0.15647 0.2712 0.71346 0.0
H49 H 0.09928 0.32711 0.60562 0.0
H50 H 0.05296 0.30193 0.6282 0.0
H51 H 0.06253 0.2703 0.60553 0.0
C52 C 0.80572 0.89915 0.66484 0.0
N53 N 0.79501 0.86873 0.64689 0.0
N54 N 0.79518 0.92932 0.65532 0.0
C55 C 0.82311 0.89744 0.6925 0.0
C56 C 0.77725 0.91601 0.63103 0.0
N57 N 0.77699 0.87914 0.62588 0.0
C58 C 0.76073 0.93947 0.61206 0.0
H59 H 0.80892 0.86374 0.70029 0.0
H60 H 0.81502 0.91581 0.70613 0.0
H61 H 0.85974 0.91144 0.692 0.0
H62 H 0.76502 0.93433 0.59118 0.0
H63 H 0.77846 0.97434 0.61538 0.0
H64 H 0.72476 0.92691 0.61529 0.0
C65 C 0.11443 0.92558 0.65839 0.0
N66 N 0.09742 0.88947 0.64445 0.0
N67 N 0.15138 0.95754 0.64671 0.0
C68 C 0.09365 0.9303 0.68268 0.0
C69 C 0.15639 0.93928 0.62524 0.0
N70 N 0.12343 0.89826 0.62372 0.0
C71 C 0.19483 0.96035 0.6065 0.0
H72 H 0.05722 0.90846 0.68248 0.0
H73 H 0.10043 0.96384 0.68397 0.0
H74 H 0.10808 0.9219 0.7006 0.0
H75 H 0.20495 0.93698 0.60061 0.0
H76 H 0.22396 0.98767 0.61553 0.0
H77 H 0.18428 0.97199 0.58821 0.0
C78 C 0.88005 0.43769 0.74306 0.0
N79 N 0.89535 0.47156 0.75888 0.0
N80 N 0.8828 0.40459 0.75583 0.0
C81 C 0.85848 0.43534 0.71621 0.0
C82 C 0.89969 0.41928 0.78006 0.0
N83 N 0.90683 0.45971 0.782 0.0
C84 C 0.91128 0.39494 0.80139 0.0
H85 H 0.84176 0.45525 0.71501 0.0
H86 H 0.83389 0.40173 0.71197 0.0
H87 H 0.88424 0.44768 0.70075 0.0
H88 H 0.9396 0.41707 0.81387 0.0
H89 H 0.91979 0.37213 0.79266 0.0
H90 H 0.88215 0.37651 0.81433 0.0
C91 C 0.58923 0.46339 0.7471 0.0
N92 N 0.61163 0.49481 0.76457 0.0
N93 N 0.54923 0.43393 0.75672 0.0
C94 C 0.60687 0.4606 0.72094 0.0
C95 C 0.54758 0.44859 0.78047 0.0
N96 N 0.58527 0.4856 0.78536 0.0
C97 C 0.5091 0.42652 0.79913 0.0
H98 H 0.5796 0.44521 0.70618 0.0
H99 H 0.62336 0.44059 0.72388 0.0
H100 H 0.63138 0.49278 0.7129 0.0
H101 H 0.51819 0.4104 0.81577 0.0
H102 H 0.47879 0.40227 0.789 0.0
H103 H 0.50178 0.45026 0.80767 0.0
C104 C 0.55942 0.11861 0.74401 0.0
N105 N 0.58227 0.10698 0.76197 0.0
N106 N 0.52175 0.11342 0.75458 0.0
C107 C 0.57302 0.13348 0.7157 0.0
C108 C 0.52221 0.09801 0.77964 0.0
N109 N 0.55895 0.09379 0.78415 0.0
C110 C 0.48829 0.08943 0.80029 0.0
H111 H 0.59342 0.16892 0.71457 0.0
H112 H 0.54341 0.1243 0.70256 0.0
H113 H 0.59314 0.11969 0.70846 0.0
H114 H 0.46354 0.05481 0.80096 0.0
H115 H 0.47073 0.10815 0.79564 0.0
H116 H 0.50434 0.09745 0.82021 0.0
C117 C 0.79988 0.60309 1.00661 0.0
N118 N 0.83288 0.6178 0.98874 0.0
N119 N 0.76438 0.60545 0.99609 0.0
C120 C 0.80007 0.58098 0.03296 0.0
C121 C 0.77669 0.62166 0.9711 0.0
N122 N 0.8181 0.62865 0.96647 0.0
C123 C 0.74747 0.62919 0.95097 0.0
H124 H 0.76628 0.56191 0.04119 0.0
H125 H 0.82107 0.60551 0.0473 0.0
H126 H 0.81461 0.55957 0.03097 0.0
H127 H 0.76775 0.6572 0.93751 0.0
H128 H 0.72256 0.63452 0.96093 0.0
H129 H 0.7295 0.60066 0.93878 0.0
C130 C 0.472 0.23051 0.99782 0.0
N131 N 0.46295 0.20072 0.97966 0.0
N132 N 0.45935 0.2593 0.98857 0.0
C133 C 0.49069 0.23008 1.02527 0.0
C134 C 0.44224 0.24604 0.96412 0.0
N135 N 0.44382 0.21012 0.9588 0.0
C136 C 0.42667 0.26966 0.9446 0.0
H137 H 0.47835 0.24436 0.03942 0.0
H138 H 0.52744 0.24941 1.02478 0.0
H139 H 0.48173 0.19696 0.03245 0.0
H140 H 0.44096 0.30381 0.94936 0.0
H141 H 0.3899 0.25426 0.94512 0.0
H142 H 0.43599 0.26784 0.92413 0.0
C143 C 0.78325 0.25466 0.9942 0.0
N144 N 0.76356 0.22023 0.97866 0.0
N145 N 0.81527 0.28909 0.98075 0.0
C146 C 0.77204 0.2545 1.02272 0.0
C147 C 0.81413 0.2745 0.95641 0.0
N148 N 0.78233 0.23288 0.95496 0.0
C149 C 0.8451 0.30038 0.93423 0.0
H150 H 0.73665 0.23121 1.02654 0.0
H151 H 0.77885 0.28665 1.02829 0.0
H152 H 0.79311 0.24527 0.03568 0.0
H153 H 0.87081 0.33251 0.94031 0.0
H154 H 0.82569 0.30473 0.91741 0.0
H155 H 0.86136 0.28273 0.92703 0.0
C156 C 0.54495 0.76726 0.0777 0.0
N157 N 0.56178 0.80224 0.09269 0.0
N158 N 0.54853 0.73483 0.09078 0.0
C159 C 0.52225 0.76353 0.05112 0.0
C160 C 0.56817 0.75129 0.11422 0.0
N161 N 0.5756 0.79191 0.1155 0.0
C162 C 0.58252 0.72878 0.13532 0.0
H163 H 0.50819 0.78568 0.04885 0.0
H164 H 0.49533 0.73017 0.04853 0.0
H165 H 0.5468 0.77176 0.03527 0.0
H166 H 0.61477 0.75169 0.14441 0.0
H167 H 0.58574 0.70227 0.1272 0.0
H168 H 0.55748 0.71551 0.15123 0.0
C169 C 0.25455 0.79507 0.08072 0.0
N170 N 0.27714 0.8265 0.09814 0.0
N171 N 0.21382 0.76671 0.08995 0.0
C172 C 0.2728 0.79117 0.05507 0.0
C173 C 0.2121 0.78193 0.11348 0.0
N174 N 0.25029 0.81841 0.1185 0.0
C175 C 0.17333 0.76049 0.13195 0.0
H176 H 0.24592 0.77361 0.04047 0.0
H177 H 0.29097 0.77289 0.05905 0.0
H178 H 0.2962 0.82324 0.0463 0.0
H179 H 0.14253 0.73794 0.12139 0.0
H180 H 0.16758 0.78466 0.14128 0.0
H181 H 0.181 0.74239 0.148 0.0
C182 C 0.22861 0.45255 0.07785 0.0
N183 N 0.25017 0.43756 0.09461 0.0
N184 N 0.18887 0.44288 0.08773 0.0
C185 C 0.24728 0.4783 0.05236 0.0
C186 C 0.18662 0.42112 0.11094 0.0
N187 N 0.22373 0.41745 0.11509 0.0
C188 C 0.14899 0.40489 0.13016 0.0
H189 H 0.26876 0.51244 0.05695 0.0
H190 H 0.22078 0.47632 0.03837 0.0
H191 H 0.26778 0.46714 0.04253 0.0
H192 H 0.13801 0.37095 0.13625 0.0
H193 H 0.12017 0.40738 0.12146 0.0
H194 H 0.16087 0.42377 0.14827 0.0
C195 C 0.46672 0.92668 0.34085 0.0
N196 N 0.49852 0.93942 0.32232 0.0
N197 N 0.43029 0.92729 0.33033 0.0
C198 C 0.47009 0.91067 0.36869 0.0
C199 C 0.44069 0.94038 0.30469 0.0
N200 N 0.48197 0.94716 0.29967 0.0
C201 C 0.40971 0.94463 0.2843 0.0
H202 H 0.43851 0.89767 0.37951 0.0
H203 H 0.49603 0.93741 0.37998 0.0
H204 H 0.48016 0.88557 0.36814 0.0
H205 H 0.38521 0.95124 0.29356 0.0
H206 H 0.3912 0.91409 0.274 0.0
H207 H 0.42858 0.97065 0.26931 0.0
C208 C 0.1293 0.56254 0.33276 0.0
N209 N 0.11985 0.5328 0.31451 0.0
N210 N 0.1183 0.59236 0.32331 0.0
C211 C 0.15157 0.56391 0.35927 0.0
C212 C 0.10185 0.5799 0.29869 0.0
N213 N 0.10247 0.54353 0.29332 0.0
C214 C 0.0866 0.60416 0.27955 0.0
H215 H 0.14124 0.57898 0.37402 0.0
H216 H 0.18806 0.58352 0.35701 0.0
H217 H 0.14378 0.53125 0.36681 0.0
H218 H 0.11435 0.62525 0.26619 0.0
H219 H 0.07669 0.6244 0.29021 0.0
H220 H 0.05829 0.5818 0.26714 0.0
C221 C 0.44828 0.58504 0.32517 0.0
N222 N 0.42826 0.55025 0.30997 0.0
N223 N 0.4855 0.61651 0.31346 0.0
C224 C 0.42905 0.58971 0.35017 0.0
C225 C 0.48707 0.59975 0.29042 0.0
N226 N 0.45214 0.5598 0.28812 0.0
C227 C 0.52431 0.62133 0.27089 0.0
H228 H 0.44157 0.62394 0.35412 0.0
H229 H 0.43846 0.5745 0.36718 0.0
H230 H 0.39222 0.57322 0.34868 0.0
H231 H 0.556 0.64305 0.28101 0.0
H232 H 0.51613 0.6406 0.25596 0.0
H233 H 0.52882 0.5974 0.26032 0.0
Tb234 Tb 0.51415 0.98895 1.01074 0.0
Eu235 Eu 0.54243 0.03635 0.06779 0.0
C236 C 0.54902 0.9529 0.05878 0.0
C237 C 0.44606 0.95589 0.05805 0.0
C238 C 0.51502 0.97795 0.93856 0.0
C239 C 0.53751 0.97481 0.89406 0.0
C240 C 0.52229 0.95557 0.9192 0.0
C241 C 0.52394 0.02024 0.93254 0.0
C242 C 0.53889 0.03943 0.90733 0.0
C243 C 0.54591 0.01696 0.88774 0.0
C244 C 0.50123 0.95797 0.96541 0.0
O245 O 0.48534 0.03161 1.00952 0.0
O246 O 0.53278 0.08169 0.03861 0.0
O247 O 0.60479 0.06163 0.04352 0.0
O248 O 0.57168 0.05136 1.0025 0.0
C249 C 0.50388 0.0703 1.01872 0.0
O250 O 0.53061 0.06499 0.10162 0.0
O251 O 0.59097 0.06053 0.10013 0.0
O252 O 0.5357 0.97096 0.0753 0.0
O253 O 0.55337 0.96472 0.03348 0.0
O254 O 0.46204 0.94496 0.03833 0.0
O255 O 0.46797 0.99387 0.06813 0.0
C256 C 0.60701 0.07035 1.0178 0.0
O257 O 0.53369 0.96252 0.98141 0.0
O258 O 0.47231 0.96464 0.97723 0.0
C259 C 0.55894 0.05027 0.14214 0.0
C260 C 0.54517 0.01524 0.19484 0.0
C261 C 0.5515 0.05687 0.18907 0.0
C262 C 0.5585 0.07424 0.16299 0.0
C263 C 0.55255 1.00867 0.14776 0.0
C264 C 0.54581 0.99138 0.17384 0.0
C265 C 0.56577 0.06867 0.11467 0.0
H266 H 0.54257 0.95661 0.87948 0.0
H267 H 0.51634 0.92317 0.92358 0.0
H268 H 0.51917 0.0384 0.94729 0.0
H269 H 0.54381 0.07147 0.90301 0.0
H270 H 0.54983 0.07564 0.2046 0.0
H271 H 0.56303 0.10624 0.15906 0.0
H272 H 0.55253 0.98944 0.13196 0.0
H273 H 0.54087 0.9592 0.17757 0.0
Tb274 Tb 0.03189 0.54138 1.00415 0.0
Eu275 Eu 0.9912 0.51881 0.06511 0.0
C276 C 0.07917 0.60511 0.05047 0.0
C277 C 0.06895 0.50115 0.04776 0.0
C278 C 0.03467 0.54837 0.93052 0.0
C279 C 0.02426 0.57153 0.88572 0.0
C280 C 0.04598 0.58074 0.91048 0.0
C281 C 1.00092 0.50666 0.92553 0.0
C282 C 0.97953 0.49738 0.90074 0.0
C283 C 0.99106 0.52962 0.88049 0.0
C284 C 0.05735 0.55893 0.95665 0.0
O285 O 0.98471 0.47273 1.00668 0.0
O286 O 0.93804 0.47089 0.03856 0.0
O287 O 0.96969 0.56331 0.04396 0.0
O288 O 0.96943 0.54216 1.00208 0.0
C289 C 0.94619 0.45367 1.01869 0.0
O290 O 0.95856 0.47239 0.09782 0.0
O291 O 0.97956 0.53941 0.10252 0.0
O292 O 0.06097 0.57314 0.06805 0.0
O293 O 0.0658 0.60085 1.02549 0.0
O294 O 0.07907 0.52931 1.02776 0.0
O295 O 0.03245 0.4867 0.06128 0.0
C296 C 0.95829 0.56193 1.01871 0.0
O297 O 0.04895 0.58363 0.97056 0.0
O298 O 0.05725 0.5275 0.97125 0.0
C299 C 0.98554 0.4999 0.14025 0.0
C300 C 0.02684 0.50034 0.19007 0.0
C301 C 0.98797 0.50414 0.18823 0.0
C302 C 0.96761 0.50397 0.1636 0.0
C303 C 0.02389 0.49533 0.14193 0.0
C304 C 0.04429 0.49543 0.16662 0.0
C305 C 0.96464 0.50157 0.11433 0.0
H306 H 0.03325 0.59726 0.87077 0.0
H307 H 0.07151 0.61325 0.91405 0.0
H308 H 0.9911 0.48116 0.94073 0.0
H309 H 0.95432 0.46469 0.89731 0.0
H310 H 0.97392 0.50848 0.20582 0.0
H311 H 0.93815 0.50764 0.16275 0.0
H312 H 0.03824 0.49202 0.12414 0.0
H313 H 0.07377 0.49183 0.16732 0.0
Tb314 Tb 0.50935 0.48244 0.07411 0.0
Eu315 Eu 0.49158 0.50423 1.01076 0.0
C316 C 0.48364 0.41471 0.03133 0.0
C317 C 0.5849 0.51885 0.03226 0.0
C318 C 0.50051 0.47197 0.14759 0.0
C319 C 0.50948 0.48689 0.1945 0.0
C320 C 0.52535 0.47977 0.17131 0.0
C321 C 0.45887 0.47029 0.14755 0.0
C322 C 0.44279 0.47709 0.17083 0.0
C323 C 0.46834 0.48638 0.1945 0.0
C324 C 0.51956 0.468 0.1229 0.0
O325 O 0.49689 0.53645 0.07424 0.0
O326 O 0.5219 0.56559 0.03275 0.0
O327 O 0.43199 0.49468 0.03353 0.0
O328 O 0.43794 0.45146 0.06742 0.0
C329 C 0.51225 0.56921 0.05703 0.0
O330 O 0.51389 0.55092 0.97713 0.0
O331 O 0.46029 0.48674 0.97134 0.0
O332 O 0.46418 0.43313 1.01721 0.0
O333 O 0.51164 0.434 0.05088 0.0
O334 O 0.57423 0.52253 0.05626 0.0
O335 O 0.55469 0.50114 1.01374 0.0
C336 C 0.41552 0.46763 0.05418 0.0
O337 O 0.49259 0.43868 0.10695 0.0
O338 O 0.54495 0.50389 0.10995 0.0
C339 C 0.51065 0.52257 0.93511 0.0
C340 C 0.5517 0.52324 0.88701 0.0
C341 C 0.55557 0.56128 0.89634 0.0
C342 C 0.53519 0.56088 0.91995 0.0
C343 C 0.50763 0.48464 0.92622 0.0
C344 C 0.52786 0.485 0.90251 0.0
C345 C 0.48864 0.5232 0.95986 0.0
H346 H 0.53025 0.49438 0.21224 0.0
H347 H 0.55762 0.48143 0.17174 0.0
H348 H 0.43912 0.46443 0.12944 0.0
H349 H 0.41064 0.47568 0.17019 0.0
H350 H 0.57437 0.59149 0.88537 0.0
H351 H 0.53846 0.59071 0.92635 0.0
H352 H 0.48928 0.45456 0.93741 0.0
H353 H 0.52387 0.455 0.89597 0.0
Tb354 Tb 0.17422 0.3229 0.34354 0.0
Eu355 Eu 0.2061 0.37176 0.40045 0.0
C356 C 0.20788 0.28594 0.39215 0.0
C357 C 0.10707 0.29121 0.39205 0.0
C358 C 0.17694 0.31025 0.27138 0.0
C359 C 0.20824 0.3081 0.22947 0.0
C360 C 0.19228 0.29024 0.25477 0.0
C361 C 0.17883 0.34911 0.26248 0.0
C362 C 0.19438 0.36677 0.23707 0.0
C363 C 0.20876 0.34621 0.22008 0.0
C364 C 0.16164 0.29141 0.29836 0.0
O365 O 0.14572 0.36559 0.34236 0.0
O366 O 0.19357 0.41561 0.3714 0.0
O367 O 0.26686 0.3946 0.37503 0.0
O368 O 0.23163 0.38518 0.33479 0.0
C369 C 0.16403 0.40401 0.35184 0.0
O370 O 0.20077 0.40777 0.43224 0.0
O371 O 0.25456 0.39247 0.43316 0.0
O372 O 0.19674 0.30564 0.40873 0.0
O373 O 0.21148 0.29685 0.36672 0.0
O374 O 0.11908 0.28147 0.37002 0.0
O375 O 0.1327 0.32631 0.40471 0.0
C376 C 0.26785 0.40384 0.3494 0.0
O377 O 0.1928 0.29438 0.31498 0.0
O378 O 0.13349 0.29994 0.30946 0.0
C379 C 0.22409 0.39135 0.47442 0.0
C380 C 0.20807 0.35946 0.5278 0.0
C381 C 0.25176 0.38396 0.5186 0.0
C382 C 0.25965 0.39987 0.49219 0.0
C383 C 0.18043 0.3667 0.48354 0.0
C384 C 0.17255 0.35113 0.50993 0.0
C385 C 0.23309 0.40683 0.44632 0.0
H386 H 0.22012 0.29198 0.21726 0.0
H387 H 0.19208 0.26077 0.26144 0.0
H388 H 0.16813 0.36577 0.27508 0.0
H389 H 0.19419 0.39609 0.2305 0.0
H390 H 0.27985 0.39025 0.53164 0.0
H391 H 0.29361 0.41843 0.48555 0.0
H392 H 0.15227 0.35919 0.47029 0.0
H393 H 0.13849 0.33266 0.5164 0.0
Tb394 Tb 0.7043 0.87102 0.33549 0.0
Eu395 Eu 0.66436 0.84612 0.39646 0.0
C396 C 0.75401 0.93009 0.38306 0.0
C397 C 0.73451 0.82068 0.376 0.0
C398 C 0.70863 0.88173 0.26232 0.0
C399 C 0.70093 0.90451 0.21693 0.0
C400 C 0.72291 0.91327 0.24164 0.0
C401 C 0.67165 0.84146 0.2581 0.0
C402 C 0.64999 0.83257 0.2334 0.0
C403 C 0.66446 0.86388 0.21246 0.0
C404 C 0.73134 0.89163 0.28844 0.0
O405 O 0.65209 0.80392 0.33465 0.0
O406 O 0.61045 0.79692 0.3713 0.0
O407 O 0.6412 0.89006 0.37589 0.0
O408 O 0.64185 0.87155 0.33343 0.0
C409 C 0.61611 0.78275 0.34913 0.0
O410 O 0.63445 0.80115 0.43023 0.0
O411 O 0.65321 0.868 0.43352 0.0
O412 O 0.73589 0.89634 0.39929 0.0
O413 O 0.73862 0.92871 0.35863 0.0
O414 O 0.74795 0.85262 0.35821 0.0
O415 O 0.69823 0.8077 0.38953 0.0
C416 C 0.62928 0.88909 0.35075 0.0
O417 O 0.72231 0.91534 0.30292 0.0
O418 O 0.73136 0.85969 0.30239 0.0
C419 C 0.65974 0.83106 0.47251 0.0
C420 C 0.69701 0.83242 0.52381 0.0
C421 C 0.66588 0.847 0.51911 0.0
C422 C 0.64731 0.84606 0.49384 0.0
C423 C 0.6915 0.81722 0.47686 0.0
C424 C 0.70999 0.81793 0.50229 0.0
C425 C 0.63953 0.83085 0.44603 0.0
H426 H 0.71229 0.92961 0.20143 0.0
H427 H 0.75095 0.94477 0.24465 0.0
H428 H 0.65953 0.81676 0.27386 0.0
H429 H 0.62222 0.80085 0.23059 0.0
H430 H 0.65635 0.85992 0.53494 0.0
H431 H 0.62338 0.85742 0.4909 0.0
H432 H 0.70205 0.80595 0.46062 0.0
H433 H 0.73424 0.80697 0.50517 0.0
Tb434 Tb 0.17578 0.81864 0.40841 0.0
Eu435 Eu 0.15985 0.84015 0.3446 0.0
C436 C 0.15938 0.75493 0.36386 0.0
C437 C 0.25492 0.86301 0.36967 0.0
C438 C 0.16893 0.8106 0.48183 0.0
C439 C 0.14218 0.78945 0.52705 0.0
C440 C 0.15615 0.78096 0.50355 0.0
C441 C 0.16721 0.84877 0.48385 0.0
C442 C 0.1536 0.85742 0.50736 0.0
C443 C 0.1406 0.82775 0.52922 0.0
C444 C 0.18259 0.80076 0.45699 0.0
O445 O 0.19193 0.88591 0.40581 0.0
O446 O 0.15647 0.89105 0.36672 0.0
O447 O 0.09216 0.79936 0.36375 0.0
O448 O 0.11403 0.82018 0.40639 0.0
C449 C 0.17684 0.90622 0.38939 0.0
O450 O 0.13024 0.81687 0.30567 0.0
O451 O 0.1762 0.88429 0.30966 0.0
O452 O 0.17787 0.78778 0.34702 0.0
O453 O 0.14703 0.7591 0.38726 0.0
O454 O 0.23604 0.83234 0.38807 0.0
O455 O 0.23236 0.87749 0.35504 0.0
C456 C 0.08279 0.8016 0.38851 0.0
O457 O 0.15024 0.77572 0.44145 0.0
O458 O 0.21401 0.83291 0.44367 0.0
C459 C 0.17798 0.85448 0.26881 0.0
C460 C 0.21941 0.85628 0.22063 0.0
C461 C 0.2233 0.89412 0.23035 0.0
C462 C 0.20271 0.89317 0.25402 0.0
C463 C 0.17503 0.81681 0.25948 0.0
C464 C 0.19546 0.81774 0.23578 0.0
C465 C 0.15437 0.85378 0.2932 0.0
H466 H 0.1325 0.76601 0.5435 0.0
H467 H 0.15691 0.75115 0.50232 0.0
H468 H 0.17666 0.87206 0.4673 0.0
H469 H 0.15414 0.88782 0.50856 0.0
H470 H 0.24212 0.92454 0.21959 0.0
H471 H 0.20576 0.92278 0.26063 0.0
H472 H 0.15634 0.78637 0.27025 0.0
H473 H 0.19135 0.78787 0.2289 0.0
Tb474 Tb 0.84822 0.65704 0.67628 0.0
Eu475 Eu 0.87588 0.70553 0.73313 0.0
C476 C 0.88323 0.62231 0.72501 0.0
C477 C 0.77988 0.62441 0.72364 0.0
C478 C 0.84856 0.64171 0.6039 0.0
C479 C 0.83534 0.63491 0.55623 0.0
C480 C 0.82205 0.61955 0.5823 0.0
C481 C 0.88871 0.67966 0.59897 0.0
C482 C 0.90214 0.69494 0.57289 0.0
C483 C 0.87575 0.67264 0.55113 0.0
C484 C 0.83458 0.62438 0.63131 0.0
O485 O 0.81866 0.69906 0.67492 0.0
O486 O 0.86643 0.75009 0.70336 0.0
O487 O 0.93835 0.73022 0.70922 0.0
O488 O 0.90614 0.7193 0.66792 0.0
C489 C 0.83694 0.73793 0.68382 0.0
O490 O 0.86361 0.73508 0.7663 0.0
O491 O 0.92437 0.73115 0.76537 0.0
O492 O 0.86967 0.64049 0.74131 0.0
O493 O 0.88768 0.63371 0.69963 0.0
O494 O 0.79606 0.6134 0.70404 0.0
O495 O 0.80152 0.66256 0.73353 0.0
C496 C 0.94109 0.73878 0.68349 0.0
O497 O 0.86618 0.62806 0.64781 0.0
O498 O 0.80698 0.63376 0.64227 0.0
C499 C 0.89243 0.72259 0.8073 0.0
C500 C 0.87799 0.68982 0.86044 0.0
C501 C 0.87874 0.72882 0.85324 0.0
C502 C 0.88591 0.74503 0.82693 0.0
C503 C 0.89231 0.6839 0.81445 0.0
C504 C 0.8855 0.66786 0.84079 0.0
C505 C 0.89895 0.73957 0.77952 0.0
H506 H 0.81338 0.61766 0.54007 0.0
H507 H 0.79089 0.59037 0.58559 0.0
H508 H 0.90981 0.69745 0.61529 0.0
H509 H 0.93325 0.72422 0.56973 0.0
H510 H 0.8727 0.74631 0.86785 0.0
H511 H 0.88585 0.77488 0.82184 0.0
H512 H 0.89728 0.66592 0.79967 0.0
H513 H 0.88595 0.63817 0.84575 0.0
Tb514 Tb 0.36626 0.21305 0.66892 0.0
Eu515 Eu 0.32675 0.18723 0.73027 0.0
C516 C 0.41495 0.27304 0.71614 0.0
C517 C 0.39935 0.16583 0.70974 0.0
C518 C 0.36989 0.22475 0.59565 0.0
C519 C 0.36972 0.21352 0.54866 0.0
C520 C 0.3917 0.22317 0.57331 0.0
C521 C 0.32589 0.21712 0.59297 0.0
C522 C 0.30399 0.20777 0.56829 0.0
C523 C 0.32556 0.20563 0.54584 0.0
C524 C 0.39277 0.23301 0.62171 0.0
O525 O 0.31449 0.14579 0.66851 0.0
O526 O 0.27261 0.13824 0.70515 0.0
O527 O 0.30107 0.22959 0.7102 0.0
O528 O 0.30403 0.2137 0.66724 0.0
C529 C 0.27828 0.12455 0.68279 0.0
O530 O 0.29821 0.14064 0.76365 0.0
O531 O 0.31706 0.20716 0.76838 0.0
O532 O 0.39752 0.23949 0.73258 0.0
O533 O 0.39945 0.27111 0.6917 0.0
O534 O 0.41176 0.19768 0.69197 0.0
O535 O 0.36174 0.15036 0.72217 0.0
C536 C 0.28992 0.22939 0.68492 0.0
O537 O 0.38618 0.25782 0.63671 0.0
O538 O 0.3903 0.19961 0.63514 0.0
C539 C 0.32838 0.16896 0.80559 0.0
C540 C 0.37044 0.16734 0.85495 0.0
C541 C 0.32914 0.13262 0.84789 0.0
C542 C 0.30839 0.13347 0.82353 0.0
C543 C 0.3702 0.20322 0.81223 0.0
C544 C 0.39081 0.20253 0.83667 0.0
C545 C 0.30505 0.16981 0.78033 0.0
H546 H 0.38685 0.21072 0.53203 0.0
H547 H 0.42547 0.22853 0.57504 0.0
H548 H 0.30827 0.21786 0.61002 0.0
H549 H 0.26993 0.20163 0.56685 0.0
H550 H 0.3125 0.10502 0.86143 0.0
H551 H 0.27632 0.10653 0.81883 0.0
H552 H 0.38665 0.23098 0.79877 0.0
H553 H 0.42194 0.23039 0.84161 0.0
Tb554 Tb 0.8398 0.15182 0.74071 0.0
Eu555 Eu 0.8214 0.17104 0.67683 0.0
C556 C 0.8164 0.0833 0.69862 0.0
C557 C 0.91537 0.1872 0.69856 0.0
C558 C 0.83204 0.14436 0.81458 0.0
C559 C 0.84309 0.16088 0.86126 0.0
C560 C 0.85816 0.15359 0.83782 0.0
C561 C 0.79013 0.14206 0.81521 0.0
C562 C 0.77484 0.14907 0.83877 0.0
C563 C 0.80119 0.15866 0.86213 0.0
C564 C 0.85004 0.1392 0.78979 0.0
O565 O 0.82845 0.20667 0.73943 0.0
O566 O 0.85379 0.23343 0.69764 0.0
O567 O 0.76274 0.163 0.69989 0.0
O568 O 0.76854 0.11962 0.73355 0.0
C569 C 0.84512 0.23877 0.72176 0.0
O570 O 0.8418 0.21642 0.64251 0.0
O571 O 0.78912 0.15147 0.63786 0.0
O572 O 0.79572 0.10035 0.68435 0.0
O573 O 0.84357 0.1033 0.71836 0.0
O574 O 0.90463 0.19085 0.72258 0.0
O575 O 0.88537 0.1695 0.67989 0.0
C576 C 0.74635 0.13629 0.72068 0.0
O577 O 0.82242 0.10947 0.77429 0.0
O578 O 0.87563 0.17447 0.77635 0.0
C579 C 0.83762 0.18679 0.60086 0.0
C580 C 0.87768 0.18656 0.55259 0.0
C581 C 0.87726 0.22366 0.56016 0.0
C582 C 0.85738 0.22368 0.58388 0.0
C583 C 0.83882 0.14993 0.59368 0.0
C584 C 0.85853 0.14983 0.56988 0.0
C585 C 0.81632 0.1878 0.62576 0.0
H586 H 0.86504 0.16971 0.87848 0.0
H587 H 0.89079 0.15609 0.83771 0.0
H588 H 0.76952 0.13541 0.79742 0.0
H589 H 0.74258 0.14741 0.83865 0.0
H590 H 0.89247 0.25284 0.54779 0.0
H591 H 0.85737 0.2527 0.58898 0.0
H592 H 0.82427 0.12102 0.60635 0.0
H593 H 0.85792 0.12055 0.56474 0.0
C594 C 0.32983 0.90279 0.08746 0.0
C595 C 0.32206 0.8611 0.09458 0.0
C596 C 0.3705 0.93379 0.07625 0.0
C597 C 0.40412 0.92363 0.07098 0.0
H598 H 0.30344 0.91067 0.08917 0.0
H599 H 0.37485 0.96528 0.07053 0.0
S600 S 0.40209 0.8207 0.0891 0.0
N601 N 0.35326 0.81304 0.09843 0.0
N602 N 0.42841 0.87021 0.07625 0.0
C603 C 0.39745 0.88275 0.07921 0.0
C604 C 0.35681 0.85183 0.09134 0.0
C605 C 0.13585 0.44334 0.05372 0.0
C606 C 0.15923 0.45798 0.07771 0.0
C607 C 0.10737 0.45849 0.0435 0.0
C608 C 0.10125 0.48808 0.05732 0.0
H609 H 0.13968 0.42004 0.04296 0.0
H610 H 0.0894 0.44642 1.02507 0.0
S611 S 0.15523 0.53632 0.1207 0.0
N612 N 0.17541 0.5042 0.11458 0.0
N613 N 0.12053 0.53161 0.09587 0.0
C614 C 0.12431 0.5028 0.08131 0.0
C615 C 0.15371 0.48794 0.09144 0.0
C616 C 0.55518 0.6893 0.05845 0.0
C617 C 0.53638 0.69314 0.08155 0.0
C618 C 0.54649 0.64902 0.05036 0.0
C619 C 0.51892 0.61119 0.06524 0.0
H620 H 0.57769 0.71777 0.047 0.0
H621 H 0.56245 0.6477 0.03268 0.0
S622 S 0.45858 0.60451 0.12616 0.0
N623 N 0.48659 0.65627 0.11812 0.0
N624 N 0.47073 0.58049 0.10352 0.0
C625 C 0.49895 0.61476 0.08807 0.0
C626 C 0.50754 0.65575 0.09606 0.0
C627 C 0.89216 0.34095 0.99348 0.0
C628 C 0.84711 0.32991 0.99093 0.0
C629 C 0.92399 0.38113 1.00242 0.0
C630 C 0.91169 0.4113 1.00971 0.0
H631 H 0.90275 0.31839 0.98823 0.0
H632 H 0.95844 0.38848 1.00387 0.0
S633 S 0.79812 0.39841 1.00543 0.0
N634 N 0.79202 0.35282 0.99506 0.0
N635 N 0.85139 0.42766 1.0131 0.0
C636 C 0.86663 0.40046 1.00741 0.0
C637 C 0.83444 0.35992 0.99771 0.0
C638 C 0.70791 0.59721 1.02759 0.0
C639 C 0.71995 0.58279 1.00577 0.0
C640 C 0.66433 0.57515 0.03702 0.0
C641 C 0.6318 0.53821 1.02475 0.0
H642 H 0.7322 0.62597 0.03704 0.0
H643 H 0.65573 0.58795 0.05334 0.0
S644 S 0.64926 0.48522 0.96891 0.0
N645 N 0.69807 0.52783 0.97378 0.0
N646 N 0.61596 0.48641 0.99103 0.0
C647 C 0.64429 0.52273 1.00354 0.0
C648 C 0.6885 0.54505 0.99414 0.0
C649 C 0.43978 0.12397 0.98743 0.0
C650 C 0.47357 0.16639 0.98282 0.0
C651 C 0.44984 0.09231 0.99817 0.0
C652 C 0.49384 0.1026 1.00523 0.0
H653 H 0.40537 0.11596 0.98423 0.0
H654 H 0.42286 0.06024 1.00229 0.0
S655 S 0.5944 0.20773 0.99333 0.0
N656 N 0.55275 0.21569 0.98291 0.0
N657 N 0.57164 0.15701 1.00396 0.0
C658 C 0.52795 0.14431 0.99918 0.0
C659 C 0.51779 0.17598 0.98769 0.0
C660 C 0.68532 0.16453 0.9729 0.0
C661 C 0.72665 0.17878 0.98586 0.0
C662 C 0.64708 0.1283 0.98274 0.0
C663 C 0.64879 0.10539 1.00612 0.0
H664 H 0.68223 0.18274 0.95581 0.0
H665 H 0.61564 0.11943 0.97259 0.0
S666 S 0.75091 0.12617 0.04471 0.0
N667 N 0.76839 0.16432 1.02098 0.0
N668 N 0.69666 0.09714 0.04006 0.0
C669 C 0.69059 0.11806 1.0183 0.0
C670 C 0.72948 0.15448 1.008 0.0
C671 C 0.87221 0.57891 0.97859 0.0
C672 C 0.87119 0.61193 0.99169 0.0
C673 C 0.90171 0.56388 0.98689 0.0
C674 C 0.93052 0.581 1.00886 0.0
H675 H 0.848 0.56272 0.96309 0.0
H676 H 0.90023 0.53719 0.97692 0.0
S677 S 0.94419 0.67201 0.0473 0.0
N678 N 0.90414 0.66438 1.0255 0.0
N679 N 0.9594 0.63597 0.04157 0.0
C680 C 0.93156 0.61584 1.02102 0.0
C681 C 0.90199 0.63142 1.01225 0.0
C682 C 0.5065 0.3276 1.0101 0.0
C683 C 0.46434 0.29629 1.00143 0.0
C684 C 0.51234 0.36522 1.02105 0.0
C685 C 0.47623 0.37281 1.02323 0.0
H686 H 0.53523 0.32344 1.00766 0.0
H687 H 0.54553 0.38928 1.02672 0.0
S688 S 0.35852 0.29852 1.00617 0.0
N689 N 0.3855 0.27328 0.99821 0.0
N690 N 0.39656 0.34473 1.01772 0.0
C691 C 0.43375 0.34108 1.01545 0.0
C692 C 0.42776 0.30258 1.00481 0.0
C693 C 0.17283 0.68784 0.0921 0.0
C694 C 0.18162 0.72683 0.079 0.0
C695 C 0.13998 0.64865 0.08254 0.0
C696 C 0.11493 0.64706 0.0594 0.0
H697 H 0.1913 0.68784 0.11001 0.0
H698 H 0.13418 0.6194 0.09343 0.0
S699 S 0.12426 0.74109 1.0188 0.0
N700 N 0.16202 0.76212 0.04264 0.0
N701 N 0.10082 0.68859 1.02409 0.0
C702 C 0.1237 0.6861 0.0461 0.0
C703 C 0.15687 0.72597 0.05607 0.0
C704 C 0.32921 0.48529 0.0863 0.0
C705 C 0.29376 0.44341 0.09029 0.0
C706 C 0.36807 0.49293 0.07379 0.0
C707 C 0.37319 0.45881 0.06553 0.0
H708 H 0.32556 0.51238 0.09148 0.0
H709 H 0.39425 0.52569 0.07056 0.0
S710 S 0.29188 0.34324 0.07335 0.0
N711 N 0.26691 0.36757 0.08583 0.0
N712 N 0.34137 0.38162 0.06393 0.0
C713 C 0.33928 0.41671 0.07091 0.0
C714 C 0.29922 0.40905 0.08302 0.0
C715 C 0.54035 0.85715 0.1007 0.0
C716 C 0.56341 0.84266 0.08573 0.0
C717 C 0.53725 0.89382 0.09234 0.0
C718 C 0.55675 0.91696 0.06853 0.0
H719 H 0.52321 0.83907 0.11841 0.0
H720 H 0.518 0.90307 0.10413 0.0
S721 S 0.62549 0.89446 1.02418 0.0
N722 N 0.60971 0.85608 0.04772 0.0
N723 N 0.6033 0.92438 0.03146 0.0
C724 C 0.58154 0.9036 0.05406 0.0
C725 C 0.58502 0.8666 0.06279 0.0
C726 C 0.02016 0.20727 0.43884 0.0
C727 C 0.97994 0.19753 0.42543 0.0
C728 C 0.06129 0.23875 0.42837 0.0
C729 C 0.06348 0.2607 0.40385 0.0
H730 H 0.01993 0.18864 0.4566 0.0
H731 H 0.09165 0.24448 0.43887 0.0
S732 S 0.96748 0.25047 0.36276 0.0
N733 N 0.94483 0.21571 0.38799 0.0
N734 N 0.02178 0.27325 0.36785 0.0
C735 C 0.02346 0.2528 0.39106 0.0
C736 C 0.98179 0.22173 0.40202 0.0
C737 C 0.83559 0.80905 0.39443 0.0
C738 C 0.81679 0.76524 0.4017 0.0
C739 C 0.80886 0.82662 0.3849 0.0
C740 C 0.76252 0.80091 0.38294 0.0
H741 H 0.87104 0.82986 0.39672 0.0
H742 H 0.82433 0.86075 0.38013 0.0
S743 S 0.69807 0.68375 0.39771 0.0
N744 N 0.75017 0.69609 0.40459 0.0
N745 N 0.69928 0.72914 0.38762 0.0
C746 C 0.74356 0.75683 0.38955 0.0
C747 C 0.77092 0.73894 0.39871 0.0
C748 C 0.1781 0.99269 0.42961 0.0
C749 C 0.20248 0.03003 0.41362 0.0
C750 C 0.16948 0.95248 0.42151 0.0
C751 C 0.18389 0.94824 0.39682 0.0
H752 H 0.16622 0.99479 0.44867 0.0
H753 H 0.15144 0.92453 0.4346 0.0
S754 S 0.24989 0.03596 0.34801 0.0
N755 N 0.2424 0.06028 0.37254 0.0
N756 N 0.22382 0.98428 0.35656 0.0
C757 C 0.2074 0.98505 0.38039 0.0
C758 C 0.21723 0.02611 0.38896 0.0
C759 C 0.52915 0.69545 0.3069 0.0
C760 C 0.51683 0.65808 0.32312 0.0
C761 C 0.56141 0.73587 0.31537 0.0
C762 C 0.58149 0.74034 0.34065 0.0
H763 H 0.5139 0.69328 0.28745 0.0
H764 H 0.57045 0.76381 0.30218 0.0
S765 S 0.56293 0.65262 0.39004 0.0
N766 N 0.52944 0.62814 0.36493 0.0
N767 N 0.58798 0.70429 0.38148 0.0
C768 C 0.56926 0.70343 0.35713 0.0
C769 C 0.53737 0.66223 0.34823 0.0
C770 C 0.37141 0.93903 0.34714 0.0
C771 C 0.38778 0.91109 0.34228 0.0
C772 C 0.32865 0.92325 0.35704 0.0
C773 C 0.30156 0.8792 0.36293 0.0
H774 H 0.39146 0.97305 0.34259 0.0
H775 H 0.31639 0.94553 0.35971 0.0
S776 S 0.32963 0.79318 0.35346 0.0
N777 N 0.37413 0.83773 0.34362 0.0
N778 N 0.29411 0.80797 0.36323 0.0
C779 C 0.31815 0.85112 0.35886 0.0
C780 C 0.36128 0.86713 0.34825 0.0
C781 C 0.09756 0.45653 0.32298 0.0
C782 C 0.13088 0.49876 0.31721 0.0
C783 C 0.10849 0.42532 0.33333 0.0
C784 C 0.15301 0.4359 0.33887 0.0
H785 H 0.06295 0.4484 0.32097 0.0
H786 H 0.08192 0.39339 0.33833 0.0
S787 S 0.25235 0.54055 0.32369 0.0
N788 N 0.20991 0.54814 0.31469 0.0
N789 N 0.23056 0.49022 0.33503 0.0
C790 C 0.18656 0.47736 0.33172 0.0
C791 C 0.17544 0.5086 0.3206 0.0
C792 C 0.38937 0.48859 0.34147 0.0
C793 C 0.38959 0.51 0.31715 0.0
C794 C 0.35025 0.45366 0.35136 0.0
C795 C 0.30965 0.43837 0.3372 0.0
H796 H 0.41958 0.49997 0.35336 0.0
H797 H 0.35176 0.43912 0.37054 0.0
S798 S 0.29324 0.48244 0.27163 0.0
N799 N 0.34646 0.5131 0.27876 0.0
N800 N 0.273 0.44665 0.2966 0.0
C801 C 0.30996 0.45846 0.31215 0.0
C802 C 0.34988 0.49441 0.3023 0.0
C803 C 0.53789 0.90028 0.31283 0.0
C804 C 0.53713 0.93394 0.32528 0.0
C805 C 0.5688 0.88679 0.32071 0.0
C806 C 0.59936 0.90612 0.34163 0.0
H807 H 0.51273 0.88272 0.29806 0.0
H808 H 0.56732 0.85972 0.31121 0.0
S809 S 0.61481 1.00003 0.37753 0.0
N810 N 0.57266 0.98987 0.35687 0.0
N811 N 0.63009 0.96382 0.37245 0.0
C812 C 0.60049 0.94147 0.35312 0.0
C813 C 0.56958 0.95564 0.34468 0.0
C814 C 0.16341 0.67061 0.32376 0.0
C815 C 0.1293 0.63225 0.33465 0.0
C816 C 0.17361 0.71006 0.33384 0.0
C817 C 0.15001 0.71243 0.35523 0.0
H818 H 0.18195 0.66993 0.30717 0.0
H819 H 0.19997 0.73894 0.32464 0.0
S820 S 0.05669 0.62018 0.39004 0.0
N821 N 0.07147 0.59826 0.36735 0.0
N822 N 0.09048 0.67236 0.38673 0.0
C823 C 0.11602 0.67392 0.36646 0.0
C824 C 0.10563 0.6338 0.35602 0.0
C825 C 0.8317 0.04953 0.3905 0.0
C826 C 0.85445 0.05058 0.41445 0.0
C827 C 0.80018 1.01042 0.38002 0.0
C828 C 0.79019 0.97097 0.39323 0.0
H829 H 0.83759 0.07923 0.38021 0.0
H830 H 0.78265 0.01122 0.36186 0.0
S831 S 0.84459 0.95706 0.45538 0.0
N832 N 0.86782 1.0095 0.44999 0.0
N833 N 0.80846 0.9359 0.43078 0.0
C834 C 0.81407 0.97184 0.41681 0.0
C835 C 0.84621 0.01165 0.4273 0.0
C836 C 0.98346 0.7864 0.42684 0.0
C837 C 0.94854 0.74873 0.41694 0.0
C838 C 0.02673 0.80317 0.41742 0.0
C839 C 0.03642 0.78321 0.39738 0.0
H840 H 0.97669 0.80424 0.44085 0.0
H841 H 0.05254 0.8328 0.42529 0.0
S842 S 0.95726 0.68055 0.36766 0.0
N843 N 0.92692 0.68941 0.3883 0.0
N844 N 0.00818 0.72133 0.37001 0.0
C845 C 1.0021 0.74439 0.38824 0.0
C846 C 0.95821 0.72697 0.39825 0.0
C847 C 0.20044 0.19108 0.43468 0.0
C848 C 0.22464 0.17745 0.42005 0.0
C849 C 0.19632 0.22712 0.42597 0.0
C850 C 0.21603 0.25043 0.40223 0.0
H851 H 0.18328 0.17279 0.45234 0.0
H852 H 0.17618 0.23578 0.43739 0.0
S853 S 0.28783 0.2303 0.35899 0.0
N854 N 0.27229 0.19201 0.38257 0.0
N855 N 0.26415 0.25914 0.36577 0.0
C856 C 0.24202 0.23799 0.38819 0.0
C857 C 0.24644 0.20167 0.39723 0.0
C858 C 0.66411 0.57121 0.75385 0.0
C859 C 0.65648 0.52956 0.76097 0.0
C860 C 0.70455 0.6022 0.74237 0.0
C861 C 0.73809 0.59208 0.73676 0.0
H862 H 0.63774 0.57906 0.75578 0.0
H863 H 0.70877 0.63366 0.7367 0.0
S864 S 0.73623 0.48908 0.7544 0.0
N865 N 0.68767 0.48148 0.76421 0.0
N866 N 0.76234 0.5386 0.74154 0.0
C867 C 0.73154 0.5512 0.74491 0.0
C868 C 0.69117 0.52032 0.75734 0.0
C869 C 0.5058 0.16756 0.73242 0.0
C870 C 0.49079 0.12537 0.74243 0.0
C871 C 0.47614 0.18003 0.72065 0.0
C872 C 0.43053 0.15071 0.71893 0.0
H873 H 0.54058 0.19117 0.7342 0.0
H874 H 0.48876 0.21317 0.71384 0.0
S875 S 0.37556 0.03566 0.74049 0.0
N876 N 0.42856 0.05366 0.74831 0.0
N877 N 0.37206 0.0772 0.72698 0.0
C878 C 0.41532 0.10818 0.72842 0.0
C879 C 0.44567 0.09546 0.74003 0.0
C880 C 0.84193 0.32573 0.75986 0.0
C881 C 0.87168 0.36354 0.74599 0.0
C882 C 0.83335 0.28554 0.75178 0.0
C883 C 0.85382 0.2817 0.72929 0.0
H884 H 0.82567 0.32741 0.77728 0.0
H885 H 0.81059 0.25732 0.76333 0.0
S886 S 0.93573 0.37185 0.68684 0.0
N887 N 0.92273 0.39524 0.70947 0.0
N888 N 0.90587 0.31981 0.69355 0.0
C889 C 0.88333 0.3195 0.71508 0.0
C890 C 0.89239 0.3604 0.72359 0.0
C891 C 0.19794 1.00528 0.68204 0.0
C892 C 0.18047 0.99998 0.65598 0.0
C893 C 0.22851 0.046 0.69089 0.0
C894 C 0.24349 0.08263 0.67374 0.0
H895 H 0.18877 0.97759 0.69543 0.0
H896 H 0.24174 0.04865 0.71096 0.0
S897 S 0.20529 0.08672 0.60447 0.0
N898 N 0.17732 0.0355 0.61402 0.0
N899 N 0.23719 0.11155 0.63005 0.0
C900 C 0.2258 0.07796 0.64784 0.0
C901 C 0.19365 0.03675 0.63911 0.0
C902 C 0.03825 0.26597 0.69434 0.0
C903 C 0.05087 0.25126 0.67292 0.0
C904 C 0.99451 0.24389 0.70348 0.0
C905 C 0.96236 0.20668 0.69128 0.0
H906 H 0.06224 0.29496 0.70372 0.0
H907 H 0.98549 0.25687 0.71952 0.0
S908 S 0.9812 0.15319 0.63628 0.0
N909 N 0.02985 0.19595 0.64128 0.0
N910 N 0.94736 0.15454 0.65794 0.0
C911 C 0.97535 0.19101 0.6704 0.0
C912 C 0.01976 0.21333 0.66133 0.0
C913 C 0.84904 0.84331 0.65532 0.0
C914 C 0.80487 0.83388 0.64999 0.0
C915 C 0.85915 0.81182 0.6658 0.0
C916 C 0.82546 0.76948 0.67079 0.0
H917 H 0.87568 0.876 0.65282 0.0
H918 H 0.8935 0.82089 0.67053 0.0
S919 S 0.70477 0.72767 0.65875 0.0
N920 N 0.72742 0.7791 0.64979 0.0
N921 N 0.74642 0.71904 0.66814 0.0
C922 C 0.78141 0.75894 0.66398 0.0
C923 C 0.77109 0.79138 0.65386 0.0
C924 C 0.02039 0.83122 0.63774 0.0
C925 C 0.06067 0.84827 0.65215 0.0
C926 C 0.9823 0.79468 0.64749 0.0
C927 C 0.98307 0.77422 0.67217 0.0
H928 H 0.01781 0.84733 0.61948 0.0
H929 H 0.9516 0.78357 0.6361 0.0
S930 S 0.08243 0.8045 0.71588 0.0
N931 N 0.10045 0.84042 0.69088 0.0
N932 N 0.02922 0.77232 0.70955 0.0
C933 C 0.02394 0.79014 0.68609 0.0
C934 C 0.06261 0.82701 0.676 0.0
C935 C 0.23185 0.29652 0.67982 0.0
C936 C 0.20093 0.27796 0.65904 0.0
C937 C 0.26074 0.28076 0.68817 0.0
C938 C 0.25995 0.24627 0.6757 0.0
H939 H 0.23185 0.32186 0.69057 0.0
H940 H 0.28341 0.2953 0.70465 0.0
S941 S 0.18514 0.18689 0.62014 0.0
N942 N 0.1709 0.22338 0.6264 0.0
N943 N 0.22634 0.19476 0.64103 0.0
C944 C 0.23036 0.22865 0.65414 0.0
C945 C 0.2006 0.24432 0.646 0.0
C946 C 0.76405 0.97295 0.67109 0.0
C947 C 0.80071 0.96653 0.66815 0.0
C948 C 0.76927 1.0104 0.6818 0.0
C949 C 0.81118 0.04222 0.69045 0.0
H950 H 0.73131 0.94911 0.6646 0.0
H951 H 0.74038 0.01473 0.68305 0.0
S952 S 0.91767 0.04089 0.68656 0.0
N953 N 0.88031 0.99522 0.67406 0.0
N954 N 0.88996 0.06501 0.6953 0.0
C955 C 0.84792 0.03566 0.68828 0.0
C956 C 0.84271 0.9979 0.67685 0.0
C957 C 0.49301 0.39256 0.72277 0.0
C958 C 0.51783 0.39369 0.7458 0.0
C959 C 0.46057 0.35337 0.71283 0.0
C960 C 0.45151 0.31402 0.72583 0.0
H961 H 0.49824 0.42224 0.71274 0.0
H962 H 0.44168 0.35401 0.69527 0.0
S963 S 0.50979 0.3005 0.78627 0.0
N964 N 0.53309 0.3529 0.78065 0.0
N965 N 0.47197 0.27916 0.76251 0.0
C966 C 0.47694 0.31501 0.7487 0.0
C967 C 0.51009 0.35486 0.75857 0.0
C968 C 0.63316 0.07973 0.75264 0.0
C969 C 0.62638 0.11413 0.75809 0.0
C970 C 0.67238 0.08704 0.74051 0.0
C971 C 0.7049 0.12883 0.73265 0.0
H972 H 0.60706 0.04714 0.75647 0.0
H973 H 0.67658 0.05983 0.73637 0.0
S974 S 0.70448 0.22955 0.7455 0.0
N975 N 0.65701 0.19122 0.75755 0.0
N976 N 0.72958 0.20498 0.73354 0.0
C977 C 0.69921 0.16341 0.73914 0.0
C978 C 0.66026 0.15602 0.75227 0.0
C979 C 0.87312 0.52594 0.76676 0.0
C980 C 0.89748 0.51227 0.75231 0.0
C981 C 0.87018 0.56269 0.75839 0.0
C982 C 0.8911 0.58664 0.73508 0.0
H983 H 0.85481 0.50711 0.78399 0.0
H984 H 0.84986 0.57129 0.76968 0.0
S985 S 0.96408 0.5669 0.69262 0.0
N986 N 0.94695 0.52769 0.71567 0.0
N987 N 0.9407 0.59604 0.69932 0.0
C988 C 0.91736 0.57425 0.72127 0.0
C989 C 0.92073 0.53723 0.73005 0.0
C990 C 0.48303 0.93702 0.25191 0.0
C991 C 0.50375 0.96067 0.27442 0.0
C992 C 0.49797 0.95412 0.22631 0.0
C993 C 0.53433 0.99555 0.22228 0.0
H994 H 0.45367 0.90594 0.25414 0.0
H995 H 0.4794 0.9356 0.20954 0.0
S996 S 0.60376 0.06756 0.27527 0.0
N997 N 0.56466 0.02541 0.29148 0.0
N998 N 0.5939 0.0575 0.24344 0.0
C999 C 0.55723 0.01818 0.24486 0.0
C1000 C 0.54179 1.00067 0.27092 0.0
C1001 C 0.04421 0.49161 0.26473 0.0
C1002 C 0.08878 0.52275 0.26844 0.0
C1003 C 0.02509 0.48231 0.23916 0.0
C1004 C 0.04987 0.50401 0.21635 0.0
H1005 H 0.02316 0.47704 0.2818 0.0
H1006 H 0.98999 0.45966 0.23731 0.0
S1007 S 0.16918 0.58622 0.21585 0.0
N1008 N 0.158 0.573 0.2476 0.0
N1009 N 0.12258 0.55612 0.19949 0.0
C1010 C 0.09543 0.53302 0.21988 0.0
C1011 C 0.11473 0.54225 0.24593 0.0
C1012 C 0.45456 0.50032 0.2673 0.0
C1013 C 0.44363 0.53344 0.26576 0.0
C1014 C 0.45981 0.48324 0.24414 0.0
C1015 C 0.45437 0.4988 0.21866 0.0
H1016 H 0.46214 0.4898 0.28641 0.0
H1017 H 0.47022 0.45907 0.24618 0.0
S1018 S 0.42255 0.58358 0.20461 0.0
N1019 N 0.42456 0.57918 0.23731 0.0
N1020 N 0.43483 0.54793 0.19379 0.0
C1021 C 0.44063 0.53012 0.21711 0.0
C1022 C 0.43521 0.54723 0.24066 0.0
C1023 C 0.9016 0.47499 0.82795 0.0
C1024 C 0.92605 0.48554 0.8046 0.0
C1025 C 0.92253 0.49149 0.85219 0.0
C1026 C 0.96883 0.51866 0.85395 0.0
H1027 H 0.86649 0.45195 0.8276 0.0
H1028 H 0.90258 0.48145 0.86988 0.0
S1029 S 0.04688 0.55683 0.79768 0.0
N1030 N 0.99779 0.52598 0.78402 0.0
N1031 N 0.03797 0.55667 0.82959 0.0
C1032 C 0.99319 0.53113 0.8303 0.0
C1033 C 0.97157 0.51455 0.80561 0.0
C1034 C 0.60332 0.49117 0.83298 0.0
C1035 C 0.5934 0.50827 0.80949 0.0
C1036 C 0.59221 0.49822 0.85808 0.0
C1037 C 0.57052 0.52262 0.86075 0.0
H1038 H 0.616 0.46893 0.83172 0.0
H1039 H 0.59859 0.48255 0.87541 0.0
S1040 S 0.53972 0.57645 0.80512 0.0
N1041 N 0.5632 0.55254 0.79052 0.0
N1042 N 0.54216 0.56604 0.83727 0.0
C1043 C 0.5634 0.54243 0.83743 0.0
C1044 C 0.57496 0.53528 0.81197 0.0
C1045 C 0.53781 0.0296 0.81282 0.0
C1046 C 0.56686 0.07337 0.80757 0.0
C1047 C 0.5333 0.0111 0.83854 0.0
C1048 C 0.55766 0.03579 0.86011 0.0
H1049 H 0.51582 1.01041 0.79721 0.0
H1050 H 0.50824 0.9779 0.84179 0.0
S1051 S 0.6436 0.15066 0.85571 0.0
N1052 N 0.62375 0.14001 0.82507 0.0
N1053 N 0.61657 0.10535 0.87355 0.0
C1054 C 0.58958 0.07896 0.85463 0.0
C1055 C 0.59396 0.0977 0.82832 0.0
C1056 C 0.15122 0.28418 0.58701 0.0
C1057 C 0.17102 0.3101 0.60876 0.0
C1058 C 0.16504 0.29974 0.56107 0.0
C1059 C 0.19879 0.34215 0.55581 0.0
H1060 H 0.12343 0.25225 0.59009 0.0
H1061 H 0.14805 0.27881 0.54491 0.0
S1062 S 0.26193 0.42222 0.60644 0.0
N1063 N 0.22696 0.37903 0.62387 0.0
N1064 N 0.25277 0.40923 0.57504 0.0
C1065 C 0.22022 0.36776 0.57764 0.0
C1066 C 0.20629 0.35152 0.60412 0.0
C1067 C 0.78358 0.86448 0.57978 0.0
C1068 C 0.75763 0.85529 0.60244 0.0
C1069 C 0.76369 0.85422 0.55438 0.0
C1070 C 0.71715 0.83465 0.55088 0.0
H1071 H 0.81942 0.88288 0.58152 0.0
H1072 H 0.785 0.86453 0.53729 0.0
S1073 S 0.63485 0.79938 0.60463 0.0
N1074 N 0.68354 0.82293 0.62012 0.0
N1075 N 0.64584 0.80159 0.57288 0.0
C1076 C 0.69099 0.8222 0.57376 0.0
C1077 C 0.7113 0.83305 0.5994 0.0
C1078 C 0.14199 0.84903 0.60238 0.0
C1079 C 0.11726 0.87072 0.60247 0.0
C1080 C 0.14729 0.8329 0.57887 0.0
C1081 C 0.12811 0.83813 0.55465 0.0
H1082 H 0.15991 0.84736 0.62015 0.0
H1083 H 0.1689 0.81875 0.57936 0.0
S1084 S 0.0554 0.8879 0.5457 0.0
N1085 N 0.0707 0.89376 0.57731 0.0
N1086 N 0.07874 0.86201 0.5333 0.0
C1087 C 0.10054 0.85702 0.55513 0.0
C1088 C 0.09559 0.87366 0.579 0.0
C1089 C 0.57304 0.81244 0.1605 0.0
C1090 C 0.59687 0.81912 0.13729 0.0
C1091 C 0.59505 0.82944 0.18442 0.0
C1092 C 0.64181 0.85309 0.18602 0.0
H1093 H 0.53736 0.79187 0.16039 0.0
H1094 H 0.57542 0.82235 0.20207 0.0
S1095 S 0.7187 0.8804 0.12992 0.0
N1096 N 0.6687 0.85229 0.11658 0.0
N1097 N 0.71084 0.88366 0.16157 0.0
C1098 C 0.66576 0.86178 0.16242 0.0
C1099 C 0.64308 0.84481 0.13805 0.0
C1100 C 0.26947 0.82399 0.16596 0.0
C1101 C 0.25899 0.84105 0.14267 0.0
C1102 C 0.25929 0.83134 0.19122 0.0
C1103 C 0.23797 0.85599 0.19424 0.0
H1104 H 0.28186 0.80156 0.16444 0.0
H1105 H 0.26595 0.81562 0.20841 0.0
S1106 S 0.20625 0.91004 0.13921 0.0
N1107 N 0.22891 0.88571 0.12421 0.0
N1108 N 0.20953 0.89975 0.1713 0.0
C1109 C 0.2304 0.87584 0.1711 0.0
C1110 C 0.24103 0.86839 0.14547 0.0
C1111 C 0.25365 0.42545 0.1606 0.0
C1112 C 0.23328 0.39928 0.13902 0.0
C1113 C 0.24804 0.40786 0.18674 0.0
C1114 C 0.22162 0.3634 0.19221 0.0
H1115 H 0.27079 0.45996 0.15739 0.0
H1116 H 0.26255 0.42945 0.20288 0.0
S1117 S 0.16372 0.28133 0.14191 0.0
N1118 N 0.18843 0.32712 0.12439 0.0
N1119 N 0.17727 0.29363 0.1732 0.0
C1120 C 0.20379 0.33677 0.17046 0.0
C1121 C 0.20983 0.35482 0.14396 0.0
C1122 C 0.8736 0.68243 0.93597 0.0
C1123 C 0.83938 0.64052 0.94113 0.0
C1124 C 0.88735 0.6977 0.90987 0.0
C1125 C 0.86726 0.67143 0.88812 0.0
H1126 H 0.88796 0.70412 0.95205 0.0
H1127 H 0.91288 0.73071 0.9066 0.0
S1128 S 0.77762 0.55803 0.89204 0.0
N1129 N 0.78755 0.5722 0.92318 0.0
N1130 N 0.81238 0.60059 0.87408 0.0
C1131 C 0.83442 0.62867 0.8934 0.0
C1132 C 0.82071 0.6133 0.91993 0.0
C1133 C 0.38007 0.16701 0.93026 0.0
C1134 C 0.42614 0.18678 0.93501 0.0
C1135 C 0.36216 0.15816 0.90445 0.0
C1136 C 0.38974 0.16897 0.88229 0.0
H1137 H 0.35811 0.16182 0.94644 0.0
H1138 H 0.3267 0.14575 0.90176 0.0
S1139 S 0.51242 0.21517 0.88489 0.0
N1140 N 0.49865 0.21274 0.91615 0.0
N1141 N 0.46539 0.19521 0.86752 0.0
C1142 C 0.43571 0.18541 0.88712 0.0
C1143 C 0.4538 0.19441 0.91351 0.0
C1144 C 0.76517 0.217 0.90768 0.0
C1145 C 0.77603 0.20613 0.93307 0.0
C1146 C 0.77065 0.1994 0.88489 0.0
C1147 C 0.78721 0.17018 0.88668 0.0
H1148 H 0.75492 0.24126 0.90536 0.0
H1149 H 0.76457 0.21091 0.86568 0.0
S1150 S 0.81323 0.12608 0.94921 0.0
N1151 N 0.79932 0.16117 0.95906 0.0
N1152 N 0.80814 0.12665 0.91653 0.0
C1153 C 0.79444 0.15634 0.91225 0.0
C1154 C 0.78909 0.17456 0.93538 0.0
C1155 C 0.23685 0.13577 0.49674 0.0
C1156 C 0.25696 0.15265 0.47209 0.0
C1157 C 0.2583 0.15451 0.5204 0.0
C1158 C 0.30076 0.19095 0.52028 0.0
H1159 H 0.20533 0.10642 0.49771 0.0
H1160 H 0.24254 0.13882 0.53897 0.0
S1161 S 0.36471 0.25043 0.46032 0.0
N1162 N 0.31953 0.20946 0.44852 0.0
N1163 N 0.35972 0.24596 0.49293 0.0
C1164 C 0.31981 0.2098 0.49551 0.0
C1165 C 0.29787 0.19043 0.47141 0.0
C1166 C 0.93427 0.15665 0.5005 0.0
C1167 C 0.92116 0.16918 0.47632 0.0
C1168 C 0.92238 0.1646 0.52506 0.0
C1169 C 0.89654 0.18524 0.52651 0.0
H1170 H 0.95054 0.13726 0.50031 0.0
H1171 H 0.93164 0.15255 0.54302 0.0
S1172 S 0.85611 0.22656 0.46859 0.0
N1173 N 0.88349 0.20535 0.45525 0.0
N1174 N 0.86063 0.22027 0.50104 0.0
C1175 C 0.88589 0.20053 0.50238 0.0
C1176 C 0.89837 0.19258 0.47744 0.0
C1177 C 0.9059 0.74942 0.49048 0.0
C1178 C 0.89635 0.72221 0.46932 0.0
C1179 C 0.90202 0.73379 0.51697 0.0
C1180 C 0.88837 0.69025 0.5233 0.0
H1181 H 0.91277 0.78215 0.4864 0.0
H1182 H 0.9066 0.75532 0.53249 0.0
S1183 S 0.8677 0.60807 0.47483 0.0
N1184 N 0.87837 0.65151 0.45623 0.0
N1185 N 0.87218 0.62194 0.50593 0.0
C1186 C 0.88297 0.66382 0.50223 0.0
C1187 C 0.88689 0.6799 0.47528 0.0
loop_
_geom_bond_atom_site_label_1
_geom_bond_atom_site_label_2
_geom_bond_distance
_geom_bond_site_symmetry_2
_ccdc_geom_bond_type
C0 N1 1.317 . S
C0 N2 1.348 . S
C0 C3 1.485 . S
N1 C0 1.317 . S
N1 N5 1.370 . S
N2 C0 1.348 . S
N2 C4 1.346 . S
C3 C0 1.485 . S
C3 H7 0.960 . S
C3 H8 0.961 . S
C3 H9 0.960 . S
C4 N2 1.346 . S
C4 N5 1.307 . S
C4 C6 1.486 . S
N5 N1 1.370 . S
N5 C4 1.307 . S
C6 C4 1.486 . S
C6 H10 0.960 . S
C6 H11 0.960 . S
C6 H12 0.959 . S
H7 C3 0.960 . S
H8 C3 0.961 . S
H9 C3 0.960 . S
H10 C6 0.960 . S
H11 C6 0.960 . S
H12 C6 0.959 . S
C13 N14 1.317 . S
C13 N15 1.348 . S
C13 C16 1.485 . S
N14 C13 1.317 . S
N14 N18 1.370 . S
N15 C13 1.348 . S
N15 C17 1.346 . S
C16 C13 1.485 . S
C16 H20 0.960 . S
C16 H21 0.961 . S
C16 H22 0.960 . S
C17 N15 1.346 . S
C17 N18 1.307 . S
C17 C19 1.486 . S
N18 N14 1.370 . S
N18 C17 1.307 . S
C19 C17 1.486 . S
C19 H23 0.960 . S
C19 H24 0.960 . S
C19 H25 0.959 . S
H20 C16 0.960 . S
H21 C16 0.961 . S
H22 C16 0.960 . S
H23 C19 0.960 . S
H24 C19 0.960 . S
H25 C19 0.959 . S
C26 N27 1.317 . S
C26 N28 1.348 . S
C26 C29 1.485 . S
N27 C26 1.317 . S
N27 N31 1.370 . S
N28 C26 1.348 . S
N28 C30 1.346 . S
C29 C26 1.485 . S
C29 H33 0.960 . S
C29 H34 0.961 . S
C29 H35 0.960 . S
C30 N28 1.346 . S
C30 N31 1.307 . S
C30 C32 1.486 . S
N31 N27 1.370 . S
N31 C30 1.307 . S
C32 C30 1.486 . S
C32 H36 0.960 . S
C32 H37 0.960 . S
C32 H38 0.959 . S
H33 C29 0.960 . S
H34 C29 0.961 . S
H35 C29 0.960 . S
H36 C32 0.960 . S
H37 C32 0.960 . S
H38 C32 0.959 . S
C39 N40 1.317 . S
C39 N41 1.348 . S
C39 C42 1.485 . S
N40 C39 1.317 . S
N40 N44 1.370 . S
N41 C39 1.348 . S
N41 C43 1.346 . S
C42 C39 1.485 . S
C42 H46 0.960 . S
C42 H47 0.961 . S
C42 H48 0.960 . S
C43 N41 1.346 . S
C43 N44 1.307 . S
C43 C45 1.486 . S
N44 N40 1.370 . S
N44 C43 1.307 . S
C45 C43 1.486 . S
C45 H49 0.960 . S
C45 H50 0.960 1_455 S
C45 H51 0.959 . S
H46 C42 0.960 . S
H47 C42 0.961 . S
H48 C42 0.960 . S
H49 C45 0.960 . S
H50 C45 0.960 1_655 S
H51 C45 0.959 . S
C52 N53 1.317 . S
C52 N54 1.348 . S
C52 C55 1.485 . S
N53 C52 1.317 . S
N53 N57 1.370 . S
N54 C52 1.348 . S
N54 C56 1.346 . S
C55 C52 1.485 . S
C55 H59 0.960 . S
C55 H60 0.961 . S
C55 H61 0.960 . S
C56 N54 1.346 . S
C56 N57 1.307 . S
C56 C58 1.486 . S
N57 N53 1.370 . S
N57 C56 1.307 . S
C58 C56 1.486 . S
C58 H62 0.960 . S
C58 H63 0.960 . S
C58 H64 0.959 . S
H59 C55 0.960 . S
H60 C55 0.961 . S
H61 C55 0.960 . S
H62 C58 0.960 . S
H63 C58 0.960 . S
H64 C58 0.959 . S
C65 N66 1.317 . S
C65 N67 1.348 . S
C65 C68 1.485 . S
N66 C65 1.317 . S
N66 N70 1.370 . S
N67 C65 1.348 . S
N67 C69 1.346 . S
C68 C65 1.485 . S
C68 H72 0.960 . S
C68 H73 0.961 . S
C68 H74 0.960 . S
C69 N67 1.346 . S
C69 N70 1.307 . S
C69 C71 1.486 . S
N70 N66 1.370 . S
N70 C69 1.307 . S
C71 C69 1.486 . S
C71 H75 0.960 . S
C71 H76 0.960 . S
C71 H77 0.959 . S
H72 C68 0.960 . S
H73 C68 0.961 . S
H74 C68 0.960 . S
H75 C71 0.960 . S
H76 C71 0.960 . S
H77 C71 0.959 . S
C78 N79 1.317 . S
C78 N80 1.348 . S
C78 C81 1.485 . S
N79 C78 1.317 . S
N79 N83 1.370 . S
N80 C78 1.348 . S
N80 C82 1.346 . S
C81 C78 1.485 . S
C81 H85 0.960 . S
C81 H86 0.961 . S
C81 H87 0.960 . S
C82 N80 1.346 . S
C82 N83 1.307 . S
C82 C84 1.486 . S
N83 N79 1.370 . S
N83 C82 1.307 . S
C84 C82 1.486 . S
C84 H88 0.960 . S
C84 H89 0.960 . S
C84 H90 0.959 . S
H85 C81 0.960 . S
H86 C81 0.961 . S
H87 C81 0.960 . S
H88 C84 0.960 . S
H89 C84 0.960 . S
H90 C84 0.959 . S
C91 N92 1.317 . S
C91 N93 1.348 . S
C91 C94 1.485 . S
N92 C91 1.317 . S
N92 N96 1.370 . S
N93 C91 1.348 . S
N93 C95 1.346 . S
C94 C91 1.485 . S
C94 H98 0.960 . S
C94 H99 0.961 . S
C94 H100 0.960 . S
C95 N93 1.346 . S
C95 N96 1.307 . S
C95 C97 1.486 . S
N96 N92 1.370 . S
N96 C95 1.307 . S
C97 C95 1.486 . S
C97 H101 0.960 . S
C97 H102 0.960 . S
C97 H103 0.959 . S
H98 C94 0.960 . S
H99 C94 0.961 . S
H100 C94 0.960 . S
H101 C97 0.960 . S
H102 C97 0.960 . S
H103 C97 0.959 . S
C104 N105 1.317 . S
C104 N106 1.348 . S
C104 C107 1.485 . S
N105 C104 1.317 . S
N105 N109 1.370 . S
N106 C104 1.348 . S
N106 C108 1.346 . S
C107 C104 1.485 . S
C107 H111 0.960 . S
C107 H112 0.961 . S
C107 H113 0.960 . S
C108 N106 1.346 . S
C108 N109 1.307 . S
C108 C110 1.486 . S
N109 N105 1.370 . S
N109 C108 1.307 . S
C110 C108 1.486 . S
C110 H114 0.960 . S
C110 H115 0.960 . S
C110 H116 0.959 . S
H111 C107 0.960 . S
H112 C107 0.961 . S
H113 C107 0.960 . S
H114 C110 0.960 . S
H115 C110 0.960 . S
H116 C110 0.959 . S
C117 N118 1.317 . S
C117 N119 1.348 . S
C117 C120 1.485 . S
N118 C117 1.317 . S
N118 N122 1.370 . S
N119 C117 1.348 . S
N119 C121 1.346 . S
C120 C117 1.485 . S
C120 H124 0.960 . S
C120 H125 0.935 1_556 S
C120 H126 0.960 . S
C121 N119 1.346 . S
C121 N122 1.307 . S
C121 C123 1.486 . S
N122 N118 1.370 . S
N122 C121 1.307 . S
C123 C121 1.486 . S
C123 H127 0.960 . S
C123 H128 0.960 . S
C123 H129 0.959 . S
H124 C120 0.960 . S
H125 C120 0.935 1_554 S
H126 C120 0.960 . S
H127 C123 0.960 . S
H128 C123 0.960 . S
H129 C123 0.959 . S
C130 N131 1.317 . S
C130 N132 1.348 . S
C130 C133 1.485 1_556 S
N131 C130 1.317 . S
N131 N135 1.370 . S
N132 C130 1.348 . S
N132 C134 1.346 . S
C133 C130 1.485 1_554 S
C133 H137 0.960 . S
C133 H138 0.961 . S
C133 H139 0.960 . S
C134 N132 1.346 . S
C134 N135 1.307 . S
C134 C136 1.486 . S
N135 N131 1.370 . S
N135 C134 1.307 . S
C136 C134 1.486 . S
C136 H140 0.960 . S
C136 H141 0.960 . S
C136 H142 0.959 . S
H137 C133 0.960 . S
H138 C133 0.961 . S
H139 C133 0.960 . S
H140 C136 0.960 . S
H141 C136 0.960 . S
H142 C136 0.959 . S
C143 N144 1.317 . S
C143 N145 1.348 . S
C143 C146 1.485 1_556 S
N144 C143 1.317 . S
N144 N148 1.370 . S
N145 C143 1.348 . S
N145 C147 1.346 . S
C146 C143 1.485 1_554 S
C146 H150 0.960 . S
C146 H151 0.961 . S
C146 H152 0.960 . S
C147 N145 1.346 . S
C147 N148 1.307 . S
C147 C149 1.486 . S
N148 N144 1.370 . S
N148 C147 1.307 . S
C149 C147 1.486 . S
C149 H153 0.960 . S
C149 H154 0.960 . S
C149 H155 0.959 . S
H150 C146 0.960 . S
H151 C146 0.961 . S
H152 C146 0.960 . S
H153 C149 0.960 . S
H154 C149 0.960 . S
H155 C149 0.959 . S
C156 N157 1.317 . S
C156 N158 1.348 . S
C156 C159 1.485 1_554 S
N157 C156 1.317 . S
N157 N161 1.370 . S
N158 C156 1.348 . S
N158 C160 1.346 . S
C159 C156 1.485 1_556 S
C159 H163 0.960 . S
C159 H164 0.961 . S
C159 H165 0.960 . S
C160 N158 1.346 . S
C160 N161 1.307 . S
C160 C162 1.486 . S
N161 N157 1.370 . S
N161 C160 1.307 . S
C162 C160 1.486 . S
C162 H166 0.960 . S
C162 H167 0.960 . S
C162 H168 0.959 . S
H163 C159 0.960 . S
H164 C159 0.961 . S
H165 C159 0.960 . S
H166 C162 0.960 . S
H167 C162 0.960 . S
H168 C162 0.959 . S
C169 N170 1.317 . S
C169 N171 1.348 . S
C169 C172 1.485 . S
N170 C169 1.317 . S
N170 N174 1.370 . S
N171 C169 1.348 . S
N171 C173 1.346 . S
C172 C169 1.485 . S
C172 H176 0.960 1_554 S
C172 H177 0.961 . S
C172 H178 0.960 . S
C173 N171 1.346 . S
C173 N174 1.307 . S
C173 C175 1.486 . S
N174 N170 1.370 . S
N174 C173 1.307 . S
C175 C173 1.486 . S
C175 H179 0.960 . S
C175 H180 0.960 . S
C175 H181 0.959 . S
H176 C172 0.960 1_556 S
H177 C172 0.961 . S
H178 C172 0.960 . S
H179 C175 0.960 . S
H180 C175 0.960 . S
H181 C175 0.959 . S
C182 N183 1.317 . S
C182 N184 1.348 . S
C182 C185 1.485 . S
N183 C182 1.317 . S
N183 N187 1.370 . S
N184 C182 1.348 . S
N184 C186 1.346 . S
C185 C182 1.485 . S
C185 H189 0.960 . S
C185 H190 0.961 . S
C185 H191 0.960 . S
C186 N184 1.346 . S
C186 N187 1.307 . S
C186 C188 1.486 . S
N187 N183 1.370 . S
N187 C186 1.307 . S
C188 C186 1.486 . S
C188 H192 0.960 . S
C188 H193 0.960 . S
C188 H194 0.959 . S
H189 C185 0.960 . S
H190 C185 0.961 . S
H191 C185 0.960 . S
H192 C188 0.960 . S
H193 C188 0.960 . S
H194 C188 0.959 . S
C195 N196 1.317 . S
C195 N197 1.348 . S
C195 C198 1.485 . S
N196 C195 1.317 . S
N196 N200 1.370 . S
N197 C195 1.348 . S
N197 C199 1.346 . S
C198 C195 1.485 . S
C198 H202 0.960 . S
C198 H203 0.961 . S
C198 H204 0.960 . S
C199 N197 1.346 . S
C199 N200 1.307 . S
C199 C201 1.486 . S
N200 N196 1.370 . S
N200 C199 1.307 . S
C201 C199 1.486 . S
C201 H205 0.960 . S
C201 H206 0.960 . S
C201 H207 0.959 . S
H202 C198 0.960 . S
H203 C198 0.961 . S
H204 C198 0.960 . S
H205 C201 0.960 . S
H206 C201 0.960 . S
H207 C201 0.959 . S
C208 N209 1.317 . S
C208 N210 1.348 . S
C208 C211 1.485 . S
N209 C208 1.317 . S
N209 N213 1.370 . S
N210 C208 1.348 . S
N210 C212 1.346 . S
C211 C208 1.485 . S
C211 H215 0.960 . S
C211 H216 0.961 . S
C211 H217 0.960 . S
C212 N210 1.346 . S
C212 N213 1.307 . S
C212 C214 1.486 . S
N213 N209 1.370 . S
N213 C212 1.307 . S
C214 C212 1.486 . S
C214 H218 0.960 . S
C214 H219 0.960 . S
C214 H220 0.959 . S
H215 C211 0.960 . S
H216 C211 0.961 . S
H217 C211 0.960 . S
H218 C214 0.960 . S
H219 C214 0.960 . S
H220 C214 0.959 . S
C221 N222 1.317 . S
C221 N223 1.348 . S
C221 C224 1.485 . S
N222 C221 1.317 . S
N222 N226 1.370 . S
N223 C221 1.348 . S
N223 C225 1.346 . S
C224 C221 1.485 . S
C224 H228 0.960 . S
C224 H229 0.961 . S
C224 H230 0.960 . S
C225 N223 1.346 . S
C225 N226 1.307 . S
C225 C227 1.486 . S
N226 N222 1.370 . S
N226 C225 1.307 . S
C227 C225 1.486 . S
C227 H231 0.960 . S
C227 H232 0.960 . S
C227 H233 0.959 . S
H228 C224 0.960 . S
H229 C224 0.961 . S
H230 C224 0.960 . S
H231 C227 0.960 . S
H232 C227 0.960 . S
H233 C227 0.959 . S
Tb234 C244 2.825 1_565 S
Tb234 O245 2.347 1_565 S
Tb234 O248 2.366 1_565 S
Tb234 O253 2.418 . S
Tb234 O254 2.384 1_556 S
Tb234 O257 2.479 . S
Tb234 O258 2.471 1_565 S
Eu235 O246 2.418 . S
Eu235 O247 2.384 . S
Eu235 O250 2.479 . S
Eu235 O251 2.471 1_545 S
Eu235 O252 2.347 1_545 S
Eu235 O255 2.366 1_545 S
Eu235 C265 2.825 1_545 S
C236 O252 1.259 . S
C236 O253 1.265 1_554 S
C237 O254 1.255 . S
C237 O255 1.265 . S
C238 C240 1.380 . S
C238 C241 1.374 . S
C238 C244 1.507 . S
C239 C240 1.384 . S
C239 C243 1.387 . S
C239 H266 0.930 . S
C240 C238 1.380 . S
C240 C239 1.384 . S
C240 H267 0.931 1_545 S
C241 C238 1.374 . S
C241 C242 1.390 . S
C241 H268 0.930 . S
C242 C241 1.390 . S
C242 C243 1.391 . S
C242 H269 0.930 . S
C243 C239 1.387 . S
C243 C242 1.391 . S
C244 Tb234 2.825 1_545 S
C244 C238 1.507 . S
C244 O257 1.238 1_545 S
C244 O258 1.247 . S
O245 Tb234 2.347 1_545 S
O245 C249 1.259 1_556 S
O246 Eu235 2.418 . S
O246 C249 1.265 . S
O247 Eu235 2.384 . S
O247 C256 1.255 1_554 S
O248 Tb234 2.366 1_545 S
O248 C256 1.265 . S
C249 O245 1.259 1_554 S
C249 O246 1.265 . S
O250 Eu235 2.479 . S
O250 C265 1.238 1_545 S
O251 Eu235 2.471 1_565 S
O251 C265 1.247 . S
O252 Eu235 2.347 1_565 S
O252 C236 1.259 . S
O253 Tb234 2.418 . S
O253 C236 1.265 1_556 S
O254 Tb234 2.384 1_554 S
O254 C237 1.255 . S
O255 Eu235 2.366 1_565 S
O255 C237 1.265 . S
C256 O247 1.255 1_556 S
C256 O248 1.265 . S
O257 Tb234 2.479 . S
O257 C244 1.238 1_565 S
O258 Tb234 2.471 1_545 S
O258 C244 1.247 . S
C259 C262 1.380 . S
C259 C263 1.374 . S
C259 C265 1.507 . S
C260 C261 1.387 . S
C260 C264 1.391 . S
C261 C260 1.387 . S
C261 C262 1.384 . S
C261 H270 0.930 . S
C262 C259 1.380 . S
C262 C261 1.384 . S
C262 H271 0.931 1_565 S
C263 C259 1.374 . S
C263 C264 1.390 . S
C263 H272 0.930 . S
C264 C260 1.391 . S
C264 C263 1.390 . S
C264 H273 0.930 . S
C265 Eu235 2.825 1_565 S
C265 O250 1.238 1_565 S
C265 O251 1.247 . S
C265 C259 1.507 . S
H266 C239 0.930 . S
H267 C240 0.931 1_565 S
H268 C241 0.930 . S
H269 C242 0.930 . S
H270 C261 0.930 . S
H271 C262 0.931 1_545 S
H272 C263 0.930 . S
H273 C264 0.930 . S
Tb274 C284 2.825 . S
Tb274 O285 2.347 1_455 S
Tb274 O288 2.366 1_455 S
Tb274 O293 2.418 . S
Tb274 O294 2.384 1_556 S
Tb274 O297 2.479 . S
Tb274 O298 2.471 1_455 S
Eu275 O286 2.418 . S
Eu275 O287 2.401 . S
Eu275 O290 2.479 . S
Eu275 O291 2.471 1_655 S
Eu275 O292 2.347 1_655 S
Eu275 O295 2.366 1_655 S
Eu275 C305 2.825 1_655 S
C276 O292 1.259 . S
C276 O293 1.265 1_554 S
C277 O294 1.255 . S
C277 O295 1.265 . S
C278 C280 1.373 1_655 S
C278 C281 1.390 . S
C278 C284 1.498 1_655 S
C279 C280 1.384 . S
C279 C283 1.387 1_455 S
C279 H306 0.930 . S
C280 C278 1.373 1_455 S
C280 C279 1.384 . S
C280 H307 0.931 . S
C281 C278 1.390 . S
C281 C282 1.390 . S
C281 H308 0.930 . S
C282 C281 1.390 . S
C282 C283 1.391 . S
C282 H309 0.930 . S
C283 C279 1.387 1_655 S
C283 C282 1.391 . S
C284 Tb274 2.825 . S
C284 C278 1.498 1_455 S
C284 O297 1.238 . S
C284 O298 1.247 1_455 S
O285 Tb274 2.347 1_655 S
O285 C289 1.255 1_556 S
O286 Eu275 2.418 . S
O286 C289 1.273 . S
O287 Eu275 2.401 . S
O287 C296 1.233 1_554 S
O288 Tb274 2.366 1_655 S
O288 C296 1.265 . S
C289 O285 1.255 1_554 S
C289 O286 1.273 . S
O290 Eu275 2.479 . S
O290 C305 1.238 1_655 S
O291 Eu275 2.471 1_455 S
O291 C305 1.247 . S
O292 Eu275 2.347 1_455 S
O292 C276 1.259 . S
O293 Tb274 2.418 . S
O293 C276 1.265 1_556 S
O294 Tb274 2.384 1_554 S
O294 C277 1.255 . S
O295 Eu275 2.366 1_455 S
O295 C277 1.265 . S
C296 O287 1.233 1_556 S
C296 O288 1.265 . S
O297 Tb274 2.479 . S
O297 C284 1.238 . S
O298 Tb274 2.471 1_655 S
O298 C284 1.247 1_655 S
C299 C302 1.380 1_455 S
C299 C303 1.374 . S
C299 C305 1.507 . S
C300 C301 1.387 . S
C300 C304 1.391 . S
C301 C300 1.387 . S
C301 C302 1.384 1_455 S
C301 H310 0.930 1_455 S
C302 C299 1.380 1_655 S
C302 C301 1.384 1_655 S
C302 H311 0.931 . S
C303 C299 1.374 . S
C303 C304 1.390 . S
C303 H312 0.930 . S
C304 C300 1.391 . S
C304 C303 1.390 . S
C304 H313 0.930 . S
C305 Eu275 2.825 1_455 S
C305 O290 1.238 1_455 S
C305 O291 1.247 . S
C305 C299 1.507 . S
H306 C279 0.930 . S
H307 C280 0.931 . S
H308 C281 0.930 . S
H309 C282 0.930 . S
H310 C301 0.930 1_655 S
H311 C302 0.931 . S
H312 C303 0.930 . S
H313 C304 0.930 . S
Tb314 C324 2.825 . S
Tb314 O325 2.347 . S
Tb314 O328 2.366 . S
Tb314 O333 2.418 . S
Tb314 O334 2.384 . S
Tb314 O337 2.479 . S
Tb314 O338 2.471 . S
Eu315 O326 2.418 . S
Eu315 O327 2.384 1_556 S
Eu315 O330 2.479 . S
Eu315 O331 2.471 . S
Eu315 O332 2.347 1_556 S
Eu315 O335 2.366 . S
Eu315 C345 2.825 . S
C316 O332 1.259 . S
C316 O333 1.265 . S
C317 O334 1.255 1_556 S
C317 O335 1.265 . S
C318 C320 1.380 . S
C318 C321 1.374 . S
C318 C324 1.507 . S
C319 C320 1.384 . S
C319 C323 1.387 . S
C319 H346 0.930 . S
C320 C318 1.380 . S
C320 C319 1.384 . S
C320 H347 0.931 . S
C321 C318 1.374 . S
C321 C322 1.390 . S
C321 H348 0.930 . S
C322 C321 1.390 . S
C322 C323 1.391 . S
C322 H349 0.930 . S
C323 C319 1.387 . S
C323 C322 1.391 . S
C324 Tb314 2.825 . S
C324 C318 1.507 . S
C324 O337 1.238 . S
C324 O338 1.247 . S
O325 Tb314 2.347 . S
O325 C329 1.259 . S
O326 Eu315 2.418 . S
O326 C329 1.265 1_556 S
O327 Eu315 2.384 1_554 S
O327 C336 1.255 . S
O328 Tb314 2.366 . S
O328 C336 1.265 . S
C329 O325 1.259 . S
C329 O326 1.265 1_554 S
O330 Eu315 2.479 . S
O330 C345 1.238 . S
O331 Eu315 2.471 . S
O331 C345 1.247 . S
O332 Eu315 2.347 1_554 S
O332 C316 1.259 . S
O333 Tb314 2.418 . S
O333 C316 1.265 . S
O334 Tb314 2.384 . S
O334 C317 1.255 1_554 S
O335 Eu315 2.366 . S
O335 C317 1.265 . S
C336 O327 1.255 . S
C336 O328 1.265 . S
O337 Tb314 2.479 . S
O337 C324 1.238 . S
O338 Tb314 2.471 . S
O338 C324 1.247 . S
C339 C342 1.380 . S
C339 C343 1.374 . S
C339 C345 1.507 . S
C340 C341 1.387 . S
C340 C344 1.391 . S
C341 C340 1.387 . S
C341 C342 1.384 . S
C341 H350 0.930 . S
C342 C339 1.380 . S
C342 C341 1.384 . S
C342 H351 0.931 . S
C343 C339 1.374 . S
C343 C344 1.390 . S
C343 H352 0.930 . S
C344 C340 1.391 . S
C344 C343 1.390 . S
C344 H353 0.930 . S
C345 Eu315 2.825 . S
C345 O330 1.238 . S
C345 O331 1.247 . S
C345 C339 1.507 . S
H346 C319 0.930 . S
H347 C320 0.931 . S
H348 C321 0.930 . S
H349 C322 0.930 . S
H350 C341 0.930 . S
H351 C342 0.931 . S
H352 C343 0.930 . S
H353 C344 0.930 . S
Tb354 C364 2.825 . S
Tb354 O365 2.347 . S
Tb354 O368 2.366 . S
Tb354 O373 2.418 . S
Tb354 O374 2.384 . S
Tb354 O377 2.479 . S
Tb354 O378 2.471 . S
Eu355 O366 2.418 . S
Eu355 O367 2.384 . S
Eu355 O370 2.479 . S
Eu355 O371 2.471 . S
Eu355 O372 2.347 . S
Eu355 O375 2.366 . S
Eu355 C385 2.825 . S
C356 O372 1.259 . S
C356 O373 1.265 . S
C357 O374 1.255 . S
C357 O375 1.265 . S
C358 C360 1.380 . S
C358 C361 1.374 . S
C358 C364 1.507 . S
C359 C360 1.384 . S
C359 C363 1.387 . S
C359 H386 0.930 . S
C360 C358 1.380 . S
C360 C359 1.384 . S
C360 H387 0.931 . S
C361 C358 1.374 . S
C361 C362 1.390 . S
C361 H388 0.930 . S
C362 C361 1.390 . S
C362 C363 1.391 . S
C362 H389 0.930 . S
C363 C359 1.387 . S
C363 C362 1.391 . S
C364 Tb354 2.825 . S
C364 C358 1.507 . S
C364 O377 1.238 . S
C364 O378 1.247 . S
O365 Tb354 2.347 . S
O365 C369 1.259 . S
O366 Eu355 2.418 . S
O366 C369 1.265 . S
O367 Eu355 2.384 . S
O367 C376 1.255 . S
O368 Tb354 2.366 . S
O368 C376 1.265 . S
C369 O365 1.259 . S
C369 O366 1.265 . S
O370 Eu355 2.479 . S
O370 C385 1.238 . S
O371 Eu355 2.471 . S
O371 C385 1.247 . S
O372 Eu355 2.347 . S
O372 C356 1.259 . S
O373 Tb354 2.418 . S
O373 C356 1.265 . S
O374 Tb354 2.384 . S
O374 C357 1.255 . S
O375 Eu355 2.366 . S
O375 C357 1.265 . S
C376 O367 1.255 . S
C376 O368 1.265 . S
O377 Tb354 2.479 . S
O377 C364 1.238 . S
O378 Tb354 2.471 . S
O378 C364 1.247 . S
C379 C382 1.380 . S
C379 C383 1.374 . S
C379 C385 1.507 . S
C380 C381 1.387 . S
C380 C384 1.391 . S
C381 C380 1.387 . S
C381 C382 1.384 . S
C381 H390 0.930 . S
C382 C379 1.380 . S
C382 C381 1.384 . S
C382 H391 0.931 . S
C383 C379 1.374 . S
C383 C384 1.390 . S
C383 H392 0.930 . S
C384 C380 1.391 . S
C384 C383 1.390 . S
C384 H393 0.930 . S
C385 Eu355 2.825 . S
C385 O370 1.238 . S
C385 O371 1.247 . S
C385 C379 1.507 . S
H386 C359 0.930 . S
H387 C360 0.931 . S
H388 C361 0.930 . S
H389 C362 0.930 . S
H390 C381 0.930 . S
H391 C382 0.931 . S
H392 C383 0.930 . S
H393 C384 0.930 . S
Tb394 C404 2.825 . S
Tb394 O405 2.347 . S
Tb394 O408 2.366 . S
Tb394 O413 2.418 . S
Tb394 O414 2.384 . S
Tb394 O417 2.479 . S
Tb394 O418 2.471 . S
Eu395 O406 2.418 . S
Eu395 O407 2.384 . S
Eu395 O410 2.479 . S
Eu395 O411 2.471 . S
Eu395 O412 2.347 . S
Eu395 O415 2.366 . S
Eu395 C425 2.825 . S
C396 O412 1.259 . S
C396 O413 1.265 . S
C397 O414 1.255 . S
C397 O415 1.265 . S
C398 C400 1.380 . S
C398 C401 1.374 . S
C398 C404 1.507 . S
C399 C400 1.384 . S
C399 C403 1.387 . S
C399 H426 0.930 . S
C400 C398 1.380 . S
C400 C399 1.384 . S
C400 H427 0.931 . S
C401 C398 1.374 . S
C401 C402 1.390 . S
C401 H428 0.930 . S
C402 C401 1.390 . S
C402 C403 1.391 . S
C402 H429 0.930 . S
C403 C399 1.387 . S
C403 C402 1.391 . S
C404 Tb394 2.825 . S
C404 C398 1.507 . S
C404 O417 1.238 . S
C404 O418 1.247 . S
O405 Tb394 2.347 . S
O405 C409 1.259 . S
O406 Eu395 2.418 . S
O406 C409 1.265 . S
O407 Eu395 2.384 . S
O407 C416 1.255 . S
O408 Tb394 2.366 . S
O408 C416 1.265 . S
C409 O405 1.259 . S
C409 O406 1.265 . S
O410 Eu395 2.479 . S
O410 C425 1.238 . S
O411 Eu395 2.471 . S
O411 C425 1.247 . S
O412 Eu395 2.347 . S
O412 C396 1.259 . S
O413 Tb394 2.418 . S
O413 C396 1.265 . S
O414 Tb394 2.384 . S
O414 C397 1.255 . S
O415 Eu395 2.366 . S
O415 C397 1.265 . S
C416 O407 1.255 . S
C416 O408 1.265 . S
O417 Tb394 2.479 . S
O417 C404 1.238 . S
O418 Tb394 2.471 . S
O418 C404 1.247 . S
C419 C422 1.380 . S
C419 C423 1.374 . S
C419 C425 1.507 . S
C420 C421 1.387 . S
C420 C424 1.391 . S
C421 C420 1.387 . S
C421 C422 1.384 . S
C421 H430 0.930 . S
C422 C419 1.380 . S
C422 C421 1.384 . S
C422 H431 0.931 . S
C423 C419 1.374 . S
C423 C424 1.390 . S
C423 H432 0.930 . S
C424 C420 1.391 . S
C424 C423 1.390 . S
C424 H433 0.930 . S
C425 Eu395 2.825 . S
C425 O410 1.238 . S
C425 O411 1.247 . S
C425 C419 1.507 . S
H426 C399 0.930 . S
H427 C400 0.931 . S
H428 C401 0.930 . S
H429 C402 0.930 . S
H430 C421 0.930 . S
H431 C422 0.931 . S
H432 C423 0.930 . S
H433 C424 0.930 . S
Tb434 C444 2.825 . S
Tb434 O445 2.347 . S
Tb434 O448 2.366 . S
Tb434 O453 2.418 . S
Tb434 O454 2.384 . S
Tb434 O457 2.479 . S
Tb434 O458 2.471 . S
Eu435 O446 2.418 . S
Eu435 O447 2.384 . S
Eu435 O450 2.479 . S
Eu435 O451 2.471 . S
Eu435 O452 2.347 . S
Eu435 O455 2.366 . S
Eu435 C465 2.825 . S
C436 O452 1.259 . S
C436 O453 1.265 . S
C437 O454 1.255 . S
C437 O455 1.265 . S
C438 C440 1.380 . S
C438 C441 1.374 . S
C438 C444 1.507 . S
C439 C440 1.384 . S
C439 C443 1.387 . S
C439 H466 0.930 . S
C440 C438 1.380 . S
C440 C439 1.384 . S
C440 H467 0.931 . S
C441 C438 1.374 . S
C441 C442 1.390 . S
C441 H468 0.930 . S
C442 C441 1.390 . S
C442 C443 1.391 . S
C442 H469 0.930 . S
C443 C439 1.387 . S
C443 C442 1.391 . S
C444 Tb434 2.825 . S
C444 C438 1.507 . S
C444 O457 1.238 . S
C444 O458 1.247 . S
O445 Tb434 2.347 . S
O445 C449 1.259 . S
O446 Eu435 2.418 . S
O446 C449 1.265 . S
O447 Eu435 2.384 . S
O447 C456 1.255 . S
O448 Tb434 2.366 . S
O448 C456 1.265 . S
C449 O445 1.259 . S
C449 O446 1.265 . S
O450 Eu435 2.479 . S
O450 C465 1.238 . S
O451 Eu435 2.471 . S
O451 C465 1.247 . S
O452 Eu435 2.347 . S
O452 C436 1.259 . S
O453 Tb434 2.418 . S
O453 C436 1.265 . S
O454 Tb434 2.384 . S
O454 C437 1.255 . S
O455 Eu435 2.366 . S
O455 C437 1.265 . S
C456 O447 1.255 . S
C456 O448 1.265 . S
O457 Tb434 2.479 . S
O457 C444 1.238 . S
O458 Tb434 2.471 . S
O458 C444 1.247 . S
C459 C462 1.380 . S
C459 C463 1.374 . S
C459 C465 1.507 . S
C460 C461 1.387 . S
C460 C464 1.391 . S
C461 C460 1.387 . S
C461 C462 1.384 . S
C461 H470 0.930 . S
C462 C459 1.380 . S
C462 C461 1.384 . S
C462 H471 0.931 . S
C463 C459 1.374 . S
C463 C464 1.390 . S
C463 H472 0.930 . S
C464 C460 1.391 . S
C464 C463 1.390 . S
C464 H473 0.930 . S
C465 Eu435 2.825 . S
C465 O450 1.238 . S
C465 O451 1.247 . S
C465 C459 1.507 . S
H466 C439 0.930 . S
H467 C440 0.931 . S
H468 C441 0.930 . S
H469 C442 0.930 . S
H470 C461 0.930 . S
H471 C462 0.931 . S
H472 C463 0.930 . S
H473 C464 0.930 . S
Tb474 C484 2.825 . S
Tb474 O485 2.347 . S
Tb474 O488 2.366 . S
Tb474 O493 2.418 . S
Tb474 O494 2.384 . S
Tb474 O497 2.479 . S
Tb474 O498 2.471 . S
Eu475 O486 2.418 . S
Eu475 O487 2.384 . S
Eu475 O490 2.479 . S
Eu475 O491 2.471 . S
Eu475 O492 2.347 . S
Eu475 O495 2.366 . S
Eu475 C505 2.825 . S
C476 O492 1.259 . S
C476 O493 1.265 . S
C477 O494 1.255 . S
C477 O495 1.265 . S
C478 C480 1.380 . S
C478 C481 1.374 . S
C478 C484 1.507 . S
C479 C480 1.384 . S
C479 C483 1.387 . S
C479 H506 0.930 . S
C480 C478 1.380 . S
C480 C479 1.384 . S
C480 H507 0.931 . S
C481 C478 1.374 . S
C481 C482 1.390 . S
C481 H508 0.930 . S
C482 C481 1.390 . S
C482 C483 1.391 . S
C482 H509 0.930 . S
C483 C479 1.387 . S
C483 C482 1.391 . S
C484 Tb474 2.825 . S
C484 C478 1.507 . S
C484 O497 1.238 . S
C484 O498 1.247 . S
O485 Tb474 2.347 . S
O485 C489 1.259 . S
O486 Eu475 2.418 . S
O486 C489 1.265 . S
O487 Eu475 2.384 . S
O487 C496 1.255 . S
O488 Tb474 2.366 . S
O488 C496 1.265 . S
C489 O485 1.259 . S
C489 O486 1.265 . S
O490 Eu475 2.479 . S
O490 C505 1.238 . S
O491 Eu475 2.471 . S
O491 C505 1.247 . S
O492 Eu475 2.347 . S
O492 C476 1.259 . S
O493 Tb474 2.418 . S
O493 C476 1.265 . S
O494 Tb474 2.384 . S
O494 C477 1.255 . S
O495 Eu475 2.366 . S
O495 C477 1.265 . S
C496 O487 1.255 . S
C496 O488 1.265 . S
O497 Tb474 2.479 . S
O497 C484 1.238 . S
O498 Tb474 2.471 . S
O498 C484 1.247 . S
C499 C502 1.380 . S
C499 C503 1.374 . S
C499 C505 1.507 . S
C500 C501 1.387 . S
C500 C504 1.391 . S
C501 C500 1.387 . S
C501 C502 1.384 . S
C501 H510 0.930 . S
C502 C499 1.380 . S
C502 C501 1.384 . S
C502 H511 0.931 . S
C503 C499 1.374 . S
C503 C504 1.390 . S
C503 H512 0.930 . S
C504 C500 1.391 . S
C504 C503 1.390 . S
C504 H513 0.930 . S
C505 Eu475 2.825 . S
C505 O490 1.238 . S
C505 O491 1.247 . S
C505 C499 1.507 . S
H506 C479 0.930 . S
H507 C480 0.931 . S
H508 C481 0.930 . S
H509 C482 0.930 . S
H510 C501 0.930 . S
H511 C502 0.931 . S
H512 C503 0.930 . S
H513 C504 0.930 . S
Tb514 C524 2.825 . S
Tb514 O525 2.347 . S
Tb514 O528 2.366 . S
Tb514 O533 2.418 . S
Tb514 O534 2.384 . S
Tb514 O537 2.479 . S
Tb514 O538 2.471 . S
Eu515 O526 2.418 . S
Eu515 O527 2.384 . S
Eu515 O530 2.479 . S
Eu515 O531 2.471 . S
Eu515 O532 2.347 . S
Eu515 O535 2.366 . S
Eu515 C545 2.825 . S
C516 O532 1.259 . S
C516 O533 1.265 . S
C517 O534 1.255 . S
C517 O535 1.265 . S
C518 C520 1.380 . S
C518 C521 1.374 . S
C518 C524 1.507 . S
C519 C520 1.384 . S
C519 C523 1.387 . S
C519 H546 0.930 . S
C520 C518 1.380 . S
C520 C519 1.384 . S
C520 H547 0.931 . S
C521 C518 1.374 . S
C521 C522 1.390 . S
C521 H548 0.930 . S
C522 C521 1.390 . S
C522 C523 1.391 . S
C522 H549 0.930 . S
C523 C519 1.387 . S
C523 C522 1.391 . S
C524 Tb514 2.825 . S
C524 C518 1.507 . S
C524 O537 1.238 . S
C524 O538 1.247 . S
O525 Tb514 2.347 . S
O525 C529 1.259 . S
O526 Eu515 2.418 . S
O526 C529 1.265 . S
O527 Eu515 2.384 . S
O527 C536 1.255 . S
O528 Tb514 2.366 . S
O528 C536 1.265 . S
C529 O525 1.259 . S
C529 O526 1.265 . S
O530 Eu515 2.479 . S
O530 C545 1.238 . S
O531 Eu515 2.471 . S
O531 C545 1.247 . S
O532 Eu515 2.347 . S
O532 C516 1.259 . S
O533 Tb514 2.418 . S
O533 C516 1.265 . S
O534 Tb514 2.384 . S
O534 C517 1.255 . S
O535 Eu515 2.366 . S
O535 C517 1.265 . S
C536 O527 1.255 . S
C536 O528 1.265 . S
O537 Tb514 2.479 . S
O537 C524 1.238 . S
O538 Tb514 2.471 . S
O538 C524 1.247 . S
C539 C542 1.380 . S
C539 C543 1.374 . S
C539 C545 1.507 . S
C540 C541 1.387 . S
C540 C544 1.391 . S
C541 C540 1.387 . S
C541 C542 1.384 . S
C541 H550 0.930 . S
C542 C539 1.380 . S
C542 C541 1.384 . S
C542 H551 0.931 . S
C543 C539 1.374 . S
C543 C544 1.390 . S
C543 H552 0.930 . S
C544 C540 1.391 . S
C544 C543 1.390 . S
C544 H553 0.930 . S
C545 Eu515 2.825 . S
C545 O530 1.238 . S
C545 O531 1.247 . S
C545 C539 1.507 . S
H546 C519 0.930 . S
H547 C520 0.931 . S
H548 C521 0.930 . S
H549 C522 0.930 . S
H550 C541 0.930 . S
H551 C542 0.931 . S
H552 C543 0.930 . S
H553 C544 0.930 . S
Tb554 C564 2.825 . S
Tb554 O565 2.347 . S
Tb554 O568 2.366 . S
Tb554 O573 2.418 . S
Tb554 O574 2.384 . S
Tb554 O577 2.479 . S
Tb554 O578 2.471 . S
Eu555 O566 2.418 . S
Eu555 O567 2.384 . S
Eu555 O570 2.479 . S
Eu555 O571 2.471 . S
Eu555 O572 2.347 . S
Eu555 O575 2.366 . S
Eu555 C585 2.825 . S
C556 O572 1.259 . S
C556 O573 1.265 . S
C557 O574 1.255 . S
C557 O575 1.265 . S
C558 C560 1.380 . S
C558 C561 1.374 . S
C558 C564 1.507 . S
C559 C560 1.384 . S
C559 C563 1.387 . S
C559 H586 0.930 . S
C560 C558 1.380 . S
C560 C559 1.384 . S
C560 H587 0.931 . S
C561 C558 1.374 . S
C561 C562 1.390 . S
C561 H588 0.930 . S
C562 C561 1.390 . S
C562 C563 1.391 . S
C562 H589 0.930 . S
C563 C559 1.387 . S
C563 C562 1.391 . S
C564 Tb554 2.825 . S
C564 C558 1.507 . S
C564 O577 1.238 . S
C564 O578 1.247 . S
O565 Tb554 2.347 . S
O565 C569 1.259 . S
O566 Eu555 2.418 . S
O566 C569 1.265 . S
O567 Eu555 2.384 . S
O567 C576 1.255 . S
O568 Tb554 2.366 . S
O568 C576 1.265 . S
C569 O565 1.259 . S
C569 O566 1.265 . S
O570 Eu555 2.479 . S
O570 C585 1.238 . S
O571 Eu555 2.471 . S
O571 C585 1.247 . S
O572 Eu555 2.347 . S
O572 C556 1.259 . S
O573 Tb554 2.418 . S
O573 C556 1.265 . S
O574 Tb554 2.384 . S
O574 C557 1.255 . S
O575 Eu555 2.366 . S
O575 C557 1.265 . S
C576 O567 1.255 . S
C576 O568 1.265 . S
O577 Tb554 2.479 . S
O577 C564 1.238 . S
O578 Tb554 2.471 . S
O578 C564 1.247 . S
C579 C582 1.380 . S
C579 C583 1.374 . S
C579 C585 1.507 . S
C580 C581 1.387 . S
C580 C584 1.391 . S
C581 C580 1.387 . S
C581 C582 1.384 . S
C581 H590 0.930 . S
C582 C579 1.380 . S
C582 C581 1.384 . S
C582 H591 0.931 . S
C583 C579 1.374 . S
C583 C584 1.390 . S
C583 H592 0.930 . S
C584 C580 1.391 . S
C584 C583 1.390 . S
C584 H593 0.930 . S
C585 Eu555 2.825 . S
C585 O570 1.238 . S
C585 O571 1.247 . S
C585 C579 1.507 . S
H586 C559 0.930 . S
H587 C560 0.931 . S
H588 C561 0.930 . S
H589 C562 0.930 . S
H590 C581 0.930 . S
H591 C582 0.931 . S
H592 C583 0.930 . S
H593 C584 0.930 . S
C594 C595 1.369 . S
C594 C596 1.419 . S
C594 H598 0.930 . S
C595 C594 1.369 . S
C595 C604 1.429 . S
C596 C594 1.419 . S
C596 C597 1.363 . S
C596 H599 0.929 . S
C597 C596 1.363 . S
C597 C603 1.428 . S
H598 C594 0.930 . S
H599 C596 0.929 . S
S600 N601 1.613 . S
S600 N602 1.610 . S
N601 S600 1.613 . S
N601 C604 1.350 . S
N602 S600 1.610 . S
N602 C603 1.351 . S
C603 C597 1.428 . S
C603 N602 1.351 . S
C603 C604 1.434 . S
C604 C595 1.429 . S
C604 N601 1.350 . S
C604 C603 1.434 . S
C605 C606 1.369 . S
C605 C607 1.419 . S
C605 H609 0.930 . S
C606 C605 1.369 . S
C606 C615 1.429 . S
C607 C605 1.419 . S
C607 C608 1.363 . S
C607 H610 0.929 . S
C608 C607 1.363 . S
C608 C614 1.428 . S
H609 C605 0.930 . S
H610 C607 0.929 . S
S611 N612 1.613 . S
S611 N613 1.610 . S
N612 S611 1.613 . S
N612 C615 1.350 . S
N613 S611 1.610 . S
N613 C614 1.351 . S
C614 C608 1.428 . S
C614 N613 1.351 . S
C614 C615 1.434 . S
C615 C606 1.429 . S
C615 N612 1.350 . S
C615 C614 1.434 . S
C616 C617 1.369 . S
C616 C618 1.419 . S
C616 H620 0.930 1_554 S
C617 C616 1.369 . S
C617 C626 1.429 . S
C618 C616 1.419 . S
C618 C619 1.363 . S
C618 H621 0.929 1_554 S
C619 C618 1.363 . S
C619 C625 1.428 . S
H620 C616 0.930 1_556 S
H621 C618 0.929 1_556 S
S622 N623 1.613 . S
S622 N624 1.610 . S
N623 S622 1.613 . S
N623 C626 1.350 . S
N624 S622 1.610 . S
N624 C625 1.351 . S
C625 C619 1.428 . S
C625 N624 1.351 . S
C625 C626 1.434 . S
C626 C617 1.429 . S
C626 N623 1.350 . S
C626 C625 1.434 . S
C627 C628 1.369 . S
C627 C629 1.419 . S
C627 H631 0.930 . S
C628 C627 1.369 . S
C628 C637 1.429 . S
C629 C627 1.419 . S
C629 C630 1.363 . S
C629 H632 0.929 . S
C630 C629 1.363 . S
C630 C636 1.428 . S
H631 C627 0.930 . S
H632 C629 0.929 . S
S633 N634 1.613 . S
S633 N635 1.610 . S
N634 S633 1.613 . S
N634 C637 1.350 . S
N635 S633 1.610 . S
N635 C636 1.351 . S
C636 C630 1.428 . S
C636 N635 1.351 . S
C636 C637 1.434 . S
C637 C628 1.429 . S
C637 N634 1.350 . S
C637 C636 1.434 . S
C638 C639 1.369 . S
C638 C640 1.419 . S
C638 H642 0.930 . S
C639 C638 1.369 . S
C639 C648 1.429 . S
C640 C638 1.419 . S
C640 C641 1.363 . S
C640 H643 0.929 1_556 S
C641 C640 1.363 . S
C641 C647 1.428 . S
H642 C638 0.930 . S
H643 C640 0.929 1_554 S
S644 N645 1.613 . S
S644 N646 1.610 . S
N645 S644 1.613 . S
N645 C648 1.350 . S
N646 S644 1.610 . S
N646 C647 1.351 . S
C647 C641 1.428 . S
C647 N646 1.351 . S
C647 C648 1.434 . S
C648 C639 1.429 . S
C648 N645 1.350 . S
C648 C647 1.434 . S
C649 C650 1.369 . S
C649 C651 1.419 . S
C649 H653 0.930 . S
C650 C649 1.369 . S
C650 C659 1.429 . S
C651 C649 1.419 . S
C651 C652 1.363 . S
C651 H654 0.929 . S
C652 C651 1.363 . S
C652 C658 1.428 1_556 S
H653 C649 0.930 . S
H654 C651 0.929 . S
S655 N656 1.613 . S
S655 N657 1.610 . S
N656 S655 1.613 . S
N656 C659 1.350 1_554 S
N657 S655 1.610 . S
N657 C658 1.351 . S
C658 C652 1.428 1_554 S
C658 N657 1.351 . S
C658 C659 1.434 1_554 S
C659 C650 1.429 . S
C659 N656 1.350 1_556 S
C659 C658 1.434 1_556 S
C660 C661 1.369 . S
C660 C662 1.419 . S
C660 H664 0.930 . S
C661 C660 1.369 . S
C661 C670 1.429 . S
C662 C660 1.419 . S
C662 C663 1.363 . S
C662 H665 0.929 . S
C663 C662 1.363 . S
C663 C669 1.428 . S
H664 C660 0.930 . S
H665 C662 0.929 . S
S666 N667 1.613 . S
S666 N668 1.610 . S
N667 S666 1.613 . S
N667 C670 1.350 . S
N668 S666 1.610 . S
N668 C669 1.351 . S
C669 C663 1.428 . S
C669 N668 1.351 . S
C669 C670 1.434 . S
C670 C661 1.429 . S
C670 N667 1.350 . S
C670 C669 1.434 . S
C671 C672 1.369 . S
C671 C673 1.419 . S
C671 H675 0.930 . S
C672 C671 1.369 . S
C672 C681 1.429 . S
C673 C671 1.419 . S
C673 C674 1.363 . S
C673 H676 0.929 . S
C674 C673 1.363 . S
C674 C680 1.428 . S
H675 C671 0.930 . S
H676 C673 0.929 . S
S677 N678 1.613 1_554 S
S677 N679 1.610 . S
N678 S677 1.613 1_556 S
N678 C681 1.350 . S
N679 S677 1.610 . S
N679 C680 1.351 1_554 S
C680 C674 1.428 . S
C680 N679 1.351 1_556 S
C680 C681 1.434 . S
C681 C672 1.429 . S
C681 N678 1.350 . S
C681 C680 1.434 . S
C682 C683 1.369 1_554 S
C682 C684 1.419 . S
C682 H686 0.930 . S
C683 C682 1.369 1_556 S
C683 C692 1.429 . S
C684 C682 1.419 . S
C684 C685 1.363 . S
C684 H687 0.929 . S
C685 C684 1.363 . S
C685 C691 1.428 1_554 S
H686 C682 0.930 . S
H687 C684 0.929 . S
S688 N689 1.613 . S
S688 N690 1.610 . S
N689 S688 1.613 . S
N689 C692 1.350 . S
N690 S688 1.610 . S
N690 C691 1.351 . S
C691 C685 1.428 1_556 S
C691 N690 1.351 . S
C691 C692 1.434 . S
C692 C683 1.429 . S
C692 N689 1.350 . S
C692 C691 1.434 . S
C693 C694 1.369 . S
C693 C695 1.419 . S
C693 H697 0.930 . S
C694 C693 1.369 . S
C694 C703 1.429 . S
C695 C693 1.419 . S
C695 C696 1.363 . S
C695 H698 0.929 . S
C696 C695 1.363 . S
C696 C702 1.428 1_554 S
H697 C693 0.930 . S
H698 C695 0.929 . S
S699 N700 1.613 . S
S699 N701 1.610 . S
N700 S699 1.613 . S
N700 C703 1.350 1_556 S
N701 S699 1.610 . S
N701 C702 1.351 . S
C702 C696 1.428 1_556 S
C702 N701 1.351 . S
C702 C703 1.434 1_556 S
C703 C694 1.429 . S
C703 N700 1.350 1_554 S
C703 C702 1.434 1_554 S
C704 C705 1.369 . S
C704 C706 1.419 . S
C704 H708 0.930 . S
C705 C704 1.369 . S
C705 C714 1.429 . S
C706 C704 1.419 . S
C706 C707 1.363 . S
C706 H709 0.929 . S
C707 C706 1.363 . S
C707 C713 1.428 . S
H708 C704 0.930 . S
H709 C706 0.929 . S
S710 N711 1.613 1_556 S
S710 N712 1.610 1_556 S
N711 S710 1.613 1_554 S
N711 C714 1.350 . S
N712 S710 1.610 1_554 S
N712 C713 1.351 . S
C713 C707 1.428 . S
C713 N712 1.351 . S
C713 C714 1.434 . S
C714 C705 1.429 . S
C714 N711 1.350 . S
C714 C713 1.434 . S
C715 C716 1.369 . S
C715 C717 1.419 . S
C715 H719 0.930 . S
C716 C715 1.369 . S
C716 C725 1.429 . S
C717 C715 1.419 . S
C717 C718 1.363 . S
C717 H720 0.929 . S
C718 C717 1.363 . S
C718 C724 1.428 . S
H719 C715 0.930 . S
H720 C717 0.929 . S
S721 N722 1.613 . S
S721 N723 1.610 . S
N722 S721 1.613 . S
N722 C725 1.350 1_556 S
N723 S721 1.610 . S
N723 C724 1.351 1_556 S
C724 C718 1.428 . S
C724 N723 1.351 1_554 S
C724 C725 1.434 . S
C725 C716 1.429 . S
C725 N722 1.350 1_554 S
C725 C724 1.434 . S
C726 C727 1.369 . S
C726 C728 1.419 1_655 S
C726 H730 0.930 . S
C727 C726 1.369 . S
C727 C736 1.429 . S
C728 C726 1.419 1_455 S
C728 C729 1.363 . S
C728 H731 0.929 . S
C729 C728 1.363 . S
C729 C735 1.428 . S
H730 C726 0.930 . S
H731 C728 0.929 . S
S732 N733 1.613 . S
S732 N734 1.610 1_655 S
N733 S732 1.613 . S
N733 C736 1.350 . S
N734 S732 1.610 1_455 S
N734 C735 1.351 . S
C735 C729 1.428 . S
C735 N734 1.351 . S
C735 C736 1.434 1_455 S
C736 C727 1.429 . S
C736 N733 1.350 . S
C736 C735 1.434 1_655 S
C737 C738 1.369 . S
C737 C739 1.419 . S
C737 H741 0.930 . S
C738 C737 1.369 . S
C738 C747 1.429 . S
C739 C737 1.419 . S
C739 C740 1.363 . S
C739 H742 0.929 . S
C740 C739 1.363 . S
C740 C746 1.428 . S
H741 C737 0.930 . S
H742 C739 0.929 . S
S743 N744 1.613 . S
S743 N745 1.610 . S
N744 S743 1.613 . S
N744 C747 1.350 . S
N745 S743 1.610 . S
N745 C746 1.351 . S
C746 C740 1.428 . S
C746 N745 1.351 . S
C746 C747 1.434 . S
C747 C738 1.429 . S
C747 N744 1.350 . S
C747 C746 1.434 . S
C748 C749 1.369 . S
C748 C750 1.419 1_545 S
C748 H752 0.930 . S
C749 C748 1.369 . S
C749 C758 1.429 . S
C750 C748 1.419 1_565 S
C750 C751 1.363 . S
C750 H753 0.929 . S
C751 C750 1.363 . S
C751 C757 1.428 . S
H752 C748 0.930 . S
H753 C750 0.929 . S
S754 N755 1.613 . S
S754 N756 1.610 1_545 S
N755 S754 1.613 . S
N755 C758 1.350 . S
N756 S754 1.610 1_565 S
N756 C757 1.351 . S
C757 C751 1.428 . S
C757 N756 1.351 . S
C757 C758 1.434 1_565 S
C758 C749 1.429 . S
C758 N755 1.350 . S
C758 C757 1.434 1_545 S
C759 C760 1.369 . S
C759 C761 1.419 . S
C759 H763 0.930 . S
C760 C759 1.369 . S
C760 C769 1.429 . S
C761 C759 1.419 . S
C761 C762 1.363 . S
C761 H764 0.929 . S
C762 C761 1.363 . S
C762 C768 1.428 . S
H763 C759 0.930 . S
H764 C761 0.929 . S
S765 N766 1.613 . S
S765 N767 1.610 . S
N766 S765 1.613 . S
N766 C769 1.350 . S
N767 S765 1.610 . S
N767 C768 1.351 . S
C768 C762 1.428 . S
C768 N767 1.351 . S
C768 C769 1.434 . S
C769 C760 1.429 . S
C769 N766 1.350 . S
C769 C768 1.434 . S
C770 C771 1.369 . S
C770 C772 1.419 . S
C770 H774 0.930 . S
C771 C770 1.369 . S
C771 C780 1.429 . S
C772 C770 1.419 . S
C772 C773 1.363 . S
C772 H775 0.929 . S
C773 C772 1.363 . S
C773 C779 1.428 . S
H774 C770 0.930 . S
H775 C772 0.929 . S
S776 N777 1.613 . S
S776 N778 1.610 . S
N777 S776 1.613 . S
N777 C780 1.350 . S
N778 S776 1.610 . S
N778 C779 1.351 . S
C779 C773 1.428 . S
C779 N778 1.351 . S
C779 C780 1.434 . S
C780 C771 1.429 . S
C780 N777 1.350 . S
C780 C779 1.434 . S
C781 C782 1.369 . S
C781 C783 1.419 . S
C781 H785 0.930 . S
C782 C781 1.369 . S
C782 C791 1.429 . S
C783 C781 1.419 . S
C783 C784 1.363 . S
C783 H786 0.929 . S
C784 C783 1.363 . S
C784 C790 1.428 . S
H785 C781 0.930 . S
H786 C783 0.929 . S
S787 N788 1.613 . S
S787 N789 1.610 . S
N788 S787 1.613 . S
N788 C791 1.350 . S
N789 S787 1.610 . S
N789 C790 1.351 . S
C790 C784 1.428 . S
C790 N789 1.351 . S
C790 C791 1.434 . S
C791 C782 1.429 . S
C791 N788 1.350 . S
C791 C790 1.434 . S
C792 C793 1.369 . S
C792 C794 1.419 . S
C792 H796 0.930 . S
C793 C792 1.369 . S
C793 C802 1.429 . S
C794 C792 1.419 . S
C794 C795 1.363 . S
C794 H797 0.929 . S
C795 C794 1.363 . S
C795 C801 1.428 . S
H796 C792 0.930 . S
H797 C794 0.929 . S
S798 N799 1.613 . S
S798 N800 1.610 . S
N799 S798 1.613 . S
N799 C802 1.350 . S
N800 S798 1.610 . S
N800 C801 1.351 . S
C801 C795 1.428 . S
C801 N800 1.351 . S
C801 C802 1.434 . S
C802 C793 1.429 . S
C802 N799 1.350 . S
C802 C801 1.434 . S
C803 C804 1.369 . S
C803 C805 1.419 . S
C803 H807 0.930 . S
C804 C803 1.369 . S
C804 C813 1.429 . S
C805 C803 1.419 . S
C805 C806 1.363 . S
C805 H808 0.929 . S
C806 C805 1.363 . S
C806 C812 1.428 . S
H807 C803 0.930 . S
H808 C805 0.929 . S
S809 N810 1.613 . S
S809 N811 1.610 . S
N810 S809 1.613 . S
N810 C813 1.350 . S
N811 S809 1.610 . S
N811 C812 1.351 . S
C812 C806 1.428 . S
C812 N811 1.351 . S
C812 C813 1.434 . S
C813 C804 1.429 . S
C813 N810 1.350 . S
C813 C812 1.434 . S
C814 C815 1.369 . S
C814 C816 1.419 . S
C814 H818 0.930 . S
C815 C814 1.369 . S
C815 C824 1.429 . S
C816 C814 1.419 . S
C816 C817 1.363 . S
C816 H819 0.929 . S
C817 C816 1.363 . S
C817 C823 1.428 . S
H818 C814 0.930 . S
H819 C816 0.929 . S
S820 N821 1.613 . S
S820 N822 1.610 . S
N821 S820 1.613 . S
N821 C824 1.350 . S
N822 S820 1.610 . S
N822 C823 1.351 . S
C823 C817 1.428 . S
C823 N822 1.351 . S
C823 C824 1.434 . S
C824 C815 1.429 . S
C824 N821 1.350 . S
C824 C823 1.434 . S
C825 C826 1.369 . S
C825 C827 1.419 . S
C825 H829 0.930 . S
C826 C825 1.369 . S
C826 C835 1.429 . S
C827 C825 1.419 . S
C827 C828 1.363 1_545 S
C827 H830 0.933 1_545 S
C828 C827 1.363 1_565 S
C828 C834 1.428 . S
H829 C825 0.930 . S
H830 C827 0.933 1_565 S
S831 N832 1.613 1_565 S
S831 N833 1.610 . S
N832 S831 1.613 1_545 S
N832 C835 1.350 . S
N833 S831 1.610 . S
N833 C834 1.351 . S
C834 C828 1.428 . S
C834 N833 1.351 . S
C834 C835 1.434 1_565 S
C835 C826 1.429 . S
C835 N832 1.350 . S
C835 C834 1.434 1_545 S
C836 C837 1.369 1_455 S
C836 C838 1.419 . S
C836 H840 0.930 . S
C837 C836 1.369 1_655 S
C837 C846 1.429 . S
C838 C836 1.419 . S
C838 C839 1.363 . S
C838 H841 0.929 . S
C839 C838 1.363 . S
C839 C845 1.428 . S
H840 C836 0.930 . S
H841 C838 0.929 . S
S842 N843 1.613 . S
S842 N844 1.610 1_655 S
N843 S842 1.613 . S
N843 C846 1.350 . S
N844 S842 1.610 1_455 S
N844 C845 1.351 . S
C845 C839 1.428 . S
C845 N844 1.351 . S
C845 C846 1.434 1_455 S
C846 C837 1.429 . S
C846 N843 1.350 . S
C846 C845 1.434 1_655 S
C847 C848 1.369 . S
C847 C849 1.419 . S
C847 H851 0.930 . S
C848 C847 1.369 . S
C848 C857 1.429 . S
C849 C847 1.419 . S
C849 C850 1.363 . S
C849 H852 0.929 . S
C850 C849 1.363 . S
C850 C856 1.428 . S
H851 C847 0.930 . S
H852 C849 0.929 . S
S853 N854 1.613 . S
S853 N855 1.610 . S
N854 S853 1.613 . S
N854 C857 1.350 . S
N855 S853 1.610 . S
N855 C856 1.351 . S
C856 C850 1.428 . S
C856 N855 1.351 . S
C856 C857 1.434 . S
C857 C848 1.429 . S
C857 N854 1.350 . S
C857 C856 1.434 . S
C858 C859 1.369 . S
C858 C860 1.419 . S
C858 H862 0.930 . S
C859 C858 1.369 . S
C859 C868 1.429 . S
C860 C858 1.419 . S
C860 C861 1.363 . S
C860 H863 0.929 . S
C861 C860 1.363 . S
C861 C867 1.428 . S
H862 C858 0.930 . S
H863 C860 0.929 . S
S864 N865 1.613 . S
S864 N866 1.610 . S
N865 S864 1.613 . S
N865 C868 1.350 . S
N866 S864 1.610 . S
N866 C867 1.351 . S
C867 C861 1.428 . S
C867 N866 1.351 . S
C867 C868 1.434 . S
C868 C859 1.429 . S
C868 N865 1.350 . S
C868 C867 1.434 . S
C869 C870 1.369 . S
C869 C871 1.419 . S
C869 H873 0.930 . S
C870 C869 1.369 . S
C870 C879 1.429 . S
C871 C869 1.419 . S
C871 C872 1.363 . S
C871 H874 0.929 . S
C872 C871 1.363 . S
C872 C878 1.428 . S
H873 C869 0.930 . S
H874 C871 0.929 . S
S875 N876 1.613 . S
S875 N877 1.610 . S
N876 S875 1.613 . S
N876 C879 1.350 . S
N877 S875 1.610 . S
N877 C878 1.351 . S
C878 C872 1.428 . S
C878 N877 1.351 . S
C878 C879 1.434 . S
C879 C870 1.429 . S
C879 N876 1.350 . S
C879 C878 1.434 . S
C880 C881 1.369 . S
C880 C882 1.419 . S
C880 H884 0.930 . S
C881 C880 1.369 . S
C881 C890 1.429 . S
C882 C880 1.419 . S
C882 C883 1.363 . S
C882 H885 0.929 . S
C883 C882 1.363 . S
C883 C889 1.428 . S
H884 C880 0.930 . S
H885 C882 0.929 . S
S886 N887 1.613 . S
S886 N888 1.610 . S
N887 S886 1.613 . S
N887 C890 1.350 . S
N888 S886 1.610 . S
N888 C889 1.351 . S
C889 C883 1.428 . S
C889 N888 1.351 . S
C889 C890 1.434 . S
C890 C881 1.429 . S
C890 N887 1.350 . S
C890 C889 1.434 . S
C891 C892 1.369 . S
C891 C893 1.419 1_565 S
C891 H895 0.930 . S
C892 C891 1.369 . S
C892 C901 1.429 . S
C893 C891 1.419 1_545 S
C893 C894 1.363 . S
C893 H896 0.929 . S
C894 C893 1.363 . S
C894 C900 1.428 . S
H895 C891 0.930 . S
H896 C893 0.929 . S
S897 N898 1.613 1_545 S
S897 N899 1.610 . S
N898 S897 1.613 1_565 S
N898 C901 1.350 . S
N899 S897 1.610 . S
N899 C900 1.351 . S
C900 C894 1.428 . S
C900 N899 1.351 . S
C900 C901 1.434 1_545 S
C901 C892 1.429 . S
C901 N898 1.350 . S
C901 C900 1.434 1_565 S
C902 C903 1.369 1_655 S
C902 C904 1.419 . S
C902 H906 0.930 . S
C903 C902 1.369 1_455 S
C903 C912 1.429 . S
C904 C902 1.419 . S
C904 C905 1.363 . S
C904 H907 0.929 . S
C905 C904 1.363 . S
C905 C911 1.428 . S
H906 C902 0.930 . S
H907 C904 0.929 . S
S908 N909 1.613 . S
S908 N910 1.610 1_455 S
N909 S908 1.613 . S
N909 C912 1.350 . S
N910 S908 1.610 1_655 S
N910 C911 1.351 . S
C911 C905 1.428 . S
C911 N910 1.351 . S
C911 C912 1.434 1_655 S
C912 C903 1.429 . S
C912 N909 1.350 . S
C912 C911 1.434 1_455 S
C913 C914 1.369 . S
C913 C915 1.419 . S
C913 H917 0.930 . S
C914 C913 1.369 . S
C914 C923 1.429 . S
C915 C913 1.419 . S
C915 C916 1.363 . S
C915 H918 0.929 . S
C916 C915 1.363 . S
C916 C922 1.428 . S
H917 C913 0.930 . S
H918 C915 0.929 . S
S919 N920 1.613 . S
S919 N921 1.610 . S
N920 S919 1.613 . S
N920 C923 1.350 . S
N921 S919 1.610 . S
N921 C922 1.351 . S
C922 C916 1.428 . S
C922 N921 1.351 . S
C922 C923 1.434 . S
C923 C914 1.429 . S
C923 N920 1.350 . S
C923 C922 1.434 . S
C924 C925 1.369 . S
C924 C926 1.419 . S
C924 H928 0.930 . S
C925 C924 1.369 . S
C925 C934 1.429 . S
C926 C924 1.419 . S
C926 C927 1.363 1_455 S
C926 H929 0.929 1_455 S
C927 C926 1.363 1_655 S
C927 C933 1.428 1_655 S
H928 C924 0.930 . S
H929 C926 0.929 1_655 S
S930 N931 1.613 . S
S930 N932 1.610 . S
N931 S930 1.613 . S
N931 C934 1.350 . S
N932 S930 1.610 . S
N932 C933 1.351 . S
C933 C927 1.428 1_455 S
C933 N932 1.351 . S
C933 C934 1.434 . S
C934 C925 1.429 . S
C934 N931 1.350 . S
C934 C933 1.434 . S
C935 C936 1.369 . S
C935 C937 1.419 . S
C935 H939 0.930 . S
C936 C935 1.369 . S
C936 C945 1.429 . S
C937 C935 1.419 . S
C937 C938 1.363 . S
C937 H940 0.929 . S
C938 C937 1.363 . S
C938 C944 1.428 . S
H939 C935 0.930 . S
H940 C937 0.929 . S
S941 N942 1.613 . S
S941 N943 1.610 . S
N942 S941 1.613 . S
N942 C945 1.350 . S
N943 S941 1.610 . S
N943 C944 1.351 . S
C944 C938 1.428 . S
C944 N943 1.351 . S
C944 C945 1.434 . S
C945 C936 1.429 . S
C945 N942 1.350 . S
C945 C944 1.434 . S
C946 C947 1.369 . S
C946 C948 1.419 1_565 S
C946 H950 0.930 . S
C947 C946 1.369 . S
C947 C956 1.429 . S
C948 C946 1.419 1_545 S
C948 C949 1.363 . S
C948 H951 0.929 . S
C949 C948 1.363 . S
C949 C955 1.428 . S
H950 C946 0.930 . S
H951 C948 0.929 . S
S952 N953 1.613 . S
S952 N954 1.610 1_565 S
N953 S952 1.613 . S
N953 C956 1.350 . S
N954 S952 1.610 1_545 S
N954 C955 1.351 . S
C955 C949 1.428 . S
C955 N954 1.351 . S
C955 C956 1.434 1_545 S
C956 C947 1.429 . S
C956 N953 1.350 . S
C956 C955 1.434 1_565 S
C957 C958 1.369 . S
C957 C959 1.419 . S
C957 H961 0.930 . S
C958 C957 1.369 . S
C958 C967 1.429 . S
C959 C957 1.419 . S
C959 C960 1.363 . S
C959 H962 0.929 . S
C960 C959 1.363 . S
C960 C966 1.428 . S
H961 C957 0.930 . S
H962 C959 0.929 . S
S963 N964 1.613 . S
S963 N965 1.610 . S
N964 S963 1.613 . S
N964 C967 1.350 . S
N965 S963 1.610 . S
N965 C966 1.351 . S
C966 C960 1.428 . S
C966 N965 1.351 . S
C966 C967 1.434 . S
C967 C958 1.429 . S
C967 N964 1.350 . S
C967 C966 1.434 . S
C968 C969 1.369 . S
C968 C970 1.419 . S
C968 H972 0.930 . S
C969 C968 1.369 . S
C969 C978 1.429 . S
C970 C968 1.419 . S
C970 C971 1.363 . S
C970 H973 0.929 . S
C971 C970 1.363 . S
C971 C977 1.428 . S
H972 C968 0.930 . S
H973 C970 0.929 . S
S974 N975 1.613 . S
S974 N976 1.610 . S
N975 S974 1.613 . S
N975 C978 1.350 . S
N976 S974 1.610 . S
N976 C977 1.351 . S
C977 C971 1.428 . S
C977 N976 1.351 . S
C977 C978 1.434 . S
C978 C969 1.429 . S
C978 N975 1.350 . S
C978 C977 1.434 . S
C979 C980 1.369 . S
C979 C981 1.419 . S
C979 H983 0.930 . S
C980 C979 1.369 . S
C980 C989 1.429 . S
C981 C979 1.419 . S
C981 C982 1.363 . S
C981 H984 0.929 . S
C982 C981 1.363 . S
C982 C988 1.428 . S
H983 C979 0.930 . S
H984 C981 0.929 . S
S985 N986 1.613 1_455 S
S985 N987 1.610 1_455 S
N986 S985 1.613 1_655 S
N986 C989 1.350 . S
N987 S985 1.610 1_655 S
N987 C988 1.351 . S
C988 C982 1.428 . S
C988 N987 1.351 . S
C988 C989 1.434 . S
C989 C980 1.429 . S
C989 N986 1.350 . S
C989 C988 1.434 . S
C990 C991 1.369 . S
C990 C992 1.419 . S
C990 H994 0.930 . S
C991 C990 1.369 . S
C991 C1000 1.429 . S
C992 C990 1.419 . S
C992 C993 1.363 . S
C992 H995 0.929 . S
C993 C992 1.363 . S
C993 C999 1.428 . S
H994 C990 0.930 . S
H995 C992 0.929 . S
S996 N997 1.613 . S
S996 N998 1.610 . S
N997 S996 1.613 . S
N997 C1000 1.350 . S
N998 S996 1.610 . S
N998 C999 1.351 . S
C999 C993 1.428 . S
C999 N998 1.351 . S
C999 C1000 1.434 . S
C1000 C991 1.429 . S
C1000 N997 1.350 . S
C1000 C999 1.434 . S
C1001 C1002 1.369 . S
C1001 C1003 1.419 . S
C1001 H1005 0.930 . S
C1002 C1001 1.369 . S
C1002 C1011 1.429 . S
C1003 C1001 1.419 . S
C1003 C1004 1.363 . S
C1003 H1006 0.929 . S
C1004 C1003 1.363 . S
C1004 C1010 1.428 . S
H1005 C1001 0.930 . S
H1006 C1003 0.929 . S
S1007 N1008 1.613 . S
S1007 N1009 1.610 . S
N1008 S1007 1.613 . S
N1008 C1011 1.350 . S
N1009 S1007 1.610 . S
N1009 C1010 1.351 . S
C1010 C1004 1.428 . S
C1010 N1009 1.351 . S
C1010 C1011 1.434 . S
C1011 C1002 1.429 . S
C1011 N1008 1.350 . S
C1011 C1010 1.434 . S
C1012 C1013 1.369 . S
C1012 C1014 1.419 . S
C1012 H1016 0.930 . S
C1013 C1012 1.369 . S
C1013 C1022 1.429 . S
C1014 C1012 1.419 . S
C1014 C1015 1.363 . S
C1014 H1017 0.929 . S
C1015 C1014 1.363 . S
C1015 C1021 1.428 . S
H1016 C1012 0.930 . S
H1017 C1014 0.929 . S
S1018 N1019 1.613 . S
S1018 N1020 1.610 . S
N1019 S1018 1.613 . S
N1019 C1022 1.350 . S
N1020 S1018 1.610 . S
N1020 C1021 1.351 . S
C1021 C1015 1.428 . S
C1021 N1020 1.351 . S
C1021 C1022 1.434 . S
C1022 C1013 1.429 . S
C1022 N1019 1.350 . S
C1022 C1021 1.434 . S
C1023 C1024 1.369 . S
C1023 C1025 1.419 . S
C1023 H1027 0.930 . S
C1024 C1023 1.369 . S
C1024 C1033 1.429 . S
C1025 C1023 1.419 . S
C1025 C1026 1.363 . S
C1025 H1028 0.929 . S
C1026 C1025 1.363 . S
C1026 C1032 1.428 . S
H1027 C1023 0.930 . S
H1028 C1025 0.929 . S
S1029 N1030 1.613 . S
S1029 N1031 1.610 . S
N1030 S1029 1.613 . S
N1030 C1033 1.350 1_455 S
N1031 S1029 1.610 . S
N1031 C1032 1.351 1_455 S
C1032 C1026 1.428 . S
C1032 N1031 1.351 1_655 S
C1032 C1033 1.434 . S
C1033 C1024 1.429 . S
C1033 N1030 1.350 1_655 S
C1033 C1032 1.434 . S
C1034 C1035 1.369 . S
C1034 C1036 1.419 . S
C1034 H1038 0.930 . S
C1035 C1034 1.369 . S
C1035 C1044 1.429 . S
C1036 C1034 1.419 . S
C1036 C1037 1.363 . S
C1036 H1039 0.929 . S
C1037 C1036 1.363 . S
C1037 C1043 1.428 . S
H1038 C1034 0.930 . S
H1039 C1036 0.929 . S
S1040 N1041 1.613 . S
S1040 N1042 1.610 . S
N1041 S1040 1.613 . S
N1041 C1044 1.350 . S
N1042 S1040 1.610 . S
N1042 C1043 1.351 . S
C1043 C1037 1.428 . S
C1043 N1042 1.351 . S
C1043 C1044 1.434 . S
C1044 C1035 1.429 . S
C1044 N1041 1.350 . S
C1044 C1043 1.434 . S
C1045 C1046 1.369 . S
C1045 C1047 1.419 . S
C1045 H1049 0.930 . S
C1046 C1045 1.369 . S
C1046 C1055 1.429 . S
C1047 C1045 1.419 . S
C1047 C1048 1.363 . S
C1047 H1050 0.929 . S
C1048 C1047 1.363 . S
C1048 C1054 1.428 . S
H1049 C1045 0.930 . S
H1050 C1047 0.929 . S
S1051 N1052 1.613 . S
S1051 N1053 1.610 . S
N1052 S1051 1.613 . S
N1052 C1055 1.350 . S
N1053 S1051 1.610 . S
N1053 C1054 1.351 . S
C1054 C1048 1.428 . S
C1054 N1053 1.351 . S
C1054 C1055 1.434 . S
C1055 C1046 1.429 . S
C1055 N1052 1.350 . S
C1055 C1054 1.434 . S
C1056 C1057 1.369 . S
C1056 C1058 1.419 . S
C1056 H1060 0.930 . S
C1057 C1056 1.369 . S
C1057 C1066 1.429 . S
C1058 C1056 1.419 . S
C1058 C1059 1.363 . S
C1058 H1061 0.929 . S
C1059 C1058 1.363 . S
C1059 C1065 1.428 . S
H1060 C1056 0.930 . S
H1061 C1058 0.929 . S
S1062 N1063 1.613 . S
S1062 N1064 1.610 . S
N1063 S1062 1.613 . S
N1063 C1066 1.350 . S
N1064 S1062 1.610 . S
N1064 C1065 1.351 . S
C1065 C1059 1.428 . S
C1065 N1064 1.351 . S
C1065 C1066 1.434 . S
C1066 C1057 1.429 . S
C1066 N1063 1.350 . S
C1066 C1065 1.434 . S
C1067 C1068 1.369 . S
C1067 C1069 1.419 . S
C1067 H1071 0.930 . S
C1068 C1067 1.369 . S
C1068 C1077 1.429 . S
C1069 C1067 1.419 . S
C1069 C1070 1.363 . S
C1069 H1072 0.929 . S
C1070 C1069 1.363 . S
C1070 C1076 1.428 . S
H1071 C1067 0.930 . S
H1072 C1069 0.929 . S
S1073 N1074 1.613 . S
S1073 N1075 1.610 . S
N1074 S1073 1.613 . S
N1074 C1077 1.350 . S
N1075 S1073 1.610 . S
N1075 C1076 1.351 . S
C1076 C1070 1.428 . S
C1076 N1075 1.351 . S
C1076 C1077 1.434 . S
C1077 C1068 1.429 . S
C1077 N1074 1.350 . S
C1077 C1076 1.434 . S
C1078 C1079 1.369 . S
C1078 C1080 1.419 . S
C1078 H1082 0.930 . S
C1079 C1078 1.369 . S
C1079 C1088 1.429 . S
C1080 C1078 1.419 . S
C1080 C1081 1.363 . S
C1080 H1083 0.929 . S
C1081 C1080 1.363 . S
C1081 C1087 1.428 . S
H1082 C1078 0.930 . S
H1083 C1080 0.929 . S
S1084 N1085 1.613 . S
S1084 N1086 1.610 . S
N1085 S1084 1.613 . S
N1085 C1088 1.350 . S
N1086 S1084 1.610 . S
N1086 C1087 1.351 . S
C1087 C1081 1.428 . S
C1087 N1086 1.351 . S
C1087 C1088 1.434 . S
C1088 C1079 1.429 . S
C1088 N1085 1.350 . S
C1088 C1087 1.434 . S
C1089 C1090 1.369 . S
C1089 C1091 1.419 . S
C1089 H1093 0.930 . S
C1090 C1089 1.369 . S
C1090 C1099 1.429 . S
C1091 C1089 1.419 . S
C1091 C1092 1.363 . S
C1091 H1094 0.929 . S
C1092 C1091 1.363 . S
C1092 C1098 1.428 . S
H1093 C1089 0.930 . S
H1094 C1091 0.929 . S
S1095 N1096 1.613 . S
S1095 N1097 1.610 . S
N1096 S1095 1.613 . S
N1096 C1099 1.350 . S
N1097 S1095 1.610 . S
N1097 C1098 1.351 . S
C1098 C1092 1.428 . S
C1098 N1097 1.351 . S
C1098 C1099 1.434 . S
C1099 C1090 1.429 . S
C1099 N1096 1.350 . S
C1099 C1098 1.434 . S
C1100 C1101 1.369 . S
C1100 C1102 1.419 . S
C1100 H1104 0.930 . S
C1101 C1100 1.369 . S
C1101 C1110 1.429 . S
C1102 C1100 1.419 . S
C1102 C1103 1.363 . S
C1102 H1105 0.929 . S
C1103 C1102 1.363 . S
C1103 C1109 1.428 . S
H1104 C1100 0.930 . S
H1105 C1102 0.929 . S
S1106 N1107 1.613 . S
S1106 N1108 1.610 . S
N1107 S1106 1.613 . S
N1107 C1110 1.350 . S
N1108 S1106 1.610 . S
N1108 C1109 1.351 . S
C1109 C1103 1.428 . S
C1109 N1108 1.351 . S
C1109 C1110 1.434 . S
C1110 C1101 1.429 . S
C1110 N1107 1.350 . S
C1110 C1109 1.434 . S
C1111 C1112 1.369 . S
C1111 C1113 1.419 . S
C1111 H1115 0.930 . S
C1112 C1111 1.369 . S
C1112 C1121 1.429 . S
C1113 C1111 1.419 . S
C1113 C1114 1.363 . S
C1113 H1116 0.929 . S
C1114 C1113 1.363 . S
C1114 C1120 1.428 . S
H1115 C1111 0.930 . S
H1116 C1113 0.929 . S
S1117 N1118 1.613 . S
S1117 N1119 1.610 . S
N1118 S1117 1.613 . S
N1118 C1121 1.350 . S
N1119 S1117 1.610 . S
N1119 C1120 1.351 . S
C1120 C1114 1.428 . S
C1120 N1119 1.351 . S
C1120 C1121 1.434 . S
C1121 C1112 1.429 . S
C1121 N1118 1.350 . S
C1121 C1120 1.434 . S
C1122 C1123 1.369 . S
C1122 C1124 1.419 . S
C1122 H1126 0.930 . S
C1123 C1122 1.369 . S
C1123 C1132 1.429 . S
C1124 C1122 1.419 . S
C1124 C1125 1.363 . S
C1124 H1127 0.929 . S
C1125 C1124 1.363 . S
C1125 C1131 1.428 . S
H1126 C1122 0.930 . S
H1127 C1124 0.929 . S
S1128 N1129 1.613 . S
S1128 N1130 1.610 . S
N1129 S1128 1.613 . S
N1129 C1132 1.350 . S
N1130 S1128 1.610 . S
N1130 C1131 1.351 . S
C1131 C1125 1.428 . S
C1131 N1130 1.351 . S
C1131 C1132 1.434 . S
C1132 C1123 1.429 . S
C1132 N1129 1.350 . S
C1132 C1131 1.434 . S
C1133 C1134 1.369 . S
C1133 C1135 1.419 . S
C1133 H1137 0.930 . S
C1134 C1133 1.369 . S
C1134 C1143 1.429 . S
C1135 C1133 1.419 . S
C1135 C1136 1.363 . S
C1135 H1138 0.929 . S
C1136 C1135 1.363 . S
C1136 C1142 1.428 . S
H1137 C1133 0.930 . S
H1138 C1135 0.929 . S
S1139 N1140 1.613 . S
S1139 N1141 1.610 . S
N1140 S1139 1.613 . S
N1140 C1143 1.350 . S
N1141 S1139 1.610 . S
N1141 C1142 1.351 . S
C1142 C1136 1.428 . S
C1142 N1141 1.351 . S
C1142 C1143 1.434 . S
C1143 C1134 1.429 . S
C1143 N1140 1.350 . S
C1143 C1142 1.434 . S
C1144 C1145 1.369 . S
C1144 C1146 1.419 . S
C1144 H1148 0.930 . S
C1145 C1144 1.369 . S
C1145 C1154 1.429 . S
C1146 C1144 1.419 . S
C1146 C1147 1.363 . S
C1146 H1149 0.929 . S
C1147 C1146 1.363 . S
C1147 C1153 1.428 . S
H1148 C1144 0.930 . S
H1149 C1146 0.929 . S
S1150 N1151 1.613 . S
S1150 N1152 1.610 . S
N1151 S1150 1.613 . S
N1151 C1154 1.350 . S
N1152 S1150 1.610 . S
N1152 C1153 1.351 . S
C1153 C1147 1.428 . S
C1153 N1152 1.351 . S
C1153 C1154 1.434 . S
C1154 C1145 1.429 . S
C1154 N1151 1.350 . S
C1154 C1153 1.434 . S
C1155 C1156 1.369 . S
C1155 C1157 1.419 . S
C1155 H1159 0.930 . S
C1156 C1155 1.369 . S
C1156 C1165 1.429 . S
C1157 C1155 1.419 . S
C1157 C1158 1.363 . S
C1157 H1160 0.929 . S
C1158 C1157 1.363 . S
C1158 C1164 1.428 . S
H1159 C1155 0.930 . S
H1160 C1157 0.929 . S
S1161 N1162 1.613 . S
S1161 N1163 1.610 . S
N1162 S1161 1.613 . S
N1162 C1165 1.350 . S
N1163 S1161 1.610 . S
N1163 C1164 1.351 . S
C1164 C1158 1.428 . S
C1164 N1163 1.351 . S
C1164 C1165 1.434 . S
C1165 C1156 1.429 . S
C1165 N1162 1.350 . S
C1165 C1164 1.434 . S
C1166 C1167 1.369 . S
C1166 C1168 1.419 . S
C1166 H1170 0.930 . S
C1167 C1166 1.369 . S
C1167 C1176 1.429 . S
C1168 C1166 1.419 . S
C1168 C1169 1.363 . S
C1168 H1171 0.929 . S
C1169 C1168 1.363 . S
C1169 C1175 1.428 . S
H1170 C1166 0.930 . S
H1171 C1168 0.929 . S
S1172 N1173 1.613 . S
S1172 N1174 1.610 . S
N1173 S1172 1.613 . S
N1173 C1176 1.350 . S
N1174 S1172 1.610 . S
N1174 C1175 1.351 . S
C1175 C1169 1.428 . S
C1175 N1174 1.351 . S
C1175 C1176 1.434 . S
C1176 C1167 1.429 . S
C1176 N1173 1.350 . S
C1176 C1175 1.434 . S
C1177 C1178 1.369 . S
C1177 C1179 1.419 . S
C1177 H1181 0.930 . S
C1178 C1177 1.369 . S
C1178 C1187 1.429 . S
C1179 C1177 1.419 . S
C1179 C1180 1.363 . S
C1179 H1182 0.929 . S
C1180 C1179 1.363 . S
C1180 C1186 1.428 . S
H1181 C1177 0.930 . S
H1182 C1179 0.929 . S
S1183 N1184 1.613 . S
S1183 N1185 1.610 . S
N1184 S1183 1.613 . S
N1184 C1187 1.350 . S
N1185 S1183 1.610 . S
N1185 C1186 1.351 . S
C1186 C1180 1.428 . S
C1186 N1185 1.351 . S
C1186 C1187 1.434 . S
C1187 C1178 1.429 . S
C1187 N1184 1.350 . S
C1187 C1186 1.434 . S
C595 N170 1.978 . S
C597 C237 2.040 . S
C606 N184 1.226 . S
C608 C277 1.228 . S
C617 N158 1.653 . S
C619 C329 1.651 . S
C628 N145 1.556 . S
C630 C289 1.544 1_556 S
C641 C317 0.964 . S
C639 N119 0.964 . S
C650 N131 1.779 . S
C652 C249 1.835 1_556 S
C663 C256 1.747 . S
C661 N144 1.737 . S
C674 C296 1.644 . S
C672 N118 1.658 . S
C683 N132 1.555 . S
C685 C316 1.575 . S
C694 N171 1.492 . S
C696 C276 1.493 . S
C705 N183 1.363 . S
C707 C336 1.374 . S
C718 C236 1.483 . S
C716 N157 1.493 . S
C729 C357 2.039 . S
C727 N14 1.981 . S
C738 N28 1.226 . S
C740 C397 1.227 . S
C749 N2 1.658 . S
C751 C449 1.646 . S
C760 N223 1.561 . S
C762 C409 1.543 . S
C771 N197 0.963 . S
C773 C437 0.964 . S
C782 N209 1.780 . S
C784 C369 1.836 . S
C793 N222 1.732 . S
C795 C376 1.748 . S
C804 N196 1.658 . S
C806 C416 1.645 . S
C817 C436 1.571 . S
C815 N210 1.559 . S
C826 N15 1.487 . S
C828 C396 1.493 . S
C839 C456 1.375 . S
C837 N27 1.366 . S
C848 N1 1.494 . S
C850 C356 1.484 . S
C861 C477 2.040 . S
C859 N92 1.979 . S
C870 N106 1.227 . S
C872 C517 1.226 . S
C883 C569 1.647 . S
C881 N80 1.659 . S
C894 C529 1.548 . S
C892 N67 1.556 . S
C905 C557 0.964 . S
C903 N41 0.963 . S
C914 N53 1.783 . S
C916 C489 1.834 . S
C925 N66 1.737 . S
C927 C496 1.747 . S
C936 N40 1.660 . S
C938 C536 1.646 . S
C949 C556 1.571 . S
C947 N54 1.555 . S
C958 N93 1.486 . S
C960 C516 1.494 . S
C969 N105 1.367 . S
C971 C576 1.373 . S
C980 N79 1.495 . S
C982 C476 1.484 . S
C991 N200 1.165 . S
C993 C260 1.176 . S
C1004 C300 1.887 . S
C1002 N213 1.883 . S
C1013 N226 1.600 . S
C1015 C323 1.582 . S
C1024 N83 1.813 . S
C1026 C283 1.754 . S
C1035 N96 1.730 . S
C1037 C340 1.758 . S
C1048 C243 1.321 . S
C1046 N109 1.369 . S
C1057 N44 1.160 . S
C1059 C380 1.179 . S
C1068 N57 1.888 . S
C1070 C420 1.888 . S
C1079 N70 1.603 . S
C1081 C443 1.586 . S
C1090 N161 1.813 . S
C1092 C403 1.754 . S
C1103 C460 1.758 . S
C1101 N174 1.726 . S
C1112 N187 1.368 . S
C1114 C363 1.313 . S
C1123 N122 1.167 . S
C1125 C500 1.178 . S
C1134 N135 1.883 . S
C1136 C540 1.888 . S
C1147 C563 1.583 . S
C1145 N148 1.604 . S
C1156 N5 1.816 . S
C1158 C523 1.758 . S
C1167 N18 1.727 . S
C1169 C580 1.758 . S
C1178 N31 1.368 . S
C1180 C483 1.317 . S
