# Generated by pormake.
# Topology anh, (6,3)-cn, num edge types: 1
# Building blocks:
#     Node 0, Type 0, BuildingBlock: BETDIP_clean_sbu_0, # of connection points: 6
#     Node 1, Type 0, BuildingBlock: BETDIP_clean_sbu_0, # of connection points: 6
#     Node 2, Type 0, BuildingBlock: BETDIP_clean_sbu_0, # of connection points: 6
#     Node 3, Type 1, BuildingBlock: MIDCAF_clean_linker_0, # of connection points: 3
#     Node 4, Type 1, BuildingBlock: MIDCAF_clean_linker_0, # of connection points: 3
#     Node 5, Type 1, BuildingBlock: MIDCAF_clean_linker_0, # of connection points: 3
#     Node 6, Type 1, BuildingBlock: MIDCAF_clean_linker_0, # of connection points: 3
#     Node 7, Type 1, BuildingBlock: MIDCAF_clean_linker_0, # of connection points: 3
#     Node 8, Type 1, BuildingBlock: MIDCAF_clean_linker_0, # of connection points: 3
#     Edge 9, Type (0, 1), BuildingBlock: KIFKEQ_clean_linker_1, # of connection points: 2
#     Edge 10, Type (0, 1), BuildingBlock: KIFKEQ_clean_linker_1, # of connection points: 2
#     Edge 11, Type (0, 1), BuildingBlock: KIFKEQ_clean_linker_1, # of connection points: 2
#     Edge 12, Type (0, 1), BuildingBlock: KIFKEQ_clean_linker_1, # of connection points: 2
#     Edge 13, Type (0, 1), BuildingBlock: KIFKEQ_clean_linker_1, # of connection points: 2
#     Edge 14, Type (0, 1), BuildingBlock: KIFKEQ_clean_linker_1, # of connection points: 2
#     Edge 15, Type (0, 1), BuildingBlock: KIFKEQ_clean_linker_1, # of connection points: 2
#     Edge 16, Type (0, 1), BuildingBlock: KIFKEQ_clean_linker_1, # of connection points: 2
#     Edge 17, Type (0, 1), BuildingBlock: KIFKEQ_clean_linker_1, # of connection points: 2
#     Edge 18, Type (0, 1), BuildingBlock: KIFKEQ_clean_linker_1, # of connection points: 2
#     Edge 19, Type (0, 1), BuildingBlock: KIFKEQ_clean_linker_1, # of connection points: 2
#     Edge 20, Type (0, 1), BuildingBlock: KIFKEQ_clean_linker_1, # of connection points: 2
#     Edge 21, Type (0, 1), BuildingBlock: KIFKEQ_clean_linker_1, # of connection points: 2
#     Edge 22, Type (0, 1), BuildingBlock: KIFKEQ_clean_linker_1, # of connection points: 2
#     Edge 23, Type (0, 1), BuildingBlock: KIFKEQ_clean_linker_1, # of connection points: 2
#     Edge 24, Type (0, 1), BuildingBlock: KIFKEQ_clean_linker_1, # of connection points: 2
#     Edge 25, Type (0, 1), BuildingBlock: KIFKEQ_clean_linker_1, # of connection points: 2
#     Edge 26, Type (0, 1), BuildingBlock: KIFKEQ_clean_linker_1, # of connection points: 2
# Relax obj value: 0.242
# Max RMSD: 0.183
# Mean RMSD: 0.155
data_MOF--net-anh--node1-BETDIP_clean_sbu_0--node2-MIDCAF_clean_linker_0--edge1-KIFKEQ_clean_linker_1
_symmetry_space_group_name_H-M    P1
_symmetry_Int_Tables_number       1
_symmetry_cell_setting            triclinic
loop_
_symmetry_equiv_pos_as_xyz
'x, y, z'
_cell_length_a     36.331699
_cell_length_b     36.522759
_cell_length_c     67.927105
_cell_angle_alpha  90.046795
_cell_angle_beta   89.202962
_cell_angle_gamma 119.7482
loop_
_atom_site_label
_atom_site_type_symbol
_atom_site_fract_x
_atom_site_fract_y
_atom_site_fract_z
_atom_type_partial_charge
Tb0 Tb 0.14216 0.61991 0.16564 0.0
Tb1 Tb 1.0969 0.52859 0.15642 0.0
C2 C 0.19213 0.68876 0.1813 0.0
C3 C 0.23851 0.71082 0.18261 0.0
C4 C 0.25866 0.73802 0.19829 0.0
C5 C 0.30268 0.75753 0.20001 0.0
C6 C 0.3272 0.74971 0.18616 0.0
C7 C 0.30663 0.72207 0.17055 0.0
C8 C 0.26277 0.70306 0.16872 0.0
C9 C 0.12704 0.60212 0.12825 0.0
C10 C 0.19529 0.5702 0.15691 0.0
C11 C 1.04392 0.45934 0.14212 0.0
C12 C 0.99867 0.44429 0.13879 0.0
C13 C 0.98005 0.42597 0.1208 0.0
C14 C 0.93834 0.41616 0.11691 0.0
C15 C 0.91502 0.42518 0.13087 0.0
C16 C 0.93389 0.44344 0.14884 0.0
C17 C 0.97514 0.45288 0.15275 0.0
C18 C 0.11134 0.54674 0.19418 0.0
C19 C 1.04552 0.58038 0.15946 0.0
O20 O 0.17235 0.65312 0.19112 0.0
O21 O 0.1772 0.68576 0.16358 0.0
O22 O 0.13813 0.58395 0.14055 0.0
O23 O 0.1266 0.63394 0.1365 0.0
O24 O 0.19423 0.60355 0.16437 0.0
O25 O 0.15998 0.53698 0.15084 0.0
O26 O 1.06988 0.4918 0.13133 0.0
O27 O 1.05555 0.46373 0.16054 0.0
O28 O 1.09975 0.56478 0.18189 0.0
O29 O 0.11342 0.51611 0.18556 0.0
O30 O 1.0483 0.54787 0.15246 0.0
O31 O 1.07817 0.61157 0.16848 0.0
H32 H 0.24039 0.74422 0.20917 0.0
H33 H 0.31751 0.77934 0.21199 0.0
H34 H 0.32434 0.71492 0.15976 0.0
H35 H 0.24783 0.68213 0.15647 0.0
H36 H 0.99797 0.41989 0.10967 0.0
H37 H 0.92449 0.40195 0.10297 0.0
H38 H 0.91652 0.44992 0.1601 0.0
H39 H 0.98883 0.46762 0.16663 0.0
Tb40 Tb 0.62808 1.06215 0.4987 0.0
Tb41 Tb 0.58089 0.10751 0.49143 0.0
C42 C 0.65131 1.01463 0.51388 0.0
C43 C 0.63517 0.96878 0.51479 0.0
C44 C 0.6011 0.9422 0.52734 0.0
C45 C 0.58864 0.89945 0.52907 0.0
C46 C 0.6099 0.88257 0.51824 0.0
C47 C 0.64281 0.90887 0.50516 0.0
C48 C 0.65543 0.95153 0.50354 0.0
C49 C 0.6265 0.08075 0.46175 0.0
C50 C 0.52593 1.00823 0.49113 0.0
C51 C 0.5581 0.15744 0.47844 0.0
C52 C 0.58272 0.20277 0.47331 0.0
C53 C 0.61112 0.2173 0.45712 0.0
C54 C 0.63993 0.26034 0.45472 0.0
C55 C 0.64122 0.28962 0.46857 0.0
C56 C 0.61046 0.27509 0.48384 0.0
C57 C 0.58138 0.23226 0.48606 0.0
C58 C 0.58511 0.08973 0.52876 0.0
C59 C 0.68378 0.1601 0.49376 0.0
O60 O 0.62973 1.02909 0.52353 0.0
O61 O 0.6645 1.03243 0.49655 0.0
O62 O 0.59646 0.06886 0.47408 0.0
O63 O 0.65786 0.07882 0.46955 0.0
O64 O 0.5613 1.00859 0.49657 0.0
O65 O 0.52657 1.04411 0.48706 0.0
O66 O 0.56438 0.1318 0.46729 0.0
O67 O 0.55701 0.14834 0.49714 0.0
O68 O 0.61455 0.10256 0.51603 0.0
O69 O 0.55204 0.08804 0.52084 0.0
O70 O 0.6483 0.15844 0.48766 0.0
O71 O 0.68251 0.12611 0.50147 0.0
H72 H 0.58475 0.95454 0.53619 0.0
H73 H 0.5632 0.87985 0.53927 0.0
H74 H 0.66042 0.89703 0.49693 0.0
H75 H 0.68195 0.9713 0.49386 0.0
H76 H 0.6126 0.19539 0.44682 0.0
H77 H 0.66243 0.27036 0.44254 0.0
H78 H 0.61051 0.29623 0.49502 0.0
H79 H 0.5596 0.22198 0.49855 0.0
Tb80 Tb 0.61133 0.59075 0.82897 0.0
Tb81 Tb 0.7047 0.6403 0.82296 0.0
C82 C 0.53796 0.56436 0.84252 0.0
C83 C 0.50538 0.57706 0.84147 0.0
C84 C 0.49186 0.58799 0.85882 0.0
C85 C 0.45798 0.59581 0.85852 0.0
C86 C 0.43679 0.59238 0.84088 0.0
C87 C 0.45163 0.58347 0.82335 0.0
C88 C 0.48575 0.57603 0.82361 0.0
C89 C 0.63709 0.5951 0.79236 0.0
C90 C 0.65727 0.6927 0.82155 0.0
C91 C 0.77881 0.66541 0.81049 0.0
C92 C 0.79877 0.64213 0.80206 0.0
C93 C 0.78037 0.61418 0.78629 0.0
C94 C 0.79445 0.58613 0.78107 0.0
C95 C 0.82664 0.58485 0.79181 0.0
C96 C 0.84714 0.61524 0.80656 0.0
C97 C 0.83347 0.64368 0.81153 0.0
C98 C 0.67822 0.63487 0.85983 0.0
C99 C 0.65704 0.53817 0.82533 0.0
O100 O 0.57221 0.5893 0.85233 0.0
O101 O 0.54623 0.55028 0.82628 0.0
O102 O 0.65197 0.62389 0.80494 0.0
O103 O 0.60385 0.56258 0.7997 0.0
O104 O 0.62224 0.65665 0.82638 0.0
O105 O 0.69378 0.6935 0.81838 0.0
O106 O 0.74952 0.66662 0.79997 0.0
O107 O 0.76767 0.65748 0.82908 0.0
O108 O 0.66388 0.60571 0.84729 0.0
O109 O 0.70995 0.66823 0.85205 0.0
O110 O 0.68978 0.57379 0.81847 0.0
O111 O 0.62395 0.53865 0.8335 0.0
H112 H 0.50649 0.58896 0.87275 0.0
H113 H 0.44679 0.60205 0.87229 0.0
H114 H 0.43586 0.58082 0.80957 0.0
H115 H 0.49571 0.56807 0.80994 0.0
H116 H 0.75355 0.61224 0.77869 0.0
H117 H 0.77845 0.5639 0.76937 0.0
H118 H 0.87162 0.61515 0.81542 0.0
H119 H 0.84817 0.66497 0.82372 0.0
C120 C 0.60177 0.98989 0.23063 0.0
C121 C 0.60402 0.98368 0.2103 0.0
C122 C 0.62567 1.01922 0.19794 0.0
C123 C 0.63967 1.05964 0.20531 0.0
H124 H 0.6391 0.16266 0.18514 0.0
H125 H 0.65528 0.21743 0.16137 0.0
H126 H 0.64614 0.29547 0.20696 0.0
H127 H 0.63198 0.24071 0.23124 0.0
H128 H 0.69229 0.14298 0.28379 0.0
H129 H 0.69023 0.14738 0.31966 0.0
H130 H 0.58969 0.17743 0.31582 0.0
H131 H 0.59283 0.17456 0.27966 0.0
H132 H 0.61127 1.03371 0.25353 0.0
H133 H 0.58521 0.9634 0.24064 0.0
H134 H 0.62904 1.01563 0.1823 0.0
H135 H 0.65343 0.08615 0.19516 0.0
N136 N 0.63566 0.13258 0.21898 0.0
N137 N 0.63752 0.17639 0.24468 0.0
N138 N 0.64047 0.1148 0.25151 0.0
C139 C 0.6354 0.16787 0.22509 0.0
C140 C 0.64042 0.14999 0.25789 0.0
C141 C 0.63801 0.10585 0.23205 0.0
C142 C 0.63581 0.19783 0.21027 0.0
C143 C 0.63979 0.19114 0.19017 0.0
C144 C 0.64849 0.22263 0.17634 0.0
C145 C 0.65302 0.2616 0.18219 0.0
C146 C 0.64416 0.26638 0.20199 0.0
C147 C 0.636 0.23495 0.21593 0.0
C148 C 0.64269 0.15842 0.27911 0.0
C149 C 0.67045 0.15147 0.29061 0.0
C150 C 0.66941 0.15417 0.31105 0.0
C151 C 0.63987 0.1628 0.32034 0.0
C152 C 0.61284 0.17095 0.30886 0.0
C153 C 0.61472 0.16942 0.28829 0.0
C154 C 0.6331 0.06529 0.22524 0.0
C155 C 0.61643 1.03036 0.23805 0.0
C156 C 0.85658 0.53852 0.55349 0.0
C157 C 0.85044 0.54224 0.5333 0.0
C158 C 0.8505 0.57875 0.52672 0.0
C159 C 0.8505 0.60751 0.54019 0.0
H160 H 0.77224 0.65372 0.54066 0.0
H161 H 0.72165 0.67239 0.52767 0.0
H162 H 0.70451 0.71064 0.58571 0.0
H163 H 0.75435 0.69112 0.59887 0.0
H164 H 0.83126 0.69494 0.63373 0.0
H165 H 0.81273 0.68214 0.6686 0.0
H166 H 0.78845 0.55436 0.66249 0.0
H167 H 0.80775 0.56755 0.62739 0.0
H168 H 0.8568 0.56123 0.58261 0.0
H169 H 0.85808 0.51149 0.559 0.0
H170 H 0.84603 0.58313 0.51136 0.0
H171 H 0.84709 0.63345 0.53463 0.0
N172 N 0.81416 0.64054 0.56696 0.0
N173 N 0.80008 0.65525 0.5987 0.0
N174 N 0.83869 0.61979 0.5942 0.0
C175 C 0.79594 0.65677 0.57899 0.0
C176 C 0.82154 0.63715 0.60641 0.0
C177 C 0.83593 0.62244 0.57431 0.0
C178 C 0.76757 0.67105 0.57083 0.0
C179 C 0.75787 0.66626 0.55068 0.0
C180 C 0.72877 0.67687 0.54321 0.0
C181 C 0.70882 0.69265 0.55568 0.0
C182 C 0.71868 0.69771 0.57579 0.0
C183 C 0.7477 0.68701 0.58329 0.0
C184 C 0.82082 0.6322 0.62794 0.0
C185 C 0.82333 0.66456 0.63998 0.0
C186 C 0.81284 0.65725 0.65996 0.0
C187 C 0.7989 0.61716 0.66821 0.0
C188 C 0.79896 0.58549 0.65644 0.0
C189 C 0.81031 0.59311 0.63645 0.0
C190 C 0.85006 0.60028 0.56054 0.0
C191 C 0.85612 0.56719 0.56704 0.0
C192 C 0.88714 0.36626 0.86283 0.0
C193 C 0.86396 0.3876 0.86343 0.0
C194 C 0.86076 0.40536 0.88137 0.0
C195 C 0.8848 0.40654 0.89753 0.0
H196 H 1.04227 0.47157 0.87357 0.0
H197 H 0.11194 0.51253 0.85818 0.0
H198 H 0.16936 0.49614 0.91036 0.0
H199 H 1.09979 0.45706 0.92606 0.0
H200 H 1.02219 0.40391 0.96641 0.0
H201 H 1.03781 0.42871 0.00017 0.0
H202 H 0.95823 0.48508 -0.00523 0.0
H203 H 0.94148 0.45872 0.96093 0.0
H204 H 0.93224 0.35466 0.87734 0.0
H205 H 0.88951 0.35156 0.84937 0.0
H206 H 0.84327 0.42219 0.88232 0.0
H207 H 0.88531 0.42424 0.91044 0.0
N208 N 0.98799 0.42153 0.90005 0.0
N209 N 1.02025 0.44019 0.93066 0.0
N210 N 0.946 0.40838 0.92869 0.0
C211 C 1.02361 0.43916 0.91084 0.0
C212 C 0.98178 0.42483 0.93968 0.0
C213 C 0.94921 0.40558 0.90878 0.0
C214 C 1.0656 0.46101 0.90101 0.0
C215 C 1.06979 0.47654 0.8817 0.0
C216 C 0.10979 0.50005 0.87287 0.0
C217 C 0.14643 0.50797 0.88303 0.0
C218 C 0.14201 0.49168 0.90224 0.0
C219 C 0.10208 0.46881 0.91119 0.0
C220 C 0.98082 0.4296 0.96116 0.0
C221 C 1.00694 0.4204 0.97268 0.0
C222 C 1.01621 0.435 0.99192 0.0
C223 C 1.00021 0.45988 -7e-05 0.0
C224 C 0.97109 0.46605 0.98898 0.0
C225 C 0.96135 0.45086 0.96967 0.0
C226 C 0.9124 0.39023 0.89586 0.0
C227 C 0.91137 0.3678 0.87887 0.0
C228 C 0.23893 0.72401 0.43993 0.0
C229 C 0.25185 0.7286 0.45965 0.0
C230 C 0.22718 0.69395 0.47247 0.0
C231 C 0.19108 0.65653 0.46571 0.0
H232 H 1.03528 0.53706 0.47388 0.0
H233 H 0.97139 0.47396 0.48675 0.0
H234 H 0.97708 0.40223 0.43747 0.0
H235 H 1.04 0.46376 0.42514 0.0
H236 H 1.04811 0.52116 0.38292 0.0
H237 H 1.04912 0.51873 0.34698 0.0
H238 H 0.17671 0.62435 0.34579 0.0
H239 H 0.17583 0.62697 0.38168 0.0
H240 H 0.19582 0.68616 0.41784 0.0
H241 H 0.25684 0.7488 0.42926 0.0
H242 H 0.23552 0.6958 0.48782 0.0
H243 H 0.17341 0.63077 0.47596 0.0
N244 N 0.11067 0.57944 0.44777 0.0
N245 N 1.0805 0.54385 0.4181 0.0
N246 N 0.14194 0.60963 0.41698 0.0
C247 C 1.07934 0.54463 0.43816 0.0
C248 C 0.11138 0.57593 0.40738 0.0
C249 C 0.14249 0.61243 0.43699 0.0
C250 C 1.04352 0.50612 0.44839 0.0
C251 C 1.02332 0.50759 0.46604 0.0
C252 C 0.98615 0.47126 0.4733 0.0
C253 C 0.96826 0.4321 0.46331 0.0
C254 C 0.98943 0.43088 0.44599 0.0
C255 C 1.0259 0.46681 0.43875 0.0
C256 C 0.11189 0.57426 0.38536 0.0
C257 C 1.07644 0.54391 0.37504 0.0
C258 C 1.0769 0.54266 0.35438 0.0
C259 C 0.11299 0.57135 0.34342 0.0
C260 C 0.1485 0.60152 0.35372 0.0
C261 C 0.14787 0.60313 0.37436 0.0
C262 C 0.17867 0.65231 0.44583 0.0
C263 C 0.20346 0.68715 0.43326 0.0
C264 C 0.65003 0.25039 0.77332 0.0
C265 C 0.64948 0.25802 0.79359 0.0
C266 C 0.64617 0.22617 0.80663 0.0
C267 C 0.64425 0.18855 0.79951 0.0
H268 H 0.59276 1.01855 0.79958 0.0
H269 H 0.59369 0.95446 0.80972 0.0
H270 H 0.70842 0.99471 0.77525 0.0
H271 H 0.70575 1.05681 0.76456 0.0
H272 H 0.63262 1.04205 0.71612 0.0
H273 H 0.62384 1.03701 0.68045 0.0
H274 H 0.62399 0.15531 0.67987 0.0
H275 H 0.63184 0.15997 0.71537 0.0
H276 H 0.64852 0.20987 0.75048 0.0
H277 H 0.65157 0.27309 0.76262 0.0
H278 H 0.64572 0.23055 0.82238 0.0
H279 H 0.64198 0.16515 0.80997 0.0
N280 N 0.64527 0.11112 0.78088 0.0
N281 N 0.64076 0.07481 0.75131 0.0
N282 N 0.63842 0.1375 0.75035 0.0
C283 C 0.64448 0.07733 0.77127 0.0
C284 C 0.63736 0.10447 0.74073 0.0
C285 C 0.6425 0.14185 0.77023 0.0
C286 C 0.64955 1.04345 0.78145 0.0
C287 C 0.61868 1.01406 0.79459 0.0
C288 C 0.61921 0.97694 0.80032 0.0
C289 C 0.65075 0.96798 0.79316 0.0
C290 C 0.68264 0.99881 0.78077 0.0
C291 C 0.68168 1.03528 0.77487 0.0
C292 C 0.6328 0.10133 0.71882 0.0
C293 C 0.63078 0.06702 0.70841 0.0
C294 C 0.62597 1.06423 0.68787 0.0
C295 C 0.62296 0.09564 0.67714 0.0
C296 C 0.62538 0.13008 0.68756 0.0
C297 C 0.63018 0.13287 0.70803 0.0
C298 C 0.64502 0.18136 0.7791 0.0
C299 C 0.64787 0.21325 0.76629 0.0
C300 C 0.77781 0.6147 0.10771 0.0
C301 C 0.77686 0.59471 0.12557 0.0
C302 C 0.7388 0.57748 0.13691 0.0
C303 C 0.70254 0.57857 0.13006 0.0
H304 H 0.58516 0.62772 0.13507 0.0
H305 H 0.51961 0.62604 0.14623 0.0
H306 H 0.44937 0.53057 0.10297 0.0
H307 H 0.51446 0.53401 0.0915 0.0
H308 H 0.5785 0.60451 0.04725 0.0
H309 H 0.58202 0.60931 0.01131 0.0
H310 H 0.6912 0.592 0.011 0.0
H311 H 0.68787 0.58724 0.04684 0.0
H312 H 0.74471 0.63089 0.08688 0.0
H313 H 0.80644 0.6296 0.09871 0.0
H314 H 0.73647 0.5618 0.15076 0.0
H315 H 0.67354 0.56362 0.13879 0.0
N316 N 0.62946 0.58954 0.11245 0.0
N317 N 0.59705 0.58859 0.08237 0.0
N318 N 0.6646 0.59582 0.08212 0.0
C319 C 0.59539 0.58678 0.10242 0.0
C320 C 0.6314 0.59321 0.07208 0.0
C321 C 0.66451 0.59406 0.10215 0.0
C322 C 0.55541 0.58103 0.11233 0.0
C323 C 0.55552 0.60592 0.12822 0.0
C324 C 0.51764 0.60497 0.13457 0.0
C325 C 0.47838 0.57882 0.12533 0.0
C326 C 0.47847 0.55241 0.11017 0.0
C327 C 0.51609 0.55387 0.1037 0.0
C328 C 0.63291 0.59551 0.05008 0.0
C329 C 0.60322 0.60161 0.03955 0.0
C330 C 0.60536 0.6046 0.01891 0.0
C331 C 0.63687 0.60101 0.00821 0.0
C332 C 0.66624 0.59447 0.01872 0.0
C333 C 0.66445 0.592 0.03934 0.0
C334 C 0.70332 0.59693 0.11167 0.0
C335 C 0.74202 0.6157 0.10093 0.0
H336 H 0.27471 0.6268 0.17141 0.0
H337 H 0.2118 0.51666 0.13483 0.0
H338 H 0.34283 0.6301 0.16458 0.0
H339 H 0.27938 0.51979 0.12811 0.0
H340 H 0.41139 0.56464 0.1014 0.0
H341 H 0.34526 0.56243 0.10984 0.0
H342 H 0.3857 0.59451 0.16981 0.0
H343 H 0.45204 0.59544 0.16156 0.0
C344 C 0.27522 0.60321 0.16194 0.0
C345 C 0.23725 0.57157 0.15365 0.0
C346 C 0.31446 0.60493 0.1581 0.0
C347 C 0.31723 0.57539 0.14562 0.0
C348 C 0.27911 0.54357 0.13755 0.0
C349 C 0.23998 0.54158 0.14155 0.0
C350 C 0.40637 0.57047 0.11655 0.0
C351 C 0.43776 0.57944 0.13077 0.0
C352 C 0.36802 0.5694 0.12139 0.0
C353 C 0.3593 0.57781 0.14062 0.0
C354 C 0.39097 0.58799 0.1548 0.0
C355 C 0.42936 0.58861 0.15 0.0
H356 H 0.76517 0.17307 0.49786 0.0
H357 H 0.69903 0.24018 0.48396 0.0
H358 H 0.83301 0.23762 0.49255 0.0
H359 H 0.76702 0.30476 0.47885 0.0
H360 H 0.89595 0.42542 0.48181 0.0
H361 H 0.82969 0.36183 0.49091 0.0
H362 H 0.88049 0.28489 0.46884 0.0
H363 H 0.94702 0.34803 0.46072 0.0
C364 C 0.7649 0.20157 0.49375 0.0
C365 C 0.72593 0.2007 0.49133 0.0
C366 C 0.80418 0.23892 0.49052 0.0
C367 C 0.80631 0.27725 0.48493 0.0
C368 C 0.76725 0.27644 0.48305 0.0
C369 C 0.72795 0.23901 0.48598 0.0
C370 C 0.89341 0.39503 0.47913 0.0
C371 C 0.92763 0.39277 0.47025 0.0
C372 C 0.85477 0.35813 0.48413 0.0
C373 C 0.8486 0.31726 0.48052 0.0
C374 C 0.88325 0.31515 0.47211 0.0
C375 C 0.92173 0.3519 0.46714 0.0
H376 H 0.7183 0.76799 0.80526 0.0
H377 H 0.59183 0.70928 0.83024 0.0
H378 H 0.7156 0.83232 0.79908 0.0
H379 H 0.58918 0.7742 0.82407 0.0
H380 H 0.61836 0.91522 0.82637 0.0
H381 H 0.61833 0.84951 0.83345 0.0
H382 H 0.68188 0.86022 0.77794 0.0
H383 H 0.68076 0.92457 0.77049 0.0
C384 C 0.68981 0.76865 0.80953 0.0
C385 C 0.65529 0.73279 0.8183 0.0
C386 C 0.68815 0.80581 0.80583 0.0
C387 C 0.65208 0.80907 0.81092 0.0
C388 C 0.61772 0.77345 0.82 0.0
C389 C 0.61916 0.73592 0.82348 0.0
C390 C 0.63199 0.90359 0.81548 0.0
C391 C 0.65008 0.92664 0.79785 0.0
C392 C 0.63202 0.86557 0.81962 0.0
C393 C 0.65052 0.84915 0.80643 0.0
C394 C 0.66813 0.87186 0.78878 0.0
C395 C 0.66766 0.90942 0.78453 0.0
H396 H 0.98443 0.53603 0.1323 0.0
H397 H 1.01566 0.62925 0.1776 0.0
H398 H 0.92081 0.53905 0.12494 0.0
H399 H 0.95096 0.63197 0.17037 0.0
H400 H 0.81042 0.59994 0.16289 0.0
H401 H 0.87389 0.59643 0.17173 0.0
H402 H 0.89478 0.57938 0.11054 0.0
H403 H 0.83124 0.5813 0.10192 0.0
C404 C 0.97758 0.55698 0.14091 0.0
C405 C 1.00555 0.58219 0.1557 0.0
C406 C 0.94081 0.55891 0.13657 0.0
C407 C 0.9298 0.58556 0.14706 0.0
C408 C 0.95758 0.61054 0.16205 0.0
C409 C 0.99502 0.60919 0.16617 0.0
C410 C 0.82829 0.59501 0.15134 0.0
C411 C 0.81522 0.59125 0.1316 0.0
C412 C 0.86522 0.59347 0.1564 0.0
C413 C 0.89021 0.58764 0.14194 0.0
C414 C 0.87669 0.58341 0.12228 0.0
C415 C 0.84011 0.5851 0.11725 0.0
H416 H 0.44654 0.99498 0.48182 0.0
H417 H 0.51183 0.92613 0.49372 0.0
H418 H 0.38143 0.92911 0.47611 0.0
H419 H 0.4467 0.85975 0.48736 0.0
H420 H 0.31316 0.74089 0.48744 0.0
H421 H 0.3773 0.80639 0.49615 0.0
H422 H 0.34468 0.87474 0.45464 0.0
H423 H 0.28027 0.81042 0.44683 0.0
C424 C 0.44724 0.96579 0.48317 0.0
C425 C 0.48519 0.96662 0.48822 0.0
C426 C 0.40952 0.9275 0.47969 0.0
C427 C 0.40785 0.88803 0.48095 0.0
C428 C 0.44576 0.88884 0.48633 0.0
C429 C 0.48358 0.92729 0.48991 0.0
C430 C 0.31925 0.76996 0.48036 0.0
C431 C 0.29081 0.76937 0.46621 0.0
C432 C 0.35671 0.80785 0.4852 0.0
C433 C 0.36726 0.8469 0.47619 0.0
C434 C 0.33834 0.84618 0.46229 0.0
C435 C 0.30111 0.80855 0.45751 0.0
H436 H 0.59029 0.45661 0.83051 0.0
H437 H 0.72315 0.52495 0.81461 0.0
H438 H 0.589 0.3898 0.82452 0.0
H439 H 0.72211 0.45818 0.80973 0.0
H440 H 0.69747 0.33792 0.77771 0.0
H441 H 0.69812 0.40278 0.78628 0.0
H442 H 0.6104 0.33875 0.8343 0.0
H443 H 0.6083 0.27267 0.8251 0.0
C444 C 0.61943 0.45756 0.82595 0.0
C445 C 0.65676 0.49677 0.82293 0.0
C446 C 0.61872 0.41894 0.82257 0.0
C447 C 0.65538 0.418 0.81615 0.0
C448 C 0.6929 0.45726 0.81383 0.0
C449 C 0.69356 0.4958 0.81693 0.0
C450 C 0.67802 0.33721 0.79008 0.0
C451 C 0.65248 0.29916 0.8005 0.0
C452 C 0.67893 0.37503 0.79523 0.0
C453 C 0.65458 0.37689 0.81115 0.0
C454 C 0.62945 0.33903 0.82184 0.0
C455 C 0.6286 0.30097 0.81668 0.0
H456 H 0.60156 0.84613 0.55413 0.0
H457 H 0.60299 0.82288 0.49185 0.0
H458 H 0.61088 0.78624 0.56134 0.0
H459 H 0.61193 0.76226 0.49907 0.0
H460 H 0.63376 0.6804 0.57165 0.0
H461 H 0.59223 0.71244 0.5608 0.0
H462 H 0.67726 0.76766 0.5108 0.0
H463 H 0.71842 0.73592 0.52158 0.0
C464 C 0.60203 0.82709 0.54199 0.0
C465 C 0.6025 0.83967 0.52242 0.0
C466 C 0.60734 0.79262 0.54612 0.0
C467 C 0.6131 0.77007 0.53074 0.0
C468 C 0.60856 0.77969 0.51121 0.0
C469 C 0.6034 0.81429 0.50707 0.0
C470 C 0.64315 0.69897 0.55821 0.0
C471 C 0.67974 0.70621 0.54763 0.0
C472 C 0.61926 0.71709 0.55195 0.0
C473 C 0.63156 0.74277 0.53501 0.0
C474 C 0.66643 0.7475 0.52374 0.0
C475 C 0.69025 0.72944 0.52998 0.0
H476 H 0.76818 0.50232 0.78406 0.0
H477 H 0.90111 0.58326 0.7962 0.0
H478 H 0.77384 0.44109 0.79355 0.0
H479 H 0.90603 0.52216 0.80638 0.0
H480 H 0.79088 0.38964 0.85592 0.0
H481 H 0.7808 0.42808 0.82916 0.0
H482 H 0.89903 0.45158 0.80225 0.0
H483 H 0.90951 0.41392 0.8291 0.0
C484 C 0.79893 0.50716 0.78817 0.0
C485 C 0.83371 0.54808 0.79039 0.0
C486 C 0.80195 0.47193 0.79372 0.0
C487 C 0.83976 0.47699 0.80143 0.0
C488 C 0.87615 0.51717 0.80075 0.0
C489 C 0.8732 0.55238 0.79515 0.0
C490 C 0.81404 0.40191 0.84398 0.0
C491 C 0.85125 0.3993 0.84483 0.0
C492 C 0.80813 0.42362 0.82853 0.0
C493 C 0.83955 0.4434 0.81375 0.0
C494 C 0.87456 0.43702 0.81354 0.0
C495 C 0.88032 0.41511 0.8289 0.0
H496 H 0.37542 0.76879 0.21929 0.0
H497 H 0.38558 0.78145 0.15589 0.0
H498 H 0.45116 0.81677 0.2217 0.0
H499 H 0.46177 0.8272 0.15825 0.0
H500 H 0.5575 0.96536 0.17697 0.0
H501 H 0.49743 0.89874 0.16852 0.0
H502 H 0.52502 0.83816 0.21617 0.0
H503 H 0.58628 0.90583 0.22471 0.0
C504 C 0.39393 0.78113 0.20584 0.0
C505 C 0.37417 0.77219 0.18745 0.0
C506 C 0.43759 0.80804 0.20719 0.0
C507 C 0.46252 0.82632 0.19015 0.0
C508 C 0.44333 0.8142 0.17167 0.0
C509 C 0.39961 0.78766 0.17033 0.0
C510 C 0.55225 0.93774 0.18518 0.0
C511 C 0.5764 0.94128 0.20181 0.0
C512 C 0.51744 0.89918 0.1803 0.0
C513 C 0.50582 0.86316 0.19192 0.0
C514 C 0.53263 0.86561 0.20722 0.0
C515 C 0.5677 0.90435 0.2121 0.0
H516 H 0.72446 0.31755 0.45812 0.0
H517 H 0.64145 0.36193 0.48019 0.0
H518 H 0.78581 0.38202 0.46976 0.0
H519 H 0.70283 0.42556 0.49212 0.0
H520 H 0.79726 0.46001 0.54332 0.0
H521 H 0.75354 0.40328 0.52128 0.0
H522 H 0.81868 0.48223 0.47108 0.0
H523 H 0.86441 0.53973 0.49321 0.0
C524 C 0.7192 0.34135 0.46494 0.0
C525 C 0.67778 0.33346 0.46918 0.0
C526 C 0.75444 0.37823 0.47156 0.0
C527 C 0.74857 0.40775 0.48223 0.0
C528 C 0.7078 0.40263 0.48414 0.0
C529 C 0.67272 0.36601 0.47747 0.0
C530 C 0.80403 0.46517 0.52768 0.0
C531 C 0.8341 0.50497 0.52011 0.0
C532 C 0.77847 0.43265 0.51505 0.0
C533 C 0.7824 0.43905 0.49464 0.0
C534 C 0.81504 0.47701 0.48685 0.0
C535 C 0.84097 0.50978 0.49954 0.0
H536 H 0.41828 0.64871 0.85872 0.0
H537 H 0.36302 0.53408 0.82484 0.0
H538 H 0.34767 0.63927 0.86504 0.0
H539 H 0.29289 0.5235 0.8317 0.0
H540 H 0.16813 0.507 0.84423 0.0
H541 H 0.2388 0.53995 0.82961 0.0
H542 H 0.29211 0.59347 0.88605 0.0
H543 H 0.22143 0.56376 0.90018 0.0
C544 C 0.39103 0.62192 0.85237 0.0
C545 C 0.39594 0.59196 0.84144 0.0
C546 C 0.35062 0.61633 0.85605 0.0
C547 C 0.3144 0.58024 0.84917 0.0
C548 C 0.31984 0.55198 0.83705 0.0
C549 C 0.36018 0.55793 0.83314 0.0
C550 C 0.1948 0.5269 0.85339 0.0
C551 C 0.18904 0.53192 0.87353 0.0
C552 C 0.23546 0.54542 0.84504 0.0
C553 C 0.27135 0.56869 0.8567 0.0
C554 C 0.26539 0.57599 0.87652 0.0
C555 C 0.22473 0.55813 0.88477 0.0
H556 H 0.87565 0.47086 0.1389 0.0
H557 H 0.85229 0.3506 0.11665 0.0
H558 H 0.79982 0.44275 0.14376 0.0
H559 H 0.77666 0.32213 0.12189 0.0
H560 H 0.64837 0.26531 0.14164 0.0
H561 H 0.70567 0.31645 0.12044 0.0
H562 H 0.76536 0.39377 0.17113 0.0
H563 H 0.71008 0.34278 0.19217 0.0
C564 C 0.85423 0.43889 0.13436 0.0
C565 C 0.86994 0.41263 0.12786 0.0
C566 C 0.81076 0.4228 0.13713 0.0
C567 C 0.78231 0.37995 0.13371 0.0
C568 C 0.79765 0.35533 0.12467 0.0
C569 C 0.84116 0.37158 0.12175 0.0
C570 C 0.67318 0.29381 0.14818 0.0
C571 C 0.6755 0.2988 0.16878 0.0
C572 C 0.70582 0.32322 0.13598 0.0
C573 C 0.74068 0.35848 0.14417 0.0
C574 C 0.73911 0.3669 0.16427 0.0
C575 C 0.70699 0.33731 0.17646 0.0
H576 H 1.07063 0.61419 0.10692 0.0
H577 H 0.14287 0.5495 0.10644 0.0
H578 H 1.0383 0.58075 0.07563 0.0
H579 H 0.11044 0.51576 0.07553 0.0
H580 H 1.08276 0.50122 0.0106 0.0
H581 H 0.11293 0.5375 0.04117 0.0
H582 H 0.98847 0.50844 0.06209 0.0
H583 H 0.95788 0.47164 0.03116 0.0
C584 C 1.07981 0.59313 0.1 0.0
C585 C 0.10934 0.5845 0.10892 0.0
C586 C 1.06101 0.57366 0.08227 0.0
C587 C 1.07192 0.54572 0.07311 0.0
C588 C 0.10178 0.53755 0.08207 0.0
C589 C 0.12028 0.55675 0.09977 0.0
C590 C 1.06162 0.50205 0.02178 0.0
C591 C 1.01776 0.48274 0.01862 0.0
C592 C 1.07899 0.52301 0.03928 0.0
C593 C 1.05304 0.52539 0.05413 0.0
C594 C 1.00927 0.50724 0.05084 0.0
C595 C 0.99176 0.4861 0.0332 0.0
H596 H 0.69311 0.11607 0.43618 0.0
H597 H 0.56038 0.07782 0.44176 0.0
H598 H 0.6945 0.14041 0.40279 0.0
H599 H 0.56228 0.10545 0.40886 0.0
H600 H 0.56983 0.10761 0.34097 0.0
H601 H 0.56525 0.09031 0.37585 0.0
H602 H 0.69395 0.19209 0.38315 0.0
H603 H 0.69892 0.20724 0.3479 0.0
C604 C 0.66434 0.11349 0.43032 0.0
C605 C 0.62678 0.09559 0.4416 0.0
C606 C 0.66522 0.12804 0.41124 0.0
C607 C 0.62863 0.12554 0.40309 0.0
C608 C 0.59102 0.1077 0.41453 0.0
C609 C 0.59001 0.09239 0.4335 0.0
C610 C 0.59672 0.1267 0.3502 0.0
C611 C 0.63472 0.15862 0.34191 0.0
C612 C 0.59417 0.11693 0.37022 0.0
C613 C 0.62944 0.13939 0.38239 0.0
C614 C 0.66654 0.17329 0.37418 0.0
C615 C 0.66933 0.18241 0.35407 0.0
H616 H 0.69151 0.66305 0.77059 0.0
H617 H 0.63388 0.5276 0.77362 0.0
H618 H 0.73272 0.66459 0.74164 0.0
H619 H 0.67616 0.52894 0.74495 0.0
H620 H 0.72268 0.55063 0.67929 0.0
H621 H 0.68354 0.54258 0.70992 0.0
H622 H 0.79122 0.65436 0.73273 0.0
H623 H 0.82987 0.6629 0.70182 0.0
C624 C 0.68779 0.63361 0.765 0.0
C625 C 0.65964 0.59525 0.77421 0.0
C626 C 0.71165 0.63445 0.74856 0.0
C627 C 0.70818 0.59691 0.74111 0.0
C628 C 0.67939 0.55837 0.75022 0.0
C629 C 0.65515 0.55755 0.76659 0.0
C630 C 0.73835 0.57282 0.69106 0.0
C631 C 0.77919 0.60756 0.68815 0.0
C632 C 0.71588 0.56829 0.70861 0.0
C633 C 0.73393 0.5983 0.72363 0.0
C634 C 0.77595 0.63136 0.72122 0.0
C635 C 0.79825 0.63608 0.70362 0.0
H636 H 0.52486 0.06727 0.55766 0.0
H637 H 0.65707 0.10635 0.54859 0.0
H638 H 0.53336 0.0662 0.59318 0.0
H639 H 0.66603 0.1062 0.58424 0.0
H640 H 0.65893 0.06748 0.64923 0.0
H641 H 0.64913 1.06313 0.61362 0.0
H642 H 0.56478 0.11408 0.61974 0.0
H643 H 0.57316 0.11677 0.65524 0.0
C644 C 0.5558 0.07561 0.56328 0.0
C645 C 0.59031 0.08706 0.5503 0.0
C646 C 0.56079 0.07529 0.58369 0.0
C647 C 0.60052 0.0865 0.59175 0.0
C648 C 0.63488 0.09703 0.57867 0.0
C649 C 0.62982 0.09732 0.55821 0.0
C650 C 0.63789 0.07729 0.64302 0.0
C651 C 0.61693 0.09256 0.65526 0.0
C652 C 0.63264 0.07525 0.62251 0.0
C653 C 0.60612 0.08823 0.61365 0.0
C654 C 0.58504 0.10326 0.62593 0.0
C655 C 0.59032 0.10535 0.64638 0.0
H656 H 0.70596 0.69561 0.88799 0.0
H657 H 0.62796 0.56132 0.88017 0.0
H658 H 0.69328 0.68652 0.92355 0.0
H659 H 0.61533 0.55209 0.91584 0.0
H660 H 0.65051 0.55196 0.98174 0.0
H661 H 0.6575 0.55936 0.9459 0.0
H662 H 0.63606 0.66538 0.94894 0.0
H663 H 0.62944 0.6582 0.98481 0.0
C664 C 0.68585 0.66415 0.89388 0.0
C665 C 0.66809 0.62918 0.88128 0.0
C666 C 0.67842 0.65894 0.91426 0.0
C667 C 0.65338 0.61855 0.92262 0.0
C668 C 0.63513 0.58359 0.90995 0.0
C669 C 0.64216 0.58888 0.8895 0.0
C670 C 0.64732 0.57688 0.97477 0.0
C671 C 0.63953 0.60455 0.98621 0.0
C672 C 0.65094 0.58088 0.95419 0.0
C673 C 0.64738 0.613 0.94449 0.0
C674 C 0.6393 0.64049 0.95592 0.0
C675 C 0.63515 0.63616 0.97648 0.0
H676 H 0.14067 0.51312 0.22136 0.0
H677 H 1.08719 0.59489 0.21603 0.0
H678 H 0.14201 0.52069 0.25713 0.0
H679 H 1.08829 0.60238 0.25196 0.0
H680 H 1.0508 0.56114 0.31773 0.0
H681 H 1.0518 0.55743 0.28176 0.0
H682 H 0.17802 0.57432 0.28314 0.0
H683 H 0.17691 0.57772 0.31907 0.0
C684 C 0.12936 0.5329 0.22785 0.0
C685 C 0.11377 0.55335 0.21585 0.0
C686 C 0.1303 0.53739 0.24837 0.0
C687 C 0.11519 0.56209 0.2575 0.0
C688 C 1.0998 0.5828 0.24546 0.0
C689 C 1.09939 0.57872 0.22487 0.0
C690 C 1.07873 0.56393 0.31037 0.0
C691 C 0.11374 0.56965 0.32137 0.0
C692 C 1.07945 0.56221 0.28972 0.0
C693 C 0.11499 0.56558 0.27949 0.0
C694 C 0.15 0.57131 0.2905 0.0
C695 C 0.14949 0.57359 0.31112 0.0
loop_
_geom_bond_atom_site_label_1
_geom_bond_atom_site_label_2
_geom_bond_distance
_geom_bond_site_symmetry_2
_ccdc_geom_bond_type
Tb0 C2 2.809 . S
Tb0 O20 2.484 . S
Tb0 O21 2.440 . S
Tb0 O22 2.658 . S
Tb0 O23 2.409 . S
Tb0 O24 2.378 . S
Tb0 O28 2.325 . S
Tb0 O31 2.341 1_455 S
Tb1 C11 2.809 . S
Tb1 O22 2.325 1_655 S
Tb1 O25 2.341 1_655 S
Tb1 O26 2.484 . S
Tb1 O27 2.440 . S
Tb1 O28 2.658 1_655 S
Tb1 O29 2.409 1_655 S
Tb1 O30 2.378 . S
C2 Tb0 2.809 . S
C2 C3 1.514 . S
C2 O20 1.248 . S
C2 O21 1.266 . S
C3 C2 1.514 . S
C3 C4 1.359 . S
C3 C8 1.348 . S
C4 C3 1.359 . S
C4 C5 1.380 . S
C4 H32 0.929 . S
C5 C4 1.380 . S
C5 C6 1.347 . S
C5 H33 0.931 . S
C6 C5 1.347 . S
C6 C7 1.369 . S
C7 C6 1.369 . S
C7 C8 1.408 . S
C7 H34 0.930 . S
C8 C3 1.348 . S
C8 C7 1.408 . S
C8 H35 0.930 . S
C9 O22 1.281 . S
C9 O23 1.254 . S
C10 O24 1.236 . S
C10 O25 1.266 . S
C11 Tb1 2.809 . S
C11 C12 1.514 . S
C11 O26 1.248 . S
C11 O27 1.266 . S
C12 C11 1.514 . S
C12 C13 1.359 . S
C12 C17 1.348 . S
C13 C12 1.359 . S
C13 C14 1.380 . S
C13 H36 0.929 . S
C14 C13 1.380 . S
C14 C15 1.347 . S
C14 H37 0.931 . S
C15 C14 1.347 . S
C15 C16 1.369 . S
C16 C15 1.369 . S
C16 C17 1.408 . S
C16 H38 0.930 . S
C17 C12 1.348 . S
C17 C16 1.408 . S
C17 H39 0.930 . S
C18 O28 1.281 . S
C18 O29 1.254 . S
C19 O30 1.236 . S
C19 O31 1.266 . S
O20 Tb0 2.484 . S
O20 C2 1.248 . S
O21 Tb0 2.440 . S
O21 C2 1.266 . S
O22 Tb0 2.658 . S
O22 Tb1 2.325 1_455 S
O22 C9 1.281 . S
O23 Tb0 2.409 . S
O23 C9 1.254 . S
O24 Tb0 2.378 . S
O24 C10 1.236 . S
O25 Tb1 2.341 1_455 S
O25 C10 1.266 . S
O26 Tb1 2.484 . S
O26 C11 1.248 . S
O27 Tb1 2.440 . S
O27 C11 1.266 . S
O28 Tb0 2.325 . S
O28 Tb1 2.658 1_455 S
O28 C18 1.281 . S
O29 Tb1 2.409 1_455 S
O29 C18 1.254 . S
O30 Tb1 2.378 . S
O30 C19 1.236 . S
O31 Tb0 2.341 1_655 S
O31 C19 1.266 . S
H32 C4 0.929 . S
H33 C5 0.931 . S
H34 C7 0.930 . S
H35 C8 0.930 . S
H36 C13 0.929 . S
H37 C14 0.931 . S
H38 C16 0.930 . S
H39 C17 0.930 . S
Tb40 C42 2.794 1_545 S
Tb40 O60 2.472 1_545 S
Tb40 O61 2.426 1_545 S
Tb40 O62 2.671 . S
Tb40 O63 2.412 . S
Tb40 O64 2.376 1_545 S
Tb40 O68 2.332 . S
Tb40 O71 2.354 . S
Tb41 C51 2.809 . S
Tb41 O62 2.325 . S
Tb41 O65 2.341 1_545 S
Tb41 O66 2.484 . S
Tb41 O67 2.440 . S
Tb41 O68 2.658 . S
Tb41 O69 2.409 . S
Tb41 O70 2.378 . S
C42 Tb40 2.794 1_565 S
C42 C43 1.514 . S
C42 O60 1.248 . S
C42 O61 1.266 . S
C43 C42 1.514 . S
C43 C44 1.359 . S
C43 C48 1.348 . S
C44 C43 1.359 . S
C44 C45 1.380 . S
C44 H72 0.929 . S
C45 C44 1.380 . S
C45 C46 1.347 . S
C45 H73 0.931 . S
C46 C45 1.347 . S
C46 C47 1.369 . S
C47 C46 1.369 . S
C47 C48 1.408 . S
C47 H74 0.930 . S
C48 C43 1.348 . S
C48 C47 1.408 . S
C48 H75 0.930 . S
C49 O62 1.281 . S
C49 O63 1.254 . S
C50 O64 1.236 . S
C50 O65 1.266 . S
C51 Tb41 2.809 . S
C51 C52 1.514 . S
C51 O66 1.248 . S
C51 O67 1.266 . S
C52 C51 1.514 . S
C52 C53 1.359 . S
C52 C57 1.348 . S
C53 C52 1.359 . S
C53 C54 1.380 . S
C53 H76 0.929 . S
C54 C53 1.380 . S
C54 C55 1.347 . S
C54 H77 0.931 . S
C55 C54 1.347 . S
C55 C56 1.369 . S
C56 C55 1.369 . S
C56 C57 1.408 . S
C56 H78 0.930 . S
C57 C52 1.348 . S
C57 C56 1.408 . S
C57 H79 0.930 . S
C58 O68 1.281 . S
C58 O69 1.254 . S
C59 O70 1.236 . S
C59 O71 1.266 . S
O60 Tb40 2.472 1_565 S
O60 C42 1.248 . S
O61 Tb40 2.426 1_565 S
O61 C42 1.266 . S
O62 Tb40 2.671 . S
O62 Tb41 2.325 . S
O62 C49 1.281 . S
O63 Tb40 2.412 . S
O63 C49 1.254 . S
O64 Tb40 2.376 1_565 S
O64 C50 1.236 . S
O65 Tb41 2.341 1_565 S
O65 C50 1.266 . S
O66 Tb41 2.484 . S
O66 C51 1.248 . S
O67 Tb41 2.440 . S
O67 C51 1.266 . S
O68 Tb40 2.332 . S
O68 Tb41 2.658 . S
O68 C58 1.281 . S
O69 Tb41 2.409 . S
O69 C58 1.254 . S
O70 Tb41 2.378 . S
O70 C59 1.236 . S
O71 Tb40 2.354 . S
O71 C59 1.266 . S
H72 C44 0.929 . S
H73 C45 0.931 . S
H74 C47 0.930 . S
H75 C48 0.930 . S
H76 C53 0.929 . S
H77 C54 0.931 . S
H78 C56 0.930 . S
H79 C57 0.930 . S
Tb80 C82 2.809 . S
Tb80 O100 2.484 . S
Tb80 O101 2.440 . S
Tb80 O102 2.658 . S
Tb80 O103 2.409 . S
Tb80 O104 2.378 . S
Tb80 O108 2.325 . S
Tb80 O111 2.341 . S
Tb81 C91 2.809 . S
Tb81 O102 2.325 . S
Tb81 O105 2.341 . S
Tb81 O106 2.484 . S
Tb81 O107 2.440 . S
Tb81 O108 2.658 . S
Tb81 O109 2.409 . S
Tb81 O110 2.378 . S
C82 Tb80 2.809 . S
C82 C83 1.514 . S
C82 O100 1.248 . S
C82 O101 1.266 . S
C83 C82 1.514 . S
C83 C84 1.359 . S
C83 C88 1.348 . S
C84 C83 1.359 . S
C84 C85 1.380 . S
C84 H112 0.929 . S
C85 C84 1.380 . S
C85 C86 1.347 . S
C85 H113 0.931 . S
C86 C85 1.347 . S
C86 C87 1.369 . S
C87 C86 1.369 . S
C87 C88 1.408 . S
C87 H114 0.930 . S
C88 C83 1.348 . S
C88 C87 1.408 . S
C88 H115 0.930 . S
C89 O102 1.281 . S
C89 O103 1.254 . S
C90 O104 1.236 . S
C90 O105 1.266 . S
C91 Tb81 2.809 . S
C91 C92 1.514 . S
C91 O106 1.248 . S
C91 O107 1.266 . S
C92 C91 1.514 . S
C92 C93 1.359 . S
C92 C97 1.348 . S
C93 C92 1.359 . S
C93 C94 1.380 . S
C93 H116 0.929 . S
C94 C93 1.380 . S
C94 C95 1.347 . S
C94 H117 0.931 . S
C95 C94 1.347 . S
C95 C96 1.369 . S
C96 C95 1.369 . S
C96 C97 1.408 . S
C96 H118 0.930 . S
C97 C92 1.348 . S
C97 C96 1.408 . S
C97 H119 0.930 . S
C98 O108 1.281 . S
C98 O109 1.254 . S
C99 O110 1.236 . S
C99 O111 1.266 . S
O100 Tb80 2.484 . S
O100 C82 1.248 . S
O101 Tb80 2.440 . S
O101 C82 1.266 . S
O102 Tb80 2.658 . S
O102 Tb81 2.325 . S
O102 C89 1.281 . S
O103 Tb80 2.409 . S
O103 C89 1.254 . S
O104 Tb80 2.378 . S
O104 C90 1.236 . S
O105 Tb81 2.341 . S
O105 C90 1.266 . S
O106 Tb81 2.484 . S
O106 C91 1.248 . S
O107 Tb81 2.440 . S
O107 C91 1.266 . S
O108 Tb80 2.325 . S
O108 Tb81 2.658 . S
O108 C98 1.281 . S
O109 Tb81 2.409 . S
O109 C98 1.254 . S
O110 Tb81 2.378 . S
O110 C99 1.236 . S
O111 Tb80 2.341 . S
O111 C99 1.266 . S
H112 C84 0.929 . S
H113 C85 0.931 . S
H114 C87 0.930 . S
H115 C88 0.930 . S
H116 C93 0.929 . S
H117 C94 0.931 . S
H118 C96 0.930 . S
H119 C97 0.930 . S
C120 C121 1.384 . S
C120 H133 0.947 . S
C120 C155 1.382 . S
C121 C120 1.384 . S
C121 C122 1.378 . S
C122 C121 1.378 . S
C122 C123 1.378 . S
C122 H134 0.952 . S
C123 C122 1.378 . S
C123 H135 0.944 1_565 S
C123 C154 1.383 . S
H124 C143 0.947 . S
H125 C144 0.946 . S
H126 C146 0.953 . S
H127 C147 0.945 . S
H128 C149 0.952 . S
H129 C150 0.949 . S
H130 C152 0.950 1_565 S
H131 C153 0.948 1_565 S
H132 C155 0.951 . S
H133 C120 0.947 . S
H134 C122 0.952 . S
H135 C123 0.944 1_545 S
N136 C139 1.382 . S
N136 C141 1.363 . S
N137 C139 1.371 . S
N137 C140 1.372 . S
N138 C140 1.361 . S
N138 C141 1.377 . S
C139 N136 1.382 . S
C139 N137 1.371 . S
C139 C142 1.480 . S
C140 N137 1.372 . S
C140 N138 1.361 . S
C140 C148 1.457 . S
C141 N136 1.363 . S
C141 N138 1.377 . S
C141 C154 1.479 1_545 S
C142 C139 1.480 . S
C142 C143 1.383 . S
C142 C147 1.385 . S
C143 H124 0.947 . S
C143 C142 1.383 . S
C143 C144 1.388 . S
C144 H125 0.946 . S
C144 C143 1.388 . S
C144 C145 1.384 . S
C145 C144 1.384 . S
C145 C146 1.377 . S
C146 H126 0.953 . S
C146 C145 1.377 . S
C146 C147 1.369 . S
C147 H127 0.945 . S
C147 C142 1.385 . S
C147 C146 1.369 . S
C148 C140 1.457 . S
C148 C149 1.372 . S
C148 C153 1.364 . S
C149 H128 0.952 . S
C149 C148 1.372 . S
C149 C150 1.389 . S
C150 H129 0.949 . S
C150 C149 1.389 . S
C150 C151 1.387 . S
C151 C150 1.387 . S
C151 C152 1.372 . S
C152 H130 0.950 1_545 S
C152 C151 1.372 . S
C152 C153 1.379 . S
C153 H131 0.948 1_545 S
C153 C148 1.364 . S
C153 C152 1.379 . S
C154 C123 1.383 . S
C154 C141 1.479 1_565 S
C154 C155 1.398 . S
C155 C120 1.382 . S
C155 H132 0.951 . S
C155 C154 1.398 . S
C156 C157 1.384 . S
C156 H169 0.947 . S
C156 C191 1.382 . S
C157 C156 1.384 . S
C157 C158 1.378 . S
C158 C157 1.378 . S
C158 C159 1.378 . S
C158 H170 0.952 . S
C159 C158 1.378 . S
C159 H171 0.950 . S
C159 C190 1.383 . S
H160 C179 0.947 . S
H161 C180 0.946 . S
H162 C182 0.953 . S
H163 C183 0.945 . S
H164 C185 0.952 . S
H165 C186 0.949 . S
H166 C188 0.950 . S
H167 C189 0.948 . S
H168 C191 0.951 . S
H169 C156 0.947 . S
H170 C158 0.952 . S
H171 C159 0.950 . S
N172 C175 1.382 . S
N172 C177 1.363 . S
N173 C175 1.371 . S
N173 C176 1.372 . S
N174 C176 1.361 . S
N174 C177 1.377 . S
C175 N172 1.382 . S
C175 N173 1.371 . S
C175 C178 1.480 . S
C176 N173 1.372 . S
C176 N174 1.361 . S
C176 C184 1.457 . S
C177 N172 1.363 . S
C177 N174 1.377 . S
C177 C190 1.479 . S
C178 C175 1.480 . S
C178 C179 1.383 . S
C178 C183 1.385 . S
C179 H160 0.947 . S
C179 C178 1.383 . S
C179 C180 1.388 . S
C180 H161 0.946 . S
C180 C179 1.388 . S
C180 C181 1.384 . S
C181 C180 1.384 . S
C181 C182 1.377 . S
C182 H162 0.953 . S
C182 C181 1.377 . S
C182 C183 1.369 . S
C183 H163 0.945 . S
C183 C178 1.385 . S
C183 C182 1.369 . S
C184 C176 1.457 . S
C184 C185 1.372 . S
C184 C189 1.364 . S
C185 H164 0.952 . S
C185 C184 1.372 . S
C185 C186 1.389 . S
C186 H165 0.949 . S
C186 C185 1.389 . S
C186 C187 1.387 . S
C187 C186 1.387 . S
C187 C188 1.372 . S
C188 H166 0.950 . S
C188 C187 1.372 . S
C188 C189 1.379 . S
C189 H167 0.948 . S
C189 C184 1.364 . S
C189 C188 1.379 . S
C190 C159 1.383 . S
C190 C177 1.479 . S
C190 C191 1.398 . S
C191 C156 1.382 . S
C191 H168 0.951 . S
C191 C190 1.398 . S
C192 C193 1.384 . S
C192 H205 0.947 . S
C192 C227 1.382 . S
C193 C192 1.384 . S
C193 C194 1.378 . S
C194 C193 1.378 . S
C194 C195 1.378 . S
C194 H206 0.952 . S
C195 C194 1.378 . S
C195 H207 0.950 . S
C195 C226 1.383 . S
H196 C215 0.947 . S
H197 C216 0.946 . S
H198 C218 0.953 . S
H199 C219 0.945 . S
H200 C221 0.952 . S
H201 C222 0.949 . S
H202 C224 0.950 . S
H203 C225 0.948 . S
H204 C227 0.951 . S
H205 C192 0.947 . S
H206 C194 0.952 . S
H207 C195 0.950 . S
N208 C211 1.357 1_655 S
N208 C213 1.388 . S
N209 C211 1.371 . S
N209 C212 1.372 . S
N210 C212 1.361 1_655 S
N210 C213 1.377 . S
C211 N208 1.357 1_455 S
C211 N209 1.371 . S
C211 C214 1.480 . S
C212 N209 1.372 . S
C212 N210 1.361 1_455 S
C212 C220 1.459 . S
C213 N208 1.388 . S
C213 N210 1.377 . S
C213 C226 1.479 . S
C214 C211 1.480 . S
C214 C215 1.383 . S
C214 C219 1.385 . S
C215 H196 0.947 . S
C215 C214 1.383 . S
C215 C216 1.388 . S
C216 H197 0.946 . S
C216 C215 1.388 . S
C216 C217 1.384 . S
C217 C216 1.384 . S
C217 C218 1.377 . S
C218 H198 0.953 . S
C218 C217 1.377 . S
C218 C219 1.369 . S
C219 H199 0.945 . S
C219 C214 1.385 . S
C219 C218 1.369 . S
C220 C212 1.459 . S
C220 C221 1.397 . S
C220 C225 1.338 1_455 S
C221 H200 0.952 . S
C221 C220 1.397 . S
C221 C222 1.389 . S
C222 H201 0.949 . S
C222 C221 1.389 . S
C222 C223 1.387 . S
C223 C222 1.387 . S
C223 C224 1.372 1_455 S
C224 H202 0.950 . S
C224 C223 1.372 1_655 S
C224 C225 1.379 . S
C225 H203 0.948 . S
C225 C220 1.338 1_655 S
C225 C224 1.379 . S
C226 C195 1.383 . S
C226 C213 1.479 . S
C226 C227 1.398 . S
C227 C192 1.382 . S
C227 H204 0.951 . S
C227 C226 1.398 . S
C228 C229 1.384 . S
C228 H241 0.947 . S
C228 C263 1.382 . S
C229 C228 1.384 . S
C229 C230 1.378 . S
C230 C229 1.378 . S
C230 C231 1.378 . S
C230 H242 0.952 . S
C231 C230 1.378 . S
C231 H243 0.950 . S
C231 C262 1.383 . S
H232 C251 0.947 1_455 S
H233 C252 0.946 . S
H234 C254 0.953 . S
H235 C255 0.945 . S
H236 C257 0.952 1_655 S
H237 C258 0.949 1_655 S
H238 C260 0.950 . S
H239 C261 0.948 . S
H240 C263 0.951 . S
H241 C228 0.947 . S
H242 C230 0.952 . S
H243 C231 0.950 . S
N244 C247 1.382 . S
N244 C249 1.363 . S
N245 C247 1.371 . S
N245 C248 1.372 . S
N246 C248 1.361 . S
N246 C249 1.377 . S
C247 N244 1.382 . S
C247 N245 1.371 . S
C247 C250 1.480 1_455 S
C248 N245 1.372 . S
C248 N246 1.361 . S
C248 C256 1.457 . S
C249 N244 1.363 . S
C249 N246 1.377 . S
C249 C262 1.479 . S
C250 C247 1.480 1_655 S
C250 C251 1.383 . S
C250 C255 1.385 . S
C251 H232 0.947 1_655 S
C251 C250 1.383 . S
C251 C252 1.388 . S
C252 H233 0.946 . S
C252 C251 1.388 . S
C252 C253 1.384 . S
C253 C252 1.384 . S
C253 C254 1.377 . S
C254 H234 0.953 . S
C254 C253 1.377 . S
C254 C255 1.369 . S
C255 H235 0.945 . S
C255 C250 1.385 . S
C255 C254 1.369 . S
C256 C248 1.457 . S
C256 C257 1.372 . S
C256 C261 1.364 . S
C257 H236 0.952 1_455 S
C257 C256 1.372 . S
C257 C258 1.389 . S
C258 H237 0.949 1_455 S
C258 C257 1.389 . S
C258 C259 1.387 . S
C259 C258 1.387 . S
C259 C260 1.372 . S
C260 H238 0.950 . S
C260 C259 1.372 . S
C260 C261 1.379 . S
C261 H239 0.948 . S
C261 C256 1.364 . S
C261 C260 1.379 . S
C262 C231 1.383 . S
C262 C249 1.479 . S
C262 C263 1.398 . S
C263 C228 1.382 . S
C263 H240 0.951 . S
C263 C262 1.398 . S
C264 C265 1.384 . S
C264 H277 0.947 . S
C264 C299 1.382 . S
C265 C264 1.384 . S
C265 C266 1.378 . S
C266 C265 1.378 . S
C266 C267 1.378 . S
C266 H278 0.952 . S
C267 C266 1.378 . S
C267 H279 0.950 . S
C267 C298 1.383 . S
H268 C287 0.947 . S
H269 C288 0.946 . S
H270 C290 0.953 . S
H271 C291 0.945 . S
H272 C293 0.952 . S
H273 C294 0.949 . S
H274 C296 0.950 . S
H275 C297 0.948 . S
H276 C299 0.951 . S
H277 C264 0.947 . S
H278 C266 0.952 . S
H279 C267 0.950 . S
N280 C283 1.382 1_545 S
N280 C285 1.363 . S
N281 C283 1.371 . S
N281 C284 1.372 1_565 S
N282 C284 1.361 . S
N282 C285 1.377 . S
C283 N280 1.382 1_565 S
C283 N281 1.371 . S
C283 C286 1.480 . S
C284 N281 1.372 1_545 S
C284 N282 1.361 . S
C284 C292 1.457 . S
C285 N280 1.363 . S
C285 N282 1.377 . S
C285 C298 1.479 . S
C286 C283 1.480 . S
C286 C287 1.383 . S
C286 C291 1.385 . S
C287 H268 0.947 . S
C287 C286 1.383 . S
C287 C288 1.388 . S
C288 H269 0.946 . S
C288 C287 1.388 . S
C288 C289 1.384 . S
C289 C288 1.384 . S
C289 C290 1.377 . S
C290 H270 0.953 . S
C290 C289 1.377 . S
C290 C291 1.369 . S
C291 H271 0.945 . S
C291 C286 1.385 . S
C291 C290 1.369 . S
C292 C284 1.457 . S
C292 C293 1.372 1_545 S
C292 C297 1.364 . S
C293 H272 0.952 . S
C293 C292 1.372 1_565 S
C293 C294 1.389 . S
C294 H273 0.949 . S
C294 C293 1.389 . S
C294 C295 1.387 1_565 S
C295 C294 1.387 1_545 S
C295 C296 1.372 . S
C296 H274 0.950 . S
C296 C295 1.372 . S
C296 C297 1.379 . S
C297 H275 0.948 . S
C297 C292 1.364 . S
C297 C296 1.379 . S
C298 C267 1.383 . S
C298 C285 1.479 . S
C298 C299 1.398 . S
C299 C264 1.382 . S
C299 H276 0.951 . S
C299 C298 1.398 . S
C300 C301 1.384 . S
C300 H313 0.947 . S
C300 C335 1.382 . S
C301 C300 1.384 . S
C301 C302 1.378 . S
C302 C301 1.378 . S
C302 C303 1.378 . S
C302 H314 0.952 . S
C303 C302 1.378 . S
C303 H315 0.950 . S
C303 C334 1.383 . S
H304 C323 0.947 . S
H305 C324 0.946 . S
H306 C326 0.953 . S
H307 C327 0.945 . S
H308 C329 0.952 . S
H309 C330 0.949 . S
H310 C332 0.950 . S
H311 C333 0.948 . S
H312 C335 0.951 . S
H313 C300 0.947 . S
H314 C302 0.952 . S
H315 C303 0.950 . S
N316 C319 1.382 . S
N316 C321 1.363 . S
N317 C319 1.371 . S
N317 C320 1.372 . S
N318 C320 1.361 . S
N318 C321 1.377 . S
C319 N316 1.382 . S
C319 N317 1.371 . S
C319 C322 1.480 . S
C320 N317 1.372 . S
C320 N318 1.361 . S
C320 C328 1.457 . S
C321 N316 1.363 . S
C321 N318 1.377 . S
C321 C334 1.479 . S
C322 C319 1.480 . S
C322 C323 1.383 . S
C322 C327 1.385 . S
C323 H304 0.947 . S
C323 C322 1.383 . S
C323 C324 1.388 . S
C324 H305 0.946 . S
C324 C323 1.388 . S
C324 C325 1.384 . S
C325 C324 1.384 . S
C325 C326 1.377 . S
C326 H306 0.953 . S
C326 C325 1.377 . S
C326 C327 1.369 . S
C327 H307 0.945 . S
C327 C322 1.385 . S
C327 C326 1.369 . S
C328 C320 1.457 . S
C328 C329 1.372 . S
C328 C333 1.364 . S
C329 H308 0.952 . S
C329 C328 1.372 . S
C329 C330 1.389 . S
C330 H309 0.949 . S
C330 C329 1.389 . S
C330 C331 1.387 . S
C331 C330 1.387 . S
C331 C332 1.372 . S
C332 H310 0.950 . S
C332 C331 1.372 . S
C332 C333 1.379 . S
C333 H311 0.948 . S
C333 C328 1.364 . S
C333 C332 1.379 . S
C334 C303 1.383 . S
C334 C321 1.479 . S
C334 C335 1.398 . S
C335 C300 1.382 . S
C335 H312 0.951 . S
C335 C334 1.398 . S
H336 C344 0.950 . S
H337 C349 0.950 . S
H338 C346 0.950 . S
H339 C348 0.950 . S
H340 C350 0.950 . S
H341 C352 0.950 . S
H342 C354 0.950 . S
H343 C355 0.950 . S
C344 H336 0.950 . S
C344 C345 1.386 . S
C344 C346 1.391 . S
C345 C344 1.386 . S
C345 C349 1.393 . S
C346 H338 0.950 . S
C346 C344 1.391 . S
C346 C347 1.400 . S
C347 C346 1.400 . S
C347 C348 1.398 . S
C347 C353 1.491 . S
C348 H339 0.950 . S
C348 C347 1.398 . S
C348 C349 1.391 . S
C349 H337 0.950 . S
C349 C345 1.393 . S
C349 C348 1.391 . S
C350 H340 0.950 . S
C350 C351 1.386 . S
C350 C352 1.391 . S
C351 C350 1.386 . S
C351 C355 1.393 . S
C352 H341 0.950 . S
C352 C350 1.391 . S
C352 C353 1.400 . S
C353 C347 1.491 . S
C353 C352 1.400 . S
C353 C354 1.398 . S
C354 H342 0.950 . S
C354 C353 1.398 . S
C354 C355 1.391 . S
C355 H343 0.950 . S
C355 C351 1.393 . S
C355 C354 1.391 . S
H356 C364 0.950 . S
H357 C369 0.950 . S
H358 C366 0.950 . S
H359 C368 0.950 . S
H360 C370 0.950 . S
H361 C372 0.950 . S
H362 C374 0.950 . S
H363 C375 0.950 . S
C364 H356 0.950 . S
C364 C365 1.386 . S
C364 C366 1.391 . S
C365 C364 1.386 . S
C365 C369 1.393 . S
C366 H358 0.950 . S
C366 C364 1.391 . S
C366 C367 1.400 . S
C367 C366 1.400 . S
C367 C368 1.398 . S
C367 C373 1.491 . S
C368 H359 0.950 . S
C368 C367 1.398 . S
C368 C369 1.391 . S
C369 H357 0.950 . S
C369 C365 1.393 . S
C369 C368 1.391 . S
C370 H360 0.950 . S
C370 C371 1.386 . S
C370 C372 1.391 . S
C371 C370 1.386 . S
C371 C375 1.393 . S
C372 H361 0.950 . S
C372 C370 1.391 . S
C372 C373 1.400 . S
C373 C367 1.491 . S
C373 C372 1.400 . S
C373 C374 1.398 . S
C374 H362 0.950 . S
C374 C373 1.398 . S
C374 C375 1.391 . S
C375 H363 0.950 . S
C375 C371 1.393 . S
C375 C374 1.391 . S
H376 C384 0.950 . S
H377 C389 0.950 . S
H378 C386 0.950 . S
H379 C388 0.950 . S
H380 C390 0.950 . S
H381 C392 0.950 . S
H382 C394 0.950 . S
H383 C395 0.950 . S
C384 H376 0.950 . S
C384 C385 1.386 . S
C384 C386 1.391 . S
C385 C384 1.386 . S
C385 C389 1.393 . S
C386 H378 0.950 . S
C386 C384 1.391 . S
C386 C387 1.400 . S
C387 C386 1.400 . S
C387 C388 1.398 . S
C387 C393 1.491 . S
C388 H379 0.950 . S
C388 C387 1.398 . S
C388 C389 1.391 . S
C389 H377 0.950 . S
C389 C385 1.393 . S
C389 C388 1.391 . S
C390 H380 0.950 . S
C390 C391 1.386 . S
C390 C392 1.391 . S
C391 C390 1.386 . S
C391 C395 1.393 . S
C392 H381 0.950 . S
C392 C390 1.391 . S
C392 C393 1.400 . S
C393 C387 1.491 . S
C393 C392 1.400 . S
C393 C394 1.398 . S
C394 H382 0.950 . S
C394 C393 1.398 . S
C394 C395 1.391 . S
C395 H383 0.950 . S
C395 C391 1.393 . S
C395 C394 1.391 . S
H396 C404 0.950 . S
H397 C409 0.950 . S
H398 C406 0.950 . S
H399 C408 0.950 . S
H400 C410 0.950 . S
H401 C412 0.950 . S
H402 C414 0.950 . S
H403 C415 0.950 . S
C404 H396 0.950 . S
C404 C405 1.386 . S
C404 C406 1.391 . S
C405 C404 1.386 . S
C405 C409 1.393 . S
C406 H398 0.950 . S
C406 C404 1.391 . S
C406 C407 1.400 . S
C407 C406 1.400 . S
C407 C408 1.398 . S
C407 C413 1.491 . S
C408 H399 0.950 . S
C408 C407 1.398 . S
C408 C409 1.391 . S
C409 H397 0.950 . S
C409 C405 1.393 . S
C409 C408 1.391 . S
C410 H400 0.950 . S
C410 C411 1.386 . S
C410 C412 1.391 . S
C411 C410 1.386 . S
C411 C415 1.393 . S
C412 H401 0.950 . S
C412 C410 1.391 . S
C412 C413 1.400 . S
C413 C407 1.491 . S
C413 C412 1.400 . S
C413 C414 1.398 . S
C414 H402 0.950 . S
C414 C413 1.398 . S
C414 C415 1.391 . S
C415 H403 0.950 . S
C415 C411 1.393 . S
C415 C414 1.391 . S
H416 C424 0.950 . S
H417 C429 0.950 . S
H418 C426 0.950 . S
H419 C428 0.950 . S
H420 C430 0.950 . S
H421 C432 0.950 . S
H422 C434 0.950 . S
H423 C435 0.950 . S
C424 H416 0.950 . S
C424 C425 1.386 . S
C424 C426 1.391 . S
C425 C424 1.386 . S
C425 C429 1.393 . S
C426 H418 0.950 . S
C426 C424 1.391 . S
C426 C427 1.400 . S
C427 C426 1.400 . S
C427 C428 1.398 . S
C427 C433 1.491 . S
C428 H419 0.950 . S
C428 C427 1.398 . S
C428 C429 1.391 . S
C429 H417 0.950 . S
C429 C425 1.393 . S
C429 C428 1.391 . S
C430 H420 0.950 . S
C430 C431 1.386 . S
C430 C432 1.391 . S
C431 C430 1.386 . S
C431 C435 1.393 . S
C432 H421 0.950 . S
C432 C430 1.391 . S
C432 C433 1.400 . S
C433 C427 1.491 . S
C433 C432 1.400 . S
C433 C434 1.398 . S
C434 H422 0.950 . S
C434 C433 1.398 . S
C434 C435 1.391 . S
C435 H423 0.950 . S
C435 C431 1.393 . S
C435 C434 1.391 . S
H436 C444 0.950 . S
H437 C449 0.950 . S
H438 C446 0.950 . S
H439 C448 0.950 . S
H440 C450 0.950 . S
H441 C452 0.950 . S
H442 C454 0.950 . S
H443 C455 0.950 . S
C444 H436 0.950 . S
C444 C445 1.386 . S
C444 C446 1.391 . S
C445 C444 1.386 . S
C445 C449 1.393 . S
C446 H438 0.950 . S
C446 C444 1.391 . S
C446 C447 1.400 . S
C447 C446 1.400 . S
C447 C448 1.398 . S
C447 C453 1.491 . S
C448 H439 0.950 . S
C448 C447 1.398 . S
C448 C449 1.391 . S
C449 H437 0.950 . S
C449 C445 1.393 . S
C449 C448 1.391 . S
C450 H440 0.950 . S
C450 C451 1.386 . S
C450 C452 1.391 . S
C451 C450 1.386 . S
C451 C455 1.393 . S
C452 H441 0.950 . S
C452 C450 1.391 . S
C452 C453 1.400 . S
C453 C447 1.491 . S
C453 C452 1.400 . S
C453 C454 1.398 . S
C454 H442 0.950 . S
C454 C453 1.398 . S
C454 C455 1.391 . S
C455 H443 0.950 . S
C455 C451 1.393 . S
C455 C454 1.391 . S
H456 C464 0.950 . S
H457 C469 0.950 . S
H458 C466 0.950 . S
H459 C468 0.950 . S
H460 C470 0.950 . S
H461 C472 0.950 . S
H462 C474 0.950 . S
H463 C475 0.950 . S
C464 H456 0.950 . S
C464 C465 1.386 . S
C464 C466 1.391 . S
C465 C464 1.386 . S
C465 C469 1.393 . S
C466 H458 0.950 . S
C466 C464 1.391 . S
C466 C467 1.400 . S
C467 C466 1.400 . S
C467 C468 1.398 . S
C467 C473 1.491 . S
C468 H459 0.950 . S
C468 C467 1.398 . S
C468 C469 1.391 . S
C469 H457 0.950 . S
C469 C465 1.393 . S
C469 C468 1.391 . S
C470 H460 0.950 . S
C470 C471 1.386 . S
C470 C472 1.391 . S
C471 C470 1.386 . S
C471 C475 1.393 . S
C472 H461 0.950 . S
C472 C470 1.391 . S
C472 C473 1.400 . S
C473 C467 1.491 . S
C473 C472 1.400 . S
C473 C474 1.398 . S
C474 H462 0.950 . S
C474 C473 1.398 . S
C474 C475 1.391 . S
C475 H463 0.950 . S
C475 C471 1.393 . S
C475 C474 1.391 . S
H476 C484 0.950 . S
H477 C489 0.950 . S
H478 C486 0.950 . S
H479 C488 0.950 . S
H480 C490 0.950 . S
H481 C492 0.950 . S
H482 C494 0.950 . S
H483 C495 0.950 . S
C484 H476 0.950 . S
C484 C485 1.386 . S
C484 C486 1.391 . S
C485 C484 1.386 . S
C485 C489 1.393 . S
C486 H478 0.950 . S
C486 C484 1.391 . S
C486 C487 1.400 . S
C487 C486 1.400 . S
C487 C488 1.398 . S
C487 C493 1.491 . S
C488 H479 0.950 . S
C488 C487 1.398 . S
C488 C489 1.391 . S
C489 H477 0.950 . S
C489 C485 1.393 . S
C489 C488 1.391 . S
C490 H480 0.950 . S
C490 C491 1.386 . S
C490 C492 1.391 . S
C491 C490 1.386 . S
C491 C495 1.393 . S
C492 H481 0.950 . S
C492 C490 1.391 . S
C492 C493 1.400 . S
C493 C487 1.491 . S
C493 C492 1.400 . S
C493 C494 1.398 . S
C494 H482 0.950 . S
C494 C493 1.398 . S
C494 C495 1.391 . S
C495 H483 0.950 . S
C495 C491 1.393 . S
C495 C494 1.391 . S
H496 C504 0.950 . S
H497 C509 0.950 . S
H498 C506 0.950 . S
H499 C508 0.950 . S
H500 C510 0.950 . S
H501 C512 0.950 . S
H502 C514 0.950 . S
H503 C515 0.950 . S
C504 H496 0.950 . S
C504 C505 1.386 . S
C504 C506 1.391 . S
C505 C504 1.386 . S
C505 C509 1.393 . S
C506 H498 0.950 . S
C506 C504 1.391 . S
C506 C507 1.400 . S
C507 C506 1.400 . S
C507 C508 1.398 . S
C507 C513 1.491 . S
C508 H499 0.950 . S
C508 C507 1.398 . S
C508 C509 1.391 . S
C509 H497 0.950 . S
C509 C505 1.393 . S
C509 C508 1.391 . S
C510 H500 0.950 . S
C510 C511 1.386 . S
C510 C512 1.391 . S
C511 C510 1.386 . S
C511 C515 1.393 . S
C512 H501 0.950 . S
C512 C510 1.391 . S
C512 C513 1.400 . S
C513 C507 1.491 . S
C513 C512 1.400 . S
C513 C514 1.398 . S
C514 H502 0.950 . S
C514 C513 1.398 . S
C514 C515 1.391 . S
C515 H503 0.950 . S
C515 C511 1.393 . S
C515 C514 1.391 . S
H516 C524 0.950 . S
H517 C529 0.950 . S
H518 C526 0.950 . S
H519 C528 0.950 . S
H520 C530 0.950 . S
H521 C532 0.950 . S
H522 C534 0.950 . S
H523 C535 0.950 . S
C524 H516 0.950 . S
C524 C525 1.386 . S
C524 C526 1.391 . S
C525 C524 1.386 . S
C525 C529 1.393 . S
C526 H518 0.950 . S
C526 C524 1.391 . S
C526 C527 1.400 . S
C527 C526 1.400 . S
C527 C528 1.398 . S
C527 C533 1.491 . S
C528 H519 0.950 . S
C528 C527 1.398 . S
C528 C529 1.391 . S
C529 H517 0.950 . S
C529 C525 1.393 . S
C529 C528 1.391 . S
C530 H520 0.950 . S
C530 C531 1.386 . S
C530 C532 1.391 . S
C531 C530 1.386 . S
C531 C535 1.393 . S
C532 H521 0.950 . S
C532 C530 1.391 . S
C532 C533 1.400 . S
C533 C527 1.491 . S
C533 C532 1.400 . S
C533 C534 1.398 . S
C534 H522 0.950 . S
C534 C533 1.398 . S
C534 C535 1.391 . S
C535 H523 0.950 . S
C535 C531 1.393 . S
C535 C534 1.391 . S
H536 C544 0.950 . S
H537 C549 0.950 . S
H538 C546 0.950 . S
H539 C548 0.950 . S
H540 C550 0.950 . S
H541 C552 0.950 . S
H542 C554 0.950 . S
H543 C555 0.950 . S
C544 H536 0.950 . S
C544 C545 1.386 . S
C544 C546 1.391 . S
C545 C544 1.386 . S
C545 C549 1.393 . S
C546 H538 0.950 . S
C546 C544 1.391 . S
C546 C547 1.400 . S
C547 C546 1.400 . S
C547 C548 1.398 . S
C547 C553 1.491 . S
C548 H539 0.950 . S
C548 C547 1.398 . S
C548 C549 1.391 . S
C549 H537 0.950 . S
C549 C545 1.393 . S
C549 C548 1.391 . S
C550 H540 0.950 . S
C550 C551 1.386 . S
C550 C552 1.391 . S
C551 C550 1.386 . S
C551 C555 1.393 . S
C552 H541 0.950 . S
C552 C550 1.391 . S
C552 C553 1.400 . S
C553 C547 1.491 . S
C553 C552 1.400 . S
C553 C554 1.398 . S
C554 H542 0.950 . S
C554 C553 1.398 . S
C554 C555 1.391 . S
C555 H543 0.950 . S
C555 C551 1.393 . S
C555 C554 1.391 . S
H556 C564 0.950 . S
H557 C569 0.950 . S
H558 C566 0.950 . S
H559 C568 0.950 . S
H560 C570 0.950 . S
H561 C572 0.950 . S
H562 C574 0.950 . S
H563 C575 0.950 . S
C564 H556 0.950 . S
C564 C565 1.386 . S
C564 C566 1.391 . S
C565 C564 1.386 . S
C565 C569 1.393 . S
C566 H558 0.950 . S
C566 C564 1.391 . S
C566 C567 1.400 . S
C567 C566 1.400 . S
C567 C568 1.398 . S
C567 C573 1.491 . S
C568 H559 0.950 . S
C568 C567 1.398 . S
C568 C569 1.391 . S
C569 H557 0.950 . S
C569 C565 1.393 . S
C569 C568 1.391 . S
C570 H560 0.950 . S
C570 C571 1.386 . S
C570 C572 1.391 . S
C571 C570 1.386 . S
C571 C575 1.393 . S
C572 H561 0.950 . S
C572 C570 1.391 . S
C572 C573 1.400 . S
C573 C567 1.491 . S
C573 C572 1.400 . S
C573 C574 1.398 . S
C574 H562 0.950 . S
C574 C573 1.398 . S
C574 C575 1.391 . S
C575 H563 0.950 . S
C575 C571 1.393 . S
C575 C574 1.391 . S
H576 C584 0.950 . S
H577 C589 0.950 . S
H578 C586 0.950 . S
H579 C588 0.950 . S
H580 C590 0.950 . S
H581 C592 0.950 . S
H582 C594 0.950 . S
H583 C595 0.950 . S
C584 H576 0.950 . S
C584 C585 1.386 1_655 S
C584 C586 1.391 . S
C585 C584 1.386 1_455 S
C585 C589 1.393 . S
C586 H578 0.950 . S
C586 C584 1.391 . S
C586 C587 1.400 1_655 S
C587 C586 1.400 1_455 S
C587 C588 1.398 . S
C587 C593 1.491 . S
C588 H579 0.950 . S
C588 C587 1.398 . S
C588 C589 1.391 . S
C589 H577 0.950 . S
C589 C585 1.393 . S
C589 C588 1.391 . S
C590 H580 0.950 . S
C590 C591 1.386 . S
C590 C592 1.391 . S
C591 C590 1.386 . S
C591 C595 1.393 1_455 S
C592 H581 0.950 . S
C592 C590 1.391 . S
C592 C593 1.400 . S
C593 C587 1.491 . S
C593 C592 1.400 . S
C593 C594 1.398 1_455 S
C594 H582 0.950 . S
C594 C593 1.398 1_655 S
C594 C595 1.391 . S
C595 H583 0.950 . S
C595 C591 1.393 1_655 S
C595 C594 1.391 . S
H596 C604 0.950 . S
H597 C609 0.950 1_565 S
H598 C606 0.950 . S
H599 C608 0.950 1_565 S
H600 C610 0.950 1_565 S
H601 C612 0.950 1_565 S
H602 C614 0.950 . S
H603 C615 0.950 . S
C604 H596 0.950 . S
C604 C605 1.386 . S
C604 C606 1.391 . S
C605 C604 1.386 . S
C605 C609 1.393 . S
C606 H598 0.950 . S
C606 C604 1.391 . S
C606 C607 1.400 . S
C607 C606 1.400 . S
C607 C608 1.398 . S
C607 C613 1.491 . S
C608 H599 0.950 1_545 S
C608 C607 1.398 . S
C608 C609 1.391 . S
C609 H597 0.950 1_545 S
C609 C605 1.393 . S
C609 C608 1.391 . S
C610 H600 0.950 1_545 S
C610 C611 1.386 . S
C610 C612 1.391 . S
C611 C610 1.386 . S
C611 C615 1.393 . S
C612 H601 0.950 1_545 S
C612 C610 1.391 . S
C612 C613 1.400 . S
C613 C607 1.491 . S
C613 C612 1.400 . S
C613 C614 1.398 . S
C614 H602 0.950 . S
C614 C613 1.398 . S
C614 C615 1.391 . S
C615 H603 0.950 . S
C615 C611 1.393 . S
C615 C614 1.391 . S
H616 C624 0.950 . S
H617 C629 0.950 . S
H618 C626 0.950 . S
H619 C628 0.950 . S
H620 C630 0.950 . S
H621 C632 0.950 . S
H622 C634 0.950 . S
H623 C635 0.950 . S
C624 H616 0.950 . S
C624 C625 1.386 . S
C624 C626 1.391 . S
C625 C624 1.386 . S
C625 C629 1.393 . S
C626 H618 0.950 . S
C626 C624 1.391 . S
C626 C627 1.400 . S
C627 C626 1.400 . S
C627 C628 1.398 . S
C627 C633 1.491 . S
C628 H619 0.950 . S
C628 C627 1.398 . S
C628 C629 1.391 . S
C629 H617 0.950 . S
C629 C625 1.393 . S
C629 C628 1.391 . S
C630 H620 0.950 . S
C630 C631 1.386 . S
C630 C632 1.391 . S
C631 C630 1.386 . S
C631 C635 1.393 . S
C632 H621 0.950 . S
C632 C630 1.391 . S
C632 C633 1.400 . S
C633 C627 1.491 . S
C633 C632 1.400 . S
C633 C634 1.398 . S
C634 H622 0.950 . S
C634 C633 1.398 . S
C634 C635 1.391 . S
C635 H623 0.950 . S
C635 C631 1.393 . S
C635 C634 1.391 . S
H636 C644 0.950 . S
H637 C649 0.950 1_565 S
H638 C646 0.950 . S
H639 C648 0.950 1_565 S
H640 C650 0.955 . S
H641 C652 0.925 1_565 S
H642 C654 0.950 . S
H643 C655 0.950 . S
C644 H636 0.950 . S
C644 C645 1.386 . S
C644 C646 1.391 . S
C645 C644 1.386 . S
C645 C649 1.393 . S
C646 H638 0.950 . S
C646 C644 1.391 . S
C646 C647 1.400 . S
C647 C646 1.400 . S
C647 C648 1.398 . S
C647 C653 1.491 . S
C648 H639 0.950 1_545 S
C648 C647 1.398 . S
C648 C649 1.391 . S
C649 H637 0.950 1_545 S
C649 C645 1.393 . S
C649 C648 1.391 . S
C650 H640 0.955 . S
C650 C651 1.380 1_565 S
C650 C652 1.392 1_565 S
C651 C650 1.380 1_545 S
C651 C655 1.393 . S
C652 H641 0.925 1_545 S
C652 C650 1.392 1_545 S
C652 C653 1.425 . S
C653 C647 1.491 . S
C653 C652 1.425 . S
C653 C654 1.398 . S
C654 H642 0.950 . S
C654 C653 1.398 . S
C654 C655 1.391 . S
C655 H643 0.950 . S
C655 C651 1.393 . S
C655 C654 1.391 . S
H656 C664 0.950 . S
H657 C669 0.950 . S
H658 C666 0.950 . S
H659 C668 0.950 . S
H660 C670 0.950 . S
H661 C672 0.950 . S
H662 C674 0.950 . S
H663 C675 0.950 . S
C664 H656 0.950 . S
C664 C665 1.386 . S
C664 C666 1.391 . S
C665 C664 1.386 . S
C665 C669 1.393 . S
C666 H658 0.950 . S
C666 C664 1.391 . S
C666 C667 1.400 . S
C667 C666 1.400 . S
C667 C668 1.398 . S
C667 C673 1.491 . S
C668 H659 0.950 . S
C668 C667 1.398 . S
C668 C669 1.391 . S
C669 H657 0.950 . S
C669 C665 1.393 . S
C669 C668 1.391 . S
C670 H660 0.950 . S
C670 C671 1.387 1_556 S
C670 C672 1.391 . S
C671 C670 1.387 1_554 S
C671 C675 1.394 1_554 S
C672 H661 0.950 . S
C672 C670 1.391 . S
C672 C673 1.400 . S
C673 C667 1.491 . S
C673 C672 1.400 . S
C673 C674 1.398 . S
C674 H662 0.950 . S
C674 C673 1.398 . S
C674 C675 1.391 . S
C675 H663 0.950 . S
C675 C671 1.394 1_556 S
C675 C674 1.391 . S
H676 C684 0.950 . S
H677 C689 0.950 1_655 S
H678 C686 0.950 . S
H679 C688 0.950 1_655 S
H680 C690 0.950 1_655 S
H681 C692 0.950 1_655 S
H682 C694 0.950 . S
H683 C695 0.950 . S
C684 H676 0.950 . S
C684 C685 1.386 . S
C684 C686 1.391 . S
C685 C684 1.386 . S
C685 C689 1.393 . S
C686 H678 0.950 . S
C686 C684 1.391 . S
C686 C687 1.400 . S
C687 C686 1.400 . S
C687 C688 1.398 . S
C687 C693 1.491 . S
C688 H679 0.950 1_455 S
C688 C687 1.398 . S
C688 C689 1.391 . S
C689 H677 0.950 1_455 S
C689 C685 1.393 . S
C689 C688 1.391 . S
C690 H680 0.950 1_455 S
C690 C691 1.386 . S
C690 C692 1.391 . S
C691 C690 1.386 . S
C691 C695 1.393 . S
C692 H681 0.950 1_455 S
C692 C690 1.391 . S
C692 C693 1.400 . S
C693 C687 1.491 . S
C693 C692 1.400 . S
C693 C694 1.398 . S
C694 H682 0.950 . S
C694 C693 1.398 . S
C694 C695 1.391 . S
C695 H683 0.950 . S
C695 C691 1.393 . S
C695 C694 1.391 . S
C345 C10 3.013 . S
C351 C325 2.956 . S
C365 C59 3.098 . S
C371 C253 3.022 . S
C385 C90 3.017 . S
C391 C289 2.951 . S
C405 C19 3.093 . S
C411 C301 3.053 . S
C431 C229 2.991 . S
C425 C50 3.012 . S
C451 C265 3.058 . S
C445 C99 3.094 . S
C465 C46 0.439 . S
C471 C181 0.441 . S
C485 C95 0.428 . S
C491 C193 0.292 . S
C505 C6 0.438 . S
C511 C121 0.397 . S
C531 C157 0.291 . S
C525 C55 0.393 . S
C551 C217 0.412 . S
C545 C86 0.466 . S
C565 C15 0.429 . S
C571 C145 0.321 . S
C591 C223 1.075 1_554 S
C585 C9 1.042 . S
C605 C49 1.047 . S
C611 C151 1.073 . S
C625 C89 1.069 . S
C631 C187 1.078 . S
C651 C295 1.784 . S
C645 C58 1.711 . S
C671 C331 1.788 . S
C665 C98 1.721 . S
C685 C18 1.723 . S
C691 C259 1.789 . S
