# Generated by pormake.
# Topology sit, (3,6)-cn, num edge types: 1
# Building blocks:
#     Node 0, Type 0, BuildingBlock: BETDAH_clean_linker_0, # of connection points: 3
#     Node 1, Type 0, BuildingBlock: BETDAH_clean_linker_0, # of connection points: 3
#     Node 2, Type 0, BuildingBlock: BETDAH_clean_linker_0, # of connection points: 3
#     Node 3, Type 0, BuildingBlock: BETDAH_clean_linker_0, # of connection points: 3
#     Node 4, Type 1, BuildingBlock: MIDCAF_clean_sbu_0, # of connection points: 6
#     Node 5, Type 1, BuildingBlock: MIDCAF_clean_sbu_0, # of connection points: 6
#     Edge 6, Type (0, 1), BuildingBlock: FUNLAD_clean_linker_1, # of connection points: 2
#     Edge 7, Type (0, 1), BuildingBlock: FUNLAD_clean_linker_1, # of connection points: 2
#     Edge 8, Type (0, 1), BuildingBlock: FUNLAD_clean_linker_1, # of connection points: 2
#     Edge 9, Type (0, 1), BuildingBlock: FUNLAD_clean_linker_1, # of connection points: 2
#     Edge 10, Type (0, 1), BuildingBlock: FUNLAD_clean_linker_1, # of connection points: 2
#     Edge 11, Type (0, 1), BuildingBlock: FUNLAD_clean_linker_1, # of connection points: 2
#     Edge 12, Type (0, 1), BuildingBlock: FUNLAD_clean_linker_1, # of connection points: 2
#     Edge 13, Type (0, 1), BuildingBlock: FUNLAD_clean_linker_1, # of connection points: 2
#     Edge 14, Type (0, 1), BuildingBlock: FUNLAD_clean_linker_1, # of connection points: 2
#     Edge 15, Type (0, 1), BuildingBlock: FUNLAD_clean_linker_1, # of connection points: 2
#     Edge 16, Type (0, 1), BuildingBlock: FUNLAD_clean_linker_1, # of connection points: 2
#     Edge 17, Type (0, 1), BuildingBlock: FUNLAD_clean_linker_1, # of connection points: 2
# Relax obj value: 0.072
# Max RMSD: 0.181
# Mean RMSD: 0.110
data_MOF--net-sit--node1-MIDCAF_clean_sbu_0--node2-BETDAH_clean_linker_0--edge1-FUNLAD_clean_linker_1
_symmetry_space_group_name_H-M    P1
_symmetry_Int_Tables_number       1
_symmetry_cell_setting            triclinic
loop_
_symmetry_equiv_pos_as_xyz
'x, y, z'
_cell_length_a     22.259222
_cell_length_b     34.298974
_cell_length_c     38.879699
_cell_angle_alpha  90.245234
_cell_angle_beta   86.166002
_cell_angle_gamma 83.620028
loop_
_atom_site_label
_atom_site_type_symbol
_atom_site_fract_x
_atom_site_fract_y
_atom_site_fract_z
_atom_type_partial_charge
H0 H 0.07308 0.40713 0.0155 0.0
H1 H 0.14851 0.28931 0.03774 0.0
H2 H 0.96038 0.31394 0.01851 0.0
C3 C 0.06803 0.37677 0.02097 0.0
C4 C 0.01161 0.36392 0.0169 0.0
C5 C 0.11848 0.34997 0.02742 0.0
C6 C 0.10994 0.31043 0.03326 0.0
C7 C 0.05246 0.29759 0.03079 0.0
C8 C 0.004 0.32422 0.02174 0.0
N9 N 0.04313 0.25761 0.03486 0.0
C10 C 0.07073 0.23394 0.05948 0.0
H11 H 0.02926 0.65679 0.99392 0.0
H12 H 0.08527 0.76453 0.03056 0.0
H13 H 0.89741 0.75645 0.01571 0.0
C14 C 0.01767 0.68609 0.00444 0.0
C15 C 0.95728 0.70318 0.00542 0.0
C16 C 0.0641 0.70798 0.01359 0.0
C17 C 0.04946 0.74723 0.02439 0.0
C18 C -0.01097 0.76461 0.02555 0.0
C19 C 0.94366 0.7426 0.0156 0.0
N20 N 0.97264 0.80462 0.0349 0.0
C21 C 0.00549 0.82568 0.05611 0.0
H22 H 0.58608 0.89224 0.50828 0.0
H23 H 0.67535 0.7744 0.51216 0.0
H24 H 0.48162 0.79542 0.52592 0.0
C25 C 0.58478 0.86132 0.51329 0.0
C26 C 0.52813 0.84722 0.51792 0.0
C27 C 0.63848 0.83535 0.51119 0.0
C28 C 0.63462 0.795 0.51478 0.0
C29 C 0.57846 0.78072 0.52102 0.0
C30 C 0.52512 0.8068 0.52256 0.0
N31 N 0.57594 0.73973 0.52233 0.0
C32 C 0.55905 0.72154 0.55269 0.0
H33 H 0.57588 0.16255 0.47095 0.0
H34 H 0.6011 0.26736 0.5265 0.0
H35 H 0.43023 0.25541 0.48361 0.0
C36 C 0.55786 0.19088 0.48191 0.0
C37 C 0.49871 0.20572 0.47595 0.0
C38 C 0.59458 0.21242 0.50076 0.0
C39 C 0.57194 0.25009 0.51305 0.0
C40 C 0.51206 0.26555 0.50719 0.0
C41 C 0.47579 0.24321 0.48861 0.0
N42 N 0.48754 0.30372 0.51875 0.0
C43 C 0.51001 0.32355 0.54545 0.0
Zn44 Zn 0.06706 0.09021 0.35189 0.0
Zn45 Zn 0.09379 0.93695 0.33982 0.0
Zn46 Zn 0.08063 1.01522 0.348 0.0
C47 C 0.08033 0.96746 0.2747 0.0
C48 C -0.00991 0.95889 0.38449 0.0
O49 O 0.15858 0.03247 0.37473 0.0
O50 O 0.12823 0.09531 0.38523 0.0
C51 C 0.08468 0.0745 0.28307 0.0
O52 O 0.07842 0.99962 0.2923 0.0
O53 O 0.08622 0.93477 0.28962 0.0
O54 O 0.02215 0.92891 0.3717 0.0
O55 O 0.00437 0.99349 0.37767 0.0
O56 O 0.08613 0.10325 0.30323 0.0
O57 O 0.07884 0.04013 0.29527 0.0
O58 O -0.00369 0.03486 0.37997 0.0
O59 O -0.01717 0.09884 0.37157 0.0
C60 C 0.96487 0.06848 0.38518 0.0
O61 O 0.16557 0.99126 0.37062 0.0
O62 O 0.17569 0.92788 0.35713 0.0
C63 C 0.16545 0.06548 0.38904 0.0
C64 C 0.19528 0.95679 0.37105 0.0
Zn65 Zn 0.54716 0.59167 0.84775 0.0
Zn66 Zn 0.56167 0.43547 0.84199 0.0
Zn67 Zn 0.55503 0.51319 0.84675 0.0
C68 C 0.55463 0.4624 0.7754 0.0
C69 C 0.45895 0.46062 0.88469 0.0
O70 O 0.6336 0.5296 0.873 0.0
O71 O 0.62162 0.5946 0.87226 0.0
C72 C 0.55035 0.57027 0.77916 0.0
O73 O 0.55137 0.49545 0.79177 0.0
O74 O 0.56057 0.43051 0.79156 0.0
O75 O 0.48742 0.42959 0.87161 0.0
O76 O 0.47714 0.49425 0.87776 0.0
O77 O 0.54861 0.60076 0.79765 0.0
O78 O 0.5521 0.53619 0.79323 0.0
O79 O 0.47346 0.53561 0.87957 0.0
O80 O 0.46921 0.60027 0.87593 0.0
C81 C 0.44746 0.57018 0.88773 0.0
O82 O 0.64102 0.48816 0.86812 0.0
O83 O 0.63918 0.42391 0.86308 0.0
C84 C 0.65069 0.56293 0.88115 0.0
C85 C 0.6653 0.45267 0.87215 0.0
H86 H 0.12756 0.22059 0.10237 0.0
C87 C 0.09211 0.21058 0.08779 0.0
H88 H 0.02688 0.17075 0.08441 0.0
H89 H 0.15531 0.05257 0.19084 0.0
H90 H 0.17907 1.01524 0.13764 0.0
H91 H 0.15519 0.04457 0.08167 0.0
H92 H 0.10753 0.11162 0.07857 0.0
C93 C 0.06255 0.18055 0.09899 0.0
C94 C 0.0739 0.16202 0.13282 0.0
C95 C 0.10086 0.12266 0.13425 0.0
C96 C 0.11362 0.1055 0.16663 0.0
C97 C 0.14285 0.06668 0.16714 0.0
C98 C 0.15719 0.045 0.13674 0.0
C99 C 0.14381 0.06154 0.10521 0.0
C100 C 0.11637 0.1 0.10379 0.0
H101 H 0.05792 0.06473 0.23023 0.0
C102 C 0.08485 0.08155 0.24573 0.0
H103 H 0.13882 0.12795 0.24773 0.0
H104 H 0.01233 0.23595 0.13961 0.0
H105 H -0.01574 0.27228 0.19274 0.0
H106 H 0.00729 0.24301 0.24883 0.0
H107 H 0.05814 0.17723 0.25202 0.0
C108 C 0.11239 0.1112 0.23174 0.0
C109 C 0.09809 0.1276 0.19751 0.0
C110 C 0.06899 0.16651 0.1961 0.0
C111 C 0.05639 0.18359 0.16378 0.0
C112 C 0.02503 0.2219 0.16329 0.0
C113 C 0.00804 0.24304 0.19369 0.0
C114 C 0.02095 0.22656 0.22524 0.0
C115 C 0.05064 0.18873 0.22662 0.0
H116 H 0.06232 0.83234 0.09874 0.0
C117 C 0.03296 0.84808 0.08099 0.0
H118 H -0.01577 0.9017 0.06839 0.0
H119 H 0.96017 0.95207 0.22658 0.0
H120 H 0.85558 0.94929 0.21402 0.0
H121 H 0.82972 0.92788 0.15673 0.0
H122 H 0.90832 0.90894 0.11176 0.0
C123 C 0.01596 0.88666 0.08533 0.0
C124 C 0.03091 0.90755 0.11677 0.0
C125 C -0.0159 0.9199 0.14233 0.0
C126 C -0.00103 0.93244 0.17532 0.0
C127 C 0.95156 0.94265 0.20099 0.0
C128 C 0.89123 0.94117 0.19414 0.0
C129 C 0.87667 0.92911 0.16189 0.0
C130 C 0.92234 0.91836 0.13626 0.0
H131 H 0.05828 0.99614 0.22524 0.0
C132 C 0.07213 0.9684 0.23727 0.0
H133 H 0.09235 0.90711 0.23027 0.0
H134 H 0.12963 0.89512 0.07082 0.0
H135 H 0.2341 0.90201 0.0823 0.0
H136 H 0.25988 0.92338 0.13968 0.0
H137 H 0.18129 0.9382 0.18592 0.0
C138 C 0.07723 0.93493 0.21865 0.0
C139 C 0.06052 0.93305 0.1824 0.0
C140 C 0.10665 0.92474 0.15571 0.0
C141 C 0.09185 0.91211 0.12277 0.0
C142 C 0.13878 0.90408 0.0965 0.0
C143 C 0.19874 0.90814 0.10271 0.0
C144 C 0.21326 0.92018 0.13503 0.0
C145 C 0.16791 0.92838 0.16135 0.0
H146 H 0.535 0.71946 0.60781 0.0
C147 C 0.54638 0.7018 0.58454 0.0
H148 H 0.56634 0.6451 0.56274 0.0
H149 H 0.65519 0.57703 0.70484 0.0
H150 H 0.74578 0.5644 0.66661 0.0
H151 H 0.74698 0.58665 0.60636 0.0
H152 H 0.65765 0.62195 0.58409 0.0
C153 C 0.55267 0.66247 0.58598 0.0
C154 C 0.54807 0.64219 0.61973 0.0
C155 C 0.6001 0.62028 0.63191 0.0
C156 C 0.59922 0.60703 0.66658 0.0
C157 C 0.65284 0.58718 0.67866 0.0
C158 C 0.70534 0.57985 0.65699 0.0
C159 C 0.70602 0.59238 0.62307 0.0
C160 C 0.65431 0.61258 0.61059 0.0
H161 H 0.55362 0.5478 0.72529 0.0
C162 C 0.55054 0.57403 0.74128 0.0
H163 H 0.54263 0.63595 0.74234 0.0
H164 H 0.43672 0.67446 0.60173 0.0
H165 H 0.34431 0.68423 0.63911 0.0
H166 H 0.34314 0.66233 0.69951 0.0
H167 H 0.43424 0.63024 0.72278 0.0
C168 C 0.54757 0.60949 0.72646 0.0
C169 C 0.54592 0.61521 0.68866 0.0
C170 C 0.49242 0.6339 0.67547 0.0
C171 C 0.4933 0.64709 0.64087 0.0
C172 C 0.43891 0.66499 0.62816 0.0
C173 C 0.38548 0.67047 0.64926 0.0
C174 C 0.38481 0.65811 0.68325 0.0
C175 C 0.43746 0.63993 0.69632 0.0
H176 H 0.56107 0.32594 0.59107 0.0
C177 C 0.52902 0.34258 0.57533 0.0
H178 H 0.47056 0.39479 0.57009 0.0
H179 H 0.49854 0.37754 0.73878 0.0
H180 H 0.4367 0.32421 0.73414 0.0
H181 H 0.40733 0.30312 0.67751 0.0
H182 H 0.44006 0.3351 0.62522 0.0
C183 C 0.50254 0.37806 0.58585 0.0
C184 C 0.5136 0.39422 0.62018 0.0
C185 C 0.49289 0.37574 0.65059 0.0
C186 C 0.50909 0.38828 0.68322 0.0
C187 C 0.48822 0.36902 0.7132 0.0
C188 C 0.45231 0.33847 0.71096 0.0
C189 C 0.43583 0.32658 0.67909 0.0
C190 C 0.45546 0.345 0.64922 0.0
H191 H 0.51898 0.48488 0.72652 0.0
C192 C 0.54671 0.46104 0.73805 0.0
H193 H 0.59444 0.40474 0.73155 0.0
H194 H 0.55232 0.43956 0.56737 0.0
H195 H 0.60903 0.49574 0.57221 0.0
H196 H 0.63788 0.51728 0.62878 0.0
H197 H 0.61028 0.48302 0.68096 0.0
C198 C 0.5676 0.42866 0.71945 0.0
C199 C 0.54495 0.41979 0.6855 0.0
C200 C 0.56181 0.44019 0.65536 0.0
C201 C 0.5457 0.42749 0.62262 0.0
C202 C 0.56347 0.44801 0.59282 0.0
C203 C 0.59602 0.48024 0.59524 0.0
C204 C 0.61225 0.49241 0.62713 0.0
C205 C 0.59588 0.47256 0.65691 0.0
H206 H 0.21523 0.33792 0.01043 0.0
C207 C 0.18091 0.36089 0.02061 0.0
H208 H 0.16125 0.4219 0.03046 0.0
H209 H 0.45225 0.39564 0.96955 0.0
H210 H 0.47295 0.36649 0.02487 0.0
H211 H 0.38955 0.35693 0.068 0.0
H212 H 0.28479 0.37665 0.05603 0.0
C213 C 0.19382 0.39832 0.01986 0.0
C214 C 0.24482 0.40918 0.9966 0.0
C215 C 0.30556 0.39769 0.00401 0.0
C216 C 0.35348 0.40324 0.97913 0.0
C217 C 0.41392 0.39174 0.98733 0.0
C218 C 0.42648 0.37509 0.01905 0.0
C219 C 0.37953 0.36969 0.04333 0.0
C220 C 0.31967 0.38091 0.03608 0.0
H221 H 0.38043 0.4846 0.91923 0.0
C222 C 0.4062 0.45789 0.90919 0.0
H223 H 0.41752 0.39599 0.91152 0.0
H224 H 0.13351 0.43902 0.97576 0.0
H225 H 0.1122 0.46667 0.92021 0.0
H226 H 0.19466 0.47189 0.87544 0.0
H227 H 0.2988 0.45071 0.88645 0.0
C228 C 0.39063 0.42307 0.92018 0.0
C229 C 0.3404 0.42011 0.94683 0.0
C230 C 0.27959 0.43248 0.93971 0.0
C231 C 0.23187 0.42792 0.965 0.0
C232 C 0.17155 0.44099 0.95741 0.0
C233 C 0.1586 0.45703 0.92555 0.0
C234 C 0.20502 0.46013 0.90042 0.0
C235 C 0.26482 0.44807 0.90723 0.0
H236 H 0.86996 0.69957 0.98256 0.0
C237 C 0.90864 0.68196 0.99244 0.0
H238 H 0.94748 0.624 0.00179 0.0
H239 H 0.65829 0.62422 0.95944 0.0
H240 H 0.63036 0.65751 0.01444 0.0
H241 H 0.70887 0.67415 0.0522 0.0
H242 H 0.8158 0.65803 0.03495 0.0
C243 C 0.91026 0.64258 0.99164 0.0
C244 C 0.86345 0.62368 0.97404 0.0
C245 C 0.80135 0.63198 0.98513 0.0
C246 C 0.75621 0.6216 0.96378 0.0
C247 C 0.69443 0.63145 0.97478 0.0
C248 C 0.67781 0.65039 0.00632 0.0
C249 C 0.722 0.65981 0.02756 0.0
C250 C 0.78314 0.65071 0.01725 0.0
H251 H 0.71598 0.53963 0.91858 0.0
C252 C 0.70147 0.56483 0.90333 0.0
H253 H 0.71158 0.62422 0.89287 0.0
H254 H 0.97855 0.59621 0.94872 0.0
H255 H 0.00567 0.55764 0.89632 0.0
H256 H 0.92709 0.53899 0.85976 0.0
H257 H 0.82051 0.55833 0.87543 0.0
C258 C 0.72699 0.5981 0.90694 0.0
C259 C 0.77338 0.60188 0.932 0.0
C260 C 0.8352 0.58941 0.92291 0.0
C261 C 0.8805 0.6003 0.94403 0.0
C262 C 0.94216 0.58863 0.93377 0.0
C263 C 0.95842 0.56649 0.90377 0.0
C264 C 0.91412 0.55592 0.88317 0.0
C265 C 0.85314 0.56725 0.89242 0.0
H266 H 0.95938 0.42236 0.01272 0.0
C267 C 0.96353 0.392 0.00384 0.0
H268 H 0.94052 0.35322 0.96594 0.0
H269 H 0.70408 0.4831 0.95528 0.0
H270 H 0.67485 0.4674 0.01456 0.0
H271 H 0.74479 0.42533 0.04899 0.0
H272 H 0.84455 0.39944 0.02466 0.0
C273 C 0.93216 0.38242 0.97745 0.0
C274 C 0.89299 0.41239 0.95946 0.0
C275 C 0.83484 0.42671 0.9742 0.0
C276 C 0.79382 0.44972 0.95404 0.0
C277 C 0.73624 0.46451 0.96931 0.0
C278 C 0.71909 0.45588 0.00329 0.0
C279 C 0.75852 0.43227 0.02269 0.0
C280 C 0.81573 0.41765 0.00842 0.0
H281 H 0.72301 0.41576 0.90492 0.0
C282 C 0.71905 0.44378 0.89174 0.0
H283 H 0.76273 0.49392 0.87945 0.0
H284 H 0.0063 0.39805 0.92709 0.0
H285 H 0.03731 0.41802 0.86924 0.0
H286 H 0.96424 0.45546 0.83335 0.0
H287 H 0.85996 0.47371 0.8553 0.0
C288 C 0.76185 0.46778 0.89496 0.0
C289 C 0.81016 0.45662 0.91886 0.0
C290 C 0.8706 0.44657 0.90562 0.0
C291 C 0.9123 0.42444 0.92608 0.0
C292 C 0.97257 0.41435 0.91234 0.0
C293 C -0.00907 0.4257 0.87926 0.0
C294 C 0.94979 0.4468 0.85906 0.0
C295 C 0.8901 0.45699 0.87189 0.0
H296 H 0.15945 0.71198 0.99601 0.0
C297 C 0.12841 0.69202 0.00653 0.0
H298 H 0.11729 0.63357 0.01977 0.0
H299 H 0.28585 0.57154 0.88918 0.0
H300 H 0.19148 0.54595 0.87968 0.0
H301 H 0.10273 0.55984 0.92101 0.0
H302 H 0.10698 0.60107 0.97111 0.0
C303 C 0.1476 0.65352 0.00858 0.0
C304 C 0.20501 0.63672 0.98958 0.0
C305 C 0.20234 0.61088 0.96123 0.0
C306 C 0.25434 0.60141 0.93817 0.0
C307 C 0.24888 0.57833 0.90844 0.0
C308 C 0.19468 0.56358 0.90249 0.0
C309 C 0.14459 0.57164 0.92562 0.0
C310 C 0.14783 0.59535 0.95442 0.0
H311 H 0.37783 0.54948 0.92447 0.0
C312 C 0.39301 0.57504 0.91182 0.0
H313 H 0.37844 0.63665 0.90736 0.0
H314 H 0.22832 0.67924 0.04578 0.0
H315 H 0.32465 0.7019 0.05749 0.0
H316 H 0.41519 0.68534 0.01779 0.0
H317 H 0.41009 0.64597 0.96627 0.0
C318 C 0.36252 0.61053 0.91888 0.0
C319 C 0.30955 0.61641 0.94449 0.0
C320 C 0.31337 0.63947 0.97446 0.0
C321 C 0.26112 0.64944 0.99714 0.0
C322 C 0.26638 0.67188 0.02722 0.0
C323 C 0.32145 0.68475 0.03438 0.0
C324 C 0.37243 0.6754 0.01204 0.0
C325 C 0.36879 0.65293 0.98247 0.0
H326 H 0.73239 0.82716 0.48802 0.0
C327 C 0.69798 0.84872 0.50032 0.0
H328 H 0.67754 0.90877 0.51466 0.0
H329 H 0.97313 0.88712 0.46567 0.0
H330 H -0.01427 0.85356 0.51997 0.0
H331 H 0.89686 0.8408 0.55792 0.0
H332 H 0.79475 0.86164 0.54177 0.0
C333 C 0.70992 0.88623 0.50229 0.0
C334 C 0.76359 0.89881 0.48246 0.0
C335 C 0.82277 0.88674 0.49239 0.0
C336 C 0.87387 0.8942 0.47054 0.0
C337 C 0.93261 0.8819 0.48112 0.0
C338 C 0.94051 0.86272 0.51228 0.0
C339 C 0.89048 0.85551 0.53365 0.0
C340 C 0.83217 0.86741 0.52399 0.0
H341 H 0.90952 0.98012 0.4186 0.0
C342 C 0.9362 0.95413 0.40756 0.0
H343 H 0.94646 0.89218 0.40519 0.0
H344 H 0.65602 0.92974 0.45794 0.0
H345 H 0.64295 0.96293 0.40358 0.0
H346 H 0.73118 0.97226 0.36389 0.0
H347 H 0.83291 0.94995 0.37882 0.0
C348 C 0.9192 0.91862 0.41507 0.0
C349 C 0.86555 0.91374 0.43885 0.0
C350 C 0.80621 0.92685 0.4294 0.0
C351 C 0.75522 0.9201 0.45167 0.0
C352 C 0.6964 0.93369 0.44184 0.0
C353 C 0.68817 0.95271 0.41067 0.0
C354 C 0.73785 0.95812 0.38839 0.0
C355 C 0.79621 0.94539 0.39746 0.0
H356 H 0.48838 0.16164 0.43595 0.0
C357 C 0.46357 0.18132 0.45534 0.0
H358 H 0.37947 0.1952 0.48356 0.0
H359 H 0.29547 0.10861 0.34445 0.0
H360 H 0.31918 0.16723 0.31436 0.0
H361 H 0.36825 0.21806 0.34346 0.0
H362 H 0.39384 0.2105 0.40289 0.0
C363 C 0.40451 0.17865 0.46229 0.0
C364 C 0.37507 0.14819 0.44457 0.0
C365 C 0.36079 0.15301 0.40975 0.0
C366 C 0.33207 0.12384 0.39311 0.0
C367 C 0.31732 0.12972 0.35847 0.0
C368 C 0.33069 0.16329 0.34083 0.0
C369 C 0.35837 0.19189 0.3572 0.0
C370 C 0.37311 0.18706 0.39129 0.0
H371 H 0.20467 0.08815 0.4336 0.0
C372 C 0.21582 0.07039 0.41031 0.0
H373 H 0.28431 0.0515 0.37212 0.0
H374 H 0.40275 0.12804 0.51024 0.0
H375 H 0.38159 0.06837 0.53987 0.0
H376 H 0.33007 0.01831 0.51116 0.0
H377 H 0.29957 0.02797 0.45272 0.0
C378 C 0.27328 0.06566 0.39715 0.0
C379 C 0.31656 0.0904 0.41162 0.0
C380 C 0.33371 0.08474 0.44585 0.0
C381 C 0.36308 0.11363 0.46235 0.0
C382 C 0.37997 0.1071 0.49652 0.0
C383 C 0.36816 0.07297 0.51382 0.0
C384 C 0.33917 0.04481 0.49769 0.0
C385 C 0.32185 0.05062 0.46417 0.0
H386 H 0.47424 0.90552 0.52079 0.0
C387 C 0.47366 0.87505 0.51307 0.0
H388 H 0.43138 0.83632 0.48264 0.0
H389 H 0.18541 0.94496 0.47233 0.0
H390 H 0.15473 0.90679 0.52149 0.0
H391 H 0.23029 0.86407 0.55172 0.0
H392 H 0.33721 0.85918 0.53278 0.0
C393 C 0.43115 0.86605 0.49243 0.0
C394 C 0.38763 0.89691 0.4783 0.0
C395 C 0.32573 0.90011 0.49009 0.0
C396 C 0.28233 0.92501 0.47282 0.0
C397 C 0.22046 0.92674 0.48456 0.0
C398 C 0.20219 0.90497 0.51279 0.0
C399 C 0.24473 0.88089 0.52979 0.0
C400 C 0.30585 0.87829 0.51864 0.0
H401 H 0.28257 0.92429 0.38101 0.0
C402 C 0.2502 0.94897 0.38989 0.0
H403 H 0.21978 0.98695 0.43171 0.0
H404 H 0.50391 0.90004 0.45036 0.0
H405 H 0.53508 0.94208 0.40423 0.0
H406 H 0.45993 0.98751 0.37622 0.0
H407 H 0.35277 0.99045 0.39399 0.0
C408 C 0.25498 0.96493 0.42098 0.0
C409 C 0.30114 0.94642 0.44367 0.0
C410 C 0.36367 0.94601 0.43393 0.0
C411 C 0.40703 0.92078 0.45088 0.0
C412 C 0.46894 0.9194 0.43921 0.0
C413 C 0.48754 0.94333 0.41259 0.0
C414 C 0.44523 0.96881 0.39675 0.0
C415 C 0.38392 0.9701 0.40707 0.0
H416 H 0.69257 0.21489 0.4923 0.0
C417 C 0.65879 0.1969 0.50297 0.0
H418 H 0.63982 0.14148 0.52026 0.0
H419 H 0.79974 0.06735 0.39176 0.0
H420 H 0.70331 0.04246 0.38662 0.0
H421 H 0.61946 0.05764 0.43094 0.0
H422 H 0.63061 0.09953 0.47963 0.0
C423 C 0.6743 0.15862 0.50918 0.0
C424 C 0.73013 0.13769 0.49149 0.0
C425 C 0.72439 0.10987 0.46503 0.0
C426 C 0.77389 0.09911 0.44055 0.0
C427 C 0.76483 0.07505 0.41204 0.0
C428 C 0.70951 0.06057 0.40867 0.0
C429 C 0.66215 0.0694 0.43346 0.0
C430 C 0.66912 0.09384 0.46125 0.0
H431 H 0.89704 0.0468 0.42255 0.0
C432 C 0.91037 0.07246 0.40921 0.0
H433 H 0.89455 0.13399 0.40461 0.0
H434 H 0.75937 0.18269 0.54448 0.0
H435 H 0.85821 0.20417 0.5524 0.0
H436 H 0.94539 0.18393 0.51117 0.0
H437 H 0.93442 0.14223 0.46186 0.0
C438 C 0.87976 0.10784 0.41664 0.0
C439 C 0.83008 0.114 0.4442 0.0
C440 C 0.83765 0.13791 0.47311 0.0
C441 C 0.78754 0.14977 0.49678 0.0
C442 C 0.796 0.1737 0.52539 0.0
C443 C 0.85246 0.18592 0.53034 0.0
C444 C 0.90154 0.1745 0.50714 0.0
C445 C 0.89455 0.15072 0.47885 0.0
loop_
_geom_bond_atom_site_label_1
_geom_bond_atom_site_label_2
_geom_bond_distance
_geom_bond_site_symmetry_2
_ccdc_geom_bond_type
H0 C3 0.929 . S
H1 C6 0.929 . S
H2 C8 0.930 . S
C3 H0 0.929 . S
C3 C4 1.398 . S
C3 C5 1.396 . S
C4 C3 1.398 . S
C4 C8 1.407 1_556 S
C5 C3 1.396 . S
C5 C6 1.394 1_556 S
C6 H1 0.929 . S
C6 C5 1.394 1_554 S
C6 C7 1.382 . S
C7 C6 1.382 . S
C7 C8 1.392 . S
C7 N9 1.420 . S
C8 H2 0.930 . S
C8 C4 1.407 1_554 S
C8 C7 1.392 . S
N9 C7 1.420 . S
N9 C10 1.244 . S
C10 N9 1.244 . S
H11 C14 0.929 . S
H12 C17 0.929 . S
H13 C19 0.930 . S
C14 H11 0.929 . S
C14 C15 1.398 1_455 S
C14 C16 1.396 . S
C15 C14 1.398 1_655 S
C15 C19 1.407 1_556 S
C16 C14 1.396 . S
C16 C17 1.394 1_556 S
C17 H12 0.929 . S
C17 C16 1.394 1_554 S
C17 C18 1.382 1_455 S
C18 C17 1.382 1_655 S
C18 C19 1.392 . S
C18 N20 1.420 . S
C19 H13 0.930 . S
C19 C15 1.407 1_554 S
C19 C18 1.392 . S
N20 C18 1.420 . S
N20 C21 1.244 1_655 S
C21 N20 1.244 1_455 S
H22 C25 0.929 . S
H23 C28 0.929 . S
H24 C30 0.930 . S
C25 H22 0.929 . S
C25 C26 1.398 . S
C25 C27 1.396 . S
C26 C25 1.398 . S
C26 C30 1.407 . S
C27 C25 1.396 . S
C27 C28 1.394 . S
C28 H23 0.929 . S
C28 C27 1.394 . S
C28 C29 1.382 . S
C29 C28 1.382 . S
C29 C30 1.392 . S
C29 N31 1.420 . S
C30 H24 0.930 . S
C30 C26 1.407 . S
C30 C29 1.392 . S
N31 C29 1.420 . S
N31 C32 1.244 . S
C32 N31 1.244 . S
H33 C36 0.929 . S
H34 C39 0.929 . S
H35 C41 0.930 . S
C36 H33 0.929 . S
C36 C37 1.398 . S
C36 C38 1.396 . S
C37 C36 1.398 . S
C37 C41 1.407 . S
C38 C36 1.396 . S
C38 C39 1.394 . S
C39 H34 0.929 . S
C39 C38 1.394 . S
C39 C40 1.382 . S
C40 C39 1.382 . S
C40 C41 1.392 . S
C40 N42 1.420 . S
C41 H35 0.930 . S
C41 C37 1.407 . S
C41 C40 1.392 . S
N42 C40 1.420 . S
N42 C43 1.244 . S
C43 N42 1.244 . S
Zn44 O50 1.920 . S
Zn44 O56 1.898 . S
Zn44 O59 1.905 1_455 S
Zn45 O53 1.905 . S
Zn45 O54 1.898 . S
Zn45 O62 1.920 . S
Zn46 O49 2.080 . S
Zn46 O52 2.114 1_545 S
Zn46 O55 2.120 1_545 S
Zn46 O57 2.120 . S
Zn46 O58 2.114 1_455 S
Zn46 O61 2.080 1_545 S
C47 O52 1.166 . S
C47 O53 1.182 . S
C48 O54 1.167 . S
C48 O55 1.299 . S
O49 Zn46 2.080 . S
O49 C63 1.305 . S
O50 Zn44 1.920 . S
O50 C63 1.234 . S
C51 O56 1.167 . S
C51 O57 1.299 . S
O52 Zn46 2.114 1_565 S
O52 C47 1.166 . S
O53 Zn45 1.905 . S
O53 C47 1.182 . S
O54 Zn45 1.898 . S
O54 C48 1.167 . S
O55 Zn46 2.120 1_565 S
O55 C48 1.299 . S
O56 Zn44 1.898 . S
O56 C51 1.167 . S
O57 Zn46 2.120 . S
O57 C51 1.299 . S
O58 Zn46 2.114 1_655 S
O58 C60 1.166 . S
O59 Zn44 1.905 1_655 S
O59 C60 1.182 . S
C60 O58 1.166 . S
C60 O59 1.182 . S
O61 Zn46 2.080 1_565 S
O61 C64 1.305 . S
O62 Zn45 1.920 . S
O62 C64 1.234 . S
C63 O49 1.305 . S
C63 O50 1.234 . S
C64 O61 1.305 . S
C64 O62 1.234 . S
Zn65 O71 1.920 . S
Zn65 O77 1.898 . S
Zn65 O80 1.905 . S
Zn66 O74 1.905 . S
Zn66 O75 1.898 . S
Zn66 O83 1.920 . S
Zn67 O70 2.080 . S
Zn67 O73 2.114 . S
Zn67 O76 2.120 . S
Zn67 O78 2.120 . S
Zn67 O79 2.114 . S
Zn67 O82 2.080 . S
C68 O73 1.166 . S
C68 O74 1.182 . S
C69 O75 1.167 . S
C69 O76 1.299 . S
O70 Zn67 2.080 . S
O70 C84 1.305 . S
O71 Zn65 1.920 . S
O71 C84 1.234 . S
C72 O77 1.167 . S
C72 O78 1.299 . S
O73 Zn67 2.114 . S
O73 C68 1.166 . S
O74 Zn66 1.905 . S
O74 C68 1.182 . S
O75 Zn66 1.898 . S
O75 C69 1.167 . S
O76 Zn67 2.120 . S
O76 C69 1.299 . S
O77 Zn65 1.898 . S
O77 C72 1.167 . S
O78 Zn67 2.120 . S
O78 C72 1.299 . S
O79 Zn67 2.114 . S
O79 C81 1.166 . S
O80 Zn65 1.905 . S
O80 C81 1.182 . S
C81 O79 1.166 . S
C81 O80 1.182 . S
O82 Zn67 2.080 . S
O82 C85 1.305 . S
O83 Zn66 1.920 . S
O83 C85 1.234 . S
C84 O70 1.305 . S
C84 O71 1.234 . S
C85 O82 1.305 . S
C85 O83 1.234 . S
H86 C87 0.951 . S
C87 H86 0.951 . S
C87 C93 1.265 . S
H88 C93 0.950 . S
H89 C97 0.949 . S
H90 C98 0.950 . S
H91 C99 0.951 . S
H92 C100 0.951 . S
C93 C87 1.265 . S
C93 H88 0.950 . S
C93 C94 1.478 . S
C94 C93 1.478 . S
C94 C95 1.397 . S
C94 C111 1.394 . S
C95 C94 1.397 . S
C95 C96 1.438 . S
C95 C100 1.429 . S
C96 C95 1.438 . S
C96 C97 1.428 . S
C96 C109 1.394 . S
C97 H89 0.949 . S
C97 C96 1.428 . S
C97 C98 1.345 . S
C98 H90 0.950 . S
C98 C97 1.345 . S
C98 C99 1.424 . S
C99 H91 0.951 . S
C99 C98 1.424 . S
C99 C100 1.347 . S
C100 H92 0.951 . S
C100 C95 1.429 . S
C100 C99 1.347 . S
H101 C102 0.951 . S
C102 H101 0.951 . S
C102 C108 1.265 . S
H103 C108 0.950 . S
H104 C112 0.949 . S
H105 C113 0.950 . S
H106 C114 0.951 . S
H107 C115 0.951 . S
C108 C102 1.265 . S
C108 H103 0.950 . S
C108 C109 1.478 . S
C109 C96 1.394 . S
C109 C108 1.478 . S
C109 C110 1.397 . S
C110 C109 1.397 . S
C110 C111 1.438 . S
C110 C115 1.429 . S
C111 C94 1.394 . S
C111 C110 1.438 . S
C111 C112 1.428 . S
C112 H104 0.949 . S
C112 C111 1.428 . S
C112 C113 1.345 . S
C113 H105 0.950 . S
C113 C112 1.345 . S
C113 C114 1.424 . S
C114 H106 0.951 . S
C114 C113 1.424 . S
C114 C115 1.347 . S
C115 H107 0.951 . S
C115 C110 1.429 . S
C115 C114 1.347 . S
H116 C117 0.951 . S
C117 H116 0.951 . S
C117 C123 1.265 1_455 S
H118 C123 0.950 . S
H119 C127 0.949 . S
H120 C128 0.950 . S
H121 C129 0.951 . S
H122 C130 0.951 . S
C123 C117 1.265 1_655 S
C123 H118 0.950 . S
C123 C124 1.478 1_655 S
C124 C123 1.478 1_455 S
C124 C125 1.397 1_455 S
C124 C141 1.394 . S
C125 C124 1.397 1_655 S
C125 C126 1.438 1_655 S
C125 C130 1.429 . S
C126 C125 1.438 1_455 S
C126 C127 1.428 . S
C126 C139 1.394 . S
C127 H119 0.949 . S
C127 C126 1.428 . S
C127 C128 1.345 1_455 S
C128 H120 0.950 . S
C128 C127 1.345 1_655 S
C128 C129 1.424 . S
C129 H121 0.951 . S
C129 C128 1.424 . S
C129 C130 1.347 . S
C130 H122 0.951 . S
C130 C125 1.429 . S
C130 C129 1.347 . S
H131 C132 0.951 1_655 S
C132 H131 0.951 1_455 S
C132 C138 1.265 . S
H133 C138 0.950 . S
H134 C142 0.949 . S
H135 C143 0.950 . S
H136 C144 0.951 . S
H137 C145 0.951 . S
C138 C132 1.265 . S
C138 H133 0.950 . S
C138 C139 1.478 . S
C139 C126 1.394 . S
C139 C138 1.478 . S
C139 C140 1.397 . S
C140 C139 1.397 . S
C140 C141 1.438 . S
C140 C145 1.429 . S
C141 C124 1.394 . S
C141 C140 1.438 . S
C141 C142 1.428 . S
C142 H134 0.949 . S
C142 C141 1.428 . S
C142 C143 1.345 . S
C143 H135 0.950 . S
C143 C142 1.345 . S
C143 C144 1.424 . S
C144 H136 0.951 . S
C144 C143 1.424 . S
C144 C145 1.347 . S
C145 H137 0.951 . S
C145 C140 1.429 . S
C145 C144 1.347 . S
H146 C147 0.951 . S
C147 H146 0.951 . S
C147 C153 1.265 . S
H148 C153 0.950 . S
H149 C157 0.949 . S
H150 C158 0.950 . S
H151 C159 0.951 . S
H152 C160 0.951 . S
C153 C147 1.265 . S
C153 H148 0.950 . S
C153 C154 1.478 . S
C154 C153 1.478 . S
C154 C155 1.397 . S
C154 C171 1.394 . S
C155 C154 1.397 . S
C155 C156 1.438 . S
C155 C160 1.429 . S
C156 C155 1.438 . S
C156 C157 1.428 . S
C156 C169 1.394 . S
C157 H149 0.949 . S
C157 C156 1.428 . S
C157 C158 1.345 . S
C158 H150 0.950 . S
C158 C157 1.345 . S
C158 C159 1.424 . S
C159 H151 0.951 . S
C159 C158 1.424 . S
C159 C160 1.347 . S
C160 H152 0.951 . S
C160 C155 1.429 . S
C160 C159 1.347 . S
H161 C162 0.951 . S
C162 H161 0.951 . S
C162 C168 1.265 . S
H163 C168 0.950 . S
H164 C172 0.949 . S
H165 C173 0.950 . S
H166 C174 0.951 . S
H167 C175 0.951 . S
C168 C162 1.265 . S
C168 H163 0.950 . S
C168 C169 1.478 . S
C169 C156 1.394 . S
C169 C168 1.478 . S
C169 C170 1.397 . S
C170 C169 1.397 . S
C170 C171 1.438 . S
C170 C175 1.429 . S
C171 C154 1.394 . S
C171 C170 1.438 . S
C171 C172 1.428 . S
C172 H164 0.949 . S
C172 C171 1.428 . S
C172 C173 1.345 . S
C173 H165 0.950 . S
C173 C172 1.345 . S
C173 C174 1.424 . S
C174 H166 0.951 . S
C174 C173 1.424 . S
C174 C175 1.347 . S
C175 H167 0.951 . S
C175 C170 1.429 . S
C175 C174 1.347 . S
H176 C177 0.951 . S
C177 H176 0.951 . S
C177 C183 1.265 . S
H178 C183 0.950 . S
H179 C187 0.949 . S
H180 C188 0.950 . S
H181 C189 0.951 . S
H182 C190 0.951 . S
C183 C177 1.265 . S
C183 H178 0.950 . S
C183 C184 1.478 . S
C184 C183 1.478 . S
C184 C185 1.397 . S
C184 C201 1.394 . S
C185 C184 1.397 . S
C185 C186 1.438 . S
C185 C190 1.429 . S
C186 C185 1.438 . S
C186 C187 1.428 . S
C186 C199 1.394 . S
C187 H179 0.949 . S
C187 C186 1.428 . S
C187 C188 1.345 . S
C188 H180 0.950 . S
C188 C187 1.345 . S
C188 C189 1.424 . S
C189 H181 0.951 . S
C189 C188 1.424 . S
C189 C190 1.347 . S
C190 H182 0.951 . S
C190 C185 1.429 . S
C190 C189 1.347 . S
H191 C192 0.951 . S
C192 H191 0.951 . S
C192 C198 1.265 . S
H193 C198 0.950 . S
H194 C202 0.949 . S
H195 C203 0.950 . S
H196 C204 0.951 . S
H197 C205 0.951 . S
C198 C192 1.265 . S
C198 H193 0.950 . S
C198 C199 1.478 . S
C199 C186 1.394 . S
C199 C198 1.478 . S
C199 C200 1.397 . S
C200 C199 1.397 . S
C200 C201 1.438 . S
C200 C205 1.429 . S
C201 C184 1.394 . S
C201 C200 1.438 . S
C201 C202 1.428 . S
C202 H194 0.949 . S
C202 C201 1.428 . S
C202 C203 1.345 . S
C203 H195 0.950 . S
C203 C202 1.345 . S
C203 C204 1.424 . S
C204 H196 0.951 . S
C204 C203 1.424 . S
C204 C205 1.347 . S
C205 H197 0.951 . S
C205 C200 1.429 . S
C205 C204 1.347 . S
H206 C207 0.951 . S
C207 H206 0.951 . S
C207 C213 1.265 . S
H208 C213 0.950 . S
H209 C217 0.949 . S
H210 C218 0.950 . S
H211 C219 0.951 . S
H212 C220 0.951 . S
C213 C207 1.265 . S
C213 H208 0.950 . S
C213 C214 1.478 . S
C214 C213 1.478 . S
C214 C215 1.397 . S
C214 C231 1.394 . S
C215 C214 1.397 . S
C215 C216 1.438 . S
C215 C220 1.429 . S
C216 C215 1.438 . S
C216 C217 1.428 . S
C216 C229 1.394 . S
C217 H209 0.949 . S
C217 C216 1.428 . S
C217 C218 1.345 . S
C218 H210 0.950 . S
C218 C217 1.345 . S
C218 C219 1.424 . S
C219 H211 0.951 . S
C219 C218 1.424 . S
C219 C220 1.347 . S
C220 H212 0.951 . S
C220 C215 1.429 . S
C220 C219 1.347 . S
H221 C222 0.951 . S
C222 H221 0.951 . S
C222 C228 1.265 . S
H223 C228 0.950 . S
H224 C232 0.949 . S
H225 C233 0.950 . S
H226 C234 0.951 . S
H227 C235 0.951 . S
C228 C222 1.265 . S
C228 H223 0.950 . S
C228 C229 1.478 . S
C229 C216 1.394 . S
C229 C228 1.478 . S
C229 C230 1.397 . S
C230 C229 1.397 . S
C230 C231 1.438 . S
C230 C235 1.429 . S
C231 C214 1.394 . S
C231 C230 1.438 . S
C231 C232 1.428 1_556 S
C232 H224 0.949 . S
C232 C231 1.428 1_554 S
C232 C233 1.345 . S
C233 H225 0.950 . S
C233 C232 1.345 . S
C233 C234 1.424 . S
C234 H226 0.951 . S
C234 C233 1.424 . S
C234 C235 1.347 1_554 S
C235 H227 0.951 . S
C235 C230 1.429 . S
C235 C234 1.347 1_556 S
H236 C237 0.951 . S
C237 H236 0.951 . S
C237 C243 1.265 . S
H238 C243 0.950 1_554 S
H239 C247 0.949 . S
H240 C248 0.950 . S
H241 C249 0.951 . S
H242 C250 0.951 . S
C243 C237 1.265 . S
C243 H238 0.950 1_556 S
C243 C244 1.478 . S
C244 C243 1.478 . S
C244 C245 1.397 . S
C244 C261 1.394 . S
C245 C244 1.397 . S
C245 C246 1.438 . S
C245 C250 1.429 1_556 S
C246 C245 1.438 . S
C246 C247 1.428 . S
C246 C259 1.394 . S
C247 H239 0.949 . S
C247 C246 1.428 . S
C247 C248 1.345 . S
C248 H240 0.950 . S
C248 C247 1.345 . S
C248 C249 1.424 1_556 S
C249 H241 0.951 . S
C249 C248 1.424 1_554 S
C249 C250 1.347 . S
C250 H242 0.951 . S
C250 C245 1.429 1_554 S
C250 C249 1.347 . S
H251 C252 0.951 . S
C252 H251 0.951 . S
C252 C258 1.265 . S
H253 C258 0.950 . S
H254 C262 0.949 . S
H255 C263 0.950 . S
H256 C264 0.951 . S
H257 C265 0.951 . S
C258 C252 1.265 . S
C258 H253 0.950 . S
C258 C259 1.478 . S
C259 C246 1.394 . S
C259 C258 1.478 . S
C259 C260 1.397 . S
C260 C259 1.397 . S
C260 C261 1.438 . S
C260 C265 1.429 . S
C261 C244 1.394 . S
C261 C260 1.438 . S
C261 C262 1.428 . S
C262 H254 0.949 . S
C262 C261 1.428 . S
C262 C263 1.345 . S
C263 H255 0.950 . S
C263 C262 1.345 . S
C263 C264 1.424 . S
C264 H256 0.951 . S
C264 C263 1.424 . S
C264 C265 1.347 . S
C265 H257 0.951 . S
C265 C260 1.429 . S
C265 C264 1.347 . S
H266 C267 0.951 . S
C267 H266 0.951 . S
C267 C273 1.265 1_455 S
H268 C273 0.950 . S
H269 C277 0.949 . S
H270 C278 0.950 1_554 S
H271 C279 0.951 . S
H272 C280 0.948 1_554 S
C273 C267 1.265 1_655 S
C273 H268 0.950 . S
C273 C274 1.478 . S
C274 C273 1.478 . S
C274 C275 1.397 . S
C274 C291 1.394 . S
C275 C274 1.397 . S
C275 C276 1.438 . S
C275 C280 1.434 . S
C276 C275 1.438 . S
C276 C277 1.428 . S
C276 C289 1.394 . S
C277 H269 0.949 . S
C277 C276 1.428 . S
C277 C278 1.345 . S
C278 H270 0.950 1_556 S
C278 C277 1.345 . S
C278 C279 1.424 1_556 S
C279 H271 0.951 . S
C279 C278 1.424 1_554 S
C279 C280 1.345 1_554 S
C280 H272 0.948 1_556 S
C280 C275 1.434 . S
C280 C279 1.345 1_556 S
H281 C282 0.951 . S
C282 H281 0.951 . S
C282 C288 1.265 . S
H283 C288 0.950 . S
H284 C292 0.949 1_455 S
H285 C293 0.950 . S
H286 C294 0.951 . S
H287 C295 0.951 . S
C288 C282 1.265 . S
C288 H283 0.950 . S
C288 C289 1.478 . S
C289 C276 1.394 . S
C289 C288 1.478 . S
C289 C290 1.397 . S
C290 C289 1.397 . S
C290 C291 1.438 . S
C290 C295 1.429 . S
C291 C274 1.394 . S
C291 C290 1.438 . S
C291 C292 1.428 . S
C292 H284 0.949 1_655 S
C292 C291 1.428 . S
C292 C293 1.345 1_655 S
C293 H285 0.950 . S
C293 C292 1.345 1_455 S
C293 C294 1.424 1_455 S
C294 H286 0.951 . S
C294 C293 1.424 1_655 S
C294 C295 1.347 . S
C295 H287 0.951 . S
C295 C290 1.429 . S
C295 C294 1.347 . S
H296 C297 0.951 . S
C297 H296 0.951 . S
C297 C303 1.265 . S
H298 C303 0.950 . S
H299 C307 0.949 . S
H300 C308 0.950 . S
H301 C309 0.951 . S
H302 C310 0.951 . S
C303 C297 1.265 . S
C303 H298 0.950 . S
C303 C304 1.478 . S
C304 C303 1.478 . S
C304 C305 1.397 . S
C304 C321 1.394 . S
C305 C304 1.397 . S
C305 C306 1.438 . S
C305 C310 1.429 . S
C306 C305 1.438 . S
C306 C307 1.428 . S
C306 C319 1.394 . S
C307 H299 0.949 . S
C307 C306 1.428 . S
C307 C308 1.345 . S
C308 H300 0.950 . S
C308 C307 1.345 . S
C308 C309 1.424 . S
C309 H301 0.951 . S
C309 C308 1.424 . S
C309 C310 1.347 . S
C310 H302 0.951 . S
C310 C305 1.429 . S
C310 C309 1.347 . S
H311 C312 0.951 . S
C312 H311 0.951 . S
C312 C318 1.265 . S
H313 C318 0.950 . S
H314 C322 0.949 . S
H315 C323 0.950 1_554 S
H316 C324 0.951 . S
H317 C325 0.951 . S
C318 C312 1.265 . S
C318 H313 0.950 . S
C318 C319 1.478 . S
C319 C306 1.394 . S
C319 C318 1.478 . S
C319 C320 1.397 . S
C320 C319 1.397 . S
C320 C321 1.438 . S
C320 C325 1.429 . S
C321 C304 1.394 . S
C321 C320 1.438 . S
C321 C322 1.428 . S
C322 H314 0.949 . S
C322 C321 1.428 . S
C322 C323 1.345 . S
C323 H315 0.950 1_556 S
C323 C322 1.345 . S
C323 C324 1.424 . S
C324 H316 0.951 . S
C324 C323 1.424 . S
C324 C325 1.347 . S
C325 H317 0.951 . S
C325 C320 1.429 . S
C325 C324 1.347 . S
H326 C327 0.951 . S
C327 H326 0.951 . S
C327 C333 1.265 . S
H328 C333 0.950 . S
H329 C337 0.949 1_455 S
H330 C338 0.950 . S
H331 C339 0.951 . S
H332 C340 0.951 . S
C333 C327 1.265 . S
C333 H328 0.950 . S
C333 C334 1.478 . S
C334 C333 1.478 . S
C334 C335 1.397 . S
C334 C351 1.394 . S
C335 C334 1.397 . S
C335 C336 1.438 . S
C335 C340 1.429 . S
C336 C335 1.438 . S
C336 C337 1.428 . S
C336 C349 1.394 . S
C337 H329 0.949 1_655 S
C337 C336 1.428 . S
C337 C338 1.345 1_655 S
C338 H330 0.950 . S
C338 C337 1.345 1_455 S
C338 C339 1.424 1_455 S
C339 H331 0.951 . S
C339 C338 1.424 1_655 S
C339 C340 1.347 . S
C340 H332 0.951 . S
C340 C335 1.429 . S
C340 C339 1.347 . S
H341 C342 0.951 . S
C342 H341 0.951 . S
C342 C348 1.265 . S
H343 C348 0.950 . S
H344 C352 0.949 . S
H345 C353 0.950 . S
H346 C354 0.951 . S
H347 C355 0.951 . S
C348 C342 1.265 . S
C348 H343 0.950 . S
C348 C349 1.478 . S
C349 C336 1.394 . S
C349 C348 1.478 . S
C349 C350 1.397 . S
C350 C349 1.397 . S
C350 C351 1.438 . S
C350 C355 1.429 . S
C351 C334 1.394 . S
C351 C350 1.438 . S
C351 C352 1.428 . S
C352 H344 0.949 . S
C352 C351 1.428 . S
C352 C353 1.345 . S
C353 H345 0.950 . S
C353 C352 1.345 . S
C353 C354 1.424 . S
C354 H346 0.951 . S
C354 C353 1.424 . S
C354 C355 1.347 . S
C355 H347 0.951 . S
C355 C350 1.429 . S
C355 C354 1.347 . S
H356 C357 0.951 . S
C357 H356 0.951 . S
C357 C363 1.265 . S
H358 C363 0.950 . S
H359 C367 0.949 . S
H360 C368 0.950 . S
H361 C369 0.951 . S
H362 C370 0.951 . S
C363 C357 1.265 . S
C363 H358 0.950 . S
C363 C364 1.478 . S
C364 C363 1.478 . S
C364 C365 1.397 . S
C364 C381 1.394 . S
C365 C364 1.397 . S
C365 C366 1.438 . S
C365 C370 1.429 . S
C366 C365 1.438 . S
C366 C367 1.428 . S
C366 C379 1.394 . S
C367 H359 0.949 . S
C367 C366 1.428 . S
C367 C368 1.345 . S
C368 H360 0.950 . S
C368 C367 1.345 . S
C368 C369 1.424 . S
C369 H361 0.951 . S
C369 C368 1.424 . S
C369 C370 1.347 . S
C370 H362 0.951 . S
C370 C365 1.429 . S
C370 C369 1.347 . S
H371 C372 0.951 . S
C372 H371 0.951 . S
C372 C378 1.265 . S
H373 C378 0.950 . S
H374 C382 0.949 . S
H375 C383 0.950 . S
H376 C384 0.951 . S
H377 C385 0.951 . S
C378 C372 1.265 . S
C378 H373 0.950 . S
C378 C379 1.478 . S
C379 C366 1.394 . S
C379 C378 1.478 . S
C379 C380 1.397 . S
C380 C379 1.397 . S
C380 C381 1.438 . S
C380 C385 1.429 . S
C381 C364 1.394 . S
C381 C380 1.438 . S
C381 C382 1.428 . S
C382 H374 0.949 . S
C382 C381 1.428 . S
C382 C383 1.345 . S
C383 H375 0.950 . S
C383 C382 1.345 . S
C383 C384 1.424 . S
C384 H376 0.951 . S
C384 C383 1.424 . S
C384 C385 1.347 . S
C385 H377 0.951 . S
C385 C380 1.429 . S
C385 C384 1.347 . S
H386 C387 0.951 . S
C387 H386 0.951 . S
C387 C393 1.265 . S
H388 C393 0.950 . S
H389 C397 0.949 . S
H390 C398 0.950 . S
H391 C399 0.951 . S
H392 C400 0.951 . S
C393 C387 1.265 . S
C393 H388 0.950 . S
C393 C394 1.478 . S
C394 C393 1.478 . S
C394 C395 1.397 . S
C394 C411 1.394 . S
C395 C394 1.397 . S
C395 C396 1.438 . S
C395 C400 1.429 . S
C396 C395 1.438 . S
C396 C397 1.428 . S
C396 C409 1.394 . S
C397 H389 0.949 . S
C397 C396 1.428 . S
C397 C398 1.345 . S
C398 H390 0.950 . S
C398 C397 1.345 . S
C398 C399 1.424 . S
C399 H391 0.951 . S
C399 C398 1.424 . S
C399 C400 1.347 . S
C400 H392 0.951 . S
C400 C395 1.429 . S
C400 C399 1.347 . S
H401 C402 0.951 . S
C402 H401 0.951 . S
C402 C408 1.265 . S
H403 C408 0.950 . S
H404 C412 0.949 . S
H405 C413 0.950 . S
H406 C414 0.951 . S
H407 C415 0.951 . S
C408 C402 1.265 . S
C408 H403 0.950 . S
C408 C409 1.478 . S
C409 C396 1.394 . S
C409 C408 1.478 . S
C409 C410 1.397 . S
C410 C409 1.397 . S
C410 C411 1.438 . S
C410 C415 1.429 . S
C411 C394 1.394 . S
C411 C410 1.438 . S
C411 C412 1.428 . S
C412 H404 0.949 . S
C412 C411 1.428 . S
C412 C413 1.345 . S
C413 H405 0.950 . S
C413 C412 1.345 . S
C413 C414 1.424 . S
C414 H406 0.951 . S
C414 C413 1.424 . S
C414 C415 1.347 . S
C415 H407 0.951 . S
C415 C410 1.429 . S
C415 C414 1.347 . S
H416 C417 0.951 . S
C417 H416 0.951 . S
C417 C423 1.265 . S
H418 C423 0.950 . S
H419 C427 0.949 . S
H420 C428 0.950 . S
H421 C429 0.951 . S
H422 C430 0.951 . S
C423 C417 1.265 . S
C423 H418 0.950 . S
C423 C424 1.478 . S
C424 C423 1.478 . S
C424 C425 1.397 . S
C424 C441 1.394 . S
C425 C424 1.397 . S
C425 C426 1.438 . S
C425 C430 1.429 . S
C426 C425 1.438 . S
C426 C427 1.428 . S
C426 C439 1.394 . S
C427 H419 0.949 . S
C427 C426 1.428 . S
C427 C428 1.345 . S
C428 H420 0.950 . S
C428 C427 1.345 . S
C428 C429 1.424 . S
C429 H421 0.951 . S
C429 C428 1.424 . S
C429 C430 1.347 . S
C430 H422 0.951 . S
C430 C425 1.429 . S
C430 C429 1.347 . S
H431 C432 0.951 . S
C432 H431 0.951 . S
C432 C438 1.265 . S
H433 C438 0.950 . S
H434 C442 0.949 . S
H435 C443 0.950 . S
H436 C444 0.951 . S
H437 C445 0.951 . S
C438 C432 1.265 . S
C438 H433 0.950 . S
C438 C439 1.478 . S
C439 C426 1.394 . S
C439 C438 1.478 . S
C439 C440 1.397 . S
C440 C439 1.397 . S
C440 C441 1.438 . S
C440 C445 1.429 . S
C441 C424 1.394 . S
C441 C440 1.438 . S
C441 C442 1.428 . S
C442 H434 0.949 . S
C442 C441 1.428 . S
C442 C443 1.345 . S
C443 H435 0.950 . S
C443 C442 1.345 . S
C443 C444 1.424 . S
C444 H436 0.951 . S
C444 C443 1.424 . S
C444 C445 1.347 . S
C445 H437 0.951 . S
C445 C440 1.429 . S
C445 C444 1.347 . S
C102 C51 1.389 . S
C87 C10 1.523 . S
C132 C47 1.403 . S
C117 C21 1.471 . S
C162 C72 1.420 . S
C147 C32 1.517 . S
C177 C43 1.478 . S
C192 C68 1.382 . S
C207 C5 1.184 . S
C222 C69 1.051 . S
C252 C84 1.193 . S
C237 C15 1.255 . S
C267 C4 1.706 . S
C282 C85 1.519 . S
C312 C81 1.661 . S
C297 C16 1.753 . S
C342 C48 1.139 1_655 S
C327 C27 1.213 . S
C357 C37 1.220 . S
C372 C63 1.065 . S
C402 C64 1.524 . S
C387 C26 1.704 . S
C432 C60 1.569 . S
C417 C38 1.720 . S
