# Generated by pormake.
# Topology ctn, (3,4)-cn, num edge types: 1
# Building blocks:
#     Node 0, Type 0, BuildingBlock: VETTIZ_charged_linker_0, # of connection points: 3
#     Node 1, Type 0, BuildingBlock: VETTIZ_charged_linker_0, # of connection points: 3
#     Node 2, Type 0, BuildingBlock: VETTIZ_charged_linker_0, # of connection points: 3
#     Node 3, Type 0, BuildingBlock: VETTIZ_charged_linker_0, # of connection points: 3
#     Node 4, Type 0, BuildingBlock: VETTIZ_charged_linker_0, # of connection points: 3
#     Node 5, Type 0, BuildingBlock: VETTIZ_charged_linker_0, # of connection points: 3
#     Node 6, Type 0, BuildingBlock: VETTIZ_charged_linker_0, # of connection points: 3
#     Node 7, Type 0, BuildingBlock: VETTIZ_charged_linker_0, # of connection points: 3
#     Node 8, Type 0, BuildingBlock: VETTIZ_charged_linker_0, # of connection points: 3
#     Node 9, Type 0, BuildingBlock: VETTIZ_charged_linker_0, # of connection points: 3
#     Node 10, Type 0, BuildingBlock: VETTIZ_charged_linker_0, # of connection points: 3
#     Node 11, Type 0, BuildingBlock: VETTIZ_charged_linker_0, # of connection points: 3
#     Node 12, Type 0, BuildingBlock: VETTIZ_charged_linker_0, # of connection points: 3
#     Node 13, Type 0, BuildingBlock: VETTIZ_charged_linker_0, # of connection points: 3
#     Node 14, Type 0, BuildingBlock: VETTIZ_charged_linker_0, # of connection points: 3
#     Node 15, Type 0, BuildingBlock: VETTIZ_charged_linker_0, # of connection points: 3
#     Node 16, Type 1, BuildingBlock: UXUYUI_clean_sbu_0, # of connection points: 4
#     Node 17, Type 1, BuildingBlock: UXUYUI_clean_sbu_0, # of connection points: 4
#     Node 18, Type 1, BuildingBlock: UXUYUI_clean_sbu_0, # of connection points: 4
#     Node 19, Type 1, BuildingBlock: UXUYUI_clean_sbu_0, # of connection points: 4
#     Node 20, Type 1, BuildingBlock: UXUYUI_clean_sbu_0, # of connection points: 4
#     Node 21, Type 1, BuildingBlock: UXUYUI_clean_sbu_0, # of connection points: 4
#     Node 22, Type 1, BuildingBlock: UXUYUI_clean_sbu_0, # of connection points: 4
#     Node 23, Type 1, BuildingBlock: UXUYUI_clean_sbu_0, # of connection points: 4
#     Node 24, Type 1, BuildingBlock: UXUYUI_clean_sbu_0, # of connection points: 4
#     Node 25, Type 1, BuildingBlock: UXUYUI_clean_sbu_0, # of connection points: 4
#     Node 26, Type 1, BuildingBlock: UXUYUI_clean_sbu_0, # of connection points: 4
#     Node 27, Type 1, BuildingBlock: UXUYUI_clean_sbu_0, # of connection points: 4
#     Edge 28, Type (0, 1), BuildingBlock: XIVTED_clean_linker_0, # of connection points: 2
#     Edge 29, Type (0, 1), BuildingBlock: XIVTED_clean_linker_0, # of connection points: 2
#     Edge 30, Type (0, 1), BuildingBlock: XIVTED_clean_linker_0, # of connection points: 2
#     Edge 31, Type (0, 1), BuildingBlock: XIVTED_clean_linker_0, # of connection points: 2
#     Edge 32, Type (0, 1), BuildingBlock: XIVTED_clean_linker_0, # of connection points: 2
#     Edge 33, Type (0, 1), BuildingBlock: XIVTED_clean_linker_0, # of connection points: 2
#     Edge 34, Type (0, 1), BuildingBlock: XIVTED_clean_linker_0, # of connection points: 2
#     Edge 35, Type (0, 1), BuildingBlock: XIVTED_clean_linker_0, # of connection points: 2
#     Edge 36, Type (0, 1), BuildingBlock: XIVTED_clean_linker_0, # of connection points: 2
#     Edge 37, Type (0, 1), BuildingBlock: XIVTED_clean_linker_0, # of connection points: 2
#     Edge 38, Type (0, 1), BuildingBlock: XIVTED_clean_linker_0, # of connection points: 2
#     Edge 39, Type (0, 1), BuildingBlock: XIVTED_clean_linker_0, # of connection points: 2
#     Edge 40, Type (0, 1), BuildingBlock: XIVTED_clean_linker_0, # of connection points: 2
#     Edge 41, Type (0, 1), BuildingBlock: XIVTED_clean_linker_0, # of connection points: 2
#     Edge 42, Type (0, 1), BuildingBlock: XIVTED_clean_linker_0, # of connection points: 2
#     Edge 43, Type (0, 1), BuildingBlock: XIVTED_clean_linker_0, # of connection points: 2
#     Edge 44, Type (0, 1), BuildingBlock: XIVTED_clean_linker_0, # of connection points: 2
#     Edge 45, Type (0, 1), BuildingBlock: XIVTED_clean_linker_0, # of connection points: 2
#     Edge 46, Type (0, 1), BuildingBlock: XIVTED_clean_linker_0, # of connection points: 2
#     Edge 47, Type (0, 1), BuildingBlock: XIVTED_clean_linker_0, # of connection points: 2
#     Edge 48, Type (0, 1), BuildingBlock: XIVTED_clean_linker_0, # of connection points: 2
#     Edge 49, Type (0, 1), BuildingBlock: XIVTED_clean_linker_0, # of connection points: 2
#     Edge 50, Type (0, 1), BuildingBlock: XIVTED_clean_linker_0, # of connection points: 2
#     Edge 51, Type (0, 1), BuildingBlock: XIVTED_clean_linker_0, # of connection points: 2
#     Edge 52, Type (0, 1), BuildingBlock: XIVTED_clean_linker_0, # of connection points: 2
#     Edge 53, Type (0, 1), BuildingBlock: XIVTED_clean_linker_0, # of connection points: 2
#     Edge 54, Type (0, 1), BuildingBlock: XIVTED_clean_linker_0, # of connection points: 2
#     Edge 55, Type (0, 1), BuildingBlock: XIVTED_clean_linker_0, # of connection points: 2
#     Edge 56, Type (0, 1), BuildingBlock: XIVTED_clean_linker_0, # of connection points: 2
#     Edge 57, Type (0, 1), BuildingBlock: XIVTED_clean_linker_0, # of connection points: 2
#     Edge 58, Type (0, 1), BuildingBlock: XIVTED_clean_linker_0, # of connection points: 2
#     Edge 59, Type (0, 1), BuildingBlock: XIVTED_clean_linker_0, # of connection points: 2
#     Edge 60, Type (0, 1), BuildingBlock: XIVTED_clean_linker_0, # of connection points: 2
#     Edge 61, Type (0, 1), BuildingBlock: XIVTED_clean_linker_0, # of connection points: 2
#     Edge 62, Type (0, 1), BuildingBlock: XIVTED_clean_linker_0, # of connection points: 2
#     Edge 63, Type (0, 1), BuildingBlock: XIVTED_clean_linker_0, # of connection points: 2
#     Edge 64, Type (0, 1), BuildingBlock: XIVTED_clean_linker_0, # of connection points: 2
#     Edge 65, Type (0, 1), BuildingBlock: XIVTED_clean_linker_0, # of connection points: 2
#     Edge 66, Type (0, 1), BuildingBlock: XIVTED_clean_linker_0, # of connection points: 2
#     Edge 67, Type (0, 1), BuildingBlock: XIVTED_clean_linker_0, # of connection points: 2
#     Edge 68, Type (0, 1), BuildingBlock: XIVTED_clean_linker_0, # of connection points: 2
#     Edge 69, Type (0, 1), BuildingBlock: XIVTED_clean_linker_0, # of connection points: 2
#     Edge 70, Type (0, 1), BuildingBlock: XIVTED_clean_linker_0, # of connection points: 2
#     Edge 71, Type (0, 1), BuildingBlock: XIVTED_clean_linker_0, # of connection points: 2
#     Edge 72, Type (0, 1), BuildingBlock: XIVTED_clean_linker_0, # of connection points: 2
#     Edge 73, Type (0, 1), BuildingBlock: XIVTED_clean_linker_0, # of connection points: 2
#     Edge 74, Type (0, 1), BuildingBlock: XIVTED_clean_linker_0, # of connection points: 2
#     Edge 75, Type (0, 1), BuildingBlock: XIVTED_clean_linker_0, # of connection points: 2
# Relax obj value: 0.000
# Max RMSD: 0.002
# Mean RMSD: 0.001
data_MOF--net-ctn--node1-UXUYUI_clean_sbu_0--node2-VETTIZ_charged_linker_0--edge1-XIVTED_clean_linker_0
_symmetry_space_group_name_H-M    P1
_symmetry_Int_Tables_number       1
_symmetry_cell_setting            triclinic
loop_
_symmetry_equiv_pos_as_xyz
'x, y, z'
_cell_length_a     80.734926
_cell_length_b     80.749964
_cell_length_c     80.743837
_cell_angle_alpha  89.99073
_cell_angle_beta   89.99682
_cell_angle_gamma 89.99817
loop_
_atom_site_label
_atom_site_type_symbol
_atom_site_fract_x
_atom_site_fract_y
_atom_site_fract_z
_atom_type_partial_charge
C0 C 0.0348 0.08109 0.99832 0.0
C1 C 0.02103 0.09169 0.99945 0.0
C2 C 0.00902 0.0887 0.01177 0.0
C3 C 0.02469 0.06505 0.02168 0.0
C4 C 0.03631 0.06786 0.00943 0.0
C5 C 0.05001 0.05523 0.00968 0.0
H6 H 0.08434 0.98692 0.04418 0.0
C7 C 0.02998 0.05034 0.03123 0.0
C8 C 0.04475 0.04446 0.02417 0.0
H9 H 0.10214 0.01531 0.0024 0.0
H10 H 0.07898 0.03398 0.00496 0.0
H11 H 0.07493 0.01805 0.06631 0.0
H12 H 0.04562 0.98756 0.03388 0.0
H13 H 0.03376 0.99135 0.05173 0.0
H14 H 0.05315 0.98039 0.05353 0.0
H15 H 0.06859 0.9975 0.07191 0.0
H16 H 0.05566 0.01526 0.07597 0.0
C17 C 0.06652 0.06437 0.01316 0.0
C18 C 0.04958 0.04562 0.99307 0.0
C19 C 0.99681 0.03183 0.0815 0.0
C20 C 0.99887 0.01887 0.09298 0.0
C21 C 0.01215 0.00772 0.0908 0.0
C22 C 0.02329 0.00958 0.07763 0.0
C23 C 0.02122 0.02274 0.06644 0.0
C24 C 0.00807 0.03352 0.0684 0.0
C25 C 0.00778 0.04673 0.05525 0.0
C26 C 0.02308 0.04226 0.04526 0.0
C27 C 0.0309 0.02821 0.05188 0.0
C28 C 0.00959 0.06378 0.06386 0.0
C29 C 0.99167 0.04468 0.04501 0.0
C30 C 0.08315 0.99707 0.03549 0.0
C31 C 0.09509 0.99962 0.02305 0.0
C32 C 0.09322 0.01317 0.01219 0.0
C33 C 0.0797 0.02395 0.01364 0.0
C34 C 0.06788 0.02125 0.02614 0.0
C35 C 0.06975 0.00801 0.03683 0.0
C36 C 0.05617 0.00727 0.04957 0.0
C37 C 0.04573 0.02212 0.04463 0.0
C38 C 0.05264 0.03023 0.03088 0.0
C39 C 0.06412 0.00951 0.0669 0.0
C40 C 0.04666 0.99077 0.04724 0.0
H41 H 0.0013 0.07394 0.03207 0.0
H42 H 0.04411 0.08292 0.98883 0.0
H43 H 0.03662 0.04397 0.98867 0.0
H44 H 0.05454 0.03292 0.9941 0.0
H45 H 0.05648 0.05235 0.98326 0.0
H46 H 0.06459 0.0748 0.02197 0.0
H47 H 0.07183 0.0696 0.0016 0.0
H48 H 0.07588 0.05641 0.01917 0.0
H49 H 0.98685 0.04071 0.08284 0.0
H50 H 0.01388 0.99744 0.09924 0.0
H51 H 0.03314 1.0007 0.07671 0.0
H52 H 0.01877 0.06308 0.07412 0.0
H53 H 0.99761 0.06789 0.06923 0.0
H54 H 0.01428 0.07354 0.05554 0.0
H55 H 0.98784 0.03146 0.04437 0.0
H56 H 0.99317 0.04848 0.03195 0.0
H57 H 0.98128 0.05175 0.05062 0.0
H58 H 0.99836 0.09676 0.01297 0.0
C59 C 0.01079 0.07548 0.0229 0.0
C60 C 0.2543 0.66664 0.22897 0.0
C61 C 0.2413 0.66232 0.21817 0.0
C62 C 0.23876 0.67201 0.20383 0.0
C63 C 0.26183 0.68974 0.21124 0.0
C64 C 0.26443 0.68021 0.22519 0.0
C65 C 0.27922 0.68593 0.23498 0.0
H66 H 0.34473 0.73765 0.24263 0.0
C67 C 0.2747 0.70276 0.21079 0.0
C68 C 0.28502 0.7005 0.2246 0.0
H69 H 0.33006 0.69773 0.27525 0.0
H70 H 0.30644 0.69207 0.258 0.0
H71 H 0.3076 0.75228 0.2383 0.0
H72 H 0.33715 0.71927 0.20863 0.0
H73 H 0.327 0.73293 0.19506 0.0
H74 H 0.34139 0.74104 0.21009 0.0
H75 H 0.32479 0.75941 0.22615 0.0
H76 H 0.30426 0.75762 0.21749 0.0
C77 C 0.27316 0.69147 0.25232 0.0
C78 C 0.2921 0.67168 0.23521 0.0
C79 C 0.27433 0.74574 0.16477 0.0
C80 C 0.28478 0.75917 0.1609 0.0
C81 C 0.29862 0.76225 0.17114 0.0
C82 C 0.30191 0.75228 0.18496 0.0
C83 C 0.29131 0.73898 0.18866 0.0
C84 C 0.27784 0.73585 0.17859 0.0
C85 C 0.26812 0.72099 0.18423 0.0
C86 C 0.2778 0.71592 0.19953 0.0
C87 C 0.29136 0.72651 0.20207 0.0
C88 C 0.25036 0.72677 0.18861 0.0
C89 C 0.26895 0.70765 0.17043 0.0
C90 C 0.33636 0.72779 0.24616 0.0
C91 C 0.33944 0.71804 0.2603 0.0
C92 C 0.32824 0.70523 0.26428 0.0
C93 C 0.31443 0.702 0.25428 0.0
C94 C 0.31169 0.71168 0.24008 0.0
C95 C 0.32246 0.72443 0.23632 0.0
C96 C 0.3174 0.7336 0.2209 0.0
C97 C 0.30197 0.72408 0.21591 0.0
C98 C 0.29872 0.71123 0.22716 0.0
C99 C 0.31338 0.75172 0.2258 0.0
C100 C 0.33144 0.7318 0.20794 0.0
H101 H 0.24628 0.69251 0.18926 0.0
H102 H 0.2566 0.65967 0.24019 0.0
H103 H 0.29196 0.66474 0.22331 0.0
H104 H 0.30497 0.6761 0.23649 0.0
H105 H 0.28939 0.66272 0.24529 0.0
H106 H 0.26078 0.69748 0.25151 0.0
H107 H 0.27202 0.68073 0.26085 0.0
H108 H 0.28125 0.70089 0.25805 0.0
H109 H 0.26352 0.74304 0.15732 0.0
H110 H 0.30708 0.77228 0.16834 0.0
H111 H 0.31265 0.75528 0.19219 0.0
H112 H 0.2507 0.73875 0.19541 0.0
H113 H 0.24284 0.72862 0.17724 0.0
H114 H 0.24378 0.71811 0.19687 0.0
H115 H 0.28062 0.70867 0.16316 0.0
H116 H 0.26912 0.6949 0.1754 0.0
H117 H 0.25846 0.70893 0.16162 0.0
H118 H 0.22913 0.66888 0.19505 0.0
C119 C 0.24887 0.68569 0.20036 0.0
C120 C 0.9799 0.41717 0.00313 0.0
C121 C 0.97007 0.41369 0.98916 0.0
C122 C 0.95685 0.42444 0.98528 0.0
C123 C 0.96314 0.44139 0.00924 0.0
C124 C 0.97625 0.43103 0.01292 0.0
C125 C 0.98548 0.43647 0.02817 0.0
H126 H 0.99237 0.48902 0.09317 0.0
C127 C 0.9625 0.45445 0.02206 0.0
C128 C 0.97559 0.45166 0.03316 0.0
H129 H 0.02443 0.44813 0.08026 0.0
H130 H 0.00784 0.44249 0.05605 0.0
H131 H 0.95777 0.47074 0.08436 0.0
H132 H 0.9895 0.50329 0.05649 0.0
H133 H 0.969 0.50893 0.05193 0.0
H134 H 0.97648 0.51067 0.07292 0.0
H135 H 0.95969 0.49241 0.08892 0.0
H136 H 0.94503 0.4849 0.07384 0.0
C137 C 0.98419 0.42248 0.04124 0.0
C138 C 0.00345 0.44094 0.02306 0.0
C139 C 0.9168 0.49773 0.02037 0.0
C140 C 0.91268 0.51111 0.03075 0.0
C141 C 0.92261 0.51426 0.04477 0.0
C142 C 0.93634 0.50426 0.04841 0.0
C143 C 0.94024 0.49092 0.03795 0.0
C144 C 0.93054 0.48785 0.02419 0.0
C145 C 0.93649 0.4731 0.0145 0.0
C146 C 0.95141 0.46785 0.02468 0.0
C147 C 0.95353 0.47831 0.03841 0.0
C148 C 0.92261 0.45984 0.01473 0.0
C149 C 0.94154 0.47906 0.99697 0.0
C150 C 0.99571 0.47877 0.08518 0.0
C151 C 0.00968 0.46896 0.08865 0.0
C152 C 0.0138 0.45594 0.07778 0.0
C153 C 0.00411 0.45264 0.06377 0.0
C154 C 0.99015 0.46252 0.06049 0.0
C155 C 0.98624 0.47542 0.07104 0.0
C156 C 0.97126 0.48492 0.06531 0.0
C157 C 0.96676 0.47551 0.04966 0.0
C158 C 0.97779 0.46233 0.04697 0.0
C159 C 0.95768 0.48334 0.07877 0.0
C160 C 0.97668 0.50295 0.06154 0.0
H161 H 0.94311 0.44588 0.99159 0.0
H162 H 0.99008 0.40914 0.00659 0.0
H163 H 0.0039 0.44579 0.01017 0.0
H164 H 0.00879 0.45097 0.03069 0.0
H165 H 0.01168 0.42994 0.02365 0.0
H166 H 0.97156 0.41696 0.04122 0.0
H167 H 0.99317 0.4124 0.03858 0.0
H168 H 0.98614 0.42686 0.05403 0.0
H169 H 0.90959 0.49506 0.00938 0.0
H170 H 0.91962 0.52432 0.05312 0.0
H171 H 0.94333 0.50728 0.0593 0.0
H172 H 0.91609 0.45977 0.02687 0.0
H173 H 0.91323 0.46233 0.00498 0.0
H174 H 0.92732 0.4471 0.01322 0.0
H175 H 0.94699 0.49171 0.99744 0.0
H176 H 0.95127 0.4713 0.99129 0.0
H177 H 0.93066 0.47952 0.98856 0.0
H178 H 0.94926 0.4223 0.97444 0.0
C179 C 0.95334 0.43823 0.99522 0.0
C180 C 0.67044 0.78472 0.25479 0.0
C181 C 0.65953 0.77124 0.25315 0.0
C182 C 0.66225 0.75965 0.24037 0.0
C183 C 0.68627 0.77511 0.23107 0.0
C184 C 0.6837 0.78636 0.24371 0.0
C185 C 0.6966 0.79981 0.2439 0.0
H186 H 0.76471 0.83463 0.20953 0.0
C187 C 0.70106 0.78043 0.22168 0.0
C188 C 0.70722 0.79486 0.22919 0.0
H189 H 0.73772 0.85069 0.25294 0.0
H190 H 0.71871 0.82792 0.24978 0.0
H191 H 0.73289 0.82568 0.18763 0.0
H192 H 0.76436 0.79597 0.21877 0.0
H193 H 0.7599 0.78418 0.20106 0.0
H194 H 0.77096 0.80347 0.19891 0.0
H195 H 0.75364 0.82016 0.18184 0.0
H196 H 0.73629 0.80685 0.1773 0.0
C197 C 0.68775 0.81659 0.24102 0.0
C198 C 0.70626 0.79864 0.26045 0.0
C199 C 0.71939 0.74793 0.17096 0.0
C200 C 0.73246 0.74996 0.15961 0.0
C201 C 0.74358 0.76326 0.16185 0.0
C202 C 0.74165 0.77437 0.17504 0.0
C203 C 0.72847 0.77222 0.1862 0.0
C204 C 0.71765 0.75914 0.18409 0.0
C205 C 0.70439 0.75876 0.19719 0.0
C206 C 0.709 0.77383 0.20744 0.0
C207 C 0.72309 0.78167 0.20094 0.0
C208 C 0.6874 0.7609 0.18853 0.0
C209 C 0.70625 0.74245 0.20715 0.0
C210 C 0.75481 0.83317 0.21846 0.0
C211 C 0.75274 0.84457 0.23149 0.0
C212 C 0.73949 0.84228 0.24265 0.0
C213 C 0.7285 0.82896 0.24086 0.0
C214 C 0.73073 0.81772 0.22776 0.0
C215 C 0.74374 0.81991 0.21686 0.0
C216 C 0.74422 0.80671 0.20372 0.0
C217 C 0.7294 0.79621 0.20857 0.0
C218 C 0.72152 0.80275 0.22263 0.0
C219 C 0.74176 0.81517 0.18666 0.0
C220 C 0.76073 0.79707 0.20552 0.0
H221 H 0.67684 0.75234 0.21983 0.0
H222 H 0.66883 0.7937 0.26462 0.0
H223 H 0.70729 0.78556 0.26467 0.0
H224 H 0.7192 0.80295 0.25939 0.0
H225 H 0.69994 0.80572 0.27041 0.0
H226 H 0.67757 0.81523 0.23182 0.0
H227 H 0.68223 0.82133 0.25269 0.0
H228 H 0.69598 0.82616 0.23578 0.0
H229 H 0.7105 0.73799 0.16955 0.0
H230 H 0.75391 0.76499 0.15347 0.0
H231 H 0.75053 0.7842 0.17604 0.0
H232 H 0.6883 0.76992 0.17815 0.0
H233 H 0.68296 0.74897 0.18332 0.0
H234 H 0.67776 0.76598 0.19679 0.0
H235 H 0.71948 0.73868 0.20804 0.0
H236 H 0.70212 0.74365 0.22014 0.0
H237 H 0.69939 0.73215 0.20116 0.0
H238 H 0.65394 0.74925 0.23876 0.0
C239 C 0.67552 0.76153 0.22933 0.0
C240 C 0.03516 0.91885 0.50336 0.0
C241 C 0.02229 0.90727 0.50121 0.0
C242 C 0.01139 0.90925 0.48768 0.0
C243 C 0.02607 0.93396 0.47899 0.0
C244 C 0.03683 0.93198 0.49214 0.0
C245 C 0.04999 0.94517 0.49253 0.0
H246 H 0.08303 0.01477 0.45947 0.0
C247 C 0.03118 0.9489 0.4697 0.0
C248 C 0.04522 0.9555 0.47755 0.0
H249 H 0.10097 0.9862 0.50114 0.0
H250 H 0.07828 0.96714 0.49804 0.0
H251 H 0.04432 0.01249 0.46837 0.0
H252 H 0.07568 0.98334 0.43661 0.0
H253 H 0.05672 0.98587 0.42629 0.0
H254 H 0.06904 0.00384 0.43118 0.0
H255 H 0.05197 0.02007 0.44892 0.0
H256 H 0.03304 0.00827 0.45025 0.0
C257 C 0.0481 0.95501 0.50888 0.0
C258 C 0.06708 0.93669 0.49027 0.0
C259 C 0.99843 0.96716 0.41908 0.0
C260 C 1.00009 0.98054 0.40802 0.0
C261 C 0.013 0.99203 0.41059 0.0
C262 C 0.02409 0.99019 0.42381 0.0
C263 C 0.02233 0.9767 0.43466 0.0
C264 C 0.00962 0.9655 0.43223 0.0
C265 C 0.00963 0.95195 0.44503 0.0
C266 C 0.02448 0.95683 0.45548 0.0
C267 C 0.03188 0.97132 0.44934 0.0
C268 C 0.99321 0.95309 0.45492 0.0
C269 C 0.01236 0.9352 0.43606 0.0
C270 C 0.0822 0.00435 0.46786 0.0
C271 C 0.09388 0.00213 0.48063 0.0
C272 C 0.09206 0.98845 0.49138 0.0
C273 C 0.07892 0.97727 0.48947 0.0
C274 C 0.06744 0.97964 0.47662 0.0
C275 C 0.06922 0.99297 0.46605 0.0
C276 C 0.05607 0.99332 0.45285 0.0
C277 C 0.04611 0.97799 0.45725 0.0
C278 C 0.05277 0.97008 0.47123 0.0
C279 C 0.04581 0.00939 0.45503 0.0
C280 C 0.0647 0.99163 0.43578 0.0
H281 H 0.0045 0.92326 0.46659 0.0
H282 H 0.04369 0.91785 0.51366 0.0
H283 H 0.06604 0.92541 0.48243 0.0
H284 H 0.07612 0.94461 0.48372 0.0
H285 H 0.07237 0.93286 0.50238 0.0
H286 H 0.03479 0.95701 0.51185 0.0
H287 H 0.05376 0.9482 0.51942 0.0
H288 H 0.05354 0.96753 0.50828 0.0
H289 H 0.98878 0.95799 0.4174 0.0
H290 H 0.01443 0.0026 0.40245 0.0
H291 H 0.03361 0.99937 0.42507 0.0
H292 H 0.98951 0.96624 0.45676 0.0
H293 H 0.98297 0.94678 0.44825 0.0
H294 H 0.99418 0.94793 0.46753 0.0
H295 H 0.02079 0.93672 0.42526 0.0
H296 H 0.01848 0.92585 0.44395 0.0
H297 H 1.00048 0.93008 0.43138 0.0
H298 H 0.00156 0.9004 0.48549 0.0
C299 C 0.01319 0.92251 0.47662 0.0
C300 C 0.25472 0.66979 0.78333 0.0
C301 C 0.25299 0.65867 0.77001 0.0
C302 C 0.23996 0.66116 0.75862 0.0
C303 C 0.23074 0.68531 0.7739 0.0
C304 C 0.24356 0.68297 0.78498 0.0
C305 C 0.24379 0.69595 0.79834 0.0
H306 H 0.20964 0.76427 0.8329 0.0
C307 C 0.22136 0.70014 0.77916 0.0
C308 C 0.229 0.70647 0.79344 0.0
H309 H 0.25282 0.73702 0.84917 0.0
H310 H 0.24963 0.71801 0.82642 0.0
H311 H 0.18753 0.73229 0.8239 0.0
H312 H 0.21882 0.76382 0.79439 0.0
H313 H 0.20139 0.75906 0.7823 0.0
H314 H 0.19877 0.77032 0.80143 0.0
H315 H 0.1821 0.75324 0.81878 0.0
H316 H 0.17714 0.73625 0.80519 0.0
C317 C 0.2411 0.68721 0.81522 0.0
C318 C 0.26029 0.70567 0.79695 0.0
C319 C 0.17036 0.71812 0.74689 0.0
C320 C 0.15919 0.73141 0.74867 0.0
C321 C 0.16176 0.74284 0.76164 0.0
C322 C 0.17501 0.74099 0.7727 0.0
C323 C 0.18594 0.72759 0.77081 0.0
C324 C 0.18359 0.7165 0.75799 0.0
C325 C 0.19663 0.7032 0.7577 0.0
C326 C 0.20708 0.70802 0.77257 0.0
C327 C 0.20072 0.72228 0.78024 0.0
C328 C 0.18795 0.68628 0.76025 0.0
C329 C 0.20641 0.70472 0.74124 0.0
C330 C 0.2185 0.7543 0.83148 0.0
C331 C 0.23148 0.75216 0.84293 0.0
C332 C 0.24257 0.73885 0.84071 0.0
C333 C 0.24076 0.72785 0.8274 0.0
C334 C 0.22771 0.73013 0.81612 0.0
C335 C 0.21687 0.7432 0.81825 0.0
C336 C 0.20371 0.74366 0.80505 0.0
C337 C 0.20846 0.72872 0.79466 0.0
C338 C 0.22252 0.72085 0.80122 0.0
C339 C 0.18666 0.74136 0.81355 0.0
C340 C 0.20558 0.76008 0.79528 0.0
H341 H 0.21923 0.67556 0.75142 0.0
H342 H 0.26443 0.6682 0.79244 0.0
H343 H 0.26418 0.70692 0.78379 0.0
H344 H 0.25932 0.71853 0.80151 0.0
H345 H 0.27042 0.69926 0.8037 0.0
H346 H 0.23228 0.67669 0.81395 0.0
H347 H 0.25292 0.68216 0.82013 0.0
H348 H 0.23547 0.69536 0.82464 0.0
H349 H 0.16874 0.709 0.73719 0.0
H350 H 0.1536 0.75338 0.76317 0.0
H351 H 0.17624 0.75011 0.78228 0.0
H352 H 0.17781 0.68735 0.76953 0.0
H353 H 0.1824 0.68175 0.74851 0.0
H354 H 0.19629 0.67665 0.76521 0.0
H355 H 0.20714 0.71785 0.7371 0.0
H356 H 0.21945 0.70075 0.74241 0.0
H357 H 0.20038 0.69753 0.73119 0.0
H358 H 0.23846 0.653 0.74809 0.0
C359 C 0.22885 0.67437 0.7605 0.0
C360 C 0.91679 0.50434 0.48072 0.0
C361 C 0.91245 0.49132 0.46999 0.0
C362 C 0.92239 0.48825 0.45596 0.0
C363 C 0.94039 0.51113 0.46333 0.0
C364 C 0.93069 0.51409 0.47711 0.0
C365 C 0.93668 0.52877 0.48691 0.0
H366 H 0.98999 0.59305 0.49483 0.0
C367 C 0.95365 0.52375 0.46292 0.0
C368 C 0.9515 0.53417 0.47667 0.0
H369 H 0.94998 0.57915 0.5276 0.0
H370 H 0.94369 0.55563 0.51028 0.0
H371 H 0.97077 0.58606 0.46069 0.0
H372 H 0.00376 0.55617 0.49001 0.0
H373 H 0.00882 0.55266 0.46916 0.0
H374 H 0.01097 0.5732 0.47768 0.0
H375 H 0.99261 0.59003 0.46189 0.0
H376 H 0.98412 0.57576 0.44695 0.0
C377 C 0.92277 0.54199 0.48695 0.0
C378 C 0.94186 0.52263 0.50435 0.0
C379 C 0.99628 0.52302 0.41655 0.0
C380 C 0.00962 0.53348 0.41253 0.0
C381 C 0.01291 0.54728 0.42269 0.0
C382 C 0.00316 0.55058 0.43667 0.0
C383 C 0.98988 0.54001 0.44054 0.0
C384 C 0.98659 0.52654 0.43051 0.0
C385 C 0.9717 0.51693 0.43628 0.0
C386 C 0.96681 0.52667 0.45161 0.0
C387 C 0.97752 0.54015 0.45405 0.0
C388 C 0.95827 0.51785 0.42257 0.0
C389 C 0.97739 0.49915 0.44064 0.0
C390 C 0.97979 0.585 0.49818 0.0
C391 C 0.97041 0.588 0.51255 0.0
C392 C 0.95746 0.57704 0.51666 0.0
C393 C 0.95377 0.56343 0.50653 0.0
C394 C 0.96317 0.56067 0.49214 0.0
C395 C 0.97603 0.57127 0.48827 0.0
C396 C 0.98501 0.56612 0.47277 0.0
C397 C 0.97526 0.5508 0.46787 0.0
C398 C 0.96242 0.54774 0.47919 0.0
C399 C 0.98321 0.58019 0.45985 0.0
C400 C 0.00313 0.5619 0.47749 0.0
H401 H 0.94337 0.49505 0.44174 0.0
H402 H 0.9093 0.50714 0.4915 0.0
H403 H 0.94709 0.50989 0.50376 0.0
H404 H 0.95182 0.5302 0.5099 0.0
H405 H 0.9311 0.52232 0.51291 0.0
H406 H 0.91644 0.54246 0.47471 0.0
H407 H 0.91325 0.53914 0.49647 0.0
H408 H 0.92741 0.55468 0.48899 0.0
H409 H 0.99327 0.51246 0.40884 0.0
H410 H 0.02319 0.55545 0.41994 0.0
H411 H 0.00635 0.56124 0.44392 0.0
H412 H 0.95912 0.52967 0.41553 0.0
H413 H 0.95963 0.50755 0.41356 0.0
H414 H 0.94553 0.51777 0.42759 0.0
H415 H 0.98958 0.49938 0.44707 0.0
H416 H 0.96893 0.49277 0.44927 0.0
H417 H 0.97879 0.49149 0.4293 0.0
H418 H 0.91943 0.47818 0.44761 0.0
C419 C 0.93633 0.49804 0.4526 0.0
C420 C 0.7846 0.74643 0.83127 0.0
C421 C 0.77145 0.74803 0.84259 0.0
C422 C 0.76013 0.76117 0.84062 0.0
C423 C 0.77514 0.77087 0.81648 0.0
C424 C 0.78615 0.75789 0.81833 0.0
C425 C 0.79922 0.75779 0.80505 0.0
H426 H 0.83344 0.79385 0.73748 0.0
C427 C 0.78024 0.78056 0.8018 0.0
C428 C 0.7943 0.77291 0.795 0.0
H429 H 0.84908 0.74918 0.76251 0.0
H430 H 0.82643 0.75182 0.78183 0.0
H431 H 0.82457 0.81496 0.77094 0.0
H432 H 0.79552 0.78533 0.7375 0.0
H433 H 0.78287 0.80191 0.74361 0.0
H434 H 0.80177 0.80602 0.73237 0.0
H435 H 0.82026 0.82093 0.74995 0.0
H436 H 0.80618 0.8258 0.76656 0.0
C437 C 0.8163 0.76005 0.81349 0.0
C438 C 0.79742 0.74156 0.79495 0.0
C439 C 0.74819 0.83233 0.78567 0.0
C440 C 0.74976 0.84362 0.7725 0.0
C441 C 0.76251 0.84129 0.7608 0.0
C442 C 0.7736 0.82801 0.76226 0.0
C443 C 0.77191 0.81685 0.77552 0.0
C444 C 0.75929 0.81904 0.78687 0.0
C445 C 0.75906 0.80565 0.79982 0.0
C446 C 0.77372 0.79516 0.79446 0.0
C447 C 0.78126 0.80185 0.78029 0.0
C448 C 0.76199 0.81384 0.81691 0.0
C449 C 0.74246 0.7961 0.79833 0.0
C450 C 0.83205 0.78473 0.74722 0.0
C451 C 0.8431 0.77133 0.74853 0.0
C452 C 0.84066 0.75954 0.76118 0.0
C453 C 0.82755 0.76115 0.77244 0.0
C454 C 0.81666 0.77466 0.77103 0.0
C455 C 0.81893 0.7861 0.7585 0.0
C456 C 0.80587 0.79938 0.75861 0.0
C457 C 0.79551 0.79415 0.77341 0.0
C458 C 0.80194 0.77972 0.78069 0.0
C459 C 0.81455 0.81623 0.76156 0.0
C460 C 0.796 0.79829 0.74217 0.0
H461 H 0.75294 0.78236 0.82691 0.0
H462 H 0.79337 0.73633 0.8323 0.0
H463 H 0.78426 0.73751 0.79436 0.0
H464 H 0.80118 0.74299 0.78187 0.0
H465 H 0.80467 0.73134 0.80063 0.0
H466 H 0.81546 0.76915 0.82381 0.0
H467 H 0.82081 0.74817 0.81876 0.0
H468 H 0.82583 0.76508 0.80509 0.0
H469 H 0.73836 0.83366 0.79471 0.0
H470 H 0.76403 0.84988 0.75061 0.0
H471 H 0.78308 0.82698 0.75301 0.0
H472 H 0.77144 0.82383 0.81596 0.0
H473 H 0.75041 0.81949 0.82174 0.0
H474 H 0.76692 0.80517 0.82626 0.0
H475 H 0.73803 0.79585 0.78527 0.0
H476 H 0.74357 0.78292 0.80184 0.0
H477 H 0.73262 0.80199 0.80593 0.0
H478 H 0.74999 0.76276 0.84926 0.0
C479 C 0.76191 0.77259 0.82767 0.0
C480 C 0.28356 0.24709 0.33223 0.0
C481 C 0.27047 0.24879 0.34362 0.0
C482 C 0.25908 0.26188 0.34146 0.0
C483 C 0.27405 0.27136 0.31721 0.0
C484 C 0.28508 0.25843 0.31919 0.0
C485 C 0.2983 0.25837 0.30605 0.0
H486 H 0.33393 0.2953 0.23981 0.0
C487 C 0.27929 0.28108 0.30259 0.0
C488 C 0.29348 0.2735 0.29597 0.0
H489 H 0.34832 0.2496 0.26391 0.0
H490 H 0.32561 0.25235 0.28299 0.0
H491 H 0.32435 0.3157 0.2729 0.0
H492 H 0.29572 0.28654 0.2387 0.0
H493 H 0.28316 0.30325 0.2446 0.0
H494 H 0.30237 0.30716 0.23382 0.0
H495 H 0.3202 0.32208 0.25201 0.0
H496 H 0.30597 0.32658 0.26859 0.0
C497 C 0.31529 0.26064 0.31469 0.0
C498 C 0.29665 0.24215 0.29591 0.0
C499 C 0.24719 0.33269 0.28597 0.0
C500 C 0.24914 0.34429 0.27309 0.0
C501 C 0.26237 0.34222 0.26185 0.0
C502 C 0.27346 0.32897 0.26345 0.0
C503 C 0.27136 0.31754 0.2764 0.0
C504 C 0.25835 0.31947 0.28735 0.0
C505 C 0.25796 0.30602 0.30025 0.0
C506 C 0.27285 0.2957 0.29521 0.0
C507 C 0.28069 0.30255 0.28127 0.0
C508 C 0.26039 0.31419 0.31745 0.0
C509 C 0.24151 0.29631 0.29831 0.0
C510 C 0.33216 0.28577 0.24908 0.0
C511 C 0.34317 0.27229 0.25035 0.0
C512 C 0.34035 0.26033 0.26279 0.0
C513 C 0.32703 0.26186 0.27382 0.0
C514 C 0.31625 0.27544 0.27242 0.0
C515 C 0.31881 0.28702 0.26009 0.0
C516 C 0.30577 0.30034 0.26011 0.0
C517 C 0.29508 0.29493 0.27461 0.0
C518 C 0.30136 0.28042 0.28185 0.0
C519 C 0.31441 0.31714 0.26346 0.0
C520 C 0.29626 0.29946 0.24345 0.0
H521 H 0.25175 0.28282 0.32744 0.0
H522 H 0.29264 0.2373 0.33356 0.0
H523 H 0.28354 0.23793 0.29536 0.0
H524 H 0.30032 0.24369 0.28281 0.0
H525 H 0.30405 0.232 0.30151 0.0
H526 H 0.31436 0.26985 0.3249 0.0
H527 H 0.31969 0.24879 0.32012 0.0
H528 H 0.32495 0.26553 0.30636 0.0
H529 H 0.2373 0.33395 0.29495 0.0
H530 H 0.26406 0.35075 0.25164 0.0
H531 H 0.28324 0.32812 0.25449 0.0
H532 H 0.26937 0.32462 0.31668 0.0
H533 H 0.24853 0.31923 0.32225 0.0
H534 H 0.26569 0.30568 0.32673 0.0
H535 H 0.23778 0.29555 0.28507 0.0
H536 H 0.24249 0.2833 0.30241 0.0
H537 H 0.23129 0.30245 0.30517 0.0
H538 H 0.24871 0.26335 0.34983 0.0
C539 C 0.26081 0.27314 0.32836 0.0
C540 C 0.4802 0.91469 0.50734 0.0
C541 C 0.47113 0.91183 0.49278 0.0
C542 C 0.45864 0.92309 0.48815 0.0
C543 C 0.46409 0.93954 0.51269 0.0
C544 C 0.47661 0.92867 0.51697 0.0
C545 C 0.4856 0.93398 0.5324 0.0
H546 H 0.49277 0.98715 0.59674 0.0
C547 C 0.46347 0.95271 0.52539 0.0
C548 C 0.47616 0.94962 0.53687 0.0
H549 H 0.52415 0.9454 0.5846 0.0
H550 H 0.50758 0.93974 0.56052 0.0
H551 H 0.45792 0.96976 0.58732 0.0
H552 H 0.4912 0.00124 0.56005 0.0
H553 H 0.47102 0.00719 0.55458 0.0
H554 H 0.47772 0.00919 0.57583 0.0
H555 H 0.46059 0.99134 0.59191 0.0
H556 H 0.44589 0.98441 0.57662 0.0
C557 C 0.48335 0.92025 0.54561 0.0
C558 C 0.50389 0.93766 0.52779 0.0
C559 C 0.41811 0.99638 0.52321 0.0
C560 C 0.41414 0.00994 0.53344 0.0
C561 C 0.42436 0.01334 0.54721 0.0
C562 C 0.43804 0.00331 0.55088 0.0
C563 C 0.44168 0.98971 0.54067 0.0
C564 C 0.43188 0.98652 0.52702 0.0
C565 C 0.43781 0.9717 0.5174 0.0
C566 C 0.45265 0.9664 0.52769 0.0
C567 C 0.45481 0.97696 0.54133 0.0
C568 C 0.42389 0.95851 0.5176 0.0
C569 C 0.44296 0.97754 0.49985 0.0
C570 C 0.4962 0.97687 0.58884 0.0
C571 C 0.50979 0.96666 0.59278 0.0
C572 C 0.51359 0.9533 0.58216 0.0
C573 C 0.50402 0.95009 0.56804 0.0
C574 C 0.49049 0.96038 0.56435 0.0
C575 C 0.48684 0.97357 0.57461 0.0
C576 C 0.47223 0.98341 0.56849 0.0
C577 C 0.46775 0.97394 0.55287 0.0
C578 C 0.47841 0.96039 0.55059 0.0
C579 C 0.45839 0.98235 0.58174 0.0
C580 C 0.47819 0.00124 0.56461 0.0
H581 H 0.44527 0.94493 0.49397 0.0
H582 H 0.49008 0.90638 0.511 0.0
H583 H 0.50504 0.94171 0.51466 0.0
H584 H 0.50919 0.948 0.53504 0.0
H585 H 0.51178 0.92651 0.52939 0.0
H586 H 0.47041 0.91551 0.54553 0.0
H587 H 0.49173 0.90962 0.54314 0.0
H588 H 0.48549 0.92466 0.55836 0.0
H589 H 0.41051 0.99329 0.5126 0.0
H590 H 0.42187 0.02387 0.55513 0.0
H591 H 0.44525 0.00656 0.56156 0.0
H592 H 0.41815 0.9577 0.53011 0.0
H593 H 0.41395 0.9617 0.50863 0.0
H594 H 0.42837 0.94591 0.51486 0.0
H595 H 0.44744 0.99057 0.50002 0.0
H596 H 0.45346 0.97037 0.49476 0.0
H597 H 0.43237 0.97691 0.49108 0.0
H598 H 0.45152 0.92108 0.47696 0.0
C599 C 0.45501 0.93688 0.49807 0.0
C600 C 0.16918 0.28381 0.75322 0.0
C601 C 0.15798 0.27055 0.7516 0.0
C602 C 0.16034 0.25906 0.73866 0.0
C603 C 0.18469 0.274 0.72938 0.0
C604 C 0.18239 0.28526 0.74206 0.0
C605 C 0.19548 0.29853 0.74213 0.0
H606 H 0.26567 0.33045 0.70912 0.0
C607 C 0.19965 0.27894 0.72006 0.0
C608 C 0.20608 0.29328 0.7275 0.0
H609 H 0.23646 0.34979 0.74971 0.0
H610 H 0.21734 0.3271 0.74698 0.0
H611 H 0.23426 0.32246 0.68601 0.0
H612 H 0.26327 0.29224 0.71899 0.0
H613 H 0.25911 0.2803 0.70128 0.0
H614 H 0.27096 0.29915 0.69931 0.0
H615 H 0.25493 0.31593 0.68111 0.0
H616 H 0.23719 0.30327 0.67624 0.0
C617 C 0.18691 0.31544 0.73909 0.0
C618 C 0.20508 0.29736 0.7587 0.0
C619 C 0.21794 0.24535 0.67004 0.0
C620 C 0.23147 0.24667 0.65915 0.0
C621 C 0.24319 0.25936 0.66171 0.0
C622 C 0.24136 0.27067 0.67475 0.0
C623 C 0.22767 0.26929 0.68543 0.0
C624 C 0.21633 0.2567 0.68306 0.0
C625 C 0.20278 0.25691 0.69586 0.0
C626 C 0.2077 0.2719 0.70609 0.0
C627 C 0.22224 0.27913 0.69989 0.0
C628 C 0.18607 0.25958 0.68682 0.0
C629 C 0.20385 0.24062 0.70598 0.0
C630 C 0.2551 0.32993 0.71735 0.0
C631 C 0.25273 0.34199 0.72973 0.0
C632 C 0.23885 0.34057 0.74027 0.0
C633 C 0.22764 0.32742 0.73858 0.0
C634 C 0.23019 0.31552 0.72615 0.0
C635 C 0.24369 0.31696 0.71574 0.0
C636 C 0.24419 0.30343 0.70294 0.0
C637 C 0.22881 0.29359 0.70745 0.0
C638 C 0.22071 0.30069 0.72111 0.0
C639 C 0.24269 0.31156 0.68561 0.0
C640 C 0.26023 0.29324 0.70558 0.0
H641 H 0.17465 0.25158 0.71798 0.0
H642 H 0.16786 0.29276 0.76312 0.0
H643 H 0.207 0.2842 0.76231 0.0
H644 H 0.21763 0.30271 0.75803 0.0
H645 H 0.19814 0.30351 0.76887 0.0
H646 H 0.17595 0.31403 0.73085 0.0
H647 H 0.18254 0.32099 0.75089 0.0
H648 H 0.19496 0.3244 0.73261 0.0
H649 H 0.20886 0.23558 0.66857 0.0
H650 H 0.25365 0.26073 0.65343 0.0
H651 H 0.25064 0.28009 0.67596 0.0
H652 H 0.1875 0.26858 0.67648 0.0
H653 H 0.18139 0.2478 0.68148 0.0
H654 H 0.17641 0.26494 0.69487 0.0
H655 H 0.21688 0.23624 0.707 0.0
H656 H 0.19971 0.24213 0.71894 0.0
H657 H 0.19654 0.23059 0.70005 0.0
H658 H 0.15179 0.24887 0.73696 0.0
C659 C 0.17359 0.26071 0.72757 0.0
C660 C 0.75604 0.16628 0.72885 0.0
C661 C 0.74261 0.1623 0.71849 0.0
C662 C 0.73925 0.17247 0.7047 0.0
C663 C 0.76247 0.19017 0.71173 0.0
C664 C 0.7658 0.18015 0.7252 0.0
C665 C 0.78079 0.18585 0.73469 0.0
H666 H 0.84354 0.24069 0.74395 0.0
C667 C 0.77501 0.20352 0.71138 0.0
C668 C 0.78581 0.20102 0.72477 0.0
H669 H 0.83289 0.19726 0.7735 0.0
H670 H 0.80904 0.1914 0.75662 0.0
H671 H 0.80579 0.253 0.74023 0.0
H672 H 0.83704 0.22316 0.70898 0.0
H673 H 0.82579 0.23651 0.69601 0.0
H674 H 0.83984 0.24511 0.71111 0.0
H675 H 0.82266 0.26157 0.72857 0.0
H676 H 0.8023 0.25924 0.71969 0.0
C677 C 0.7752 0.19045 0.75246 0.0
C678 C 0.79406 0.17199 0.73385 0.0
C679 C 0.77265 0.24756 0.66643 0.0
C680 C 0.78251 0.26149 0.66287 0.0
C681 C 0.79611 0.26504 0.67326 0.0
C682 C 0.79984 0.25493 0.68687 0.0
C683 C 0.7899 0.24105 0.69021 0.0
C684 C 0.77655 0.23757 0.68007 0.0
C685 C 0.76737 0.2223 0.6855 0.0
C686 C 0.7774 0.21718 0.70055 0.0
C687 C 0.79058 0.2282 0.70325 0.0
C688 C 0.74949 0.22744 0.69021 0.0
C689 C 0.76846 0.20932 0.67139 0.0
C690 C 0.83616 0.22984 0.74673 0.0
C691 C 0.84016 0.21948 0.76018 0.0
C692 C 0.83 0.20563 0.76343 0.0
C693 C 0.81619 0.20216 0.75351 0.0
C694 C 0.81243 0.21258 0.74009 0.0
C695 C 0.82235 0.22615 0.73689 0.0
C696 C 0.81655 0.23574 0.72199 0.0
C697 C 0.80157 0.22565 0.71676 0.0
C698 C 0.7992 0.21212 0.72744 0.0
C699 C 0.81164 0.25337 0.72776 0.0
C700 C 0.83049 0.23529 0.70879 0.0
H701 H 0.74583 0.19363 0.69064 0.0
H702 H 0.75909 0.15858 0.7394 0.0
H703 H 0.79332 0.16513 0.72193 0.0
H704 H 0.80686 0.17683 0.73424 0.0
H705 H 0.79237 0.16287 0.74401 0.0
H706 H 0.76292 0.1967 0.75225 0.0
H707 H 0.77405 0.17923 0.76034 0.0
H708 H 0.78359 0.19934 0.75859 0.0
H709 H 0.76199 0.24455 0.65887 0.0
H710 H 0.80407 0.27554 0.67071 0.0
H711 H 0.81038 0.2583 0.69423 0.0
H712 H 0.74942 0.23971 0.69648 0.0
H713 H 0.74151 0.22841 0.67904 0.0
H714 H 0.74363 0.2189 0.69914 0.0
H715 H 0.7805 0.21025 0.66474 0.0
H716 H 0.76801 0.19643 0.67595 0.0
H717 H 0.75845 0.21118 0.66214 0.0
H718 H 0.72889 0.16976 0.69662 0.0
C719 C 0.74907 0.18638 0.70129 0.0
C720 C 0.53391 0.58257 0.49711 0.0
C721 C 0.52102 0.59413 0.49917 0.0
C722 C 0.5096 0.59179 0.51219 0.0
C723 C 0.52411 0.56699 0.52091 0.0
C724 C 0.53521 0.56918 0.50807 0.0
C725 C 0.54829 0.5559 0.50773 0.0
H726 H 0.58258 0.48773 0.5426 0.0
C727 C 0.52913 0.55205 0.53024 0.0
C728 C 0.54329 0.54549 0.52258 0.0
H729 H 0.59826 0.51366 0.49845 0.0
H730 H 0.57554 0.53284 0.50139 0.0
H731 H 0.57405 0.52024 0.56419 0.0
H732 H 0.54389 0.48839 0.53388 0.0
H733 H 0.53227 0.49329 0.55159 0.0
H734 H 0.55148 0.48209 0.5538 0.0
H735 H 0.56863 0.49956 0.57029 0.0
H736 H 0.55533 0.51692 0.57478 0.0
C737 C 0.56537 0.56427 0.51027 0.0
C738 C 0.54656 0.54619 0.49125 0.0
C739 C 0.49622 0.53427 0.58089 0.0
C740 C 0.4981 0.52129 0.59239 0.0
C741 C 0.51142 0.51015 0.59039 0.0
C742 C 0.52264 0.51191 0.57725 0.0
C743 C 0.52061 0.52498 0.56593 0.0
C744 C 0.50757 0.53588 0.56787 0.0
C745 C 0.50744 0.54914 0.55478 0.0
C746 C 0.52249 0.54433 0.54459 0.0
C747 C 0.53015 0.53017 0.55117 0.0
C748 C 0.50976 0.56611 0.56346 0.0
C749 C 0.49117 0.5475 0.54473 0.0
C750 C 0.58118 0.49763 0.53365 0.0
C751 C 0.59227 0.49922 0.52031 0.0
C752 C 0.58982 0.51209 0.50875 0.0
C753 C 0.57665 0.52326 0.51053 0.0
C754 C 0.56573 0.52157 0.52398 0.0
C755 C 0.56801 0.50883 0.53519 0.0
C756 C 0.55493 0.5087 0.54846 0.0
C757 C 0.54452 0.52354 0.54346 0.0
C758 C 0.55097 0.5311 0.52918 0.0
C759 C 0.56356 0.51137 0.56539 0.0
C760 C 0.54513 0.49226 0.54705 0.0
H761 H 0.50198 0.57726 0.53266 0.0
H762 H 0.543 0.58405 0.48735 0.0
H763 H 0.53341 0.54564 0.48718 0.0
H764 H 0.55039 0.5331 0.49237 0.0
H765 H 0.55378 0.55217 0.48118 0.0
H766 H 0.56448 0.57443 0.51953 0.0
H767 H 0.57 0.56972 0.49851 0.0
H768 H 0.57484 0.55577 0.51523 0.0
H769 H 0.48604 0.54295 0.58189 0.0
H770 H 0.51336 0.5002 0.59916 0.0
H771 H 0.53253 0.50308 0.57648 0.0
H772 H 0.51801 0.56496 0.57444 0.0
H773 H 0.49772 0.57115 0.56782 0.0
H774 H 0.51588 0.5754 0.5555 0.0
H775 H 0.48772 0.53425 0.54314 0.0
H776 H 0.49223 0.5524 0.53201 0.0
H777 H 0.48074 0.55379 0.55112 0.0
H778 H 0.4994 0.60032 0.51392 0.0
C779 C 0.51107 0.57831 0.52303 0.0
C780 C 0.536 0.41895 0.00303 0.0
C781 C 0.52342 0.40711 1.00078 0.0
C782 C 0.51258 0.40874 0.98719 0.0
C783 C 0.52688 0.43363 0.9784 0.0
C784 C 0.53754 0.432 0.99169 0.0
C785 C 0.55055 0.44534 0.99198 0.0
H786 H 0.58415 0.51388 0.95723 0.0
C787 C 0.53193 0.44845 0.9689 0.0
C788 C 0.54583 0.45533 0.97676 0.0
H789 H 0.60079 0.48726 1.00063 0.0
H790 H 0.57834 0.46783 0.99757 0.0
H791 H 0.5449 0.51208 0.96599 0.0
H792 H 0.57661 0.482 0.93544 0.0
H793 H 0.55777 0.48435 0.92483 0.0
H794 H 0.57014 0.50238 0.92938 0.0
H795 H 0.55288 0.51914 0.94648 0.0
H796 H 0.53392 0.50741 0.9478 0.0
C797 C 0.54835 0.45545 0.00813 0.0
C798 C 0.56775 0.43701 0.99007 0.0
C799 C 0.49941 0.46544 0.91773 0.0
C800 C 0.50106 0.47856 0.90638 0.0
C801 C 0.51399 0.49009 0.90866 0.0
C802 C 0.52507 0.48857 0.92194 0.0
C803 C 0.52327 0.47536 0.93314 0.0
C804 C 0.51058 0.46409 0.93093 0.0
C805 C 0.51057 0.45083 0.94403 0.0
C806 C 0.52534 0.456 0.95444 0.0
C807 C 0.53274 0.47037 0.948 0.0
C808 C 0.49411 0.45213 0.95381 0.0
C809 C 0.51341 0.4339 0.93543 0.0
C810 C 0.58285 0.50396 0.96617 0.0
C811 C 0.59429 0.50211 0.97918 0.0
C812 C 0.59228 0.48886 0.99038 0.0
C813 C 0.57917 0.47762 0.98863 0.0
C814 C 0.56793 0.47955 0.97549 0.0
C815 C 0.56986 0.49256 0.96453 0.0
C816 C 0.55687 0.4925 0.95117 0.0
C817 C 0.54685 0.47731 0.9559 0.0
C818 C 0.55336 0.46981 0.97018 0.0
C819 C 0.5466 0.50863 0.95275 0.0
C820 C 0.56568 0.49032 0.93425 0.0
H821 H 0.50554 0.42249 0.96598 0.0
H822 H 0.54467 0.41791 0.01321 0.0
H823 H 0.56694 0.42568 0.98226 0.0
H824 H 0.57685 0.44496 0.98366 0.0
H825 H 0.57285 0.43326 0.00229 0.0
H826 H 0.53499 0.45716 0.01104 0.0
H827 H 0.55416 0.44902 0.01882 0.0
H828 H 0.55343 0.46811 0.00726 0.0
H829 H 0.48951 0.45646 0.9165 0.0
H830 H 0.51572 0.50019 0.9 0.0
H831 H 0.53466 0.49771 0.92293 0.0
H832 H 0.49045 0.46531 0.9555 0.0
H833 H 0.48388 0.44578 0.94715 0.0
H834 H 0.49498 0.44707 0.96648 0.0
H835 H 0.52165 0.43525 0.92446 0.0
H836 H 0.5198 0.42485 0.94345 0.0
H837 H 0.50154 0.42849 0.93107 0.0
H838 H 0.5027 0.39986 0.98528 0.0
C839 C 0.51421 0.42193 0.97603 0.0
C840 C 0.75536 0.17086 0.28488 0.0
C841 C 0.75388 0.15991 0.27141 0.0
C842 C 0.74111 0.16249 0.25978 0.0
C843 C 0.73155 0.18646 0.27513 0.0
C844 C 0.74417 0.18402 0.28644 0.0
C845 C 0.74419 0.19695 0.29986 0.0
H846 H 0.70923 0.26497 0.33426 0.0
C847 C 0.72205 0.20122 0.28035 0.0
C848 C 0.72945 0.20748 0.29479 0.0
H849 H 0.75254 0.23812 0.35084 0.0
H850 H 0.7497 0.21911 0.32803 0.0
H851 H 0.68751 0.23296 0.32501 0.0
H852 H 0.71885 0.26472 0.29585 0.0
H853 H 0.7015 0.25997 0.28363 0.0
H854 H 0.69873 0.2711 0.30282 0.0
H855 H 0.68185 0.25379 0.31971 0.0
H856 H 0.67731 0.23665 0.30616 0.0
C857 C 0.74127 0.18813 0.31665 0.0
C858 C 0.7607 0.20671 0.29876 0.0
C859 C 0.67131 0.2191 0.24757 0.0
C860 C 0.65997 0.23222 0.2494 0.0
C861 C 0.66226 0.24353 0.26253 0.0
C862 C 0.67543 0.24173 0.27369 0.0
C863 C 0.68654 0.22848 0.27177 0.0
C864 C 0.68445 0.2175 0.25881 0.0
C865 C 0.69759 0.2043 0.25857 0.0
C866 C 0.70781 0.20907 0.27362 0.0
C867 C 0.70125 0.22321 0.28133 0.0
C868 C 0.689 0.18729 0.26085 0.0
C869 C 0.70758 0.20604 0.24226 0.0
C870 C 0.7182 0.2551 0.33291 0.0
C871 C 0.7311 0.25307 0.34446 0.0
C872 C 0.74234 0.23986 0.34231 0.0
C873 C 0.74074 0.22887 0.32896 0.0
C874 C 0.72776 0.23104 0.31758 0.0
C875 C 0.71679 0.24401 0.31964 0.0
C876 C 0.70378 0.24444 0.30631 0.0
C877 C 0.70876 0.2296 0.29589 0.0
C878 C 0.72279 0.22178 0.30257 0.0
C879 C 0.68665 0.24195 0.31461 0.0
C880 C 0.70562 0.26092 0.29664 0.0
H881 H 0.72046 0.17688 0.25236 0.0
H882 H 0.76518 0.16936 0.2939 0.0
H883 H 0.7649 0.20786 0.28568 0.0
H884 H 0.75957 0.2196 0.30318 0.0
H885 H 0.77068 0.20038 0.3058 0.0
H886 H 0.73222 0.17783 0.31524 0.0
H887 H 0.75297 0.18279 0.32153 0.0
H888 H 0.73582 0.19632 0.32613 0.0
H889 H 0.6699 0.21008 0.23775 0.0
H890 H 0.65394 0.25394 0.2641 0.0
H891 H 0.67644 0.25074 0.28339 0.0
H892 H 0.67871 0.18821 0.26998 0.0
H893 H 0.68367 0.18281 0.24899 0.0
H894 H 0.69733 0.17769 0.26587 0.0
H895 H 0.70828 0.21921 0.23826 0.0
H896 H 0.72063 0.20213 0.24357 0.0
H897 H 0.70172 0.19891 0.23206 0.0
H898 H 0.73961 0.15415 0.24938 0.0
C899 C 0.72995 0.17566 0.26158 0.0
C900 C 0.41777 0.0058 0.98077 0.0
C901 C 0.4137 0.99239 0.97041 0.0
C902 C 0.42384 0.98907 0.95656 0.0
C903 C 0.44168 0.01216 0.96364 0.0
C904 C 0.43174 0.01545 0.97718 0.0
C905 C 0.43777 0.03013 0.98694 0.0
H906 H 0.49379 0.09172 0.99715 0.0
C907 C 0.45528 0.02442 0.96349 0.0
C908 C 0.45308 0.03496 0.97714 0.0
H909 H 0.45024 0.0814 0.02657 0.0
H910 H 0.4439 0.05787 0.00933 0.0
H911 H 0.47635 0.08539 0.96194 0.0
H912 H 0.50569 0.05389 0.99342 0.0
H913 H 0.51148 0.04958 0.97291 0.0
H914 H 0.51476 0.07009 0.98119 0.0
H915 H 0.49817 0.08837 0.96498 0.0
H916 H 0.49036 0.07457 0.94929 0.0
C917 C 0.42422 0.04373 0.98629 0.0
C918 C 0.4422 0.02415 0.00462 0.0
C919 C 0.49842 0.0229 0.91764 0.0
C920 C 0.51277 0.03227 0.91453 0.0
C921 C 0.51725 0.04489 0.92572 0.0
C922 C 0.50748 0.04829 0.93967 0.0
C923 C 0.49307 0.03894 0.94253 0.0
C924 C 0.48887 0.02636 0.93171 0.0
C925 C 0.47347 0.01733 0.93703 0.0
C926 C 0.46894 0.02677 0.95265 0.0
C927 C 0.4804 0.03948 0.95575 0.0
C928 C 0.46023 0.01947 0.92331 0.0
C929 C 0.47819 0.99909 0.94076 0.0
C930 C 0.48299 0.08427 0.99997 0.0
C931 C 0.47249 0.08844 0.01323 0.0
C932 C 0.45842 0.07857 0.01632 0.0
C933 C 0.45479 0.06486 0.00632 0.0
C934 C 0.46527 0.06098 0.99298 0.0
C935 C 0.47911 0.07061 0.99 0.0
C936 C 0.48862 0.06482 0.97505 0.0
C937 C 0.47818 0.05018 0.96953 0.0
C938 C 0.46456 0.04796 0.98012 0.0
C939 C 0.48854 0.07898 0.96209 0.0
C940 C 0.50612 0.05939 0.98078 0.0
H941 H 0.44492 0.99568 0.9424 0.0
H942 H 0.41038 0.00863 0.9916 0.0
H943 H 0.44815 0.01173 0.00422 0.0
H944 H 0.45128 0.03222 0.01089 0.0
H945 H 0.43095 0.02314 0.01247 0.0
H946 H 0.41734 0.04332 0.97435 0.0
H947 H 0.41505 0.0421 0.99641 0.0
H948 H 0.42935 0.0564 0.98686 0.0
H949 H 0.49481 0.01294 0.90942 0.0
H950 H 0.52821 0.05232 0.92354 0.0
H951 H 0.51149 0.05813 0.94764 0.0
H952 H 0.46069 0.03219 0.91803 0.0
H953 H 0.46232 0.0106 0.913 0.0
H954 H 0.44744 0.01801 0.9279 0.0
H955 H 0.49103 0.99821 0.9457 0.0
H956 H 0.47038 0.99344 0.95046 0.0
H957 H 0.47758 0.99138 0.92939 0.0
H958 H 0.42088 0.979 0.94822 0.0
C959 C 0.43777 0.99885 0.95314 0.0
Li960 Li 0.26768 0.88646 0.99859 0.0
Li961 Li 0.25377 0.86552 0.01571 0.0
Li962 Li 0.25018 0.86494 0.98546 0.0
Li963 Li 0.23662 0.8858 0.0023 0.0
C964 C 0.28353 0.85699 0.98823 0.0
N965 N 0.30843 0.8464 0.96729 0.0
C966 C 0.2923 0.84251 0.9918 0.0
C967 C 0.28739 0.86608 0.97401 0.0
C968 C 0.30486 0.83737 0.98106 0.0
C969 C 0.30003 0.86052 0.96358 0.0
C970 C 0.25788 0.89129 0.03541 0.0
C971 C 0.24931 0.89057 0.06402 0.0
N972 N 0.26527 0.89309 0.06878 0.0
C973 C 0.27417 0.89404 0.04058 0.0
C974 C 0.24531 0.8897 0.04721 0.0
C975 C 0.27767 0.89485 0.0575 0.0
C976 C 0.28471 0.91578 0.99026 0.0
N977 N 0.28668 0.90021 0.99631 0.0
C978 C 0.31594 0.90413 0.99846 0.0
C979 C 0.30186 0.89432 1.0006 0.0
C980 C 0.31438 0.92019 0.9919 0.0
C981 C 0.29846 0.92602 0.98789 0.0
H982 H 0.27246 0.92019 0.98714 0.0
H983 H 0.30303 0.88197 0.00565 0.0
C984 C 0.24469 0.84244 0.04082 0.0
N985 N 0.25714 0.85206 0.03482 0.0
C986 C 0.24729 0.83248 0.05473 0.0
C987 C 0.2755 0.84243 0.05596 0.0
C988 C 0.2724 0.85207 0.04194 0.0
C989 C 0.26286 0.83244 0.06252 0.0
H990 H 0.23278 0.84237 0.03475 0.0
H991 H 0.28219 0.85953 0.03665 0.0
C992 C 0.24395 0.89328 0.96643 0.0
N993 N 0.23226 0.90077 0.93515 0.0
C994 C 0.22893 0.8867 0.96095 0.0
C995 C 0.25314 0.90353 0.95593 0.0
C996 C 0.22319 0.89067 0.94512 0.0
C997 C 0.24699 0.90721 0.94018 0.0
C998 C 0.21654 0.85958 0.00474 0.0
C999 C 0.20685 0.85388 0.99157 0.0
C1000 C 0.20898 0.86356 0.0198 0.0
C1001 C 0.18973 0.85243 0.99364 0.0
C1002 C 0.19182 0.86196 0.02137 0.0
N1003 N 0.18263 0.85648 0.00837 0.0
C1004 C 0.24202 0.83533 0.96922 0.0
C1005 C 0.254 0.85534 0.95143 0.0
C1006 C 0.24027 0.82425 0.95606 0.0
N1007 N 0.24857 0.85062 0.96666 0.0
C1008 C 0.25251 0.84466 0.93792 0.0
C1009 C 0.24547 0.8289 0.94011 0.0
H1010 H 0.23803 0.83179 0.98151 0.0
H1011 H 0.25956 0.86739 0.94972 0.0
C1012 C 0.2191 0.91277 0.01573 0.0
N1013 N 0.21772 0.90009 0.00472 0.0
C1014 C 0.20587 0.92364 0.01829 0.0
C1015 C 0.19002 0.9083 0.9981 0.0
C1016 C 0.20358 0.89782 0.99584 0.0
C1017 C 0.19106 0.92142 0.00945 0.0
H1018 H 0.23049 0.91445 0.02256 0.0
H1019 H 0.2027 0.88784 0.98703 0.0
O1020 O 0.27111 0.86208 0.99856 0.0
O1021 O 0.25427 0.89013 0.0189 0.0
O1022 O 0.24997 0.88926 0.98175 0.0
O1023 O 0.23333 0.86116 0.00294 0.0
H1024 H 0.28942 0.83533 0.00275 0.0
H1025 H 0.28068 0.87728 0.97102 0.0
H1026 H 0.31176 0.82618 0.98367 0.0
H1027 H 0.30314 0.86743 0.95253 0.0
H1028 H 0.23972 0.88926 0.07328 0.0
H1029 H 0.28404 0.89535 0.03163 0.0
H1030 H 0.23261 0.8878 0.04343 0.0
H1031 H 0.29024 0.89684 0.06168 0.0
H1032 H 0.32791 0.89922 0.00201 0.0
H1033 H 0.29666 0.93825 0.98268 0.0
H1034 H 0.2372 0.82499 0.05942 0.0
H1035 H 0.28775 0.84256 0.06142 0.0
H1036 H 0.22201 0.87826 0.96867 0.0
H1037 H 0.26496 0.90848 0.95983 0.0
H1038 H 0.2116 0.88559 0.94071 0.0
H1039 H 0.25397 0.91514 0.93193 0.0
H1040 H 0.21243 0.85078 0.9798 0.0
H1041 H 0.21626 0.86793 0.03013 0.0
H1042 H 0.18208 0.84813 0.98352 0.0
H1043 H 0.18582 0.86509 0.03293 0.0
H1044 H 0.23468 0.81227 0.95833 0.0
H1045 H 0.257 0.84865 0.92593 0.0
H1046 H 0.20717 0.93354 0.02725 0.0
H1047 H 0.17892 0.90628 0.99084 0.0
Li1048 Li 0.1143 0.50263 0.26628 0.0
Li1049 Li 0.1356 0.486 0.25258 0.0
Li1050 Li 0.13443 0.51689 0.24781 0.0
Li1051 Li 0.11404 0.49768 0.23548 0.0
C1052 C 0.1443 0.51076 0.28331 0.0
N1053 N 0.15566 0.52371 0.31288 0.0
C1054 C 0.15116 0.50034 0.29532 0.0
C1055 C 0.14353 0.5278 0.28622 0.0
C1056 C 0.15674 0.50711 0.31023 0.0
C1057 C 0.14925 0.5341 0.30128 0.0
C1058 C 0.11076 0.46505 0.25743 0.0
C1059 C 0.11419 0.43656 0.24916 0.0
N1060 N 0.11041 0.43165 0.26482 0.0
C1061 C 0.10678 0.45972 0.27341 0.0
C1062 C 0.11436 0.45339 0.24516 0.0
C1063 C 0.1067 0.44278 0.27691 0.0
C1064 C 0.08539 0.51183 0.28351 0.0
N1065 N 0.1007 0.5051 0.28549 0.0
C1066 C 0.09628 0.50245 0.31466 0.0
C1067 C 0.10616 0.50015 0.30064 0.0
C1068 C 0.08064 0.50992 0.31305 0.0
C1069 C 0.07518 0.51452 0.2972 0.0
H1070 H 0.08114 0.51522 0.27128 0.0
H1071 H 0.11814 0.49435 0.30185 0.0
C1072 C 0.16104 0.46389 0.24305 0.0
N1073 N 0.1503 0.46769 0.25544 0.0
C1074 C 0.17194 0.45056 0.24471 0.0
C1075 C 0.16053 0.44527 0.27188 0.0
C1076 C 0.14995 0.45878 0.26973 0.0
C1077 C 0.17175 0.44103 0.25927 0.0
H1078 H 0.16118 0.47125 0.23187 0.0
H1079 H 0.14143 0.46218 0.27949 0.0
C1080 C 0.10255 0.53368 0.2492 0.0
N1081 N 0.08781 0.56446 0.25186 0.0
C1082 C 0.09363 0.54025 0.2359 0.0
C1083 C 0.10383 0.54271 0.26392 0.0
C1084 C 0.08632 0.55585 0.23747 0.0
C1085 C 0.09632 0.55825 0.26501 0.0
C1086 C 0.14 0.49794 0.21487 0.0
C1087 C 0.14387 0.51223 0.20588 0.0
C1088 C 0.13758 0.48297 0.20653 0.0
C1089 C 0.14504 0.51132 0.18864 0.0
C1090 C 0.13883 0.48258 0.18928 0.0
N1091 N 0.14249 0.49665 0.18077 0.0
C1092 C 0.16415 0.53477 0.24647 0.0
C1093 C 0.14069 0.55088 0.23944 0.0
C1094 C 0.17461 0.54829 0.24376 0.0
N1095 N 0.14753 0.53629 0.24429 0.0
C1096 C 0.15063 0.56477 0.23684 0.0
C1097 C 0.16789 0.56362 0.23888 0.0
H1098 H 0.16929 0.52296 0.25016 0.0
H1099 H 0.12753 0.55182 0.23744 0.0
C1100 C 0.08974 0.48123 0.21624 0.0
N1101 N 0.10019 0.49442 0.21662 0.0
C1102 C 0.07969 0.47845 0.20243 0.0
C1103 C 0.09132 0.50292 0.18968 0.0
C1104 C 0.10097 0.50533 0.20382 0.0
C1105 C 0.08052 0.48932 0.18887 0.0
H1106 H 0.08921 0.47284 0.22666 0.0
H1107 H 0.10914 0.51591 0.20457 0.0
O1108 O 0.13886 0.50431 0.2686 0.0
O1109 O 0.11111 0.48159 0.25383 0.0
O1110 O 0.10986 0.51845 0.2478 0.0
O1111 O 0.13862 0.49863 0.23173 0.0
H1112 H 0.15206 0.48715 0.2932 0.0
H1113 H 0.13872 0.53612 0.27692 0.0
H1114 H 0.16195 0.49917 0.31968 0.0
H1115 H 0.14867 0.54726 0.30371 0.0
H1116 H 0.11707 0.42741 0.23981 0.0
H1117 H 0.10388 0.46858 0.28303 0.0
H1118 H 0.11739 0.45731 0.23272 0.0
H1119 H 0.10374 0.43848 0.28925 0.0
H1120 H 0.10094 0.4987 0.32667 0.0
H1121 H 0.06308 0.52001 0.29537 0.0
H1122 H 0.18029 0.44765 0.23463 0.0
H1123 H 0.16013 0.4384 0.28339 0.0
H1124 H 0.09241 0.5334 0.22446 0.0
H1125 H 0.11035 0.5377 0.27446 0.0
H1126 H 0.07944 0.5611 0.22724 0.0
H1127 H 0.09721 0.56536 0.27633 0.0
H1128 H 0.14581 0.52391 0.21212 0.0
H1129 H 0.13464 0.47179 0.2133 0.0
H1130 H 0.14794 0.52229 0.18151 0.0
H1131 H 0.13687 0.4711 0.18266 0.0
H1132 H 0.18784 0.54663 0.24521 0.0
H1133 H 0.14476 0.57631 0.23335 0.0
H1134 H 0.07157 0.46778 0.20225 0.0
H1135 H 0.09214 0.51172 0.17959 0.0
Li1136 Li 0.73542 0.61636 0.99983 0.0
Li1137 Li 0.74845 0.63747 0.01664 0.0
Li1138 Li 0.75177 0.63694 0.98617 0.0
Li1139 Li 0.76599 0.61622 0.00306 0.0
C1140 C 0.7148 0.64267 0.99699 0.0
N1141 N 0.68105 0.64619 0.99243 0.0
C1142 C 0.705 0.64963 0.00946 0.0
C1143 C 0.70745 0.63771 0.98213 0.0
C1144 C 0.68796 0.65126 0.00693 0.0
C1145 C 0.69037 0.63953 0.98008 0.0
C1146 C 0.73887 0.60739 0.0331 0.0
C1147 C 0.73207 0.58645 0.0533 0.0
N1148 N 0.71891 0.59569 0.05834 0.0
C1149 C 0.72532 0.61668 0.03853 0.0
C1150 C 0.74231 0.59216 0.04057 0.0
C1151 C 0.71537 0.61056 0.05128 0.0
C1152 C 0.7186 0.58852 0.98756 0.0
N1153 N 0.71673 0.60182 0.9977 0.0
C1154 C 0.6889 0.59372 0.00393 0.0
C1155 C 0.70227 0.6045 0.00596 0.0
C1156 C 0.69046 0.57994 0.99344 0.0
C1157 C 0.70559 0.57736 0.98525 0.0
H1158 H 0.73024 0.58656 0.98124 0.0
H1159 H 0.70102 0.61501 0.0141 0.0
C1160 C 0.74158 0.66744 0.03288 0.0
N1161 N 0.74696 0.6517 0.03539 0.0
C1162 C 0.74022 0.67842 0.04617 0.0
C1163 C 0.75025 0.65686 0.06435 0.0
C1164 C 0.75138 0.64629 0.05071 0.0
C1165 C 0.74455 0.67317 0.0622 0.0
H1166 H 0.73825 0.67142 0.02052 0.0
H1167 H 0.75582 0.63376 0.05235 0.0
C1168 C 0.75621 0.61106 0.96642 0.0
N1169 N 0.76346 0.6088 0.93305 0.0
C1170 C 0.7726 0.60919 0.96119 0.0
C1171 C 0.74348 0.61152 0.9547 0.0
C1172 C 0.77602 0.60813 0.94426 0.0
C1173 C 0.7474 0.61043 0.93789 0.0
C1174 C 0.78174 0.64558 0.01341 0.0
C1175 C 0.79107 0.65961 0.00948 0.0
C1176 C 0.78526 0.63671 0.02786 0.0
C1177 C 0.80381 0.66455 0.02009 0.0
C1178 C 0.7981 0.64205 0.03815 0.0
N1179 N 0.80703 0.65574 0.03409 0.0
C1180 C 0.74163 0.65991 0.96151 0.0
C1181 C 0.76951 0.651 0.95948 0.0
C1182 C 0.74356 0.67005 0.94763 0.0
N1183 N 0.75447 0.65055 0.96704 0.0
C1184 C 0.77196 0.66086 0.94548 0.0
C1185 C 0.75888 0.6706 0.93936 0.0
H1186 H 0.72995 0.65973 0.96798 0.0
H1187 H 0.77962 0.6437 0.96436 0.0
C1188 C 0.78356 0.58716 0.0109 0.0
N1189 N 0.78532 0.60285 0.0051 0.0
C1190 C 0.79742 0.57706 0.01312 0.0
C1191 C 0.81464 0.59935 0.00297 0.0
C1192 C 0.80043 0.60901 1.00095 0.0
C1193 C 0.81327 0.58317 0.00925 0.0
H1194 H 0.77136 0.58252 0.01386 0.0
H1195 H 0.80146 0.62144 0.99608 0.0
O1196 O 0.73151 0.6409 0.99928 0.0
O1197 O 0.7488 0.61318 0.02063 0.0
O1198 O 0.75264 0.61236 0.98293 0.0
O1199 O 0.76918 0.64067 0.00316 0.0
H1200 H 0.71045 0.65368 0.021 0.0
H1201 H 0.71485 0.63242 0.97233 0.0
H1202 H 0.68022 0.65654 0.01651 0.0
H1203 H 0.68452 0.63563 0.96868 0.0
H1204 H 0.73458 0.57468 0.05918 0.0
H1205 H 0.72247 0.62847 0.03291 0.0
H1206 H 0.75279 0.58483 0.03663 0.0
H1207 H 0.70482 0.61763 0.05555 0.0
H1208 H 0.67754 0.59605 0.01067 0.0
H1209 H 0.70728 0.56695 0.97696 0.0
H1210 H 0.73559 0.69081 0.04393 0.0
H1211 H 0.75399 0.65235 0.07642 0.0
H1212 H 0.7826 0.60875 0.97007 0.0
H1213 H 0.73071 0.61266 0.95854 0.0
H1214 H 0.78867 0.60682 0.94002 0.0
H1215 H 0.73768 0.61086 0.92868 0.0
H1216 H 0.78847 0.6666 0.99833 0.0
H1217 H 0.77818 0.62582 0.0311 0.0
H1218 H 0.81114 0.67539 0.0172 0.0
H1219 H 0.80096 0.63531 0.04937 0.0
H1220 H 0.73323 0.67762 0.94366 0.0
H1221 H 0.78395 0.66076 0.93948 0.0
H1222 H 0.79576 0.56473 0.01811 0.0
H1223 H 0.82655 0.60447 0.99953 0.0
Li1224 Li 0.86577 0.01689 0.25311 0.0
Li1225 Li 0.88688 1.00024 0.26597 0.0
Li1226 Li 0.88636 0.00352 0.23615 0.0
Li1227 Li 0.86552 0.9871 0.2498 0.0
C1228 C 0.89417 0.03356 0.26361 0.0
N1229 N 0.90255 0.05898 0.28492 0.0
C1230 C 0.88493 0.03626 0.27801 0.0
C1231 C 0.90764 0.04381 0.26005 0.0
C1232 C 0.88937 0.04917 0.28863 0.0
C1233 C 0.91169 0.05659 0.27098 0.0
C1234 C 0.85907 0.98924 0.28328 0.0
C1235 C 0.86463 0.9642 0.29861 0.0
N1236 N 0.85171 0.96769 0.30883 0.0
C1237 C 0.84586 0.99258 0.29395 0.0
C1238 C 0.86856 0.97494 0.28563 0.0
C1239 C 0.84233 0.98153 0.30679 0.0
C1240 C 0.83675 0.03359 0.26247 0.0
N1241 N 0.85188 0.03585 0.25546 0.0
C1242 C 0.8466 0.06479 0.2521 0.0
C1243 C 0.85698 0.05106 0.25032 0.0
C1244 C 0.83091 0.06285 0.25937 0.0
C1245 C 0.82604 0.04699 0.26462 0.0
H1246 H 0.83301 0.02133 0.26635 0.0
H1247 H 0.86912 0.05257 0.24488 0.0
C1248 C 0.91671 0.99206 0.28184 0.0
N1249 N 0.90127 0.99814 0.28459 0.0
C1250 C 0.92779 0.99012 0.29499 0.0
C1251 C 0.90687 1.00081 0.31354 0.0
C1252 C 0.8962 0.00255 0.30003 0.0
C1253 C 0.92291 0.99449 0.31112 0.0
H1254 H 0.9204 0.98868 0.26941 0.0
H1255 H 0.88387 0.00742 0.3019 0.0
C1256 C 0.85794 0.01476 0.2199 0.0
N1257 N 0.8496 0.03629 0.19463 0.0
C1258 C 0.84405 0.01166 0.21005 0.0
C1259 C 0.86761 0.0288 0.21687 0.0
C1260 C 0.84003 0.0227 0.19735 0.0
C1261 C 0.86318 0.03954 0.20405 0.0
C1262 C 0.89338 0.97014 0.23826 0.0
C1263 C 0.88361 0.96751 0.2242 0.0
C1264 C 0.90691 0.95979 0.24133 0.0
C1265 C 0.88757 0.95456 0.21344 0.0
C1266 C 0.91046 0.94697 0.23027 0.0
N1267 N 0.9008 0.94465 0.21666 0.0
C1268 C 0.91575 0.01122 0.21928 0.0
C1269 C 0.89454 1.00092 0.20179 0.0
C1270 C 0.92648 0.01283 0.20581 0.0
N1271 N 0.90013 0.00537 0.21704 0.0
C1272 C 0.90486 0.0023 0.18798 0.0
C1273 C 0.92109 0.00832 0.18987 0.0
H1274 H 0.91985 0.01464 0.23156 0.0
H1275 H 0.88208 0.99624 0.20034 0.0
C1276 C 0.83568 0.97102 0.24229 0.0
N1277 N 0.85128 0.96835 0.248 0.0
C1278 C 0.82465 0.95781 0.24055 0.0
C1279 C 0.84591 0.93937 0.25075 0.0
C1280 C 0.85654 0.95293 0.25226 0.0
C1281 C 0.82972 0.9417 0.24479 0.0
H1282 H 0.83185 0.98343 0.23903 0.0
H1283 H 0.86899 0.95113 0.25684 0.0
O1284 O 0.89013 0.02099 0.25298 0.0
O1285 O 0.86261 0.99999 0.27065 0.0
O1286 O 0.86195 0.00403 0.23239 0.0
O1287 O 0.88983 0.98274 0.24901 0.0
H1288 H 0.87442 0.02851 0.28097 0.0
H1289 H 0.9149 0.0419 0.24893 0.0
H1290 H 0.88233 0.05139 0.29981 0.0
H1291 H 0.9221 0.06462 0.26837 0.0
H1292 H 0.87187 0.9531 0.30055 0.0
H1293 H 0.83842 0.00362 0.29233 0.0
H1294 H 0.87888 0.97216 0.27757 0.0
H1295 H 0.83214 0.98397 0.31514 0.0
H1296 H 0.85091 0.07683 0.24805 0.0
H1297 H 0.81397 0.04493 0.27012 0.0
H1298 H 0.93996 0.98502 0.29256 0.0
H1299 H 0.90265 0.00457 0.3257 0.0
H1300 H 0.83645 1.00083 0.21221 0.0
H1301 H 0.87843 0.0314 0.22429 0.0
H1302 H 0.8293 0.02045 0.18964 0.0
H1303 H 0.87055 0.05045 0.20158 0.0
H1304 H 0.87306 0.97533 0.22163 0.0
H1305 H 0.91458 0.96165 0.25217 0.0
H1306 H 0.88012 0.95239 0.20252 0.0
H1307 H 0.9209 0.93887 0.2325 0.0
H1308 H 0.93879 0.01773 0.20784 0.0
H1309 H 0.90024 0.99846 0.17599 0.0
H1310 H 0.81236 0.96019 0.23572 0.0
H1311 H 0.85029 0.92723 0.25439 0.0
Li1312 Li 0.2501 0.13563 0.51536 0.0
Li1313 Li 0.23682 0.11432 0.49831 0.0
Li1314 Li 0.2667 0.11379 0.5035 0.0
Li1315 Li 0.25417 0.13465 0.48531 0.0
C1316 C 0.2442 0.11115 0.5359 0.0
N1317 N 0.23493 0.11204 0.56884 0.0
C1318 C 0.22771 0.10834 0.54038 0.0
C1319 C 0.25598 0.11437 0.54818 0.0
C1320 C 0.22328 0.10883 0.5571 0.0
C1321 C 0.25104 0.1148 0.56475 0.0
C1322 C 0.22727 0.15206 0.48981 0.0
C1323 C 0.21477 0.1648 0.46584 0.0
N1324 N 0.21679 0.17994 0.47294 0.0
C1325 C 0.2292 0.16775 0.49687 0.0
C1326 C 0.21995 0.15055 0.47419 0.0
C1327 C 0.22382 0.18169 0.48815 0.0
C1328 C 0.26034 0.15906 0.53942 0.0
N1329 N 0.24731 0.1499 0.53398 0.0
C1330 C 0.22996 0.16095 0.55528 0.0
C1331 C 0.23225 0.15082 0.54144 0.0
C1332 C 0.24325 0.17043 0.56134 0.0
C1333 C 0.25858 0.16944 0.55313 0.0
H1334 H 0.27208 0.15839 0.53304 0.0
H1335 H 0.22202 0.1436 0.53668 0.0
C1336 C 0.21859 0.08485 0.50215 0.0
N1337 N 0.21776 0.10053 0.49608 0.0
C1338 C 0.2051 0.07415 0.50057 0.0
C1339 C 0.19017 0.0959 0.48641 0.0
C1340 C 0.2039 0.10624 0.48842 0.0
C1341 C 0.19067 0.07963 0.49254 0.0
H1342 H 0.2298 0.08065 0.50818 0.0
H1343 H 0.2035 0.11879 0.48384 0.0
C1344 C 0.28773 0.1387 0.50342 0.0
N1345 N 0.32195 0.13864 0.5041 0.0
C1346 C 0.29673 0.14161 0.48892 0.0
C1347 C 0.29614 0.13584 0.51829 0.0
C1348 C 0.31403 0.14153 0.48952 0.0
C1349 C 0.31345 0.13582 0.51837 0.0
C1350 C 0.24926 0.09663 0.47446 0.0
C1351 C 0.25517 0.08104 0.47913 0.0
C1352 C 0.23678 0.09784 0.46251 0.0
C1353 C 0.24843 0.06689 0.47179 0.0
C1354 C 0.23033 0.08339 0.45551 0.0
N1355 N 0.23625 0.06835 0.46025 0.0
C1356 C 0.28657 0.0908 0.52097 0.0
C1357 C 0.29748 0.09905 0.49502 0.0
C1358 C 0.3004 0.08085 0.52395 0.0
N1359 N 0.28548 0.09981 0.50681 0.0
C1360 C 0.3116 0.08937 0.49754 0.0
C1361 C 0.31327 0.08016 0.51223 0.0
H1362 H 0.27668 0.09128 0.52996 0.0
H1363 H 0.29615 0.10613 0.48373 0.0
C1364 C 0.26184 0.16434 0.4689 0.0
N1365 N 0.25748 0.14829 0.46631 0.0
C1366 C 0.2636 0.17517 0.45555 0.0
C1367 C 0.25662 0.15269 0.43705 0.0
C1368 C 0.25504 0.14227 0.45079 0.0
C1369 C 0.26085 0.16944 0.43934 0.0
H1370 H 0.26381 0.16874 0.4814 0.0
H1371 H 0.25166 0.12945 0.44907 0.0
O1372 O 0.24874 0.111 0.51958 0.0
O1373 O 0.23282 0.13829 0.49799 0.0
O1374 O 0.27079 0.13847 0.50304 0.0
O1375 O 0.25538 0.11061 0.48181 0.0
H1376 H 0.21839 0.10599 0.53106 0.0
H1377 H 0.26875 0.11674 0.54493 0.0
H1378 H 0.21055 0.10674 0.56074 0.0
H1379 H 0.26 0.11739 0.57437 0.0
H1380 H 0.20924 0.16383 0.45368 0.0
H1381 H 0.23494 0.16918 0.50888 0.0
H1382 H 0.21863 0.13856 0.46838 0.0
H1383 H 0.22529 0.1939 0.49344 0.0
H1384 H 0.21795 0.16117 0.56125 0.0
H1385 H 0.26908 0.17678 0.55709 0.0
H1386 H 0.20604 0.06165 0.50534 0.0
H1387 H 0.17921 0.10065 0.48031 0.0
H1388 H 0.29045 0.14371 0.47728 0.0
H1389 H 0.28938 0.13343 0.5296 0.0
H1390 H 0.32115 0.14369 0.47838 0.0
H1391 H 0.32011 0.13351 0.52976 0.0
H1392 H 0.26473 0.07985 0.48843 0.0
H1393 H 0.23185 0.10978 0.45896 0.0
H1394 H 0.25284 0.05475 0.47533 0.0
H1395 H 0.22057 0.08414 0.44637 0.0
H1396 H 0.3009 0.07368 0.53527 0.0
H1397 H 0.32121 0.08935 0.48819 0.0
H1398 H 0.26717 0.18787 0.45791 0.0
H1399 H 0.25422 0.14775 0.42482 0.0
Li1400 Li 0.38617 0.4986 0.76543 0.0
Li1401 Li 0.36565 0.51574 0.7531 0.0
Li1402 Li 0.3649 0.48453 0.7493 0.0
Li1403 Li 0.38635 0.50303 0.73587 0.0
C1404 C 0.36075 0.49469 0.78633 0.0
N1405 N 0.35862 0.48809 0.81986 0.0
C1406 C 0.36572 0.50658 0.79789 0.0
C1407 C 0.35466 0.47944 0.79184 0.0
C1408 C 0.36458 0.503 0.81477 0.0
C1409 C 0.35368 0.47635 0.80884 0.0
C1410 C 0.38981 0.53635 0.7558 0.0
C1411 C 0.38638 0.56403 0.74507 0.0
N1412 N 0.3885 0.57023 0.76059 0.0
C1413 C 0.39198 0.54301 0.77164 0.0
C1414 C 0.38704 0.54695 0.7424 0.0
C1415 C 0.39128 0.56016 0.7738 0.0
C1416 C 0.41395 0.50585 0.78541 0.0
N1417 N 0.40092 0.49529 0.78389 0.0
C1418 C 0.40966 0.48034 0.80794 0.0
C1419 C 0.39883 0.48247 0.79462 0.0
C1420 C 0.42291 0.49141 0.81014 0.0
C1421 C 0.42506 0.50421 0.79856 0.0
H1422 H 0.41581 0.51549 0.77632 0.0
H1423 H 0.38879 0.47382 0.79284 0.0
C1424 C 0.34165 0.53876 0.74212 0.0
N1425 N 0.35125 0.53453 0.75529 0.0
C1426 C 0.33094 0.5523 0.74308 0.0
C1427 C 0.34011 0.55692 0.77117 0.0
C1428 C 0.35054 0.5432 0.76971 0.0
C1429 C 0.3301 0.56161 0.75775 0.0
H1430 H 0.34224 0.53157 0.73086 0.0
H1431 H 0.35807 0.53954 0.7801 0.0
C1432 C 0.40215 0.47272 0.75308 0.0
N1433 N 0.42895 0.45539 0.76536 0.0
C1434 C 0.4182 0.47878 0.75078 0.0
C1435 C 0.39971 0.4578 0.7615 0.0
C1436 C 0.43159 0.46985 0.75713 0.0
C1437 C 0.41343 0.44923 0.76764 0.0
C1438 C 0.36037 0.50235 0.71565 0.0
C1439 C 0.35595 0.48769 0.70757 0.0
C1440 C 0.36361 0.51659 0.70634 0.0
C1441 C 0.35504 0.48748 0.69029 0.0
C1442 C 0.36259 0.51586 0.68909 0.0
N1443 N 0.35837 0.50144 0.68149 0.0
C1444 C 0.33514 0.46681 0.75209 0.0
C1445 C 0.35708 0.45158 0.73986 0.0
C1446 C 0.32451 0.45326 0.75061 0.0
N1447 N 0.3511 0.46568 0.74686 0.0
C1448 C 0.34681 0.43778 0.73794 0.0
C1449 C 0.33031 0.43851 0.74344 0.0
H1450 H 0.33072 0.47825 0.75748 0.0
H1451 H 0.36981 0.45111 0.73569 0.0
C1452 C 0.41089 0.51802 0.71584 0.0
N1453 N 0.40021 0.50505 0.71683 0.0
C1454 C 0.42128 0.51976 0.70213 0.0
C1455 C 0.40977 0.49456 0.69083 0.0
C1456 C 0.39966 0.49326 0.70482 0.0
C1457 C 0.42077 0.50798 0.68932 0.0
H1458 H 0.41151 0.52692 0.7258 0.0
H1459 H 0.39135 0.48285 0.70611 0.0
O1460 O 0.36175 0.49795 0.76972 0.0
O1461 O 0.3902 0.51955 0.75344 0.0
O1462 O 0.38888 0.48151 0.74736 0.0
O1463 O 0.36156 0.50274 0.73256 0.0
H1464 H 0.37076 0.51829 0.79388 0.0
H1465 H 0.35088 0.47002 0.78312 0.0
H1466 H 0.36851 0.51205 0.82384 0.0
H1467 H 0.34904 0.46459 0.81327 0.0
H1468 H 0.38416 0.57236 0.73481 0.0
H1469 H 0.39392 0.53505 0.78222 0.0
H1470 H 0.38529 0.54206 0.73007 0.0
H1471 H 0.39285 0.56546 0.786 0.0
H1472 H 0.40753 0.47027 0.81654 0.0
H1473 H 0.43536 0.51275 0.7995 0.0
H1474 H 0.3235 0.55555 0.73239 0.0
H1475 H 0.33968 0.56361 0.78279 0.0
H1476 H 0.42026 0.49036 0.74434 0.0
H1477 H 0.38734 0.45302 0.76347 0.0
H1478 H 0.44408 0.47443 0.75554 0.0
H1479 H 0.41174 0.43772 0.77429 0.0
H1480 H 0.35333 0.47657 0.71454 0.0
H1481 H 0.36698 0.52805 0.71236 0.0
H1482 H 0.3517 0.4762 0.68389 0.0
H1483 H 0.36517 0.52677 0.68174 0.0
H1484 H 0.31182 0.45438 0.75482 0.0
H1485 H 0.35176 0.42661 0.73243 0.0
H1486 H 0.42984 0.53008 0.70174 0.0
H1487 H 0.40886 0.48521 0.68126 0.0
Li1488 Li 0.76546 0.38735 0.49971 0.0
Li1489 Li 0.75218 0.36669 0.51671 0.0
Li1490 Li 0.74876 0.3662 0.48688 0.0
Li1491 Li 0.73564 0.3875 0.50318 0.0
C1492 C 0.7821 0.35895 0.48911 0.0
N1493 N 0.80748 0.35058 0.46773 0.0
C1494 C 0.79238 0.3455 0.49266 0.0
C1495 C 0.78475 0.36817 0.47469 0.0
C1496 C 0.80514 0.34145 0.4817 0.0
C1497 C 0.79764 0.36374 0.46404 0.0
C1498 C 0.76349 0.39509 0.53296 0.0
C1499 C 0.7715 0.41285 0.5556 0.0
N1500 N 0.78515 0.40331 0.55815 0.0
C1501 C 0.77758 0.38545 0.53583 0.0
C1502 C 0.7604 0.40889 0.54293 0.0
C1503 C 0.78838 0.38981 0.54862 0.0
C1504 C 0.78248 0.41617 0.49002 0.0
N1505 N 0.78452 0.4011 0.49723 0.0
C1506 C 0.81363 0.40579 0.50005 0.0
C1507 C 0.7997 0.39578 0.50226 0.0
C1508 C 0.81195 0.42135 0.49247 0.0
C1509 C 0.79611 0.42653 0.48744 0.0
H1510 H 0.77026 0.4201 0.4862 0.0
H1511 H 0.80104 0.38368 0.50783 0.0
C1512 C 0.76077 0.33757 0.53369 0.0
N1513 N 0.75438 0.35299 0.53584 0.0
C1514 C 0.76323 0.32717 0.5473 0.0
C1515 C 0.75224 0.34862 0.56504 0.0
C1516 C 0.75001 0.35861 0.5511 0.0
C1517 C 0.75903 0.33269 0.56327 0.0
H1518 H 0.76413 0.33344 0.5214 0.0
H1519 H 0.74492 0.37091 0.55249 0.0
C1520 C 0.73764 0.39411 0.4697 0.0
N1521 N 0.71599 0.40161 0.44427 0.0
C1522 C 0.72352 0.38442 0.46713 0.0
C1523 C 0.74077 0.40758 0.4593 0.0
C1524 C 0.71272 0.38842 0.45423 0.0
C1525 C 0.72966 0.41119 0.44652 0.0
C1526 C 0.71879 0.35959 0.51474 0.0
C1527 C 0.70842 0.34609 0.51167 0.0
C1528 C 0.71621 0.36934 0.52882 0.0
C1529 C 0.69563 0.34252 0.52277 0.0
C1530 C 0.70329 0.36537 0.53962 0.0
N1531 N 0.69336 0.35215 0.5364 0.0
C1532 C 0.74072 0.33633 0.47094 0.0
C1533 C 0.75115 0.35693 0.45282 0.0
C1534 C 0.73892 0.32525 0.45778 0.0
N1535 N 0.74671 0.35182 0.46824 0.0
C1536 C 0.74958 0.34626 0.4393 0.0
C1537 C 0.74337 0.33016 0.44167 0.0
H1538 H 0.7373 0.33261 0.48335 0.0
H1539 H 0.75594 0.36929 0.45098 0.0
C1540 C 0.71903 0.41687 0.51177 0.0
N1541 N 0.71673 0.40156 0.50516 0.0
C1542 C 0.70562 0.42762 0.51375 0.0
C1543 C 0.68776 0.40674 0.50185 0.0
C1544 C 0.70148 0.39634 0.50024 0.0
C1545 C 0.68973 0.4226 0.50874 0.0
H1546 H 0.7313 0.42071 0.51549 0.0
H1547 H 0.69994 0.38406 0.49515 0.0
O1548 O 0.76956 0.363 0.49977 0.0
O1549 O 0.75267 0.39112 0.52052 0.0
O1550 O 0.74844 0.39049 0.48225 0.0
O1551 O 0.73134 0.36317 0.50393 0.0
H1552 H 0.79053 0.33826 0.50379 0.0
H1553 H 0.77699 0.37867 0.47175 0.0
H1554 H 0.81319 0.33106 0.48429 0.0
H1555 H 0.79982 0.37077 0.45285 0.0
H1556 H 0.76926 0.4235 0.56341 0.0
H1557 H 0.78016 0.37467 0.52832 0.0
H1558 H 0.74952 0.41646 0.54092 0.0
H1559 H 0.79933 0.38245 0.55096 0.0
H1560 H 0.82564 0.40123 0.50392 0.0
H1561 H 0.79425 0.43851 0.4817 0.0
H1562 H 0.76868 0.31508 0.54534 0.0
H1563 H 0.74859 0.35331 0.57706 0.0
H1564 H 0.72091 0.37389 0.47498 0.0
H1565 H 0.75167 0.41518 0.46108 0.0
H1566 H 0.70175 0.38103 0.45212 0.0
H1567 H 0.73193 0.42159 0.43839 0.0
H1568 H 0.71023 0.33844 0.50081 0.0
H1569 H 0.72404 0.37988 0.53138 0.0
H1570 H 0.68751 0.3321 0.52055 0.0
H1571 H 0.70116 0.37281 0.55056 0.0
H1572 H 0.73389 0.31306 0.46018 0.0
H1573 H 0.75339 0.35051 0.42717 0.0
H1574 H 0.7077 0.4398 0.51895 0.0
H1575 H 0.67569 0.40233 0.498 0.0
Li1576 Li 0.63741 0.98612 0.75482 0.0
Li1577 Li 0.61638 0.00423 0.76705 0.0
Li1578 Li 0.61666 0.99823 0.73729 0.0
Li1579 Li 0.63772 0.01608 0.74984 0.0
C1580 C 0.5994 0.97456 0.75068 0.0
N1581 N 0.57098 0.95974 0.73865 0.0
C1582 C 0.5839 0.9791 0.75692 0.0
C1583 C 0.60044 0.96244 0.73835 0.0
C1584 C 0.56969 0.97146 0.75068 0.0
C1585 C 0.58593 0.95513 0.73241 0.0
C1586 C 0.64163 0.00568 0.78772 0.0
C1587 C 0.63876 0.02185 0.81268 0.0
N1588 N 0.64208 0.00811 0.82186 0.0
C1589 C 0.64505 0.99174 0.7974 0.0
C1590 C 0.63852 0.02088 0.79541 0.0
C1591 C 0.64521 0.99322 0.81464 0.0
C1592 C 0.66714 0.97001 0.76356 0.0
N1593 N 0.65129 0.96735 0.75854 0.0
C1594 C 0.65592 0.93815 0.7575 0.0
C1595 C 0.64549 0.95182 0.75567 0.0
C1596 C 0.67239 0.94051 0.76257 0.0
C1597 C 0.67795 0.95668 0.76575 0.0
H1598 H 0.67142 0.98252 0.76571 0.0
H1599 H 0.63281 0.95004 0.75181 0.0
C1600 C 0.59293 0.02128 0.78699 0.0
N1601 N 0.60262 0.00755 0.78598 0.0
C1602 C 0.58298 0.02391 0.80089 0.0
C1603 C 0.59309 0.99818 0.81239 0.0
C1604 C 0.60266 0.99593 0.79816 0.0
C1605 C 0.5831 0.01234 0.81388 0.0
H1606 H 0.5929 0.03017 0.77699 0.0
H1607 H 0.61018 0.98493 0.79684 0.0
C1608 C 0.65465 0.99022 0.7279 0.0
N1609 N 0.68305 0.97372 0.71824 0.0
C1610 C 0.67017 0.9976 0.73003 0.0
C1611 C 0.65358 0.97445 0.72082 0.0
C1612 C 0.68437 0.98907 0.72505 0.0
C1613 C 0.66808 0.96631 0.71605 0.0
C1614 C 0.61261 0.0359 0.74371 0.0
C1615 C 0.60956 0.03985 0.72713 0.0
C1616 C 0.61548 0.04858 0.75514 0.0
C1617 C 0.60953 0.05645 0.72224 0.0
C1618 C 0.61539 0.06502 0.74975 0.0
N1619 N 0.61244 0.06858 0.73356 0.0
C1620 C 0.58693 1.00064 0.71902 0.0
C1621 C 0.60883 0.98724 0.70478 0.0
C1622 C 0.57628 0.99812 0.70562 0.0
N1623 N 0.60284 0.99513 0.71838 0.0
C1624 C 0.59856 0.98428 0.69119 0.0
C1625 C 0.58204 0.98971 0.69153 0.0
H1626 H 0.58251 0.00689 0.73001 0.0
H1627 H 0.62155 0.98315 0.70451 0.0
C1628 C 0.66084 0.04122 0.75855 0.0
N1629 N 0.65149 0.0349 0.74607 0.0
C1630 C 0.67095 0.05498 0.75577 0.0
C1631 C 0.66172 0.05537 0.7273 0.0
C1632 C 0.65191 0.04153 0.73061 0.0
C1633 C 0.67145 0.06231 0.73997 0.0
H1634 H 0.66058 0.03548 0.77063 0.0
H1635 H 0.64456 0.03606 0.72084 0.0
O1636 O 0.61344 0.9822 0.75632 0.0
O1637 O 0.64114 0.00443 0.77083 0.0
O1638 O 0.64062 0.9982 0.73309 0.0
O1639 O 0.61297 0.01971 0.74869 0.0
H1640 H 0.58282 0.98853 0.76636 0.0
H1641 H 0.61229 0.959 0.73312 0.0
H1642 H 0.55761 0.97489 0.75536 0.0
H1643 H 0.58655 0.94585 0.72276 0.0
H1644 H 0.63627 0.0335 0.81879 0.0
H1645 H 0.64733 0.97984 0.79169 0.0
H1646 H 0.63574 0.03177 0.78813 0.0
H1647 H 0.64776 0.98252 0.82228 0.0
H1648 H 0.65113 0.92585 0.75511 0.0
H1649 H 0.6906 0.95902 0.76954 0.0
H1650 H 0.57546 0.035 0.80159 0.0
H1651 H 0.59332 0.98884 0.82202 0.0
H1652 H 0.67128 0.00971 0.73562 0.0
H1653 H 0.64173 0.96838 0.7194 0.0
H1654 H 0.69646 0.99462 0.72667 0.0
H1655 H 0.66745 0.95404 0.7107 0.0
H1656 H 0.60746 0.03021 0.71808 0.0
H1657 H 0.61796 0.04575 0.76799 0.0
H1658 H 0.60728 0.05968 0.70944 0.0
H1659 H 0.6177 0.07495 0.75845 0.0
H1660 H 0.56359 0.0024 0.70641 0.0
H1661 H 0.60353 0.97794 0.68046 0.0
H1662 H 0.67848 0.05964 0.76584 0.0
H1663 H 0.66152 0.06066 0.71498 0.0
Li1664 Li 0.01634 0.25197 0.86585 0.0
Li1665 Li 0.99964 0.26569 0.88583 0.0
Li1666 Li 0.00432 0.23461 0.88745 0.0
Li1667 Li 0.98666 0.24827 0.86546 0.0
C1668 C 0.03724 0.25443 0.89152 0.0
N1669 N 0.07128 0.2571 0.89408 0.0
C1670 C 0.04526 0.26886 0.88633 0.0
C1671 C 0.04654 0.24136 0.89806 0.0
C1672 C 0.06248 0.26996 0.88769 0.0
C1673 C 0.06373 0.24296 0.89926 0.0
C1674 C 0.99709 0.28562 0.86102 0.0
C1675 C 0.9795 0.30966 0.86351 0.0
N1676 N 0.99291 0.31961 0.86127 0.0
C1677 C 0.01069 0.2961 0.85873 0.0
C1678 C 0.98136 0.29246 0.86339 0.0
C1679 C 0.00831 0.31324 0.85888 0.0
C1680 C 0.03388 0.26349 0.83786 0.0
N1681 N 0.03517 0.25337 0.85125 0.0
C1682 C 0.06253 0.24538 0.84311 0.0
C1683 C 0.04901 0.24409 0.85382 0.0
C1684 C 0.06175 0.25617 0.82949 0.0
C1685 C 0.04711 0.26519 0.82685 0.0
H1686 H 0.02251 0.27018 0.83564 0.0
H1687 H 0.04956 0.23562 0.86415 0.0
C1688 C 0.98236 0.28579 0.9087 0.0
N1689 N 0.99648 0.28484 0.89957 0.0
C1690 C 0.97924 0.29963 0.91859 0.0
C1691 C 0.00535 0.31122 0.90972 0.0
C1692 C 0.00801 0.2971 0.90009 0.0
C1693 C 0.99077 0.31267 0.91911 0.0
H1694 H 0.97352 0.27578 0.90837 0.0
H1695 H 0.01918 0.29608 0.89286 0.0
C1696 C 0.01175 0.22319 0.85076 0.0
N1697 N 0.02889 0.20881 0.82491 0.0
C1698 C 0.00818 0.22767 0.83444 0.0
C1699 C 0.02392 0.21131 0.85397 0.0
C1700 C 0.01703 0.22028 0.82153 0.0
C1701 C 0.03247 0.2042 0.84072 0.0
C1702 C 0.96707 0.24297 0.89139 0.0
C1703 C 0.96307 0.22688 0.89637 0.0
C1704 C 0.95439 0.25412 0.88753 0.0
C1705 C 0.94645 0.22214 0.89719 0.0
C1706 C 0.93792 0.2489 0.88847 0.0
N1707 N 0.93432 0.23315 0.89323 0.0
C1708 C 0.01149 0.2185 0.91753 0.0
C1709 C 0.00351 0.20055 0.8957 0.0
C1710 C 0.01339 0.20508 0.92827 0.0
N1711 N 0.00676 0.21599 0.90158 0.0
C1712 C 0.00506 0.18678 0.90607 0.0
C1713 C 0.01013 0.18896 0.92257 0.0
H1714 H 0.01383 0.23095 0.92187 0.0
H1715 H 0.99963 0.19897 0.88297 0.0
C1716 C 0.96298 0.25653 0.84081 0.0
N1717 N 0.96783 0.24461 0.85166 0.0
C1718 C 0.9491 0.25409 0.83078 0.0
C1719 C 0.94569 0.22697 0.84298 0.0
C1720 C 0.95971 0.22989 0.85268 0.0
C1721 C 0.94018 0.23919 0.83188 0.0
H1722 H 0.9699 0.26794 0.83991 0.0
H1723 H 0.96411 0.22044 0.86108 0.0
O1724 O 0.02038 0.2531 0.89033 0.0
O1725 O 0.99918 0.26878 0.86117 0.0
O1726 O 0.00354 0.23061 0.86356 0.0
O1727 O 0.9833 0.24776 0.89025 0.0
H1728 H 0.03835 0.27895 0.88095 0.0
H1729 H 0.04059 0.23005 0.90203 0.0
H1730 H 0.06885 0.28101 0.88359 0.0
H1731 H 0.07107 0.23292 0.90424 0.0
H1732 H 0.96741 0.3151 0.86542 0.0
H1733 H 0.023 0.29111 0.85711 0.0
H1734 H 0.97071 0.28459 0.86526 0.0
H1735 H 0.01875 0.32148 0.8572 0.0
H1736 H 0.07355 0.23815 0.84563 0.0
H1737 H 0.04578 0.27331 0.81626 0.0
H1738 H 0.96799 0.30001 0.92587 0.0
H1739 H 0.01452 0.321 0.90956 0.0
H1740 H 0.99883 0.23691 0.83179 0.0
H1741 H 0.02689 0.20781 0.86657 0.0
H1742 H 0.01449 0.22371 0.80883 0.0
H1743 H 0.04201 0.19507 0.843 0.0
H1744 H 0.97267 0.21811 0.89949 0.0
H1745 H 0.95722 0.26662 0.8837 0.0
H1746 H 0.94319 0.2097 0.90095 0.0
H1747 H 0.928 0.25736 0.88539 0.0
H1748 H 0.01713 0.2073 0.94096 0.0
H1749 H 0.00252 0.17456 0.90118 0.0
H1750 H 0.94528 0.26385 0.82241 0.0
H1751 H 0.93937 0.21518 0.84399 0.0
Li1752 Li 0.51611 0.7534 0.36448 0.0
Li1753 Li 0.49951 0.76731 0.38501 0.0
Li1754 Li 0.5041 0.73689 0.38656 0.0
Li1755 Li 0.48622 0.74885 0.36463 0.0
C1756 C 0.53312 0.76617 0.39165 0.0
N1757 N 0.55807 0.78877 0.39775 0.0
C1758 C 0.53409 0.78077 0.38239 0.0
C1759 C 0.54484 0.76305 0.40399 0.0
C1760 C 0.54679 0.79204 0.38567 0.0
C1761 C 0.55736 0.77463 0.40689 0.0
C1762 C 0.48801 0.78254 0.35578 0.0
C1763 C 0.46159 0.79636 0.3575 0.0
N1764 N 0.46706 0.808 0.34662 0.0
C1765 C 0.49337 0.7946 0.34458 0.0
C1766 C 0.47199 0.7834 0.36228 0.0
C1767 C 0.4826 0.80739 0.34012 0.0
C1768 C 0.53257 0.76242 0.33516 0.0
N1769 N 0.53482 0.7555 0.35033 0.0
C1770 C 0.56373 0.75197 0.34507 0.0
C1771 C 0.55 0.75032 0.35545 0.0
C1772 C 0.56182 0.75917 0.32934 0.0
C1773 C 0.54598 0.76445 0.32443 0.0
H1774 H 0.52033 0.76637 0.33141 0.0
H1775 H 0.55146 0.74496 0.36764 0.0
C1776 C 0.4958 0.78399 0.41525 0.0
N1777 N 0.49701 0.78651 0.39866 0.0
C1778 C 0.49388 0.79741 0.42602 0.0
C1779 C 0.4945 0.81576 0.40241 0.0
C1780 C 0.4967 0.80204 0.39216 0.0
C1781 C 0.49304 0.81362 0.41965 0.0
H1782 H 0.49635 0.77152 0.42011 0.0
H1783 H 0.49817 0.80387 0.37902 0.0
C1784 C 0.51458 0.72006 0.35701 0.0
N1785 N 0.53625 0.69604 0.34589 0.0
C1786 C 0.51156 0.71189 0.34206 0.0
C1787 C 0.52863 0.71605 0.36629 0.0
C1788 C 0.52266 0.69977 0.33665 0.0
C1789 C 0.53944 0.70387 0.36046 0.0
C1790 C 0.46898 0.74713 0.39749 0.0
C1791 C 0.46376 0.73108 0.40131 0.0
C1792 C 0.45957 0.76067 0.4028 0.0
C1793 C 0.44905 0.72881 0.41014 0.0
C1794 C 0.44494 0.75789 0.41162 0.0
N1795 N 0.44002 0.74215 0.41506 0.0
C1796 C 0.51344 0.72078 0.41619 0.0
C1797 C 0.50143 0.70328 0.3959 0.0
C1798 C 0.51543 0.70738 0.42697 0.0
N1799 N 0.50655 0.71848 0.40101 0.0
C1800 C 0.50318 0.68955 0.40627 0.0
C1801 C 0.51028 0.69149 0.42205 0.0
H1802 H 0.51743 0.73303 0.41988 0.0
H1803 H 0.49589 0.70185 0.38379 0.0
C1804 C 0.46633 0.75206 0.33599 0.0
N1805 N 0.46717 0.7448 0.35117 0.0
C1806 C 0.45253 0.74959 0.32587 0.0
C1807 C 0.44096 0.7317 0.34689 0.0
C1808 C 0.45494 0.73461 0.35665 0.0
C1809 C 0.43959 0.73932 0.3313 0.0
H1810 H 0.47641 0.75977 0.33172 0.0
H1811 H 0.45605 0.72866 0.36855 0.0
O1812 O 0.52081 0.75491 0.3887 0.0
O1813 O 0.49848 0.77 0.36028 0.0
O1814 O 0.50388 0.73203 0.3624 0.0
O1815 O 0.4835 0.74961 0.38909 0.0
H1816 H 0.52518 0.7834 0.37275 0.0
H1817 H 0.54426 0.75179 0.41124 0.0
H1818 H 0.54769 0.80339 0.3786 0.0
H1819 H 0.56652 0.77238 0.4164 0.0
H1820 H 0.44915 0.79716 0.36242 0.0
H1821 H 0.50575 0.79412 0.33946 0.0
H1822 H 0.4676 0.77408 0.37079 0.0
H1823 H 0.48659 0.81683 0.33149 0.0
H1824 H 0.57576 0.74791 0.34941 0.0
H1825 H 0.54395 0.76989 0.31234 0.0
H1826 H 0.49323 0.79505 0.4392 0.0
H1827 H 0.49374 0.8279 0.39678 0.0
H1828 H 0.50074 0.71491 0.33472 0.0
H1829 H 0.53125 0.72237 0.37781 0.0
H1830 H 0.52047 0.69333 0.32511 0.0
H1831 H 0.55038 0.70066 0.3675 0.0
H1832 H 0.47088 0.72047 0.39734 0.0
H1833 H 0.46352 0.7732 0.40022 0.0
H1834 H 0.44481 0.71645 0.41308 0.0
H1835 H 0.43752 0.76825 0.41576 0.0
H1836 H 0.52114 0.70943 0.43893 0.0
H1837 H 0.49881 0.6776 0.40204 0.0
H1838 H 0.45212 0.75546 0.31381 0.0
H1839 H 0.43126 0.72371 0.35158 0.0
Li1840 Li 0.00351 0.76528 0.61479 0.0
Li1841 Li 0.98565 0.75335 0.63623 0.0
Li1842 Li 0.01577 0.74971 0.63711 0.0
Li1843 Li 0.99875 0.73536 0.61649 0.0
C1844 C 0.0035 0.78725 0.63876 0.0
N1845 N 0.00404 0.82143 0.6371 0.0
C1846 C 0.98894 0.79631 0.64116 0.0
C1847 C 0.01834 0.79558 0.63559 0.0
C1848 C 0.98947 0.81358 0.64027 0.0
C1849 C 0.01835 0.81286 0.63476 0.0
C1850 C 0.9746 0.74689 0.59846 0.0
C1851 C 0.95588 0.72726 0.58591 0.0
N1852 N 0.96035 0.73287 0.57067 0.0
C1853 C 0.979 0.75246 0.58267 0.0
C1854 C 0.96291 0.73421 0.60011 0.0
C1855 C 0.97165 0.74523 0.56877 0.0
C1856 C 0.02034 0.78514 0.59111 0.0
N1857 N 0.00621 0.78361 0.60012 0.0
C1858 C 0.9954 0.80856 0.58841 0.0
C1859 C 0.99374 0.79485 0.59882 0.0
C1860 C 0.00994 0.81061 0.57903 0.0
C1861 C 0.02247 0.79859 0.58045 0.0
H1862 H 0.02991 0.77585 0.5921 0.0
H1863 H 0.98253 0.79319 0.60595 0.0
C1864 C 0.96915 0.76278 0.66543 0.0
N1865 N 0.96667 0.75697 0.64982 0.0
C1866 C 0.95577 0.76498 0.67615 0.0
C1867 C 0.9375 0.7552 0.65453 0.0
C1868 C 0.95123 0.75334 0.64417 0.0
C1869 C 0.9397 0.76105 0.67077 0.0
H1870 H 0.98159 0.76552 0.66959 0.0
H1871 H 0.94959 0.74887 0.63168 0.0
C1872 C 0.03618 0.74306 0.61266 0.0
N1873 N 0.0692 0.73409 0.61354 0.0
C1874 C 0.04078 0.72654 0.61028 0.0
C1875 C 0.04839 0.75503 0.61541 0.0
C1876 C 0.05754 0.72226 0.61077 0.0
C1877 C 0.06501 0.75024 0.61585 0.0
C1878 C 0.99061 0.7274 0.65472 0.0
C1879 C 0.99766 0.73042 0.67024 0.0
C1880 C 0.97515 0.71966 0.65371 0.0
C1881 C 0.98908 0.72568 0.68451 0.0
C1882 C 0.96695 0.71515 0.66826 0.0
N1883 N 0.97403 0.71823 0.68323 0.0
C1884 C 0.03955 0.76094 0.66039 0.0
C1885 C 0.04219 0.73273 0.65269 0.0
C1886 C 0.05311 0.75959 0.67104 0.0
N1887 N 0.03446 0.74764 0.65141 0.0
C1888 C 0.05591 0.73088 0.66306 0.0
C1889 C 0.06151 0.74442 0.67242 0.0
H1890 H 0.03301 0.77256 0.65938 0.0
H1891 H 0.03763 0.72227 0.6457 0.0
C1892 C 0.00198 0.71608 0.58757 0.0
N1893 N 0.99653 0.71575 0.6035 0.0
C1894 C 0.99991 0.70227 0.57736 0.0
C1895 C 0.98678 0.68801 0.60017 0.0
C1896 C 0.98922 0.70205 0.60997 0.0
C1897 C 0.99209 0.688 0.58358 0.0
H1898 H 0.00783 0.72714 0.58278 0.0
H1899 H 0.98507 0.70209 0.62267 0.0
O1900 O 0.00319 0.77032 0.63929 0.0
O1901 O 0.98197 0.75352 0.6122 0.0
O1902 O 0.01982 0.74746 0.61249 0.0
O1903 O 0.99862 0.73233 0.64062 0.0
H1904 H 0.97731 0.79008 0.64347 0.0
H1905 H 0.0297 0.78877 0.63356 0.0
H1906 H 0.97828 0.82074 0.64203 0.0
H1907 H 0.02973 0.81946 0.63221 0.0
H1908 H 0.94695 0.71734 0.58701 0.0
H1909 H 0.9881 0.76215 0.58112 0.0
H1910 H 0.9596 0.7295 0.6122 0.0
H1911 H 0.97498 0.74938 0.55648 0.0
H1912 H 0.98546 0.81755 0.5879 0.0
H1913 H 0.03374 0.79941 0.57322 0.0
H1914 H 0.958 0.76938 0.68862 0.0
H1915 H 0.92529 0.75221 0.64986 0.0
H1916 H 0.03151 0.71708 0.60828 0.0
H1917 H 0.04505 0.76784 0.61741 0.0
H1918 H 0.06127 0.70951 0.60902 0.0
H1919 H 0.07457 0.75935 0.61808 0.0
H1920 H 0.00953 0.73651 0.67131 0.0
H1921 H 0.96934 0.71752 0.64183 0.0
H1922 H 0.99437 0.728 0.6966 0.0
H1923 H 0.95491 0.70931 0.66766 0.0
H1924 H 0.05707 0.77035 0.678 0.0
H1925 H 0.06187 0.7189 0.66397 0.0
H1926 H 0.00448 0.70279 0.56477 0.0
H1927 H 0.9805 0.67743 0.60548 0.0
Li1928 Li 0.50398 0.26712 0.11621 0.0
Li1929 Li 0.48575 0.25427 0.13716 0.0
Li1930 Li 0.51668 0.25054 0.13757 0.0
Li1931 Li 0.50001 0.23611 0.11677 0.0
C1932 C 0.50356 0.28789 0.14213 0.0
N1933 N 0.50356 0.322 0.14476 0.0
C1934 C 0.48906 0.29627 0.14653 0.0
C1935 C 0.51809 0.29683 0.13922 0.0
C1936 C 0.48931 0.31353 0.14777 0.0
C1937 C 0.51783 0.31408 0.14056 0.0
C1938 C 0.46799 0.25307 0.10592 0.0
C1939 C 0.44342 0.23746 0.09915 0.0
N1940 N 0.43662 0.25127 0.09232 0.0
C1941 C 0.46079 0.26708 0.09872 0.0
C1942 C 0.45927 0.23811 0.10606 0.0
C1943 C 0.4449 0.26593 0.09196 0.0
C1944 C 0.51893 0.28532 0.09041 0.0
N1945 N 0.50659 0.28575 0.10186 0.0
C1946 C 0.49812 0.31253 0.09249 0.0
C1947 C 0.49615 0.29892 0.10297 0.0
C1948 C 0.51076 0.31244 0.08054 0.0
C1949 C 0.52123 0.29858 0.07955 0.0
H1950 H 0.52694 0.27463 0.08965 0.0
H1951 H 0.48622 0.29884 0.11194 0.0
C1952 C 0.46952 0.25562 0.16761 0.0
N1953 N 0.46675 0.25695 0.15107 0.0
C1954 C 0.45648 0.25737 0.17886 0.0
C1955 C 0.4379 0.26171 0.15582 0.0
C1956 C 0.45133 0.26007 0.14505 0.0
C1957 C 0.44034 0.2604 0.17302 0.0
H1958 H 0.48193 0.25326 0.17207 0.0
H1959 H 0.44933 0.2613 0.13193 0.0
C1960 C 0.5372 0.24618 0.11248 0.0
N1961 N 0.57083 0.23994 0.11179 0.0
C1962 C 0.54301 0.23027 0.10893 0.0
C1963 C 0.54847 0.25896 0.11549 0.0
C1964 C 0.56007 0.22736 0.10867 0.0
C1965 C 0.56543 0.25554 0.11515 0.0
C1966 C 0.49256 0.21918 0.14674 0.0
C1967 C 0.50281 0.20739 0.1542 0.0
C1968 C 0.47562 0.21602 0.14517 0.0
C1969 C 0.49597 0.19246 0.15966 0.0
C1970 C 0.46925 0.20095 0.1508 0.0
N1971 N 0.47947 0.18957 0.15785 0.0
C1972 C 0.53948 0.26102 0.162 0.0
C1973 C 0.54424 0.23394 0.15176 0.0
C1974 C 0.55305 0.25969 0.17264 0.0
N1975 N 0.53539 0.24826 0.15182 0.0
C1976 C 0.55799 0.23211 0.16211 0.0
C1977 C 0.56252 0.24509 0.17278 0.0
H1978 H 0.53215 0.27222 0.16193 0.0
H1979 H 0.54059 0.22389 0.1437 0.0
C1980 C 0.49101 0.21869 0.08805 0.0
N1981 N 0.49784 0.21681 0.10332 0.0
C1982 C 0.48847 0.20496 0.07787 0.0
C1983 C 0.50085 0.18767 0.09894 0.0
C1984 C 0.50301 0.20174 0.10879 0.0
C1985 C 0.49328 0.18916 0.08334 0.0
H1986 H 0.4874 0.23087 0.08382 0.0
H1987 H 0.50884 0.20062 0.12077 0.0
O1988 O 0.50353 0.27101 0.14077 0.0
O1989 O 0.48354 0.25402 0.11261 0.0
O1990 O 0.52054 0.24921 0.11304 0.0
O1991 O 0.49909 0.23386 0.14133 0.0
H1992 H 0.47771 0.28955 0.14885 0.0
H1993 H 0.52942 0.29054 0.13586 0.0
H1994 H 0.47817 0.32018 0.15108 0.0
H1995 H 0.52896 0.32117 0.13824 0.0
H1996 H 0.43655 0.22596 0.09919 0.0
H1997 H 0.46736 0.27873 0.0984 0.0
H1998 H 0.4647 0.22707 0.11131 0.0
H1999 H 0.43917 0.27669 0.08641 0.0
H2000 H 0.48962 0.32287 0.09349 0.0
H2001 H 0.53118 0.29806 0.07057 0.0
H2002 H 0.4591 0.25656 0.19198 0.0
H2003 H 0.42571 0.26379 0.15065 0.0
H2004 H 0.53445 0.22026 0.10652 0.0
H2005 H 0.54416 0.27135 0.11818 0.0
H2006 H 0.56475 0.21509 0.10603 0.0
H2007 H 0.5743 0.26529 0.11757 0.0
H2008 H 0.51592 0.2097 0.15567 0.0
H2009 H 0.46744 0.22512 0.13979 0.0
H2010 H 0.50378 0.18318 0.16536 0.0
H2011 H 0.45616 0.19833 0.14961 0.0
H2012 H 0.55619 0.27005 0.18057 0.0
H2013 H 0.5648 0.22056 0.16198 0.0
H2014 H 0.48288 0.20669 0.0658 0.0
H2015 H 0.50475 0.17572 0.10362 0.0
H2016 H 0.22759 0.78594 0.84329 0.0
H2017 H 0.25036 0.79525 0.93942 0.0
H2018 H 0.23983 0.74469 0.87502 0.0
H2019 H 0.23615 0.83631 0.90826 0.0
H2020 H 0.24678 0.77658 0.91591 0.0
H2021 H 0.23084 0.80462 0.86687 0.0
C2022 C 0.23087 0.78079 0.85523 0.0
C2023 C 0.23344 0.76369 0.85715 0.0
C2024 C 0.24445 0.78967 0.9142 0.0
C2025 C 0.23737 0.78507 0.8842 0.0
C2026 C 0.2464 0.80034 0.92766 0.0
C2027 C 0.24353 0.8174 0.92585 0.0
C2028 C 0.23959 0.79607 0.89877 0.0
C2029 C 0.23871 0.82329 0.9102 0.0
C2030 C 0.23282 0.79148 0.86867 0.0
C2031 C 0.23795 0.75779 0.87288 0.0
N2032 N 0.23687 0.81265 0.89729 0.0
N2033 N 0.23975 0.76844 0.88578 0.0
H2034 H 0.02053 0.55555 0.38922 0.0
H2035 H 0.07431 0.48908 0.33914 0.0
H2036 H 0.02234 0.50375 0.40219 0.0
H2037 H 0.06312 0.53792 0.32058 0.0
H2038 H 0.05702 0.49469 0.36342 0.0
H2039 H 0.03785 0.5498 0.36505 0.0
C2040 C 0.02464 0.54297 0.38701 0.0
C2041 C 0.02001 0.53011 0.39774 0.0
C2042 C 0.05832 0.50416 0.35401 0.0
C2043 C 0.0398 0.52342 0.37007 0.0
C2044 C 0.06826 0.501 0.34021 0.0
C2045 C 0.07014 0.51304 0.32781 0.0
C2046 C 0.05033 0.51954 0.35552 0.0
C2047 C 0.06187 0.52822 0.32975 0.0
C2048 C 0.03444 0.53968 0.37316 0.0
C2049 C 0.02551 0.51401 0.39416 0.0
N2050 N 0.05239 0.53106 0.34336 0.0
N2051 N 0.03517 0.51113 0.38067 0.0
H2052 H 0.74304 0.73309 0.85355 0.0
H2053 H 0.78644 0.68865 0.93062 0.0
H2054 H 0.79554 0.73581 0.86315 0.0
H2055 H 0.73666 0.67754 0.91448 0.0
H2056 H 0.78977 0.70684 0.90671 0.0
H2057 H 0.7401 0.71386 0.87677 0.0
C2058 C 0.75394 0.72967 0.86059 0.0
C2059 C 0.76955 0.73609 0.85644 0.0
C2060 C 0.77814 0.70038 0.90838 0.0
C2061 C 0.76629 0.71404 0.883 0.0
C2062 C 0.77624 0.68989 0.922 0.0
C2063 C 0.76123 0.6815 0.92465 0.0
C2064 C 0.76489 0.70263 0.89735 0.0
C2065 C 0.74837 0.68392 0.91316 0.0
C2066 C 0.75227 0.71862 0.87377 0.0
C2067 C 0.78329 0.73106 0.86584 0.0
N2068 N 0.75048 0.69429 0.90007 0.0
N2069 N 0.78133 0.7204 0.87873 0.0
H2070 H 0.96647 0.97535 0.40748 0.0
H2071 H 0.95634 1.00071 0.31206 0.0
H2072 H 0.00723 0.99018 0.37622 0.0
H2073 H 0.91588 0.9837 0.34261 0.0
H2074 H 0.97511 0.99715 0.3355 0.0
H2075 H 0.94769 0.97854 0.38396 0.0
C2076 C 0.9715 0.9792 0.39565 0.0
C2077 C 0.98848 0.9825 0.39385 0.0
C2078 C 0.96213 0.99419 0.33709 0.0
C2079 C 0.96699 0.98636 0.36687 0.0
C2080 C 0.9514 0.99613 0.32367 0.0
C2081 C 0.93448 0.99248 0.32533 0.0
C2082 C 0.95593 0.98856 0.35233 0.0
C2083 C 0.92878 0.98688 0.34079 0.0
C2084 C 0.96075 0.98111 0.38224 0.0
C2085 C 0.99422 0.98771 0.37827 0.0
N2086 N 0.93947 0.98507 0.35367 0.0
N2087 N 0.98351 0.98947 0.3654 0.0
H2088 H 0.25964 0.23104 0.64845 0.0
H2089 H 0.21614 0.18921 0.56992 0.0
H2090 H 0.20748 0.23574 0.63779 0.0
H2091 H 0.26551 0.17675 0.58632 0.0
H2092 H 0.21306 0.20722 0.594 0.0
H2093 H 0.26246 0.21226 0.62485 0.0
C2094 C 0.24879 0.22815 0.64111 0.0
C2095 C 0.23331 0.23498 0.64508 0.0
C2096 C 0.22455 0.20051 0.59234 0.0
C2097 C 0.23643 0.21346 0.61808 0.0
C2098 C 0.2263 0.19014 0.57863 0.0
C2099 C 0.24113 0.18139 0.57602 0.0
C2100 C 0.23774 0.20229 0.60354 0.0
C2101 C 0.25396 0.18341 0.58762 0.0
C2102 C 0.25039 0.21736 0.6277 0.0
C2103 C 0.21962 0.23063 0.63527 0.0
N2104 N 0.25198 0.19366 0.60082 0.0
N2105 N 0.22152 0.22022 0.62218 0.0
H2106 H 0.48391 0.54581 0.61123 0.0
H2107 H 0.43703 0.48337 0.67227 0.0
H2108 H 0.48547 0.49263 0.6058 0.0
H2109 H 0.42974 0.53635 0.6728 0.0
H2110 H 0.45537 0.48648 0.64841 0.0
H2111 H 0.46469 0.54257 0.63432 0.0
C2112 C 0.48013 0.53344 0.61479 0.0
C2113 C 0.48634 0.51947 0.60649 0.0
C2114 C 0.44973 0.49742 0.65373 0.0
C2115 C 0.46446 0.51567 0.63318 0.0
C2116 C 0.43916 0.49565 0.66731 0.0
C2117 C 0.43179 0.50962 0.67462 0.0
C2118 C 0.45304 0.51327 0.6474 0.0
C2119 C 0.43531 0.52524 0.66778 0.0
C2120 C 0.46921 0.5316 0.62806 0.0
C2121 C 0.48121 0.50376 0.61194 0.0
N2122 N 0.44569 0.52664 0.6546 0.0
N2123 N 0.4706 0.50229 0.62494 0.0
H2124 H 0.7841 0.2954 0.66082 0.0
H2125 H 0.7545 0.29908 0.56618 0.0
H2126 H 0.77221 0.25207 0.63185 0.0
H2127 H 0.77032 0.3419 0.59399 0.0
H2128 H 0.76 0.28175 0.59036 0.0
H2129 H 0.77821 0.31272 0.63674 0.0
C2130 C 0.78034 0.2895 0.64937 0.0
C2131 C 0.77871 0.27221 0.64838 0.0
C2132 C 0.76225 0.29494 0.59118 0.0
C2133 C 0.77172 0.29204 0.62076 0.0
C2134 C 0.75919 0.30484 0.57734 0.0
C2135 C 0.76196 0.322 0.578 0.0
C2136 C 0.76813 0.30221 0.60585 0.0
C2137 C 0.76778 0.32879 0.59294 0.0
C2138 C 0.77688 0.29942 0.63564 0.0
C2139 C 0.77346 0.26533 0.63328 0.0
N2140 N 0.77068 0.31888 0.60623 0.0
N2141 N 0.77018 0.27526 0.62008 0.0
H2142 H 0.52427 0.94402 0.61371 0.0
H2143 H 0.56067 0.01133 0.67644 0.0
H2144 H 0.51868 0.99671 0.60627 0.0
H2145 H 0.57805 0.96085 0.67428 0.0
H2146 H 0.54259 0.00578 0.65268 0.0
H2147 H 0.54163 0.94961 0.63779 0.0
C2148 C 0.52675 0.95677 0.61703 0.0
C2149 C 0.52003 0.9699 0.60779 0.0
C2150 C 0.55038 0.99594 0.65741 0.0
C2151 C 0.53967 0.97635 0.63567 0.0
C2152 C 0.56061 0.99906 0.671 0.0
C2153 C 0.5709 0.98654 0.67728 0.0
C2154 C 0.55028 0.98011 0.65018 0.0
C2155 C 0.57045 0.97091 0.6697 0.0
C2156 C 0.5366 0.95993 0.63087 0.0
C2157 C 0.52337 0.98616 0.61307 0.0
N2158 N 0.56027 0.96812 0.65659 0.0
N2159 N 0.53294 0.98892 0.62665 0.0
H2160 H 0.87073 0.23087 0.75042 0.0
H2161 H 0.91062 0.22523 0.84103 0.0
H2162 H 0.84338 0.21591 0.79388 0.0
H2163 H 0.93573 0.24679 0.79906 0.0
H2164 H 0.88623 0.22064 0.82368 0.0
H2165 H 0.89491 0.23606 0.76783 0.0
C2166 C 0.86974 0.22879 0.76364 0.0
C2167 C 0.85494 0.22292 0.77066 0.0
C2168 C 0.89706 0.2264 0.81827 0.0
C2169 C 0.88274 0.22861 0.79067 0.0
C2170 C 0.91103 0.22893 0.82814 0.0
C2171 C 0.92526 0.23639 0.82148 0.0
C2172 C 0.89732 0.23127 0.80156 0.0
C2173 C 0.92499 0.24115 0.80475 0.0
C2174 C 0.8836 0.23167 0.77356 0.0
C2175 C 0.85456 0.22018 0.78785 0.0
N2176 N 0.91127 0.23846 0.79536 0.0
N2177 N 0.86824 0.22301 0.79723 0.0
H2178 H 0.47259 0.87945 0.50239 0.0
H2179 H 0.50504 0.84543 0.41605 0.0
H2180 H 0.47789 0.91103 0.45966 0.0
H2181 H 0.47541 0.81525 0.44891 0.0
H2182 H 0.49973 0.86928 0.43379 0.0
H2183 H 0.47834 0.85527 0.48483 0.0
C2184 C 0.47504 0.88126 0.48932 0.0
C2185 C 0.47473 0.89718 0.48239 0.0
C2186 C 0.49443 0.8574 0.43706 0.0
C2187 C 0.48148 0.86977 0.46241 0.0
C2188 C 0.49734 0.84374 0.42689 0.0
C2189 C 0.49056 0.82817 0.4308 0.0
C2190 C 0.48494 0.85549 0.45147 0.0
C2191 C 0.48113 0.82685 0.44541 0.0
C2192 C 0.47823 0.8675 0.47933 0.0
C2193 C 0.4779 0.89892 0.4654 0.0
N2194 N 0.47866 0.8403 0.45523 0.0
N2195 N 0.48127 0.88537 0.45599 0.0
H2196 H 0.13779 0.2948 0.76422 0.0
H2197 H 0.08249 0.23197 0.8176 0.0
H2198 H 0.14605 0.24201 0.76569 0.0
H2199 H 0.07375 0.28466 0.81542 0.0
H2200 H 0.1061 0.23544 0.79897 0.0
H2201 H 0.1146 0.29139 0.78336 0.0
C2202 C 0.13479 0.2825 0.76864 0.0
C2203 C 0.14389 0.26867 0.76331 0.0
C2204 C 0.09902 0.24625 0.80256 0.0
C2205 C 0.11722 0.26465 0.78514 0.0
C2206 C 0.08558 0.24428 0.81328 0.0
C2207 C 0.0761 0.25804 0.8181 0.0
C2208 C 0.10306 0.26209 0.79661 0.0
C2209 C 0.08056 0.27367 0.81188 0.0
C2210 C 0.12148 0.28055 0.7795 0.0
C2211 C 0.13926 0.253 0.76928 0.0
N2212 N 0.09371 0.27527 0.80149 0.0
N2213 N 0.12627 0.25142 0.77987 0.0
H2214 H 0.513 0.62615 0.50722 0.0
H2215 H 0.51961 0.65977 0.4141 0.0
H2216 H 0.52574 0.59528 0.46548 0.0
H2217 H 0.50533 0.69019 0.45568 0.0
H2218 H 0.52224 0.63608 0.43274 0.0
H2219 H 0.51043 0.6498 0.48856 0.0
C2220 C 0.51516 0.6243 0.49412 0.0
C2221 C 0.51954 0.60865 0.48793 0.0
C2222 C 0.51854 0.64794 0.43779 0.0
C2223 C 0.51681 0.6358 0.46647 0.0
C2224 C 0.51695 0.66147 0.42714 0.0
C2225 C 0.5122 0.67702 0.4333 0.0
C2226 C 0.51537 0.64994 0.45478 0.0
C2227 C 0.50921 0.67851 0.45038 0.0
C2228 C 0.51379 0.63785 0.48347 0.0
C2229 C 0.5225 0.60713 0.47085 0.0
N2230 N 0.51081 0.66514 0.46049 0.0
N2231 N 0.52106 0.62051 0.46073 0.0
H2232 H 0.85363 0.74344 0.73236 0.0
H2233 H 0.93251 0.78705 0.69132 0.0
H2234 H 0.86454 0.79543 0.73806 0.0
H2235 H 0.91429 0.73922 0.67601 0.0
H2236 H 0.9089 0.78965 0.71017 0.0
H2237 H 0.87706 0.74093 0.71329 0.0
C2238 C 0.861 0.75431 0.72963 0.0
C2239 C 0.85715 0.76966 0.7368 0.0
C2240 C 0.91004 0.77861 0.70265 0.0
C2241 C 0.88395 0.7669 0.715 0.0
C2242 C 0.92355 0.77708 0.69197 0.0
C2243 C 0.92534 0.7629 0.68208 0.0
C2244 C 0.89833 0.76579 0.70361 0.0
C2245 C 0.91329 0.75043 0.68329 0.0
C2246 C 0.8743 0.7529 0.71868 0.0
C2247 C 0.86699 0.78339 0.73269 0.0
N2248 N 0.90034 0.75212 0.69391 0.0
N2249 N 0.87999 0.78167 0.72213 0.0
H2250 H 0.99338 0.89358 0.51289 0.0
H2251 H 0.0382 0.8285 0.57254 0.0
H2252 H 0.04654 0.88873 0.51637 0.0
H2253 H 0.98632 0.82585 0.55977 0.0
H2254 H 0.04128 0.85196 0.55372 0.0
H2255 H 0.99034 0.87017 0.53177 0.0
C2256 C 0.00443 0.88756 0.51752 0.0
C2257 C 0.02026 0.89317 0.51293 0.0
C2258 C 0.02923 0.84623 0.55504 0.0
C2259 C 0.01682 0.86647 0.53485 0.0
C2260 C 0.02746 0.83275 0.56573 0.0
C2261 C 0.01197 0.82508 0.56777 0.0
C2262 C 0.01539 0.85221 0.54637 0.0
C2263 C 0.99845 0.83146 0.55883 0.0
C2264 C 0.00267 0.87423 0.52839 0.0
C2265 C 0.03409 0.88504 0.51969 0.0
N2266 N 1.00048 0.84463 0.54855 0.0
N2267 N 0.03205 0.87213 0.5303 0.0
H2268 H 0.15813 0.72525 0.71516 0.0
H2269 H 0.0646 0.75596 0.70415 0.0
H2270 H 0.1276 0.74192 0.75579 0.0
H2271 H 0.09112 0.72891 0.66647 0.0
H2272 H 0.08841 0.75297 0.72263 0.0
H2273 H 0.13444 0.72823 0.69659 0.0
C2274 C 0.14645 0.72944 0.72023 0.0
C2275 C 0.14492 0.73332 0.73713 0.0
C2276 C 0.08902 0.74767 0.71033 0.0
C2277 C 0.11778 0.73703 0.71581 0.0
C2278 C 0.07548 0.74946 0.69974 0.0
C2279 C 0.07589 0.74268 0.68375 0.0
C2280 C 0.10317 0.73914 0.70486 0.0
C2281 C 0.09023 0.73419 0.67876 0.0
C2282 C 0.13294 0.73122 0.70958 0.0
C2283 C 0.1295 0.73902 0.74285 0.0
N2284 N 0.10332 0.73271 0.68925 0.0
N2285 N 0.11656 0.74073 0.73222 0.0
H2286 H 0.97253 0.58917 0.54639 0.0
H2287 H 0.98418 0.6873 0.55044 0.0
H2288 H 0.97648 0.61993 0.50287 0.0
H2289 H 0.99358 0.655 0.59205 0.0
H2290 H 0.9795 0.66301 0.53309 0.0
H2291 H 0.9781 0.61344 0.56367 0.0
C2292 C 0.97453 0.60105 0.54048 0.0
C2293 C 0.97403 0.60255 0.52317 0.0
C2294 C 0.98264 0.66125 0.54601 0.0
C2295 C 0.98042 0.63036 0.54285 0.0
C2296 C 0.98541 0.67513 0.55594 0.0
C2297 C 0.98932 0.67328 0.5728 0.0
C2298 C 0.98361 0.64536 0.55297 0.0
C2299 C 0.99034 0.65712 0.57922 0.0
C2300 C 0.9778 0.61487 0.55034 0.0
C2301 C 0.9769 0.6182 0.51616 0.0
N2302 N 0.98746 0.64381 0.56932 0.0
N2303 N 0.97988 0.63151 0.52603 0.0
H2304 H 0.78647 0.84498 0.22709 0.0
H2305 H 0.79638 0.9406 0.2515 0.0
H2306 H 0.74543 0.87658 0.24034 0.0
H2307 H 0.83674 0.91022 0.23397 0.0
H2308 H 0.77766 0.9171 0.24817 0.0
H2309 H 0.8052 0.86853 0.2302 0.0
C2310 C 0.78137 0.85688 0.23056 0.0
C2311 C 0.76431 0.85877 0.23344 0.0
C2312 C 0.79061 0.91557 0.24505 0.0
C2313 C 0.78576 0.88579 0.23723 0.0
C2314 C 0.80131 0.92902 0.24686 0.0
C2315 C 0.81819 0.92743 0.24299 0.0
C2316 C 0.7968 0.90035 0.23934 0.0
C2317 C 0.82389 0.91199 0.23732 0.0
C2318 C 0.79209 0.87031 0.23243 0.0
C2319 C 0.75849 0.87446 0.23821 0.0
N2320 N 0.81322 0.89908 0.23566 0.0
N2321 N 0.76918 0.88734 0.23994 0.0
H2322 H 0.76932 0.14924 0.24314 0.0
H2323 H 0.81211 0.07101 0.28642 0.0
H2324 H 0.76494 0.1385 0.29531 0.0
H2325 H 0.82415 0.08749 0.23703 0.0
H2326 H 0.79347 0.09471 0.28945 0.0
H2327 H 0.78818 0.1257 0.24019 0.0
C2328 C 0.77229 0.14188 0.25396 0.0
C2329 C 0.76554 0.14582 0.26949 0.0
C2330 C 0.80022 0.09316 0.27796 0.0
C2331 C 0.78714 0.1189 0.26622 0.0
C2332 C 0.81078 0.07959 0.27619 0.0
C2333 C 0.81969 0.07727 0.26144 0.0
C2334 C 0.79842 0.10445 0.26484 0.0
C2335 C 0.81765 0.08889 0.24867 0.0
C2336 C 0.78312 0.12852 0.25229 0.0
C2337 C 0.76998 0.136 0.28314 0.0
N2338 N 0.80718 0.10193 0.25064 0.0
N2339 N 0.78044 0.12295 0.28117 0.0
H2340 H 0.38302 0.00221 0.98138 0.0
H2341 H 0.34486 0.91066 0.98027 0.0
H2342 H 0.41077 0.95864 0.96759 0.0
H2343 H 0.31786 0.95368 0.99697 0.0
H2344 H 0.36908 0.92808 0.9755 0.0
H2345 H 0.359 0.98471 0.98709 0.0
C2346 C 0.38411 0.98896 0.97965 0.0
C2347 C 0.39897 0.98191 0.97397 0.0
C2348 C 0.35787 0.93372 0.98023 0.0
C2349 C 0.3714 0.9618 0.98032 0.0
C2350 C 0.34404 0.92375 0.98306 0.0
C2351 C 0.32926 0.93068 0.98906 0.0
C2352 C 0.35697 0.9508 0.98339 0.0
C2353 C 0.3289 0.94781 0.99214 0.0
C2354 C 0.37035 0.97898 0.98283 0.0
C2355 C 0.39953 0.96467 0.97171 0.0
N2356 N 0.34253 0.95727 0.98926 0.0
N2357 N 0.38596 0.95522 0.97488 0.0
H2358 H 0.21544 0.34469 0.27811 0.0
H2359 H 0.20464 0.43946 0.25102 0.0
H2360 H 0.25622 0.37633 0.26408 0.0
H2361 H 0.16519 0.41031 0.27226 0.0
H2362 H 0.22341 0.41597 0.2544 0.0
H2363 H 0.19661 0.36818 0.27507 0.0
C2364 C 0.22048 0.35659 0.2745 0.0
C2365 C 0.23749 0.35848 0.27134 0.0
C2366 C 0.21066 0.4147 0.25835 0.0
C2367 C 0.21589 0.38541 0.2676 0.0
C2368 C 0.1999 0.42808 0.25632 0.0
C2369 C 0.1833 0.42685 0.26134 0.0
C2370 C 0.20478 0.3999 0.26536 0.0
C2371 C 0.17792 0.41187 0.26837 0.0
C2372 C 0.20968 0.36998 0.27268 0.0
C2373 C 0.24319 0.37417 0.2664 0.0
N2374 N 0.18862 0.39897 0.27012 0.0
N2375 N 0.23243 0.38699 0.26466 0.0
H2376 H 0.10813 0.01326 0.50951 0.0
H2377 H 0.17172 0.07461 0.46487 0.0
H2378 H 0.1119 0.01787 0.45634 0.0
H2379 H 0.17677 0.05923 0.51579 0.0
H2380 H 0.14793 0.05603 0.46195 0.0
H2381 H 0.13163 0.03206 0.51245 0.0
C2382 C 0.11392 0.01812 0.49844 0.0
C2383 C 0.10798 0.01386 0.48264 0.0
C2384 C 0.15426 0.05671 0.47375 0.0
C2385 C 0.13476 0.0357 0.48598 0.0
C2386 C 0.16776 0.06737 0.47546 0.0
C2387 C 0.17623 0.06844 0.4906 0.0
C2388 C 0.14905 0.04717 0.48735 0.0
C2389 C 0.17069 0.05865 0.50386 0.0
C2390 C 0.1273 0.02893 0.50015 0.0
C2391 C 0.11583 0.02092 0.46878 0.0
N2392 N 0.15741 0.04848 0.50194 0.0
N2393 N 0.12878 0.0315 0.47078 0.0
H2394 H 0.7302 0.15199 0.74836 0.0
H2395 H 0.68922 0.06957 0.71183 0.0
H2396 H 0.73138 0.13903 0.69653 0.0
H2397 H 0.67821 0.08859 0.7606 0.0
H2398 H 0.70639 0.09387 0.70659 0.0
H2399 H 0.71305 0.12757 0.75375 0.0
C2400 C 0.7269 0.14396 0.73813 0.0
C2401 C 0.7322 0.14755 0.72197 0.0
C2402 C 0.7002 0.09273 0.71843 0.0
C2403 C 0.71257 0.11963 0.72804 0.0
C2404 C 0.69029 0.07888 0.72142 0.0
C2405 C 0.68214 0.07699 0.73668 0.0
C2406 C 0.70213 0.10476 0.73082 0.0
C2407 C 0.68439 0.08935 0.74874 0.0
C2408 C 0.71704 0.13009 0.7412 0.0
C2409 C 0.72741 0.13683 0.70915 0.0
N2410 N 0.69417 0.10268 0.74555 0.0
N2411 N 0.71792 0.12333 0.71247 0.0
H2412 H 0.40188 0.0198 0.50317 0.0
H2413 H 0.32951 0.0753 0.54172 0.0
H2414 H 0.39254 0.02396 0.55567 0.0
H2415 H 0.33153 0.06181 0.49 0.0
H2416 H 0.3539 0.05823 0.54679 0.0
H2417 H 0.37739 0.03679 0.49783 0.0
C2418 C 0.39466 0.02419 0.51359 0.0
C2419 C 0.39936 0.02041 0.52992 0.0
C2420 C 0.34899 0.05898 0.53433 0.0
C2421 C 0.37142 0.04012 0.52386 0.0
C2422 C 0.33498 0.06867 0.53143 0.0
C2423 C 0.32832 0.06997 0.5154 0.0
C2424 C 0.35655 0.05058 0.52112 0.0
C2425 C 0.33629 0.06138 0.50252 0.0
C2426 C 0.38072 0.03397 0.51052 0.0
C2427 C 0.38963 0.02675 0.54289 0.0
N2428 N 0.34997 0.05206 0.50566 0.0
N2429 N 0.37617 0.03629 0.53958 0.0
H2430 H 0.60317 0.48388 0.49207 0.0
H2431 H 0.68167 0.44181 0.53552 0.0
H2432 H 0.61355 0.48816 0.54431 0.0
H2433 H 0.66493 0.42892 0.48644 0.0
H2434 H 0.65786 0.46033 0.53844 0.0
H2435 H 0.62682 0.46514 0.48922 0.0
C2436 C 0.61046 0.48091 0.50293 0.0
C2437 C 0.6064 0.4876 0.51845 0.0
C2438 C 0.65937 0.45343 0.52704 0.0
C2439 C 0.63346 0.46615 0.51529 0.0
C2440 C 0.67301 0.44294 0.52533 0.0
C2441 C 0.67529 0.43382 0.51071 0.0
C2442 C 0.64799 0.45496 0.51397 0.0
C2443 C 0.66357 0.4356 0.49798 0.0
C2444 C 0.6239 0.47014 0.50132 0.0
C2445 C 0.61615 0.48316 0.53215 0.0
N2446 N 0.65047 0.44601 0.49988 0.0
N2447 N 0.62928 0.47279 0.53023 0.0
H2448 H 0.72661 0.28679 0.34483 0.0
H2449 H 0.74967 0.29674 0.44081 0.0
H2450 H 0.73957 0.24578 0.37659 0.0
H2451 H 0.73297 0.33715 0.41003 0.0
H2452 H 0.74653 0.27797 0.41731 0.0
H2453 H 0.72937 0.30551 0.36843 0.0
C2454 C 0.72994 0.28169 0.35678 0.0
C2455 C 0.73284 0.26464 0.3587 0.0
C2456 C 0.74355 0.29095 0.4157 0.0
C2457 C 0.73623 0.28609 0.38578 0.0
C2458 C 0.74525 0.30167 0.42915 0.0
C2459 C 0.74157 0.31859 0.42744 0.0
C2460 C 0.73814 0.29714 0.40036 0.0
C2461 C 0.73617 0.32427 0.4119 0.0
C2462 C 0.7316 0.29241 0.37024 0.0
C2463 C 0.73742 0.25883 0.37445 0.0
N2464 N 0.73462 0.31358 0.39899 0.0
N2465 N 0.73896 0.26952 0.38736 0.0
H2466 H 0.50217 0.02758 0.88269 0.0
H2467 H 0.5923 0.0088 0.8463 0.0
H2468 H 0.54652 0.02951 0.91242 0.0
H2469 H 0.55061 0.02191 0.81557 0.0
H2470 H 0.57517 0.01333 0.87093 0.0
H2471 H 0.51922 0.02245 0.85814 0.0
C2472 C 0.51549 0.02684 0.88405 0.0
C2473 C 0.52296 0.02899 0.8996 0.0
C2474 C 0.56978 0.01524 0.85879 0.0
C2475 C 0.54252 0.02313 0.8716 0.0
C2476 C 0.57951 0.01256 0.84475 0.0
C2477 C 0.57285 0.015 0.82889 0.0
C2478 C 0.55321 0.02019 0.85696 0.0
C2479 C 0.55626 0.02004 0.82758 0.0
C2480 C 0.52521 0.02401 0.87003 0.0
C2481 C 0.54029 0.02808 0.90064 0.0
N2482 N 0.54698 0.02239 0.84143 0.0
N2483 N 0.54948 0.02514 0.88684 0.0
H2484 H 0.26112 0.25573 0.37557 0.0
H2485 H 0.27364 0.16307 0.4084 0.0
H2486 H 0.27604 0.21517 0.34408 0.0
H2487 H 0.25118 0.20198 0.4374 0.0
H2488 H 0.27568 0.18215 0.385 0.0
H2489 H 0.25847 0.23642 0.39866 0.0
C2490 C 0.26372 0.24275 0.37345 0.0
C2491 C 0.26877 0.2371 0.35779 0.0
C2492 C 0.27029 0.1865 0.39649 0.0
C2493 C 0.26602 0.21491 0.38435 0.0
C2494 C 0.26904 0.17558 0.40985 0.0
C2495 C 0.26224 0.18089 0.42496 0.0
C2496 C 0.26476 0.2029 0.39822 0.0
C2497 C 0.25676 0.19737 0.42612 0.0
C2498 C 0.26229 0.23173 0.38669 0.0
C2499 C 0.27231 0.22016 0.35595 0.0
N2500 N 0.25816 0.20777 0.41296 0.0
N2501 N 0.27088 0.20968 0.36906 0.0
H2502 H 0.48828 0.45392 0.88673 0.0
H2503 H 0.43613 0.51596 0.82949 0.0
H2504 H 0.48726 0.50692 0.89365 0.0
H2505 H 0.43589 0.46286 0.82337 0.0
H2506 H 0.45512 0.51288 0.85282 0.0
H2507 H 0.46912 0.4569 0.86351 0.0
C2508 C 0.48396 0.46618 0.88344 0.0
C2509 C 0.48942 0.48019 0.8922 0.0
C2510 C 0.45092 0.50189 0.84639 0.0
C2511 C 0.46758 0.48371 0.86545 0.0
C2512 C 0.44014 0.50365 0.83299 0.0
C2513 C 0.43441 0.48965 0.82441 0.0
C2514 C 0.45607 0.48602 0.85128 0.0
C2515 C 0.43982 0.47399 0.82972 0.0
C2516 C 0.47308 0.46788 0.87011 0.0
C2517 C 0.48359 0.49579 0.88715 0.0
N2518 N 0.45036 0.4726 0.84278 0.0
N2519 N 0.473 0.49712 0.87414 0.0
H2520 H 0.72807 0.71622 0.15924 0.0
H2521 H 0.75183 0.70638 0.06343 0.0
H2522 H 0.74133 0.75724 0.1276 0.0
H2523 H 0.73398 0.66612 0.09376 0.0
H2524 H 0.74895 0.72502 0.08705 0.0
H2525 H 0.73104 0.69751 0.13566 0.0
C2526 C 0.73153 0.72132 0.14732 0.0
C2527 C 0.73444 0.73837 0.14543 0.0
C2528 C 0.74566 0.71211 0.08854 0.0
C2529 C 0.73805 0.71693 0.11838 0.0
C2530 C 0.74722 0.70145 0.07502 0.0
C2531 C 0.7431 0.68462 0.07656 0.0
C2532 C 0.73997 0.70592 0.10378 0.0
C2533 C 0.7375 0.67893 0.09202 0.0
C2534 C 0.73331 0.7106 0.13387 0.0
C2535 C 0.73918 0.74418 0.12973 0.0
N2536 N 0.73608 0.68955 0.105 0.0
N2537 N 0.74082 0.7335 0.11683 0.0
H2538 H 0.00654 0.01043 0.12498 0.0
H2539 H 0.91347 0.01854 0.1583 0.0
H2540 H 0.9651 0.02339 0.09377 0.0
H2541 H 0.95439 0.00159 0.18826 0.0
H2542 H 0.93218 0.02085 0.13463 0.0
H2543 H 0.98765 0.0076 0.14839 0.0
C2544 C 0.99345 0.01257 0.123 0.0
C2545 C 0.98743 0.0171 0.10733 0.0
C2546 C 0.93706 0.01662 0.14638 0.0
C2547 C 0.96569 0.01412 0.13422 0.0
C2548 C 0.92636 0.01521 0.1599 0.0
C2549 C 0.93233 0.00986 0.17534 0.0
C2550 C 0.9539 0.01268 0.14828 0.0
C2551 C 0.94925 0.006 0.17669 0.0
C2552 C 0.98267 0.01105 0.13642 0.0
C2553 C 0.97035 0.02005 0.10565 0.0
N2554 N 0.95941 0.00748 0.16336 0.0
N2555 N 0.9601 0.0185 0.11892 0.0
H2556 H 0.27285 0.74995 0.13035 0.0
H2557 H 0.27927 0.84065 0.09106 0.0
H2558 H 0.2888 0.79287 0.158 0.0
H2559 H 0.25357 0.80018 0.06748 0.0
H2560 H 0.28459 0.82289 0.11504 0.0
H2561 H 0.26714 0.76778 0.10662 0.0
C2562 C 0.27506 0.76313 0.13151 0.0
C2563 C 0.28132 0.76987 0.14628 0.0
C2564 C 0.27775 0.81791 0.10464 0.0
C2565 C 0.27506 0.79035 0.11895 0.0
C2566 C 0.2748 0.82801 0.09091 0.0
C2567 C 0.26597 0.82188 0.07725 0.0
C2568 C 0.27196 0.8015 0.10466 0.0
C2569 C 0.26028 0.80546 0.07781 0.0
C2570 C 0.27187 0.77329 0.11789 0.0
C2571 C 0.28424 0.78703 0.14683 0.0
N2572 N 0.26343 0.79582 0.09125 0.0
N2573 N 0.28111 0.79665 0.13337 0.0
H2574 H 0.99915 0.475 0.1203 0.0
H2575 H 0.08999 0.49091 0.15637 0.0
H2576 H 0.04349 0.47042 0.09084 0.0
H2577 H 0.04757 0.48133 0.18742 0.0
H2578 H 0.07273 0.48624 0.13188 0.0
H2579 H 0.01632 0.48019 0.14477 0.0
C2580 C 0.0125 0.47517 0.11899 0.0
C2581 C 0.01992 0.47225 0.10354 0.0
C2582 C 0.06721 0.48514 0.14405 0.0
C2583 C 0.03962 0.47816 0.13143 0.0
C2584 C 0.07702 0.48789 0.15802 0.0
C2585 C 0.07019 0.48649 0.17394 0.0
C2586 C 0.05039 0.48114 0.14601 0.0
C2587 C 0.05336 0.48238 0.17537 0.0
C2588 C 0.02229 0.47802 0.13295 0.0
C2589 C 0.03728 0.47244 0.10255 0.0
N2590 N 0.04401 0.47992 0.16158 0.0
N2591 N 0.04654 0.47541 0.11629 0.0
H2592 H 0.35949 0.69511 0.27539 0.0
H2593 H 0.42219 0.76203 0.31301 0.0
H2594 H 0.35341 0.74786 0.26906 0.0
H2595 H 0.42335 0.71008 0.32549 0.0
H2596 H 0.39792 0.75698 0.29558 0.0
H2597 H 0.38368 0.70029 0.29272 0.0
C2598 C 0.36315 0.7078 0.27773 0.0
C2599 C 0.3543 0.72107 0.27078 0.0
C2600 C 0.40347 0.74669 0.30215 0.0
C2601 C 0.38225 0.72707 0.29045 0.0
C2602 C 0.41738 0.74955 0.31202 0.0
C2603 C 0.42481 0.73646 0.32073 0.0
C2604 C 0.39699 0.7306 0.30087 0.0
C2605 C 0.41792 0.72057 0.31915 0.0
C2606 C 0.37704 0.71074 0.28757 0.0
C2607 C 0.35992 0.73723 0.27397 0.0
N2608 N 0.40444 0.71809 0.30939 0.0
N2609 N 0.37353 0.73977 0.28357 0.0
H2610 H 1.00023 0.40062 0.98015 0.0
H2611 H 0.96121 0.32871 0.92426 0.0
H2612 H 0.94762 0.39283 0.97441 0.0
H2613 H 0.01303 0.33092 0.93734 0.0
H2614 H 0.95619 0.35314 0.94132 0.0
H2615 H 0.00536 0.37605 0.96325 0.0
C2616 C 0.98974 0.39372 0.97542 0.0
C2617 C 0.97345 0.39886 0.97874 0.0
C2618 C 0.96866 0.34827 0.94047 0.0
C2619 C 0.97928 0.3708 0.95916 0.0
C2620 C 0.97153 0.33424 0.93079 0.0
C2621 C 0.98757 0.32766 0.92937 0.0
C2622 C 0.98192 0.35588 0.94876 0.0
C2623 C 1.00049 0.33564 0.93787 0.0
C2624 C 0.9927 0.37973 0.9657 0.0
C2625 C 0.96039 0.38953 0.972 0.0
N2626 N 0.99739 0.34932 0.94719 0.0
N2627 N 0.96359 0.37599 0.96254 0.0
H2628 H 0.64871 0.74294 0.26842 0.0
H2629 H 0.57006 0.78615 0.3105 0.0
H2630 H 0.63797 0.79509 0.26399 0.0
H2631 H 0.58646 0.73678 0.3227 0.0
H2632 H 0.59388 0.78917 0.29202 0.0
H2633 H 0.62496 0.73994 0.28701 0.0
C2634 C 0.64131 0.75375 0.27132 0.0
C2635 C 0.64531 0.76929 0.26464 0.0
C2636 C 0.59229 0.77769 0.29876 0.0
C2637 C 0.61815 0.76596 0.28593 0.0
C2638 C 0.57864 0.77592 0.30923 0.0
C2639 C 0.57627 0.76119 0.31815 0.0
C2640 C 0.60359 0.76457 0.29707 0.0
C2641 C 0.5879 0.74841 0.31619 0.0
C2642 C 0.62782 0.75205 0.282 0.0
C2643 C 0.63542 0.78292 0.26898 0.0
N2644 N 0.60102 0.75037 0.30582 0.0
N2645 N 0.62226 0.78092 0.27929 0.0
H2646 H 0.99324 0.10162 0.98269 0.0
H2647 H 0.03553 0.18238 0.94404 0.0
H2648 H 0.0447 0.11403 0.98996 0.0
H2649 H 0.98896 0.16276 0.92669 0.0
H2650 H 0.03823 0.15865 0.9627 0.0
H2651 H 0.99053 0.12523 0.96384 0.0
C2652 C 0.00395 0.10936 0.98036 0.0
C2653 C 0.01922 0.10587 0.98789 0.0
C2654 C 0.02744 0.15951 0.95478 0.0
C2655 C 0.01622 0.13288 0.96637 0.0
C2656 C 0.02585 0.1731 0.94421 0.0
C2657 C 0.01199 0.17454 0.93381 0.0
C2658 C 0.015 0.14736 0.95512 0.0
C2659 C 0.99991 0.16205 0.9344 0.0
C2660 C 0.00242 0.12276 0.96953 0.0
C2661 C 0.03274 0.11619 0.98429 0.0
N2662 N 0.00165 0.14903 0.94493 0.0
N2663 N 0.03091 0.12927 0.97386 0.0
H2664 H 0.34472 0.28069 0.21731 0.0
H2665 H 0.43509 0.24409 0.20254 0.0
H2666 H 0.37438 0.26012 0.25683 0.0
H2667 H 0.41305 0.28071 0.17033 0.0
H2668 H 0.41171 0.24721 0.22146 0.0
H2669 H 0.36842 0.27816 0.19871 0.0
C2670 C 0.35621 0.27575 0.22216 0.0
C2671 C 0.35747 0.27066 0.23877 0.0
C2672 C 0.41205 0.25457 0.21025 0.0
C2673 C 0.38458 0.26738 0.21731 0.0
C2674 C 0.42545 0.25288 0.19945 0.0
C2675 C 0.42616 0.26216 0.18473 0.0
C2676 C 0.3991 0.26545 0.20625 0.0
C2677 C 0.41299 0.27305 0.18132 0.0
C2678 C 0.36971 0.27424 0.21147 0.0
C2679 C 0.37264 0.26397 0.24411 0.0
N2680 N 0.4 0.27434 0.19195 0.0
N2681 N 0.38556 0.26247 0.23342 0.0
H2682 H 0.51835 0.37444 0.99339 0.0
H2683 H 0.51009 0.34558 0.08779 0.0
H2684 H 0.52454 0.40775 0.0347 0.0
H2685 H 0.51611 0.31151 0.04708 0.0
H2686 H 0.51324 0.36874 0.06845 0.0
H2687 H 0.51534 0.35138 0.01282 0.0
C2688 C 0.519 0.3769 0.00657 0.0
C2689 C 0.52167 0.39303 0.01245 0.0
C2690 C 0.51392 0.3562 0.06376 0.0
C2691 C 0.51829 0.36671 0.03475 0.0
C2692 C 0.51203 0.34299 0.07477 0.0
C2693 C 0.51285 0.32661 0.06902 0.0
C2694 C 0.51646 0.353 0.04685 0.0
C2695 C 0.51556 0.32394 0.05206 0.0
C2696 C 0.51739 0.36373 0.01764 0.0
C2697 C 0.52263 0.39548 0.02964 0.0
N2698 N 0.51719 0.337 0.04156 0.0
N2699 N 0.52086 0.38248 0.04019 0.0
H2700 H 0.6593 0.22678 0.21576 0.0
H2701 H 0.56464 0.25439 0.20533 0.0
H2702 H 0.62812 0.24183 0.25653 0.0
H2703 H 0.59308 0.23175 0.16615 0.0
H2704 H 0.58836 0.25141 0.22387 0.0
H2705 H 0.63568 0.22973 0.19707 0.0
C2706 C 0.64749 0.23061 0.22083 0.0
C2707 C 0.64575 0.23406 0.2378 0.0
C2708 C 0.58942 0.24708 0.21122 0.0
C2709 C 0.61868 0.23769 0.21636 0.0
C2710 C 0.57591 0.24887 0.2006 0.0
C2711 C 0.57687 0.24333 0.18415 0.0
C2712 C 0.60409 0.23977 0.20536 0.0
C2713 C 0.59173 0.23605 0.17878 0.0
C2714 C 0.63402 0.23237 0.21011 0.0
C2715 C 0.63017 0.23928 0.24354 0.0
N2716 N 0.60477 0.23452 0.18934 0.0
N2717 N 0.61727 0.24095 0.23285 0.0
H2718 H 0.50226 0.09856 0.02613 0.0
H2719 H 0.46527 0.18145 0.06594 0.0
H2720 H 0.45058 0.11199 0.02387 0.0
H2721 H 0.51424 0.16314 0.07702 0.0
H2722 H 0.46033 0.15704 0.04877 0.0
H2723 H 0.50757 0.12313 0.04313 0.0
C2724 C 0.49205 0.10671 0.02917 0.0
C2725 C 0.47595 0.10321 0.02362 0.0
C2726 C 0.47216 0.15834 0.05496 0.0
C2727 C 0.48191 0.13129 0.04305 0.0
C2728 C 0.47502 0.17233 0.06468 0.0
C2729 C 0.4902 0.17435 0.0729 0.0
C2730 C 0.48461 0.1463 0.05332 0.0
C2731 C 0.50231 0.162 0.07102 0.0
C2732 C 0.49506 0.12067 0.03894 0.0
C2733 C 0.46315 0.1141 0.02806 0.0
N2734 N 0.49927 0.14853 0.06137 0.0
N2735 N 0.46641 0.12767 0.03745 0.0
H2736 H 0.2692 0.35912 0.70526 0.0
H2737 H 0.30909 0.42564 0.76652 0.0
H2738 H 0.26333 0.35709 0.7584 0.0
H2739 H 0.32613 0.41843 0.7164 0.0
H2740 H 0.2904 0.402 0.76325 0.0
H2741 H 0.2885 0.38214 0.70861 0.0
C2742 C 0.27203 0.36338 0.71765 0.0
C2743 C 0.26456 0.35605 0.73157 0.0
C2744 C 0.29826 0.40556 0.75299 0.0
C2745 C 0.28646 0.38272 0.73543 0.0
C2746 C 0.30885 0.41909 0.75481 0.0
C2747 C 0.31916 0.424 0.7417 0.0
C2748 C 0.29781 0.39696 0.73787 0.0
C2749 C 0.31849 0.41497 0.72686 0.0
C2750 C 0.28301 0.37661 0.71953 0.0
C2751 C 0.26851 0.36246 0.74727 0.0
N2752 N 0.30793 0.40195 0.72531 0.0
N2753 N 0.27913 0.37544 0.74876 0.0
H2754 H 0.28656 0.65807 0.77576 0.0
H2755 H 0.29797 0.56389 0.74708 0.0
H2756 H 0.24611 0.62698 0.75969 0.0
H2757 H 0.33625 0.592 0.77158 0.0
H2758 H 0.27931 0.58758 0.7497 0.0
H2759 H 0.30537 0.63459 0.77274 0.0
C2760 C 0.28159 0.6463 0.77169 0.0
C2761 C 0.26466 0.64455 0.76801 0.0
C2762 C 0.29178 0.58857 0.75451 0.0
C2763 C 0.28627 0.61764 0.76427 0.0
C2764 C 0.30248 0.57509 0.75292 0.0
C2765 C 0.3187 0.57597 0.75913 0.0
C2766 C 0.29736 0.60311 0.76226 0.0
C2767 C 0.3238 0.59072 0.76679 0.0
C2768 C 0.29238 0.63292 0.76988 0.0
C2769 C 0.25907 0.62903 0.76245 0.0
N2770 N 0.31318 0.60372 0.76811 0.0
N2771 N 0.26983 0.61621 0.76075 0.0
H2772 H 0.88888 0.48124 0.44781 0.0
H2773 H 0.83761 0.42785 0.51373 0.0
H2774 H 0.90195 0.47825 0.49954 0.0
H2775 H 0.81985 0.43896 0.46457 0.0
H2776 H 0.86208 0.44495 0.50841 0.0
H2777 H 0.86435 0.46437 0.45333 0.0
C2778 C 0.88663 0.47695 0.46032 0.0
C2779 C 0.8975 0.48112 0.47323 0.0
C2780 C 0.8528 0.44369 0.49881 0.0
C2781 C 0.86938 0.46188 0.47967 0.0
C2782 C 0.83889 0.43386 0.5018 0.0
C2783 C 0.82667 0.43198 0.48957 0.0
C2784 C 0.85462 0.45157 0.48341 0.0
C2785 C 0.82887 0.44021 0.47441 0.0
C2786 C 0.87256 0.46742 0.46349 0.0
C2787 C 0.89382 0.47544 0.48925 0.0
N2788 N 0.84259 0.44958 0.47174 0.0
N2789 N 0.88011 0.46605 0.49201 0.0
H2790 H 0.73371 0.85438 0.74466 0.0
H2791 H 0.69377 0.93384 0.78804 0.0
H2792 H 0.73944 0.865 0.7967 0.0
H2793 H 0.67691 0.9147 0.7411 0.0
H2794 H 0.71258 0.91016 0.79059 0.0
H2795 H 0.71479 0.87796 0.74224 0.0
C2796 C 0.73102 0.86173 0.75556 0.0
C2797 C 0.73815 0.85776 0.7709 0.0
C2798 C 0.70473 0.91113 0.77976 0.0
C2799 C 0.71655 0.88472 0.76823 0.0
C2800 C 0.69407 0.92467 0.77826 0.0
C2801 C 0.68376 0.9262 0.76435 0.0
C2802 C 0.70523 0.89915 0.76716 0.0
C2803 C 0.68454 0.91389 0.7521 0.0
C2804 C 0.72016 0.8751 0.7542 0.0
C2805 C 0.7341 0.86757 0.78467 0.0
N2806 N 0.69515 0.90093 0.75374 0.0
N2807 N 0.72364 0.88065 0.783 0.0
H2808 H 0.59397 0.53594 0.97609 0.0
H2809 H 0.69133 0.54602 0.99242 0.0
H2810 H 0.62666 0.49493 0.98641 0.0
H2811 H 0.65758 0.58734 0.98919 0.0
H2812 H 0.66801 0.52708 0.98862 0.0
H2813 H 0.61736 0.55495 0.97924 0.0
C2814 C 0.60608 0.53093 0.97895 0.0
C2815 C 0.60835 0.51382 0.98103 0.0
C2816 C 0.6657 0.54029 0.98876 0.0
C2817 C 0.63517 0.53551 0.98472 0.0
C2818 C 0.67902 0.55111 0.99082 0.0
C2819 C 0.6764 0.56829 0.99113 0.0
C2820 C 0.64962 0.54667 0.98687 0.0
C2821 C 0.66014 0.57418 0.98922 0.0
C2822 C 0.61941 0.54179 0.98083 0.0
C2823 C 0.62429 0.50804 0.98491 0.0
N2824 N 0.64738 0.56339 0.98713 0.0
N2825 N 0.63709 0.51885 0.98659 0.0
H2826 H 0.25 0.63266 0.23273 0.0
H2827 H 0.16388 0.58835 0.21573 0.0
H2828 H 0.20804 0.65834 0.21159 0.0
H2829 H 0.19688 0.57239 0.25474 0.0
H2830 H 0.18146 0.61246 0.21119 0.0
H2831 H 0.23218 0.60885 0.23819 0.0
C2832 C 0.23705 0.63342 0.22934 0.0
C2833 C 0.23058 0.64767 0.22167 0.0
C2834 C 0.1848 0.60367 0.22077 0.0
C2835 C 0.21025 0.62014 0.22752 0.0
C2836 C 0.17471 0.58992 0.22346 0.0
C2837 C 0.17875 0.57825 0.23575 0.0
C2838 C 0.19923 0.60572 0.23021 0.0
C2839 C 0.19331 0.58084 0.24498 0.0
C2840 C 0.22692 0.61974 0.23239 0.0
C2841 C 0.21374 0.6476 0.21723 0.0
N2842 N 0.20304 0.59426 0.24197 0.0
N2843 N 0.2042 0.63404 0.22013 0.0
H2844 H 0.88216 0.50141 0.01931 0.0
H2845 H 0.84366 0.5928 0.02109 0.0
H2846 H 0.90973 0.54486 0.0338 0.0
H2847 H 0.8171 0.54982 0.00359 0.0
H2848 H 0.86799 0.57546 0.02577 0.0
H2849 H 0.85822 0.51894 0.01347 0.0
C2850 C 0.88323 0.51465 0.02116 0.0
C2851 C 0.89802 0.52165 0.02706 0.0
C2852 C 0.85685 0.56982 0.02088 0.0
C2853 C 0.87052 0.54181 0.02058 0.0
C2854 C 0.84296 0.57974 0.0181 0.0
C2855 C 0.82826 0.57278 0.01192 0.0
C2856 C 0.85608 0.55278 0.01749 0.0
C2857 C 0.82806 0.55571 0.00858 0.0
C2858 C 0.86951 0.52465 0.01791 0.0
C2859 C 0.89854 0.53888 0.02949 0.0
N2860 N 0.84173 0.54631 0.01141 0.0
N2861 N 0.885 0.54834 0.02625 0.0
H2862 H 0.1276 0.00761 0.01749 0.0
H2863 H 0.15817 0.91345 0.01212 0.0
H2864 H 0.09526 0.96571 0.02485 0.0
H2865 H 0.19146 0.95525 0.01241 0.0
H2866 H 0.13481 0.9324 0.01565 0.0
H2867 H 0.15101 0.98864 0.01443 0.0
C2868 C 0.12542 0.99441 0.0184 0.0
C2869 C 0.10944 0.98824 0.0214 0.0
C2870 C 0.14722 0.93743 0.01499 0.0
C2871 C 0.1362 0.96643 0.018 0.0
C2872 C 0.16055 0.92663 0.01288 0.0
C2873 C 0.17679 0.93278 0.01194 0.0
C2874 C 0.15011 0.95455 0.01606 0.0
C2875 C 0.17917 0.94995 0.01323 0.0
C2876 C 0.1388 0.98359 0.01675 0.0
C2877 C 0.10739 0.97102 0.0227 0.0
N2878 N 0.16597 0.96024 0.01515 0.0
N2879 N 0.12059 0.96072 0.02093 0.0
loop_
_geom_bond_atom_site_label_1
_geom_bond_atom_site_label_2
_geom_bond_distance
_geom_bond_site_symmetry_2
_ccdc_geom_bond_type
C0 C1 1.391 . S
C0 C4 1.391 . S
C0 H42 0.948 . S
C1 C0 1.391 . S
C1 C2 1.391 1_556 S
C2 C1 1.391 1_554 S
C2 H58 0.947 1_455 S
C2 C59 1.392 . S
C3 C4 1.391 1_554 S
C3 C7 1.397 . S
C3 C59 1.419 . S
C4 C0 1.391 . S
C4 C3 1.391 1_556 S
C4 C5 1.398 1_556 S
C5 C4 1.398 1_554 S
C5 C8 1.409 . S
C5 C17 1.454 . S
C5 C18 1.672 1_554 S
H6 C30 0.948 . S
C7 C3 1.397 . S
C7 C8 1.394 . S
C7 C26 1.723 . S
C8 C5 1.409 . S
C8 C7 1.394 . S
C8 C38 1.723 . S
H9 C32 0.947 1_556 S
H10 C33 0.899 1_556 S
H11 C39 0.982 . S
H12 C40 0.979 . S
H13 C40 0.980 . S
H14 C40 0.983 . S
H15 C39 0.979 1_565 S
H16 C39 0.977 . S
C17 C5 1.454 . S
C17 H46 0.982 . S
C17 H47 0.979 1_554 S
C17 H48 0.977 . S
C18 C5 1.672 1_556 S
C18 H43 0.979 . S
C18 H44 0.980 . S
C18 H45 0.983 . S
C19 C20 1.391 . S
C19 C24 1.391 . S
C19 H49 0.948 . S
C20 C19 1.391 . S
C20 C21 1.391 1_655 S
C21 C20 1.391 1_455 S
C21 C22 1.392 . S
C21 H50 0.947 1_545 S
C22 C21 1.392 . S
C22 C23 1.419 . S
C22 H51 0.899 1_545 S
C23 C22 1.419 . S
C23 C24 1.391 1_455 S
C23 C27 1.397 . S
C24 C19 1.391 . S
C24 C23 1.391 1_655 S
C24 C25 1.398 1_655 S
C25 C24 1.398 1_455 S
C25 C26 1.409 . S
C25 C28 1.454 . S
C25 C29 1.672 1_455 S
C26 C7 1.723 . S
C26 C25 1.409 . S
C26 C27 1.394 . S
C27 C23 1.397 . S
C27 C26 1.394 . S
C27 C37 1.723 . S
C28 C25 1.454 . S
C28 H52 0.982 . S
C28 H53 0.979 1_455 S
C28 H54 0.977 . S
C29 C25 1.672 1_655 S
C29 H55 0.979 . S
C29 H56 0.980 . S
C29 H57 0.983 . S
C30 H6 0.948 . S
C30 C31 1.391 . S
C30 C35 1.391 . S
C31 C30 1.391 . S
C31 C32 1.391 1_565 S
C32 H9 0.947 1_554 S
C32 C31 1.391 1_545 S
C32 C33 1.392 . S
C33 H10 0.899 1_554 S
C33 C32 1.392 . S
C33 C34 1.419 . S
C34 C33 1.419 . S
C34 C35 1.391 1_545 S
C34 C38 1.397 . S
C35 C30 1.391 . S
C35 C34 1.391 1_565 S
C35 C36 1.398 1_565 S
C36 C35 1.398 1_545 S
C36 C37 1.409 . S
C36 C39 1.454 . S
C36 C40 1.672 1_545 S
C37 C27 1.723 . S
C37 C36 1.409 . S
C37 C38 1.394 . S
C38 C8 1.723 . S
C38 C34 1.397 . S
C38 C37 1.394 . S
C39 H11 0.982 . S
C39 H15 0.979 1_545 S
C39 H16 0.977 . S
C39 C36 1.454 . S
C40 H12 0.979 . S
C40 H13 0.980 . S
C40 H14 0.983 . S
C40 C36 1.672 1_565 S
H41 C59 0.899 1_655 S
H42 C0 0.948 . S
H43 C18 0.979 . S
H44 C18 0.980 . S
H45 C18 0.983 . S
H46 C17 0.982 . S
H47 C17 0.979 1_556 S
H48 C17 0.977 . S
H49 C19 0.948 . S
H50 C21 0.947 1_565 S
H51 C22 0.899 1_565 S
H52 C28 0.982 . S
H53 C28 0.979 1_655 S
H54 C28 0.977 . S
H55 C29 0.979 . S
H56 C29 0.980 . S
H57 C29 0.983 . S
H58 C2 0.947 1_655 S
C59 C2 1.392 . S
C59 C3 1.419 . S
C59 H41 0.899 1_455 S
C60 C61 1.391 . S
C60 C64 1.391 . S
C60 H102 0.948 . S
C61 C60 1.391 . S
C61 C62 1.391 . S
C62 C61 1.391 . S
C62 H118 0.947 . S
C62 C119 1.392 . S
C63 C64 1.391 . S
C63 C67 1.397 . S
C63 C119 1.419 . S
C64 C60 1.391 . S
C64 C63 1.391 . S
C64 C65 1.399 . S
C65 C64 1.399 . S
C65 C68 1.396 . S
C65 C77 1.453 . S
C65 C78 1.684 . S
H66 C90 0.948 . S
C67 C63 1.397 . S
C67 C68 1.394 . S
C67 C86 1.723 . S
C68 C65 1.396 . S
C68 C67 1.394 . S
C68 C98 1.723 . S
H69 C92 0.947 . S
H70 C93 0.948 . S
H71 C99 0.982 . S
H72 C100 0.979 . S
H73 C100 0.980 . S
H74 C100 0.983 . S
H75 C99 0.979 . S
H76 C99 0.977 . S
C77 C65 1.453 . S
C77 H106 0.982 . S
C77 H107 0.979 . S
C77 H108 0.977 . S
C78 C65 1.684 . S
C78 H103 0.979 . S
C78 H104 0.980 . S
C78 H105 0.983 . S
C79 C80 1.391 . S
C79 C84 1.391 . S
C79 H109 0.948 . S
C80 C79 1.391 . S
C80 C81 1.391 . S
C81 C80 1.391 . S
C81 C82 1.392 . S
C81 H110 0.947 . S
C82 C81 1.392 . S
C82 C83 1.419 . S
C82 H111 0.948 . S
C83 C82 1.419 . S
C83 C84 1.391 . S
C83 C87 1.397 . S
C84 C79 1.391 . S
C84 C83 1.391 . S
C84 C85 1.399 . S
C85 C84 1.399 . S
C85 C86 1.396 . S
C85 C88 1.453 . S
C85 C89 1.684 . S
C86 C67 1.723 . S
C86 C85 1.396 . S
C86 C87 1.394 . S
C87 C83 1.397 . S
C87 C86 1.394 . S
C87 C97 1.723 . S
C88 C85 1.453 . S
C88 H112 0.982 . S
C88 H113 0.979 . S
C88 H114 0.977 . S
C89 C85 1.684 . S
C89 H115 0.979 . S
C89 H116 0.980 . S
C89 H117 0.983 . S
C90 H66 0.948 . S
C90 C91 1.391 . S
C90 C95 1.391 . S
C91 C90 1.391 . S
C91 C92 1.391 . S
C92 H69 0.947 . S
C92 C91 1.391 . S
C92 C93 1.392 . S
C93 H70 0.948 . S
C93 C92 1.392 . S
C93 C94 1.419 . S
C94 C93 1.419 . S
C94 C95 1.391 . S
C94 C98 1.397 . S
C95 C90 1.391 . S
C95 C94 1.391 . S
C95 C96 1.399 . S
C96 C95 1.399 . S
C96 C97 1.396 . S
C96 C99 1.453 . S
C96 C100 1.684 . S
C97 C87 1.723 . S
C97 C96 1.396 . S
C97 C98 1.394 . S
C98 C68 1.723 . S
C98 C94 1.397 . S
C98 C97 1.394 . S
C99 H71 0.982 . S
C99 H75 0.979 . S
C99 H76 0.977 . S
C99 C96 1.453 . S
C100 H72 0.979 . S
C100 H73 0.980 . S
C100 H74 0.983 . S
C100 C96 1.684 . S
H101 C119 0.948 . S
H102 C60 0.948 . S
H103 C78 0.979 . S
H104 C78 0.980 . S
H105 C78 0.983 . S
H106 C77 0.982 . S
H107 C77 0.979 . S
H108 C77 0.977 . S
H109 C79 0.948 . S
H110 C81 0.947 . S
H111 C82 0.948 . S
H112 C88 0.982 . S
H113 C88 0.979 . S
H114 C88 0.977 . S
H115 C89 0.979 . S
H116 C89 0.980 . S
H117 C89 0.983 . S
H118 C62 0.947 . S
C119 C62 1.392 . S
C119 C63 1.419 . S
C119 H101 0.948 . S
C120 C121 1.404 . S
C120 C124 1.382 1_556 S
C120 H162 0.945 1_556 S
C121 C120 1.404 . S
C121 C122 1.391 . S
C122 C121 1.391 . S
C122 H178 0.947 . S
C122 C179 1.392 . S
C123 C124 1.391 . S
C123 C127 1.397 . S
C123 C179 1.419 1_554 S
C124 C120 1.382 1_554 S
C124 C123 1.391 . S
C124 C125 1.399 . S
C125 C124 1.399 . S
C125 C128 1.396 . S
C125 C137 1.453 . S
C125 C138 1.684 1_655 S
H126 C150 0.945 1_655 S
C127 C123 1.397 . S
C127 C128 1.394 . S
C127 C146 1.723 . S
C128 C125 1.396 . S
C128 C127 1.394 . S
C128 C158 1.723 . S
H129 C152 0.947 . S
H130 C153 0.948 . S
H131 C159 0.982 . S
H132 C160 0.979 . S
H133 C160 0.980 . S
H134 C160 0.983 . S
H135 C159 0.979 . S
H136 C159 0.977 . S
C137 C125 1.453 . S
C137 H166 0.982 . S
C137 H167 0.958 1_655 S
C137 H168 0.977 . S
C138 C125 1.684 1_455 S
C138 H163 0.979 . S
C138 H164 0.980 . S
C138 H165 0.983 . S
C139 C140 1.391 . S
C139 C144 1.391 . S
C139 H169 0.948 . S
C140 C139 1.391 . S
C140 C141 1.391 . S
C141 C140 1.391 . S
C141 C142 1.392 . S
C141 H170 0.947 . S
C142 C141 1.392 . S
C142 C143 1.419 . S
C142 H171 0.948 . S
C143 C142 1.419 . S
C143 C144 1.391 . S
C143 C147 1.397 . S
C144 C139 1.391 . S
C144 C143 1.391 . S
C144 C145 1.399 . S
C145 C144 1.399 . S
C145 C146 1.396 . S
C145 C148 1.453 . S
C145 C149 1.684 1_554 S
C146 C127 1.723 . S
C146 C145 1.396 . S
C146 C147 1.394 . S
C147 C143 1.397 . S
C147 C146 1.394 . S
C147 C157 1.723 . S
C148 C145 1.453 . S
C148 H172 0.982 . S
C148 H173 0.959 1_554 S
C148 H174 0.977 . S
C149 C145 1.684 1_556 S
C149 H175 0.979 . S
C149 H176 0.980 . S
C149 H177 0.983 . S
C150 H126 0.945 1_455 S
C150 C151 1.404 . S
C150 C155 1.382 1_455 S
C151 C150 1.404 . S
C151 C152 1.391 . S
C152 H129 0.947 . S
C152 C151 1.391 . S
C152 C153 1.392 . S
C153 H130 0.948 . S
C153 C152 1.392 . S
C153 C154 1.419 1_455 S
C154 C153 1.419 1_655 S
C154 C155 1.391 . S
C154 C158 1.397 . S
C155 C150 1.382 1_655 S
C155 C154 1.391 . S
C155 C156 1.399 . S
C156 C155 1.399 . S
C156 C157 1.396 . S
C156 C159 1.453 . S
C156 C160 1.684 . S
C157 C147 1.723 . S
C157 C156 1.396 . S
C157 C158 1.394 . S
C158 C128 1.723 . S
C158 C154 1.397 . S
C158 C157 1.394 . S
C159 H131 0.982 . S
C159 H135 0.979 . S
C159 H136 0.977 . S
C159 C156 1.453 . S
C160 H132 0.979 . S
C160 H133 0.980 . S
C160 H134 0.983 . S
C160 C156 1.684 . S
H161 C179 0.948 . S
H162 C120 0.945 1_554 S
H163 C138 0.979 . S
H164 C138 0.980 . S
H165 C138 0.983 . S
H166 C137 0.982 . S
H167 C137 0.958 1_455 S
H168 C137 0.977 . S
H169 C139 0.948 . S
H170 C141 0.947 . S
H171 C142 0.948 . S
H172 C148 0.982 . S
H173 C148 0.959 1_556 S
H174 C148 0.977 . S
H175 C149 0.979 . S
H176 C149 0.980 . S
H177 C149 0.983 . S
H178 C122 0.947 . S
C179 C122 1.392 . S
C179 C123 1.419 1_556 S
C179 H161 0.948 . S
C180 C181 1.391 . S
C180 C184 1.391 . S
C180 H222 0.948 . S
C181 C180 1.391 . S
C181 C182 1.391 . S
C182 C181 1.391 . S
C182 H238 0.947 . S
C182 C239 1.392 . S
C183 C184 1.391 . S
C183 C187 1.397 . S
C183 C239 1.419 . S
C184 C180 1.391 . S
C184 C183 1.391 . S
C184 C185 1.399 . S
C185 C184 1.399 . S
C185 C188 1.396 . S
C185 C197 1.453 . S
C185 C198 1.684 . S
H186 C210 0.948 . S
C187 C183 1.397 . S
C187 C188 1.394 . S
C187 C206 1.723 . S
C188 C185 1.396 . S
C188 C187 1.394 . S
C188 C218 1.723 . S
H189 C212 0.947 . S
H190 C213 0.948 . S
H191 C219 0.982 . S
H192 C220 0.979 . S
H193 C220 0.980 . S
H194 C220 0.983 . S
H195 C219 0.979 . S
H196 C219 0.977 . S
C197 C185 1.453 . S
C197 H226 0.982 . S
C197 H227 0.979 . S
C197 H228 0.977 . S
C198 C185 1.684 . S
C198 H223 0.979 . S
C198 H224 0.980 . S
C198 H225 0.983 . S
C199 C200 1.391 . S
C199 C204 1.391 . S
C199 H229 0.948 . S
C200 C199 1.391 . S
C200 C201 1.391 . S
C201 C200 1.391 . S
C201 C202 1.392 . S
C201 H230 0.947 . S
C202 C201 1.392 . S
C202 C203 1.419 . S
C202 H231 0.948 . S
C203 C202 1.419 . S
C203 C204 1.391 . S
C203 C207 1.397 . S
C204 C199 1.391 . S
C204 C203 1.391 . S
C204 C205 1.399 . S
C205 C204 1.399 . S
C205 C206 1.396 . S
C205 C208 1.453 . S
C205 C209 1.684 . S
C206 C187 1.723 . S
C206 C205 1.396 . S
C206 C207 1.394 . S
C207 C203 1.397 . S
C207 C206 1.394 . S
C207 C217 1.723 . S
C208 C205 1.453 . S
C208 H232 0.982 . S
C208 H233 0.979 . S
C208 H234 0.977 . S
C209 C205 1.684 . S
C209 H235 0.979 . S
C209 H236 0.980 . S
C209 H237 0.983 . S
C210 H186 0.948 . S
C210 C211 1.391 . S
C210 C215 1.391 . S
C211 C210 1.391 . S
C211 C212 1.391 . S
C212 H189 0.947 . S
C212 C211 1.391 . S
C212 C213 1.392 . S
C213 H190 0.948 . S
C213 C212 1.392 . S
C213 C214 1.419 . S
C214 C213 1.419 . S
C214 C215 1.391 . S
C214 C218 1.397 . S
C215 C210 1.391 . S
C215 C214 1.391 . S
C215 C216 1.399 . S
C216 C215 1.399 . S
C216 C217 1.396 . S
C216 C219 1.453 . S
C216 C220 1.684 . S
C217 C207 1.723 . S
C217 C216 1.396 . S
C217 C218 1.394 . S
C218 C188 1.723 . S
C218 C214 1.397 . S
C218 C217 1.394 . S
C219 H191 0.982 . S
C219 H195 0.979 . S
C219 H196 0.977 . S
C219 C216 1.453 . S
C220 H192 0.979 . S
C220 H193 0.980 . S
C220 H194 0.983 . S
C220 C216 1.684 . S
H221 C239 0.948 . S
H222 C180 0.948 . S
H223 C198 0.979 . S
H224 C198 0.980 . S
H225 C198 0.983 . S
H226 C197 0.982 . S
H227 C197 0.979 . S
H228 C197 0.977 . S
H229 C199 0.948 . S
H230 C201 0.947 . S
H231 C202 0.948 . S
H232 C208 0.982 . S
H233 C208 0.979 . S
H234 C208 0.977 . S
H235 C209 0.979 . S
H236 C209 0.980 . S
H237 C209 0.983 . S
H238 C182 0.947 . S
C239 C182 1.392 . S
C239 C183 1.419 . S
C239 H221 0.948 . S
C240 C241 1.391 . S
C240 C244 1.391 . S
C240 H282 0.948 . S
C241 C240 1.391 . S
C241 C242 1.391 . S
C242 C241 1.391 . S
C242 H298 0.919 1_455 S
C242 C299 1.392 . S
C243 C244 1.391 . S
C243 C247 1.397 . S
C243 C299 1.419 . S
C244 C240 1.391 . S
C244 C243 1.391 . S
C244 C245 1.399 . S
C245 C244 1.399 . S
C245 C248 1.396 . S
C245 C257 1.453 . S
C245 C258 1.684 . S
H246 C270 0.948 . S
C247 C243 1.397 . S
C247 C248 1.394 . S
C247 C266 1.723 . S
C248 C245 1.396 . S
C248 C247 1.394 . S
C248 C278 1.723 . S
H249 C272 0.947 . S
H250 C273 0.948 . S
H251 C279 0.982 . S
H252 C280 0.966 1_565 S
H253 C280 0.980 . S
H254 C280 0.999 . S
H255 C279 0.979 . S
H256 C279 0.977 . S
C257 C245 1.453 . S
C257 H286 0.982 . S
C257 H287 0.979 . S
C257 H288 0.977 . S
C258 C245 1.684 . S
C258 H283 0.979 . S
C258 H284 0.980 . S
C258 H285 0.983 . S
C259 C260 1.391 . S
C259 C264 1.391 1_655 S
C259 H289 0.948 . S
C260 C259 1.391 . S
C260 C261 1.391 1_655 S
C261 C260 1.391 1_455 S
C261 C262 1.392 . S
C261 H290 0.919 1_565 S
C262 C261 1.392 . S
C262 C263 1.419 . S
C262 H291 0.948 . S
C263 C262 1.419 . S
C263 C264 1.391 . S
C263 C267 1.397 . S
C264 C259 1.391 1_455 S
C264 C263 1.391 . S
C264 C265 1.399 . S
C265 C264 1.399 . S
C265 C266 1.396 . S
C265 C268 1.453 1_455 S
C265 C269 1.681 1_455 S
C266 C247 1.723 . S
C266 C265 1.396 . S
C266 C267 1.394 . S
C267 C263 1.397 . S
C267 C266 1.394 . S
C267 C277 1.723 . S
C268 C265 1.453 1_655 S
C268 H292 0.982 . S
C268 H293 0.979 . S
C268 H294 0.977 . S
C269 C265 1.681 1_655 S
C269 H295 0.966 1_655 S
C269 H296 0.980 . S
C269 H297 0.998 . S
C270 H246 0.948 . S
C270 C271 1.391 . S
C270 C275 1.391 1_545 S
C271 C270 1.391 . S
C271 C272 1.391 1_545 S
C272 H249 0.947 . S
C272 C271 1.391 1_565 S
C272 C273 1.392 . S
C273 H250 0.948 . S
C273 C272 1.392 . S
C273 C274 1.419 . S
C274 C273 1.419 . S
C274 C275 1.391 . S
C274 C278 1.397 . S
C275 C270 1.391 1_565 S
C275 C274 1.391 . S
C275 C276 1.399 . S
C276 C275 1.399 . S
C276 C277 1.396 . S
C276 C279 1.453 1_565 S
C276 C280 1.681 1_565 S
C277 C267 1.723 . S
C277 C276 1.396 . S
C277 C278 1.394 . S
C278 C248 1.723 . S
C278 C274 1.397 . S
C278 C277 1.394 . S
C279 H251 0.982 . S
C279 H255 0.979 . S
C279 H256 0.977 . S
C279 C276 1.453 1_545 S
C280 H252 0.966 1_545 S
C280 H253 0.980 . S
C280 H254 0.999 . S
C280 C276 1.681 1_545 S
H281 C299 0.948 . S
H282 C240 0.948 . S
H283 C258 0.979 . S
H284 C258 0.980 . S
H285 C258 0.983 . S
H286 C257 0.982 . S
H287 C257 0.979 . S
H288 C257 0.977 . S
H289 C259 0.948 . S
H290 C261 0.919 1_545 S
H291 C262 0.948 . S
H292 C268 0.982 . S
H293 C268 0.979 . S
H294 C268 0.977 . S
H295 C269 0.966 1_455 S
H296 C269 0.980 . S
H297 C269 0.998 . S
H298 C242 0.919 1_655 S
C299 C242 1.392 . S
C299 C243 1.419 . S
C299 H281 0.948 . S
C300 C301 1.391 . S
C300 C304 1.391 . S
C300 H342 0.948 . S
C301 C300 1.391 . S
C301 C302 1.391 . S
C302 C301 1.391 . S
C302 H358 0.947 . S
C302 C359 1.392 . S
C303 C304 1.391 . S
C303 C307 1.397 . S
C303 C359 1.419 . S
C304 C300 1.391 . S
C304 C303 1.391 . S
C304 C305 1.399 . S
C305 C304 1.399 . S
C305 C308 1.396 . S
C305 C317 1.453 . S
C305 C318 1.684 . S
H306 C330 0.948 . S
C307 C303 1.397 . S
C307 C308 1.394 . S
C307 C326 1.723 . S
C308 C305 1.396 . S
C308 C307 1.394 . S
C308 C338 1.723 . S
H309 C332 0.947 . S
H310 C333 0.948 . S
H311 C339 0.982 . S
H312 C340 0.979 . S
H313 C340 0.980 . S
H314 C340 0.983 . S
H315 C339 0.979 . S
H316 C339 0.977 . S
C317 C305 1.453 . S
C317 H346 0.982 . S
C317 H347 0.979 . S
C317 H348 0.977 . S
C318 C305 1.684 . S
C318 H343 0.979 . S
C318 H344 0.980 . S
C318 H345 0.983 . S
C319 C320 1.391 . S
C319 C324 1.391 . S
C319 H349 0.948 . S
C320 C319 1.391 . S
C320 C321 1.391 . S
C321 C320 1.391 . S
C321 C322 1.392 . S
C321 H350 0.947 . S
C322 C321 1.392 . S
C322 C323 1.419 . S
C322 H351 0.948 . S
C323 C322 1.419 . S
C323 C324 1.391 . S
C323 C327 1.397 . S
C324 C319 1.391 . S
C324 C323 1.391 . S
C324 C325 1.399 . S
C325 C324 1.399 . S
C325 C326 1.396 . S
C325 C328 1.453 . S
C325 C329 1.684 . S
C326 C307 1.723 . S
C326 C325 1.396 . S
C326 C327 1.394 . S
C327 C323 1.397 . S
C327 C326 1.394 . S
C327 C337 1.723 . S
C328 C325 1.453 . S
C328 H352 0.982 . S
C328 H353 0.979 . S
C328 H354 0.977 . S
C329 C325 1.684 . S
C329 H355 0.979 . S
C329 H356 0.980 . S
C329 H357 0.983 . S
C330 H306 0.948 . S
C330 C331 1.391 . S
C330 C335 1.391 . S
C331 C330 1.391 . S
C331 C332 1.391 . S
C332 H309 0.947 . S
C332 C331 1.391 . S
C332 C333 1.392 . S
C333 H310 0.948 . S
C333 C332 1.392 . S
C333 C334 1.419 . S
C334 C333 1.419 . S
C334 C335 1.391 . S
C334 C338 1.397 . S
C335 C330 1.391 . S
C335 C334 1.391 . S
C335 C336 1.399 . S
C336 C335 1.399 . S
C336 C337 1.396 . S
C336 C339 1.453 . S
C336 C340 1.684 . S
C337 C327 1.723 . S
C337 C336 1.396 . S
C337 C338 1.394 . S
C338 C308 1.723 . S
C338 C334 1.397 . S
C338 C337 1.394 . S
C339 H311 0.982 . S
C339 H315 0.979 . S
C339 H316 0.977 . S
C339 C336 1.453 . S
C340 H312 0.979 . S
C340 H313 0.980 . S
C340 H314 0.983 . S
C340 C336 1.684 . S
H341 C359 0.948 . S
H342 C300 0.948 . S
H343 C318 0.979 . S
H344 C318 0.980 . S
H345 C318 0.983 . S
H346 C317 0.982 . S
H347 C317 0.979 . S
H348 C317 0.977 . S
H349 C319 0.948 . S
H350 C321 0.947 . S
H351 C322 0.948 . S
H352 C328 0.982 . S
H353 C328 0.979 . S
H354 C328 0.977 . S
H355 C329 0.979 . S
H356 C329 0.980 . S
H357 C329 0.983 . S
H358 C302 0.947 . S
C359 C302 1.392 . S
C359 C303 1.419 . S
C359 H341 0.948 . S
C360 C361 1.391 . S
C360 C364 1.391 . S
C360 H402 0.948 . S
C361 C360 1.391 . S
C361 C362 1.391 . S
C362 C361 1.391 . S
C362 H418 0.947 . S
C362 C419 1.392 . S
C363 C364 1.391 . S
C363 C367 1.397 . S
C363 C419 1.419 . S
C364 C360 1.391 . S
C364 C363 1.391 . S
C364 C365 1.399 . S
C365 C364 1.399 . S
C365 C368 1.396 . S
C365 C377 1.453 . S
C365 C378 1.684 . S
H366 C390 0.948 . S
C367 C363 1.397 . S
C367 C368 1.394 . S
C367 C386 1.723 . S
C368 C365 1.396 . S
C368 C367 1.394 . S
C368 C398 1.723 . S
H369 C392 0.947 . S
H370 C393 0.948 . S
H371 C399 0.982 . S
H372 C400 0.979 . S
H373 C400 0.980 . S
H374 C400 0.983 . S
H375 C399 0.958 1_455 S
H376 C399 0.977 . S
C377 C365 1.453 . S
C377 H406 0.982 . S
C377 H407 0.979 . S
C377 H408 0.977 . S
C378 C365 1.684 . S
C378 H403 0.979 . S
C378 H404 0.980 . S
C378 H405 0.983 . S
C379 C380 1.404 . S
C379 C384 1.382 1_455 S
C379 H409 0.945 1_455 S
C380 C379 1.404 . S
C380 C381 1.391 . S
C381 C380 1.391 . S
C381 C382 1.392 . S
C381 H410 0.947 . S
C382 C381 1.392 . S
C382 C383 1.419 1_455 S
C382 H411 0.948 . S
C383 C382 1.419 1_655 S
C383 C384 1.391 . S
C383 C387 1.397 . S
C384 C379 1.382 1_655 S
C384 C383 1.391 . S
C384 C385 1.399 . S
C385 C384 1.399 . S
C385 C386 1.396 . S
C385 C388 1.453 . S
C385 C389 1.684 . S
C386 C367 1.723 . S
C386 C385 1.396 . S
C386 C387 1.394 . S
C387 C383 1.397 . S
C387 C386 1.394 . S
C387 C397 1.723 . S
C388 C385 1.453 . S
C388 H412 0.982 . S
C388 H413 0.979 . S
C388 H414 0.977 . S
C389 C385 1.684 . S
C389 H415 0.979 . S
C389 H416 0.980 . S
C389 H417 0.983 . S
C390 H366 0.948 . S
C390 C391 1.391 . S
C390 C395 1.391 . S
C391 C390 1.391 . S
C391 C392 1.391 . S
C392 H369 0.947 . S
C392 C391 1.391 . S
C392 C393 1.392 . S
C393 H370 0.948 . S
C393 C392 1.392 . S
C393 C394 1.419 . S
C394 C393 1.419 . S
C394 C395 1.391 . S
C394 C398 1.397 . S
C395 C390 1.391 . S
C395 C394 1.391 . S
C395 C396 1.399 . S
C396 C395 1.399 . S
C396 C397 1.396 . S
C396 C399 1.453 . S
C396 C400 1.684 1_655 S
C397 C387 1.723 . S
C397 C396 1.396 . S
C397 C398 1.394 . S
C398 C368 1.723 . S
C398 C394 1.397 . S
C398 C397 1.394 . S
C399 H371 0.982 . S
C399 H375 0.958 1_655 S
C399 H376 0.977 . S
C399 C396 1.453 . S
C400 H372 0.979 . S
C400 H373 0.980 . S
C400 H374 0.983 . S
C400 C396 1.684 1_455 S
H401 C419 0.948 . S
H402 C360 0.948 . S
H403 C378 0.979 . S
H404 C378 0.980 . S
H405 C378 0.983 . S
H406 C377 0.982 . S
H407 C377 0.979 . S
H408 C377 0.977 . S
H409 C379 0.945 1_655 S
H410 C381 0.947 . S
H411 C382 0.948 . S
H412 C388 0.982 . S
H413 C388 0.979 . S
H414 C388 0.977 . S
H415 C389 0.979 . S
H416 C389 0.980 . S
H417 C389 0.983 . S
H418 C362 0.947 . S
C419 C362 1.392 . S
C419 C363 1.419 . S
C419 H401 0.948 . S
C420 C421 1.391 . S
C420 C424 1.391 . S
C420 H462 0.948 . S
C421 C420 1.391 . S
C421 C422 1.391 . S
C422 C421 1.391 . S
C422 H478 0.947 . S
C422 C479 1.392 . S
C423 C424 1.391 . S
C423 C427 1.397 . S
C423 C479 1.419 . S
C424 C420 1.391 . S
C424 C423 1.391 . S
C424 C425 1.399 . S
C425 C424 1.399 . S
C425 C428 1.396 . S
C425 C437 1.453 . S
C425 C438 1.684 . S
H426 C450 0.948 . S
C427 C423 1.397 . S
C427 C428 1.394 . S
C427 C446 1.723 . S
C428 C425 1.396 . S
C428 C427 1.394 . S
C428 C458 1.723 . S
H429 C452 0.947 . S
H430 C453 0.948 . S
H431 C459 0.982 . S
H432 C460 0.979 . S
H433 C460 0.980 . S
H434 C460 0.983 . S
H435 C459 0.979 . S
H436 C459 0.977 . S
C437 C425 1.453 . S
C437 H466 0.982 . S
C437 H467 0.979 . S
C437 H468 0.977 . S
C438 C425 1.684 . S
C438 H463 0.979 . S
C438 H464 0.980 . S
C438 H465 0.983 . S
C439 C440 1.391 . S
C439 C444 1.391 . S
C439 H469 0.948 . S
C440 C439 1.391 . S
C440 C441 1.391 . S
C441 C440 1.391 . S
C441 C442 1.392 . S
C441 H470 0.947 . S
C442 C441 1.392 . S
C442 C443 1.419 . S
C442 H471 0.948 . S
C443 C442 1.419 . S
C443 C444 1.391 . S
C443 C447 1.397 . S
C444 C439 1.391 . S
C444 C443 1.391 . S
C444 C445 1.399 . S
C445 C444 1.399 . S
C445 C446 1.396 . S
C445 C448 1.453 . S
C445 C449 1.684 . S
C446 C427 1.723 . S
C446 C445 1.396 . S
C446 C447 1.394 . S
C447 C443 1.397 . S
C447 C446 1.394 . S
C447 C457 1.723 . S
C448 C445 1.453 . S
C448 H472 0.982 . S
C448 H473 0.979 . S
C448 H474 0.977 . S
C449 C445 1.684 . S
C449 H475 0.979 . S
C449 H476 0.980 . S
C449 H477 0.983 . S
C450 H426 0.948 . S
C450 C451 1.391 . S
C450 C455 1.391 . S
C451 C450 1.391 . S
C451 C452 1.391 . S
C452 H429 0.947 . S
C452 C451 1.391 . S
C452 C453 1.392 . S
C453 H430 0.948 . S
C453 C452 1.392 . S
C453 C454 1.419 . S
C454 C453 1.419 . S
C454 C455 1.391 . S
C454 C458 1.397 . S
C455 C450 1.391 . S
C455 C454 1.391 . S
C455 C456 1.399 . S
C456 C455 1.399 . S
C456 C457 1.396 . S
C456 C459 1.453 . S
C456 C460 1.684 . S
C457 C447 1.723 . S
C457 C456 1.396 . S
C457 C458 1.394 . S
C458 C428 1.723 . S
C458 C454 1.397 . S
C458 C457 1.394 . S
C459 H431 0.982 . S
C459 H435 0.979 . S
C459 H436 0.977 . S
C459 C456 1.453 . S
C460 H432 0.979 . S
C460 H433 0.980 . S
C460 H434 0.983 . S
C460 C456 1.684 . S
H461 C479 0.948 . S
H462 C420 0.948 . S
H463 C438 0.979 . S
H464 C438 0.980 . S
H465 C438 0.983 . S
H466 C437 0.982 . S
H467 C437 0.979 . S
H468 C437 0.977 . S
H469 C439 0.948 . S
H470 C441 0.947 . S
H471 C442 0.948 . S
H472 C448 0.982 . S
H473 C448 0.979 . S
H474 C448 0.977 . S
H475 C449 0.979 . S
H476 C449 0.980 . S
H477 C449 0.983 . S
H478 C422 0.947 . S
C479 C422 1.392 . S
C479 C423 1.419 . S
C479 H461 0.948 . S
C480 C481 1.391 . S
C480 C484 1.391 . S
C480 H522 0.948 . S
C481 C480 1.391 . S
C481 C482 1.391 . S
C482 C481 1.391 . S
C482 H538 0.947 . S
C482 C539 1.392 . S
C483 C484 1.391 . S
C483 C487 1.397 . S
C483 C539 1.419 . S
C484 C480 1.391 . S
C484 C483 1.391 . S
C484 C485 1.399 . S
C485 C484 1.399 . S
C485 C488 1.396 . S
C485 C497 1.453 . S
C485 C498 1.684 . S
H486 C510 0.948 . S
C487 C483 1.397 . S
C487 C488 1.394 . S
C487 C506 1.723 . S
C488 C485 1.396 . S
C488 C487 1.394 . S
C488 C518 1.723 . S
H489 C512 0.947 . S
H490 C513 0.948 . S
H491 C519 0.982 . S
H492 C520 0.979 . S
H493 C520 0.980 . S
H494 C520 0.983 . S
H495 C519 0.979 . S
H496 C519 0.977 . S
C497 C485 1.453 . S
C497 H526 0.982 . S
C497 H527 0.979 . S
C497 H528 0.977 . S
C498 C485 1.684 . S
C498 H523 0.979 . S
C498 H524 0.980 . S
C498 H525 0.983 . S
C499 C500 1.391 . S
C499 C504 1.391 . S
C499 H529 0.948 . S
C500 C499 1.391 . S
C500 C501 1.391 . S
C501 C500 1.391 . S
C501 C502 1.392 . S
C501 H530 0.947 . S
C502 C501 1.392 . S
C502 C503 1.419 . S
C502 H531 0.948 . S
C503 C502 1.419 . S
C503 C504 1.391 . S
C503 C507 1.397 . S
C504 C499 1.391 . S
C504 C503 1.391 . S
C504 C505 1.399 . S
C505 C504 1.399 . S
C505 C506 1.396 . S
C505 C508 1.453 . S
C505 C509 1.684 . S
C506 C487 1.723 . S
C506 C505 1.396 . S
C506 C507 1.394 . S
C507 C503 1.397 . S
C507 C506 1.394 . S
C507 C517 1.723 . S
C508 C505 1.453 . S
C508 H532 0.982 . S
C508 H533 0.979 . S
C508 H534 0.977 . S
C509 C505 1.684 . S
C509 H535 0.979 . S
C509 H536 0.980 . S
C509 H537 0.983 . S
C510 H486 0.948 . S
C510 C511 1.391 . S
C510 C515 1.391 . S
C511 C510 1.391 . S
C511 C512 1.391 . S
C512 H489 0.947 . S
C512 C511 1.391 . S
C512 C513 1.392 . S
C513 H490 0.948 . S
C513 C512 1.392 . S
C513 C514 1.419 . S
C514 C513 1.419 . S
C514 C515 1.391 . S
C514 C518 1.397 . S
C515 C510 1.391 . S
C515 C514 1.391 . S
C515 C516 1.399 . S
C516 C515 1.399 . S
C516 C517 1.396 . S
C516 C519 1.453 . S
C516 C520 1.684 . S
C517 C507 1.723 . S
C517 C516 1.396 . S
C517 C518 1.394 . S
C518 C488 1.723 . S
C518 C514 1.397 . S
C518 C517 1.394 . S
C519 H491 0.982 . S
C519 H495 0.979 . S
C519 H496 0.977 . S
C519 C516 1.453 . S
C520 H492 0.979 . S
C520 H493 0.980 . S
C520 H494 0.983 . S
C520 C516 1.684 . S
H521 C539 0.948 . S
H522 C480 0.948 . S
H523 C498 0.979 . S
H524 C498 0.980 . S
H525 C498 0.983 . S
H526 C497 0.982 . S
H527 C497 0.979 . S
H528 C497 0.977 . S
H529 C499 0.948 . S
H530 C501 0.947 . S
H531 C502 0.948 . S
H532 C508 0.982 . S
H533 C508 0.979 . S
H534 C508 0.977 . S
H535 C509 0.979 . S
H536 C509 0.980 . S
H537 C509 0.983 . S
H538 C482 0.947 . S
C539 C482 1.392 . S
C539 C483 1.419 . S
C539 H521 0.948 . S
C540 C541 1.391 . S
C540 C544 1.391 . S
C540 H582 0.948 . S
C541 C540 1.391 . S
C541 C542 1.391 . S
C542 C541 1.391 . S
C542 H598 0.947 . S
C542 C599 1.392 . S
C543 C544 1.391 . S
C543 C547 1.397 . S
C543 C599 1.419 . S
C544 C540 1.391 . S
C544 C543 1.391 . S
C544 C545 1.399 . S
C545 C544 1.399 . S
C545 C548 1.396 . S
C545 C557 1.453 . S
C545 C558 1.684 . S
H546 C570 0.948 . S
C547 C543 1.397 . S
C547 C548 1.394 . S
C547 C566 1.723 . S
C548 C545 1.396 . S
C548 C547 1.394 . S
C548 C578 1.723 . S
H549 C572 0.947 . S
H550 C573 0.948 . S
H551 C579 0.982 . S
H552 C580 0.979 . S
H553 C580 0.980 . S
H554 C580 0.983 . S
H555 C579 0.958 1_545 S
H556 C579 0.977 . S
C557 C545 1.453 . S
C557 H586 0.982 . S
C557 H587 0.979 . S
C557 H588 0.977 . S
C558 C545 1.684 . S
C558 H583 0.979 . S
C558 H584 0.980 . S
C558 H585 0.983 . S
C559 C560 1.404 . S
C559 C564 1.382 1_545 S
C559 H589 0.945 1_545 S
C560 C559 1.404 . S
C560 C561 1.391 . S
C561 C560 1.391 . S
C561 C562 1.392 . S
C561 H590 0.947 . S
C562 C561 1.392 . S
C562 C563 1.419 1_545 S
C562 H591 0.948 . S
C563 C562 1.419 1_565 S
C563 C564 1.391 . S
C563 C567 1.397 . S
C564 C559 1.382 1_565 S
C564 C563 1.391 . S
C564 C565 1.399 . S
C565 C564 1.399 . S
C565 C566 1.396 . S
C565 C568 1.453 . S
C565 C569 1.684 . S
C566 C547 1.723 . S
C566 C565 1.396 . S
C566 C567 1.394 . S
C567 C563 1.397 . S
C567 C566 1.394 . S
C567 C577 1.723 . S
C568 C565 1.453 . S
C568 H592 0.982 . S
C568 H593 0.979 . S
C568 H594 0.977 . S
C569 C565 1.684 . S
C569 H595 0.979 . S
C569 H596 0.980 . S
C569 H597 0.983 . S
C570 H546 0.948 . S
C570 C571 1.391 . S
C570 C575 1.391 . S
C571 C570 1.391 . S
C571 C572 1.391 . S
C572 H549 0.947 . S
C572 C571 1.391 . S
C572 C573 1.392 . S
C573 H550 0.948 . S
C573 C572 1.392 . S
C573 C574 1.419 . S
C574 C573 1.419 . S
C574 C575 1.391 . S
C574 C578 1.397 . S
C575 C570 1.391 . S
C575 C574 1.391 . S
C575 C576 1.399 . S
C576 C575 1.399 . S
C576 C577 1.396 . S
C576 C579 1.453 . S
C576 C580 1.684 1_565 S
C577 C567 1.723 . S
C577 C576 1.396 . S
C577 C578 1.394 . S
C578 C548 1.723 . S
C578 C574 1.397 . S
C578 C577 1.394 . S
C579 H551 0.982 . S
C579 H555 0.958 1_565 S
C579 H556 0.977 . S
C579 C576 1.453 . S
C580 H552 0.979 . S
C580 H553 0.980 . S
C580 H554 0.983 . S
C580 C576 1.684 1_545 S
H581 C599 0.948 . S
H582 C540 0.948 . S
H583 C558 0.979 . S
H584 C558 0.980 . S
H585 C558 0.983 . S
H586 C557 0.982 . S
H587 C557 0.979 . S
H588 C557 0.977 . S
H589 C559 0.945 1_565 S
H590 C561 0.947 . S
H591 C562 0.948 . S
H592 C568 0.982 . S
H593 C568 0.979 . S
H594 C568 0.977 . S
H595 C569 0.979 . S
H596 C569 0.980 . S
H597 C569 0.983 . S
H598 C542 0.947 . S
C599 C542 1.392 . S
C599 C543 1.419 . S
C599 H581 0.948 . S
C600 C601 1.391 . S
C600 C604 1.391 . S
C600 H642 0.948 . S
C601 C600 1.391 . S
C601 C602 1.391 . S
C602 C601 1.391 . S
C602 H658 0.947 . S
C602 C659 1.392 . S
C603 C604 1.391 . S
C603 C607 1.397 . S
C603 C659 1.419 . S
C604 C600 1.391 . S
C604 C603 1.391 . S
C604 C605 1.399 . S
C605 C604 1.399 . S
C605 C608 1.396 . S
C605 C617 1.453 . S
C605 C618 1.684 . S
H606 C630 0.948 . S
C607 C603 1.397 . S
C607 C608 1.394 . S
C607 C626 1.723 . S
C608 C605 1.396 . S
C608 C607 1.394 . S
C608 C638 1.723 . S
H609 C632 0.947 . S
H610 C633 0.948 . S
H611 C639 0.982 . S
H612 C640 0.979 . S
H613 C640 0.980 . S
H614 C640 0.983 . S
H615 C639 0.979 . S
H616 C639 0.977 . S
C617 C605 1.453 . S
C617 H646 0.982 . S
C617 H647 0.979 . S
C617 H648 0.977 . S
C618 C605 1.684 . S
C618 H643 0.979 . S
C618 H644 0.980 . S
C618 H645 0.983 . S
C619 C620 1.391 . S
C619 C624 1.391 . S
C619 H649 0.948 . S
C620 C619 1.391 . S
C620 C621 1.391 . S
C621 C620 1.391 . S
C621 C622 1.392 . S
C621 H650 0.947 . S
C622 C621 1.392 . S
C622 C623 1.419 . S
C622 H651 0.948 . S
C623 C622 1.419 . S
C623 C624 1.391 . S
C623 C627 1.397 . S
C624 C619 1.391 . S
C624 C623 1.391 . S
C624 C625 1.399 . S
C625 C624 1.399 . S
C625 C626 1.396 . S
C625 C628 1.453 . S
C625 C629 1.684 . S
C626 C607 1.723 . S
C626 C625 1.396 . S
C626 C627 1.394 . S
C627 C623 1.397 . S
C627 C626 1.394 . S
C627 C637 1.723 . S
C628 C625 1.453 . S
C628 H652 0.982 . S
C628 H653 0.979 . S
C628 H654 0.977 . S
C629 C625 1.684 . S
C629 H655 0.979 . S
C629 H656 0.980 . S
C629 H657 0.983 . S
C630 H606 0.948 . S
C630 C631 1.391 . S
C630 C635 1.391 . S
C631 C630 1.391 . S
C631 C632 1.391 . S
C632 H609 0.947 . S
C632 C631 1.391 . S
C632 C633 1.392 . S
C633 H610 0.948 . S
C633 C632 1.392 . S
C633 C634 1.419 . S
C634 C633 1.419 . S
C634 C635 1.391 . S
C634 C638 1.397 . S
C635 C630 1.391 . S
C635 C634 1.391 . S
C635 C636 1.399 . S
C636 C635 1.399 . S
C636 C637 1.396 . S
C636 C639 1.453 . S
C636 C640 1.684 . S
C637 C627 1.723 . S
C637 C636 1.396 . S
C637 C638 1.394 . S
C638 C608 1.723 . S
C638 C634 1.397 . S
C638 C637 1.394 . S
C639 H611 0.982 . S
C639 H615 0.979 . S
C639 H616 0.977 . S
C639 C636 1.453 . S
C640 H612 0.979 . S
C640 H613 0.980 . S
C640 H614 0.983 . S
C640 C636 1.684 . S
H641 C659 0.948 . S
H642 C600 0.948 . S
H643 C618 0.979 . S
H644 C618 0.980 . S
H645 C618 0.983 . S
H646 C617 0.982 . S
H647 C617 0.979 . S
H648 C617 0.977 . S
H649 C619 0.948 . S
H650 C621 0.947 . S
H651 C622 0.948 . S
H652 C628 0.982 . S
H653 C628 0.979 . S
H654 C628 0.977 . S
H655 C629 0.979 . S
H656 C629 0.980 . S
H657 C629 0.983 . S
H658 C602 0.947 . S
C659 C602 1.392 . S
C659 C603 1.419 . S
C659 H641 0.948 . S
C660 C661 1.391 . S
C660 C664 1.391 . S
C660 H702 0.948 . S
C661 C660 1.391 . S
C661 C662 1.391 . S
C662 C661 1.391 . S
C662 H718 0.947 . S
C662 C719 1.392 . S
C663 C664 1.391 . S
C663 C667 1.397 . S
C663 C719 1.419 . S
C664 C660 1.391 . S
C664 C663 1.391 . S
C664 C665 1.399 . S
C665 C664 1.399 . S
C665 C668 1.396 . S
C665 C677 1.453 . S
C665 C678 1.684 . S
H666 C690 0.948 . S
C667 C663 1.397 . S
C667 C668 1.394 . S
C667 C686 1.723 . S
C668 C665 1.396 . S
C668 C667 1.394 . S
C668 C698 1.723 . S
H669 C692 0.947 . S
H670 C693 0.948 . S
H671 C699 0.982 . S
H672 C700 0.979 . S
H673 C700 0.980 . S
H674 C700 0.983 . S
H675 C699 0.979 . S
H676 C699 0.977 . S
C677 C665 1.453 . S
C677 H706 0.982 . S
C677 H707 0.979 . S
C677 H708 0.977 . S
C678 C665 1.684 . S
C678 H703 0.979 . S
C678 H704 0.980 . S
C678 H705 0.983 . S
C679 C680 1.391 . S
C679 C684 1.391 . S
C679 H709 0.948 . S
C680 C679 1.391 . S
C680 C681 1.391 . S
C681 C680 1.391 . S
C681 C682 1.392 . S
C681 H710 0.947 . S
C682 C681 1.392 . S
C682 C683 1.419 . S
C682 H711 0.948 . S
C683 C682 1.419 . S
C683 C684 1.391 . S
C683 C687 1.397 . S
C684 C679 1.391 . S
C684 C683 1.391 . S
C684 C685 1.399 . S
C685 C684 1.399 . S
C685 C686 1.396 . S
C685 C688 1.453 . S
C685 C689 1.684 . S
C686 C667 1.723 . S
C686 C685 1.396 . S
C686 C687 1.394 . S
C687 C683 1.397 . S
C687 C686 1.394 . S
C687 C697 1.723 . S
C688 C685 1.453 . S
C688 H712 0.982 . S
C688 H713 0.979 . S
C688 H714 0.977 . S
C689 C685 1.684 . S
C689 H715 0.979 . S
C689 H716 0.980 . S
C689 H717 0.983 . S
C690 H666 0.948 . S
C690 C691 1.391 . S
C690 C695 1.391 . S
C691 C690 1.391 . S
C691 C692 1.391 . S
C692 H669 0.947 . S
C692 C691 1.391 . S
C692 C693 1.392 . S
C693 H670 0.948 . S
C693 C692 1.392 . S
C693 C694 1.419 . S
C694 C693 1.419 . S
C694 C695 1.391 . S
C694 C698 1.397 . S
C695 C690 1.391 . S
C695 C694 1.391 . S
C695 C696 1.399 . S
C696 C695 1.399 . S
C696 C697 1.396 . S
C696 C699 1.453 . S
C696 C700 1.684 . S
C697 C687 1.723 . S
C697 C696 1.396 . S
C697 C698 1.394 . S
C698 C668 1.723 . S
C698 C694 1.397 . S
C698 C697 1.394 . S
C699 H671 0.982 . S
C699 H675 0.979 . S
C699 H676 0.977 . S
C699 C696 1.453 . S
C700 H672 0.979 . S
C700 H673 0.980 . S
C700 H674 0.983 . S
C700 C696 1.684 . S
H701 C719 0.948 . S
H702 C660 0.948 . S
H703 C678 0.979 . S
H704 C678 0.980 . S
H705 C678 0.983 . S
H706 C677 0.982 . S
H707 C677 0.979 . S
H708 C677 0.977 . S
H709 C679 0.948 . S
H710 C681 0.947 . S
H711 C682 0.948 . S
H712 C688 0.982 . S
H713 C688 0.979 . S
H714 C688 0.977 . S
H715 C689 0.979 . S
H716 C689 0.980 . S
H717 C689 0.983 . S
H718 C662 0.947 . S
C719 C662 1.392 . S
C719 C663 1.419 . S
C719 H701 0.948 . S
C720 C721 1.391 . S
C720 C724 1.391 . S
C720 H762 0.948 . S
C721 C720 1.391 . S
C721 C722 1.391 . S
C722 C721 1.391 . S
C722 H778 0.947 . S
C722 C779 1.392 . S
C723 C724 1.391 . S
C723 C727 1.397 . S
C723 C779 1.419 . S
C724 C720 1.391 . S
C724 C723 1.391 . S
C724 C725 1.399 . S
C725 C724 1.399 . S
C725 C728 1.396 . S
C725 C737 1.453 . S
C725 C738 1.684 . S
H726 C750 0.948 . S
C727 C723 1.397 . S
C727 C728 1.394 . S
C727 C746 1.723 . S
C728 C725 1.396 . S
C728 C727 1.394 . S
C728 C758 1.723 . S
H729 C752 0.947 . S
H730 C753 0.948 . S
H731 C759 0.982 . S
H732 C760 0.979 . S
H733 C760 0.980 . S
H734 C760 0.983 . S
H735 C759 0.979 . S
H736 C759 0.977 . S
C737 C725 1.453 . S
C737 H766 0.982 . S
C737 H767 0.979 . S
C737 H768 0.977 . S
C738 C725 1.684 . S
C738 H763 0.979 . S
C738 H764 0.980 . S
C738 H765 0.983 . S
C739 C740 1.391 . S
C739 C744 1.391 . S
C739 H769 0.948 . S
C740 C739 1.391 . S
C740 C741 1.391 . S
C741 C740 1.391 . S
C741 C742 1.392 . S
C741 H770 0.947 . S
C742 C741 1.392 . S
C742 C743 1.419 . S
C742 H771 0.948 . S
C743 C742 1.419 . S
C743 C744 1.391 . S
C743 C747 1.397 . S
C744 C739 1.391 . S
C744 C743 1.391 . S
C744 C745 1.399 . S
C745 C744 1.399 . S
C745 C746 1.396 . S
C745 C748 1.453 . S
C745 C749 1.684 . S
C746 C727 1.723 . S
C746 C745 1.396 . S
C746 C747 1.394 . S
C747 C743 1.397 . S
C747 C746 1.394 . S
C747 C757 1.723 . S
C748 C745 1.453 . S
C748 H772 0.982 . S
C748 H773 0.979 . S
C748 H774 0.977 . S
C749 C745 1.684 . S
C749 H775 0.979 . S
C749 H776 0.980 . S
C749 H777 0.983 . S
C750 H726 0.948 . S
C750 C751 1.391 . S
C750 C755 1.391 . S
C751 C750 1.391 . S
C751 C752 1.391 . S
C752 H729 0.947 . S
C752 C751 1.391 . S
C752 C753 1.392 . S
C753 H730 0.948 . S
C753 C752 1.392 . S
C753 C754 1.419 . S
C754 C753 1.419 . S
C754 C755 1.391 . S
C754 C758 1.397 . S
C755 C750 1.391 . S
C755 C754 1.391 . S
C755 C756 1.399 . S
C756 C755 1.399 . S
C756 C757 1.396 . S
C756 C759 1.453 . S
C756 C760 1.684 . S
C757 C747 1.723 . S
C757 C756 1.396 . S
C757 C758 1.394 . S
C758 C728 1.723 . S
C758 C754 1.397 . S
C758 C757 1.394 . S
C759 H731 0.982 . S
C759 H735 0.979 . S
C759 H736 0.977 . S
C759 C756 1.453 . S
C760 H732 0.979 . S
C760 H733 0.980 . S
C760 H734 0.983 . S
C760 C756 1.684 . S
H761 C779 0.948 . S
H762 C720 0.948 . S
H763 C738 0.979 . S
H764 C738 0.980 . S
H765 C738 0.983 . S
H766 C737 0.982 . S
H767 C737 0.979 . S
H768 C737 0.977 . S
H769 C739 0.948 . S
H770 C741 0.947 . S
H771 C742 0.948 . S
H772 C748 0.982 . S
H773 C748 0.979 . S
H774 C748 0.977 . S
H775 C749 0.979 . S
H776 C749 0.980 . S
H777 C749 0.983 . S
H778 C722 0.947 . S
C779 C722 1.392 . S
C779 C723 1.419 . S
C779 H761 0.948 . S
C780 C781 1.391 . S
C780 C784 1.391 1_554 S
C780 H822 0.948 . S
C781 C780 1.391 . S
C781 C782 1.391 1_554 S
C782 C781 1.391 1_556 S
C782 H838 0.947 . S
C782 C839 1.392 . S
C783 C784 1.391 . S
C783 C787 1.397 . S
C783 C839 1.419 . S
C784 C780 1.391 1_556 S
C784 C783 1.391 . S
C784 C785 1.399 . S
C785 C784 1.399 . S
C785 C788 1.396 . S
C785 C797 1.453 1_556 S
C785 C798 1.681 1_556 S
H786 C810 0.948 . S
C787 C783 1.397 . S
C787 C788 1.394 . S
C787 C806 1.723 . S
C788 C785 1.396 . S
C788 C787 1.394 . S
C788 C818 1.723 . S
H789 C812 0.919 1_554 S
H790 C813 0.948 . S
H791 C819 0.982 . S
H792 C820 0.979 . S
H793 C820 0.980 . S
H794 C820 0.983 . S
H795 C819 0.979 . S
H796 C819 0.977 . S
C797 C785 1.453 1_554 S
C797 H826 0.982 . S
C797 H827 0.979 . S
C797 H828 0.977 . S
C798 C785 1.681 1_554 S
C798 H823 0.966 1_554 S
C798 H824 0.980 . S
C798 H825 0.999 . S
C799 C800 1.391 . S
C799 C804 1.391 . S
C799 H829 0.948 . S
C800 C799 1.391 . S
C800 C801 1.391 . S
C801 C800 1.391 . S
C801 C802 1.392 . S
C801 H830 0.947 . S
C802 C801 1.392 . S
C802 C803 1.419 . S
C802 H831 0.948 . S
C803 C802 1.419 . S
C803 C804 1.391 . S
C803 C807 1.397 . S
C804 C799 1.391 . S
C804 C803 1.391 . S
C804 C805 1.399 . S
C805 C804 1.399 . S
C805 C806 1.396 . S
C805 C808 1.453 . S
C805 C809 1.684 . S
C806 C787 1.723 . S
C806 C805 1.396 . S
C806 C807 1.394 . S
C807 C803 1.397 . S
C807 C806 1.394 . S
C807 C817 1.723 . S
C808 C805 1.453 . S
C808 H832 0.982 . S
C808 H833 0.979 . S
C808 H834 0.977 . S
C809 C805 1.684 . S
C809 H835 0.979 . S
C809 H836 0.980 . S
C809 H837 0.983 . S
C810 H786 0.948 . S
C810 C811 1.391 . S
C810 C815 1.391 . S
C811 C810 1.391 . S
C811 C812 1.391 . S
C812 H789 0.919 1_556 S
C812 C811 1.391 . S
C812 C813 1.392 . S
C813 H790 0.948 . S
C813 C812 1.392 . S
C813 C814 1.419 . S
C814 C813 1.419 . S
C814 C815 1.391 . S
C814 C818 1.397 . S
C815 C810 1.391 . S
C815 C814 1.391 . S
C815 C816 1.399 . S
C816 C815 1.399 . S
C816 C817 1.396 . S
C816 C819 1.453 . S
C816 C820 1.684 . S
C817 C807 1.723 . S
C817 C816 1.396 . S
C817 C818 1.394 . S
C818 C788 1.723 . S
C818 C814 1.397 . S
C818 C817 1.394 . S
C819 H791 0.982 . S
C819 H795 0.979 . S
C819 H796 0.977 . S
C819 C816 1.453 . S
C820 H792 0.979 . S
C820 H793 0.980 . S
C820 H794 0.983 . S
C820 C816 1.684 . S
H821 C839 0.948 . S
H822 C780 0.948 . S
H823 C798 0.966 1_556 S
H824 C798 0.980 . S
H825 C798 0.999 . S
H826 C797 0.982 . S
H827 C797 0.979 . S
H828 C797 0.977 . S
H829 C799 0.948 . S
H830 C801 0.947 . S
H831 C802 0.948 . S
H832 C808 0.982 . S
H833 C808 0.979 . S
H834 C808 0.977 . S
H835 C809 0.979 . S
H836 C809 0.980 . S
H837 C809 0.983 . S
H838 C782 0.947 . S
C839 C782 1.392 . S
C839 C783 1.419 . S
C839 H821 0.948 . S
C840 C841 1.391 . S
C840 C844 1.391 . S
C840 H882 0.948 . S
C841 C840 1.391 . S
C841 C842 1.391 . S
C842 C841 1.391 . S
C842 H898 0.947 . S
C842 C899 1.392 . S
C843 C844 1.391 . S
C843 C847 1.397 . S
C843 C899 1.419 . S
C844 C840 1.391 . S
C844 C843 1.391 . S
C844 C845 1.399 . S
C845 C844 1.399 . S
C845 C848 1.396 . S
C845 C857 1.453 . S
C845 C858 1.684 . S
H846 C870 0.948 . S
C847 C843 1.397 . S
C847 C848 1.394 . S
C847 C866 1.723 . S
C848 C845 1.396 . S
C848 C847 1.394 . S
C848 C878 1.723 . S
H849 C872 0.947 . S
H850 C873 0.948 . S
H851 C879 0.982 . S
H852 C880 0.979 . S
H853 C880 0.980 . S
H854 C880 0.983 . S
H855 C879 0.979 . S
H856 C879 0.977 . S
C857 C845 1.453 . S
C857 H886 0.982 . S
C857 H887 0.979 . S
C857 H888 0.977 . S
C858 C845 1.684 . S
C858 H883 0.979 . S
C858 H884 0.980 . S
C858 H885 0.983 . S
C859 C860 1.391 . S
C859 C864 1.391 . S
C859 H889 0.948 . S
C860 C859 1.391 . S
C860 C861 1.391 . S
C861 C860 1.391 . S
C861 C862 1.392 . S
C861 H890 0.947 . S
C862 C861 1.392 . S
C862 C863 1.419 . S
C862 H891 0.948 . S
C863 C862 1.419 . S
C863 C864 1.391 . S
C863 C867 1.397 . S
C864 C859 1.391 . S
C864 C863 1.391 . S
C864 C865 1.399 . S
C865 C864 1.399 . S
C865 C866 1.396 . S
C865 C868 1.453 . S
C865 C869 1.684 . S
C866 C847 1.723 . S
C866 C865 1.396 . S
C866 C867 1.394 . S
C867 C863 1.397 . S
C867 C866 1.394 . S
C867 C877 1.723 . S
C868 C865 1.453 . S
C868 H892 0.982 . S
C868 H893 0.979 . S
C868 H894 0.977 . S
C869 C865 1.684 . S
C869 H895 0.979 . S
C869 H896 0.980 . S
C869 H897 0.983 . S
C870 H846 0.948 . S
C870 C871 1.391 . S
C870 C875 1.391 . S
C871 C870 1.391 . S
C871 C872 1.391 . S
C872 H849 0.947 . S
C872 C871 1.391 . S
C872 C873 1.392 . S
C873 H850 0.948 . S
C873 C872 1.392 . S
C873 C874 1.419 . S
C874 C873 1.419 . S
C874 C875 1.391 . S
C874 C878 1.397 . S
C875 C870 1.391 . S
C875 C874 1.391 . S
C875 C876 1.399 . S
C876 C875 1.399 . S
C876 C877 1.396 . S
C876 C879 1.453 . S
C876 C880 1.684 . S
C877 C867 1.723 . S
C877 C876 1.396 . S
C877 C878 1.394 . S
C878 C848 1.723 . S
C878 C874 1.397 . S
C878 C877 1.394 . S
C879 H851 0.982 . S
C879 H855 0.979 . S
C879 H856 0.977 . S
C879 C876 1.453 . S
C880 H852 0.979 . S
C880 H853 0.980 . S
C880 H854 0.983 . S
C880 C876 1.684 . S
H881 C899 0.948 . S
H882 C840 0.948 . S
H883 C858 0.979 . S
H884 C858 0.980 . S
H885 C858 0.983 . S
H886 C857 0.982 . S
H887 C857 0.979 . S
H888 C857 0.977 . S
H889 C859 0.948 . S
H890 C861 0.947 . S
H891 C862 0.948 . S
H892 C868 0.982 . S
H893 C868 0.979 . S
H894 C868 0.977 . S
H895 C869 0.979 . S
H896 C869 0.980 . S
H897 C869 0.983 . S
H898 C842 0.947 . S
C899 C842 1.392 . S
C899 C843 1.419 . S
C899 H881 0.948 . S
C900 C901 1.404 . S
C900 C904 1.382 1_565 S
C900 H942 0.945 1_565 S
C901 C900 1.404 . S
C901 C902 1.391 . S
C902 C901 1.391 . S
C902 H958 0.947 . S
C902 C959 1.392 . S
C903 C904 1.391 . S
C903 C907 1.397 . S
C903 C959 1.419 1_545 S
C904 C900 1.382 1_545 S
C904 C903 1.391 . S
C904 C905 1.399 . S
C905 C904 1.399 . S
C905 C908 1.396 . S
C905 C917 1.453 . S
C905 C918 1.684 1_556 S
H906 C930 0.945 1_556 S
C907 C903 1.397 . S
C907 C908 1.394 . S
C907 C926 1.723 . S
C908 C905 1.396 . S
C908 C907 1.394 . S
C908 C938 1.723 . S
H909 C932 0.947 . S
H910 C933 0.948 . S
H911 C939 0.982 . S
H912 C940 0.979 . S
H913 C940 0.980 . S
H914 C940 0.983 . S
H915 C939 0.979 . S
H916 C939 0.977 . S
C917 C905 1.453 . S
C917 H946 0.982 . S
C917 H947 0.958 1_556 S
C917 H948 0.977 . S
C918 C905 1.684 1_554 S
C918 H943 0.979 . S
C918 H944 0.980 . S
C918 H945 0.983 . S
C919 C920 1.391 . S
C919 C924 1.391 . S
C919 H949 0.948 . S
C920 C919 1.391 . S
C920 C921 1.391 . S
C921 C920 1.391 . S
C921 C922 1.392 . S
C921 H950 0.947 . S
C922 C921 1.392 . S
C922 C923 1.419 . S
C922 H951 0.948 . S
C923 C922 1.419 . S
C923 C924 1.391 . S
C923 C927 1.397 . S
C924 C919 1.391 . S
C924 C923 1.391 . S
C924 C925 1.399 . S
C925 C924 1.399 . S
C925 C926 1.396 . S
C925 C928 1.453 . S
C925 C929 1.684 1_545 S
C926 C907 1.723 . S
C926 C925 1.396 . S
C926 C927 1.394 . S
C927 C923 1.397 . S
C927 C926 1.394 . S
C927 C937 1.723 . S
C928 C925 1.453 . S
C928 H952 0.982 . S
C928 H953 0.959 1_545 S
C928 H954 0.977 . S
C929 C925 1.684 1_565 S
C929 H955 0.979 . S
C929 H956 0.980 . S
C929 H957 0.983 . S
C930 H906 0.945 1_554 S
C930 C931 1.404 . S
C930 C935 1.382 1_554 S
C931 C930 1.404 . S
C931 C932 1.391 . S
C932 H909 0.947 . S
C932 C931 1.391 . S
C932 C933 1.392 . S
C933 H910 0.948 . S
C933 C932 1.392 . S
C933 C934 1.419 1_554 S
C934 C933 1.419 1_556 S
C934 C935 1.391 . S
C934 C938 1.397 . S
C935 C930 1.382 1_556 S
C935 C934 1.391 . S
C935 C936 1.399 . S
C936 C935 1.399 . S
C936 C937 1.396 . S
C936 C939 1.453 . S
C936 C940 1.684 . S
C937 C927 1.723 . S
C937 C936 1.396 . S
C937 C938 1.394 . S
C938 C908 1.723 . S
C938 C934 1.397 . S
C938 C937 1.394 . S
C939 H911 0.982 . S
C939 H915 0.979 . S
C939 H916 0.977 . S
C939 C936 1.453 . S
C940 H912 0.979 . S
C940 H913 0.980 . S
C940 H914 0.983 . S
C940 C936 1.684 . S
H941 C959 0.948 . S
H942 C900 0.945 1_545 S
H943 C918 0.979 . S
H944 C918 0.980 . S
H945 C918 0.983 . S
H946 C917 0.982 . S
H947 C917 0.958 1_554 S
H948 C917 0.977 . S
H949 C919 0.948 . S
H950 C921 0.947 . S
H951 C922 0.948 . S
H952 C928 0.982 . S
H953 C928 0.959 1_565 S
H954 C928 0.977 . S
H955 C929 0.979 . S
H956 C929 0.980 . S
H957 C929 0.983 . S
H958 C902 0.947 . S
C959 C902 1.392 . S
C959 C903 1.419 1_565 S
C959 H941 0.948 . S
Li960 N977 1.990 . S
Li960 O1020 1.956 . S
Li960 O1021 1.970 1_556 S
Li960 O1022 1.961 . S
Li961 N985 1.990 . S
Li961 O1020 1.970 1_554 S
Li961 O1021 1.956 . S
Li961 O1023 1.961 . S
Li962 N1007 1.990 . S
Li962 O1020 1.961 . S
Li962 O1022 1.956 . S
Li962 O1023 1.970 1_556 S
Li963 N1013 1.990 . S
Li963 O1021 1.961 . S
Li963 O1022 1.970 1_554 S
Li963 O1023 1.956 . S
C964 C966 1.348 1_556 S
C964 C967 1.356 . S
C964 O1020 1.325 . S
N965 C968 1.314 1_556 S
N965 C969 1.279 . S
C966 C964 1.348 1_554 S
C966 C968 1.353 . S
C966 H1024 0.929 . S
C967 C964 1.356 . S
C967 C969 1.358 . S
C967 H1025 0.930 . S
C968 N965 1.314 1_554 S
C968 C966 1.353 . S
C968 H1026 0.930 . S
C969 N965 1.279 . S
C969 C967 1.358 . S
C969 H1027 0.930 . S
C970 C973 1.348 . S
C970 C974 1.356 . S
C970 O1021 1.325 . S
C971 N972 1.279 . S
C971 C974 1.358 . S
C971 H1028 0.930 . S
N972 C971 1.279 . S
N972 C975 1.314 . S
C973 C970 1.348 . S
C973 C975 1.353 . S
C973 H1029 0.929 . S
C974 C970 1.356 . S
C974 C971 1.358 . S
C974 H1030 0.930 . S
C975 N972 1.314 . S
C975 C973 1.353 . S
C975 H1031 0.930 . S
C976 N977 1.314 . S
C976 C981 1.353 . S
C976 H982 0.930 . S
N977 Li960 1.990 . S
N977 C976 1.314 . S
N977 C979 1.279 . S
C978 C979 1.358 . S
C978 C980 1.356 . S
C978 H1032 0.930 . S
C979 N977 1.279 . S
C979 C978 1.358 . S
C979 H983 0.930 . S
C980 C978 1.356 . S
C980 C981 1.348 . S
C981 C976 1.353 . S
C981 C980 1.348 . S
C981 H1033 0.929 . S
H982 C976 0.930 . S
H983 C979 0.930 . S
C984 N985 1.314 . S
C984 C986 1.353 . S
C984 H990 0.930 . S
N985 Li961 1.990 . S
N985 C984 1.314 . S
N985 C988 1.279 . S
C986 C984 1.353 . S
C986 C989 1.348 . S
C986 H1034 0.929 . S
C987 C988 1.358 . S
C987 C989 1.356 . S
C987 H1035 0.930 . S
C988 N985 1.279 . S
C988 C987 1.358 . S
C988 H991 0.930 . S
C989 C986 1.348 . S
C989 C987 1.356 . S
H990 C984 0.930 . S
H991 C988 0.930 . S
C992 C994 1.348 . S
C992 C995 1.356 . S
C992 O1022 1.325 . S
N993 C996 1.314 . S
N993 C997 1.279 . S
C994 C992 1.348 . S
C994 C996 1.353 . S
C994 H1036 0.929 . S
C995 C992 1.356 . S
C995 C997 1.358 . S
C995 H1037 0.930 . S
C996 N993 1.314 . S
C996 C994 1.353 . S
C996 H1038 0.930 . S
C997 N993 1.279 . S
C997 C995 1.358 . S
C997 H1039 0.930 . S
C998 C999 1.348 1_554 S
C998 C1000 1.356 . S
C998 O1023 1.325 . S
C999 C998 1.348 1_556 S
C999 C1001 1.353 . S
C999 H1040 0.929 . S
C1000 C998 1.356 . S
C1000 C1002 1.358 . S
C1000 H1041 0.930 . S
C1001 C999 1.353 . S
C1001 N1003 1.314 1_556 S
C1001 H1042 0.930 . S
C1002 C1000 1.358 . S
C1002 N1003 1.279 . S
C1002 H1043 0.930 . S
N1003 C1001 1.314 1_554 S
N1003 C1002 1.279 . S
C1004 C1006 1.353 . S
C1004 N1007 1.314 . S
C1004 H1010 0.930 . S
C1005 N1007 1.279 . S
C1005 C1008 1.358 . S
C1005 H1011 0.930 . S
C1006 C1004 1.353 . S
C1006 C1009 1.348 . S
C1006 H1044 0.929 . S
N1007 Li962 1.990 . S
N1007 C1004 1.314 . S
N1007 C1005 1.279 . S
C1008 C1005 1.358 . S
C1008 C1009 1.356 . S
C1008 H1045 0.930 . S
C1009 C1006 1.348 . S
C1009 C1008 1.356 . S
H1010 C1004 0.930 . S
H1011 C1005 0.930 . S
C1012 N1013 1.314 . S
C1012 C1014 1.353 . S
C1012 H1018 0.930 . S
N1013 Li963 1.990 . S
N1013 C1012 1.314 . S
N1013 C1016 1.279 . S
C1014 C1012 1.353 . S
C1014 C1017 1.348 . S
C1014 H1046 0.929 . S
C1015 C1016 1.358 . S
C1015 C1017 1.356 . S
C1015 H1047 0.930 . S
C1016 N1013 1.279 . S
C1016 C1015 1.358 . S
C1016 H1019 0.930 . S
C1017 C1014 1.348 . S
C1017 C1015 1.356 . S
H1018 C1012 0.930 . S
H1019 C1016 0.930 . S
O1020 Li960 1.956 . S
O1020 Li961 1.970 1_556 S
O1020 Li962 1.961 . S
O1020 C964 1.325 . S
O1021 Li960 1.970 1_554 S
O1021 Li961 1.956 . S
O1021 Li963 1.961 . S
O1021 C970 1.325 . S
O1022 Li960 1.961 . S
O1022 Li962 1.956 . S
O1022 Li963 1.970 1_556 S
O1022 C992 1.325 . S
O1023 Li961 1.961 . S
O1023 Li962 1.970 1_554 S
O1023 Li963 1.956 . S
O1023 C998 1.325 . S
H1024 C966 0.929 . S
H1025 C967 0.930 . S
H1026 C968 0.930 . S
H1027 C969 0.930 . S
H1028 C971 0.930 . S
H1029 C973 0.929 . S
H1030 C974 0.930 . S
H1031 C975 0.930 . S
H1032 C978 0.930 . S
H1033 C981 0.929 . S
H1034 C986 0.929 . S
H1035 C987 0.930 . S
H1036 C994 0.929 . S
H1037 C995 0.930 . S
H1038 C996 0.930 . S
H1039 C997 0.930 . S
H1040 C999 0.929 . S
H1041 C1000 0.930 . S
H1042 C1001 0.930 . S
H1043 C1002 0.930 . S
H1044 C1006 0.929 . S
H1045 C1008 0.930 . S
H1046 C1014 0.929 . S
H1047 C1015 0.930 . S
Li1048 N1065 1.990 . S
Li1048 O1108 1.956 . S
Li1048 O1109 1.970 . S
Li1048 O1110 1.961 . S
Li1049 N1073 1.990 . S
Li1049 O1108 1.970 . S
Li1049 O1109 1.956 . S
Li1049 O1111 1.961 . S
Li1050 N1095 1.990 . S
Li1050 O1108 1.961 . S
Li1050 O1110 1.956 . S
Li1050 O1111 1.970 . S
Li1051 N1101 1.990 . S
Li1051 O1109 1.961 . S
Li1051 O1110 1.970 . S
Li1051 O1111 1.956 . S
C1052 C1054 1.348 . S
C1052 C1055 1.356 . S
C1052 O1108 1.325 . S
N1053 C1056 1.314 . S
N1053 C1057 1.279 . S
C1054 C1052 1.348 . S
C1054 C1056 1.353 . S
C1054 H1112 0.929 . S
C1055 C1052 1.356 . S
C1055 C1057 1.358 . S
C1055 H1113 0.930 . S
C1056 N1053 1.314 . S
C1056 C1054 1.353 . S
C1056 H1114 0.930 . S
C1057 N1053 1.279 . S
C1057 C1055 1.358 . S
C1057 H1115 0.930 . S
C1058 C1061 1.348 . S
C1058 C1062 1.356 . S
C1058 O1109 1.325 . S
C1059 N1060 1.279 . S
C1059 C1062 1.358 . S
C1059 H1116 0.930 . S
N1060 C1059 1.279 . S
N1060 C1063 1.314 . S
C1061 C1058 1.348 . S
C1061 C1063 1.353 . S
C1061 H1117 0.929 . S
C1062 C1058 1.356 . S
C1062 C1059 1.358 . S
C1062 H1118 0.930 . S
C1063 N1060 1.314 . S
C1063 C1061 1.353 . S
C1063 H1119 0.930 . S
C1064 N1065 1.314 . S
C1064 C1069 1.353 . S
C1064 H1070 0.930 . S
N1065 Li1048 1.990 . S
N1065 C1064 1.314 . S
N1065 C1067 1.279 . S
C1066 C1067 1.358 . S
C1066 C1068 1.356 . S
C1066 H1120 0.930 . S
C1067 N1065 1.279 . S
C1067 C1066 1.358 . S
C1067 H1071 0.930 . S
C1068 C1066 1.356 . S
C1068 C1069 1.348 . S
C1069 C1064 1.353 . S
C1069 C1068 1.348 . S
C1069 H1121 0.929 . S
H1070 C1064 0.930 . S
H1071 C1067 0.930 . S
C1072 N1073 1.314 . S
C1072 C1074 1.353 . S
C1072 H1078 0.930 . S
N1073 Li1049 1.990 . S
N1073 C1072 1.314 . S
N1073 C1076 1.279 . S
C1074 C1072 1.353 . S
C1074 C1077 1.348 . S
C1074 H1122 0.929 . S
C1075 C1076 1.358 . S
C1075 C1077 1.356 . S
C1075 H1123 0.930 . S
C1076 N1073 1.279 . S
C1076 C1075 1.358 . S
C1076 H1079 0.930 . S
C1077 C1074 1.348 . S
C1077 C1075 1.356 . S
H1078 C1072 0.930 . S
H1079 C1076 0.930 . S
C1080 C1082 1.348 . S
C1080 C1083 1.356 . S
C1080 O1110 1.325 . S
N1081 C1084 1.314 . S
N1081 C1085 1.279 . S
C1082 C1080 1.348 . S
C1082 C1084 1.353 . S
C1082 H1124 0.929 . S
C1083 C1080 1.356 . S
C1083 C1085 1.358 . S
C1083 H1125 0.930 . S
C1084 N1081 1.314 . S
C1084 C1082 1.353 . S
C1084 H1126 0.930 . S
C1085 N1081 1.279 . S
C1085 C1083 1.358 . S
C1085 H1127 0.930 . S
C1086 C1087 1.348 . S
C1086 C1088 1.356 . S
C1086 O1111 1.325 . S
C1087 C1086 1.348 . S
C1087 C1089 1.353 . S
C1087 H1128 0.929 . S
C1088 C1086 1.356 . S
C1088 C1090 1.358 . S
C1088 H1129 0.930 . S
C1089 C1087 1.353 . S
C1089 N1091 1.314 . S
C1089 H1130 0.930 . S
C1090 C1088 1.358 . S
C1090 N1091 1.279 . S
C1090 H1131 0.930 . S
N1091 C1089 1.314 . S
N1091 C1090 1.279 . S
C1092 C1094 1.353 . S
C1092 N1095 1.314 . S
C1092 H1098 0.930 . S
C1093 N1095 1.279 . S
C1093 C1096 1.358 . S
C1093 H1099 0.930 . S
C1094 C1092 1.353 . S
C1094 C1097 1.348 . S
C1094 H1132 0.929 . S
N1095 Li1050 1.990 . S
N1095 C1092 1.314 . S
N1095 C1093 1.279 . S
C1096 C1093 1.358 . S
C1096 C1097 1.356 . S
C1096 H1133 0.930 . S
C1097 C1094 1.348 . S
C1097 C1096 1.356 . S
H1098 C1092 0.930 . S
H1099 C1093 0.930 . S
C1100 N1101 1.314 . S
C1100 C1102 1.353 . S
C1100 H1106 0.930 . S
N1101 Li1051 1.990 . S
N1101 C1100 1.314 . S
N1101 C1104 1.279 . S
C1102 C1100 1.353 . S
C1102 C1105 1.348 . S
C1102 H1134 0.929 . S
C1103 C1104 1.358 . S
C1103 C1105 1.356 . S
C1103 H1135 0.930 . S
C1104 N1101 1.279 . S
C1104 C1103 1.358 . S
C1104 H1107 0.930 . S
C1105 C1102 1.348 . S
C1105 C1103 1.356 . S
H1106 C1100 0.930 . S
H1107 C1104 0.930 . S
O1108 Li1048 1.956 . S
O1108 Li1049 1.970 . S
O1108 Li1050 1.961 . S
O1108 C1052 1.325 . S
O1109 Li1048 1.970 . S
O1109 Li1049 1.956 . S
O1109 Li1051 1.961 . S
O1109 C1058 1.325 . S
O1110 Li1048 1.961 . S
O1110 Li1050 1.956 . S
O1110 Li1051 1.970 . S
O1110 C1080 1.325 . S
O1111 Li1049 1.961 . S
O1111 Li1050 1.970 . S
O1111 Li1051 1.956 . S
O1111 C1086 1.325 . S
H1112 C1054 0.929 . S
H1113 C1055 0.930 . S
H1114 C1056 0.930 . S
H1115 C1057 0.930 . S
H1116 C1059 0.930 . S
H1117 C1061 0.929 . S
H1118 C1062 0.930 . S
H1119 C1063 0.930 . S
H1120 C1066 0.930 . S
H1121 C1069 0.929 . S
H1122 C1074 0.929 . S
H1123 C1075 0.930 . S
H1124 C1082 0.929 . S
H1125 C1083 0.930 . S
H1126 C1084 0.930 . S
H1127 C1085 0.930 . S
H1128 C1087 0.929 . S
H1129 C1088 0.930 . S
H1130 C1089 0.930 . S
H1131 C1090 0.930 . S
H1132 C1094 0.929 . S
H1133 C1096 0.930 . S
H1134 C1102 0.929 . S
H1135 C1103 0.930 . S
Li1136 N1153 1.990 . S
Li1136 O1196 1.956 . S
Li1136 O1197 1.970 1_556 S
Li1136 O1198 1.961 . S
Li1137 N1161 1.990 . S
Li1137 O1196 1.970 1_554 S
Li1137 O1197 1.956 . S
Li1137 O1199 1.961 . S
Li1138 N1183 1.990 . S
Li1138 O1196 1.961 . S
Li1138 O1198 1.956 . S
Li1138 O1199 1.970 1_556 S
Li1139 N1189 1.990 . S
Li1139 O1197 1.961 . S
Li1139 O1198 1.970 1_554 S
Li1139 O1199 1.956 . S
C1140 C1142 1.348 1_556 S
C1140 C1143 1.356 . S
C1140 O1196 1.325 . S
N1141 C1144 1.314 1_556 S
N1141 C1145 1.279 . S
C1142 C1140 1.348 1_554 S
C1142 C1144 1.353 . S
C1142 H1200 0.929 . S
C1143 C1140 1.356 . S
C1143 C1145 1.358 . S
C1143 H1201 0.930 . S
C1144 N1141 1.314 1_554 S
C1144 C1142 1.353 . S
C1144 H1202 0.930 . S
C1145 N1141 1.279 . S
C1145 C1143 1.358 . S
C1145 H1203 0.930 . S
C1146 C1149 1.348 . S
C1146 C1150 1.356 . S
C1146 O1197 1.325 . S
C1147 N1148 1.279 . S
C1147 C1150 1.358 . S
C1147 H1204 0.930 . S
N1148 C1147 1.279 . S
N1148 C1151 1.314 . S
C1149 C1146 1.348 . S
C1149 C1151 1.353 . S
C1149 H1205 0.929 . S
C1150 C1146 1.356 . S
C1150 C1147 1.358 . S
C1150 H1206 0.930 . S
C1151 N1148 1.314 . S
C1151 C1149 1.353 . S
C1151 H1207 0.930 . S
C1152 N1153 1.314 . S
C1152 C1157 1.353 . S
C1152 H1158 0.930 . S
N1153 Li1136 1.990 . S
N1153 C1152 1.314 . S
N1153 C1155 1.279 . S
C1154 C1155 1.358 . S
C1154 C1156 1.356 . S
C1154 H1208 0.930 . S
C1155 N1153 1.279 . S
C1155 C1154 1.358 . S
C1155 H1159 0.930 . S
C1156 C1154 1.356 . S
C1156 C1157 1.348 . S
C1157 C1152 1.353 . S
C1157 C1156 1.348 . S
C1157 H1209 0.929 . S
H1158 C1152 0.930 . S
H1159 C1155 0.930 . S
C1160 N1161 1.314 . S
C1160 C1162 1.353 . S
C1160 H1166 0.930 . S
N1161 Li1137 1.990 . S
N1161 C1160 1.314 . S
N1161 C1164 1.279 . S
C1162 C1160 1.353 . S
C1162 C1165 1.348 . S
C1162 H1210 0.929 . S
C1163 C1164 1.358 . S
C1163 C1165 1.356 . S
C1163 H1211 0.930 . S
C1164 N1161 1.279 . S
C1164 C1163 1.358 . S
C1164 H1167 0.930 . S
C1165 C1162 1.348 . S
C1165 C1163 1.356 . S
H1166 C1160 0.930 . S
H1167 C1164 0.930 . S
C1168 C1170 1.348 . S
C1168 C1171 1.356 . S
C1168 O1198 1.325 . S
N1169 C1172 1.314 . S
N1169 C1173 1.279 . S
C1170 C1168 1.348 . S
C1170 C1172 1.353 . S
C1170 H1212 0.929 . S
C1171 C1168 1.356 . S
C1171 C1173 1.358 . S
C1171 H1213 0.930 . S
C1172 N1169 1.314 . S
C1172 C1170 1.353 . S
C1172 H1214 0.930 . S
C1173 N1169 1.279 . S
C1173 C1171 1.358 . S
C1173 H1215 0.930 . S
C1174 C1175 1.348 1_554 S
C1174 C1176 1.356 . S
C1174 O1199 1.325 . S
C1175 C1174 1.348 1_556 S
C1175 C1177 1.353 . S
C1175 H1216 0.929 . S
C1176 C1174 1.356 . S
C1176 C1178 1.358 . S
C1176 H1217 0.930 . S
C1177 C1175 1.353 . S
C1177 N1179 1.314 1_556 S
C1177 H1218 0.930 . S
C1178 C1176 1.358 . S
C1178 N1179 1.279 . S
C1178 H1219 0.930 . S
N1179 C1177 1.314 1_554 S
N1179 C1178 1.279 . S
C1180 C1182 1.353 . S
C1180 N1183 1.314 . S
C1180 H1186 0.930 . S
C1181 N1183 1.279 . S
C1181 C1184 1.358 . S
C1181 H1187 0.930 . S
C1182 C1180 1.353 . S
C1182 C1185 1.348 . S
C1182 H1220 0.929 . S
N1183 Li1138 1.990 . S
N1183 C1180 1.314 . S
N1183 C1181 1.279 . S
C1184 C1181 1.358 . S
C1184 C1185 1.356 . S
C1184 H1221 0.930 . S
C1185 C1182 1.348 . S
C1185 C1184 1.356 . S
H1186 C1180 0.930 . S
H1187 C1181 0.930 . S
C1188 N1189 1.314 . S
C1188 C1190 1.353 . S
C1188 H1194 0.930 . S
N1189 Li1139 1.990 . S
N1189 C1188 1.314 . S
N1189 C1192 1.279 . S
C1190 C1188 1.353 . S
C1190 C1193 1.348 . S
C1190 H1222 0.929 . S
C1191 C1192 1.358 . S
C1191 C1193 1.356 . S
C1191 H1223 0.930 . S
C1192 N1189 1.279 . S
C1192 C1191 1.358 . S
C1192 H1195 0.930 . S
C1193 C1190 1.348 . S
C1193 C1191 1.356 . S
H1194 C1188 0.930 . S
H1195 C1192 0.930 . S
O1196 Li1136 1.956 . S
O1196 Li1137 1.970 1_556 S
O1196 Li1138 1.961 . S
O1196 C1140 1.325 . S
O1197 Li1136 1.970 1_554 S
O1197 Li1137 1.956 . S
O1197 Li1139 1.961 . S
O1197 C1146 1.325 . S
O1198 Li1136 1.961 . S
O1198 Li1138 1.956 . S
O1198 Li1139 1.970 1_556 S
O1198 C1168 1.325 . S
O1199 Li1137 1.961 . S
O1199 Li1138 1.970 1_554 S
O1199 Li1139 1.956 . S
O1199 C1174 1.325 . S
H1200 C1142 0.929 . S
H1201 C1143 0.930 . S
H1202 C1144 0.930 . S
H1203 C1145 0.930 . S
H1204 C1147 0.930 . S
H1205 C1149 0.929 . S
H1206 C1150 0.930 . S
H1207 C1151 0.930 . S
H1208 C1154 0.930 . S
H1209 C1157 0.929 . S
H1210 C1162 0.929 . S
H1211 C1163 0.930 . S
H1212 C1170 0.929 . S
H1213 C1171 0.930 . S
H1214 C1172 0.930 . S
H1215 C1173 0.930 . S
H1216 C1175 0.929 . S
H1217 C1176 0.930 . S
H1218 C1177 0.930 . S
H1219 C1178 0.930 . S
H1220 C1182 0.929 . S
H1221 C1184 0.930 . S
H1222 C1190 0.929 . S
H1223 C1191 0.930 . S
Li1224 N1241 1.990 . S
Li1224 O1284 1.956 . S
Li1224 O1285 1.970 1_545 S
Li1224 O1286 1.961 . S
Li1225 N1249 1.990 . S
Li1225 O1284 1.970 1_565 S
Li1225 O1285 1.956 . S
Li1225 O1287 1.961 . S
Li1226 N1271 1.990 . S
Li1226 O1284 1.961 . S
Li1226 O1286 1.956 . S
Li1226 O1287 1.970 1_545 S
Li1227 N1277 1.990 . S
Li1227 O1285 1.961 . S
Li1227 O1286 1.970 1_565 S
Li1227 O1287 1.956 . S
C1228 C1230 1.348 . S
C1228 C1231 1.356 . S
C1228 O1284 1.325 . S
N1229 C1232 1.314 . S
N1229 C1233 1.279 . S
C1230 C1228 1.348 . S
C1230 C1232 1.353 . S
C1230 H1288 0.929 . S
C1231 C1228 1.356 . S
C1231 C1233 1.358 . S
C1231 H1289 0.930 . S
C1232 N1229 1.314 . S
C1232 C1230 1.353 . S
C1232 H1290 0.930 . S
C1233 N1229 1.279 . S
C1233 C1231 1.358 . S
C1233 H1291 0.930 . S
C1234 C1237 1.348 1_565 S
C1234 C1238 1.356 . S
C1234 O1285 1.325 . S
C1235 N1236 1.279 . S
C1235 C1238 1.358 . S
C1235 H1292 0.930 . S
N1236 C1235 1.279 . S
N1236 C1239 1.314 1_565 S
C1237 C1234 1.348 1_545 S
C1237 C1239 1.353 . S
C1237 H1293 0.929 . S
C1238 C1234 1.356 . S
C1238 C1235 1.358 . S
C1238 H1294 0.930 . S
C1239 N1236 1.314 1_545 S
C1239 C1237 1.353 . S
C1239 H1295 0.930 . S
C1240 N1241 1.314 . S
C1240 C1245 1.353 . S
C1240 H1246 0.930 . S
N1241 Li1224 1.990 . S
N1241 C1240 1.314 . S
N1241 C1243 1.279 . S
C1242 C1243 1.358 . S
C1242 C1244 1.356 . S
C1242 H1296 0.930 . S
C1243 N1241 1.279 . S
C1243 C1242 1.358 . S
C1243 H1247 0.930 . S
C1244 C1242 1.356 . S
C1244 C1245 1.348 . S
C1245 C1240 1.353 . S
C1245 C1244 1.348 . S
C1245 H1297 0.929 . S
H1246 C1240 0.930 . S
H1247 C1243 0.930 . S
C1248 N1249 1.314 . S
C1248 C1250 1.353 . S
C1248 H1254 0.930 . S
N1249 Li1225 1.990 . S
N1249 C1248 1.314 . S
N1249 C1252 1.279 . S
C1250 C1248 1.353 . S
C1250 C1253 1.348 . S
C1250 H1298 0.929 . S
C1251 C1252 1.358 . S
C1251 C1253 1.356 . S
C1251 H1299 0.930 . S
C1252 N1249 1.279 . S
C1252 C1251 1.358 . S
C1252 H1255 0.930 . S
C1253 C1250 1.348 . S
C1253 C1251 1.356 . S
H1254 C1248 0.930 . S
H1255 C1252 0.930 . S
C1256 C1258 1.348 1_545 S
C1256 C1259 1.356 . S
C1256 O1286 1.325 . S
N1257 C1260 1.314 1_545 S
N1257 C1261 1.279 . S
C1258 C1256 1.348 1_565 S
C1258 C1260 1.353 . S
C1258 H1300 0.929 . S
C1259 C1256 1.356 . S
C1259 C1261 1.358 . S
C1259 H1301 0.930 . S
C1260 N1257 1.314 1_565 S
C1260 C1258 1.353 . S
C1260 H1302 0.930 . S
C1261 N1257 1.279 . S
C1261 C1259 1.358 . S
C1261 H1303 0.930 . S
C1262 C1263 1.348 . S
C1262 C1264 1.356 . S
C1262 O1287 1.325 . S
C1263 C1262 1.348 . S
C1263 C1265 1.353 . S
C1263 H1304 0.929 . S
C1264 C1262 1.356 . S
C1264 C1266 1.358 . S
C1264 H1305 0.930 . S
C1265 C1263 1.353 . S
C1265 N1267 1.314 . S
C1265 H1306 0.930 . S
C1266 C1264 1.358 . S
C1266 N1267 1.279 . S
C1266 H1307 0.930 . S
N1267 C1265 1.314 . S
N1267 C1266 1.279 . S
C1268 C1270 1.353 . S
C1268 N1271 1.314 . S
C1268 H1274 0.930 . S
C1269 N1271 1.279 . S
C1269 C1272 1.358 . S
C1269 H1275 0.930 . S
C1270 C1268 1.353 . S
C1270 C1273 1.348 . S
C1270 H1308 0.929 . S
N1271 Li1226 1.990 . S
N1271 C1268 1.314 . S
N1271 C1269 1.279 . S
C1272 C1269 1.358 . S
C1272 C1273 1.356 . S
C1272 H1309 0.930 . S
C1273 C1270 1.348 . S
C1273 C1272 1.356 . S
H1274 C1268 0.930 . S
H1275 C1269 0.930 . S
C1276 N1277 1.314 . S
C1276 C1278 1.353 . S
C1276 H1282 0.930 . S
N1277 Li1227 1.990 . S
N1277 C1276 1.314 . S
N1277 C1280 1.279 . S
C1278 C1276 1.353 . S
C1278 C1281 1.348 . S
C1278 H1310 0.929 . S
C1279 C1280 1.358 . S
C1279 C1281 1.356 . S
C1279 H1311 0.930 . S
C1280 N1277 1.279 . S
C1280 C1279 1.358 . S
C1280 H1283 0.930 . S
C1281 C1278 1.348 . S
C1281 C1279 1.356 . S
H1282 C1276 0.930 . S
H1283 C1280 0.930 . S
O1284 Li1224 1.956 . S
O1284 Li1225 1.970 1_545 S
O1284 Li1226 1.961 . S
O1284 C1228 1.325 . S
O1285 Li1224 1.970 1_565 S
O1285 Li1225 1.956 . S
O1285 Li1227 1.961 . S
O1285 C1234 1.325 . S
O1286 Li1224 1.961 . S
O1286 Li1226 1.956 . S
O1286 Li1227 1.970 1_545 S
O1286 C1256 1.325 . S
O1287 Li1225 1.961 . S
O1287 Li1226 1.970 1_565 S
O1287 Li1227 1.956 . S
O1287 C1262 1.325 . S
H1288 C1230 0.929 . S
H1289 C1231 0.930 . S
H1290 C1232 0.930 . S
H1291 C1233 0.930 . S
H1292 C1235 0.930 . S
H1293 C1237 0.929 . S
H1294 C1238 0.930 . S
H1295 C1239 0.930 . S
H1296 C1242 0.930 . S
H1297 C1245 0.929 . S
H1298 C1250 0.929 . S
H1299 C1251 0.930 . S
H1300 C1258 0.929 . S
H1301 C1259 0.930 . S
H1302 C1260 0.930 . S
H1303 C1261 0.930 . S
H1304 C1263 0.929 . S
H1305 C1264 0.930 . S
H1306 C1265 0.930 . S
H1307 C1266 0.930 . S
H1308 C1270 0.929 . S
H1309 C1272 0.930 . S
H1310 C1278 0.929 . S
H1311 C1279 0.930 . S
Li1312 N1329 1.990 . S
Li1312 O1372 1.956 . S
Li1312 O1373 1.970 . S
Li1312 O1374 1.961 . S
Li1313 N1337 1.990 . S
Li1313 O1372 1.970 . S
Li1313 O1373 1.956 . S
Li1313 O1375 1.961 . S
Li1314 N1359 1.990 . S
Li1314 O1372 1.961 . S
Li1314 O1374 1.956 . S
Li1314 O1375 1.970 . S
Li1315 N1365 1.990 . S
Li1315 O1373 1.961 . S
Li1315 O1374 1.970 . S
Li1315 O1375 1.956 . S
C1316 C1318 1.348 . S
C1316 C1319 1.356 . S
C1316 O1372 1.325 . S
N1317 C1320 1.314 . S
N1317 C1321 1.279 . S
C1318 C1316 1.348 . S
C1318 C1320 1.353 . S
C1318 H1376 0.929 . S
C1319 C1316 1.356 . S
C1319 C1321 1.358 . S
C1319 H1377 0.930 . S
C1320 N1317 1.314 . S
C1320 C1318 1.353 . S
C1320 H1378 0.930 . S
C1321 N1317 1.279 . S
C1321 C1319 1.358 . S
C1321 H1379 0.930 . S
C1322 C1325 1.348 . S
C1322 C1326 1.356 . S
C1322 O1373 1.325 . S
C1323 N1324 1.279 . S
C1323 C1326 1.358 . S
C1323 H1380 0.930 . S
N1324 C1323 1.279 . S
N1324 C1327 1.314 . S
C1325 C1322 1.348 . S
C1325 C1327 1.353 . S
C1325 H1381 0.929 . S
C1326 C1322 1.356 . S
C1326 C1323 1.358 . S
C1326 H1382 0.930 . S
C1327 N1324 1.314 . S
C1327 C1325 1.353 . S
C1327 H1383 0.930 . S
C1328 N1329 1.314 . S
C1328 C1333 1.353 . S
C1328 H1334 0.930 . S
N1329 Li1312 1.990 . S
N1329 C1328 1.314 . S
N1329 C1331 1.279 . S
C1330 C1331 1.358 . S
C1330 C1332 1.356 . S
C1330 H1384 0.930 . S
C1331 N1329 1.279 . S
C1331 C1330 1.358 . S
C1331 H1335 0.930 . S
C1332 C1330 1.356 . S
C1332 C1333 1.348 . S
C1333 C1328 1.353 . S
C1333 C1332 1.348 . S
C1333 H1385 0.929 . S
H1334 C1328 0.930 . S
H1335 C1331 0.930 . S
C1336 N1337 1.314 . S
C1336 C1338 1.353 . S
C1336 H1342 0.930 . S
N1337 Li1313 1.990 . S
N1337 C1336 1.314 . S
N1337 C1340 1.279 . S
C1338 C1336 1.353 . S
C1338 C1341 1.348 . S
C1338 H1386 0.929 . S
C1339 C1340 1.358 . S
C1339 C1341 1.356 . S
C1339 H1387 0.930 . S
C1340 N1337 1.279 . S
C1340 C1339 1.358 . S
C1340 H1343 0.930 . S
C1341 C1338 1.348 . S
C1341 C1339 1.356 . S
H1342 C1336 0.930 . S
H1343 C1340 0.930 . S
C1344 C1346 1.348 . S
C1344 C1347 1.356 . S
C1344 O1374 1.325 . S
N1345 C1348 1.314 . S
N1345 C1349 1.279 . S
C1346 C1344 1.348 . S
C1346 C1348 1.353 . S
C1346 H1388 0.929 . S
C1347 C1344 1.356 . S
C1347 C1349 1.358 . S
C1347 H1389 0.930 . S
C1348 N1345 1.314 . S
C1348 C1346 1.353 . S
C1348 H1390 0.930 . S
C1349 N1345 1.279 . S
C1349 C1347 1.358 . S
C1349 H1391 0.930 . S
C1350 C1351 1.348 . S
C1350 C1352 1.356 . S
C1350 O1375 1.325 . S
C1351 C1350 1.348 . S
C1351 C1353 1.353 . S
C1351 H1392 0.929 . S
C1352 C1350 1.356 . S
C1352 C1354 1.358 . S
C1352 H1393 0.930 . S
C1353 C1351 1.353 . S
C1353 N1355 1.314 . S
C1353 H1394 0.930 . S
C1354 C1352 1.358 . S
C1354 N1355 1.279 . S
C1354 H1395 0.930 . S
N1355 C1353 1.314 . S
N1355 C1354 1.279 . S
C1356 C1358 1.353 . S
C1356 N1359 1.314 . S
C1356 H1362 0.930 . S
C1357 N1359 1.279 . S
C1357 C1360 1.358 . S
C1357 H1363 0.930 . S
C1358 C1356 1.353 . S
C1358 C1361 1.348 . S
C1358 H1396 0.929 . S
N1359 Li1314 1.990 . S
N1359 C1356 1.314 . S
N1359 C1357 1.279 . S
C1360 C1357 1.358 . S
C1360 C1361 1.356 . S
C1360 H1397 0.930 . S
C1361 C1358 1.348 . S
C1361 C1360 1.356 . S
H1362 C1356 0.930 . S
H1363 C1357 0.930 . S
C1364 N1365 1.314 . S
C1364 C1366 1.353 . S
C1364 H1370 0.930 . S
N1365 Li1315 1.990 . S
N1365 C1364 1.314 . S
N1365 C1368 1.279 . S
C1366 C1364 1.353 . S
C1366 C1369 1.348 . S
C1366 H1398 0.929 . S
C1367 C1368 1.358 . S
C1367 C1369 1.356 . S
C1367 H1399 0.930 . S
C1368 N1365 1.279 . S
C1368 C1367 1.358 . S
C1368 H1371 0.930 . S
C1369 C1366 1.348 . S
C1369 C1367 1.356 . S
H1370 C1364 0.930 . S
H1371 C1368 0.930 . S
O1372 Li1312 1.956 . S
O1372 Li1313 1.970 . S
O1372 Li1314 1.961 . S
O1372 C1316 1.325 . S
O1373 Li1312 1.970 . S
O1373 Li1313 1.956 . S
O1373 Li1315 1.961 . S
O1373 C1322 1.325 . S
O1374 Li1312 1.961 . S
O1374 Li1314 1.956 . S
O1374 Li1315 1.970 . S
O1374 C1344 1.325 . S
O1375 Li1313 1.961 . S
O1375 Li1314 1.970 . S
O1375 Li1315 1.956 . S
O1375 C1350 1.325 . S
H1376 C1318 0.929 . S
H1377 C1319 0.930 . S
H1378 C1320 0.930 . S
H1379 C1321 0.930 . S
H1380 C1323 0.930 . S
H1381 C1325 0.929 . S
H1382 C1326 0.930 . S
H1383 C1327 0.930 . S
H1384 C1330 0.930 . S
H1385 C1333 0.929 . S
H1386 C1338 0.929 . S
H1387 C1339 0.930 . S
H1388 C1346 0.929 . S
H1389 C1347 0.930 . S
H1390 C1348 0.930 . S
H1391 C1349 0.930 . S
H1392 C1351 0.929 . S
H1393 C1352 0.930 . S
H1394 C1353 0.930 . S
H1395 C1354 0.930 . S
H1396 C1358 0.929 . S
H1397 C1360 0.930 . S
H1398 C1366 0.929 . S
H1399 C1367 0.930 . S
Li1400 N1417 1.990 . S
Li1400 O1460 1.956 . S
Li1400 O1461 1.970 . S
Li1400 O1462 1.961 . S
Li1401 N1425 1.990 . S
Li1401 O1460 1.970 . S
Li1401 O1461 1.956 . S
Li1401 O1463 1.961 . S
Li1402 N1447 1.990 . S
Li1402 O1460 1.961 . S
Li1402 O1462 1.956 . S
Li1402 O1463 1.970 . S
Li1403 N1453 1.990 . S
Li1403 O1461 1.961 . S
Li1403 O1462 1.970 . S
Li1403 O1463 1.956 . S
C1404 C1406 1.348 . S
C1404 C1407 1.356 . S
C1404 O1460 1.325 . S
N1405 C1408 1.314 . S
N1405 C1409 1.279 . S
C1406 C1404 1.348 . S
C1406 C1408 1.353 . S
C1406 H1464 0.929 . S
C1407 C1404 1.356 . S
C1407 C1409 1.358 . S
C1407 H1465 0.930 . S
C1408 N1405 1.314 . S
C1408 C1406 1.353 . S
C1408 H1466 0.930 . S
C1409 N1405 1.279 . S
C1409 C1407 1.358 . S
C1409 H1467 0.930 . S
C1410 C1413 1.348 . S
C1410 C1414 1.356 . S
C1410 O1461 1.325 . S
C1411 N1412 1.279 . S
C1411 C1414 1.358 . S
C1411 H1468 0.930 . S
N1412 C1411 1.279 . S
N1412 C1415 1.314 . S
C1413 C1410 1.348 . S
C1413 C1415 1.353 . S
C1413 H1469 0.929 . S
C1414 C1410 1.356 . S
C1414 C1411 1.358 . S
C1414 H1470 0.930 . S
C1415 N1412 1.314 . S
C1415 C1413 1.353 . S
C1415 H1471 0.930 . S
C1416 N1417 1.314 . S
C1416 C1421 1.353 . S
C1416 H1422 0.930 . S
N1417 Li1400 1.990 . S
N1417 C1416 1.314 . S
N1417 C1419 1.279 . S
C1418 C1419 1.358 . S
C1418 C1420 1.356 . S
C1418 H1472 0.930 . S
C1419 N1417 1.279 . S
C1419 C1418 1.358 . S
C1419 H1423 0.930 . S
C1420 C1418 1.356 . S
C1420 C1421 1.348 . S
C1421 C1416 1.353 . S
C1421 C1420 1.348 . S
C1421 H1473 0.929 . S
H1422 C1416 0.930 . S
H1423 C1419 0.930 . S
C1424 N1425 1.314 . S
C1424 C1426 1.353 . S
C1424 H1430 0.930 . S
N1425 Li1401 1.990 . S
N1425 C1424 1.314 . S
N1425 C1428 1.279 . S
C1426 C1424 1.353 . S
C1426 C1429 1.348 . S
C1426 H1474 0.929 . S
C1427 C1428 1.358 . S
C1427 C1429 1.356 . S
C1427 H1475 0.930 . S
C1428 N1425 1.279 . S
C1428 C1427 1.358 . S
C1428 H1431 0.930 . S
C1429 C1426 1.348 . S
C1429 C1427 1.356 . S
H1430 C1424 0.930 . S
H1431 C1428 0.930 . S
C1432 C1434 1.348 . S
C1432 C1435 1.356 . S
C1432 O1462 1.325 . S
N1433 C1436 1.314 . S
N1433 C1437 1.279 . S
C1434 C1432 1.348 . S
C1434 C1436 1.353 . S
C1434 H1476 0.929 . S
C1435 C1432 1.356 . S
C1435 C1437 1.358 . S
C1435 H1477 0.930 . S
C1436 N1433 1.314 . S
C1436 C1434 1.353 . S
C1436 H1478 0.930 . S
C1437 N1433 1.279 . S
C1437 C1435 1.358 . S
C1437 H1479 0.930 . S
C1438 C1439 1.348 . S
C1438 C1440 1.356 . S
C1438 O1463 1.325 . S
C1439 C1438 1.348 . S
C1439 C1441 1.353 . S
C1439 H1480 0.929 . S
C1440 C1438 1.356 . S
C1440 C1442 1.358 . S
C1440 H1481 0.930 . S
C1441 C1439 1.353 . S
C1441 N1443 1.314 . S
C1441 H1482 0.930 . S
C1442 C1440 1.358 . S
C1442 N1443 1.279 . S
C1442 H1483 0.930 . S
N1443 C1441 1.314 . S
N1443 C1442 1.279 . S
C1444 C1446 1.353 . S
C1444 N1447 1.314 . S
C1444 H1450 0.930 . S
C1445 N1447 1.279 . S
C1445 C1448 1.358 . S
C1445 H1451 0.930 . S
C1446 C1444 1.353 . S
C1446 C1449 1.348 . S
C1446 H1484 0.929 . S
N1447 Li1402 1.990 . S
N1447 C1444 1.314 . S
N1447 C1445 1.279 . S
C1448 C1445 1.358 . S
C1448 C1449 1.356 . S
C1448 H1485 0.930 . S
C1449 C1446 1.348 . S
C1449 C1448 1.356 . S
H1450 C1444 0.930 . S
H1451 C1445 0.930 . S
C1452 N1453 1.314 . S
C1452 C1454 1.353 . S
C1452 H1458 0.930 . S
N1453 Li1403 1.990 . S
N1453 C1452 1.314 . S
N1453 C1456 1.279 . S
C1454 C1452 1.353 . S
C1454 C1457 1.348 . S
C1454 H1486 0.929 . S
C1455 C1456 1.358 . S
C1455 C1457 1.356 . S
C1455 H1487 0.930 . S
C1456 N1453 1.279 . S
C1456 C1455 1.358 . S
C1456 H1459 0.930 . S
C1457 C1454 1.348 . S
C1457 C1455 1.356 . S
H1458 C1452 0.930 . S
H1459 C1456 0.930 . S
O1460 Li1400 1.956 . S
O1460 Li1401 1.970 . S
O1460 Li1402 1.961 . S
O1460 C1404 1.325 . S
O1461 Li1400 1.970 . S
O1461 Li1401 1.956 . S
O1461 Li1403 1.961 . S
O1461 C1410 1.325 . S
O1462 Li1400 1.961 . S
O1462 Li1402 1.956 . S
O1462 Li1403 1.970 . S
O1462 C1432 1.325 . S
O1463 Li1401 1.961 . S
O1463 Li1402 1.970 . S
O1463 Li1403 1.956 . S
O1463 C1438 1.325 . S
H1464 C1406 0.929 . S
H1465 C1407 0.930 . S
H1466 C1408 0.930 . S
H1467 C1409 0.930 . S
H1468 C1411 0.930 . S
H1469 C1413 0.929 . S
H1470 C1414 0.930 . S
H1471 C1415 0.930 . S
H1472 C1418 0.930 . S
H1473 C1421 0.929 . S
H1474 C1426 0.929 . S
H1475 C1427 0.930 . S
H1476 C1434 0.929 . S
H1477 C1435 0.930 . S
H1478 C1436 0.930 . S
H1479 C1437 0.930 . S
H1480 C1439 0.929 . S
H1481 C1440 0.930 . S
H1482 C1441 0.930 . S
H1483 C1442 0.930 . S
H1484 C1446 0.929 . S
H1485 C1448 0.930 . S
H1486 C1454 0.929 . S
H1487 C1455 0.930 . S
Li1488 N1505 1.990 . S
Li1488 O1548 1.956 . S
Li1488 O1549 1.970 . S
Li1488 O1550 1.961 . S
Li1489 N1513 1.990 . S
Li1489 O1548 1.970 . S
Li1489 O1549 1.956 . S
Li1489 O1551 1.961 . S
Li1490 N1535 1.990 . S
Li1490 O1548 1.961 . S
Li1490 O1550 1.956 . S
Li1490 O1551 1.970 . S
Li1491 N1541 1.990 . S
Li1491 O1549 1.961 . S
Li1491 O1550 1.970 . S
Li1491 O1551 1.956 . S
C1492 C1494 1.348 . S
C1492 C1495 1.356 . S
C1492 O1548 1.325 . S
N1493 C1496 1.314 . S
N1493 C1497 1.279 . S
C1494 C1492 1.348 . S
C1494 C1496 1.353 . S
C1494 H1552 0.929 . S
C1495 C1492 1.356 . S
C1495 C1497 1.358 . S
C1495 H1553 0.930 . S
C1496 N1493 1.314 . S
C1496 C1494 1.353 . S
C1496 H1554 0.930 . S
C1497 N1493 1.279 . S
C1497 C1495 1.358 . S
C1497 H1555 0.930 . S
C1498 C1501 1.348 . S
C1498 C1502 1.356 . S
C1498 O1549 1.325 . S
C1499 N1500 1.279 . S
C1499 C1502 1.358 . S
C1499 H1556 0.930 . S
N1500 C1499 1.279 . S
N1500 C1503 1.314 . S
C1501 C1498 1.348 . S
C1501 C1503 1.353 . S
C1501 H1557 0.929 . S
C1502 C1498 1.356 . S
C1502 C1499 1.358 . S
C1502 H1558 0.930 . S
C1503 N1500 1.314 . S
C1503 C1501 1.353 . S
C1503 H1559 0.930 . S
C1504 N1505 1.314 . S
C1504 C1509 1.353 . S
C1504 H1510 0.930 . S
N1505 Li1488 1.990 . S
N1505 C1504 1.314 . S
N1505 C1507 1.279 . S
C1506 C1507 1.358 . S
C1506 C1508 1.356 . S
C1506 H1560 0.930 . S
C1507 N1505 1.279 . S
C1507 C1506 1.358 . S
C1507 H1511 0.930 . S
C1508 C1506 1.356 . S
C1508 C1509 1.348 . S
C1509 C1504 1.353 . S
C1509 C1508 1.348 . S
C1509 H1561 0.929 . S
H1510 C1504 0.930 . S
H1511 C1507 0.930 . S
C1512 N1513 1.314 . S
C1512 C1514 1.353 . S
C1512 H1518 0.930 . S
N1513 Li1489 1.990 . S
N1513 C1512 1.314 . S
N1513 C1516 1.279 . S
C1514 C1512 1.353 . S
C1514 C1517 1.348 . S
C1514 H1562 0.929 . S
C1515 C1516 1.358 . S
C1515 C1517 1.356 . S
C1515 H1563 0.930 . S
C1516 N1513 1.279 . S
C1516 C1515 1.358 . S
C1516 H1519 0.930 . S
C1517 C1514 1.348 . S
C1517 C1515 1.356 . S
H1518 C1512 0.930 . S
H1519 C1516 0.930 . S
C1520 C1522 1.348 . S
C1520 C1523 1.356 . S
C1520 O1550 1.325 . S
N1521 C1524 1.314 . S
N1521 C1525 1.279 . S
C1522 C1520 1.348 . S
C1522 C1524 1.353 . S
C1522 H1564 0.929 . S
C1523 C1520 1.356 . S
C1523 C1525 1.358 . S
C1523 H1565 0.930 . S
C1524 N1521 1.314 . S
C1524 C1522 1.353 . S
C1524 H1566 0.930 . S
C1525 N1521 1.279 . S
C1525 C1523 1.358 . S
C1525 H1567 0.930 . S
C1526 C1527 1.348 . S
C1526 C1528 1.356 . S
C1526 O1551 1.325 . S
C1527 C1526 1.348 . S
C1527 C1529 1.353 . S
C1527 H1568 0.929 . S
C1528 C1526 1.356 . S
C1528 C1530 1.358 . S
C1528 H1569 0.930 . S
C1529 C1527 1.353 . S
C1529 N1531 1.314 . S
C1529 H1570 0.930 . S
C1530 C1528 1.358 . S
C1530 N1531 1.279 . S
C1530 H1571 0.930 . S
N1531 C1529 1.314 . S
N1531 C1530 1.279 . S
C1532 C1534 1.353 . S
C1532 N1535 1.314 . S
C1532 H1538 0.930 . S
C1533 N1535 1.279 . S
C1533 C1536 1.358 . S
C1533 H1539 0.930 . S
C1534 C1532 1.353 . S
C1534 C1537 1.348 . S
C1534 H1572 0.929 . S
N1535 Li1490 1.990 . S
N1535 C1532 1.314 . S
N1535 C1533 1.279 . S
C1536 C1533 1.358 . S
C1536 C1537 1.356 . S
C1536 H1573 0.930 . S
C1537 C1534 1.348 . S
C1537 C1536 1.356 . S
H1538 C1532 0.930 . S
H1539 C1533 0.930 . S
C1540 N1541 1.314 . S
C1540 C1542 1.353 . S
C1540 H1546 0.930 . S
N1541 Li1491 1.990 . S
N1541 C1540 1.314 . S
N1541 C1544 1.279 . S
C1542 C1540 1.353 . S
C1542 C1545 1.348 . S
C1542 H1574 0.929 . S
C1543 C1544 1.358 . S
C1543 C1545 1.356 . S
C1543 H1575 0.930 . S
C1544 N1541 1.279 . S
C1544 C1543 1.358 . S
C1544 H1547 0.930 . S
C1545 C1542 1.348 . S
C1545 C1543 1.356 . S
H1546 C1540 0.930 . S
H1547 C1544 0.930 . S
O1548 Li1488 1.956 . S
O1548 Li1489 1.970 . S
O1548 Li1490 1.961 . S
O1548 C1492 1.325 . S
O1549 Li1488 1.970 . S
O1549 Li1489 1.956 . S
O1549 Li1491 1.961 . S
O1549 C1498 1.325 . S
O1550 Li1488 1.961 . S
O1550 Li1490 1.956 . S
O1550 Li1491 1.970 . S
O1550 C1520 1.325 . S
O1551 Li1489 1.961 . S
O1551 Li1490 1.970 . S
O1551 Li1491 1.956 . S
O1551 C1526 1.325 . S
H1552 C1494 0.929 . S
H1553 C1495 0.930 . S
H1554 C1496 0.930 . S
H1555 C1497 0.930 . S
H1556 C1499 0.930 . S
H1557 C1501 0.929 . S
H1558 C1502 0.930 . S
H1559 C1503 0.930 . S
H1560 C1506 0.930 . S
H1561 C1509 0.929 . S
H1562 C1514 0.929 . S
H1563 C1515 0.930 . S
H1564 C1522 0.929 . S
H1565 C1523 0.930 . S
H1566 C1524 0.930 . S
H1567 C1525 0.930 . S
H1568 C1527 0.929 . S
H1569 C1528 0.930 . S
H1570 C1529 0.930 . S
H1571 C1530 0.930 . S
H1572 C1534 0.929 . S
H1573 C1536 0.930 . S
H1574 C1542 0.929 . S
H1575 C1543 0.930 . S
Li1576 N1593 1.990 . S
Li1576 O1636 1.956 . S
Li1576 O1637 1.970 1_565 S
Li1576 O1638 1.961 . S
Li1577 N1601 1.990 . S
Li1577 O1636 1.970 1_545 S
Li1577 O1637 1.956 . S
Li1577 O1639 1.961 . S
Li1578 N1623 1.990 . S
Li1578 O1636 1.961 . S
Li1578 O1638 1.956 . S
Li1578 O1639 1.970 1_565 S
Li1579 N1629 1.990 . S
Li1579 O1637 1.961 . S
Li1579 O1638 1.970 1_545 S
Li1579 O1639 1.956 . S
C1580 C1582 1.348 . S
C1580 C1583 1.356 . S
C1580 O1636 1.325 . S
N1581 C1584 1.314 . S
N1581 C1585 1.279 . S
C1582 C1580 1.348 . S
C1582 C1584 1.353 . S
C1582 H1640 0.929 . S
C1583 C1580 1.356 . S
C1583 C1585 1.358 . S
C1583 H1641 0.930 . S
C1584 N1581 1.314 . S
C1584 C1582 1.353 . S
C1584 H1642 0.930 . S
C1585 N1581 1.279 . S
C1585 C1583 1.358 . S
C1585 H1643 0.930 . S
C1586 C1589 1.348 1_545 S
C1586 C1590 1.356 . S
C1586 O1637 1.325 . S
C1587 N1588 1.279 . S
C1587 C1590 1.358 . S
C1587 H1644 0.930 . S
N1588 C1587 1.279 . S
N1588 C1591 1.314 1_545 S
C1589 C1586 1.348 1_565 S
C1589 C1591 1.353 . S
C1589 H1645 0.929 . S
C1590 C1586 1.356 . S
C1590 C1587 1.358 . S
C1590 H1646 0.930 . S
C1591 N1588 1.314 1_565 S
C1591 C1589 1.353 . S
C1591 H1647 0.930 . S
C1592 N1593 1.314 . S
C1592 C1597 1.353 . S
C1592 H1598 0.930 . S
N1593 Li1576 1.990 . S
N1593 C1592 1.314 . S
N1593 C1595 1.279 . S
C1594 C1595 1.358 . S
C1594 C1596 1.356 . S
C1594 H1648 0.930 . S
C1595 N1593 1.279 . S
C1595 C1594 1.358 . S
C1595 H1599 0.930 . S
C1596 C1594 1.356 . S
C1596 C1597 1.348 . S
C1597 C1592 1.353 . S
C1597 C1596 1.348 . S
C1597 H1649 0.929 . S
H1598 C1592 0.930 . S
H1599 C1595 0.930 . S
C1600 N1601 1.314 . S
C1600 C1602 1.353 . S
C1600 H1606 0.930 . S
N1601 Li1577 1.990 . S
N1601 C1600 1.314 . S
N1601 C1604 1.279 . S
C1602 C1600 1.353 . S
C1602 C1605 1.348 . S
C1602 H1650 0.929 . S
C1603 C1604 1.358 . S
C1603 C1605 1.356 . S
C1603 H1651 0.930 . S
C1604 N1601 1.279 . S
C1604 C1603 1.358 . S
C1604 H1607 0.930 . S
C1605 C1602 1.348 . S
C1605 C1603 1.356 . S
H1606 C1600 0.930 . S
H1607 C1604 0.930 . S
C1608 C1610 1.348 1_565 S
C1608 C1611 1.356 . S
C1608 O1638 1.325 . S
N1609 C1612 1.314 1_565 S
N1609 C1613 1.279 . S
C1610 C1608 1.348 1_545 S
C1610 C1612 1.353 . S
C1610 H1652 0.929 . S
C1611 C1608 1.356 . S
C1611 C1613 1.358 . S
C1611 H1653 0.930 . S
C1612 N1609 1.314 1_545 S
C1612 C1610 1.353 . S
C1612 H1654 0.930 . S
C1613 N1609 1.279 . S
C1613 C1611 1.358 . S
C1613 H1655 0.930 . S
C1614 C1615 1.348 . S
C1614 C1616 1.356 . S
C1614 O1639 1.325 . S
C1615 C1614 1.348 . S
C1615 C1617 1.353 . S
C1615 H1656 0.929 . S
C1616 C1614 1.356 . S
C1616 C1618 1.358 . S
C1616 H1657 0.930 . S
C1617 C1615 1.353 . S
C1617 N1619 1.314 . S
C1617 H1658 0.930 . S
C1618 C1616 1.358 . S
C1618 N1619 1.279 . S
C1618 H1659 0.930 . S
N1619 C1617 1.314 . S
N1619 C1618 1.279 . S
C1620 C1622 1.353 . S
C1620 N1623 1.314 . S
C1620 H1626 0.930 . S
C1621 N1623 1.279 . S
C1621 C1624 1.358 . S
C1621 H1627 0.930 . S
C1622 C1620 1.353 . S
C1622 C1625 1.348 . S
C1622 H1660 0.929 . S
N1623 Li1578 1.990 . S
N1623 C1620 1.314 . S
N1623 C1621 1.279 . S
C1624 C1621 1.358 . S
C1624 C1625 1.356 . S
C1624 H1661 0.930 . S
C1625 C1622 1.348 . S
C1625 C1624 1.356 . S
H1626 C1620 0.930 . S
H1627 C1621 0.930 . S
C1628 N1629 1.314 . S
C1628 C1630 1.353 . S
C1628 H1634 0.930 . S
N1629 Li1579 1.990 . S
N1629 C1628 1.314 . S
N1629 C1632 1.279 . S
C1630 C1628 1.353 . S
C1630 C1633 1.348 . S
C1630 H1662 0.929 . S
C1631 C1632 1.358 . S
C1631 C1633 1.356 . S
C1631 H1663 0.930 . S
C1632 N1629 1.279 . S
C1632 C1631 1.358 . S
C1632 H1635 0.930 . S
C1633 C1630 1.348 . S
C1633 C1631 1.356 . S
H1634 C1628 0.930 . S
H1635 C1632 0.930 . S
O1636 Li1576 1.956 . S
O1636 Li1577 1.970 1_565 S
O1636 Li1578 1.961 . S
O1636 C1580 1.325 . S
O1637 Li1576 1.970 1_545 S
O1637 Li1577 1.956 . S
O1637 Li1579 1.961 . S
O1637 C1586 1.325 . S
O1638 Li1576 1.961 . S
O1638 Li1578 1.956 . S
O1638 Li1579 1.970 1_565 S
O1638 C1608 1.325 . S
O1639 Li1577 1.961 . S
O1639 Li1578 1.970 1_545 S
O1639 Li1579 1.956 . S
O1639 C1614 1.325 . S
H1640 C1582 0.929 . S
H1641 C1583 0.930 . S
H1642 C1584 0.930 . S
H1643 C1585 0.930 . S
H1644 C1587 0.930 . S
H1645 C1589 0.929 . S
H1646 C1590 0.930 . S
H1647 C1591 0.930 . S
H1648 C1594 0.930 . S
H1649 C1597 0.929 . S
H1650 C1602 0.929 . S
H1651 C1603 0.930 . S
H1652 C1610 0.929 . S
H1653 C1611 0.930 . S
H1654 C1612 0.930 . S
H1655 C1613 0.930 . S
H1656 C1615 0.929 . S
H1657 C1616 0.930 . S
H1658 C1617 0.930 . S
H1659 C1618 0.930 . S
H1660 C1622 0.929 . S
H1661 C1624 0.930 . S
H1662 C1630 0.929 . S
H1663 C1631 0.930 . S
Li1664 N1681 1.990 . S
Li1664 O1724 1.956 . S
Li1664 O1725 1.970 1_455 S
Li1664 O1726 1.961 . S
Li1665 N1689 1.990 . S
Li1665 O1724 1.970 1_655 S
Li1665 O1725 1.956 . S
Li1665 O1727 1.961 . S
Li1666 N1711 1.990 . S
Li1666 O1724 1.961 . S
Li1666 O1726 1.956 . S
Li1666 O1727 1.970 1_455 S
Li1667 N1717 1.990 . S
Li1667 O1725 1.961 . S
Li1667 O1726 1.970 1_655 S
Li1667 O1727 1.956 . S
C1668 C1670 1.348 . S
C1668 C1671 1.356 . S
C1668 O1724 1.325 . S
N1669 C1672 1.314 . S
N1669 C1673 1.279 . S
C1670 C1668 1.348 . S
C1670 C1672 1.353 . S
C1670 H1728 0.929 . S
C1671 C1668 1.356 . S
C1671 C1673 1.358 . S
C1671 H1729 0.930 . S
C1672 N1669 1.314 . S
C1672 C1670 1.353 . S
C1672 H1730 0.930 . S
C1673 N1669 1.279 . S
C1673 C1671 1.358 . S
C1673 H1731 0.930 . S
C1674 C1677 1.348 1_655 S
C1674 C1678 1.356 . S
C1674 O1725 1.325 . S
C1675 N1676 1.279 . S
C1675 C1678 1.358 . S
C1675 H1732 0.930 . S
N1676 C1675 1.279 . S
N1676 C1679 1.314 1_655 S
C1677 C1674 1.348 1_455 S
C1677 C1679 1.353 . S
C1677 H1733 0.929 . S
C1678 C1674 1.356 . S
C1678 C1675 1.358 . S
C1678 H1734 0.930 . S
C1679 N1676 1.314 1_455 S
C1679 C1677 1.353 . S
C1679 H1735 0.930 . S
C1680 N1681 1.314 . S
C1680 C1685 1.353 . S
C1680 H1686 0.930 . S
N1681 Li1664 1.990 . S
N1681 C1680 1.314 . S
N1681 C1683 1.279 . S
C1682 C1683 1.358 . S
C1682 C1684 1.356 . S
C1682 H1736 0.930 . S
C1683 N1681 1.279 . S
C1683 C1682 1.358 . S
C1683 H1687 0.930 . S
C1684 C1682 1.356 . S
C1684 C1685 1.348 . S
C1685 C1680 1.353 . S
C1685 C1684 1.348 . S
C1685 H1737 0.929 . S
H1686 C1680 0.930 . S
H1687 C1683 0.930 . S
C1688 N1689 1.314 . S
C1688 C1690 1.353 . S
C1688 H1694 0.930 . S
N1689 Li1665 1.990 . S
N1689 C1688 1.314 . S
N1689 C1692 1.279 . S
C1690 C1688 1.353 . S
C1690 C1693 1.348 . S
C1690 H1738 0.929 . S
C1691 C1692 1.358 . S
C1691 C1693 1.356 . S
C1691 H1739 0.930 . S
C1692 N1689 1.279 . S
C1692 C1691 1.358 . S
C1692 H1695 0.930 . S
C1693 C1690 1.348 . S
C1693 C1691 1.356 . S
H1694 C1688 0.930 . S
H1695 C1692 0.930 . S
C1696 C1698 1.348 1_455 S
C1696 C1699 1.356 . S
C1696 O1726 1.325 . S
N1697 C1700 1.314 1_455 S
N1697 C1701 1.279 . S
C1698 C1696 1.348 1_655 S
C1698 C1700 1.353 . S
C1698 H1740 0.929 . S
C1699 C1696 1.356 . S
C1699 C1701 1.358 . S
C1699 H1741 0.930 . S
C1700 N1697 1.314 1_655 S
C1700 C1698 1.353 . S
C1700 H1742 0.930 . S
C1701 N1697 1.279 . S
C1701 C1699 1.358 . S
C1701 H1743 0.930 . S
C1702 C1703 1.348 . S
C1702 C1704 1.356 . S
C1702 O1727 1.325 . S
C1703 C1702 1.348 . S
C1703 C1705 1.353 . S
C1703 H1744 0.929 . S
C1704 C1702 1.356 . S
C1704 C1706 1.358 . S
C1704 H1745 0.930 . S
C1705 C1703 1.353 . S
C1705 N1707 1.314 . S
C1705 H1746 0.930 . S
C1706 C1704 1.358 . S
C1706 N1707 1.279 . S
C1706 H1747 0.930 . S
N1707 C1705 1.314 . S
N1707 C1706 1.279 . S
C1708 C1710 1.353 . S
C1708 N1711 1.314 . S
C1708 H1714 0.930 . S
C1709 N1711 1.279 . S
C1709 C1712 1.358 . S
C1709 H1715 0.930 . S
C1710 C1708 1.353 . S
C1710 C1713 1.348 . S
C1710 H1748 0.929 . S
N1711 Li1666 1.990 . S
N1711 C1708 1.314 . S
N1711 C1709 1.279 . S
C1712 C1709 1.358 . S
C1712 C1713 1.356 . S
C1712 H1749 0.930 . S
C1713 C1710 1.348 . S
C1713 C1712 1.356 . S
H1714 C1708 0.930 . S
H1715 C1709 0.930 . S
C1716 N1717 1.314 . S
C1716 C1718 1.353 . S
C1716 H1722 0.930 . S
N1717 Li1667 1.990 . S
N1717 C1716 1.314 . S
N1717 C1720 1.279 . S
C1718 C1716 1.353 . S
C1718 C1721 1.348 . S
C1718 H1750 0.929 . S
C1719 C1720 1.358 . S
C1719 C1721 1.356 . S
C1719 H1751 0.930 . S
C1720 N1717 1.279 . S
C1720 C1719 1.358 . S
C1720 H1723 0.930 . S
C1721 C1718 1.348 . S
C1721 C1719 1.356 . S
H1722 C1716 0.930 . S
H1723 C1720 0.930 . S
O1724 Li1664 1.956 . S
O1724 Li1665 1.970 1_455 S
O1724 Li1666 1.961 . S
O1724 C1668 1.325 . S
O1725 Li1664 1.970 1_655 S
O1725 Li1665 1.956 . S
O1725 Li1667 1.961 . S
O1725 C1674 1.325 . S
O1726 Li1664 1.961 . S
O1726 Li1666 1.956 . S
O1726 Li1667 1.970 1_455 S
O1726 C1696 1.325 . S
O1727 Li1665 1.961 . S
O1727 Li1666 1.970 1_655 S
O1727 Li1667 1.956 . S
O1727 C1702 1.325 . S
H1728 C1670 0.929 . S
H1729 C1671 0.930 . S
H1730 C1672 0.930 . S
H1731 C1673 0.930 . S
H1732 C1675 0.930 . S
H1733 C1677 0.929 . S
H1734 C1678 0.930 . S
H1735 C1679 0.930 . S
H1736 C1682 0.930 . S
H1737 C1685 0.929 . S
H1738 C1690 0.929 . S
H1739 C1691 0.930 . S
H1740 C1698 0.929 . S
H1741 C1699 0.930 . S
H1742 C1700 0.930 . S
H1743 C1701 0.930 . S
H1744 C1703 0.929 . S
H1745 C1704 0.930 . S
H1746 C1705 0.930 . S
H1747 C1706 0.930 . S
H1748 C1710 0.929 . S
H1749 C1712 0.930 . S
H1750 C1718 0.929 . S
H1751 C1719 0.930 . S
Li1752 N1769 1.990 . S
Li1752 O1812 1.956 . S
Li1752 O1813 1.970 . S
Li1752 O1814 1.961 . S
Li1753 N1777 1.990 . S
Li1753 O1812 1.970 . S
Li1753 O1813 1.956 . S
Li1753 O1815 1.961 . S
Li1754 N1799 1.990 . S
Li1754 O1812 1.961 . S
Li1754 O1814 1.956 . S
Li1754 O1815 1.970 . S
Li1755 N1805 1.990 . S
Li1755 O1813 1.961 . S
Li1755 O1814 1.970 . S
Li1755 O1815 1.956 . S
C1756 C1758 1.348 . S
C1756 C1759 1.356 . S
C1756 O1812 1.325 . S
N1757 C1760 1.314 . S
N1757 C1761 1.279 . S
C1758 C1756 1.348 . S
C1758 C1760 1.353 . S
C1758 H1816 0.929 . S
C1759 C1756 1.356 . S
C1759 C1761 1.358 . S
C1759 H1817 0.930 . S
C1760 N1757 1.314 . S
C1760 C1758 1.353 . S
C1760 H1818 0.930 . S
C1761 N1757 1.279 . S
C1761 C1759 1.358 . S
C1761 H1819 0.930 . S
C1762 C1765 1.348 . S
C1762 C1766 1.356 . S
C1762 O1813 1.325 . S
C1763 N1764 1.279 . S
C1763 C1766 1.358 . S
C1763 H1820 0.930 . S
N1764 C1763 1.279 . S
N1764 C1767 1.314 . S
C1765 C1762 1.348 . S
C1765 C1767 1.353 . S
C1765 H1821 0.929 . S
C1766 C1762 1.356 . S
C1766 C1763 1.358 . S
C1766 H1822 0.930 . S
C1767 N1764 1.314 . S
C1767 C1765 1.353 . S
C1767 H1823 0.930 . S
C1768 N1769 1.314 . S
C1768 C1773 1.353 . S
C1768 H1774 0.930 . S
N1769 Li1752 1.990 . S
N1769 C1768 1.314 . S
N1769 C1771 1.279 . S
C1770 C1771 1.358 . S
C1770 C1772 1.356 . S
C1770 H1824 0.930 . S
C1771 N1769 1.279 . S
C1771 C1770 1.358 . S
C1771 H1775 0.930 . S
C1772 C1770 1.356 . S
C1772 C1773 1.348 . S
C1773 C1768 1.353 . S
C1773 C1772 1.348 . S
C1773 H1825 0.929 . S
H1774 C1768 0.930 . S
H1775 C1771 0.930 . S
C1776 N1777 1.314 . S
C1776 C1778 1.353 . S
C1776 H1782 0.930 . S
N1777 Li1753 1.990 . S
N1777 C1776 1.314 . S
N1777 C1780 1.279 . S
C1778 C1776 1.353 . S
C1778 C1781 1.348 . S
C1778 H1826 0.929 . S
C1779 C1780 1.358 . S
C1779 C1781 1.356 . S
C1779 H1827 0.930 . S
C1780 N1777 1.279 . S
C1780 C1779 1.358 . S
C1780 H1783 0.930 . S
C1781 C1778 1.348 . S
C1781 C1779 1.356 . S
H1782 C1776 0.930 . S
H1783 C1780 0.930 . S
C1784 C1786 1.348 . S
C1784 C1787 1.356 . S
C1784 O1814 1.325 . S
N1785 C1788 1.314 . S
N1785 C1789 1.279 . S
C1786 C1784 1.348 . S
C1786 C1788 1.353 . S
C1786 H1828 0.929 . S
C1787 C1784 1.356 . S
C1787 C1789 1.358 . S
C1787 H1829 0.930 . S
C1788 N1785 1.314 . S
C1788 C1786 1.353 . S
C1788 H1830 0.930 . S
C1789 N1785 1.279 . S
C1789 C1787 1.358 . S
C1789 H1831 0.930 . S
C1790 C1791 1.348 . S
C1790 C1792 1.356 . S
C1790 O1815 1.325 . S
C1791 C1790 1.348 . S
C1791 C1793 1.353 . S
C1791 H1832 0.929 . S
C1792 C1790 1.356 . S
C1792 C1794 1.358 . S
C1792 H1833 0.930 . S
C1793 C1791 1.353 . S
C1793 N1795 1.314 . S
C1793 H1834 0.930 . S
C1794 C1792 1.358 . S
C1794 N1795 1.279 . S
C1794 H1835 0.930 . S
N1795 C1793 1.314 . S
N1795 C1794 1.279 . S
C1796 C1798 1.353 . S
C1796 N1799 1.314 . S
C1796 H1802 0.930 . S
C1797 N1799 1.279 . S
C1797 C1800 1.358 . S
C1797 H1803 0.930 . S
C1798 C1796 1.353 . S
C1798 C1801 1.348 . S
C1798 H1836 0.929 . S
N1799 Li1754 1.990 . S
N1799 C1796 1.314 . S
N1799 C1797 1.279 . S
C1800 C1797 1.358 . S
C1800 C1801 1.356 . S
C1800 H1837 0.930 . S
C1801 C1798 1.348 . S
C1801 C1800 1.356 . S
H1802 C1796 0.930 . S
H1803 C1797 0.930 . S
C1804 N1805 1.314 . S
C1804 C1806 1.353 . S
C1804 H1810 0.930 . S
N1805 Li1755 1.990 . S
N1805 C1804 1.314 . S
N1805 C1808 1.279 . S
C1806 C1804 1.353 . S
C1806 C1809 1.348 . S
C1806 H1838 0.929 . S
C1807 C1808 1.358 . S
C1807 C1809 1.356 . S
C1807 H1839 0.930 . S
C1808 N1805 1.279 . S
C1808 C1807 1.358 . S
C1808 H1811 0.930 . S
C1809 C1806 1.348 . S
C1809 C1807 1.356 . S
H1810 C1804 0.930 . S
H1811 C1808 0.930 . S
O1812 Li1752 1.956 . S
O1812 Li1753 1.970 . S
O1812 Li1754 1.961 . S
O1812 C1756 1.325 . S
O1813 Li1752 1.970 . S
O1813 Li1753 1.956 . S
O1813 Li1755 1.961 . S
O1813 C1762 1.325 . S
O1814 Li1752 1.961 . S
O1814 Li1754 1.956 . S
O1814 Li1755 1.970 . S
O1814 C1784 1.325 . S
O1815 Li1753 1.961 . S
O1815 Li1754 1.970 . S
O1815 Li1755 1.956 . S
O1815 C1790 1.325 . S
H1816 C1758 0.929 . S
H1817 C1759 0.930 . S
H1818 C1760 0.930 . S
H1819 C1761 0.930 . S
H1820 C1763 0.930 . S
H1821 C1765 0.929 . S
H1822 C1766 0.930 . S
H1823 C1767 0.930 . S
H1824 C1770 0.930 . S
H1825 C1773 0.929 . S
H1826 C1778 0.929 . S
H1827 C1779 0.930 . S
H1828 C1786 0.929 . S
H1829 C1787 0.930 . S
H1830 C1788 0.930 . S
H1831 C1789 0.930 . S
H1832 C1791 0.929 . S
H1833 C1792 0.930 . S
H1834 C1793 0.930 . S
H1835 C1794 0.930 . S
H1836 C1798 0.929 . S
H1837 C1800 0.930 . S
H1838 C1806 0.929 . S
H1839 C1807 0.930 . S
Li1840 N1857 1.990 . S
Li1840 O1900 1.956 . S
Li1840 O1901 1.970 1_455 S
Li1840 O1902 1.961 . S
Li1841 N1865 1.990 . S
Li1841 O1900 1.970 1_655 S
Li1841 O1901 1.956 . S
Li1841 O1903 1.961 . S
Li1842 N1887 1.990 . S
Li1842 O1900 1.961 . S
Li1842 O1902 1.956 . S
Li1842 O1903 1.970 1_455 S
Li1843 N1893 1.990 . S
Li1843 O1901 1.961 . S
Li1843 O1902 1.970 1_655 S
Li1843 O1903 1.956 . S
C1844 C1846 1.348 1_455 S
C1844 C1847 1.356 . S
C1844 O1900 1.325 . S
N1845 C1848 1.314 1_455 S
N1845 C1849 1.279 . S
C1846 C1844 1.348 1_655 S
C1846 C1848 1.353 . S
C1846 H1904 0.929 . S
C1847 C1844 1.356 . S
C1847 C1849 1.358 . S
C1847 H1905 0.930 . S
C1848 N1845 1.314 1_655 S
C1848 C1846 1.353 . S
C1848 H1906 0.930 . S
C1849 N1845 1.279 . S
C1849 C1847 1.358 . S
C1849 H1907 0.930 . S
C1850 C1853 1.348 . S
C1850 C1854 1.356 . S
C1850 O1901 1.325 . S
C1851 N1852 1.279 . S
C1851 C1854 1.358 . S
C1851 H1908 0.930 . S
N1852 C1851 1.279 . S
N1852 C1855 1.314 . S
C1853 C1850 1.348 . S
C1853 C1855 1.353 . S
C1853 H1909 0.929 . S
C1854 C1850 1.356 . S
C1854 C1851 1.358 . S
C1854 H1910 0.930 . S
C1855 N1852 1.314 . S
C1855 C1853 1.353 . S
C1855 H1911 0.930 . S
C1856 N1857 1.314 . S
C1856 C1861 1.353 . S
C1856 H1862 0.930 . S
N1857 Li1840 1.990 . S
N1857 C1856 1.314 . S
N1857 C1859 1.279 . S
C1858 C1859 1.358 . S
C1858 C1860 1.356 . S
C1858 H1912 0.930 . S
C1859 N1857 1.279 . S
C1859 C1858 1.358 . S
C1859 H1863 0.930 . S
C1860 C1858 1.356 . S
C1860 C1861 1.348 . S
C1861 C1856 1.353 . S
C1861 C1860 1.348 . S
C1861 H1913 0.929 . S
H1862 C1856 0.930 . S
H1863 C1859 0.930 . S
C1864 N1865 1.314 . S
C1864 C1866 1.353 . S
C1864 H1870 0.930 . S
N1865 Li1841 1.990 . S
N1865 C1864 1.314 . S
N1865 C1868 1.279 . S
C1866 C1864 1.353 . S
C1866 C1869 1.348 . S
C1866 H1914 0.929 . S
C1867 C1868 1.358 . S
C1867 C1869 1.356 . S
C1867 H1915 0.930 . S
C1868 N1865 1.279 . S
C1868 C1867 1.358 . S
C1868 H1871 0.930 . S
C1869 C1866 1.348 . S
C1869 C1867 1.356 . S
H1870 C1864 0.930 . S
H1871 C1868 0.930 . S
C1872 C1874 1.348 . S
C1872 C1875 1.356 . S
C1872 O1902 1.325 . S
N1873 C1876 1.314 . S
N1873 C1877 1.279 . S
C1874 C1872 1.348 . S
C1874 C1876 1.353 . S
C1874 H1916 0.929 . S
C1875 C1872 1.356 . S
C1875 C1877 1.358 . S
C1875 H1917 0.930 . S
C1876 N1873 1.314 . S
C1876 C1874 1.353 . S
C1876 H1918 0.930 . S
C1877 N1873 1.279 . S
C1877 C1875 1.358 . S
C1877 H1919 0.930 . S
C1878 C1879 1.348 1_655 S
C1878 C1880 1.356 . S
C1878 O1903 1.325 . S
C1879 C1878 1.348 1_455 S
C1879 C1881 1.353 . S
C1879 H1920 0.929 . S
C1880 C1878 1.356 . S
C1880 C1882 1.358 . S
C1880 H1921 0.930 . S
C1881 C1879 1.353 . S
C1881 N1883 1.314 1_455 S
C1881 H1922 0.930 . S
C1882 C1880 1.358 . S
C1882 N1883 1.279 . S
C1882 H1923 0.930 . S
N1883 C1881 1.314 1_655 S
N1883 C1882 1.279 . S
C1884 C1886 1.353 . S
C1884 N1887 1.314 . S
C1884 H1890 0.930 . S
C1885 N1887 1.279 . S
C1885 C1888 1.358 . S
C1885 H1891 0.930 . S
C1886 C1884 1.353 . S
C1886 C1889 1.348 . S
C1886 H1924 0.929 . S
N1887 Li1842 1.990 . S
N1887 C1884 1.314 . S
N1887 C1885 1.279 . S
C1888 C1885 1.358 . S
C1888 C1889 1.356 . S
C1888 H1925 0.930 . S
C1889 C1886 1.348 . S
C1889 C1888 1.356 . S
H1890 C1884 0.930 . S
H1891 C1885 0.930 . S
C1892 N1893 1.314 . S
C1892 C1894 1.353 . S
C1892 H1898 0.930 . S
N1893 Li1843 1.990 . S
N1893 C1892 1.314 . S
N1893 C1896 1.279 . S
C1894 C1892 1.353 . S
C1894 C1897 1.348 . S
C1894 H1926 0.929 . S
C1895 C1896 1.358 . S
C1895 C1897 1.356 . S
C1895 H1927 0.930 . S
C1896 N1893 1.279 . S
C1896 C1895 1.358 . S
C1896 H1899 0.930 . S
C1897 C1894 1.348 . S
C1897 C1895 1.356 . S
H1898 C1892 0.930 . S
H1899 C1896 0.930 . S
O1900 Li1840 1.956 . S
O1900 Li1841 1.970 1_455 S
O1900 Li1842 1.961 . S
O1900 C1844 1.325 . S
O1901 Li1840 1.970 1_655 S
O1901 Li1841 1.956 . S
O1901 Li1843 1.961 . S
O1901 C1850 1.325 . S
O1902 Li1840 1.961 . S
O1902 Li1842 1.956 . S
O1902 Li1843 1.970 1_455 S
O1902 C1872 1.325 . S
O1903 Li1841 1.961 . S
O1903 Li1842 1.970 1_655 S
O1903 Li1843 1.956 . S
O1903 C1878 1.325 . S
H1904 C1846 0.929 . S
H1905 C1847 0.930 . S
H1906 C1848 0.930 . S
H1907 C1849 0.930 . S
H1908 C1851 0.930 . S
H1909 C1853 0.929 . S
H1910 C1854 0.930 . S
H1911 C1855 0.930 . S
H1912 C1858 0.930 . S
H1913 C1861 0.929 . S
H1914 C1866 0.929 . S
H1915 C1867 0.930 . S
H1916 C1874 0.929 . S
H1917 C1875 0.930 . S
H1918 C1876 0.930 . S
H1919 C1877 0.930 . S
H1920 C1879 0.929 . S
H1921 C1880 0.930 . S
H1922 C1881 0.930 . S
H1923 C1882 0.930 . S
H1924 C1886 0.929 . S
H1925 C1888 0.930 . S
H1926 C1894 0.929 . S
H1927 C1895 0.930 . S
Li1928 N1945 1.990 . S
Li1928 O1988 1.956 . S
Li1928 O1989 1.970 . S
Li1928 O1990 1.961 . S
Li1929 N1953 1.990 . S
Li1929 O1988 1.970 . S
Li1929 O1989 1.956 . S
Li1929 O1991 1.961 . S
Li1930 N1975 1.990 . S
Li1930 O1988 1.961 . S
Li1930 O1990 1.956 . S
Li1930 O1991 1.970 . S
Li1931 N1981 1.990 . S
Li1931 O1989 1.961 . S
Li1931 O1990 1.970 . S
Li1931 O1991 1.956 . S
C1932 C1934 1.348 . S
C1932 C1935 1.356 . S
C1932 O1988 1.325 . S
N1933 C1936 1.314 . S
N1933 C1937 1.279 . S
C1934 C1932 1.348 . S
C1934 C1936 1.353 . S
C1934 H1992 0.929 . S
C1935 C1932 1.356 . S
C1935 C1937 1.358 . S
C1935 H1993 0.930 . S
C1936 N1933 1.314 . S
C1936 C1934 1.353 . S
C1936 H1994 0.930 . S
C1937 N1933 1.279 . S
C1937 C1935 1.358 . S
C1937 H1995 0.930 . S
C1938 C1941 1.348 . S
C1938 C1942 1.356 . S
C1938 O1989 1.325 . S
C1939 N1940 1.279 . S
C1939 C1942 1.358 . S
C1939 H1996 0.930 . S
N1940 C1939 1.279 . S
N1940 C1943 1.314 . S
C1941 C1938 1.348 . S
C1941 C1943 1.353 . S
C1941 H1997 0.929 . S
C1942 C1938 1.356 . S
C1942 C1939 1.358 . S
C1942 H1998 0.930 . S
C1943 N1940 1.314 . S
C1943 C1941 1.353 . S
C1943 H1999 0.930 . S
C1944 N1945 1.314 . S
C1944 C1949 1.353 . S
C1944 H1950 0.930 . S
N1945 Li1928 1.990 . S
N1945 C1944 1.314 . S
N1945 C1947 1.279 . S
C1946 C1947 1.358 . S
C1946 C1948 1.356 . S
C1946 H2000 0.930 . S
C1947 N1945 1.279 . S
C1947 C1946 1.358 . S
C1947 H1951 0.930 . S
C1948 C1946 1.356 . S
C1948 C1949 1.348 . S
C1949 C1944 1.353 . S
C1949 C1948 1.348 . S
C1949 H2001 0.929 . S
H1950 C1944 0.930 . S
H1951 C1947 0.930 . S
C1952 N1953 1.314 . S
C1952 C1954 1.353 . S
C1952 H1958 0.930 . S
N1953 Li1929 1.990 . S
N1953 C1952 1.314 . S
N1953 C1956 1.279 . S
C1954 C1952 1.353 . S
C1954 C1957 1.348 . S
C1954 H2002 0.929 . S
C1955 C1956 1.358 . S
C1955 C1957 1.356 . S
C1955 H2003 0.930 . S
C1956 N1953 1.279 . S
C1956 C1955 1.358 . S
C1956 H1959 0.930 . S
C1957 C1954 1.348 . S
C1957 C1955 1.356 . S
H1958 C1952 0.930 . S
H1959 C1956 0.930 . S
C1960 C1962 1.348 . S
C1960 C1963 1.356 . S
C1960 O1990 1.325 . S
N1961 C1964 1.314 . S
N1961 C1965 1.279 . S
C1962 C1960 1.348 . S
C1962 C1964 1.353 . S
C1962 H2004 0.929 . S
C1963 C1960 1.356 . S
C1963 C1965 1.358 . S
C1963 H2005 0.930 . S
C1964 N1961 1.314 . S
C1964 C1962 1.353 . S
C1964 H2006 0.930 . S
C1965 N1961 1.279 . S
C1965 C1963 1.358 . S
C1965 H2007 0.930 . S
C1966 C1967 1.348 . S
C1966 C1968 1.356 . S
C1966 O1991 1.325 . S
C1967 C1966 1.348 . S
C1967 C1969 1.353 . S
C1967 H2008 0.929 . S
C1968 C1966 1.356 . S
C1968 C1970 1.358 . S
C1968 H2009 0.930 . S
C1969 C1967 1.353 . S
C1969 N1971 1.314 . S
C1969 H2010 0.930 . S
C1970 C1968 1.358 . S
C1970 N1971 1.279 . S
C1970 H2011 0.930 . S
N1971 C1969 1.314 . S
N1971 C1970 1.279 . S
C1972 C1974 1.353 . S
C1972 N1975 1.314 . S
C1972 H1978 0.930 . S
C1973 N1975 1.279 . S
C1973 C1976 1.358 . S
C1973 H1979 0.930 . S
C1974 C1972 1.353 . S
C1974 C1977 1.348 . S
C1974 H2012 0.929 . S
N1975 Li1930 1.990 . S
N1975 C1972 1.314 . S
N1975 C1973 1.279 . S
C1976 C1973 1.358 . S
C1976 C1977 1.356 . S
C1976 H2013 0.930 . S
C1977 C1974 1.348 . S
C1977 C1976 1.356 . S
H1978 C1972 0.930 . S
H1979 C1973 0.930 . S
C1980 N1981 1.314 . S
C1980 C1982 1.353 . S
C1980 H1986 0.930 . S
N1981 Li1931 1.990 . S
N1981 C1980 1.314 . S
N1981 C1984 1.279 . S
C1982 C1980 1.353 . S
C1982 C1985 1.348 . S
C1982 H2014 0.929 . S
C1983 C1984 1.358 . S
C1983 C1985 1.356 . S
C1983 H2015 0.930 . S
C1984 N1981 1.279 . S
C1984 C1983 1.358 . S
C1984 H1987 0.930 . S
C1985 C1982 1.348 . S
C1985 C1983 1.356 . S
H1986 C1980 0.930 . S
H1987 C1984 0.930 . S
O1988 Li1928 1.956 . S
O1988 Li1929 1.970 . S
O1988 Li1930 1.961 . S
O1988 C1932 1.325 . S
O1989 Li1928 1.970 . S
O1989 Li1929 1.956 . S
O1989 Li1931 1.961 . S
O1989 C1938 1.325 . S
O1990 Li1928 1.961 . S
O1990 Li1930 1.956 . S
O1990 Li1931 1.970 . S
O1990 C1960 1.325 . S
O1991 Li1929 1.961 . S
O1991 Li1930 1.970 . S
O1991 Li1931 1.956 . S
O1991 C1966 1.325 . S
H1992 C1934 0.929 . S
H1993 C1935 0.930 . S
H1994 C1936 0.930 . S
H1995 C1937 0.930 . S
H1996 C1939 0.930 . S
H1997 C1941 0.929 . S
H1998 C1942 0.930 . S
H1999 C1943 0.930 . S
H2000 C1946 0.930 . S
H2001 C1949 0.929 . S
H2002 C1954 0.929 . S
H2003 C1955 0.930 . S
H2004 C1962 0.929 . S
H2005 C1963 0.930 . S
H2006 C1964 0.930 . S
H2007 C1965 0.930 . S
H2008 C1967 0.929 . S
H2009 C1968 0.930 . S
H2010 C1969 0.930 . S
H2011 C1970 0.930 . S
H2012 C1974 0.929 . S
H2013 C1976 0.930 . S
H2014 C1982 0.929 . S
H2015 C1983 0.930 . S
H2016 C2022 0.930 . S
H2017 C2026 0.930 . S
H2018 C2031 0.929 . S
H2019 C2029 0.929 . S
H2020 C2024 0.929 . S
H2021 C2030 0.929 . S
C2022 H2016 0.930 . S
C2022 C2023 1.367 . S
C2022 C2030 1.378 . S
C2023 C2022 1.367 . S
C2023 C2031 1.433 . S
C2024 H2020 0.929 . S
C2024 C2026 1.378 . S
C2024 C2028 1.350 . S
C2025 C2028 1.463 . S
C2025 C2030 1.350 . S
C2025 N2033 1.427 . S
C2026 H2017 0.930 . S
C2026 C2024 1.378 . S
C2026 C2027 1.367 . S
C2027 C2026 1.367 . S
C2027 C2029 1.433 . S
C2028 C2024 1.350 . S
C2028 C2025 1.463 . S
C2028 N2032 1.427 . S
C2029 H2019 0.929 . S
C2029 C2027 1.433 . S
C2029 N2032 1.384 . S
C2030 H2021 0.929 . S
C2030 C2022 1.378 . S
C2030 C2025 1.350 . S
C2031 H2018 0.929 . S
C2031 C2023 1.433 . S
C2031 N2033 1.384 . S
N2032 C2028 1.427 . S
N2032 C2029 1.384 . S
N2033 C2025 1.427 . S
N2033 C2031 1.384 . S
H2034 C2040 0.930 . S
H2035 C2044 0.930 . S
H2036 C2049 0.929 . S
H2037 C2047 0.929 . S
H2038 C2042 0.929 . S
H2039 C2048 0.929 . S
C2040 H2034 0.930 . S
C2040 C2041 1.367 . S
C2040 C2048 1.378 . S
C2041 C2040 1.367 . S
C2041 C2049 1.433 . S
C2042 H2038 0.929 . S
C2042 C2044 1.378 . S
C2042 C2046 1.350 . S
C2043 C2046 1.463 . S
C2043 C2048 1.350 . S
C2043 N2051 1.427 . S
C2044 H2035 0.930 . S
C2044 C2042 1.378 . S
C2044 C2045 1.367 . S
C2045 C2044 1.367 . S
C2045 C2047 1.433 . S
C2046 C2042 1.350 . S
C2046 C2043 1.463 . S
C2046 N2050 1.427 . S
C2047 H2037 0.929 . S
C2047 C2045 1.433 . S
C2047 N2050 1.384 . S
C2048 H2039 0.929 . S
C2048 C2040 1.378 . S
C2048 C2043 1.350 . S
C2049 H2036 0.929 . S
C2049 C2041 1.433 . S
C2049 N2051 1.384 . S
N2050 C2046 1.427 . S
N2050 C2047 1.384 . S
N2051 C2043 1.427 . S
N2051 C2049 1.384 . S
H2052 C2058 0.930 . S
H2053 C2062 0.930 . S
H2054 C2067 0.929 . S
H2055 C2065 0.929 . S
H2056 C2060 0.929 . S
H2057 C2066 0.929 . S
C2058 H2052 0.930 . S
C2058 C2059 1.367 . S
C2058 C2066 1.378 . S
C2059 C2058 1.367 . S
C2059 C2067 1.433 . S
C2060 H2056 0.929 . S
C2060 C2062 1.378 . S
C2060 C2064 1.350 . S
C2061 C2064 1.463 . S
C2061 C2066 1.350 . S
C2061 N2069 1.427 . S
C2062 H2053 0.930 . S
C2062 C2060 1.378 . S
C2062 C2063 1.367 . S
C2063 C2062 1.367 . S
C2063 C2065 1.433 . S
C2064 C2060 1.350 . S
C2064 C2061 1.463 . S
C2064 N2068 1.427 . S
C2065 H2055 0.929 . S
C2065 C2063 1.433 . S
C2065 N2068 1.384 . S
C2066 H2057 0.929 . S
C2066 C2058 1.378 . S
C2066 C2061 1.350 . S
C2067 H2054 0.929 . S
C2067 C2059 1.433 . S
C2067 N2069 1.384 . S
N2068 C2064 1.427 . S
N2068 C2065 1.384 . S
N2069 C2061 1.427 . S
N2069 C2067 1.384 . S
H2070 C2076 0.930 . S
H2071 C2080 0.903 1_545 S
H2072 C2085 0.922 1_545 S
H2073 C2083 0.929 . S
H2074 C2078 0.929 1_545 S
H2075 C2084 0.929 . S
C2076 H2070 0.930 . S
C2076 C2077 1.367 . S
C2076 C2084 1.378 . S
C2077 C2076 1.367 . S
C2077 C2085 1.433 . S
C2078 H2074 0.929 1_565 S
C2078 C2080 1.382 . S
C2078 C2082 1.350 . S
C2079 C2082 1.463 . S
C2079 C2084 1.350 . S
C2079 N2087 1.427 . S
C2080 H2071 0.903 1_565 S
C2080 C2078 1.382 . S
C2080 C2081 1.391 . S
C2081 C2080 1.391 . S
C2081 C2083 1.433 . S
C2082 C2078 1.350 . S
C2082 C2079 1.463 . S
C2082 N2086 1.427 . S
C2083 H2073 0.929 . S
C2083 C2081 1.433 . S
C2083 N2086 1.384 . S
C2084 H2075 0.929 . S
C2084 C2076 1.378 . S
C2084 C2079 1.350 . S
C2085 H2072 0.922 1_565 S
C2085 C2077 1.433 . S
C2085 N2087 1.384 . S
N2086 C2082 1.427 . S
N2086 C2083 1.384 . S
N2087 C2079 1.427 . S
N2087 C2085 1.384 . S
H2088 C2094 0.930 . S
H2089 C2098 0.930 . S
H2090 C2103 0.929 . S
H2091 C2101 0.929 . S
H2092 C2096 0.929 . S
H2093 C2102 0.929 . S
C2094 H2088 0.930 . S
C2094 C2095 1.367 . S
C2094 C2102 1.378 . S
C2095 C2094 1.367 . S
C2095 C2103 1.433 . S
C2096 H2092 0.929 . S
C2096 C2098 1.378 . S
C2096 C2100 1.350 . S
C2097 C2100 1.463 . S
C2097 C2102 1.350 . S
C2097 N2105 1.427 . S
C2098 H2089 0.930 . S
C2098 C2096 1.378 . S
C2098 C2099 1.367 . S
C2099 C2098 1.367 . S
C2099 C2101 1.433 . S
C2100 C2096 1.350 . S
C2100 C2097 1.463 . S
C2100 N2104 1.427 . S
C2101 H2091 0.929 . S
C2101 C2099 1.433 . S
C2101 N2104 1.384 . S
C2102 H2093 0.929 . S
C2102 C2094 1.378 . S
C2102 C2097 1.350 . S
C2103 H2090 0.929 . S
C2103 C2095 1.433 . S
C2103 N2105 1.384 . S
N2104 C2100 1.427 . S
N2104 C2101 1.384 . S
N2105 C2097 1.427 . S
N2105 C2103 1.384 . S
H2106 C2112 0.930 . S
H2107 C2116 0.930 . S
H2108 C2121 0.929 . S
H2109 C2119 0.929 . S
H2110 C2114 0.929 . S
H2111 C2120 0.929 . S
C2112 H2106 0.930 . S
C2112 C2113 1.367 . S
C2112 C2120 1.378 . S
C2113 C2112 1.367 . S
C2113 C2121 1.433 . S
C2114 H2110 0.929 . S
C2114 C2116 1.378 . S
C2114 C2118 1.350 . S
C2115 C2118 1.463 . S
C2115 C2120 1.350 . S
C2115 N2123 1.427 . S
C2116 H2107 0.930 . S
C2116 C2114 1.378 . S
C2116 C2117 1.367 . S
C2117 C2116 1.367 . S
C2117 C2119 1.433 . S
C2118 C2114 1.350 . S
C2118 C2115 1.463 . S
C2118 N2122 1.427 . S
C2119 H2109 0.929 . S
C2119 C2117 1.433 . S
C2119 N2122 1.384 . S
C2120 H2111 0.929 . S
C2120 C2112 1.378 . S
C2120 C2115 1.350 . S
C2121 H2108 0.929 . S
C2121 C2113 1.433 . S
C2121 N2123 1.384 . S
N2122 C2118 1.427 . S
N2122 C2119 1.384 . S
N2123 C2115 1.427 . S
N2123 C2121 1.384 . S
H2124 C2130 0.930 . S
H2125 C2134 0.930 . S
H2126 C2139 0.929 . S
H2127 C2137 0.929 . S
H2128 C2132 0.929 . S
H2129 C2138 0.929 . S
C2130 H2124 0.930 . S
C2130 C2131 1.367 . S
C2130 C2138 1.378 . S
C2131 C2130 1.367 . S
C2131 C2139 1.433 . S
C2132 H2128 0.929 . S
C2132 C2134 1.378 . S
C2132 C2136 1.350 . S
C2133 C2136 1.463 . S
C2133 C2138 1.350 . S
C2133 N2141 1.427 . S
C2134 H2125 0.930 . S
C2134 C2132 1.378 . S
C2134 C2135 1.367 . S
C2135 C2134 1.367 . S
C2135 C2137 1.433 . S
C2136 C2132 1.350 . S
C2136 C2133 1.463 . S
C2136 N2140 1.427 . S
C2137 H2127 0.929 . S
C2137 C2135 1.433 . S
C2137 N2140 1.384 . S
C2138 H2129 0.929 . S
C2138 C2130 1.378 . S
C2138 C2133 1.350 . S
C2139 H2126 0.929 . S
C2139 C2131 1.433 . S
C2139 N2141 1.384 . S
N2140 C2136 1.427 . S
N2140 C2137 1.384 . S
N2141 C2133 1.427 . S
N2141 C2139 1.384 . S
H2142 C2148 0.930 . S
H2143 C2152 0.930 . S
H2144 C2157 0.929 1_545 S
H2145 C2155 0.929 . S
H2146 C2150 0.979 . S
H2147 C2156 0.929 . S
C2148 H2142 0.930 . S
C2148 C2149 1.367 . S
C2148 C2156 1.378 . S
C2149 C2148 1.367 . S
C2149 C2157 1.433 . S
C2150 H2146 0.979 . S
C2150 C2152 1.385 . S
C2150 C2154 1.294 1_545 S
C2151 C2154 1.463 . S
C2151 C2156 1.350 . S
C2151 N2159 1.427 . S
C2152 H2143 0.930 . S
C2152 C2150 1.385 . S
C2152 C2153 1.367 1_545 S
C2153 C2152 1.367 1_565 S
C2153 C2155 1.433 . S
C2154 C2150 1.294 1_565 S
C2154 C2151 1.463 . S
C2154 N2158 1.427 . S
C2155 H2145 0.929 . S
C2155 C2153 1.433 . S
C2155 N2158 1.384 . S
C2156 H2147 0.929 . S
C2156 C2148 1.378 . S
C2156 C2151 1.350 . S
C2157 H2144 0.929 1_565 S
C2157 C2149 1.433 . S
C2157 N2159 1.384 . S
N2158 C2154 1.427 . S
N2158 C2155 1.384 . S
N2159 C2151 1.427 . S
N2159 C2157 1.384 . S
H2160 C2166 0.930 . S
H2161 C2170 0.930 . S
H2162 C2175 0.929 . S
H2163 C2173 0.929 . S
H2164 C2168 0.929 . S
H2165 C2174 0.929 . S
C2166 H2160 0.930 . S
C2166 C2167 1.367 . S
C2166 C2174 1.378 . S
C2167 C2166 1.367 . S
C2167 C2175 1.433 . S
C2168 H2164 0.929 . S
C2168 C2170 1.378 . S
C2168 C2172 1.350 . S
C2169 C2172 1.463 . S
C2169 C2174 1.350 . S
C2169 N2177 1.427 . S
C2170 H2161 0.930 . S
C2170 C2168 1.378 . S
C2170 C2171 1.367 . S
C2171 C2170 1.367 . S
C2171 C2173 1.433 . S
C2172 C2168 1.350 . S
C2172 C2169 1.463 . S
C2172 N2176 1.427 . S
C2173 H2163 0.929 . S
C2173 C2171 1.433 . S
C2173 N2176 1.384 . S
C2174 H2165 0.929 . S
C2174 C2166 1.378 . S
C2174 C2169 1.350 . S
C2175 H2162 0.929 . S
C2175 C2167 1.433 . S
C2175 N2177 1.384 . S
N2176 C2172 1.427 . S
N2176 C2173 1.384 . S
N2177 C2169 1.427 . S
N2177 C2175 1.384 . S
H2178 C2184 0.930 . S
H2179 C2188 0.930 . S
H2180 C2193 0.929 . S
H2181 C2191 0.929 . S
H2182 C2186 0.929 . S
H2183 C2192 0.929 . S
C2184 H2178 0.930 . S
C2184 C2185 1.367 . S
C2184 C2192 1.378 . S
C2185 C2184 1.367 . S
C2185 C2193 1.433 . S
C2186 H2182 0.929 . S
C2186 C2188 1.378 . S
C2186 C2190 1.350 . S
C2187 C2190 1.463 . S
C2187 C2192 1.350 . S
C2187 N2195 1.427 . S
C2188 H2179 0.930 . S
C2188 C2186 1.378 . S
C2188 C2189 1.367 . S
C2189 C2188 1.367 . S
C2189 C2191 1.433 . S
C2190 C2186 1.350 . S
C2190 C2187 1.463 . S
C2190 N2194 1.427 . S
C2191 H2181 0.929 . S
C2191 C2189 1.433 . S
C2191 N2194 1.384 . S
C2192 H2183 0.929 . S
C2192 C2184 1.378 . S
C2192 C2187 1.350 . S
C2193 H2180 0.929 . S
C2193 C2185 1.433 . S
C2193 N2195 1.384 . S
N2194 C2190 1.427 . S
N2194 C2191 1.384 . S
N2195 C2187 1.427 . S
N2195 C2193 1.384 . S
H2196 C2202 0.930 . S
H2197 C2206 0.930 . S
H2198 C2211 0.929 . S
H2199 C2209 0.929 . S
H2200 C2204 0.929 . S
H2201 C2210 0.929 . S
C2202 H2196 0.930 . S
C2202 C2203 1.367 . S
C2202 C2210 1.378 . S
C2203 C2202 1.367 . S
C2203 C2211 1.433 . S
C2204 H2200 0.929 . S
C2204 C2206 1.378 . S
C2204 C2208 1.350 . S
C2205 C2208 1.463 . S
C2205 C2210 1.350 . S
C2205 N2213 1.427 . S
C2206 H2197 0.930 . S
C2206 C2204 1.378 . S
C2206 C2207 1.367 . S
C2207 C2206 1.367 . S
C2207 C2209 1.433 . S
C2208 C2204 1.350 . S
C2208 C2205 1.463 . S
C2208 N2212 1.427 . S
C2209 H2199 0.929 . S
C2209 C2207 1.433 . S
C2209 N2212 1.384 . S
C2210 H2201 0.929 . S
C2210 C2202 1.378 . S
C2210 C2205 1.350 . S
C2211 H2198 0.929 . S
C2211 C2203 1.433 . S
C2211 N2213 1.384 . S
N2212 C2208 1.427 . S
N2212 C2209 1.384 . S
N2213 C2205 1.427 . S
N2213 C2211 1.384 . S
H2214 C2220 0.930 . S
H2215 C2224 0.930 . S
H2216 C2229 0.929 . S
H2217 C2227 0.929 . S
H2218 C2222 0.929 . S
H2219 C2228 0.929 . S
C2220 H2214 0.930 . S
C2220 C2221 1.367 . S
C2220 C2228 1.378 . S
C2221 C2220 1.367 . S
C2221 C2229 1.433 . S
C2222 H2218 0.929 . S
C2222 C2224 1.378 . S
C2222 C2226 1.350 . S
C2223 C2226 1.463 . S
C2223 C2228 1.350 . S
C2223 N2231 1.427 . S
C2224 H2215 0.930 . S
C2224 C2222 1.378 . S
C2224 C2225 1.367 . S
C2225 C2224 1.367 . S
C2225 C2227 1.433 . S
C2226 C2222 1.350 . S
C2226 C2223 1.463 . S
C2226 N2230 1.427 . S
C2227 H2217 0.929 . S
C2227 C2225 1.433 . S
C2227 N2230 1.384 . S
C2228 H2219 0.929 . S
C2228 C2220 1.378 . S
C2228 C2223 1.350 . S
C2229 H2216 0.929 . S
C2229 C2221 1.433 . S
C2229 N2231 1.384 . S
N2230 C2226 1.427 . S
N2230 C2227 1.384 . S
N2231 C2223 1.427 . S
N2231 C2229 1.384 . S
H2232 C2238 0.930 . S
H2233 C2242 0.930 . S
H2234 C2247 0.929 . S
H2235 C2245 0.929 . S
H2236 C2240 0.929 . S
H2237 C2246 0.929 . S
C2238 H2232 0.930 . S
C2238 C2239 1.367 . S
C2238 C2246 1.378 . S
C2239 C2238 1.367 . S
C2239 C2247 1.433 . S
C2240 H2236 0.929 . S
C2240 C2242 1.378 . S
C2240 C2244 1.350 . S
C2241 C2244 1.463 . S
C2241 C2246 1.350 . S
C2241 N2249 1.427 . S
C2242 H2233 0.930 . S
C2242 C2240 1.378 . S
C2242 C2243 1.367 . S
C2243 C2242 1.367 . S
C2243 C2245 1.433 . S
C2244 C2240 1.350 . S
C2244 C2241 1.463 . S
C2244 N2248 1.427 . S
C2245 H2235 0.929 . S
C2245 C2243 1.433 . S
C2245 N2248 1.384 . S
C2246 H2237 0.929 . S
C2246 C2238 1.378 . S
C2246 C2241 1.350 . S
C2247 H2234 0.929 . S
C2247 C2239 1.433 . S
C2247 N2249 1.384 . S
N2248 C2244 1.427 . S
N2248 C2245 1.384 . S
N2249 C2241 1.427 . S
N2249 C2247 1.384 . S
H2250 C2256 0.930 1_655 S
H2251 C2260 0.930 . S
H2252 C2265 0.929 . S
H2253 C2263 0.929 . S
H2254 C2258 0.929 . S
H2255 C2264 0.929 1_655 S
C2256 H2250 0.930 1_455 S
C2256 C2257 1.367 . S
C2256 C2264 1.378 . S
C2257 C2256 1.367 . S
C2257 C2265 1.433 . S
C2258 H2254 0.929 . S
C2258 C2260 1.378 . S
C2258 C2262 1.350 . S
C2259 C2262 1.463 . S
C2259 C2264 1.350 . S
C2259 N2267 1.427 . S
C2260 H2251 0.930 . S
C2260 C2258 1.378 . S
C2260 C2261 1.367 . S
C2261 C2260 1.367 . S
C2261 C2263 1.433 1_455 S
C2262 C2258 1.350 . S
C2262 C2259 1.463 . S
C2262 N2266 1.383 1_455 S
C2263 H2253 0.929 . S
C2263 C2261 1.433 1_655 S
C2263 N2266 1.390 . S
C2264 H2255 0.929 1_455 S
C2264 C2256 1.378 . S
C2264 C2259 1.350 . S
C2265 H2252 0.929 . S
C2265 C2257 1.433 . S
C2265 N2267 1.384 . S
N2266 C2262 1.383 1_655 S
N2266 C2263 1.390 . S
N2267 C2259 1.427 . S
N2267 C2265 1.384 . S
H2268 C2274 0.930 . S
H2269 C2278 0.930 . S
H2270 C2283 0.929 . S
H2271 C2281 0.929 . S
H2272 C2276 0.929 . S
H2273 C2282 0.929 . S
C2274 H2268 0.930 . S
C2274 C2275 1.367 . S
C2274 C2282 1.378 . S
C2275 C2274 1.367 . S
C2275 C2283 1.433 . S
C2276 H2272 0.929 . S
C2276 C2278 1.378 . S
C2276 C2280 1.350 . S
C2277 C2280 1.463 . S
C2277 C2282 1.350 . S
C2277 N2285 1.427 . S
C2278 H2269 0.930 . S
C2278 C2276 1.378 . S
C2278 C2279 1.367 . S
C2279 C2278 1.367 . S
C2279 C2281 1.433 . S
C2280 C2276 1.350 . S
C2280 C2277 1.463 . S
C2280 N2284 1.427 . S
C2281 H2271 0.929 . S
C2281 C2279 1.433 . S
C2281 N2284 1.384 . S
C2282 H2273 0.929 . S
C2282 C2274 1.378 . S
C2282 C2277 1.350 . S
C2283 H2270 0.929 . S
C2283 C2275 1.433 . S
C2283 N2285 1.384 . S
N2284 C2280 1.427 . S
N2284 C2281 1.384 . S
N2285 C2277 1.427 . S
N2285 C2283 1.384 . S
H2286 C2292 0.930 . S
H2287 C2296 0.930 . S
H2288 C2301 0.929 . S
H2289 C2299 0.955 . S
H2290 C2294 0.929 . S
H2291 C2300 0.929 . S
C2292 H2286 0.930 . S
C2292 C2293 1.367 . S
C2292 C2300 1.378 . S
C2293 C2292 1.367 . S
C2293 C2301 1.433 . S
C2294 H2290 0.929 . S
C2294 C2296 1.378 . S
C2294 C2298 1.350 . S
C2295 C2298 1.463 . S
C2295 C2300 1.350 . S
C2295 N2303 1.427 . S
C2296 H2287 0.930 . S
C2296 C2294 1.378 . S
C2296 C2297 1.367 . S
C2297 C2296 1.367 . S
C2297 C2299 1.433 . S
C2298 C2294 1.350 . S
C2298 C2295 1.463 . S
C2298 N2302 1.427 . S
C2299 H2289 0.955 . S
C2299 C2297 1.433 . S
C2299 N2302 1.384 . S
C2300 H2291 0.929 . S
C2300 C2292 1.378 . S
C2300 C2295 1.350 . S
C2301 H2288 0.929 . S
C2301 C2293 1.433 . S
C2301 N2303 1.384 . S
N2302 C2298 1.427 . S
N2302 C2299 1.384 . S
N2303 C2295 1.427 . S
N2303 C2301 1.384 . S
H2304 C2310 0.930 . S
H2305 C2314 0.930 . S
H2306 C2319 0.929 . S
H2307 C2317 0.929 . S
H2308 C2312 0.929 . S
H2309 C2318 0.929 . S
C2310 H2304 0.930 . S
C2310 C2311 1.367 . S
C2310 C2318 1.378 . S
C2311 C2310 1.367 . S
C2311 C2319 1.433 . S
C2312 H2308 0.929 . S
C2312 C2314 1.378 . S
C2312 C2316 1.350 . S
C2313 C2316 1.463 . S
C2313 C2318 1.350 . S
C2313 N2321 1.427 . S
C2314 H2305 0.930 . S
C2314 C2312 1.378 . S
C2314 C2315 1.367 . S
C2315 C2314 1.367 . S
C2315 C2317 1.433 . S
C2316 C2312 1.350 . S
C2316 C2313 1.463 . S
C2316 N2320 1.427 . S
C2317 H2307 0.929 . S
C2317 C2315 1.433 . S
C2317 N2320 1.384 . S
C2318 H2309 0.929 . S
C2318 C2310 1.378 . S
C2318 C2313 1.350 . S
C2319 H2306 0.929 . S
C2319 C2311 1.433 . S
C2319 N2321 1.384 . S
N2320 C2316 1.427 . S
N2320 C2317 1.384 . S
N2321 C2313 1.427 . S
N2321 C2319 1.384 . S
H2322 C2328 0.930 . S
H2323 C2332 0.930 . S
H2324 C2337 0.929 . S
H2325 C2335 0.929 . S
H2326 C2330 0.929 . S
H2327 C2336 0.929 . S
C2328 H2322 0.930 . S
C2328 C2329 1.367 . S
C2328 C2336 1.378 . S
C2329 C2328 1.367 . S
C2329 C2337 1.433 . S
C2330 H2326 0.929 . S
C2330 C2332 1.378 . S
C2330 C2334 1.350 . S
C2331 C2334 1.463 . S
C2331 C2336 1.350 . S
C2331 N2339 1.427 . S
C2332 H2323 0.930 . S
C2332 C2330 1.378 . S
C2332 C2333 1.367 . S
C2333 C2332 1.367 . S
C2333 C2335 1.433 . S
C2334 C2330 1.350 . S
C2334 C2331 1.463 . S
C2334 N2338 1.427 . S
C2335 H2325 0.929 . S
C2335 C2333 1.433 . S
C2335 N2338 1.384 . S
C2336 H2327 0.929 . S
C2336 C2328 1.378 . S
C2336 C2331 1.350 . S
C2337 H2324 0.929 . S
C2337 C2329 1.433 . S
C2337 N2339 1.384 . S
N2338 C2334 1.427 . S
N2338 C2335 1.384 . S
N2339 C2331 1.427 . S
N2339 C2337 1.384 . S
H2340 C2346 0.930 . S
H2341 C2350 0.930 . S
H2342 C2355 0.929 . S
H2343 C2353 0.929 1_554 S
H2344 C2348 0.929 . S
H2345 C2354 0.950 . S
C2346 H2340 0.930 . S
C2346 C2347 1.367 . S
C2346 C2354 1.378 . S
C2347 C2346 1.367 . S
C2347 C2355 1.433 . S
C2348 H2344 0.929 . S
C2348 C2350 1.378 . S
C2348 C2352 1.350 . S
C2349 C2352 1.463 . S
C2349 C2354 1.350 . S
C2349 N2357 1.427 . S
C2350 H2341 0.930 . S
C2350 C2348 1.378 . S
C2350 C2351 1.367 . S
C2351 C2350 1.367 . S
C2351 C2353 1.433 . S
C2352 C2348 1.350 . S
C2352 C2349 1.463 . S
C2352 N2356 1.427 . S
C2353 H2343 0.929 1_556 S
C2353 C2351 1.433 . S
C2353 N2356 1.384 . S
C2354 H2345 0.950 . S
C2354 C2346 1.378 . S
C2354 C2349 1.350 . S
C2355 H2342 0.929 . S
C2355 C2347 1.433 . S
C2355 N2357 1.384 . S
N2356 C2352 1.427 . S
N2356 C2353 1.384 . S
N2357 C2349 1.427 . S
N2357 C2355 1.384 . S
H2358 C2364 0.930 . S
H2359 C2368 0.930 . S
H2360 C2373 0.929 . S
H2361 C2371 0.929 . S
H2362 C2366 0.929 . S
H2363 C2372 0.929 . S
C2364 H2358 0.930 . S
C2364 C2365 1.367 . S
C2364 C2372 1.378 . S
C2365 C2364 1.367 . S
C2365 C2373 1.433 . S
C2366 H2362 0.929 . S
C2366 C2368 1.378 . S
C2366 C2370 1.350 . S
C2367 C2370 1.463 . S
C2367 C2372 1.350 . S
C2367 N2375 1.427 . S
C2368 H2359 0.930 . S
C2368 C2366 1.378 . S
C2368 C2369 1.367 . S
C2369 C2368 1.367 . S
C2369 C2371 1.433 . S
C2370 C2366 1.350 . S
C2370 C2367 1.463 . S
C2370 N2374 1.427 . S
C2371 H2361 0.929 . S
C2371 C2369 1.433 . S
C2371 N2374 1.384 . S
C2372 H2363 0.929 . S
C2372 C2364 1.378 . S
C2372 C2367 1.350 . S
C2373 H2360 0.929 . S
C2373 C2365 1.433 . S
C2373 N2375 1.384 . S
N2374 C2370 1.427 . S
N2374 C2371 1.384 . S
N2375 C2367 1.427 . S
N2375 C2373 1.384 . S
H2376 C2382 0.930 . S
H2377 C2386 0.930 . S
H2378 C2391 0.929 . S
H2379 C2389 0.929 . S
H2380 C2384 0.929 . S
H2381 C2390 0.929 . S
C2382 H2376 0.930 . S
C2382 C2383 1.367 . S
C2382 C2390 1.378 . S
C2383 C2382 1.367 . S
C2383 C2391 1.433 . S
C2384 H2380 0.929 . S
C2384 C2386 1.378 . S
C2384 C2388 1.350 . S
C2385 C2388 1.463 . S
C2385 C2390 1.350 . S
C2385 N2393 1.427 . S
C2386 H2377 0.930 . S
C2386 C2384 1.378 . S
C2386 C2387 1.367 . S
C2387 C2386 1.367 . S
C2387 C2389 1.433 . S
C2388 C2384 1.350 . S
C2388 C2385 1.463 . S
C2388 N2392 1.427 . S
C2389 H2379 0.929 . S
C2389 C2387 1.433 . S
C2389 N2392 1.384 . S
C2390 H2381 0.929 . S
C2390 C2382 1.378 . S
C2390 C2385 1.350 . S
C2391 H2378 0.929 . S
C2391 C2383 1.433 . S
C2391 N2393 1.384 . S
N2392 C2388 1.427 . S
N2392 C2389 1.384 . S
N2393 C2385 1.427 . S
N2393 C2391 1.384 . S
H2394 C2400 0.930 . S
H2395 C2404 0.930 . S
H2396 C2409 0.929 . S
H2397 C2407 0.929 . S
H2398 C2402 0.929 . S
H2399 C2408 0.929 . S
C2400 H2394 0.930 . S
C2400 C2401 1.367 . S
C2400 C2408 1.378 . S
C2401 C2400 1.367 . S
C2401 C2409 1.433 . S
C2402 H2398 0.929 . S
C2402 C2404 1.378 . S
C2402 C2406 1.350 . S
C2403 C2406 1.463 . S
C2403 C2408 1.350 . S
C2403 N2411 1.427 . S
C2404 H2395 0.930 . S
C2404 C2402 1.378 . S
C2404 C2405 1.367 . S
C2405 C2404 1.367 . S
C2405 C2407 1.433 . S
C2406 C2402 1.350 . S
C2406 C2403 1.463 . S
C2406 N2410 1.427 . S
C2407 H2397 0.929 . S
C2407 C2405 1.433 . S
C2407 N2410 1.384 . S
C2408 H2399 0.929 . S
C2408 C2400 1.378 . S
C2408 C2403 1.350 . S
C2409 H2396 0.929 . S
C2409 C2401 1.433 . S
C2409 N2411 1.384 . S
N2410 C2406 1.427 . S
N2410 C2407 1.384 . S
N2411 C2403 1.427 . S
N2411 C2409 1.384 . S
H2412 C2418 0.930 . S
H2413 C2422 0.930 . S
H2414 C2427 0.929 . S
H2415 C2425 0.929 . S
H2416 C2420 0.929 . S
H2417 C2426 0.929 . S
C2418 H2412 0.930 . S
C2418 C2419 1.367 . S
C2418 C2426 1.378 . S
C2419 C2418 1.367 . S
C2419 C2427 1.433 . S
C2420 H2416 0.929 . S
C2420 C2422 1.378 . S
C2420 C2424 1.350 . S
C2421 C2424 1.463 . S
C2421 C2426 1.350 . S
C2421 N2429 1.427 . S
C2422 H2413 0.930 . S
C2422 C2420 1.378 . S
C2422 C2423 1.367 . S
C2423 C2422 1.367 . S
C2423 C2425 1.433 . S
C2424 C2420 1.350 . S
C2424 C2421 1.463 . S
C2424 N2428 1.427 . S
C2425 H2415 0.929 . S
C2425 C2423 1.433 . S
C2425 N2428 1.384 . S
C2426 H2417 0.929 . S
C2426 C2418 1.378 . S
C2426 C2421 1.350 . S
C2427 H2414 0.929 . S
C2427 C2419 1.433 . S
C2427 N2429 1.384 . S
N2428 C2424 1.427 . S
N2428 C2425 1.384 . S
N2429 C2421 1.427 . S
N2429 C2427 1.384 . S
H2430 C2436 0.930 . S
H2431 C2440 0.930 . S
H2432 C2445 0.929 . S
H2433 C2443 0.929 . S
H2434 C2438 0.929 . S
H2435 C2444 0.929 . S
C2436 H2430 0.930 . S
C2436 C2437 1.367 . S
C2436 C2444 1.378 . S
C2437 C2436 1.367 . S
C2437 C2445 1.433 . S
C2438 H2434 0.929 . S
C2438 C2440 1.378 . S
C2438 C2442 1.350 . S
C2439 C2442 1.463 . S
C2439 C2444 1.350 . S
C2439 N2447 1.427 . S
C2440 H2431 0.930 . S
C2440 C2438 1.378 . S
C2440 C2441 1.367 . S
C2441 C2440 1.367 . S
C2441 C2443 1.433 . S
C2442 C2438 1.350 . S
C2442 C2439 1.463 . S
C2442 N2446 1.427 . S
C2443 H2433 0.929 . S
C2443 C2441 1.433 . S
C2443 N2446 1.384 . S
C2444 H2435 0.929 . S
C2444 C2436 1.378 . S
C2444 C2439 1.350 . S
C2445 H2432 0.929 . S
C2445 C2437 1.433 . S
C2445 N2447 1.384 . S
N2446 C2442 1.427 . S
N2446 C2443 1.384 . S
N2447 C2439 1.427 . S
N2447 C2445 1.384 . S
H2448 C2454 0.930 . S
H2449 C2458 0.930 . S
H2450 C2463 0.929 . S
H2451 C2461 0.929 . S
H2452 C2456 0.929 . S
H2453 C2462 0.929 . S
C2454 H2448 0.930 . S
C2454 C2455 1.367 . S
C2454 C2462 1.378 . S
C2455 C2454 1.367 . S
C2455 C2463 1.433 . S
C2456 H2452 0.929 . S
C2456 C2458 1.378 . S
C2456 C2460 1.350 . S
C2457 C2460 1.463 . S
C2457 C2462 1.350 . S
C2457 N2465 1.427 . S
C2458 H2449 0.930 . S
C2458 C2456 1.378 . S
C2458 C2459 1.367 . S
C2459 C2458 1.367 . S
C2459 C2461 1.433 . S
C2460 C2456 1.350 . S
C2460 C2457 1.463 . S
C2460 N2464 1.427 . S
C2461 H2451 0.929 . S
C2461 C2459 1.433 . S
C2461 N2464 1.384 . S
C2462 H2453 0.929 . S
C2462 C2454 1.378 . S
C2462 C2457 1.350 . S
C2463 H2450 0.929 . S
C2463 C2455 1.433 . S
C2463 N2465 1.384 . S
N2464 C2460 1.427 . S
N2464 C2461 1.384 . S
N2465 C2457 1.427 . S
N2465 C2463 1.384 . S
H2466 C2472 0.926 . S
H2467 C2476 0.930 . S
H2468 C2481 0.929 . S
H2469 C2479 0.908 1_565 S
H2470 C2474 0.929 . S
H2471 C2480 0.929 1_565 S
C2472 H2466 0.926 . S
C2472 C2473 1.367 . S
C2472 C2480 1.378 . S
C2473 C2472 1.367 . S
C2473 C2481 1.433 . S
C2474 H2470 0.929 . S
C2474 C2476 1.378 . S
C2474 C2478 1.350 . S
C2475 C2478 1.463 . S
C2475 C2480 1.350 . S
C2475 N2483 1.427 . S
C2476 H2467 0.930 . S
C2476 C2474 1.378 . S
C2476 C2477 1.367 . S
C2477 C2476 1.367 . S
C2477 C2479 1.453 . S
C2478 C2474 1.350 . S
C2478 C2475 1.463 . S
C2478 N2482 1.427 . S
C2479 H2469 0.908 1_545 S
C2479 C2477 1.453 . S
C2479 N2482 1.387 . S
C2480 H2471 0.929 1_545 S
C2480 C2472 1.378 . S
C2480 C2475 1.350 . S
C2481 H2468 0.929 . S
C2481 C2473 1.433 . S
C2481 N2483 1.384 . S
N2482 C2478 1.427 . S
N2482 C2479 1.387 . S
N2483 C2475 1.427 . S
N2483 C2481 1.384 . S
H2484 C2490 0.930 . S
H2485 C2494 0.930 . S
H2486 C2499 0.929 . S
H2487 C2497 0.929 . S
H2488 C2492 0.929 . S
H2489 C2498 0.929 . S
C2490 H2484 0.930 . S
C2490 C2491 1.367 . S
C2490 C2498 1.378 . S
C2491 C2490 1.367 . S
C2491 C2499 1.433 . S
C2492 H2488 0.929 . S
C2492 C2494 1.378 . S
C2492 C2496 1.350 . S
C2493 C2496 1.463 . S
C2493 C2498 1.350 . S
C2493 N2501 1.427 . S
C2494 H2485 0.930 . S
C2494 C2492 1.378 . S
C2494 C2495 1.367 . S
C2495 C2494 1.367 . S
C2495 C2497 1.433 . S
C2496 C2492 1.350 . S
C2496 C2493 1.463 . S
C2496 N2500 1.427 . S
C2497 H2487 0.929 . S
C2497 C2495 1.433 . S
C2497 N2500 1.384 . S
C2498 H2489 0.929 . S
C2498 C2490 1.378 . S
C2498 C2493 1.350 . S
C2499 H2486 0.929 . S
C2499 C2491 1.433 . S
C2499 N2501 1.384 . S
N2500 C2496 1.427 . S
N2500 C2497 1.384 . S
N2501 C2493 1.427 . S
N2501 C2499 1.384 . S
H2502 C2508 0.930 . S
H2503 C2512 0.930 . S
H2504 C2517 0.929 . S
H2505 C2515 0.929 . S
H2506 C2510 0.929 . S
H2507 C2516 0.929 . S
C2508 H2502 0.930 . S
C2508 C2509 1.367 . S
C2508 C2516 1.378 . S
C2509 C2508 1.367 . S
C2509 C2517 1.433 . S
C2510 H2506 0.929 . S
C2510 C2512 1.378 . S
C2510 C2514 1.350 . S
C2511 C2514 1.463 . S
C2511 C2516 1.350 . S
C2511 N2519 1.427 . S
C2512 H2503 0.930 . S
C2512 C2510 1.378 . S
C2512 C2513 1.367 . S
C2513 C2512 1.367 . S
C2513 C2515 1.433 . S
C2514 C2510 1.350 . S
C2514 C2511 1.463 . S
C2514 N2518 1.427 . S
C2515 H2505 0.929 . S
C2515 C2513 1.433 . S
C2515 N2518 1.384 . S
C2516 H2507 0.929 . S
C2516 C2508 1.378 . S
C2516 C2511 1.350 . S
C2517 H2504 0.929 . S
C2517 C2509 1.433 . S
C2517 N2519 1.384 . S
N2518 C2514 1.427 . S
N2518 C2515 1.384 . S
N2519 C2511 1.427 . S
N2519 C2517 1.384 . S
H2520 C2526 0.930 . S
H2521 C2530 0.930 . S
H2522 C2535 0.929 . S
H2523 C2533 0.929 . S
H2524 C2528 0.929 . S
H2525 C2534 0.929 . S
C2526 H2520 0.930 . S
C2526 C2527 1.367 . S
C2526 C2534 1.378 . S
C2527 C2526 1.367 . S
C2527 C2535 1.433 . S
C2528 H2524 0.929 . S
C2528 C2530 1.378 . S
C2528 C2532 1.350 . S
C2529 C2532 1.463 . S
C2529 C2534 1.350 . S
C2529 N2537 1.427 . S
C2530 H2521 0.930 . S
C2530 C2528 1.378 . S
C2530 C2531 1.367 . S
C2531 C2530 1.367 . S
C2531 C2533 1.433 . S
C2532 C2528 1.350 . S
C2532 C2529 1.463 . S
C2532 N2536 1.427 . S
C2533 H2523 0.929 . S
C2533 C2531 1.433 . S
C2533 N2536 1.384 . S
C2534 H2525 0.929 . S
C2534 C2526 1.378 . S
C2534 C2529 1.350 . S
C2535 H2522 0.929 . S
C2535 C2527 1.433 . S
C2535 N2537 1.384 . S
N2536 C2532 1.427 . S
N2536 C2533 1.384 . S
N2537 C2529 1.427 . S
N2537 C2535 1.384 . S
H2538 C2544 0.944 . S
H2539 C2548 0.930 . S
H2540 C2553 0.929 . S
H2541 C2551 0.895 1_565 S
H2542 C2546 0.929 . S
H2543 C2552 0.929 1_565 S
C2544 H2538 0.944 . S
C2544 C2545 1.367 . S
C2544 C2552 1.378 . S
C2545 C2544 1.367 . S
C2545 C2553 1.433 . S
C2546 H2542 0.929 . S
C2546 C2548 1.378 . S
C2546 C2550 1.350 . S
C2547 C2550 1.463 . S
C2547 C2552 1.350 . S
C2547 N2555 1.427 . S
C2548 H2539 0.930 . S
C2548 C2546 1.378 . S
C2548 C2549 1.367 . S
C2549 C2548 1.367 . S
C2549 C2551 1.465 . S
C2550 C2546 1.350 . S
C2550 C2547 1.463 . S
C2550 N2554 1.427 . S
C2551 H2541 0.895 1_545 S
C2551 C2549 1.465 . S
C2551 N2554 1.390 . S
C2552 H2543 0.929 1_545 S
C2552 C2544 1.378 . S
C2552 C2547 1.350 . S
C2553 H2540 0.929 . S
C2553 C2545 1.433 . S
C2553 N2555 1.384 . S
N2554 C2550 1.427 . S
N2554 C2551 1.390 . S
N2555 C2547 1.427 . S
N2555 C2553 1.384 . S
H2556 C2562 0.930 . S
H2557 C2566 0.930 . S
H2558 C2571 0.929 . S
H2559 C2569 0.929 . S
H2560 C2564 0.929 . S
H2561 C2570 0.929 . S
C2562 H2556 0.930 . S
C2562 C2563 1.367 . S
C2562 C2570 1.378 . S
C2563 C2562 1.367 . S
C2563 C2571 1.433 . S
C2564 H2560 0.929 . S
C2564 C2566 1.378 . S
C2564 C2568 1.350 . S
C2565 C2568 1.463 . S
C2565 C2570 1.350 . S
C2565 N2573 1.427 . S
C2566 H2557 0.930 . S
C2566 C2564 1.378 . S
C2566 C2567 1.367 . S
C2567 C2566 1.367 . S
C2567 C2569 1.433 . S
C2568 C2564 1.350 . S
C2568 C2565 1.463 . S
C2568 N2572 1.427 . S
C2569 H2559 0.929 . S
C2569 C2567 1.433 . S
C2569 N2572 1.384 . S
C2570 H2561 0.929 . S
C2570 C2562 1.378 . S
C2570 C2565 1.350 . S
C2571 H2558 0.929 . S
C2571 C2563 1.433 . S
C2571 N2573 1.384 . S
N2572 C2568 1.427 . S
N2572 C2569 1.384 . S
N2573 C2565 1.427 . S
N2573 C2571 1.384 . S
H2574 C2580 0.930 . S
H2575 C2584 0.930 . S
H2576 C2589 0.929 . S
H2577 C2587 0.929 . S
H2578 C2582 0.929 . S
H2579 C2588 0.929 . S
C2580 H2574 0.930 . S
C2580 C2581 1.367 . S
C2580 C2588 1.378 . S
C2581 C2580 1.367 . S
C2581 C2589 1.433 . S
C2582 H2578 0.929 . S
C2582 C2584 1.378 . S
C2582 C2586 1.350 . S
C2583 C2586 1.463 . S
C2583 C2588 1.350 . S
C2583 N2591 1.427 . S
C2584 H2575 0.930 . S
C2584 C2582 1.378 . S
C2584 C2585 1.367 . S
C2585 C2584 1.367 . S
C2585 C2587 1.433 . S
C2586 C2582 1.350 . S
C2586 C2583 1.463 . S
C2586 N2590 1.427 . S
C2587 H2577 0.929 . S
C2587 C2585 1.433 . S
C2587 N2590 1.384 . S
C2588 H2579 0.929 . S
C2588 C2580 1.378 . S
C2588 C2583 1.350 . S
C2589 H2576 0.929 . S
C2589 C2581 1.433 . S
C2589 N2591 1.384 . S
N2590 C2586 1.427 . S
N2590 C2587 1.384 . S
N2591 C2583 1.427 . S
N2591 C2589 1.384 . S
H2592 C2598 0.930 . S
H2593 C2602 0.930 . S
H2594 C2607 0.929 . S
H2595 C2605 0.929 . S
H2596 C2600 0.929 . S
H2597 C2606 0.929 . S
C2598 H2592 0.930 . S
C2598 C2599 1.367 . S
C2598 C2606 1.378 . S
C2599 C2598 1.367 . S
C2599 C2607 1.433 . S
C2600 H2596 0.929 . S
C2600 C2602 1.378 . S
C2600 C2604 1.350 . S
C2601 C2604 1.463 . S
C2601 C2606 1.350 . S
C2601 N2609 1.427 . S
C2602 H2593 0.930 . S
C2602 C2600 1.378 . S
C2602 C2603 1.367 . S
C2603 C2602 1.367 . S
C2603 C2605 1.433 . S
C2604 C2600 1.350 . S
C2604 C2601 1.463 . S
C2604 N2608 1.427 . S
C2605 H2595 0.929 . S
C2605 C2603 1.433 . S
C2605 N2608 1.384 . S
C2606 H2597 0.929 . S
C2606 C2598 1.378 . S
C2606 C2601 1.350 . S
C2607 H2594 0.929 . S
C2607 C2599 1.433 . S
C2607 N2609 1.384 . S
N2608 C2604 1.427 . S
N2608 C2605 1.384 . S
N2609 C2601 1.427 . S
N2609 C2607 1.384 . S
H2610 C2616 0.932 . S
H2611 C2620 0.930 . S
H2612 C2625 0.929 . S
H2613 C2623 0.905 1_455 S
H2614 C2618 0.929 . S
H2615 C2624 0.929 1_455 S
C2616 H2610 0.932 . S
C2616 C2617 1.367 . S
C2616 C2624 1.378 . S
C2617 C2616 1.367 . S
C2617 C2625 1.433 . S
C2618 H2614 0.929 . S
C2618 C2620 1.378 . S
C2618 C2622 1.350 . S
C2619 C2622 1.463 . S
C2619 C2624 1.350 . S
C2619 N2627 1.427 . S
C2620 H2611 0.930 . S
C2620 C2618 1.378 . S
C2620 C2621 1.367 . S
C2621 C2620 1.367 . S
C2621 C2623 1.456 . S
C2622 C2618 1.350 . S
C2622 C2619 1.463 . S
C2622 N2626 1.427 . S
C2623 H2613 0.905 1_655 S
C2623 C2621 1.456 . S
C2623 N2626 1.388 . S
C2624 H2615 0.929 1_655 S
C2624 C2616 1.378 . S
C2624 C2619 1.350 . S
C2625 H2612 0.929 . S
C2625 C2617 1.433 . S
C2625 N2627 1.384 . S
N2626 C2622 1.427 . S
N2626 C2623 1.388 . S
N2627 C2619 1.427 . S
N2627 C2625 1.384 . S
H2628 C2634 0.930 . S
H2629 C2638 0.930 . S
H2630 C2643 0.929 . S
H2631 C2641 0.929 . S
H2632 C2636 0.929 . S
H2633 C2642 0.929 . S
C2634 H2628 0.930 . S
C2634 C2635 1.367 . S
C2634 C2642 1.378 . S
C2635 C2634 1.367 . S
C2635 C2643 1.433 . S
C2636 H2632 0.929 . S
C2636 C2638 1.378 . S
C2636 C2640 1.350 . S
C2637 C2640 1.463 . S
C2637 C2642 1.350 . S
C2637 N2645 1.427 . S
C2638 H2629 0.930 . S
C2638 C2636 1.378 . S
C2638 C2639 1.367 . S
C2639 C2638 1.367 . S
C2639 C2641 1.433 . S
C2640 C2636 1.350 . S
C2640 C2637 1.463 . S
C2640 N2644 1.427 . S
C2641 H2631 0.929 . S
C2641 C2639 1.433 . S
C2641 N2644 1.384 . S
C2642 H2633 0.929 . S
C2642 C2634 1.378 . S
C2642 C2637 1.350 . S
C2643 H2630 0.929 . S
C2643 C2635 1.433 . S
C2643 N2645 1.384 . S
N2644 C2640 1.427 . S
N2644 C2641 1.384 . S
N2645 C2637 1.427 . S
N2645 C2643 1.384 . S
H2646 C2652 0.930 1_655 S
H2647 C2656 0.930 . S
H2648 C2661 0.929 . S
H2649 C2659 0.929 . S
H2650 C2654 0.929 . S
H2651 C2660 0.929 1_655 S
C2652 H2646 0.930 1_455 S
C2652 C2653 1.367 . S
C2652 C2660 1.378 . S
C2653 C2652 1.367 . S
C2653 C2661 1.433 . S
C2654 H2650 0.929 . S
C2654 C2656 1.378 . S
C2654 C2658 1.350 . S
C2655 C2658 1.463 . S
C2655 C2660 1.350 . S
C2655 N2663 1.427 . S
C2656 H2647 0.930 . S
C2656 C2654 1.378 . S
C2656 C2657 1.367 . S
C2657 C2656 1.367 . S
C2657 C2659 1.433 1_455 S
C2658 C2654 1.350 . S
C2658 C2655 1.463 . S
C2658 N2662 1.427 1_455 S
C2659 H2649 0.929 . S
C2659 C2657 1.433 1_655 S
C2659 N2662 1.384 . S
C2660 H2651 0.929 1_455 S
C2660 C2652 1.378 . S
C2660 C2655 1.350 . S
C2661 H2648 0.929 . S
C2661 C2653 1.433 . S
C2661 N2663 1.384 . S
N2662 C2658 1.427 1_655 S
N2662 C2659 1.384 . S
N2663 C2655 1.427 . S
N2663 C2661 1.384 . S
H2664 C2670 0.930 . S
H2665 C2674 0.930 . S
H2666 C2679 0.929 . S
H2667 C2677 0.929 . S
H2668 C2672 0.929 . S
H2669 C2678 0.929 . S
C2670 H2664 0.930 . S
C2670 C2671 1.367 . S
C2670 C2678 1.378 . S
C2671 C2670 1.367 . S
C2671 C2679 1.433 . S
C2672 H2668 0.929 . S
C2672 C2674 1.378 . S
C2672 C2676 1.350 . S
C2673 C2676 1.463 . S
C2673 C2678 1.350 . S
C2673 N2681 1.427 . S
C2674 H2665 0.930 . S
C2674 C2672 1.378 . S
C2674 C2675 1.367 . S
C2675 C2674 1.367 . S
C2675 C2677 1.433 . S
C2676 C2672 1.350 . S
C2676 C2673 1.463 . S
C2676 N2680 1.427 . S
C2677 H2667 0.929 . S
C2677 C2675 1.433 . S
C2677 N2680 1.384 . S
C2678 H2669 0.929 . S
C2678 C2670 1.378 . S
C2678 C2673 1.350 . S
C2679 H2666 0.929 . S
C2679 C2671 1.433 . S
C2679 N2681 1.384 . S
N2680 C2676 1.427 . S
N2680 C2677 1.384 . S
N2681 C2673 1.427 . S
N2681 C2679 1.384 . S
H2682 C2688 0.930 . S
H2683 C2692 0.930 . S
H2684 C2697 0.929 . S
H2685 C2695 0.929 . S
H2686 C2690 0.929 . S
H2687 C2696 0.929 . S
C2688 H2682 0.930 . S
C2688 C2689 1.367 . S
C2688 C2696 1.378 . S
C2689 C2688 1.367 . S
C2689 C2697 1.433 . S
C2690 H2686 0.929 . S
C2690 C2692 1.378 . S
C2690 C2694 1.350 . S
C2691 C2694 1.463 . S
C2691 C2696 1.350 . S
C2691 N2699 1.427 . S
C2692 H2683 0.930 . S
C2692 C2690 1.378 . S
C2692 C2693 1.367 . S
C2693 C2692 1.367 . S
C2693 C2695 1.433 . S
C2694 C2690 1.350 . S
C2694 C2691 1.463 . S
C2694 N2698 1.427 . S
C2695 H2685 0.929 . S
C2695 C2693 1.433 . S
C2695 N2698 1.384 . S
C2696 H2687 0.929 . S
C2696 C2688 1.378 . S
C2696 C2691 1.350 . S
C2697 H2684 0.929 . S
C2697 C2689 1.433 . S
C2697 N2699 1.384 . S
N2698 C2694 1.427 . S
N2698 C2695 1.384 . S
N2699 C2691 1.427 . S
N2699 C2697 1.384 . S
H2700 C2706 0.930 . S
H2701 C2710 0.930 . S
H2702 C2715 0.929 . S
H2703 C2713 0.929 . S
H2704 C2708 0.929 . S
H2705 C2714 0.929 . S
C2706 H2700 0.930 . S
C2706 C2707 1.367 . S
C2706 C2714 1.378 . S
C2707 C2706 1.367 . S
C2707 C2715 1.433 . S
C2708 H2704 0.929 . S
C2708 C2710 1.378 . S
C2708 C2712 1.350 . S
C2709 C2712 1.463 . S
C2709 C2714 1.350 . S
C2709 N2717 1.427 . S
C2710 H2701 0.930 . S
C2710 C2708 1.378 . S
C2710 C2711 1.367 . S
C2711 C2710 1.367 . S
C2711 C2713 1.433 . S
C2712 C2708 1.350 . S
C2712 C2709 1.463 . S
C2712 N2716 1.427 . S
C2713 H2703 0.929 . S
C2713 C2711 1.433 . S
C2713 N2716 1.384 . S
C2714 H2705 0.929 . S
C2714 C2706 1.378 . S
C2714 C2709 1.350 . S
C2715 H2702 0.929 . S
C2715 C2707 1.433 . S
C2715 N2717 1.384 . S
N2716 C2712 1.427 . S
N2716 C2713 1.384 . S
N2717 C2709 1.427 . S
N2717 C2715 1.384 . S
H2718 C2724 0.930 . S
H2719 C2728 0.930 . S
H2720 C2733 0.929 . S
H2721 C2731 0.929 . S
H2722 C2726 0.929 . S
H2723 C2732 0.929 . S
C2724 H2718 0.930 . S
C2724 C2725 1.367 . S
C2724 C2732 1.378 . S
C2725 C2724 1.367 . S
C2725 C2733 1.433 . S
C2726 H2722 0.929 . S
C2726 C2728 1.378 . S
C2726 C2730 1.350 . S
C2727 C2730 1.463 . S
C2727 C2732 1.350 . S
C2727 N2735 1.427 . S
C2728 H2719 0.930 . S
C2728 C2726 1.378 . S
C2728 C2729 1.367 . S
C2729 C2728 1.367 . S
C2729 C2731 1.433 . S
C2730 C2726 1.350 . S
C2730 C2727 1.463 . S
C2730 N2734 1.427 . S
C2731 H2721 0.929 . S
C2731 C2729 1.433 . S
C2731 N2734 1.384 . S
C2732 H2723 0.929 . S
C2732 C2724 1.378 . S
C2732 C2727 1.350 . S
C2733 H2720 0.929 . S
C2733 C2725 1.433 . S
C2733 N2735 1.384 . S
N2734 C2730 1.427 . S
N2734 C2731 1.384 . S
N2735 C2727 1.427 . S
N2735 C2733 1.384 . S
H2736 C2742 0.930 . S
H2737 C2746 0.930 . S
H2738 C2751 0.929 . S
H2739 C2749 0.929 . S
H2740 C2744 0.929 . S
H2741 C2750 0.929 . S
C2742 H2736 0.930 . S
C2742 C2743 1.367 . S
C2742 C2750 1.378 . S
C2743 C2742 1.367 . S
C2743 C2751 1.433 . S
C2744 H2740 0.929 . S
C2744 C2746 1.378 . S
C2744 C2748 1.350 . S
C2745 C2748 1.463 . S
C2745 C2750 1.350 . S
C2745 N2753 1.427 . S
C2746 H2737 0.930 . S
C2746 C2744 1.378 . S
C2746 C2747 1.367 . S
C2747 C2746 1.367 . S
C2747 C2749 1.433 . S
C2748 C2744 1.350 . S
C2748 C2745 1.463 . S
C2748 N2752 1.427 . S
C2749 H2739 0.929 . S
C2749 C2747 1.433 . S
C2749 N2752 1.384 . S
C2750 H2741 0.929 . S
C2750 C2742 1.378 . S
C2750 C2745 1.350 . S
C2751 H2738 0.929 . S
C2751 C2743 1.433 . S
C2751 N2753 1.384 . S
N2752 C2748 1.427 . S
N2752 C2749 1.384 . S
N2753 C2745 1.427 . S
N2753 C2751 1.384 . S
H2754 C2760 0.930 . S
H2755 C2764 0.930 . S
H2756 C2769 0.929 . S
H2757 C2767 0.929 . S
H2758 C2762 0.929 . S
H2759 C2768 0.929 . S
C2760 H2754 0.930 . S
C2760 C2761 1.367 . S
C2760 C2768 1.378 . S
C2761 C2760 1.367 . S
C2761 C2769 1.433 . S
C2762 H2758 0.929 . S
C2762 C2764 1.378 . S
C2762 C2766 1.350 . S
C2763 C2766 1.463 . S
C2763 C2768 1.350 . S
C2763 N2771 1.427 . S
C2764 H2755 0.930 . S
C2764 C2762 1.378 . S
C2764 C2765 1.367 . S
C2765 C2764 1.367 . S
C2765 C2767 1.433 . S
C2766 C2762 1.350 . S
C2766 C2763 1.463 . S
C2766 N2770 1.427 . S
C2767 H2757 0.929 . S
C2767 C2765 1.433 . S
C2767 N2770 1.384 . S
C2768 H2759 0.929 . S
C2768 C2760 1.378 . S
C2768 C2763 1.350 . S
C2769 H2756 0.929 . S
C2769 C2761 1.433 . S
C2769 N2771 1.384 . S
N2770 C2766 1.427 . S
N2770 C2767 1.384 . S
N2771 C2763 1.427 . S
N2771 C2769 1.384 . S
H2772 C2778 0.930 . S
H2773 C2782 0.930 . S
H2774 C2787 0.929 . S
H2775 C2785 0.929 . S
H2776 C2780 0.929 . S
H2777 C2786 0.929 . S
C2778 H2772 0.930 . S
C2778 C2779 1.367 . S
C2778 C2786 1.378 . S
C2779 C2778 1.367 . S
C2779 C2787 1.433 . S
C2780 H2776 0.929 . S
C2780 C2782 1.378 . S
C2780 C2784 1.350 . S
C2781 C2784 1.463 . S
C2781 C2786 1.350 . S
C2781 N2789 1.427 . S
C2782 H2773 0.930 . S
C2782 C2780 1.378 . S
C2782 C2783 1.367 . S
C2783 C2782 1.367 . S
C2783 C2785 1.433 . S
C2784 C2780 1.350 . S
C2784 C2781 1.463 . S
C2784 N2788 1.427 . S
C2785 H2775 0.929 . S
C2785 C2783 1.433 . S
C2785 N2788 1.384 . S
C2786 H2777 0.929 . S
C2786 C2778 1.378 . S
C2786 C2781 1.350 . S
C2787 H2774 0.929 . S
C2787 C2779 1.433 . S
C2787 N2789 1.384 . S
N2788 C2784 1.427 . S
N2788 C2785 1.384 . S
N2789 C2781 1.427 . S
N2789 C2787 1.384 . S
H2790 C2796 0.930 . S
H2791 C2800 0.930 . S
H2792 C2805 0.929 . S
H2793 C2803 0.929 . S
H2794 C2798 0.929 . S
H2795 C2804 0.929 . S
C2796 H2790 0.930 . S
C2796 C2797 1.367 . S
C2796 C2804 1.378 . S
C2797 C2796 1.367 . S
C2797 C2805 1.433 . S
C2798 H2794 0.929 . S
C2798 C2800 1.378 . S
C2798 C2802 1.350 . S
C2799 C2802 1.463 . S
C2799 C2804 1.350 . S
C2799 N2807 1.427 . S
C2800 H2791 0.930 . S
C2800 C2798 1.378 . S
C2800 C2801 1.367 . S
C2801 C2800 1.367 . S
C2801 C2803 1.433 . S
C2802 C2798 1.350 . S
C2802 C2799 1.463 . S
C2802 N2806 1.427 . S
C2803 H2793 0.929 . S
C2803 C2801 1.433 . S
C2803 N2806 1.384 . S
C2804 H2795 0.929 . S
C2804 C2796 1.378 . S
C2804 C2799 1.350 . S
C2805 H2792 0.929 . S
C2805 C2797 1.433 . S
C2805 N2807 1.384 . S
N2806 C2802 1.427 . S
N2806 C2803 1.384 . S
N2807 C2799 1.427 . S
N2807 C2805 1.384 . S
H2808 C2814 0.930 . S
H2809 C2818 0.930 1_554 S
H2810 C2823 0.929 . S
H2811 C2821 0.929 . S
H2812 C2816 0.929 1_554 S
H2813 C2822 0.929 . S
C2814 H2808 0.930 . S
C2814 C2815 1.367 . S
C2814 C2822 1.378 . S
C2815 C2814 1.367 . S
C2815 C2823 1.433 . S
C2816 H2812 0.929 1_556 S
C2816 C2818 1.378 . S
C2816 C2820 1.350 . S
C2817 C2820 1.463 . S
C2817 C2822 1.350 . S
C2817 N2825 1.427 . S
C2818 H2809 0.930 1_556 S
C2818 C2816 1.378 . S
C2818 C2819 1.367 . S
C2819 C2818 1.367 . S
C2819 C2821 1.433 . S
C2820 C2816 1.350 . S
C2820 C2817 1.463 . S
C2820 N2824 1.427 . S
C2821 H2811 0.929 . S
C2821 C2819 1.433 . S
C2821 N2824 1.384 . S
C2822 H2813 0.929 . S
C2822 C2814 1.378 . S
C2822 C2817 1.350 . S
C2823 H2810 0.929 . S
C2823 C2815 1.433 . S
C2823 N2825 1.384 . S
N2824 C2820 1.427 . S
N2824 C2821 1.384 . S
N2825 C2817 1.427 . S
N2825 C2823 1.384 . S
H2826 C2832 0.930 . S
H2827 C2836 0.930 . S
H2828 C2841 0.929 . S
H2829 C2839 0.929 . S
H2830 C2834 0.929 . S
H2831 C2840 0.929 . S
C2832 H2826 0.930 . S
C2832 C2833 1.367 . S
C2832 C2840 1.378 . S
C2833 C2832 1.367 . S
C2833 C2841 1.433 . S
C2834 H2830 0.929 . S
C2834 C2836 1.378 . S
C2834 C2838 1.350 . S
C2835 C2838 1.463 . S
C2835 C2840 1.350 . S
C2835 N2843 1.427 . S
C2836 H2827 0.930 . S
C2836 C2834 1.378 . S
C2836 C2837 1.367 . S
C2837 C2836 1.367 . S
C2837 C2839 1.433 . S
C2838 C2834 1.350 . S
C2838 C2835 1.463 . S
C2838 N2842 1.427 . S
C2839 H2829 0.929 . S
C2839 C2837 1.433 . S
C2839 N2842 1.384 . S
C2840 H2831 0.929 . S
C2840 C2832 1.378 . S
C2840 C2835 1.350 . S
C2841 H2828 0.929 . S
C2841 C2833 1.433 . S
C2841 N2843 1.384 . S
N2842 C2838 1.427 . S
N2842 C2839 1.384 . S
N2843 C2835 1.427 . S
N2843 C2841 1.384 . S
H2844 C2850 0.950 . S
H2845 C2854 0.930 . S
H2846 C2859 0.929 . S
H2847 C2857 0.893 1_556 S
H2848 C2852 0.929 . S
H2849 C2858 0.929 1_556 S
C2850 H2844 0.950 . S
C2850 C2851 1.367 . S
C2850 C2858 1.378 . S
C2851 C2850 1.367 . S
C2851 C2859 1.433 . S
C2852 H2848 0.929 . S
C2852 C2854 1.378 . S
C2852 C2856 1.350 . S
C2853 C2856 1.463 . S
C2853 C2858 1.350 . S
C2853 N2861 1.427 . S
C2854 H2845 0.930 . S
C2854 C2852 1.378 . S
C2854 C2855 1.367 . S
C2855 C2854 1.367 . S
C2855 C2857 1.467 . S
C2856 C2852 1.350 . S
C2856 C2853 1.463 . S
C2856 N2860 1.427 . S
C2857 H2847 0.893 1_554 S
C2857 C2855 1.467 . S
C2857 N2860 1.390 . S
C2858 H2849 0.929 1_554 S
C2858 C2850 1.378 . S
C2858 C2853 1.350 . S
C2859 H2846 0.929 . S
C2859 C2851 1.433 . S
C2859 N2861 1.384 . S
N2860 C2856 1.427 . S
N2860 C2857 1.390 . S
N2861 C2853 1.427 . S
N2861 C2859 1.384 . S
H2862 C2868 0.930 . S
H2863 C2872 0.930 . S
H2864 C2877 0.929 . S
H2865 C2875 0.929 . S
H2866 C2870 0.929 . S
H2867 C2876 0.929 . S
C2868 H2862 0.930 . S
C2868 C2869 1.367 . S
C2868 C2876 1.378 . S
C2869 C2868 1.367 . S
C2869 C2877 1.433 . S
C2870 H2866 0.929 . S
C2870 C2872 1.378 . S
C2870 C2874 1.350 . S
C2871 C2874 1.463 . S
C2871 C2876 1.350 . S
C2871 N2879 1.427 . S
C2872 H2863 0.930 . S
C2872 C2870 1.378 . S
C2872 C2873 1.367 . S
C2873 C2872 1.367 . S
C2873 C2875 1.433 . S
C2874 C2870 1.350 . S
C2874 C2871 1.463 . S
C2874 N2878 1.427 . S
C2875 H2865 0.929 . S
C2875 C2873 1.433 . S
C2875 N2878 1.384 . S
C2876 H2867 0.929 . S
C2876 C2868 1.378 . S
C2876 C2871 1.350 . S
C2877 H2864 0.929 . S
C2877 C2869 1.433 . S
C2877 N2879 1.384 . S
N2878 C2874 1.427 . S
N2878 C2875 1.384 . S
N2879 C2871 1.427 . S
N2879 C2877 1.384 . S
C2027 C1009 1.511 . S
C2023 C331 1.502 . S
C2045 C1068 1.521 . S
C2041 C380 1.500 . S
C2059 C421 1.489 . S
C2063 C1185 1.517 . S
C2081 C1253 1.522 . S
C2077 C260 1.492 . S
C2099 C1332 1.511 . S
C2095 C620 1.488 . S
C2117 C1457 1.521 . S
C2113 C740 1.506 . S
C2131 C680 1.474 . S
C2135 C1517 1.510 . S
C2153 C1625 1.522 . S
C2149 C571 1.501 . S
C2167 C691 1.479 . S
C2171 C1721 1.516 . S
C2189 C1781 1.521 . S
C2185 C541 1.505 . S
C2203 C601 1.495 . S
C2207 C1684 1.502 . S
C2225 C1801 1.520 . S
C2221 C721 1.501 . S
C2239 C451 1.490 . S
C2243 C1869 1.517 . S
C2257 C241 1.484 . S
C2261 C1860 1.520 . S
C2275 C320 1.493 . S
C2279 C1889 1.505 . S
C2293 C391 1.502 . S
C2297 C1897 1.523 . S
C2311 C211 1.496 . S
C2315 C1281 1.517 . S
C2329 C841 1.490 . S
C2333 C1244 1.505 . S
C2351 C980 1.521 . S
C2347 C901 1.509 . S
C2369 C1077 1.511 . S
C2365 C500 1.495 . S
C2383 C271 1.484 . S
C2387 C1341 1.521 . S
C2405 C1633 1.511 . S
C2401 C661 1.477 . S
C2423 C1361 1.521 . S
C2419 C560 1.507 . S
C2441 C1545 1.522 . S
C2437 C751 1.502 . S
C2459 C1537 1.511 . S
C2455 C871 1.496 . S
C2473 C920 1.508 . S
C2477 C1605 1.520 . S
C2491 C481 1.490 . S
C2495 C1369 1.510 . S
C2513 C1420 1.522 . S
C2509 C800 1.491 . S
C2527 C200 1.496 . S
C2531 C1165 1.504 . S
C2549 C1273 1.521 . S
C2545 C20 1.499 . S
C2567 C989 1.509 . S
C2563 C80 1.471 . S
C2585 C1105 1.521 . S
C2581 C151 1.508 . S
C2599 C91 1.473 . S
C2603 C1809 1.510 . S
C2617 C121 1.503 . S
C2621 C1693 1.523 . S
C2635 C181 1.490 . S
C2639 C1772 1.511 . S
C2653 C1 1.499 . S
C2657 C1713 1.520 . S
C2675 C1957 1.510 . S
C2671 C511 1.497 . S
C2693 C1948 1.520 . S
C2689 C781 1.482 . S
C2711 C1977 1.511 . S
C2707 C860 1.493 . S
C2725 C931 1.507 . S
C2729 C1985 1.521 . S
C2743 C631 1.496 . S
C2747 C1449 1.509 . S
C2765 C1429 1.511 . S
C2761 C301 1.493 . S
C2783 C1508 1.521 . S
C2779 C361 1.502 . S
C2801 C1596 1.511 . S
C2797 C440 1.496 . S
C2815 C811 1.492 . S
C2819 C1156 1.523 . S
C2837 C1097 1.510 . S
C2833 C61 1.482 . S
C2851 C140 1.508 . S
C2855 C1193 1.520 . S
C2873 C1017 1.520 . S
C2869 C31 1.503 . S
