# Generated by pormake.
# Topology tsx, (6,3)-cn, num edge types: 1
# Building blocks:
#     Node 0, Type 0, BuildingBlock: FUNLAD_clean_sbu_0, # of connection points: 6
#     Node 1, Type 0, BuildingBlock: FUNLAD_clean_sbu_0, # of connection points: 6
#     Node 2, Type 1, BuildingBlock: CUQRIR_clean_linker_1, # of connection points: 3
#     Node 3, Type 1, BuildingBlock: CUQRIR_clean_linker_1, # of connection points: 3
#     Node 4, Type 1, BuildingBlock: CUQRIR_clean_linker_1, # of connection points: 3
#     Node 5, Type 1, BuildingBlock: CUQRIR_clean_linker_1, # of connection points: 3
#     Edge 6, Type (0, 1), BuildingBlock: KIFKEQ_clean_linker_1, # of connection points: 2
#     Edge 7, Type (0, 1), BuildingBlock: KIFKEQ_clean_linker_1, # of connection points: 2
#     Edge 8, Type (0, 1), BuildingBlock: KIFKEQ_clean_linker_1, # of connection points: 2
#     Edge 9, Type (0, 1), BuildingBlock: KIFKEQ_clean_linker_1, # of connection points: 2
#     Edge 10, Type (0, 1), BuildingBlock: KIFKEQ_clean_linker_1, # of connection points: 2
#     Edge 11, Type (0, 1), BuildingBlock: KIFKEQ_clean_linker_1, # of connection points: 2
#     Edge 12, Type (0, 1), BuildingBlock: KIFKEQ_clean_linker_1, # of connection points: 2
#     Edge 13, Type (0, 1), BuildingBlock: KIFKEQ_clean_linker_1, # of connection points: 2
#     Edge 14, Type (0, 1), BuildingBlock: KIFKEQ_clean_linker_1, # of connection points: 2
#     Edge 15, Type (0, 1), BuildingBlock: KIFKEQ_clean_linker_1, # of connection points: 2
#     Edge 16, Type (0, 1), BuildingBlock: KIFKEQ_clean_linker_1, # of connection points: 2
#     Edge 17, Type (0, 1), BuildingBlock: KIFKEQ_clean_linker_1, # of connection points: 2
# Relax obj value: 0.158
# Max RMSD: 0.158
# Mean RMSD: 0.140
data_MOF--net-tsx--node1-FUNLAD_clean_sbu_0--node2-CUQRIR_clean_linker_1--edge1-KIFKEQ_clean_linker_1
_symmetry_space_group_name_H-M    P1
_symmetry_Int_Tables_number       1
_symmetry_cell_setting            triclinic
loop_
_symmetry_equiv_pos_as_xyz
'x, y, z'
_cell_length_a     17.881925
_cell_length_b     19.847259
_cell_length_c     38.726999
_cell_angle_alpha  79.535297
_cell_angle_beta   92.594711
_cell_angle_gamma 90.48507
loop_
_atom_site_label
_atom_site_type_symbol
_atom_site_fract_x
_atom_site_fract_y
_atom_site_fract_z
_atom_type_partial_charge
C0 C 0.92915 0.96487 0.99078 0.0
N1 N 0.01476 0.04184 0.07656 0.0
C2 C 0.9474 0.04126 0.09157 0.0
C3 C 0.9439 0.0304 0.12809 0.0
C4 C 0.01025 0.01903 0.14907 0.0
C5 C 0.07868 0.01861 0.13295 0.0
C6 C 0.07973 0.03081 0.09644 0.0
Zn7 Zn 0.02179 0.06034 0.02356 0.0
C8 C 0.14295 0.97669 0.00073 0.0
N9 N 0.0485 0.09997 0.9126 0.0
C10 C 0.99107 0.0864 0.89066 0.0
C11 C 0.11582 0.12217 0.89985 0.0
C12 C 0.12753 0.13104 0.86393 0.0
C13 C 0.07043 0.11458 0.84068 0.0
C14 C 1.0011 0.09248 0.85465 0.0
Zn15 Zn 0.03649 0.08211 0.96599 0.0
O16 O 0.94497 0.98325 0.01986 0.0
C17 C 0.91263 0.16595 0.98593 0.0
O18 O 0.95779 0.99703 0.96286 0.0
H19 H 0.16144 0.13187 0.91753 0.0
H20 H 0.89651 0.04985 0.07522 0.0
H21 H 0.93785 0.06906 0.90116 0.0
O22 O 0.93213 0.13541 0.0169 0.0
O23 O 0.9475 0.15284 0.96005 0.0
H24 H 0.13277 0.0324 0.084 0.0
O25 O 0.11729 0.16235 0.97217 0.0
O26 O 0.10126 0.13652 0.02869 0.0
O27 O 0.12379 0.01297 0.97136 0.0
O28 O 0.10944 0.98444 0.02802 0.0
C29 C 0.13472 0.17132 0.00327 0.0
H30 H 0.89011 0.03096 0.13983 0.0
H31 H 0.13097 0.01104 0.1484 0.0
H32 H 0.18141 0.14982 0.85476 0.0
H33 H 0.95541 0.07772 0.83832 0.0
C34 C 0.40787 0.43756 0.49051 0.0
N35 N 0.49784 0.50749 0.57827 0.0
C36 C 0.43248 0.50954 0.59468 0.0
C37 C 0.43275 0.50044 0.63135 0.0
C38 C 0.50088 0.48852 0.65113 0.0
C39 C 0.56675 0.48402 0.63337 0.0
C40 C 0.5641 0.4946 0.5969 0.0
Zn41 Zn 0.50325 0.52768 0.52505 0.0
C42 C 0.62075 0.44055 0.50143 0.0
N43 N 0.53208 0.57284 0.41443 0.0
C44 C 0.47138 0.58472 0.39173 0.0
C45 C 0.60265 0.57552 0.4025 0.0
C46 C 0.61426 0.58865 0.36653 0.0
C47 C 0.55276 0.60047 0.34231 0.0
C48 C 0.4805 0.59924 0.35547 0.0
Zn49 Zn 0.51994 0.55137 0.46765 0.0
O50 O 0.42421 0.45357 0.52015 0.0
C51 C 0.39877 0.63756 0.48894 0.0
O52 O 0.43737 0.4705 0.46297 0.0
H53 H 0.65035 0.56667 0.42091 0.0
H54 H 0.38047 0.51996 0.57933 0.0
H55 H 0.41576 0.58279 0.40174 0.0
O56 O 0.41611 0.60452 0.51964 0.0
O57 O 0.43435 0.62555 0.46304 0.0
H58 H 0.61569 0.49403 0.58348 0.0
O59 O 0.60443 0.62748 0.47458 0.0
O60 O 0.58514 0.60142 0.53082 0.0
O61 O 0.60367 0.47812 0.47215 0.0
O62 O 0.58768 0.44934 0.52861 0.0
C63 C 0.62074 0.63554 0.50592 0.0
H64 H 0.38063 0.50512 0.6439 0.0
H65 H 0.62033 0.47363 0.64744 0.0
H66 H 0.67094 0.58775 0.35793 0.0
H67 H 0.43129 0.6092 0.338 0.0
C68 C 0.92485 0.99219 0.45616 0.0
N69 N 0.96564 0.96743 0.43247 0.0
N70 N 0.88843 0.05008 0.44106 0.0
C71 C 0.92311 0.96372 0.49446 0.0
C72 C 0.90771 0.06018 0.4073 0.0
N73 N 0.95477 0.01038 0.40209 0.0
C74 C 0.87975 0.11882 0.3796 0.0
H75 H 0.86463 0.96372 0.50289 0.0
H76 H 0.95613 0.99724 0.5094 0.0
H77 H 0.94498 0.91114 0.5003 0.0
H78 H 0.92176 0.16069 0.37702 0.0
H79 H 0.82629 0.13913 0.38701 0.0
H80 H 0.87131 0.10245 0.35378 0.0
C81 C 0.09638 0.95875 0.55743 0.0
N82 N 0.12572 0.00868 0.57362 0.0
N83 N 0.05184 0.91591 0.57924 0.0
C84 C 0.10911 0.9546 0.51985 0.0
C85 C 0.05723 0.94121 0.60948 0.0
N86 N 0.10112 0.99747 0.60597 0.0
C87 C 0.01738 0.91233 0.64236 0.0
H88 H 0.07771 0.91216 0.51127 0.0
H89 H 0.16954 0.9464 0.51681 0.0
H90 H 0.09326 1.00383 0.5026 0.0
H91 H 0.05549 0.91129 0.66586 0.0
H92 H 0.99659 0.85968 0.64185 0.0
H93 H 0.96949 0.94604 0.64486 0.0
C94 C 0.44841 0.53001 0.95591 0.0
N95 N 0.48187 0.49922 0.93214 0.0
N96 N 0.40921 0.58557 0.93982 0.0
C97 C 0.4576 0.50997 -0.00519 0.0
C98 C 0.41964 0.5882 0.90536 0.0
N99 N 0.46389 0.53593 0.90069 0.0
C100 C 0.3858 0.64171 0.87652 0.0
H101 H 0.40341 0.51522 0.00692 0.0
H102 H 0.4981 0.545 0.00499 0.0
H103 H 0.47702 0.45667 0.00184 0.0
H104 H 0.427 0.68352 0.86955 0.0
H105 H 0.3348 0.66401 0.88527 0.0
H106 H 0.37137 0.61957 0.85274 0.0
C107 C 0.62137 0.4823 0.05785 0.0
N108 N 0.64783 0.53322 0.07424 0.0
N109 N 0.57481 0.43964 0.07871 0.0
C110 C 0.63976 0.47603 0.02111 0.0
C111 C 0.57675 0.46562 0.10874 0.0
N112 N 0.61958 0.52248 0.10587 0.0
C113 C 0.5347 0.43632 0.1409 0.0
H114 H 0.6994 0.46132 0.02094 0.0
H115 H 0.63231 0.52611 0.00317 0.0
H116 H 0.60567 0.43656 0.01122 0.0
H117 H 0.51827 0.38232 0.14076 0.0
H118 H 0.48361 0.46725 0.14168 0.0
H119 H 0.56973 0.43897 0.16502 0.0
H120 H 0.25523 0.21691 0.9632 0.0
H121 H 0.15785 0.225 0.06239 0.0
H122 H 0.36556 0.27935 0.98118 0.0
H123 H 0.2668 0.28635 0.08014 0.0
H124 H 0.42845 0.46378 0.08237 0.0
H125 H 0.3232 0.40052 0.06247 0.0
H126 H 0.4758 0.261 0.02839 0.0
H127 H 0.58263 0.3247 0.04938 0.0
C128 C 0.2568 0.2329 0.98851 0.0
C129 C 0.19742 0.2165 0.01122 0.0
C130 C 0.32035 0.26774 -0.001 0.0
C131 C 0.32507 0.28761 0.03215 0.0
C132 C 0.26487 0.2723 0.05436 0.0
C133 C 0.20223 0.23713 0.04412 0.0
C134 C 0.43971 0.41862 0.07145 0.0
C135 C 0.51382 0.39892 0.06768 0.0
C136 C 0.37932 0.38269 0.05971 0.0
C137 C 0.39097 0.32577 0.04376 0.0
C138 C 0.4651 0.30524 0.04018 0.0
C139 C 0.52611 0.34127 0.05229 0.0
H140 H 0.15648 0.85409 0.04652 0.0
H141 H 0.25323 0.97575 0.95546 0.0
H142 H 0.23212 0.75571 0.03883 0.0
H143 H 0.32704 0.87845 0.94742 0.0
H144 H 0.2782 0.58569 0.9711 0.0
H145 H 0.22512 0.68104 -0.00553 0.0
H146 H 0.42618 0.79895 0.96909 0.0
H147 H 0.47703 0.70396 0.94491 0.0
C148 C 0.19534 0.86027 0.02551 0.0
C149 C 0.19877 0.92222 0.00145 0.0
C150 C 0.23796 0.8039 0.02087 0.0
C151 C 0.2851 0.80909 -0.00766 0.0
C152 C 0.29202 0.87267 0.96987 0.0
C153 C 0.24931 0.92846 0.97435 0.0
C154 C 0.31062 0.63205 0.97098 0.0
C155 C 0.3806 0.63888 0.95596 0.0
C156 C 0.28098 0.68621 0.98461 0.0
C157 C 0.32132 0.74777 0.98347 0.0
C158 C 0.39325 0.75268 0.96989 0.0
C159 C 0.4224 0.69875 0.9561 0.0
H160 H 0.98479 0.84075 0.01734 0.0
H161 H 0.78327 0.94216 0.9703 0.0
H162 H 0.91578 0.73469 0.03425 0.0
H163 H 0.71312 0.83478 0.98632 0.0
H164 H 0.60074 0.66432 0.06531 0.0
H165 H 0.66813 0.7672 0.03886 0.0
H166 H 0.85058 0.64051 0.01835 0.0
H167 H 0.78411 0.53848 0.04667 0.0
C168 C 0.92591 0.83934 0.00948 0.0
C169 C 0.88952 0.89907 -0.00801 0.0
C170 C 0.88611 0.77848 0.01921 0.0
C171 C 0.80846 0.77571 0.01189 0.0
C172 C 0.77262 0.83506 -0.00715 0.0
C173 C 0.8128 0.8963 0.9831 0.0
C174 C 0.65574 0.65894 0.05558 0.0
C175 C 0.68792 0.59377 0.05853 0.0
C176 C 0.69389 0.7177 0.03978 0.0
C177 C 0.76513 0.71264 0.02631 0.0
C178 C 0.79643 0.64686 0.02876 0.0
C179 C 0.75833 0.58824 0.04476 0.0
H180 H 0.80386 0.18866 0.0309 0.0
H181 H 0.87709 0.25498 0.92533 0.0
H182 H 0.69729 0.26796 0.01773 0.0
H183 H 0.77162 0.33341 0.91242 0.0
H184 H 0.62548 0.52152 0.91676 0.0
H185 H 0.72981 0.44055 0.93073 0.0
H186 H 0.57744 0.28401 0.97785 0.0
H187 H 0.47293 0.36594 0.96331 0.0
C188 C 0.79753 0.22026 0.00502 0.0
C189 C 0.84923 0.21547 0.97923 0.0
C190 C 0.73621 0.26523 -0.0026 0.0
C191 C 0.72599 0.30698 0.964 0.0
C192 C 0.77814 0.30249 0.93846 0.0
C193 C 0.83859 0.25722 0.94589 0.0
C194 C 0.6146 0.46957 0.92981 0.0
C195 C 0.54182 0.44974 0.93926 0.0
C196 C 0.67406 0.42323 0.93785 0.0
C197 C 0.66204 0.35588 0.95562 0.0
C198 C 0.58869 0.33575 0.96462 0.0
C199 C 0.52899 0.38222 0.95625 0.0
H200 H 0.73971 0.68601 0.46585 0.0
H201 H 0.64509 0.68307 0.56681 0.0
H202 H 0.84827 0.75007 0.48431 0.0
H203 H 0.75238 0.74595 0.58497 0.0
H204 H 0.90505 0.93234 0.586 0.0
H205 H 0.80231 0.86372 0.56782 0.0
H206 H 0.96032 0.73258 0.53085 0.0
H207 H 0.06438 0.80104 0.55048 0.0
C208 C 0.74162 0.69963 0.49173 0.0
C209 C 0.68344 0.67989 0.51473 0.0
C210 C 0.80413 0.73543 0.50245 0.0
C211 C 0.80896 0.75283 0.53615 0.0
C212 C 0.75022 0.73376 0.55879 0.0
C213 C 0.68858 0.69769 0.5483 0.0
C214 C 0.91797 0.88789 0.5748 0.0
C215 C 0.99259 0.87198 0.56966 0.0
C216 C 0.85912 0.8488 0.56415 0.0
C217 C 0.87309 0.79293 0.54772 0.0
C218 C 0.94786 0.77593 0.54304 0.0
C219 C 0.00727 0.81475 0.55431 0.0
H220 H 0.73507 0.43734 0.45853 0.0
H221 H 0.62389 0.31558 0.54525 0.0
H222 H 0.80782 0.33826 0.45164 0.0
H223 H 0.69742 0.21528 0.53834 0.0
H224 H 0.9586 0.16186 0.45498 0.0
H225 H 0.90415 0.25528 0.47914 0.0
H226 H 0.69481 0.14454 0.49016 0.0
H227 H 0.7509 0.05075 0.46644 0.0
C228 C 0.72754 0.38956 0.47666 0.0
C229 C 0.67388 0.38394 0.50236 0.0
C230 C 0.76947 0.33283 0.47284 0.0
C231 C 0.75816 0.26893 0.4944 0.0
C232 C 0.70691 0.2639 0.52126 0.0
C233 C 0.66545 0.32127 0.52542 0.0
C234 C 0.90138 0.15761 0.46318 0.0
C235 C 0.85814 0.10045 0.45871 0.0
C236 C 0.87023 0.21065 0.47693 0.0
C237 C 0.79505 0.20743 0.48627 0.0
C238 C 0.75307 0.14814 0.48352 0.0
C239 C 0.78457 0.0949 0.46978 0.0
H240 H 0.46304 0.31348 0.51658 0.0
H241 H 0.26289 0.41546 0.46819 0.0
H242 H 0.39383 0.20763 0.53273 0.0
H243 H 0.19255 0.30795 0.4831 0.0
H244 H 0.07675 0.13916 0.56096 0.0
H245 H 0.14459 0.24116 0.53409 0.0
H246 H 0.33003 0.11318 0.51825 0.0
H247 H 0.26315 0.01226 0.54762 0.0
C248 C 0.40442 0.31219 0.5082 0.0
C249 C 0.36837 0.37209 0.49075 0.0
C250 C 0.3645 0.25137 0.51745 0.0
C251 C 0.28709 0.24873 0.50952 0.0
C252 C 0.2518 0.30814 0.4902 0.0
C253 C 0.29208 0.36947 0.48106 0.0
C254 C 0.13273 0.13348 0.55247 0.0
C255 C 0.16596 0.06851 0.55736 0.0
C256 C 0.17109 0.19165 0.53623 0.0
C257 C 0.24334 0.18601 0.52396 0.0
C258 C 0.27527 0.12012 0.5279 0.0
C259 C 0.23708 0.06215 0.54455 0.0
H260 H 0.36909 0.7325 0.4299 0.0
H261 H 0.28556 0.65543 0.53254 0.0
H262 H 0.26317 0.81034 0.41654 0.0
H263 H 0.17852 0.73413 0.51893 0.0
H264 H 0.95709 0.8318 0.46025 0.0
H265 H 0.06266 0.75166 0.47622 0.0
H266 H 0.21593 0.91378 0.43665 0.0
H267 H 0.1108 0.9933 0.42175 0.0
C268 C 0.3283 0.73239 0.44976 0.0
C269 C 0.33609 0.68774 0.48238 0.0
C270 C 0.26757 0.77726 0.44208 0.0
C271 C 0.21232 0.7784 0.46662 0.0
C272 C 0.21989 0.73398 0.49936 0.0
C273 C 0.28149 0.68942 0.50727 0.0
C274 C 0.01354 0.84986 0.45523 0.0
C275 C 0.02624 0.9186 0.44009 0.0
C276 C 0.07385 0.80432 0.4644 0.0
C277 C 0.14775 0.82644 0.45781 0.0
C278 C 0.15978 0.89493 0.44184 0.0
C279 C 0.09976 0.9404 0.43317 0.0
H280 H 0.07495 0.91854 0.19866 0.0
H281 H 0.94386 0.10388 0.18579 0.0
H282 H 0.07675 0.91014 0.26282 0.0
H283 H 0.94652 0.09599 0.24951 0.0
H284 H 0.94232 0.89972 0.37141 0.0
H285 H 0.96754 0.89593 0.30992 0.0
H286 H 0.05669 0.10136 0.29751 0.0
H287 H 0.03326 0.10393 0.35909 0.0
C288 C 0.04665 0.9573 0.20964 0.0
C289 C 0.00895 0.01169 0.18756 0.0
C290 C 0.04771 0.95248 0.24612 0.0
C291 C 0.01256 1.00287 0.26077 0.0
C292 C 0.97487 0.05707 0.23865 0.0
C293 C 0.97264 0.0612 0.20235 0.0
C294 C 0.96951 0.9429 0.35566 0.0
C295 C 0.98428 1.00274 0.3692 0.0
C296 C 0.98378 0.94087 0.32069 0.0
C297 C 0.01259 0.99891 0.29909 0.0
C298 C 0.03327 0.05649 0.31365 0.0
C299 C 0.01981 0.0581 0.34861 0.0
H300 H 0.20358 0.09479 0.81042 0.0
H301 H 0.96931 0.13926 0.78384 0.0
H302 H 0.22412 0.08978 0.74984 0.0
H303 H 0.98795 0.12515 0.72434 0.0
H304 H 0.0246 0.10746 0.61612 0.0
H305 H 0.02931 0.15662 0.66944 0.0
H306 H 0.20696 0.01477 0.71265 0.0
H307 H 0.20618 0.97204 0.65766 0.0
C308 C 0.15622 0.10406 0.79182 0.0
C309 C 0.08428 0.11661 0.80268 0.0
C310 C 0.16791 0.09973 0.75686 0.0
C311 C 0.1077 0.10554 0.73182 0.0
C312 C 0.03638 0.12091 0.74237 0.0
C313 C 0.02513 0.12738 0.77708 0.0
C314 C 0.06742 0.09019 0.63637 0.0
C315 C 0.1165 0.03762 0.63273 0.0
C316 C 0.06893 0.11677 0.66742 0.0
C317 C 0.11734 0.08892 0.69612 0.0
C318 C 0.16948 0.0388 0.69134 0.0
C319 C 0.16935 0.01397 0.65983 0.0
H320 H 0.6099 0.54044 0.69059 0.0
H321 H 0.40012 0.42985 0.69922 0.0
H322 H 0.61433 0.54004 0.75322 0.0
H323 H 0.40209 0.43383 0.76178 0.0
H324 H 0.44275 0.41664 0.87836 0.0
H325 H 0.46217 0.3948 0.81907 0.0
H326 H 0.54854 0.6006 0.7898 0.0
H327 H 0.53214 0.62015 0.84932 0.0
C328 C 0.56502 0.51527 0.70586 0.0
C329 C 0.50451 0.48518 0.68976 0.0
C330 C 0.56717 0.5159 0.74178 0.0
C331 C 0.50831 0.48748 0.76246 0.0
C332 C 0.44875 0.45561 0.74665 0.0
C333 C 0.44698 0.4543 0.71068 0.0
C334 C 0.46748 0.45618 0.85923 0.0
C335 C 0.48492 0.5203 0.86774 0.0
C336 C 0.47785 0.44416 0.82534 0.0
C337 C 0.50595 0.49625 0.79958 0.0
C338 C 0.52727 0.55913 0.80899 0.0
C339 C 0.51722 0.5708 0.84285 0.0
H340 H 0.46227 0.55666 0.29178 0.0
H341 H 0.66937 0.66529 0.30512 0.0
H342 H 0.48506 0.5633 0.23006 0.0
H343 H 0.69352 0.66875 0.24318 0.0
H344 H 0.73278 0.53075 0.15285 0.0
H345 H 0.71973 0.57075 0.20867 0.0
H346 H 0.4994 0.64845 0.17296 0.0
H347 H 0.51323 0.60803 0.11754 0.0
C348 C 0.51189 0.5833 0.28156 0.0
C349 C 0.56396 0.6102 0.30377 0.0
C350 C 0.52503 0.58695 0.24604 0.0
C351 C 0.59095 0.61682 0.23181 0.0
C352 C 0.64237 0.64527 0.25356 0.0
C353 C 0.62865 0.64266 0.28909 0.0
C354 C 0.68354 0.55965 0.15646 0.0
C355 C 0.62412 0.56692 0.13124 0.0
C356 C 0.67571 0.58219 0.18833 0.0
C357 C 0.60799 0.61167 0.19528 0.0
C358 C 0.55183 0.62526 0.16841 0.0
C359 C 0.55993 0.60301 0.13664 0.0
loop_
_geom_bond_atom_site_label_1
_geom_bond_atom_site_label_2
_geom_bond_distance
_geom_bond_site_symmetry_2
_ccdc_geom_bond_type
C0 O16 1.251 . S
C0 O18 1.254 1_554 S
N1 C2 1.333 1_445 S
N1 C6 1.307 . S
N1 Zn7 2.020 . S
C2 N1 1.333 1_665 S
C2 C3 1.379 . S
C2 H20 0.952 . S
C3 C2 1.379 . S
C3 C4 1.390 1_655 S
C3 H30 0.949 . S
C4 C3 1.390 1_455 S
C4 C5 1.357 1_565 S
C5 C4 1.357 1_545 S
C5 C6 1.370 . S
C5 H31 0.950 . S
C6 N1 1.307 . S
C6 C5 1.370 . S
C6 H24 0.948 . S
Zn7 N1 2.020 . S
Zn7 O16 2.039 1_445 S
Zn7 O22 2.034 1_455 S
Zn7 O26 2.025 . S
Zn7 O28 2.024 1_545 S
C8 O27 1.246 1_554 S
C8 O28 1.249 . S
N9 C10 1.307 1_455 S
N9 C11 1.333 . S
N9 Zn15 2.020 . S
C10 N9 1.307 1_655 S
C10 C14 1.370 . S
C10 H21 0.948 . S
C11 N9 1.333 . S
C11 C12 1.379 . S
C11 H19 0.952 . S
C12 C11 1.379 . S
C12 C13 1.390 . S
C12 H32 0.949 . S
C13 C12 1.390 . S
C13 C14 1.357 1_455 S
C14 C10 1.370 . S
C14 C13 1.357 1_655 S
C14 H33 0.950 . S
Zn15 N9 2.020 . S
Zn15 O18 2.025 1_445 S
Zn15 O23 2.024 1_455 S
Zn15 O25 2.039 . S
Zn15 O27 2.034 1_545 S
O16 C0 1.251 . S
O16 Zn7 2.039 1_665 S
C17 O22 1.246 . S
C17 O23 1.249 1_554 S
O18 C0 1.254 1_556 S
O18 Zn15 2.025 1_665 S
H19 C11 0.952 . S
H20 C2 0.952 . S
H21 C10 0.948 . S
O22 Zn7 2.034 1_655 S
O22 C17 1.246 . S
O23 Zn15 2.024 1_655 S
O23 C17 1.249 1_556 S
H24 C6 0.948 . S
O25 Zn15 2.039 . S
O25 C29 1.251 1_556 S
O26 Zn7 2.025 . S
O26 C29 1.254 . S
O27 C8 1.246 1_556 S
O27 Zn15 2.034 1_565 S
O28 Zn7 2.024 1_565 S
O28 C8 1.249 . S
C29 O25 1.251 1_554 S
C29 O26 1.254 . S
H30 C3 0.949 . S
H31 C5 0.950 . S
H32 C12 0.949 . S
H33 C14 0.950 . S
C34 O50 1.251 . S
C34 O52 1.254 . S
N35 C36 1.333 . S
N35 C40 1.307 . S
N35 Zn41 2.020 . S
C36 N35 1.333 . S
C36 C37 1.379 . S
C36 H54 0.952 . S
C37 C36 1.379 . S
C37 C38 1.390 . S
C37 H64 0.949 . S
C38 C37 1.390 . S
C38 C39 1.357 . S
C39 C38 1.357 . S
C39 C40 1.370 . S
C39 H65 0.950 . S
C40 N35 1.307 . S
C40 C39 1.370 . S
C40 H58 0.948 . S
Zn41 N35 2.020 . S
Zn41 O50 2.039 . S
Zn41 O56 2.034 . S
Zn41 O60 2.025 . S
Zn41 O62 2.024 . S
C42 O61 1.246 . S
C42 O62 1.249 . S
N43 C44 1.307 . S
N43 C45 1.333 . S
N43 Zn49 2.020 . S
C44 N43 1.307 . S
C44 C48 1.370 . S
C44 H55 0.948 . S
C45 N43 1.333 . S
C45 C46 1.379 . S
C45 H53 0.952 . S
C46 C45 1.379 . S
C46 C47 1.390 . S
C46 H66 0.949 . S
C47 C46 1.390 . S
C47 C48 1.357 . S
C48 C44 1.370 . S
C48 C47 1.357 . S
C48 H67 0.950 . S
Zn49 N43 2.020 . S
Zn49 O52 2.025 . S
Zn49 O57 2.024 . S
Zn49 O59 2.039 . S
Zn49 O61 2.034 . S
O50 C34 1.251 . S
O50 Zn41 2.039 . S
C51 O56 1.246 . S
C51 O57 1.249 . S
O52 C34 1.254 . S
O52 Zn49 2.025 . S
H53 C45 0.952 . S
H54 C36 0.952 . S
H55 C44 0.948 . S
O56 Zn41 2.034 . S
O56 C51 1.246 . S
O57 Zn49 2.024 . S
O57 C51 1.249 . S
H58 C40 0.948 . S
O59 Zn49 2.039 . S
O59 C63 1.251 . S
O60 Zn41 2.025 . S
O60 C63 1.254 . S
O61 C42 1.246 . S
O61 Zn49 2.034 . S
O62 Zn41 2.024 . S
O62 C42 1.249 . S
C63 O59 1.251 . S
C63 O60 1.254 . S
H64 C37 0.949 . S
H65 C39 0.950 . S
H66 C46 0.949 . S
H67 C48 0.950 . S
C68 N69 1.317 1_545 S
C68 N70 1.348 1_455 S
C68 C71 1.485 1_545 S
N69 C68 1.317 1_565 S
N69 N73 1.370 1_565 S
N70 C68 1.348 1_655 S
N70 C72 1.346 . S
C71 C68 1.485 1_565 S
C71 H75 0.960 1_455 S
C71 H76 0.961 1_565 S
C71 H77 0.960 . S
C72 N70 1.346 . S
C72 N73 1.307 1_655 S
C72 C74 1.486 . S
N73 N69 1.370 1_545 S
N73 C72 1.307 1_455 S
C74 C72 1.486 . S
C74 H78 0.960 . S
C74 H79 0.960 . S
C74 H80 0.959 . S
H75 C71 0.960 1_655 S
H76 C71 0.961 1_545 S
H77 C71 0.960 . S
H78 C74 0.960 . S
H79 C74 0.960 . S
H80 C74 0.959 . S
C81 N82 1.317 . S
C81 N83 1.348 1_445 S
C81 C84 1.485 . S
N82 C81 1.317 . S
N82 N86 1.370 . S
N83 C81 1.348 1_665 S
N83 C85 1.346 1_565 S
C84 C81 1.485 . S
C84 H88 0.971 . S
C84 H89 0.961 . S
C84 H90 0.960 . S
C85 N83 1.346 1_545 S
C85 N86 1.307 1_655 S
C85 C87 1.486 1_545 S
N86 N82 1.370 . S
N86 C85 1.307 1_455 S
C87 C85 1.486 1_565 S
C87 H91 0.960 . S
C87 H92 0.960 . S
C87 H93 0.959 . S
H88 C84 0.971 . S
H89 C84 0.961 . S
H90 C84 0.960 . S
H91 C87 0.960 . S
H92 C87 0.960 . S
H93 C87 0.959 . S
C94 N95 1.317 . S
C94 N96 1.348 . S
C94 C97 1.485 1_556 S
N95 C94 1.317 . S
N95 N99 1.370 . S
N96 C94 1.348 . S
N96 C98 1.346 . S
C97 C94 1.485 1_554 S
C97 H101 0.960 . S
C97 H102 0.961 . S
C97 H103 0.960 . S
C98 N96 1.346 . S
C98 N99 1.307 . S
C98 C100 1.486 . S
N99 N95 1.370 . S
N99 C98 1.307 . S
C100 C98 1.486 . S
C100 H104 0.960 . S
C100 H105 0.960 . S
C100 H106 0.959 . S
H101 C97 0.960 . S
H102 C97 0.961 . S
H103 C97 0.960 . S
H104 C100 0.960 . S
H105 C100 0.960 . S
H106 C100 0.959 . S
C107 N108 1.317 . S
C107 N109 1.348 . S
C107 C110 1.485 1_554 S
N108 C107 1.317 . S
N108 N112 1.370 . S
N109 C107 1.348 . S
N109 C111 1.346 . S
C110 C107 1.485 1_556 S
C110 H114 0.960 . S
C110 H115 0.961 . S
C110 H116 0.960 . S
C111 N109 1.346 . S
C111 N112 1.307 . S
C111 C113 1.486 . S
N112 N108 1.370 . S
N112 C111 1.307 . S
C113 C111 1.486 . S
C113 H117 0.960 . S
C113 H118 0.960 . S
C113 H119 0.959 . S
H114 C110 0.960 . S
H115 C110 0.961 . S
H116 C110 0.960 . S
H117 C113 0.960 . S
H118 C113 0.960 . S
H119 C113 0.959 . S
H120 C128 0.950 . S
H121 C133 0.950 . S
H122 C130 0.950 . S
H123 C132 0.950 . S
H124 C134 0.950 . S
H125 C136 0.950 . S
H126 C138 0.950 . S
H127 C139 0.950 . S
C128 H120 0.950 . S
C128 C129 1.386 . S
C128 C130 1.391 . S
C129 C128 1.386 . S
C129 C133 1.393 . S
C130 H122 0.950 . S
C130 C128 1.391 . S
C130 C131 1.400 . S
C131 C130 1.400 . S
C131 C132 1.398 . S
C131 C137 1.491 . S
C132 H123 0.950 . S
C132 C131 1.398 . S
C132 C133 1.391 . S
C133 H121 0.950 . S
C133 C129 1.393 . S
C133 C132 1.391 . S
C134 H124 0.950 . S
C134 C135 1.386 . S
C134 C136 1.391 . S
C135 C134 1.386 . S
C135 C139 1.393 . S
C136 H125 0.950 . S
C136 C134 1.391 . S
C136 C137 1.400 . S
C137 C131 1.491 . S
C137 C136 1.400 . S
C137 C138 1.398 . S
C138 H126 0.950 . S
C138 C137 1.398 . S
C138 C139 1.391 . S
C139 H127 0.950 . S
C139 C135 1.393 . S
C139 C138 1.391 . S
H140 C148 0.950 . S
H141 C153 0.950 . S
H142 C150 0.950 . S
H143 C152 0.950 . S
H144 C154 0.950 . S
H145 C156 0.950 . S
H146 C158 0.950 . S
H147 C159 0.950 . S
C148 H140 0.950 . S
C148 C149 1.386 . S
C148 C150 1.391 . S
C149 C148 1.386 . S
C149 C153 1.393 1_554 S
C150 H142 0.950 . S
C150 C148 1.391 . S
C150 C151 1.400 . S
C151 C150 1.400 . S
C151 C152 1.398 1_554 S
C151 C157 1.491 . S
C152 H143 0.950 . S
C152 C151 1.398 1_556 S
C152 C153 1.391 . S
C153 H141 0.950 . S
C153 C149 1.393 1_556 S
C153 C152 1.391 . S
C154 H144 0.950 . S
C154 C155 1.386 . S
C154 C156 1.391 . S
C155 C154 1.386 . S
C155 C159 1.393 1_556 S
C156 H145 0.950 . S
C156 C154 1.391 . S
C156 C157 1.399 1_556 S
C157 C151 1.491 . S
C157 C156 1.399 1_554 S
C157 C158 1.399 . S
C158 H146 0.950 . S
C158 C157 1.399 . S
C158 C159 1.391 . S
C159 H147 0.950 . S
C159 C155 1.393 1_554 S
C159 C158 1.391 . S
H160 C168 0.950 . S
H161 C173 0.950 1_556 S
H162 C170 0.950 . S
H163 C172 0.950 . S
H164 C174 0.950 . S
H165 C176 0.950 . S
H166 C178 0.950 . S
H167 C179 0.950 . S
C168 H160 0.950 . S
C168 C169 1.386 . S
C168 C170 1.391 . S
C169 C168 1.386 . S
C169 C173 1.393 . S
C170 H162 0.950 . S
C170 C168 1.391 . S
C170 C171 1.400 . S
C171 C170 1.400 . S
C171 C172 1.398 . S
C171 C177 1.491 . S
C172 H163 0.950 . S
C172 C171 1.398 . S
C172 C173 1.391 . S
C173 H161 0.950 1_554 S
C173 C169 1.393 . S
C173 C172 1.391 . S
C174 H164 0.950 . S
C174 C175 1.386 . S
C174 C176 1.391 . S
C175 C174 1.386 . S
C175 C179 1.393 . S
C176 H165 0.950 . S
C176 C174 1.391 . S
C176 C177 1.400 . S
C177 C171 1.491 . S
C177 C176 1.400 . S
C177 C178 1.398 . S
C178 H166 0.950 . S
C178 C177 1.398 . S
C178 C179 1.391 . S
C179 H167 0.950 . S
C179 C175 1.393 . S
C179 C178 1.391 . S
H180 C188 0.950 . S
H181 C193 0.950 . S
H182 C190 0.950 . S
H183 C192 0.950 . S
H184 C194 0.950 . S
H185 C196 0.950 . S
H186 C198 0.950 . S
H187 C199 0.950 . S
C188 H180 0.950 . S
C188 C189 1.386 . S
C188 C190 1.391 . S
C189 C188 1.386 . S
C189 C193 1.393 1_554 S
C190 H182 0.950 . S
C190 C188 1.391 . S
C190 C191 1.400 1_554 S
C191 C190 1.400 1_556 S
C191 C192 1.398 . S
C191 C197 1.491 . S
C192 H183 0.950 . S
C192 C191 1.398 . S
C192 C193 1.391 . S
C193 H181 0.950 . S
C193 C189 1.393 1_556 S
C193 C192 1.391 . S
C194 H184 0.950 . S
C194 C195 1.386 . S
C194 C196 1.391 . S
C195 C194 1.386 . S
C195 C199 1.393 1_556 S
C196 H185 0.950 . S
C196 C194 1.391 . S
C196 C197 1.400 . S
C197 C191 1.491 . S
C197 C196 1.400 . S
C197 C198 1.398 1_556 S
C198 H186 0.950 . S
C198 C197 1.398 1_554 S
C198 C199 1.391 . S
C199 H187 0.950 . S
C199 C195 1.393 1_554 S
C199 C198 1.391 . S
H200 C208 0.950 . S
H201 C213 0.950 . S
H202 C210 0.950 . S
H203 C212 0.950 . S
H204 C214 0.953 . S
H205 C216 0.950 . S
H206 C218 0.950 . S
H207 C219 0.950 1_455 S
C208 H200 0.950 . S
C208 C209 1.386 . S
C208 C210 1.391 . S
C209 C208 1.386 . S
C209 C213 1.393 . S
C210 H202 0.950 . S
C210 C208 1.391 . S
C210 C211 1.400 . S
C211 C210 1.400 . S
C211 C212 1.398 . S
C211 C217 1.491 . S
C212 H203 0.950 . S
C212 C211 1.398 . S
C212 C213 1.391 . S
C213 H201 0.950 . S
C213 C209 1.393 . S
C213 C212 1.391 . S
C214 H204 0.953 . S
C214 C215 1.386 . S
C214 C216 1.391 . S
C215 C214 1.386 . S
C215 C219 1.393 . S
C216 H205 0.950 . S
C216 C214 1.391 . S
C216 C217 1.400 . S
C217 C211 1.491 . S
C217 C216 1.400 . S
C217 C218 1.398 . S
C218 H206 0.950 . S
C218 C217 1.398 . S
C218 C219 1.391 . S
C219 H207 0.950 1_655 S
C219 C215 1.393 . S
C219 C218 1.391 . S
H220 C228 0.950 . S
H221 C233 0.950 . S
H222 C230 0.950 . S
H223 C232 0.950 . S
H224 C234 0.950 . S
H225 C236 0.950 . S
H226 C238 0.950 . S
H227 C239 0.950 . S
C228 H220 0.950 . S
C228 C229 1.386 . S
C228 C230 1.391 . S
C229 C228 1.386 . S
C229 C233 1.393 . S
C230 H222 0.950 . S
C230 C228 1.391 . S
C230 C231 1.400 . S
C231 C230 1.400 . S
C231 C232 1.398 . S
C231 C237 1.491 . S
C232 H223 0.950 . S
C232 C231 1.398 . S
C232 C233 1.391 . S
C233 H221 0.950 . S
C233 C229 1.393 . S
C233 C232 1.391 . S
C234 H224 0.950 . S
C234 C235 1.386 . S
C234 C236 1.391 . S
C235 C234 1.386 . S
C235 C239 1.393 . S
C236 H225 0.950 . S
C236 C234 1.391 . S
C236 C237 1.400 . S
C237 C231 1.491 . S
C237 C236 1.400 . S
C237 C238 1.398 . S
C238 H226 0.950 . S
C238 C237 1.398 . S
C238 C239 1.391 . S
C239 H227 0.950 . S
C239 C235 1.393 . S
C239 C238 1.391 . S
H240 C248 0.950 . S
H241 C253 0.950 . S
H242 C250 0.950 . S
H243 C252 0.950 . S
H244 C254 0.950 . S
H245 C256 0.950 . S
H246 C258 0.950 . S
H247 C259 0.950 . S
C248 H240 0.950 . S
C248 C249 1.386 . S
C248 C250 1.391 . S
C249 C248 1.386 . S
C249 C253 1.393 . S
C250 H242 0.950 . S
C250 C248 1.391 . S
C250 C251 1.400 . S
C251 C250 1.400 . S
C251 C252 1.398 . S
C251 C257 1.491 . S
C252 H243 0.950 . S
C252 C251 1.398 . S
C252 C253 1.391 . S
C253 H241 0.950 . S
C253 C249 1.393 . S
C253 C252 1.391 . S
C254 H244 0.950 . S
C254 C255 1.386 . S
C254 C256 1.391 . S
C255 C254 1.386 . S
C255 C259 1.393 . S
C256 H245 0.950 . S
C256 C254 1.391 . S
C256 C257 1.400 . S
C257 C251 1.491 . S
C257 C256 1.400 . S
C257 C258 1.398 . S
C258 H246 0.950 . S
C258 C257 1.398 . S
C258 C259 1.391 . S
C259 H247 0.950 . S
C259 C255 1.393 . S
C259 C258 1.391 . S
H260 C268 0.950 . S
H261 C273 0.950 . S
H262 C270 0.950 . S
H263 C272 0.950 . S
H264 C274 0.950 . S
H265 C276 0.950 . S
H266 C278 0.950 . S
H267 C279 0.950 . S
C268 H260 0.950 . S
C268 C269 1.386 . S
C268 C270 1.391 . S
C269 C268 1.386 . S
C269 C273 1.393 . S
C270 H262 0.950 . S
C270 C268 1.391 . S
C270 C271 1.400 . S
C271 C270 1.400 . S
C271 C272 1.398 . S
C271 C277 1.491 . S
C272 H263 0.950 . S
C272 C271 1.398 . S
C272 C273 1.391 . S
C273 H261 0.950 . S
C273 C269 1.393 . S
C273 C272 1.391 . S
C274 H264 0.950 . S
C274 C275 1.386 . S
C274 C276 1.391 . S
C275 C274 1.386 . S
C275 C279 1.393 . S
C276 H265 0.950 . S
C276 C274 1.391 . S
C276 C277 1.400 . S
C277 C271 1.491 . S
C277 C276 1.400 . S
C277 C278 1.398 . S
C278 H266 0.950 . S
C278 C277 1.398 . S
C278 C279 1.391 . S
C279 H267 0.950 . S
C279 C275 1.393 . S
C279 C278 1.391 . S
H280 C288 0.950 . S
H281 C293 0.950 . S
H282 C290 0.950 . S
H283 C292 0.950 . S
H284 C294 0.950 . S
H285 C296 0.950 . S
H286 C298 0.950 . S
H287 C299 0.950 . S
C288 H280 0.950 . S
C288 C289 1.386 1_545 S
C288 C290 1.391 . S
C289 C288 1.386 1_565 S
C289 C293 1.393 1_455 S
C290 H282 0.950 . S
C290 C288 1.391 . S
C290 C291 1.400 1_545 S
C291 C290 1.400 1_565 S
C291 C292 1.398 1_455 S
C291 C297 1.491 . S
C292 H283 0.950 . S
C292 C291 1.398 1_655 S
C292 C293 1.391 . S
C293 H281 0.950 . S
C293 C289 1.393 1_655 S
C293 C292 1.391 . S
C294 H284 0.950 . S
C294 C295 1.386 1_655 S
C294 C296 1.391 . S
C295 C294 1.386 1_455 S
C295 C299 1.393 1_565 S
C296 H285 0.950 . S
C296 C294 1.391 . S
C296 C297 1.400 1_655 S
C297 C291 1.491 . S
C297 C296 1.400 1_455 S
C297 C298 1.398 1_565 S
C298 H286 0.950 . S
C298 C297 1.398 1_545 S
C298 C299 1.391 . S
C299 H287 0.950 . S
C299 C295 1.393 1_545 S
C299 C298 1.391 . S
H300 C308 0.950 . S
H301 C313 0.950 . S
H302 C310 0.950 . S
H303 C312 0.950 . S
H304 C314 0.950 . S
H305 C316 0.950 . S
H306 C318 0.950 . S
H307 C319 0.950 . S
C308 H300 0.950 . S
C308 C309 1.386 . S
C308 C310 1.391 . S
C309 C308 1.386 . S
C309 C313 1.393 1_455 S
C310 H302 0.950 . S
C310 C308 1.391 . S
C310 C311 1.400 . S
C311 C310 1.400 . S
C311 C312 1.398 1_455 S
C311 C317 1.491 . S
C312 H303 0.950 . S
C312 C311 1.398 1_655 S
C312 C313 1.391 . S
C313 H301 0.950 . S
C313 C309 1.393 1_655 S
C313 C312 1.391 . S
C314 H304 0.950 . S
C314 C315 1.386 1_655 S
C314 C316 1.391 . S
C315 C314 1.386 1_455 S
C315 C319 1.393 . S
C316 H305 0.950 . S
C316 C314 1.391 . S
C316 C317 1.400 1_655 S
C317 C311 1.491 . S
C317 C316 1.400 1_455 S
C317 C318 1.398 . S
C318 H306 0.950 . S
C318 C317 1.398 . S
C318 C319 1.391 . S
C319 H307 0.950 . S
C319 C315 1.393 . S
C319 C318 1.391 . S
H320 C328 0.950 . S
H321 C333 0.950 . S
H322 C330 0.950 . S
H323 C332 0.950 . S
H324 C334 0.950 . S
H325 C336 0.950 . S
H326 C338 0.950 . S
H327 C339 0.950 . S
C328 H320 0.950 . S
C328 C329 1.386 . S
C328 C330 1.391 . S
C329 C328 1.386 . S
C329 C333 1.393 . S
C330 H322 0.950 . S
C330 C328 1.391 . S
C330 C331 1.400 . S
C331 C330 1.400 . S
C331 C332 1.398 . S
C331 C337 1.491 . S
C332 H323 0.950 . S
C332 C331 1.398 . S
C332 C333 1.391 . S
C333 H321 0.950 . S
C333 C329 1.393 . S
C333 C332 1.391 . S
C334 H324 0.950 . S
C334 C335 1.386 . S
C334 C336 1.391 . S
C335 C334 1.386 . S
C335 C339 1.393 . S
C336 H325 0.950 . S
C336 C334 1.391 . S
C336 C337 1.400 . S
C337 C331 1.491 . S
C337 C336 1.400 . S
C337 C338 1.398 . S
C338 H326 0.950 . S
C338 C337 1.398 . S
C338 C339 1.391 . S
C339 H327 0.950 . S
C339 C335 1.393 . S
C339 C338 1.391 . S
H340 C348 0.950 . S
H341 C353 0.950 . S
H342 C350 0.950 . S
H343 C352 0.950 . S
H344 C354 0.950 . S
H345 C356 0.950 . S
H346 C358 0.950 . S
H347 C359 0.950 . S
C348 H340 0.950 . S
C348 C349 1.386 . S
C348 C350 1.391 . S
C349 C348 1.386 . S
C349 C353 1.393 . S
C350 H342 0.950 . S
C350 C348 1.391 . S
C350 C351 1.400 . S
C351 C350 1.400 . S
C351 C352 1.398 . S
C351 C357 1.491 . S
C352 H343 0.950 . S
C352 C351 1.398 . S
C352 C353 1.391 . S
C353 H341 0.950 . S
C353 C349 1.393 . S
C353 C352 1.391 . S
C354 H344 0.950 . S
C354 C355 1.386 . S
C354 C356 1.391 . S
C355 C354 1.386 . S
C355 C359 1.393 . S
C356 H345 0.950 . S
C356 C354 1.391 . S
C356 C357 1.400 . S
C357 C351 1.491 . S
C357 C356 1.400 . S
C357 C358 1.398 . S
C358 H346 0.950 . S
C358 C357 1.398 . S
C358 C359 1.391 . S
C359 H347 0.950 . S
C359 C355 1.393 . S
C359 C358 1.391 . S
C135 N109 1.343 . S
C129 C29 1.373 . S
C149 C8 1.390 . S
C155 N96 1.360 . S
C169 C0 1.493 . S
C175 N108 1.491 . S
C189 C17 1.490 . S
C195 N95 1.490 . S
C209 C63 1.373 . S
C215 N83 1.344 . S
C229 C42 1.384 . S
C235 N70 1.379 . S
C255 N82 1.492 . S
C249 C34 1.494 . S
C275 N69 1.487 . S
C269 C51 1.479 . S
C289 C4 1.515 . S
C295 N73 1.516 1_565 S
C309 C13 1.524 . S
C315 N86 1.526 . S
C335 N99 1.517 . S
C329 C38 1.517 . S
C349 C47 1.533 . S
C355 N112 1.515 . S
