# Generated by pormake.
# Topology zzz, (3,6)-cn, num edge types: 1
# Building blocks:
#     Node 0, Type 0, BuildingBlock: BETDAH_clean_linker_0, # of connection points: 3
#     Node 1, Type 0, BuildingBlock: BETDAH_clean_linker_0, # of connection points: 3
#     Node 2, Type 0, BuildingBlock: BETDAH_clean_linker_0, # of connection points: 3
#     Node 3, Type 0, BuildingBlock: BETDAH_clean_linker_0, # of connection points: 3
#     Node 4, Type 0, BuildingBlock: BETDAH_clean_linker_0, # of connection points: 3
#     Node 5, Type 0, BuildingBlock: BETDAH_clean_linker_0, # of connection points: 3
#     Node 6, Type 0, BuildingBlock: BETDAH_clean_linker_0, # of connection points: 3
#     Node 7, Type 0, BuildingBlock: BETDAH_clean_linker_0, # of connection points: 3
#     Node 8, Type 1, BuildingBlock: MIFKUJ_clean_sbu_0, # of connection points: 6
#     Node 9, Type 1, BuildingBlock: MIFKUJ_clean_sbu_0, # of connection points: 6
#     Node 10, Type 1, BuildingBlock: MIFKUJ_clean_sbu_0, # of connection points: 6
#     Node 11, Type 1, BuildingBlock: MIFKUJ_clean_sbu_0, # of connection points: 6
#     Edge 12, Type (0, 1), BuildingBlock: CIFDUS_clean_linker_0, # of connection points: 2
#     Edge 13, Type (0, 1), BuildingBlock: CIFDUS_clean_linker_0, # of connection points: 2
#     Edge 14, Type (0, 1), BuildingBlock: CIFDUS_clean_linker_0, # of connection points: 2
#     Edge 15, Type (0, 1), BuildingBlock: CIFDUS_clean_linker_0, # of connection points: 2
#     Edge 16, Type (0, 1), BuildingBlock: CIFDUS_clean_linker_0, # of connection points: 2
#     Edge 17, Type (0, 1), BuildingBlock: CIFDUS_clean_linker_0, # of connection points: 2
#     Edge 18, Type (0, 1), BuildingBlock: CIFDUS_clean_linker_0, # of connection points: 2
#     Edge 19, Type (0, 1), BuildingBlock: CIFDUS_clean_linker_0, # of connection points: 2
#     Edge 20, Type (0, 1), BuildingBlock: CIFDUS_clean_linker_0, # of connection points: 2
#     Edge 21, Type (0, 1), BuildingBlock: CIFDUS_clean_linker_0, # of connection points: 2
#     Edge 22, Type (0, 1), BuildingBlock: CIFDUS_clean_linker_0, # of connection points: 2
#     Edge 23, Type (0, 1), BuildingBlock: CIFDUS_clean_linker_0, # of connection points: 2
#     Edge 24, Type (0, 1), BuildingBlock: CIFDUS_clean_linker_0, # of connection points: 2
#     Edge 25, Type (0, 1), BuildingBlock: CIFDUS_clean_linker_0, # of connection points: 2
#     Edge 26, Type (0, 1), BuildingBlock: CIFDUS_clean_linker_0, # of connection points: 2
#     Edge 27, Type (0, 1), BuildingBlock: CIFDUS_clean_linker_0, # of connection points: 2
#     Edge 28, Type (0, 1), BuildingBlock: CIFDUS_clean_linker_0, # of connection points: 2
#     Edge 29, Type (0, 1), BuildingBlock: CIFDUS_clean_linker_0, # of connection points: 2
#     Edge 30, Type (0, 1), BuildingBlock: CIFDUS_clean_linker_0, # of connection points: 2
#     Edge 31, Type (0, 1), BuildingBlock: CIFDUS_clean_linker_0, # of connection points: 2
#     Edge 32, Type (0, 1), BuildingBlock: CIFDUS_clean_linker_0, # of connection points: 2
#     Edge 33, Type (0, 1), BuildingBlock: CIFDUS_clean_linker_0, # of connection points: 2
#     Edge 34, Type (0, 1), BuildingBlock: CIFDUS_clean_linker_0, # of connection points: 2
#     Edge 35, Type (0, 1), BuildingBlock: CIFDUS_clean_linker_0, # of connection points: 2
# Relax obj value: 0.120
# Max RMSD: 0.121
# Mean RMSD: 0.085
data_MOF--net-zzz--node1-MIFKUJ_clean_sbu_0--node2-BETDAH_clean_linker_0--edge1-CIFDUS_clean_linker_0
_symmetry_space_group_name_H-M    P1
_symmetry_Int_Tables_number       1
_symmetry_cell_setting            triclinic
loop_
_symmetry_equiv_pos_as_xyz
'x, y, z'
_cell_length_a     44.53625
_cell_length_b     44.233858
_cell_length_c     14.330277
_cell_angle_alpha  89.845315
_cell_angle_beta   89.979745
_cell_angle_gamma 89.805555
loop_
_atom_site_label
_atom_site_type_symbol
_atom_site_fract_x
_atom_site_fract_y
_atom_site_fract_z
_atom_type_partial_charge
H0 H 0.82492 0.49054 0.11556 0.0
H1 H 0.73781 0.49015 -0.01022 0.0
H2 H 0.74657 0.49862 0.2892 0.0
C3 C 0.80069 0.49192 0.12333 0.0
C4 C 0.78814 0.49554 0.21186 0.0
C5 C 0.7827 0.48991 0.04402 0.0
C6 C 0.75146 0.49136 0.05216 0.0
C7 C 0.73822 0.49445 0.14117 0.0
C8 C 0.75669 0.49617 0.22086 0.0
N9 N 0.70658 0.49622 0.15265 0.0
C10 C 0.68659 0.49942 0.07862 0.0
H11 H 0.98923 0.80639 0.11162 0.0
H12 H 0.98709 0.7173 -0.00352 0.0
H13 H 0.97757 0.72993 0.29393 0.0
C14 C 0.98634 0.78226 0.12221 0.0
C15 C 0.98251 0.7708 0.21234 0.0
C16 C 0.98797 0.76313 0.04507 0.0
C17 C 0.98571 0.73186 0.05697 0.0
C18 C 0.98175 0.71975 0.14733 0.0
C19 C 0.98027 0.73932 0.22453 0.0
N20 N 0.97957 0.68815 0.16326 0.0
C21 C 0.98088 0.66655 0.09304 0.0
H22 H 0.69901 0.01125 0.97922 0.0
H23 H 0.79078 0.03074 0.91965 0.0
H24 H 0.76132 0.02238 0.20621 0.0
C25 C 0.72143 0.0159 0.00497 0.0
C26 C 0.72682 0.01694 0.10107 0.0
C27 C 0.74423 0.02132 0.94044 0.0
C28 C 0.77344 0.0265 0.97096 0.0
C29 C 0.77994 0.02618 0.06736 0.0
C30 C 0.75647 0.02175 0.13218 0.0
N31 N 0.80974 0.03043 0.10034 0.0
C32 C 0.83442 0.03054 0.04068 0.0
H33 H 0.50538 0.69389 0.08491 0.0
H34 H 0.49562 0.77959 0.94914 0.0
H35 H 0.49707 0.77433 0.25069 0.0
C36 C 0.5033 0.7183 0.09012 0.0
C37 C 0.50229 0.73193 0.17777 0.0
C38 C 0.501 0.7353 0.00841 0.0
C39 C 0.49735 0.76666 0.0132 0.0
C40 C 0.49604 0.78098 0.10117 0.0
C41 C 0.49819 0.76341 0.18317 0.0
N42 N 0.4927 0.81283 0.10948 0.0
C43 C 0.49341 0.83257 0.03376 0.0
H44 H 0.19773 0.54714 0.14476 0.0
H45 H 0.28443 0.55068 0.273 0.0
H46 H 0.27672 0.54536 0.97255 0.0
C47 C 0.222 0.54773 0.13762 0.0
C48 C 0.23495 0.54543 0.04927 0.0
C49 C 0.23966 0.54966 0.21766 0.0
C50 C 0.27097 0.54987 0.21015 0.0
C51 C 0.28454 0.54881 0.12111 0.0
C52 C 0.26636 0.54683 0.04083 0.0
N53 N 0.31625 0.54895 0.11012 0.0
C54 C 0.33639 0.54594 0.18384 0.0
H55 H 0.02199 0.18772 0.10425 0.0
H56 H 0.99703 0.26732 0.25607 0.0
H57 H 0.99751 0.26811 0.95425 0.0
C58 C 0.01591 0.21153 0.10468 0.0
C59 C 0.01108 0.22633 0.02013 0.0
C60 C 0.01056 0.22601 0.18948 0.0
C61 C 1.00143 0.25634 0.18997 0.0
C62 C 0.99757 0.27204 0.10477 0.0
C63 C 1.00173 0.25663 0.01985 0.0
N64 N 0.98888 0.30295 0.10236 0.0
C65 C 0.98884 0.32138 0.18082 0.0
H66 H 0.32655 0.96053 0.12084 0.0
H67 H 0.24116 0.96263 0.25705 0.0
H68 H 0.24629 0.96899 0.95607 0.0
C69 C 0.30222 0.96146 0.11588 0.0
C70 C 0.28865 0.9653 0.02888 0.0
C71 C 0.28523 0.96057 0.19743 0.0
C72 C 0.25396 0.9625 0.19278 0.0
C73 C 0.23961 0.96489 0.10518 0.0
C74 C 0.25714 0.96625 0.02325 0.0
N75 N 0.20784 0.96699 0.09786 0.0
C76 C 0.18885 0.96657 0.17504 0.0
H77 H 0.49525 0.31555 0.09793 0.0
H78 H 0.48401 0.22917 0.22764 0.0
H79 H 0.46985 0.23925 0.93048 0.0
C80 C 0.48963 0.29177 0.09165 0.0
C81 C 0.48183 0.27994 0.00477 0.0
C82 C 0.49051 0.27357 0.17115 0.0
C83 C 0.48369 0.24286 0.16488 0.0
C84 C 0.47626 0.23023 0.07752 0.0
C85 C 0.47553 0.24889 -0.00239 0.0
N86 N 0.46927 0.19907 0.0681 0.0
C87 C 0.47031 0.17866 0.14208 0.0
Zn88 Zn 0.01245 0.03448 0.60459 0.0
Zn89 Zn 0.02101 0.9543 0.65558 0.0
C90 C 0.99323 0.08088 0.71371 0.0
O91 O 0.97035 0.07418 0.65992 0.0
C92 C 0.01505 0.91604 0.51268 0.0
O93 O 0.04165 0.9112 0.54954 0.0
O94 O 0.00731 0.06441 0.50031 0.0
O95 O 0.05136 0.01233 0.57264 0.0
O96 O 0.06261 0.96598 0.61913 0.0
C97 C 0.03072 0.08084 0.49687 0.0
O98 O 0.05361 0.07428 0.55105 0.0
O99 O 0.01678 0.06445 0.70992 0.0
C100 C 0.99427 0.90554 0.73604 0.0
O101 O 0.97202 0.92198 0.7031 0.0
O102 O 0.02091 0.91577 0.73036 0.0
O103 O 0.99779 0.98287 0.7373 0.0
O104 O 0.9742 0.01121 0.63466 0.0
O105 O 1.00009 0.9391 0.53915 0.0
C106 C 0.06963 0.99019 0.5769 0.0
C107 C 0.97426 0.99672 0.71139 0.0
Zn108 Zn 0.4753 0.99807 0.57638 0.0
Zn109 Zn 0.55942 0.01033 0.56308 0.0
C110 C 0.43163 0.9808 0.70363 0.0
O111 O 0.433 0.95764 0.64653 0.0
C112 C 0.56939 0.00991 0.36626 0.0
O113 O 0.55182 0.03378 0.36724 0.0
O114 O 0.44247 0.98962 0.48547 0.0
O115 O 0.49191 0.03839 0.5353 0.0
O116 O 0.5398 0.05094 0.54642 0.0
C117 C 0.42235 0.01011 0.48766 0.0
O118 O 0.42717 0.03474 0.5364 0.0
O119 O 0.45073 1.002 0.69457 0.0
C120 C 0.61795 0.99426 0.60341 0.0
O121 O 0.60637 0.96864 0.57457 0.0
O122 O 0.60111 0.01748 0.60908 0.0
O123 O 0.54266 0.98087 0.65743 0.0
O124 O 0.50219 0.96153 0.59204 0.0
O125 O 0.5698 0.9926 0.43718 0.0
C126 C 0.51283 0.05764 0.52625 0.0
C127 C 0.52228 0.96086 0.65492 0.0
Zn128 Zn 0.52254 0.46482 0.56211 0.0
Zn129 Zn 0.51368 0.54041 0.62444 0.0
C130 C 0.51534 0.42374 0.69956 0.0
O131 O 0.54175 0.41838 0.66203 0.0
C132 C 0.50466 0.5864 0.49881 0.0
O133 O 0.47978 0.58558 0.54805 0.0
O134 O 0.5232 0.42745 0.48254 0.0
O135 O 0.49877 0.49422 0.48394 0.0
O136 O 0.47459 0.51949 0.592 0.0
C137 C 0.49674 0.41688 0.47551 0.0
O138 O 0.47418 0.43268 0.5091 0.0
O139 O 0.50122 0.44768 0.67577 0.0
C140 C 0.53085 0.59001 0.72243 0.0
O141 O 0.55549 0.58082 0.68067 0.0
O142 O 0.50724 0.57397 0.7163 0.0
O143 O 0.54998 0.51783 0.67533 0.0
O144 O 0.56399 0.476 0.60307 0.0
O145 O 0.52428 0.56575 0.51158 0.0
C146 C 0.47483 0.50669 0.51275 0.0
C147 C 0.56867 0.49637 0.66354 0.0
Zn148 Zn 0.04957 0.50942 0.59749 0.0
Zn149 Zn 0.97615 0.48983 0.65779 0.0
C150 C 0.09147 0.5258 0.72869 0.0
O151 O 0.08827 0.55008 0.67655 0.0
C152 C 0.93433 0.48833 0.52213 0.0
O153 O 0.9339 0.46177 0.56337 0.0
O154 O 0.08301 0.5201 0.50979 0.0
O155 O 0.03354 0.46974 0.54713 0.0
O156 O 0.99401 0.45034 0.61911 0.0
C157 C 0.10312 0.49957 0.50978 0.0
O158 O 0.09791 0.47408 0.55411 0.0
O159 O 0.07391 0.50352 0.71545 0.0
C160 C 0.92544 0.50869 0.74582 0.0
O161 O 0.93697 0.53332 0.70919 0.0
O162 O 0.94009 0.484 0.73998 0.0
O163 O 1.00162 0.5187 0.73109 0.0
O164 O 0.0224 0.54553 0.62019 0.0
O165 O 0.95515 0.50683 0.54323 0.0
C166 C 0.01511 0.4482 0.55986 0.0
C167 C 0.0087 0.54428 0.69781 0.0
H168 H 0.16847 0.01435 0.27131 0.0
H169 H 0.16663 0.91712 0.25923 0.0
H170 H 0.13215 0.91558 0.3927 0.0
H171 H 0.0997 0.94217 0.50438 0.0
H172 H 0.10004 0.03966 0.51256 0.0
H173 H 0.13829 0.04093 0.39053 0.0
C174 C 0.16056 0.99291 0.29867 0.0
C175 C 0.16961 0.96588 0.256 0.0
C176 C 0.14062 0.9923 0.37478 0.0
C177 C 0.15959 0.93814 0.29133 0.0
C178 C 0.14 0.93729 0.36754 0.0
C179 C 0.10862 0.96369 0.48107 0.0
C180 C 0.09689 0.99081 0.51749 0.0
C181 C 0.13002 0.96425 0.40897 0.0
C182 C 0.10849 0.01848 0.48542 0.0
C183 C 0.13031 0.01923 0.41531 0.0
H184 H 0.51504 0.17276 0.2661 0.0
H185 H 0.42897 0.13697 0.18681 0.0
H186 H 0.43276 0.09827 0.30915 0.0
H187 H 0.46249 0.07228 0.42857 0.0
H188 H 0.54979 0.10659 0.50413 0.0
H189 H 0.5434 0.14859 0.39474 0.0
C190 C 0.49709 0.15657 0.27662 0.0
C191 C 0.47186 0.15729 0.21809 0.0
C192 C 0.49964 0.13427 0.34635 0.0
C193 C 0.4486 0.13651 0.23144 0.0
C194 C 0.45078 0.11448 0.30123 0.0
C195 C 0.47989 0.08926 0.42295 0.0
C196 C 0.50662 0.08615 0.47468 0.0
C197 C 0.47644 0.11284 0.35799 0.0
C198 C 0.52899 0.10835 0.4653 0.0
C199 C 0.52544 0.13229 0.40226 0.0
H200 H 0.38079 0.5055 0.18338 0.0
H201 H 0.34093 0.57676 0.34604 0.0
H202 H 0.37964 0.57013 0.46679 0.0
H203 H 0.42609 0.54487 0.52274 0.0
H204 H 0.46572 0.47413 0.35542 0.0
H205 H 0.42587 0.4795 0.2407 0.0
C206 C 0.38062 0.51943 0.24564 0.0
C207 C 0.3584 0.54157 0.25657 0.0
C208 C 0.40291 0.51554 0.31389 0.0
C209 C 0.35809 0.55959 0.33686 0.0
C210 C 0.38016 0.55579 0.40562 0.0
C211 C 0.42582 0.53049 0.4616 0.0
C212 C 0.44899 0.50921 0.44783 0.0
C213 C 0.40287 0.53393 0.3946 0.0
C214 C 0.44833 0.49082 0.36783 0.0
C215 C 0.42553 0.49385 0.30189 0.0
H216 H 0.03573 0.35412 0.23646 0.0
H217 H 0.9441 0.33215 0.30313 0.0
H218 H 0.94501 0.3676 0.43468 0.0
H219 H 0.97102 0.40727 0.52339 0.0
H220 H 0.06235 0.43029 0.45206 0.0
H221 H 0.06266 0.39174 0.33078 0.0
C222 C 0.01612 0.35706 0.28053 0.0
C223 C 0.98986 0.34096 0.26091 0.0
C224 C 0.01682 0.37757 0.3551 0.0
C225 C 0.96448 0.3446 0.3176 0.0
C226 C 0.96504 0.36479 0.39256 0.0
C227 C 0.99118 0.40349 0.48251 0.0
C228 C 0.01661 0.42172 0.49685 0.0
C229 C 0.99098 0.38171 0.4112 0.0
C230 C 0.04244 0.41666 0.44247 0.0
C231 C 0.04262 0.39468 0.37276 0.0
H232 H 0.87988 0.99101 0.04026 0.0
H233 H 0.84184 0.06624 0.88973 0.0
H234 H 0.88125 0.06198 0.77044 0.0
H235 H 0.92652 0.03632 0.70911 0.0
H236 H 0.9647 0.96165 0.86402 0.0
H237 H 0.92511 0.96582 0.98013 0.0
C238 C 0.88047 0.00652 0.98147 0.0
C239 C 0.85845 0.02901 0.97333 0.0
C240 C 0.90304 0.00382 0.91352 0.0
C241 C 0.85894 0.04891 0.89706 0.0
C242 C 0.88133 0.04637 0.82888 0.0
C243 C 0.92618 0.02099 0.76818 0.0
C244 C 0.94875 0.99884 0.77776 0.0
C245 C 0.9035 0.02382 0.8362 0.0
C246 C 0.94777 0.97904 0.85482 0.0
C247 C 0.92514 0.9814 0.92162 0.0
H248 H 0.53742 0.87186 -0.00191 0.0
H249 H 0.45237 0.83957 0.89716 0.0
H250 H 0.45411 0.87589 0.76733 0.0
H251 H 0.47954 0.91762 0.6852 0.0
H252 H 0.56456 0.95009 0.78887 0.0
H253 H 0.5633 0.91283 0.91418 0.0
C254 C 0.51939 0.87284 0.94724 0.0
C255 C 0.49479 0.85341 0.95633 0.0
C256 C 0.52059 0.89375 0.87338 0.0
C257 C 0.47147 0.85456 0.89082 0.0
C258 C 0.47249 0.87526 0.81685 0.0
C259 C 0.49785 0.91649 0.7349 0.0
C260 C 0.52201 0.93682 0.7275 0.0
C261 C 0.4969 0.8951 0.80768 0.0
C262 C 0.54558 0.93489 0.79273 0.0
C263 C 0.54491 0.91356 0.86469 0.0
H264 H 0.67729 0.46321 0.93064 0.0
H265 H 0.6485 0.54601 0.06105 0.0
H266 H 0.61068 0.55366 0.93906 0.0
H267 H 0.58439 0.53555 0.80065 0.0
H268 H 0.61198 0.45201 0.67045 0.0
H269 H 0.65193 0.44604 0.78619 0.0
C270 C 0.66273 0.48293 0.93157 0.0
C271 C 0.66529 0.50402 0.00412 0.0
C272 C 0.64096 0.48703 0.86142 0.0
C273 C 0.64663 0.52954 0.0055 0.0
C274 C 0.62509 0.53389 0.93592 0.0
C275 C 0.59928 0.51614 0.79667 0.0
C276 C 0.59504 0.49423 0.72676 0.0
C277 C 0.62185 0.51261 0.86416 0.0
C278 C 0.61468 0.46927 0.72323 0.0
C279 C 0.63747 0.46576 0.78972 0.0
H280 H 0.00952 0.66671 0.92695 0.0
H281 H 0.95423 0.61283 0.10923 0.0
H282 H 0.95696 0.57046 1e-05 0.0
H283 H 0.9766 0.5483 0.85711 0.0
H284 H 0.0321 0.60131 0.67221 0.0
H285 H 0.02767 0.64466 0.77768 0.0
C286 C 0.998 0.64567 0.94191 0.0
C287 C 0.98176 0.64253 0.02537 0.0
C288 C 0.99978 0.6214 0.87875 0.0
C289 C 0.96685 0.61545 0.04504 0.0
C290 C 0.96844 0.59131 0.98281 0.0
C291 C 0.98767 0.56934 0.83928 0.0
C292 C 0.00481 0.57146 0.75699 0.0
C293 C 0.98508 0.59395 0.90006 0.0
C294 C 0.01878 0.59903 0.73505 0.0
C295 C 0.01632 0.62379 0.79549 0.0
H296 H 0.05827 0.19561 0.2547 0.0
H297 H 0.96462 0.21293 0.30752 0.0
H298 H 0.96218 0.1684 0.40953 0.0
H299 H 0.98546 0.12087 0.46623 0.0
H300 H 0.07911 0.10381 0.40965 0.0
H301 H 0.08275 0.1515 0.32427 0.0
C302 C 0.03765 0.19011 0.29136 0.0
C303 C 0.0117 0.20728 0.27438 0.0
C304 C 0.03617 0.16392 0.34589 0.0
C305 C 0.98494 0.20011 0.32104 0.0
C306 C 0.98343 0.17436 0.37765 0.0
C307 C 0.0065 0.12761 0.43431 0.0
C308 C 0.03179 0.10872 0.44155 0.0
C309 C 0.00858 0.15538 0.3871 0.0
C310 C 0.05928 0.11793 0.40316 0.0
C311 C 0.06143 0.14523 0.35517 0.0
H312 H 0.29657 0.01087 0.29182 0.0
H313 H 0.3133 0.91502 0.2899 0.0
H314 H 0.35784 0.92195 0.38765 0.0
H315 H 0.39644 0.95632 0.44819 0.0
H316 H 0.38113 0.05268 0.43989 0.0
H317 H 0.3318 0.04475 0.37007 0.0
C318 C 0.30923 0.99148 0.31693 0.0
C319 C 0.30177 0.96251 0.28547 0.0
C320 C 0.33571 0.99592 0.36747 0.0
C321 C 0.31854 0.93742 0.31545 0.0
C322 C 0.34429 0.94149 0.3694 0.0
C323 C 0.38226 0.97553 0.43098 0.0
C324 C 0.39259 0.00504 0.44663 0.0
C325 C 0.35394 0.97079 0.39119 0.0
C326 C 0.37376 0.02976 0.42686 0.0
C327 C 0.34552 0.02525 0.38756 0.0
H328 H 0.45003 0.29947 0.28137 0.0
H329 H 0.54486 0.28392 0.24982 0.0
H330 H 0.55573 0.32695 0.35166 0.0
H331 H 0.53789 0.37425 0.42385 0.0
H332 H 0.44252 0.39133 0.44261 0.0
H333 H 0.43213 0.34273 0.3711 0.0
C334 C 0.47298 0.30473 0.30085 0.0
C335 C 0.49664 0.28865 0.25994 0.0
C336 C 0.47891 0.3305 0.35393 0.0
C337 C 0.5264 0.29584 0.28267 0.0
C338 C 0.53255 0.32077 0.33911 0.0
C339 C 0.51487 0.36722 0.4127 0.0
C340 C 0.49106 0.38667 0.43635 0.0
C341 C 0.50897 0.33924 0.37066 0.0
C342 C 0.46131 0.37702 0.42349 0.0
C343 C 0.45528 0.34913 0.38307 0.0
H344 H 0.22889 0.49925 0.31327 0.0
H345 H 0.21242 0.59513 0.31207 0.0
H346 H 0.16801 0.58811 0.41055 0.0
H347 H 0.12923 0.55365 0.47111 0.0
H348 H 0.14451 0.45729 0.46203 0.0
H349 H 0.19377 0.46533 0.3922 0.0
C350 C 0.21636 0.51863 0.33882 0.0
C351 C 0.22385 0.54762 0.30716 0.0
C352 C 0.18993 0.51415 0.38982 0.0
C353 C 0.20721 0.57269 0.33777 0.0
C354 C 0.18149 0.56857 0.3921 0.0
C355 C 0.14339 0.53447 0.45383 0.0
C356 C 0.13301 0.50492 0.46927 0.0
C357 C 0.17175 0.53925 0.41387 0.0
C358 C 0.15186 0.48025 0.44924 0.0
C359 C 0.1801 0.48481 0.40989 0.0
H360 H 0.9462 0.79073 0.94256 0.0
H361 H 0.04057 0.77003 0.95247 0.0
H362 H 0.05123 0.81233 0.84687 0.0
H363 H 0.03426 0.86071 0.77839 0.0
H364 H 0.93966 0.88256 0.77934 0.0
H365 H 0.92845 0.83455 0.85433 0.0
C366 C 0.96886 0.7947 0.91757 0.0
C367 C 0.99257 0.77746 0.95384 0.0
C368 C 0.97485 0.81999 0.86195 0.0
C369 C 0.02201 0.78289 0.92353 0.0
C370 C 0.02812 0.80742 0.86493 0.0
C371 C 0.01121 0.85482 0.79453 0.0
C372 C 0.98793 0.87547 0.77564 0.0
C373 C 0.00486 0.82713 0.8383 0.0
C374 C 0.95808 0.86728 0.79468 0.0
C375 C 0.95158 0.83975 0.83718 0.0
H376 H 0.73553 0.97422 0.82719 0.0
H377 H 0.73087 0.07126 0.83989 0.0
H378 H 0.69234 0.07184 0.7184 0.0
H379 H 0.65165 0.04378 0.64201 0.0
H380 H 0.6546 0.94623 0.63813 0.0
H381 H 0.70213 0.94665 0.72193 0.0
C382 C 0.72722 0.99548 0.79915 0.0
C383 C 0.73562 0.02261 0.84182 0.0
C384 C 0.70389 0.99541 0.73376 0.0
C385 C 0.72471 0.05017 0.80683 0.0
C386 C 0.70225 0.05042 0.73893 0.0
C387 C 0.66302 0.02267 0.65801 0.0
C388 C 0.64917 0.99503 0.6371 0.0
C389 C 0.6902 0.02305 0.70727 0.0
C390 C 0.66449 0.96783 0.65552 0.0
C391 C 0.69172 0.96801 0.70331 0.0
H392 H 0.55062 0.71246 0.93228 0.0
H393 H 0.45487 0.7183 0.89693 0.0
H394 H 0.45561 0.67295 0.79891 0.0
H395 H 0.48271 0.62716 0.74699 0.0
H396 H 0.57834 0.62054 0.79162 0.0
H397 H 0.57853 0.67037 0.86392 0.0
C398 C 0.53021 0.70451 0.89919 0.0
C399 C 0.50281 0.71859 0.92028 0.0
C400 C 0.53067 0.67758 0.84829 0.0
C401 C 0.47624 0.70798 0.87958 0.0
C402 C 0.47662 0.68171 0.82551 0.0
C403 C 0.50351 0.63668 0.77283 0.0
C404 C 0.53034 0.62 0.76633 0.0
C405 C 0.5035 0.66547 0.81378 0.0
C406 C 0.55734 0.63284 0.79731 0.0
C407 C 0.55752 0.66138 0.83804 0.0
H408 H 0.80358 0.53645 0.94654 0.0
H409 H 0.79917 0.43935 0.95024 0.0
H410 H 0.8434 0.43635 0.8488 0.0
H411 H 0.88833 0.46149 0.78504 0.0
H412 H 0.8941 0.55888 0.79388 0.0
H413 H 0.84463 0.56176 0.86537 0.0
C414 C 0.81154 0.51477 0.92101 0.0
C415 C 0.79824 0.48819 0.9541 0.0
C416 C 0.83794 0.51331 0.86842 0.0
C417 C 0.80891 0.46005 0.92347 0.0
C418 C 0.83453 0.45837 0.86738 0.0
C419 C 0.87866 0.4833 0.80243 0.0
C420 C 0.89509 0.50987 0.78631 0.0
C421 C 0.85017 0.48483 0.84403 0.0
C422 C 0.88207 0.53805 0.80693 0.0
C423 C 0.8537 0.53977 0.84734 0.0
H424 H 0.96452 0.19919 0.93957 0.0
H425 H 0.06045 0.2088 0.92292 0.0
H426 H 0.06384 0.16345 0.82531 0.0
H427 H 0.0397 0.11782 0.76039 0.0
H428 H 0.94368 0.10771 0.78425 0.0
H429 H 0.94005 0.15605 0.86504 0.0
C430 C 0.98595 0.19199 0.91094 0.0
C431 C 0.01211 0.20752 0.93577 0.0
C432 C 0.98777 0.16514 0.85948 0.0
C433 C 0.03999 0.19754 0.90188 0.0
C434 C 0.04194 0.1713 0.84792 0.0
C435 C 0.01808 0.12617 0.78409 0.0
C436 C 0.99207 0.10907 0.76807 0.0
C437 C 0.01609 0.15427 0.82941 0.0
C438 C 0.96405 0.1204 0.79679 0.0
C439 C 0.96192 0.14812 0.84234 0.0
H440 H 0.33364 0.0054 0.01173 0.0
H441 H 0.28895 0.93346 0.86529 0.0
H442 H 0.32942 0.93263 0.74889 0.0
H443 H 0.37979 0.94887 0.69947 0.0
H444 H 0.42504 0.01984 0.84992 0.0
H445 H 0.38217 0.02418 0.9559 0.0
C446 C 0.33258 0.98987 0.95332 0.0
C447 C 0.30858 0.96933 0.94708 0.0
C448 C 0.3563 0.98888 0.88924 0.0
C449 C 0.30714 0.94955 0.87096 0.0
C450 C 0.33045 0.94883 0.80537 0.0
C451 C 0.38035 0.96524 0.75563 0.0
C452 C 0.40583 0.98365 0.76798 0.0
C453 C 0.35558 0.96771 0.81574 0.0
C454 C 0.40587 0.0052 0.83966 0.0
C455 C 0.38134 0.00776 0.89994 0.0
H456 H 0.45608 0.33542 -0.00968 0.0
H457 H 0.51006 0.27117 0.83807 0.0
H458 H 0.52303 0.31033 0.72418 0.0
H459 H 0.52511 0.36404 0.68279 0.0
H460 H 0.47284 0.42911 0.83749 0.0
H461 H 0.45324 0.38839 0.93693 0.0
C462 C 0.4702 0.32991 0.93101 0.0
C463 C 0.48249 0.30059 0.92312 0.0
C464 C 0.47844 0.35279 0.86817 0.0
C465 C 0.5003 0.2935 0.84542 0.0
C466 C 0.50804 0.316 0.78116 0.0
C467 C 0.50936 0.36933 0.73823 0.0
C468 C 0.50102 0.39958 0.75487 0.0
C469 C 0.49832 0.34593 0.79444 0.0
C470 C 0.47986 0.40603 0.82453 0.0
C471 C 0.46869 0.38277 0.88111 0.0
H472 H 0.19127 0.50368 0.03312 0.0
H473 H 0.23256 0.57798 0.88675 0.0
H474 H 0.19177 0.5776 0.77172 0.0
H475 H 0.142 0.55955 0.72352 0.0
H476 H 0.10017 0.48595 0.87264 0.0
H477 H 0.14347 0.48295 0.97761 0.0
C478 C 0.19151 0.51951 0.97513 0.0
C479 C 0.21464 0.54105 0.96859 0.0
C480 C 0.16763 0.5197 0.91154 0.0
C481 C 0.21505 0.56115 0.89277 0.0
C482 C 0.19155 0.56115 0.82791 0.0
C483 C 0.14228 0.54289 0.77919 0.0
C484 C 0.11763 0.52337 0.79166 0.0
C485 C 0.16728 0.54119 0.83853 0.0
C486 C 0.1187 0.50141 0.86242 0.0
C487 C 0.14347 0.49965 0.92213 0.0
H488 H 0.95568 0.82609 0.2278 0.0
H489 H 0.01378 0.7638 0.37465 0.0
H490 H 0.02678 0.80336 0.48574 0.0
H491 H 0.02727 0.85683 0.52692 0.0
H492 H 0.97128 0.92035 0.37779 0.0
H493 H 0.95211 0.8791 0.28007 0.0
C494 C 0.9709 0.8211 0.2849 0.0
C495 C 0.98415 0.79214 0.29203 0.0
C496 C 0.9792 0.84429 0.34625 0.0
C497 C 0.00321 0.78577 0.36763 0.0
C498 C 0.01098 0.80852 0.43039 0.0
C499 C 0.01086 0.86172 0.47294 0.0
C500 C 1.00127 0.89166 0.45744 0.0
C501 C 1.0001 0.83806 0.41782 0.0
C502 C 0.97926 0.89751 0.38978 0.0
C503 C 0.96834 0.87396 0.33423 0.0
H504 H 0.67116 0.04085 0.08027 0.0
H505 H 0.7237 0.98525 0.26712 0.0
H506 H 0.67883 0.97596 0.36242 0.0
H507 H 0.62445 0.98329 0.39029 0.0
H508 H 0.57262 0.03759 0.19759 0.0
H509 H 0.61737 0.04615 0.10319 0.0
C510 C 0.67287 0.02628 0.14105 0.0
C511 C 0.70078 0.01343 0.16563 0.0
C512 C 0.64696 0.02019 0.19296 0.0
C513 C 0.70261 0.99558 0.24674 0.0
C514 C 0.67687 0.98995 0.30048 0.0
C515 C 0.62279 0.99647 0.32663 0.0
C516 C 0.5951 0.00968 0.30077 0.0
C517 C 0.64884 1.00187 0.27354 0.0
C518 C 0.59355 0.02706 0.21878 0.0
C519 C 0.61918 0.03221 0.16528 0.0
H520 H 0.54238 0.68697 0.20992 0.0
H521 H 0.46527 0.73147 0.33005 0.0
H522 H 0.46026 0.69046 0.44417 0.0
H523 H 0.47397 0.63932 0.49578 0.0
H524 H 0.54953 0.59355 0.36991 0.0
H525 H 0.55856 0.63753 0.26982 0.0
C526 C 0.52474 0.68788 0.26212 0.0
C527 C 0.50396 0.71199 0.26101 0.0
C528 C 0.52125 0.66367 0.32434 0.0
C529 C 0.48158 0.71325 0.32981 0.0
C530 C 0.47847 0.68958 0.39403 0.0
C531 C 0.49242 0.63888 0.44637 0.0
C532 C 0.51072 0.61294 0.43889 0.0
C533 C 0.49746 0.66419 0.38942 0.0
C534 C 0.53492 0.61307 0.37611 0.0
C535 C 0.54015 0.63824 0.31925 0.0
H536 H 0.83759 0.53071 0.22873 0.0
H537 H 0.78559 0.46339 0.3745 0.0
H538 H 0.82616 0.45698 0.48814 0.0
H539 H 0.87846 0.46569 0.53277 0.0
H540 H 0.93151 0.5317 0.38479 0.0
H541 H 0.88845 0.54328 0.28371 0.0
C542 C 0.835 0.51499 0.28639 0.0
C543 C 0.80883 0.49722 0.29275 0.0
C544 C 0.85878 0.51072 0.34922 0.0
C545 C 0.80543 0.47735 0.36842 0.0
C546 C 0.82878 0.47342 0.43253 0.0
C547 C 0.88065 0.48264 0.47836 0.0
C548 C 0.90832 0.49733 0.46442 0.0
C549 C 0.85592 0.48912 0.42127 0.0
C550 C 0.91055 0.51988 0.39582 0.0
C551 C 0.88595 0.52648 0.33833 0.0
loop_
_geom_bond_atom_site_label_1
_geom_bond_atom_site_label_2
_geom_bond_distance
_geom_bond_site_symmetry_2
_ccdc_geom_bond_type
H0 C3 0.929 . S
H1 C6 0.929 . S
H2 C8 0.930 . S
C3 H0 0.929 . S
C3 C4 1.398 . S
C3 C5 1.396 1_554 S
C4 C3 1.398 . S
C4 C8 1.407 . S
C5 C3 1.396 1_556 S
C5 C6 1.394 . S
C6 H1 0.929 . S
C6 C5 1.394 . S
C6 C7 1.382 1_556 S
C7 C6 1.382 1_554 S
C7 C8 1.392 . S
C7 N9 1.420 . S
C8 H2 0.930 . S
C8 C4 1.407 . S
C8 C7 1.392 . S
N9 C7 1.420 . S
N9 C10 1.244 1_554 S
C10 N9 1.244 1_556 S
H11 C14 0.929 . S
H12 C17 0.929 . S
H13 C19 0.930 . S
C14 H11 0.929 . S
C14 C15 1.398 . S
C14 C16 1.396 1_554 S
C15 C14 1.398 . S
C15 C19 1.407 . S
C16 C14 1.396 1_556 S
C16 C17 1.394 . S
C17 H12 0.929 . S
C17 C16 1.394 . S
C17 C18 1.382 1_556 S
C18 C17 1.382 1_554 S
C18 C19 1.392 . S
C18 N20 1.420 . S
C19 H13 0.930 . S
C19 C15 1.407 . S
C19 C18 1.392 . S
N20 C18 1.420 . S
N20 C21 1.244 1_554 S
C21 N20 1.244 1_556 S
H22 C25 0.929 . S
H23 C28 0.929 . S
H24 C30 0.930 . S
C25 H22 0.929 . S
C25 C26 1.395 1_565 S
C25 C27 1.394 1_564 S
C26 C25 1.395 1_545 S
C26 C30 1.414 . S
C27 C25 1.394 1_546 S
C27 C28 1.397 . S
C28 H23 0.929 . S
C28 C27 1.397 . S
C28 C29 1.382 1_556 S
C29 C28 1.382 1_554 S
C29 C30 1.392 . S
C29 N31 1.420 . S
C30 H24 0.930 . S
C30 C26 1.414 . S
C30 C29 1.392 . S
N31 C29 1.420 . S
N31 C32 1.232 1_544 S
C32 N31 1.232 1_566 S
H33 C36 0.929 . S
H34 C39 0.929 . S
H35 C41 0.930 . S
C36 H33 0.929 . S
C36 C37 1.398 . S
C36 C38 1.396 1_554 S
C37 C36 1.398 . S
C37 C41 1.407 . S
C38 C36 1.396 1_556 S
C38 C39 1.394 . S
C39 H34 0.929 . S
C39 C38 1.394 . S
C39 C40 1.382 1_556 S
C40 C39 1.382 1_554 S
C40 C41 1.392 . S
C40 N42 1.420 . S
C41 H35 0.930 . S
C41 C37 1.407 . S
C41 C40 1.392 . S
N42 C40 1.420 . S
N42 C43 1.244 1_554 S
C43 N42 1.244 1_556 S
H44 C47 0.929 . S
H45 C50 0.929 . S
H46 C52 0.930 . S
C47 H44 0.929 . S
C47 C48 1.398 . S
C47 C49 1.396 . S
C48 C47 1.398 . S
C48 C52 1.407 . S
C49 C47 1.396 . S
C49 C50 1.394 . S
C50 H45 0.929 . S
C50 C49 1.394 . S
C50 C51 1.382 . S
C51 C50 1.382 . S
C51 C52 1.392 . S
C51 N53 1.420 . S
C52 H46 0.930 . S
C52 C48 1.407 . S
C52 C51 1.392 . S
N53 C51 1.420 . S
N53 C54 1.244 . S
C54 N53 1.244 . S
H55 C58 0.929 . S
H56 C61 0.929 . S
H57 C63 0.930 . S
C58 H55 0.929 . S
C58 C59 1.398 . S
C58 C60 1.396 . S
C59 C58 1.398 . S
C59 C63 1.407 . S
C60 C58 1.396 . S
C60 C61 1.394 . S
C61 H56 0.929 . S
C61 C60 1.394 . S
C61 C62 1.382 . S
C62 C61 1.382 . S
C62 C63 1.392 . S
C62 N64 1.420 . S
C63 H57 0.930 . S
C63 C59 1.407 . S
C63 C62 1.392 . S
N64 C62 1.420 . S
N64 C65 1.244 . S
C65 N64 1.244 . S
H66 C69 0.929 . S
H67 C72 0.929 . S
H68 C74 0.930 . S
C69 H66 0.929 . S
C69 C70 1.398 1_565 S
C69 C71 1.394 1_565 S
C70 C69 1.398 1_545 S
C70 C74 1.407 . S
C71 C69 1.394 1_545 S
C71 C72 1.398 . S
C72 H67 0.929 . S
C72 C71 1.398 . S
C72 C73 1.382 . S
C73 C72 1.382 . S
C73 C74 1.392 . S
C73 N75 1.420 . S
C74 H68 0.930 . S
C74 C70 1.407 . S
C74 C73 1.392 . S
N75 C73 1.420 . S
N75 C76 1.236 1_545 S
C76 N75 1.236 1_565 S
H77 C80 0.929 . S
H78 C83 0.929 . S
H79 C85 0.930 . S
C80 H77 0.929 . S
C80 C81 1.398 . S
C80 C82 1.396 . S
C81 C80 1.398 . S
C81 C85 1.407 . S
C82 C80 1.396 . S
C82 C83 1.394 . S
C83 H78 0.929 . S
C83 C82 1.394 . S
C83 C84 1.382 . S
C84 C83 1.382 . S
C84 C85 1.392 . S
C84 N86 1.420 . S
C85 H79 0.930 . S
C85 C81 1.407 . S
C85 C84 1.392 . S
N86 C84 1.420 . S
N86 C87 1.244 . S
C87 N86 1.244 . S
Zn88 O94 1.969 1_455 S
Zn88 O95 1.965 . S
Zn88 O99 2.024 . S
Zn88 O104 1.969 1_455 S
Zn89 O96 1.987 . S
Zn89 O102 1.976 . S
Zn89 O103 1.956 1_455 S
Zn89 O105 2.012 1_455 S
C90 O91 1.229 . S
C90 O99 1.058 . S
O91 C90 1.229 . S
C92 O93 1.229 1_655 S
C92 O105 1.058 . S
O93 C92 1.229 1_455 S
O94 Zn88 1.969 1_655 S
O94 C97 1.267 1_655 S
O95 Zn88 1.965 . S
O95 C106 1.260 1_545 S
O96 Zn89 1.987 . S
O96 C106 1.258 . S
C97 O94 1.267 1_455 S
C97 O98 1.228 . S
O98 C97 1.228 . S
O99 Zn88 2.024 . S
O99 C90 1.058 . S
C100 O101 1.228 . S
C100 O102 1.267 1_655 S
O101 C100 1.228 . S
O102 Zn89 1.976 . S
O102 C100 1.267 1_455 S
O103 Zn89 1.956 1_655 S
O103 C107 1.260 1_565 S
O104 Zn88 1.969 1_655 S
O104 C107 1.258 . S
O105 Zn89 2.012 1_655 S
O105 C92 1.058 . S
C106 O95 1.260 1_565 S
C106 O96 1.258 . S
C107 O103 1.260 1_545 S
C107 O104 1.258 . S
Zn108 O114 1.969 . S
Zn108 O115 1.965 1_565 S
Zn108 O119 2.024 1_565 S
Zn108 O124 1.969 . S
Zn109 O116 1.969 . S
Zn109 O122 1.969 . S
Zn109 O123 1.965 1_545 S
Zn109 O125 2.024 1_545 S
C110 O111 1.229 1_545 S
C110 O119 1.058 . S
O111 C110 1.229 1_565 S
C112 O113 1.229 1_565 S
C112 O125 1.058 . S
O113 C112 1.229 1_545 S
O114 Zn108 1.969 . S
O114 C117 1.267 . S
O115 Zn108 1.965 1_545 S
O115 C126 1.260 . S
O116 Zn109 1.969 . S
O116 C126 1.258 . S
C117 O114 1.267 . S
C117 O118 1.228 1_565 S
O118 C117 1.228 1_545 S
O119 Zn108 2.024 1_545 S
O119 C110 1.058 . S
C120 O121 1.228 1_545 S
C120 O122 1.267 . S
O121 C120 1.228 1_565 S
O122 Zn109 1.969 . S
O122 C120 1.267 . S
O123 Zn109 1.965 1_565 S
O123 C127 1.260 . S
O124 Zn108 1.969 . S
O124 C127 1.258 . S
O125 Zn109 2.024 1_565 S
O125 C112 1.058 . S
C126 O115 1.260 . S
C126 O116 1.258 . S
C127 O123 1.260 . S
C127 O124 1.258 . S
Zn128 O134 1.969 . S
Zn128 O135 1.965 . S
Zn128 O139 2.024 . S
Zn128 O144 1.969 . S
Zn129 O136 1.969 . S
Zn129 O142 1.969 . S
Zn129 O143 1.965 . S
Zn129 O145 2.024 . S
C130 O131 1.229 . S
C130 O139 1.058 . S
O131 C130 1.229 . S
C132 O133 1.229 . S
C132 O145 1.058 . S
O133 C132 1.229 . S
O134 Zn128 1.969 . S
O134 C137 1.267 . S
O135 Zn128 1.965 . S
O135 C146 1.260 . S
O136 Zn129 1.969 . S
O136 C146 1.258 . S
C137 O134 1.267 . S
C137 O138 1.228 . S
O138 C137 1.228 . S
O139 Zn128 2.024 . S
O139 C130 1.058 . S
C140 O141 1.228 . S
C140 O142 1.267 . S
O141 C140 1.228 . S
O142 Zn129 1.969 . S
O142 C140 1.267 . S
O143 Zn129 1.965 . S
O143 C147 1.260 . S
O144 Zn128 1.969 . S
O144 C147 1.258 . S
O145 Zn129 2.024 . S
O145 C132 1.058 . S
C146 O135 1.260 . S
C146 O136 1.258 . S
C147 O143 1.260 . S
C147 O144 1.258 . S
Zn148 O154 1.969 . S
Zn148 O155 1.965 . S
Zn148 O159 2.024 . S
Zn148 O164 1.969 . S
Zn149 O156 1.969 . S
Zn149 O162 1.969 . S
Zn149 O163 1.965 . S
Zn149 O165 2.024 . S
C150 O151 1.229 . S
C150 O159 1.058 . S
O151 C150 1.229 . S
C152 O153 1.229 . S
C152 O165 1.058 . S
O153 C152 1.229 . S
O154 Zn148 1.969 . S
O154 C157 1.267 . S
O155 Zn148 1.965 . S
O155 C166 1.260 . S
O156 Zn149 1.969 . S
O156 C166 1.258 1_655 S
C157 O154 1.267 . S
C157 O158 1.228 . S
O158 C157 1.228 . S
O159 Zn148 2.024 . S
O159 C150 1.058 . S
C160 O161 1.228 . S
C160 O162 1.267 . S
O161 C160 1.228 . S
O162 Zn149 1.969 . S
O162 C160 1.267 . S
O163 Zn149 1.965 . S
O163 C167 1.260 1_655 S
O164 Zn148 1.969 . S
O164 C167 1.258 . S
O165 Zn149 2.024 . S
O165 C152 1.058 . S
C166 O155 1.260 . S
C166 O156 1.258 1_455 S
C167 O163 1.260 1_455 S
C167 O164 1.258 . S
H168 C174 0.930 . S
H169 C177 0.930 . S
H170 C178 0.930 . S
H171 C179 0.930 . S
H172 C182 0.930 . S
H173 C183 0.930 . S
C174 H168 0.930 . S
C174 C175 1.355 1_545 S
C174 C176 1.415 . S
C175 C174 1.355 1_565 S
C175 C177 1.419 . S
C176 C174 1.415 . S
C176 C181 1.425 1_545 S
C176 C183 1.409 . S
C177 H169 0.930 . S
C177 C175 1.419 . S
C177 C178 1.362 . S
C178 H170 0.930 . S
C178 C177 1.362 . S
C178 C181 1.409 . S
C179 H171 0.930 . S
C179 C180 1.352 1_565 S
C179 C181 1.415 . S
C180 C179 1.352 1_545 S
C180 C182 1.423 . S
C181 C176 1.425 1_565 S
C181 C178 1.409 . S
C181 C179 1.415 . S
C182 H172 0.930 . S
C182 C180 1.423 . S
C182 C183 1.362 . S
C183 H173 0.930 . S
C183 C176 1.409 . S
C183 C182 1.362 . S
H184 C190 0.930 . S
H185 C193 0.930 . S
H186 C194 0.930 . S
H187 C195 0.930 . S
H188 C198 0.930 . S
H189 C199 0.930 . S
C190 H184 0.930 . S
C190 C191 1.355 . S
C190 C192 1.415 . S
C191 C190 1.355 . S
C191 C193 1.419 . S
C192 C190 1.415 . S
C192 C197 1.425 . S
C192 C199 1.409 . S
C193 H185 0.930 . S
C193 C191 1.419 . S
C193 C194 1.362 . S
C194 H186 0.930 . S
C194 C193 1.362 . S
C194 C197 1.409 . S
C195 H187 0.930 . S
C195 C196 1.355 . S
C195 C197 1.415 . S
C196 C195 1.355 . S
C196 C198 1.419 . S
C197 C192 1.425 . S
C197 C194 1.409 . S
C197 C195 1.415 . S
C198 H188 0.930 . S
C198 C196 1.419 . S
C198 C199 1.362 . S
C199 H189 0.930 . S
C199 C192 1.409 . S
C199 C198 1.362 . S
H200 C206 0.930 . S
H201 C209 0.930 . S
H202 C210 0.930 . S
H203 C211 0.930 . S
H204 C214 0.930 . S
H205 C215 0.930 . S
C206 H200 0.930 . S
C206 C207 1.355 . S
C206 C208 1.415 . S
C207 C206 1.355 . S
C207 C209 1.419 . S
C208 C206 1.415 . S
C208 C213 1.425 . S
C208 C215 1.409 . S
C209 H201 0.930 . S
C209 C207 1.419 . S
C209 C210 1.362 . S
C210 H202 0.930 . S
C210 C209 1.362 . S
C210 C213 1.409 . S
C211 H203 0.930 . S
C211 C212 1.355 . S
C211 C213 1.415 . S
C212 C211 1.355 . S
C212 C214 1.419 . S
C213 C208 1.425 . S
C213 C210 1.409 . S
C213 C211 1.415 . S
C214 H204 0.930 . S
C214 C212 1.419 . S
C214 C215 1.362 . S
C215 H205 0.930 . S
C215 C208 1.409 . S
C215 C214 1.362 . S
H216 C222 0.930 . S
H217 C225 0.930 . S
H218 C226 0.930 1_655 S
H219 C227 0.930 1_655 S
H220 C230 0.930 . S
H221 C231 0.930 . S
C222 H216 0.930 . S
C222 C223 1.355 . S
C222 C224 1.415 . S
C223 C222 1.355 . S
C223 C225 1.419 . S
C224 C222 1.415 . S
C224 C229 1.425 . S
C224 C231 1.409 . S
C225 H217 0.930 . S
C225 C223 1.419 . S
C225 C226 1.362 . S
C226 H218 0.930 1_455 S
C226 C225 1.362 . S
C226 C229 1.409 . S
C227 H219 0.930 1_455 S
C227 C228 1.355 . S
C227 C229 1.415 . S
C228 C227 1.355 . S
C228 C230 1.419 . S
C229 C224 1.425 . S
C229 C226 1.409 . S
C229 C227 1.415 . S
C230 H220 0.930 . S
C230 C228 1.419 . S
C230 C231 1.362 . S
C231 H221 0.930 . S
C231 C224 1.409 . S
C231 C230 1.362 . S
H232 C238 0.930 1_554 S
H233 C241 0.930 . S
H234 C242 0.930 . S
H235 C243 0.930 . S
H236 C246 0.930 . S
H237 C247 0.930 . S
C238 H232 0.930 1_556 S
C238 C239 1.355 1_565 S
C238 C240 1.415 . S
C239 C238 1.355 1_545 S
C239 C241 1.419 . S
C240 C238 1.415 . S
C240 C245 1.425 1_565 S
C240 C247 1.409 . S
C241 H233 0.930 . S
C241 C239 1.419 . S
C241 C242 1.362 . S
C242 H234 0.930 . S
C242 C241 1.362 . S
C242 C245 1.409 . S
C243 H235 0.930 . S
C243 C244 1.354 . S
C243 C245 1.415 . S
C244 C243 1.354 . S
C244 C246 1.420 1_545 S
C245 C240 1.425 1_545 S
C245 C242 1.409 . S
C245 C243 1.415 . S
C246 H236 0.930 . S
C246 C244 1.420 1_565 S
C246 C247 1.362 . S
C247 H237 0.930 . S
C247 C240 1.409 . S
C247 C246 1.362 . S
H248 C254 0.930 . S
H249 C257 0.930 . S
H250 C258 0.930 . S
H251 C259 0.930 . S
H252 C262 0.930 . S
H253 C263 0.930 . S
C254 H248 0.930 . S
C254 C255 1.355 . S
C254 C256 1.415 . S
C255 C254 1.355 . S
C255 C257 1.419 . S
C256 C254 1.415 . S
C256 C261 1.425 . S
C256 C263 1.409 . S
C257 H249 0.930 . S
C257 C255 1.419 . S
C257 C258 1.362 . S
C258 H250 0.930 . S
C258 C257 1.362 . S
C258 C261 1.409 . S
C259 H251 0.930 . S
C259 C260 1.355 . S
C259 C261 1.415 . S
C260 C259 1.355 . S
C260 C262 1.419 . S
C261 C256 1.425 . S
C261 C258 1.409 . S
C261 C259 1.415 . S
C262 H252 0.930 . S
C262 C260 1.419 . S
C262 C263 1.362 . S
C263 H253 0.930 . S
C263 C256 1.409 . S
C263 C262 1.362 . S
H264 C270 0.930 . S
H265 C273 0.930 . S
H266 C274 0.930 . S
H267 C275 0.930 . S
H268 C278 0.930 . S
H269 C279 0.930 . S
C270 H264 0.930 . S
C270 C271 1.355 . S
C270 C272 1.415 . S
C271 C270 1.355 . S
C271 C273 1.419 . S
C272 C270 1.415 . S
C272 C277 1.425 . S
C272 C279 1.409 . S
C273 H265 0.930 . S
C273 C271 1.419 . S
C273 C274 1.362 . S
C274 H266 0.930 . S
C274 C273 1.362 . S
C274 C277 1.409 . S
C275 H267 0.930 . S
C275 C276 1.355 . S
C275 C277 1.415 . S
C276 C275 1.355 . S
C276 C278 1.419 . S
C277 C272 1.425 . S
C277 C274 1.409 . S
C277 C275 1.415 . S
C278 H268 0.930 . S
C278 C276 1.419 . S
C278 C279 1.362 . S
C279 H269 0.930 . S
C279 C272 1.409 . S
C279 C278 1.362 . S
H280 C286 0.930 . S
H281 C289 0.930 1_554 S
H282 C290 0.930 . S
H283 C291 0.930 . S
H284 C294 0.930 . S
H285 C295 0.930 . S
C286 H280 0.930 . S
C286 C287 1.355 . S
C286 C288 1.415 . S
C287 C286 1.355 . S
C287 C289 1.419 . S
C288 C286 1.415 . S
C288 C293 1.425 . S
C288 C295 1.409 . S
C289 H281 0.930 1_556 S
C289 C287 1.419 . S
C289 C290 1.362 . S
C290 H282 0.930 . S
C290 C289 1.362 . S
C290 C293 1.409 . S
C291 H283 0.930 . S
C291 C292 1.355 . S
C291 C293 1.415 . S
C292 C291 1.355 . S
C292 C294 1.419 . S
C293 C288 1.425 . S
C293 C290 1.409 . S
C293 C291 1.415 . S
C294 H284 0.930 . S
C294 C292 1.419 . S
C294 C295 1.362 . S
C295 H285 0.930 . S
C295 C288 1.409 . S
C295 C294 1.362 . S
H296 C302 0.930 . S
H297 C305 0.930 . S
H298 C306 0.930 . S
H299 C307 0.930 . S
H300 C310 0.930 . S
H301 C311 0.930 . S
C302 H296 0.930 . S
C302 C303 1.355 . S
C302 C304 1.415 . S
C303 C302 1.355 . S
C303 C305 1.419 . S
C304 C302 1.415 . S
C304 C309 1.425 . S
C304 C311 1.409 . S
C305 H297 0.930 . S
C305 C303 1.419 . S
C305 C306 1.362 1_455 S
C306 H298 0.930 . S
C306 C305 1.362 1_655 S
C306 C309 1.409 1_655 S
C307 H299 0.930 . S
C307 C308 1.355 1_655 S
C307 C309 1.415 1_655 S
C308 C307 1.355 1_455 S
C308 C310 1.419 . S
C309 C304 1.425 . S
C309 C306 1.409 1_455 S
C309 C307 1.415 1_455 S
C310 H300 0.930 . S
C310 C308 1.419 . S
C310 C311 1.362 . S
C311 H301 0.930 . S
C311 C304 1.409 . S
C311 C310 1.362 . S
H312 C318 0.930 . S
H313 C321 0.930 . S
H314 C322 0.930 . S
H315 C323 0.930 . S
H316 C326 0.930 . S
H317 C327 0.930 . S
C318 H312 0.930 . S
C318 C319 1.355 1_545 S
C318 C320 1.415 . S
C319 C318 1.355 1_565 S
C319 C321 1.419 . S
C320 C318 1.415 . S
C320 C325 1.425 1_545 S
C320 C327 1.409 . S
C321 H313 0.930 . S
C321 C319 1.419 . S
C321 C322 1.362 . S
C322 H314 0.930 . S
C322 C321 1.362 . S
C322 C325 1.409 . S
C323 H315 0.930 . S
C323 C324 1.355 . S
C323 C325 1.415 . S
C324 C323 1.355 . S
C324 C326 1.419 1_565 S
C325 C320 1.425 1_565 S
C325 C322 1.409 . S
C325 C323 1.415 . S
C326 H316 0.930 . S
C326 C324 1.419 1_545 S
C326 C327 1.362 . S
C327 H317 0.930 . S
C327 C320 1.409 . S
C327 C326 1.362 . S
H328 C334 0.930 . S
H329 C337 0.930 . S
H330 C338 0.930 . S
H331 C339 0.930 . S
H332 C342 0.930 . S
H333 C343 0.930 . S
C334 H328 0.930 . S
C334 C335 1.355 . S
C334 C336 1.415 . S
C335 C334 1.355 . S
C335 C337 1.419 . S
C336 C334 1.415 . S
C336 C341 1.425 . S
C336 C343 1.409 . S
C337 H329 0.930 . S
C337 C335 1.419 . S
C337 C338 1.362 . S
C338 H330 0.930 . S
C338 C337 1.362 . S
C338 C341 1.409 . S
C339 H331 0.930 . S
C339 C340 1.355 . S
C339 C341 1.415 . S
C340 C339 1.355 . S
C340 C342 1.419 . S
C341 C336 1.425 . S
C341 C338 1.409 . S
C341 C339 1.415 . S
C342 H332 0.930 . S
C342 C340 1.419 . S
C342 C343 1.362 . S
C343 H333 0.930 . S
C343 C336 1.409 . S
C343 C342 1.362 . S
H344 C350 0.930 . S
H345 C353 0.930 . S
H346 C354 0.930 . S
H347 C355 0.930 . S
H348 C358 0.930 . S
H349 C359 0.930 . S
C350 H344 0.930 . S
C350 C351 1.355 . S
C350 C352 1.415 . S
C351 C350 1.355 . S
C351 C353 1.419 . S
C352 C350 1.415 . S
C352 C357 1.425 . S
C352 C359 1.409 . S
C353 H345 0.930 . S
C353 C351 1.419 . S
C353 C354 1.362 . S
C354 H346 0.930 . S
C354 C353 1.362 . S
C354 C357 1.409 . S
C355 H347 0.930 . S
C355 C356 1.355 . S
C355 C357 1.415 . S
C356 C355 1.355 . S
C356 C358 1.419 . S
C357 C352 1.425 . S
C357 C354 1.409 . S
C357 C355 1.415 . S
C358 H348 0.930 . S
C358 C356 1.419 . S
C358 C359 1.362 . S
C359 H349 0.930 . S
C359 C352 1.409 . S
C359 C358 1.362 . S
H360 C366 0.930 . S
H361 C369 0.930 . S
H362 C370 0.930 1_554 S
H363 C371 0.930 1_455 S
H364 C374 0.930 . S
H365 C375 0.930 . S
C366 H360 0.930 . S
C366 C367 1.355 . S
C366 C368 1.415 . S
C367 C366 1.355 . S
C367 C369 1.419 1_556 S
C368 C366 1.415 . S
C368 C373 1.425 . S
C368 C375 1.409 . S
C369 H361 0.930 . S
C369 C367 1.419 1_554 S
C369 C370 1.362 1_554 S
C370 H362 0.930 1_556 S
C370 C369 1.362 1_556 S
C370 C373 1.409 . S
C371 H363 0.930 1_655 S
C371 C372 1.355 . S
C371 C373 1.415 . S
C372 C371 1.355 . S
C372 C374 1.419 . S
C373 C368 1.425 . S
C373 C370 1.409 . S
C373 C371 1.415 . S
C374 H364 0.930 . S
C374 C372 1.419 . S
C374 C375 1.362 . S
C375 H365 0.930 . S
C375 C368 1.409 . S
C375 C374 1.362 . S
H376 C382 0.930 . S
H377 C385 0.932 . S
H378 C386 0.937 . S
H379 C387 0.930 . S
H380 C390 0.930 . S
H381 C391 0.930 . S
C382 H376 0.930 . S
C382 C383 1.355 . S
C382 C384 1.415 . S
C383 C382 1.355 . S
C383 C385 1.419 1_556 S
C384 C382 1.415 . S
C384 C389 1.425 . S
C384 C391 1.409 . S
C385 H377 0.932 . S
C385 C383 1.419 1_554 S
C385 C386 1.364 . S
C386 H378 0.937 . S
C386 C385 1.364 . S
C386 C389 1.401 1_554 S
C387 H379 0.930 . S
C387 C388 1.355 . S
C387 C389 1.415 . S
C388 C387 1.355 . S
C388 C390 1.419 . S
C389 C384 1.425 . S
C389 C386 1.401 1_556 S
C389 C387 1.415 . S
C390 H380 0.930 . S
C390 C388 1.419 . S
C390 C391 1.362 . S
C391 H381 0.930 . S
C391 C384 1.409 . S
C391 C390 1.362 . S
H392 C398 0.930 . S
H393 C401 0.930 . S
H394 C402 0.930 1_554 S
H395 C403 0.930 . S
H396 C406 0.930 . S
H397 C407 0.930 . S
C398 H392 0.930 . S
C398 C399 1.355 . S
C398 C400 1.415 . S
C399 C398 1.355 . S
C399 C401 1.419 1_556 S
C400 C398 1.415 . S
C400 C405 1.425 . S
C400 C407 1.409 . S
C401 H393 0.930 . S
C401 C399 1.419 1_554 S
C401 C402 1.362 1_554 S
C402 H394 0.930 1_556 S
C402 C401 1.362 1_556 S
C402 C405 1.409 . S
C403 H395 0.930 . S
C403 C404 1.355 . S
C403 C405 1.415 . S
C404 C403 1.355 . S
C404 C406 1.419 . S
C405 C400 1.425 . S
C405 C402 1.409 . S
C405 C403 1.415 . S
C406 H396 0.930 . S
C406 C404 1.419 . S
C406 C407 1.362 . S
C407 H397 0.930 . S
C407 C400 1.409 . S
C407 C406 1.362 . S
H408 C414 0.930 . S
H409 C417 0.930 . S
H410 C418 0.930 . S
H411 C419 0.930 . S
H412 C422 0.930 . S
H413 C423 0.930 . S
C414 H408 0.930 . S
C414 C415 1.355 . S
C414 C416 1.415 . S
C415 C414 1.355 . S
C415 C417 1.419 . S
C416 C414 1.415 . S
C416 C421 1.425 . S
C416 C423 1.409 . S
C417 H409 0.930 . S
C417 C415 1.419 . S
C417 C418 1.362 . S
C418 H410 0.930 . S
C418 C417 1.362 . S
C418 C421 1.409 . S
C419 H411 0.930 . S
C419 C420 1.355 . S
C419 C421 1.415 . S
C420 C419 1.355 . S
C420 C422 1.419 . S
C421 C416 1.425 . S
C421 C418 1.409 . S
C421 C419 1.415 . S
C422 H412 0.930 . S
C422 C420 1.419 . S
C422 C423 1.362 . S
C423 H413 0.930 . S
C423 C416 1.409 . S
C423 C422 1.362 . S
H424 C430 0.930 . S
H425 C433 0.930 . S
H426 C434 0.930 . S
H427 C435 0.930 . S
H428 C438 0.925 1_655 S
H429 C439 0.932 1_655 S
C430 H424 0.930 . S
C430 C431 1.347 1_556 S
C430 C432 1.415 . S
C431 C430 1.347 1_554 S
C431 C433 1.424 . S
C432 C430 1.415 . S
C432 C437 1.425 . S
C432 C439 1.409 . S
C433 H425 0.930 . S
C433 C431 1.424 . S
C433 C434 1.362 . S
C434 H426 0.930 . S
C434 C433 1.362 . S
C434 C437 1.409 1_554 S
C435 H427 0.930 . S
C435 C436 1.355 . S
C435 C437 1.415 . S
C436 C435 1.355 . S
C436 C438 1.419 . S
C437 C432 1.425 . S
C437 C434 1.409 1_556 S
C437 C435 1.415 . S
C438 H428 0.925 1_455 S
C438 C436 1.419 . S
C438 C439 1.362 . S
C439 H429 0.932 1_455 S
C439 C432 1.409 . S
C439 C438 1.362 . S
H440 C446 0.930 1_554 S
H441 C449 0.930 . S
H442 C450 0.930 . S
H443 C451 0.930 . S
H444 C454 0.930 . S
H445 C455 0.930 . S
C446 H440 0.930 1_556 S
C446 C447 1.342 1_545 S
C446 C448 1.415 . S
C447 C446 1.342 1_565 S
C447 C449 1.434 . S
C448 C446 1.415 . S
C448 C453 1.425 1_545 S
C448 C455 1.409 . S
C449 H441 0.930 . S
C449 C447 1.434 . S
C449 C450 1.362 . S
C450 H442 0.930 . S
C450 C449 1.362 . S
C450 C453 1.409 . S
C451 H443 0.930 . S
C451 C452 1.355 1_565 S
C451 C453 1.415 . S
C452 C451 1.355 1_545 S
C452 C454 1.419 . S
C453 C448 1.425 1_565 S
C453 C450 1.409 . S
C453 C451 1.415 . S
C454 H444 0.930 . S
C454 C452 1.419 . S
C454 C455 1.362 . S
C455 H445 0.930 . S
C455 C448 1.409 . S
C455 C454 1.362 . S
H456 C462 0.930 . S
H457 C465 0.930 . S
H458 C466 0.930 . S
H459 C467 0.930 . S
H460 C470 0.930 . S
H461 C471 0.930 1_554 S
C462 H456 0.930 . S
C462 C463 1.355 1_554 S
C462 C464 1.415 1_554 S
C463 C462 1.355 1_556 S
C463 C465 1.419 . S
C464 C462 1.415 1_556 S
C464 C469 1.425 . S
C464 C471 1.409 . S
C465 H457 0.930 . S
C465 C463 1.419 . S
C465 C466 1.362 . S
C466 H458 0.930 . S
C466 C465 1.362 . S
C466 C469 1.409 . S
C467 H459 0.930 . S
C467 C468 1.355 . S
C467 C469 1.415 . S
C468 C467 1.355 . S
C468 C470 1.419 . S
C469 C464 1.425 . S
C469 C466 1.409 . S
C469 C467 1.415 . S
C470 H460 0.930 . S
C470 C468 1.419 . S
C470 C471 1.362 . S
C471 H461 0.930 1_556 S
C471 C464 1.409 . S
C471 C470 1.362 . S
H472 C478 0.930 . S
H473 C481 0.930 . S
H474 C482 0.930 . S
H475 C483 0.930 . S
H476 C486 0.930 . S
H477 C487 0.930 1_554 S
C478 H472 0.930 . S
C478 C479 1.355 1_554 S
C478 C480 1.415 1_554 S
C479 C478 1.355 1_556 S
C479 C481 1.419 . S
C480 C478 1.415 1_556 S
C480 C485 1.425 . S
C480 C487 1.409 . S
C481 H473 0.930 . S
C481 C479 1.419 . S
C481 C482 1.362 . S
C482 H474 0.930 . S
C482 C481 1.362 . S
C482 C485 1.409 . S
C483 H475 0.930 . S
C483 C484 1.355 . S
C483 C485 1.415 . S
C484 C483 1.355 . S
C484 C486 1.419 . S
C485 C480 1.425 . S
C485 C482 1.409 . S
C485 C483 1.415 . S
C486 H476 0.930 . S
C486 C484 1.419 . S
C486 C487 1.362 . S
C487 H477 0.930 1_556 S
C487 C480 1.409 . S
C487 C486 1.362 . S
H488 C494 0.930 . S
H489 C497 0.930 . S
H490 C498 0.930 . S
H491 C499 0.930 . S
H492 C502 0.930 . S
H493 C503 0.930 . S
C494 H488 0.930 . S
C494 C495 1.355 . S
C494 C496 1.415 . S
C495 C494 1.355 . S
C495 C497 1.419 . S
C496 C494 1.415 . S
C496 C501 1.425 . S
C496 C503 1.409 . S
C497 H489 0.930 . S
C497 C495 1.419 . S
C497 C498 1.362 . S
C498 H490 0.930 . S
C498 C497 1.362 . S
C498 C501 1.409 . S
C499 H491 0.930 . S
C499 C500 1.355 . S
C499 C501 1.415 . S
C500 C499 1.355 . S
C500 C502 1.419 . S
C501 C496 1.425 . S
C501 C498 1.409 . S
C501 C499 1.415 . S
C502 H492 0.930 . S
C502 C500 1.419 . S
C502 C503 1.362 . S
C503 H493 0.930 . S
C503 C496 1.409 . S
C503 C502 1.362 . S
H504 C510 0.930 . S
H505 C513 0.930 . S
H506 C514 0.930 . S
H507 C515 0.930 . S
H508 C518 0.930 . S
H509 C519 0.931 1_545 S
C510 H504 0.930 . S
C510 C511 1.352 1_545 S
C510 C512 1.415 1_545 S
C511 C510 1.352 1_565 S
C511 C513 1.426 . S
C512 C510 1.415 1_565 S
C512 C517 1.425 . S
C512 C519 1.409 . S
C513 H505 0.930 . S
C513 C511 1.426 . S
C513 C514 1.362 . S
C514 H506 0.930 . S
C514 C513 1.362 . S
C514 C517 1.409 . S
C515 H507 0.930 . S
C515 C516 1.355 . S
C515 C517 1.415 . S
C516 C515 1.355 . S
C516 C518 1.419 . S
C517 C512 1.425 . S
C517 C514 1.409 . S
C517 C515 1.415 . S
C518 H508 0.930 . S
C518 C516 1.419 . S
C518 C519 1.362 . S
C519 H509 0.931 1_565 S
C519 C512 1.409 . S
C519 C518 1.362 . S
H520 C526 0.930 . S
H521 C529 0.930 . S
H522 C530 0.930 . S
H523 C531 0.930 . S
H524 C534 0.930 . S
H525 C535 0.930 . S
C526 H520 0.930 . S
C526 C527 1.355 . S
C526 C528 1.415 . S
C527 C526 1.355 . S
C527 C529 1.419 . S
C528 C526 1.415 . S
C528 C533 1.425 . S
C528 C535 1.409 . S
C529 H521 0.930 . S
C529 C527 1.419 . S
C529 C530 1.362 . S
C530 H522 0.930 . S
C530 C529 1.362 . S
C530 C533 1.409 . S
C531 H523 0.930 . S
C531 C532 1.355 . S
C531 C533 1.415 . S
C532 C531 1.355 . S
C532 C534 1.419 . S
C533 C528 1.425 . S
C533 C530 1.409 . S
C533 C531 1.415 . S
C534 H524 0.930 . S
C534 C532 1.419 . S
C534 C535 1.362 . S
C535 H525 0.930 . S
C535 C528 1.409 . S
C535 C534 1.362 . S
H536 C542 0.930 . S
H537 C545 0.930 . S
H538 C546 0.930 . S
H539 C547 0.930 . S
H540 C550 0.930 . S
H541 C551 0.930 . S
C542 H536 0.930 . S
C542 C543 1.355 . S
C542 C544 1.415 . S
C543 C542 1.355 . S
C543 C545 1.419 . S
C544 C542 1.415 . S
C544 C549 1.425 . S
C544 C551 1.409 . S
C545 H537 0.930 . S
C545 C543 1.419 . S
C545 C546 1.362 . S
C546 H538 0.930 . S
C546 C545 1.362 . S
C546 C549 1.409 . S
C547 H539 0.930 . S
C547 C548 1.355 . S
C547 C549 1.415 . S
C548 C547 1.355 . S
C548 C550 1.419 . S
C549 C544 1.425 . S
C549 C546 1.409 . S
C549 C547 1.415 . S
C550 H540 0.930 . S
C550 C548 1.419 . S
C550 C551 1.362 . S
C551 H541 0.930 . S
C551 C544 1.409 . S
C551 C550 1.362 . S
C175 C76 1.447 . S
C180 C106 1.463 1_545 S
C196 C126 1.546 . S
C191 C87 1.542 . S
C212 C146 1.456 . S
C207 C54 1.443 . S
C228 C166 1.549 . S
C223 C65 1.499 . S
C244 C107 1.463 . S
C239 C32 1.448 1_545 S
C255 C43 1.551 . S
C260 C127 1.591 . S
C271 C10 1.447 . S
C276 C147 1.445 . S
C287 C21 1.579 . S
C292 C167 1.584 1_655 S
C308 C97 0.852 . S
C303 C60 0.892 . S
C324 C117 0.876 . S
C319 C71 0.929 1_565 S
C340 C137 0.857 . S
C335 C82 0.890 . S
C351 C49 0.969 . S
C356 C157 0.934 . S
C367 C16 0.876 . S
C372 C100 0.856 . S
C388 C120 0.842 . S
C383 C27 0.863 . S
C404 C140 0.857 . S
C399 C38 0.881 . S
C415 C5 0.943 . S
C420 C160 0.899 . S
C431 C59 1.515 . S
C436 C90 1.438 . S
C447 C70 1.542 1_566 S
C452 C110 1.506 . S
C468 C130 1.528 . S
C463 C81 1.584 1_556 S
C484 C150 1.475 . S
C479 C48 1.535 1_556 S
C495 C15 1.575 . S
C500 C92 1.549 . S
C516 C112 1.503 . S
C511 C26 1.549 1_565 S
C532 C132 1.539 . S
C527 C37 1.558 . S
C543 C4 1.516 . S
C548 C152 1.489 . S
