# Generated by pormake.
# Topology pyr, (3,6)-cn, num edge types: 1
# Building blocks:
#     Node 0, Type 0, BuildingBlock: VETTIZ_charged_linker_0, # of connection points: 3
#     Node 1, Type 0, BuildingBlock: VETTIZ_charged_linker_0, # of connection points: 3
#     Node 2, Type 0, BuildingBlock: VETTIZ_charged_linker_0, # of connection points: 3
#     Node 3, Type 0, BuildingBlock: VETTIZ_charged_linker_0, # of connection points: 3
#     Node 4, Type 0, BuildingBlock: VETTIZ_charged_linker_0, # of connection points: 3
#     Node 5, Type 0, BuildingBlock: VETTIZ_charged_linker_0, # of connection points: 3
#     Node 6, Type 0, BuildingBlock: VETTIZ_charged_linker_0, # of connection points: 3
#     Node 7, Type 0, BuildingBlock: VETTIZ_charged_linker_0, # of connection points: 3
#     Node 8, Type 1, BuildingBlock: MIDCAF_clean_sbu_0, # of connection points: 6
#     Node 9, Type 1, BuildingBlock: MIDCAF_clean_sbu_0, # of connection points: 6
#     Node 10, Type 1, BuildingBlock: MIDCAF_clean_sbu_0, # of connection points: 6
#     Node 11, Type 1, BuildingBlock: MIDCAF_clean_sbu_0, # of connection points: 6
#     Edge 12, Type (0, 1), None
#     Edge 13, Type (0, 1), None
#     Edge 14, Type (0, 1), None
#     Edge 15, Type (0, 1), None
#     Edge 16, Type (0, 1), None
#     Edge 17, Type (0, 1), None
#     Edge 18, Type (0, 1), None
#     Edge 19, Type (0, 1), None
#     Edge 20, Type (0, 1), None
#     Edge 21, Type (0, 1), None
#     Edge 22, Type (0, 1), None
#     Edge 23, Type (0, 1), None
#     Edge 24, Type (0, 1), None
#     Edge 25, Type (0, 1), None
#     Edge 26, Type (0, 1), None
#     Edge 27, Type (0, 1), None
#     Edge 28, Type (0, 1), None
#     Edge 29, Type (0, 1), None
#     Edge 30, Type (0, 1), None
#     Edge 31, Type (0, 1), None
#     Edge 32, Type (0, 1), None
#     Edge 33, Type (0, 1), None
#     Edge 34, Type (0, 1), None
#     Edge 35, Type (0, 1), None
# Relax obj value: 0.019
# Max RMSD: 0.064
# Mean RMSD: 0.021
data_MOF--net-pyr--node1-MIDCAF_clean_sbu_0--node2-VETTIZ_charged_linker_0--edge1-none
_symmetry_space_group_name_H-M    P1
_symmetry_Int_Tables_number       1
_symmetry_cell_setting            triclinic
loop_
_symmetry_equiv_pos_as_xyz
'x, y, z'
_cell_length_a     23.734836
_cell_length_b     23.797607
_cell_length_c     23.763414
_cell_angle_alpha  89.705628
_cell_angle_beta   89.987068
_cell_angle_gamma 90.015158
loop_
_atom_site_label
_atom_site_type_symbol
_atom_site_fract_x
_atom_site_fract_y
_atom_site_fract_z
_atom_type_partial_charge
C0 C 0.19817 0.09743 0.36995 0.0
C1 C 0.14679 0.10258 0.39922 0.0
C2 C 0.11546 0.1525 0.39297 0.0
C3 C 0.18468 0.18973 0.32765 0.0
C4 C 0.21621 0.14136 0.33439 0.0
C5 C 0.26727 0.14114 0.29653 0.0
H6 H 0.3813 0.23151 0.05446 0.0
C7 C 0.21146 0.22467 0.28339 0.0
C8 C 0.26024 0.19679 0.26511 0.0
H9 H 0.43885 0.09607 0.16165 0.0
H10 H 0.3768 0.12755 0.23596 0.0
H11 H 0.38129 0.3246 0.1596 0.0
H12 H 0.2516 0.2265 0.07959 0.0
H13 H 0.22981 0.29723 0.08441 0.0
H14 H 0.29135 0.28056 0.0444 0.0
H15 H 0.3501 0.3463 0.09427 0.0
H16 H 0.31925 0.36483 0.16124 0.0
C17 C 0.32087 0.14069 0.33369 0.0
C18 C 0.2621 0.08984 0.25702 0.0
C19 C 0.10228 0.39005 0.20384 0.0
C20 C 0.1093 0.42355 0.15541 0.0
C21 C 0.16153 0.42225 0.12712 0.0
C22 C 0.20373 0.38398 0.14356 0.0
C23 C 0.19333 0.34638 0.18836 0.0
C24 C 0.14439 0.35181 0.21931 0.0
C25 C 0.13946 0.30785 0.26472 0.0
C26 C 0.19317 0.27449 0.2556 0.0
C27 C 0.22422 0.29657 0.21023 0.0
C28 C 0.13989 0.33803 0.3223 0.0
C29 C 0.08564 0.2724 0.25314 0.0
C30 C 0.38112 0.20928 0.09434 0.0
C31 C 0.41367 0.16035 0.10169 0.0
C32 C 0.41373 0.13347 0.15468 0.0
C33 C 0.37705 0.15122 0.19743 0.0
C34 C 0.34 0.19616 0.18699 0.0
C35 C 0.34525 0.22691 0.13779 0.0
C36 C 0.30535 0.27616 0.13607 0.0
C37 C 0.27248 0.26726 0.19036 0.0
C38 C 0.29183 0.21911 0.21913 0.0
C39 C 0.34047 0.33103 0.13746 0.0
C40 C 0.26749 0.27031 0.08333 0.0
H41 H 0.10825 0.23279 0.35518 0.0
H42 H 0.22287 0.0593 0.3733 0.0
H43 H 0.21949 0.08848 0.23757 0.0
H44 H 0.29223 0.09036 0.22191 0.0
H45 H 0.26846 0.04998 0.2807 0.0
H46 H 0.31297 0.16083 0.3751 0.0
H47 H 0.33555 0.09711 0.34198 0.0
H48 H 0.35567 0.16534 0.3148 0.0
H49 H 0.06279 0.3902 0.22674 0.0
H50 H 0.16822 0.44766 0.08977 0.0
H51 H 0.24146 0.38281 0.11873 0.0
H52 H 0.17029 0.37364 0.32196 0.0
H53 H 0.09765 0.35536 0.3324 0.0
H54 H 0.15384 0.31048 0.35719 0.0
H55 H 0.07435 0.27279 0.20769 0.0
H56 H 0.09104 0.22736 0.26316 0.0
H57 H 0.04882 0.28882 0.27675 0.0
H58 H 0.07499 0.15709 0.41337 0.0
C59 C 0.13457 0.19633 0.3584 0.0
C60 C 0.15257 0.8324 0.60971 0.0
C61 C 0.12324 0.88341 0.61618 0.0
C62 C 0.12597 0.91114 0.66831 0.0
C63 C 0.19223 0.84163 0.70333 0.0
C64 C 0.18688 0.81241 0.65357 0.0
C65 C 0.22586 0.76243 0.65125 0.0
H66 H 0.47292 0.65414 0.73181 0.0
C67 C 0.23777 0.81503 0.73672 0.0
C68 C 0.25717 0.76795 0.70693 0.0
H69 H 0.36415 0.59659 0.59829 0.0
H70 H 0.28833 0.65469 0.63383 0.0
H71 H 0.44214 0.78312 0.72936 0.0
H72 H 0.37407 0.6471 0.82823 0.0
H73 H 0.36724 0.70783 0.86949 0.0
H74 H 0.43659 0.68354 0.84955 0.0
H75 H 0.48151 0.74327 0.7804 0.0
H76 H 0.44026 0.80245 0.80093 0.0
C77 C 0.26524 0.77046 0.59981 0.0
C78 C 0.18981 0.70821 0.6492 0.0
C79 C 0.32454 0.92579 0.8962 0.0
C80 C 0.37515 0.91938 0.92628 0.0
C81 C 0.40282 0.86701 0.92524 0.0
C82 C 0.38385 0.82411 0.88949 0.0
C83 C 0.33728 0.8341 0.85414 0.0
C84 C 0.30649 0.88288 0.8604 0.0
C85 C 0.2587 0.88691 0.81902 0.0
C86 C 0.26687 0.83328 0.78562 0.0
C87 C 0.31372 0.80307 0.80559 0.0
C88 C 0.26783 0.94062 0.78258 0.0
C89 C 0.20267 0.88584 0.85243 0.0
C90 C 0.43247 0.6536 0.71074 0.0
C91 C 0.42495 0.62233 0.66124 0.0
C92 C 0.37124 0.62097 0.63601 0.0
C93 C 0.32758 0.65523 0.6562 0.0
C94 C 0.33795 0.6913 0.70174 0.0
C95 C 0.38826 0.68715 0.73065 0.0
C96 C 0.39023 0.72577 0.78061 0.0
C97 C 0.33424 0.75636 0.77465 0.0
C98 C 0.3047 0.73734 0.72707 0.0
C99 C 0.44121 0.76581 0.77294 0.0
C100 C 0.39253 0.68953 0.83496 0.0
H101 H 0.16114 0.91414 0.75012 0.0
H102 H 0.15107 0.80999 0.57019 0.0
H103 H 0.14795 0.71452 0.6693 0.0
H104 H 0.20924 0.67319 0.67311 0.0
H105 H 0.18232 0.69472 0.60515 0.0
H106 H 0.2837 0.81344 0.59972 0.0
H107 H 0.24169 0.76499 0.55982 0.0
H108 H 0.30107 0.74128 0.59905 0.0
H109 H 0.30199 0.96537 0.89668 0.0
H110 H 0.44163 0.86077 0.94842 0.0
H111 H 0.40832 0.78627 0.88794 0.0
H112 H 0.31348 0.94988 0.77717 0.0
H113 H 0.24809 0.97794 0.80235 0.0
H114 H 0.25202 0.93673 0.73919 0.0
H115 H 0.20594 0.85762 0.88979 0.0
H116 H 0.16717 0.8688 0.82767 0.0
H117 H 0.19148 0.9284 0.8678 0.0
H118 H 0.10491 0.95098 0.67422 0.0
C119 C 0.15944 0.89002 0.71217 0.0
C120 C 0.64412 0.13466 0.88055 0.0
C121 C 0.59208 0.1196 0.85683 0.0
C122 C 0.57738 0.1416 0.80361 0.0
C123 C 0.66067 0.20057 0.80352 0.0
C124 C 0.67729 0.17572 0.85363 0.0
C125 C 0.72865 0.20367 0.87784 0.0
H126 H 0.90414 0.4262 0.88287 0.0
C127 C 0.69935 0.24807 0.79126 0.0
C128 C 0.73981 0.24946 0.83442 0.0
H129 H 0.88756 0.29198 0.00473 0.0
H130 H 0.82476 0.24236 0.94257 0.0
H131 H 0.78622 0.44147 0.86262 0.0
H132 H 0.89909 0.34057 0.76436 0.0
H133 H 0.85609 0.37895 0.71749 0.0
H134 H 0.90112 0.41591 0.76611 0.0
H135 H 0.83046 0.47184 0.80941 0.0
H136 H 0.76084 0.44593 0.79382 0.0
C137 C 0.71259 0.22812 0.93622 0.0
C138 C 0.77686 0.16001 0.87934 0.0
C139 C 0.64756 0.39329 0.64171 0.0
C140 C 0.67034 0.44637 0.62857 0.0
C141 C 0.72338 0.46102 0.65069 0.0
C142 C 0.7516 0.42514 0.68816 0.0
C143 C 0.72596 0.37455 0.70496 0.0
C144 C 0.676 0.35811 0.68004 0.0
C145 C 0.65441 0.30357 0.70441 0.0
C146 C 0.69834 0.29144 0.74965 0.0
C147 C 0.73985 0.33365 0.75004 0.0
C148 C 0.59516 0.31461 0.72964 0.0
C149 C 0.65546 0.25887 0.65732 0.0
C150 C 0.88843 0.38517 0.89514 0.0
C151 C 0.90082 0.36277 0.94858 0.0
C152 C 0.87851 0.31001 0.96375 0.0
C153 C 0.84173 0.28147 0.9277 0.0
C154 C 0.8258 0.3066 0.87645 0.0
C155 C 0.85047 0.3567 0.86002 0.0
C156 C 0.82569 0.37896 0.80599 0.0
C157 C 0.78111 0.33469 0.79352 0.0
C158 C 0.78143 0.29245 0.83503 0.0
C159 C 0.79969 0.43767 0.81795 0.0
C160 C 0.87277 0.37915 0.76089 0.0
H161 H 0.59725 0.19795 0.73702 0.0
H162 H 0.65604 0.11927 0.92187 0.0
H163 H 0.77558 0.13295 0.8413 0.0
H164 H 0.81913 0.17947 0.87868 0.0
H165 H 0.77321 0.13236 0.91696 0.0
H166 H 0.66731 0.24014 0.93774 0.0
H167 H 0.72003 0.19703 0.97044 0.0
H168 H 0.73515 0.26737 0.94624 0.0
H169 H 0.60647 0.38127 0.62598 0.0
H170 H 0.74184 0.50159 0.64102 0.0
H171 H 0.79088 0.4396 0.70503 0.0
H172 H 0.59338 0.35674 0.74967 0.0
H173 H 0.56217 0.31333 0.69653 0.0
H174 H 0.58353 0.28501 0.76346 0.0
H175 H 0.69302 0.26447 0.62981 0.0
H176 H 0.6589 0.21556 0.67393 0.0
H177 H 0.61748 0.26213 0.63019 0.0
H178 H 0.53747 0.13052 0.7845 0.0
C179 C 0.61179 0.18127 0.77645 0.0
C180 C 0.93221 0.87187 0.33627 0.0
C181 C 0.92623 0.8994 0.38826 0.0
C182 C 0.87471 0.895 0.41731 0.0
C183 C 0.83807 0.83292 0.34552 0.0
C184 C 0.88766 0.83893 0.31569 0.0
C185 C 0.88835 0.80306 0.26352 0.0
H186 H 0.79891 0.56654 0.14255 0.0
C187 C 0.80316 0.79013 0.31706 0.0
C188 C 0.83187 0.77284 0.26846 0.0
H189 H 0.93585 0.67405 0.0896 0.0
H190 H 0.90258 0.74721 0.15203 0.0
H191 H 0.80476 0.58633 0.26986 0.0
H192 H 0.70349 0.6741 0.14693 0.0
H193 H 0.66312 0.66712 0.20861 0.0
H194 H 0.68547 0.60492 0.1714 0.0
H195 H 0.74807 0.55353 0.23213 0.0
H196 H 0.7354 0.59211 0.2954 0.0
C197 C 0.9389 0.76218 0.2684 0.0
C198 C 0.89063 0.84211 0.21121 0.0
C199 C 0.6399 0.70628 0.42557 0.0
C200 C 0.60842 0.65676 0.41894 0.0
C201 C 0.6099 0.62914 0.36658 0.0
C202 C 0.6468 0.64746 0.32382 0.0
C203 C 0.68292 0.69335 0.33389 0.0
C204 C 0.67704 0.7234 0.38313 0.0
C205 C 0.71991 0.76951 0.38834 0.0
C206 C 0.75346 0.76172 0.33459 0.0
C207 C 0.73212 0.71678 0.30292 0.0
C208 C 0.75573 0.7582 0.44214 0.0
C209 C 0.68817 0.82636 0.38812 0.0
C210 C 0.82092 0.60641 0.14352 0.0
C211 C 0.87088 0.61411 0.11245 0.0
C212 C 0.89764 0.66691 0.11356 0.0
C213 C 0.87886 0.70889 0.15049 0.0
C214 C 0.83321 0.69763 0.18665 0.0
C215 C 0.80253 0.64882 0.17989 0.0
C216 C 0.7534 0.64539 0.21999 0.0
C217 C 0.76177 0.69853 0.25423 0.0
C218 C 0.80984 0.72801 0.23563 0.0
C219 C 0.76019 0.5915 0.25627 0.0
C220 C 0.69826 0.64756 0.18528 0.0
H221 H 0.79271 0.86046 0.42053 0.0
H222 H 0.9714 0.87449 0.31305 0.0
H223 H 0.87224 0.8841 0.22031 0.0
H224 H 0.86525 0.8257 0.17582 0.0
H225 H 0.93469 0.84879 0.19688 0.0
H226 H 0.93875 0.74082 0.31016 0.0
H227 H 0.97945 0.78511 0.26401 0.0
H228 H 0.93861 0.7286 0.23683 0.0
H229 H 0.63944 0.72872 0.46514 0.0
H230 H 0.58584 0.59102 0.3602 0.0
H231 H 0.64832 0.62315 0.28594 0.0
H232 H 0.7541 0.71329 0.45531 0.0
H233 H 0.74065 0.78359 0.47822 0.0
H234 H 0.80115 0.76622 0.43581 0.0
H235 H 0.6528 0.82572 0.35738 0.0
H236 H 0.71508 0.86195 0.37481 0.0
H237 H 0.67008 0.83544 0.43021 0.0
H238 H 0.86927 0.91488 0.45783 0.0
C239 C 0.83039 0.86282 0.39579 0.0
C240 C 0.88734 0.66967 0.92985 0.0
C241 C 0.93681 0.64235 0.91269 0.0
C242 C 0.96862 0.66495 0.8677 0.0
C243 C 0.90506 0.74303 0.86035 0.0
C244 C 0.87168 0.71969 0.90213 0.0
C245 C 0.81857 0.75325 0.9107 0.0
H246 H 0.68988 0.00565 0.89559 0.0
C247 C 0.88153 0.79761 0.84425 0.0
C248 C 0.83083 0.80443 0.87348 0.0
H249 H 0.62011 0.84522 0.94729 0.0
H250 H 0.70394 0.7983 0.91719 0.0
H251 H 0.7471 0.94805 0.77025 0.0
H252 H 0.86618 -0.00119 0.88635 0.0
H253 H 0.80402 0.04204 0.881 0.0
H254 H 0.8111 0.98986 0.93516 0.0
H255 H 0.74314 0.01685 0.80102 0.0
H256 H 0.80585 0.99403 0.76667 0.0
C257 C 0.76803 0.71797 0.88883 0.0
C258 C 0.81342 0.76913 0.97346 0.0
C259 C 0.98531 0.92659 0.70842 0.0
C260 C 0.98157 0.98472 0.69852 0.0
C261 C 0.94825 0.01773 0.73516 0.0
C262 C 0.91403 0.99269 0.77594 0.0
C263 C 0.91398 0.93424 0.78118 0.0
C264 C 0.95267 0.90269 0.75153 0.0
C265 C 0.95428 0.84278 0.77184 0.0
C266 C 0.90518 0.84282 0.81321 0.0
C267 C 0.88041 0.89615 0.81649 0.0
C268 C 0.94273 0.8034 0.72154 0.0
C269 C 0.01217 0.83259 0.8009 0.0
C270 C 0.69221 0.9603 0.89904 0.0
C271 C 0.64889 0.9294 0.92528 0.0
C272 C 0.65336 0.87027 0.92844 0.0
C273 C 0.70213 0.84279 0.91151 0.0
C274 C 0.74676 0.87424 0.88997 0.0
C275 C 0.7406 0.93134 0.88069 0.0
C276 C 0.79136 0.95557 0.85104 0.0
C277 C 0.8278 0.90318 0.84411 0.0
C278 C 0.80213 0.85656 0.86964 0.0
C279 C 0.77121 0.98014 0.79415 0.0
C280 C 0.8197 -0.00086 0.89003 0.0
H281 H 0.97888 0.72992 0.80778 0.0
H282 H 0.86138 0.65213 0.96306 0.0
H283 H 0.85214 0.79107 0.98793 0.0
H284 H 0.77736 0.79735 0.98135 0.0
H285 H 0.80749 0.73103 3e-05 0.0
H286 H 0.78136 0.67764 0.86943 0.0
H287 H 0.73853 0.70676 0.92342 0.0
H288 H 0.74432 0.74062 0.85541 0.0
H289 H 0.01102 0.90006 0.68206 0.0
H290 H 0.94533 0.06288 0.72987 0.0
H291 H 0.88791 0.01953 0.80101 0.0
H292 H 0.90619 0.81885 0.69657 0.0
H293 H 0.97985 0.80141 0.69313 0.0
H294 H 0.93203 0.76019 0.73505 0.0
H295 H 0.03636 0.87214 0.80716 0.0
H296 H 0.00733 0.8144 0.84368 0.0
H297 H 0.03945 0.80444 0.77556 0.0
H298 H 0.00677 0.64455 0.85329 0.0
C299 C 0.95306 0.715 0.84164 0.0
C300 C 0.80432 0.08764 0.48413 0.0
C301 C 0.84128 0.0465 0.46299 0.0
C302 C 0.83761 0.0317 0.40583 0.0
C303 C 0.7623 0.09912 0.39227 0.0
C304 C 0.76734 0.11502 0.44775 0.0
C305 C 0.73692 0.16904 0.46012 0.0
H306 H 0.57402 0.38047 0.36383 0.0
C307 C 0.72342 0.13875 0.36477 0.0
C308 C 0.70969 0.18066 0.40367 0.0
H309 H 0.6508 0.36567 0.52829 0.0
H310 H 0.6927 0.27699 0.50118 0.0
H311 H 0.52859 0.26464 0.36381 0.0
H312 H 0.67831 0.32888 0.28443 0.0
H313 H 0.6374 0.29015 0.23567 0.0
H314 H 0.60748 0.35074 0.26879 0.0
H315 H 0.52652 0.29323 0.29398 0.0
H316 H 0.54137 0.21978 0.30679 0.0
C317 C 0.69256 0.15762 0.50645 0.0
C318 C 0.7811 0.21457 0.47586 0.0
C319 C 0.64874 0.09424 0.17157 0.0
C320 C 0.60394 0.1159 0.13953 0.0
C321 C 0.57595 0.16459 0.15776 0.0
C322 C 0.59268 0.19119 0.20774 0.0
C323 C 0.63661 0.1677 0.24012 0.0
C324 C 0.66328 0.11961 0.22198 0.0
C325 C 0.70513 0.09694 0.26367 0.0
C326 C 0.69837 0.13887 0.31077 0.0
C327 C 0.65963 0.18095 0.29615 0.0
C328 C 0.6861 0.03712 0.28147 0.0
C329 C 0.76474 0.09945 0.23691 0.0
C330 C 0.60096 0.35911 0.39388 0.0
C331 C 0.60944 0.38035 0.44835 0.0
C332 C 0.64399 0.35041 0.48612 0.0
C333 C 0.66799 0.29889 0.47028 0.0
C334 C 0.65714 0.2775 0.41618 0.0
C335 C 0.62415 0.30773 0.37909 0.0
C336 C 0.61303 0.27716 0.32509 0.0
C337 C 0.64855 0.22524 0.33402 0.0
C338 C 0.67374 0.2253 0.38747 0.0
C339 C 0.54917 0.26311 0.32177 0.0
C340 C 0.63495 0.31352 0.27557 0.0
H341 H 0.79704 0.04437 0.32739 0.0
H342 H 0.80797 0.10284 0.52688 0.0
H343 H 0.82368 0.20421 0.45929 0.0
H344 H 0.77136 0.2561 0.45712 0.0
H345 H 0.78493 0.21902 0.52222 0.0
H346 H 0.66841 0.11872 0.497 0.0
H347 H 0.71309 0.15187 0.5481 0.0
H348 H 0.66112 0.19161 0.50993 0.0
H349 H 0.67038 0.05612 0.15934 0.0
H350 H 0.54113 0.1817 0.13372 0.0
H351 H 0.57026 0.22837 0.21972 0.0
H352 H 0.64023 0.03663 0.29116 0.0
H353 H 0.69382 0.0065 0.2472 0.0
H354 H 0.70733 0.02142 0.31964 0.0
H355 H 0.76693 0.13082 0.20209 0.0
H356 H 0.79727 0.11323 0.2673 0.0
H357 H 0.7771 0.05812 0.21925 0.0
H358 H 0.86769 0.00327 0.38734 0.0
C359 C 0.79741 0.05684 0.37067 0.0
C360 C 0.4435 0.62564 0.35434 0.0
C361 C 0.42096 0.57809 0.38144 0.0
C362 C 0.37215 0.55256 0.35896 0.0
C363 C 0.36859 0.62122 0.28433 0.0
C364 C 0.41628 0.64666 0.30603 0.0
C365 C 0.43246 0.69812 0.27274 0.0
H366 H 0.385 0.87371 0.05198 0.0
C367 C 0.34972 0.65333 0.23472 0.0
C368 C 0.3867 0.6988 0.22772 0.0
H369 H 0.51293 0.88334 0.18155 0.0
H370 H 0.47679 0.80067 0.22557 0.0
H371 H 0.28684 0.84801 0.13459 0.0
H372 H 0.38915 0.73626 0.03685 0.0
H373 H 0.31867 0.71392 0.03086 0.0
H374 H 0.3379 0.78332 0.00723 0.0
H375 H 0.27178 0.8343 0.06203 0.0
H376 H 0.24286 0.7913 0.1179 0.0
C377 C 0.42868 0.74976 0.31221 0.0
C378 C 0.49172 0.68786 0.24739 0.0
C379 C 0.17713 0.58924 0.12406 0.0
C380 C 0.14946 0.61255 0.07714 0.0
C381 C 0.17036 0.66309 0.05344 0.0
C382 C 0.21808 0.68937 0.07497 0.0
C383 C 0.24564 0.66558 0.12122 0.0
C384 C 0.22501 0.61675 0.14553 0.0
C385 C 0.25942 0.59927 0.19584 0.0
C386 C 0.30396 0.64548 0.19699 0.0
C387 C 0.29574 0.68381 0.15274 0.0
C388 C 0.22068 0.60064 0.24844 0.0
C389 C 0.28542 0.54093 0.18328 0.0
C390 C 0.40514 0.85775 0.08967 0.0
C391 C 0.45197 0.8853 0.11297 0.0
C392 C 0.47655 0.86346 0.16263 0.0
C393 C 0.45571 0.815 0.18831 0.0
C394 C 0.40925 0.78775 0.16475 0.0
C395 C 0.38422 0.80928 0.11666 0.0
C396 C 0.33348 0.77541 0.09968 0.0
C397 C 0.33319 0.72984 0.14505 0.0
C398 C 0.37808 0.73727 0.18264 0.0
C399 C 0.28086 0.81396 0.10322 0.0
C400 C 0.34481 0.75101 0.04042 0.0
H401 H 0.30941 0.55203 0.2961 0.0
H402 H 0.48063 0.64638 0.37066 0.0
H403 H 0.49565 0.64393 0.23206 0.0
H404 H 0.50072 0.71457 0.21038 0.0
H405 H 0.52516 0.69456 0.27939 0.0
H406 H 0.39747 0.74282 0.34651 0.0
H407 H 0.46994 0.75873 0.33232 0.0
H408 H 0.41358 0.788 0.29029 0.0
H409 H 0.16209 0.55082 0.1435 0.0
H410 H 0.15029 0.68239 0.01726 0.0
H411 H 0.23174 0.72719 0.05444 0.0
H412 H 0.18621 0.63195 0.24335 0.0
H413 H 0.20075 0.55908 0.25619 0.0
H414 H 0.24314 0.61407 0.28685 0.0
H415 H 0.30006 0.53876 0.13885 0.0
H416 H 0.32307 0.53164 0.20892 0.0
H417 H 0.25399 0.50689 0.18971 0.0
H418 H 0.35389 0.51552 0.37839 0.0
C419 C 0.34615 0.57365 0.31076 0.0
C420 C 0.04991 0.22359 0.58857 0.0
C421 C 0.07154 0.19045 0.54459 0.0
C422 C 0.12846 0.19631 0.5293 0.0
C423 C 0.14047 0.26825 0.60001 0.0
C424 C 0.08545 0.26042 0.61694 0.0
C425 C 0.0727 0.28893 0.67195 0.0
H426 H 0.16932 0.44817 0.88558 0.0
C427 C 0.16704 0.30694 0.64002 0.0
C428 C 0.12832 0.31803 0.68314 0.0
H429 H 0.00415 0.37268 0.87149 0.0
H430 H 0.0308 0.33225 0.78171 0.0
H431 H 0.16517 0.49733 0.77201 0.0
H432 H 0.24957 0.34783 0.82928 0.0
H433 H 0.29653 0.39096 0.79027 0.0
H434 H 0.2642 0.41808 0.85268 0.0
H435 H 0.23586 0.50005 0.79814 0.0
H436 H 0.22103 0.48755 0.72466 0.0
C437 C 0.02441 0.33152 0.66237 0.0
C438 C 0.0594 0.24309 0.7167 0.0
C439 C 0.35698 0.38913 0.59294 0.0
C440 C 0.38867 0.43324 0.61579 0.0
C441 C 0.37045 0.45923 0.66556 0.0
C442 C 0.32105 0.44064 0.69247 0.0
C443 C 0.28926 0.39694 0.66819 0.0
C444 C 0.30722 0.37263 0.61881 0.0
C445 C 0.26651 0.33026 0.59597 0.0
C446 C 0.22008 0.33394 0.63936 0.0
C447 C 0.23425 0.37166 0.68216 0.0
C448 C 0.24683 0.35073 0.53713 0.0
C449 C 0.29544 0.27174 0.59603 0.0
C450 C 0.13902 0.42164 0.86436 0.0
C451 C 0.08461 0.41306 0.88612 0.0
C452 C 0.04639 0.37948 0.85588 0.0
C453 C 0.06191 0.35642 0.80372 0.0
C454 C 0.11594 0.3677 0.78175 0.0
C455 C 0.15319 0.40009 0.81213 0.0
C456 C 0.20621 0.41362 0.78049 0.0
C457 C 0.19695 0.37989 0.72773 0.0
C458 C 0.14412 0.35326 0.72836 0.0
C459 C 0.20763 0.47787 0.76831 0.0
C460 C 0.25711 0.39175 0.81486 0.0
H461 H 0.20576 0.23849 0.54255 0.0
H462 H 0.00746 0.21741 0.60421 0.0
H463 H 0.0821 0.20327 0.70748 0.0
H464 H 0.07361 0.25468 0.75935 0.0
H465 H 0.01363 0.23338 0.71793 0.0
H466 H 0.03167 0.3561 0.62308 0.0
H467 H 0.98329 0.30961 0.65825 0.0
H468 H 0.02108 0.3627 0.69643 0.0
H469 H 0.36933 0.36913 0.55397 0.0
H470 H 0.39436 0.4935 0.68355 0.0
H471 H 0.30927 0.46124 0.73072 0.0
H472 H 0.23572 0.39613 0.53827 0.0
H473 H 0.28071 0.3452 0.50538 0.0
H474 H 0.20894 0.32894 0.52176 0.0
H475 H 0.33175 0.27003 0.6256 0.0
H476 H 0.26678 0.23793 0.61071 0.0
H477 H 0.31163 0.26096 0.55357 0.0
H478 H 0.1473 0.16885 0.49865 0.0
C479 C 0.16271 0.23599 0.5559 0.0
Zn480 Zn 0.96806 0.07106 0.56116 0.0
Zn481 Zn 0.0891 0.94106 0.4489 0.0
Zn482 Zn 0.02258 0.00889 0.51231 0.0
C483 C 0.12224 0.0541 0.43025 0.0
C484 C 0.97506 0.92716 0.41516 0.0
O485 O 0.0146 0.98061 0.60216 0.0
O486 O 0.99282 0.06218 0.63885 0.0
C487 C 0.03706 0.14323 0.52452 0.0
O488 O 0.08572 0.06205 0.46955 0.0
O489 O 0.13226 0.0049 0.41302 0.0
O490 O 0.02382 0.90743 0.40681 0.0
O491 O 0.96765 0.96713 0.45076 0.0
O492 O 0.98465 0.14599 0.53207 0.0
O493 O 0.05994 0.09506 0.51467 0.0
O494 O 0.93648 0.0134 0.47521 0.0
O495 O 0.89078 0.04663 0.54812 0.0
C496 C 0.89016 0.03031 0.49786 0.0
O497 O 0.0583 0.94833 0.57236 0.0
O498 O 0.11821 0.90181 0.51848 0.0
C499 C 0.002 0.01055 0.64555 0.0
C500 C 0.09731 0.91124 0.56657 0.0
Zn501 Zn 0.43921 0.0851 0.94317 0.0
Zn502 Zn 0.56677 0.98585 0.05602 0.0
Zn503 Zn 0.50917 0.02898 0.00235 0.0
C504 C 0.60468 0.95603 0.95967 0.0
C505 C 0.47804 0.93534 0.0866 0.0
O506 O 0.4796 0.09728 0.05769 0.0
O507 O 0.41159 0.13426 0.00598 0.0
C508 C 0.54825 0.09298 0.89232 0.0
O509 O 0.5872 0.00704 0.95349 0.0
O510 O 0.58775 0.92843 0.0017 0.0
O511 O 0.51365 0.96239 0.11513 0.0
O512 O 0.47169 0.94833 0.03413 0.0
O513 O 0.499 0.11325 0.89022 0.0
O514 O 0.56072 0.05584 0.92994 0.0
O515 O 0.4443 0.96637 0.98373 0.0
O516 O 0.39483 0.01638 0.92276 0.0
C517 C 0.40441 0.97002 0.94726 0.0
O518 O 0.53281 0.08034 0.07637 0.0
O519 O 0.61919 0.04855 0.06987 0.0
C520 C 0.43784 0.13148 0.05221 0.0
C521 C 0.58508 0.08329 0.09073 0.0
Zn522 Zn 0.58521 0.59772 0.58726 0.0
Zn523 Zn 0.47815 0.46705 0.48704 0.0
Zn524 Zn 0.52712 0.52763 0.53119 0.0
C525 C 0.57504 0.42865 0.46606 0.0
C526 C 0.44667 0.55281 0.43225 0.0
O527 O 0.4696 0.5581 0.59714 0.0
O528 O 0.52074 0.62599 0.63431 0.0
C529 C 0.6352 0.49001 0.60116 0.0
O530 O 0.57691 0.44976 0.51589 0.0
O531 O 0.53647 0.44465 0.43334 0.0
O532 O 0.41848 0.51614 0.45841 0.0
O533 O 0.49807 0.56188 0.44771 0.0
O534 O 0.63763 0.53964 0.61985 0.0
O535 O 0.59856 0.4773 0.56331 0.0
O536 O 0.5479 0.58962 0.46606 0.0
O537 O 0.60781 0.63918 0.51672 0.0
C538 C 0.58505 0.62878 0.4697 0.0
O539 O 0.45112 0.5048 0.57977 0.0
O540 O 0.46161 0.41773 0.55182 0.0
C541 C 0.47452 0.59971 0.63118 0.0
C542 C 0.43814 0.45241 0.5842 0.0
Zn543 Zn 0.05137 0.5464 0.96401 0.0
Zn544 Zn 0.94242 0.45131 0.09583 0.0
Zn545 Zn -6e-05 0.50669 0.02531 0.0
C546 C 0.05892 0.44896 0.12851 0.0
C547 C 0.92773 0.39828 0.99171 0.0
O548 O 0.95848 0.58434 0.99395 0.0
O549 O 0.98876 0.55939 0.91064 0.0
C550 C 0.10068 0.58519 0.04967 0.0
O551 O 0.0635 0.48614 0.08922 0.0
O552 O 0.01133 0.42723 0.13894 0.0
O553 O 0.9082 0.39723 0.04119 0.0
O554 O 0.9662 0.43413 0.97835 0.0
O555 O 0.07901 0.60996 0.00798 0.0
O556 O 0.08268 0.53544 0.06243 0.0
O557 O 0.01585 0.45145 0.95131 0.0
O558 O 0.10257 0.482 0.95367 0.0
C559 C 0.06738 0.44726 0.93475 0.0
O560 O 0.9353 0.56806 0.0488 0.0
O561 O 0.89785 0.51922 0.11872 0.0
C562 C 0.9581 0.59102 0.94006 0.0
C563 C 0.90095 0.56439 0.09051 0.0
loop_
_geom_bond_atom_site_label_1
_geom_bond_atom_site_label_2
_geom_bond_distance
_geom_bond_site_symmetry_2
_ccdc_geom_bond_type
C0 C1 1.391 . S
C0 C4 1.391 . S
C0 H42 0.948 . S
C1 C0 1.391 . S
C1 C2 1.391 . S
C2 C1 1.391 . S
C2 H58 0.947 . S
C2 C59 1.392 . S
C3 C4 1.391 . S
C3 C7 1.397 . S
C3 C59 1.419 . S
C4 C0 1.391 . S
C4 C3 1.391 . S
C4 C5 1.399 . S
C5 C4 1.399 . S
C5 C8 1.396 . S
C5 C17 1.453 . S
C5 C18 1.684 . S
H6 C30 0.948 . S
C7 C3 1.397 . S
C7 C8 1.394 . S
C7 C26 1.723 . S
C8 C5 1.396 . S
C8 C7 1.394 . S
C8 C38 1.723 . S
H9 C32 0.947 . S
H10 C33 0.948 . S
H11 C39 0.982 . S
H12 C40 0.979 . S
H13 C40 0.980 . S
H14 C40 0.983 . S
H15 C39 0.979 . S
H16 C39 0.977 . S
C17 C5 1.453 . S
C17 H46 0.982 . S
C17 H47 0.979 . S
C17 H48 0.977 . S
C18 C5 1.684 . S
C18 H43 0.979 . S
C18 H44 0.980 . S
C18 H45 0.983 . S
C19 C20 1.391 . S
C19 C24 1.391 . S
C19 H49 0.948 . S
C20 C19 1.391 . S
C20 C21 1.391 . S
C21 C20 1.391 . S
C21 C22 1.392 . S
C21 H50 0.947 . S
C22 C21 1.392 . S
C22 C23 1.419 . S
C22 H51 0.948 . S
C23 C22 1.419 . S
C23 C24 1.391 . S
C23 C27 1.397 . S
C24 C19 1.391 . S
C24 C23 1.391 . S
C24 C25 1.399 . S
C25 C24 1.399 . S
C25 C26 1.396 . S
C25 C28 1.453 . S
C25 C29 1.684 . S
C26 C7 1.723 . S
C26 C25 1.396 . S
C26 C27 1.394 . S
C27 C23 1.397 . S
C27 C26 1.394 . S
C27 C37 1.723 . S
C28 C25 1.453 . S
C28 H52 0.982 . S
C28 H53 0.979 . S
C28 H54 0.977 . S
C29 C25 1.684 . S
C29 H55 0.979 . S
C29 H56 0.980 . S
C29 H57 0.983 1_455 S
C30 H6 0.948 . S
C30 C31 1.391 . S
C30 C35 1.391 . S
C31 C30 1.391 . S
C31 C32 1.391 . S
C32 H9 0.947 . S
C32 C31 1.391 . S
C32 C33 1.392 . S
C33 H10 0.948 . S
C33 C32 1.392 . S
C33 C34 1.419 . S
C34 C33 1.419 . S
C34 C35 1.391 . S
C34 C38 1.397 . S
C35 C30 1.391 . S
C35 C34 1.391 . S
C35 C36 1.399 . S
C36 C35 1.399 . S
C36 C37 1.396 . S
C36 C39 1.453 . S
C36 C40 1.684 . S
C37 C27 1.723 . S
C37 C36 1.396 . S
C37 C38 1.394 . S
C38 C8 1.723 . S
C38 C34 1.397 . S
C38 C37 1.394 . S
C39 H11 0.982 . S
C39 H15 0.979 . S
C39 H16 0.977 . S
C39 C36 1.453 . S
C40 H12 0.979 . S
C40 H13 0.980 . S
C40 H14 0.983 . S
C40 C36 1.684 . S
H41 C59 0.948 . S
H42 C0 0.948 . S
H43 C18 0.979 . S
H44 C18 0.980 . S
H45 C18 0.983 . S
H46 C17 0.982 . S
H47 C17 0.979 . S
H48 C17 0.977 . S
H49 C19 0.948 . S
H50 C21 0.947 . S
H51 C22 0.948 . S
H52 C28 0.982 . S
H53 C28 0.979 . S
H54 C28 0.977 . S
H55 C29 0.979 . S
H56 C29 0.980 . S
H57 C29 0.983 1_655 S
H58 C2 0.947 . S
C59 C2 1.392 . S
C59 C3 1.419 . S
C59 H41 0.948 . S
C60 C61 1.391 . S
C60 C64 1.391 . S
C60 H102 0.948 . S
C61 C60 1.391 . S
C61 C62 1.391 . S
C62 C61 1.391 . S
C62 H118 0.947 1_565 S
C62 C119 1.392 . S
C63 C64 1.391 . S
C63 C67 1.397 . S
C63 C119 1.419 . S
C64 C60 1.391 . S
C64 C63 1.391 . S
C64 C65 1.399 . S
C65 C64 1.399 . S
C65 C68 1.396 . S
C65 C77 1.453 . S
C65 C78 1.684 . S
H66 C90 0.948 . S
C67 C63 1.397 . S
C67 C68 1.394 . S
C67 C86 1.723 . S
C68 C65 1.396 . S
C68 C67 1.394 . S
C68 C98 1.723 . S
H69 C92 0.947 . S
H70 C93 0.948 . S
H71 C99 0.982 . S
H72 C100 0.979 . S
H73 C100 0.980 . S
H74 C100 0.983 . S
H75 C99 0.979 . S
H76 C99 0.977 . S
C77 C65 1.453 . S
C77 H106 0.982 . S
C77 H107 0.979 . S
C77 H108 0.977 . S
C78 C65 1.684 . S
C78 H103 0.979 . S
C78 H104 0.980 . S
C78 H105 0.983 . S
C79 C80 1.391 . S
C79 C84 1.391 . S
C79 H109 0.948 . S
C80 C79 1.391 . S
C80 C81 1.391 . S
C81 C80 1.391 . S
C81 C82 1.392 . S
C81 H110 0.947 . S
C82 C81 1.392 . S
C82 C83 1.419 . S
C82 H111 0.948 . S
C83 C82 1.419 . S
C83 C84 1.391 . S
C83 C87 1.397 . S
C84 C79 1.391 . S
C84 C83 1.391 . S
C84 C85 1.399 . S
C85 C84 1.399 . S
C85 C86 1.396 . S
C85 C88 1.453 . S
C85 C89 1.684 . S
C86 C67 1.723 . S
C86 C85 1.396 . S
C86 C87 1.394 . S
C87 C83 1.397 . S
C87 C86 1.394 . S
C87 C97 1.723 . S
C88 C85 1.453 . S
C88 H112 0.984 . S
C88 H113 0.979 1_565 S
C88 H114 0.977 . S
C89 C85 1.684 . S
C89 H115 0.979 . S
C89 H116 0.980 . S
C89 H117 0.983 . S
C90 H66 0.948 . S
C90 C91 1.391 . S
C90 C95 1.391 . S
C91 C90 1.391 . S
C91 C92 1.391 . S
C92 H69 0.947 . S
C92 C91 1.391 . S
C92 C93 1.392 . S
C93 H70 0.948 . S
C93 C92 1.392 . S
C93 C94 1.419 . S
C94 C93 1.419 . S
C94 C95 1.391 . S
C94 C98 1.397 . S
C95 C90 1.391 . S
C95 C94 1.391 . S
C95 C96 1.399 . S
C96 C95 1.399 . S
C96 C97 1.396 . S
C96 C99 1.453 . S
C96 C100 1.684 . S
C97 C87 1.723 . S
C97 C96 1.396 . S
C97 C98 1.394 . S
C98 C68 1.723 . S
C98 C94 1.397 . S
C98 C97 1.394 . S
C99 H71 0.982 . S
C99 H75 0.979 . S
C99 H76 0.977 . S
C99 C96 1.453 . S
C100 H72 0.979 . S
C100 H73 0.980 . S
C100 H74 0.983 . S
C100 C96 1.684 . S
H101 C119 0.948 . S
H102 C60 0.948 . S
H103 C78 0.979 . S
H104 C78 0.980 . S
H105 C78 0.983 . S
H106 C77 0.982 . S
H107 C77 0.979 . S
H108 C77 0.977 . S
H109 C79 0.948 . S
H110 C81 0.947 . S
H111 C82 0.948 . S
H112 C88 0.984 . S
H113 C88 0.979 1_545 S
H114 C88 0.977 . S
H115 C89 0.979 . S
H116 C89 0.980 . S
H117 C89 0.983 . S
H118 C62 0.947 1_545 S
C119 C62 1.392 . S
C119 C63 1.419 . S
C119 H101 0.948 . S
C120 C121 1.391 . S
C120 C124 1.391 . S
C120 H162 0.948 . S
C121 C120 1.391 . S
C121 C122 1.391 . S
C122 C121 1.391 . S
C122 H178 0.947 . S
C122 C179 1.392 . S
C123 C124 1.391 . S
C123 C127 1.397 . S
C123 C179 1.419 . S
C124 C120 1.391 . S
C124 C123 1.391 . S
C124 C125 1.399 . S
C125 C124 1.399 . S
C125 C128 1.396 . S
C125 C137 1.453 . S
C125 C138 1.684 . S
H126 C150 0.948 . S
C127 C123 1.397 . S
C127 C128 1.394 . S
C127 C146 1.723 . S
C128 C125 1.396 . S
C128 C127 1.394 . S
C128 C158 1.723 . S
H129 C152 0.947 . S
H130 C153 0.948 . S
H131 C159 0.982 . S
H132 C160 0.979 . S
H133 C160 0.980 . S
H134 C160 0.983 . S
H135 C159 0.979 . S
H136 C159 0.977 . S
C137 C125 1.453 . S
C137 H166 0.982 . S
C137 H167 0.979 1_556 S
C137 H168 0.977 . S
C138 C125 1.684 . S
C138 H163 0.979 . S
C138 H164 0.980 . S
C138 H165 0.983 . S
C139 C140 1.391 . S
C139 C144 1.391 . S
C139 H169 0.948 . S
C140 C139 1.391 . S
C140 C141 1.391 . S
C141 C140 1.391 . S
C141 C142 1.392 . S
C141 H170 0.947 . S
C142 C141 1.392 . S
C142 C143 1.419 . S
C142 H171 0.948 . S
C143 C142 1.419 . S
C143 C144 1.391 . S
C143 C147 1.397 . S
C144 C139 1.391 . S
C144 C143 1.391 . S
C144 C145 1.399 . S
C145 C144 1.399 . S
C145 C146 1.396 . S
C145 C148 1.453 . S
C145 C149 1.684 . S
C146 C127 1.723 . S
C146 C145 1.396 . S
C146 C147 1.394 . S
C147 C143 1.397 . S
C147 C146 1.394 . S
C147 C157 1.723 . S
C148 C145 1.453 . S
C148 H172 0.982 . S
C148 H173 0.979 . S
C148 H174 0.977 . S
C149 C145 1.684 . S
C149 H175 0.979 . S
C149 H176 0.980 . S
C149 H177 0.983 . S
C150 H126 0.948 . S
C150 C151 1.391 . S
C150 C155 1.391 . S
C151 C150 1.391 . S
C151 C152 1.391 . S
C152 H129 0.947 . S
C152 C151 1.391 . S
C152 C153 1.392 . S
C153 H130 0.948 . S
C153 C152 1.392 . S
C153 C154 1.419 . S
C154 C153 1.419 . S
C154 C155 1.391 . S
C154 C158 1.397 . S
C155 C150 1.391 . S
C155 C154 1.391 . S
C155 C156 1.399 . S
C156 C155 1.399 . S
C156 C157 1.396 . S
C156 C159 1.453 . S
C156 C160 1.684 . S
C157 C147 1.723 . S
C157 C156 1.396 . S
C157 C158 1.394 . S
C158 C128 1.723 . S
C158 C154 1.397 . S
C158 C157 1.394 . S
C159 H131 0.982 . S
C159 H135 0.979 . S
C159 H136 0.977 . S
C159 C156 1.453 . S
C160 H132 0.979 . S
C160 H133 0.980 . S
C160 H134 0.983 . S
C160 C156 1.684 . S
H161 C179 0.948 . S
H162 C120 0.948 . S
H163 C138 0.979 . S
H164 C138 0.980 . S
H165 C138 0.983 . S
H166 C137 0.982 . S
H167 C137 0.979 1_554 S
H168 C137 0.977 . S
H169 C139 0.948 . S
H170 C141 0.947 . S
H171 C142 0.948 . S
H172 C148 0.982 . S
H173 C148 0.979 . S
H174 C148 0.977 . S
H175 C149 0.979 . S
H176 C149 0.980 . S
H177 C149 0.983 . S
H178 C122 0.947 . S
C179 C122 1.392 . S
C179 C123 1.419 . S
C179 H161 0.948 . S
C180 C181 1.391 . S
C180 C184 1.391 . S
C180 H222 0.948 . S
C181 C180 1.391 . S
C181 C182 1.391 . S
C182 C181 1.391 . S
C182 H238 0.947 . S
C182 C239 1.392 . S
C183 C184 1.391 . S
C183 C187 1.397 . S
C183 C239 1.419 . S
C184 C180 1.391 . S
C184 C183 1.391 . S
C184 C185 1.399 . S
C185 C184 1.399 . S
C185 C188 1.396 . S
C185 C197 1.453 . S
C185 C198 1.684 . S
H186 C210 0.948 . S
C187 C183 1.397 . S
C187 C188 1.394 . S
C187 C206 1.723 . S
C188 C185 1.396 . S
C188 C187 1.394 . S
C188 C218 1.723 . S
H189 C212 0.947 1_455 S
H190 C213 0.948 . S
H191 C219 0.982 . S
H192 C220 0.979 . S
H193 C220 0.980 . S
H194 C220 0.983 . S
H195 C219 0.979 . S
H196 C219 0.977 . S
C197 C185 1.453 . S
C197 H226 0.982 . S
C197 H227 0.979 1_655 S
C197 H228 0.977 . S
C198 C185 1.684 . S
C198 H223 0.979 . S
C198 H224 0.980 . S
C198 H225 0.983 . S
C199 C200 1.391 . S
C199 C204 1.391 . S
C199 H229 0.948 . S
C200 C199 1.391 . S
C200 C201 1.391 . S
C201 C200 1.391 . S
C201 C202 1.392 . S
C201 H230 0.947 . S
C202 C201 1.392 . S
C202 C203 1.419 . S
C202 H231 0.948 . S
C203 C202 1.419 . S
C203 C204 1.391 . S
C203 C207 1.397 . S
C204 C199 1.391 . S
C204 C203 1.391 . S
C204 C205 1.399 . S
C205 C204 1.399 . S
C205 C206 1.396 . S
C205 C208 1.453 . S
C205 C209 1.684 . S
C206 C187 1.723 . S
C206 C205 1.396 . S
C206 C207 1.394 . S
C207 C203 1.397 . S
C207 C206 1.394 . S
C207 C217 1.723 . S
C208 C205 1.453 . S
C208 H232 0.982 . S
C208 H233 0.979 . S
C208 H234 0.977 . S
C209 C205 1.684 . S
C209 H235 0.979 . S
C209 H236 0.980 . S
C209 H237 0.983 . S
C210 H186 0.948 . S
C210 C211 1.391 . S
C210 C215 1.391 . S
C211 C210 1.391 . S
C211 C212 1.391 . S
C212 H189 0.947 1_655 S
C212 C211 1.391 . S
C212 C213 1.392 . S
C213 H190 0.948 . S
C213 C212 1.392 . S
C213 C214 1.419 . S
C214 C213 1.419 . S
C214 C215 1.391 . S
C214 C218 1.397 . S
C215 C210 1.391 . S
C215 C214 1.391 . S
C215 C216 1.399 . S
C216 C215 1.399 . S
C216 C217 1.396 . S
C216 C219 1.453 . S
C216 C220 1.684 . S
C217 C207 1.723 . S
C217 C216 1.396 . S
C217 C218 1.394 . S
C218 C188 1.723 . S
C218 C214 1.397 . S
C218 C217 1.394 . S
C219 H191 0.982 . S
C219 H195 0.979 . S
C219 H196 0.977 . S
C219 C216 1.453 . S
C220 H192 0.979 . S
C220 H193 0.980 . S
C220 H194 0.983 . S
C220 C216 1.684 . S
H221 C239 0.948 . S
H222 C180 0.948 . S
H223 C198 0.979 . S
H224 C198 0.980 . S
H225 C198 0.983 . S
H226 C197 0.982 . S
H227 C197 0.979 1_455 S
H228 C197 0.977 . S
H229 C199 0.948 . S
H230 C201 0.947 . S
H231 C202 0.948 . S
H232 C208 0.982 . S
H233 C208 0.979 . S
H234 C208 0.977 . S
H235 C209 0.979 . S
H236 C209 0.980 . S
H237 C209 0.983 . S
H238 C182 0.947 . S
C239 C182 1.392 . S
C239 C183 1.419 . S
C239 H221 0.948 . S
C240 C241 1.391 1_655 S
C240 C244 1.391 . S
C240 H282 0.948 . S
C241 C240 1.391 1_455 S
C241 C242 1.391 1_554 S
C242 C241 1.391 1_556 S
C242 H298 0.947 . S
C242 C299 1.392 . S
C243 C244 1.391 1_556 S
C243 C247 1.397 . S
C243 C299 1.419 1_655 S
C244 C240 1.391 . S
C244 C243 1.391 1_554 S
C244 C245 1.399 . S
C245 C244 1.399 . S
C245 C248 1.396 1_554 S
C245 C257 1.453 . S
C245 C258 1.684 . S
H246 C270 0.945 1_556 S
C247 C243 1.397 . S
C247 C248 1.394 . S
C247 C266 1.723 . S
C248 C245 1.396 1_556 S
C248 C247 1.394 . S
C248 C278 1.723 . S
H249 C272 0.947 . S
H250 C273 0.948 . S
H251 C279 0.982 1_565 S
H252 C280 0.979 . S
H253 C280 0.980 . S
H254 C280 0.983 . S
H255 C279 0.979 . S
H256 C279 0.977 . S
C257 C245 1.453 . S
C257 H286 0.982 1_554 S
C257 H287 0.979 . S
C257 H288 0.977 . S
C258 C245 1.684 . S
C258 H283 0.979 . S
C258 H284 0.980 . S
C258 H285 0.983 . S
C259 C260 1.380 1_565 S
C259 C264 1.396 . S
C259 H289 0.954 . S
C260 C259 1.380 1_545 S
C260 C261 1.391 1_455 S
C261 C260 1.391 1_655 S
C261 C262 1.392 . S
C261 H290 0.947 . S
C262 C261 1.392 . S
C262 C263 1.404 1_545 S
C262 H291 0.948 . S
C263 C262 1.404 1_565 S
C263 C264 1.398 1_655 S
C263 C267 1.407 . S
C264 C259 1.396 . S
C264 C263 1.398 1_455 S
C264 C265 1.399 . S
C265 C264 1.399 . S
C265 C266 1.396 1_455 S
C265 C268 1.453 . S
C265 C269 1.684 . S
C266 C247 1.723 . S
C266 C265 1.396 1_655 S
C266 C267 1.394 . S
C267 C263 1.407 . S
C267 C266 1.394 . S
C267 C277 1.723 . S
C268 C265 1.453 . S
C268 H292 0.982 1_455 S
C268 H293 0.979 . S
C268 H294 0.977 . S
C269 C265 1.684 . S
C269 H295 0.979 . S
C269 H296 0.980 . S
C269 H297 0.983 . S
C270 H246 0.945 1_554 S
C270 C271 1.397 . S
C270 C275 1.388 1_554 S
C271 C270 1.397 . S
C271 C272 1.391 1_545 S
C272 H249 0.947 . S
C272 C271 1.391 1_565 S
C272 C273 1.392 . S
C273 H250 0.948 . S
C273 C272 1.392 . S
C273 C274 1.424 . S
C274 C273 1.424 . S
C274 C275 1.389 1_564 S
C274 C278 1.393 1_554 S
C275 C270 1.388 1_556 S
C275 C274 1.389 1_546 S
C275 C276 1.399 . S
C276 C275 1.399 . S
C276 C277 1.396 1_545 S
C276 C279 1.453 . S
C276 C280 1.684 . S
C277 C267 1.723 . S
C277 C276 1.396 1_565 S
C277 C278 1.394 . S
C278 C248 1.723 . S
C278 C274 1.393 1_556 S
C278 C277 1.394 . S
C279 H251 0.982 1_545 S
C279 H255 0.979 . S
C279 H256 0.977 . S
C279 C276 1.453 . S
C280 H252 0.979 . S
C280 H253 0.980 . S
C280 H254 0.983 . S
C280 C276 1.684 . S
H281 C299 0.948 . S
H282 C240 0.948 . S
H283 C258 0.979 . S
H284 C258 0.980 . S
H285 C258 0.983 . S
H286 C257 0.982 1_556 S
H287 C257 0.979 . S
H288 C257 0.977 . S
H289 C259 0.954 . S
H290 C261 0.947 . S
H291 C262 0.948 . S
H292 C268 0.982 1_655 S
H293 C268 0.979 . S
H294 C268 0.977 . S
H295 C269 0.979 . S
H296 C269 0.980 . S
H297 C269 0.983 . S
H298 C242 0.947 . S
C299 C242 1.392 . S
C299 C243 1.419 1_455 S
C299 H281 0.948 . S
C300 C301 1.391 . S
C300 C304 1.391 . S
C300 H342 0.948 . S
C301 C300 1.391 . S
C301 C302 1.391 1_545 S
C302 C301 1.391 1_565 S
C302 H358 0.947 . S
C302 C359 1.392 1_565 S
C303 C304 1.391 . S
C303 C307 1.397 . S
C303 C359 1.419 . S
C304 C300 1.391 . S
C304 C303 1.391 . S
C304 C305 1.399 . S
C305 C304 1.399 . S
C305 C308 1.396 . S
C305 C317 1.453 . S
C305 C318 1.684 . S
H306 C330 0.948 . S
C307 C303 1.397 . S
C307 C308 1.394 . S
C307 C326 1.723 . S
C308 C305 1.396 . S
C308 C307 1.394 . S
C308 C338 1.723 . S
H309 C332 0.947 . S
H310 C333 0.948 . S
H311 C339 0.982 . S
H312 C340 0.979 . S
H313 C340 0.980 . S
H314 C340 0.983 . S
H315 C339 0.979 . S
H316 C339 0.977 . S
C317 C305 1.453 . S
C317 H346 0.982 . S
C317 H347 0.979 . S
C317 H348 0.977 . S
C318 C305 1.684 . S
C318 H343 0.979 . S
C318 H344 0.980 . S
C318 H345 0.983 . S
C319 C320 1.391 1_565 S
C319 C324 1.391 1_565 S
C319 H349 0.948 . S
C320 C319 1.391 1_545 S
C320 C321 1.391 . S
C321 C320 1.391 . S
C321 C322 1.392 . S
C321 H350 0.947 . S
C322 C321 1.392 . S
C322 C323 1.419 . S
C322 H351 0.948 . S
C323 C322 1.419 . S
C323 C324 1.391 . S
C323 C327 1.397 . S
C324 C319 1.391 1_545 S
C324 C323 1.391 . S
C324 C325 1.399 . S
C325 C324 1.399 . S
C325 C326 1.396 . S
C325 C328 1.453 1_545 S
C325 C329 1.687 . S
C326 C307 1.723 . S
C326 C325 1.396 . S
C326 C327 1.394 . S
C327 C323 1.397 . S
C327 C326 1.394 . S
C327 C337 1.723 . S
C328 C325 1.453 1_565 S
C328 H352 0.982 . S
C328 H353 0.979 . S
C328 H354 0.977 . S
C329 C325 1.687 . S
C329 H355 0.987 . S
C329 H356 0.978 1_545 S
C329 H357 0.974 1_545 S
C330 H306 0.948 . S
C330 C331 1.391 . S
C330 C335 1.391 . S
C331 C330 1.391 . S
C331 C332 1.391 . S
C332 H309 0.947 . S
C332 C331 1.391 . S
C332 C333 1.392 . S
C333 H310 0.948 . S
C333 C332 1.392 . S
C333 C334 1.419 . S
C334 C333 1.419 . S
C334 C335 1.391 . S
C334 C338 1.397 . S
C335 C330 1.391 . S
C335 C334 1.391 . S
C335 C336 1.399 . S
C336 C335 1.399 . S
C336 C337 1.396 . S
C336 C339 1.453 . S
C336 C340 1.684 . S
C337 C327 1.723 . S
C337 C336 1.396 . S
C337 C338 1.394 . S
C338 C308 1.723 . S
C338 C334 1.397 . S
C338 C337 1.394 . S
C339 H311 0.982 . S
C339 H315 0.979 . S
C339 H316 0.977 . S
C339 C336 1.453 . S
C340 H312 0.979 . S
C340 H313 0.980 . S
C340 H314 0.983 . S
C340 C336 1.684 . S
H341 C359 0.948 1_565 S
H342 C300 0.948 . S
H343 C318 0.979 . S
H344 C318 0.980 . S
H345 C318 0.983 . S
H346 C317 0.982 . S
H347 C317 0.979 . S
H348 C317 0.977 . S
H349 C319 0.948 . S
H350 C321 0.947 . S
H351 C322 0.948 . S
H352 C328 0.982 . S
H353 C328 0.979 . S
H354 C328 0.977 . S
H355 C329 0.987 . S
H356 C329 0.978 1_565 S
H357 C329 0.974 1_565 S
H358 C302 0.947 . S
C359 C302 1.392 1_545 S
C359 C303 1.419 . S
C359 H341 0.948 1_545 S
C360 C361 1.391 . S
C360 C364 1.391 . S
C360 H402 0.948 . S
C361 C360 1.391 . S
C361 C362 1.391 . S
C362 C361 1.391 . S
C362 H418 0.947 . S
C362 C419 1.392 . S
C363 C364 1.391 . S
C363 C367 1.397 . S
C363 C419 1.419 . S
C364 C360 1.391 . S
C364 C363 1.391 . S
C364 C365 1.399 . S
C365 C364 1.399 . S
C365 C368 1.396 . S
C365 C377 1.453 . S
C365 C378 1.684 . S
H366 C390 0.948 . S
C367 C363 1.397 . S
C367 C368 1.394 . S
C367 C386 1.723 . S
C368 C365 1.396 . S
C368 C367 1.394 . S
C368 C398 1.723 . S
H369 C392 0.947 . S
H370 C393 0.948 . S
H371 C399 0.982 . S
H372 C400 0.979 . S
H373 C400 0.980 . S
H374 C400 0.983 . S
H375 C399 0.979 1_556 S
H376 C399 0.977 1_556 S
C377 C365 1.453 . S
C377 H406 0.982 . S
C377 H407 0.979 . S
C377 H408 0.977 . S
C378 C365 1.684 . S
C378 H403 0.979 . S
C378 H404 0.980 . S
C378 H405 0.983 . S
C379 C380 1.391 1_554 S
C379 C384 1.391 . S
C379 H409 0.948 . S
C380 C379 1.391 1_556 S
C380 C381 1.391 . S
C381 C380 1.391 . S
C381 C382 1.392 . S
C381 H410 0.947 . S
C382 C381 1.392 . S
C382 C383 1.419 1_556 S
C382 H411 0.948 . S
C383 C382 1.419 1_554 S
C383 C384 1.391 . S
C383 C387 1.397 . S
C384 C379 1.391 . S
C384 C383 1.391 . S
C384 C385 1.399 . S
C385 C384 1.399 . S
C385 C386 1.396 . S
C385 C388 1.453 . S
C385 C389 1.684 . S
C386 C367 1.723 . S
C386 C385 1.396 . S
C386 C387 1.394 . S
C387 C383 1.397 . S
C387 C386 1.394 . S
C387 C397 1.723 . S
C388 C385 1.453 . S
C388 H412 0.982 . S
C388 H413 0.979 . S
C388 H414 0.977 . S
C389 C385 1.684 . S
C389 H415 0.979 . S
C389 H416 0.980 . S
C389 H417 0.983 . S
C390 H366 0.948 . S
C390 C391 1.391 1_556 S
C390 C395 1.391 1_556 S
C391 C390 1.391 1_554 S
C391 C392 1.391 . S
C392 H369 0.947 . S
C392 C391 1.391 . S
C392 C393 1.392 . S
C393 H370 0.948 . S
C393 C392 1.392 . S
C393 C394 1.419 . S
C394 C393 1.419 . S
C394 C395 1.391 . S
C394 C398 1.397 . S
C395 C390 1.391 1_554 S
C395 C394 1.391 . S
C395 C396 1.399 . S
C396 C395 1.399 . S
C396 C397 1.396 . S
C396 C399 1.453 . S
C396 C400 1.684 1_554 S
C397 C387 1.723 . S
C397 C396 1.396 . S
C397 C398 1.394 . S
C398 C368 1.723 . S
C398 C394 1.397 . S
C398 C397 1.394 . S
C399 H371 0.982 . S
C399 H375 0.979 1_554 S
C399 H376 0.977 1_554 S
C399 C396 1.453 . S
C400 H372 0.979 . S
C400 H373 0.980 . S
C400 H374 0.983 . S
C400 C396 1.684 1_556 S
H401 C419 0.948 . S
H402 C360 0.948 . S
H403 C378 0.979 . S
H404 C378 0.980 . S
H405 C378 0.983 . S
H406 C377 0.982 . S
H407 C377 0.979 . S
H408 C377 0.977 . S
H409 C379 0.948 . S
H410 C381 0.947 . S
H411 C382 0.948 . S
H412 C388 0.982 . S
H413 C388 0.979 . S
H414 C388 0.977 . S
H415 C389 0.979 . S
H416 C389 0.980 . S
H417 C389 0.983 . S
H418 C362 0.947 . S
C419 C362 1.392 . S
C419 C363 1.419 . S
C419 H401 0.948 . S
C420 C421 1.391 1_655 S
C420 C424 1.391 1_655 S
C420 H462 0.948 . S
C421 C420 1.391 1_455 S
C421 C422 1.391 . S
C422 C421 1.391 . S
C422 H478 0.947 . S
C422 C479 1.392 . S
C423 C424 1.391 . S
C423 C427 1.397 . S
C423 C479 1.419 . S
C424 C420 1.391 1_455 S
C424 C423 1.391 . S
C424 C425 1.399 . S
C425 C424 1.399 . S
C425 C428 1.396 . S
C425 C437 1.453 1_455 S
C425 C438 1.684 1_455 S
H426 C450 0.948 . S
C427 C423 1.397 . S
C427 C428 1.394 . S
C427 C446 1.723 . S
C428 C425 1.396 . S
C428 C427 1.394 . S
C428 C458 1.723 . S
H429 C452 0.947 . S
H430 C453 0.956 . S
H431 C459 0.982 . S
H432 C460 0.979 . S
H433 C460 0.980 . S
H434 C460 0.983 . S
H435 C459 0.979 . S
H436 C459 0.977 . S
C437 C425 1.453 1_655 S
C437 H466 0.982 . S
C437 H467 0.979 . S
C437 H468 0.977 . S
C438 C425 1.684 1_655 S
C438 H463 0.979 1_655 S
C438 H464 0.980 . S
C438 H465 0.983 . S
C439 C440 1.391 . S
C439 C444 1.391 . S
C439 H469 0.948 . S
C440 C439 1.391 . S
C440 C441 1.391 . S
C441 C440 1.391 . S
C441 C442 1.392 . S
C441 H470 0.947 . S
C442 C441 1.392 . S
C442 C443 1.419 . S
C442 H471 0.948 . S
C443 C442 1.419 . S
C443 C444 1.391 . S
C443 C447 1.397 . S
C444 C439 1.391 . S
C444 C443 1.391 . S
C444 C445 1.399 . S
C445 C444 1.399 . S
C445 C446 1.396 . S
C445 C448 1.453 . S
C445 C449 1.684 . S
C446 C427 1.723 . S
C446 C445 1.396 . S
C446 C447 1.394 . S
C447 C443 1.397 . S
C447 C446 1.394 . S
C447 C457 1.723 . S
C448 C445 1.453 . S
C448 H472 0.982 . S
C448 H473 0.979 . S
C448 H474 0.977 . S
C449 C445 1.684 . S
C449 H475 0.979 . S
C449 H476 0.980 . S
C449 H477 0.983 . S
C450 H426 0.948 . S
C450 C451 1.391 . S
C450 C455 1.391 . S
C451 C450 1.391 . S
C451 C452 1.391 1_455 S
C452 H429 0.947 . S
C452 C451 1.391 1_655 S
C452 C453 1.398 . S
C453 H430 0.956 . S
C453 C452 1.398 . S
C453 C454 1.405 1_655 S
C454 C453 1.405 1_455 S
C454 C455 1.391 . S
C454 C458 1.397 . S
C455 C450 1.391 . S
C455 C454 1.391 . S
C455 C456 1.399 . S
C456 C455 1.399 . S
C456 C457 1.396 . S
C456 C459 1.453 . S
C456 C460 1.684 . S
C457 C447 1.723 . S
C457 C456 1.396 . S
C457 C458 1.394 . S
C458 C428 1.723 . S
C458 C454 1.397 . S
C458 C457 1.394 . S
C459 H431 0.982 . S
C459 H435 0.979 . S
C459 H436 0.977 . S
C459 C456 1.453 . S
C460 H432 0.979 . S
C460 H433 0.980 . S
C460 H434 0.983 . S
C460 C456 1.684 . S
H461 C479 0.948 . S
H462 C420 0.948 . S
H463 C438 0.979 1_455 S
H464 C438 0.980 . S
H465 C438 0.983 . S
H466 C437 0.982 . S
H467 C437 0.979 . S
H468 C437 0.977 . S
H469 C439 0.948 . S
H470 C441 0.947 . S
H471 C442 0.948 . S
H472 C448 0.982 . S
H473 C448 0.979 . S
H474 C448 0.977 . S
H475 C449 0.979 . S
H476 C449 0.980 . S
H477 C449 0.983 . S
H478 C422 0.947 . S
C479 C422 1.392 . S
C479 C423 1.419 . S
C479 H461 0.948 . S
Zn480 O486 1.920 . S
Zn480 O492 1.898 . S
Zn480 O495 1.905 . S
Zn481 O489 1.905 1_565 S
Zn481 O490 1.898 . S
Zn481 O498 1.920 . S
Zn482 O485 2.080 1_455 S
Zn482 O488 2.114 . S
Zn482 O491 2.120 1_445 S
Zn482 O493 2.120 . S
Zn482 O494 2.114 1_455 S
Zn482 O497 2.080 . S
C483 O488 1.166 . S
C483 O489 1.182 . S
C484 O490 1.167 1_655 S
C484 O491 1.299 . S
O485 Zn482 2.080 1_655 S
O485 C499 1.305 . S
O486 Zn480 1.920 . S
O486 C499 1.234 . S
C487 O492 1.167 1_455 S
C487 O493 1.299 . S
O488 Zn482 2.114 . S
O488 C483 1.166 . S
O489 Zn481 1.905 1_545 S
O489 C483 1.182 . S
O490 Zn481 1.898 . S
O490 C484 1.167 1_455 S
O491 Zn482 2.120 1_665 S
O491 C484 1.299 . S
O492 Zn480 1.898 . S
O492 C487 1.167 1_655 S
O493 Zn482 2.120 . S
O493 C487 1.299 . S
O494 Zn482 2.114 1_655 S
O494 C496 1.166 . S
O495 Zn480 1.905 . S
O495 C496 1.182 . S
C496 O494 1.166 . S
C496 O495 1.182 . S
O497 Zn482 2.080 . S
O497 C500 1.305 1_545 S
O498 Zn481 1.920 . S
O498 C500 1.234 . S
C499 O485 1.305 . S
C499 O486 1.234 . S
C500 O497 1.305 1_565 S
C500 O498 1.234 . S
Zn501 O507 1.920 1_556 S
Zn501 O513 1.898 . S
Zn501 O516 1.905 . S
Zn502 O510 1.905 . S
Zn502 O511 1.898 . S
Zn502 O519 1.920 . S
Zn503 O506 2.080 . S
Zn503 O509 2.114 1_545 S
Zn503 O512 2.120 1_545 S
Zn503 O514 2.120 . S
Zn503 O515 2.114 1_544 S
Zn503 O518 2.080 . S
C504 O509 1.166 . S
C504 O510 1.182 . S
C505 O511 1.167 . S
C505 O512 1.299 . S
O506 Zn503 2.080 . S
O506 C520 1.305 . S
O507 Zn501 1.920 1_554 S
O507 C520 1.234 . S
C508 O513 1.167 . S
C508 O514 1.299 1_556 S
O509 Zn503 2.114 1_565 S
O509 C504 1.166 . S
O510 Zn502 1.905 . S
O510 C504 1.182 . S
O511 Zn502 1.898 . S
O511 C505 1.167 . S
O512 Zn503 2.120 1_565 S
O512 C505 1.299 . S
O513 Zn501 1.898 . S
O513 C508 1.167 . S
O514 Zn503 2.120 . S
O514 C508 1.299 1_554 S
O515 Zn503 2.114 1_566 S
O515 C517 1.166 . S
O516 Zn501 1.905 . S
O516 C517 1.182 1_545 S
C517 O515 1.166 . S
C517 O516 1.182 1_565 S
O518 Zn503 2.080 . S
O518 C521 1.305 . S
O519 Zn502 1.920 . S
O519 C521 1.234 1_565 S
C520 O506 1.305 . S
C520 O507 1.234 . S
C521 O518 1.305 . S
C521 O519 1.234 1_545 S
Zn522 O528 1.920 . S
Zn522 O534 1.898 . S
Zn522 O537 1.905 . S
Zn523 O531 1.905 . S
Zn523 O532 1.898 . S
Zn523 O540 1.920 . S
Zn524 O527 2.080 . S
Zn524 O530 2.114 . S
Zn524 O533 2.120 . S
Zn524 O535 2.120 . S
Zn524 O536 2.114 . S
Zn524 O539 2.080 . S
C525 O530 1.166 . S
C525 O531 1.182 . S
C526 O532 1.167 . S
C526 O533 1.299 . S
O527 Zn524 2.080 . S
O527 C541 1.305 . S
O528 Zn522 1.920 . S
O528 C541 1.234 . S
C529 O534 1.167 . S
C529 O535 1.299 . S
O530 Zn524 2.114 . S
O530 C525 1.166 . S
O531 Zn523 1.905 . S
O531 C525 1.182 . S
O532 Zn523 1.898 . S
O532 C526 1.167 . S
O533 Zn524 2.120 . S
O533 C526 1.299 . S
O534 Zn522 1.898 . S
O534 C529 1.167 . S
O535 Zn524 2.120 . S
O535 C529 1.299 . S
O536 Zn524 2.114 . S
O536 C538 1.166 . S
O537 Zn522 1.905 . S
O537 C538 1.182 . S
C538 O536 1.166 . S
C538 O537 1.182 . S
O539 Zn524 2.080 . S
O539 C542 1.305 . S
O540 Zn523 1.920 . S
O540 C542 1.234 . S
C541 O527 1.305 . S
C541 O528 1.234 . S
C542 O539 1.305 . S
C542 O540 1.234 . S
Zn543 O549 1.920 . S
Zn543 O555 1.898 . S
Zn543 O558 1.905 . S
Zn544 O552 1.905 1_655 S
Zn544 O553 1.898 . S
Zn544 O561 1.920 . S
Zn545 O548 2.080 1_554 S
Zn545 O551 2.114 . S
Zn545 O554 2.120 1_454 S
Zn545 O556 2.120 . S
Zn545 O557 2.114 1_554 S
Zn545 O560 2.080 . S
C546 O551 1.166 . S
C546 O552 1.182 . S
C547 O553 1.167 1_556 S
C547 O554 1.299 . S
O548 Zn545 2.080 1_556 S
O548 C562 1.305 . S
O549 Zn543 1.920 . S
O549 C562 1.234 . S
C550 O555 1.167 1_554 S
C550 O556 1.299 . S
O551 Zn545 2.114 . S
O551 C546 1.166 . S
O552 Zn544 1.905 1_455 S
O552 C546 1.182 . S
O553 Zn544 1.898 . S
O553 C547 1.167 1_554 S
O554 Zn545 2.120 1_656 S
O554 C547 1.299 . S
O555 Zn543 1.898 . S
O555 C550 1.167 1_556 S
O556 Zn545 2.120 . S
O556 C550 1.299 . S
O557 Zn545 2.114 1_556 S
O557 C559 1.166 . S
O558 Zn543 1.905 . S
O558 C559 1.182 . S
C559 O557 1.166 . S
C559 O558 1.182 . S
O560 Zn545 2.080 . S
O560 C563 1.305 1_455 S
O561 Zn544 1.920 . S
O561 C563 1.234 . S
C562 O548 1.305 . S
C562 O549 1.234 . S
C563 O560 1.305 1_655 S
C563 O561 1.234 . S
C1 C483 1.589 . S
C80 C517 1.608 . S
C529 C140 1.420 . S
C211 C563 1.612 . S
C520 C31 1.569 . S
C500 C61 1.602 . S
C547 C151 1.409 . S
C538 C200 1.621 . S
C20 C546 1.557 . S
C508 C121 1.416 . S
C181 C484 1.602 . S
C91 C541 1.586 . S
C499 C260 2.304 1_655 S
C320 C521 2.193 . S
C361 C526 2.371 . S
C451 C559 2.285 . S
C271 C504 2.355 1_545 S
C496 C301 2.232 . S
C550 C380 2.371 1_554 S
C542 C440 2.236 . S
C241 C562 2.311 1_554 S
C505 C391 2.376 . S
C487 C421 2.186 . S
C331 C525 2.245 . S
