# Generated by pormake.
# Topology dag, (6,3)-cn, num edge types: 1
# Building blocks:
#     Node 0, Type 0, BuildingBlock: MIDCAF_clean_sbu_0, # of connection points: 6
#     Node 1, Type 0, BuildingBlock: MIDCAF_clean_sbu_0, # of connection points: 6
#     Node 2, Type 0, BuildingBlock: MIDCAF_clean_sbu_0, # of connection points: 6
#     Node 3, Type 0, BuildingBlock: MIDCAF_clean_sbu_0, # of connection points: 6
#     Node 4, Type 1, BuildingBlock: BETDIP_clean_linker_0, # of connection points: 3
#     Node 5, Type 1, BuildingBlock: BETDIP_clean_linker_0, # of connection points: 3
#     Node 6, Type 1, BuildingBlock: BETDIP_clean_linker_0, # of connection points: 3
#     Node 7, Type 1, BuildingBlock: BETDIP_clean_linker_0, # of connection points: 3
#     Node 8, Type 1, BuildingBlock: BETDIP_clean_linker_0, # of connection points: 3
#     Node 9, Type 1, BuildingBlock: BETDIP_clean_linker_0, # of connection points: 3
#     Node 10, Type 1, BuildingBlock: BETDIP_clean_linker_0, # of connection points: 3
#     Node 11, Type 1, BuildingBlock: BETDIP_clean_linker_0, # of connection points: 3
#     Edge 12, Type (0, 1), BuildingBlock: XIVTED_clean_linker_0, # of connection points: 2
#     Edge 13, Type (0, 1), BuildingBlock: XIVTED_clean_linker_0, # of connection points: 2
#     Edge 14, Type (0, 1), BuildingBlock: XIVTED_clean_linker_0, # of connection points: 2
#     Edge 15, Type (0, 1), BuildingBlock: XIVTED_clean_linker_0, # of connection points: 2
#     Edge 16, Type (0, 1), BuildingBlock: XIVTED_clean_linker_0, # of connection points: 2
#     Edge 17, Type (0, 1), BuildingBlock: XIVTED_clean_linker_0, # of connection points: 2
#     Edge 18, Type (0, 1), BuildingBlock: XIVTED_clean_linker_0, # of connection points: 2
#     Edge 19, Type (0, 1), BuildingBlock: XIVTED_clean_linker_0, # of connection points: 2
#     Edge 20, Type (0, 1), BuildingBlock: XIVTED_clean_linker_0, # of connection points: 2
#     Edge 21, Type (0, 1), BuildingBlock: XIVTED_clean_linker_0, # of connection points: 2
#     Edge 22, Type (0, 1), BuildingBlock: XIVTED_clean_linker_0, # of connection points: 2
#     Edge 23, Type (0, 1), BuildingBlock: XIVTED_clean_linker_0, # of connection points: 2
#     Edge 24, Type (0, 1), BuildingBlock: XIVTED_clean_linker_0, # of connection points: 2
#     Edge 25, Type (0, 1), BuildingBlock: XIVTED_clean_linker_0, # of connection points: 2
#     Edge 26, Type (0, 1), BuildingBlock: XIVTED_clean_linker_0, # of connection points: 2
#     Edge 27, Type (0, 1), BuildingBlock: XIVTED_clean_linker_0, # of connection points: 2
#     Edge 28, Type (0, 1), BuildingBlock: XIVTED_clean_linker_0, # of connection points: 2
#     Edge 29, Type (0, 1), BuildingBlock: XIVTED_clean_linker_0, # of connection points: 2
#     Edge 30, Type (0, 1), BuildingBlock: XIVTED_clean_linker_0, # of connection points: 2
#     Edge 31, Type (0, 1), BuildingBlock: XIVTED_clean_linker_0, # of connection points: 2
#     Edge 32, Type (0, 1), BuildingBlock: XIVTED_clean_linker_0, # of connection points: 2
#     Edge 33, Type (0, 1), BuildingBlock: XIVTED_clean_linker_0, # of connection points: 2
#     Edge 34, Type (0, 1), BuildingBlock: XIVTED_clean_linker_0, # of connection points: 2
#     Edge 35, Type (0, 1), BuildingBlock: XIVTED_clean_linker_0, # of connection points: 2
# Relax obj value: 0.129
# Max RMSD: 0.135
# Mean RMSD: 0.106
data_MOF--net-dag--node1-MIDCAF_clean_sbu_0--node2-BETDIP_clean_linker_0--edge1-XIVTED_clean_linker_0
_symmetry_space_group_name_H-M    P1
_symmetry_Int_Tables_number       1
_symmetry_cell_setting            triclinic
loop_
_symmetry_equiv_pos_as_xyz
'x, y, z'
_cell_length_a     41.32309
_cell_length_b     40.166703
_cell_length_c     30.987558
_cell_angle_alpha  87.781469
_cell_angle_beta   89.57998
_cell_angle_gamma 91.162996
loop_
_atom_site_label
_atom_site_type_symbol
_atom_site_fract_x
_atom_site_fract_y
_atom_site_fract_z
_atom_type_partial_charge
Zn0 Zn 0.12625 0.87137 0.11667 0.0
Zn1 Zn 0.16288 0.87089 0.9703 0.0
Zn2 Zn 0.14159 0.8615 0.04398 0.0
C3 C 0.15309 0.93361 1.00668 0.0
C4 C 0.10339 0.83256 0.96818 0.0
O5 O 0.17171 0.82844 0.08538 0.0
O6 O 0.13371 0.82294 0.13549 0.0
C7 C 0.19061 0.89054 0.10093 0.0
O8 O 0.14088 0.915 0.03713 0.0
O9 O 0.16546 0.92062 0.97405 0.0
O10 O 0.12414 0.84803 0.94424 0.0
O11 O 0.1058 0.83349 1.00932 0.0
O12 O 0.16542 0.90196 0.11808 0.0
O13 O 0.1878 0.86506 0.07716 0.0
O14 O 0.09161 0.84326 0.05504 0.0
O15 O 0.08223 0.88491 0.09709 0.0
C16 C 0.07152 0.8619 0.07409 0.0
O17 O 0.18751 0.8332 0.04312 0.0
O18 O 0.20307 0.84472 0.97559 0.0
C19 C 0.15938 0.81241 0.11866 0.0
C20 C 0.20748 0.8296 1.01148 0.0
Zn21 Zn 0.62081 0.62926 0.48121 0.0
Zn22 Zn 0.65443 0.64476 0.62231 0.0
Zn23 Zn 0.63706 0.64636 0.54735 0.0
C24 C 0.64816 0.57816 0.59671 0.0
C25 C 0.59553 0.6807 0.61608 0.0
O26 O 0.66596 0.67808 0.50064 0.0
O27 O 0.62625 0.67627 0.45385 0.0
C28 C 0.68532 0.61608 0.49044 0.0
O29 O 0.63946 0.5934 0.56194 0.0
O30 O 0.65605 0.59484 0.62896 0.0
O31 O 0.61576 0.66938 0.6431 0.0
O32 O 0.59908 0.67492 0.57591 0.0
O33 O 0.65988 0.60107 0.47846 0.0
O34 O 0.68283 0.64309 0.51123 0.0
O35 O 0.58559 0.65891 0.53438 0.0
O36 O 0.57724 0.61244 0.50062 0.0
C37 C 0.56589 0.63717 0.51909 0.0
O38 O 0.68185 0.67796 0.54356 0.0
O39 O 0.69518 0.67157 0.6124 0.0
C40 C 0.65217 0.69012 0.46636 0.0
C41 C 0.70083 0.68441 0.57516 0.0
Zn42 Zn 0.85532 0.19289 0.96171 0.0
Zn43 Zn 0.85467 0.12858 0.09838 0.0
Zn44 Zn 0.85433 0.16041 0.02933 0.0
C45 C 0.91711 0.12447 0.06441 0.0
C46 C 0.80398 0.10278 0.05099 0.0
O47 O 0.8075 0.15557 0.99502 0.0
O48 O 0.80965 0.20675 0.9674 0.0
C49 C 0.88944 0.22915 1.01919 0.0
O50 O 0.90191 0.13497 0.03042 0.0
O51 O 0.90181 0.12018 0.09967 0.0
O52 O 0.82275 0.09433 0.08128 0.0
O53 O 0.80949 0.12986 0.02843 0.0
O54 O 0.88971 0.22357 0.97939 0.0
O55 O 0.87153 0.21079 0.04512 0.0
O56 O 0.88768 0.13304 0.99071 0.0
O57 O 0.8652 0.15094 0.93023 0.0
C58 C 0.88152 0.1292 0.95054 0.0
O59 O 0.85205 0.19849 0.07944 0.0
O60 O 0.83864 0.16436 0.13437 0.0
C61 C 0.79346 0.18035 0.976 0.0
C62 C 0.84202 0.19373 0.11875 0.0
Zn63 Zn 0.346 0.315 0.62528 0.0
Zn64 Zn 0.3584 0.37348 0.49646 0.0
Zn65 Zn 0.34693 0.337 0.55181 0.0
C66 C 0.41494 0.35198 0.51168 0.0
C67 C 0.29629 0.3841 0.52224 0.0
O68 O 0.29737 0.3153 0.55133 0.0
O69 O 0.30161 0.29573 0.6188 0.0
C70 C 0.39529 0.28139 0.58376 0.0
O71 O 0.39444 0.32793 0.51998 0.0
O72 O 0.40515 0.3816 0.51045 0.0
O73 O 0.32164 0.40167 0.51463 0.0
O74 O 0.29865 0.35229 0.52825 0.0
O75 O 0.38288 0.28402 0.62086 0.0
O76 O 0.38483 0.29956 0.55198 0.0
O77 O 0.35223 0.38142 0.58666 0.0
O78 O 0.35091 0.35981 0.65274 0.0
C79 C 0.35254 0.38521 0.62726 0.0
O80 O 0.31073 0.32097 0.50457 0.0
O81 O 0.34688 0.33605 0.45488 0.0
C82 C 0.28524 0.29921 0.58467 0.0
C83 C 0.32215 0.31844 0.46597 0.0
H84 H 0.14953 0.17797 0.17803 0.0
H85 H 0.24097 0.12874 0.17124 0.0
H86 H 0.16199 0.09777 0.09214 0.0
H87 H 0.25007 0.14812 0.23341 0.0
C88 C 0.23554 0.16973 0.23887 0.0
C89 C 0.16495 0.15972 0.16389 0.0
C90 C 0.15272 0.13941 0.13153 0.0
C91 C 0.1966 0.15593 0.17919 0.0
C92 C 0.21625 0.13166 0.16107 0.0
C93 C 0.20393 0.11007 0.13019 0.0
C94 C 0.17237 0.11484 0.11477 0.0
N95 N 0.20733 0.17588 0.21379 0.0
H96 H 0.32275 0.60647 0.80161 0.0
H97 H 0.37871 0.69809 0.79464 0.0
H98 H 0.38732 0.62815 0.69426 0.0
H99 H 0.37737 0.68858 0.86846 0.0
C100 C 0.3519 0.6821 0.87315 0.0
C101 C 0.33987 0.62309 0.78452 0.0
C102 C 0.35325 0.61406 0.74489 0.0
C103 C 0.3493 0.65303 0.8031 0.0
C104 C 0.37163 0.67464 0.78106 0.0
C105 C 0.38514 0.66601 0.74144 0.0
C106 C 0.37558 0.63584 0.72353 0.0
N107 N 0.33609 0.6608 0.84394 0.0
H108 H 0.83331 0.82225 0.17257 0.0
H109 H 0.7424 0.87071 0.15133 0.0
H110 H 0.82269 0.8929 0.06612 0.0
H111 H 0.73534 0.86047 0.22067 0.0
C112 C 0.74751 0.83756 0.22957 0.0
C113 C 0.81837 0.8388 0.1532 0.0
C114 C 0.83179 0.85659 0.11715 0.0
C115 C 0.78634 0.84403 0.16643 0.0
C116 C 0.76723 0.8666 0.14218 0.0
C117 C 0.78026 0.88462 0.10611 0.0
C118 C 0.81222 0.87868 0.09337 0.0
N119 N 0.77466 0.82737 0.20515 0.0
H120 H 0.63752 0.2337 0.65017 0.0
H121 H 0.69047 0.32379 0.67495 0.0
H122 H 0.61194 0.32614 0.5854 0.0
H123 H 0.67604 0.20819 0.68968 0.0
C124 C 0.68121 0.22674 0.71339 0.0
C125 C 0.64187 0.25997 0.64346 0.0
C126 C 0.62151 0.27746 0.61461 0.0
C127 C 0.6664 0.27671 0.6658 0.0
C128 C 0.67193 0.31083 0.65714 0.0
C129 C 0.65303 0.3285 0.627 0.0
C130 C 0.62795 0.31169 0.60594 0.0
N131 N 0.68313 0.26118 0.70085 0.0
H132 H 0.64855 0.32752 0.37353 0.0
H133 H 0.73034 0.39526 0.36775 0.0
H134 H 0.65167 0.41273 0.45425 0.0
H135 H 0.72787 0.38012 0.29441 0.0
C136 C 0.72602 0.35338 0.30104 0.0
C137 C 0.66047 0.34985 0.38458 0.0
C138 C 0.64589 0.36869 0.41662 0.0
C139 C 0.6904 0.35978 0.36601 0.0
C140 C 0.70675 0.38806 0.38087 0.0
C141 C 0.69321 0.40667 0.41352 0.0
C142 C 0.66273 0.39709 0.43082 0.0
N143 N 0.70408 0.34035 0.33339 0.0
H144 H 0.09976 0.26014 0.88554 0.0
H145 H 0.15041 0.16824 0.87512 0.0
H146 H 0.09314 0.1846 0.98779 0.0
H147 H 0.11782 0.27276 0.81931 0.0
C148 C 0.13163 0.25261 0.80663 0.0
C149 C 0.10645 0.23607 0.89895 0.0
C150 C 0.09435 0.22536 0.9401 0.0
C151 C 0.12671 0.21533 0.87535 0.0
C152 C 0.13528 0.18431 0.89359 0.0
C153 C 0.12332 0.17319 0.9342 0.0
C154 C 0.10303 0.19383 0.95707 0.0
N155 N 0.13819 0.22359 0.83268 0.0
H156 H 0.33861 0.66307 0.39146 0.0
H157 H 0.24837 0.60772 0.39158 0.0
H158 H 0.31841 0.58628 0.4894 0.0
H159 H 0.25085 0.62024 0.32127 0.0
C160 C 0.26075 0.64548 0.31862 0.0
C161 C 0.32246 0.6444 0.4065 0.0
C162 C 0.33231 0.62574 0.44336 0.0
C163 C 0.29254 0.6378 0.38708 0.0
C164 C 0.27179 0.61275 0.40551 0.0
C165 C 0.28112 0.59381 0.44217 0.0
C166 C 0.31105 0.60102 0.46132 0.0
N167 N 0.28423 0.65631 0.34871 0.0
H168 H 0.84366 0.91175 0.77013 0.0
H169 H 0.89078 0.81682 0.77567 0.0
H170 H 0.91027 0.88775 0.87226 0.0
H171 H 0.88626 0.82482 0.70168 0.0
C172 C 0.86097 0.83167 0.7001 0.0
C173 C 0.8599 0.89445 0.78607 0.0
C174 C 0.87583 0.90335 0.82414 0.0
C175 C 0.86532 0.8634 0.76798 0.0
C176 C 0.88656 0.84098 0.78872 0.0
C177 C 0.90232 0.8495 0.82677 0.0
C178 C 0.89671 0.88053 0.84416 0.0
N179 N 0.84889 0.85496 0.72946 0.0
H180 H 0.2201 0.91994 0.03036 0.0
H181 H 0.24097 0.07073 0.1837 0.0
H182 H 0.22408 0.91317 0.16912 0.0
H183 H 0.20707 0.07875 0.05224 0.0
H184 H 0.25909 0.01478 0.17098 0.0
H185 H 0.2406 0.97759 0.03169 0.0
C186 C 0.22712 0.92993 0.06096 0.0
C187 C 0.21957 0.9123 0.0998 0.0
C188 C 0.24841 0.02907 0.14457 0.0
C189 C 0.24249 0.97791 0.10165 0.0
C190 C 0.23817 0.06127 0.15167 0.0
C191 C 0.22172 0.07947 0.11927 0.0
C192 C 0.24189 0.01462 0.10499 0.0
C193 C 0.21872 0.06535 0.07861 0.0
C194 C 0.23832 0.96301 0.06173 0.0
C195 C 0.22919 0.92623 0.13852 0.0
N196 N 0.22805 0.03351 0.07289 0.0
N197 N 0.23932 0.95858 0.13861 0.0
H198 H 0.58169 0.69647 0.69907 0.0
H199 H 0.39587 0.68232 0.65549 0.0
H200 H 0.54194 0.70125 0.5709 0.0
H201 H 0.4372 0.69367 0.78167 0.0
H202 H 0.44736 0.7012 0.6227 0.0
H203 H 0.52876 0.70853 0.72847 0.0
C204 C 0.56186 0.70041 0.67691 0.0
C205 C 0.56584 0.69611 0.63245 0.0
C206 C 0.44493 0.7004 0.65755 0.0
C207 C 0.50482 0.70943 0.66615 0.0
C208 C 0.41557 0.68952 0.67628 0.0
C209 C 0.4125 0.68567 0.72138 0.0
C210 C 0.47147 0.70708 0.68417 0.0
C211 C 0.43851 0.69602 0.74678 0.0
C212 C 0.53153 0.70735 0.69379 0.0
C213 C 0.53948 0.70261 0.60542 0.0
N214 N 0.4671 0.70556 0.72783 0.0
N215 N 0.5098 0.70803 0.62273 0.0
H216 H 0.75129 0.08568 0.09957 0.0
H217 H 0.77843 0.90554 0.02022 0.0
H218 H 0.80079 0.06353 0.98176 0.0
H219 H 0.74377 0.93068 0.14634 0.0
H220 H 0.7663 0.96191 0.99326 0.0
H221 H 0.72684 0.02979 0.10211 0.0
C222 C 0.75561 0.06954 0.07298 0.0
C223 C 0.77814 0.07895 0.04057 0.0
C224 C 0.76047 0.95475 0.02651 0.0
C225 C 0.75193 0.01442 0.04452 0.0
C226 C 0.7675 0.92259 0.04201 0.0
C227 C 0.76323 0.91364 0.08606 0.0
C228 C 0.74906 0.9781 0.05525 0.0
C229 C 0.74795 0.93642 0.11232 0.0
C230 C 0.74204 0.03744 0.07473 0.0
C231 C 0.78343 0.05707 1.00724 0.0
N232 N 0.74215 0.9678 0.09678 0.0
N233 N 0.77122 0.02535 1.01075 0.0
H234 H 0.42528 0.24467 0.64683 0.0
H235 H 0.58457 0.22673 0.65449 0.0
H236 H 0.43412 0.27405 0.512 0.0
H237 H 0.58706 0.29141 0.53946 0.0
H238 H 0.53012 0.20997 0.63767 0.0
H239 H 0.48114 0.22903 0.6472 0.0
C240 C 0.43888 0.24719 0.61682 0.0
C241 C 0.4255 0.26251 0.57985 0.0
C242 C 0.54231 0.22815 0.61629 0.0
C243 C 0.49032 0.24416 0.57968 0.0
C244 C 0.57413 0.2373 0.62529 0.0
C245 C 0.59069 0.26174 0.59935 0.0
C246 C 0.52615 0.24456 0.58223 0.0
C247 C 0.57499 0.27391 0.56191 0.0
C248 C 0.47111 0.23795 0.6169 0.0
C249 C 0.44414 0.26418 0.5418 0.0
N250 N 0.54333 0.26591 0.55516 0.0
N251 N 0.476 0.25622 0.54297 0.0
H252 H 0.72031 0.61008 0.41707 0.0
H253 H 0.70347 0.42544 0.49634 0.0
H254 H 0.71576 0.57873 0.55124 0.0
H255 H 0.72128 0.45732 0.36377 0.0
H256 H 0.7226 0.47996 0.51924 0.0
H257 H 0.73944 0.55522 0.39943 0.0
C258 C 0.72536 0.59226 0.44319 0.0
C259 C 0.71568 0.59852 0.48548 0.0
C260 C 0.72304 0.47488 0.48517 0.0
C261 C 0.73545 0.53509 0.46549 0.0
C262 C 0.71173 0.44389 0.47213 0.0
C263 C 0.7099 0.43728 0.4281 0.0
C264 C 0.73224 0.49962 0.45385 0.0
C265 C 0.72194 0.46154 0.39804 0.0
C266 C 0.73556 0.56056 0.43304 0.0
C267 C 0.72253 0.57459 0.51807 0.0
N268 N 0.73198 0.49186 0.41141 0.0
N269 N 0.7306 0.54333 0.50727 0.0
H270 H 0.9079 0.29046 0.98752 0.0
H271 H 0.08616 0.23033 0.02832 0.0
H272 H 0.93307 0.21413 0.08204 0.0
H273 H 0.04588 0.26455 0.90657 0.0
H274 H 0.03704 0.24758 0.06496 0.0
H275 H 0.96507 0.30615 0.97943 0.0
C276 C 0.92529 0.27837 1.00857 0.0
C277 C 0.91597 0.2504 0.03461 0.0
C278 C 0.03954 0.2522 0.03041 0.0
C279 C 0.98121 0.2675 0.02458 0.0
C280 C 0.06739 0.24204 1.00924 0.0
C281 C 0.06978 0.24464 0.96381 0.0
C282 C 0.01426 0.26591 1.0062 0.0
C283 C 0.04525 0.26154 0.9414 0.0
C284 C 0.95798 0.28699 1.00342 0.0
C285 C 0.93937 0.2356 0.06121 0.0
N286 N 0.01831 0.27099 0.96274 0.0
N287 N 0.97123 0.24351 0.05438 0.0
H288 H 0.26811 0.41812 0.58518 0.0
H289 H 0.25118 0.54702 0.39322 0.0
H290 H 0.25821 0.39302 0.45222 0.0
H291 H 0.26779 0.57147 0.52571 0.0
H292 H 0.23222 0.49156 0.41774 0.0
H293 H 0.24465 0.47228 0.5683 0.0
C294 C 0.25899 0.4232 0.55293 0.0
C295 C 0.26553 0.40144 0.51984 0.0
C296 C 0.23924 0.50929 0.4416 0.0
C297 C 0.24049 0.46393 0.49964 0.0
C298 C 0.24995 0.54113 0.4276 0.0
C299 C 0.26198 0.56371 0.45738 0.0
C300 C 0.24091 0.49977 0.48563 0.0
C301 C 0.25974 0.5545 0.5015 0.0
C302 C 0.24622 0.45448 0.54303 0.0
C303 C 0.25373 0.40935 0.47854 0.0
N304 N 0.25016 0.52304 0.51422 0.0
N305 N 0.24287 0.4405 0.46915 0.0
H306 H 0.04894 0.80447 1.00741 0.0
H307 H 0.95328 0.82148 0.78622 0.0
H308 H 0.0923 0.82546 0.88217 0.0
H309 H 0.90953 0.8305 0.91187 0.0
H310 H 0.00251 0.80127 0.82095 0.0
H311 H -0.00304 0.79349 0.97252 0.0
C312 C 0.0476 0.80644 0.97266 0.0
C313 C 0.07451 0.81755 0.94791 0.0
C314 C 0.98183 0.80684 0.84089 0.0
C315 C 0.01573 0.80389 0.9076 0.0
C316 C 0.95365 0.81811 0.82106 0.0
C317 C 0.92765 0.82829 0.84631 0.0
C318 C 0.9839 0.80587 0.88618 0.0
C319 C 0.92941 0.82352 0.89136 0.0
C320 C 0.01805 0.79989 0.95271 0.0
C321 C 0.07191 0.81803 0.90273 0.0
N322 N 0.95733 0.81325 0.90994 0.0
N323 N 0.04292 0.81188 0.88407 0.0
H324 H 0.88052 0.11626 0.86459 0.0
H325 H 0.86949 0.91911 0.90893 0.0
H326 H 0.89349 0.06853 0.99026 0.0
H327 H 0.87734 0.96443 0.78067 0.0
H328 H 0.87452 0.9742 0.93907 0.0
H329 H 0.87806 0.06147 0.83291 0.0
C330 C 0.88351 0.09427 0.88543 0.0
C331 C 0.88729 0.09704 0.93019 0.0
C332 C 0.87507 0.97217 0.90433 0.0
C333 C 0.88356 0.03414 0.89419 0.0
C334 C 0.87203 0.94072 0.88705 0.0
C335 C 0.87326 0.93706 0.84214 0.0
C336 C 0.87918 0.00042 0.8766 0.0
C337 C 0.87605 0.96604 0.81542 0.0
C338 C 0.88186 0.06298 0.86733 0.0
C339 C 0.89083 0.06766 0.95559 0.0
N340 N 0.87908 0.99648 0.83306 0.0
N341 N 0.88849 0.03745 0.93731 0.0
H342 H 0.44085 0.3168 0.44659 0.0
H343 H 0.62161 0.37764 0.49828 0.0
H344 H 0.4668 0.37563 0.5548 0.0
H345 H 0.59375 0.33969 0.37529 0.0
H346 H 0.56692 0.36706 0.52513 0.0
H347 H 0.49842 0.31489 0.426 0.0
C348 C 0.45883 0.32866 0.46648 0.0
C349 C 0.44936 0.34608 0.50265 0.0
C350 C 0.5728 0.36079 0.49234 0.0
C351 C 0.51481 0.3446 0.47908 0.0
C352 C 0.60423 0.36684 0.47689 0.0
C353 C 0.61282 0.3597 0.43429 0.0
C354 C 0.54929 0.3476 0.46505 0.0
C355 C 0.58874 0.34538 0.40848 0.0
C356 C 0.49156 0.32779 0.45461 0.0
C357 C 0.4733 0.36173 0.52688 0.0
N358 N 0.55808 0.34006 0.42413 0.0
N359 N 0.50491 0.36067 0.51464 0.0
H360 H 0.10912 0.97253 0.0472 0.0
H361 H 0.18168 0.14191 0.93673 0.0
H362 H 0.19554 0.97795 0.9681 0.0
H363 H 0.08098 0.12725 0.97176 0.0
H364 H 0.19221 0.08515 0.96435 0.0
H365 H 0.10428 0.03331 0.03737 0.0
C366 C 0.12735 0.98658 0.0285 0.0
C367 C 0.1524 0.97027 1.00774 0.0
C368 C 0.16789 0.09455 0.96631 0.0
C369 C 0.14712 0.03925 0.99653 0.0
C370 C 0.16184 0.12678 0.95031 0.0
C371 C 0.13042 0.13926 0.95186 0.0
C372 C 0.14235 0.07471 0.98403 0.0
C373 C 0.10564 0.11874 0.97031 0.0
C374 C 0.1245 0.02112 0.0227 0.0
C375 C 0.17549 0.98956 0.98395 0.0
N376 N 0.11212 0.08745 0.9856 0.0
N377 N 0.17219 0.02299 0.97875 0.0
H378 H 0.53003 0.69131 0.49391 0.0
H379 H 0.37185 0.5769 0.47567 0.0
H380 H 0.52157 0.58967 0.54298 0.0
H381 H 0.36978 0.68336 0.45038 0.0
H382 H 0.42627 0.58276 0.50298 0.0
H383 H 0.47123 0.69117 0.48141 0.0
C384 C 0.51559 0.66937 0.50333 0.0
C385 C 0.53043 0.6406 0.52006 0.0
C386 C 0.41393 0.60499 0.49189 0.0
C387 C 0.46378 0.63975 0.50438 0.0
C388 C 0.38253 0.6017 0.47647 0.0
C389 C 0.36571 0.62973 0.46099 0.0
C390 C 0.42931 0.63648 0.49132 0.0
C391 C 0.38175 0.66097 0.46159 0.0
C392 C 0.48216 0.66916 0.49579 0.0
C393 C 0.51095 0.61243 0.53031 0.0
N394 N 0.41273 0.66349 0.47624 0.0
N395 N 0.47876 0.61263 0.52201 0.0
H396 H 0.35553 0.40187 0.71188 0.0
H397 H 0.34239 0.59798 0.66089 0.0
H398 H 0.34812 0.44544 0.58283 0.0
H399 H 0.3512 0.55376 0.7893 0.0
H400 H 0.34098 0.54223 0.63184 0.0
H401 H 0.35174 0.45725 0.74079 0.0
C402 C 0.35328 0.42311 0.68956 0.0
C403 C 0.35234 0.41897 0.6448 0.0
C404 C 0.34293 0.54469 0.6664 0.0
C405 C 0.34765 0.4826 0.67784 0.0
C406 C 0.34369 0.5765 0.68301 0.0
C407 C 0.3471 0.58055 0.72759 0.0
C408 C 0.34571 0.51666 0.69454 0.0
C409 C 0.34828 0.55185 0.75479 0.0
C410 C 0.35098 0.45475 0.70614 0.0
C411 C 0.34922 0.44745 0.61753 0.0
N412 N 0.34788 0.52116 0.73779 0.0
N413 N 0.34698 0.47806 0.63449 0.0
H414 H 0.03468 0.80452 0.08653 0.0
H415 H 0.87238 0.9089 0.09481 0.0
H416 H 0.02841 0.90981 0.0566 0.0
H417 H 0.87191 0.8021 0.11697 0.0
H418 H 0.92939 0.9079 0.07691 0.0
H419 H 0.97519 0.80098 0.09283 0.0
C420 C 0.02066 0.82665 0.08021 0.0
C421 C 0.03621 0.85743 0.07056 0.0
C422 C 0.91697 0.88453 0.08535 0.0
C423 C 0.96878 0.85389 0.07892 0.0
C424 C 0.88416 0.88505 0.09536 0.0
C425 C 0.86701 0.85544 0.10678 0.0
C426 C 0.93332 0.85424 0.08726 0.0
C427 C 0.88415 0.82553 0.10839 0.0
C428 C 0.98685 0.82472 0.08419 0.0
C429 C 0.01724 0.88559 0.06386 0.0
N430 N 0.91644 0.82567 0.09878 0.0
N431 N 0.98462 0.88316 0.06835 0.0
H432 H 0.65636 0.53935 0.66959 0.0
H433 H 0.657 0.36552 0.55137 0.0
H434 H 0.6445 0.5329 0.53184 0.0
H435 H 0.65748 0.37483 0.68923 0.0
H436 H 0.65547 0.42665 0.54211 0.0
H437 H 0.6604 0.47914 0.67598 0.0
C438 C 0.65454 0.52526 0.64057 0.0
C439 C 0.64983 0.5413 0.60011 0.0
C440 C 0.65626 0.41532 0.57434 0.0
C441 C 0.65462 0.4718 0.6073 0.0
C442 C 0.65675 0.38058 0.57954 0.0
C443 C 0.65669 0.36524 0.62097 0.0
C444 C 0.65635 0.43485 0.61097 0.0
C445 C 0.65765 0.38562 0.65667 0.0
C446 C 0.65687 0.49075 0.64429 0.0
C447 C 0.64776 0.52156 0.56373 0.0
N448 N 0.65733 0.41931 0.65083 0.0
N449 N 0.65019 0.48779 0.56818 0.0
H450 H 0.96306 0.15285 1.00802 0.0
H451 H 0.10026 0.13206 0.18458 0.0
H452 H 0.95261 0.09092 0.12445 0.0
H453 H 0.12692 0.14776 0.0506 0.0
H454 H 0.04352 0.12635 0.16362 0.0
H455 H 0.02171 0.15782 0.02179 0.0
C456 C 0.97314 0.1396 0.03574 0.0
C457 C 0.95284 0.12153 0.06522 0.0
C458 C 0.06172 0.13121 0.13873 0.0
C459 C 0.01923 0.12809 0.08179 0.0
C460 C 0.09401 0.13484 0.15076 0.0
C461 C 0.11814 0.14036 0.11921 0.0
C462 C 0.05336 0.13355 0.09484 0.0
C463 C 0.10884 0.14335 0.07573 0.0
C464 C 0.00648 0.14274 0.04378 0.0
C465 C 0.96717 0.10533 0.101 0.0
N466 N 0.07708 0.14003 0.06472 0.0
N467 N -0.00074 0.10939 0.10855 0.0
H468 H 0.22479 0.80227 0.12289 0.0
H469 H 0.20703 0.63598 0.27123 0.0
H470 H 0.13254 0.76002 0.16496 0.0
H471 H 0.28591 0.70618 0.28776 0.0
H472 H 0.18392 0.67416 0.2167 0.0
H473 H 0.25203 0.75963 0.16809 0.0
C474 C 0.21034 0.78369 0.14101 0.0
C475 C 0.17641 0.78467 0.14053 0.0
C476 C 0.20639 0.68108 0.2321 0.0
C477 C 0.20718 0.73609 0.19148 0.0
C478 C 0.21958 0.65936 0.2631 0.0
C479 C 0.24815 0.66817 0.28428 0.0
C480 C 0.22222 0.71157 0.22159 0.0
C481 C 0.2636 0.69866 0.27248 0.0
C482 C 0.22584 0.75963 0.16693 0.0
C483 C 0.15875 0.76023 0.16474 0.0
N484 N 0.25043 0.71935 0.24178 0.0
N485 N 0.17433 0.7369 0.18917 0.0
H486 H 0.69748 0.75134 0.56132 0.0
H487 H 0.8764 0.77929 0.6523 0.0
H488 H 0.76467 0.67225 0.58461 0.0
H489 H 0.79716 0.84376 0.67918 0.0
H490 H 0.84051 0.7463 0.6072 0.0
H491 H 0.73926 0.79187 0.58268 0.0
C492 C 0.72153 0.74275 0.56895 0.0
C493 C 0.72792 0.70859 0.57082 0.0
C494 C 0.83109 0.7679 0.62255 0.0
C495 C 0.77528 0.75435 0.59617 0.0
C496 C 0.85151 0.78671 0.64826 0.0
C497 C 0.83961 0.81399 0.6699 0.0
C498 C 0.79855 0.77664 0.618 0.0
C499 C 0.80722 0.82267 0.66344 0.0
C500 C 0.74513 0.76575 0.5818 0.0
C501 C 0.75906 0.69848 0.58226 0.0
N502 N 0.78772 0.80392 0.63821 0.0
N503 N 0.78153 0.72122 0.59485 0.0
H504 H 0.82883 0.25902 0.09394 0.0
H505 H 0.73601 0.28666 0.31526 0.0
H506 H 0.8315 0.19116 0.20531 0.0
H507 H 0.75986 0.36935 0.22701 0.0
H508 H 0.76847 0.25057 0.27151 0.0
H509 H 0.80272 0.30018 0.13901 0.0
C510 C 0.8245 0.253 0.12789 0.0
C511 C 0.83197 0.22144 0.14571 0.0
C512 C 0.76675 0.27663 0.26167 0.0
C513 C 0.80175 0.26784 0.19689 0.0
C514 C 0.74801 0.2972 0.28653 0.0
C515 C 0.74518 0.33098 0.27456 0.0
C516 C 0.78251 0.28978 0.22421 0.0
C517 C 0.76148 0.34334 0.23718 0.0
C518 C 0.80947 0.27638 0.1535 0.0
C519 C 0.82575 0.21493 0.1899 0.0
N520 N 0.77932 0.32269 0.21304 0.0
N521 N 0.8107 0.23769 0.2137 0.0
H522 H 0.23384 0.33985 0.5888 0.0
H523 H 0.16153 0.20558 0.759 0.0
H524 H 0.26025 0.23673 0.59611 0.0
H525 H 0.13371 0.30855 0.75345 0.0
H526 H 0.18863 0.2141 0.68919 0.0
H527 H 0.18691 0.32625 0.63549 0.0
C528 C 0.22863 0.31399 0.5981 0.0
C529 C 0.25089 0.28933 0.58864 0.0
C530 C 0.17633 0.23483 0.70288 0.0
C531 C 0.19832 0.2738 0.64371 0.0
C532 C 0.16096 0.23 0.74299 0.0
C533 C 0.14584 0.25661 0.76249 0.0
C534 C 0.177 0.2666 0.68214 0.0
C535 C 0.14544 0.2875 0.73973 0.0
C536 C 0.20223 0.30632 0.6256 0.0
C537 C 0.24354 0.2564 0.60253 0.0
N538 N 0.16122 0.29181 0.70108 0.0
N539 N 0.21837 0.24971 0.6302 0.0
H540 H 0.71717 0.70448 0.45644 0.0
H541 H 0.69114 0.84593 0.27198 0.0
H542 H 0.62322 0.73423 0.41118 0.0
H543 H 0.77604 0.78521 0.27475 0.0
H544 H 0.66926 0.81337 0.3343 0.0
H545 H 0.74248 0.74257 0.40119 0.0
C546 C 0.70192 0.71946 0.43543 0.0
C547 C 0.66807 0.71616 0.43813 0.0
C548 C 0.69272 0.80723 0.32136 0.0
C549 C 0.69669 0.75956 0.37545 0.0
C550 C 0.70521 0.82578 0.28587 0.0
C551 C 0.73522 0.81801 0.26796 0.0
C552 C 0.71059 0.78097 0.33961 0.0
C553 C 0.75261 0.79179 0.28732 0.0
C554 C 0.71634 0.7409 0.40378 0.0
C555 C 0.6494 0.7359 0.40997 0.0
N556 N 0.74004 0.77416 0.32223 0.0
N557 N 0.66394 0.75675 0.37987 0.0
H558 H 0.77238 0.12901 0.92758 0.0
H559 H 0.68224 0.26431 0.78512 0.0
H560 H 0.74557 0.22521 0.97133 0.0
H561 H 0.69589 0.16419 0.74393 0.0
H562 H 0.69724 0.24657 0.85811 0.0
H563 H 0.73496 0.13599 0.86696 0.0
C564 C 0.7574 0.15084 0.92562 0.0
C565 C 0.76226 0.17682 0.95398 0.0
C566 C 0.69672 0.22827 0.83335 0.0
C567 C 0.72051 0.18552 0.88429 0.0
C568 C 0.68841 0.23851 0.79149 0.0
C569 C 0.68855 0.2158 0.75831 0.0
C570 C 0.70583 0.19516 0.8421 0.0
C571 C 0.69598 0.18253 0.76864 0.0
C572 C 0.73641 0.15509 0.89063 0.0
C573 C 0.74265 0.20478 0.94978 0.0
N574 N 0.7049 0.17328 0.80953 0.0
N575 N 0.72319 0.20874 0.915 0.0
H576 H 0.25873 0.29532 0.46201 0.0
H577 H 0.29483 0.17218 0.27408 0.0
H578 H 0.35138 0.29155 0.39748 0.0
H579 H 0.20135 0.21747 0.28175 0.0
H580 H 0.31443 0.2081 0.33057 0.0
H581 H 0.23545 0.25941 0.40657 0.0
C582 C 0.27412 0.28687 0.43637 0.0
C583 C 0.30699 0.29648 0.43419 0.0
C584 C 0.28962 0.21023 0.3199 0.0
C585 C 0.28084 0.25534 0.3717 0.0
C586 C 0.27842 0.18975 0.28773 0.0
C587 C 0.24657 0.19212 0.27297 0.0
C588 C 0.26866 0.23289 0.33827 0.0
C589 C 0.22622 0.21515 0.29196 0.0
C590 C 0.26083 0.26664 0.40475 0.0
C591 C 0.32589 0.28496 0.40027 0.0
N592 N 0.23756 0.23461 0.32395 0.0
N593 N 0.31264 0.26483 0.3707 0.0
H594 H 0.2709 0.84312 0.99527 0.0
H595 H 0.28986 0.66829 0.90284 0.0
H596 H 0.20378 0.76305 0.03033 0.0
H597 H 0.37262 0.73327 0.92088 0.0
H598 H 0.25893 0.70076 0.95356 0.0
H599 H 0.31061 0.80233 0.97437 0.0
C600 C 0.26509 0.8168 1.0001 0.0
C601 C 0.23424 0.80624 1.01451 0.0
C602 C 0.28405 0.70753 0.94706 0.0
C603 C 0.27867 0.75957 0.98861 0.0
C604 C 0.30162 0.68916 0.91788 0.0
C605 C 0.33366 0.69853 0.90726 0.0
C606 C 0.29847 0.73577 0.96496 0.0
C607 C 0.34784 0.72551 0.92798 0.0
C608 C 0.28761 0.79351 0.98789 0.0
C609 C 0.22751 0.77199 1.01957 0.0
N610 N 0.32998 0.7436 0.95524 0.0
N611 N 0.24925 0.74977 1.00544 0.0
loop_
_geom_bond_atom_site_label_1
_geom_bond_atom_site_label_2
_geom_bond_distance
_geom_bond_site_symmetry_2
_ccdc_geom_bond_type
Zn0 O6 1.920 . S
Zn0 O12 1.898 . S
Zn0 O15 1.905 . S
Zn1 O9 1.905 . S
Zn1 O10 1.898 . S
Zn1 O18 1.920 . S
Zn2 O5 2.085 . S
Zn2 O8 2.110 1_554 S
Zn2 O11 2.116 1_554 S
Zn2 O13 2.124 . S
Zn2 O14 2.119 . S
Zn2 O17 2.075 1_554 S
C3 O8 1.166 . S
C3 O9 1.182 . S
C4 O10 1.167 . S
C4 O11 1.299 . S
O5 Zn2 2.085 . S
O5 C19 1.305 . S
O6 Zn0 1.920 . S
O6 C19 1.234 . S
C7 O12 1.167 . S
C7 O13 1.299 . S
O8 Zn2 2.110 1_556 S
O8 C3 1.166 . S
O9 Zn1 1.905 . S
O9 C3 1.182 . S
O10 Zn1 1.898 . S
O10 C4 1.167 . S
O11 Zn2 2.116 1_556 S
O11 C4 1.299 . S
O12 Zn0 1.898 . S
O12 C7 1.167 . S
O13 Zn2 2.124 . S
O13 C7 1.299 . S
O14 Zn2 2.119 . S
O14 C16 1.166 . S
O15 Zn0 1.905 . S
O15 C16 1.182 . S
C16 O14 1.166 . S
C16 O15 1.182 . S
O17 Zn2 2.075 1_556 S
O17 C20 1.305 . S
O18 Zn1 1.920 . S
O18 C20 1.234 . S
C19 O5 1.305 . S
C19 O6 1.234 . S
C20 O17 1.305 . S
C20 O18 1.234 . S
Zn21 O27 1.920 . S
Zn21 O33 1.898 . S
Zn21 O36 1.905 . S
Zn22 O30 1.905 . S
Zn22 O31 1.898 . S
Zn22 O39 1.920 . S
Zn23 O26 2.080 . S
Zn23 O29 2.114 . S
Zn23 O32 2.120 . S
Zn23 O34 2.120 . S
Zn23 O35 2.114 . S
Zn23 O38 2.080 . S
C24 O29 1.166 . S
C24 O30 1.182 . S
C25 O31 1.167 . S
C25 O32 1.299 . S
O26 Zn23 2.080 . S
O26 C40 1.305 . S
O27 Zn21 1.920 . S
O27 C40 1.234 . S
C28 O33 1.167 . S
C28 O34 1.299 . S
O29 Zn23 2.114 . S
O29 C24 1.166 . S
O30 Zn22 1.905 . S
O30 C24 1.182 . S
O31 Zn22 1.898 . S
O31 C25 1.167 . S
O32 Zn23 2.120 . S
O32 C25 1.299 . S
O33 Zn21 1.898 . S
O33 C28 1.167 . S
O34 Zn23 2.120 . S
O34 C28 1.299 . S
O35 Zn23 2.114 . S
O35 C37 1.166 . S
O36 Zn21 1.905 . S
O36 C37 1.182 . S
C37 O35 1.166 . S
C37 O36 1.182 . S
O38 Zn23 2.080 . S
O38 C41 1.305 . S
O39 Zn22 1.920 . S
O39 C41 1.234 . S
C40 O26 1.305 . S
C40 O27 1.234 . S
C41 O38 1.305 . S
C41 O39 1.234 . S
Zn42 O48 1.920 . S
Zn42 O54 1.898 . S
Zn42 O57 1.905 . S
Zn43 O51 1.905 . S
Zn43 O52 1.898 . S
Zn43 O60 1.920 . S
Zn44 O47 2.071 1_554 S
Zn44 O50 2.114 . S
Zn44 O53 2.120 . S
Zn44 O55 2.120 1_554 S
Zn44 O56 2.114 1_554 S
Zn44 O59 2.080 . S
C45 O50 1.166 . S
C45 O51 1.182 . S
C46 O52 1.167 . S
C46 O53 1.299 . S
O47 Zn44 2.071 1_556 S
O47 C61 1.319 . S
O48 Zn42 1.920 . S
O48 C61 1.234 . S
C49 O54 1.167 . S
C49 O55 1.299 . S
O50 Zn44 2.114 . S
O50 C45 1.166 . S
O51 Zn43 1.905 . S
O51 C45 1.182 . S
O52 Zn43 1.898 . S
O52 C46 1.167 . S
O53 Zn44 2.120 . S
O53 C46 1.299 . S
O54 Zn42 1.898 . S
O54 C49 1.167 . S
O55 Zn44 2.120 1_556 S
O55 C49 1.299 . S
O56 Zn44 2.114 1_556 S
O56 C58 1.166 . S
O57 Zn42 1.905 . S
O57 C58 1.182 . S
C58 O56 1.166 . S
C58 O57 1.182 . S
O59 Zn44 2.080 . S
O59 C62 1.305 . S
O60 Zn43 1.920 . S
O60 C62 1.234 . S
C61 O47 1.319 . S
C61 O48 1.234 . S
C62 O59 1.305 . S
C62 O60 1.234 . S
Zn63 O69 1.920 . S
Zn63 O75 1.898 . S
Zn63 O78 1.905 . S
Zn64 O72 1.905 . S
Zn64 O73 1.898 . S
Zn64 O81 1.920 . S
Zn65 O68 2.080 . S
Zn65 O71 2.114 . S
Zn65 O74 2.120 . S
Zn65 O76 2.120 . S
Zn65 O77 2.114 . S
Zn65 O80 2.080 . S
C66 O71 1.166 . S
C66 O72 1.182 . S
C67 O73 1.167 . S
C67 O74 1.299 . S
O68 Zn65 2.080 . S
O68 C82 1.305 . S
O69 Zn63 1.920 . S
O69 C82 1.234 . S
C70 O75 1.167 . S
C70 O76 1.299 . S
O71 Zn65 2.114 . S
O71 C66 1.166 . S
O72 Zn64 1.905 . S
O72 C66 1.182 . S
O73 Zn64 1.898 . S
O73 C67 1.167 . S
O74 Zn65 2.120 . S
O74 C67 1.299 . S
O75 Zn63 1.898 . S
O75 C70 1.167 . S
O76 Zn65 2.120 . S
O76 C70 1.299 . S
O77 Zn65 2.114 . S
O77 C79 1.166 . S
O78 Zn63 1.905 . S
O78 C79 1.182 . S
C79 O77 1.166 . S
C79 O78 1.182 . S
O80 Zn65 2.080 . S
O80 C83 1.305 . S
O81 Zn64 1.920 . S
O81 C83 1.234 . S
C82 O68 1.305 . S
C82 O69 1.234 . S
C83 O80 1.305 . S
C83 O81 1.234 . S
H84 C89 0.930 . S
H85 C92 0.930 . S
H86 C94 0.930 . S
H87 C88 1.016 . S
C88 H87 1.016 . S
C88 N95 1.286 . S
C89 H84 0.930 . S
C89 C90 1.397 . S
C89 C91 1.361 . S
C90 C89 1.397 . S
C90 C94 1.390 . S
C91 C89 1.361 . S
C91 C92 1.393 . S
C91 N95 1.413 . S
C92 H85 0.930 . S
C92 C91 1.393 . S
C92 C93 1.399 . S
C93 C92 1.399 . S
C93 C94 1.381 . S
C94 H86 0.930 . S
C94 C90 1.390 . S
C94 C93 1.381 . S
N95 C88 1.286 . S
N95 C91 1.413 . S
H96 C101 0.930 . S
H97 C104 0.930 . S
H98 C106 0.930 . S
H99 C100 1.016 . S
C100 H99 1.016 . S
C100 N107 1.286 . S
C101 H96 0.930 . S
C101 C102 1.397 . S
C101 C103 1.361 . S
C102 C101 1.397 . S
C102 C106 1.390 . S
C103 C101 1.361 . S
C103 C104 1.393 . S
C103 N107 1.413 . S
C104 H97 0.930 . S
C104 C103 1.393 . S
C104 C105 1.399 . S
C105 C104 1.399 . S
C105 C106 1.381 . S
C106 H98 0.930 . S
C106 C102 1.390 . S
C106 C105 1.381 . S
N107 C100 1.286 . S
N107 C103 1.413 . S
H108 C113 0.930 . S
H109 C116 0.930 . S
H110 C118 0.930 . S
H111 C112 1.016 . S
C112 H111 1.016 . S
C112 N119 1.286 . S
C113 H108 0.930 . S
C113 C114 1.397 . S
C113 C115 1.361 . S
C114 C113 1.397 . S
C114 C118 1.390 . S
C115 C113 1.361 . S
C115 C116 1.393 . S
C115 N119 1.413 . S
C116 H109 0.930 . S
C116 C115 1.393 . S
C116 C117 1.399 . S
C117 C116 1.399 . S
C117 C118 1.381 . S
C118 H110 0.930 . S
C118 C114 1.390 . S
C118 C117 1.381 . S
N119 C112 1.286 . S
N119 C115 1.413 . S
H120 C125 0.930 . S
H121 C128 0.930 . S
H122 C130 0.930 . S
H123 C124 1.016 . S
C124 H123 1.016 . S
C124 N131 1.286 . S
C125 H120 0.930 . S
C125 C126 1.397 . S
C125 C127 1.361 . S
C126 C125 1.397 . S
C126 C130 1.390 . S
C127 C125 1.361 . S
C127 C128 1.393 . S
C127 N131 1.413 . S
C128 H121 0.930 . S
C128 C127 1.393 . S
C128 C129 1.399 . S
C129 C128 1.399 . S
C129 C130 1.381 . S
C130 H122 0.930 . S
C130 C126 1.390 . S
C130 C129 1.381 . S
N131 C124 1.286 . S
N131 C127 1.413 . S
H132 C137 0.930 . S
H133 C140 0.930 . S
H134 C142 0.930 . S
H135 C136 1.016 . S
C136 H135 1.016 . S
C136 N143 1.286 . S
C137 H132 0.930 . S
C137 C138 1.397 . S
C137 C139 1.361 . S
C138 C137 1.397 . S
C138 C142 1.390 . S
C139 C137 1.361 . S
C139 C140 1.393 . S
C139 N143 1.413 . S
C140 H133 0.930 . S
C140 C139 1.393 . S
C140 C141 1.399 . S
C141 C140 1.399 . S
C141 C142 1.381 . S
C142 H134 0.930 . S
C142 C138 1.390 . S
C142 C141 1.381 . S
N143 C136 1.286 . S
N143 C139 1.413 . S
H144 C149 0.930 . S
H145 C152 0.930 . S
H146 C154 0.930 . S
H147 C148 1.016 . S
C148 H147 1.016 . S
C148 N155 1.286 . S
C149 H144 0.930 . S
C149 C150 1.397 . S
C149 C151 1.361 . S
C150 C149 1.397 . S
C150 C154 1.390 . S
C151 C149 1.361 . S
C151 C152 1.393 . S
C151 N155 1.413 . S
C152 H145 0.930 . S
C152 C151 1.393 . S
C152 C153 1.399 . S
C153 C152 1.399 . S
C153 C154 1.381 . S
C154 H146 0.930 . S
C154 C150 1.390 . S
C154 C153 1.381 . S
N155 C148 1.286 . S
N155 C151 1.413 . S
H156 C161 0.930 . S
H157 C164 0.930 . S
H158 C166 0.930 . S
H159 C160 1.016 . S
C160 H159 1.016 . S
C160 N167 1.286 . S
C161 H156 0.930 . S
C161 C162 1.397 . S
C161 C163 1.361 . S
C162 C161 1.397 . S
C162 C166 1.390 . S
C163 C161 1.361 . S
C163 C164 1.393 . S
C163 N167 1.413 . S
C164 H157 0.930 . S
C164 C163 1.393 . S
C164 C165 1.399 . S
C165 C164 1.399 . S
C165 C166 1.381 . S
C166 H158 0.930 . S
C166 C162 1.390 . S
C166 C165 1.381 . S
N167 C160 1.286 . S
N167 C163 1.413 . S
H168 C173 0.930 . S
H169 C176 0.930 . S
H170 C178 0.930 . S
H171 C172 1.016 . S
C172 H171 1.016 . S
C172 N179 1.286 . S
C173 H168 0.930 . S
C173 C174 1.397 . S
C173 C175 1.361 . S
C174 C173 1.397 . S
C174 C178 1.390 . S
C175 C173 1.361 . S
C175 C176 1.393 . S
C175 N179 1.413 . S
C176 H169 0.930 . S
C176 C175 1.393 . S
C176 C177 1.399 . S
C177 C176 1.399 . S
C177 C178 1.381 . S
C178 H170 0.930 . S
C178 C174 1.390 . S
C178 C177 1.381 . S
N179 C172 1.286 . S
N179 C175 1.413 . S
H180 C186 0.930 . S
H181 C190 0.930 . S
H182 C195 0.929 . S
H183 C193 0.929 . S
H184 C188 0.929 . S
H185 C194 0.929 . S
C186 H180 0.930 . S
C186 C187 1.367 . S
C186 C194 1.378 1_565 S
C187 C186 1.367 . S
C187 C195 1.433 . S
C188 H184 0.929 . S
C188 C190 1.378 . S
C188 C192 1.350 . S
C189 C192 1.463 . S
C189 C194 1.350 . S
C189 N197 1.427 1_545 S
C190 H181 0.930 . S
C190 C188 1.378 . S
C190 C191 1.367 . S
C191 C190 1.367 . S
C191 C193 1.433 . S
C192 C188 1.350 . S
C192 C189 1.463 . S
C192 N196 1.427 . S
C193 H183 0.929 . S
C193 C191 1.433 . S
C193 N196 1.384 . S
C194 H185 0.929 . S
C194 C186 1.378 1_545 S
C194 C189 1.350 . S
C195 H182 0.929 . S
C195 C187 1.433 . S
C195 N197 1.384 . S
N196 C192 1.427 . S
N196 C193 1.384 . S
N197 C189 1.427 1_565 S
N197 C195 1.384 . S
H198 C204 0.930 . S
H199 C208 0.930 . S
H200 C213 0.929 . S
H201 C211 0.929 . S
H202 C206 0.929 . S
H203 C212 0.929 . S
C204 H198 0.930 . S
C204 C205 1.367 . S
C204 C212 1.378 . S
C205 C204 1.367 . S
C205 C213 1.433 . S
C206 H202 0.929 . S
C206 C208 1.378 . S
C206 C210 1.350 . S
C207 C210 1.463 . S
C207 C212 1.350 . S
C207 N215 1.427 . S
C208 H199 0.930 . S
C208 C206 1.378 . S
C208 C209 1.367 . S
C209 C208 1.367 . S
C209 C211 1.433 . S
C210 C206 1.350 . S
C210 C207 1.463 . S
C210 N214 1.427 . S
C211 H201 0.929 . S
C211 C209 1.433 . S
C211 N214 1.384 . S
C212 H203 0.929 . S
C212 C204 1.378 . S
C212 C207 1.350 . S
C213 H200 0.929 . S
C213 C205 1.433 . S
C213 N215 1.384 . S
N214 C210 1.427 . S
N214 C211 1.384 . S
N215 C207 1.427 . S
N215 C213 1.384 . S
H216 C222 0.930 . S
H217 C226 0.930 . S
H218 C231 0.929 . S
H219 C229 0.929 . S
H220 C224 0.929 . S
H221 C230 0.929 . S
C222 H216 0.930 . S
C222 C223 1.367 . S
C222 C230 1.378 . S
C223 C222 1.367 . S
C223 C231 1.433 . S
C224 H220 0.929 . S
C224 C226 1.378 . S
C224 C228 1.350 . S
C225 C228 1.463 1_545 S
C225 C230 1.350 . S
C225 N233 1.427 . S
C226 H217 0.930 . S
C226 C224 1.378 . S
C226 C227 1.367 . S
C227 C226 1.367 . S
C227 C229 1.433 . S
C228 C224 1.350 . S
C228 C225 1.463 1_565 S
C228 N232 1.427 . S
C229 H219 0.929 . S
C229 C227 1.433 . S
C229 N232 1.384 . S
C230 H221 0.929 . S
C230 C222 1.378 . S
C230 C225 1.350 . S
C231 H218 0.929 . S
C231 C223 1.433 . S
C231 N233 1.384 . S
N232 C228 1.427 . S
N232 C229 1.384 . S
N233 C225 1.427 . S
N233 C231 1.384 . S
H234 C240 0.930 . S
H235 C244 0.930 . S
H236 C249 0.929 . S
H237 C247 0.929 . S
H238 C242 0.929 . S
H239 C248 0.929 . S
C240 H234 0.930 . S
C240 C241 1.367 . S
C240 C248 1.378 . S
C241 C240 1.367 . S
C241 C249 1.433 . S
C242 H238 0.929 . S
C242 C244 1.378 . S
C242 C246 1.350 . S
C243 C246 1.463 . S
C243 C248 1.350 . S
C243 N251 1.427 . S
C244 H235 0.930 . S
C244 C242 1.378 . S
C244 C245 1.367 . S
C245 C244 1.367 . S
C245 C247 1.433 . S
C246 C242 1.350 . S
C246 C243 1.463 . S
C246 N250 1.427 . S
C247 H237 0.929 . S
C247 C245 1.433 . S
C247 N250 1.384 . S
C248 H239 0.929 . S
C248 C240 1.378 . S
C248 C243 1.350 . S
C249 H236 0.929 . S
C249 C241 1.433 . S
C249 N251 1.384 . S
N250 C246 1.427 . S
N250 C247 1.384 . S
N251 C243 1.427 . S
N251 C249 1.384 . S
H252 C258 0.930 . S
H253 C262 0.930 . S
H254 C267 0.929 . S
H255 C265 0.929 . S
H256 C260 0.929 . S
H257 C266 0.929 . S
C258 H252 0.930 . S
C258 C259 1.367 . S
C258 C266 1.378 . S
C259 C258 1.367 . S
C259 C267 1.433 . S
C260 H256 0.929 . S
C260 C262 1.378 . S
C260 C264 1.350 . S
C261 C264 1.463 . S
C261 C266 1.350 . S
C261 N269 1.427 . S
C262 H253 0.930 . S
C262 C260 1.378 . S
C262 C263 1.367 . S
C263 C262 1.367 . S
C263 C265 1.433 . S
C264 C260 1.350 . S
C264 C261 1.463 . S
C264 N268 1.427 . S
C265 H255 0.929 . S
C265 C263 1.433 . S
C265 N268 1.384 . S
C266 H257 0.929 . S
C266 C258 1.378 . S
C266 C261 1.350 . S
C267 H254 0.929 . S
C267 C259 1.433 . S
C267 N269 1.384 . S
N268 C264 1.427 . S
N268 C265 1.384 . S
N269 C261 1.427 . S
N269 C267 1.384 . S
H270 C276 0.930 . S
H271 C280 0.930 . S
H272 C285 0.929 . S
H273 C283 0.929 . S
H274 C278 0.929 . S
H275 C284 0.929 . S
C276 H270 0.930 . S
C276 C277 1.367 . S
C276 C284 1.378 . S
C277 C276 1.367 . S
C277 C285 1.433 . S
C278 H274 0.929 . S
C278 C280 1.378 . S
C278 C282 1.350 1_455 S
C279 C282 1.463 . S
C279 C284 1.350 . S
C279 N287 1.427 . S
C280 H271 0.930 . S
C280 C278 1.378 . S
C280 C281 1.367 . S
C281 C280 1.367 . S
C281 C283 1.433 . S
C282 C278 1.350 1_655 S
C282 C279 1.463 . S
C282 N286 1.427 . S
C283 H273 0.929 . S
C283 C281 1.433 . S
C283 N286 1.384 1_455 S
C284 H275 0.929 . S
C284 C276 1.378 . S
C284 C279 1.350 . S
C285 H272 0.929 . S
C285 C277 1.433 . S
C285 N287 1.384 . S
N286 C282 1.427 . S
N286 C283 1.384 1_655 S
N287 C279 1.427 . S
N287 C285 1.384 . S
H288 C294 0.930 . S
H289 C298 0.930 . S
H290 C303 0.929 . S
H291 C301 0.929 . S
H292 C296 0.929 . S
H293 C302 0.929 . S
C294 H288 0.930 . S
C294 C295 1.367 . S
C294 C302 1.378 . S
C295 C294 1.367 . S
C295 C303 1.433 . S
C296 H292 0.929 . S
C296 C298 1.378 . S
C296 C300 1.350 . S
C297 C300 1.463 . S
C297 C302 1.350 . S
C297 N305 1.427 . S
C298 H289 0.930 . S
C298 C296 1.378 . S
C298 C299 1.367 . S
C299 C298 1.367 . S
C299 C301 1.433 . S
C300 C296 1.350 . S
C300 C297 1.463 . S
C300 N304 1.427 . S
C301 H291 0.929 . S
C301 C299 1.433 . S
C301 N304 1.384 . S
C302 H293 0.929 . S
C302 C294 1.378 . S
C302 C297 1.350 . S
C303 H290 0.929 . S
C303 C295 1.433 . S
C303 N305 1.384 . S
N304 C300 1.427 . S
N304 C301 1.384 . S
N305 C297 1.427 . S
N305 C303 1.384 . S
H306 C312 0.930 . S
H307 C316 0.930 . S
H308 C321 0.929 . S
H309 C319 0.929 . S
H310 C314 0.929 . S
H311 C320 0.929 1_655 S
C312 H306 0.930 . S
C312 C313 1.367 . S
C312 C320 1.378 . S
C313 C312 1.367 . S
C313 C321 1.433 . S
C314 H310 0.929 . S
C314 C316 1.378 . S
C314 C318 1.350 . S
C315 C318 1.463 1_455 S
C315 C320 1.350 . S
C315 N323 1.427 . S
C316 H307 0.930 . S
C316 C314 1.378 . S
C316 C317 1.367 . S
C317 C316 1.367 . S
C317 C319 1.433 . S
C318 C314 1.350 . S
C318 C315 1.463 1_655 S
C318 N322 1.427 . S
C319 H309 0.929 . S
C319 C317 1.433 . S
C319 N322 1.384 . S
C320 H311 0.929 1_455 S
C320 C312 1.378 . S
C320 C315 1.350 . S
C321 H308 0.929 . S
C321 C313 1.433 . S
C321 N323 1.384 . S
N322 C318 1.427 . S
N322 C319 1.384 . S
N323 C315 1.427 . S
N323 C321 1.384 . S
H324 C330 0.930 . S
H325 C334 0.930 . S
H326 C339 0.929 1_554 S
H327 C337 0.929 . S
H328 C332 0.929 . S
H329 C338 0.929 . S
C330 H324 0.930 . S
C330 C331 1.367 . S
C330 C338 1.378 1_545 S
C331 C330 1.367 . S
C331 C339 1.433 . S
C332 H328 0.929 . S
C332 C334 1.378 . S
C332 C336 1.350 . S
C333 C336 1.463 . S
C333 C338 1.350 . S
C333 N341 1.427 . S
C334 H325 0.930 . S
C334 C332 1.378 . S
C334 C335 1.367 . S
C335 C334 1.367 . S
C335 C337 1.433 . S
C336 C332 1.350 . S
C336 C333 1.463 . S
C336 N340 1.427 . S
C337 H327 0.929 . S
C337 C335 1.433 . S
C337 N340 1.384 . S
C338 H329 0.929 . S
C338 C330 1.378 1_565 S
C338 C333 1.350 . S
C339 H326 0.929 1_556 S
C339 C331 1.433 . S
C339 N341 1.384 1_545 S
N340 C336 1.427 . S
N340 C337 1.384 . S
N341 C333 1.427 . S
N341 C339 1.384 1_565 S
H342 C348 0.930 . S
H343 C352 0.930 . S
H344 C357 0.929 . S
H345 C355 0.929 . S
H346 C350 0.929 . S
H347 C356 0.929 . S
C348 H342 0.930 . S
C348 C349 1.367 . S
C348 C356 1.378 . S
C349 C348 1.367 . S
C349 C357 1.433 . S
C350 H346 0.929 . S
C350 C352 1.378 . S
C350 C354 1.350 . S
C351 C354 1.463 . S
C351 C356 1.350 . S
C351 N359 1.427 . S
C352 H343 0.930 . S
C352 C350 1.378 . S
C352 C353 1.367 . S
C353 C352 1.367 . S
C353 C355 1.433 . S
C354 C350 1.350 . S
C354 C351 1.463 . S
C354 N358 1.427 . S
C355 H345 0.929 . S
C355 C353 1.433 . S
C355 N358 1.384 . S
C356 H347 0.929 . S
C356 C348 1.378 . S
C356 C351 1.350 . S
C357 H344 0.929 . S
C357 C349 1.433 . S
C357 N359 1.384 . S
N358 C354 1.427 . S
N358 C355 1.384 . S
N359 C351 1.427 . S
N359 C357 1.384 . S
H360 C366 0.930 . S
H361 C370 0.930 . S
H362 C375 0.929 . S
H363 C373 0.929 . S
H364 C368 0.929 . S
H365 C374 0.929 . S
C366 H360 0.930 . S
C366 C367 1.367 . S
C366 C374 1.378 1_565 S
C367 C366 1.367 . S
C367 C375 1.433 . S
C368 H364 0.929 . S
C368 C370 1.378 . S
C368 C372 1.350 . S
C369 C372 1.463 . S
C369 C374 1.350 . S
C369 N377 1.427 . S
C370 H361 0.930 . S
C370 C368 1.378 . S
C370 C371 1.367 . S
C371 C370 1.367 . S
C371 C373 1.433 . S
C372 C368 1.350 . S
C372 C369 1.463 . S
C372 N376 1.427 . S
C373 H363 0.929 . S
C373 C371 1.433 . S
C373 N376 1.384 . S
C374 H365 0.929 . S
C374 C366 1.378 1_545 S
C374 C369 1.350 . S
C375 H362 0.929 . S
C375 C367 1.433 . S
C375 N377 1.384 1_565 S
N376 C372 1.427 . S
N376 C373 1.384 . S
N377 C369 1.427 . S
N377 C375 1.384 1_545 S
H378 C384 0.930 . S
H379 C388 0.930 . S
H380 C393 0.929 . S
H381 C391 0.929 . S
H382 C386 0.929 . S
H383 C392 0.929 . S
C384 H378 0.930 . S
C384 C385 1.367 . S
C384 C392 1.378 . S
C385 C384 1.367 . S
C385 C393 1.433 . S
C386 H382 0.929 . S
C386 C388 1.378 . S
C386 C390 1.350 . S
C387 C390 1.463 . S
C387 C392 1.350 . S
C387 N395 1.427 . S
C388 H379 0.930 . S
C388 C386 1.378 . S
C388 C389 1.367 . S
C389 C388 1.367 . S
C389 C391 1.433 . S
C390 C386 1.350 . S
C390 C387 1.463 . S
C390 N394 1.427 . S
C391 H381 0.929 . S
C391 C389 1.433 . S
C391 N394 1.384 . S
C392 H383 0.929 . S
C392 C384 1.378 . S
C392 C387 1.350 . S
C393 H380 0.929 . S
C393 C385 1.433 . S
C393 N395 1.384 . S
N394 C390 1.427 . S
N394 C391 1.384 . S
N395 C387 1.427 . S
N395 C393 1.384 . S
H396 C402 0.930 . S
H397 C406 0.930 . S
H398 C411 0.929 . S
H399 C409 0.929 . S
H400 C404 0.929 . S
H401 C410 0.929 . S
C402 H396 0.930 . S
C402 C403 1.367 . S
C402 C410 1.378 . S
C403 C402 1.367 . S
C403 C411 1.433 . S
C404 H400 0.929 . S
C404 C406 1.378 . S
C404 C408 1.350 . S
C405 C408 1.463 . S
C405 C410 1.350 . S
C405 N413 1.427 . S
C406 H397 0.930 . S
C406 C404 1.378 . S
C406 C407 1.367 . S
C407 C406 1.367 . S
C407 C409 1.433 . S
C408 C404 1.350 . S
C408 C405 1.463 . S
C408 N412 1.427 . S
C409 H399 0.929 . S
C409 C407 1.433 . S
C409 N412 1.384 . S
C410 H401 0.929 . S
C410 C402 1.378 . S
C410 C405 1.350 . S
C411 H398 0.929 . S
C411 C403 1.433 . S
C411 N413 1.384 . S
N412 C408 1.427 . S
N412 C409 1.384 . S
N413 C405 1.427 . S
N413 C411 1.384 . S
H414 C420 0.930 . S
H415 C424 0.930 . S
H416 C429 0.929 . S
H417 C427 0.929 . S
H418 C422 0.929 . S
H419 C428 0.929 1_655 S
C420 H414 0.930 . S
C420 C421 1.367 . S
C420 C428 1.378 . S
C421 C420 1.367 . S
C421 C429 1.433 . S
C422 H418 0.929 . S
C422 C424 1.378 . S
C422 C426 1.350 . S
C423 C426 1.463 . S
C423 C428 1.350 1_655 S
C423 N431 1.427 1_655 S
C424 H415 0.930 . S
C424 C422 1.378 . S
C424 C425 1.367 . S
C425 C424 1.367 . S
C425 C427 1.433 . S
C426 C422 1.350 . S
C426 C423 1.463 . S
C426 N430 1.427 . S
C427 H417 0.929 . S
C427 C425 1.433 . S
C427 N430 1.384 . S
C428 H419 0.929 1_455 S
C428 C420 1.378 . S
C428 C423 1.350 1_455 S
C429 H416 0.929 . S
C429 C421 1.433 . S
C429 N431 1.384 . S
N430 C426 1.427 . S
N430 C427 1.384 . S
N431 C423 1.427 1_455 S
N431 C429 1.384 . S
H432 C438 0.930 . S
H433 C442 0.930 . S
H434 C447 0.929 . S
H435 C445 0.929 . S
H436 C440 0.929 . S
H437 C446 0.929 . S
C438 H432 0.930 . S
C438 C439 1.367 . S
C438 C446 1.378 . S
C439 C438 1.367 . S
C439 C447 1.433 . S
C440 H436 0.929 . S
C440 C442 1.378 . S
C440 C444 1.350 . S
C441 C444 1.463 . S
C441 C446 1.350 . S
C441 N449 1.427 . S
C442 H433 0.930 . S
C442 C440 1.378 . S
C442 C443 1.367 . S
C443 C442 1.367 . S
C443 C445 1.433 . S
C444 C440 1.350 . S
C444 C441 1.463 . S
C444 N448 1.427 . S
C445 H435 0.929 . S
C445 C443 1.433 . S
C445 N448 1.384 . S
C446 H437 0.929 . S
C446 C438 1.378 . S
C446 C441 1.350 . S
C447 H434 0.929 . S
C447 C439 1.433 . S
C447 N449 1.384 . S
N448 C444 1.427 . S
N448 C445 1.384 . S
N449 C441 1.427 . S
N449 C447 1.384 . S
H450 C456 0.930 . S
H451 C460 0.930 . S
H452 C465 0.929 . S
H453 C463 0.929 . S
H454 C458 0.929 . S
H455 C464 0.929 . S
C456 H450 0.930 . S
C456 C457 1.367 . S
C456 C464 1.378 1_655 S
C457 C456 1.367 . S
C457 C465 1.433 . S
C458 H454 0.929 . S
C458 C460 1.378 . S
C458 C462 1.350 . S
C459 C462 1.463 . S
C459 C464 1.350 . S
C459 N467 1.427 . S
C460 H451 0.930 . S
C460 C458 1.378 . S
C460 C461 1.367 . S
C461 C460 1.367 . S
C461 C463 1.433 . S
C462 C458 1.350 . S
C462 C459 1.463 . S
C462 N466 1.427 . S
C463 H453 0.929 . S
C463 C461 1.433 . S
C463 N466 1.384 . S
C464 H455 0.929 . S
C464 C456 1.378 1_455 S
C464 C459 1.350 . S
C465 H452 0.929 . S
C465 C457 1.433 . S
C465 N467 1.384 1_655 S
N466 C462 1.427 . S
N466 C463 1.384 . S
N467 C459 1.427 . S
N467 C465 1.384 1_455 S
H468 C474 0.930 . S
H469 C478 0.930 . S
H470 C483 0.929 . S
H471 C481 0.929 . S
H472 C476 0.929 . S
H473 C482 0.929 . S
C474 H468 0.930 . S
C474 C475 1.367 . S
C474 C482 1.378 . S
C475 C474 1.367 . S
C475 C483 1.433 . S
C476 H472 0.929 . S
C476 C478 1.378 . S
C476 C480 1.350 . S
C477 C480 1.463 . S
C477 C482 1.350 . S
C477 N485 1.427 . S
C478 H469 0.930 . S
C478 C476 1.378 . S
C478 C479 1.367 . S
C479 C478 1.367 . S
C479 C481 1.433 . S
C480 C476 1.350 . S
C480 C477 1.463 . S
C480 N484 1.427 . S
C481 H471 0.929 . S
C481 C479 1.433 . S
C481 N484 1.384 . S
C482 H473 0.929 . S
C482 C474 1.378 . S
C482 C477 1.350 . S
C483 H470 0.929 . S
C483 C475 1.433 . S
C483 N485 1.384 . S
N484 C480 1.427 . S
N484 C481 1.384 . S
N485 C477 1.427 . S
N485 C483 1.384 . S
H486 C492 0.930 . S
H487 C496 0.930 . S
H488 C501 0.929 . S
H489 C499 0.929 . S
H490 C494 0.929 . S
H491 C500 0.929 . S
C492 H486 0.930 . S
C492 C493 1.367 . S
C492 C500 1.378 . S
C493 C492 1.367 . S
C493 C501 1.433 . S
C494 H490 0.929 . S
C494 C496 1.378 . S
C494 C498 1.350 . S
C495 C498 1.463 . S
C495 C500 1.350 . S
C495 N503 1.427 . S
C496 H487 0.930 . S
C496 C494 1.378 . S
C496 C497 1.367 . S
C497 C496 1.367 . S
C497 C499 1.433 . S
C498 C494 1.350 . S
C498 C495 1.463 . S
C498 N502 1.427 . S
C499 H489 0.929 . S
C499 C497 1.433 . S
C499 N502 1.384 . S
C500 H491 0.929 . S
C500 C492 1.378 . S
C500 C495 1.350 . S
C501 H488 0.929 . S
C501 C493 1.433 . S
C501 N503 1.384 . S
N502 C498 1.427 . S
N502 C499 1.384 . S
N503 C495 1.427 . S
N503 C501 1.384 . S
H504 C510 0.930 . S
H505 C514 0.930 . S
H506 C519 0.929 . S
H507 C517 0.929 . S
H508 C512 0.929 . S
H509 C518 0.929 . S
C510 H504 0.930 . S
C510 C511 1.367 . S
C510 C518 1.378 . S
C511 C510 1.367 . S
C511 C519 1.433 . S
C512 H508 0.929 . S
C512 C514 1.378 . S
C512 C516 1.350 . S
C513 C516 1.463 . S
C513 C518 1.350 . S
C513 N521 1.427 . S
C514 H505 0.930 . S
C514 C512 1.378 . S
C514 C515 1.367 . S
C515 C514 1.367 . S
C515 C517 1.433 . S
C516 C512 1.350 . S
C516 C513 1.463 . S
C516 N520 1.427 . S
C517 H507 0.929 . S
C517 C515 1.433 . S
C517 N520 1.384 . S
C518 H509 0.929 . S
C518 C510 1.378 . S
C518 C513 1.350 . S
C519 H506 0.929 . S
C519 C511 1.433 . S
C519 N521 1.384 . S
N520 C516 1.427 . S
N520 C517 1.384 . S
N521 C513 1.427 . S
N521 C519 1.384 . S
H522 C528 0.930 . S
H523 C532 0.930 . S
H524 C537 0.929 . S
H525 C535 0.929 . S
H526 C530 0.929 . S
H527 C536 0.929 . S
C528 H522 0.930 . S
C528 C529 1.367 . S
C528 C536 1.378 . S
C529 C528 1.367 . S
C529 C537 1.433 . S
C530 H526 0.929 . S
C530 C532 1.378 . S
C530 C534 1.350 . S
C531 C534 1.463 . S
C531 C536 1.350 . S
C531 N539 1.427 . S
C532 H523 0.930 . S
C532 C530 1.378 . S
C532 C533 1.367 . S
C533 C532 1.367 . S
C533 C535 1.433 . S
C534 C530 1.350 . S
C534 C531 1.463 . S
C534 N538 1.427 . S
C535 H525 0.929 . S
C535 C533 1.433 . S
C535 N538 1.384 . S
C536 H527 0.929 . S
C536 C528 1.378 . S
C536 C531 1.350 . S
C537 H524 0.929 . S
C537 C529 1.433 . S
C537 N539 1.384 . S
N538 C534 1.427 . S
N538 C535 1.384 . S
N539 C531 1.427 . S
N539 C537 1.384 . S
H540 C546 0.930 . S
H541 C550 0.930 . S
H542 C555 0.929 . S
H543 C553 0.929 . S
H544 C548 0.929 . S
H545 C554 0.929 . S
C546 H540 0.930 . S
C546 C547 1.367 . S
C546 C554 1.378 . S
C547 C546 1.367 . S
C547 C555 1.433 . S
C548 H544 0.929 . S
C548 C550 1.378 . S
C548 C552 1.350 . S
C549 C552 1.463 . S
C549 C554 1.350 . S
C549 N557 1.427 . S
C550 H541 0.930 . S
C550 C548 1.378 . S
C550 C551 1.367 . S
C551 C550 1.367 . S
C551 C553 1.433 . S
C552 C548 1.350 . S
C552 C549 1.463 . S
C552 N556 1.427 . S
C553 H543 0.929 . S
C553 C551 1.433 . S
C553 N556 1.384 . S
C554 H545 0.929 . S
C554 C546 1.378 . S
C554 C549 1.350 . S
C555 H542 0.929 . S
C555 C547 1.433 . S
C555 N557 1.384 . S
N556 C552 1.427 . S
N556 C553 1.384 . S
N557 C549 1.427 . S
N557 C555 1.384 . S
H558 C564 0.930 . S
H559 C568 0.930 . S
H560 C573 0.929 . S
H561 C571 0.929 . S
H562 C566 0.929 . S
H563 C572 0.929 . S
C564 H558 0.930 . S
C564 C565 1.367 . S
C564 C572 1.378 . S
C565 C564 1.367 . S
C565 C573 1.433 . S
C566 H562 0.929 . S
C566 C568 1.378 . S
C566 C570 1.350 . S
C567 C570 1.463 . S
C567 C572 1.350 . S
C567 N575 1.427 . S
C568 H559 0.930 . S
C568 C566 1.378 . S
C568 C569 1.367 . S
C569 C568 1.367 . S
C569 C571 1.433 . S
C570 C566 1.350 . S
C570 C567 1.463 . S
C570 N574 1.427 . S
C571 H561 0.929 . S
C571 C569 1.433 . S
C571 N574 1.384 . S
C572 H563 0.929 . S
C572 C564 1.378 . S
C572 C567 1.350 . S
C573 H560 0.929 . S
C573 C565 1.433 . S
C573 N575 1.384 . S
N574 C570 1.427 . S
N574 C571 1.384 . S
N575 C567 1.427 . S
N575 C573 1.384 . S
H576 C582 0.930 . S
H577 C586 0.930 . S
H578 C591 0.929 . S
H579 C589 0.929 . S
H580 C584 0.929 . S
H581 C590 0.929 . S
C582 H576 0.930 . S
C582 C583 1.367 . S
C582 C590 1.378 . S
C583 C582 1.367 . S
C583 C591 1.433 . S
C584 H580 0.929 . S
C584 C586 1.378 . S
C584 C588 1.350 . S
C585 C588 1.463 . S
C585 C590 1.350 . S
C585 N593 1.427 . S
C586 H577 0.930 . S
C586 C584 1.378 . S
C586 C587 1.367 . S
C587 C586 1.367 . S
C587 C589 1.433 . S
C588 C584 1.350 . S
C588 C585 1.463 . S
C588 N592 1.427 . S
C589 H579 0.929 . S
C589 C587 1.433 . S
C589 N592 1.384 . S
C590 H581 0.929 . S
C590 C582 1.378 . S
C590 C585 1.350 . S
C591 H578 0.929 . S
C591 C583 1.433 . S
C591 N593 1.384 . S
N592 C588 1.427 . S
N592 C589 1.384 . S
N593 C585 1.427 . S
N593 C591 1.384 . S
H594 C600 0.930 . S
H595 C604 0.930 . S
H596 C609 0.929 . S
H597 C607 0.929 . S
H598 C602 0.929 . S
H599 C608 0.929 . S
C600 H594 0.930 . S
C600 C601 1.367 . S
C600 C608 1.378 . S
C601 C600 1.367 . S
C601 C609 1.433 . S
C602 H598 0.929 . S
C602 C604 1.378 . S
C602 C606 1.350 . S
C603 C606 1.463 . S
C603 C608 1.350 . S
C603 N611 1.427 . S
C604 H595 0.930 . S
C604 C602 1.378 . S
C604 C605 1.367 . S
C605 C604 1.367 . S
C605 C607 1.433 . S
C606 C602 1.350 . S
C606 C603 1.463 . S
C606 N610 1.427 . S
C607 H597 0.929 . S
C607 C605 1.433 . S
C607 N610 1.384 . S
C608 H599 0.929 . S
C608 C600 1.378 . S
C608 C603 1.350 . S
C609 H596 0.929 . S
C609 C601 1.433 . S
C609 N611 1.384 . S
N610 C606 1.427 . S
N610 C607 1.384 . S
N611 C603 1.427 . S
N611 C609 1.384 . S
C187 C7 0.841 . S
C191 C93 0.844 . S
C205 C25 0.841 . S
C209 C105 0.870 . S
C223 C46 0.725 . S
C227 C117 0.737 . S
C245 C126 0.830 . S
C241 C70 0.835 . S
C263 C141 0.817 . S
C259 C28 0.820 . S
C277 C49 0.799 . S
C281 C150 0.842 . S
C295 C67 0.743 . S
C299 C165 0.762 . S
C313 C4 0.872 . S
C317 C177 0.874 . S
C331 C58 1.570 . S
C335 C174 1.656 . S
C353 C138 1.678 . S
C349 C66 1.586 . S
C371 C153 1.745 . S
C367 C3 1.655 . S
C385 C37 1.554 . S
C389 C162 1.637 . S
C407 C102 1.656 . S
C403 C79 1.570 . S
C421 C16 1.556 . S
C425 C114 1.638 . S
C443 C129 1.744 . S
C439 C24 1.653 . S
C461 C90 1.684 . S
C457 C45 1.593 . S
C479 C160 1.339 . S
C475 C19 1.221 . S
C497 C172 1.398 . S
C493 C41 1.263 . S
C511 C62 1.267 . S
C515 C136 1.413 . S
C533 C148 1.388 . S
C529 C82 1.278 . S
C551 C112 1.340 . S
C547 C40 1.228 . S
C565 C61 1.273 . S
C569 C124 1.390 . S
C587 C88 1.409 . S
C583 C83 1.241 . S
C605 C100 1.398 . S
C601 C20 1.265 . S
