# Generated by pormake.
# Topology eea, (3,6)-cn, num edge types: 1
# Building blocks:
#     Node 0, Type 0, BuildingBlock: MIDCAF_clean_linker_0, # of connection points: 3
#     Node 1, Type 0, BuildingBlock: MIDCAF_clean_linker_0, # of connection points: 3
#     Node 2, Type 0, BuildingBlock: MIDCAF_clean_linker_0, # of connection points: 3
#     Node 3, Type 0, BuildingBlock: MIDCAF_clean_linker_0, # of connection points: 3
#     Node 4, Type 0, BuildingBlock: MIDCAF_clean_linker_0, # of connection points: 3
#     Node 5, Type 0, BuildingBlock: MIDCAF_clean_linker_0, # of connection points: 3
#     Node 6, Type 0, BuildingBlock: MIDCAF_clean_linker_0, # of connection points: 3
#     Node 7, Type 0, BuildingBlock: MIDCAF_clean_linker_0, # of connection points: 3
#     Node 8, Type 0, BuildingBlock: MIDCAF_clean_linker_0, # of connection points: 3
#     Node 9, Type 0, BuildingBlock: MIDCAF_clean_linker_0, # of connection points: 3
#     Node 10, Type 0, BuildingBlock: MIDCAF_clean_linker_0, # of connection points: 3
#     Node 11, Type 0, BuildingBlock: MIDCAF_clean_linker_0, # of connection points: 3
#     Node 12, Type 0, BuildingBlock: MIDCAF_clean_linker_0, # of connection points: 3
#     Node 13, Type 0, BuildingBlock: MIDCAF_clean_linker_0, # of connection points: 3
#     Node 14, Type 0, BuildingBlock: MIDCAF_clean_linker_0, # of connection points: 3
#     Node 15, Type 0, BuildingBlock: MIDCAF_clean_linker_0, # of connection points: 3
#     Node 16, Type 0, BuildingBlock: MIDCAF_clean_linker_0, # of connection points: 3
#     Node 17, Type 0, BuildingBlock: MIDCAF_clean_linker_0, # of connection points: 3
#     Node 18, Type 1, BuildingBlock: HISSIN_clean_sbu_0, # of connection points: 6
#     Node 19, Type 1, BuildingBlock: HISSIN_clean_sbu_0, # of connection points: 6
#     Node 20, Type 1, BuildingBlock: HISSIN_clean_sbu_0, # of connection points: 6
#     Node 21, Type 1, BuildingBlock: HISSIN_clean_sbu_0, # of connection points: 6
#     Node 22, Type 1, BuildingBlock: HISSIN_clean_sbu_0, # of connection points: 6
#     Node 23, Type 1, BuildingBlock: HISSIN_clean_sbu_0, # of connection points: 6
#     Node 24, Type 1, BuildingBlock: HISSIN_clean_sbu_0, # of connection points: 6
#     Node 25, Type 1, BuildingBlock: HISSIN_clean_sbu_0, # of connection points: 6
#     Node 26, Type 1, BuildingBlock: HISSIN_clean_sbu_0, # of connection points: 6
#     Edge 27, Type (0, 1), BuildingBlock: XUDNAN_clean_linker_2, # of connection points: 2
#     Edge 28, Type (0, 1), BuildingBlock: XUDNAN_clean_linker_2, # of connection points: 2
#     Edge 29, Type (0, 1), BuildingBlock: XUDNAN_clean_linker_2, # of connection points: 2
#     Edge 30, Type (0, 1), BuildingBlock: XUDNAN_clean_linker_2, # of connection points: 2
#     Edge 31, Type (0, 1), BuildingBlock: XUDNAN_clean_linker_2, # of connection points: 2
#     Edge 32, Type (0, 1), BuildingBlock: XUDNAN_clean_linker_2, # of connection points: 2
#     Edge 33, Type (0, 1), BuildingBlock: XUDNAN_clean_linker_2, # of connection points: 2
#     Edge 34, Type (0, 1), BuildingBlock: XUDNAN_clean_linker_2, # of connection points: 2
#     Edge 35, Type (0, 1), BuildingBlock: XUDNAN_clean_linker_2, # of connection points: 2
#     Edge 36, Type (0, 1), BuildingBlock: XUDNAN_clean_linker_2, # of connection points: 2
#     Edge 37, Type (0, 1), BuildingBlock: XUDNAN_clean_linker_2, # of connection points: 2
#     Edge 38, Type (0, 1), BuildingBlock: XUDNAN_clean_linker_2, # of connection points: 2
#     Edge 39, Type (0, 1), BuildingBlock: XUDNAN_clean_linker_2, # of connection points: 2
#     Edge 40, Type (0, 1), BuildingBlock: XUDNAN_clean_linker_2, # of connection points: 2
#     Edge 41, Type (0, 1), BuildingBlock: XUDNAN_clean_linker_2, # of connection points: 2
#     Edge 42, Type (0, 1), BuildingBlock: XUDNAN_clean_linker_2, # of connection points: 2
#     Edge 43, Type (0, 1), BuildingBlock: XUDNAN_clean_linker_2, # of connection points: 2
#     Edge 44, Type (0, 1), BuildingBlock: XUDNAN_clean_linker_2, # of connection points: 2
#     Edge 45, Type (0, 1), BuildingBlock: XUDNAN_clean_linker_2, # of connection points: 2
#     Edge 46, Type (0, 1), BuildingBlock: XUDNAN_clean_linker_2, # of connection points: 2
#     Edge 47, Type (0, 1), BuildingBlock: XUDNAN_clean_linker_2, # of connection points: 2
#     Edge 48, Type (0, 1), BuildingBlock: XUDNAN_clean_linker_2, # of connection points: 2
#     Edge 49, Type (0, 1), BuildingBlock: XUDNAN_clean_linker_2, # of connection points: 2
#     Edge 50, Type (0, 1), BuildingBlock: XUDNAN_clean_linker_2, # of connection points: 2
#     Edge 51, Type (0, 1), BuildingBlock: XUDNAN_clean_linker_2, # of connection points: 2
#     Edge 52, Type (0, 1), BuildingBlock: XUDNAN_clean_linker_2, # of connection points: 2
#     Edge 53, Type (0, 1), BuildingBlock: XUDNAN_clean_linker_2, # of connection points: 2
#     Edge 54, Type (0, 1), BuildingBlock: XUDNAN_clean_linker_2, # of connection points: 2
#     Edge 55, Type (0, 1), BuildingBlock: XUDNAN_clean_linker_2, # of connection points: 2
#     Edge 56, Type (0, 1), BuildingBlock: XUDNAN_clean_linker_2, # of connection points: 2
#     Edge 57, Type (0, 1), BuildingBlock: XUDNAN_clean_linker_2, # of connection points: 2
#     Edge 58, Type (0, 1), BuildingBlock: XUDNAN_clean_linker_2, # of connection points: 2
#     Edge 59, Type (0, 1), BuildingBlock: XUDNAN_clean_linker_2, # of connection points: 2
#     Edge 60, Type (0, 1), BuildingBlock: XUDNAN_clean_linker_2, # of connection points: 2
#     Edge 61, Type (0, 1), BuildingBlock: XUDNAN_clean_linker_2, # of connection points: 2
#     Edge 62, Type (0, 1), BuildingBlock: XUDNAN_clean_linker_2, # of connection points: 2
#     Edge 63, Type (0, 1), BuildingBlock: XUDNAN_clean_linker_2, # of connection points: 2
#     Edge 64, Type (0, 1), BuildingBlock: XUDNAN_clean_linker_2, # of connection points: 2
#     Edge 65, Type (0, 1), BuildingBlock: XUDNAN_clean_linker_2, # of connection points: 2
#     Edge 66, Type (0, 1), BuildingBlock: XUDNAN_clean_linker_2, # of connection points: 2
#     Edge 67, Type (0, 1), BuildingBlock: XUDNAN_clean_linker_2, # of connection points: 2
#     Edge 68, Type (0, 1), BuildingBlock: XUDNAN_clean_linker_2, # of connection points: 2
#     Edge 69, Type (0, 1), BuildingBlock: XUDNAN_clean_linker_2, # of connection points: 2
#     Edge 70, Type (0, 1), BuildingBlock: XUDNAN_clean_linker_2, # of connection points: 2
#     Edge 71, Type (0, 1), BuildingBlock: XUDNAN_clean_linker_2, # of connection points: 2
#     Edge 72, Type (0, 1), BuildingBlock: XUDNAN_clean_linker_2, # of connection points: 2
#     Edge 73, Type (0, 1), BuildingBlock: XUDNAN_clean_linker_2, # of connection points: 2
#     Edge 74, Type (0, 1), BuildingBlock: XUDNAN_clean_linker_2, # of connection points: 2
#     Edge 75, Type (0, 1), BuildingBlock: XUDNAN_clean_linker_2, # of connection points: 2
#     Edge 76, Type (0, 1), BuildingBlock: XUDNAN_clean_linker_2, # of connection points: 2
#     Edge 77, Type (0, 1), BuildingBlock: XUDNAN_clean_linker_2, # of connection points: 2
#     Edge 78, Type (0, 1), BuildingBlock: XUDNAN_clean_linker_2, # of connection points: 2
#     Edge 79, Type (0, 1), BuildingBlock: XUDNAN_clean_linker_2, # of connection points: 2
#     Edge 80, Type (0, 1), BuildingBlock: XUDNAN_clean_linker_2, # of connection points: 2
# Relax obj value: 0.035
# Max RMSD: 0.133
# Mean RMSD: 0.075
data_MOF--net-eea--node1-HISSIN_clean_sbu_0--node2-MIDCAF_clean_linker_0--edge1-XUDNAN_clean_linker_2
_symmetry_space_group_name_H-M    P1
_symmetry_Int_Tables_number       1
_symmetry_cell_setting            triclinic
loop_
_symmetry_equiv_pos_as_xyz
'x, y, z'
_cell_length_a     62.208193
_cell_length_b     62.295184
_cell_length_c     90.359518
_cell_angle_alpha  93.474182
_cell_angle_beta   93.37412
_cell_angle_gamma 119.83827
loop_
_atom_site_label
_atom_site_type_symbol
_atom_site_fract_x
_atom_site_fract_y
_atom_site_fract_z
_atom_type_partial_charge
C0 C 0.27377 0.06394 0.4109 0.0
C1 C 0.26241 0.05542 0.3962 0.0
C2 C 0.25484 0.06986 0.3885 0.0
C3 C 0.25834 0.09219 0.39538 0.0
H4 H 0.23086 0.1401 0.39356 0.0
H5 H 0.215 0.16177 0.37922 0.0
H6 H 0.26713 0.23099 0.40556 0.0
H7 H 0.28224 0.20881 0.42047 0.0
H8 H 0.3092 0.20105 0.45315 0.0
H9 H 0.32673 0.2137 0.47919 0.0
H10 H 0.30357 0.13715 0.48541 0.0
H11 H 0.28744 0.12494 0.45939 0.0
H12 H 0.28589 0.09218 0.42918 0.0
H13 H 0.27954 0.05307 0.41718 0.0
H14 H 0.24633 0.06397 0.3771 0.0
H15 H 0.2522 0.10276 0.38908 0.0
N16 N 0.26481 0.13758 0.41 0.0
N17 N 0.2786 0.16747 0.43072 0.0
N18 N 0.28335 0.13242 0.43171 0.0
C19 C 0.26761 0.15916 0.41649 0.0
C20 C 0.28637 0.15402 0.43842 0.0
C21 C 0.27276 0.12418 0.41746 0.0
C22 C 0.25794 0.17278 0.40809 0.0
C23 C 0.23898 0.15995 0.39632 0.0
C24 C 0.22997 0.17246 0.388 0.0
C25 C 0.23997 0.19825 0.39105 0.0
C26 C 0.25878 0.21108 0.40297 0.0
C27 C 0.26756 0.19842 0.41148 0.0
C28 C 0.29706 0.16203 0.45419 0.0
C29 C 0.30802 0.18701 0.46011 0.0
C30 C 0.31795 0.19422 0.47507 0.0
C31 C 0.31675 0.17652 0.48449 0.0
C32 C 0.30554 0.1515 0.4785 0.0
C33 C 0.29606 0.14441 0.46354 0.0
C34 C 0.26948 0.10064 0.41014 0.0
C35 C 0.27726 0.08629 0.4178 0.0
C36 C 0.97451 0.21264 0.4122 0.0
C37 C 0.975 0.20453 0.3974 0.0
C38 C 0.95661 0.18049 0.39142 0.0
C39 C 0.93798 0.16499 0.39988 0.0
H40 H 0.88162 0.09369 0.39731 0.0
H41 H 0.85504 0.04992 0.38769 0.0
H42 H 0.81871 0.03553 0.42816 0.0
H43 H 0.84512 0.07887 0.43784 0.0
H44 H 0.84804 0.13047 0.45398 0.0
H45 H 0.83877 0.1352 0.47927 0.0
H46 H 0.91663 0.18709 0.49259 0.0
H47 H 0.92614 0.18236 0.46689 0.0
H48 H 0.95555 0.2039 0.43201 0.0
H49 H 0.98845 0.23113 0.41708 0.0
H50 H 0.9567 0.17351 0.38016 0.0
H51 H 0.92415 0.14665 0.39472 0.0
N52 N 0.90121 0.13215 0.41734 0.0
N53 N 0.87816 0.12445 0.43777 0.0
N54 N 0.91276 0.16415 0.43667 0.0
C55 C 0.88201 0.11617 0.42457 0.0
C56 C 0.89323 0.14824 0.44391 0.0
C57 C 0.91666 0.15614 0.42321 0.0
C58 C 0.86563 0.08985 0.41839 0.0
C59 C 0.86796 0.0812 0.40416 0.0
C60 C 0.85269 0.05617 0.39861 0.0
C61 C 0.83498 0.0393 0.40724 0.0
C62 C 0.8325 0.04801 0.42136 0.0
C63 C 0.84758 0.07295 0.42686 0.0
C64 C 0.8879 0.15569 0.4585 0.0
C65 C 0.86323 0.14322 0.4622 0.0
C66 C 0.85788 0.1459 0.47669 0.0
C67 C 0.87704 0.16109 0.48793 0.0
C68 C 0.90154 0.1752 0.4841 0.0
C69 C 0.90696 0.17252 0.46943 0.0
C70 C 0.93707 0.17306 0.4146 0.0
C71 C 0.95561 0.1971 0.4207 0.0
C72 C 0.80252 0.74606 0.40682 0.0
C73 C 0.80715 0.76704 0.39947 0.0
C74 C 0.83211 0.78512 0.3982 0.0
C75 C 0.85179 0.78278 0.40471 0.0
H76 H 0.92254 0.78623 0.3976 0.0
H77 H 0.96291 0.80083 0.38818 0.0
H78 H 0.98989 0.78414 0.4285 0.0
H79 H 0.94973 0.76995 0.43808 0.0
H80 H 0.91128 0.74359 0.46359 0.0
H81 H 0.90425 0.73331 0.48935 0.0
H82 H 0.83578 0.73511 0.48455 0.0
H83 H 0.84244 0.74508 0.4591 0.0
H84 H 0.81782 0.72813 0.41964 0.0
H85 H 0.78368 0.73125 0.40761 0.0
H86 H 0.83654 0.80162 0.39274 0.0
H87 H 0.87079 0.79739 0.40402 0.0
N88 N 0.88967 0.76941 0.41633 0.0
N89 N 0.90424 0.76044 0.43842 0.0
N90 N 0.8635 0.75338 0.43526 0.0
C91 C 0.90826 0.76863 0.42461 0.0
C92 C 0.88186 0.75287 0.44384 0.0
C93 C 0.8672 0.76159 0.42157 0.0
C94 C 0.93278 0.777 0.41869 0.0
C95 C 0.93703 0.78562 0.40449 0.0
C96 C 0.96018 0.79386 0.39901 0.0
C97 C 0.97974 0.79379 0.40758 0.0
C98 C 0.9754 0.78486 0.42168 0.0
C99 C 0.95225 0.77658 0.42716 0.0
C100 C 0.87754 0.74534 0.45922 0.0
C101 C 0.89466 0.74165 0.46801 0.0
C102 C 0.89061 0.73565 0.48273 0.0
C103 C 0.86958 0.73364 0.48899 0.0
C104 C 0.85231 0.73684 0.48011 0.0
C105 C 0.85614 0.74248 0.46544 0.0
C106 C 0.84691 0.76261 0.41286 0.0
C107 C 0.82211 0.74409 0.41362 0.0
C108 C 0.03475 0.22968 0.59695 0.0
C109 C 0.03342 0.2245 0.61192 0.0
C110 C 0.05194 0.22071 0.61884 0.0
C111 C 0.07151 0.2225 0.61106 0.0
H112 H 0.13027 0.20683 0.61291 0.0
H113 H 0.16058 0.19575 0.62277 0.0
H114 H 0.20371 0.22546 0.5858 0.0
H115 H 0.17355 0.23602 0.57584 0.0
H116 H 0.13577 0.22499 0.54442 0.0
H117 H 0.13906 0.23496 0.51867 0.0
H118 H 0.10046 0.27553 0.5259 0.0
H119 H 0.09658 0.26509 0.55178 0.0
H120 H 0.05458 0.23559 0.5777 0.0
H121 H 0.02057 0.23223 0.59115 0.0
H122 H 0.0516 0.21688 0.63039 0.0
H123 H 0.08556 0.2197 0.61681 0.0
N124 N 0.11129 0.22558 0.59428 0.0
N125 N 0.13137 0.23339 0.57244 0.0
N126 N 0.09557 0.23663 0.57359 0.0
C127 C 0.1302 0.22726 0.58665 0.0
C128 C 0.11425 0.23813 0.56582 0.0
C129 C 0.09388 0.23025 0.58783 0.0
C130 C 0.14922 0.222 0.59345 0.0
C131 C 0.1463 0.21111 0.60694 0.0
C132 C 0.16372 0.20486 0.61264 0.0
C133 C 0.18437 0.20939 0.60495 0.0
C134 C 0.18771 0.22115 0.59181 0.0
C135 C 0.17038 0.2273 0.58612 0.0
C136 C 0.11588 0.24423 0.55016 0.0
C137 C 0.12793 0.23602 0.54057 0.0
C138 C 0.12974 0.24162 0.5258 0.0
C139 C 0.12 0.25598 0.52033 0.0
C140 C 0.10818 0.26448 0.5299 0.0
C141 C 0.10586 0.2584 0.54465 0.0
C142 C 0.07302 0.22809 0.59614 0.0
C143 C 0.05427 0.2315 0.58919 0.0
C144 C 0.78729 0.81927 0.60936 0.0
C145 C 0.79387 0.82427 0.62485 0.0
C146 C 0.78971 0.84176 0.63279 0.0
C147 C 0.77914 0.85391 0.6254 0.0
H148 H 0.76768 0.91276 0.63082 0.0
H149 H 0.77078 0.94993 0.64322 0.0
H150 H 0.73856 0.96125 0.60287 0.0
H151 H 0.73585 0.92409 0.59023 0.0
H152 H 0.72271 0.88667 0.56119 0.0
H153 H 0.70919 0.87463 0.53464 0.0
H154 H 0.72504 0.81469 0.53638 0.0
H155 H 0.73893 0.82683 0.56279 0.0
H156 H 0.77183 0.82695 0.59006 0.0
H157 H 0.79061 0.80621 0.60286 0.0
H158 H 0.79422 0.84579 0.64475 0.0
H159 H 0.77608 0.86718 0.63188 0.0
N160 N 0.76075 0.88119 0.60907 0.0
N161 N 0.7416 0.88567 0.58726 0.0
N162 N 0.75166 0.85407 0.58755 0.0
C163 C 0.75103 0.89338 0.60178 0.0
C164 C 0.74178 0.86594 0.58008 0.0
C165 C 0.76116 0.86154 0.60204 0.0
C166 C 0.75159 0.91538 0.60948 0.0
C167 C 0.76111 0.923 0.62455 0.0
C168 C 0.76271 0.94428 0.63172 0.0
C169 C 0.7548 0.9585 0.62405 0.0
C170 C 0.74498 0.95078 0.60905 0.0
C171 C 0.74333 0.92941 0.60184 0.0
C172 C 0.73213 0.85788 0.56415 0.0
C173 C 0.72321 0.87084 0.55595 0.0
C174 C 0.71532 0.86386 0.54074 0.0
C175 C 0.7162 0.8438 0.53341 0.0
C176 C 0.72452 0.83048 0.54167 0.0
C177 C 0.73239 0.83742 0.55685 0.0
C178 C 0.77237 0.84873 0.60993 0.0
C179 C 0.77659 0.83127 0.602 0.0
C180 C 0.18179 0.93245 0.60112 0.0
C181 C 0.17931 0.93704 0.61618 0.0
C182 C 0.16268 0.91714 0.62364 0.0
C183 C 0.14813 0.89341 0.61614 0.0
H184 H 0.09536 0.82615 0.62313 0.0
H185 H 0.06182 0.79875 0.63697 0.0
H186 H 0.02131 0.75202 0.59628 0.0
H187 H 0.05512 0.77994 0.58217 0.0
H188 H 0.09219 0.78999 0.55424 0.0
H189 H 0.09779 0.77956 0.52886 0.0
H190 H 0.1574 0.85509 0.52768 0.0
H191 H 0.15167 0.86572 0.55294 0.0
H192 H 0.16896 0.9057 0.58185 0.0
H193 H 0.19446 0.94747 0.59508 0.0
H194 H 0.16073 0.91996 0.63532 0.0
H195 H 0.13531 0.87872 0.62232 0.0
N196 N 0.11438 0.84639 0.60008 0.0
N197 N 0.10022 0.81783 0.57876 0.0
N198 N 0.13486 0.85798 0.57857 0.0
C199 C 0.09802 0.82347 0.59317 0.0
C200 C 0.1187 0.835 0.57139 0.0
C201 C 0.13279 0.86377 0.59296 0.0
C202 C 0.07795 0.80536 0.60148 0.0
C203 C 0.07942 0.81001 0.61704 0.0
C204 C 0.06022 0.79414 0.62505 0.0
C205 C 0.03891 0.77313 0.61776 0.0
C206 C 0.03746 0.76816 0.60221 0.0
C207 C 0.05688 0.78406 0.59415 0.0
C208 C 0.12152 0.8287 0.55573 0.0
C209 C 0.10643 0.80445 0.54858 0.0
C210 C 0.10972 0.79841 0.53403 0.0
C211 C 0.12809 0.81647 0.52624 0.0
C212 C 0.1429 0.84079 0.53329 0.0
C213 C 0.13969 0.84683 0.54785 0.0
C214 C 0.1498 0.88884 0.60093 0.0
C215 C 0.16712 0.90855 0.59354 0.0
C216 C 0.95117 0.40648 0.74746 0.0
C217 C 0.94576 0.39976 0.73198 0.0
C218 C 0.94403 0.41647 0.72285 0.0
C219 C 0.94665 0.43884 0.72912 0.0
H220 H 0.92526 0.4914 0.72034 0.0
H221 H 0.90019 0.50628 0.7075 0.0
H222 H 0.89814 0.54239 0.74926 0.0
H223 H 0.9231 0.52778 0.7621 0.0
H224 H 0.9536 0.52891 0.79061 0.0
H225 H 0.96411 0.53942 0.81743 0.0
H226 H 0.99243 0.48872 0.8187 0.0
H227 H 0.98227 0.47835 0.79184 0.0
H228 H 0.95761 0.43307 0.7657 0.0
H229 H 0.95218 0.39397 0.75492 0.0
H230 H 0.94034 0.41216 0.71086 0.0
H231 H 0.94464 0.45102 0.72181 0.0
N232 N 0.9413 0.47861 0.74372 0.0
N233 N 0.9482 0.50561 0.76497 0.0
N234 N 0.96036 0.47568 0.76608 0.0
C235 C 0.93948 0.4977 0.75038 0.0
C236 C 0.95884 0.49484 0.77288 0.0
C237 C 0.95173 0.4675 0.7515 0.0
C238 C 0.92609 0.50825 0.74228 0.0
C239 C 0.9196 0.50265 0.72677 0.0
C240 C 0.90533 0.51119 0.7194 0.0
C241 C 0.89701 0.52517 0.72744 0.0
C242 C 0.90399 0.53128 0.74284 0.0
C243 C 0.91846 0.52304 0.75017 0.0
C244 C 0.96691 0.50263 0.78903 0.0
C245 C 0.96227 0.52012 0.79654 0.0
C246 C 0.96816 0.52607 0.81195 0.0
C247 C 0.97893 0.51477 0.82019 0.0
C248 C 0.98432 0.49789 0.81264 0.0
C249 C 0.97834 0.49184 0.79724 0.0
C250 C 0.95138 0.44513 0.74464 0.0
C251 C 0.95414 0.42894 0.75369 0.0
C252 C 0.63808 0.53991 0.74546 0.0
C253 C 0.64278 0.53432 0.7311 0.0
C254 C 0.62735 0.51024 0.72386 0.0
C255 C 0.60735 0.49241 0.73063 0.0
H256 H 0.54957 0.42156 0.72268 0.0
H257 H 0.5206 0.38262 0.70779 0.0
H258 H 0.46759 0.36576 0.74029 0.0
H259 H 0.49677 0.40443 0.75541 0.0
H260 H 0.50813 0.44441 0.7818 0.0
H261 H 0.49646 0.4547 0.80525 0.0
H262 H 0.57138 0.5161 0.8165 0.0
H263 H 0.58329 0.50596 0.79282 0.0
H264 H 0.61482 0.52715 0.76322 0.0
H265 H 0.64986 0.55816 0.75146 0.0
H266 H 0.63025 0.50535 0.71274 0.0
H267 H 0.59565 0.47422 0.72454 0.0
N268 N 0.56411 0.45719 0.74367 0.0
N269 N 0.53771 0.44609 0.7627 0.0
N270 N 0.57443 0.48503 0.7651 0.0
C271 C 0.543 0.44032 0.74917 0.0
C272 C 0.55332 0.46831 0.77078 0.0
C273 C 0.57993 0.47957 0.75151 0.0
C274 C 0.52555 0.41626 0.74027 0.0
C275 C 0.53178 0.40957 0.72671 0.0
C276 C 0.51508 0.38726 0.7181 0.0
C277 C 0.49169 0.37109 0.72279 0.0
C278 C 0.48556 0.37763 0.73642 0.0
C279 C 0.50229 0.39991 0.74506 0.0
C280 C 0.54667 0.47441 0.78535 0.0
C281 C 0.52224 0.46008 0.78923 0.0
C282 C 0.51547 0.46603 0.80266 0.0
C283 C 0.53297 0.48627 0.81265 0.0
C284 C 0.55754 0.50034 0.809 0.0
C285 C 0.56429 0.49459 0.79542 0.0
C286 C 0.60222 0.49815 0.74484 0.0
C287 C 0.61806 0.52205 0.75225 0.0
C288 C 0.48192 0.09598 0.75389 0.0
C289 C 0.4851 0.11221 0.74295 0.0
C290 C 0.50882 0.12583 0.73792 0.0
C291 C 0.52884 0.1236 0.74386 0.0
H292 H 0.59458 0.12722 0.73314 0.0
H293 H 0.63171 0.14206 0.72023 0.0
H294 H 0.67097 0.13438 0.75873 0.0
H295 H 0.63337 0.11883 0.77165 0.0
H296 H 0.60072 0.09082 0.7987 0.0
H297 H 0.59826 0.07687 0.82352 0.0
H298 H 0.52546 0.06923 0.8246 0.0
H299 H 0.52756 0.08247 0.79978 0.0
H300 H 0.49883 0.08152 0.76846 0.0
H301 H 0.46387 0.08468 0.7578 0.0
H302 H 0.51214 0.13875 0.72967 0.0
H303 H 0.54691 0.13467 0.73989 0.0
N304 N 0.5682 0.11422 0.75504 0.0
N305 N 0.58675 0.1046 0.775 0.0
N306 N 0.54615 0.09775 0.7755 0.0
C307 C 0.58805 0.11327 0.76139 0.0
C308 C 0.5658 0.0968 0.78213 0.0
C309 C 0.54717 0.10645 0.76199 0.0
C310 C 0.61089 0.12192 0.75352 0.0
C311 C 0.61105 0.12864 0.73893 0.0
C312 C 0.63248 0.13733 0.73152 0.0
C313 C 0.6545 0.13973 0.73848 0.0
C314 C 0.65431 0.13263 0.75299 0.0
C315 C 0.63276 0.12383 0.76043 0.0
C316 C 0.56437 0.08784 0.79716 0.0
C317 C 0.58413 0.08606 0.80419 0.0
C318 C 0.58278 0.07818 0.81849 0.0
C319 C 0.56165 0.0719 0.82612 0.0
C320 C 0.54185 0.0735 0.81902 0.0
C321 C 0.54316 0.0813 0.80475 0.0
C322 C 0.52574 0.10793 0.7551 0.0
C323 C 0.50199 0.09403 0.75996 0.0
C324 C 0.68843 0.53397 0.92792 0.0
C325 C 0.68802 0.52626 0.94228 0.0
C326 C 0.70961 0.52746 0.94897 0.0
C327 C 0.7309 0.53574 0.94146 0.0
H328 H 0.79305 0.52599 0.9386 0.0
H329 H 0.82732 0.52142 0.94909 0.0
H330 H 0.87815 0.58091 0.92475 0.0
H331 H 0.84362 0.58437 0.91366 0.0
H332 H 0.81301 0.57931 0.87988 0.0
H333 H 0.81545 0.5938 0.85537 0.0
H334 H 0.74736 0.59543 0.85923 0.0
H335 H 0.74444 0.58009 0.88364 0.0
H336 H 0.70942 0.54794 0.9093 0.0
H337 H 0.67207 0.53311 0.92237 0.0
H338 H 0.71021 0.5222 0.96013 0.0
H339 H 0.74709 0.53631 0.94705 0.0
N340 N 0.77353 0.54989 0.92529 0.0
N341 N 0.79601 0.56696 0.90506 0.0
N342 N 0.75575 0.56104 0.90574 0.0
C343 C 0.79456 0.55755 0.91837 0.0
C344 C 0.7767 0.56871 0.89861 0.0
C345 C 0.75407 0.55165 0.91913 0.0
C346 C 0.81558 0.55542 0.9252 0.0
C347 C 0.81157 0.53808 0.9355 0.0
C348 C 0.83132 0.53558 0.94161 0.0
C349 C 0.85567 0.55068 0.93777 0.0
C350 C 0.85966 0.56845 0.92772 0.0
C351 C 0.83984 0.57059 0.9214 0.0
C352 C 0.77846 0.57841 0.8838 0.0
C353 C 0.79853 0.5828 0.87557 0.0
C354 C 0.80005 0.59131 0.86149 0.0
C355 C 0.78164 0.59587 0.85524 0.0
C356 C 0.7617 0.59178 0.86355 0.0
C357 C 0.76009 0.58309 0.87762 0.0
C358 C 0.73132 0.54322 0.92704 0.0
C359 C 0.70984 0.54236 0.92039 0.0
C360 C 0.42398 0.13032 0.94063 0.0
C361 C 0.43081 0.13571 0.95606 0.0
C362 C 0.42291 0.1498 0.96437 0.0
C363 C 0.40932 0.1593 0.95723 0.0
H364 H 0.41174 0.22843 0.9575 0.0
H365 H 0.42148 0.27065 0.96543 0.0
H366 H 0.36546 0.26359 0.93173 0.0
H367 H 0.35621 0.22169 0.92352 0.0
H368 H 0.35342 0.19167 0.8927 0.0
H369 H 0.3452 0.18368 0.86574 0.0
H370 H 0.36228 0.12449 0.86669 0.0
H371 H 0.37112 0.1328 0.8937 0.0
H372 H 0.40567 0.13533 0.92155 0.0
H373 H 0.42964 0.11925 0.93401 0.0
H374 H 0.42798 0.15419 0.9763 0.0
H375 H 0.40406 0.1707 0.96385 0.0
N376 N 0.39062 0.1863 0.94058 0.0
N377 N 0.37135 0.19005 0.91858 0.0
N378 N 0.38112 0.15836 0.91931 0.0
C379 C 0.38088 0.19825 0.93303 0.0
C380 C 0.37132 0.17011 0.91163 0.0
C381 C 0.39061 0.16619 0.93382 0.0
C382 C 0.3835 0.22184 0.9397 0.0
C383 C 0.40115 0.23569 0.95197 0.0
C384 C 0.4067 0.2599 0.95655 0.0
C385 C 0.39455 0.27065 0.94904 0.0
C386 C 0.3756 0.25608 0.93751 0.0
C387 C 0.37021 0.232 0.93285 0.0
C388 C 0.36325 0.16309 0.89543 0.0
C389 C 0.3552 0.17675 0.88723 0.0
C390 C 0.35032 0.17208 0.87173 0.0
C391 C 0.35329 0.15359 0.86403 0.0
C392 C 0.36025 0.13918 0.87227 0.0
C393 C 0.36517 0.14386 0.88778 0.0
C394 C 0.40308 0.15449 0.94168 0.0
C395 C 0.41013 0.13945 0.93353 0.0
C396 C 0.83878 0.29397 0.92082 0.0
C397 C 0.84786 0.30047 0.93602 0.0
C398 C 0.83656 0.28242 0.94602 0.0
C399 C 0.81703 0.25849 0.94091 0.0
H400 H 0.74484 0.20212 0.95031 0.0
H401 H 0.71379 0.17693 0.9663 0.0
H402 H 0.68997 0.11174 0.93531 0.0
H403 H 0.72074 0.13725 0.91895 0.0
H404 H 0.74255 0.14607 0.88607 0.0
H405 H 0.74584 0.13073 0.86123 0.0
H406 H 0.80733 0.20357 0.85589 0.0
H407 H 0.80376 0.21898 0.88029 0.0
H408 H 0.8134 0.26553 0.90389 0.0
H409 H 0.8464 0.30743 0.9128 0.0
H410 H 0.84318 0.2865 0.95776 0.0
H411 H 0.80904 0.24491 0.94884 0.0
N412 N 0.77207 0.21131 0.92878 0.0
N413 N 0.75465 0.17856 0.90947 0.0
N414 N 0.78907 0.21705 0.90594 0.0
C415 C 0.75452 0.18752 0.92359 0.0
C416 C 0.77196 0.1933 0.90057 0.0
C417 C 0.78934 0.22617 0.91999 0.0
C418 C 0.73545 0.17177 0.93331 0.0
C419 C 0.73308 0.18241 0.94685 0.0
C420 C 0.71529 0.16788 0.95612 0.0
C421 C 0.69945 0.14219 0.95221 0.0
C422 C 0.70168 0.1315 0.93862 0.0
C423 C 0.71943 0.14612 0.92927 0.0
C424 C 0.7729 0.18377 0.88527 0.0
C425 C 0.75663 0.15884 0.87954 0.0
C426 C 0.7586 0.15001 0.86532 0.0
C427 C 0.77682 0.16592 0.85652 0.0
C428 C 0.79279 0.19087 0.8622 0.0
C429 C 0.79084 0.19967 0.87633 0.0
C430 C 0.80869 0.25191 0.92566 0.0
C431 C 0.81966 0.26994 0.91569 0.0
C432 C 0.59917 0.71898 0.07643 0.0
C433 C 0.59174 0.71212 0.06109 0.0
C434 C 0.58733 0.72798 0.05261 0.0
C435 C 0.58981 0.74999 0.05939 0.0
H436 H 0.56254 0.79911 0.05547 0.0
H437 H 0.54901 0.82293 0.04143 0.0
H438 H 0.59361 0.88743 0.07336 0.0
H439 H 0.60598 0.86287 0.08792 0.0
H440 H 0.61588 0.8464 0.12295 0.0
H441 H 0.62075 0.85125 0.15035 0.0
H442 H 0.60553 0.7757 0.15038 0.0
H443 H 0.60097 0.7708 0.12334 0.0
H444 H 0.60703 0.74532 0.09509 0.0
H445 H 0.60235 0.70701 0.08333 0.0
H446 H 0.58186 0.72334 0.04073 0.0
H447 H 0.58596 0.76163 0.05256 0.0
N448 N 0.59242 0.79389 0.07445 0.0
N449 N 0.59857 0.81924 0.09648 0.0
N450 N 0.60349 0.78436 0.09725 0.0
C451 C 0.59279 0.81404 0.08144 0.0
C452 C 0.60385 0.8043 0.10446 0.0
C453 C 0.59798 0.77908 0.08228 0.0
C454 C 0.58539 0.82914 0.07278 0.0
C455 C 0.56953 0.81841 0.05948 0.0
C456 C 0.56189 0.83219 0.05135 0.0
C457 C 0.57033 0.85729 0.05612 0.0
C458 C 0.58638 0.86808 0.06942 0.0
C459 C 0.59363 0.85407 0.07774 0.0
C460 C 0.60799 0.80821 0.12094 0.0
C461 C 0.61369 0.8309 0.12883 0.0
C462 C 0.61655 0.83372 0.14446 0.0
C463 C 0.61325 0.81375 0.15238 0.0
C464 C 0.60787 0.79127 0.1445 0.0
C465 C 0.60542 0.78857 0.12899 0.0
C466 C 0.59672 0.75657 0.07481 0.0
C467 C 0.60166 0.74093 0.08319 0.0
C468 C 0.30621 0.87829 0.0797 0.0
C469 C 0.30602 0.86888 0.0651 0.0
C470 C 0.28732 0.84446 0.05994 0.0
C471 C 0.26926 0.82986 0.06905 0.0
H472 H 0.21897 0.75427 0.07448 0.0
H473 H 0.1884 0.71118 0.06551 0.0
H474 H 0.13746 0.71346 0.0953 0.0
H475 H 0.16845 0.75581 0.10475 0.0
H476 H 0.21188 0.78944 0.13863 0.0
H477 H 0.20671 0.80277 0.16325 0.0
H478 H 0.23919 0.87834 0.15173 0.0
H479 H 0.24555 0.86497 0.12718 0.0
H480 H 0.28866 0.87153 0.10001 0.0
H481 H 0.32025 0.8971 0.084 0.0
H482 H 0.28682 0.83641 0.04886 0.0
H483 H 0.25527 0.81113 0.06457 0.0
N484 N 0.23295 0.79927 0.08793 0.0
N485 N 0.21402 0.79338 0.1101 0.0
N486 N 0.24858 0.83219 0.10708 0.0
C487 C 0.21494 0.78429 0.09628 0.0
C488 C 0.23072 0.81717 0.11564 0.0
C489 C 0.24984 0.82325 0.09318 0.0
C490 C 0.19623 0.75839 0.09041 0.0
C491 C 0.20123 0.74548 0.0791 0.0
C492 C 0.1836 0.72079 0.0739 0.0
C493 C 0.16039 0.70858 0.07972 0.0
C494 C 0.15531 0.72184 0.09081 0.0
C495 C 0.17306 0.74628 0.09618 0.0
C496 C 0.22902 0.82613 0.13089 0.0
C497 C 0.21803 0.80895 0.14135 0.0
C498 C 0.21485 0.8166 0.15549 0.0
C499 C 0.22212 0.84163 0.15955 0.0
C500 C 0.23355 0.85895 0.14914 0.0
C501 C 0.23715 0.85131 0.13502 0.0
C502 C 0.26927 0.83921 0.08364 0.0
C503 C 0.288 0.86366 0.08885 0.0
C504 C 0.1499 0.44015 0.08442 0.0
C505 C 0.1494 0.44248 0.06904 0.0
C506 C 0.1696 0.44503 0.06159 0.0
C507 C 0.18963 0.44484 0.06921 0.0
H508 H 0.24887 0.43596 0.0616 0.0
H509 H 0.28292 0.44584 0.04653 0.0
H510 H 0.33502 0.47472 0.08629 0.0
H511 H 0.30036 0.46372 0.10154 0.0
H512 H 0.26486 0.42844 0.13045 0.0
H513 H 0.26265 0.41655 0.15575 0.0
H514 H 0.194 0.4176 0.158 0.0
H515 H 0.19583 0.42891 0.13264 0.0
H516 H 0.16975 0.43774 0.10391 0.0
H517 H 0.13455 0.43811 0.09045 0.0
H518 H 0.17002 0.44734 0.0498 0.0
H519 H 0.20471 0.44675 0.06296 0.0
N520 N 0.23114 0.4454 0.08485 0.0
N521 N 0.25094 0.44016 0.10605 0.0
N522 N 0.21155 0.43664 0.10679 0.0
C523 C 0.25093 0.44487 0.09154 0.0
C524 C 0.23117 0.43587 0.11374 0.0
C525 C 0.21145 0.44146 0.09233 0.0
C526 C 0.27193 0.44932 0.08277 0.0
C527 C 0.26756 0.44433 0.06718 0.0
C528 C 0.28719 0.45019 0.0585 0.0
C529 C 0.31189 0.46165 0.06511 0.0
C530 C 0.31625 0.46587 0.08079 0.0
C531 C 0.29642 0.45963 0.08955 0.0
C532 C 0.2305 0.42961 0.12941 0.0
C533 C 0.24931 0.42622 0.13633 0.0
C534 C 0.2481 0.41948 0.15089 0.0
C535 C 0.2281 0.41602 0.15894 0.0
C536 C 0.20946 0.41968 0.15207 0.0
C537 C 0.21062 0.42635 0.13752 0.0
C538 C 0.19007 0.44206 0.08453 0.0
C539 C 0.17 0.43982 0.09209 0.0
C540 C 0.35289 0.87765 0.25866 0.0
C541 C 0.34683 0.8648 0.27144 0.0
C542 C 0.36464 0.86035 0.27873 0.0
C543 C 0.38776 0.86828 0.27325 0.0
H544 H 0.45986 0.88498 0.28566 0.0
H545 H 0.49315 0.88406 0.30058 0.0
H546 H 0.53742 0.90313 0.26335 0.0
H547 H 0.50397 0.90396 0.24824 0.0
H548 H 0.48807 0.93059 0.22229 0.0
H549 H 0.49448 0.94943 0.19883 0.0
H550 H 0.41559 0.92266 0.19119 0.0
H551 H 0.40926 0.90452 0.21467 0.0
H552 H 0.37972 0.89523 0.24327 0.0
H553 H 0.33994 0.88196 0.25293 0.0
H554 H 0.36055 0.85033 0.28853 0.0
H555 H 0.40093 0.86434 0.27908 0.0
N556 N 0.43653 0.88785 0.2622 0.0
N557 N 0.46261 0.90468 0.24324 0.0
N558 N 0.42196 0.89807 0.2408 0.0
C559 C 0.45892 0.89562 0.25677 0.0
C560 C 0.44417 0.90592 0.23516 0.0
C561 C 0.41794 0.88901 0.25429 0.0
C562 C 0.47918 0.89464 0.26572 0.0
C563 C 0.47661 0.88894 0.28057 0.0
C564 C 0.49579 0.88856 0.28919 0.0
C565 C 0.51798 0.8937 0.28317 0.0
C566 C 0.52048 0.89899 0.26826 0.0
C567 C 0.50134 0.89958 0.25965 0.0
C568 C 0.44818 0.91622 0.2205 0.0
C569 C 0.47208 0.92865 0.21558 0.0
C570 C 0.47575 0.93937 0.20208 0.0
C571 C 0.4556 0.93783 0.19317 0.0
C572 C 0.43165 0.92476 0.19791 0.0
C573 C 0.428 0.9142 0.21139 0.0
C574 C 0.3936 0.88079 0.26032 0.0
C575 C 0.37587 0.88543 0.25315 0.0
C576 C 0.08756 0.46817 0.27417 0.0
C577 C 0.09912 0.47735 0.2888 0.0
C578 C 0.10323 0.50059 0.29475 0.0
C579 C 0.09547 0.51409 0.28645 0.0
H580 H 0.08085 0.56916 0.29264 0.0
H581 H 0.08463 0.60613 0.30576 0.0
H582 H 0.06152 0.62475 0.26482 0.0
H583 H 0.058 0.58762 0.25145 0.0
H584 H 0.04126 0.54853 0.22246 0.0
H585 H 0.02323 0.53479 0.19664 0.0
H586 H 0.03037 0.46948 0.1985 0.0
H587 H 0.04808 0.48292 0.22438 0.0
H588 H 0.07061 0.47402 0.25466 0.0
H589 H 0.08398 0.45023 0.26931 0.0
H590 H 0.11256 0.50844 0.30586 0.0
H591 H 0.09889 0.53186 0.29152 0.0
N592 N 0.07578 0.53964 0.27034 0.0
N593 N 0.05819 0.54563 0.24849 0.0
N594 N 0.06491 0.51173 0.24898 0.0
C595 C 0.06766 0.55303 0.26301 0.0
C596 C 0.05673 0.52496 0.24139 0.0
C597 C 0.07455 0.51904 0.26348 0.0
C598 C 0.06918 0.57537 0.27093 0.0
C599 C 0.07648 0.581 0.28636 0.0
C600 C 0.07844 0.60214 0.29395 0.0
C601 C 0.07321 0.61828 0.28635 0.0
C602 C 0.06579 0.61269 0.27095 0.0
C603 C 0.06369 0.59138 0.26332 0.0
C604 C 0.04611 0.51683 0.22557 0.0
C605 C 0.03902 0.53123 0.2174 0.0
C606 C 0.0288 0.52344 0.20255 0.0
C607 C 0.02535 0.50104 0.19553 0.0
C608 C 0.03251 0.48668 0.20366 0.0
C609 C 0.04281 0.4945 0.21849 0.0
C610 C 0.08345 0.50479 0.27193 0.0
C611 C 0.0798 0.48176 0.26581 0.0
C612 C 0.51007 0.62322 0.26501 0.0
C613 C 0.50596 0.62848 0.27957 0.0
C614 C 0.48824 0.60901 0.28687 0.0
C615 C 0.47438 0.58496 0.27963 0.0
H616 H 0.42993 0.50778 0.28554 0.0
H617 H 0.39582 0.48482 0.30037 0.0
H618 H 0.34393 0.45694 0.26059 0.0
H619 H 0.37858 0.47982 0.24555 0.0
H620 H 0.41795 0.48687 0.2139 0.0
H621 H 0.42392 0.48221 0.18748 0.0
H622 H 0.49352 0.55189 0.1941 0.0
H623 H 0.48777 0.55671 0.22003 0.0
H624 H 0.49935 0.5958 0.24638 0.0
H625 H 0.52355 0.63788 0.25909 0.0
H626 H 0.485 0.61238 0.2982 0.0
H627 H 0.46066 0.57056 0.28558 0.0
N628 N 0.44319 0.53669 0.26368 0.0
N629 N 0.42955 0.50908 0.24179 0.0
N630 N 0.46419 0.54945 0.24255 0.0
C631 C 0.42713 0.514 0.25633 0.0
C632 C 0.44846 0.52682 0.2349 0.0
C633 C 0.46166 0.55457 0.2569 0.0
C634 C 0.40687 0.49583 0.2644 0.0
C635 C 0.4113 0.49642 0.27989 0.0
C636 C 0.39172 0.48339 0.28842 0.0
C637 C 0.36708 0.46959 0.28173 0.0
C638 C 0.36273 0.46749 0.26608 0.0
C639 C 0.38253 0.48051 0.25746 0.0
C640 C 0.45214 0.52236 0.21911 0.0
C641 C 0.43458 0.50109 0.20971 0.0
C642 C 0.43801 0.49836 0.1946 0.0
C643 C 0.45898 0.51691 0.18867 0.0
C644 C 0.47688 0.53756 0.19823 0.0
C645 C 0.47353 0.54026 0.21318 0.0
C646 C 0.47785 0.57976 0.26488 0.0
C647 C 0.49612 0.59911 0.25772 0.0
Eu648 Eu 0.49554 0.9898 0.99082 0.0
Eu649 Eu 0.51182 0.01543 0.0261 0.0
C650 C 0.49878 0.04115 1.00029 0.0
C651 C 0.49522 0.9852 0.94908 0.0
C652 C 0.51261 0.01075 0.95005 0.0
C653 C 0.49951 0.98186 0.92259 0.0
C654 C 0.52333 0.02179 0.9374 0.0
C655 C 0.48871 0.97083 0.93528 0.0
C656 C 0.51705 0.00748 0.92351 0.0
C657 C 0.48443 0.97355 0.96251 0.0
O658 O 0.47539 0.98006 0.02595 0.0
O659 O 0.45974 0.97678 1.00181 0.0
C660 C 0.45649 0.97135 0.01567 0.0
O661 O 0.49861 0.96137 0.00342 0.0
O662 O 0.50474 0.03381 0.04488 0.0
O663 O 0.5348 0.02587 0.04752 0.0
O664 O 0.52374 0.98669 0.02423 0.0
C665 C 0.51379 0.9658 0.0154 0.0
O666 O 0.53746 0.01314 0.99318 0.0
O667 O 0.54513 0.03988 0.01421 0.0
O668 O 0.49414 0.03436 0.01375 0.0
O669 O 0.49886 0.96933 0.97145 0.0
O670 O 0.4731 0.98314 0.96974 0.0
O671 O 0.50561 0.02959 0.99082 0.0
C672 C 0.51234 0.02262 0.06845 0.0
C673 C 0.52977 0.0266 0.08045 0.0
C674 C 0.47894 0.00071 0.08405 0.0
C675 C 0.52186 0.01782 0.09416 0.0
C676 C 0.4868 0.00921 0.07032 0.0
C677 C 0.49636 0.00513 0.09617 0.0
C678 C 0.52101 0.03293 0.05423 0.0
C679 C 0.55223 0.03355 0.00206 0.0
H680 H 0.51791 0.02217 0.96062 0.0
H681 H 0.49443 0.97025 0.91212 0.0
H682 H 0.53633 0.04161 0.93845 0.0
H683 H 0.47543 0.95105 0.93434 0.0
H684 H 0.54954 0.03682 0.07926 0.0
H685 H 0.45919 0.99073 0.08524 0.0
H686 H 0.5357 0.02159 0.10333 0.0
H687 H 0.47285 0.00552 0.06125 0.0
Eu688 Eu 0.02666 0.51473 0.99379 0.0
Eu689 Eu 0.98758 0.49402 0.01981 0.0
C690 C 0.97544 0.46266 0.98772 0.0
C691 C 0.04922 0.53446 0.95666 0.0
C692 C 0.03835 0.54909 0.95379 0.0
C693 C 0.04413 0.52207 0.93007 0.0
C694 C 0.03004 0.54983 0.93925 0.0
C695 C 0.05252 0.52141 0.94464 0.0
C696 C 0.0323 0.53588 0.92724 0.0
C697 C 0.05475 0.53066 0.97209 0.0
O698 O 0.02087 0.4906 0.0276 0.0
O699 O 0.03308 0.48663 0.00465 0.0
C700 C 0.03282 0.4835 0.01887 0.0
O701 O 0.04842 0.53914 0.0149 0.0
O702 O 0.96557 0.46448 0.03343 0.0
O703 O 0.96533 0.49916 0.03595 0.0
O704 O 0.0155 0.53401 0.02759 0.0
C705 C 0.03929 0.54613 0.02569 0.0
O706 O 0.00266 0.53207 0.99148 0.0
O707 O 0.96807 0.50411 1.00196 0.0
O708 O 0.97438 0.46173 0.00216 0.0
O709 O 0.05417 0.54542 0.98275 0.0
O710 O 0.04377 0.50758 0.97511 0.0
O711 O 0.99095 0.48307 0.98208 0.0
C712 C 0.96306 0.47883 0.05746 0.0
C713 C 0.98732 0.49217 0.06471 0.0
C714 C 0.94712 0.46474 0.08098 0.0
C715 C 0.99149 0.4917 0.08003 0.0
C716 C 0.94299 0.46527 0.06567 0.0
C717 C 0.97144 0.47778 0.08831 0.0
C718 C 0.95874 0.47794 0.04124 0.0
C719 C 0.97882 0.52168 0.99309 0.0
H720 H 0.03554 0.55941 0.96281 0.0
H721 H 0.04597 0.51093 0.92111 0.0
H722 H 0.02143 0.56101 0.93744 0.0
H723 H 0.06075 0.50991 0.94659 0.0
H724 H 0.00306 0.50259 0.05847 0.0
H725 H 0.93127 0.45412 0.08709 0.0
H726 H 0.01045 0.5017 0.0853 0.0
H727 H 0.92415 0.45483 0.06021 0.0
Eu728 Eu 0.50238 0.48311 0.01711 0.0
Eu729 Eu 0.49361 0.50532 0.98611 0.0
C730 C 0.52431 0.54148 0.01516 0.0
C731 C 0.50164 0.47494 0.05781 0.0
C732 C 0.49156 0.49062 0.05911 0.0
C733 C 0.50151 0.47242 0.08457 0.0
C734 C 0.48642 0.4971 0.07295 0.0
C735 C 0.5065 0.46576 0.0706 0.0
C736 C 0.49155 0.48833 0.08592 0.0
C737 C 0.50657 0.46812 0.04301 0.0
O738 O 0.5318 0.5094 0.98666 0.0
O739 O 0.52797 0.47947 1.00178 0.0
C740 C 0.53936 0.49462 0.99172 0.0
O741 O 0.47461 0.44974 1.00143 0.0
O742 O 0.50771 0.5339 0.97068 0.0
O743 O 0.47009 0.50256 0.96638 0.0
O744 O 0.48429 0.46629 0.97912 0.0
C745 C 0.47356 0.44712 0.98682 0.0
O746 O 0.47466 0.49532 0.02126 0.0
O747 O 0.45822 0.49176 0.9973 0.0
O748 O 0.50658 0.53621 0.00456 0.0
O749 O 0.487 0.45606 0.03332 0.0
O750 O 0.52528 0.48578 0.03725 0.0
O751 O 0.52927 0.52444 0.01929 0.0
C752 C 0.49147 0.51882 0.94521 0.0
C753 C 0.4707 0.50368 0.93485 0.0
C754 C 0.518 0.52891 0.92489 0.0
C755 C 0.47351 0.50114 0.91974 0.0
C756 C 0.5152 0.53138 0.94007 0.0
C757 C 0.49714 0.51392 0.91451 0.0
C758 C 0.48787 0.52188 0.96112 0.0
C759 C 0.45663 0.49271 0.01173 0.0
H760 H 0.48765 0.4979 0.04939 0.0
H761 H 0.50592 0.46551 0.09433 0.0
H762 H 0.47835 0.50899 0.07345 0.0
H763 H 0.51425 0.4536 0.06981 0.0
H764 H 0.45217 0.49383 0.93843 0.0
H765 H 0.53644 0.53921 0.92126 0.0
H766 H 0.45707 0.48906 0.91213 0.0
H767 H 0.5316 0.54333 0.94773 0.0
Eu768 Eu 0.16296 0.32723 0.32267 0.0
Eu769 Eu 0.17941 0.35178 0.35803 0.0
C770 C 0.15864 0.37409 0.33373 0.0
C771 C 0.16324 0.32444 0.28096 0.0
C772 C 0.18212 0.34954 0.28255 0.0
C773 C 0.16513 0.32333 0.25416 0.0
C774 C 0.19248 0.36144 0.27004 0.0
C775 C 0.15476 0.31144 0.26671 0.0
C776 C 0.18421 0.34847 0.25568 0.0
C777 C 0.1528 0.31186 0.2942 0.0
O778 O 0.14427 0.31496 0.35776 0.0
O779 O 0.12741 0.31165 0.33392 0.0
C780 C 0.12495 0.30598 0.34774 0.0
O781 O 0.1666 0.29868 0.33501 0.0
O782 O 0.16984 0.36528 0.37801 0.0
O783 O 0.20457 0.36508 0.37863 0.0
O784 O 0.19325 0.3248 0.35509 0.0
C785 C 0.18267 0.30354 0.34661 0.0
O786 O 0.20461 0.35149 0.3255 0.0
O787 O 0.20976 0.37922 0.34519 0.0
O788 O 0.15726 0.3673 0.34726 0.0
O789 O 0.16799 0.30857 0.30307 0.0
O790 O 0.14035 0.31996 0.30154 0.0
O791 O 0.16683 0.36513 0.32342 0.0
C792 C 0.18217 0.35422 0.39998 0.0
C793 C 0.18285 0.33215 0.40101 0.0
C794 C 0.1645 0.34898 0.42373 0.0
C795 C 0.17444 0.31863 0.41329 0.0
C796 C 0.17311 0.3626 0.41149 0.0
C797 C 0.16482 0.32666 0.42473 0.0
C798 C 0.18866 0.36736 0.38643 0.0
C799 C 0.21783 0.37321 0.33338 0.0
H800 H 0.1889 0.3599 0.2935 0.0
H801 H 0.15853 0.3127 0.2433 0.0
H802 H 0.20684 0.38089 0.27163 0.0
H803 H 0.14027 0.29203 0.26529 0.0
H804 H 0.18949 0.32509 0.39221 0.0
H805 H 0.15693 0.3556 0.43218 0.0
H806 H 0.17541 0.3018 0.41376 0.0
H807 H 0.1721 0.37939 0.41082 0.0
Eu808 Eu 0.67929 0.84131 0.32904 0.0
Eu809 Eu 0.64987 0.83178 0.35909 0.0
C810 C 0.62443 0.7945 0.32964 0.0
C811 C 0.68754 0.84505 0.28858 0.0
C812 C 0.6624 0.83837 0.2862 0.0
C813 C 0.68964 0.8433 0.26184 0.0
C814 C 0.65093 0.83416 0.27177 0.0
C815 C 0.70116 0.84762 0.27636 0.0
C816 C 0.66433 0.83634 0.2594 0.0
C817 C 0.69913 0.84905 0.30386 0.0
O818 O 0.66695 0.80725 0.3588 0.0
O819 O 0.69927 0.82848 0.34472 0.0
C820 C 0.68876 0.81251 0.35454 0.0
O821 O 0.70149 0.87612 0.34508 0.0
O822 O 0.62333 0.80662 0.3733 0.0
O823 O 0.6421 0.84648 0.37934 0.0
O824 O 0.69017 0.85812 0.36673 0.0
C825 C 0.70543 0.8765 0.35955 0.0
O826 O 0.64753 0.84848 0.32423 0.0
O827 O 0.64555 0.86105 0.34807 0.0
O828 O 0.62084 0.80703 0.34044 0.0
O829 O 0.69866 0.86634 0.31249 0.0
O830 O 0.6927 0.82892 0.31043 0.0
O831 O 0.6468 0.80194 0.32557 0.0
C832 C 0.63542 0.82132 0.39892 0.0
C833 C 0.63609 0.837 0.41096 0.0
C834 C 0.65205 0.80301 0.41583 0.0
C835 C 0.64514 0.83608 0.42529 0.0
C836 C 0.64321 0.8041 0.4015 0.0
C837 C 0.65357 0.81931 0.42786 0.0
C838 C 0.6284 0.82446 0.38368 0.0
C839 C 0.64065 0.86017 0.33366 0.0
H840 H 0.65159 0.83631 0.29553 0.0
H841 H 0.70038 0.84486 0.25255 0.0
H842 H 0.63155 0.82923 0.2703 0.0
H843 H 0.72058 0.85272 0.27803 0.0
H844 H 0.63031 0.85052 0.4092 0.0
H845 H 0.65797 0.78957 0.41744 0.0
H846 H 0.64636 0.84915 0.43423 0.0
H847 H 0.64299 0.7918 0.39241 0.0
Eu848 Eu 0.17851 0.83118 0.35493 0.0
Eu849 Eu 0.15418 0.84355 0.32529 0.0
C850 C 0.19617 0.88608 0.34846 0.0
C851 C 0.18546 0.81653 0.39454 0.0
C852 C 0.16663 0.82107 0.39883 0.0
C853 C 0.18785 0.80252 0.41877 0.0
C854 C 0.15871 0.8167 0.41307 0.0
C855 C 0.19588 0.80706 0.40455 0.0
C856 C 0.16934 0.80751 0.42325 0.0
C857 C 0.19494 0.82254 0.3799 0.0
O858 O 0.19025 0.84725 0.31906 0.0
O859 O 0.19937 0.82656 0.33651 0.0
C860 C 0.20266 0.83659 0.32383 0.0
O861 O 0.14336 0.7961 0.3456 0.0
O862 O 0.15764 0.87117 0.31042 0.0
O863 O 0.12694 0.83328 0.3059 0.0
O864 O 0.14561 0.80401 0.32126 0.0
C865 C 0.13774 0.78826 0.33135 0.0
O866 O 0.15097 0.84172 0.3628 0.0
O867 O 0.12467 0.83203 0.34141 0.0
O868 O 0.17377 0.87786 0.34179 0.0
O869 O 0.18282 0.80552 0.36869 0.0
O870 O 0.20076 0.84469 0.37646 0.0
O871 O 0.2043 0.87066 0.35065 0.0
C872 C 0.14662 0.85465 0.2853 0.0
C873 C 0.14964 0.83528 0.2789 0.0
C874 C 0.16243 0.87716 0.26371 0.0
C875 C 0.159 0.83688 0.26503 0.0
C876 C 0.1528 0.87543 0.27749 0.0
C877 C 0.1659 0.85804 0.2574 0.0
C878 C 0.13975 0.85478 0.30069 0.0
C879 C 0.12929 0.83622 0.35604 0.0
H880 H 0.15826 0.82828 0.39123 0.0
H881 H 0.19658 0.79566 0.42639 0.0
H882 H 0.14421 0.82043 0.41611 0.0
H883 H 0.21047 0.80352 0.40144 0.0
H884 H 0.14546 0.81923 0.2848 0.0
H885 H 0.16741 0.8936 0.25804 0.0
H886 H 0.16172 0.82199 0.26053 0.0
H887 H 0.15087 0.89069 0.28226 0.0
Eu888 Eu 0.82603 0.65033 0.65538 0.0
Eu889 Eu 0.84579 0.67665 0.6901 0.0
C890 C 0.83602 0.70556 0.6653 0.0
C891 C 0.82033 0.64652 0.61356 0.0
C892 C 0.83429 0.6726 0.61471 0.0
C893 C 0.81965 0.64549 0.58657 0.0
C894 C 0.84071 0.68504 0.6019 0.0
C895 C 0.81318 0.63303 0.59943 0.0
C896 C 0.83332 0.67167 0.58765 0.0
C897 C 0.81369 0.63361 0.62714 0.0
O898 O 0.80459 0.6624 0.68636 0.0
O899 O 0.79325 0.62964 0.6687 0.0
C900 C 0.7878 0.64067 0.67951 0.0
O901 O 0.83906 0.62737 0.66736 0.0
O902 O 0.84505 0.69883 0.70955 0.0
O903 O 0.86759 0.68138 0.71111 0.0
O904 O 0.8301 0.63558 0.69045 0.0
C905 C 0.83452 0.62179 0.68104 0.0
O906 O 0.8652 0.68179 0.65524 0.0
O907 O 0.87986 0.68252 0.67917 0.0
O908 O 0.85134 0.708 0.67677 0.0
O909 O 0.83207 0.63399 0.63512 0.0
O910 O 0.79975 0.63844 0.63538 0.0
O911 O 0.82114 0.68385 0.65764 0.0
C912 C 0.84694 0.68213 0.73195 0.0
C913 C 0.82641 0.6579 0.73092 0.0
C914 C 0.84589 0.6855 0.75882 0.0
C915 C 0.81572 0.64751 0.74374 0.0
C916 C 0.85661 0.69587 0.74596 0.0
C917 C 0.82528 0.66117 0.75787 0.0
C918 C 0.85818 0.69292 0.71842 0.0
C919 C 0.88372 0.68735 0.6653 0.0
H920 H 0.8402 0.68335 0.62554 0.0
H921 H 0.81348 0.63463 0.57578 0.0
H922 H 0.85158 0.70518 0.60318 0.0
H923 H 0.80249 0.61289 0.59834 0.0
H924 H 0.8187 0.64698 0.72019 0.0
H925 H 0.85355 0.69667 0.76947 0.0
H926 H 0.80015 0.62862 0.74257 0.0
H927 H 0.87241 0.71463 0.74696 0.0
Eu928 Eu 0.34589 0.1532 0.65713 0.0
Eu929 Eu 0.31731 0.15531 0.68637 0.0
C930 C 0.29569 0.10624 0.66373 0.0
C931 C 0.36652 0.16321 0.61862 0.0
C932 C 0.35 0.1719 0.61551 0.0
C933 C 0.37982 0.17097 0.59382 0.0
C934 C 0.34801 0.1796 0.60157 0.0
C935 C 0.38162 0.16303 0.60778 0.0
C936 C 0.36274 0.17904 0.59047 0.0
C937 C 0.36718 0.15355 0.63297 0.0
O938 O 0.33864 0.13635 0.69302 0.0
O939 O 0.36839 0.15002 0.67651 0.0
C940 C 0.36016 0.14034 0.68894 0.0
O941 O 0.35888 0.19331 0.66453 0.0
O942 O 0.28929 0.13596 0.70145 0.0
O943 O 0.31294 0.17598 0.70532 0.0
O944 O 0.356 0.18865 0.6892 0.0
C945 C 0.36581 0.2027 0.6785 0.0
O946 O 0.313 0.15617 0.64825 0.0
O947 O 0.3044 0.17239 0.66914 0.0
O948 O 0.29029 0.12166 0.67083 0.0
O949 O 0.37827 0.17017 0.64446 0.0
O950 O 0.34607 0.13492 0.63584 0.0
O951 O 0.31854 0.11353 0.66068 0.0
C952 C 0.30347 0.15349 0.72639 0.0
C953 C 0.30287 0.16903 0.73805 0.0
C954 C 0.31845 0.13517 0.74435 0.0
C955 C 0.31017 0.16777 0.75279 0.0
C956 C 0.31122 0.13648 0.72968 0.0
C957 C 0.31824 0.15094 0.75608 0.0
C958 C 0.2971 0.15576 0.71081 0.0
C959 C 0.30188 0.16702 0.6546 0.0
H960 H 0.33826 0.17225 0.62379 0.0
H961 H 0.39172 0.17064 0.58564 0.0
H962 H 0.33435 0.18526 0.59937 0.0
H963 H 0.39456 0.15649 0.61004 0.0
H964 H 0.29711 0.18239 0.73574 0.0
H965 H 0.32415 0.12172 0.74649 0.0
H966 H 0.31005 0.18037 0.76154 0.0
H967 H 0.31189 0.12427 0.7209 0.0
Eu968 Eu 0.85182 0.16939 0.6917 0.0
Eu969 Eu 0.83676 0.18712 0.66051 0.0
C970 C 0.86862 0.22646 0.68935 0.0
C971 C 0.85 0.15211 0.73109 0.0
C972 C 0.83256 0.15967 0.7335 0.0
C973 C 0.8471 0.1394 0.7561 0.0
C974 C 0.82239 0.15705 0.74712 0.0
C975 C 0.85726 0.14204 0.74246 0.0
C976 C 0.82944 0.14676 0.75858 0.0
C977 C 0.85979 0.15378 0.71653 0.0
O978 O 0.86648 0.17791 0.65598 0.0
O979 O 0.88653 0.18628 0.6795 0.0
C980 C 0.88666 0.18482 0.66493 0.0
O981 O 0.83964 0.1381 0.67377 0.0
O982 O 0.84876 0.21248 0.64324 0.0
O983 O 0.81074 0.18203 0.64145 0.0
O984 O 0.81289 0.14531 0.65928 0.0
C985 C 0.8202 0.13026 0.66402 0.0
O986 O 0.81284 0.16305 0.69277 0.0
O987 O 0.81278 0.1907 0.67704 0.0
O988 O 0.86448 0.22248 0.67475 0.0
O989 O 0.84346 0.13925 0.70553 0.0
O990 O 0.87418 0.17616 0.71288 0.0
O991 O 0.8606 0.20839 0.69798 0.0
C992 C 0.83077 0.19204 0.61946 0.0
C993 C 0.83641 0.17303 0.61701 0.0
C994 C 0.83349 0.19849 0.59322 0.0
C995 C 0.84051 0.16674 0.60278 0.0
C996 C 0.82937 0.20478 0.60751 0.0
C997 C 0.83906 0.17934 0.59069 0.0
C998 C 0.82795 0.19946 0.63465 0.0
C999 C 0.80349 0.17644 0.68781 0.0
H1000 H 0.82661 0.16734 0.72478 0.0
H1001 H 0.85323 0.13177 0.76475 0.0
H1002 H 0.80869 0.16269 0.74858 0.0
H1003 H 0.87067 0.13608 0.74077 0.0
H1004 H 0.83793 0.16323 0.62616 0.0
H1005 H 0.83202 0.2084 0.58413 0.0
H1006 H 0.84517 0.1522 0.6013 0.0
H1007 H 0.82526 0.21967 0.60925 0.0
H1008 H 0.3565 0.89995 0.07254 0.0
H1009 H 0.29908 0.87232 0.03524 0.0
H1010 H 0.33103 0.89563 0.0185 0.0
H1011 H 0.39401 0.96185 0.06101 0.0
H1012 H 0.42324 0.96418 0.06712 0.0
H1013 H 0.39606 0.94576 0.07648 0.0
H1014 H 0.40102 0.90719 0.07168 0.0
H1015 H 0.4285 0.92545 0.06255 0.0
H1016 H 0.40302 0.89714 0.05293 0.0
H1017 H 0.3697 0.92138 0.0056 0.0
H1018 H 0.4118 0.94781 0.99784 0.0
H1019 H 0.44354 0.95866 0.04366 0.0
C1020 C 0.35057 0.89907 0.0609 0.0
C1021 C 0.32522 0.88417 0.05523 0.0
C1022 C 0.31839 0.8833 0.03984 0.0
C1023 C 0.3364 0.89659 0.03024 0.0
C1024 C 0.36123 0.91079 0.03616 0.0
C1025 C 0.36831 0.9122 0.05114 0.0
C1026 C 0.39626 0.92853 0.05465 0.0
C1027 C 0.40276 0.95143 0.06546 0.0
C1028 C 0.40788 0.91368 0.06081 0.0
C1029 C 0.40381 0.93581 0.03929 0.0
C1030 C 0.38337 0.92552 0.02876 0.0
C1031 C 0.38584 0.92959 0.01377 0.0
C1032 C 0.40984 0.94461 0.00946 0.0
C1033 C 0.43107 0.95532 0.02008 0.0
C1034 C 0.42781 0.95076 0.03519 0.0
H1035 H 0.12478 0.46749 0.0767 0.0
H1036 H 0.12602 0.41685 0.04203 0.0
H1037 H 0.09384 0.4195 0.02635 0.0
H1038 H 0.05655 0.44434 0.07027 0.0
H1039 H 0.06084 0.47507 0.07388 0.0
H1040 H 0.0822 0.46733 0.08311 0.0
H1041 H 0.11913 0.50469 0.07302 0.0
H1042 H 0.09791 0.51244 0.06369 0.0
H1043 H 0.11888 0.50707 0.05323 0.0
H1044 H 0.06569 0.43114 0.01332 0.0
H1045 H 0.04098 0.44946 0.00406 0.0
H1046 H 0.05584 0.49132 0.04726 0.0
C1047 C 0.11779 0.45649 0.06596 0.0
C1048 C 0.128 0.44206 0.06054 0.0
C1049 C 0.1187 0.42827 0.04633 0.0
C1050 C 0.1003 0.42952 0.03737 0.0
C1051 C 0.09114 0.44443 0.04284 0.0
C1052 C 0.09929 0.45747 0.05686 0.0
C1053 C 0.08723 0.47318 0.05962 0.0
C1054 C 0.07072 0.46445 0.07248 0.0
C1055 C 0.10697 0.50099 0.06256 0.0
C1056 C 0.07165 0.46745 0.04481 0.0
C1057 C 0.07417 0.45073 0.03535 0.0
C1058 C 0.06318 0.4439 0.0207 0.0
C1059 C 0.0493 0.4545 0.01551 0.0
C1060 C 0.04637 0.47162 0.02498 0.0
C1061 C 0.05742 0.47791 0.03988 0.0
H1062 H 0.55343 0.67878 0.04056 0.0
H1063 H 0.62023 0.6905 0.0663 0.0
H1064 H 0.61096 0.64851 0.05667 0.0
H1065 H 0.51527 0.61616 0.04605 0.0
H1066 H 0.49916 0.6067 0.02753 0.0
H1067 H 0.51184 0.63826 0.03564 0.0
H1068 H 0.53727 0.65458 0.01309 0.0
H1069 H 0.52449 0.62305 0.00483 0.0
H1070 H 0.55778 0.64336 0.00794 0.0
H1071 H 0.5928 0.60428 0.04572 0.0
H1072 H 0.56813 0.56154 0.03319 0.0
H1073 H 0.51397 0.57932 0.01393 0.0
C1074 C 0.56644 0.67278 0.04391 0.0
C1075 C 0.58754 0.68792 0.05421 0.0
C1076 C 0.60379 0.6791 0.05856 0.0
C1077 C 0.59876 0.65535 0.05309 0.0
C1078 C 0.57753 0.64074 0.04318 0.0
C1079 C 0.56177 0.64919 0.03851 0.0
C1080 C 0.53976 0.62949 0.02817 0.0
C1081 C 0.51506 0.62223 0.03475 0.0
C1082 C 0.53985 0.63814 0.01258 0.0
C1083 C 0.54542 0.6085 0.02795 0.0
C1084 C 0.56729 0.61537 0.03667 0.0
C1085 C 0.57579 0.59877 0.03872 0.0
C1086 C 0.56159 0.57451 0.03161 0.0
C1087 C 0.53919 0.56714 0.02252 0.0
C1088 C 0.53114 0.58446 0.02067 0.0
H1089 H 0.8567 0.32856 0.96298 0.0
H1090 H 0.88825 0.32976 0.92115 0.0
H1091 H 0.92325 0.37171 0.9295 0.0
H1092 H 0.87471 0.39294 0.96823 0.0
H1093 H 0.88249 0.396 0.98807 0.0
H1094 H 0.85911 0.36639 0.97859 0.0
H1095 H 0.8834 0.34581 0.98899 0.0
H1096 H 0.9068 0.37534 0.99855 0.0
H1097 H 0.91565 0.35838 0.98582 0.0
H1098 H 0.95463 0.41391 0.94215 0.0
H1099 H 0.9817 0.45214 0.95903 0.0
H1100 H 0.93165 0.42212 0.99335 0.0
C1101 C 0.87102 0.33743 0.95558 0.0
C1102 C 0.86932 0.32575 0.94127 0.0
C1103 C 0.88854 0.3384 0.93198 0.0
C1104 C 0.9087 0.36222 0.93667 0.0
C1105 C 0.90966 0.37314 0.95077 0.0
C1106 C 0.8915 0.36107 0.96017 0.0
C1107 C 0.89745 0.37661 0.97499 0.0
C1108 C 0.87724 0.38339 0.97761 0.0
C1109 C 0.90104 0.36324 0.98784 0.0
C1110 C 0.92178 0.39931 0.97243 0.0
C1111 C 0.92835 0.39703 0.95833 0.0
C1112 C 0.94976 0.41585 0.95325 0.0
C1113 C 0.96497 0.43752 0.9629 0.0
C1114 C 0.95885 0.44003 0.97752 0.0
C1115 C 0.93694 0.42063 0.98229 0.0
H1116 H 0.6553 0.54401 0.94328 0.0
H1117 H 0.66914 0.48736 0.95956 0.0
H1118 H 0.6328 0.47314 0.97396 0.0
H1119 H 0.63613 0.55923 0.97667 0.0
H1120 H 0.61214 0.56334 0.96742 0.0
H1121 H 0.63899 0.56885 0.95812 0.0
H1122 H 0.61022 0.53719 0.93587 0.0
H1123 H 0.58328 0.53168 0.94508 0.0
H1124 H 0.58756 0.506 0.93923 0.0
H1125 H 0.5955 0.46571 0.98719 0.0
H1126 H 0.55927 0.46491 0.99758 0.0
H1127 H 0.56923 0.52567 0.97215 0.0
C1128 C 0.65052 0.52839 0.9497 0.0
C1129 C 0.66527 0.51695 0.95034 0.0
C1130 C 0.65846 0.49676 0.95907 0.0
C1131 C 0.63774 0.48842 0.96723 0.0
C1132 C 0.62382 0.5003 0.9665 0.0
C1133 C 0.62982 0.51974 0.95788 0.0
C1134 C 0.61189 0.52943 0.95912 0.0
C1135 C 0.62561 0.55683 0.96573 0.0
C1136 C 0.59738 0.52585 0.94392 0.0
C1137 C 0.59503 0.51253 0.96986 0.0
C1138 C 0.60221 0.49585 0.97399 0.0
C1139 C 0.58963 0.47861 0.98398 0.0
C1140 C 0.5691 0.47834 0.98986 0.0
C1141 C 0.56132 0.49519 0.98571 0.0
C1142 C 0.57458 0.51247 0.97557 0.0
H1143 H 0.4232 0.10931 0.98043 0.0
H1144 H 0.47486 0.14321 0.94745 0.0
H1145 H 0.50098 0.12707 0.9578 0.0
H1146 H 0.47045 0.11779 0.01131 0.0
H1147 H 0.45008 0.08795 0.01757 0.0
H1148 H 0.43719 0.10507 0.00904 0.0
H1149 H 0.40984 0.06717 0.98956 0.0
H1150 H 0.42261 0.04999 0.99801 0.0
H1151 H 0.42447 0.05404 0.97846 0.0
H1152 H 0.51857 0.10369 0.96934 0.0
H1153 H 0.52647 0.07338 0.98122 0.0
H1154 H 0.46404 0.05424 0.00721 0.0
C1155 C 0.44035 0.11379 0.97568 0.0
C1156 C 0.44716 0.12754 0.9632 0.0
C1157 C 0.46937 0.13262 0.95699 0.0
C1158 C 0.48438 0.1237 0.96285 0.0
C1159 C 0.47696 0.10978 0.97496 0.0
C1160 C 0.45551 0.10482 0.98135 0.0
C1161 C 0.45065 0.08738 0.99336 0.0
C1162 C 0.45219 0.10033 0.00873 0.0
C1163 C 0.4254 0.06322 0.98961 0.0
C1164 C 0.47224 0.08266 0.99233 0.0
C1165 C 0.48733 0.09611 0.98177 0.0
C1166 C 0.50721 0.09341 0.97783 0.0
C1167 C 0.51149 0.07611 0.9846 0.0
C1168 C 0.49601 0.06175 0.99522 0.0
C1169 C 0.47651 0.06548 0.9994 0.0
H1170 H 0.65135 0.10331 0.94461 0.0
H1171 H 0.70512 0.14623 0.9828 0.0
H1172 H 0.67363 0.12274 0.99966 0.0
H1173 H 0.59863 0.0994 0.95992 0.0
H1174 H 0.57722 0.06788 0.95215 0.0
H1175 H 0.60392 0.0873 0.94273 0.0
H1176 H 0.61835 0.05496 0.94327 0.0
H1177 H 0.59136 0.03502 0.95234 0.0
H1178 H 0.62208 0.04408 0.96075 0.0
H1179 H 0.63556 0.09631 0.01245 0.0
H1180 H 0.59423 0.06689 0.02014 0.0
H1181 H 0.56616 0.03946 0.97377 0.0
C1182 C 0.65669 0.10752 0.95651 0.0
C1183 C 0.68076 0.12685 0.96232 0.0
C1184 C 0.68672 0.13191 0.97801 0.0
C1185 C 0.669 0.11853 0.98771 0.0
C1186 C 0.64541 0.0999 0.9816 0.0
C1187 C 0.63928 0.09419 0.96637 0.0
C1188 C 0.61247 0.07349 0.9627 0.0
C1189 C 0.59717 0.08258 0.95385 0.0
C1190 C 0.61099 0.05052 0.95427 0.0
C1191 C 0.60453 0.06848 0.97825 0.0
C1192 C 0.62373 0.08406 0.989 0.0
C1193 C 0.62047 0.08378 0.00414 0.0
C1194 C 0.59695 0.06709 0.00841 0.0
C1195 C 0.57715 0.0507 0.99759 0.0
C1196 C 0.58111 0.05141 0.98233 0.0
H1197 H 0.86324 0.53783 0.96569 0.0
H1198 H 0.89582 0.55602 0.92372 0.0
H1199 H 0.9311 0.55213 0.93384 0.0
H1200 H 0.9201 0.56831 0.99004 0.0
H1201 H 0.90992 0.54428 0.00247 0.0
H1202 H 0.88744 0.54951 0.99229 0.0
H1203 H 0.8633 0.50331 0.98121 0.0
H1204 H 0.88562 0.49791 0.99142 0.0
H1205 H 0.87951 0.49047 0.97148 0.0
H1206 H 0.96325 0.54722 0.94839 0.0
H1207 H 0.98881 0.53813 0.96585 0.0
H1208 H 0.93424 0.51947 0.99781 0.0
C1209 C 0.87761 0.54078 0.95853 0.0
C1210 C 0.87674 0.54767 0.94392 0.0
C1211 C 0.89622 0.5515 0.93507 0.0
C1212 C 0.91633 0.54913 0.94068 0.0
C1213 C 0.91663 0.54254 0.95509 0.0
C1214 C 0.89768 0.53809 0.96386 0.0
C1215 C 0.90225 0.53038 0.97881 0.0
C1216 C 0.90509 0.54925 0.99166 0.0
C1217 C 0.88143 0.50395 0.98084 0.0
C1218 C 0.92674 0.5312 0.97704 0.0
C1219 C 0.93478 0.53858 0.96332 0.0
C1220 C 0.95713 0.54137 0.95915 0.0
C1221 C 0.9716 0.5363 0.9692 0.0
C1222 C 0.96358 0.52821 0.98322 0.0
C1223 C 0.94079 0.52557 0.98716 0.0
H1224 H 0.40917 0.2989 0.97635 0.0
H1225 H 0.40048 0.30352 0.9288 0.0
H1226 H 0.41767 0.34869 0.93354 0.0
H1227 H 0.39471 0.34706 0.98858 0.0
H1228 H 0.41779 0.35908 0.0045 0.0
H1229 H 0.40291 0.32667 0.99753 0.0
H1230 H 0.44616 0.33113 0.99482 0.0
H1231 H 0.46115 0.36355 1.00172 0.0
H1232 H 0.46744 0.35445 0.9839 0.0
H1233 H 0.43847 0.3934 0.94302 0.0
H1234 H 0.46044 0.43515 0.95684 0.0
H1235 H 0.45614 0.40211 0.99835 0.0
C1236 C 0.41071 0.30938 0.96695 0.0
C1237 C 0.4032 0.29756 0.95221 0.0
C1238 C 0.40554 0.31199 0.94022 0.0
C1239 C 0.41546 0.33772 0.94278 0.0
C1240 C 0.42295 0.3488 0.95739 0.0
C1241 C 0.42059 0.33515 0.9693 0.0
C1242 C 0.43096 0.35188 0.98386 0.0
C1243 C 0.41036 0.34581 0.99423 0.0
C1244 C 0.45272 0.35015 0.99152 0.0
C1245 C 0.43987 0.37707 0.97821 0.0
C1246 C 0.43499 0.3748 0.96291 0.0
C1247 C 0.44222 0.39544 0.95502 0.0
C1248 C 0.45479 0.41909 0.96298 0.0
C1249 C 0.45998 0.42193 0.97869 0.0
C1250 C 0.45227 0.40056 0.98637 0.0
H1251 H 0.15038 0.68433 0.05128 0.0
H1252 H 0.12759 0.6726 0.09604 0.0
H1253 H 0.09473 0.6299 0.08707 0.0
H1254 H 0.09065 0.64947 0.03139 0.0
H1255 H 0.10018 0.63621 0.01667 0.0
H1256 H 0.1222 0.666 0.02653 0.0
H1257 H 0.15217 0.64967 0.0333 0.0
H1258 H 0.13027 0.61983 0.02339 0.0
H1259 H 0.14106 0.62185 0.04266 0.0
H1260 H 0.06254 0.58953 0.07306 0.0
H1261 H 0.03517 0.55276 0.05517 0.0
H1262 H 0.08101 0.5889 0.02004 0.0
C1263 C 0.13882 0.67274 0.0593 0.0
C1264 C 0.14151 0.68219 0.07438 0.0
C1265 C 0.12561 0.66624 0.08436 0.0
C1266 C 0.10698 0.64179 0.07941 0.0
C1267 C 0.10467 0.63328 0.06449 0.0
C1268 C 0.12036 0.6481 0.05461 0.0
C1269 C 0.11392 0.63425 0.03915 0.0
C1270 C 0.10628 0.64726 0.02777 0.0
C1271 C 0.13565 0.63122 0.03435 0.0
C1272 C 0.09193 0.60947 0.04186 0.0
C1273 C 0.08682 0.60941 0.05654 0.0
C1274 C 0.06654 0.5892 0.06158 0.0
C1275 C 0.05106 0.56848 0.05134 0.0
C1276 C 0.05616 0.56798 0.0363 0.0
C1277 C 0.07698 0.58867 0.03155 0.0
H1278 H 0.35566 0.46042 0.07005 0.0
H1279 H 0.31572 0.4813 0.0384 0.0
H1280 H 0.34844 0.49188 0.02156 0.0
H1281 H 0.41806 0.51036 0.06394 0.0
H1282 H 0.4318 0.49103 0.06601 0.0
H1283 H 0.40538 0.4855 0.07578 0.0
H1284 H 0.38157 0.43974 0.06385 0.0
H1285 H 0.40791 0.44532 0.05399 0.0
H1286 H 0.3777 0.43335 0.04384 0.0
H1287 H 0.38404 0.49776 0.00733 0.0
H1288 H 0.42189 0.50134 0.99757 0.0
H1289 H 0.44018 0.47937 0.039 0.0
C1290 C 0.35394 0.46757 0.0597 0.0
C1291 C 0.33277 0.46959 0.05551 0.0
C1292 C 0.33131 0.47888 0.04175 0.0
C1293 C 0.34994 0.48517 0.03212 0.0
C1294 C 0.37024 0.4825 0.03645 0.0
C1295 C 0.37256 0.47424 0.04999 0.0
C1296 C 0.39631 0.47303 0.05189 0.0
C1297 C 0.41393 0.49106 0.06519 0.0
C1298 C 0.39051 0.44626 0.05348 0.0
C1299 C 0.4067 0.48155 0.03722 0.0
C1300 C 0.39132 0.48683 0.02846 0.0
C1301 C 0.39641 0.49397 0.01416 0.0
C1302 C 0.41788 0.49586 0.00868 0.0
C1303 C 0.43408 0.49085 0.01755 0.0
C1304 C 0.42836 0.48369 0.03202 0.0
H1305 H 0.56102 0.8943 0.06642 0.0
H1306 H 0.56142 0.85376 0.02563 0.0
H1307 H 0.54559 0.87598 0.01105 0.0
H1308 H 0.50666 0.89735 0.05597 0.0
H1309 H 0.51907 0.92874 0.06441 0.0
H1310 H 0.52979 0.90915 0.07186 0.0
H1311 H 0.5754 0.94216 0.06873 0.0
H1312 H 0.56483 0.96194 0.06139 0.0
H1313 H 0.58337 0.95316 0.05074 0.0
H1314 H 0.52815 0.90129 1.00089 0.0
H1315 H 0.51445 0.93132 0.99563 0.0
H1316 H 0.52896 0.95806 0.04266 0.0
C1317 C 0.55815 0.89026 0.05441 0.0
C1318 C 0.56217 0.87188 0.04727 0.0
C1319 C 0.55785 0.86716 0.03149 0.0
C1320 C 0.54901 0.87983 0.02306 0.0
C1321 C 0.54496 0.89752 0.03049 0.0
C1322 C 0.54975 0.90305 0.04578 0.0
C1323 C 0.54458 0.92348 0.05095 0.0
C1324 C 0.52379 0.91411 0.06141 0.0
C1325 C 0.56847 0.94656 0.05839 0.0
C1326 C 0.53601 0.92845 0.03618 0.0
C1327 C 0.53609 0.91305 0.02454 0.0
C1328 C 0.52821 0.91361 0.00989 0.0
C1329 C 0.52034 0.93062 0.00702 0.0
C1330 C 0.52077 0.94705 0.01872 0.0
C1331 C 0.52867 0.94586 0.03348 0.0
H1332 H 0.02572 0.23328 0.40492 0.0
H1333 H 0.96794 0.21209 0.36853 0.0
H1334 H 0.99994 0.23572 0.35193 0.0
H1335 H 0.06711 0.29636 0.39509 0.0
H1336 H 0.09501 0.29542 0.40036 0.0
H1337 H 0.06744 0.27784 0.40958 0.0
H1338 H 0.06903 0.23771 0.40265 0.0
H1339 H 0.09643 0.25519 0.39329 0.0
H1340 H 0.06936 0.22857 0.38338 0.0
H1341 H 0.03803 0.25998 0.33894 0.0
H1342 H 0.0799 0.28506 0.33072 0.0
H1343 H 0.11306 0.29074 0.37551 0.0
C1344 C 0.01983 0.23401 0.39353 0.0
C1345 C 0.99434 0.22077 0.388 0.0
C1346 C 0.98737 0.22187 0.37296 0.0
C1347 C 0.00539 0.23529 0.36346 0.0
C1348 C 0.03036 0.24764 0.36914 0.0
C1349 C 0.03763 0.24732 0.38385 0.0
C1350 C 0.06578 0.26175 0.38701 0.0
C1351 C 0.07433 0.28418 0.3987 0.0
C1352 C 0.07572 0.24478 0.39186 0.0
C1353 C 0.0731 0.27 0.37175 0.0
C1354 C 0.05239 0.26168 0.36162 0.0
C1355 C 0.05442 0.26672 0.34678 0.0
C1356 C 0.0783 0.28091 0.3422 0.0
C1357 C 0.09982 0.28989 0.35243 0.0
C1358 C 0.09704 0.28418 0.36738 0.0
H1359 H 0.80274 0.78975 0.37476 0.0
H1360 H 0.76372 0.75318 0.41219 0.0
H1361 H 0.72867 0.75842 0.40361 0.0
H1362 H 0.78456 0.83627 0.37673 0.0
H1363 H 0.78151 0.83702 0.35683 0.0
H1364 H 0.80309 0.82881 0.36517 0.0
H1365 H 0.7818 0.78742 0.34789 0.0
H1366 H 0.76006 0.79546 0.33955 0.0
H1367 H 0.74875 0.76651 0.34769 0.0
H1368 H 0.69803 0.76792 0.39156 0.0
H1369 H 0.67462 0.78368 0.37762 0.0
H1370 H 0.73388 0.81677 0.34869 0.0
C1371 C 0.78689 0.78286 0.3812 0.0
C1372 C 0.78601 0.7705 0.39403 0.0
C1373 C 0.76474 0.76189 0.40205 0.0
C1374 C 0.7447 0.76497 0.39734 0.0
C1375 C 0.74615 0.77702 0.38466 0.0
C1376 C 0.76674 0.78608 0.37676 0.0
C1377 C 0.76391 0.79948 0.36395 0.0
C1378 C 0.78449 0.82703 0.36579 0.0
C1379 C 0.76361 0.78643 0.34887 0.0
C1380 C 0.73857 0.79659 0.36598 0.0
C1381 C 0.72864 0.78333 0.37793 0.0
C1382 C 0.70558 0.77831 0.38217 0.0
C1383 C 0.69239 0.78734 0.37412 0.0
C1384 C 0.70232 0.80149 0.362 0.0
C1385 C 0.7257 0.80597 0.35784 0.0
H1386 H 0.22042 0.01948 0.37914 0.0
H1387 H 0.29415 0.03678 0.39715 0.0
H1388 H 0.28606 0.99605 0.3857 0.0
H1389 H 0.18923 0.95589 0.3849 0.0
H1390 H 0.16856 0.94581 0.36793 0.0
H1391 H 0.18068 0.97676 0.37692 0.0
H1392 H 0.19833 0.99519 0.35252 0.0
H1393 H 0.18625 0.96425 0.34344 0.0
H1394 H 0.21889 0.98689 0.34382 0.0
H1395 H 0.26921 0.95281 0.37317 0.0
H1396 H 0.24464 0.90992 0.36084 0.0
H1397 H 0.18223 0.92144 0.35067 0.0
C1398 C 0.23504 0.01491 0.38047 0.0
C1399 C 0.25795 0.03133 0.389 0.0
C1400 C 0.27638 0.02438 0.39077 0.0
C1401 C 0.27202 0.00139 0.38422 0.0
C1402 C 0.24919 0.98563 0.37592 0.0
C1403 C 0.23102 0.99209 0.37402 0.0
C1404 C 0.20772 0.97145 0.36507 0.0
C1405 C 0.18523 0.96192 0.37426 0.0
C1406 C 0.2025 0.97996 0.35034 0.0
C1407 C 0.2155 0.9522 0.36238 0.0
C1408 C 0.23953 0.96078 0.36866 0.0
C1409 C 0.25045 0.94596 0.3681 0.0
C1410 C 0.23632 0.92161 0.36109 0.0
C1411 C 0.21154 0.91235 0.35475 0.0
C1412 C 0.2012 0.92804 0.35527 0.0
H1413 H 0.55588 0.66289 0.28039 0.0
H1414 H 0.48673 0.65219 0.29578 0.0
H1415 H 0.50931 0.69431 0.30924 0.0
H1416 H 0.59436 0.69553 0.31369 0.0
H1417 H 0.62081 0.71668 0.30462 0.0
H1418 H 0.59906 0.68624 0.29544 0.0
H1419 H 0.59201 0.70611 0.27262 0.0
H1420 H 0.61379 0.73665 0.28174 0.0
H1421 H 0.5826 0.72905 0.27528 0.0
H1422 H 0.53937 0.7365 0.32194 0.0
H1423 H 0.57519 0.77623 0.33324 0.0
H1424 H 0.62495 0.76001 0.3094 0.0
C1425 C 0.54545 0.66958 0.28641 0.0
C1426 C 0.51956 0.65424 0.28709 0.0
C1427 C 0.50662 0.6635 0.29527 0.0
C1428 C 0.51924 0.68745 0.30286 0.0
C1429 C 0.54478 0.70198 0.30211 0.0
C1430 C 0.55777 0.69347 0.29407 0.0
C1431 C 0.58534 0.71254 0.29557 0.0
C1432 C 0.6008 0.70212 0.30276 0.0
C1433 C 0.59393 0.72163 0.2804 0.0
C1434 C 0.58582 0.7329 0.3059 0.0
C1435 C 0.56219 0.72646 0.30944 0.0
C1436 C 0.55796 0.74184 0.31918 0.0
C1437 C 0.57845 0.76436 0.32556 0.0
C1438 C 0.6029 0.77127 0.32221 0.0
C1439 C 0.6065 0.75536 0.31212 0.0
H1440 H 0.33536 0.86445 0.30061 0.0
H1441 H 0.30175 0.84515 0.25473 0.0
H1442 H 0.26096 0.83342 0.26345 0.0
H1443 H 0.28169 0.81353 0.31604 0.0
H1444 H 0.28585 0.8325 0.33303 0.0
H1445 H 0.31239 0.83822 0.3233 0.0
H1446 H 0.32374 0.88408 0.32214 0.0
H1447 H 0.29723 0.8785 0.33182 0.0
H1448 H 0.30082 0.89075 0.31399 0.0
H1449 H 0.22492 0.82764 0.27668 0.0
H1450 H 0.19497 0.82603 0.29392 0.0
H1451 H 0.25034 0.84597 0.33153 0.0
C1452 C 0.31935 0.85729 0.2924 0.0
C1453 C 0.32194 0.856 0.27694 0.0
C1454 C 0.30047 0.84685 0.2666 0.0
C1455 C 0.27713 0.8399 0.27145 0.0
C1456 C 0.27534 0.84182 0.2867 0.0
C1457 C 0.29576 0.85001 0.29706 0.0
C1458 C 0.28873 0.851 0.3128 0.0
C1459 C 0.29238 0.83272 0.32182 0.0
C1460 C 0.30351 0.87767 0.32064 0.0
C1461 C 0.26131 0.84264 0.30961 0.0
C1462 C 0.25406 0.83745 0.29445 0.0
C1463 C 0.23022 0.83119 0.28859 0.0
C1464 C 0.21338 0.83039 0.29845 0.0
C1465 C 0.22031 0.83554 0.31402 0.0
C1466 C 0.24446 0.84138 0.31969 0.0
H1467 H 0.12129 0.45041 0.28018 0.0
H1468 H 0.09355 0.47104 0.31829 0.0
H1469 H 0.10694 0.44799 0.33401 0.0
H1470 H 0.10213 0.38801 0.28905 0.0
H1471 H 0.12922 0.38832 0.28273 0.0
H1472 H 0.11775 0.40678 0.27448 0.0
H1473 H 0.1612 0.44622 0.28099 0.0
H1474 H 0.17274 0.42788 0.28933 0.0
H1475 H 0.17518 0.45453 0.30002 0.0
H1476 H 0.12318 0.42284 0.3456 0.0
H1477 H 0.14007 0.39592 0.35221 0.0
H1478 H 0.15672 0.39092 0.30652 0.0
C1479 C 0.11785 0.44991 0.2918 0.0
C1480 C 0.10654 0.46271 0.29803 0.0
C1481 C 0.10258 0.46176 0.31333 0.0
C1482 C 0.11001 0.44862 0.32233 0.0
C1483 C 0.12131 0.43643 0.31589 0.0
C1484 C 0.12513 0.43683 0.30097 0.0
C1485 C 0.13751 0.42194 0.29683 0.0
C1486 C 0.12064 0.39996 0.28508 0.0
C1487 C 0.16318 0.43865 0.29148 0.0
C1488 C 0.13996 0.41308 0.31175 0.0
C1489 C 0.13057 0.42173 0.32259 0.0
C1490 C 0.1306 0.41593 0.33722 0.0
C1491 C 0.14027 0.40065 0.34087 0.0
C1492 C 0.14975 0.3913 0.3299 0.0
C1493 C 0.14969 0.3978 0.31518 0.0
H1494 H 0.32411 0.42346 0.27778 0.0
H1495 H 0.36271 0.49221 0.30728 0.0
H1496 H 0.32919 0.47507 0.32382 0.0
H1497 H 0.26145 0.41192 0.28164 0.0
H1498 H 0.24826 0.37873 0.28121 0.0
H1499 H 0.27521 0.39671 0.27159 0.0
H1500 H 0.29884 0.37889 0.28629 0.0
H1501 H 0.27197 0.36118 0.29604 0.0
H1502 H 0.30164 0.38241 0.30638 0.0
H1503 H 0.29155 0.45045 0.33737 0.0
H1504 H 0.2521 0.42005 0.34663 0.0
H1505 H 0.23799 0.36755 0.30829 0.0
C1506 C 0.32539 0.43496 0.28765 0.0
C1507 C 0.3462 0.45909 0.29129 0.0
C1508 C 0.34722 0.47348 0.30439 0.0
C1509 C 0.32818 0.46398 0.31383 0.0
C1510 C 0.30812 0.44005 0.31004 0.0
C1511 C 0.30652 0.42573 0.29725 0.0
C1512 C 0.28301 0.40048 0.29586 0.0
C1513 C 0.26598 0.39676 0.28174 0.0
C1514 C 0.28925 0.37951 0.29617 0.0
C1515 C 0.27172 0.4029 0.30984 0.0
C1516 C 0.28647 0.42586 0.31787 0.0
C1517 C 0.27982 0.43238 0.33117 0.0
C1518 C 0.2574 0.41499 0.33636 0.0
C1519 C 0.24194 0.39136 0.32826 0.0
C1520 C 0.24938 0.38537 0.31484 0.0
H1521 H 0.54618 0.87253 0.27583 0.0
H1522 H 0.53577 0.91478 0.31183 0.0
H1523 H 0.56806 0.9131 0.32811 0.0
H1524 H 0.55394 0.83175 0.2981 0.0
H1525 H 0.57735 0.8305 0.28785 0.0
H1526 H 0.55477 0.83656 0.27862 0.0
H1527 H 0.5904 0.8773 0.27047 0.0
H1528 H 0.61308 0.87129 0.27968 0.0
H1529 H 0.61396 0.90028 0.28436 0.0
H1530 H 0.59943 0.90478 0.34094 0.0
H1531 H 0.62769 0.89003 0.34959 0.0
H1532 H 0.6183 0.85347 0.30526 0.0
C1533 C 0.55104 0.88181 0.28705 0.0
C1534 C 0.53845 0.89378 0.29258 0.0
C1535 C 0.545 0.90529 0.30742 0.0
C1536 C 0.56343 0.90458 0.31671 0.0
C1537 C 0.57523 0.89236 0.31101 0.0
C1538 C 0.56938 0.88121 0.29652 0.0
C1539 C 0.58401 0.86819 0.29342 0.0
C1540 C 0.56647 0.84009 0.28926 0.0
C1541 C 0.6014 0.87998 0.28126 0.0
C1542 C 0.59869 0.87347 0.3085 0.0
C1543 C 0.59345 0.88757 0.31844 0.0
C1544 C 0.60387 0.89392 0.33322 0.0
C1545 C 0.61988 0.88541 0.33804 0.0
C1546 C 0.62532 0.87067 0.32811 0.0
C1547 C 0.61477 0.86494 0.31309 0.0
H1548 H 0.09551 0.66531 0.27748 0.0
H1549 H 0.05896 0.62325 0.31386 0.0
H1550 H 0.06892 0.6622 0.32874 0.0
H1551 H 0.14521 0.71514 0.29915 0.0
H1552 H 0.14684 0.73885 0.28801 0.0
H1553 H 0.13453 0.70757 0.27954 0.0
H1554 H 0.09359 0.706 0.27006 0.0
H1555 H 0.10588 0.73743 0.2784 0.0
H1556 H 0.07649 0.7129 0.28312 0.0
H1557 H 0.0867 0.70575 0.34061 0.0
H1558 H 0.10952 0.75099 0.34823 0.0
H1559 H 0.13331 0.76463 0.30385 0.0
C1560 C 0.08898 0.66423 0.28841 0.0
C1561 C 0.07648 0.64126 0.29452 0.0
C1562 C 0.06878 0.64068 0.30902 0.0
C1563 C 0.07421 0.66267 0.31752 0.0
C1564 C 0.08715 0.68507 0.31132 0.0
C1565 C 0.09421 0.68601 0.29704 0.0
C1566 C 0.1092 0.71261 0.29334 0.0
C1567 C 0.1355 0.7189 0.28981 0.0
C1568 C 0.09546 0.71752 0.28047 0.0
C1569 C 0.11002 0.72647 0.30791 0.0
C1570 C 0.09708 0.71024 0.31811 0.0
C1571 C 0.09656 0.71866 0.33265 0.0
C1572 C 0.10966 0.74437 0.33689 0.0
C1573 C 0.12303 0.7613 0.32661 0.0
C1574 C 0.12294 0.75216 0.3119 0.0
H1575 H 0.80952 0.01921 0.37945 0.0
H1576 H 0.82406 0.99927 0.42258 0.0
H1577 H 0.79464 0.95501 0.41426 0.0
H1578 H 0.74549 0.9769 0.37461 0.0
H1579 H 0.74371 0.96924 0.35485 0.0
H1580 H 0.76772 0.99915 0.36357 0.0
H1581 H 0.80149 0.99131 0.35328 0.0
H1582 H 0.77754 0.96137 0.34445 0.0
H1583 H 0.8022 0.96359 0.35713 0.0
H1584 H 0.76124 0.91383 0.40232 0.0
H1585 H 0.72631 0.87772 0.38717 0.0
H1586 H 0.73372 0.92376 0.35142 0.0
C1587 C 0.80692 0.00545 0.38701 0.0
C1588 C 0.81902 0.01263 0.40167 0.0
C1589 C 0.81478 0.99416 0.41135 0.0
C1590 C 0.79824 0.96898 0.4067 0.0
C1591 C 0.78622 0.96255 0.3923 0.0
C1592 C 0.79044 0.98017 0.38254 0.0
C1593 C 0.77398 0.96835 0.36796 0.0
C1594 C 0.7567 0.97905 0.36509 0.0
C1595 C 0.78975 0.97133 0.35493 0.0
C1596 C 0.75946 0.94145 0.37122 0.0
C1597 C 0.76696 0.93854 0.38529 0.0
C1598 C 0.7554 0.91577 0.3912 0.0
C1599 C 0.7355 0.8954 0.38253 0.0
C1600 C 0.72737 0.89793 0.3681 0.0
C1601 C 0.73976 0.92121 0.36233 0.0
H1602 H 0.99098 0.78716 0.37907 0.0
H1603 H 0.02531 0.82277 0.42359 0.0
H1604 H 0.06686 0.83863 0.41487 0.0
H1605 H 0.03492 0.76842 0.37045 0.0
H1606 H 0.03485 0.77443 0.35119 0.0
H1607 H 0.00765 0.7663 0.36077 0.0
H1608 H 0.00864 0.80658 0.35398 0.0
H1609 H 0.0359 0.81486 0.3444 0.0
H1610 H 0.03657 0.83623 0.35904 0.0
H1611 H 0.10454 0.84967 0.40174 0.0
H1612 H 0.1363 0.85496 0.38507 0.0
H1613 H 0.07828 0.81313 0.34862 0.0
C1614 C 0.00723 0.79853 0.38695 0.0
C1615 C 0.00478 0.80359 0.40207 0.0
C1616 C 0.0266 0.81827 0.41204 0.0
C1617 C 0.05032 0.82755 0.40716 0.0
C1618 C 0.05205 0.82213 0.39224 0.0
C1619 C 0.03114 0.80799 0.38225 0.0
C1620 C 0.03834 0.80447 0.36689 0.0
C1621 C 0.02835 0.77676 0.36205 0.0
C1622 C 0.02933 0.81624 0.3554 0.0
C1623 C 0.06656 0.81869 0.36986 0.0
C1624 C 0.07398 0.82875 0.38456 0.0
C1625 C 0.09897 0.84201 0.39018 0.0
C1626 C 0.11689 0.84487 0.38059 0.0
C1627 C 0.10986 0.83455 0.36548 0.0
C1628 C 0.0843 0.82152 0.36004 0.0
H1629 H 0.23351 0.23773 0.39987 0.0
H1630 H 0.22592 0.18912 0.36088 0.0
H1631 H 0.20901 0.20966 0.34552 0.0
H1632 H 0.17886 0.24156 0.3907 0.0
H1633 H 0.19326 0.27408 0.39733 0.0
H1634 H 0.204 0.255 0.4055 0.0
H1635 H 0.24892 0.28533 0.3995 0.0
H1636 H 0.2383 0.30456 0.3914 0.0
H1637 H 0.25443 0.29282 0.38062 0.0
H1638 H 0.19192 0.23482 0.3344 0.0
H1639 H 0.17923 0.26529 0.32804 0.0
H1640 H 0.20085 0.29921 0.37382 0.0
C1641 C 0.22857 0.23152 0.38808 0.0
C1642 C 0.23078 0.2115 0.38169 0.0
C1643 C 0.22383 0.20394 0.36619 0.0
C1644 C 0.21434 0.2156 0.35731 0.0
C1645 C 0.21217 0.23504 0.36401 0.0
C1646 C 0.21935 0.24316 0.379 0.0
C1647 C 0.21582 0.26497 0.38335 0.0
C1648 C 0.19685 0.2585 0.3949 0.0
C1649 C 0.24086 0.2883 0.38905 0.0
C1650 C 0.20556 0.26782 0.36845 0.0
C1651 C 0.20332 0.25021 0.35747 0.0
C1652 C 0.19373 0.24882 0.34288 0.0
C1653 C 0.18649 0.26611 0.33938 0.0
C1654 C 0.18923 0.28467 0.35041 0.0
C1655 C 0.1988 0.28539 0.36512 0.0
H1656 H 0.6754 0.52927 0.71376 0.0
H1657 H 0.65599 0.58332 0.73103 0.0
H1658 H 0.68923 0.61559 0.71824 0.0
H1659 H 0.74123 0.57051 0.71712 0.0
H1660 H 0.74594 0.55731 0.70017 0.0
H1661 H 0.72025 0.53828 0.71043 0.0
H1662 H 0.68956 0.52726 0.68678 0.0
H1663 H 0.71517 0.54641 0.67647 0.0
H1664 H 0.68942 0.55191 0.67739 0.0
H1665 H 0.72543 0.64235 0.70456 0.0
H1666 H 0.76313 0.66222 0.69129 0.0
H1667 H 0.75822 0.59074 0.68182 0.0
C1668 C 0.67795 0.54783 0.71472 0.0
C1669 C 0.66307 0.55374 0.72346 0.0
C1670 C 0.66735 0.57838 0.72461 0.0
C1671 C 0.68604 0.5968 0.71727 0.0
C1672 C 0.70026 0.59031 0.70873 0.0
C1673 C 0.69652 0.56646 0.70743 0.0
C1674 C 0.71496 0.56464 0.6979 0.0
C1675 C 0.73157 0.55725 0.70695 0.0
C1676 C 0.70146 0.54648 0.6838 0.0
C1677 C 0.72973 0.59125 0.69412 0.0
C1678 C 0.72088 0.60571 0.70049 0.0
C1679 C 0.73233 0.63118 0.69937 0.0
C1680 C 0.75369 0.64228 0.6918 0.0
C1681 C 0.76327 0.62792 0.68533 0.0
C1682 C 0.75085 0.602 0.68629 0.0
H1683 H 0.474 0.12025 0.71437 0.0
H1684 H 0.4483 0.11185 0.75849 0.0
H1685 H 0.41308 0.11654 0.74915 0.0
H1686 H 0.45984 0.16816 0.70634 0.0
H1687 H 0.45037 0.15712 0.68685 0.0
H1688 H 0.47308 0.15195 0.69678 0.0
H1689 H 0.4457 0.10459 0.68892 0.0
H1690 H 0.42286 0.10961 0.67901 0.0
H1691 H 0.41379 0.0884 0.69316 0.0
H1692 H 0.38066 0.12216 0.73524 0.0
H1693 H 0.35419 0.13033 0.71791 0.0
H1694 H 0.40177 0.13743 0.683 0.0
C1695 C 0.46111 0.11956 0.72213 0.0
C1696 C 0.46392 0.11533 0.73717 0.0
C1697 C 0.44636 0.11439 0.74684 0.0
C1698 C 0.42633 0.11724 0.74167 0.0
C1699 C 0.42412 0.12126 0.72681 0.0
C1700 C 0.4411 0.12262 0.71719 0.0
C1701 C 0.43473 0.12784 0.70184 0.0
C1702 C 0.45576 0.15275 0.69772 0.0
C1703 C 0.42892 0.10632 0.69004 0.0
C1704 C 0.41154 0.12923 0.70438 0.0
C1705 C 0.40569 0.12518 0.71884 0.0
C1706 C 0.38506 0.12536 0.72388 0.0
C1707 C 0.37006 0.12994 0.7139 0.0
C1708 C 0.3758 0.13449 0.69905 0.0
C1709 C 0.39687 0.13407 0.69427 0.0
H1710 H 0.91123 0.3692 0.70862 0.0
H1711 H 0.96811 0.37349 0.741 0.0
H1712 H 0.95537 0.33002 0.73283 0.0
H1713 H 0.86521 0.30891 0.71212 0.0
H1714 H 0.85412 0.30025 0.6926 0.0
H1715 H 0.86867 0.33231 0.70014 0.0
H1716 H 0.90091 0.34498 0.68078 0.0
H1717 H 0.88625 0.31295 0.67302 0.0
H1718 H 0.91908 0.32982 0.67926 0.0
H1719 H 0.93306 0.28496 0.72362 0.0
H1720 H 0.90594 0.24216 0.71148 0.0
H1721 H 0.86651 0.26797 0.68325 0.0
C1722 C 0.92157 0.36134 0.71373 0.0
C1723 C 0.94051 0.37481 0.72562 0.0
C1724 C 0.95314 0.36347 0.73213 0.0
C1725 C 0.94619 0.33882 0.72749 0.0
C1726 C 0.92695 0.3259 0.71609 0.0
C1727 C 0.91519 0.33689 0.70905 0.0
C1728 C 0.89471 0.31865 0.69728 0.0
C1729 C 0.86917 0.31481 0.70075 0.0
C1730 C 0.9006 0.32711 0.68165 0.0
C1731 C 0.89635 0.2955 0.69913 0.0
C1732 C 0.915 0.3001 0.71012 0.0
C1733 C 0.91878 0.28122 0.71477 0.0
C1734 C 0.90321 0.25701 0.70791 0.0
C1735 C 0.88444 0.25203 0.6964 0.0
C1736 C 0.88108 0.27152 0.69186 0.0
H1737 H 0.22898 0.97245 0.61616 0.0
H1738 H 0.16065 0.9592 0.63408 0.0
H1739 H 0.18326 0.00058 0.64838 0.0
H1740 H 0.26985 0.0051 0.64944 0.0
H1741 H 0.29504 0.02717 0.63989 0.0
H1742 H 0.27356 0.9966 0.63073 0.0
H1743 H 0.26359 0.01614 0.60873 0.0
H1744 H 0.28517 0.04677 0.61779 0.0
H1745 H 0.25331 0.03819 0.61243 0.0
H1746 H 0.2128 0.04272 0.6609 0.0
H1747 H 0.24763 0.08413 0.67056 0.0
H1748 H 0.29736 0.07083 0.64469 0.0
C1749 C 0.21878 0.9784 0.62299 0.0
C1750 C 0.19309 0.96252 0.62411 0.0
C1751 C 0.18041 0.97089 0.63324 0.0
C1752 C 0.19305 0.99439 0.64136 0.0
C1753 C 0.2184 0.0094 0.64022 0.0
C1754 C 0.23117 0.00188 0.63124 0.0
C1755 C 0.25847 0.02174 0.63215 0.0
C1756 C 0.27521 0.01207 0.63843 0.0
C1757 C 0.26554 0.03128 0.61686 0.0
C1758 C 0.25897 0.04151 0.64306 0.0
C1759 C 0.23561 0.03394 0.64753 0.0
C1760 C 0.23119 0.04891 0.65748 0.0
C1761 C 0.25114 0.07242 0.66291 0.0
C1762 C 0.27527 0.08077 0.65841 0.0
C1763 C 0.27919 0.06496 0.64842 0.0
H1764 H 0.00642 0.19166 0.63198 0.0
H1765 H 0.01432 0.25557 0.61075 0.0
H1766 H 0.97931 0.25339 0.62327 0.0
H1767 H 0.94053 0.15832 0.62949 0.0
H1768 H 0.93848 0.14665 0.64744 0.0
H1769 H 0.96508 0.1538 0.63745 0.0
H1770 H 0.99448 0.18349 0.66016 0.0
H1771 H 0.96794 0.17641 0.67023 0.0
H1772 H 0.99001 0.20825 0.66777 0.0
H1773 H 0.942 0.24284 0.63631 0.0
H1774 H 0.90462 0.22497 0.64993 0.0
H1775 H 0.92112 0.16903 0.66411 0.0
C1776 C 1.00105 0.20544 0.63016 0.0
C1777 C 0.01307 0.22368 0.62024 0.0
C1778 C 0.00518 0.24114 0.61804 0.0
C1779 C 0.98543 0.2402 0.62521 0.0
C1780 C 0.9738 0.22184 0.63471 0.0
C1781 C 0.98133 0.20484 0.63732 0.0
C1782 C 0.96496 0.18652 0.64774 0.0
C1783 C 0.95147 0.15974 0.64007 0.0
C1784 C 0.98027 0.18881 0.66234 0.0
C1785 C 0.94682 0.19566 0.65034 0.0
C1786 C 0.95241 0.21611 0.6427 0.0
C1787 C 0.93766 0.2271 0.64254 0.0
C1788 C 0.9165 0.21684 0.65028 0.0
C1789 C 0.91038 0.19598 0.6582 0.0
C1790 C 0.92583 0.18536 0.65839 0.0
H1791 H 0.78048 0.77516 0.61964 0.0
H1792 H 0.8315 0.84309 0.64784 0.0
H1793 H 0.84865 0.82045 0.66107 0.0
H1794 H 0.7674 0.73359 0.64719 0.0
H1795 H 0.76639 0.70917 0.63487 0.0
H1796 H 0.75856 0.73091 0.62751 0.0
H1797 H 0.79209 0.7422 0.60903 0.0
H1798 H 0.80002 0.72048 0.61633 0.0
H1799 H 0.8238 0.75254 0.61607 0.0
H1800 H 0.85957 0.78985 0.67153 0.0
H1801 H 0.86318 0.75384 0.67836 0.0
H1802 H 0.80569 0.70679 0.64263 0.0
C1803 C 0.79552 0.78544 0.62844 0.0
C1804 C 0.80464 0.81094 0.63269 0.0
C1805 C 0.82398 0.82348 0.64451 0.0
C1806 C 0.83397 0.81083 0.65201 0.0
C1807 C 0.8245 0.78569 0.64751 0.0
C1808 C 0.80576 0.77318 0.63596 0.0
C1809 C 0.79855 0.74611 0.6334 0.0
C1810 C 0.7711 0.72894 0.6359 0.0
C1811 C 0.80394 0.73998 0.61778 0.0
C1812 C 0.81597 0.74526 0.64542 0.0
C1813 C 0.83087 0.76824 0.65343 0.0
C1814 C 0.84807 0.77178 0.66529 0.0
C1815 C 0.84998 0.75122 0.66909 0.0
C1816 C 0.83472 0.72747 0.66105 0.0
C1817 C 0.81767 0.72466 0.64901 0.0
H1818 H 0.98868 0.75369 0.61042 0.0
H1819 H 0.04217 0.75717 0.64495 0.0
H1820 H 0.00825 0.73495 0.66074 0.0
H1821 H 0.95148 0.76434 0.6342 0.0
H1822 H 0.92222 0.74307 0.62344 0.0
H1823 H 0.95036 0.75775 0.61437 0.0
H1824 H 0.94246 0.71455 0.60375 0.0
H1825 H 0.91412 0.69978 0.61267 0.0
H1826 H 0.93772 0.69147 0.61628 0.0
H1827 H 0.96891 0.71486 0.67348 0.0
H1828 H 0.92655 0.69616 0.68159 0.0
H1829 H 0.89876 0.70512 0.63853 0.0
C1830 C 0.99318 0.74927 0.62115 0.0
C1831 C 0.01811 0.75724 0.62646 0.0
C1832 C 0.02325 0.7515 0.64072 0.0
C1833 C 0.00411 0.7388 0.64975 0.0
C1834 C 0.97985 0.73179 0.64435 0.0
C1835 C 0.97427 0.73658 0.63032 0.0
C1836 C 0.94675 0.72771 0.62736 0.0
C1837 C 0.94247 0.74952 0.62469 0.0
C1838 C 0.93455 0.70715 0.61424 0.0
C1839 C 0.93782 0.71751 0.64198 0.0
C1840 C 0.95717 0.72002 0.65164 0.0
C1841 C 0.95355 0.71259 0.66597 0.0
C1842 C 0.92945 0.7021 0.6705 0.0
C1843 C 0.9093 0.69911 0.66072 0.0
C1844 C 0.9137 0.70699 0.64629 0.0
H1845 H 0.20454 0.21247 0.63371 0.0
H1846 H 0.20362 0.18694 0.58774 0.0
H1847 H 0.23379 0.17419 0.59556 0.0
H1848 H 0.26972 0.23654 0.64422 0.0
H1849 H 0.26562 0.22637 0.66263 0.0
H1850 H 0.24371 0.23356 0.65359 0.0
H1851 H 0.20744 0.18965 0.657 0.0
H1852 H 0.22923 0.18237 0.66611 0.0
H1853 H 0.20874 0.1626 0.65006 0.0
H1854 H 0.26408 0.16461 0.60792 0.0
H1855 H 0.29216 0.15735 0.62433 0.0
H1856 H 0.27379 0.1883 0.66273 0.0
C1857 C 0.21055 0.20401 0.62532 0.0
C1858 C 0.20189 0.20098 0.61007 0.0
C1859 C 0.21034 0.18994 0.59943 0.0
C1860 C 0.22738 0.18249 0.60377 0.0
C1861 C 0.2358 0.18605 0.61881 0.0
C1862 C 0.22765 0.19641 0.62947 0.0
C1863 C 0.23979 0.19804 0.6449 0.0
C1864 C 0.25565 0.22525 0.65173 0.0
C1865 C 0.22012 0.18222 0.65512 0.0
C1866 C 0.256 0.18699 0.64119 0.0
C1867 C 0.25335 0.18027 0.62605 0.0
C1868 C 0.2663 0.16974 0.61981 0.0
C1869 C 0.2823 0.16575 0.62927 0.0
C1870 C 0.28531 0.17227 0.64488 0.0
C1871 C 0.27197 0.18313 0.65087 0.0
H1872 H 0.77142 0.00362 0.6129 0.0
H1873 H 0.74549 0.96607 0.65254 0.0
H1874 H 0.75573 0.00589 0.66634 0.0
H1875 H 0.82241 0.05678 0.63023 0.0
H1876 H 0.81978 0.07833 0.61886 0.0
H1877 H 0.80749 0.04652 0.61142 0.0
H1878 H 0.76406 0.04184 0.60529 0.0
H1879 H 0.7763 0.07379 0.61261 0.0
H1880 H 0.74947 0.04932 0.61981 0.0
H1881 H 0.77436 0.0498 0.67675 0.0
H1882 H 0.79772 0.09548 0.68275 0.0
H1883 H 0.80923 0.10497 0.63623 0.0
C1884 C 0.76716 0.00364 0.62434 0.0
C1885 C 0.75776 0.98174 0.63167 0.0
C1886 C 0.75299 0.98266 0.64676 0.0
C1887 C 0.75856 0.00515 0.65466 0.0
C1888 C 0.76852 0.0265 0.64725 0.0
C1889 C 0.77245 0.02594 0.63238 0.0
C1890 C 0.7849 0.0519 0.62738 0.0
C1891 C 0.81014 0.05877 0.62164 0.0
C1892 C 0.76765 0.05435 0.61557 0.0
C1893 C 0.78826 0.06718 0.64192 0.0
C1894 C 0.77853 0.05207 0.65321 0.0
C1895 C 0.78147 0.06181 0.66795 0.0
C1896 C 0.79481 0.08768 0.67127 0.0
C1897 C 0.80474 0.10341 0.65988 0.0
C1898 C 0.80116 0.09314 0.645 0.0
H1899 H 0.46083 0.32511 0.73196 0.0
H1900 H 0.4816 0.3641 0.69234 0.0
H1901 H 0.45191 0.32529 0.67671 0.0
H1902 H 0.45314 0.26728 0.71613 0.0
H1903 H 0.42661 0.24841 0.72589 0.0
H1904 H 0.4497 0.27922 0.73397 0.0
H1905 H 0.41537 0.29097 0.73604 0.0
H1906 H 0.39217 0.26018 0.72798 0.0
H1907 H 0.39531 0.28701 0.71962 0.0
H1908 H 0.41995 0.2822 0.66536 0.0
H1909 H 0.38783 0.23799 0.65916 0.0
H1910 H 0.38721 0.22749 0.70625 0.0
C1911 C 0.45901 0.32558 0.72001 0.0
C1912 C 0.47367 0.34769 0.71339 0.0
C1913 C 0.47091 0.34734 0.69767 0.0
C1914 C 0.45396 0.32542 0.6887 0.0
C1915 C 0.43984 0.30399 0.69559 0.0
C1916 C 0.44215 0.3039 0.71088 0.0
C1917 C 0.42473 0.27838 0.7155 0.0
C1918 C 0.43943 0.26769 0.72333 0.0
C1919 C 0.40577 0.27919 0.72537 0.0
C1920 C 0.41227 0.26415 0.70041 0.0
C1921 C 0.42127 0.27924 0.68906 0.0
C1922 C 0.41272 0.2702 0.67415 0.0
C1923 C 0.39448 0.24505 0.67074 0.0
C1924 C 0.38494 0.22925 0.6822 0.0
C1925 C 0.39402 0.23906 0.69722 0.0
H1926 H 0.68932 0.12443 0.73806 0.0
H1927 H 0.67186 0.17828 0.72101 0.0
H1928 H 0.70831 0.19384 0.7067 0.0
H1929 H 0.75744 0.16533 0.74173 0.0
H1930 H 0.76282 0.14027 0.73616 0.0
H1931 H 0.73587 0.13406 0.74556 0.0
H1932 H 0.70754 0.10105 0.72369 0.0
H1933 H 0.73446 0.10751 0.71421 0.0
H1934 H 0.7094 0.10995 0.70498 0.0
H1935 H 0.7454 0.20243 0.69332 0.0
H1936 H 0.78159 0.20436 0.68234 0.0
H1937 H 0.77609 0.14589 0.70852 0.0
C1938 C 0.69337 0.13975 0.73151 0.0
C1939 C 0.67749 0.14994 0.73059 0.0
C1940 C 0.68338 0.16978 0.7217 0.0
C1941 C 0.70418 0.17891 0.7136 0.0
C1942 C 0.71916 0.1682 0.71456 0.0
C1943 C 0.71419 0.1492 0.72337 0.0
C1944 C 0.7331 0.14069 0.72217 0.0
C1945 C 0.7482 0.14538 0.73731 0.0
C1946 C 0.72036 0.11317 0.71589 0.0
C1947 C 0.7492 0.15765 0.71115 0.0
C1948 C 0.74083 0.1734 0.70694 0.0
C1949 C 0.75224 0.19031 0.6966 0.0
C1950 C 0.77277 0.19121 0.69038 0.0
C1951 C 0.78177 0.1753 0.69453 0.0
C1952 C 0.76978 0.15838 0.70512 0.0
H1953 H 0.90381 0.54875 0.702 0.0
H1954 H 0.85384 0.52003 0.7364 0.0
H1955 H 0.82851 0.5367 0.7256 0.0
H1956 H 0.90539 0.60486 0.70226 0.0
H1957 H 0.90627 0.60708 0.68249 0.0
H1958 H 0.91816 0.5895 0.69136 0.0
H1959 H 0.88848 0.55061 0.67307 0.0
H1960 H 0.87647 0.56812 0.66411 0.0
H1961 H 0.85548 0.53945 0.67139 0.0
H1962 H 0.81231 0.56106 0.71359 0.0
H1963 H 0.80633 0.59213 0.70112 0.0
H1964 H 0.86589 0.60472 0.67391 0.0
C1965 C 0.88711 0.54539 0.70696 0.0
C1966 C 0.88067 0.53308 0.71999 0.0
C1967 C 0.8591 0.52953 0.72645 0.0
C1968 C 0.8445 0.53875 0.72032 0.0
C1969 C 0.85165 0.55132 0.70768 0.0
C1970 C 0.87237 0.55459 0.701 0.0
C1971 C 0.87735 0.571 0.68842 0.0
C1972 C 0.90332 0.5945 0.69132 0.0
C1973 C 0.87425 0.55642 0.67335 0.0
C1974 C 0.8568 0.57723 0.68949 0.0
C1975 C 0.84199 0.56536 0.70054 0.0
C1976 C 0.82338 0.57003 0.70468 0.0
C1977 C 0.82017 0.58774 0.69759 0.0
C1978 C 0.83544 0.60046 0.68646 0.0
C1979 C 0.85352 0.59467 0.68208 0.0
H1980 H 0.48694 0.94121 0.17177 0.0
H1981 H 0.43307 0.96304 0.18296 0.0
H1982 H 0.43788 0.98253 0.15957 0.0
H1983 H 0.52786 0.99766 0.15527 0.0
H1984 H 0.53508 0.98159 0.1409 0.0
H1985 H 0.52752 0.96926 0.1586 0.0
H1986 H 0.4923 0.92735 0.14509 0.0
H1987 H 0.49971 0.93957 0.12736 0.0
H1988 H 0.46848 0.92709 0.13258 0.0
H1989 H 0.44743 0.99867 0.13478 0.0
H1990 H 0.46232 0.01176 0.11039 0.0
H1991 H 0.51111 0.98095 0.11533 0.0
C1992 C 0.47636 0.95032 0.16939 0.0
C1993 C 0.45941 0.95031 0.1792 0.0
C1994 C 0.44576 0.96227 0.17553 0.0
C1995 C 0.44849 0.97358 0.1623 0.0
C1996 C 0.4651 0.97301 0.15284 0.0
C1997 C 0.47894 0.96184 0.15622 0.0
C1998 C 0.49543 0.96384 0.14403 0.0
C1999 C 0.52312 0.97899 0.15006 0.0
C2000 C 0.48856 0.93792 0.13684 0.0
C2001 C 0.48859 0.97779 0.13327 0.0
C2002 C 0.47099 0.98279 0.13858 0.0
C2003 C 0.46127 0.99493 0.13052 0.0
C2004 C 0.46974 0.00217 0.11664 0.0
C2005 C 0.48783 0.99735 0.11096 0.0
C2006 C 0.49744 0.9851 0.11946 0.0
H2007 H 0.03521 0.52908 0.17185 0.0
H2008 H 0.99011 0.45391 0.18372 0.0
H2009 H 0.9714 0.43978 0.15761 0.0
H2010 H 0.98849 0.52813 0.14584 0.0
H2011 H 0.01042 0.54616 0.13317 0.0
H2012 H 0.02033 0.55029 0.15278 0.0
H2013 H 0.05527 0.54089 0.14685 0.0
H2014 H 0.04544 0.53669 0.12723 0.0
H2015 H 0.04729 0.51228 0.13591 0.0
H2016 H 0.9574 0.43392 0.13028 0.0
H2017 H 0.94971 0.43655 0.10352 0.0
H2018 H 0.00349 0.5157 0.10959 0.0
C2019 C 0.02126 0.50968 0.16899 0.0
C2020 C 0.01413 0.49258 0.17983 0.0
C2021 C 0.99607 0.46727 0.17557 0.0
C2022 C 0.98524 0.4591 0.1608 0.0
C2023 C 0.99269 0.47646 0.1504 0.0
C2024 C 0.01031 0.5012 0.15429 0.0
C2025 C 0.01518 0.51602 0.14096 0.0
C2026 C 0.00818 0.53635 0.14334 0.0
C2027 C 0.04241 0.52711 0.13754 0.0
C2028 C 0.9975 0.49573 0.12897 0.0
C2029 C 0.98467 0.47307 0.13465 0.0
C2030 C 0.96728 0.45158 0.12571 0.0
C2031 C 0.96293 0.45329 0.11054 0.0
C2032 C 0.97593 0.47633 0.10446 0.0
C2033 C 0.99342 0.49778 0.11386 0.0
H2034 H 0.45363 0.47726 0.16995 0.0
H2035 H 0.47178 0.55427 0.17093 0.0
H2036 H 0.48125 0.55478 0.14484 0.0
H2037 H 0.50124 0.48255 0.14811 0.0
H2038 H 0.48275 0.45268 0.13736 0.0
H2039 H 0.47578 0.45746 0.15592 0.0
H2040 H 0.4304 0.44346 0.14585 0.0
H2041 H 0.43717 0.43838 0.12727 0.0
H2042 H 0.42481 0.45868 0.13099 0.0
H2043 H 0.49153 0.54835 0.11956 0.0
H2044 H 0.49983 0.53454 0.09561 0.0
H2045 H 0.47373 0.46097 0.10997 0.0
C2046 C 0.45918 0.49405 0.16456 0.0
C2047 C 0.46216 0.51581 0.17251 0.0
C2048 C 0.46972 0.53751 0.16512 0.0
C2049 C 0.47505 0.53797 0.15029 0.0
C2050 C 0.4726 0.51651 0.14289 0.0
C2051 C 0.46462 0.49485 0.14965 0.0
C2052 C 0.46421 0.47465 0.13912 0.0
C2053 C 0.48206 0.46635 0.14551 0.0
C2054 C 0.43756 0.45248 0.1356 0.0
C2055 C 0.47354 0.48853 0.12552 0.0
C2056 C 0.47819 0.51263 0.128 0.0
C2057 C 0.48759 0.52939 0.11737 0.0
C2058 C 0.49212 0.52129 0.10374 0.0
C2059 C 0.48712 0.49652 0.10072 0.0
C2060 C 0.47782 0.48002 0.11188 0.0
H2061 H 0.02005 0.52279 0.83815 0.0
H2062 H 0.94794 0.5175 0.83949 0.0
H2063 H 0.9546 0.52414 0.86697 0.0
H2064 H 0.01663 0.48996 0.86957 0.0
H2065 H 0.04913 0.50924 0.87629 0.0
H2066 H 0.03933 0.5054 0.85669 0.0
H2067 H 0.06027 0.55325 0.85666 0.0
H2068 H 0.07018 0.55723 0.87626 0.0
H2069 H 0.05197 0.57051 0.86954 0.0
H2070 H 0.96803 0.52917 0.8942 0.0
H2071 H 0.98754 0.53275 0.91945 0.0
H2072 H 0.05133 0.53548 0.9005 0.0
C2073 C 0.00569 0.52307 0.84423 0.0
C2074 C 0.98352 0.51975 0.83668 0.0
C2075 C 0.96524 0.5204 0.84503 0.0
C2076 C 0.96879 0.52403 0.86063 0.0
C2077 C 0.99078 0.5271 0.86772 0.0
C2078 C 0.00897 0.52677 0.85981 0.0
C2079 C 0.03068 0.53006 0.87017 0.0
C2080 C 0.03413 0.50731 0.86805 0.0
C2081 C 0.05469 0.5542 0.86803 0.0
C2082 C 0.02162 0.53183 0.88514 0.0
C2083 C 0.99862 0.53021 0.88347 0.0
C2084 C 0.98618 0.53076 0.89566 0.0
C2085 C 0.99751 0.53296 0.90997 0.0
C2086 C 0.0211 0.53463 0.912 0.0
C2087 C 0.03326 0.53414 0.89935 0.0
H2088 H 0.55574 0.49567 0.84126 0.0
H2089 H 0.49229 0.49125 0.81553 0.0
H2090 H 0.4775 0.49982 0.83869 0.0
H2091 H 0.52302 0.46485 0.87131 0.0
H2092 H 0.54813 0.48385 0.88562 0.0
H2093 H 0.55488 0.47923 0.86698 0.0
H2094 H 0.58004 0.52694 0.86599 0.0
H2095 H 0.57339 0.53171 0.88466 0.0
H2096 H 0.56545 0.54521 0.86971 0.0
H2097 H 0.46877 0.50746 0.86444 0.0
H2098 H 0.46598 0.51273 0.89135 0.0
H2099 H 0.53421 0.51073 0.9008 0.0
C2100 C 0.53896 0.49691 0.84053 0.0
C2101 C 0.52515 0.49285 0.82661 0.0
C2102 C 0.50304 0.49417 0.82609 0.0
C2103 C 0.49457 0.49914 0.83917 0.0
C2104 C 0.50837 0.50271 0.85272 0.0
C2105 C 0.53008 0.50165 0.85353 0.0
C2106 C 0.54065 0.50497 0.86962 0.0
C2107 C 0.54172 0.48184 0.87361 0.0
C2108 C 0.56641 0.52862 0.87267 0.0
C2109 C 0.52132 0.50775 0.87769 0.0
C2110 C 0.50301 0.50661 0.86769 0.0
C2111 C 0.48297 0.50834 0.87239 0.0
C2112 C 0.48145 0.51112 0.88773 0.0
C2113 C 0.49972 0.51192 0.89826 0.0
C2114 C 0.52004 0.51043 0.89308 0.0
H2115 H 0.52104 0.03575 0.83821 0.0
H2116 H 0.59928 0.09099 0.84909 0.0
H2117 H 0.5968 0.07952 0.87487 0.0
H2118 H 0.50093 0.04683 0.87255 0.0
H2119 H 0.47805 0.01461 0.87342 0.0
H2120 H 0.48635 0.02622 0.85562 0.0
H2121 H 0.49764 0.99225 0.84887 0.0
H2122 H 0.48939 0.98054 0.86666 0.0
H2123 H 0.51993 0.98964 0.86117 0.0
H2124 H 0.58534 0.06312 0.89982 0.0
H2125 H 0.56595 0.04269 0.92185 0.0
H2126 H 0.4949 0.9991 0.89482 0.0
C2127 C 0.53768 0.04551 0.84599 0.0
C2128 C 0.5604 0.06427 0.84153 0.0
C2129 C 0.58176 0.0763 0.8521 0.0
C2130 C 0.5805 0.07002 0.86682 0.0
C2131 C 0.55776 0.05164 0.87084 0.0
C2132 C 0.53675 0.03952 0.86072 0.0
C2133 C 0.51445 0.02085 0.86795 0.0
C2134 C 0.49373 0.02754 0.86735 0.0
C2135 C 0.50479 0.99424 0.86073 0.0
C2136 C 0.52613 0.02449 0.88376 0.0
C2137 C 0.55115 0.04229 0.8852 0.0
C2138 C 0.56577 0.04914 0.89881 0.0
C2139 C 0.55453 0.03753 0.91129 0.0
C2140 C 0.52886 0.01929 0.91011 0.0
C2141 C 0.51461 0.0127 0.89609 0.0
H2142 H 0.14022 0.30191 0.50991 0.0
H2143 H 0.1055 0.22314 0.49547 0.0
H2144 H 0.1115 0.23255 0.46932 0.0
H2145 H 0.11639 0.31941 0.4775 0.0
H2146 H 0.14502 0.34842 0.47714 0.0
H2147 H 0.13619 0.33539 0.49455 0.0
H2148 H 0.17837 0.33672 0.4991 0.0
H2149 H 0.18729 0.34968 0.4817 0.0
H2150 H 0.18734 0.32152 0.48519 0.0
H2151 H 0.12216 0.25051 0.4449 0.0
H2152 H 0.13798 0.27572 0.42392 0.0
H2153 H 0.16824 0.34315 0.45436 0.0
C2154 C 0.13351 0.28668 0.50117 0.0
C2155 C 0.1222 0.26178 0.50462 0.0
C2156 C 0.11416 0.24232 0.493 0.0
C2157 C 0.11743 0.24749 0.47814 0.0
C2158 C 0.12896 0.27225 0.4751 0.0
C2159 C 0.13697 0.29155 0.48628 0.0
C2160 C 0.15013 0.31655 0.48008 0.0
C2161 C 0.13609 0.33078 0.48246 0.0
C2162 C 0.1774 0.33202 0.48692 0.0
C2163 C 0.1484 0.30828 0.4637 0.0
C2164 C 0.13591 0.28265 0.46106 0.0
C2165 C 0.13208 0.27061 0.44684 0.0
C2166 C 0.14137 0.28514 0.435 0.0
C2167 C 0.15465 0.31151 0.43742 0.0
C2168 C 0.15801 0.3231 0.45203 0.0
H2169 H 0.67646 0.84133 0.51673 0.0
H2170 H 0.74076 0.8321 0.51322 0.0
H2171 H 0.73033 0.82254 0.48598 0.0
H2172 H 0.63543 0.79238 0.4875 0.0
H2173 H 0.62133 0.80966 0.48081 0.0
H2174 H 0.63304 0.81444 0.50016 0.0
H2175 H 0.66083 0.86165 0.49808 0.0
H2176 H 0.64923 0.85701 0.47874 0.0
H2177 H 0.68228 0.87186 0.48402 0.0
H2178 H 0.71454 0.81652 0.45913 0.0
H2179 H 0.69419 0.81402 0.43437 0.0
H2180 H 0.63949 0.82619 0.45529 0.0
C2181 C 0.68832 0.83726 0.51023 0.0
C2182 C 0.70935 0.83733 0.5171 0.0
C2183 C 0.72432 0.83176 0.50822 0.0
C2184 C 0.71863 0.82642 0.49274 0.0
C2185 C 0.69784 0.82663 0.48632 0.0
C2186 C 0.68286 0.83182 0.49476 0.0
C2187 C 0.66199 0.83146 0.48504 0.0
C2188 C 0.63643 0.81075 0.48859 0.0
C2189 C 0.6637 0.85702 0.48656 0.0
C2190 C 0.66788 0.82571 0.46979 0.0
C2191 C 0.68856 0.82288 0.47079 0.0
C2192 C 0.69812 0.81835 0.45819 0.0
C2193 C 0.6863 0.8168 0.44417 0.0
C2194 C 0.66507 0.8197 0.44283 0.0
C2195 C 0.65572 0.82402 0.45588 0.0
H2196 H 0.13726 0.84362 0.50208 0.0
H2197 H 0.12871 0.77449 0.51592 0.0
H2198 H 0.13696 0.76401 0.49088 0.0
H2199 H 0.10867 0.81957 0.46416 0.0
H2200 H 0.13003 0.84757 0.45641 0.0
H2201 H 0.12257 0.84922 0.47526 0.0
H2202 H 0.16951 0.87176 0.48479 0.0
H2203 H 0.17711 0.8702 0.46598 0.0
H2204 H 0.18769 0.85751 0.48019 0.0
H2205 H 0.14797 0.7619 0.46463 0.0
H2206 H 0.15983 0.76787 0.43893 0.0
H2207 H 0.16141 0.83843 0.44227 0.0
C2208 C 0.13715 0.82628 0.49986 0.0
C2209 C 0.13226 0.80985 0.51098 0.0
C2210 C 0.13204 0.78722 0.50754 0.0
C2211 C 0.13684 0.78116 0.49337 0.0
C2212 C 0.14173 0.79785 0.48271 0.0
C2213 C 0.14181 0.8199 0.48576 0.0
C2214 C 0.14791 0.83474 0.47239 0.0
C2215 C 0.12599 0.83795 0.46672 0.0
C2216 C 0.17199 0.86005 0.47607 0.0
C2217 C 0.15153 0.81773 0.46141 0.0
C2218 C 0.14788 0.79654 0.46757 0.0
C2219 C 0.15078 0.77838 0.45968 0.0
C2220 C 0.15766 0.78199 0.44511 0.0
C2221 C 0.1615 0.80357 0.43856 0.0
C2222 C 0.15825 0.82156 0.44687 0.0
H2223 H 0.65177 0.84887 0.17214 0.0
H2224 H 0.57886 0.78256 0.16951 0.0
H2225 H 0.58309 0.78273 0.19687 0.0
H2226 H 0.68042 0.83113 0.19947 0.0
H2227 H 0.69967 0.86174 0.20924 0.0
H2228 H 0.68995 0.85833 0.18967 0.0
H2229 H 0.67056 0.88615 0.19471 0.0
H2230 H 0.68046 0.88986 0.21431 0.0
H2231 H 0.64813 0.87824 0.20814 0.0
H2232 H 0.59638 0.78789 0.2239 0.0
H2233 H 0.61771 0.79807 0.24932 0.0
H2234 H 0.68228 0.86119 0.23475 0.0
C2235 C 0.63651 0.8348 0.17742 0.0
C2236 C 0.61493 0.81577 0.16882 0.0
C2237 C 0.59552 0.79726 0.17598 0.0
C2238 C 0.59773 0.79725 0.19148 0.0
C2239 C 0.61948 0.81588 0.19963 0.0
C2240 C 0.63851 0.8344 0.19291 0.0
C2241 C 0.66057 0.85124 0.2042 0.0
C2242 C 0.68403 0.85055 0.20042 0.0
C2243 C 0.66519 0.87796 0.20541 0.0
C2244 C 0.65112 0.83897 0.21824 0.0
C2245 C 0.62729 0.81875 0.21534 0.0
C2246 C 0.6149 0.8039 0.22638 0.0
C2247 C 0.62715 0.8099 0.24079 0.0
C2248 C 0.65159 0.83055 0.24407 0.0
C2249 C 0.66365 0.84525 0.23259 0.0
H2250 H 0.18258 0.81482 0.17585 0.0
H2251 H 0.25115 0.88592 0.17741 0.0
H2252 H 0.24348 0.89831 0.2021 0.0
H2253 H 0.14663 0.83646 0.19453 0.0
H2254 H 0.13149 0.80961 0.20469 0.0
H2255 H 0.14172 0.8068 0.18681 0.0
H2256 H 0.16771 0.78892 0.19858 0.0
H2257 H 0.15752 0.79162 0.21649 0.0
H2258 H 0.19033 0.80633 0.21437 0.0
H2259 H 0.22834 0.90287 0.22686 0.0
H2260 H 0.20789 0.89851 0.25003 0.0
H2261 H 0.15074 0.82351 0.2329 0.0
C2262 C 0.19623 0.83293 0.18137 0.0
C2263 C 0.21751 0.84937 0.1745 0.0
C2264 C 0.23447 0.87308 0.18218 0.0
C2265 C 0.23037 0.88024 0.1963 0.0
C2266 C 0.20932 0.86348 0.20272 0.0
C2267 C 0.19262 0.84025 0.19553 0.0
C2268 C 0.17182 0.82538 0.20502 0.0
C2269 C 0.14642 0.81921 0.1973 0.0
C2270 C 0.17186 0.80166 0.20884 0.0
C2271 C 0.17944 0.84385 0.2187 0.0
C2272 C 0.201 0.86581 0.21711 0.0
C2273 C 0.21147 0.88575 0.22822 0.0
C2274 C 0.19966 0.88315 0.24131 0.0
C2275 C 0.17773 0.8607 0.24327 0.0
C2276 C 0.16758 0.84083 0.23177 0.0
H2277 H 0.18649 0.38292 0.17163 0.0
H2278 H 0.26632 0.43234 0.18131 0.0
H2279 H 0.26388 0.42002 0.2069 0.0
H2280 H 0.17016 0.39537 0.20745 0.0
H2281 H 0.1454 0.3638 0.20797 0.0
H2282 H 0.15355 0.37614 0.19033 0.0
H2283 H 0.16036 0.33973 0.1817 0.0
H2284 H 0.15231 0.32731 0.19932 0.0
H2285 H 0.18172 0.33414 0.19287 0.0
H2286 H 0.25268 0.40253 0.23154 0.0
H2287 H 0.23358 0.38116 0.25334 0.0
H2288 H 0.16085 0.34423 0.22786 0.0
C2289 C 0.20346 0.39134 0.17915 0.0
C2290 C 0.22663 0.4086 0.17439 0.0
C2291 C 0.24841 0.41883 0.18457 0.0
C2292 C 0.24719 0.41206 0.19917 0.0
C2293 C 0.22406 0.39504 0.20346 0.0
C2294 C 0.20258 0.38483 0.19376 0.0
C2295 C 0.18004 0.36704 0.20117 0.0
C2296 C 0.16118 0.37614 0.20177 0.0
C2297 C 0.1679 0.34048 0.1933 0.0
C2298 C 0.19218 0.36887 0.21659 0.0
C2299 C 0.21759 0.3851 0.21767 0.0
C2300 C 0.23278 0.38985 0.23083 0.0
C2301 C 0.22172 0.37774 0.2432 0.0
C2302 C 0.19568 0.36107 0.2424 0.0
C2303 C 0.18083 0.35663 0.22884 0.0
H2304 H 0.8234 0.62848 0.84231 0.0
H2305 H 0.74301 0.58204 0.83346 0.0
H2306 H 0.74529 0.59495 0.80806 0.0
H2307 H 0.83033 0.67856 0.8211 0.0
H2308 H 0.85894 0.68353 0.81426 0.0
H2309 H 0.85091 0.67166 0.83204 0.0
H2310 H 0.85499 0.63356 0.82331 0.0
H2311 H 0.86308 0.64533 0.80553 0.0
H2312 H 0.83723 0.61444 0.80638 0.0
H2313 H 0.75641 0.61196 0.7833 0.0
H2314 H 0.77552 0.6316 0.76104 0.0
H2315 H 0.84883 0.66542 0.78565 0.0
C2316 C 0.80623 0.62091 0.83505 0.0
C2317 C 0.78299 0.60428 0.84001 0.0
C2318 C 0.76101 0.59514 0.83011 0.0
C2319 C 0.76212 0.60224 0.8156 0.0
C2320 C 0.78534 0.61849 0.81108 0.0
C2321 C 0.807 0.6277 0.82051 0.0
C2322 C 0.82965 0.64438 0.81277 0.0
C2323 C 0.84326 0.67112 0.82051 0.0
C2324 C 0.84727 0.63379 0.81195 0.0
C2325 C 0.81735 0.64296 0.79748 0.0
C2326 C 0.79177 0.62801 0.79675 0.0
C2327 C 0.77642 0.62367 0.78373 0.0
C2328 C 0.7875 0.63479 0.77111 0.0
C2329 C 0.81374 0.65002 0.77151 0.0
C2330 C 0.82873 0.65417 0.78497 0.0
H2331 H 0.31805 0.15488 0.84473 0.0
H2332 H 0.38301 0.14591 0.84584 0.0
H2333 H 0.3804 0.1432 0.8184 0.0
H2334 H 0.28503 0.11338 0.811 0.0
H2335 H 0.27321 0.13264 0.8044 0.0
H2336 H 0.2794 0.13256 0.82412 0.0
H2337 H 0.30838 0.18044 0.82663 0.0
H2338 H 0.3024 0.18065 0.80691 0.0
H2339 H 0.33397 0.19397 0.81532 0.0
H2340 H 0.37217 0.14365 0.79102 0.0
H2341 H 0.35803 0.14583 0.76539 0.0
H2342 H 0.29824 0.15431 0.78195 0.0
C2343 C 0.3317 0.15229 0.83921 0.0
C2344 C 0.35066 0.15046 0.84747 0.0
C2345 C 0.36804 0.1469 0.83978 0.0
C2346 C 0.36683 0.14553 0.82419 0.0
C2347 C 0.34811 0.1477 0.81643 0.0
C2348 C 0.33077 0.15087 0.82365 0.0
C2349 C 0.31282 0.15315 0.81267 0.0
C2350 C 0.28603 0.13165 0.81307 0.0
C2351 C 0.31451 0.17857 0.81556 0.0
C2352 C 0.32296 0.15104 0.79816 0.0
C2353 C 0.34329 0.14786 0.80059 0.0
C2354 C 0.35611 0.14587 0.78895 0.0
C2355 C 0.34784 0.14701 0.77442 0.0
C2356 C 0.32689 0.15005 0.77161 0.0
C2357 C 0.3144 0.15215 0.78371 0.0
H2358 H 0.78743 0.18971 0.83101 0.0
H2359 H 0.7742 0.12132 0.84863 0.0
H2360 H 0.7835 0.10765 0.82482 0.0
H2361 H 0.76271 0.16322 0.79227 0.0
H2362 H 0.78629 0.19031 0.78479 0.0
H2363 H 0.77603 0.19346 0.80261 0.0
H2364 H 0.82164 0.21521 0.81476 0.0
H2365 H 0.83202 0.21206 0.79701 0.0
H2366 H 0.83943 0.19972 0.81281 0.0
H2367 H 0.79763 0.10303 0.79981 0.0
H2368 H 0.81441 0.10733 0.77538 0.0
H2369 H 0.8198 0.17945 0.77459 0.0
C2370 C 0.78631 0.17176 0.82985 0.0
C2371 C 0.78003 0.15658 0.84172 0.0
C2372 C 0.77857 0.13313 0.83965 0.0
C2373 C 0.78396 0.12526 0.82619 0.0
C2374 C 0.79067 0.14098 0.81487 0.0
C2375 C 0.79168 0.16367 0.81653 0.0
C2376 C 0.80058 0.17765 0.80297 0.0
C2377 C 0.78018 0.18137 0.7952 0.0
C2378 C 0.82486 0.20263 0.80714 0.0
C2379 C 0.80498 0.15954 0.79355 0.0
C2380 C 0.79897 0.13842 0.80054 0.0
C2381 C 0.80226 0.11943 0.7942 0.0
C2382 C 0.812 0.12215 0.78037 0.0
C2383 C 0.81848 0.14375 0.77304 0.0
C2384 C 0.8147 0.16255 0.77976 0.0
H2385 H 0.3391 0.15681 0.50194 0.0
H2386 H 0.31607 0.21224 0.50372 0.0
H2387 H 0.32968 0.22208 0.53065 0.0
H2388 H 0.31517 0.13277 0.53513 0.0
H2389 H 0.33967 0.12653 0.54069 0.0
H2390 H 0.33148 0.1264 0.52125 0.0
H2391 H 0.37729 0.15935 0.51849 0.0
H2392 H 0.38561 0.15965 0.53798 0.0
H2393 H 0.39227 0.18823 0.53046 0.0
H2394 H 0.34305 0.22379 0.55779 0.0
H2395 H 0.35326 0.21596 0.58296 0.0
H2396 H 0.36388 0.15684 0.5635 0.0
C2397 C 0.3369 0.17108 0.50791 0.0
C2398 C 0.32653 0.18378 0.50056 0.0
C2399 C 0.3244 0.20254 0.50892 0.0
C2400 C 0.33197 0.2082 0.52428 0.0
C2401 C 0.34158 0.19491 0.53117 0.0
C2402 C 0.34398 0.17668 0.52325 0.0
C2403 C 0.3529 0.16364 0.53343 0.0
C2404 C 0.33365 0.13569 0.53257 0.0
C2405 C 0.37855 0.16799 0.52988 0.0
C2406 C 0.35464 0.17703 0.54838 0.0
C2407 C 0.34843 0.19527 0.54683 0.0
C2408 C 0.34798 0.20958 0.55913 0.0
C2409 C 0.35362 0.20484 0.5734 0.0
C2410 C 0.35929 0.18568 0.57529 0.0
C2411 C 0.3601 0.17191 0.56252 0.0
H2412 H 0.88859 0.1997 0.50959 0.0
H2413 H 0.85229 0.11929 0.50165 0.0
H2414 H 0.83949 0.11551 0.52709 0.0
H2415 H 0.91072 0.20463 0.54896 0.0
H2416 H 0.90491 0.22942 0.55449 0.0
H2417 H 0.91253 0.22607 0.53588 0.0
H2418 H 0.87206 0.22418 0.52506 0.0
H2419 H 0.86422 0.22733 0.54363 0.0
H2420 H 0.84253 0.20123 0.5306 0.0
H2421 H 0.8289 0.11989 0.55263 0.0
H2422 H 0.82186 0.13232 0.57744 0.0
H2423 H 0.86502 0.21004 0.56953 0.0
C2424 C 0.87825 0.18139 0.51333 0.0
C2425 C 0.87131 0.15976 0.50366 0.0
C2426 C 0.85756 0.13606 0.50886 0.0
C2427 C 0.85028 0.13372 0.52329 0.0
C2428 C 0.85688 0.15527 0.53245 0.0
C2429 C 0.87063 0.17868 0.52778 0.0
C2430 C 0.87448 0.19868 0.53984 0.0
C2431 C 0.90232 0.2157 0.54511 0.0
C2432 C 0.86261 0.21374 0.53446 0.0
C2433 C 0.86057 0.18277 0.5519 0.0
C2434 C 0.85068 0.15781 0.54737 0.0
C2435 C 0.83675 0.1394 0.55639 0.0
C2436 C 0.83295 0.14666 0.5705 0.0
C2437 C 0.84303 0.17215 0.57552 0.0
C2438 C 0.85694 0.1904 0.56601 0.0
H2439 H 0.87131 0.69732 0.50426 0.0
H2440 H 0.85886 0.75985 0.50946 0.0
H2441 H 0.8496 0.7515 0.53536 0.0
H2442 H 0.82201 0.65731 0.52475 0.0
H2443 H 0.83854 0.64359 0.53333 0.0
H2444 H 0.84593 0.65532 0.51547 0.0
H2445 H 0.89218 0.68375 0.52591 0.0
H2446 H 0.88495 0.67198 0.54378 0.0
H2447 H 0.89987 0.70499 0.54242 0.0
H2448 H 0.84007 0.73568 0.56021 0.0
H2449 H 0.83069 0.7132 0.58262 0.0
H2450 H 0.84894 0.66046 0.56172 0.0
C2451 C 0.86701 0.70944 0.51096 0.0
C2452 C 0.8658 0.72925 0.50487 0.0
C2453 C 0.85972 0.74449 0.51388 0.0
C2454 C 0.85452 0.73995 0.52862 0.0
C2455 C 0.85541 0.72004 0.53422 0.0
C2456 C 0.86152 0.70502 0.52573 0.0
C2457 C 0.86012 0.68425 0.53436 0.0
C2458 C 0.84048 0.65861 0.52651 0.0
C2459 C 0.88581 0.68638 0.53676 0.0
C2460 C 0.85204 0.68985 0.54894 0.0
C2461 C 0.84962 0.7107 0.54862 0.0
C2462 C 0.84209 0.71944 0.56065 0.0
C2463 C 0.83692 0.70659 0.57337 0.0
C2464 C 0.83921 0.68513 0.57402 0.0
C2465 C 0.84686 0.67671 0.56157 0.0
loop_
_geom_bond_atom_site_label_1
_geom_bond_atom_site_label_2
_geom_bond_distance
_geom_bond_site_symmetry_2
_ccdc_geom_bond_type
C0 C1 1.384 . S
C0 H13 0.947 . S
C0 C35 1.382 . S
C1 C0 1.384 . S
C1 C2 1.378 . S
C2 C1 1.378 . S
C2 C3 1.378 . S
C2 H14 0.952 . S
C3 C2 1.378 . S
C3 H15 0.950 . S
C3 C34 1.383 . S
H4 C23 0.947 . S
H5 C24 0.946 . S
H6 C26 0.953 . S
H7 C27 0.945 . S
H8 C29 0.952 . S
H9 C30 0.949 . S
H10 C32 0.950 . S
H11 C33 0.948 . S
H12 C35 0.951 . S
H13 C0 0.947 . S
H14 C2 0.952 . S
H15 C3 0.950 . S
N16 C19 1.382 . S
N16 C21 1.363 . S
N17 C19 1.371 . S
N17 C20 1.372 . S
N18 C20 1.361 . S
N18 C21 1.377 . S
C19 N16 1.382 . S
C19 N17 1.371 . S
C19 C22 1.480 . S
C20 N17 1.372 . S
C20 N18 1.361 . S
C20 C28 1.457 . S
C21 N16 1.363 . S
C21 N18 1.377 . S
C21 C34 1.479 . S
C22 C19 1.480 . S
C22 C23 1.383 . S
C22 C27 1.385 . S
C23 H4 0.947 . S
C23 C22 1.383 . S
C23 C24 1.388 . S
C24 H5 0.946 . S
C24 C23 1.388 . S
C24 C25 1.384 . S
C25 C24 1.384 . S
C25 C26 1.377 . S
C26 H6 0.953 . S
C26 C25 1.377 . S
C26 C27 1.369 . S
C27 H7 0.945 . S
C27 C22 1.385 . S
C27 C26 1.369 . S
C28 C20 1.457 . S
C28 C29 1.372 . S
C28 C33 1.364 . S
C29 H8 0.952 . S
C29 C28 1.372 . S
C29 C30 1.389 . S
C30 H9 0.949 . S
C30 C29 1.389 . S
C30 C31 1.387 . S
C31 C30 1.387 . S
C31 C32 1.372 . S
C32 H10 0.950 . S
C32 C31 1.372 . S
C32 C33 1.379 . S
C33 H11 0.948 . S
C33 C28 1.364 . S
C33 C32 1.379 . S
C34 C3 1.383 . S
C34 C21 1.479 . S
C34 C35 1.398 . S
C35 C0 1.382 . S
C35 H12 0.951 . S
C35 C34 1.398 . S
C36 C37 1.384 . S
C36 H49 0.947 . S
C36 C71 1.382 . S
C37 C36 1.384 . S
C37 C38 1.378 . S
C38 C37 1.378 . S
C38 C39 1.378 . S
C38 H50 0.952 . S
C39 C38 1.378 . S
C39 H51 0.950 . S
C39 C70 1.383 . S
H40 C59 0.947 . S
H41 C60 0.946 . S
H42 C62 0.953 . S
H43 C63 0.945 . S
H44 C65 0.952 . S
H45 C66 0.949 . S
H46 C68 0.950 . S
H47 C69 0.948 . S
H48 C71 0.951 . S
H49 C36 0.947 . S
H50 C38 0.952 . S
H51 C39 0.950 . S
N52 C55 1.382 . S
N52 C57 1.363 . S
N53 C55 1.371 . S
N53 C56 1.372 . S
N54 C56 1.361 . S
N54 C57 1.377 . S
C55 N52 1.382 . S
C55 N53 1.371 . S
C55 C58 1.480 . S
C56 N53 1.372 . S
C56 N54 1.361 . S
C56 C64 1.457 . S
C57 N52 1.363 . S
C57 N54 1.377 . S
C57 C70 1.479 . S
C58 C55 1.480 . S
C58 C59 1.383 . S
C58 C63 1.385 . S
C59 H40 0.947 . S
C59 C58 1.383 . S
C59 C60 1.388 . S
C60 H41 0.946 . S
C60 C59 1.388 . S
C60 C61 1.384 . S
C61 C60 1.384 . S
C61 C62 1.377 . S
C62 H42 0.953 . S
C62 C61 1.377 . S
C62 C63 1.369 . S
C63 H43 0.945 . S
C63 C58 1.385 . S
C63 C62 1.369 . S
C64 C56 1.457 . S
C64 C65 1.372 . S
C64 C69 1.364 . S
C65 H44 0.952 . S
C65 C64 1.372 . S
C65 C66 1.389 . S
C66 H45 0.949 . S
C66 C65 1.389 . S
C66 C67 1.387 . S
C67 C66 1.387 . S
C67 C68 1.372 . S
C68 H46 0.950 . S
C68 C67 1.372 . S
C68 C69 1.379 . S
C69 H47 0.948 . S
C69 C64 1.364 . S
C69 C68 1.379 . S
C70 C39 1.383 . S
C70 C57 1.479 . S
C70 C71 1.398 . S
C71 C36 1.382 . S
C71 H48 0.951 . S
C71 C70 1.398 . S
C72 C73 1.384 . S
C72 H85 0.947 . S
C72 C107 1.382 . S
C73 C72 1.384 . S
C73 C74 1.378 . S
C74 C73 1.378 . S
C74 C75 1.378 . S
C74 H86 0.952 . S
C75 C74 1.378 . S
C75 H87 0.950 . S
C75 C106 1.383 . S
H76 C95 0.947 . S
H77 C96 0.946 . S
H78 C98 0.953 . S
H79 C99 0.945 . S
H80 C101 0.952 . S
H81 C102 0.949 . S
H82 C104 0.950 . S
H83 C105 0.948 . S
H84 C107 0.951 . S
H85 C72 0.947 . S
H86 C74 0.952 . S
H87 C75 0.950 . S
N88 C91 1.382 . S
N88 C93 1.363 . S
N89 C91 1.371 . S
N89 C92 1.372 . S
N90 C92 1.361 . S
N90 C93 1.377 . S
C91 N88 1.382 . S
C91 N89 1.371 . S
C91 C94 1.480 . S
C92 N89 1.372 . S
C92 N90 1.361 . S
C92 C100 1.457 . S
C93 N88 1.363 . S
C93 N90 1.377 . S
C93 C106 1.479 . S
C94 C91 1.480 . S
C94 C95 1.383 . S
C94 C99 1.385 . S
C95 H76 0.947 . S
C95 C94 1.383 . S
C95 C96 1.388 . S
C96 H77 0.946 . S
C96 C95 1.388 . S
C96 C97 1.384 . S
C97 C96 1.384 . S
C97 C98 1.377 . S
C98 H78 0.953 . S
C98 C97 1.377 . S
C98 C99 1.369 . S
C99 H79 0.945 . S
C99 C94 1.385 . S
C99 C98 1.369 . S
C100 C92 1.457 . S
C100 C101 1.372 . S
C100 C105 1.364 . S
C101 H80 0.952 . S
C101 C100 1.372 . S
C101 C102 1.389 . S
C102 H81 0.949 . S
C102 C101 1.389 . S
C102 C103 1.387 . S
C103 C102 1.387 . S
C103 C104 1.372 . S
C104 H82 0.950 . S
C104 C103 1.372 . S
C104 C105 1.379 . S
C105 H83 0.948 . S
C105 C100 1.364 . S
C105 C104 1.379 . S
C106 C75 1.383 . S
C106 C93 1.479 . S
C106 C107 1.398 . S
C107 C72 1.382 . S
C107 H84 0.951 . S
C107 C106 1.398 . S
C108 C109 1.384 . S
C108 H121 0.947 . S
C108 C143 1.382 . S
C109 C108 1.384 . S
C109 C110 1.378 . S
C110 C109 1.378 . S
C110 C111 1.378 . S
C110 H122 0.952 . S
C111 C110 1.378 . S
C111 H123 0.950 . S
C111 C142 1.383 . S
H112 C131 0.947 . S
H113 C132 0.946 . S
H114 C134 0.953 . S
H115 C135 0.945 . S
H116 C137 0.952 . S
H117 C138 0.949 . S
H118 C140 0.950 . S
H119 C141 0.948 . S
H120 C143 0.951 . S
H121 C108 0.947 . S
H122 C110 0.952 . S
H123 C111 0.950 . S
N124 C127 1.382 . S
N124 C129 1.363 . S
N125 C127 1.371 . S
N125 C128 1.372 . S
N126 C128 1.361 . S
N126 C129 1.377 . S
C127 N124 1.382 . S
C127 N125 1.371 . S
C127 C130 1.480 . S
C128 N125 1.372 . S
C128 N126 1.361 . S
C128 C136 1.457 . S
C129 N124 1.363 . S
C129 N126 1.377 . S
C129 C142 1.479 . S
C130 C127 1.480 . S
C130 C131 1.383 . S
C130 C135 1.385 . S
C131 H112 0.947 . S
C131 C130 1.383 . S
C131 C132 1.388 . S
C132 H113 0.946 . S
C132 C131 1.388 . S
C132 C133 1.384 . S
C133 C132 1.384 . S
C133 C134 1.377 . S
C134 H114 0.953 . S
C134 C133 1.377 . S
C134 C135 1.369 . S
C135 H115 0.945 . S
C135 C130 1.385 . S
C135 C134 1.369 . S
C136 C128 1.457 . S
C136 C137 1.372 . S
C136 C141 1.364 . S
C137 H116 0.952 . S
C137 C136 1.372 . S
C137 C138 1.389 . S
C138 H117 0.949 . S
C138 C137 1.389 . S
C138 C139 1.387 . S
C139 C138 1.387 . S
C139 C140 1.372 . S
C140 H118 0.950 . S
C140 C139 1.372 . S
C140 C141 1.379 . S
C141 H119 0.948 . S
C141 C136 1.364 . S
C141 C140 1.379 . S
C142 C111 1.383 . S
C142 C129 1.479 . S
C142 C143 1.398 . S
C143 C108 1.382 . S
C143 H120 0.951 . S
C143 C142 1.398 . S
C144 C145 1.384 . S
C144 H157 0.947 . S
C144 C179 1.382 . S
C145 C144 1.384 . S
C145 C146 1.378 . S
C146 C145 1.378 . S
C146 C147 1.378 . S
C146 H158 0.952 . S
C147 C146 1.378 . S
C147 H159 0.950 . S
C147 C178 1.383 . S
H148 C167 0.947 . S
H149 C168 0.946 . S
H150 C170 0.953 . S
H151 C171 0.945 . S
H152 C173 0.952 . S
H153 C174 0.949 . S
H154 C176 0.950 . S
H155 C177 0.948 . S
H156 C179 0.951 . S
H157 C144 0.947 . S
H158 C146 0.952 . S
H159 C147 0.950 . S
N160 C163 1.382 . S
N160 C165 1.363 . S
N161 C163 1.371 . S
N161 C164 1.372 . S
N162 C164 1.361 . S
N162 C165 1.377 . S
C163 N160 1.382 . S
C163 N161 1.371 . S
C163 C166 1.480 . S
C164 N161 1.372 . S
C164 N162 1.361 . S
C164 C172 1.457 . S
C165 N160 1.363 . S
C165 N162 1.377 . S
C165 C178 1.479 . S
C166 C163 1.480 . S
C166 C167 1.383 . S
C166 C171 1.385 . S
C167 H148 0.947 . S
C167 C166 1.383 . S
C167 C168 1.388 . S
C168 H149 0.946 . S
C168 C167 1.388 . S
C168 C169 1.384 . S
C169 C168 1.384 . S
C169 C170 1.377 . S
C170 H150 0.953 . S
C170 C169 1.377 . S
C170 C171 1.369 . S
C171 H151 0.945 . S
C171 C166 1.385 . S
C171 C170 1.369 . S
C172 C164 1.457 . S
C172 C173 1.372 . S
C172 C177 1.364 . S
C173 H152 0.952 . S
C173 C172 1.372 . S
C173 C174 1.389 . S
C174 H153 0.949 . S
C174 C173 1.389 . S
C174 C175 1.387 . S
C175 C174 1.387 . S
C175 C176 1.372 . S
C176 H154 0.950 . S
C176 C175 1.372 . S
C176 C177 1.379 . S
C177 H155 0.948 . S
C177 C172 1.364 . S
C177 C176 1.379 . S
C178 C147 1.383 . S
C178 C165 1.479 . S
C178 C179 1.398 . S
C179 C144 1.382 . S
C179 H156 0.951 . S
C179 C178 1.398 . S
C180 C181 1.384 . S
C180 H193 0.947 . S
C180 C215 1.382 . S
C181 C180 1.384 . S
C181 C182 1.378 . S
C182 C181 1.378 . S
C182 C183 1.378 . S
C182 H194 0.952 . S
C183 C182 1.378 . S
C183 H195 0.950 . S
C183 C214 1.383 . S
H184 C203 0.947 . S
H185 C204 0.946 . S
H186 C206 0.953 . S
H187 C207 0.945 . S
H188 C209 0.952 . S
H189 C210 0.949 . S
H190 C212 0.950 . S
H191 C213 0.948 . S
H192 C215 0.951 . S
H193 C180 0.947 . S
H194 C182 0.952 . S
H195 C183 0.950 . S
N196 C199 1.382 . S
N196 C201 1.363 . S
N197 C199 1.371 . S
N197 C200 1.372 . S
N198 C200 1.361 . S
N198 C201 1.377 . S
C199 N196 1.382 . S
C199 N197 1.371 . S
C199 C202 1.480 . S
C200 N197 1.372 . S
C200 N198 1.361 . S
C200 C208 1.457 . S
C201 N196 1.363 . S
C201 N198 1.377 . S
C201 C214 1.479 . S
C202 C199 1.480 . S
C202 C203 1.383 . S
C202 C207 1.385 . S
C203 H184 0.947 . S
C203 C202 1.383 . S
C203 C204 1.388 . S
C204 H185 0.946 . S
C204 C203 1.388 . S
C204 C205 1.384 . S
C205 C204 1.384 . S
C205 C206 1.377 . S
C206 H186 0.953 . S
C206 C205 1.377 . S
C206 C207 1.369 . S
C207 H187 0.945 . S
C207 C202 1.385 . S
C207 C206 1.369 . S
C208 C200 1.457 . S
C208 C209 1.372 . S
C208 C213 1.364 . S
C209 H188 0.952 . S
C209 C208 1.372 . S
C209 C210 1.389 . S
C210 H189 0.949 . S
C210 C209 1.389 . S
C210 C211 1.387 . S
C211 C210 1.387 . S
C211 C212 1.372 . S
C212 H190 0.950 . S
C212 C211 1.372 . S
C212 C213 1.379 . S
C213 H191 0.948 . S
C213 C208 1.364 . S
C213 C212 1.379 . S
C214 C183 1.383 . S
C214 C201 1.479 . S
C214 C215 1.398 . S
C215 C180 1.382 . S
C215 H192 0.951 . S
C215 C214 1.398 . S
C216 C217 1.384 . S
C216 H229 0.947 . S
C216 C251 1.382 . S
C217 C216 1.384 . S
C217 C218 1.378 . S
C218 C217 1.378 . S
C218 C219 1.378 . S
C218 H230 0.952 . S
C219 C218 1.378 . S
C219 H231 0.950 . S
C219 C250 1.383 . S
H220 C239 0.947 . S
H221 C240 0.946 . S
H222 C242 0.953 . S
H223 C243 0.945 . S
H224 C245 0.952 . S
H225 C246 0.949 . S
H226 C248 0.950 . S
H227 C249 0.948 . S
H228 C251 0.951 . S
H229 C216 0.947 . S
H230 C218 0.952 . S
H231 C219 0.950 . S
N232 C235 1.382 . S
N232 C237 1.363 . S
N233 C235 1.371 . S
N233 C236 1.372 . S
N234 C236 1.361 . S
N234 C237 1.377 . S
C235 N232 1.382 . S
C235 N233 1.371 . S
C235 C238 1.480 . S
C236 N233 1.372 . S
C236 N234 1.361 . S
C236 C244 1.457 . S
C237 N232 1.363 . S
C237 N234 1.377 . S
C237 C250 1.479 . S
C238 C235 1.480 . S
C238 C239 1.383 . S
C238 C243 1.385 . S
C239 H220 0.947 . S
C239 C238 1.383 . S
C239 C240 1.388 . S
C240 H221 0.946 . S
C240 C239 1.388 . S
C240 C241 1.384 . S
C241 C240 1.384 . S
C241 C242 1.377 . S
C242 H222 0.953 . S
C242 C241 1.377 . S
C242 C243 1.369 . S
C243 H223 0.945 . S
C243 C238 1.385 . S
C243 C242 1.369 . S
C244 C236 1.457 . S
C244 C245 1.372 . S
C244 C249 1.364 . S
C245 H224 0.952 . S
C245 C244 1.372 . S
C245 C246 1.389 . S
C246 H225 0.949 . S
C246 C245 1.389 . S
C246 C247 1.387 . S
C247 C246 1.387 . S
C247 C248 1.372 . S
C248 H226 0.950 . S
C248 C247 1.372 . S
C248 C249 1.379 . S
C249 H227 0.948 . S
C249 C244 1.364 . S
C249 C248 1.379 . S
C250 C219 1.383 . S
C250 C237 1.479 . S
C250 C251 1.398 . S
C251 C216 1.382 . S
C251 H228 0.951 . S
C251 C250 1.398 . S
C252 C253 1.384 . S
C252 H265 0.947 . S
C252 C287 1.382 . S
C253 C252 1.384 . S
C253 C254 1.378 . S
C254 C253 1.378 . S
C254 C255 1.378 . S
C254 H266 0.952 . S
C255 C254 1.378 . S
C255 H267 0.950 . S
C255 C286 1.383 . S
H256 C275 0.947 . S
H257 C276 0.946 . S
H258 C278 0.953 . S
H259 C279 0.945 . S
H260 C281 0.952 . S
H261 C282 0.949 . S
H262 C284 0.950 . S
H263 C285 0.948 . S
H264 C287 0.951 . S
H265 C252 0.947 . S
H266 C254 0.952 . S
H267 C255 0.950 . S
N268 C271 1.382 . S
N268 C273 1.363 . S
N269 C271 1.371 . S
N269 C272 1.372 . S
N270 C272 1.361 . S
N270 C273 1.377 . S
C271 N268 1.382 . S
C271 N269 1.371 . S
C271 C274 1.480 . S
C272 N269 1.372 . S
C272 N270 1.361 . S
C272 C280 1.457 . S
C273 N268 1.363 . S
C273 N270 1.377 . S
C273 C286 1.479 . S
C274 C271 1.480 . S
C274 C275 1.383 . S
C274 C279 1.385 . S
C275 H256 0.947 . S
C275 C274 1.383 . S
C275 C276 1.388 . S
C276 H257 0.946 . S
C276 C275 1.388 . S
C276 C277 1.384 . S
C277 C276 1.384 . S
C277 C278 1.377 . S
C278 H258 0.953 . S
C278 C277 1.377 . S
C278 C279 1.369 . S
C279 H259 0.945 . S
C279 C274 1.385 . S
C279 C278 1.369 . S
C280 C272 1.457 . S
C280 C281 1.372 . S
C280 C285 1.364 . S
C281 H260 0.952 . S
C281 C280 1.372 . S
C281 C282 1.389 . S
C282 H261 0.949 . S
C282 C281 1.389 . S
C282 C283 1.387 . S
C283 C282 1.387 . S
C283 C284 1.372 . S
C284 H262 0.950 . S
C284 C283 1.372 . S
C284 C285 1.379 . S
C285 H263 0.948 . S
C285 C280 1.364 . S
C285 C284 1.379 . S
C286 C255 1.383 . S
C286 C273 1.479 . S
C286 C287 1.398 . S
C287 C252 1.382 . S
C287 H264 0.951 . S
C287 C286 1.398 . S
C288 C289 1.384 . S
C288 H301 0.947 . S
C288 C323 1.382 . S
C289 C288 1.384 . S
C289 C290 1.378 . S
C290 C289 1.378 . S
C290 C291 1.378 . S
C290 H302 0.952 . S
C291 C290 1.378 . S
C291 H303 0.950 . S
C291 C322 1.383 . S
H292 C311 0.947 . S
H293 C312 0.946 . S
H294 C314 0.953 . S
H295 C315 0.945 . S
H296 C317 0.952 . S
H297 C318 0.949 . S
H298 C320 0.950 . S
H299 C321 0.948 . S
H300 C323 0.951 . S
H301 C288 0.947 . S
H302 C290 0.952 . S
H303 C291 0.950 . S
N304 C307 1.382 . S
N304 C309 1.363 . S
N305 C307 1.371 . S
N305 C308 1.372 . S
N306 C308 1.361 . S
N306 C309 1.377 . S
C307 N304 1.382 . S
C307 N305 1.371 . S
C307 C310 1.480 . S
C308 N305 1.372 . S
C308 N306 1.361 . S
C308 C316 1.457 . S
C309 N304 1.363 . S
C309 N306 1.377 . S
C309 C322 1.479 . S
C310 C307 1.480 . S
C310 C311 1.383 . S
C310 C315 1.385 . S
C311 H292 0.947 . S
C311 C310 1.383 . S
C311 C312 1.388 . S
C312 H293 0.946 . S
C312 C311 1.388 . S
C312 C313 1.384 . S
C313 C312 1.384 . S
C313 C314 1.377 . S
C314 H294 0.953 . S
C314 C313 1.377 . S
C314 C315 1.369 . S
C315 H295 0.945 . S
C315 C310 1.385 . S
C315 C314 1.369 . S
C316 C308 1.457 . S
C316 C317 1.372 . S
C316 C321 1.364 . S
C317 H296 0.952 . S
C317 C316 1.372 . S
C317 C318 1.389 . S
C318 H297 0.949 . S
C318 C317 1.389 . S
C318 C319 1.387 . S
C319 C318 1.387 . S
C319 C320 1.372 . S
C320 H298 0.950 . S
C320 C319 1.372 . S
C320 C321 1.379 . S
C321 H299 0.948 . S
C321 C316 1.364 . S
C321 C320 1.379 . S
C322 C291 1.383 . S
C322 C309 1.479 . S
C322 C323 1.398 . S
C323 C288 1.382 . S
C323 H300 0.951 . S
C323 C322 1.398 . S
C324 C325 1.384 . S
C324 H337 0.947 . S
C324 C359 1.382 . S
C325 C324 1.384 . S
C325 C326 1.378 . S
C326 C325 1.378 . S
C326 C327 1.378 . S
C326 H338 0.952 . S
C327 C326 1.378 . S
C327 H339 0.950 . S
C327 C358 1.383 . S
H328 C347 0.947 . S
H329 C348 0.946 . S
H330 C350 0.953 . S
H331 C351 0.945 . S
H332 C353 0.952 . S
H333 C354 0.949 . S
H334 C356 0.950 . S
H335 C357 0.948 . S
H336 C359 0.951 . S
H337 C324 0.947 . S
H338 C326 0.952 . S
H339 C327 0.950 . S
N340 C343 1.382 . S
N340 C345 1.363 . S
N341 C343 1.371 . S
N341 C344 1.372 . S
N342 C344 1.361 . S
N342 C345 1.377 . S
C343 N340 1.382 . S
C343 N341 1.371 . S
C343 C346 1.480 . S
C344 N341 1.372 . S
C344 N342 1.361 . S
C344 C352 1.457 . S
C345 N340 1.363 . S
C345 N342 1.377 . S
C345 C358 1.479 . S
C346 C343 1.480 . S
C346 C347 1.383 . S
C346 C351 1.385 . S
C347 H328 0.947 . S
C347 C346 1.383 . S
C347 C348 1.388 . S
C348 H329 0.946 . S
C348 C347 1.388 . S
C348 C349 1.384 . S
C349 C348 1.384 . S
C349 C350 1.377 . S
C350 H330 0.953 . S
C350 C349 1.377 . S
C350 C351 1.369 . S
C351 H331 0.945 . S
C351 C346 1.385 . S
C351 C350 1.369 . S
C352 C344 1.457 . S
C352 C353 1.372 . S
C352 C357 1.364 . S
C353 H332 0.952 . S
C353 C352 1.372 . S
C353 C354 1.389 . S
C354 H333 0.949 . S
C354 C353 1.389 . S
C354 C355 1.387 . S
C355 C354 1.387 . S
C355 C356 1.372 . S
C356 H334 0.950 . S
C356 C355 1.372 . S
C356 C357 1.379 . S
C357 H335 0.948 . S
C357 C352 1.364 . S
C357 C356 1.379 . S
C358 C327 1.383 . S
C358 C345 1.479 . S
C358 C359 1.398 . S
C359 C324 1.382 . S
C359 H336 0.951 . S
C359 C358 1.398 . S
C360 C361 1.384 . S
C360 H373 0.947 . S
C360 C395 1.382 . S
C361 C360 1.384 . S
C361 C362 1.378 . S
C362 C361 1.378 . S
C362 C363 1.378 . S
C362 H374 0.952 . S
C363 C362 1.378 . S
C363 H375 0.950 . S
C363 C394 1.383 . S
H364 C383 0.947 . S
H365 C384 0.946 . S
H366 C386 0.953 . S
H367 C387 0.945 . S
H368 C389 0.952 . S
H369 C390 0.949 . S
H370 C392 0.950 . S
H371 C393 0.948 . S
H372 C395 0.951 . S
H373 C360 0.947 . S
H374 C362 0.952 . S
H375 C363 0.950 . S
N376 C379 1.382 . S
N376 C381 1.363 . S
N377 C379 1.371 . S
N377 C380 1.372 . S
N378 C380 1.361 . S
N378 C381 1.377 . S
C379 N376 1.382 . S
C379 N377 1.371 . S
C379 C382 1.480 . S
C380 N377 1.372 . S
C380 N378 1.361 . S
C380 C388 1.457 . S
C381 N376 1.363 . S
C381 N378 1.377 . S
C381 C394 1.479 . S
C382 C379 1.480 . S
C382 C383 1.383 . S
C382 C387 1.385 . S
C383 H364 0.947 . S
C383 C382 1.383 . S
C383 C384 1.388 . S
C384 H365 0.946 . S
C384 C383 1.388 . S
C384 C385 1.384 . S
C385 C384 1.384 . S
C385 C386 1.377 . S
C386 H366 0.953 . S
C386 C385 1.377 . S
C386 C387 1.369 . S
C387 H367 0.945 . S
C387 C382 1.385 . S
C387 C386 1.369 . S
C388 C380 1.457 . S
C388 C389 1.372 . S
C388 C393 1.364 . S
C389 H368 0.952 . S
C389 C388 1.372 . S
C389 C390 1.389 . S
C390 H369 0.949 . S
C390 C389 1.389 . S
C390 C391 1.387 . S
C391 C390 1.387 . S
C391 C392 1.372 . S
C392 H370 0.950 . S
C392 C391 1.372 . S
C392 C393 1.379 . S
C393 H371 0.948 . S
C393 C388 1.364 . S
C393 C392 1.379 . S
C394 C363 1.383 . S
C394 C381 1.479 . S
C394 C395 1.398 . S
C395 C360 1.382 . S
C395 H372 0.951 . S
C395 C394 1.398 . S
C396 C397 1.384 . S
C396 H409 0.947 . S
C396 C431 1.382 . S
C397 C396 1.384 . S
C397 C398 1.378 . S
C398 C397 1.378 . S
C398 C399 1.378 . S
C398 H410 0.952 . S
C399 C398 1.378 . S
C399 H411 0.950 . S
C399 C430 1.383 . S
H400 C419 0.947 . S
H401 C420 0.946 . S
H402 C422 0.953 . S
H403 C423 0.945 . S
H404 C425 0.952 . S
H405 C426 0.949 . S
H406 C428 0.950 . S
H407 C429 0.948 . S
H408 C431 0.951 . S
H409 C396 0.947 . S
H410 C398 0.952 . S
H411 C399 0.950 . S
N412 C415 1.382 . S
N412 C417 1.363 . S
N413 C415 1.371 . S
N413 C416 1.372 . S
N414 C416 1.361 . S
N414 C417 1.377 . S
C415 N412 1.382 . S
C415 N413 1.371 . S
C415 C418 1.480 . S
C416 N413 1.372 . S
C416 N414 1.361 . S
C416 C424 1.457 . S
C417 N412 1.363 . S
C417 N414 1.377 . S
C417 C430 1.479 . S
C418 C415 1.480 . S
C418 C419 1.383 . S
C418 C423 1.385 . S
C419 H400 0.947 . S
C419 C418 1.383 . S
C419 C420 1.388 . S
C420 H401 0.946 . S
C420 C419 1.388 . S
C420 C421 1.384 . S
C421 C420 1.384 . S
C421 C422 1.377 . S
C422 H402 0.953 . S
C422 C421 1.377 . S
C422 C423 1.369 . S
C423 H403 0.945 . S
C423 C418 1.385 . S
C423 C422 1.369 . S
C424 C416 1.457 . S
C424 C425 1.372 . S
C424 C429 1.364 . S
C425 H404 0.952 . S
C425 C424 1.372 . S
C425 C426 1.389 . S
C426 H405 0.949 . S
C426 C425 1.389 . S
C426 C427 1.387 . S
C427 C426 1.387 . S
C427 C428 1.372 . S
C428 H406 0.950 . S
C428 C427 1.372 . S
C428 C429 1.379 . S
C429 H407 0.948 . S
C429 C424 1.364 . S
C429 C428 1.379 . S
C430 C399 1.383 . S
C430 C417 1.479 . S
C430 C431 1.398 . S
C431 C396 1.382 . S
C431 H408 0.951 . S
C431 C430 1.398 . S
C432 C433 1.384 . S
C432 H445 0.947 . S
C432 C467 1.382 . S
C433 C432 1.384 . S
C433 C434 1.378 . S
C434 C433 1.378 . S
C434 C435 1.378 . S
C434 H446 0.952 . S
C435 C434 1.378 . S
C435 H447 0.950 . S
C435 C466 1.383 . S
H436 C455 0.947 . S
H437 C456 0.946 . S
H438 C458 0.953 . S
H439 C459 0.945 . S
H440 C461 0.952 . S
H441 C462 0.949 . S
H442 C464 0.950 . S
H443 C465 0.948 . S
H444 C467 0.951 . S
H445 C432 0.947 . S
H446 C434 0.952 . S
H447 C435 0.950 . S
N448 C451 1.382 . S
N448 C453 1.363 . S
N449 C451 1.371 . S
N449 C452 1.372 . S
N450 C452 1.361 . S
N450 C453 1.377 . S
C451 N448 1.382 . S
C451 N449 1.371 . S
C451 C454 1.480 . S
C452 N449 1.372 . S
C452 N450 1.361 . S
C452 C460 1.457 . S
C453 N448 1.363 . S
C453 N450 1.377 . S
C453 C466 1.479 . S
C454 C451 1.480 . S
C454 C455 1.383 . S
C454 C459 1.385 . S
C455 H436 0.947 . S
C455 C454 1.383 . S
C455 C456 1.388 . S
C456 H437 0.946 . S
C456 C455 1.388 . S
C456 C457 1.384 . S
C457 C456 1.384 . S
C457 C458 1.377 . S
C458 H438 0.953 . S
C458 C457 1.377 . S
C458 C459 1.369 . S
C459 H439 0.945 . S
C459 C454 1.385 . S
C459 C458 1.369 . S
C460 C452 1.457 . S
C460 C461 1.372 . S
C460 C465 1.364 . S
C461 H440 0.952 . S
C461 C460 1.372 . S
C461 C462 1.389 . S
C462 H441 0.949 . S
C462 C461 1.389 . S
C462 C463 1.387 . S
C463 C462 1.387 . S
C463 C464 1.372 . S
C464 H442 0.950 . S
C464 C463 1.372 . S
C464 C465 1.379 . S
C465 H443 0.948 . S
C465 C460 1.364 . S
C465 C464 1.379 . S
C466 C435 1.383 . S
C466 C453 1.479 . S
C466 C467 1.398 . S
C467 C432 1.382 . S
C467 H444 0.951 . S
C467 C466 1.398 . S
C468 C469 1.384 . S
C468 H481 0.947 . S
C468 C503 1.382 . S
C469 C468 1.384 . S
C469 C470 1.378 . S
C470 C469 1.378 . S
C470 C471 1.378 . S
C470 H482 0.952 . S
C471 C470 1.378 . S
C471 H483 0.950 . S
C471 C502 1.383 . S
H472 C491 0.947 . S
H473 C492 0.946 . S
H474 C494 0.953 . S
H475 C495 0.945 . S
H476 C497 0.952 . S
H477 C498 0.949 . S
H478 C500 0.950 . S
H479 C501 0.948 . S
H480 C503 0.951 . S
H481 C468 0.947 . S
H482 C470 0.952 . S
H483 C471 0.950 . S
N484 C487 1.382 . S
N484 C489 1.363 . S
N485 C487 1.371 . S
N485 C488 1.372 . S
N486 C488 1.361 . S
N486 C489 1.377 . S
C487 N484 1.382 . S
C487 N485 1.371 . S
C487 C490 1.480 . S
C488 N485 1.372 . S
C488 N486 1.361 . S
C488 C496 1.457 . S
C489 N484 1.363 . S
C489 N486 1.377 . S
C489 C502 1.479 . S
C490 C487 1.480 . S
C490 C491 1.383 . S
C490 C495 1.385 . S
C491 H472 0.947 . S
C491 C490 1.383 . S
C491 C492 1.388 . S
C492 H473 0.946 . S
C492 C491 1.388 . S
C492 C493 1.384 . S
C493 C492 1.384 . S
C493 C494 1.377 . S
C494 H474 0.953 . S
C494 C493 1.377 . S
C494 C495 1.369 . S
C495 H475 0.945 . S
C495 C490 1.385 . S
C495 C494 1.369 . S
C496 C488 1.457 . S
C496 C497 1.372 . S
C496 C501 1.364 . S
C497 H476 0.952 . S
C497 C496 1.372 . S
C497 C498 1.389 . S
C498 H477 0.949 . S
C498 C497 1.389 . S
C498 C499 1.387 . S
C499 C498 1.387 . S
C499 C500 1.372 . S
C500 H478 0.950 . S
C500 C499 1.372 . S
C500 C501 1.379 . S
C501 H479 0.948 . S
C501 C496 1.364 . S
C501 C500 1.379 . S
C502 C471 1.383 . S
C502 C489 1.479 . S
C502 C503 1.398 . S
C503 C468 1.382 . S
C503 H480 0.951 . S
C503 C502 1.398 . S
C504 C505 1.384 . S
C504 H517 0.947 . S
C504 C539 1.382 . S
C505 C504 1.384 . S
C505 C506 1.378 . S
C506 C505 1.378 . S
C506 C507 1.378 . S
C506 H518 0.952 . S
C507 C506 1.378 . S
C507 H519 0.950 . S
C507 C538 1.383 . S
H508 C527 0.947 . S
H509 C528 0.946 . S
H510 C530 0.953 . S
H511 C531 0.945 . S
H512 C533 0.952 . S
H513 C534 0.949 . S
H514 C536 0.950 . S
H515 C537 0.948 . S
H516 C539 0.951 . S
H517 C504 0.947 . S
H518 C506 0.952 . S
H519 C507 0.950 . S
N520 C523 1.382 . S
N520 C525 1.363 . S
N521 C523 1.371 . S
N521 C524 1.372 . S
N522 C524 1.361 . S
N522 C525 1.377 . S
C523 N520 1.382 . S
C523 N521 1.371 . S
C523 C526 1.480 . S
C524 N521 1.372 . S
C524 N522 1.361 . S
C524 C532 1.457 . S
C525 N520 1.363 . S
C525 N522 1.377 . S
C525 C538 1.479 . S
C526 C523 1.480 . S
C526 C527 1.383 . S
C526 C531 1.385 . S
C527 H508 0.947 . S
C527 C526 1.383 . S
C527 C528 1.388 . S
C528 H509 0.946 . S
C528 C527 1.388 . S
C528 C529 1.384 . S
C529 C528 1.384 . S
C529 C530 1.377 . S
C530 H510 0.953 . S
C530 C529 1.377 . S
C530 C531 1.369 . S
C531 H511 0.945 . S
C531 C526 1.385 . S
C531 C530 1.369 . S
C532 C524 1.457 . S
C532 C533 1.372 . S
C532 C537 1.364 . S
C533 H512 0.952 . S
C533 C532 1.372 . S
C533 C534 1.389 . S
C534 H513 0.949 . S
C534 C533 1.389 . S
C534 C535 1.387 . S
C535 C534 1.387 . S
C535 C536 1.372 . S
C536 H514 0.950 . S
C536 C535 1.372 . S
C536 C537 1.379 . S
C537 H515 0.948 . S
C537 C532 1.364 . S
C537 C536 1.379 . S
C538 C507 1.383 . S
C538 C525 1.479 . S
C538 C539 1.398 . S
C539 C504 1.382 . S
C539 H516 0.951 . S
C539 C538 1.398 . S
C540 C541 1.384 . S
C540 H553 0.947 . S
C540 C575 1.382 . S
C541 C540 1.384 . S
C541 C542 1.378 . S
C542 C541 1.378 . S
C542 C543 1.378 . S
C542 H554 0.952 . S
C543 C542 1.378 . S
C543 H555 0.950 . S
C543 C574 1.383 . S
H544 C563 0.947 . S
H545 C564 0.946 . S
H546 C566 0.953 . S
H547 C567 0.945 . S
H548 C569 0.952 . S
H549 C570 0.949 . S
H550 C572 0.950 . S
H551 C573 0.948 . S
H552 C575 0.951 . S
H553 C540 0.947 . S
H554 C542 0.952 . S
H555 C543 0.950 . S
N556 C559 1.382 . S
N556 C561 1.363 . S
N557 C559 1.371 . S
N557 C560 1.372 . S
N558 C560 1.361 . S
N558 C561 1.377 . S
C559 N556 1.382 . S
C559 N557 1.371 . S
C559 C562 1.480 . S
C560 N557 1.372 . S
C560 N558 1.361 . S
C560 C568 1.457 . S
C561 N556 1.363 . S
C561 N558 1.377 . S
C561 C574 1.479 . S
C562 C559 1.480 . S
C562 C563 1.383 . S
C562 C567 1.385 . S
C563 H544 0.947 . S
C563 C562 1.383 . S
C563 C564 1.388 . S
C564 H545 0.946 . S
C564 C563 1.388 . S
C564 C565 1.384 . S
C565 C564 1.384 . S
C565 C566 1.377 . S
C566 H546 0.953 . S
C566 C565 1.377 . S
C566 C567 1.369 . S
C567 H547 0.945 . S
C567 C562 1.385 . S
C567 C566 1.369 . S
C568 C560 1.457 . S
C568 C569 1.372 . S
C568 C573 1.364 . S
C569 H548 0.952 . S
C569 C568 1.372 . S
C569 C570 1.389 . S
C570 H549 0.949 . S
C570 C569 1.389 . S
C570 C571 1.387 . S
C571 C570 1.387 . S
C571 C572 1.372 . S
C572 H550 0.950 . S
C572 C571 1.372 . S
C572 C573 1.379 . S
C573 H551 0.948 . S
C573 C568 1.364 . S
C573 C572 1.379 . S
C574 C543 1.383 . S
C574 C561 1.479 . S
C574 C575 1.398 . S
C575 C540 1.382 . S
C575 H552 0.951 . S
C575 C574 1.398 . S
C576 C577 1.384 . S
C576 H589 0.947 . S
C576 C611 1.382 . S
C577 C576 1.384 . S
C577 C578 1.378 . S
C578 C577 1.378 . S
C578 C579 1.378 . S
C578 H590 0.952 . S
C579 C578 1.378 . S
C579 H591 0.950 . S
C579 C610 1.383 . S
H580 C599 0.947 . S
H581 C600 0.946 . S
H582 C602 0.953 . S
H583 C603 0.945 . S
H584 C605 0.952 . S
H585 C606 0.949 . S
H586 C608 0.950 . S
H587 C609 0.948 . S
H588 C611 0.951 . S
H589 C576 0.947 . S
H590 C578 0.952 . S
H591 C579 0.950 . S
N592 C595 1.382 . S
N592 C597 1.363 . S
N593 C595 1.371 . S
N593 C596 1.372 . S
N594 C596 1.361 . S
N594 C597 1.377 . S
C595 N592 1.382 . S
C595 N593 1.371 . S
C595 C598 1.480 . S
C596 N593 1.372 . S
C596 N594 1.361 . S
C596 C604 1.457 . S
C597 N592 1.363 . S
C597 N594 1.377 . S
C597 C610 1.479 . S
C598 C595 1.480 . S
C598 C599 1.383 . S
C598 C603 1.385 . S
C599 H580 0.947 . S
C599 C598 1.383 . S
C599 C600 1.388 . S
C600 H581 0.946 . S
C600 C599 1.388 . S
C600 C601 1.384 . S
C601 C600 1.384 . S
C601 C602 1.377 . S
C602 H582 0.953 . S
C602 C601 1.377 . S
C602 C603 1.369 . S
C603 H583 0.945 . S
C603 C598 1.385 . S
C603 C602 1.369 . S
C604 C596 1.457 . S
C604 C605 1.372 . S
C604 C609 1.364 . S
C605 H584 0.952 . S
C605 C604 1.372 . S
C605 C606 1.389 . S
C606 H585 0.949 . S
C606 C605 1.389 . S
C606 C607 1.387 . S
C607 C606 1.387 . S
C607 C608 1.372 . S
C608 H586 0.950 . S
C608 C607 1.372 . S
C608 C609 1.379 . S
C609 H587 0.948 . S
C609 C604 1.364 . S
C609 C608 1.379 . S
C610 C579 1.383 . S
C610 C597 1.479 . S
C610 C611 1.398 . S
C611 C576 1.382 . S
C611 H588 0.951 . S
C611 C610 1.398 . S
C612 C613 1.384 . S
C612 H625 0.947 . S
C612 C647 1.382 . S
C613 C612 1.384 . S
C613 C614 1.378 . S
C614 C613 1.378 . S
C614 C615 1.378 . S
C614 H626 0.952 . S
C615 C614 1.378 . S
C615 H627 0.950 . S
C615 C646 1.383 . S
H616 C635 0.947 . S
H617 C636 0.946 . S
H618 C638 0.953 . S
H619 C639 0.945 . S
H620 C641 0.952 . S
H621 C642 0.949 . S
H622 C644 0.950 . S
H623 C645 0.948 . S
H624 C647 0.951 . S
H625 C612 0.947 . S
H626 C614 0.952 . S
H627 C615 0.950 . S
N628 C631 1.382 . S
N628 C633 1.363 . S
N629 C631 1.371 . S
N629 C632 1.372 . S
N630 C632 1.361 . S
N630 C633 1.377 . S
C631 N628 1.382 . S
C631 N629 1.371 . S
C631 C634 1.480 . S
C632 N629 1.372 . S
C632 N630 1.361 . S
C632 C640 1.457 . S
C633 N628 1.363 . S
C633 N630 1.377 . S
C633 C646 1.479 . S
C634 C631 1.480 . S
C634 C635 1.383 . S
C634 C639 1.385 . S
C635 H616 0.947 . S
C635 C634 1.383 . S
C635 C636 1.388 . S
C636 H617 0.946 . S
C636 C635 1.388 . S
C636 C637 1.384 . S
C637 C636 1.384 . S
C637 C638 1.377 . S
C638 H618 0.953 . S
C638 C637 1.377 . S
C638 C639 1.369 . S
C639 H619 0.945 . S
C639 C634 1.385 . S
C639 C638 1.369 . S
C640 C632 1.457 . S
C640 C641 1.372 . S
C640 C645 1.364 . S
C641 H620 0.952 . S
C641 C640 1.372 . S
C641 C642 1.389 . S
C642 H621 0.949 . S
C642 C641 1.389 . S
C642 C643 1.387 . S
C643 C642 1.387 . S
C643 C644 1.372 . S
C644 H622 0.950 . S
C644 C643 1.372 . S
C644 C645 1.379 . S
C645 H623 0.948 . S
C645 C640 1.364 . S
C645 C644 1.379 . S
C646 C615 1.383 . S
C646 C633 1.479 . S
C646 C647 1.398 . S
C647 C612 1.382 . S
C647 H624 0.951 . S
C647 C646 1.398 . S
Eu648 C657 2.828 . S
Eu648 O659 2.392 1_556 S
Eu648 O661 2.418 . S
Eu648 O666 2.373 1_565 S
Eu648 O669 2.488 . S
Eu648 O670 2.471 1_565 S
Eu648 O671 2.349 1_565 S
Eu649 O658 2.373 1_545 S
Eu649 O662 2.488 . S
Eu649 O663 2.460 1_545 S
Eu649 O664 2.349 1_545 S
Eu649 O667 2.392 . S
Eu649 O668 2.418 . S
Eu649 C678 2.828 . S
C650 O668 1.244 . S
C650 O671 1.265 1_554 S
C651 C652 1.379 1_565 S
C651 C655 1.373 . S
C651 C657 1.505 . S
C652 C651 1.379 1_545 S
C652 C654 1.369 . S
C652 H680 0.930 . S
C653 C655 1.383 . S
C653 C656 1.382 1_565 S
C653 H681 0.930 . S
C654 C652 1.369 . S
C654 C656 1.392 . S
C654 H682 0.930 . S
C655 C651 1.373 . S
C655 C653 1.383 . S
C655 H683 0.931 . S
C656 C653 1.382 1_545 S
C656 C654 1.392 . S
C657 Eu648 2.828 . S
C657 C651 1.505 . S
C657 O669 1.249 . S
C657 O670 1.244 1_565 S
O658 Eu649 2.373 1_565 S
O658 C660 1.258 . S
O659 Eu648 2.392 1_554 S
O659 C660 1.242 . S
C660 O658 1.258 . S
C660 O659 1.242 . S
O661 Eu648 2.418 . S
O661 C665 1.244 1_556 S
O662 Eu649 2.488 . S
O662 C678 1.249 . S
O663 Eu649 2.460 1_565 S
O663 C678 1.227 1_565 S
O664 Eu649 2.349 1_565 S
O664 C665 1.265 . S
C665 O661 1.244 1_554 S
C665 O664 1.265 . S
O666 Eu648 2.373 1_545 S
O666 C679 1.258 . S
O667 Eu649 2.392 . S
O667 C679 1.242 1_554 S
O668 Eu649 2.418 . S
O668 C650 1.244 . S
O669 Eu648 2.488 . S
O669 C657 1.249 . S
O670 Eu648 2.471 1_545 S
O670 C657 1.244 1_545 S
O671 Eu648 2.349 1_545 S
O671 C650 1.265 1_556 S
C672 C673 1.379 1_545 S
C672 C676 1.373 . S
C672 C678 1.505 . S
C673 C672 1.379 1_565 S
C673 C675 1.369 . S
C673 H684 0.930 . S
C674 C676 1.383 . S
C674 C677 1.382 1_545 S
C674 H685 0.930 . S
C675 C673 1.369 . S
C675 C677 1.392 . S
C675 H686 0.930 . S
C676 C672 1.373 . S
C676 C674 1.383 . S
C676 H687 0.931 . S
C677 C674 1.382 1_565 S
C677 C675 1.392 . S
C678 Eu649 2.828 . S
C678 O662 1.249 . S
C678 O663 1.227 1_545 S
C678 C672 1.505 . S
C679 O666 1.258 . S
C679 O667 1.242 1_556 S
H680 C652 0.930 . S
H681 C653 0.930 . S
H682 C654 0.930 . S
H683 C655 0.931 . S
H684 C673 0.930 . S
H685 C674 0.930 . S
H686 C675 0.930 . S
H687 C676 0.931 . S
Eu688 C697 2.828 . S
Eu688 O699 2.392 1_556 S
Eu688 O701 2.418 . S
Eu688 O706 2.373 1_455 S
Eu688 O709 2.488 . S
Eu688 O710 2.471 1_455 S
Eu688 O711 2.349 1_455 S
Eu689 O698 2.373 1_655 S
Eu689 O702 2.488 . S
Eu689 O703 2.471 1_655 S
Eu689 O704 2.349 1_655 S
Eu689 O707 2.392 . S
Eu689 O708 2.418 . S
Eu689 C718 2.828 . S
C690 O708 1.191 1_556 S
C690 O711 1.288 . S
C691 C692 1.379 1_455 S
C691 C695 1.373 . S
C691 C697 1.505 . S
C692 C691 1.379 1_655 S
C692 C694 1.369 . S
C692 H720 0.930 . S
C693 C695 1.383 . S
C693 C696 1.382 1_455 S
C693 H721 0.930 . S
C694 C692 1.369 . S
C694 C696 1.392 . S
C694 H722 0.930 . S
C695 C691 1.373 . S
C695 C693 1.383 . S
C695 H723 0.931 . S
C696 C693 1.382 1_655 S
C696 C694 1.392 . S
C697 Eu688 2.828 . S
C697 C691 1.505 . S
C697 O709 1.249 . S
C697 O710 1.244 1_455 S
O698 Eu689 2.373 1_455 S
O698 C700 1.258 . S
O699 Eu688 2.392 1_554 S
O699 C700 1.242 . S
C700 O698 1.258 . S
C700 O699 1.242 . S
O701 Eu688 2.418 . S
O701 C705 1.244 1_556 S
O702 Eu689 2.488 . S
O702 C718 1.249 . S
O703 Eu689 2.471 1_455 S
O703 C718 1.244 1_455 S
O704 Eu689 2.349 1_455 S
O704 C705 1.265 . S
C705 O701 1.244 1_554 S
C705 O704 1.265 . S
O706 Eu688 2.373 1_655 S
O706 C719 1.258 . S
O707 Eu689 2.392 . S
O707 C719 1.242 1_554 S
O708 Eu689 2.418 . S
O708 C690 1.191 1_554 S
O709 Eu688 2.488 . S
O709 C697 1.249 . S
O710 Eu688 2.471 1_655 S
O710 C697 1.244 1_655 S
O711 Eu688 2.349 1_655 S
O711 C690 1.288 . S
C712 C713 1.379 1_655 S
C712 C716 1.373 . S
C712 C718 1.505 . S
C713 C712 1.379 1_455 S
C713 C715 1.369 . S
C713 H724 0.930 . S
C714 C716 1.383 . S
C714 C717 1.382 1_655 S
C714 H725 0.930 . S
C715 C713 1.369 . S
C715 C717 1.392 . S
C715 H726 0.930 . S
C716 C712 1.373 . S
C716 C714 1.383 . S
C716 H727 0.931 . S
C717 C714 1.382 1_455 S
C717 C715 1.392 . S
C718 Eu689 2.828 . S
C718 O702 1.249 . S
C718 O703 1.244 1_655 S
C718 C712 1.505 . S
C719 O706 1.258 . S
C719 O707 1.242 1_556 S
H720 C692 0.930 . S
H721 C693 0.930 . S
H722 C694 0.930 . S
H723 C695 0.931 . S
H724 C713 0.930 . S
H725 C714 0.930 . S
H726 C715 0.930 . S
H727 C716 0.931 . S
Eu728 C737 2.828 . S
Eu728 O739 2.392 . S
Eu728 O741 2.418 . S
Eu728 O746 2.373 . S
Eu728 O749 2.488 . S
Eu728 O750 2.471 . S
Eu728 O751 2.349 . S
Eu729 O738 2.373 . S
Eu729 O742 2.488 . S
Eu729 O743 2.471 . S
Eu729 O744 2.349 . S
Eu729 O747 2.392 1_556 S
Eu729 O748 2.418 . S
Eu729 C758 2.828 . S
C730 O748 1.244 1_554 S
C730 O751 1.265 . S
C731 C732 1.379 . S
C731 C735 1.373 . S
C731 C737 1.505 . S
C732 C731 1.379 . S
C732 C734 1.369 . S
C732 H760 0.930 . S
C733 C735 1.383 . S
C733 C736 1.382 . S
C733 H761 0.930 . S
C734 C732 1.369 . S
C734 C736 1.392 . S
C734 H762 0.930 . S
C735 C731 1.373 . S
C735 C733 1.383 . S
C735 H763 0.931 . S
C736 C733 1.382 . S
C736 C734 1.392 . S
C737 Eu728 2.828 . S
C737 C731 1.505 . S
C737 O749 1.249 . S
C737 O750 1.244 . S
O738 Eu729 2.373 . S
O738 C740 1.258 . S
O739 Eu728 2.392 . S
O739 C740 1.242 1_554 S
C740 O738 1.258 . S
C740 O739 1.242 1_556 S
O741 Eu728 2.418 . S
O741 C745 1.291 . S
O742 Eu729 2.488 . S
O742 C758 1.249 . S
O743 Eu729 2.471 . S
O743 C758 1.244 . S
O744 Eu729 2.349 . S
O744 C745 1.245 1_556 S
C745 O741 1.291 . S
C745 O744 1.245 1_554 S
O746 Eu728 2.373 . S
O746 C759 1.258 . S
O747 Eu729 2.392 1_554 S
O747 C759 1.242 . S
O748 Eu729 2.418 . S
O748 C730 1.244 1_556 S
O749 Eu728 2.488 . S
O749 C737 1.249 . S
O750 Eu728 2.471 . S
O750 C737 1.244 . S
O751 Eu728 2.349 . S
O751 C730 1.265 . S
C752 C753 1.379 . S
C752 C756 1.373 . S
C752 C758 1.505 . S
C753 C752 1.379 . S
C753 C755 1.369 . S
C753 H764 0.930 . S
C754 C756 1.383 . S
C754 C757 1.382 . S
C754 H765 0.930 . S
C755 C753 1.369 . S
C755 C757 1.392 . S
C755 H766 0.930 . S
C756 C752 1.373 . S
C756 C754 1.383 . S
C756 H767 0.931 . S
C757 C754 1.382 . S
C757 C755 1.392 . S
C758 Eu729 2.828 . S
C758 O742 1.249 . S
C758 O743 1.244 . S
C758 C752 1.505 . S
C759 O746 1.258 . S
C759 O747 1.242 . S
H760 C732 0.930 . S
H761 C733 0.930 . S
H762 C734 0.930 . S
H763 C735 0.931 . S
H764 C753 0.930 . S
H765 C754 0.930 . S
H766 C755 0.930 . S
H767 C756 0.931 . S
Eu768 C777 2.828 . S
Eu768 O779 2.392 . S
Eu768 O781 2.418 . S
Eu768 O786 2.373 . S
Eu768 O789 2.488 . S
Eu768 O790 2.471 . S
Eu768 O791 2.349 . S
Eu769 O778 2.373 . S
Eu769 O782 2.488 . S
Eu769 O783 2.471 . S
Eu769 O784 2.349 . S
Eu769 O787 2.392 . S
Eu769 O788 2.418 . S
Eu769 C798 2.828 . S
C770 O788 1.244 . S
C770 O791 1.265 . S
C771 C772 1.379 . S
C771 C775 1.373 . S
C771 C777 1.505 . S
C772 C771 1.379 . S
C772 C774 1.369 . S
C772 H800 0.930 . S
C773 C775 1.383 . S
C773 C776 1.382 . S
C773 H801 0.930 . S
C774 C772 1.369 . S
C774 C776 1.392 . S
C774 H802 0.930 . S
C775 C771 1.373 . S
C775 C773 1.383 . S
C775 H803 0.931 . S
C776 C773 1.382 . S
C776 C774 1.392 . S
C777 Eu768 2.828 . S
C777 C771 1.505 . S
C777 O789 1.249 . S
C777 O790 1.244 . S
O778 Eu769 2.373 . S
O778 C780 1.258 . S
O779 Eu768 2.392 . S
O779 C780 1.242 . S
C780 O778 1.258 . S
C780 O779 1.242 . S
O781 Eu768 2.418 . S
O781 C785 1.244 . S
O782 Eu769 2.488 . S
O782 C798 1.249 . S
O783 Eu769 2.471 . S
O783 C798 1.244 . S
O784 Eu769 2.349 . S
O784 C785 1.265 . S
C785 O781 1.244 . S
C785 O784 1.265 . S
O786 Eu768 2.373 . S
O786 C799 1.258 . S
O787 Eu769 2.392 . S
O787 C799 1.242 . S
O788 Eu769 2.418 . S
O788 C770 1.244 . S
O789 Eu768 2.488 . S
O789 C777 1.249 . S
O790 Eu768 2.471 . S
O790 C777 1.244 . S
O791 Eu768 2.349 . S
O791 C770 1.265 . S
C792 C793 1.379 . S
C792 C796 1.373 . S
C792 C798 1.505 . S
C793 C792 1.379 . S
C793 C795 1.369 . S
C793 H804 0.930 . S
C794 C796 1.383 . S
C794 C797 1.382 . S
C794 H805 0.930 . S
C795 C793 1.369 . S
C795 C797 1.392 . S
C795 H806 0.930 . S
C796 C792 1.373 . S
C796 C794 1.383 . S
C796 H807 0.931 . S
C797 C794 1.382 . S
C797 C795 1.392 . S
C798 Eu769 2.828 . S
C798 O782 1.249 . S
C798 O783 1.244 . S
C798 C792 1.505 . S
C799 O786 1.258 . S
C799 O787 1.242 . S
H800 C772 0.930 . S
H801 C773 0.930 . S
H802 C774 0.930 . S
H803 C775 0.931 . S
H804 C793 0.930 . S
H805 C794 0.930 . S
H806 C795 0.930 . S
H807 C796 0.931 . S
Eu808 C817 2.828 . S
Eu808 O819 2.392 . S
Eu808 O821 2.418 . S
Eu808 O826 2.373 . S
Eu808 O829 2.488 . S
Eu808 O830 2.471 . S
Eu808 O831 2.349 . S
Eu809 O818 2.373 . S
Eu809 O822 2.488 . S
Eu809 O823 2.471 . S
Eu809 O824 2.349 . S
Eu809 O827 2.392 . S
Eu809 O828 2.418 . S
Eu809 C838 2.828 . S
C810 O828 1.244 . S
C810 O831 1.265 . S
C811 C812 1.379 . S
C811 C815 1.373 . S
C811 C817 1.505 . S
C812 C811 1.379 . S
C812 C814 1.369 . S
C812 H840 0.930 . S
C813 C815 1.383 . S
C813 C816 1.382 . S
C813 H841 0.930 . S
C814 C812 1.369 . S
C814 C816 1.392 . S
C814 H842 0.930 . S
C815 C811 1.373 . S
C815 C813 1.383 . S
C815 H843 0.931 . S
C816 C813 1.382 . S
C816 C814 1.392 . S
C817 Eu808 2.828 . S
C817 C811 1.505 . S
C817 O829 1.249 . S
C817 O830 1.244 . S
O818 Eu809 2.373 . S
O818 C820 1.258 . S
O819 Eu808 2.392 . S
O819 C820 1.242 . S
C820 O818 1.258 . S
C820 O819 1.242 . S
O821 Eu808 2.418 . S
O821 C825 1.244 . S
O822 Eu809 2.488 . S
O822 C838 1.249 . S
O823 Eu809 2.471 . S
O823 C838 1.244 . S
O824 Eu809 2.349 . S
O824 C825 1.265 . S
C825 O821 1.244 . S
C825 O824 1.265 . S
O826 Eu808 2.373 . S
O826 C839 1.258 . S
O827 Eu809 2.392 . S
O827 C839 1.242 . S
O828 Eu809 2.418 . S
O828 C810 1.244 . S
O829 Eu808 2.488 . S
O829 C817 1.249 . S
O830 Eu808 2.471 . S
O830 C817 1.244 . S
O831 Eu808 2.349 . S
O831 C810 1.265 . S
C832 C833 1.379 . S
C832 C836 1.373 . S
C832 C838 1.505 . S
C833 C832 1.379 . S
C833 C835 1.369 . S
C833 H844 0.930 . S
C834 C836 1.383 . S
C834 C837 1.382 . S
C834 H845 0.930 . S
C835 C833 1.369 . S
C835 C837 1.392 . S
C835 H846 0.930 . S
C836 C832 1.373 . S
C836 C834 1.383 . S
C836 H847 0.931 . S
C837 C834 1.382 . S
C837 C835 1.392 . S
C838 Eu809 2.828 . S
C838 O822 1.249 . S
C838 O823 1.244 . S
C838 C832 1.505 . S
C839 O826 1.258 . S
C839 O827 1.242 . S
H840 C812 0.930 . S
H841 C813 0.930 . S
H842 C814 0.930 . S
H843 C815 0.931 . S
H844 C833 0.930 . S
H845 C834 0.930 . S
H846 C835 0.930 . S
H847 C836 0.931 . S
Eu848 C857 2.828 . S
Eu848 O859 2.392 . S
Eu848 O861 2.418 . S
Eu848 O866 2.373 . S
Eu848 O869 2.488 . S
Eu848 O870 2.471 . S
Eu848 O871 2.349 . S
Eu849 O858 2.373 . S
Eu849 O862 2.488 . S
Eu849 O863 2.471 . S
Eu849 O864 2.349 . S
Eu849 O867 2.392 . S
Eu849 O868 2.418 . S
Eu849 C878 2.828 . S
C850 O868 1.244 . S
C850 O871 1.265 . S
C851 C852 1.379 . S
C851 C855 1.373 . S
C851 C857 1.505 . S
C852 C851 1.379 . S
C852 C854 1.369 . S
C852 H880 0.930 . S
C853 C855 1.383 . S
C853 C856 1.382 . S
C853 H881 0.930 . S
C854 C852 1.369 . S
C854 C856 1.392 . S
C854 H882 0.930 . S
C855 C851 1.373 . S
C855 C853 1.383 . S
C855 H883 0.931 . S
C856 C853 1.382 . S
C856 C854 1.392 . S
C857 Eu848 2.828 . S
C857 C851 1.505 . S
C857 O869 1.249 . S
C857 O870 1.244 . S
O858 Eu849 2.373 . S
O858 C860 1.258 . S
O859 Eu848 2.392 . S
O859 C860 1.242 . S
C860 O858 1.258 . S
C860 O859 1.242 . S
O861 Eu848 2.418 . S
O861 C865 1.244 . S
O862 Eu849 2.488 . S
O862 C878 1.249 . S
O863 Eu849 2.471 . S
O863 C878 1.244 . S
O864 Eu849 2.349 . S
O864 C865 1.265 . S
C865 O861 1.244 . S
C865 O864 1.265 . S
O866 Eu848 2.373 . S
O866 C879 1.258 . S
O867 Eu849 2.392 . S
O867 C879 1.242 . S
O868 Eu849 2.418 . S
O868 C850 1.244 . S
O869 Eu848 2.488 . S
O869 C857 1.249 . S
O870 Eu848 2.471 . S
O870 C857 1.244 . S
O871 Eu848 2.349 . S
O871 C850 1.265 . S
C872 C873 1.379 . S
C872 C876 1.373 . S
C872 C878 1.505 . S
C873 C872 1.379 . S
C873 C875 1.369 . S
C873 H884 0.930 . S
C874 C876 1.383 . S
C874 C877 1.382 . S
C874 H885 0.930 . S
C875 C873 1.369 . S
C875 C877 1.392 . S
C875 H886 0.930 . S
C876 C872 1.373 . S
C876 C874 1.383 . S
C876 H887 0.931 . S
C877 C874 1.382 . S
C877 C875 1.392 . S
C878 Eu849 2.828 . S
C878 O862 1.249 . S
C878 O863 1.244 . S
C878 C872 1.505 . S
C879 O866 1.258 . S
C879 O867 1.242 . S
H880 C852 0.930 . S
H881 C853 0.930 . S
H882 C854 0.930 . S
H883 C855 0.931 . S
H884 C873 0.930 . S
H885 C874 0.930 . S
H886 C875 0.930 . S
H887 C876 0.931 . S
Eu888 C897 2.828 . S
Eu888 O899 2.392 . S
Eu888 O901 2.418 . S
Eu888 O906 2.373 . S
Eu888 O909 2.488 . S
Eu888 O910 2.471 . S
Eu888 O911 2.349 . S
Eu889 O898 2.373 . S
Eu889 O902 2.488 . S
Eu889 O903 2.471 . S
Eu889 O904 2.349 . S
Eu889 O907 2.392 . S
Eu889 O908 2.418 . S
Eu889 C918 2.828 . S
C890 O908 1.244 . S
C890 O911 1.265 . S
C891 C892 1.379 . S
C891 C895 1.373 . S
C891 C897 1.505 . S
C892 C891 1.379 . S
C892 C894 1.369 . S
C892 H920 0.930 . S
C893 C895 1.383 . S
C893 C896 1.382 . S
C893 H921 0.930 . S
C894 C892 1.369 . S
C894 C896 1.392 . S
C894 H922 0.930 . S
C895 C891 1.373 . S
C895 C893 1.383 . S
C895 H923 0.931 . S
C896 C893 1.382 . S
C896 C894 1.392 . S
C897 Eu888 2.828 . S
C897 C891 1.505 . S
C897 O909 1.249 . S
C897 O910 1.244 . S
O898 Eu889 2.373 . S
O898 C900 1.258 . S
O899 Eu888 2.392 . S
O899 C900 1.242 . S
C900 O898 1.258 . S
C900 O899 1.242 . S
O901 Eu888 2.418 . S
O901 C905 1.244 . S
O902 Eu889 2.488 . S
O902 C918 1.249 . S
O903 Eu889 2.471 . S
O903 C918 1.244 . S
O904 Eu889 2.349 . S
O904 C905 1.265 . S
C905 O901 1.244 . S
C905 O904 1.265 . S
O906 Eu888 2.373 . S
O906 C919 1.258 . S
O907 Eu889 2.392 . S
O907 C919 1.242 . S
O908 Eu889 2.418 . S
O908 C890 1.244 . S
O909 Eu888 2.488 . S
O909 C897 1.249 . S
O910 Eu888 2.471 . S
O910 C897 1.244 . S
O911 Eu888 2.349 . S
O911 C890 1.265 . S
C912 C913 1.379 . S
C912 C916 1.373 . S
C912 C918 1.505 . S
C913 C912 1.379 . S
C913 C915 1.369 . S
C913 H924 0.930 . S
C914 C916 1.383 . S
C914 C917 1.382 . S
C914 H925 0.930 . S
C915 C913 1.369 . S
C915 C917 1.392 . S
C915 H926 0.930 . S
C916 C912 1.373 . S
C916 C914 1.383 . S
C916 H927 0.931 . S
C917 C914 1.382 . S
C917 C915 1.392 . S
C918 Eu889 2.828 . S
C918 O902 1.249 . S
C918 O903 1.244 . S
C918 C912 1.505 . S
C919 O906 1.258 . S
C919 O907 1.242 . S
H920 C892 0.930 . S
H921 C893 0.930 . S
H922 C894 0.930 . S
H923 C895 0.931 . S
H924 C913 0.930 . S
H925 C914 0.930 . S
H926 C915 0.930 . S
H927 C916 0.931 . S
Eu928 C937 2.828 . S
Eu928 O939 2.392 . S
Eu928 O941 2.418 . S
Eu928 O946 2.373 . S
Eu928 O949 2.488 . S
Eu928 O950 2.471 . S
Eu928 O951 2.349 . S
Eu929 O938 2.373 . S
Eu929 O942 2.488 . S
Eu929 O943 2.471 . S
Eu929 O944 2.349 . S
Eu929 O947 2.392 . S
Eu929 O948 2.418 . S
Eu929 C958 2.828 . S
C930 O948 1.244 . S
C930 O951 1.265 . S
C931 C932 1.379 . S
C931 C935 1.373 . S
C931 C937 1.505 . S
C932 C931 1.379 . S
C932 C934 1.369 . S
C932 H960 0.930 . S
C933 C935 1.383 . S
C933 C936 1.382 . S
C933 H961 0.930 . S
C934 C932 1.369 . S
C934 C936 1.392 . S
C934 H962 0.930 . S
C935 C931 1.373 . S
C935 C933 1.383 . S
C935 H963 0.931 . S
C936 C933 1.382 . S
C936 C934 1.392 . S
C937 Eu928 2.828 . S
C937 C931 1.505 . S
C937 O949 1.249 . S
C937 O950 1.244 . S
O938 Eu929 2.373 . S
O938 C940 1.258 . S
O939 Eu928 2.392 . S
O939 C940 1.242 . S
C940 O938 1.258 . S
C940 O939 1.242 . S
O941 Eu928 2.418 . S
O941 C945 1.244 . S
O942 Eu929 2.488 . S
O942 C958 1.249 . S
O943 Eu929 2.471 . S
O943 C958 1.244 . S
O944 Eu929 2.349 . S
O944 C945 1.265 . S
C945 O941 1.244 . S
C945 O944 1.265 . S
O946 Eu928 2.373 . S
O946 C959 1.258 . S
O947 Eu929 2.392 . S
O947 C959 1.242 . S
O948 Eu929 2.418 . S
O948 C930 1.244 . S
O949 Eu928 2.488 . S
O949 C937 1.249 . S
O950 Eu928 2.471 . S
O950 C937 1.244 . S
O951 Eu928 2.349 . S
O951 C930 1.265 . S
C952 C953 1.379 . S
C952 C956 1.373 . S
C952 C958 1.505 . S
C953 C952 1.379 . S
C953 C955 1.369 . S
C953 H964 0.930 . S
C954 C956 1.383 . S
C954 C957 1.382 . S
C954 H965 0.930 . S
C955 C953 1.369 . S
C955 C957 1.392 . S
C955 H966 0.930 . S
C956 C952 1.373 . S
C956 C954 1.383 . S
C956 H967 0.931 . S
C957 C954 1.382 . S
C957 C955 1.392 . S
C958 Eu929 2.828 . S
C958 O942 1.249 . S
C958 O943 1.244 . S
C958 C952 1.505 . S
C959 O946 1.258 . S
C959 O947 1.242 . S
H960 C932 0.930 . S
H961 C933 0.930 . S
H962 C934 0.930 . S
H963 C935 0.931 . S
H964 C953 0.930 . S
H965 C954 0.930 . S
H966 C955 0.930 . S
H967 C956 0.931 . S
Eu968 C977 2.828 . S
Eu968 O979 2.392 . S
Eu968 O981 2.418 . S
Eu968 O986 2.373 . S
Eu968 O989 2.488 . S
Eu968 O990 2.471 . S
Eu968 O991 2.349 . S
Eu969 O978 2.373 . S
Eu969 O982 2.488 . S
Eu969 O983 2.471 . S
Eu969 O984 2.349 . S
Eu969 O987 2.392 . S
Eu969 O988 2.418 . S
Eu969 C998 2.828 . S
C970 O988 1.244 . S
C970 O991 1.265 . S
C971 C972 1.379 . S
C971 C975 1.373 . S
C971 C977 1.505 . S
C972 C971 1.379 . S
C972 C974 1.369 . S
C972 H1000 0.930 . S
C973 C975 1.383 . S
C973 C976 1.382 . S
C973 H1001 0.930 . S
C974 C972 1.369 . S
C974 C976 1.392 . S
C974 H1002 0.930 . S
C975 C971 1.373 . S
C975 C973 1.383 . S
C975 H1003 0.931 . S
C976 C973 1.382 . S
C976 C974 1.392 . S
C977 Eu968 2.828 . S
C977 C971 1.505 . S
C977 O989 1.249 . S
C977 O990 1.244 . S
O978 Eu969 2.373 . S
O978 C980 1.258 . S
O979 Eu968 2.392 . S
O979 C980 1.242 . S
C980 O978 1.258 . S
C980 O979 1.242 . S
O981 Eu968 2.418 . S
O981 C985 1.244 . S
O982 Eu969 2.488 . S
O982 C998 1.249 . S
O983 Eu969 2.471 . S
O983 C998 1.244 . S
O984 Eu969 2.349 . S
O984 C985 1.265 . S
C985 O981 1.244 . S
C985 O984 1.265 . S
O986 Eu968 2.373 . S
O986 C999 1.258 . S
O987 Eu969 2.392 . S
O987 C999 1.242 . S
O988 Eu969 2.418 . S
O988 C970 1.244 . S
O989 Eu968 2.488 . S
O989 C977 1.249 . S
O990 Eu968 2.471 . S
O990 C977 1.244 . S
O991 Eu968 2.349 . S
O991 C970 1.265 . S
C992 C993 1.379 . S
C992 C996 1.373 . S
C992 C998 1.505 . S
C993 C992 1.379 . S
C993 C995 1.369 . S
C993 H1004 0.930 . S
C994 C996 1.383 . S
C994 C997 1.382 . S
C994 H1005 0.930 . S
C995 C993 1.369 . S
C995 C997 1.392 . S
C995 H1006 0.930 . S
C996 C992 1.373 . S
C996 C994 1.383 . S
C996 H1007 0.931 . S
C997 C994 1.382 . S
C997 C995 1.392 . S
C998 Eu969 2.828 . S
C998 O982 1.249 . S
C998 O983 1.244 . S
C998 C992 1.505 . S
C999 O986 1.258 . S
C999 O987 1.242 . S
H1000 C972 0.930 . S
H1001 C973 0.930 . S
H1002 C974 0.930 . S
H1003 C975 0.931 . S
H1004 C993 0.930 . S
H1005 C994 0.930 . S
H1006 C995 0.930 . S
H1007 C996 0.931 . S
H1008 C1020 0.930 . S
H1009 C1022 0.930 . S
H1010 C1023 0.930 . S
H1011 C1027 0.959 . S
H1012 C1027 0.959 . S
H1013 C1027 0.961 . S
H1014 C1028 0.967 . S
H1015 C1028 0.961 1_556 S
H1016 C1028 0.959 . S
H1017 C1031 0.929 . S
H1018 C1032 0.931 . S
H1019 C1034 0.930 . S
C1020 H1008 0.930 . S
C1020 C1021 1.399 . S
C1020 C1025 1.399 . S
C1021 C1020 1.399 . S
C1021 C1022 1.376 . S
C1022 H1009 0.930 . S
C1022 C1021 1.376 . S
C1022 C1023 1.388 . S
C1023 H1010 0.930 . S
C1023 C1022 1.388 . S
C1023 C1024 1.390 . S
C1024 C1023 1.390 . S
C1024 C1025 1.394 . S
C1024 C1030 1.465 . S
C1025 C1020 1.399 . S
C1025 C1024 1.394 . S
C1025 C1026 1.516 . S
C1026 C1025 1.516 . S
C1026 C1027 1.502 . S
C1026 C1028 1.561 . S
C1026 C1029 1.526 . S
C1027 H1011 0.959 . S
C1027 H1012 0.959 . S
C1027 H1013 0.961 . S
C1027 C1026 1.502 . S
C1028 H1014 0.967 . S
C1028 H1015 0.961 1_554 S
C1028 H1016 0.959 . S
C1028 C1026 1.561 . S
C1029 C1026 1.526 . S
C1029 C1030 1.396 . S
C1029 C1034 1.390 . S
C1030 C1024 1.465 . S
C1030 C1029 1.396 . S
C1030 C1031 1.399 . S
C1031 H1017 0.929 . S
C1031 C1030 1.399 . S
C1031 C1032 1.385 . S
C1032 H1018 0.931 . S
C1032 C1031 1.385 . S
C1032 C1033 1.389 . S
C1033 C1032 1.389 . S
C1033 C1034 1.387 . S
C1034 H1019 0.930 . S
C1034 C1029 1.390 . S
C1034 C1033 1.387 . S
H1035 C1047 0.930 . S
H1036 C1049 0.930 . S
H1037 C1050 0.930 . S
H1038 C1054 0.959 . S
H1039 C1054 0.959 . S
H1040 C1054 0.961 . S
H1041 C1055 0.960 . S
H1042 C1055 0.961 . S
H1043 C1055 0.959 . S
H1044 C1058 0.929 . S
H1045 C1059 0.931 . S
H1046 C1061 0.930 . S
C1047 H1035 0.930 . S
C1047 C1048 1.399 . S
C1047 C1052 1.399 . S
C1048 C1047 1.399 . S
C1048 C1049 1.376 . S
C1049 H1036 0.930 . S
C1049 C1048 1.376 . S
C1049 C1050 1.388 . S
C1050 H1037 0.930 . S
C1050 C1049 1.388 . S
C1050 C1051 1.390 . S
C1051 C1050 1.390 . S
C1051 C1052 1.394 . S
C1051 C1057 1.465 . S
C1052 C1047 1.399 . S
C1052 C1051 1.394 . S
C1052 C1053 1.516 . S
C1053 C1052 1.516 . S
C1053 C1054 1.502 . S
C1053 C1055 1.561 . S
C1053 C1056 1.526 . S
C1054 H1038 0.959 . S
C1054 H1039 0.959 . S
C1054 H1040 0.961 . S
C1054 C1053 1.502 . S
C1055 H1041 0.960 . S
C1055 H1042 0.961 . S
C1055 H1043 0.959 . S
C1055 C1053 1.561 . S
C1056 C1053 1.526 . S
C1056 C1057 1.396 . S
C1056 C1061 1.390 . S
C1057 C1051 1.465 . S
C1057 C1056 1.396 . S
C1057 C1058 1.399 . S
C1058 H1044 0.929 . S
C1058 C1057 1.399 . S
C1058 C1059 1.385 . S
C1059 H1045 0.931 . S
C1059 C1058 1.385 . S
C1059 C1060 1.389 . S
C1060 C1059 1.389 . S
C1060 C1061 1.387 . S
C1061 H1046 0.930 . S
C1061 C1056 1.390 . S
C1061 C1060 1.387 . S
H1062 C1074 0.930 . S
H1063 C1076 0.930 . S
H1064 C1077 0.930 . S
H1065 C1081 0.959 1_554 S
H1066 C1081 0.959 . S
H1067 C1081 0.961 . S
H1068 C1082 0.960 . S
H1069 C1082 0.961 . S
H1070 C1082 0.959 . S
H1071 C1085 0.929 . S
H1072 C1086 0.931 . S
H1073 C1088 0.930 1_556 S
C1074 H1062 0.930 . S
C1074 C1075 1.399 . S
C1074 C1079 1.399 . S
C1075 C1074 1.399 . S
C1075 C1076 1.376 . S
C1076 H1063 0.930 . S
C1076 C1075 1.376 . S
C1076 C1077 1.388 . S
C1077 H1064 0.930 . S
C1077 C1076 1.388 . S
C1077 C1078 1.390 . S
C1078 C1077 1.390 . S
C1078 C1079 1.394 . S
C1078 C1084 1.465 . S
C1079 C1074 1.399 . S
C1079 C1078 1.394 . S
C1079 C1080 1.516 . S
C1080 C1079 1.516 . S
C1080 C1081 1.502 1_554 S
C1080 C1082 1.561 1_554 S
C1080 C1083 1.526 . S
C1081 H1065 0.959 1_556 S
C1081 H1066 0.959 . S
C1081 H1067 0.961 . S
C1081 C1080 1.502 1_556 S
C1082 H1068 0.960 . S
C1082 H1069 0.961 . S
C1082 H1070 0.959 . S
C1082 C1080 1.561 1_556 S
C1083 C1080 1.526 . S
C1083 C1084 1.396 . S
C1083 C1088 1.390 . S
C1084 C1078 1.465 . S
C1084 C1083 1.396 . S
C1084 C1085 1.399 . S
C1085 H1071 0.929 . S
C1085 C1084 1.399 . S
C1085 C1086 1.385 . S
C1086 H1072 0.931 . S
C1086 C1085 1.385 . S
C1086 C1087 1.389 . S
C1087 C1086 1.389 . S
C1087 C1088 1.387 . S
C1088 H1073 0.930 1_554 S
C1088 C1083 1.390 . S
C1088 C1087 1.387 . S
H1089 C1101 0.930 . S
H1090 C1103 0.930 . S
H1091 C1104 0.930 . S
H1092 C1108 0.959 1_556 S
H1093 C1108 0.959 . S
H1094 C1108 0.961 . S
H1095 C1109 0.960 . S
H1096 C1109 0.961 . S
H1097 C1109 0.959 . S
H1098 C1112 0.929 . S
H1099 C1113 0.931 . S
H1100 C1115 0.930 1_554 S
C1101 H1089 0.930 . S
C1101 C1102 1.399 . S
C1101 C1106 1.399 . S
C1102 C1101 1.399 . S
C1102 C1103 1.376 . S
C1103 H1090 0.930 . S
C1103 C1102 1.376 . S
C1103 C1104 1.388 . S
C1104 H1091 0.930 . S
C1104 C1103 1.388 . S
C1104 C1105 1.390 . S
C1105 C1104 1.390 . S
C1105 C1106 1.394 . S
C1105 C1111 1.465 . S
C1106 C1101 1.399 . S
C1106 C1105 1.394 . S
C1106 C1107 1.516 . S
C1107 C1106 1.516 . S
C1107 C1108 1.502 1_556 S
C1107 C1109 1.561 1_556 S
C1107 C1110 1.526 . S
C1108 H1092 0.959 1_554 S
C1108 H1093 0.959 . S
C1108 H1094 0.961 . S
C1108 C1107 1.502 1_554 S
C1109 H1095 0.960 . S
C1109 H1096 0.961 . S
C1109 H1097 0.959 . S
C1109 C1107 1.561 1_554 S
C1110 C1107 1.526 . S
C1110 C1111 1.396 . S
C1110 C1115 1.390 . S
C1111 C1105 1.465 . S
C1111 C1110 1.396 . S
C1111 C1112 1.399 . S
C1112 H1098 0.929 . S
C1112 C1111 1.399 . S
C1112 C1113 1.385 . S
C1113 H1099 0.931 . S
C1113 C1112 1.385 . S
C1113 C1114 1.389 . S
C1114 C1113 1.389 . S
C1114 C1115 1.387 . S
C1115 H1100 0.930 1_556 S
C1115 C1110 1.390 . S
C1115 C1114 1.387 . S
H1116 C1128 0.930 . S
H1117 C1130 0.930 . S
H1118 C1131 0.930 . S
H1119 C1135 0.959 . S
H1120 C1135 0.956 1_554 S
H1121 C1135 0.961 . S
H1122 C1136 0.962 . S
H1123 C1136 0.961 1_554 S
H1124 C1136 0.959 . S
H1125 C1139 0.929 . S
H1126 C1140 0.931 . S
H1127 C1142 0.960 . S
C1128 H1116 0.930 . S
C1128 C1129 1.399 . S
C1128 C1133 1.399 . S
C1129 C1128 1.399 . S
C1129 C1130 1.376 . S
C1130 H1117 0.930 . S
C1130 C1129 1.376 . S
C1130 C1131 1.388 . S
C1131 H1118 0.930 . S
C1131 C1130 1.388 . S
C1131 C1132 1.390 . S
C1132 C1131 1.390 . S
C1132 C1133 1.394 . S
C1132 C1138 1.465 . S
C1133 C1128 1.399 . S
C1133 C1132 1.394 . S
C1133 C1134 1.516 . S
C1134 C1133 1.516 . S
C1134 C1135 1.502 . S
C1134 C1136 1.561 . S
C1134 C1137 1.526 . S
C1135 H1119 0.959 . S
C1135 H1120 0.956 1_556 S
C1135 H1121 0.961 . S
C1135 C1134 1.502 . S
C1136 H1122 0.962 . S
C1136 H1123 0.961 1_556 S
C1136 H1124 0.959 . S
C1136 C1134 1.561 . S
C1137 C1134 1.526 . S
C1137 C1138 1.396 . S
C1137 C1142 1.390 . S
C1138 C1132 1.465 . S
C1138 C1137 1.396 . S
C1138 C1139 1.399 . S
C1139 H1125 0.929 . S
C1139 C1138 1.399 . S
C1139 C1140 1.385 . S
C1140 H1126 0.931 . S
C1140 C1139 1.385 . S
C1140 C1141 1.389 . S
C1141 C1140 1.389 . S
C1141 C1142 1.387 . S
C1142 H1127 0.960 . S
C1142 C1137 1.390 . S
C1142 C1141 1.387 . S
H1143 C1155 0.930 . S
H1144 C1157 0.930 . S
H1145 C1158 0.930 . S
H1146 C1162 0.959 . S
H1147 C1162 0.959 . S
H1148 C1162 0.961 . S
H1149 C1163 0.960 . S
H1150 C1163 0.961 . S
H1151 C1163 0.959 . S
H1152 C1166 0.929 . S
H1153 C1167 0.931 . S
H1154 C1169 0.930 . S
C1155 H1143 0.930 . S
C1155 C1156 1.399 . S
C1155 C1160 1.399 . S
C1156 C1155 1.399 . S
C1156 C1157 1.376 . S
C1157 H1144 0.930 . S
C1157 C1156 1.376 . S
C1157 C1158 1.388 . S
C1158 H1145 0.930 . S
C1158 C1157 1.388 . S
C1158 C1159 1.390 . S
C1159 C1158 1.390 . S
C1159 C1160 1.394 . S
C1159 C1165 1.465 . S
C1160 C1155 1.399 . S
C1160 C1159 1.394 . S
C1160 C1161 1.516 1_556 S
C1161 C1160 1.516 1_554 S
C1161 C1162 1.502 . S
C1161 C1163 1.561 . S
C1161 C1164 1.526 1_554 S
C1162 H1146 0.959 . S
C1162 H1147 0.959 . S
C1162 H1148 0.961 . S
C1162 C1161 1.502 . S
C1163 H1149 0.960 . S
C1163 H1150 0.961 . S
C1163 H1151 0.959 . S
C1163 C1161 1.561 . S
C1164 C1161 1.526 1_556 S
C1164 C1165 1.396 . S
C1164 C1169 1.390 1_556 S
C1165 C1159 1.465 . S
C1165 C1164 1.396 . S
C1165 C1166 1.399 . S
C1166 H1152 0.929 . S
C1166 C1165 1.399 . S
C1166 C1167 1.385 . S
C1167 H1153 0.931 . S
C1167 C1166 1.385 . S
C1167 C1168 1.389 . S
C1168 C1167 1.389 . S
C1168 C1169 1.387 1_556 S
C1169 H1154 0.930 . S
C1169 C1164 1.390 1_554 S
C1169 C1168 1.387 1_554 S
H1170 C1182 0.930 . S
H1171 C1184 0.930 . S
H1172 C1185 0.893 1_554 S
H1173 C1189 0.959 . S
H1174 C1189 0.959 . S
H1175 C1189 0.961 . S
H1176 C1190 0.960 . S
H1177 C1190 0.961 . S
H1178 C1190 0.959 . S
H1179 C1193 0.929 . S
H1180 C1194 0.931 . S
H1181 C1196 0.930 . S
C1182 H1170 0.930 . S
C1182 C1183 1.399 . S
C1182 C1187 1.399 . S
C1183 C1182 1.399 . S
C1183 C1184 1.376 . S
C1184 H1171 0.930 . S
C1184 C1183 1.376 . S
C1184 C1185 1.388 . S
C1185 H1172 0.893 1_556 S
C1185 C1184 1.388 . S
C1185 C1186 1.390 . S
C1186 C1185 1.390 . S
C1186 C1187 1.394 . S
C1186 C1192 1.465 . S
C1187 C1182 1.399 . S
C1187 C1186 1.394 . S
C1187 C1188 1.516 . S
C1188 C1187 1.516 . S
C1188 C1189 1.502 . S
C1188 C1190 1.561 . S
C1188 C1191 1.526 . S
C1189 H1173 0.959 . S
C1189 H1174 0.959 . S
C1189 H1175 0.961 . S
C1189 C1188 1.502 . S
C1190 H1176 0.960 . S
C1190 H1177 0.961 . S
C1190 H1178 0.959 . S
C1190 C1188 1.561 . S
C1191 C1188 1.526 . S
C1191 C1192 1.396 . S
C1191 C1196 1.390 . S
C1192 C1186 1.465 . S
C1192 C1191 1.396 . S
C1192 C1193 1.399 1_556 S
C1193 H1179 0.929 . S
C1193 C1192 1.399 1_554 S
C1193 C1194 1.385 . S
C1194 H1180 0.931 . S
C1194 C1193 1.385 . S
C1194 C1195 1.389 1_554 S
C1195 C1194 1.389 1_556 S
C1195 C1196 1.387 . S
C1196 H1181 0.930 . S
C1196 C1191 1.390 . S
C1196 C1195 1.387 . S
H1197 C1209 0.930 . S
H1198 C1211 0.930 . S
H1199 C1212 0.930 . S
H1200 C1216 0.959 . S
H1201 C1216 0.959 . S
H1202 C1216 0.961 . S
H1203 C1217 0.966 . S
H1204 C1217 0.983 . S
H1205 C1217 0.961 1_556 S
H1206 C1220 0.929 . S
H1207 C1221 0.931 . S
H1208 C1223 0.930 . S
C1209 H1197 0.930 . S
C1209 C1210 1.399 . S
C1209 C1214 1.399 . S
C1210 C1209 1.399 . S
C1210 C1211 1.376 . S
C1211 H1198 0.930 . S
C1211 C1210 1.376 . S
C1211 C1212 1.388 . S
C1212 H1199 0.930 . S
C1212 C1211 1.388 . S
C1212 C1213 1.390 . S
C1213 C1212 1.390 . S
C1213 C1214 1.394 . S
C1213 C1219 1.465 . S
C1214 C1209 1.399 . S
C1214 C1213 1.394 . S
C1214 C1215 1.516 . S
C1215 C1214 1.516 . S
C1215 C1216 1.502 . S
C1215 C1217 1.532 1_556 S
C1215 C1218 1.526 . S
C1216 H1200 0.959 . S
C1216 H1201 0.959 . S
C1216 H1202 0.961 . S
C1216 C1215 1.502 . S
C1217 H1203 0.966 . S
C1217 H1204 0.983 . S
C1217 H1205 0.961 1_554 S
C1217 C1215 1.532 1_554 S
C1218 C1215 1.526 . S
C1218 C1219 1.396 . S
C1218 C1223 1.390 . S
C1219 C1213 1.465 . S
C1219 C1218 1.396 . S
C1219 C1220 1.399 . S
C1220 H1206 0.929 . S
C1220 C1219 1.399 . S
C1220 C1221 1.385 . S
C1221 H1207 0.931 . S
C1221 C1220 1.385 . S
C1221 C1222 1.389 . S
C1222 C1221 1.389 . S
C1222 C1223 1.387 . S
C1223 H1208 0.930 . S
C1223 C1218 1.390 . S
C1223 C1222 1.387 . S
H1224 C1236 0.923 1_554 S
H1225 C1238 0.930 . S
H1226 C1239 0.930 . S
H1227 C1243 0.959 . S
H1228 C1243 0.959 . S
H1229 C1243 0.961 . S
H1230 C1244 0.960 . S
H1231 C1244 0.961 . S
H1232 C1244 0.959 . S
H1233 C1247 0.929 . S
H1234 C1248 0.931 . S
H1235 C1250 0.930 . S
C1236 H1224 0.923 1_556 S
C1236 C1237 1.399 . S
C1236 C1241 1.399 . S
C1237 C1236 1.399 . S
C1237 C1238 1.376 . S
C1238 H1225 0.930 . S
C1238 C1237 1.376 . S
C1238 C1239 1.388 . S
C1239 H1226 0.930 . S
C1239 C1238 1.388 . S
C1239 C1240 1.390 . S
C1240 C1239 1.390 . S
C1240 C1241 1.394 . S
C1240 C1246 1.465 . S
C1241 C1236 1.399 . S
C1241 C1240 1.394 . S
C1241 C1242 1.516 1_556 S
C1242 C1241 1.516 1_554 S
C1242 C1243 1.502 . S
C1242 C1244 1.561 . S
C1242 C1245 1.526 1_554 S
C1243 H1227 0.959 . S
C1243 H1228 0.959 . S
C1243 H1229 0.961 . S
C1243 C1242 1.502 . S
C1244 H1230 0.960 . S
C1244 H1231 0.961 . S
C1244 H1232 0.959 . S
C1244 C1242 1.561 . S
C1245 C1242 1.526 1_556 S
C1245 C1246 1.396 . S
C1245 C1250 1.390 1_556 S
C1246 C1240 1.465 . S
C1246 C1245 1.396 . S
C1246 C1247 1.399 . S
C1247 H1233 0.929 . S
C1247 C1246 1.399 . S
C1247 C1248 1.385 . S
C1248 H1234 0.931 . S
C1248 C1247 1.385 . S
C1248 C1249 1.389 . S
C1249 C1248 1.389 . S
C1249 C1250 1.387 1_556 S
C1250 H1235 0.930 . S
C1250 C1245 1.390 1_554 S
C1250 C1249 1.387 1_554 S
H1251 C1263 0.930 . S
H1252 C1265 0.930 . S
H1253 C1266 0.930 . S
H1254 C1270 0.959 . S
H1255 C1270 0.959 1_556 S
H1256 C1270 0.961 . S
H1257 C1271 0.960 . S
H1258 C1271 0.961 . S
H1259 C1271 0.959 1_554 S
H1260 C1274 0.929 . S
H1261 C1275 0.931 . S
H1262 C1277 0.930 . S
C1263 H1251 0.930 . S
C1263 C1264 1.399 . S
C1263 C1268 1.399 . S
C1264 C1263 1.399 . S
C1264 C1265 1.376 . S
C1265 H1252 0.930 . S
C1265 C1264 1.376 . S
C1265 C1266 1.388 . S
C1266 H1253 0.930 . S
C1266 C1265 1.388 . S
C1266 C1267 1.390 . S
C1267 C1266 1.390 . S
C1267 C1268 1.394 . S
C1267 C1273 1.465 . S
C1268 C1263 1.399 . S
C1268 C1267 1.394 . S
C1268 C1269 1.516 . S
C1269 C1268 1.516 . S
C1269 C1270 1.502 . S
C1269 C1271 1.561 1_554 S
C1269 C1272 1.526 . S
C1270 H1254 0.959 . S
C1270 H1255 0.959 1_554 S
C1270 H1256 0.961 . S
C1270 C1269 1.502 . S
C1271 H1257 0.960 . S
C1271 H1258 0.961 . S
C1271 H1259 0.959 1_556 S
C1271 C1269 1.561 1_556 S
C1272 C1269 1.526 . S
C1272 C1273 1.396 . S
C1272 C1277 1.390 . S
C1273 C1267 1.465 . S
C1273 C1272 1.396 . S
C1273 C1274 1.399 . S
C1274 H1260 0.929 . S
C1274 C1273 1.399 . S
C1274 C1275 1.385 . S
C1275 H1261 0.931 . S
C1275 C1274 1.385 . S
C1275 C1276 1.389 . S
C1276 C1275 1.389 . S
C1276 C1277 1.387 . S
C1277 H1262 0.930 . S
C1277 C1272 1.390 . S
C1277 C1276 1.387 . S
H1278 C1290 0.930 . S
H1279 C1292 0.930 . S
H1280 C1293 0.930 . S
H1281 C1297 0.959 . S
H1282 C1297 0.959 . S
H1283 C1297 0.961 . S
H1284 C1298 0.960 . S
H1285 C1298 0.961 . S
H1286 C1298 0.959 . S
H1287 C1301 0.929 . S
H1288 C1302 0.931 . S
H1289 C1304 0.930 . S
C1290 H1278 0.930 . S
C1290 C1291 1.399 . S
C1290 C1295 1.399 . S
C1291 C1290 1.399 . S
C1291 C1292 1.376 . S
C1292 H1279 0.930 . S
C1292 C1291 1.376 . S
C1292 C1293 1.388 . S
C1293 H1280 0.930 . S
C1293 C1292 1.388 . S
C1293 C1294 1.390 . S
C1294 C1293 1.390 . S
C1294 C1295 1.394 . S
C1294 C1300 1.465 . S
C1295 C1290 1.399 . S
C1295 C1294 1.394 . S
C1295 C1296 1.516 . S
C1296 C1295 1.516 . S
C1296 C1297 1.502 . S
C1296 C1298 1.561 . S
C1296 C1299 1.526 . S
C1297 H1281 0.959 . S
C1297 H1282 0.959 . S
C1297 H1283 0.961 . S
C1297 C1296 1.502 . S
C1298 H1284 0.960 . S
C1298 H1285 0.961 . S
C1298 H1286 0.959 . S
C1298 C1296 1.561 . S
C1299 C1296 1.526 . S
C1299 C1300 1.396 . S
C1299 C1304 1.390 . S
C1300 C1294 1.465 . S
C1300 C1299 1.396 . S
C1300 C1301 1.399 . S
C1301 H1287 0.929 . S
C1301 C1300 1.399 . S
C1301 C1302 1.385 . S
C1302 H1288 0.931 . S
C1302 C1301 1.385 . S
C1302 C1303 1.389 . S
C1303 C1302 1.389 . S
C1303 C1304 1.387 . S
C1304 H1289 0.930 . S
C1304 C1299 1.390 . S
C1304 C1303 1.387 . S
H1305 C1317 0.930 . S
H1306 C1319 0.930 . S
H1307 C1320 0.915 1_556 S
H1308 C1324 0.959 . S
H1309 C1324 0.959 . S
H1310 C1324 0.961 . S
H1311 C1325 0.960 . S
H1312 C1325 0.961 . S
H1313 C1325 0.959 . S
H1314 C1328 0.884 1_556 S
H1315 C1329 0.929 1_556 S
H1316 C1331 0.930 . S
C1317 H1305 0.930 . S
C1317 C1318 1.399 . S
C1317 C1322 1.399 . S
C1318 C1317 1.399 . S
C1318 C1319 1.376 . S
C1319 H1306 0.930 . S
C1319 C1318 1.376 . S
C1319 C1320 1.388 . S
C1320 H1307 0.915 1_554 S
C1320 C1319 1.388 . S
C1320 C1321 1.390 . S
C1321 C1320 1.390 . S
C1321 C1322 1.394 . S
C1321 C1327 1.465 . S
C1322 C1317 1.399 . S
C1322 C1321 1.394 . S
C1322 C1323 1.516 . S
C1323 C1322 1.516 . S
C1323 C1324 1.502 . S
C1323 C1325 1.561 . S
C1323 C1326 1.526 . S
C1324 H1308 0.959 . S
C1324 H1309 0.959 . S
C1324 H1310 0.961 . S
C1324 C1323 1.502 . S
C1325 H1311 0.960 . S
C1325 H1312 0.961 . S
C1325 H1313 0.959 . S
C1325 C1323 1.561 . S
C1326 C1323 1.526 . S
C1326 C1327 1.396 . S
C1326 C1331 1.390 . S
C1327 C1321 1.465 . S
C1327 C1326 1.396 . S
C1327 C1328 1.447 . S
C1328 H1314 0.884 1_554 S
C1328 C1327 1.447 . S
C1328 C1329 1.385 . S
C1329 H1315 0.929 1_554 S
C1329 C1328 1.385 . S
C1329 C1330 1.391 . S
C1330 C1329 1.391 . S
C1330 C1331 1.387 . S
C1331 H1316 0.930 . S
C1331 C1326 1.390 . S
C1331 C1330 1.387 . S
H1332 C1344 0.930 . S
H1333 C1346 0.930 . S
H1334 C1347 0.922 . S
H1335 C1351 0.959 . S
H1336 C1351 0.959 . S
H1337 C1351 0.961 . S
H1338 C1352 0.960 . S
H1339 C1352 0.961 . S
H1340 C1352 0.959 . S
H1341 C1355 0.929 . S
H1342 C1356 0.931 . S
H1343 C1358 0.930 . S
C1344 H1332 0.930 . S
C1344 C1345 1.399 . S
C1344 C1349 1.399 1_655 S
C1345 C1344 1.399 . S
C1345 C1346 1.376 . S
C1346 H1333 0.930 . S
C1346 C1345 1.376 . S
C1346 C1347 1.388 . S
C1347 H1334 0.922 . S
C1347 C1346 1.388 . S
C1347 C1348 1.390 1_655 S
C1348 C1347 1.390 1_455 S
C1348 C1349 1.394 . S
C1348 C1354 1.465 . S
C1349 C1344 1.399 1_455 S
C1349 C1348 1.394 . S
C1349 C1350 1.516 . S
C1350 C1349 1.516 . S
C1350 C1351 1.502 . S
C1350 C1352 1.561 . S
C1350 C1353 1.526 . S
C1351 H1335 0.959 . S
C1351 H1336 0.959 . S
C1351 H1337 0.961 . S
C1351 C1350 1.502 . S
C1352 H1338 0.960 . S
C1352 H1339 0.961 . S
C1352 H1340 0.959 . S
C1352 C1350 1.561 . S
C1353 C1350 1.526 . S
C1353 C1354 1.396 . S
C1353 C1358 1.390 . S
C1354 C1348 1.465 . S
C1354 C1353 1.396 . S
C1354 C1355 1.399 . S
C1355 H1341 0.929 . S
C1355 C1354 1.399 . S
C1355 C1356 1.385 . S
C1356 H1342 0.931 . S
C1356 C1355 1.385 . S
C1356 C1357 1.389 . S
C1357 C1356 1.389 . S
C1357 C1358 1.387 . S
C1358 H1343 0.930 . S
C1358 C1353 1.390 . S
C1358 C1357 1.387 . S
H1359 C1371 0.930 . S
H1360 C1373 0.930 . S
H1361 C1374 0.930 . S
H1362 C1378 0.959 . S
H1363 C1378 0.959 . S
H1364 C1378 0.961 . S
H1365 C1379 0.960 . S
H1366 C1379 0.961 . S
H1367 C1379 0.959 . S
H1368 C1382 0.929 . S
H1369 C1383 0.931 . S
H1370 C1385 0.930 . S
C1371 H1359 0.930 . S
C1371 C1372 1.399 . S
C1371 C1376 1.399 . S
C1372 C1371 1.399 . S
C1372 C1373 1.376 . S
C1373 H1360 0.930 . S
C1373 C1372 1.376 . S
C1373 C1374 1.388 . S
C1374 H1361 0.930 . S
C1374 C1373 1.388 . S
C1374 C1375 1.390 . S
C1375 C1374 1.390 . S
C1375 C1376 1.394 . S
C1375 C1381 1.465 . S
C1376 C1371 1.399 . S
C1376 C1375 1.394 . S
C1376 C1377 1.516 . S
C1377 C1376 1.516 . S
C1377 C1378 1.502 . S
C1377 C1379 1.561 . S
C1377 C1380 1.526 . S
C1378 H1362 0.959 . S
C1378 H1363 0.959 . S
C1378 H1364 0.961 . S
C1378 C1377 1.502 . S
C1379 H1365 0.960 . S
C1379 H1366 0.961 . S
C1379 H1367 0.959 . S
C1379 C1377 1.561 . S
C1380 C1377 1.526 . S
C1380 C1381 1.396 . S
C1380 C1385 1.390 . S
C1381 C1375 1.465 . S
C1381 C1380 1.396 . S
C1381 C1382 1.399 . S
C1382 H1368 0.929 . S
C1382 C1381 1.399 . S
C1382 C1383 1.385 . S
C1383 H1369 0.931 . S
C1383 C1382 1.385 . S
C1383 C1384 1.389 . S
C1384 C1383 1.389 . S
C1384 C1385 1.387 . S
C1385 H1370 0.930 . S
C1385 C1380 1.390 . S
C1385 C1384 1.387 . S
H1386 C1398 0.930 . S
H1387 C1400 0.930 . S
H1388 C1401 0.930 1_565 S
H1389 C1405 0.959 . S
H1390 C1405 0.959 . S
H1391 C1405 0.961 . S
H1392 C1406 0.960 . S
H1393 C1406 0.961 . S
H1394 C1406 0.959 . S
H1395 C1409 0.929 . S
H1396 C1410 0.931 . S
H1397 C1412 0.930 . S
C1398 H1386 0.930 . S
C1398 C1399 1.399 . S
C1398 C1403 1.377 1_545 S
C1399 C1398 1.399 . S
C1399 C1400 1.376 . S
C1400 H1387 0.930 . S
C1400 C1399 1.376 . S
C1400 C1401 1.388 . S
C1401 H1388 0.930 1_545 S
C1401 C1400 1.388 . S
C1401 C1402 1.390 1_545 S
C1402 C1401 1.390 1_565 S
C1402 C1403 1.408 . S
C1402 C1408 1.465 . S
C1403 C1398 1.377 1_565 S
C1403 C1402 1.408 . S
C1403 C1404 1.527 . S
C1404 C1403 1.527 . S
C1404 C1405 1.502 . S
C1404 C1406 1.561 . S
C1404 C1407 1.526 . S
C1405 H1389 0.959 . S
C1405 H1390 0.959 . S
C1405 H1391 0.961 . S
C1405 C1404 1.502 . S
C1406 H1392 0.960 . S
C1406 H1393 0.961 . S
C1406 H1394 0.959 . S
C1406 C1404 1.561 . S
C1407 C1404 1.526 . S
C1407 C1408 1.396 . S
C1407 C1412 1.390 . S
C1408 C1402 1.465 . S
C1408 C1407 1.396 . S
C1408 C1409 1.399 . S
C1409 H1395 0.929 . S
C1409 C1408 1.399 . S
C1409 C1410 1.385 . S
C1410 H1396 0.931 . S
C1410 C1409 1.385 . S
C1410 C1411 1.389 . S
C1411 C1410 1.389 . S
C1411 C1412 1.387 . S
C1412 H1397 0.930 . S
C1412 C1407 1.390 . S
C1412 C1411 1.387 . S
H1413 C1425 0.930 . S
H1414 C1427 0.930 . S
H1415 C1428 0.930 . S
H1416 C1432 0.959 . S
H1417 C1432 0.959 . S
H1418 C1432 0.961 . S
H1419 C1433 0.960 . S
H1420 C1433 0.961 . S
H1421 C1433 0.959 . S
H1422 C1436 0.929 . S
H1423 C1437 0.931 . S
H1424 C1439 0.930 . S
C1425 H1413 0.930 . S
C1425 C1426 1.399 . S
C1425 C1430 1.399 . S
C1426 C1425 1.399 . S
C1426 C1427 1.376 . S
C1427 H1414 0.930 . S
C1427 C1426 1.376 . S
C1427 C1428 1.388 . S
C1428 H1415 0.930 . S
C1428 C1427 1.388 . S
C1428 C1429 1.390 . S
C1429 C1428 1.390 . S
C1429 C1430 1.394 . S
C1429 C1435 1.465 . S
C1430 C1425 1.399 . S
C1430 C1429 1.394 . S
C1430 C1431 1.516 . S
C1431 C1430 1.516 . S
C1431 C1432 1.502 . S
C1431 C1433 1.561 . S
C1431 C1434 1.526 . S
C1432 H1416 0.959 . S
C1432 H1417 0.959 . S
C1432 H1418 0.961 . S
C1432 C1431 1.502 . S
C1433 H1419 0.960 . S
C1433 H1420 0.961 . S
C1433 H1421 0.959 . S
C1433 C1431 1.561 . S
C1434 C1431 1.526 . S
C1434 C1435 1.396 . S
C1434 C1439 1.390 . S
C1435 C1429 1.465 . S
C1435 C1434 1.396 . S
C1435 C1436 1.399 . S
C1436 H1422 0.929 . S
C1436 C1435 1.399 . S
C1436 C1437 1.385 . S
C1437 H1423 0.931 . S
C1437 C1436 1.385 . S
C1437 C1438 1.389 . S
C1438 C1437 1.389 . S
C1438 C1439 1.387 . S
C1439 H1424 0.930 . S
C1439 C1434 1.390 . S
C1439 C1438 1.387 . S
H1440 C1452 0.930 . S
H1441 C1454 0.930 . S
H1442 C1455 0.930 . S
H1443 C1459 0.959 . S
H1444 C1459 0.959 . S
H1445 C1459 0.961 . S
H1446 C1460 0.960 . S
H1447 C1460 0.961 . S
H1448 C1460 0.959 . S
H1449 C1463 0.929 . S
H1450 C1464 0.931 . S
H1451 C1466 0.930 . S
C1452 H1440 0.930 . S
C1452 C1453 1.399 . S
C1452 C1457 1.399 . S
C1453 C1452 1.399 . S
C1453 C1454 1.376 . S
C1454 H1441 0.930 . S
C1454 C1453 1.376 . S
C1454 C1455 1.388 . S
C1455 H1442 0.930 . S
C1455 C1454 1.388 . S
C1455 C1456 1.390 . S
C1456 C1455 1.390 . S
C1456 C1457 1.394 . S
C1456 C1462 1.465 . S
C1457 C1452 1.399 . S
C1457 C1456 1.394 . S
C1457 C1458 1.516 . S
C1458 C1457 1.516 . S
C1458 C1459 1.502 . S
C1458 C1460 1.561 . S
C1458 C1461 1.526 . S
C1459 H1443 0.959 . S
C1459 H1444 0.959 . S
C1459 H1445 0.961 . S
C1459 C1458 1.502 . S
C1460 H1446 0.960 . S
C1460 H1447 0.961 . S
C1460 H1448 0.959 . S
C1460 C1458 1.561 . S
C1461 C1458 1.526 . S
C1461 C1462 1.396 . S
C1461 C1466 1.390 . S
C1462 C1456 1.465 . S
C1462 C1461 1.396 . S
C1462 C1463 1.399 . S
C1463 H1449 0.929 . S
C1463 C1462 1.399 . S
C1463 C1464 1.385 . S
C1464 H1450 0.931 . S
C1464 C1463 1.385 . S
C1464 C1465 1.389 . S
C1465 C1464 1.389 . S
C1465 C1466 1.387 . S
C1466 H1451 0.930 . S
C1466 C1461 1.390 . S
C1466 C1465 1.387 . S
H1467 C1479 0.930 . S
H1468 C1481 0.930 . S
H1469 C1482 0.930 . S
H1470 C1486 0.959 . S
H1471 C1486 0.959 . S
H1472 C1486 0.961 . S
H1473 C1487 0.960 . S
H1474 C1487 0.961 . S
H1475 C1487 0.959 . S
H1476 C1490 0.929 . S
H1477 C1491 0.931 . S
H1478 C1493 0.930 . S
C1479 H1467 0.930 . S
C1479 C1480 1.399 . S
C1479 C1484 1.399 . S
C1480 C1479 1.399 . S
C1480 C1481 1.376 . S
C1481 H1468 0.930 . S
C1481 C1480 1.376 . S
C1481 C1482 1.388 . S
C1482 H1469 0.930 . S
C1482 C1481 1.388 . S
C1482 C1483 1.390 . S
C1483 C1482 1.390 . S
C1483 C1484 1.394 . S
C1483 C1489 1.465 . S
C1484 C1479 1.399 . S
C1484 C1483 1.394 . S
C1484 C1485 1.516 . S
C1485 C1484 1.516 . S
C1485 C1486 1.502 . S
C1485 C1487 1.561 . S
C1485 C1488 1.526 . S
C1486 H1470 0.959 . S
C1486 H1471 0.959 . S
C1486 H1472 0.961 . S
C1486 C1485 1.502 . S
C1487 H1473 0.960 . S
C1487 H1474 0.961 . S
C1487 H1475 0.959 . S
C1487 C1485 1.561 . S
C1488 C1485 1.526 . S
C1488 C1489 1.396 . S
C1488 C1493 1.390 . S
C1489 C1483 1.465 . S
C1489 C1488 1.396 . S
C1489 C1490 1.399 . S
C1490 H1476 0.929 . S
C1490 C1489 1.399 . S
C1490 C1491 1.385 . S
C1491 H1477 0.931 . S
C1491 C1490 1.385 . S
C1491 C1492 1.389 . S
C1492 C1491 1.389 . S
C1492 C1493 1.387 . S
C1493 H1478 0.930 . S
C1493 C1488 1.390 . S
C1493 C1492 1.387 . S
H1494 C1506 0.930 . S
H1495 C1508 0.930 . S
H1496 C1509 0.930 . S
H1497 C1513 0.959 . S
H1498 C1513 0.959 . S
H1499 C1513 0.961 . S
H1500 C1514 0.960 . S
H1501 C1514 0.961 . S
H1502 C1514 0.959 . S
H1503 C1517 0.929 . S
H1504 C1518 0.931 . S
H1505 C1520 0.930 . S
C1506 H1494 0.930 . S
C1506 C1507 1.399 . S
C1506 C1511 1.399 . S
C1507 C1506 1.399 . S
C1507 C1508 1.376 . S
C1508 H1495 0.930 . S
C1508 C1507 1.376 . S
C1508 C1509 1.388 . S
C1509 H1496 0.930 . S
C1509 C1508 1.388 . S
C1509 C1510 1.390 . S
C1510 C1509 1.390 . S
C1510 C1511 1.394 . S
C1510 C1516 1.465 . S
C1511 C1506 1.399 . S
C1511 C1510 1.394 . S
C1511 C1512 1.516 . S
C1512 C1511 1.516 . S
C1512 C1513 1.502 . S
C1512 C1514 1.561 . S
C1512 C1515 1.526 . S
C1513 H1497 0.959 . S
C1513 H1498 0.959 . S
C1513 H1499 0.961 . S
C1513 C1512 1.502 . S
C1514 H1500 0.960 . S
C1514 H1501 0.961 . S
C1514 H1502 0.959 . S
C1514 C1512 1.561 . S
C1515 C1512 1.526 . S
C1515 C1516 1.396 . S
C1515 C1520 1.390 . S
C1516 C1510 1.465 . S
C1516 C1515 1.396 . S
C1516 C1517 1.399 . S
C1517 H1503 0.929 . S
C1517 C1516 1.399 . S
C1517 C1518 1.385 . S
C1518 H1504 0.931 . S
C1518 C1517 1.385 . S
C1518 C1519 1.389 . S
C1519 C1518 1.389 . S
C1519 C1520 1.387 . S
C1520 H1505 0.930 . S
C1520 C1515 1.390 . S
C1520 C1519 1.387 . S
H1521 C1533 0.930 . S
H1522 C1535 0.930 . S
H1523 C1536 0.930 . S
H1524 C1540 0.959 . S
H1525 C1540 0.959 . S
H1526 C1540 0.961 . S
H1527 C1541 0.960 . S
H1528 C1541 0.961 . S
H1529 C1541 0.959 . S
H1530 C1544 0.929 . S
H1531 C1545 0.931 . S
H1532 C1547 0.930 . S
C1533 H1521 0.930 . S
C1533 C1534 1.399 . S
C1533 C1538 1.399 . S
C1534 C1533 1.399 . S
C1534 C1535 1.376 . S
C1535 H1522 0.930 . S
C1535 C1534 1.376 . S
C1535 C1536 1.388 . S
C1536 H1523 0.930 . S
C1536 C1535 1.388 . S
C1536 C1537 1.390 . S
C1537 C1536 1.390 . S
C1537 C1538 1.394 . S
C1537 C1543 1.465 . S
C1538 C1533 1.399 . S
C1538 C1537 1.394 . S
C1538 C1539 1.516 . S
C1539 C1538 1.516 . S
C1539 C1540 1.502 . S
C1539 C1541 1.561 . S
C1539 C1542 1.526 . S
C1540 H1524 0.959 . S
C1540 H1525 0.959 . S
C1540 H1526 0.961 . S
C1540 C1539 1.502 . S
C1541 H1527 0.960 . S
C1541 H1528 0.961 . S
C1541 H1529 0.959 . S
C1541 C1539 1.561 . S
C1542 C1539 1.526 . S
C1542 C1543 1.396 . S
C1542 C1547 1.390 . S
C1543 C1537 1.465 . S
C1543 C1542 1.396 . S
C1543 C1544 1.399 . S
C1544 H1530 0.929 . S
C1544 C1543 1.399 . S
C1544 C1545 1.385 . S
C1545 H1531 0.931 . S
C1545 C1544 1.385 . S
C1545 C1546 1.389 . S
C1546 C1545 1.389 . S
C1546 C1547 1.387 . S
C1547 H1532 0.930 . S
C1547 C1542 1.390 . S
C1547 C1546 1.387 . S
H1548 C1560 0.930 . S
H1549 C1562 0.930 . S
H1550 C1563 0.930 . S
H1551 C1567 0.959 . S
H1552 C1567 0.959 . S
H1553 C1567 0.961 . S
H1554 C1568 0.960 . S
H1555 C1568 0.961 . S
H1556 C1568 0.959 . S
H1557 C1571 0.929 . S
H1558 C1572 0.931 . S
H1559 C1574 0.930 . S
C1560 H1548 0.930 . S
C1560 C1561 1.399 . S
C1560 C1565 1.399 . S
C1561 C1560 1.399 . S
C1561 C1562 1.376 . S
C1562 H1549 0.930 . S
C1562 C1561 1.376 . S
C1562 C1563 1.388 . S
C1563 H1550 0.930 . S
C1563 C1562 1.388 . S
C1563 C1564 1.390 . S
C1564 C1563 1.390 . S
C1564 C1565 1.394 . S
C1564 C1570 1.465 . S
C1565 C1560 1.399 . S
C1565 C1564 1.394 . S
C1565 C1566 1.516 . S
C1566 C1565 1.516 . S
C1566 C1567 1.502 . S
C1566 C1568 1.561 . S
C1566 C1569 1.526 . S
C1567 H1551 0.959 . S
C1567 H1552 0.959 . S
C1567 H1553 0.961 . S
C1567 C1566 1.502 . S
C1568 H1554 0.960 . S
C1568 H1555 0.961 . S
C1568 H1556 0.959 . S
C1568 C1566 1.561 . S
C1569 C1566 1.526 . S
C1569 C1570 1.396 . S
C1569 C1574 1.390 . S
C1570 C1564 1.465 . S
C1570 C1569 1.396 . S
C1570 C1571 1.399 . S
C1571 H1557 0.929 . S
C1571 C1570 1.399 . S
C1571 C1572 1.385 . S
C1572 H1558 0.931 . S
C1572 C1571 1.385 . S
C1572 C1573 1.389 . S
C1573 C1572 1.389 . S
C1573 C1574 1.387 . S
C1574 H1559 0.930 . S
C1574 C1569 1.390 . S
C1574 C1573 1.387 . S
H1575 C1587 0.930 . S
H1576 C1589 0.930 . S
H1577 C1590 0.930 . S
H1578 C1594 0.959 . S
H1579 C1594 0.959 . S
H1580 C1594 0.961 . S
H1581 C1595 0.960 . S
H1582 C1595 0.961 . S
H1583 C1595 0.959 . S
H1584 C1598 0.929 . S
H1585 C1599 0.931 . S
H1586 C1601 0.930 . S
C1587 H1575 0.930 . S
C1587 C1588 1.399 . S
C1587 C1592 1.399 1_545 S
C1588 C1587 1.399 . S
C1588 C1589 1.376 . S
C1589 H1576 0.930 . S
C1589 C1588 1.376 . S
C1589 C1590 1.388 1_545 S
C1590 H1577 0.930 . S
C1590 C1589 1.388 1_565 S
C1590 C1591 1.390 . S
C1591 C1590 1.390 . S
C1591 C1592 1.394 . S
C1591 C1597 1.465 . S
C1592 C1587 1.399 1_565 S
C1592 C1591 1.394 . S
C1592 C1593 1.516 . S
C1593 C1592 1.516 . S
C1593 C1594 1.502 . S
C1593 C1595 1.561 . S
C1593 C1596 1.526 . S
C1594 H1578 0.959 . S
C1594 H1579 0.959 . S
C1594 H1580 0.961 . S
C1594 C1593 1.502 . S
C1595 H1581 0.960 . S
C1595 H1582 0.961 . S
C1595 H1583 0.959 . S
C1595 C1593 1.561 . S
C1596 C1593 1.526 . S
C1596 C1597 1.396 . S
C1596 C1601 1.390 . S
C1597 C1591 1.465 . S
C1597 C1596 1.396 . S
C1597 C1598 1.399 . S
C1598 H1584 0.929 . S
C1598 C1597 1.399 . S
C1598 C1599 1.385 . S
C1599 H1585 0.931 . S
C1599 C1598 1.385 . S
C1599 C1600 1.389 . S
C1600 C1599 1.389 . S
C1600 C1601 1.387 . S
C1601 H1586 0.930 . S
C1601 C1596 1.390 . S
C1601 C1600 1.387 . S
H1602 C1614 0.930 1_655 S
H1603 C1616 0.930 1_655 S
H1604 C1617 0.930 . S
H1605 C1621 0.959 . S
H1606 C1621 0.959 . S
H1607 C1621 0.961 . S
H1608 C1622 0.960 . S
H1609 C1622 0.961 . S
H1610 C1622 0.959 . S
H1611 C1625 0.929 . S
H1612 C1626 0.931 . S
H1613 C1628 0.930 . S
C1614 H1602 0.930 1_455 S
C1614 C1615 1.402 1_455 S
C1614 C1619 1.396 . S
C1615 C1614 1.402 1_655 S
C1615 C1616 1.376 1_655 S
C1616 H1603 0.930 1_455 S
C1616 C1615 1.376 1_455 S
C1616 C1617 1.388 . S
C1617 H1604 0.930 . S
C1617 C1616 1.388 . S
C1617 C1618 1.390 . S
C1618 C1617 1.390 . S
C1618 C1619 1.394 . S
C1618 C1624 1.465 . S
C1619 C1614 1.396 . S
C1619 C1618 1.394 . S
C1619 C1620 1.516 . S
C1620 C1619 1.516 . S
C1620 C1621 1.502 . S
C1620 C1622 1.561 . S
C1620 C1623 1.526 . S
C1621 H1605 0.959 . S
C1621 H1606 0.959 . S
C1621 H1607 0.961 . S
C1621 C1620 1.502 . S
C1622 H1608 0.960 . S
C1622 H1609 0.961 . S
C1622 H1610 0.959 . S
C1622 C1620 1.561 . S
C1623 C1620 1.526 . S
C1623 C1624 1.396 . S
C1623 C1628 1.390 . S
C1624 C1618 1.465 . S
C1624 C1623 1.396 . S
C1624 C1625 1.399 . S
C1625 H1611 0.929 . S
C1625 C1624 1.399 . S
C1625 C1626 1.385 . S
C1626 H1612 0.931 . S
C1626 C1625 1.385 . S
C1626 C1627 1.389 . S
C1627 C1626 1.389 . S
C1627 C1628 1.387 . S
C1628 H1613 0.930 . S
C1628 C1623 1.390 . S
C1628 C1627 1.387 . S
H1629 C1641 0.930 . S
H1630 C1643 0.930 . S
H1631 C1644 0.930 . S
H1632 C1648 0.959 . S
H1633 C1648 0.959 . S
H1634 C1648 0.961 . S
H1635 C1649 0.960 . S
H1636 C1649 0.961 . S
H1637 C1649 0.959 . S
H1638 C1652 0.929 . S
H1639 C1653 0.931 . S
H1640 C1655 0.930 . S
C1641 H1629 0.930 . S
C1641 C1642 1.399 . S
C1641 C1646 1.399 . S
C1642 C1641 1.399 . S
C1642 C1643 1.376 . S
C1643 H1630 0.930 . S
C1643 C1642 1.376 . S
C1643 C1644 1.388 . S
C1644 H1631 0.930 . S
C1644 C1643 1.388 . S
C1644 C1645 1.390 . S
C1645 C1644 1.390 . S
C1645 C1646 1.394 . S
C1645 C1651 1.465 . S
C1646 C1641 1.399 . S
C1646 C1645 1.394 . S
C1646 C1647 1.516 . S
C1647 C1646 1.516 . S
C1647 C1648 1.502 . S
C1647 C1649 1.561 . S
C1647 C1650 1.526 . S
C1648 H1632 0.959 . S
C1648 H1633 0.959 . S
C1648 H1634 0.961 . S
C1648 C1647 1.502 . S
C1649 H1635 0.960 . S
C1649 H1636 0.961 . S
C1649 H1637 0.959 . S
C1649 C1647 1.561 . S
C1650 C1647 1.526 . S
C1650 C1651 1.396 . S
C1650 C1655 1.390 . S
C1651 C1645 1.465 . S
C1651 C1650 1.396 . S
C1651 C1652 1.399 . S
C1652 H1638 0.929 . S
C1652 C1651 1.399 . S
C1652 C1653 1.385 . S
C1653 H1639 0.931 . S
C1653 C1652 1.385 . S
C1653 C1654 1.389 . S
C1654 C1653 1.389 . S
C1654 C1655 1.387 . S
C1655 H1640 0.930 . S
C1655 C1650 1.390 . S
C1655 C1654 1.387 . S
H1656 C1668 0.930 . S
H1657 C1670 0.930 . S
H1658 C1671 0.930 . S
H1659 C1675 0.959 . S
H1660 C1675 0.959 . S
H1661 C1675 0.961 . S
H1662 C1676 0.960 . S
H1663 C1676 0.961 . S
H1664 C1676 0.959 . S
H1665 C1679 0.929 . S
H1666 C1680 0.931 . S
H1667 C1682 0.930 . S
C1668 H1656 0.930 . S
C1668 C1669 1.399 . S
C1668 C1673 1.399 . S
C1669 C1668 1.399 . S
C1669 C1670 1.376 . S
C1670 H1657 0.930 . S
C1670 C1669 1.376 . S
C1670 C1671 1.388 . S
C1671 H1658 0.930 . S
C1671 C1670 1.388 . S
C1671 C1672 1.390 . S
C1672 C1671 1.390 . S
C1672 C1673 1.394 . S
C1672 C1678 1.465 . S
C1673 C1668 1.399 . S
C1673 C1672 1.394 . S
C1673 C1674 1.516 . S
C1674 C1673 1.516 . S
C1674 C1675 1.502 . S
C1674 C1676 1.561 . S
C1674 C1677 1.526 . S
C1675 H1659 0.959 . S
C1675 H1660 0.959 . S
C1675 H1661 0.961 . S
C1675 C1674 1.502 . S
C1676 H1662 0.960 . S
C1676 H1663 0.961 . S
C1676 H1664 0.959 . S
C1676 C1674 1.561 . S
C1677 C1674 1.526 . S
C1677 C1678 1.396 . S
C1677 C1682 1.390 . S
C1678 C1672 1.465 . S
C1678 C1677 1.396 . S
C1678 C1679 1.399 . S
C1679 H1665 0.929 . S
C1679 C1678 1.399 . S
C1679 C1680 1.385 . S
C1680 H1666 0.931 . S
C1680 C1679 1.385 . S
C1680 C1681 1.389 . S
C1681 C1680 1.389 . S
C1681 C1682 1.387 . S
C1682 H1667 0.930 . S
C1682 C1677 1.390 . S
C1682 C1681 1.387 . S
H1683 C1695 0.930 . S
H1684 C1697 0.930 . S
H1685 C1698 0.930 . S
H1686 C1702 0.959 . S
H1687 C1702 0.959 . S
H1688 C1702 0.961 . S
H1689 C1703 0.960 . S
H1690 C1703 0.961 . S
H1691 C1703 0.959 . S
H1692 C1706 0.929 . S
H1693 C1707 0.931 . S
H1694 C1709 0.930 . S
C1695 H1683 0.930 . S
C1695 C1696 1.399 . S
C1695 C1700 1.399 . S
C1696 C1695 1.399 . S
C1696 C1697 1.376 . S
C1697 H1684 0.930 . S
C1697 C1696 1.376 . S
C1697 C1698 1.388 . S
C1698 H1685 0.930 . S
C1698 C1697 1.388 . S
C1698 C1699 1.390 . S
C1699 C1698 1.390 . S
C1699 C1700 1.394 . S
C1699 C1705 1.465 . S
C1700 C1695 1.399 . S
C1700 C1699 1.394 . S
C1700 C1701 1.516 . S
C1701 C1700 1.516 . S
C1701 C1702 1.502 . S
C1701 C1703 1.561 . S
C1701 C1704 1.526 . S
C1702 H1686 0.959 . S
C1702 H1687 0.959 . S
C1702 H1688 0.961 . S
C1702 C1701 1.502 . S
C1703 H1689 0.960 . S
C1703 H1690 0.961 . S
C1703 H1691 0.959 . S
C1703 C1701 1.561 . S
C1704 C1701 1.526 . S
C1704 C1705 1.396 . S
C1704 C1709 1.390 . S
C1705 C1699 1.465 . S
C1705 C1704 1.396 . S
C1705 C1706 1.399 . S
C1706 H1692 0.929 . S
C1706 C1705 1.399 . S
C1706 C1707 1.385 . S
C1707 H1693 0.931 . S
C1707 C1706 1.385 . S
C1707 C1708 1.389 . S
C1708 C1707 1.389 . S
C1708 C1709 1.387 . S
C1709 H1694 0.930 . S
C1709 C1704 1.390 . S
C1709 C1708 1.387 . S
H1710 C1722 0.930 . S
H1711 C1724 0.930 . S
H1712 C1725 0.930 . S
H1713 C1729 0.959 . S
H1714 C1729 0.959 . S
H1715 C1729 0.961 . S
H1716 C1730 0.960 . S
H1717 C1730 0.961 . S
H1718 C1730 0.959 . S
H1719 C1733 0.929 . S
H1720 C1734 0.931 . S
H1721 C1736 0.930 . S
C1722 H1710 0.930 . S
C1722 C1723 1.399 . S
C1722 C1727 1.399 . S
C1723 C1722 1.399 . S
C1723 C1724 1.376 . S
C1724 H1711 0.930 . S
C1724 C1723 1.376 . S
C1724 C1725 1.388 . S
C1725 H1712 0.930 . S
C1725 C1724 1.388 . S
C1725 C1726 1.390 . S
C1726 C1725 1.390 . S
C1726 C1727 1.394 . S
C1726 C1732 1.465 . S
C1727 C1722 1.399 . S
C1727 C1726 1.394 . S
C1727 C1728 1.516 . S
C1728 C1727 1.516 . S
C1728 C1729 1.502 . S
C1728 C1730 1.561 . S
C1728 C1731 1.526 . S
C1729 H1713 0.959 . S
C1729 H1714 0.959 . S
C1729 H1715 0.961 . S
C1729 C1728 1.502 . S
C1730 H1716 0.960 . S
C1730 H1717 0.961 . S
C1730 H1718 0.959 . S
C1730 C1728 1.561 . S
C1731 C1728 1.526 . S
C1731 C1732 1.396 . S
C1731 C1736 1.390 . S
C1732 C1726 1.465 . S
C1732 C1731 1.396 . S
C1732 C1733 1.399 . S
C1733 H1719 0.929 . S
C1733 C1732 1.399 . S
C1733 C1734 1.385 . S
C1734 H1720 0.931 . S
C1734 C1733 1.385 . S
C1734 C1735 1.389 . S
C1735 C1734 1.389 . S
C1735 C1736 1.387 . S
C1736 H1721 0.930 . S
C1736 C1731 1.390 . S
C1736 C1735 1.387 . S
H1737 C1749 0.930 . S
H1738 C1751 0.930 . S
H1739 C1752 0.930 . S
H1740 C1756 0.959 . S
H1741 C1756 0.959 . S
H1742 C1756 0.961 . S
H1743 C1757 0.960 . S
H1744 C1757 0.961 . S
H1745 C1757 0.959 . S
H1746 C1760 0.929 . S
H1747 C1761 0.931 . S
H1748 C1763 0.930 . S
C1749 H1737 0.930 . S
C1749 C1750 1.399 . S
C1749 C1754 1.399 1_565 S
C1750 C1749 1.399 . S
C1750 C1751 1.376 . S
C1751 H1738 0.930 . S
C1751 C1750 1.376 . S
C1751 C1752 1.388 . S
C1752 H1739 0.930 . S
C1752 C1751 1.388 . S
C1752 C1753 1.390 1_565 S
C1753 C1752 1.390 1_545 S
C1753 C1754 1.394 . S
C1753 C1759 1.465 . S
C1754 C1749 1.399 1_545 S
C1754 C1753 1.394 . S
C1754 C1755 1.516 . S
C1755 C1754 1.516 . S
C1755 C1756 1.502 . S
C1755 C1757 1.561 . S
C1755 C1758 1.526 . S
C1756 H1740 0.959 . S
C1756 H1741 0.959 . S
C1756 H1742 0.961 . S
C1756 C1755 1.502 . S
C1757 H1743 0.960 . S
C1757 H1744 0.961 . S
C1757 H1745 0.959 . S
C1757 C1755 1.561 . S
C1758 C1755 1.526 . S
C1758 C1759 1.396 . S
C1758 C1763 1.390 . S
C1759 C1753 1.465 . S
C1759 C1758 1.396 . S
C1759 C1760 1.399 . S
C1760 H1746 0.929 . S
C1760 C1759 1.399 . S
C1760 C1761 1.385 . S
C1761 H1747 0.931 . S
C1761 C1760 1.385 . S
C1761 C1762 1.389 . S
C1762 C1761 1.389 . S
C1762 C1763 1.387 . S
C1763 H1748 0.930 . S
C1763 C1758 1.390 . S
C1763 C1762 1.387 . S
H1764 C1776 0.930 . S
H1765 C1778 0.930 1_455 S
H1766 C1779 0.930 . S
H1767 C1783 0.959 . S
H1768 C1783 0.959 . S
H1769 C1783 0.961 . S
H1770 C1784 0.960 . S
H1771 C1784 0.961 . S
H1772 C1784 0.959 . S
H1773 C1787 0.929 . S
H1774 C1788 0.931 . S
H1775 C1790 0.930 . S
C1776 H1764 0.930 . S
C1776 C1777 1.399 . S
C1776 C1781 1.399 1_455 S
C1777 C1776 1.399 . S
C1777 C1778 1.376 1_455 S
C1778 H1765 0.930 1_655 S
C1778 C1777 1.376 1_655 S
C1778 C1779 1.388 . S
C1779 H1766 0.930 . S
C1779 C1778 1.388 . S
C1779 C1780 1.390 . S
C1780 C1779 1.390 . S
C1780 C1781 1.394 . S
C1780 C1786 1.465 . S
C1781 C1776 1.399 1_655 S
C1781 C1780 1.394 . S
C1781 C1782 1.516 . S
C1782 C1781 1.516 . S
C1782 C1783 1.502 . S
C1782 C1784 1.561 . S
C1782 C1785 1.526 . S
C1783 H1767 0.959 . S
C1783 H1768 0.959 . S
C1783 H1769 0.961 . S
C1783 C1782 1.502 . S
C1784 H1770 0.960 . S
C1784 H1771 0.961 . S
C1784 H1772 0.959 . S
C1784 C1782 1.561 . S
C1785 C1782 1.526 . S
C1785 C1786 1.396 . S
C1785 C1790 1.390 . S
C1786 C1780 1.465 . S
C1786 C1785 1.396 . S
C1786 C1787 1.399 . S
C1787 H1773 0.929 . S
C1787 C1786 1.399 . S
C1787 C1788 1.385 . S
C1788 H1774 0.931 . S
C1788 C1787 1.385 . S
C1788 C1789 1.389 . S
C1789 C1788 1.389 . S
C1789 C1790 1.387 . S
C1790 H1775 0.930 . S
C1790 C1785 1.390 . S
C1790 C1789 1.387 . S
H1791 C1803 0.930 . S
H1792 C1805 0.930 . S
H1793 C1806 0.930 . S
H1794 C1810 0.959 . S
H1795 C1810 0.959 . S
H1796 C1810 0.961 . S
H1797 C1811 0.960 . S
H1798 C1811 0.961 . S
H1799 C1811 0.959 . S
H1800 C1814 0.929 . S
H1801 C1815 0.931 . S
H1802 C1817 0.930 . S
C1803 H1791 0.930 . S
C1803 C1804 1.399 . S
C1803 C1808 1.399 . S
C1804 C1803 1.399 . S
C1804 C1805 1.376 . S
C1805 H1792 0.930 . S
C1805 C1804 1.376 . S
C1805 C1806 1.388 . S
C1806 H1793 0.930 . S
C1806 C1805 1.388 . S
C1806 C1807 1.390 . S
C1807 C1806 1.390 . S
C1807 C1808 1.394 . S
C1807 C1813 1.465 . S
C1808 C1803 1.399 . S
C1808 C1807 1.394 . S
C1808 C1809 1.516 . S
C1809 C1808 1.516 . S
C1809 C1810 1.502 . S
C1809 C1811 1.561 . S
C1809 C1812 1.526 . S
C1810 H1794 0.959 . S
C1810 H1795 0.959 . S
C1810 H1796 0.961 . S
C1810 C1809 1.502 . S
C1811 H1797 0.960 . S
C1811 H1798 0.961 . S
C1811 H1799 0.959 . S
C1811 C1809 1.561 . S
C1812 C1809 1.526 . S
C1812 C1813 1.396 . S
C1812 C1817 1.390 . S
C1813 C1807 1.465 . S
C1813 C1812 1.396 . S
C1813 C1814 1.399 . S
C1814 H1800 0.929 . S
C1814 C1813 1.399 . S
C1814 C1815 1.385 . S
C1815 H1801 0.931 . S
C1815 C1814 1.385 . S
C1815 C1816 1.389 . S
C1816 C1815 1.389 . S
C1816 C1817 1.387 . S
C1817 H1802 0.930 . S
C1817 C1812 1.390 . S
C1817 C1816 1.387 . S
H1818 C1830 0.930 . S
H1819 C1832 0.930 . S
H1820 C1833 0.939 1_655 S
H1821 C1837 0.959 . S
H1822 C1837 0.959 . S
H1823 C1837 0.961 . S
H1824 C1838 0.960 . S
H1825 C1838 0.961 . S
H1826 C1838 0.959 . S
H1827 C1841 0.929 . S
H1828 C1842 0.931 . S
H1829 C1844 0.930 . S
C1830 H1818 0.930 . S
C1830 C1831 1.399 . S
C1830 C1835 1.399 1_455 S
C1831 C1830 1.399 . S
C1831 C1832 1.376 . S
C1832 H1819 0.930 . S
C1832 C1831 1.376 . S
C1832 C1833 1.406 . S
C1833 H1820 0.939 1_455 S
C1833 C1832 1.406 . S
C1833 C1834 1.368 1_455 S
C1834 C1833 1.368 1_655 S
C1834 C1835 1.394 . S
C1834 C1840 1.465 . S
C1835 C1830 1.399 1_655 S
C1835 C1834 1.394 . S
C1835 C1836 1.516 . S
C1836 C1835 1.516 . S
C1836 C1837 1.502 . S
C1836 C1838 1.561 . S
C1836 C1839 1.526 . S
C1837 H1821 0.959 . S
C1837 H1822 0.959 . S
C1837 H1823 0.961 . S
C1837 C1836 1.502 . S
C1838 H1824 0.960 . S
C1838 H1825 0.961 . S
C1838 H1826 0.959 . S
C1838 C1836 1.561 . S
C1839 C1836 1.526 . S
C1839 C1840 1.396 . S
C1839 C1844 1.390 . S
C1840 C1834 1.465 . S
C1840 C1839 1.396 . S
C1840 C1841 1.399 . S
C1841 H1827 0.929 . S
C1841 C1840 1.399 . S
C1841 C1842 1.385 . S
C1842 H1828 0.931 . S
C1842 C1841 1.385 . S
C1842 C1843 1.389 . S
C1843 C1842 1.389 . S
C1843 C1844 1.387 . S
C1844 H1829 0.930 . S
C1844 C1839 1.390 . S
C1844 C1843 1.387 . S
H1845 C1857 0.930 . S
H1846 C1859 0.930 . S
H1847 C1860 0.930 . S
H1848 C1864 0.959 . S
H1849 C1864 0.959 . S
H1850 C1864 0.961 . S
H1851 C1865 0.960 . S
H1852 C1865 0.961 . S
H1853 C1865 0.959 . S
H1854 C1868 0.929 . S
H1855 C1869 0.931 . S
H1856 C1871 0.930 . S
C1857 H1845 0.930 . S
C1857 C1858 1.399 . S
C1857 C1862 1.399 . S
C1858 C1857 1.399 . S
C1858 C1859 1.376 . S
C1859 H1846 0.930 . S
C1859 C1858 1.376 . S
C1859 C1860 1.388 . S
C1860 H1847 0.930 . S
C1860 C1859 1.388 . S
C1860 C1861 1.390 . S
C1861 C1860 1.390 . S
C1861 C1862 1.394 . S
C1861 C1867 1.465 . S
C1862 C1857 1.399 . S
C1862 C1861 1.394 . S
C1862 C1863 1.516 . S
C1863 C1862 1.516 . S
C1863 C1864 1.502 . S
C1863 C1865 1.561 . S
C1863 C1866 1.526 . S
C1864 H1848 0.959 . S
C1864 H1849 0.959 . S
C1864 H1850 0.961 . S
C1864 C1863 1.502 . S
C1865 H1851 0.960 . S
C1865 H1852 0.961 . S
C1865 H1853 0.959 . S
C1865 C1863 1.561 . S
C1866 C1863 1.526 . S
C1866 C1867 1.396 . S
C1866 C1871 1.390 . S
C1867 C1861 1.465 . S
C1867 C1866 1.396 . S
C1867 C1868 1.399 . S
C1868 H1854 0.929 . S
C1868 C1867 1.399 . S
C1868 C1869 1.385 . S
C1869 H1855 0.931 . S
C1869 C1868 1.385 . S
C1869 C1870 1.389 . S
C1870 C1869 1.389 . S
C1870 C1871 1.387 . S
C1871 H1856 0.930 . S
C1871 C1866 1.390 . S
C1871 C1870 1.387 . S
H1872 C1884 0.930 . S
H1873 C1886 0.930 . S
H1874 C1887 0.930 . S
H1875 C1891 0.959 . S
H1876 C1891 0.959 . S
H1877 C1891 0.961 . S
H1878 C1892 0.960 . S
H1879 C1892 0.961 . S
H1880 C1892 0.959 . S
H1881 C1895 0.929 . S
H1882 C1896 0.931 . S
H1883 C1898 0.930 . S
C1884 H1872 0.930 . S
C1884 C1885 1.399 . S
C1884 C1889 1.399 1_565 S
C1885 C1884 1.399 . S
C1885 C1886 1.376 . S
C1886 H1873 0.930 . S
C1886 C1885 1.376 . S
C1886 C1887 1.388 . S
C1887 H1874 0.930 . S
C1887 C1886 1.388 . S
C1887 C1888 1.390 1_565 S
C1888 C1887 1.390 1_545 S
C1888 C1889 1.394 . S
C1888 C1894 1.465 . S
C1889 C1884 1.399 1_545 S
C1889 C1888 1.394 . S
C1889 C1890 1.516 . S
C1890 C1889 1.516 . S
C1890 C1891 1.502 . S
C1890 C1892 1.561 . S
C1890 C1893 1.526 . S
C1891 H1875 0.959 . S
C1891 H1876 0.959 . S
C1891 H1877 0.961 . S
C1891 C1890 1.502 . S
C1892 H1878 0.960 . S
C1892 H1879 0.961 . S
C1892 H1880 0.959 . S
C1892 C1890 1.561 . S
C1893 C1890 1.526 . S
C1893 C1894 1.396 . S
C1893 C1898 1.390 . S
C1894 C1888 1.465 . S
C1894 C1893 1.396 . S
C1894 C1895 1.399 . S
C1895 H1881 0.929 . S
C1895 C1894 1.399 . S
C1895 C1896 1.385 . S
C1896 H1882 0.931 . S
C1896 C1895 1.385 . S
C1896 C1897 1.389 . S
C1897 C1896 1.389 . S
C1897 C1898 1.387 . S
C1898 H1883 0.930 . S
C1898 C1893 1.390 . S
C1898 C1897 1.387 . S
H1899 C1911 0.930 . S
H1900 C1913 0.930 . S
H1901 C1914 0.930 . S
H1902 C1918 0.959 . S
H1903 C1918 0.959 . S
H1904 C1918 0.961 . S
H1905 C1919 0.960 . S
H1906 C1919 0.961 . S
H1907 C1919 0.959 . S
H1908 C1922 0.929 . S
H1909 C1923 0.931 . S
H1910 C1925 0.930 . S
C1911 H1899 0.930 . S
C1911 C1912 1.399 . S
C1911 C1916 1.399 . S
C1912 C1911 1.399 . S
C1912 C1913 1.376 . S
C1913 H1900 0.930 . S
C1913 C1912 1.376 . S
C1913 C1914 1.388 . S
C1914 H1901 0.930 . S
C1914 C1913 1.388 . S
C1914 C1915 1.390 . S
C1915 C1914 1.390 . S
C1915 C1916 1.394 . S
C1915 C1921 1.465 . S
C1916 C1911 1.399 . S
C1916 C1915 1.394 . S
C1916 C1917 1.516 . S
C1917 C1916 1.516 . S
C1917 C1918 1.502 . S
C1917 C1919 1.561 . S
C1917 C1920 1.526 . S
C1918 H1902 0.959 . S
C1918 H1903 0.959 . S
C1918 H1904 0.961 . S
C1918 C1917 1.502 . S
C1919 H1905 0.960 . S
C1919 H1906 0.961 . S
C1919 H1907 0.959 . S
C1919 C1917 1.561 . S
C1920 C1917 1.526 . S
C1920 C1921 1.396 . S
C1920 C1925 1.390 . S
C1921 C1915 1.465 . S
C1921 C1920 1.396 . S
C1921 C1922 1.399 . S
C1922 H1908 0.929 . S
C1922 C1921 1.399 . S
C1922 C1923 1.385 . S
C1923 H1909 0.931 . S
C1923 C1922 1.385 . S
C1923 C1924 1.389 . S
C1924 C1923 1.389 . S
C1924 C1925 1.387 . S
C1925 H1910 0.930 . S
C1925 C1920 1.390 . S
C1925 C1924 1.387 . S
H1926 C1938 0.930 . S
H1927 C1940 0.930 . S
H1928 C1941 0.930 . S
H1929 C1945 0.959 . S
H1930 C1945 0.959 . S
H1931 C1945 0.961 . S
H1932 C1946 0.960 . S
H1933 C1946 0.961 . S
H1934 C1946 0.959 . S
H1935 C1949 0.929 . S
H1936 C1950 0.931 . S
H1937 C1952 0.930 . S
C1938 H1926 0.930 . S
C1938 C1939 1.399 . S
C1938 C1943 1.399 . S
C1939 C1938 1.399 . S
C1939 C1940 1.376 . S
C1940 H1927 0.930 . S
C1940 C1939 1.376 . S
C1940 C1941 1.388 . S
C1941 H1928 0.930 . S
C1941 C1940 1.388 . S
C1941 C1942 1.390 . S
C1942 C1941 1.390 . S
C1942 C1943 1.394 . S
C1942 C1948 1.465 . S
C1943 C1938 1.399 . S
C1943 C1942 1.394 . S
C1943 C1944 1.516 . S
C1944 C1943 1.516 . S
C1944 C1945 1.502 . S
C1944 C1946 1.561 . S
C1944 C1947 1.526 . S
C1945 H1929 0.959 . S
C1945 H1930 0.959 . S
C1945 H1931 0.961 . S
C1945 C1944 1.502 . S
C1946 H1932 0.960 . S
C1946 H1933 0.961 . S
C1946 H1934 0.959 . S
C1946 C1944 1.561 . S
C1947 C1944 1.526 . S
C1947 C1948 1.396 . S
C1947 C1952 1.390 . S
C1948 C1942 1.465 . S
C1948 C1947 1.396 . S
C1948 C1949 1.399 . S
C1949 H1935 0.929 . S
C1949 C1948 1.399 . S
C1949 C1950 1.385 . S
C1950 H1936 0.931 . S
C1950 C1949 1.385 . S
C1950 C1951 1.389 . S
C1951 C1950 1.389 . S
C1951 C1952 1.387 . S
C1952 H1937 0.930 . S
C1952 C1947 1.390 . S
C1952 C1951 1.387 . S
H1953 C1965 0.930 . S
H1954 C1967 0.930 . S
H1955 C1968 0.930 . S
H1956 C1972 0.959 . S
H1957 C1972 0.959 . S
H1958 C1972 0.961 . S
H1959 C1973 0.960 . S
H1960 C1973 0.961 . S
H1961 C1973 0.959 . S
H1962 C1976 0.929 . S
H1963 C1977 0.931 . S
H1964 C1979 0.930 . S
C1965 H1953 0.930 . S
C1965 C1966 1.399 . S
C1965 C1970 1.399 . S
C1966 C1965 1.399 . S
C1966 C1967 1.376 . S
C1967 H1954 0.930 . S
C1967 C1966 1.376 . S
C1967 C1968 1.388 . S
C1968 H1955 0.930 . S
C1968 C1967 1.388 . S
C1968 C1969 1.390 . S
C1969 C1968 1.390 . S
C1969 C1970 1.394 . S
C1969 C1975 1.465 . S
C1970 C1965 1.399 . S
C1970 C1969 1.394 . S
C1970 C1971 1.516 . S
C1971 C1970 1.516 . S
C1971 C1972 1.502 . S
C1971 C1973 1.561 . S
C1971 C1974 1.526 . S
C1972 H1956 0.959 . S
C1972 H1957 0.959 . S
C1972 H1958 0.961 . S
C1972 C1971 1.502 . S
C1973 H1959 0.960 . S
C1973 H1960 0.961 . S
C1973 H1961 0.959 . S
C1973 C1971 1.561 . S
C1974 C1971 1.526 . S
C1974 C1975 1.396 . S
C1974 C1979 1.390 . S
C1975 C1969 1.465 . S
C1975 C1974 1.396 . S
C1975 C1976 1.399 . S
C1976 H1962 0.929 . S
C1976 C1975 1.399 . S
C1976 C1977 1.385 . S
C1977 H1963 0.931 . S
C1977 C1976 1.385 . S
C1977 C1978 1.389 . S
C1978 C1977 1.389 . S
C1978 C1979 1.387 . S
C1979 H1964 0.930 . S
C1979 C1974 1.390 . S
C1979 C1978 1.387 . S
H1980 C1992 0.930 . S
H1981 C1994 0.930 . S
H1982 C1995 0.930 1_545 S
H1983 C1999 0.959 . S
H1984 C1999 0.959 . S
H1985 C1999 0.961 . S
H1986 C2000 0.960 . S
H1987 C2000 0.961 . S
H1988 C2000 0.959 . S
H1989 C2003 0.929 . S
H1990 C2004 0.931 . S
H1991 C2006 0.930 . S
C1992 H1980 0.930 . S
C1992 C1993 1.399 . S
C1992 C1997 1.399 . S
C1993 C1992 1.399 . S
C1993 C1994 1.376 . S
C1994 H1981 0.930 . S
C1994 C1993 1.376 . S
C1994 C1995 1.388 . S
C1995 H1982 0.930 1_565 S
C1995 C1994 1.388 . S
C1995 C1996 1.390 . S
C1996 C1995 1.390 . S
C1996 C1997 1.394 . S
C1996 C2002 1.465 . S
C1997 C1992 1.399 . S
C1997 C1996 1.394 . S
C1997 C1998 1.516 . S
C1998 C1997 1.516 . S
C1998 C1999 1.502 . S
C1998 C2000 1.561 . S
C1998 C2001 1.526 . S
C1999 H1983 0.959 . S
C1999 H1984 0.959 . S
C1999 H1985 0.961 . S
C1999 C1998 1.502 . S
C2000 H1986 0.960 . S
C2000 H1987 0.961 . S
C2000 H1988 0.959 . S
C2000 C1998 1.561 . S
C2001 C1998 1.526 . S
C2001 C2002 1.396 . S
C2001 C2006 1.390 . S
C2002 C1996 1.465 . S
C2002 C2001 1.396 . S
C2002 C2003 1.399 1_565 S
C2003 H1989 0.929 . S
C2003 C2002 1.399 1_545 S
C2003 C2004 1.385 . S
C2004 H1990 0.931 . S
C2004 C2003 1.385 . S
C2004 C2005 1.389 1_545 S
C2005 C2004 1.389 1_565 S
C2005 C2006 1.387 . S
C2006 H1991 0.930 . S
C2006 C2001 1.390 . S
C2006 C2005 1.387 . S
H2007 C2019 0.930 . S
H2008 C2021 0.930 1_655 S
H2009 C2022 0.940 1_655 S
H2010 C2026 0.959 1_655 S
H2011 C2026 0.959 . S
H2012 C2026 0.961 . S
H2013 C2027 0.960 . S
H2014 C2027 0.961 . S
H2015 C2027 0.959 . S
H2016 C2030 0.929 . S
H2017 C2031 0.931 . S
H2018 C2033 0.930 . S
C2019 H2007 0.930 . S
C2019 C2020 1.399 . S
C2019 C2024 1.399 . S
C2020 C2019 1.399 . S
C2020 C2021 1.376 . S
C2021 H2008 0.930 1_455 S
C2021 C2020 1.376 . S
C2021 C2022 1.388 . S
C2022 H2009 0.940 1_455 S
C2022 C2021 1.388 . S
C2022 C2023 1.390 . S
C2023 C2022 1.390 . S
C2023 C2024 1.394 . S
C2023 C2029 1.465 . S
C2024 C2019 1.399 . S
C2024 C2023 1.394 . S
C2024 C2025 1.516 . S
C2025 C2024 1.516 . S
C2025 C2026 1.502 . S
C2025 C2027 1.561 . S
C2025 C2028 1.526 . S
C2026 H2010 0.959 1_455 S
C2026 H2011 0.959 . S
C2026 H2012 0.961 . S
C2026 C2025 1.502 . S
C2027 H2013 0.960 . S
C2027 H2014 0.961 . S
C2027 H2015 0.959 . S
C2027 C2025 1.561 . S
C2028 C2025 1.526 . S
C2028 C2029 1.396 . S
C2028 C2033 1.390 . S
C2029 C2023 1.465 . S
C2029 C2028 1.396 . S
C2029 C2030 1.399 . S
C2030 H2016 0.929 . S
C2030 C2029 1.399 . S
C2030 C2031 1.385 . S
C2031 H2017 0.931 . S
C2031 C2030 1.385 . S
C2031 C2032 1.389 . S
C2032 C2031 1.389 . S
C2032 C2033 1.387 . S
C2033 H2018 0.930 . S
C2033 C2028 1.390 . S
C2033 C2032 1.387 . S
H2034 C2046 0.930 . S
H2035 C2048 0.930 . S
H2036 C2049 0.930 . S
H2037 C2053 0.959 . S
H2038 C2053 0.959 . S
H2039 C2053 0.961 . S
H2040 C2054 0.960 . S
H2041 C2054 0.961 . S
H2042 C2054 0.959 . S
H2043 C2057 0.929 . S
H2044 C2058 0.931 . S
H2045 C2060 0.930 . S
C2046 H2034 0.930 . S
C2046 C2047 1.399 . S
C2046 C2051 1.399 . S
C2047 C2046 1.399 . S
C2047 C2048 1.376 . S
C2048 H2035 0.930 . S
C2048 C2047 1.376 . S
C2048 C2049 1.388 . S
C2049 H2036 0.930 . S
C2049 C2048 1.388 . S
C2049 C2050 1.390 . S
C2050 C2049 1.390 . S
C2050 C2051 1.394 . S
C2050 C2056 1.465 . S
C2051 C2046 1.399 . S
C2051 C2050 1.394 . S
C2051 C2052 1.516 . S
C2052 C2051 1.516 . S
C2052 C2053 1.502 . S
C2052 C2054 1.561 . S
C2052 C2055 1.526 . S
C2053 H2037 0.959 . S
C2053 H2038 0.959 . S
C2053 H2039 0.961 . S
C2053 C2052 1.502 . S
C2054 H2040 0.960 . S
C2054 H2041 0.961 . S
C2054 H2042 0.959 . S
C2054 C2052 1.561 . S
C2055 C2052 1.526 . S
C2055 C2056 1.396 . S
C2055 C2060 1.390 . S
C2056 C2050 1.465 . S
C2056 C2055 1.396 . S
C2056 C2057 1.399 . S
C2057 H2043 0.929 . S
C2057 C2056 1.399 . S
C2057 C2058 1.385 . S
C2058 H2044 0.931 . S
C2058 C2057 1.385 . S
C2058 C2059 1.389 . S
C2059 C2058 1.389 . S
C2059 C2060 1.387 . S
C2060 H2045 0.930 . S
C2060 C2055 1.390 . S
C2060 C2059 1.387 . S
H2061 C2073 0.930 . S
H2062 C2075 0.930 . S
H2063 C2076 0.930 . S
H2064 C2080 0.959 . S
H2065 C2080 0.959 . S
H2066 C2080 0.961 . S
H2067 C2081 0.960 . S
H2068 C2081 0.961 . S
H2069 C2081 0.959 1_655 S
H2070 C2084 0.929 . S
H2071 C2085 0.931 . S
H2072 C2087 0.930 . S
C2073 H2061 0.930 . S
C2073 C2074 1.399 1_455 S
C2073 C2078 1.403 . S
C2074 C2073 1.399 1_655 S
C2074 C2075 1.376 . S
C2075 H2062 0.930 . S
C2075 C2074 1.376 . S
C2075 C2076 1.388 . S
C2076 H2063 0.930 . S
C2076 C2075 1.388 . S
C2076 C2077 1.390 . S
C2077 C2076 1.390 . S
C2077 C2078 1.387 1_655 S
C2077 C2083 1.465 . S
C2078 C2073 1.403 . S
C2078 C2077 1.387 1_455 S
C2078 C2079 1.518 . S
C2079 C2078 1.518 . S
C2079 C2080 1.502 . S
C2079 C2081 1.561 . S
C2079 C2082 1.526 1_455 S
C2080 H2064 0.959 . S
C2080 H2065 0.959 . S
C2080 H2066 0.961 . S
C2080 C2079 1.502 . S
C2081 H2067 0.960 . S
C2081 H2068 0.961 . S
C2081 H2069 0.959 1_455 S
C2081 C2079 1.561 . S
C2082 C2079 1.526 1_655 S
C2082 C2083 1.396 . S
C2082 C2087 1.390 1_655 S
C2083 C2077 1.465 . S
C2083 C2082 1.396 . S
C2083 C2084 1.399 . S
C2084 H2070 0.929 . S
C2084 C2083 1.399 . S
C2084 C2085 1.385 . S
C2085 H2071 0.931 . S
C2085 C2084 1.385 . S
C2085 C2086 1.389 . S
C2086 C2085 1.389 . S
C2086 C2087 1.387 1_655 S
C2087 H2072 0.930 . S
C2087 C2082 1.390 1_455 S
C2087 C2086 1.387 1_455 S
H2088 C2100 0.930 . S
H2089 C2102 0.930 . S
H2090 C2103 0.930 . S
H2091 C2107 0.959 . S
H2092 C2107 0.959 . S
H2093 C2107 0.961 . S
H2094 C2108 0.960 . S
H2095 C2108 0.961 . S
H2096 C2108 0.959 . S
H2097 C2111 0.929 . S
H2098 C2112 0.931 . S
H2099 C2114 0.930 . S
C2100 H2088 0.930 . S
C2100 C2101 1.399 . S
C2100 C2105 1.399 . S
C2101 C2100 1.399 . S
C2101 C2102 1.376 . S
C2102 H2089 0.930 . S
C2102 C2101 1.376 . S
C2102 C2103 1.388 . S
C2103 H2090 0.930 . S
C2103 C2102 1.388 . S
C2103 C2104 1.390 . S
C2104 C2103 1.390 . S
C2104 C2105 1.394 . S
C2104 C2110 1.465 . S
C2105 C2100 1.399 . S
C2105 C2104 1.394 . S
C2105 C2106 1.516 . S
C2106 C2105 1.516 . S
C2106 C2107 1.502 . S
C2106 C2108 1.561 . S
C2106 C2109 1.526 . S
C2107 H2091 0.959 . S
C2107 H2092 0.959 . S
C2107 H2093 0.961 . S
C2107 C2106 1.502 . S
C2108 H2094 0.960 . S
C2108 H2095 0.961 . S
C2108 H2096 0.959 . S
C2108 C2106 1.561 . S
C2109 C2106 1.526 . S
C2109 C2110 1.396 . S
C2109 C2114 1.390 . S
C2110 C2104 1.465 . S
C2110 C2109 1.396 . S
C2110 C2111 1.399 . S
C2111 H2097 0.929 . S
C2111 C2110 1.399 . S
C2111 C2112 1.385 . S
C2112 H2098 0.931 . S
C2112 C2111 1.385 . S
C2112 C2113 1.389 . S
C2113 C2112 1.389 . S
C2113 C2114 1.387 . S
C2114 H2099 0.930 . S
C2114 C2109 1.390 . S
C2114 C2113 1.387 . S
H2115 C2127 0.930 . S
H2116 C2129 0.930 . S
H2117 C2130 0.930 . S
H2118 C2134 0.959 1_545 S
H2119 C2134 0.959 . S
H2120 C2134 0.961 . S
H2121 C2135 0.960 . S
H2122 C2135 0.961 . S
H2123 C2135 0.959 . S
H2124 C2138 0.929 . S
H2125 C2139 0.931 . S
H2126 C2141 0.930 . S
C2127 H2115 0.930 . S
C2127 C2128 1.399 . S
C2127 C2132 1.399 . S
C2128 C2127 1.399 . S
C2128 C2129 1.376 . S
C2129 H2116 0.930 . S
C2129 C2128 1.376 . S
C2129 C2130 1.388 . S
C2130 H2117 0.930 . S
C2130 C2129 1.388 . S
C2130 C2131 1.390 . S
C2131 C2130 1.390 . S
C2131 C2132 1.394 . S
C2131 C2137 1.465 . S
C2132 C2127 1.399 . S
C2132 C2131 1.394 . S
C2132 C2133 1.516 1_545 S
C2133 C2132 1.516 1_565 S
C2133 C2134 1.502 . S
C2133 C2135 1.561 . S
C2133 C2136 1.526 1_565 S
C2134 H2118 0.959 1_565 S
C2134 H2119 0.959 . S
C2134 H2120 0.961 . S
C2134 C2133 1.502 . S
C2135 H2121 0.960 . S
C2135 H2122 0.961 . S
C2135 H2123 0.959 . S
C2135 C2133 1.561 . S
C2136 C2133 1.526 1_545 S
C2136 C2137 1.396 . S
C2136 C2141 1.390 1_545 S
C2137 C2131 1.465 . S
C2137 C2136 1.396 . S
C2137 C2138 1.399 . S
C2138 H2124 0.929 . S
C2138 C2137 1.399 . S
C2138 C2139 1.385 . S
C2139 H2125 0.931 . S
C2139 C2138 1.385 . S
C2139 C2140 1.389 . S
C2140 C2139 1.389 . S
C2140 C2141 1.387 1_545 S
C2141 H2126 0.930 . S
C2141 C2136 1.390 1_565 S
C2141 C2140 1.387 1_565 S
H2142 C2154 0.930 . S
H2143 C2156 0.930 . S
H2144 C2157 0.930 . S
H2145 C2161 0.959 . S
H2146 C2161 0.959 . S
H2147 C2161 0.961 . S
H2148 C2162 0.960 . S
H2149 C2162 0.961 . S
H2150 C2162 0.959 . S
H2151 C2165 0.929 . S
H2152 C2166 0.931 . S
H2153 C2168 0.930 . S
C2154 H2142 0.930 . S
C2154 C2155 1.399 . S
C2154 C2159 1.399 . S
C2155 C2154 1.399 . S
C2155 C2156 1.376 . S
C2156 H2143 0.930 . S
C2156 C2155 1.376 . S
C2156 C2157 1.388 . S
C2157 H2144 0.930 . S
C2157 C2156 1.388 . S
C2157 C2158 1.390 . S
C2158 C2157 1.390 . S
C2158 C2159 1.394 . S
C2158 C2164 1.465 . S
C2159 C2154 1.399 . S
C2159 C2158 1.394 . S
C2159 C2160 1.516 . S
C2160 C2159 1.516 . S
C2160 C2161 1.502 . S
C2160 C2162 1.561 . S
C2160 C2163 1.526 . S
C2161 H2145 0.959 . S
C2161 H2146 0.959 . S
C2161 H2147 0.961 . S
C2161 C2160 1.502 . S
C2162 H2148 0.960 . S
C2162 H2149 0.961 . S
C2162 H2150 0.959 . S
C2162 C2160 1.561 . S
C2163 C2160 1.526 . S
C2163 C2164 1.396 . S
C2163 C2168 1.390 . S
C2164 C2158 1.465 . S
C2164 C2163 1.396 . S
C2164 C2165 1.399 . S
C2165 H2151 0.929 . S
C2165 C2164 1.399 . S
C2165 C2166 1.385 . S
C2166 H2152 0.931 . S
C2166 C2165 1.385 . S
C2166 C2167 1.389 . S
C2167 C2166 1.389 . S
C2167 C2168 1.387 . S
C2168 H2153 0.930 . S
C2168 C2163 1.390 . S
C2168 C2167 1.387 . S
H2169 C2181 0.930 . S
H2170 C2183 0.930 . S
H2171 C2184 0.930 . S
H2172 C2188 0.959 . S
H2173 C2188 0.959 . S
H2174 C2188 0.961 . S
H2175 C2189 0.960 . S
H2176 C2189 0.961 . S
H2177 C2189 0.959 . S
H2178 C2192 0.929 . S
H2179 C2193 0.931 . S
H2180 C2195 0.930 . S
C2181 H2169 0.930 . S
C2181 C2182 1.399 . S
C2181 C2186 1.399 . S
C2182 C2181 1.399 . S
C2182 C2183 1.376 . S
C2183 H2170 0.930 . S
C2183 C2182 1.376 . S
C2183 C2184 1.388 . S
C2184 H2171 0.930 . S
C2184 C2183 1.388 . S
C2184 C2185 1.390 . S
C2185 C2184 1.390 . S
C2185 C2186 1.394 . S
C2185 C2191 1.465 . S
C2186 C2181 1.399 . S
C2186 C2185 1.394 . S
C2186 C2187 1.516 . S
C2187 C2186 1.516 . S
C2187 C2188 1.502 . S
C2187 C2189 1.561 . S
C2187 C2190 1.526 . S
C2188 H2172 0.959 . S
C2188 H2173 0.959 . S
C2188 H2174 0.961 . S
C2188 C2187 1.502 . S
C2189 H2175 0.960 . S
C2189 H2176 0.961 . S
C2189 H2177 0.959 . S
C2189 C2187 1.561 . S
C2190 C2187 1.526 . S
C2190 C2191 1.396 . S
C2190 C2195 1.390 . S
C2191 C2185 1.465 . S
C2191 C2190 1.396 . S
C2191 C2192 1.399 . S
C2192 H2178 0.929 . S
C2192 C2191 1.399 . S
C2192 C2193 1.385 . S
C2193 H2179 0.931 . S
C2193 C2192 1.385 . S
C2193 C2194 1.389 . S
C2194 C2193 1.389 . S
C2194 C2195 1.387 . S
C2195 H2180 0.930 . S
C2195 C2190 1.390 . S
C2195 C2194 1.387 . S
H2196 C2208 0.930 . S
H2197 C2210 0.930 . S
H2198 C2211 0.930 . S
H2199 C2215 0.959 . S
H2200 C2215 0.959 . S
H2201 C2215 0.961 . S
H2202 C2216 0.960 . S
H2203 C2216 0.961 . S
H2204 C2216 0.959 . S
H2205 C2219 0.929 . S
H2206 C2220 0.931 . S
H2207 C2222 0.930 . S
C2208 H2196 0.930 . S
C2208 C2209 1.399 . S
C2208 C2213 1.399 . S
C2209 C2208 1.399 . S
C2209 C2210 1.376 . S
C2210 H2197 0.930 . S
C2210 C2209 1.376 . S
C2210 C2211 1.388 . S
C2211 H2198 0.930 . S
C2211 C2210 1.388 . S
C2211 C2212 1.390 . S
C2212 C2211 1.390 . S
C2212 C2213 1.394 . S
C2212 C2218 1.465 . S
C2213 C2208 1.399 . S
C2213 C2212 1.394 . S
C2213 C2214 1.516 . S
C2214 C2213 1.516 . S
C2214 C2215 1.502 . S
C2214 C2216 1.561 . S
C2214 C2217 1.526 . S
C2215 H2199 0.959 . S
C2215 H2200 0.959 . S
C2215 H2201 0.961 . S
C2215 C2214 1.502 . S
C2216 H2202 0.960 . S
C2216 H2203 0.961 . S
C2216 H2204 0.959 . S
C2216 C2214 1.561 . S
C2217 C2214 1.526 . S
C2217 C2218 1.396 . S
C2217 C2222 1.390 . S
C2218 C2212 1.465 . S
C2218 C2217 1.396 . S
C2218 C2219 1.399 . S
C2219 H2205 0.929 . S
C2219 C2218 1.399 . S
C2219 C2220 1.385 . S
C2220 H2206 0.931 . S
C2220 C2219 1.385 . S
C2220 C2221 1.389 . S
C2221 C2220 1.389 . S
C2221 C2222 1.387 . S
C2222 H2207 0.930 . S
C2222 C2217 1.390 . S
C2222 C2221 1.387 . S
H2223 C2235 0.930 . S
H2224 C2237 0.930 . S
H2225 C2238 0.930 . S
H2226 C2242 0.959 . S
H2227 C2242 0.959 . S
H2228 C2242 0.961 . S
H2229 C2243 0.960 . S
H2230 C2243 0.961 . S
H2231 C2243 0.959 . S
H2232 C2246 0.929 . S
H2233 C2247 0.931 . S
H2234 C2249 0.930 . S
C2235 H2223 0.930 . S
C2235 C2236 1.399 . S
C2235 C2240 1.399 . S
C2236 C2235 1.399 . S
C2236 C2237 1.376 . S
C2237 H2224 0.930 . S
C2237 C2236 1.376 . S
C2237 C2238 1.388 . S
C2238 H2225 0.930 . S
C2238 C2237 1.388 . S
C2238 C2239 1.390 . S
C2239 C2238 1.390 . S
C2239 C2240 1.394 . S
C2239 C2245 1.465 . S
C2240 C2235 1.399 . S
C2240 C2239 1.394 . S
C2240 C2241 1.516 . S
C2241 C2240 1.516 . S
C2241 C2242 1.502 . S
C2241 C2243 1.561 . S
C2241 C2244 1.526 . S
C2242 H2226 0.959 . S
C2242 H2227 0.959 . S
C2242 H2228 0.961 . S
C2242 C2241 1.502 . S
C2243 H2229 0.960 . S
C2243 H2230 0.961 . S
C2243 H2231 0.959 . S
C2243 C2241 1.561 . S
C2244 C2241 1.526 . S
C2244 C2245 1.396 . S
C2244 C2249 1.390 . S
C2245 C2239 1.465 . S
C2245 C2244 1.396 . S
C2245 C2246 1.399 . S
C2246 H2232 0.929 . S
C2246 C2245 1.399 . S
C2246 C2247 1.385 . S
C2247 H2233 0.931 . S
C2247 C2246 1.385 . S
C2247 C2248 1.389 . S
C2248 C2247 1.389 . S
C2248 C2249 1.387 . S
C2249 H2234 0.930 . S
C2249 C2244 1.390 . S
C2249 C2248 1.387 . S
H2250 C2262 0.930 . S
H2251 C2264 0.930 . S
H2252 C2265 0.930 . S
H2253 C2269 0.959 . S
H2254 C2269 0.959 . S
H2255 C2269 0.961 . S
H2256 C2270 0.960 . S
H2257 C2270 0.961 . S
H2258 C2270 0.959 . S
H2259 C2273 0.929 . S
H2260 C2274 0.931 . S
H2261 C2276 0.930 . S
C2262 H2250 0.930 . S
C2262 C2263 1.399 . S
C2262 C2267 1.399 . S
C2263 C2262 1.399 . S
C2263 C2264 1.376 . S
C2264 H2251 0.930 . S
C2264 C2263 1.376 . S
C2264 C2265 1.388 . S
C2265 H2252 0.930 . S
C2265 C2264 1.388 . S
C2265 C2266 1.390 . S
C2266 C2265 1.390 . S
C2266 C2267 1.394 . S
C2266 C2272 1.465 . S
C2267 C2262 1.399 . S
C2267 C2266 1.394 . S
C2267 C2268 1.516 . S
C2268 C2267 1.516 . S
C2268 C2269 1.502 . S
C2268 C2270 1.561 . S
C2268 C2271 1.526 . S
C2269 H2253 0.959 . S
C2269 H2254 0.959 . S
C2269 H2255 0.961 . S
C2269 C2268 1.502 . S
C2270 H2256 0.960 . S
C2270 H2257 0.961 . S
C2270 H2258 0.959 . S
C2270 C2268 1.561 . S
C2271 C2268 1.526 . S
C2271 C2272 1.396 . S
C2271 C2276 1.390 . S
C2272 C2266 1.465 . S
C2272 C2271 1.396 . S
C2272 C2273 1.399 . S
C2273 H2259 0.929 . S
C2273 C2272 1.399 . S
C2273 C2274 1.385 . S
C2274 H2260 0.931 . S
C2274 C2273 1.385 . S
C2274 C2275 1.389 . S
C2275 C2274 1.389 . S
C2275 C2276 1.387 . S
C2276 H2261 0.930 . S
C2276 C2271 1.390 . S
C2276 C2275 1.387 . S
H2277 C2289 0.930 . S
H2278 C2291 0.930 . S
H2279 C2292 0.930 . S
H2280 C2296 0.959 . S
H2281 C2296 0.959 . S
H2282 C2296 0.961 . S
H2283 C2297 0.960 . S
H2284 C2297 0.961 . S
H2285 C2297 0.959 . S
H2286 C2300 0.929 . S
H2287 C2301 0.931 . S
H2288 C2303 0.930 . S
C2289 H2277 0.930 . S
C2289 C2290 1.399 . S
C2289 C2294 1.399 . S
C2290 C2289 1.399 . S
C2290 C2291 1.376 . S
C2291 H2278 0.930 . S
C2291 C2290 1.376 . S
C2291 C2292 1.388 . S
C2292 H2279 0.930 . S
C2292 C2291 1.388 . S
C2292 C2293 1.390 . S
C2293 C2292 1.390 . S
C2293 C2294 1.394 . S
C2293 C2299 1.465 . S
C2294 C2289 1.399 . S
C2294 C2293 1.394 . S
C2294 C2295 1.516 . S
C2295 C2294 1.516 . S
C2295 C2296 1.502 . S
C2295 C2297 1.561 . S
C2295 C2298 1.526 . S
C2296 H2280 0.959 . S
C2296 H2281 0.959 . S
C2296 H2282 0.961 . S
C2296 C2295 1.502 . S
C2297 H2283 0.960 . S
C2297 H2284 0.961 . S
C2297 H2285 0.959 . S
C2297 C2295 1.561 . S
C2298 C2295 1.526 . S
C2298 C2299 1.396 . S
C2298 C2303 1.390 . S
C2299 C2293 1.465 . S
C2299 C2298 1.396 . S
C2299 C2300 1.399 . S
C2300 H2286 0.929 . S
C2300 C2299 1.399 . S
C2300 C2301 1.385 . S
C2301 H2287 0.931 . S
C2301 C2300 1.385 . S
C2301 C2302 1.389 . S
C2302 C2301 1.389 . S
C2302 C2303 1.387 . S
C2303 H2288 0.930 . S
C2303 C2298 1.390 . S
C2303 C2302 1.387 . S
H2304 C2316 0.930 . S
H2305 C2318 0.930 . S
H2306 C2319 0.930 . S
H2307 C2323 0.959 . S
H2308 C2323 0.959 . S
H2309 C2323 0.961 . S
H2310 C2324 0.960 . S
H2311 C2324 0.961 . S
H2312 C2324 0.959 . S
H2313 C2327 0.929 . S
H2314 C2328 0.931 . S
H2315 C2330 0.930 . S
C2316 H2304 0.930 . S
C2316 C2317 1.399 . S
C2316 C2321 1.399 . S
C2317 C2316 1.399 . S
C2317 C2318 1.376 . S
C2318 H2305 0.930 . S
C2318 C2317 1.376 . S
C2318 C2319 1.388 . S
C2319 H2306 0.930 . S
C2319 C2318 1.388 . S
C2319 C2320 1.390 . S
C2320 C2319 1.390 . S
C2320 C2321 1.394 . S
C2320 C2326 1.465 . S
C2321 C2316 1.399 . S
C2321 C2320 1.394 . S
C2321 C2322 1.516 . S
C2322 C2321 1.516 . S
C2322 C2323 1.502 . S
C2322 C2324 1.561 . S
C2322 C2325 1.526 . S
C2323 H2307 0.959 . S
C2323 H2308 0.959 . S
C2323 H2309 0.961 . S
C2323 C2322 1.502 . S
C2324 H2310 0.960 . S
C2324 H2311 0.961 . S
C2324 H2312 0.959 . S
C2324 C2322 1.561 . S
C2325 C2322 1.526 . S
C2325 C2326 1.396 . S
C2325 C2330 1.390 . S
C2326 C2320 1.465 . S
C2326 C2325 1.396 . S
C2326 C2327 1.399 . S
C2327 H2313 0.929 . S
C2327 C2326 1.399 . S
C2327 C2328 1.385 . S
C2328 H2314 0.931 . S
C2328 C2327 1.385 . S
C2328 C2329 1.389 . S
C2329 C2328 1.389 . S
C2329 C2330 1.387 . S
C2330 H2315 0.930 . S
C2330 C2325 1.390 . S
C2330 C2329 1.387 . S
H2331 C2343 0.930 . S
H2332 C2345 0.930 . S
H2333 C2346 0.930 . S
H2334 C2350 0.959 . S
H2335 C2350 0.959 . S
H2336 C2350 0.961 . S
H2337 C2351 0.960 . S
H2338 C2351 0.961 . S
H2339 C2351 0.959 . S
H2340 C2354 0.929 . S
H2341 C2355 0.931 . S
H2342 C2357 0.930 . S
C2343 H2331 0.930 . S
C2343 C2344 1.399 . S
C2343 C2348 1.399 . S
C2344 C2343 1.399 . S
C2344 C2345 1.376 . S
C2345 H2332 0.930 . S
C2345 C2344 1.376 . S
C2345 C2346 1.388 . S
C2346 H2333 0.930 . S
C2346 C2345 1.388 . S
C2346 C2347 1.390 . S
C2347 C2346 1.390 . S
C2347 C2348 1.394 . S
C2347 C2353 1.465 . S
C2348 C2343 1.399 . S
C2348 C2347 1.394 . S
C2348 C2349 1.516 . S
C2349 C2348 1.516 . S
C2349 C2350 1.502 . S
C2349 C2351 1.561 . S
C2349 C2352 1.526 . S
C2350 H2334 0.959 . S
C2350 H2335 0.959 . S
C2350 H2336 0.961 . S
C2350 C2349 1.502 . S
C2351 H2337 0.960 . S
C2351 H2338 0.961 . S
C2351 H2339 0.959 . S
C2351 C2349 1.561 . S
C2352 C2349 1.526 . S
C2352 C2353 1.396 . S
C2352 C2357 1.390 . S
C2353 C2347 1.465 . S
C2353 C2352 1.396 . S
C2353 C2354 1.399 . S
C2354 H2340 0.929 . S
C2354 C2353 1.399 . S
C2354 C2355 1.385 . S
C2355 H2341 0.931 . S
C2355 C2354 1.385 . S
C2355 C2356 1.389 . S
C2356 C2355 1.389 . S
C2356 C2357 1.387 . S
C2357 H2342 0.930 . S
C2357 C2352 1.390 . S
C2357 C2356 1.387 . S
H2358 C2370 0.930 . S
H2359 C2372 0.930 . S
H2360 C2373 0.930 . S
H2361 C2377 0.959 . S
H2362 C2377 0.959 . S
H2363 C2377 0.961 . S
H2364 C2378 0.960 . S
H2365 C2378 0.961 . S
H2366 C2378 0.959 . S
H2367 C2381 0.929 . S
H2368 C2382 0.931 . S
H2369 C2384 0.930 . S
C2370 H2358 0.930 . S
C2370 C2371 1.399 . S
C2370 C2375 1.399 . S
C2371 C2370 1.399 . S
C2371 C2372 1.376 . S
C2372 H2359 0.930 . S
C2372 C2371 1.376 . S
C2372 C2373 1.388 . S
C2373 H2360 0.930 . S
C2373 C2372 1.388 . S
C2373 C2374 1.390 . S
C2374 C2373 1.390 . S
C2374 C2375 1.394 . S
C2374 C2380 1.465 . S
C2375 C2370 1.399 . S
C2375 C2374 1.394 . S
C2375 C2376 1.516 . S
C2376 C2375 1.516 . S
C2376 C2377 1.502 . S
C2376 C2378 1.561 . S
C2376 C2379 1.526 . S
C2377 H2361 0.959 . S
C2377 H2362 0.959 . S
C2377 H2363 0.961 . S
C2377 C2376 1.502 . S
C2378 H2364 0.960 . S
C2378 H2365 0.961 . S
C2378 H2366 0.959 . S
C2378 C2376 1.561 . S
C2379 C2376 1.526 . S
C2379 C2380 1.396 . S
C2379 C2384 1.390 . S
C2380 C2374 1.465 . S
C2380 C2379 1.396 . S
C2380 C2381 1.399 . S
C2381 H2367 0.929 . S
C2381 C2380 1.399 . S
C2381 C2382 1.385 . S
C2382 H2368 0.931 . S
C2382 C2381 1.385 . S
C2382 C2383 1.389 . S
C2383 C2382 1.389 . S
C2383 C2384 1.387 . S
C2384 H2369 0.930 . S
C2384 C2379 1.390 . S
C2384 C2383 1.387 . S
H2385 C2397 0.930 . S
H2386 C2399 0.930 . S
H2387 C2400 0.930 . S
H2388 C2404 0.959 . S
H2389 C2404 0.959 . S
H2390 C2404 0.961 . S
H2391 C2405 0.960 . S
H2392 C2405 0.961 . S
H2393 C2405 0.959 . S
H2394 C2408 0.929 . S
H2395 C2409 0.931 . S
H2396 C2411 0.930 . S
C2397 H2385 0.930 . S
C2397 C2398 1.399 . S
C2397 C2402 1.399 . S
C2398 C2397 1.399 . S
C2398 C2399 1.376 . S
C2399 H2386 0.930 . S
C2399 C2398 1.376 . S
C2399 C2400 1.388 . S
C2400 H2387 0.930 . S
C2400 C2399 1.388 . S
C2400 C2401 1.390 . S
C2401 C2400 1.390 . S
C2401 C2402 1.394 . S
C2401 C2407 1.465 . S
C2402 C2397 1.399 . S
C2402 C2401 1.394 . S
C2402 C2403 1.516 . S
C2403 C2402 1.516 . S
C2403 C2404 1.502 . S
C2403 C2405 1.561 . S
C2403 C2406 1.526 . S
C2404 H2388 0.959 . S
C2404 H2389 0.959 . S
C2404 H2390 0.961 . S
C2404 C2403 1.502 . S
C2405 H2391 0.960 . S
C2405 H2392 0.961 . S
C2405 H2393 0.959 . S
C2405 C2403 1.561 . S
C2406 C2403 1.526 . S
C2406 C2407 1.396 . S
C2406 C2411 1.390 . S
C2407 C2401 1.465 . S
C2407 C2406 1.396 . S
C2407 C2408 1.399 . S
C2408 H2394 0.929 . S
C2408 C2407 1.399 . S
C2408 C2409 1.385 . S
C2409 H2395 0.931 . S
C2409 C2408 1.385 . S
C2409 C2410 1.389 . S
C2410 C2409 1.389 . S
C2410 C2411 1.387 . S
C2411 H2396 0.930 . S
C2411 C2406 1.390 . S
C2411 C2410 1.387 . S
H2412 C2424 0.930 . S
H2413 C2426 0.930 . S
H2414 C2427 0.930 . S
H2415 C2431 0.959 . S
H2416 C2431 0.959 . S
H2417 C2431 0.961 . S
H2418 C2432 0.960 . S
H2419 C2432 0.961 . S
H2420 C2432 0.959 . S
H2421 C2435 0.929 . S
H2422 C2436 0.931 . S
H2423 C2438 0.930 . S
C2424 H2412 0.930 . S
C2424 C2425 1.399 . S
C2424 C2429 1.399 . S
C2425 C2424 1.399 . S
C2425 C2426 1.376 . S
C2426 H2413 0.930 . S
C2426 C2425 1.376 . S
C2426 C2427 1.388 . S
C2427 H2414 0.930 . S
C2427 C2426 1.388 . S
C2427 C2428 1.390 . S
C2428 C2427 1.390 . S
C2428 C2429 1.394 . S
C2428 C2434 1.465 . S
C2429 C2424 1.399 . S
C2429 C2428 1.394 . S
C2429 C2430 1.516 . S
C2430 C2429 1.516 . S
C2430 C2431 1.502 . S
C2430 C2432 1.561 . S
C2430 C2433 1.526 . S
C2431 H2415 0.959 . S
C2431 H2416 0.959 . S
C2431 H2417 0.961 . S
C2431 C2430 1.502 . S
C2432 H2418 0.960 . S
C2432 H2419 0.961 . S
C2432 H2420 0.959 . S
C2432 C2430 1.561 . S
C2433 C2430 1.526 . S
C2433 C2434 1.396 . S
C2433 C2438 1.390 . S
C2434 C2428 1.465 . S
C2434 C2433 1.396 . S
C2434 C2435 1.399 . S
C2435 H2421 0.929 . S
C2435 C2434 1.399 . S
C2435 C2436 1.385 . S
C2436 H2422 0.931 . S
C2436 C2435 1.385 . S
C2436 C2437 1.389 . S
C2437 C2436 1.389 . S
C2437 C2438 1.387 . S
C2438 H2423 0.930 . S
C2438 C2433 1.390 . S
C2438 C2437 1.387 . S
H2439 C2451 0.930 . S
H2440 C2453 0.930 . S
H2441 C2454 0.930 . S
H2442 C2458 0.959 . S
H2443 C2458 0.959 . S
H2444 C2458 0.961 . S
H2445 C2459 0.960 . S
H2446 C2459 0.961 . S
H2447 C2459 0.959 . S
H2448 C2462 0.929 . S
H2449 C2463 0.931 . S
H2450 C2465 0.930 . S
C2451 H2439 0.930 . S
C2451 C2452 1.399 . S
C2451 C2456 1.399 . S
C2452 C2451 1.399 . S
C2452 C2453 1.376 . S
C2453 H2440 0.930 . S
C2453 C2452 1.376 . S
C2453 C2454 1.388 . S
C2454 H2441 0.930 . S
C2454 C2453 1.388 . S
C2454 C2455 1.390 . S
C2455 C2454 1.390 . S
C2455 C2456 1.394 . S
C2455 C2461 1.465 . S
C2456 C2451 1.399 . S
C2456 C2455 1.394 . S
C2456 C2457 1.516 . S
C2457 C2456 1.516 . S
C2457 C2458 1.502 . S
C2457 C2459 1.561 . S
C2457 C2460 1.526 . S
C2458 H2442 0.959 . S
C2458 H2443 0.959 . S
C2458 H2444 0.961 . S
C2458 C2457 1.502 . S
C2459 H2445 0.960 . S
C2459 H2446 0.961 . S
C2459 H2447 0.959 . S
C2459 C2457 1.561 . S
C2460 C2457 1.526 . S
C2460 C2461 1.396 . S
C2460 C2465 1.390 . S
C2461 C2455 1.465 . S
C2461 C2460 1.396 . S
C2461 C2462 1.399 . S
C2462 H2448 0.929 . S
C2462 C2461 1.399 . S
C2462 C2463 1.385 . S
C2463 H2449 0.931 . S
C2463 C2462 1.385 . S
C2463 C2464 1.389 . S
C2464 C2463 1.389 . S
C2464 C2465 1.387 . S
C2465 H2450 0.930 . S
C2465 C2460 1.390 . S
C2465 C2464 1.387 . S
C1021 C469 1.697 . S
C1033 C660 1.682 . S
C1048 C505 1.800 . S
C1060 C700 1.776 . S
C1075 C433 1.757 . S
C1087 C730 1.770 . S
C1102 C397 1.584 . S
C1114 C690 1.612 . S
C1141 C740 1.468 . S
C1129 C325 1.483 . S
C1156 C361 1.433 . S
C1168 C650 1.464 1_556 S
C1195 C679 1.682 . S
C1183 C421 1.702 . S
C1222 C719 1.800 . S
C1210 C349 1.784 . S
C1237 C385 1.724 . S
C1249 C745 1.756 1_556 S
C1264 C493 1.556 . S
C1276 C705 1.587 . S
C1291 C529 1.467 . S
C1303 C759 1.483 . S
C1330 C665 1.413 . S
C1318 C457 1.464 . S
C1357 C780 1.671 . S
C1345 C37 1.691 . S
C1372 C73 1.793 . S
C1384 C820 1.800 . S
C1399 C1 1.759 . S
C1411 C850 1.769 . S
C1426 C613 1.574 . S
C1438 C810 1.538 . S
C1453 C541 1.477 . S
C1465 C860 1.476 . S
C1480 C577 1.463 . S
C1492 C770 1.427 . S
C1507 C637 1.673 . S
C1519 C799 1.694 . S
C1534 C565 1.794 . S
C1546 C839 1.778 . S
C1573 C865 1.720 . S
C1561 C601 1.776 . S
C1588 C61 1.553 . S
C1600 C825 1.590 . S
C1627 C879 1.486 . S
C1615 C97 1.464 . S
C1642 C25 1.463 . S
C1654 C785 1.419 . S
C1681 C900 1.675 . S
C1669 C253 1.701 . S
C1696 C289 1.787 . S
C1708 C940 1.801 . S
C1735 C970 1.770 . S
C1723 C217 1.756 . S
C1762 C930 1.535 . S
C1750 C181 1.578 . S
C1789 C980 1.462 . S
C1777 C109 1.485 . S
C1804 C145 1.401 . S
C1816 C890 1.442 . S
C1831 C205 1.706 . S
C1843 C919 1.670 . S
C1858 C133 1.782 . S
C1870 C959 1.800 . S
C1897 C985 1.723 . S
C1885 C169 1.775 . S
C1912 C277 1.600 . S
C1924 C945 1.537 . S
C1939 C313 1.463 . S
C1951 C999 1.485 . S
C1966 C241 1.412 . S
C1978 C905 1.466 . S
C1993 C571 1.314 . S
C2005 C677 1.321 . S
C2032 C717 1.856 . S
C2020 C607 1.864 . S
C2047 C643 1.563 . S
C2059 C736 1.576 . S
C2074 C247 1.855 . S
C2086 C696 1.854 . S
C2101 C283 1.577 . S
C2113 C757 1.562 . S
C2140 C656 1.324 . S
C2128 C319 1.326 . S
C2155 C139 1.329 . S
C2167 C797 1.305 . S
C2182 C175 1.861 . S
C2194 C837 1.860 . S
C2209 C211 1.582 . S
C2221 C856 1.564 . S
C2236 C463 1.855 . S
C2248 C816 1.853 . S
C2275 C877 1.579 . S
C2263 C499 1.578 . S
C2290 C535 1.326 . S
C2302 C776 1.325 . S
C2317 C355 1.329 . S
C2329 C917 1.303 . S
C2344 C391 1.863 . S
C2356 C957 1.858 . S
C2383 C976 1.572 . S
C2371 C427 1.585 . S
C2398 C31 1.860 . S
C2410 C936 1.866 . S
C2425 C67 1.575 . S
C2437 C997 1.565 . S
C2452 C103 1.319 . S
C2464 C896 1.291 . S
