# Generated by pormake.
# Topology zzz, (3,6)-cn, num edge types: 1
# Building blocks:
#     Node 0, Type 0, BuildingBlock: BETDIP_clean_linker_0, # of connection points: 3
#     Node 1, Type 0, BuildingBlock: BETDIP_clean_linker_0, # of connection points: 3
#     Node 2, Type 0, BuildingBlock: BETDIP_clean_linker_0, # of connection points: 3
#     Node 3, Type 0, BuildingBlock: BETDIP_clean_linker_0, # of connection points: 3
#     Node 4, Type 0, BuildingBlock: BETDIP_clean_linker_0, # of connection points: 3
#     Node 5, Type 0, BuildingBlock: BETDIP_clean_linker_0, # of connection points: 3
#     Node 6, Type 0, BuildingBlock: BETDIP_clean_linker_0, # of connection points: 3
#     Node 7, Type 0, BuildingBlock: BETDIP_clean_linker_0, # of connection points: 3
#     Node 8, Type 1, BuildingBlock: KUMBOL_clean_sbu_0, # of connection points: 6
#     Node 9, Type 1, BuildingBlock: KUMBOL_clean_sbu_0, # of connection points: 6
#     Node 10, Type 1, BuildingBlock: KUMBOL_clean_sbu_0, # of connection points: 6
#     Node 11, Type 1, BuildingBlock: KUMBOL_clean_sbu_0, # of connection points: 6
#     Edge 12, Type (0, 1), BuildingBlock: XIVTED_clean_linker_0, # of connection points: 2
#     Edge 13, Type (0, 1), BuildingBlock: XIVTED_clean_linker_0, # of connection points: 2
#     Edge 14, Type (0, 1), BuildingBlock: XIVTED_clean_linker_0, # of connection points: 2
#     Edge 15, Type (0, 1), BuildingBlock: XIVTED_clean_linker_0, # of connection points: 2
#     Edge 16, Type (0, 1), BuildingBlock: XIVTED_clean_linker_0, # of connection points: 2
#     Edge 17, Type (0, 1), BuildingBlock: XIVTED_clean_linker_0, # of connection points: 2
#     Edge 18, Type (0, 1), BuildingBlock: XIVTED_clean_linker_0, # of connection points: 2
#     Edge 19, Type (0, 1), BuildingBlock: XIVTED_clean_linker_0, # of connection points: 2
#     Edge 20, Type (0, 1), BuildingBlock: XIVTED_clean_linker_0, # of connection points: 2
#     Edge 21, Type (0, 1), BuildingBlock: XIVTED_clean_linker_0, # of connection points: 2
#     Edge 22, Type (0, 1), BuildingBlock: XIVTED_clean_linker_0, # of connection points: 2
#     Edge 23, Type (0, 1), BuildingBlock: XIVTED_clean_linker_0, # of connection points: 2
#     Edge 24, Type (0, 1), BuildingBlock: XIVTED_clean_linker_0, # of connection points: 2
#     Edge 25, Type (0, 1), BuildingBlock: XIVTED_clean_linker_0, # of connection points: 2
#     Edge 26, Type (0, 1), BuildingBlock: XIVTED_clean_linker_0, # of connection points: 2
#     Edge 27, Type (0, 1), BuildingBlock: XIVTED_clean_linker_0, # of connection points: 2
#     Edge 28, Type (0, 1), BuildingBlock: XIVTED_clean_linker_0, # of connection points: 2
#     Edge 29, Type (0, 1), BuildingBlock: XIVTED_clean_linker_0, # of connection points: 2
#     Edge 30, Type (0, 1), BuildingBlock: XIVTED_clean_linker_0, # of connection points: 2
#     Edge 31, Type (0, 1), BuildingBlock: XIVTED_clean_linker_0, # of connection points: 2
#     Edge 32, Type (0, 1), BuildingBlock: XIVTED_clean_linker_0, # of connection points: 2
#     Edge 33, Type (0, 1), BuildingBlock: XIVTED_clean_linker_0, # of connection points: 2
#     Edge 34, Type (0, 1), BuildingBlock: XIVTED_clean_linker_0, # of connection points: 2
#     Edge 35, Type (0, 1), BuildingBlock: XIVTED_clean_linker_0, # of connection points: 2
# Relax obj value: 0.176
# Max RMSD: 0.163
# Mean RMSD: 0.115
data_MOF--net-zzz--node1-KUMBOL_clean_sbu_0--node2-BETDIP_clean_linker_0--edge1-XIVTED_clean_linker_0
_symmetry_space_group_name_H-M    P1
_symmetry_Int_Tables_number       1
_symmetry_cell_setting            triclinic
loop_
_symmetry_equiv_pos_as_xyz
'x, y, z'
_cell_length_a     50.537204
_cell_length_b     50.682106
_cell_length_c     14.533968
_cell_angle_alpha  91.962575
_cell_angle_beta   89.818226
_cell_angle_gamma 89.928035
loop_
_atom_site_label
_atom_site_type_symbol
_atom_site_fract_x
_atom_site_fract_y
_atom_site_fract_z
_atom_type_partial_charge
H0 H 0.7622 0.54022 0.34472 0.0
H1 H 0.75629 0.58431 0.09649 0.0
H2 H 0.8296 0.58235 0.24375 0.0
H3 H 0.71453 0.5949 0.18758 0.0
C4 C 0.70963 0.5741 0.17764 0.0
C5 C 0.77105 0.55289 0.29464 0.0
C6 C 0.79782 0.56093 0.30455 0.0
C7 C 0.75555 0.56216 0.22088 0.0
C8 C 0.76755 0.57812 0.15531 0.0
C9 C 0.7941 0.58553 0.16313 0.0
C10 C 0.80881 0.57723 0.23855 0.0
N11 N 0.72821 0.55525 0.21029 0.0
H12 H 1.00792 0.77718 0.34958 0.0
H13 H 0.97 0.76246 0.08748 0.0
H14 H 0.97145 0.84088 0.20817 0.0
H15 H 0.95848 0.72328 0.1755 0.0
C16 C 0.97956 0.71896 0.17706 0.0
C17 C 0.99673 0.78421 0.29191 0.0
C18 C 0.98912 0.81125 0.29009 0.0
C19 C 0.98909 0.76618 0.21947 0.0
C20 C 0.97507 0.77583 0.14437 0.0
C21 C 0.96904 0.80268 0.13847 0.0
C22 C 0.97547 0.81995 0.21275 0.0
N23 N 0.99652 0.73878 0.21798 0.0
H24 H 0.76972 1.00357 0.37986 0.0
H25 H 0.78612 0.9627 0.12135 0.0
H26 H 0.70693 0.96464 0.23033 0.0
H27 H 0.82798 0.95391 0.24438 0.0
C28 C 0.8295 0.97453 0.2268 0.0
C29 C 0.76304 0.99141 0.32179 0.0
C30 C 0.7362 0.98334 0.31648 0.0
C31 C 0.78136 0.98316 0.25231 0.0
C32 C 0.77233 0.96804 0.17611 0.0
C33 C 0.74544 0.96191 0.16574 0.0
C34 C 0.72786 0.96877 0.23796 0.0
N35 N 0.80827 0.99187 0.25354 0.0
H36 H 0.54345 0.78257 0.37677 0.0
H37 H 0.58493 0.78071 0.11644 0.0
H38 H 0.58301 0.71188 0.28016 0.0
H39 H 0.59766 0.82738 0.2155 0.0
C40 C 0.5768 0.83084 0.20221 0.0
C41 C 0.55585 0.77227 0.32633 0.0
C42 C 0.56322 0.74577 0.33924 0.0
C43 C 0.565 0.78549 0.24802 0.0
C44 C 0.57975 0.7714 0.18006 0.0
C45 C 0.58627 0.74483 0.19142 0.0
C46 C 0.57879 0.7327 0.27249 0.0
N47 N 0.55793 0.8123 0.23407 0.0
H48 H 0.27395 0.52088 0.01604 0.0
H49 H 0.28071 0.47239 0.25418 0.0
H50 H 0.21116 0.46807 0.08772 0.0
H51 H 0.3011 0.50915 0.30952 0.0
C52 C 0.31516 0.51185 0.25392 0.0
C53 C 0.26611 0.50589 0.05988 0.0
C54 C 0.24109 0.49435 0.03989 0.0
C55 C 0.28072 0.4982 0.13806 0.0
C56 C 0.26995 0.47886 0.19473 0.0
C57 C 0.24488 0.46816 0.17764 0.0
C58 C 0.23101 0.47557 0.09931 0.0
N59 N 0.30578 0.51006 0.16087 0.0
H60 H 0.02494 0.27142 1.01299 0.0
H61 H 0.0801 0.28749 0.23405 0.0
H62 H 0.08116 0.2124 0.08933 0.0
H63 H 0.03981 0.30314 0.29718 0.0
C64 C 0.03684 0.31728 0.2435 0.0
C65 C 0.04154 0.2655 0.05446 0.0
C66 C 0.05338 0.24024 0.0383 0.0
C67 C 0.05096 0.28273 0.12656 0.0
C68 C 0.0724 0.27445 0.18003 0.0
C69 C 0.08289 0.24894 0.1694 0.0
C70 C 0.07383 0.23248 0.09658 0.0
N71 N 0.03836 0.30761 0.14948 0.0
H72 H 0.2763 0.03664 0.9564 0.0
H73 H 0.26064 0.07839 0.21373 0.0
H74 H 0.33743 0.08317 0.08783 0.0
H75 H 0.24906 0.02235 0.20993 0.0
C76 C 0.23287 0.03128 0.1728 0.0
C77 C 0.28267 0.05024 1.011 0.0
C78 C 0.30882 0.06045 1.01057 0.0
C79 C 0.26515 0.05694 0.08469 0.0
C80 C 0.27395 0.07374 0.1568 0.0
C81 C 0.29999 0.08314 0.15935 0.0
C82 C 0.31692 0.077 0.0847 0.0
N83 N 0.23951 0.04528 0.09219 0.0
H84 H 0.50852 0.26379 0.96041 0.0
H85 H 0.4583 0.258 0.19904 0.0
H86 H 0.45834 0.3287 0.04456 0.0
H87 H 0.51074 0.24572 0.23005 0.0
C88 C 0.50522 0.22834 0.18848 0.0
C89 C 0.49287 0.27182 1.0041 0.0
C90 C 0.48349 0.29772 0.9914 0.0
C91 C 0.48338 0.2572 0.07853 0.0
C92 C 0.46461 0.26866 0.13941 0.0
C93 C 0.45529 0.29436 0.12746 0.0
C94 C 0.46422 0.30826 0.05154 0.0
N95 N 0.49466 0.23228 0.09912 0.0
Gd96 Gd 0.99973 0.0292 0.58291 0.0
Gd97 Gd 0.04648 0.01922 0.77225 0.0
C98 C 0.05151 0.09211 0.97054 0.0
C99 C 0.09531 0.10896 0.93803 0.0
C100 C 0.07939 0.06886 0.85892 0.0
C101 C 0.05563 0.07105 0.90548 0.0
C102 C 0.09982 0.08737 0.87697 0.0
C103 C 0.07119 0.11131 0.98481 0.0
C104 C 0.02786 0.09317 0.02026 0.0
C105 C 1.00925 0.07329 1.00635 0.0
N106 N 0.03676 0.05239 0.88886 0.0
C107 C 1.01407 0.05294 0.94113 0.0
H108 H 0.99919 0.03801 0.93475 0.0
C109 C 0.10821 0.04232 0.76794 0.0
N110 N 0.08319 0.04779 0.80036 0.0
C111 C 0.12894 0.06014 0.78285 0.0
C112 C 0.12457 0.08312 0.83592 0.0
H113 H 0.11231 0.02413 0.72976 0.0
H114 H 0.06814 0.12777 0.03327 0.0
H115 H 0.0398 0.99354 0.42982 0.0
H116 H 0.02398 0.109 0.07056 0.0
H117 H 0.99106 0.0736 0.0459 0.0
H118 H 0.11061 0.12352 0.95156 0.0
H119 H 0.93695 0.04459 0.63277 0.0
H120 H 0.99341 0.93472 0.29296 0.0
H121 H 0.03622 0.95696 0.31953 0.0
H122 H 0.90567 0.95151 0.40346 0.0
H123 H 0.14836 0.05595 0.75429 0.0
H124 H 0.14072 0.09684 0.84813 0.0
H125 H 0.94493 0.93259 0.3256 0.0
H126 H 0.89202 0.02712 0.60512 0.0
N127 N 0.99888 0.99351 0.47051 0.0
C128 C 0.99465 0.95124 0.34208 0.0
C129 C 0.01879 0.96379 0.35672 0.0
C130 C 0.97228 0.96052 0.38957 0.0
C131 C 0.975 0.98205 0.4534 0.0
C132 C 0.02054 0.98504 0.4203 0.0
N133 N 0.95618 1.01383 0.55459 0.0
C134 C 0.95299 0.99247 0.49734 0.0
C135 C 0.90898 0.01703 0.57479 0.0
C136 C 0.90554 0.99428 0.51957 0.0
C137 C 0.93447 0.02681 0.59037 0.0
C138 C 0.92761 0.98194 0.47873 0.0
H139 H 0.88575 0.9868 0.50698 0.0
O140 O 0.97529 0.05948 0.52368 0.0
O141 O 0.02515 0.04906 0.69142 0.0
O142 O 1.00514 1.00747 0.81925 0.0
O143 O 0.97474 0.01564 0.70268 0.0
O144 O 0.98633 0.0617 0.68259 0.0
O145 O 1.01515 0.05342 0.47455 0.0
O146 O 0.0792 0.99561 0.81972 0.0
O147 O 0.02059 0.99945 0.66557 0.0
O148 O 0.0417 0.02973 0.52434 0.0
O149 O 0.07097 0.02896 0.64795 0.0
O150 O 0.05802 0.98401 0.68007 0.0
O151 O 0.0421 0.99617 0.89447 0.0
C152 C 1.00868 0.0661 0.72242 0.0
C153 C 0.92496 0.95997 0.41808 0.0
C154 C 0.94728 0.94924 0.37366 0.0
C155 C 0.99516 0.06962 0.48054 0.0
C156 C 1.00126 0.09753 0.50508 0.0
C157 C 0.98152 0.11418 0.54316 0.0
C158 C 0.02727 0.10711 0.49788 0.0
C159 C 0.03356 0.13316 0.52651 0.0
C160 C 0.98772 0.13972 0.57434 0.0
C161 C 1.01344 0.14924 0.56583 0.0
C162 C 0.98059 1.00862 0.7872 0.0
C163 C 0.03578 0.98085 0.63804 0.0
C164 C 0.06467 0.98414 0.88034 0.0
C165 C 0.0638 0.95526 0.86949 0.0
C166 C 0.08685 0.94046 0.88184 0.0
C167 C 0.04066 0.9426 0.83788 0.0
C168 C 0.04004 0.91513 0.82233 0.0
C169 C 0.08672 0.91326 0.86369 0.0
C170 C 0.06351 0.90061 0.8347 0.0
C171 C 0.0659 0.0305 0.55922 0.0
H172 H 0.96135 0.10732 0.55044 0.0
H173 H 0.04266 0.09423 0.47013 0.0
H174 H 0.97241 0.15234 0.60409 0.0
H175 H 0.01717 0.16956 0.58702 0.0
H176 H 0.10501 0.95 0.90418 0.0
H177 H 0.02306 0.95416 0.82561 0.0
H178 H 0.10456 0.90186 0.87351 0.0
H179 H 0.06381 0.87932 0.82576 0.0
Gd180 Gd 0.51962 0.99887 0.57806 0.0
Gd181 Gd 0.52857 0.04648 0.77381 0.0
C182 C 0.45501 0.05394 0.96188 0.0
C183 C 0.4404 0.09866 0.93615 0.0
C184 C 0.47994 0.08115 0.85915 0.0
C185 C 0.47651 0.05735 0.90075 0.0
C186 C 0.4623 0.10234 0.87843 0.0
C187 C 0.43677 0.0745 0.97784 0.0
C188 C 0.45245 0.03001 1.00571 0.0
C189 C 0.47124 1.01034 0.98955 0.0
N190 N 0.49421 0.03762 0.8823 0.0
C191 C 0.49206 1.01448 0.92821 0.0
H192 H 0.50586 0.99862 0.91869 0.0
C193 C 0.50761 0.10875 0.77431 0.0
N194 N 0.50121 0.08409 0.80337 0.0
C195 C 0.49069 0.13022 0.79075 0.0
C196 C 0.46761 0.12688 0.84154 0.0
H197 H 0.5259 0.11198 0.73789 0.0
H198 H 0.42 0.07203 0.0234 0.0
H199 H 0.5511 0.04196 0.43367 0.0
H200 H 0.43624 0.02664 0.05281 0.0
H201 H 0.46966 0.99181 0.02403 0.0
H202 H 0.4265 0.11458 0.95065 0.0
H203 H 0.51106 0.93468 0.61871 0.0
H204 H 0.61488 1.00181 0.3002 0.0
H205 H 0.58799 0.04197 0.3277 0.0
H206 H 0.60834 0.91362 0.40315 0.0
H207 H 0.49565 0.1494 0.76509 0.0
H208 H 0.45458 0.14358 0.85484 0.0
H209 H 0.62264 0.95426 0.3302 0.0
H210 H 0.53397 0.89217 0.59122 0.0
N211 N 0.55546 1.00149 0.47045 0.0
C212 C 0.5982 1.00142 0.3472 0.0
C213 C 0.58306 0.02407 0.36245 0.0
C214 C 0.5914 0.97842 0.39166 0.0
C215 C 0.56953 0.97897 0.45277 0.0
C216 C 0.56168 0.02376 0.42365 0.0
N217 N 0.54004 0.95718 0.54917 0.0
C218 C 0.56173 0.95621 0.49426 0.0
C219 C 0.5422 0.91005 0.56427 0.0
C220 C 0.5655 0.90907 0.51279 0.0
C221 C 0.5294 0.93423 0.58015 0.0
C222 C 0.57526 0.93218 0.47539 0.0
H223 H 0.57532 0.89028 0.49988 0.0
O224 O 0.49184 0.97092 0.51659 0.0
O225 O 0.49941 0.02515 0.68404 0.0
O226 O 0.54002 1.00558 0.81999 0.0
O227 O 0.53156 0.97492 0.69988 0.0
O228 O 0.48573 0.98678 0.66911 0.0
O229 O 0.4955 1.00979 0.46183 0.0
O230 O 0.55299 0.07845 0.82822 0.0
O231 O 0.54867 0.0203 0.6677 0.0
O232 O 0.51508 0.04048 0.52564 0.0
O233 O 0.51872 0.07039 0.65093 0.0
O234 O 0.56376 0.05791 0.68674 0.0
O235 O 0.55134 0.04152 0.89842 0.0
C236 C 0.48157 1.00943 0.70949 0.0
C237 C 0.59757 0.9318 0.41765 0.0
C238 C 0.60565 0.9549 0.37592 0.0
C239 C 0.48092 0.98867 0.46679 0.0
C240 C 0.4523 0.99256 0.48255 0.0
C241 C 0.43597 0.97054 0.49417 0.0
C242 C 0.44151 0.01806 0.49429 0.0
C243 C 0.41449 0.02166 0.51466 0.0
C244 C 0.40941 0.9739 0.51768 0.0
C245 C 0.39866 0.9992 0.52753 0.0
C246 C 0.53863 0.98106 0.78546 0.0
C247 C 0.56716 0.03548 0.64382 0.0
C248 C 0.56394 0.06373 0.88881 0.0
C249 C 0.59293 0.06229 0.88279 0.0
C250 C 0.60793 0.08524 0.89778 0.0
C251 C 0.60558 0.03869 0.85401 0.0
C252 C 0.63321 0.03761 0.84378 0.0
C253 C 0.63528 0.08461 0.88491 0.0
C254 C 0.6479 0.061 0.85864 0.0
C255 C 0.51531 0.06478 0.56237 0.0
H256 H 0.4439 0.9507 0.48665 0.0
H257 H 0.4541 0.03516 0.48745 0.0
H258 H 0.39697 0.95681 0.5268 0.0
H259 H 0.37766 1.00098 0.54127 0.0
H260 H 0.59843 0.10372 0.91818 0.0
H261 H 0.59393 0.0211 0.83986 0.0
H262 H 0.6468 0.10238 0.89674 0.0
H263 H 0.66928 0.06096 0.85372 0.0
Gd264 Gd 0.49831 0.53192 0.74858 0.0
Gd265 Gd 0.54807 0.51301 0.57893 0.0
C266 C 0.63139 0.51366 0.70369 0.0
C267 C 0.65265 0.54925 0.6239 0.0
C268 C 0.60712 0.53706 0.58858 0.0
C269 C 0.60794 0.51789 0.65359 0.0
C270 C 0.62974 0.55248 0.57108 0.0
C271 C 0.65348 0.52986 0.69013 0.0
C272 C 0.63217 0.49291 0.76447 0.0
C273 C 0.61008 0.47674 0.7731 0.0
N274 N 0.58615 0.50272 0.66552 0.0
C275 C 0.58719 0.48191 0.72294 0.0
H276 H 0.57049 0.46923 0.73204 0.0
C277 C 0.58468 0.55533 0.46354 0.0
N278 N 0.58475 0.53954 0.53849 0.0
C279 C 0.60649 0.57111 0.44389 0.0
C280 C 0.62899 0.57002 0.49892 0.0
H281 H 0.56724 0.55647 0.42081 0.0
H282 H 0.6715 0.52713 0.72889 0.0
H283 H 0.48956 0.59646 0.80151 0.0
H284 H 0.64979 0.489 0.80404 0.0
H285 H 0.61055 0.46043 0.81924 0.0
H286 H 0.67009 0.56112 0.61224 0.0
H287 H 0.46465 0.47341 0.71161 0.0
H288 H 0.41406 0.62015 0.7001 0.0
H289 H 0.45633 0.63132 0.77727 0.0
H290 H 0.37406 0.53841 0.60378 0.0
H291 H 0.60591 0.5841 0.38635 0.0
H292 H 0.64594 0.58218 0.48335 0.0
H293 H 0.38372 0.58542 0.63392 0.0
H294 H 0.42136 0.4588 0.65965 0.0
N295 N 0.46683 0.56609 0.73478 0.0
C296 C 0.42864 0.60482 0.71011 0.0
C297 C 0.45241 0.6112 0.75392 0.0
C298 C 0.42345 0.57854 0.68355 0.0
C299 C 0.44311 0.55929 0.6979 0.0
C300 C 0.47113 0.59142 0.76758 0.0
N301 N 0.45674 0.5147 0.69945 0.0
C302 C 0.43776 0.53281 0.68079 0.0
C303 C 0.42574 0.4797 0.66473 0.0
C304 C 0.40667 0.49804 0.64073 0.0
C305 C 0.45067 0.48833 0.69425 0.0
C306 C 0.41244 0.52495 0.64924 0.0
H307 H 0.38746 0.49125 0.61708 0.0
O308 O 0.5038 0.51149 0.87659 0.0
O309 O 0.54148 0.52336 0.72723 0.0
O310 O 0.53274 0.47497 0.63866 0.0
O311 O 0.50523 0.48829 0.76091 0.0
O312 O 0.53162 0.55896 0.79269 0.0
O313 O 0.47994 0.5464 0.87655 0.0
O314 O 0.55703 0.50692 0.4339 0.0
O315 O 0.50436 0.51413 0.60835 0.0
O316 O 0.50686 0.56786 0.66248 0.0
O317 O 0.54597 0.55781 0.58371 0.0
O318 O 0.51691 0.52907 0.48464 0.0
O319 O 0.55547 0.47347 0.5212 0.0
C320 C 0.55095 0.5437 0.76826 0.0
C321 C 0.39339 0.54412 0.62963 0.0
C322 C 0.3989 0.57088 0.6466 0.0
C323 C 0.49255 0.5299 0.92683 0.0
C324 C 0.50911 0.54129 1.00148 0.0
C325 C 0.51618 0.52609 0.07629 0.0
C326 C 0.52063 0.56624 0.99234 0.0
C327 C 0.54038 0.57549 0.053 0.0
C328 C 0.53487 0.53562 0.13987 0.0
C329 C 0.5472 0.55997 0.12783 0.0
C330 C 0.51806 0.46997 0.71164 0.0
C331 C 0.49656 0.52431 0.5347 0.0
C332 C 0.55636 0.48143 0.43706 0.0
C333 C 0.53874 0.46851 0.3691 0.0
C334 C 0.54396 0.4715 0.27525 0.0
C335 C 0.51597 0.45479 0.39612 0.0
C336 C 0.49866 0.44387 0.32957 0.0
C337 C 0.52656 0.46128 0.20902 0.0
C338 C 0.50406 0.44758 0.23572 0.0
C339 C 0.52723 0.57458 0.61087 0.0
H340 H 0.50761 0.50673 0.08447 0.0
H341 H 0.51488 0.57805 0.93537 0.0
H342 H 0.54017 0.52395 0.19791 0.0
H343 H 0.56177 0.5667 0.17773 0.0
H344 H 0.56138 0.48207 0.25329 0.0
H345 H 0.51176 0.45248 0.46852 0.0
H346 H 0.53072 0.46367 0.13667 0.0
H347 H 0.49151 0.43894 0.18251 0.0
Gd348 Gd 1.01429 0.50032 0.74922 0.0
Gd349 Gd 0.02569 0.55274 0.58694 0.0
C350 C 0.01786 0.64027 0.67157 0.0
C351 C 0.9783 0.65298 0.58938 0.0
C352 C 0.99539 0.60817 0.57278 0.0
C353 C 1.01565 0.6144 0.63314 0.0
C354 C 0.97682 0.62753 0.54848 0.0
C355 C 0.99877 0.65933 0.65095 0.0
C356 C 0.0395 0.64639 0.728 0.0
C357 C 0.05871 0.62722 0.74222 0.0
N358 N 0.0338 0.5955 0.65139 0.0
C359 C 0.05574 0.6019 0.70226 0.0
H360 H 0.07093 0.58763 0.71438 0.0
C361 C 0.97677 0.57727 0.46611 0.0
N362 N 0.99452 0.58345 0.53455 0.0
C363 C 0.95792 0.59575 0.43988 0.0
C364 C 0.95771 0.62089 0.48215 0.0
H365 H 0.97664 0.5577 0.43413 0.0
H366 H 1.00002 0.6792 0.68059 0.0
H367 H 0.96921 0.46555 0.61996 0.0
H368 H 0.04186 0.66597 0.75912 0.0
H369 H 0.07583 0.63188 0.78423 0.0
H370 H 0.96407 0.66804 0.57233 0.0
H371 H 0.06365 0.49595 0.9006 0.0
H372 H 0.99544 0.38582 0.59107 0.0
H373 H 0.9631 0.42074 0.55707 0.0
H374 H 0.07248 0.38365 0.78139 0.0
H375 H 0.9435 0.59053 0.38746 0.0
H376 H 0.94309 0.6352 0.4617 0.0
H377 H 0.03636 0.37224 0.67415 0.0
H378 H 0.09577 0.46287 0.95242 0.0
N379 N 1.00542 0.45722 0.68861 0.0
C380 C 0.99832 0.40566 0.61939 0.0
C381 C 0.98004 0.42531 0.6001 0.0
C382 C 0.01982 0.41175 0.67645 0.0
C383 C 0.02276 0.43797 0.71101 0.0
C384 C 0.98371 0.45096 0.63626 0.0
N385 N 0.04483 0.46948 0.80465 0.0
C386 C 0.04314 0.44433 0.77068 0.0
C387 C 0.08114 0.45739 0.90101 0.0
C388 C 0.08046 0.4317 0.86328 0.0
C389 C 0.06287 0.47602 0.87174 0.0
C390 C 0.06108 0.42478 0.79826 0.0
H391 H 0.0946 0.41726 0.88613 0.0
O392 O 1.00904 0.49635 0.89596 0.0
O393 O 1.01389 0.54371 0.7288 0.0
O394 O 0.06347 0.54389 0.66902 0.0
O395 O 0.05772 0.50037 0.71049 0.0
O396 O 0.03085 0.53196 0.84845 0.0
O397 O 0.97485 0.4955 0.8061 0.0
O398 O 0.03072 0.55857 0.44116 0.0
O399 O 0.02612 0.50943 0.60741 0.0
O400 O 0.97659 0.50896 0.66627 0.0
O401 O 0.98228 0.55249 0.62539 0.0
O402 O 1.00996 0.52099 0.48621 0.0
O403 O 0.06508 0.55812 0.53019 0.0
C404 C 0.02413 0.55224 0.8031 0.0
C405 C 0.05876 0.39889 0.7617 0.0
C406 C 0.03818 0.39239 0.70078 0.0
C407 C 0.98349 0.49891 0.89037 0.0
C408 C 0.97245 0.52122 0.94592 0.0
C409 C 0.98096 0.52548 0.03703 0.0
C410 C 0.95552 0.53973 0.90646 0.0
C411 C 0.94625 0.56182 0.95829 0.0
C412 C 0.97274 0.54783 0.08783 0.0
C413 C 0.95543 0.5658 0.04925 0.0
C414 C 0.07294 0.52126 0.69928 0.0
C415 C 1.01643 0.50079 0.5324 0.0
C416 C 0.0563 0.55622 0.4457 0.0
C417 C 0.06742 0.53514 0.38489 0.0
C418 C 0.06095 0.5345 0.29109 0.0
C419 C 0.08238 0.51442 0.42054 0.0
C420 C 0.09184 0.49371 0.36236 0.0
C421 C 0.06935 0.51357 0.23356 0.0
C422 C 0.08479 0.49343 0.26846 0.0
C423 C 0.96707 0.53162 0.63648 0.0
H424 H 0.99436 0.51173 0.06836 0.0
H425 H 0.94947 0.53691 0.83545 0.0
H426 H 0.97944 0.55101 0.158 0.0
H427 H 0.94843 0.58217 0.09255 0.0
H428 H 0.04903 0.55001 0.26263 0.0
H429 H 0.0868 0.51449 0.49339 0.0
H430 H 0.06428 0.5132 0.1612 0.0
H431 H 0.0921 0.4783 0.22052 0.0
H432 H 0.18581 0.05761 0.12831 0.0
H433 H 0.11306 1.00592 0.58143 0.0
H434 H 0.21922 1.00415 0.32098 0.0
H435 H 0.0718 0.05411 0.38974 0.0
H436 H 0.15192 1.00623 0.48327 0.0
H437 H 0.14384 0.05742 0.21692 0.0
C438 C 0.18428 0.04567 0.18845 0.0
C439 C 0.20612 0.03082 0.21722 0.0
C440 C 0.13453 0.01691 0.46209 0.0
C441 C 0.15839 0.03071 0.31913 0.0
C442 C 0.11229 0.01701 0.5192 0.0
C443 C 0.08922 0.03059 0.49555 0.0
C444 C 0.13412 0.03049 0.37933 0.0
C445 C 0.08922 0.04353 0.41123 0.0
C446 C 0.16035 0.04563 0.23918 0.0
C447 C 0.203 0.01589 0.29605 0.0
N448 N 0.11137 0.04334 0.35642 0.0
N449 N 0.17984 0.01631 0.34385 0.0
H450 H 0.48576 0.17888 0.12994 0.0
H451 H 0.53959 0.1121 0.58675 0.0
H452 H 0.52974 0.21862 0.34711 0.0
H453 H 0.48954 0.06917 0.39456 0.0
H454 H 0.53753 0.1502 0.49121 0.0
H455 H 0.48837 0.1376 0.21561 0.0
C456 C 0.49617 0.17886 0.19494 0.0
C457 C 0.50763 0.20221 0.23153 0.0
C458 C 0.52676 0.13263 0.46951 0.0
C459 C 0.51055 0.15535 0.3296 0.0
C460 C 0.52767 0.11083 0.52511 0.0
C461 C 0.51403 0.08759 0.50057 0.0
C462 C 0.51218 0.13149 0.38734 0.0
C463 C 0.50012 0.08682 0.41671 0.0
C464 C 0.49754 0.15537 0.24396 0.0
C465 C 0.52066 0.20112 0.31626 0.0
N466 N 0.4994 0.10853 0.36322 0.0
N467 N 0.52172 0.17826 0.36202 0.0
H468 H 0.35664 0.5418 0.18701 0.0
H469 H 0.46727 0.47961 0.50527 0.0
H470 H 0.3379 0.48339 0.38546 0.0
H471 H 0.46694 0.56301 0.45878 0.0
H472 H 0.42438 0.47557 0.42641 0.0
H473 H 0.40187 0.54495 0.25177 0.0
C474 C 0.36221 0.52928 0.24267 0.0
C475 C 0.34361 0.51216 0.2806 0.0
C476 C 0.43361 0.49479 0.43406 0.0
C477 C 0.39503 0.51544 0.35392 0.0
C478 C 0.45786 0.49715 0.48003 0.0
C479 C 0.46988 0.52191 0.4929 0.0
C480 C 0.42162 0.51725 0.39811 0.0
C481 C 0.45774 0.54374 0.45331 0.0
C482 C 0.38785 0.53125 0.2801 0.0
C483 C 0.35169 0.49674 0.35399 0.0
N484 N 0.43419 0.54097 0.40813 0.0
N485 N 0.37674 0.49857 0.38767 0.0
H486 H 0.01683 0.36132 0.15442 0.0
H487 H 0.05474 0.46368 0.5683 0.0
H488 H 0.05304 0.33786 0.40692 0.0
H489 H 0.98904 0.47799 0.38869 0.0
H490 H 0.06098 0.42017 0.49155 0.0
H491 H 1.01276 0.40684 0.22086 0.0
C492 C 0.02417 0.36576 0.22311 0.0
C493 C 0.03529 0.3457 0.27516 0.0
C494 C 0.04511 0.43277 0.46907 0.0
C495 C 0.03102 0.39764 0.35105 0.0
C496 C 0.0414 0.45754 0.51356 0.0
C497 C 0.02061 0.47409 0.48767 0.0
C498 C 0.02838 0.42462 0.39619 0.0
C499 C 1.00485 0.46556 0.41265 0.0
C500 C 0.02174 0.39167 0.26123 0.0
C501 C 0.04429 0.35264 0.36428 0.0
N502 N 1.00895 0.44146 0.36991 0.0
N503 N 0.04211 0.37785 0.39896 0.0
H504 H 0.83457 0.01706 0.11229 0.0
H505 H 0.98126 0.97776 0.93952 0.0
H506 H 0.87645 0.949 0.20622 0.0
H507 H 0.92943 0.02737 0.78589 0.0
H508 H 0.94523 0.97074 0.04966 0.0
H509 H 0.87139 0.02544 1.00549 0.0
C510 C 0.85166 1.00414 0.11154 0.0
C511 C 0.85246 0.98234 0.16858 0.0
C512 C 0.94168 0.98305 0.99148 0.0
C513 C 0.89465 0.99173 0.04631 0.0
C514 C 0.96226 0.98702 0.92834 0.0
C515 C 0.95836 1.00282 0.85188 0.0
C516 C 0.91702 0.99541 0.97973 0.0
C517 C 0.93329 1.01453 0.84212 0.0
C518 C 0.87258 1.00878 0.04998 0.0
C519 C 0.87501 0.96605 0.16356 0.0
N520 N 0.91372 1.01075 0.90528 0.0
N521 N 0.89513 0.97108 0.10401 0.0
H522 H 0.60587 0.87516 0.18121 0.0
H523 H 0.51774 0.93119 0.77923 0.0
H524 H 0.53152 0.83982 0.10151 0.0
H525 H 0.57098 0.98107 0.93747 0.0
H526 H 0.52569 0.8956 0.88516 0.0
H527 H 0.59623 0.9125 0.08355 0.0
C528 C 0.58738 0.87541 0.14369 0.0
C529 C 0.56941 0.85444 0.14984 0.0
C530 C 0.53572 0.91429 0.89656 0.0
C531 C 0.55855 0.8968 0.03595 0.0
C532 C 0.53148 0.93455 0.83525 0.0
C533 C 0.54415 0.95906 0.84804 0.0
C534 C 0.55306 0.91831 0.97098 0.0
C535 C 0.56102 0.96244 0.92422 0.0
C536 C 0.58191 0.89671 0.08799 0.0
C537 C 0.54582 0.85568 0.09942 0.0
N538 N 0.56519 0.94225 0.98222 0.0
N539 N 0.54122 0.87633 0.04374 0.0
H540 H 0.68102 0.60845 0.08176 0.0
H541 H 0.56954 0.5094 0.89468 0.0
H542 H 0.68549 0.52542 0.13478 0.0
H543 H 0.58767 0.58283 0.76867 0.0
H544 H 0.60881 0.51505 0.99359 0.0
H545 H 0.64368 0.5999 0.97922 0.0
C546 C 0.67409 0.58833 0.07188 0.0
C547 C 0.68653 0.56763 0.11694 0.0
C548 C 0.60448 0.52968 0.94316 0.0
C549 C 0.64327 0.55764 0.99897 0.0
C550 C 0.58225 0.52634 0.88616 0.0
C551 C 0.57611 0.54509 0.82052 0.0
C552 C 0.62024 0.55237 0.93635 0.0
C553 C 0.59222 0.56751 0.81628 0.0
C554 C 0.65279 0.58346 1.01282 0.0
C555 C 0.67658 0.54197 0.10134 0.0
N556 N 0.61348 0.5705 0.87313 0.0
N557 N 0.65541 0.5377 0.04404 0.0
H558 H 0.02973 0.69525 0.16304 0.0
H559 H 0.98256 0.58662 0.77953 0.0
H560 H 0.94978 0.68826 0.0631 0.0
H561 H 0.05349 0.57683 0.93828 0.0
H562 H 0.97322 0.62774 0.86777 0.0
H563 H 0.04171 0.65548 0.0683 0.0
C564 C 1.01475 0.68546 0.12122 0.0
C565 C 0.98866 0.69513 0.1214 0.0
C566 C 0.99094 0.61673 0.88311 0.0
C567 C 1.00226 0.64987 1.01187 0.0
C568 C 0.99641 0.59334 0.83195 0.0
C569 C 0.01913 0.57847 0.85019 0.0
C570 C 1.00828 0.62549 0.95352 0.0
C571 C 0.03591 0.58784 0.92118 0.0
C572 C 0.02155 0.66274 0.06721 0.0
C573 C 0.9701 0.68153 0.06556 0.0
N574 N 0.03027 0.61073 0.96977 0.0
N575 N 0.97723 0.65986 1.01319 0.0
H576 H 0.12314 0.21162 0.15907 0.0
H577 H 0.06629 0.12105 0.37923 0.0
H578 H 0.07796 0.25914 0.35557 0.0
H579 H 0.06175 0.17164 0.62419 0.0
H580 H 0.09998 0.14904 0.31907 0.0
H581 H 0.13099 0.17967 0.27826 0.0
C582 C 0.11545 0.21575 0.22771 0.0
C583 C 0.09824 0.23717 0.24525 0.0
C584 C 0.09256 0.1537 0.38763 0.0
C585 C 0.10672 0.20062 0.38064 0.0
C586 C 0.07296 0.13751 0.42247 0.0
C587 C 0.0599 0.14469 0.5051 0.0
C588 C 0.09852 0.17772 0.43418 0.0
C589 C 0.07002 0.16622 0.55739 0.0
C590 C 0.11989 0.19744 0.29567 0.0
C591 C 0.09035 0.24237 0.33692 0.0
N592 N 0.08797 0.18259 0.51944 0.0
N593 N 0.09391 0.22375 0.40044 0.0
H594 H 0.33762 0.12233 0.18484 0.0
H595 H 0.4282 0.06207 0.40246 0.0
H596 H 0.28859 0.06897 0.33554 0.0
H597 H 0.37215 0.04254 0.61446 0.0
H598 H 0.39929 0.09659 0.3549 0.0
H599 H 0.36751 0.1257 0.31661 0.0
C600 C 0.33278 0.1118 0.24627 0.0
C601 C 0.31141 0.09409 0.24682 0.0
C602 C 0.39348 0.08563 0.41421 0.0
C603 C 0.34581 0.0972 0.39609 0.0
C604 C 0.41024 0.06558 0.44177 0.0
C605 C 0.40198 0.04819 0.50937 0.0
C606 C 0.36797 0.08779 0.45265 0.0
C607 C 0.37858 0.05436 0.55797 0.0
C608 C 0.34993 0.11364 0.32139 0.0
C609 C 0.30529 0.08217 0.33008 0.0
N610 N 0.36189 0.07299 0.52632 0.0
N611 N 0.32287 0.0833 0.4003 0.0
H612 H 0.41318 0.32865 0.11877 0.0
H613 H 0.5001 0.40579 0.45851 0.0
H614 H 0.46795 0.29547 0.31005 0.0
H615 H 0.44819 0.43995 0.25987 0.0
H616 H 0.47194 0.367 0.4602 0.0
H617 H 0.40834 0.36739 0.22187 0.0
C618 C 0.4233 0.329 0.1844 0.0
C619 C 0.44203 0.30949 0.20374 0.0
C620 C 0.46616 0.38327 0.41819 0.0
C621 C 0.43723 0.35393 0.32041 0.0
C622 C 0.48222 0.40563 0.41773 0.0
C623 C 0.47716 0.42562 0.35564 0.0
C624 C 0.44547 0.38064 0.35412 0.0
C625 C 0.45352 0.42433 0.30532 0.0
C626 C 0.42064 0.35121 0.24321 0.0
C627 C 0.45395 0.31048 0.29083 0.0
N628 N 0.43899 0.4018 0.30328 0.0
N629 N 0.45212 0.33284 0.34456 0.0
H630 H 0.2137 0.42385 0.15702 0.0
H631 H 0.13031 0.50224 0.49445 0.0
H632 H 0.24284 0.47982 0.36239 0.0
H633 H 0.10008 0.44142 0.30787 0.0
H634 H 0.17183 0.47876 0.50077 0.0
H635 H 0.17647 0.41424 0.25767 0.0
C636 C 0.21278 0.43339 0.22481 0.0
C637 C 0.23057 0.45365 0.24947 0.0
C638 C 0.15597 0.47011 0.45992 0.0
C639 C 0.18775 0.44338 0.36369 0.0
C640 C 0.13193 0.48355 0.4566 0.0
C641 C 0.11213 0.47484 0.39501 0.0
C642 C 0.16052 0.44851 0.39868 0.0
C643 C 0.11552 0.44996 0.35085 0.0
C644 C 0.19148 0.42793 0.28244 0.0
C645 C 0.22907 0.46468 0.33919 0.0
N646 N 0.13967 0.43818 0.35043 0.0
N647 N 0.20744 0.4601 0.39187 0.0
H648 H 0.98303 0.78571 0.96297 0.0
H649 H 0.99084 0.92907 0.89015 0.0
H650 H 0.93533 0.84454 0.10784 0.0
H651 H 0.02979 0.86948 0.71869 0.0
H652 H 0.95491 0.89885 0.91525 0.0
H653 H 0.98283 0.81247 0.82881 0.0
C654 C 0.97168 0.80384 0.96622 0.0
C655 C 0.96047 0.81356 0.04936 0.0
C656 C 0.97092 0.89246 0.87 0.0
C657 C 0.96153 0.84509 0.89609 0.0
C658 C 0.99161 0.90992 0.85501 0.0
C659 C 1.01442 0.90122 0.80731 0.0
C660 C 0.97364 0.86593 0.84039 0.0
C661 C 1.0135 0.87638 0.76168 0.0
C662 C 0.97173 0.81932 0.88888 0.0
C663 C 0.9457 0.83701 0.04715 0.0
N664 N 0.99395 0.85918 0.78223 0.0
N665 N 0.94748 0.85249 0.97295 0.0
H666 H 0.76284 0.97626 0.99499 0.0
H667 H 0.61889 0.98963 0.91111 0.0
H668 H 0.70319 0.92891 0.12391 0.0
H669 H 0.67916 0.02592 0.74677 0.0
H670 H 0.64847 0.95322 0.93724 0.0
H671 H 0.73545 0.97838 0.85968 0.0
C672 C 0.74441 0.96541 0.9942 0.0
C673 C 0.73466 0.9537 0.07381 0.0
C674 C 0.65514 0.96874 0.89331 0.0
C675 C 0.70246 0.95738 0.91951 0.0
C676 C 0.63804 0.98967 0.8777 0.0
C677 C 0.64706 1.0118 0.83115 0.0
C678 C 0.68169 0.97048 0.86527 0.0
C679 C 0.67197 1.01011 0.78833 0.0
C680 C 0.72855 0.96684 0.9163 0.0
C681 C 0.71081 0.93961 0.06633 0.0
N682 N 0.68882 0.99031 0.80924 0.0
N683 N 0.69501 0.9427 0.99204 0.0
H684 H 0.62799 0.71016 0.18316 0.0
H685 H 0.51905 0.62037 0.98131 0.0
H686 H 0.56212 0.73793 0.02602 0.0
H687 H 0.59237 0.58953 0.08637 0.0
H688 H 0.54026 0.66245 0.9615 0.0
H689 H 0.6234 0.66665 0.10775 0.0
C690 C 0.61352 0.70749 0.12878 0.0
C691 C 0.59466 0.72723 0.11349 0.0
C692 C 0.55194 0.64643 0.98759 0.0
C693 C 0.58862 0.6775 0.02983 0.0
C694 C 0.53978 0.62215 0.99893 0.0
C695 C 0.55372 0.60117 0.03706 0.0
C696 C 0.57809 0.6503 0.01726 0.0
C697 C 0.58048 0.60528 0.05968 0.0
C698 C 0.61059 0.68249 0.08675 0.0
C699 C 0.57659 0.72297 0.04168 0.0
N700 N 0.59163 0.6295 0.05117 0.0
N701 N 0.57329 0.69821 1.00499 0.0
H702 H 0.78996 0.57513 0.97715 0.0
H703 H 0.90582 0.54699 0.84057 0.0
H704 H 0.82986 0.62623 0.17502 0.0
H705 H 0.93604 0.61497 0.99347 0.0
H706 H 0.86337 0.56778 0.83399 0.0
H707 H 0.82408 0.58434 0.86447 0.0
C708 C 0.80557 0.58885 0.9963 0.0
C709 C 0.80798 0.59872 0.08729 0.0
C710 C 0.87918 0.57879 0.86711 0.0
C711 C 0.84819 0.60769 0.96101 0.0
C712 C 0.90391 0.56674 0.87059 0.0
C713 C 0.92429 0.57838 0.92346 0.0
C714 C 0.87458 0.60224 0.91944 0.0
C715 C 0.92038 0.60435 0.95769 0.0
C716 C 0.82543 0.59375 0.93216 0.0
C717 C 0.8281 0.61705 0.10695 0.0
N718 N 0.89571 0.615 0.95823 0.0
N719 N 0.84795 0.62026 0.04536 0.0
H720 H 0.08202 0.21502 0.90185 0.0
H721 H 0.97635 0.09794 0.82679 0.0
H722 H 1.00409 0.21691 0.02229 0.0
H723 H 0.05385 0.0966 0.70306 0.0
H724 H 0.98491 0.14266 0.88927 0.0
H725 H 0.07072 0.17386 0.81772 0.0
C726 C 0.06219 0.20719 0.90838 0.0
C727 C 0.04387 0.21982 0.9685 0.0
C728 C 1.00014 0.13266 0.84875 0.0
C729 C 0.03096 0.17178 0.87395 0.0
C730 C 0.9953 0.10702 0.81333 0.0
C731 C 1.01478 0.09301 0.76261 0.0
C732 C 0.02459 0.14486 0.83236 0.0
C733 C 0.03863 0.10619 0.7448 0.0
C734 C 0.05584 0.18345 0.86102 0.0
C735 C 0.01869 0.20829 0.97558 0.0
N736 N 0.04294 0.13119 0.78019 0.0
N737 N 1.0131 0.18489 0.92987 0.0
H738 H 0.34041 0.09212 0.90803 0.0
H739 H 0.44657 0.97819 0.79712 0.0
H740 H 0.32604 1.0103 0.96107 0.0
H741 H 0.45413 0.05647 0.69413 0.0
H742 H 0.40204 0.98933 0.85342 0.0
H743 H 0.38098 0.0795 0.82452 0.0
C744 C 0.34543 0.07138 0.89993 0.0
C745 C 0.32953 0.05223 0.94101 0.0
C746 C 0.41335 1.00415 0.81863 0.0
C747 C 0.37669 0.0376 0.84734 0.0
C748 C 0.43887 0.99783 0.78682 0.0
C749 C 0.45458 0.01676 0.74426 0.0
C750 C 0.40312 0.02964 0.80733 0.0
C751 C 0.44319 0.0416 0.73002 0.0
C752 C 0.36875 0.0642 0.85272 0.0
C753 C 0.33736 0.0257 0.92946 0.0
N754 N 0.41836 0.04743 0.76252 0.0
N755 N 0.36048 0.01924 0.88494 0.0
H756 H 0.47143 0.30863 0.81189 0.0
H757 H 0.51772 0.45461 0.88867 0.0
H758 H 0.52263 0.3319 0.03633 0.0
H759 H 0.51537 0.42287 0.60999 0.0
H760 H 0.5145 0.40985 0.94512 0.0
H761 H 0.48346 0.34946 0.73368 0.0
C762 C 0.48602 0.32179 0.84278 0.0
C763 C 0.49655 0.31661 0.92968 0.0
C764 C 0.51481 0.4126 0.87153 0.0
C765 C 0.50913 0.36385 0.84367 0.0
C766 C 0.51645 0.43818 0.83922 0.0
C767 C 0.51669 0.4425 0.74438 0.0
C768 C 0.51264 0.391 0.80888 0.0
C769 C 0.51524 0.42036 0.68357 0.0
C770 C 0.49265 0.34518 0.79873 0.0
C771 C 0.51454 0.33486 0.96853 0.0
N772 N 0.51284 0.39553 0.71677 0.0
N773 N 0.51983 0.35783 0.92631 0.0
H774 H 0.21911 0.54313 1.00816 0.0
H775 H 0.10405 0.47705 0.70114 0.0
H776 H 0.22064 0.46276 0.90238 0.0
H777 H 0.10638 0.56061 0.76629 0.0
H778 H 0.1483 0.47261 0.76608 0.0
H779 H 0.18037 0.55156 0.91063 0.0
C780 C 0.21192 0.52754 0.96197 0.0
C781 C 0.22337 0.50226 0.96292 0.0
C782 C 0.13936 0.49203 0.76544 0.0
C783 C 0.17836 0.51143 0.85343 0.0
C784 C 0.11397 0.49457 0.72827 0.0
C785 C 0.10127 0.51925 0.72821 0.0
C786 C 0.15235 0.51426 0.80444 0.0
C787 C 0.11534 0.54122 0.76415 0.0
C788 C 0.18955 0.53224 0.90714 0.0
C789 C 0.21264 0.48259 0.90342 0.0
N790 N 0.1399 0.53817 0.80176 0.0
N791 N 0.1907 0.48748 0.85239 0.0
H792 H 0.95522 0.84379 0.38759 0.0
H793 H 0.0685 0.94529 0.55204 0.0
H794 H 0.03833 0.82731 0.35408 0.0
H795 H 0.98676 0.95565 0.62958 0.0
H796 H 0.05781 0.90194 0.48237 0.0
H797 H 0.96608 0.88376 0.47966 0.0
C798 C 0.97581 0.84821 0.40167 0.0
C799 C 0.99586 0.8318 0.3637 0.0
C800 C 0.04212 0.91361 0.51433 0.0
C801 C 1.00858 0.8784 0.46768 0.0
C802 C 0.04819 0.93849 0.55394 0.0
C803 C 0.02836 0.95466 0.59414 0.0
C804 C 1.0159 0.90438 0.51488 0.0
C805 C 1.00255 0.94436 0.59658 0.0
C806 C 0.98201 0.87122 0.45383 0.0
C807 C 0.02219 0.83897 0.38303 0.0
N808 N 0.99703 0.92009 0.55671 0.0
N809 N 0.02775 0.86177 0.43254 0.0
H810 H 0.70239 0.95095 0.40671 0.0
H811 H 0.60287 0.06697 0.56089 0.0
H812 H 0.72151 0.03317 0.38159 0.0
H813 H 0.5927 0.98699 0.64505 0.0
H814 H 0.6464 0.05509 0.49709 0.0
H815 H 0.66286 0.9635 0.49611 0.0
C816 C 0.69858 0.97169 0.42188 0.0
C817 C 0.71554 0.99101 0.38706 0.0
C818 C 0.63474 0.04007 0.52942 0.0
C819 C 0.66961 1.00565 0.48807 0.0
C820 C 0.60978 0.04682 0.56557 0.0
C821 C 0.5936 0.0277 0.60509 0.0
C822 C 0.64392 1.01394 0.53312 0.0
C823 C 0.60401 1.00211 0.61189 0.0
C824 C 0.67589 0.97885 0.47267 0.0
C825 C 0.70931 0.01758 0.40799 0.0
N826 N 0.62828 0.9959 0.57519 0.0
N827 N 0.68674 0.02409 0.45594 0.0
H828 H 0.59224 0.72597 0.4775 0.0
H829 H 0.48819 0.61088 0.5771 0.0
H830 H 0.51351 0.72582 0.36548 0.0
H831 H 0.57296 0.60248 0.59124 0.0
H832 H 0.49408 0.65706 0.5334 0.0
H833 H 0.58176 0.68585 0.55924 0.0
C834 C 0.57232 0.71815 0.47366 0.0
C835 C 0.55361 0.72948 0.41565 0.0
C836 C 0.51134 0.64511 0.54664 0.0
C837 C 0.54174 0.6828 0.50602 0.0
C838 C 0.50801 0.6188 0.57172 0.0
C839 C 0.53013 0.60271 0.58682 0.0
C840 C 0.53698 0.65555 0.53853 0.0
C841 C 0.55536 0.61398 0.57861 0.0
C842 C 0.56648 0.69495 0.51887 0.0
C843 C 0.52832 0.71802 0.41087 0.0
N844 N 0.55807 0.63962 0.55526 0.0
N845 N 0.52321 0.69509 0.45436 0.0
H846 H 0.81892 0.51181 0.33633 0.0
H847 H 0.93611 0.57592 0.63971 0.0
H848 H 0.81985 0.59251 0.43852 0.0
H849 H 0.93319 0.49277 0.56801 0.0
H850 H 0.8917 0.58103 0.57685 0.0
H851 H 0.85799 0.50277 0.43163 0.0
C852 C 0.82671 0.52736 0.38145 0.0
C853 C 0.81576 0.55286 0.38056 0.0
C854 C 0.90054 0.56155 0.5755 0.0
C855 C 0.86119 0.54298 0.48729 0.0
C856 C 0.92603 0.55862 0.61149 0.0
C857 C 0.93863 0.53387 0.609 0.0
C858 C 0.88732 0.53965 0.53519 0.0
C859 C 0.92432 0.5122 0.57198 0.0
C860 C 0.84927 0.52231 0.43496 0.0
C861 C 0.82735 0.57248 0.43808 0.0
N862 N 0.89965 0.51563 0.53559 0.0
N863 N 0.84942 0.56723 0.48797 0.0
loop_
_geom_bond_atom_site_label_1
_geom_bond_atom_site_label_2
_geom_bond_distance
_geom_bond_site_symmetry_2
_ccdc_geom_bond_type
H0 C5 0.930 . S
H1 C8 0.930 . S
H2 C10 0.930 . S
H3 C4 1.016 . S
C4 H3 1.016 . S
C4 N11 1.286 . S
C5 H0 0.930 . S
C5 C6 1.397 . S
C5 C7 1.361 . S
C6 C5 1.397 . S
C6 C10 1.390 . S
C7 C5 1.361 . S
C7 C8 1.393 . S
C7 N11 1.413 . S
C8 H1 0.930 . S
C8 C7 1.393 . S
C8 C9 1.399 . S
C9 C8 1.399 . S
C9 C10 1.381 . S
C10 H2 0.930 . S
C10 C6 1.390 . S
C10 C9 1.381 . S
N11 C4 1.286 . S
N11 C7 1.413 . S
H12 C17 0.930 . S
H13 C20 0.930 . S
H14 C22 0.930 . S
H15 C16 1.016 . S
C16 H15 1.016 . S
C16 N23 1.286 . S
C17 H12 0.930 . S
C17 C18 1.397 . S
C17 C19 1.361 . S
C18 C17 1.397 . S
C18 C22 1.390 . S
C19 C17 1.361 . S
C19 C20 1.393 . S
C19 N23 1.413 . S
C20 H13 0.930 . S
C20 C19 1.393 . S
C20 C21 1.399 . S
C21 C20 1.399 . S
C21 C22 1.381 . S
C22 H14 0.930 . S
C22 C18 1.390 . S
C22 C21 1.381 . S
N23 C16 1.286 . S
N23 C19 1.413 . S
H24 C29 0.930 . S
H25 C32 0.930 . S
H26 C34 0.930 . S
H27 C28 1.016 . S
C28 H27 1.016 . S
C28 N35 1.286 . S
C29 H24 0.930 . S
C29 C30 1.397 . S
C29 C31 1.361 . S
C30 C29 1.397 . S
C30 C34 1.390 . S
C31 C29 1.361 . S
C31 C32 1.393 . S
C31 N35 1.413 . S
C32 H25 0.930 . S
C32 C31 1.393 . S
C32 C33 1.399 . S
C33 C32 1.399 . S
C33 C34 1.381 . S
C34 H26 0.930 . S
C34 C30 1.390 . S
C34 C33 1.381 . S
N35 C28 1.286 . S
N35 C31 1.413 . S
H36 C41 0.930 . S
H37 C44 0.930 . S
H38 C46 0.930 . S
H39 C40 1.016 . S
C40 H39 1.016 . S
C40 N47 1.286 . S
C41 H36 0.930 . S
C41 C42 1.397 . S
C41 C43 1.361 . S
C42 C41 1.397 . S
C42 C46 1.390 . S
C43 C41 1.361 . S
C43 C44 1.393 . S
C43 N47 1.413 . S
C44 H37 0.930 . S
C44 C43 1.393 . S
C44 C45 1.399 . S
C45 C44 1.399 . S
C45 C46 1.381 . S
C46 H38 0.930 . S
C46 C42 1.390 . S
C46 C45 1.381 . S
N47 C40 1.286 . S
N47 C43 1.413 . S
H48 C53 0.930 . S
H49 C56 0.930 . S
H50 C58 0.930 . S
H51 C52 1.016 . S
C52 H51 1.016 . S
C52 N59 1.286 . S
C53 H48 0.930 . S
C53 C54 1.397 . S
C53 C55 1.361 1_556 S
C54 C53 1.397 . S
C54 C58 1.390 . S
C55 C53 1.361 1_554 S
C55 C56 1.393 . S
C55 N59 1.413 . S
C56 H49 0.930 . S
C56 C55 1.393 . S
C56 C57 1.399 . S
C57 C56 1.399 . S
C57 C58 1.381 1_554 S
C58 H50 0.930 . S
C58 C54 1.390 . S
C58 C57 1.381 1_556 S
N59 C52 1.286 . S
N59 C55 1.413 . S
H60 C65 0.930 . S
H61 C68 0.930 . S
H62 C70 0.930 . S
H63 C64 1.016 . S
C64 H63 1.016 . S
C64 N71 1.286 . S
C65 H60 0.930 . S
C65 C66 1.397 . S
C65 C67 1.361 1_556 S
C66 C65 1.397 . S
C66 C70 1.390 . S
C67 C65 1.361 1_554 S
C67 C68 1.393 . S
C67 N71 1.413 . S
C68 H61 0.930 . S
C68 C67 1.393 . S
C68 C69 1.399 . S
C69 C68 1.399 . S
C69 C70 1.381 1_554 S
C70 H62 0.930 . S
C70 C66 1.390 . S
C70 C69 1.381 1_556 S
N71 C64 1.286 . S
N71 C67 1.413 . S
H72 C77 0.930 . S
H73 C80 0.930 . S
H74 C82 0.930 . S
H75 C76 1.016 . S
C76 H75 1.016 . S
C76 N83 1.286 . S
C77 H72 0.930 . S
C77 C78 1.397 . S
C77 C79 1.368 . S
C78 C77 1.397 . S
C78 C82 1.390 . S
C79 C77 1.368 . S
C79 C80 1.387 1_556 S
C79 N83 1.412 1_556 S
C80 H73 0.930 . S
C80 C79 1.387 1_554 S
C80 C81 1.399 . S
C81 C80 1.399 . S
C81 C82 1.381 1_554 S
C82 H74 0.930 . S
C82 C78 1.390 . S
C82 C81 1.381 1_556 S
N83 C76 1.286 . S
N83 C79 1.412 1_554 S
H84 C89 0.930 . S
H85 C92 0.930 . S
H86 C94 0.930 . S
H87 C88 1.016 . S
C88 H87 1.016 . S
C88 N95 1.286 . S
C89 H84 0.930 . S
C89 C90 1.397 . S
C89 C91 1.361 1_556 S
C90 C89 1.397 . S
C90 C94 1.390 . S
C91 C89 1.361 1_554 S
C91 C92 1.393 . S
C91 N95 1.413 . S
C92 H85 0.930 . S
C92 C91 1.393 . S
C92 C93 1.399 . S
C93 C92 1.399 . S
C93 C94 1.381 1_554 S
C94 H86 0.930 . S
C94 C90 1.390 . S
C94 C93 1.381 1_556 S
N95 C88 1.286 . S
N95 C91 1.413 . S
Gd96 N127 2.643 1_545 S
Gd96 N133 2.601 . S
Gd96 O140 2.545 . S
Gd96 O141 2.606 1_655 S
Gd96 O143 2.429 . S
Gd96 O144 2.545 1_655 S
Gd96 O145 2.412 . S
Gd96 O147 2.362 1_545 S
Gd96 O148 2.324 1_655 S
Gd96 C155 2.828 . S
Gd97 N106 2.661 1_565 S
Gd97 N110 2.601 1_565 S
Gd97 O141 2.362 1_565 S
Gd97 O142 2.324 1_455 S
Gd97 O146 2.545 . S
Gd97 O147 2.606 1_455 S
Gd97 O149 2.429 . S
Gd97 O150 2.545 . S
Gd97 O151 2.412 . S
Gd97 C164 2.828 . S
C98 C101 1.417 1_554 S
C98 C103 1.431 . S
C98 C104 1.412 . S
C99 C102 1.437 1_554 S
C99 C103 1.317 . S
C99 H118 0.929 . S
C100 C101 1.426 . S
C100 C102 1.413 . S
C100 N110 1.359 . S
C101 C98 1.417 1_556 S
C101 C100 1.426 . S
C101 N106 1.350 . S
C102 C99 1.437 1_556 S
C102 C100 1.413 . S
C102 C112 1.391 . S
C103 C98 1.431 . S
C103 C99 1.317 . S
C103 H114 0.930 . S
C104 C98 1.412 . S
C104 C105 1.355 . S
C104 H116 0.930 . S
C105 C104 1.355 . S
C105 C107 1.402 1_554 S
C105 H117 0.930 1_455 S
N106 Gd97 2.661 1_545 S
N106 C101 1.350 . S
N106 C107 1.307 . S
C107 C105 1.402 1_556 S
C107 N106 1.307 . S
C107 H108 0.930 1_455 S
H108 C107 0.930 1_655 S
C109 N110 1.334 1_565 S
C109 C111 1.394 . S
C109 H113 0.930 . S
N110 Gd97 2.601 1_545 S
N110 C100 1.359 . S
N110 C109 1.334 1_545 S
C111 C109 1.394 . S
C111 C112 1.359 1_565 S
C111 H123 0.930 . S
C112 C102 1.391 . S
C112 C111 1.359 1_545 S
C112 H124 0.929 . S
H113 C109 0.930 . S
H114 C103 0.930 . S
H115 C132 0.930 . S
H116 C104 0.930 . S
H117 C105 0.930 1_655 S
H118 C99 0.929 . S
H119 C137 0.930 . S
H120 C128 0.930 . S
H121 C129 0.930 . S
H122 C153 0.929 . S
H123 C111 0.930 . S
H124 C112 0.929 . S
H125 C154 0.930 . S
H126 C135 0.930 . S
N127 Gd96 2.643 1_565 S
N127 C131 1.358 . S
N127 C132 1.320 1_655 S
C128 H120 0.930 . S
C128 C129 1.355 1_655 S
C128 C130 1.412 . S
C129 H121 0.930 . S
C129 C128 1.355 1_455 S
C129 C132 1.402 . S
C130 C128 1.412 . S
C130 C131 1.417 . S
C130 C154 1.431 . S
C131 N127 1.358 . S
C131 C130 1.417 . S
C131 C134 1.426 1_565 S
C132 H115 0.930 . S
C132 N127 1.320 1_455 S
C132 C129 1.402 . S
N133 Gd96 2.601 . S
N133 C134 1.359 . S
N133 C137 1.334 . S
C134 C131 1.426 1_545 S
C134 N133 1.359 . S
C134 C138 1.408 1_545 S
C135 H126 0.930 . S
C135 C136 1.359 . S
C135 C137 1.394 . S
C136 C135 1.359 . S
C136 C138 1.378 1_545 S
C136 H139 0.929 . S
C137 H119 0.930 . S
C137 N133 1.334 . S
C137 C135 1.394 . S
C138 C134 1.408 1_565 S
C138 C136 1.378 1_565 S
C138 C153 1.456 . S
H139 C136 0.929 . S
O140 Gd96 2.545 . S
O140 C155 1.258 . S
O141 Gd96 2.606 1_455 S
O141 Gd97 2.362 1_545 S
O141 C152 1.284 . S
O142 Gd97 2.324 1_655 S
O142 C162 1.254 1_565 S
O143 Gd96 2.429 . S
O143 C162 1.268 . S
O144 Gd96 2.545 1_455 S
O144 C152 1.250 . S
O145 Gd96 2.412 . S
O145 C155 1.252 . S
O146 Gd97 2.545 . S
O146 C164 1.258 . S
O147 Gd96 2.362 1_565 S
O147 Gd97 2.606 1_655 S
O147 C163 1.284 . S
O148 Gd96 2.324 1_455 S
O148 C171 1.254 . S
O149 Gd97 2.429 . S
O149 C171 1.268 1_565 S
O150 Gd97 2.545 . S
O150 C163 1.250 1_455 S
O151 Gd97 2.412 . S
O151 C164 1.252 . S
C152 O141 1.284 . S
C152 O144 1.250 . S
C153 H122 0.929 . S
C153 C138 1.456 . S
C153 C154 1.317 . S
C154 H125 0.930 . S
C154 C130 1.431 . S
C154 C153 1.317 . S
C155 Gd96 2.828 . S
C155 O140 1.258 . S
C155 O145 1.252 . S
C155 C156 1.497 . S
C156 C155 1.497 . S
C156 C157 1.395 . S
C156 C158 1.380 . S
C157 C156 1.395 . S
C157 C160 1.398 . S
C157 H172 0.930 . S
C158 C156 1.380 . S
C158 C159 1.391 . S
C158 H173 0.930 1_655 S
C159 C158 1.391 . S
C159 C161 1.387 . S
C160 C157 1.398 . S
C160 C161 1.380 . S
C160 H174 0.930 . S
C161 C159 1.387 . S
C161 C160 1.380 . S
C161 H175 0.930 . S
C162 O142 1.254 1_545 S
C162 O143 1.268 . S
C163 O147 1.284 . S
C163 O150 1.250 1_655 S
C164 Gd97 2.828 . S
C164 O146 1.258 . S
C164 O151 1.252 . S
C164 C165 1.497 . S
C165 C164 1.497 . S
C165 C166 1.395 . S
C165 C167 1.380 . S
C166 C165 1.395 . S
C166 C169 1.398 . S
C166 H176 0.930 . S
C167 C165 1.380 . S
C167 C168 1.391 . S
C167 H177 0.952 . S
C168 C167 1.391 . S
C168 C170 1.387 1_556 S
C169 C166 1.398 . S
C169 C170 1.380 1_556 S
C169 H178 0.930 . S
C170 C168 1.387 1_554 S
C170 C169 1.380 1_554 S
C170 H179 0.930 . S
C171 O148 1.254 . S
C171 O149 1.268 1_545 S
H172 C157 0.930 . S
H173 C158 0.930 1_455 S
H174 C160 0.930 . S
H175 C161 0.930 . S
H176 C166 0.930 . S
H177 C167 0.952 . S
H178 C169 0.930 . S
H179 C170 0.930 . S
Gd180 N211 2.661 . S
Gd180 N217 2.601 . S
Gd180 O224 2.545 . S
Gd180 O225 2.606 1_565 S
Gd180 O227 2.429 . S
Gd180 O228 2.545 1_565 S
Gd180 O229 2.412 . S
Gd180 O231 2.362 . S
Gd180 O232 2.324 1_565 S
Gd180 C239 2.828 . S
Gd181 N190 2.661 . S
Gd181 N194 2.601 . S
Gd181 O225 2.362 . S
Gd181 O226 2.324 1_545 S
Gd181 O230 2.545 . S
Gd181 O231 2.606 1_545 S
Gd181 O233 2.429 . S
Gd181 O234 2.545 . S
Gd181 O235 2.412 . S
Gd181 C248 2.828 . S
C182 C185 1.417 1_554 S
C182 C187 1.431 . S
C182 C188 1.412 . S
C183 C186 1.437 1_554 S
C183 C187 1.317 . S
C183 H202 0.929 . S
C184 C185 1.426 . S
C184 C186 1.413 . S
C184 N194 1.359 . S
C185 C182 1.417 1_556 S
C185 C184 1.426 . S
C185 N190 1.350 . S
C186 C183 1.437 1_556 S
C186 C184 1.413 . S
C186 C196 1.391 . S
C187 C182 1.431 . S
C187 C183 1.317 . S
C187 H198 0.930 . S
C188 C182 1.412 . S
C188 C189 1.355 . S
C188 H200 0.930 . S
C189 C188 1.355 . S
C189 C191 1.402 1_554 S
C189 H201 0.930 1_545 S
N190 Gd181 2.661 . S
N190 C185 1.350 . S
N190 C191 1.307 . S
C191 C189 1.402 1_556 S
C191 N190 1.307 . S
C191 H192 0.930 1_545 S
H192 C191 0.930 1_565 S
C193 N194 1.334 . S
C193 C195 1.394 . S
C193 H197 0.930 . S
N194 Gd181 2.601 . S
N194 C184 1.359 . S
N194 C193 1.334 . S
C195 C193 1.394 . S
C195 C196 1.359 . S
C195 H207 0.930 . S
C196 C186 1.391 . S
C196 C195 1.359 . S
C196 H208 0.929 . S
H197 C193 0.930 . S
H198 C187 0.930 . S
H199 C216 0.930 . S
H200 C188 0.930 . S
H201 C189 0.930 1_565 S
H202 C183 0.929 . S
H203 C221 0.930 . S
H204 C212 0.930 . S
H205 C213 0.930 . S
H206 C237 0.929 . S
H207 C195 0.930 . S
H208 C196 0.929 . S
H209 C238 0.930 . S
H210 C219 0.930 . S
N211 Gd180 2.661 . S
N211 C215 1.350 . S
N211 C216 1.307 1_565 S
C212 H204 0.930 . S
C212 C213 1.355 1_565 S
C212 C214 1.412 . S
C213 H205 0.930 . S
C213 C212 1.355 1_545 S
C213 C216 1.402 . S
C214 C212 1.412 . S
C214 C215 1.417 . S
C214 C238 1.431 . S
C215 N211 1.350 . S
C215 C214 1.417 . S
C215 C218 1.426 . S
C216 H199 0.930 . S
C216 N211 1.307 1_545 S
C216 C213 1.402 . S
N217 Gd180 2.601 . S
N217 C218 1.359 . S
N217 C221 1.334 . S
C218 C215 1.426 . S
C218 N217 1.359 . S
C218 C222 1.413 . S
C219 H210 0.930 . S
C219 C220 1.359 . S
C219 C221 1.394 . S
C220 C219 1.359 . S
C220 C222 1.391 . S
C220 H223 0.929 . S
C221 H203 0.930 . S
C221 N217 1.334 . S
C221 C219 1.394 . S
C222 C218 1.413 . S
C222 C220 1.391 . S
C222 C237 1.437 . S
H223 C220 0.929 . S
O224 Gd180 2.545 . S
O224 C239 1.258 . S
O225 Gd180 2.606 1_545 S
O225 Gd181 2.362 . S
O225 C236 1.284 . S
O226 Gd181 2.324 1_565 S
O226 C246 1.254 . S
O227 Gd180 2.429 . S
O227 C246 1.268 . S
O228 Gd180 2.545 1_545 S
O228 C236 1.250 . S
O229 Gd180 2.412 . S
O229 C239 1.252 . S
O230 Gd181 2.545 . S
O230 C248 1.258 . S
O231 Gd180 2.362 . S
O231 Gd181 2.606 1_565 S
O231 C247 1.284 . S
O232 Gd180 2.324 1_545 S
O232 C255 1.254 . S
O233 Gd181 2.429 . S
O233 C255 1.268 . S
O234 Gd181 2.545 . S
O234 C247 1.250 1_545 S
O235 Gd181 2.412 . S
O235 C248 1.252 . S
C236 O225 1.284 . S
C236 O228 1.250 . S
C237 H206 0.929 . S
C237 C222 1.437 . S
C237 C238 1.317 . S
C238 H209 0.930 . S
C238 C214 1.431 . S
C238 C237 1.317 . S
C239 Gd180 2.828 . S
C239 O224 1.258 . S
C239 O229 1.252 . S
C239 C240 1.497 . S
C240 C239 1.497 . S
C240 C241 1.395 . S
C240 C242 1.380 . S
C241 C240 1.395 . S
C241 C244 1.398 . S
C241 H256 0.930 . S
C242 C240 1.380 . S
C242 C243 1.391 . S
C242 H257 0.930 1_565 S
C243 C242 1.391 . S
C243 C245 1.387 . S
C244 C241 1.398 . S
C244 C245 1.380 . S
C244 H258 0.930 . S
C245 C243 1.387 . S
C245 C244 1.380 . S
C245 H259 0.930 . S
C246 O226 1.254 . S
C246 O227 1.268 . S
C247 O231 1.284 . S
C247 O234 1.250 1_565 S
C248 Gd181 2.828 . S
C248 O230 1.258 . S
C248 O235 1.252 . S
C248 C249 1.497 . S
C249 C248 1.497 . S
C249 C250 1.395 . S
C249 C251 1.380 . S
C250 C249 1.395 . S
C250 C253 1.398 . S
C250 H260 0.930 . S
C251 C249 1.380 . S
C251 C252 1.391 . S
C251 H261 0.930 . S
C252 C251 1.391 . S
C252 C254 1.387 1_556 S
C253 C250 1.398 . S
C253 C254 1.380 1_556 S
C253 H262 0.930 . S
C254 C252 1.387 1_554 S
C254 C253 1.380 1_554 S
C254 H263 0.930 . S
C255 O232 1.254 . S
C255 O233 1.268 . S
H256 C241 0.930 . S
H257 C242 0.930 1_545 S
H258 C244 0.930 . S
H259 C245 0.930 . S
H260 C250 0.930 . S
H261 C251 0.930 . S
H262 C253 0.930 . S
H263 C254 0.930 . S
Gd264 N295 2.661 . S
Gd264 N301 2.601 . S
Gd264 O308 2.545 . S
Gd264 O309 2.606 . S
Gd264 O311 2.429 . S
Gd264 O312 2.545 . S
Gd264 O313 2.412 . S
Gd264 O315 2.362 . S
Gd264 O316 2.324 . S
Gd264 C323 2.828 . S
Gd265 N274 2.661 . S
Gd265 N278 2.601 . S
Gd265 O309 2.362 . S
Gd265 O310 2.324 . S
Gd265 O314 2.545 . S
Gd265 O315 2.606 . S
Gd265 O317 2.429 . S
Gd265 O318 2.545 . S
Gd265 O319 2.412 . S
Gd265 C332 2.828 . S
C266 C269 1.417 . S
C266 C271 1.431 . S
C266 C272 1.412 . S
C267 C270 1.437 . S
C267 C271 1.317 . S
C267 H286 0.929 . S
C268 C269 1.426 . S
C268 C270 1.413 . S
C268 N278 1.359 . S
C269 C266 1.417 . S
C269 C268 1.426 . S
C269 N274 1.350 . S
C270 C267 1.437 . S
C270 C268 1.413 . S
C270 C280 1.391 . S
C271 C266 1.431 . S
C271 C267 1.317 . S
C271 H282 0.930 . S
C272 C266 1.412 . S
C272 C273 1.355 . S
C272 H284 0.930 . S
C273 C272 1.355 . S
C273 C275 1.402 . S
C273 H285 0.930 . S
N274 Gd265 2.661 . S
N274 C269 1.350 . S
N274 C275 1.307 . S
C275 C273 1.402 . S
C275 N274 1.307 . S
C275 H276 0.930 . S
H276 C275 0.930 . S
C277 N278 1.334 . S
C277 C279 1.394 . S
C277 H281 0.930 . S
N278 Gd265 2.601 . S
N278 C268 1.359 . S
N278 C277 1.334 . S
C279 C277 1.394 . S
C279 C280 1.359 . S
C279 H291 0.930 . S
C280 C270 1.391 . S
C280 C279 1.359 . S
C280 H292 0.929 . S
H281 C277 0.930 . S
H282 C271 0.930 . S
H283 C300 0.930 . S
H284 C272 0.930 . S
H285 C273 0.930 . S
H286 C267 0.929 . S
H287 C305 0.930 . S
H288 C296 0.930 . S
H289 C297 0.930 . S
H290 C321 0.929 . S
H291 C279 0.930 . S
H292 C280 0.929 . S
H293 C322 0.930 . S
H294 C303 0.930 . S
N295 Gd264 2.661 . S
N295 C299 1.350 . S
N295 C300 1.307 . S
C296 H288 0.930 . S
C296 C297 1.355 . S
C296 C298 1.412 . S
C297 H289 0.930 . S
C297 C296 1.355 . S
C297 C300 1.402 . S
C298 C296 1.412 . S
C298 C299 1.417 . S
C298 C322 1.431 . S
C299 N295 1.350 . S
C299 C298 1.417 . S
C299 C302 1.426 . S
C300 H283 0.930 . S
C300 N295 1.307 . S
C300 C297 1.402 . S
N301 Gd264 2.601 . S
N301 C302 1.359 . S
N301 C305 1.334 . S
C302 C299 1.426 . S
C302 N301 1.359 . S
C302 C306 1.413 . S
C303 H294 0.930 . S
C303 C304 1.359 . S
C303 C305 1.394 . S
C304 C303 1.359 . S
C304 C306 1.391 . S
C304 H307 0.929 . S
C305 H287 0.930 . S
C305 N301 1.334 . S
C305 C303 1.394 . S
C306 C302 1.413 . S
C306 C304 1.391 . S
C306 C321 1.437 . S
H307 C304 0.929 . S
O308 Gd264 2.545 . S
O308 C323 1.258 . S
O309 Gd264 2.606 . S
O309 Gd265 2.362 . S
O309 C320 1.284 . S
O310 Gd265 2.324 . S
O310 C330 1.254 . S
O311 Gd264 2.429 . S
O311 C330 1.268 . S
O312 Gd264 2.545 . S
O312 C320 1.250 . S
O313 Gd264 2.412 . S
O313 C323 1.252 . S
O314 Gd265 2.545 . S
O314 C332 1.258 . S
O315 Gd264 2.362 . S
O315 Gd265 2.606 . S
O315 C331 1.284 . S
O316 Gd264 2.324 . S
O316 C339 1.254 . S
O317 Gd265 2.429 . S
O317 C339 1.268 . S
O318 Gd265 2.545 . S
O318 C331 1.250 . S
O319 Gd265 2.412 . S
O319 C332 1.252 . S
C320 O309 1.284 . S
C320 O312 1.250 . S
C321 H290 0.929 . S
C321 C306 1.437 . S
C321 C322 1.317 . S
C322 H293 0.930 . S
C322 C298 1.431 . S
C322 C321 1.317 . S
C323 Gd264 2.828 . S
C323 O308 1.258 . S
C323 O313 1.252 . S
C323 C324 1.497 . S
C324 C323 1.497 . S
C324 C325 1.395 1_556 S
C324 C326 1.380 . S
C325 C324 1.395 1_554 S
C325 C328 1.398 . S
C325 H340 0.930 . S
C326 C324 1.380 . S
C326 C327 1.391 1_556 S
C326 H341 0.930 . S
C327 C326 1.391 1_554 S
C327 C329 1.387 . S
C328 C325 1.398 . S
C328 C329 1.380 . S
C328 H342 0.930 . S
C329 C327 1.387 . S
C329 C328 1.380 . S
C329 H343 0.930 . S
C330 O310 1.254 . S
C330 O311 1.268 . S
C331 O315 1.284 . S
C331 O318 1.250 . S
C332 Gd265 2.828 . S
C332 O314 1.258 . S
C332 O319 1.252 . S
C332 C333 1.497 . S
C333 C332 1.497 . S
C333 C334 1.395 . S
C333 C335 1.380 . S
C334 C333 1.395 . S
C334 C337 1.398 . S
C334 H344 0.930 . S
C335 C333 1.380 . S
C335 C336 1.391 . S
C335 H345 0.930 . S
C336 C335 1.391 . S
C336 C338 1.387 . S
C337 C334 1.398 . S
C337 C338 1.380 . S
C337 H346 0.930 . S
C338 C336 1.387 . S
C338 C337 1.380 . S
C338 H347 0.930 . S
C339 O316 1.254 . S
C339 O317 1.268 . S
H340 C325 0.930 . S
H341 C326 0.930 . S
H342 C328 0.930 . S
H343 C329 0.930 . S
H344 C334 0.930 . S
H345 C335 0.930 . S
H346 C337 0.930 . S
H347 C338 0.930 . S
Gd348 N379 2.661 . S
Gd348 N385 2.601 . S
Gd348 O392 2.545 . S
Gd348 O393 2.606 1_655 S
Gd348 O395 2.429 1_655 S
Gd348 O396 2.545 . S
Gd348 O397 2.412 . S
Gd348 O399 2.362 1_655 S
Gd348 O400 2.324 . S
Gd348 C407 2.828 . S
Gd349 N358 2.661 . S
Gd349 N362 2.601 . S
Gd349 O393 2.362 . S
Gd349 O394 2.324 . S
Gd349 O398 2.545 . S
Gd349 O399 2.606 . S
Gd349 O401 2.429 1_455 S
Gd349 O402 2.545 . S
Gd349 O403 2.412 . S
Gd349 C416 2.828 . S
C350 C353 1.417 . S
C350 C355 1.431 . S
C350 C356 1.412 . S
C351 C354 1.437 . S
C351 C355 1.317 . S
C351 H370 0.929 . S
C352 C353 1.426 . S
C352 C354 1.413 . S
C352 N362 1.359 . S
C353 C350 1.417 . S
C353 C352 1.426 . S
C353 N358 1.350 . S
C354 C351 1.437 . S
C354 C352 1.413 . S
C354 C364 1.391 . S
C355 C350 1.431 . S
C355 C351 1.317 . S
C355 H366 0.930 . S
C356 C350 1.412 . S
C356 C357 1.355 . S
C356 H368 0.930 . S
C357 C356 1.355 . S
C357 C359 1.402 . S
C357 H369 0.930 . S
N358 Gd349 2.661 . S
N358 C353 1.350 . S
N358 C359 1.307 . S
C359 C357 1.402 . S
C359 N358 1.307 . S
C359 H360 0.930 . S
H360 C359 0.930 . S
C361 N362 1.339 . S
C361 C363 1.393 1_455 S
C361 H365 0.926 1_455 S
N362 Gd349 2.601 . S
N362 C352 1.359 . S
N362 C361 1.339 . S
C363 C361 1.393 1_655 S
C363 C364 1.359 1_655 S
C363 H375 0.930 . S
C364 C354 1.391 . S
C364 C363 1.359 1_455 S
C364 H376 0.929 . S
H365 C361 0.926 1_655 S
H366 C355 0.930 . S
H367 C384 0.930 . S
H368 C356 0.930 . S
H369 C357 0.930 . S
H370 C351 0.929 . S
H371 C389 0.930 . S
H372 C380 0.930 . S
H373 C381 0.930 . S
H374 C405 0.929 . S
H375 C363 0.930 . S
H376 C364 0.929 . S
H377 C406 0.930 . S
H378 C387 0.930 . S
N379 Gd348 2.661 . S
N379 C383 1.350 . S
N379 C384 1.307 . S
C380 H372 0.930 . S
C380 C381 1.355 . S
C380 C382 1.412 . S
C381 H373 0.930 . S
C381 C380 1.355 . S
C381 C384 1.402 . S
C382 C380 1.412 . S
C382 C383 1.417 . S
C382 C406 1.431 . S
C383 N379 1.350 . S
C383 C382 1.417 . S
C383 C386 1.426 . S
C384 H367 0.930 . S
C384 N379 1.307 . S
C384 C381 1.402 . S
N385 Gd348 2.601 . S
N385 C386 1.359 . S
N385 C389 1.334 1_655 S
C386 C383 1.426 . S
C386 N385 1.359 . S
C386 C390 1.413 . S
C387 H378 0.930 . S
C387 C388 1.359 . S
C387 C389 1.394 . S
C388 C387 1.359 . S
C388 C390 1.391 1_455 S
C388 H391 0.929 . S
C389 H371 0.930 . S
C389 N385 1.334 1_455 S
C389 C387 1.394 . S
C390 C386 1.413 . S
C390 C388 1.391 1_655 S
C390 C405 1.437 . S
H391 C388 0.929 . S
O392 Gd348 2.545 . S
O392 C407 1.258 . S
O393 Gd348 2.606 1_455 S
O393 Gd349 2.362 . S
O393 C404 1.284 1_455 S
O394 Gd349 2.324 . S
O394 C414 1.254 . S
O395 Gd348 2.429 1_455 S
O395 C414 1.268 . S
O396 Gd348 2.545 . S
O396 C404 1.250 . S
O397 Gd348 2.412 . S
O397 C407 1.252 . S
O398 Gd349 2.545 . S
O398 C416 1.258 . S
O399 Gd348 2.362 1_455 S
O399 Gd349 2.606 . S
O399 C415 1.284 . S
O400 Gd348 2.324 . S
O400 C423 1.254 . S
O401 Gd349 2.429 1_655 S
O401 C423 1.268 . S
O402 Gd349 2.545 . S
O402 C415 1.250 . S
O403 Gd349 2.412 . S
O403 C416 1.252 . S
C404 O393 1.284 1_655 S
C404 O396 1.250 . S
C405 H374 0.929 . S
C405 C390 1.437 . S
C405 C406 1.317 . S
C406 H377 0.930 . S
C406 C382 1.431 . S
C406 C405 1.317 . S
C407 Gd348 2.828 . S
C407 O392 1.258 . S
C407 O397 1.252 . S
C407 C408 1.497 . S
C408 C407 1.497 . S
C408 C409 1.395 1_556 S
C408 C410 1.380 . S
C409 C408 1.395 1_554 S
C409 C412 1.398 . S
C409 H424 0.930 . S
C410 C408 1.380 . S
C410 C411 1.391 1_556 S
C410 H425 0.930 . S
C411 C410 1.391 1_554 S
C411 C413 1.387 . S
C412 C409 1.398 . S
C412 C413 1.380 . S
C412 H426 0.930 . S
C413 C411 1.387 . S
C413 C412 1.380 . S
C413 H427 0.930 . S
C414 O394 1.254 . S
C414 O395 1.268 . S
C415 O399 1.284 . S
C415 O402 1.250 . S
C416 Gd349 2.828 . S
C416 O398 1.258 . S
C416 O403 1.252 . S
C416 C417 1.497 . S
C417 C416 1.497 . S
C417 C418 1.395 . S
C417 C419 1.380 . S
C418 C417 1.395 . S
C418 C421 1.398 . S
C418 H428 0.930 . S
C419 C417 1.380 . S
C419 C420 1.391 . S
C419 H429 0.930 . S
C420 C419 1.391 . S
C420 C422 1.387 . S
C421 C418 1.398 . S
C421 C422 1.380 . S
C421 H430 0.930 . S
C422 C420 1.387 . S
C422 C421 1.380 . S
C422 H431 0.930 . S
C423 O400 1.254 . S
C423 O401 1.268 . S
H424 C409 0.930 . S
H425 C410 0.930 . S
H426 C412 0.930 . S
H427 C413 0.930 . S
H428 C418 0.930 . S
H429 C419 0.930 . S
H430 C421 0.930 . S
H431 C422 0.930 . S
H432 C438 0.930 . S
H433 C442 0.930 1_565 S
H434 C447 0.929 . S
H435 C445 0.929 . S
H436 C440 0.929 1_565 S
H437 C446 0.929 . S
C438 H432 0.930 . S
C438 C439 1.367 . S
C438 C446 1.378 . S
C439 C438 1.367 . S
C439 C447 1.433 . S
C440 H436 0.929 1_545 S
C440 C442 1.378 . S
C440 C444 1.350 . S
C441 C444 1.463 . S
C441 C446 1.350 . S
C441 N449 1.427 . S
C442 H433 0.930 1_545 S
C442 C440 1.378 . S
C442 C443 1.367 . S
C443 C442 1.367 . S
C443 C445 1.433 . S
C444 C440 1.350 . S
C444 C441 1.463 . S
C444 N448 1.427 . S
C445 H435 0.929 . S
C445 C443 1.433 . S
C445 N448 1.384 . S
C446 H437 0.929 . S
C446 C438 1.378 . S
C446 C441 1.350 . S
C447 H434 0.929 . S
C447 C439 1.433 . S
C447 N449 1.384 . S
N448 C444 1.427 . S
N448 C445 1.384 . S
N449 C441 1.427 . S
N449 C447 1.384 . S
H450 C456 0.930 . S
H451 C460 0.930 . S
H452 C465 0.929 . S
H453 C463 0.929 . S
H454 C458 0.929 . S
H455 C464 0.929 . S
C456 H450 0.930 . S
C456 C457 1.367 . S
C456 C464 1.378 . S
C457 C456 1.367 . S
C457 C465 1.433 . S
C458 H454 0.929 . S
C458 C460 1.378 . S
C458 C462 1.350 . S
C459 C462 1.463 . S
C459 C464 1.350 . S
C459 N467 1.427 . S
C460 H451 0.930 . S
C460 C458 1.378 . S
C460 C461 1.367 . S
C461 C460 1.367 . S
C461 C463 1.433 . S
C462 C458 1.350 . S
C462 C459 1.463 . S
C462 N466 1.427 . S
C463 H453 0.929 . S
C463 C461 1.433 . S
C463 N466 1.384 . S
C464 H455 0.929 . S
C464 C456 1.378 . S
C464 C459 1.350 . S
C465 H452 0.929 . S
C465 C457 1.433 . S
C465 N467 1.384 . S
N466 C462 1.427 . S
N466 C463 1.384 . S
N467 C459 1.427 . S
N467 C465 1.384 . S
H468 C474 0.930 . S
H469 C478 0.930 . S
H470 C483 0.929 . S
H471 C481 0.929 . S
H472 C476 0.929 . S
H473 C482 0.929 . S
C474 H468 0.930 . S
C474 C475 1.367 . S
C474 C482 1.378 . S
C475 C474 1.367 . S
C475 C483 1.433 . S
C476 H472 0.929 . S
C476 C478 1.378 . S
C476 C480 1.350 . S
C477 C480 1.463 . S
C477 C482 1.350 . S
C477 N485 1.427 . S
C478 H469 0.930 . S
C478 C476 1.378 . S
C478 C479 1.367 . S
C479 C478 1.367 . S
C479 C481 1.433 . S
C480 C476 1.350 . S
C480 C477 1.463 . S
C480 N484 1.427 . S
C481 H471 0.929 . S
C481 C479 1.433 . S
C481 N484 1.384 . S
C482 H473 0.929 . S
C482 C474 1.378 . S
C482 C477 1.350 . S
C483 H470 0.929 . S
C483 C475 1.433 . S
C483 N485 1.384 . S
N484 C480 1.427 . S
N484 C481 1.384 . S
N485 C477 1.427 . S
N485 C483 1.384 . S
H486 C492 0.930 . S
H487 C496 0.930 . S
H488 C501 0.929 . S
H489 C499 0.929 1_655 S
H490 C494 0.929 . S
H491 C500 0.929 . S
C492 H486 0.930 . S
C492 C493 1.367 . S
C492 C500 1.378 . S
C493 C492 1.367 . S
C493 C501 1.433 . S
C494 H490 0.929 . S
C494 C496 1.378 . S
C494 C498 1.350 . S
C495 C498 1.463 . S
C495 C500 1.350 . S
C495 N503 1.427 . S
C496 H487 0.930 . S
C496 C494 1.378 . S
C496 C497 1.367 . S
C497 C496 1.367 . S
C497 C499 1.433 . S
C498 C494 1.350 . S
C498 C495 1.463 . S
C498 N502 1.427 . S
C499 H489 0.929 1_455 S
C499 C497 1.433 . S
C499 N502 1.384 . S
C500 H491 0.929 . S
C500 C492 1.378 . S
C500 C495 1.350 . S
C501 H488 0.929 . S
C501 C493 1.433 . S
C501 N503 1.384 . S
N502 C498 1.427 . S
N502 C499 1.384 . S
N503 C495 1.427 . S
N503 C501 1.384 . S
H504 C510 0.946 . S
H505 C514 0.930 . S
H506 C519 0.929 . S
H507 C517 0.929 . S
H508 C512 0.929 . S
H509 C518 0.929 1_545 S
C510 H504 0.946 . S
C510 C511 1.367 . S
C510 C518 1.378 . S
C511 C510 1.367 . S
C511 C519 1.433 . S
C512 H508 0.929 . S
C512 C514 1.378 . S
C512 C516 1.350 . S
C513 C516 1.463 1_554 S
C513 C518 1.350 . S
C513 N521 1.427 . S
C514 H505 0.930 . S
C514 C512 1.378 . S
C514 C515 1.367 . S
C515 C514 1.367 . S
C515 C517 1.433 1_565 S
C516 C512 1.350 . S
C516 C513 1.463 1_556 S
C516 N520 1.427 1_565 S
C517 H507 0.929 . S
C517 C515 1.433 1_545 S
C517 N520 1.384 . S
C518 H509 0.929 1_565 S
C518 C510 1.378 . S
C518 C513 1.350 . S
C519 H506 0.929 . S
C519 C511 1.433 . S
C519 N521 1.384 . S
N520 C516 1.427 1_545 S
N520 C517 1.384 . S
N521 C513 1.427 . S
N521 C519 1.384 . S
H522 C528 0.930 . S
H523 C532 0.930 . S
H524 C537 0.929 . S
H525 C535 0.929 . S
H526 C530 0.929 . S
H527 C536 0.929 . S
C528 H522 0.930 . S
C528 C529 1.367 . S
C528 C536 1.378 . S
C529 C528 1.367 . S
C529 C537 1.433 . S
C530 H526 0.929 . S
C530 C532 1.378 . S
C530 C534 1.350 . S
C531 C534 1.463 1_554 S
C531 C536 1.350 . S
C531 N539 1.427 . S
C532 H523 0.930 . S
C532 C530 1.378 . S
C532 C533 1.367 . S
C533 C532 1.367 . S
C533 C535 1.433 . S
C534 C530 1.350 . S
C534 C531 1.463 1_556 S
C534 N538 1.427 . S
C535 H525 0.929 . S
C535 C533 1.433 . S
C535 N538 1.384 . S
C536 H527 0.929 . S
C536 C528 1.378 . S
C536 C531 1.350 . S
C537 H524 0.929 . S
C537 C529 1.433 . S
C537 N539 1.384 . S
N538 C534 1.427 . S
N538 C535 1.384 . S
N539 C531 1.427 . S
N539 C537 1.384 . S
H540 C546 0.930 . S
H541 C550 0.930 . S
H542 C555 0.929 . S
H543 C553 0.929 . S
H544 C548 0.929 1_554 S
H545 C554 0.929 1_556 S
C546 H540 0.930 . S
C546 C547 1.367 . S
C546 C554 1.378 . S
C547 C546 1.367 . S
C547 C555 1.433 . S
C548 H544 0.929 1_556 S
C548 C550 1.378 . S
C548 C552 1.350 . S
C549 C552 1.463 1_554 S
C549 C554 1.350 . S
C549 N557 1.427 . S
C550 H541 0.930 . S
C550 C548 1.378 . S
C550 C551 1.367 . S
C551 C550 1.367 . S
C551 C553 1.433 . S
C552 C548 1.350 . S
C552 C549 1.463 1_556 S
C552 N556 1.427 . S
C553 H543 0.929 . S
C553 C551 1.433 . S
C553 N556 1.384 . S
C554 H545 0.929 1_554 S
C554 C546 1.378 . S
C554 C549 1.350 . S
C555 H542 0.929 . S
C555 C547 1.433 . S
C555 N557 1.384 . S
N556 C552 1.427 . S
N556 C553 1.384 . S
N557 C549 1.427 . S
N557 C555 1.384 . S
H558 C564 0.930 . S
H559 C568 0.929 1_455 S
H560 C573 0.929 . S
H561 C571 0.929 . S
H562 C566 0.929 1_455 S
H563 C572 0.929 . S
C564 H558 0.930 . S
C564 C565 1.367 . S
C564 C572 1.378 . S
C565 C564 1.367 . S
C565 C573 1.433 . S
C566 H562 0.929 1_655 S
C566 C568 1.378 . S
C566 C570 1.350 . S
C567 C570 1.463 1_554 S
C567 C572 1.350 . S
C567 N575 1.427 . S
C568 H559 0.929 1_655 S
C568 C566 1.378 . S
C568 C569 1.368 . S
C569 C568 1.368 . S
C569 C571 1.433 . S
C570 C566 1.350 . S
C570 C567 1.463 1_556 S
C570 N574 1.427 . S
C571 H561 0.929 . S
C571 C569 1.433 . S
C571 N574 1.384 . S
C572 H563 0.929 . S
C572 C564 1.378 . S
C572 C567 1.350 . S
C573 H560 0.929 . S
C573 C565 1.433 . S
C573 N575 1.384 . S
N574 C570 1.427 . S
N574 C571 1.384 . S
N575 C567 1.427 . S
N575 C573 1.384 . S
H576 C582 0.930 . S
H577 C586 0.930 . S
H578 C591 0.929 . S
H579 C589 0.929 . S
H580 C584 0.914 1_655 S
H581 C590 0.929 . S
C582 H576 0.930 . S
C582 C583 1.367 . S
C582 C590 1.378 . S
C583 C582 1.367 . S
C583 C591 1.433 . S
C584 H580 0.914 1_455 S
C584 C586 1.366 1_455 S
C584 C588 1.376 . S
C585 C588 1.463 . S
C585 C590 1.350 . S
C585 N593 1.427 . S
C586 H577 0.930 . S
C586 C584 1.366 1_655 S
C586 C587 1.367 1_655 S
C587 C586 1.367 1_455 S
C587 C589 1.433 . S
C588 C584 1.376 . S
C588 C585 1.463 . S
C588 N592 1.427 . S
C589 H579 0.929 . S
C589 C587 1.433 . S
C589 N592 1.384 . S
C590 H581 0.929 . S
C590 C582 1.378 . S
C590 C585 1.350 . S
C591 H578 0.929 . S
C591 C583 1.433 . S
C591 N593 1.384 . S
N592 C588 1.427 . S
N592 C589 1.384 . S
N593 C585 1.427 . S
N593 C591 1.384 . S
H594 C600 0.930 . S
H595 C604 0.930 1_565 S
H596 C609 0.929 1_556 S
H597 C607 0.929 . S
H598 C602 0.929 . S
H599 C608 0.929 . S
C600 H594 0.930 . S
C600 C601 1.367 . S
C600 C608 1.378 . S
C601 C600 1.367 . S
C601 C609 1.433 . S
C602 H598 0.929 . S
C602 C604 1.378 . S
C602 C606 1.350 . S
C603 C606 1.463 . S
C603 C608 1.350 . S
C603 N611 1.427 . S
C604 H595 0.930 1_545 S
C604 C602 1.378 . S
C604 C605 1.367 . S
C605 C604 1.367 . S
C605 C607 1.433 . S
C606 C602 1.350 . S
C606 C603 1.463 . S
C606 N610 1.427 . S
C607 H597 0.929 . S
C607 C605 1.433 . S
C607 N610 1.384 . S
C608 H599 0.929 . S
C608 C600 1.378 . S
C608 C603 1.350 . S
C609 H596 0.929 1_554 S
C609 C601 1.433 . S
C609 N611 1.384 . S
N610 C606 1.427 . S
N610 C607 1.384 . S
N611 C603 1.427 . S
N611 C609 1.384 . S
H612 C618 0.930 . S
H613 C622 0.930 . S
H614 C627 0.929 . S
H615 C625 0.929 . S
H616 C620 0.929 . S
H617 C626 0.929 . S
C618 H612 0.930 . S
C618 C619 1.367 . S
C618 C626 1.378 . S
C619 C618 1.367 . S
C619 C627 1.433 . S
C620 H616 0.929 . S
C620 C622 1.378 . S
C620 C624 1.350 . S
C621 C624 1.463 . S
C621 C626 1.350 . S
C621 N629 1.427 . S
C622 H613 0.930 . S
C622 C620 1.378 . S
C622 C623 1.367 . S
C623 C622 1.367 . S
C623 C625 1.433 . S
C624 C620 1.350 . S
C624 C621 1.463 . S
C624 N628 1.427 . S
C625 H615 0.929 . S
C625 C623 1.433 . S
C625 N628 1.384 . S
C626 H617 0.929 . S
C626 C618 1.378 . S
C626 C621 1.350 . S
C627 H614 0.929 . S
C627 C619 1.433 . S
C627 N629 1.384 . S
N628 C624 1.427 . S
N628 C625 1.384 . S
N629 C621 1.427 . S
N629 C627 1.384 . S
H630 C636 0.930 . S
H631 C640 0.930 . S
H632 C645 0.929 . S
H633 C643 0.929 . S
H634 C638 0.929 . S
H635 C644 0.929 . S
C636 H630 0.930 . S
C636 C637 1.367 . S
C636 C644 1.378 . S
C637 C636 1.367 . S
C637 C645 1.433 . S
C638 H634 0.929 . S
C638 C640 1.378 . S
C638 C642 1.350 . S
C639 C642 1.463 . S
C639 C644 1.350 . S
C639 N647 1.427 . S
C640 H631 0.930 . S
C640 C638 1.378 . S
C640 C641 1.367 . S
C641 C640 1.367 . S
C641 C643 1.433 . S
C642 C638 1.350 . S
C642 C639 1.463 . S
C642 N646 1.427 . S
C643 H633 0.929 . S
C643 C641 1.433 . S
C643 N646 1.384 . S
C644 H635 0.929 . S
C644 C636 1.378 . S
C644 C639 1.350 . S
C645 H632 0.929 . S
C645 C637 1.433 . S
C645 N647 1.384 . S
N646 C642 1.427 . S
N646 C643 1.384 . S
N647 C639 1.427 . S
N647 C645 1.384 . S
H648 C654 0.930 . S
H649 C658 0.930 . S
H650 C663 0.929 . S
H651 C661 0.929 . S
H652 C656 0.929 . S
H653 C662 0.929 . S
C654 H648 0.930 . S
C654 C655 1.367 . S
C654 C662 1.378 . S
C655 C654 1.367 . S
C655 C663 1.433 . S
C656 H652 0.929 . S
C656 C658 1.378 1_655 S
C656 C660 1.350 . S
C657 C660 1.463 . S
C657 C662 1.350 . S
C657 N665 1.427 . S
C658 H649 0.930 . S
C658 C656 1.378 1_455 S
C658 C659 1.367 1_554 S
C659 C658 1.367 1_556 S
C659 C661 1.433 . S
C660 C656 1.350 . S
C660 C657 1.463 . S
C660 N664 1.427 1_554 S
C661 H651 0.929 . S
C661 C659 1.433 . S
C661 N664 1.384 1_455 S
C662 H653 0.929 . S
C662 C654 1.378 . S
C662 C657 1.350 . S
C663 H650 0.929 . S
C663 C655 1.433 . S
C663 N665 1.384 . S
N664 C660 1.427 1_556 S
N664 C661 1.384 1_655 S
N665 C657 1.427 . S
N665 C663 1.384 . S
H666 C672 0.930 . S
H667 C676 0.930 1_556 S
H668 C681 0.929 . S
H669 C679 0.929 . S
H670 C674 0.929 . S
H671 C680 0.929 1_545 S
C672 H666 0.930 . S
C672 C673 1.367 . S
C672 C680 1.378 . S
C673 C672 1.367 . S
C673 C681 1.433 . S
C674 H670 0.929 . S
C674 C676 1.378 . S
C674 C678 1.350 . S
C675 C678 1.463 . S
C675 C680 1.350 . S
C675 N683 1.427 . S
C676 H667 0.930 1_554 S
C676 C674 1.378 . S
C676 C677 1.367 1_564 S
C677 C676 1.367 1_546 S
C677 C679 1.433 1_556 S
C678 C674 1.350 . S
C678 C675 1.463 . S
C678 N682 1.427 1_565 S
C679 H669 0.929 . S
C679 C677 1.433 1_554 S
C679 N682 1.384 . S
C680 H671 0.929 1_565 S
C680 C672 1.378 . S
C680 C675 1.350 . S
C681 H668 0.929 . S
C681 C673 1.433 . S
C681 N683 1.384 . S
N682 C678 1.427 1_545 S
N682 C679 1.384 . S
N683 C675 1.427 . S
N683 C681 1.384 . S
H684 C690 0.930 . S
H685 C694 0.930 . S
H686 C699 0.929 . S
H687 C697 0.929 . S
H688 C692 0.929 . S
H689 C698 0.929 . S
C690 H684 0.930 . S
C690 C691 1.367 . S
C690 C698 1.378 . S
C691 C690 1.367 . S
C691 C699 1.433 . S
C692 H688 0.929 . S
C692 C694 1.378 . S
C692 C696 1.350 . S
C693 C696 1.463 . S
C693 C698 1.350 . S
C693 N701 1.427 . S
C694 H685 0.930 . S
C694 C692 1.378 . S
C694 C695 1.367 . S
C695 C694 1.367 . S
C695 C697 1.433 1_554 S
C696 C692 1.350 . S
C696 C693 1.463 . S
C696 N700 1.427 . S
C697 H687 0.929 . S
C697 C695 1.433 1_556 S
C697 N700 1.384 1_556 S
C698 H689 0.929 . S
C698 C690 1.378 . S
C698 C693 1.350 . S
C699 H686 0.929 . S
C699 C691 1.433 . S
C699 N701 1.384 . S
N700 C696 1.427 . S
N700 C697 1.384 1_554 S
N701 C693 1.427 . S
N701 C699 1.384 . S
H702 C708 0.930 . S
H703 C712 0.930 . S
H704 C717 0.929 . S
H705 C715 0.929 . S
H706 C710 0.929 . S
H707 C716 0.929 . S
C708 H702 0.930 . S
C708 C709 1.367 . S
C708 C716 1.378 . S
C709 C708 1.367 . S
C709 C717 1.433 . S
C710 H706 0.929 . S
C710 C712 1.378 . S
C710 C714 1.350 1_556 S
C711 C714 1.463 . S
C711 C716 1.350 . S
C711 N719 1.427 . S
C712 H703 0.930 . S
C712 C710 1.378 . S
C712 C713 1.367 1_556 S
C713 C712 1.367 1_554 S
C713 C715 1.433 . S
C714 C710 1.350 1_554 S
C714 C711 1.463 . S
C714 N718 1.427 . S
C715 H705 0.929 . S
C715 C713 1.433 . S
C715 N718 1.384 . S
C716 H707 0.929 . S
C716 C708 1.378 . S
C716 C711 1.350 . S
C717 H704 0.929 . S
C717 C709 1.433 . S
C717 N719 1.384 . S
N718 C714 1.427 . S
N718 C715 1.384 . S
N719 C711 1.427 . S
N719 C717 1.384 . S
H720 C726 0.930 . S
H721 C730 0.930 . S
H722 C735 0.929 . S
H723 C733 0.929 . S
H724 C728 0.929 . S
H725 C734 0.929 . S
C726 H720 0.930 . S
C726 C727 1.367 . S
C726 C734 1.378 . S
C727 C726 1.367 . S
C727 C735 1.433 . S
C728 H724 0.929 . S
C728 C730 1.378 . S
C728 C732 1.350 . S
C729 C732 1.463 . S
C729 C734 1.350 . S
C729 N737 1.427 . S
C730 H721 0.930 . S
C730 C728 1.378 . S
C730 C731 1.367 . S
C731 C730 1.367 . S
C731 C733 1.433 . S
C732 C728 1.350 . S
C732 C729 1.463 . S
C732 N736 1.427 . S
C733 H723 0.929 . S
C733 C731 1.433 . S
C733 N736 1.384 . S
C734 H725 0.929 . S
C734 C726 1.378 . S
C734 C729 1.350 . S
C735 H722 0.929 . S
C735 C727 1.433 . S
C735 N737 1.384 . S
N736 C732 1.427 . S
N736 C733 1.384 . S
N737 C729 1.427 . S
N737 C735 1.384 . S
H738 C744 0.930 . S
H739 C748 0.930 . S
H740 C753 0.929 . S
H741 C751 0.929 . S
H742 C746 0.929 . S
H743 C752 0.929 . S
C744 H738 0.930 . S
C744 C745 1.367 . S
C744 C752 1.378 . S
C745 C744 1.367 . S
C745 C753 1.433 . S
C746 H742 0.929 . S
C746 C748 1.378 . S
C746 C750 1.350 . S
C747 C750 1.463 . S
C747 C752 1.350 . S
C747 N755 1.427 . S
C748 H739 0.930 . S
C748 C746 1.378 . S
C748 C749 1.367 . S
C749 C748 1.367 . S
C749 C751 1.433 . S
C750 C746 1.350 . S
C750 C747 1.463 . S
C750 N754 1.427 . S
C751 H741 0.929 . S
C751 C749 1.433 . S
C751 N754 1.384 . S
C752 H743 0.929 . S
C752 C744 1.378 . S
C752 C747 1.350 . S
C753 H740 0.929 . S
C753 C745 1.433 . S
C753 N755 1.384 . S
N754 C750 1.427 . S
N754 C751 1.384 . S
N755 C747 1.427 . S
N755 C753 1.384 . S
H756 C762 0.930 . S
H757 C766 0.930 . S
H758 C771 0.929 . S
H759 C769 0.929 . S
H760 C764 0.929 . S
H761 C770 0.929 . S
C762 H756 0.930 . S
C762 C763 1.367 . S
C762 C770 1.378 . S
C763 C762 1.367 . S
C763 C771 1.433 . S
C764 H760 0.929 . S
C764 C766 1.378 . S
C764 C768 1.350 . S
C765 C768 1.463 . S
C765 C770 1.350 . S
C765 N773 1.427 . S
C766 H757 0.930 . S
C766 C764 1.378 . S
C766 C767 1.367 . S
C767 C766 1.367 . S
C767 C769 1.433 . S
C768 C764 1.350 . S
C768 C765 1.463 . S
C768 N772 1.427 . S
C769 H759 0.929 . S
C769 C767 1.433 . S
C769 N772 1.384 . S
C770 H761 0.929 . S
C770 C762 1.378 . S
C770 C765 1.350 . S
C771 H758 0.929 . S
C771 C763 1.433 . S
C771 N773 1.384 . S
N772 C768 1.427 . S
N772 C769 1.384 . S
N773 C765 1.427 . S
N773 C771 1.384 . S
H774 C780 0.930 . S
H775 C784 0.930 . S
H776 C789 0.929 . S
H777 C787 0.929 . S
H778 C782 0.929 . S
H779 C788 0.929 . S
C780 H774 0.930 . S
C780 C781 1.367 . S
C780 C788 1.378 . S
C781 C780 1.367 . S
C781 C789 1.433 . S
C782 H778 0.929 . S
C782 C784 1.378 . S
C782 C786 1.350 . S
C783 C786 1.463 . S
C783 C788 1.350 . S
C783 N791 1.427 . S
C784 H775 0.930 . S
C784 C782 1.378 . S
C784 C785 1.367 . S
C785 C784 1.367 . S
C785 C787 1.433 . S
C786 C782 1.350 . S
C786 C783 1.463 . S
C786 N790 1.427 . S
C787 H777 0.929 . S
C787 C785 1.433 . S
C787 N790 1.384 . S
C788 H779 0.929 . S
C788 C780 1.378 . S
C788 C783 1.350 . S
C789 H776 0.929 . S
C789 C781 1.433 . S
C789 N791 1.384 . S
N790 C786 1.427 . S
N790 C787 1.384 . S
N791 C783 1.427 . S
N791 C789 1.384 . S
H792 C798 0.930 . S
H793 C802 0.930 . S
H794 C807 0.929 . S
H795 C805 0.929 . S
H796 C800 0.929 . S
H797 C806 0.929 . S
C798 H792 0.930 . S
C798 C799 1.367 . S
C798 C806 1.378 . S
C799 C798 1.367 . S
C799 C807 1.433 . S
C800 H796 0.929 . S
C800 C802 1.378 . S
C800 C804 1.350 . S
C801 C804 1.463 . S
C801 C806 1.350 . S
C801 N809 1.427 . S
C802 H793 0.930 . S
C802 C800 1.378 . S
C802 C803 1.367 . S
C803 C802 1.367 . S
C803 C805 1.433 . S
C804 C800 1.350 . S
C804 C801 1.463 . S
C804 N808 1.427 . S
C805 H795 0.929 . S
C805 C803 1.433 . S
C805 N808 1.384 . S
C806 H797 0.929 . S
C806 C798 1.378 . S
C806 C801 1.350 . S
C807 H794 0.929 . S
C807 C799 1.433 . S
C807 N809 1.384 . S
N808 C804 1.427 . S
N808 C805 1.384 . S
N809 C801 1.427 . S
N809 C807 1.384 . S
H810 C816 0.930 . S
H811 C820 0.930 . S
H812 C825 0.899 1_545 S
H813 C823 0.929 . S
H814 C818 0.946 . S
H815 C824 0.929 . S
C816 H810 0.930 . S
C816 C817 1.367 . S
C816 C824 1.378 . S
C817 C816 1.367 . S
C817 C825 1.433 . S
C818 H814 0.946 . S
C818 C820 1.382 . S
C818 C822 1.329 1_545 S
C819 C822 1.463 . S
C819 C824 1.350 . S
C819 N827 1.427 . S
C820 H811 0.930 . S
C820 C818 1.382 . S
C820 C821 1.367 1_545 S
C821 C820 1.367 1_565 S
C821 C823 1.433 . S
C822 C818 1.329 1_565 S
C822 C819 1.463 . S
C822 N826 1.427 . S
C823 H813 0.929 . S
C823 C821 1.433 . S
C823 N826 1.384 . S
C824 H815 0.929 . S
C824 C816 1.378 . S
C824 C819 1.350 . S
C825 H812 0.899 1_565 S
C825 C817 1.433 . S
C825 N827 1.384 . S
N826 C822 1.427 . S
N826 C823 1.384 . S
N827 C819 1.427 . S
N827 C825 1.384 . S
H828 C834 0.930 . S
H829 C838 0.930 . S
H830 C843 0.929 . S
H831 C841 0.929 . S
H832 C836 0.929 . S
H833 C842 0.929 . S
C834 H828 0.930 . S
C834 C835 1.367 . S
C834 C842 1.378 . S
C835 C834 1.367 . S
C835 C843 1.433 . S
C836 H832 0.929 . S
C836 C838 1.378 . S
C836 C840 1.350 . S
C837 C840 1.463 . S
C837 C842 1.350 . S
C837 N845 1.427 . S
C838 H829 0.930 . S
C838 C836 1.378 . S
C838 C839 1.367 . S
C839 C838 1.367 . S
C839 C841 1.433 . S
C840 C836 1.350 . S
C840 C837 1.463 . S
C840 N844 1.427 . S
C841 H831 0.929 . S
C841 C839 1.433 . S
C841 N844 1.384 . S
C842 H833 0.929 . S
C842 C834 1.378 . S
C842 C837 1.350 . S
C843 H830 0.929 . S
C843 C835 1.433 . S
C843 N845 1.384 . S
N844 C840 1.427 . S
N844 C841 1.384 . S
N845 C837 1.427 . S
N845 C843 1.384 . S
H846 C852 0.930 . S
H847 C856 0.930 . S
H848 C861 0.929 . S
H849 C859 0.929 . S
H850 C854 0.929 . S
H851 C860 0.929 . S
C852 H846 0.930 . S
C852 C853 1.367 . S
C852 C860 1.378 . S
C853 C852 1.367 . S
C853 C861 1.433 . S
C854 H850 0.929 . S
C854 C856 1.378 . S
C854 C858 1.350 . S
C855 C858 1.463 . S
C855 C860 1.350 . S
C855 N863 1.427 . S
C856 H847 0.930 . S
C856 C854 1.378 . S
C856 C857 1.367 . S
C857 C856 1.367 . S
C857 C859 1.433 . S
C858 C854 1.350 . S
C858 C855 1.463 . S
C858 N862 1.427 . S
C859 H849 0.929 . S
C859 C857 1.433 . S
C859 N862 1.384 . S
C860 H851 0.929 . S
C860 C852 1.378 . S
C860 C855 1.350 . S
C861 H848 0.929 . S
C861 C853 1.433 . S
C861 N863 1.384 . S
N862 C858 1.427 . S
N862 C859 1.384 . S
N863 C855 1.427 . S
N863 C861 1.384 . S
C439 C76 1.852 . S
C443 C171 1.942 . S
C461 C255 1.959 . S
C457 C88 1.867 . S
C479 C331 1.931 . S
C475 C52 1.953 . S
C497 C415 1.923 . S
C493 C64 1.944 . S
C515 C162 1.952 1_565 S
C511 C28 1.864 . S
C529 C40 1.885 . S
C533 C246 1.964 . S
C547 C4 1.963 . S
C551 C320 1.927 . S
C565 C16 1.960 . S
C569 C404 1.927 . S
C587 C159 0.625 1_455 S
C583 C69 0.656 . S
C605 C243 0.607 1_545 S
C601 C81 0.628 . S
C623 C336 0.572 . S
C619 C93 0.608 . S
C637 C57 0.619 . S
C641 C420 0.617 . S
C655 C21 0.660 . S
C659 C168 0.639 . S
C677 C252 0.632 . S
C673 C33 0.606 . S
C695 C327 0.572 . S
C691 C45 0.620 . S
C709 C9 0.609 . S
C713 C411 0.632 . S
C727 C66 2.031 . S
C731 C152 2.079 . S
C745 C78 2.003 . S
C749 C236 2.053 . S
C767 C330 2.078 . S
C763 C90 1.916 . S
C785 C414 2.110 . S
C781 C54 1.938 . S
C799 C18 2.016 . S
C803 C163 2.080 . S
C821 C247 2.043 . S
C817 C30 1.979 . S
C839 C339 2.077 . S
C835 C42 1.892 . S
C853 C6 1.912 . S
C857 C423 2.111 . S
