# Generated by pormake.
# Topology apo, (3,6)-cn, num edge types: 1
# Building blocks:
#     Node 0, Type 0, BuildingBlock: VETTIZ_charged_linker_0, # of connection points: 3
#     Node 1, Type 0, BuildingBlock: VETTIZ_charged_linker_0, # of connection points: 3
#     Node 2, Type 0, BuildingBlock: VETTIZ_charged_linker_0, # of connection points: 3
#     Node 3, Type 0, BuildingBlock: VETTIZ_charged_linker_0, # of connection points: 3
#     Node 4, Type 0, BuildingBlock: VETTIZ_charged_linker_0, # of connection points: 3
#     Node 5, Type 0, BuildingBlock: VETTIZ_charged_linker_0, # of connection points: 3
#     Node 6, Type 0, BuildingBlock: VETTIZ_charged_linker_0, # of connection points: 3
#     Node 7, Type 0, BuildingBlock: VETTIZ_charged_linker_0, # of connection points: 3
#     Node 8, Type 1, BuildingBlock: KUMBUR_clean_sbu_1, # of connection points: 6
#     Node 9, Type 1, BuildingBlock: KUMBUR_clean_sbu_1, # of connection points: 6
#     Node 10, Type 1, BuildingBlock: KUMBUR_clean_sbu_1, # of connection points: 6
#     Node 11, Type 1, BuildingBlock: KUMBUR_clean_sbu_1, # of connection points: 6
#     Edge 12, Type (0, 1), BuildingBlock: AJUNOK_clean_linker_0, # of connection points: 2
#     Edge 13, Type (0, 1), BuildingBlock: AJUNOK_clean_linker_0, # of connection points: 2
#     Edge 14, Type (0, 1), BuildingBlock: AJUNOK_clean_linker_0, # of connection points: 2
#     Edge 15, Type (0, 1), BuildingBlock: AJUNOK_clean_linker_0, # of connection points: 2
#     Edge 16, Type (0, 1), BuildingBlock: AJUNOK_clean_linker_0, # of connection points: 2
#     Edge 17, Type (0, 1), BuildingBlock: AJUNOK_clean_linker_0, # of connection points: 2
#     Edge 18, Type (0, 1), BuildingBlock: AJUNOK_clean_linker_0, # of connection points: 2
#     Edge 19, Type (0, 1), BuildingBlock: AJUNOK_clean_linker_0, # of connection points: 2
#     Edge 20, Type (0, 1), BuildingBlock: AJUNOK_clean_linker_0, # of connection points: 2
#     Edge 21, Type (0, 1), BuildingBlock: AJUNOK_clean_linker_0, # of connection points: 2
#     Edge 22, Type (0, 1), BuildingBlock: AJUNOK_clean_linker_0, # of connection points: 2
#     Edge 23, Type (0, 1), BuildingBlock: AJUNOK_clean_linker_0, # of connection points: 2
#     Edge 24, Type (0, 1), BuildingBlock: AJUNOK_clean_linker_0, # of connection points: 2
#     Edge 25, Type (0, 1), BuildingBlock: AJUNOK_clean_linker_0, # of connection points: 2
#     Edge 26, Type (0, 1), BuildingBlock: AJUNOK_clean_linker_0, # of connection points: 2
#     Edge 27, Type (0, 1), BuildingBlock: AJUNOK_clean_linker_0, # of connection points: 2
#     Edge 28, Type (0, 1), BuildingBlock: AJUNOK_clean_linker_0, # of connection points: 2
#     Edge 29, Type (0, 1), BuildingBlock: AJUNOK_clean_linker_0, # of connection points: 2
#     Edge 30, Type (0, 1), BuildingBlock: AJUNOK_clean_linker_0, # of connection points: 2
#     Edge 31, Type (0, 1), BuildingBlock: AJUNOK_clean_linker_0, # of connection points: 2
#     Edge 32, Type (0, 1), BuildingBlock: AJUNOK_clean_linker_0, # of connection points: 2
#     Edge 33, Type (0, 1), BuildingBlock: AJUNOK_clean_linker_0, # of connection points: 2
#     Edge 34, Type (0, 1), BuildingBlock: AJUNOK_clean_linker_0, # of connection points: 2
#     Edge 35, Type (0, 1), BuildingBlock: AJUNOK_clean_linker_0, # of connection points: 2
# Relax obj value: 0.009
# Max RMSD: 0.110
# Mean RMSD: 0.086
data_MOF--net-apo--node1-KUMBUR_clean_sbu_1--node2-VETTIZ_charged_linker_0--edge1-AJUNOK_clean_linker_0
_symmetry_space_group_name_H-M    P1
_symmetry_Int_Tables_number       1
_symmetry_cell_setting            triclinic
loop_
_symmetry_equiv_pos_as_xyz
'x, y, z'
_cell_length_a     22.834487
_cell_length_b     40.48195
_cell_length_c     50.73521
_cell_angle_alpha  90.196887
_cell_angle_beta   89.926263
_cell_angle_gamma 90.795595
loop_
_atom_site_label
_atom_site_type_symbol
_atom_site_fract_x
_atom_site_fract_y
_atom_site_fract_z
_atom_type_partial_charge
C0 C 0.30547 0.36069 0.50809 0.0
C1 C 0.33877 0.38318 0.52335 0.0
C2 C 0.36634 0.41019 0.51068 0.0
C3 C 0.32359 0.39349 0.46889 0.0
C4 C 0.29879 0.36618 0.48103 0.0
C5 C 0.26566 0.34437 0.46194 0.0
H6 H 0.16416 0.31797 0.33795 0.0
C7 C 0.30617 0.39273 0.44083 0.0
C8 C 0.27247 0.3639 0.4366 0.0
H9 H 0.1517 0.25226 0.40459 0.0
H10 H 0.2029 0.29243 0.43199 0.0
H11 H 0.13815 0.38586 0.36957 0.0
H12 H 0.29625 0.33672 0.34702 0.0
H13 H 0.30926 0.37908 0.34231 0.0
H14 H 0.25197 0.3585 0.32383 0.0
H15 H 0.1648 0.38569 0.33629 0.0
H16 H 0.18801 0.41685 0.35974 0.0
C17 C 0.20097 0.34217 0.47098 0.0
C18 C 0.29675 0.31059 0.46041 0.0
C19 C 0.36663 0.48687 0.37995 0.0
C20 C 0.3555 0.49311 0.3532 0.0
C21 C 0.31929 0.47107 0.33888 0.0
C22 C 0.29529 0.44291 0.35085 0.0
C23 C 0.30772 0.43656 0.37745 0.0
C24 C 0.34223 0.45854 0.39165 0.0
C25 C 0.3503 0.44775 0.41976 0.0
C26 C 0.31564 0.41543 0.41991 0.0
C27 C 0.29104 0.40904 0.39505 0.0
C28 C 0.32248 0.47412 0.43787 0.0
C29 C 0.41649 0.44231 0.42458 0.0
C30 C 0.17195 0.31256 0.35855 0.0
C31 C 0.15385 0.28226 0.36933 0.0
C32 C 0.16548 0.27559 0.39602 0.0
C33 C 0.19527 0.29886 0.4118 0.0
C34 C 0.21415 0.32893 0.40063 0.0
C35 C 0.20249 0.33528 0.3744 0.0
C36 C 0.22846 0.36765 0.36547 0.0
C37 C 0.25778 0.37969 0.39061 0.0
C38 C 0.24885 0.35711 0.41122 0.0
C39 C 0.1776 0.39031 0.3571 0.0
C40 C 0.27361 0.36044 0.34338 0.0
H41 H 0.38029 0.43674 0.47524 0.0
H42 H 0.28405 0.33952 0.5171 0.0
H43 H 0.34431 0.3132 0.46486 0.0
H44 H 0.29521 0.29959 0.44044 0.0
H45 H 0.27771 0.29276 0.47476 0.0
H46 H 0.18508 0.36696 0.47695 0.0
H47 H 0.19598 0.32545 0.48818 0.0
H48 H 0.17102 0.33357 0.45528 0.0
H49 H 0.39496 0.50316 0.39133 0.0
H50 H 0.30985 0.4756 0.31828 0.0
H51 H 0.26848 0.42701 0.33881 0.0
H52 H 0.28079 0.48308 0.4293 0.0
H53 H 0.35229 0.49582 0.44035 0.0
H54 H 0.31044 0.46456 0.4575 0.0
H55 H 0.43843 0.43325 0.4064 0.0
H56 H 0.42487 0.4231 0.43948 0.0
H57 H 0.43891 0.46565 0.43063 0.0
H58 H 0.39401 0.42722 0.52168 0.0
C59 C 0.35865 0.41556 0.48363 0.0
C60 C 0.35362 0.18703 0.86141 0.0
C61 C 0.35587 0.22095 0.86798 0.0
C62 C 0.32985 0.23084 0.89206 0.0
C63 C 0.29751 0.17465 0.90082 0.0
C64 C 0.32127 0.16501 0.87707 0.0
C65 C 0.3012 0.13085 0.86905 0.0
H66 H 0.12041 1.00012 0.89145 0.0
C67 C 0.26404 0.14634 0.91166 0.0
C68 C 0.26398 0.12107 0.89267 0.0
H69 H 0.22197 0.02163 0.82164 0.0
H70 H 0.26727 0.06884 0.84346 0.0
H71 H 0.22867 0.01453 0.93146 0.0
H72 H 0.08376 0.07365 0.90673 0.0
H73 H 0.09085 0.07652 0.94134 0.0
H74 H 0.07639 0.03694 0.92635 0.0
H75 H 0.15799 0.01055 0.94663 0.0
H76 H 0.21193 0.04022 0.95827 0.0
C77 C 0.35554 0.10871 0.8664 0.0
C78 C 0.26448 0.13363 0.84337 0.0
C79 C 0.19947 0.1473 1.0074 0.0
C80 C 0.17025 0.12392 0.02334 0.0
C81 C 0.14804 0.09472 1.01158 0.0
C82 C 0.15685 0.08833 0.98468 0.0
C83 C 0.18775 0.11149 0.96925 0.0
C84 C 0.20772 0.14064 0.98055 0.0
C85 C 0.23769 0.16295 0.96086 0.0
C86 C 0.23676 0.14107 0.93647 0.0
C87 C 0.2068 0.11119 0.94141 0.0
C88 C 0.30084 0.17036 0.97037 0.0
C89 C 0.20022 0.19434 0.9573 0.0
C90 C 0.1527 0.01504 0.88109 0.0
C91 C 0.16759 0.00777 0.85488 0.0
C92 C 0.21003 0.02719 0.84184 0.0
C93 C 0.23567 0.05464 0.85442 0.0
C94 C 0.2182 0.06279 0.88018 0.0
C95 C 0.17879 0.04256 0.89342 0.0
C96 C 0.16751 0.05448 0.9211 0.0
C97 C 0.20276 0.0866 0.92142 0.0
C98 C 0.23219 0.09129 0.89739 0.0
C99 C 0.19231 0.02868 0.94051 0.0
C100 C 0.10111 0.06062 0.92428 0.0
H101 H 0.28292 0.21693 0.92655 0.0
H102 H 0.37485 0.17736 0.84407 0.0
H103 H 0.24811 0.15909 0.84032 0.0
H104 H 0.2243 0.11804 0.84382 0.0
H105 H 0.29071 0.12707 0.82571 0.0
H106 H 0.38556 0.11261 0.88342 0.0
H107 H 0.38034 0.11459 0.84812 0.0
H108 H 0.34414 0.0821 0.86631 0.0
H109 H 0.21659 0.1701 1.01576 0.0
H110 H 0.12368 0.0768 0.02317 0.0
H111 H 0.13919 0.06562 0.97691 0.0
H112 H 0.32379 0.14699 0.97487 0.0
H113 H 0.30059 0.18575 0.98854 0.0
H114 H 0.32744 0.18357 0.9555 0.0
H115 H 0.15517 0.19108 0.96534 0.0
H116 H 0.19383 0.20047 0.93621 0.0
H117 H 0.22029 0.21602 0.9675 0.0
H118 H 0.32931 0.25656 0.89789 0.0
C119 C 0.30187 0.20785 0.90865 0.0
C120 C 0.7768 0.15096 0.52955 0.0
C121 C 0.80795 0.13002 0.51259 0.0
C122 C 0.83725 0.10277 0.52333 0.0
C123 C 0.80213 0.11702 0.56716 0.0
C124 C 0.77475 0.14419 0.55658 0.0
C125 C 0.74375 0.16433 0.57713 0.0
H126 H 0.6782 0.19006 0.70562 0.0
C127 C 0.78971 0.11658 0.59588 0.0
C128 C 0.75565 0.14442 0.60176 0.0
H129 H 0.62809 0.24948 0.63887 0.0
H130 H 0.67638 0.21159 0.60938 0.0
H131 H 0.63848 0.12465 0.68034 0.0
H132 H 0.80746 0.17121 0.68674 0.0
H133 H 0.81537 0.12924 0.69483 0.0
H134 H 0.76653 0.15432 0.71391 0.0
H135 H 0.68389 0.11822 0.70855 0.0
H136 H 0.68749 0.09167 0.67987 0.0
C137 C 0.67765 0.16473 0.57031 0.0
C138 C 0.77349 0.19893 0.57822 0.0
C139 C 0.86459 0.02372 0.65458 0.0
C140 C 0.85647 0.01688 0.68162 0.0
C141 C 0.8214 0.03811 0.69679 0.0
C142 C 0.79643 0.06605 0.68571 0.0
C143 C 0.8057 0.07297 0.65896 0.0
C144 C 0.83826 0.05173 0.64364 0.0
C145 C 0.84064 0.06275 0.61523 0.0
C146 C 0.8046 0.09414 0.61631 0.0
C147 C 0.78517 0.10003 0.64214 0.0
C148 C 0.81102 0.03557 0.59813 0.0
C149 C 0.90531 0.07008 0.60793 0.0
C150 C 0.67641 0.19471 0.68464 0.0
C151 C 0.64882 0.22286 0.6747 0.0
C152 C 0.64944 0.22819 0.64719 0.0
C153 C 0.67733 0.20607 0.63004 0.0
C154 C 0.70466 0.17805 0.64041 0.0
C155 C 0.70292 0.17257 0.66725 0.0
C156 C 0.73122 0.14075 0.67481 0.0
C157 C 0.75256 0.12864 0.64817 0.0
C158 C 0.73735 0.1506 0.62809 0.0
C159 C 0.68323 0.11757 0.68666 0.0
C160 C 0.78273 0.14902 0.69369 0.0
H161 H 0.85718 0.07486 0.55751 0.0
H162 H 0.75443 0.17231 0.52189 0.0
H163 H 0.82178 0.19698 0.57584 0.0
H164 H 0.76739 0.21162 0.59728 0.0
H165 H 0.75718 0.215 0.56219 0.0
H166 H 0.66321 0.1407 0.5616 0.0
H167 H 0.66797 0.18438 0.55579 0.0
H168 H 0.64951 0.168 0.58782 0.0
H169 H 0.89158 0.00809 0.64236 0.0
H170 H 0.81338 0.03317 0.71746 0.0
H171 H 0.7712 0.0813 0.69858 0.0
H172 H 0.77145 0.02535 0.60819 0.0
H173 H 0.84134 0.01481 0.59449 0.0
H174 H 0.79518 0.04484 0.57905 0.0
H175 H 0.9286 0.08235 0.62462 0.0
H176 H 0.90998 0.08729 0.59122 0.0
H177 H 0.92877 0.04693 0.6032 0.0
H178 H 0.86132 0.08624 0.51059 0.0
C179 C 0.83442 0.09611 0.55051 0.0
C180 C 0.84208 0.31492 0.18094 0.0
C181 C 0.85227 0.28218 0.17325 0.0
C182 C 0.83651 0.27224 0.14745 0.0
C183 C 0.79691 0.32657 0.13866 0.0
C184 C 0.8134 0.33619 0.16377 0.0
C185 C 0.79323 0.37018 0.17068 0.0
H186 H 0.61829 0.49823 0.14624 0.0
C187 C 0.76468 0.35436 0.12663 0.0
C188 C 0.76168 0.37961 0.1456 0.0
H189 H 0.72683 0.48039 0.21441 0.0
H190 H 0.76815 0.43322 0.19319 0.0
H191 H 0.72716 0.4848 0.10555 0.0
H192 H 0.58299 0.42239 0.13034 0.0
H193 H 0.58983 0.4213 0.0956 0.0
H194 H 0.57443 0.45975 0.11177 0.0
H195 H 0.65578 0.48826 0.0912 0.0
H196 H 0.70859 0.45924 0.07874 0.0
C197 C 0.84818 0.39236 0.1755 0.0
C198 C 0.75101 0.36704 0.19464 0.0
C199 C 0.69308 0.34768 0.03154 0.0
C200 C 0.66087 0.36926 1.01558 0.0
C201 C 0.64231 0.39951 0.02644 0.0
C202 C 0.65507 0.40799 0.05271 0.0
C203 C 0.68682 0.38605 0.06846 0.0
C204 C 0.70541 0.35647 0.05781 0.0
C205 C 0.73775 0.33597 0.07767 0.0
C206 C 0.73813 0.35881 0.10152 0.0
C207 C 0.70746 0.388 0.09613 0.0
C208 C 0.80026 0.32988 0.06716 0.0
C209 C 0.70159 0.30396 0.08277 0.0
C210 C 0.651 0.48406 0.15649 0.0
C211 C 0.66699 0.49201 0.18267 0.0
C212 C 0.71139 0.47378 0.19489 0.0
C213 C 0.73584 0.4465 0.18239 0.0
C214 C 0.71638 0.43728 0.15717 0.0
C215 C 0.67668 0.45667 0.14405 0.0
C216 C 0.66591 0.44421 0.1163 0.0
C217 C 0.70207 0.41279 0.11598 0.0
C218 C 0.7306 0.40887 0.1402 0.0
C219 C 0.69011 0.47042 0.09678 0.0
C220 C 0.59976 0.43658 0.11311 0.0
H221 H 0.79764 0.28522 0.11085 0.0
H222 H 0.85509 0.32382 0.20024 0.0
H223 H 0.7257 0.34336 0.19391 0.0
H224 H 0.71714 0.38617 0.1952 0.0
H225 H 0.77552 0.3676 0.21353 0.0
H226 H 0.88585 0.38417 0.16329 0.0
H227 H 0.86209 0.39161 0.19646 0.0
H228 H 0.84148 0.41835 0.16965 0.0
H229 H 0.70739 0.32412 0.02388 0.0
H230 H 0.61806 0.41672 1.01451 0.0
H231 H 0.63939 0.43122 0.05984 0.0
H232 H 0.81997 0.35322 0.05947 0.0
H233 H 0.79953 0.31154 0.05082 0.0
H234 H 0.8304 0.32116 0.08252 0.0
H235 H 0.65383 0.30839 0.08067 0.0
H236 H 0.70663 0.29467 0.10308 0.0
H237 H 0.71345 0.28418 0.06859 0.0
H238 H 0.84409 0.24716 0.14091 0.0
C239 C 0.80914 0.29429 0.13009 0.0
C240 C 0.66833 0.53194 0.68214 0.0
C241 C 0.64338 0.50283 0.67195 0.0
C242 C 0.63677 0.49923 0.6445 0.0
C243 C 0.67818 0.55425 0.63791 0.0
C244 C 0.68574 0.55705 0.66487 0.0
C245 C 0.71405 0.58921 0.67274 0.0
H246 H 0.83403 0.73672 0.64018 0.0
C247 C 0.69995 0.58538 0.62577 0.0
C248 C 0.72135 0.60571 0.64615 0.0
H249 H 0.81976 0.69144 0.71693 0.0
H250 H 0.76882 0.64465 0.69811 0.0
H251 H 0.86983 0.67114 0.60945 0.0
H252 H 0.69969 0.71443 0.61974 0.0
H253 H 0.70701 0.70188 0.58666 0.0
H254 H 0.75588 0.73319 0.59976 0.0
H255 H 0.84931 0.70826 0.59276 0.0
H256 H 0.83211 0.66796 0.57937 0.0
C257 C 0.7739 0.58153 0.68574 0.0
C258 C 0.6706 0.60802 0.69069 0.0
C259 C 0.68511 0.60237 0.52661 0.0
C260 C 0.70342 0.62804 0.50976 0.0
C261 C 0.72997 0.65653 0.52078 0.0
C262 C 0.73822 0.65943 0.54812 0.0
C263 C 0.72041 0.63338 0.56471 0.0
C264 C 0.69421 0.60547 0.55387 0.0
C265 C 0.68 0.57975 0.57437 0.0
C266 C 0.70141 0.59688 0.5993 0.0
C267 C 0.725 0.62839 0.59357 0.0
C268 C 0.71559 0.54837 0.56808 0.0
C269 C 0.61285 0.5741 0.57464 0.0
C270 C 0.81925 0.71671 0.65277 0.0
C271 C 0.83093 0.7174 0.68 0.0
C272 C 0.81152 0.69108 0.69589 0.0
C273 C 0.78203 0.66394 0.68487 0.0
C274 C 0.77197 0.6629 0.65756 0.0
C275 C 0.78998 0.68905 0.64193 0.0
C276 C 0.7762 0.68291 0.6132 0.0
C277 C 0.7476 0.64871 0.61429 0.0
C278 C 0.74537 0.63734 0.64037 0.0
C279 C 0.83461 0.68274 0.59766 0.0
C280 C 0.7327 0.70951 0.60411 0.0
H281 H 0.64711 0.521 0.60666 0.0
H282 H 0.67405 0.53512 0.70321 0.0
H283 H 0.62464 0.60384 0.68406 0.0
H284 H 0.67703 0.6351 0.69013 0.0
H285 H 0.67358 0.59955 0.71144 0.0
H286 H 0.79231 0.55808 0.67803 0.0
H287 H 0.76953 0.57895 0.70744 0.0
H288 H 0.80802 0.60037 0.68133 0.0
H289 H 0.66587 0.57986 0.51866 0.0
H290 H 0.74465 0.67652 0.50814 0.0
H291 H 0.75884 0.68168 0.55527 0.0
H292 H 0.7587 0.55494 0.55912 0.0
H293 H 0.69182 0.53202 0.55395 0.0
H294 H 0.72653 0.53409 0.58587 0.0
H295 H 0.58975 0.59806 0.57332 0.0
H296 H 0.59684 0.5625 0.59297 0.0
H297 H 0.59868 0.5586 0.55763 0.0
H298 H 0.61722 0.47689 0.63639 0.0
C299 C 0.65385 0.52489 0.62738 0.0
C300 C 0.6722 0.80771 0.17764 0.0
C301 C 0.65567 0.7774 0.16628 0.0
C302 C 0.66673 0.77199 0.13926 0.0
C303 C 0.71055 0.82691 0.13558 0.0
C304 C 0.69959 0.83182 0.16212 0.0
C305 C 0.72151 0.86473 0.17182 0.0
H306 H 0.8681 0.00771 0.15003 0.0
C307 C 0.74055 0.85707 0.12542 0.0
C308 C 0.747 0.87913 0.14674 0.0
H309 H 0.7966 0.97091 0.22326 0.0
H310 H 0.75603 0.92327 0.20074 0.0
H311 H 0.91758 0.94094 0.13072 0.0
H312 H 0.7539 0.98725 0.11346 0.0
H313 H 0.77807 0.9692 0.08395 0.0
H314 H 0.82206 1.00115 0.09947 0.0
H315 H 0.91235 0.97542 0.10875 0.0
H316 H 0.90347 0.93344 0.09725 0.0
C317 C 0.76928 0.85859 0.19295 0.0
C318 C 0.66821 0.8846 0.18175 0.0
C319 C 0.80363 0.86622 0.02881 0.0
C320 C 0.83465 0.89101 1.015 0.0
C321 C 0.85084 0.92035 0.0282 0.0
C322 C 0.83737 0.92497 0.05483 0.0
C323 C 0.80769 0.89985 0.06866 0.0
C324 C 0.79096 0.87109 0.05573 0.0
C325 C 0.76088 0.84698 0.07415 0.0
C326 C 0.76208 0.8662 0.10003 0.0
C327 C 0.78972 0.89715 0.09656 0.0
C328 C 0.79814 0.8154 0.07553 0.0
C329 C 0.69767 0.84093 0.0642 0.0
C330 C 0.84282 0.98954 0.16099 0.0
C331 C 0.83553 0.99271 0.18837 0.0
C332 C 0.80295 0.96862 0.20216 0.0
C333 C 0.77964 0.94098 0.18903 0.0
C334 C 0.7894 0.93725 0.16181 0.0
C335 C 0.81972 0.96153 0.14816 0.0
C336 C 0.82689 0.95288 0.11945 0.0
C337 C 0.79668 0.91919 0.11826 0.0
C338 C 0.77498 0.91026 0.14311 0.0
C339 C 0.89338 0.95072 0.11346 0.0
C340 C 0.79403 0.97896 0.10303 0.0
H341 H 0.70102 0.79123 0.10334 0.0
H342 H 0.66484 0.81238 0.19842 0.0
H343 H 0.62894 0.87946 0.16935 0.0
H344 H 0.67513 0.91161 0.1805 0.0
H345 H 0.65682 0.87795 0.20237 0.0
H346 H 0.79292 0.83523 0.18898 0.0
H347 H 0.74982 0.85664 0.21297 0.0
H348 H 0.80408 0.87783 0.19312 0.0
H349 H 0.79091 0.84338 1.01907 0.0
H350 H 0.87434 0.93978 1.01781 0.0
H351 H 0.8513 0.94784 0.06366 0.0
H352 H 0.84571 0.82175 0.07523 0.0
H353 H 0.78895 0.79884 0.05848 0.0
H354 H 0.79136 0.80144 0.09394 0.0
H355 H 0.67771 0.86456 0.05795 0.0
H356 H 0.66829 0.83084 0.07954 0.0
H357 H 0.69714 0.82391 0.04697 0.0
H358 H 0.65385 0.74881 0.13009 0.0
C359 C 0.69389 0.79666 0.1238 0.0
C360 C 0.17335 0.97514 0.35885 0.0
C361 C 0.13892 1.0001 0.36998 0.0
C362 C 0.12241 0.9974 0.39674 0.0
C363 C 0.17349 0.94536 0.40028 0.0
C364 C 0.18897 0.94796 0.37404 0.0
C365 C 0.21971 0.91793 0.36398 0.0
H366 H 0.34594 0.77136 0.38725 0.0
C367 C 0.19557 0.91343 0.41009 0.0
C368 C 0.22228 0.89725 0.38879 0.0
H369 H 0.3191 0.82011 0.3125 0.0
H370 H 0.27064 0.86446 0.33441 0.0
H371 H 0.37149 0.83718 0.42379 0.0
H372 H 0.21502 0.78133 0.40535 0.0
H373 H 0.20777 0.79459 0.43812 0.0
H374 H 0.26665 0.76732 0.42932 0.0
H375 H 0.35806 0.79579 0.43515 0.0
H376 H 0.33162 0.83101 0.45315 0.0
C377 C 0.28148 0.92878 0.35445 0.0
C378 C 0.18081 0.90143 0.34237 0.0
C379 C 0.17118 0.88189 0.50674 0.0
C380 C 0.18748 0.85383 0.52111 0.0
C381 C 0.21822 0.82852 0.50818 0.0
C382 C 0.23193 0.83078 0.48135 0.0
C383 C 0.21478 0.85868 0.4671 0.0
C384 C 0.18491 0.88368 0.47976 0.0
C385 C 0.16939 0.91115 0.46117 0.0
C386 C 0.19504 0.89851 0.43543 0.0
C387 C 0.22171 0.86775 0.43907 0.0
C388 C 0.20066 0.94315 0.47074 0.0
C389 C 0.10178 0.9135 0.45996 0.0
C390 C 0.32961 0.79158 0.37559 0.0
C391 C 0.33895 0.7927 0.3481 0.0
C392 C 0.31561 0.81925 0.33376 0.0
C393 C 0.28632 0.84485 0.34651 0.0
C394 C 0.2784 0.84372 0.37392 0.0
C395 C 0.29866 0.81707 0.38797 0.0
C396 C 0.28161 0.81895 0.41666 0.0
C397 C 0.24883 0.85144 0.41746 0.0
C398 C 0.24814 0.86596 0.39243 0.0
C399 C 0.33841 0.82062 0.43326 0.0
C400 C 0.24098 0.78898 0.42295 0.0
H401 H 0.12574 0.9696 0.43215 0.0
H402 H 0.18676 0.9762 0.33838 0.0
H403 H 0.1342 0.90884 0.34408 0.0
H404 H 0.17937 0.87415 0.34403 0.0
H405 H 0.19596 0.90834 0.3223 0.0
H406 H 0.3022 0.94606 0.36889 0.0
H407 H 0.27901 0.94171 0.33521 0.0
H408 H 0.312 0.90805 0.35244 0.0
H409 H 0.14764 0.90173 0.51621 0.0
H410 H 0.23235 0.80702 0.519 0.0
H411 H 0.25548 0.81069 0.47274 0.0
H412 H 0.24656 0.93796 0.4766 0.0
H413 H 0.17794 0.95373 0.48814 0.0
H414 H 0.20399 0.96225 0.45535 0.0
H415 H 0.08067 0.88877 0.46246 0.0
H416 H 0.08596 0.92228 0.44068 0.0
H417 H 0.08489 0.92987 0.47577 0.0
H418 H 0.09428 0.01557 0.40572 0.0
C419 C 0.14 0.97037 0.41199 0.0
C420 C 0.18267 0.69871 0.8529 0.0
C421 C 0.15716 0.72756 0.86298 0.0
C422 C 0.15799 0.73291 0.89052 0.0
C423 C 0.21257 0.68266 0.89688 0.0
C424 C 0.20898 0.67649 0.87014 0.0
C425 C 0.23426 0.64369 0.86273 0.0
H426 H 0.39087 0.51019 0.89605 0.0
C427 C 0.24367 0.65492 0.90918 0.0
C428 C 0.25538 0.63169 0.88936 0.0
H429 H 0.31108 0.53288 0.82106 0.0
H430 H 0.26866 0.58161 0.83963 0.0
H431 H 0.42856 0.58583 0.9124 0.0
H432 H 0.27613 0.52587 0.92993 0.0
H433 H 0.29008 0.55046 0.95786 0.0
H434 H 0.34377 0.52079 0.94731 0.0
H435 H 0.43058 0.54902 0.93205 0.0
H436 H 0.41337 0.58832 0.94643 0.0
C437 C 0.28571 0.65009 0.8434 0.0
C438 C 0.18425 0.62143 0.85145 0.0
C439 C 0.30715 0.66312 1.00491 0.0
C440 C 0.3378 0.64181 0.02167 0.0
C441 C 0.35405 0.61051 1.01201 0.0
C442 C 0.34224 0.60121 0.98587 0.0
C443 C 0.31321 0.62324 0.96919 0.0
C444 C 0.29502 0.6533 0.97898 0.0
C445 C 0.26154 0.67272 0.95892 0.0
C446 C 0.26447 0.64983 0.93519 0.0
C447 C 0.29529 0.62102 0.94125 0.0
C448 C 0.29493 0.70569 0.95412 0.0
C449 C 0.19786 0.67689 0.96898 0.0
C450 C 0.36347 0.52539 0.88378 0.0
C451 C 0.35487 0.51781 0.85694 0.0
C452 C 0.3193 0.53847 0.84164 0.0
C453 C 0.29438 0.56674 0.85249 0.0
C454 C 0.30469 0.57455 0.87905 0.0
C455 C 0.33755 0.5537 0.89444 0.0
C456 C 0.34154 0.56558 0.92257 0.0
C457 C 0.3065 0.59724 0.92125 0.0
C458 C 0.2859 0.60246 0.89558 0.0
C459 C 0.40685 0.57246 0.92896 0.0
C460 C 0.31181 0.53937 0.94053 0.0
H461 H 0.18581 0.71654 0.92808 0.0
H462 H 0.18226 0.69339 0.83197 0.0
H463 H 0.14036 0.6297 0.85812 0.0
H464 H 0.1869 0.59557 0.85838 0.0
H465 H 0.18417 0.62165 0.82956 0.0
H466 H 0.31345 0.67118 0.85037 0.0
H467 H 0.26923 0.65631 0.82345 0.0
H468 H 0.31552 0.62902 0.84158 0.0
H469 H 0.29335 0.68717 1.01173 0.0
H470 H 0.37554 0.59301 0.02472 0.0
H471 H 0.35618 0.57722 0.97965 0.0
H472 H 0.34247 0.70118 0.95123 0.0
H473 H 0.29014 0.72262 0.97124 0.0
H474 H 0.28027 0.71872 0.93633 0.0
H475 H 0.18519 0.65713 0.98316 0.0
H476 H 0.16523 0.67465 0.95292 0.0
H477 H 0.19241 0.70098 0.97917 0.0
H478 H 0.13621 0.75391 0.89916 0.0
C479 C 0.18608 0.71087 0.90742 0.0
Tb480 Tb 0.07082 0.13812 0.24915 0.0
C481 C 0.82559 0.09448 0.2735 0.0
N482 N 0.84274 0.1267 0.2722 0.0
C483 C 0.76179 0.13838 0.2438 0.0
C484 C 0.77669 0.08266 0.25923 0.0
C485 C 0.81109 0.14886 0.25805 0.0
C486 C 0.74475 0.10509 0.24422 0.0
C487 C 0.84232 0.03958 0.29043 0.0
C488 C 0.85865 0.07323 0.28855 0.0
C489 C 0.79454 0.02741 0.27572 0.0
C490 C 0.7618 0.0489 0.26015 0.0
Tb491 Tb 0.92543 0.14096 0.29503 0.0
N492 N 0.9055 0.08577 0.30202 0.0
C493 C 0.87351 0.01941 0.30758 0.0
C494 C 0.93093 0.06705 0.32113 0.0
C495 C 0.91702 0.03343 0.32351 0.0
H496 H 0.82442 0.17448 0.2575 0.0
H497 H 0.93896 0.01856 0.33807 0.0
H498 H 0.14629 0.07162 0.2648 0.0
H499 H 0.13 0.26776 0.24437 0.0
H500 H 0.96071 0.07792 0.33524 0.0
H501 H 0.86249 0.99342 0.30958 0.0
H502 H 0.06489 0.21929 0.23849 0.0
H503 H 0.73721 0.15594 0.23237 0.0
H504 H 0.78196 1.00153 0.2766 0.0
H505 H 0.72482 0.03922 0.24905 0.0
H506 H 0.24459 0.05955 0.28237 0.0
H507 H 0.7069 0.09698 0.23295 0.0
H508 H 0.22996 0.26083 0.2621 0.0
N509 N 0.16101 0.12359 0.26394 0.0
C510 C 0.19972 0.14891 0.26789 0.0
C511 C 0.23244 0.08481 0.27846 0.0
C512 C 0.25655 0.14316 0.27744 0.0
C513 C 0.17662 0.09174 0.26877 0.0
C514 C 0.27255 0.11062 0.28288 0.0
N515 N 0.12636 0.18521 0.25369 0.0
C516 C 0.10801 0.21587 0.2465 0.0
C517 C 0.2209 0.20774 0.26588 0.0
C518 C 0.18213 0.18075 0.2623 0.0
C519 C 0.2015 0.2394 0.25962 0.0
C520 C 0.14501 0.24343 0.24967 0.0
H521 H 0.31579 0.10516 0.29032 0.0
H522 H 0.33923 0.16611 0.28865 0.0
H523 H 0.30804 0.22264 0.27846 0.0
O524 O 0.05335 0.14415 0.20876 0.0
O525 O 0.07765 0.16788 0.28519 0.0
O526 O 0.98553 0.18293 0.30069 0.0
O527 O 0.12825 0.11697 0.2215 0.0
O528 O 0.9995 0.17 0.23608 0.0
O529 O 0.93615 0.1848 0.27027 0.0
O530 O 0.90472 0.13821 0.33575 0.0
O531 O 0.92451 0.12319 0.25384 0.0
O532 O 0.01068 0.09602 0.2503 0.0
O533 O 0.85694 0.1704 0.30952 0.0
O534 O 0.00774 0.1222 0.31164 0.0
O535 O 0.05006 0.09748 0.27574 0.0
C536 C 0.04304 0.1856 0.30022 0.0
C537 C 0.1368 0.14627 0.18147 0.0
C538 C 0.16449 0.15426 0.13543 0.0
C539 C 0.20216 0.18028 0.14305 0.0
C540 C 0.17548 0.17197 0.18868 0.0
C541 C 0.20777 0.18893 0.16957 0.0
C542 C 0.13171 0.13731 0.15477 0.0
C543 C 0.95777 0.18845 0.24625 0.0
C544 C 0.10075 0.12912 0.20141 0.0
C545 C 0.29537 0.17 0.28126 0.0
C546 C 0.2776 0.2022 0.27548 0.0
C547 C 0.95503 0.09852 0.24469 0.0
C548 C 0.82704 0.17114 0.35567 0.0
C549 C 0.79919 0.1696 0.40237 0.0
C550 C 0.76057 0.19576 0.39778 0.0
C551 C 0.78779 0.19706 0.35175 0.0
C552 C 0.83245 0.15734 0.38107 0.0
C553 C 0.75488 0.20923 0.37269 0.0
C554 C 0.04534 0.1014 0.30134 0.0
C555 C 0.8636 0.1598 0.3334 0.0
H556 H 0.22794 0.19357 0.1285 0.0
H557 H 0.18091 0.17899 0.209 0.0
H558 H 0.23734 0.20878 0.17533 0.0
H559 H 0.10194 0.11747 0.14902 0.0
H560 H 0.73505 0.20609 0.41374 0.0
H561 H 0.78296 0.20825 0.33252 0.0
H562 H 0.86202 0.13702 0.38419 0.0
H563 H 0.72509 0.22939 0.3695 0.0
Tb564 Tb 0.43476 0.36738 0.74764 0.0
C565 C 0.68916 0.39813 0.77763 0.0
N566 N 0.66237 0.368 0.77615 0.0
C567 C 0.7435 0.34676 0.75169 0.0
C568 C 0.7433 0.40417 0.76511 0.0
C569 C 0.68937 0.34208 0.76418 0.0
C570 C 0.77036 0.37801 0.75195 0.0
C571 C 0.68708 0.45476 0.79307 0.0
C572 C 0.66111 0.42303 0.79133 0.0
C573 C 0.74039 0.46124 0.78006 0.0
C574 C 0.76848 0.43599 0.76615 0.0
Tb575 Tb 0.57453 0.36289 0.79713 0.0
N576 N 0.6094 0.4158 0.80361 0.0
C577 C 0.65944 0.47876 0.80837 0.0
C578 C 0.58535 0.43833 0.82043 0.0
C579 C 0.60896 0.4703 0.82249 0.0
H580 H 0.66936 0.31777 0.76428 0.0
H581 H 0.58885 0.48821 0.83542 0.0
H582 H 0.34982 0.42159 0.78004 0.0
H583 H 0.37906 0.2509 0.7031 0.0
H584 H 0.54925 0.4317 0.83308 0.0
H585 H 0.67792 0.50346 0.81021 0.0
H586 H 0.4419 0.29981 0.71238 0.0
H587 H 0.76446 0.32629 0.74189 0.0
H588 H 0.76075 0.48555 0.78101 0.0
H589 H 0.80988 0.44125 0.75647 0.0
H590 H 0.25792 0.41984 0.805 0.0
H591 H 0.81209 0.38161 0.7421 0.0
H592 H 0.28406 0.24402 0.72617 0.0
N593 N 0.34799 0.37023 0.7704 0.0
C594 C 0.31348 0.3426 0.76913 0.0
C595 C 0.27355 0.3977 0.79543 0.0
C596 C 0.2583 0.34115 0.78162 0.0
C597 C 0.32697 0.39828 0.78191 0.0
C598 C 0.23946 0.36883 0.79567 0.0
N599 N 0.38413 0.31943 0.74113 0.0
C600 C 0.40121 0.29654 0.72298 0.0
C601 C 0.29423 0.2892 0.74881 0.0
C602 C 0.33142 0.31667 0.75337 0.0
C603 C 0.31172 0.26531 0.73049 0.0
C604 C 0.36541 0.26906 0.71747 0.0
H605 H 0.19743 0.36871 0.80561 0.0
H606 H 0.18019 0.31121 0.78818 0.0
H607 H 0.21136 0.26589 0.75911 0.0
O608 O 0.44617 0.36998 0.7064 0.0
O609 O 0.44295 0.32384 0.77334 0.0
O610 O 0.48722 0.34658 0.80966 0.0
O611 O 0.37248 0.39251 0.72511 0.0
O612 O 0.51302 0.34191 0.73354 0.0
O613 O 0.56038 0.32041 0.77045 0.0
O614 O 0.61786 0.36746 0.83368 0.0
O615 O 0.58479 0.38326 0.75701 0.0
O616 O 0.49698 0.40826 0.75192 0.0
O617 O 0.60993 0.32043 0.81445 0.0
O618 O 0.49593 0.38775 0.81241 0.0
O619 O 0.45031 0.40865 0.77523 0.0
C620 C 0.45585 0.32301 0.79859 0.0
C621 C 0.35742 0.36994 0.68258 0.0
C622 C 0.33307 0.36057 0.63631 0.0
C623 C 0.2855 0.34049 0.64401 0.0
C624 C 0.30809 0.3509 0.68982 0.0
C625 C 0.27297 0.33587 0.67065 0.0
C626 C 0.36936 0.37505 0.65569 0.0
C627 C 0.54661 0.32 0.7451 0.0
C628 C 0.39649 0.38459 0.70277 0.0
C629 C 0.22258 0.31283 0.77861 0.0
C630 C 0.24027 0.28703 0.76204 0.0
C631 C 0.55252 0.40601 0.74612 0.0
C632 C 0.60571 0.32106 0.86148 0.0
C633 C 0.60158 0.32278 0.90981 0.0
C634 C 0.56638 0.29408 0.9095 0.0
C635 C 0.57115 0.29203 0.86186 0.0
C636 C 0.62165 0.33607 0.88571 0.0
C637 C 0.55173 0.27873 0.88571 0.0
C638 C 0.4604 0.40869 0.80085 0.0
C639 C 0.62486 0.33585 0.83605 0.0
H640 H 0.25701 0.3292 0.62938 0.0
H641 H 0.29626 0.34778 0.71024 0.0
H642 H 0.23543 0.32097 0.67647 0.0
H643 H 0.40654 0.3903 0.64984 0.0
H644 H 0.55073 0.28331 0.92776 0.0
H645 H 0.55856 0.27965 0.84374 0.0
H646 H 0.64873 0.35828 0.88581 0.0
H647 H 0.52495 0.25645 0.88574 0.0
Tb648 Tb 0.07253 0.86267 0.74343 0.0
C649 C 0.80258 0.84711 0.76726 0.0
N650 N 0.83689 0.87442 0.77111 0.0
C651 C 0.76177 0.90867 0.75344 0.0
C652 C 0.74647 0.84951 0.75598 0.0
C653 C 0.81732 0.90503 0.76456 0.0
C654 C 0.72621 0.8808 0.74909 0.0
C655 C 0.79154 0.78745 0.76932 0.0
C656 C 0.82482 0.81647 0.77385 0.0
C657 C 0.73539 0.78971 0.75824 0.0
C658 C 0.7129 0.82065 0.75162 0.0
Tb659 Tb 0.92673 0.86517 0.78884 0.0
N660 N 0.88038 0.81515 0.78349 0.0
C661 C 0.81603 0.75703 0.77578 0.0
C662 C 0.90329 0.7857 0.791 0.0
C663 C 0.87192 0.7562 0.78689 0.0
H664 H 0.84411 0.92674 0.76829 0.0
H665 H 0.89075 0.73285 0.79245 0.0
H666 H 0.16518 0.81706 0.77717 0.0
H667 H 0.08471 0.99022 0.71095 0.0
H668 H 0.94532 0.78466 0.80037 0.0
H669 H 0.792 0.73412 0.77249 0.0
H670 H 0.04739 0.93318 0.71029 0.0
H671 H 0.74639 0.93296 0.74826 0.0
H672 H 0.70917 0.76766 0.75456 0.0
H673 H 0.66966 0.82198 0.74294 0.0
H674 H 0.2577 0.82554 0.80158 0.0
H675 H 0.68331 0.88371 0.74037 0.0
H676 H 0.17161 0.00489 0.73782 0.0
N677 N 0.15905 0.86734 0.76566 0.0
C678 C 0.18507 0.89774 0.76559 0.0
C679 C 0.2376 0.84609 0.79163 0.0
C680 C 0.23792 0.90372 0.77921 0.0
C681 C 0.18491 0.84142 0.77801 0.0
C682 C 0.26411 0.8774 0.79234 0.0
N683 N 0.10552 0.91636 0.74006 0.0
C684 C 0.08205 0.93951 0.72379 0.0
C685 C 0.18173 0.95526 0.75274 0.0
C686 C 0.15683 0.92319 0.75277 0.0
C687 C 0.15396 0.97992 0.73835 0.0
C688 C 0.10462 0.9718 0.72335 0.0
H689 H 0.30469 0.88099 0.80309 0.0
H690 H 0.30246 0.94098 0.79027 0.0
H691 H 0.2535 0.98608 0.76695 0.0
O692 O 0.08652 0.86625 0.70189 0.0
O693 O 0.07759 0.88275 0.78383 0.0
O694 O 0.98869 0.90685 0.79178 0.0
O695 O 0.13755 0.8335 0.72645 0.0
O696 O 0.99364 0.88717 0.72823 0.0
O697 O 0.94829 0.90865 0.76528 0.0
O698 O 0.92244 0.85112 0.82871 0.0
O699 O 0.91982 0.84255 0.74934 0.0
O700 O 0.0107 0.82129 0.73991 0.0
O701 O 0.86875 0.89007 0.81412 0.0
O702 O 0.00323 0.83879 0.80351 0.0
O703 O 0.05425 0.81875 0.76733 0.0
C704 C 0.04589 0.90591 0.7947 0.0
C705 C 0.16274 0.83323 0.68009 0.0
C706 C 0.18287 0.83103 0.63283 0.0
C707 C 0.22806 0.80869 0.63756 0.0
C708 C 0.20849 0.81092 0.68428 0.0
C709 C 0.24088 0.79883 0.66315 0.0
C710 C 0.15029 0.84353 0.65416 0.0
C711 C 0.95833 0.90842 0.73972 0.0
C712 C 0.12827 0.84474 0.70298 0.0
C713 C 0.26211 0.9358 0.77973 0.0
C714 C 0.23405 0.96151 0.76656 0.0
C715 C 0.9537 0.82182 0.73671 0.0
C716 C 0.90206 0.89442 0.85811 0.0
C717 C 0.90354 0.90295 0.90585 0.0
C718 C 0.93814 0.93158 0.90209 0.0
C719 C 0.93644 0.9231 0.85494 0.0
C720 C 0.88517 0.8845 0.88366 0.0
C721 C 0.95441 0.94153 0.8768 0.0
C722 C 0.04075 0.81852 0.79257 0.0
C723 C 0.88578 0.87421 0.83494 0.0
H724 H 0.2535 0.79886 0.62136 0.0
H725 H 0.21923 0.80263 0.70394 0.0
H726 H 0.27587 0.78162 0.66661 0.0
H727 H 0.11512 0.86062 0.65051 0.0
H728 H 0.9521 0.9465 0.91876 0.0
H729 H 0.94928 0.93124 0.83554 0.0
H730 H 0.85875 0.8623 0.88628 0.0
H731 H 0.98098 0.96363 0.87412 0.0
Tb732 Tb 0.43863 0.63853 0.24249 0.0
C733 C 0.67407 0.69577 0.27682 0.0
N734 N 0.65952 0.66333 0.27435 0.0
C735 C 0.74821 0.6536 0.25043 0.0
C736 C 0.72492 0.70891 0.2649 0.0
C737 C 0.69674 0.64184 0.26236 0.0
C738 C 0.76183 0.68739 0.25127 0.0
C739 C 0.65287 0.74897 0.2961 0.0
C740 C 0.63835 0.71539 0.29204 0.0
C741 C 0.7018 0.76281 0.28314 0.0
C742 C 0.73782 0.74279 0.26757 0.0
Tb743 Tb 0.57417 0.64648 0.29367 0.0
N744 N 0.59203 0.70086 0.30448 0.0
C745 C 0.61936 0.76715 0.31395 0.0
C746 C 0.56317 0.71766 0.32386 0.0
C747 C 0.57523 0.7512 0.32836 0.0
H748 H 0.68606 0.61576 0.2616 0.0
H749 H 0.55086 0.76463 0.34314 0.0
H750 H 0.34535 0.69676 0.26323 0.0
H751 H 0.39912 0.5087 0.22551 0.0
H752 H 0.53097 0.70534 0.3361 0.0
H753 H 0.62895 0.79305 0.31763 0.0
H754 H 0.44965 0.5628 0.21942 0.0
H755 H 0.77707 0.63667 0.24042 0.0
H756 H 0.71326 0.78868 0.28573 0.0
H757 H 0.77633 0.75354 0.25829 0.0
H758 H 0.25661 0.69883 0.29074 0.0
H759 H 0.8015 0.69646 0.24187 0.0
H760 H 0.31336 0.50432 0.25534 0.0
N761 N 0.35224 0.6443 0.26521 0.0
C762 C 0.32363 0.6157 0.27135 0.0
C763 C 0.27555 0.67523 0.28581 0.0
C764 C 0.27159 0.61561 0.28631 0.0
C765 C 0.32668 0.67393 0.27062 0.0
C766 C 0.24859 0.64593 0.29422 0.0
N767 N 0.39356 0.58807 0.24592 0.0
C768 C 0.41195 0.56094 0.23227 0.0
C769 C 0.3144 0.55645 0.26513 0.0
C770 C 0.34434 0.58659 0.26087 0.0
C771 C 0.33509 0.52802 0.25258 0.0
C772 C 0.38351 0.53039 0.23572 0.0
H773 H 0.2087 0.64699 0.30576 0.0
H774 H 0.20347 0.5848 0.3037 0.0
H775 H 0.24123 0.53288 0.28522 0.0
O776 O 0.45122 0.63294 0.20166 0.0
O777 O 0.46142 0.59929 0.27014 0.0
O778 O 0.4905 0.62617 0.30751 0.0
O779 O 0.3706 0.65171 0.21684 0.0
O780 O 0.52072 0.61609 0.22938 0.0
O781 O 0.57453 0.60306 0.26719 0.0
O782 O 0.61705 0.65078 0.33067 0.0
O783 O 0.58381 0.66344 0.25249 0.0
O784 O 0.49315 0.68324 0.2421 0.0
O785 O 0.61364 0.60407 0.30929 0.0
O786 O 0.48864 0.66649 0.30531 0.0
O787 O 0.44745 0.68398 0.26625 0.0
C788 C 0.46247 0.6018 0.29583 0.0
C789 C 0.40133 0.67056 0.17515 0.0
C790 C 0.38956 0.68436 0.12887 0.0
C791 C 0.4002 0.71777 0.13486 0.0
C792 C 0.41275 0.70395 0.18097 0.0
C793 C 0.41215 0.72744 0.16083 0.0
C794 C 0.39032 0.66085 0.14907 0.0
C795 C 0.56042 0.59879 0.24203 0.0
C796 C 0.40084 0.64534 0.1958 0.0
C797 C 0.24307 0.58543 0.29191 0.0
C798 C 0.26444 0.55587 0.28132 0.0
C799 C 0.55016 0.68336 0.23904 0.0
C800 C 0.66485 0.60376 0.35137 0.0
C801 C 0.69636 0.59983 0.39733 0.0
C802 C 0.73122 0.57281 0.3905 0.0
C803 C 0.69937 0.57638 0.34516 0.0
C804 C 0.66319 0.61539 0.37763 0.0
C805 C 0.73246 0.56112 0.36461 0.0
C806 C 0.45497 0.68652 0.29193 0.0
C807 C 0.63108 0.61983 0.33029 0.0
H808 H 0.39976 0.73621 0.11945 0.0
H809 H 0.42184 0.71179 0.20101 0.0
H810 H 0.42085 0.75319 0.16536 0.0
H811 H 0.38189 0.63502 0.14448 0.0
H812 H 0.75698 0.56045 0.40533 0.0
H813 H 0.70128 0.56695 0.32517 0.0
H814 H 0.63639 0.63638 0.38271 0.0
H815 H 0.75918 0.54012 0.3596 0.0
C816 C 0.09841 0.01965 0.32704 0.0
C817 C 0.11699 0.02713 0.35289 0.0
C818 C 0.0775 0.04409 0.31027 0.0
C819 C 0.07263 0.07693 0.31882 0.0
H820 H 0.09894 0.99449 0.31971 0.0
H821 H 0.06329 0.03691 0.29072 0.0
S822 S 0.1177 0.11042 0.38386 0.0
N823 N 0.13242 0.07064 0.38554 0.0
N824 N 0.08936 0.11623 0.35434 0.0
C825 C 0.09101 0.08503 0.34447 0.0
C826 C 0.11388 0.06022 0.36144 0.0
C827 C 0.41112 0.49417 0.81934 0.0
C828 C 0.38452 0.48954 0.84413 0.0
C829 C 0.43613 0.46787 0.8057 0.0
C830 C 0.43642 0.43602 0.8165 0.0
H831 H 0.41232 0.51836 0.81027 0.0
H832 H 0.45546 0.47252 0.78652 0.0
S833 S 0.37323 0.41036 0.8806 0.0
N834 N 0.35984 0.4503 0.87882 0.0
N835 N 0.40899 0.40095 0.85332 0.0
C836 C 0.41165 0.431 0.8415 0.0
C837 C 0.38523 0.45776 0.85531 0.0
C838 C 0.57427 0.48473 0.70708 0.0
C839 C 0.62129 0.47733 0.69033 0.0
C840 C 0.55278 0.46148 0.72513 0.0
C841 C 0.57822 0.43015 0.72743 0.0
H842 H 0.5537 0.50866 0.70606 0.0
H843 H 0.51611 0.46823 0.73751 0.0
S844 S 0.70355 0.39917 0.68837 0.0
N845 N 0.69334 0.43695 0.67719 0.0
N846 N 0.65353 0.39316 0.71148 0.0
C847 C 0.62597 0.42264 0.71104 0.0
C848 C 0.64729 0.44624 0.69234 0.0
C849 C 0.85345 0.05284 0.19759 0.0
C850 C 0.86573 0.0196 0.20293 0.0
C851 C 0.88228 0.07844 0.21135 0.0
C852 C 0.92514 0.07148 0.23034 0.0
H853 H 0.82096 0.05902 0.18294 0.0
H854 H 0.87136 0.10379 0.20697 0.0
S855 S 0.97228 0.98852 0.25166 0.0
N856 N 0.92252 0.98108 0.22872 0.0
N857 N 0.97755 0.02913 0.25408 0.0
C858 C 0.93788 0.03837 0.23569 0.0
C859 C 0.90782 0.01241 0.22213 0.0
C860 C 0.91087 0.99371 0.71985 0.0
C861 C 0.88536 0.98869 0.69486 0.0
C862 C 0.93396 0.96752 0.73415 0.0
C863 C 0.93378 0.93533 0.72386 0.0
H864 H 0.91267 0.01815 0.7286 0.0
H865 H 0.95268 0.97261 0.75334 0.0
S866 S 0.87281 0.90845 0.65954 0.0
N867 N 0.86084 0.94861 0.66059 0.0
N868 N 0.90687 0.89949 0.68726 0.0
C869 C 0.91002 0.92986 0.69869 0.0
C870 C 0.88532 0.95652 0.68421 0.0
C871 C 0.62851 0.54985 0.18617 0.0
C872 C 0.63767 0.51878 0.19771 0.0
C873 C 0.6036 0.57574 0.20067 0.0
C874 C 0.58784 0.57159 0.2273 0.0
H875 H 0.64157 0.55437 0.16596 0.0
H876 H 0.59741 0.59931 0.1911 0.0
S877 S 0.59594 0.49424 0.26581 0.0
N878 N 0.62325 0.48459 0.23668 0.0
N879 N 0.57903 0.53367 0.26405 0.0
C880 C 0.59565 0.5406 0.23891 0.0
C881 C 0.61984 0.51409 0.22408 0.0
C882 C 0.41351 0.51602 0.31571 0.0
C883 C 0.38385 0.52141 0.33961 0.0
C884 C 0.43983 0.54217 0.30202 0.0
C885 C 0.43738 0.57469 0.31165 0.0
H886 H 0.41652 0.49134 0.30754 0.0
H887 H 0.46212 0.53687 0.28367 0.0
S888 S 0.36359 0.60222 0.3728 0.0
N889 N 0.35264 0.56179 0.37213 0.0
N890 N 0.40257 0.61111 0.34624 0.0
C891 C 0.40847 0.58049 0.33561 0.0
C892 C 0.3815 0.5538 0.34962 0.0
C893 C 0.15924 0.95018 0.83737 0.0
C894 C 0.13553 0.98175 0.84031 0.0
C895 C 0.12957 0.92567 0.82282 0.0
C896 C 0.07567 0.93204 0.81047 0.0
H897 H 0.20092 0.94448 0.84633 0.0
H898 H 0.14914 0.90158 0.82122 0.0
S899 S 0.99715 0.01174 0.81173 0.0
N900 N 0.05619 0.01857 0.82982 0.0
N901 N 1.00111 0.97298 0.80174 0.0
C902 C 0.052 0.96378 0.81324 0.0
C903 C 0.08186 0.98853 0.82831 0.0
C904 C 0.14831 0.16159 0.06134 0.0
C905 C 0.16398 0.13005 0.05216 0.0
C906 C 0.14692 0.16893 0.08834 0.0
C907 C 0.16049 0.14491 0.10723 0.0
H908 H 0.13772 0.18095 0.04752 0.0
H909 H 0.13584 0.19372 0.09451 0.0
S910 S 0.2048 0.05876 0.09388 0.0
N911 N 0.19408 0.0747 0.06438 0.0
N912 N 0.18986 0.08843 0.11517 0.0
C913 C 0.17473 0.11308 0.09849 0.0
C914 C 0.17681 0.10565 0.07096 0.0
C915 C 0.35165 0.34684 0.56289 0.0
C916 C 0.34342 0.37863 0.5524 0.0
C917 C 0.35057 0.34134 0.59016 0.0
C918 C 0.34217 0.36749 0.60797 0.0
H919 H 0.35795 0.32589 0.54991 0.0
H920 H 0.35521 0.31635 0.59738 0.0
S921 S 0.31843 0.45523 0.59113 0.0
N922 N 0.326 0.43658 0.56236 0.0
N923 N 0.32607 0.42619 0.61359 0.0
C924 C 0.33581 0.39949 0.59795 0.0
C925 C 0.33601 0.40509 0.57018 0.0
C926 C 0.68921 0.34884 0.97039 0.0
C927 C 0.64562 0.35988 0.98791 0.0
C928 C 0.6752 0.33843 0.94461 0.0
C929 C 0.61699 0.33821 0.93558 0.0
H930 H 0.73444 0.34801 0.97673 0.0
H931 H 0.70981 0.32939 0.93199 0.0
S932 S 0.48682 0.36516 0.97325 0.0
N933 N 0.54192 0.37052 0.99397 0.0
N934 N 0.51582 0.35068 0.94578 0.0
C935 C 0.57325 0.34971 0.95268 0.0
C936 C 0.5875 0.36065 0.97875 0.0
C937 C 0.75411 0.14062 0.47073 0.0
C938 C 0.80777 0.13648 0.48376 0.0
C939 C 0.75204 0.14982 0.44416 0.0
C940 C 0.80357 0.15566 0.4295 0.0
H941 H 0.71324 0.13718 0.48131 0.0
H942 H 0.70952 0.15305 0.43516 0.0
S943 S 0.95551 0.14756 0.45441 0.0
N944 N 0.91382 0.13786 0.47996 0.0
N945 N 0.91015 0.15589 0.43005 0.0
C946 C 0.85768 0.15059 0.44208 0.0
C947 C 0.85972 0.14088 0.46919 0.0
C948 C 0.81004 0.88719 0.96683 0.0
C949 C 0.85218 0.88694 0.98703 0.0
C950 C 0.82693 0.89027 0.94022 0.0
C951 C 0.88643 0.89327 0.93309 0.0
H952 H 0.76385 0.88692 0.97173 0.0
H953 H 0.79323 0.89224 0.92533 0.0
S954 S 0.01333 0.88881 0.97842 0.0
N955 N 0.95556 0.88628 0.99797 0.0
N956 N 0.98731 0.89178 0.94817 0.0
C957 C 0.92877 0.8907 0.95305 0.0
C958 C 0.91163 0.88762 0.97997 0.0
C959 C 0.74932 0.62737 0.46492 0.0
C960 C 0.69881 0.62409 0.48066 0.0
C961 C 0.74762 0.62065 0.43777 0.0
C962 C 0.69514 0.61103 0.42524 0.0
H963 H 0.79099 0.63393 0.47383 0.0
H964 H 0.78797 0.62229 0.42655 0.0
S965 S 0.54998 0.60096 0.45718 0.0
N966 N 0.59426 0.61199 0.4815 0.0
N967 N 0.59101 0.59986 0.43035 0.0
C968 C 0.64387 0.60894 0.4405 0.0
C969 C 0.64574 0.61528 0.46825 0.0
C970 C 0.31007 0.66883 0.06448 0.0
C971 C 0.35212 0.65228 0.04913 0.0
C972 C 0.32272 0.67955 0.09019 0.0
C973 C 0.3776 0.6738 0.10154 0.0
H974 H 0.26677 0.67328 0.05668 0.0
H975 H 0.28917 0.69205 0.10139 0.0
S976 S 0.5038 0.63306 0.06995 0.0
N977 N 0.45212 0.63214 0.04719 0.0
N978 N 0.47459 0.65125 0.09592 0.0
C979 C 0.42 0.65737 0.08666 0.0
C980 C 0.40757 0.64682 0.06036 0.0
C981 C 0.19492 0.87527 0.5675 0.0
C982 C 0.17471 0.85087 0.54973 0.0
C983 C 0.19311 0.86992 0.59488 0.0
C984 C 0.17058 0.84018 0.60522 0.0
H985 H 0.2156 0.89767 0.56018 0.0
H986 H 0.2127 0.88822 0.60791 0.0
S987 S 0.10425 0.77087 0.56736 0.0
N988 N 0.12526 0.79768 0.54465 0.0
N989 N 0.12238 0.78766 0.59598 0.0
C990 C 0.14649 0.81674 0.58778 0.0
C991 C 0.14837 0.8221 0.56004 0.0
C992 C 0.0714 0.26357 0.34025 0.0
C993 C 0.12538 0.2571 0.35233 0.0
C994 C 0.04443 0.24013 0.32363 0.0
C995 C 0.07136 0.20983 0.3181 0.0
H996 H 0.04983 0.28684 0.34379 0.0
H997 H 0.00279 0.24599 0.31469 0.0
S998 S 0.21323 0.1814 0.34484 0.0
N999 N 0.20481 0.21852 0.35779 0.0
N1000 N 0.15487 0.1746 0.32633 0.0
C1001 C 0.12557 0.20325 0.33002 0.0
C1002 C 0.15241 0.22685 0.34722 0.0
C1003 C 0.40811 0.27547 0.85973 0.0
C1004 C 0.38239 0.24619 0.84959 0.0
C1005 C 0.43115 0.30006 0.84313 0.0
C1006 C 0.43143 0.29621 0.81556 0.0
H1007 H 0.41114 0.27962 0.88076 0.0
H1008 H 0.44921 0.32225 0.85214 0.0
S1009 S 0.37439 0.22347 0.77849 0.0
N1010 N 0.3581 0.21552 0.80945 0.0
N1011 N 0.40874 0.25956 0.77892 0.0
C1012 C 0.40809 0.26669 0.80507 0.0
C1013 C 0.38204 0.24225 0.82187 0.0
C1014 C 0.62905 0.28124 0.68857 0.0
C1015 C 0.62126 0.24711 0.69294 0.0
C1016 C 0.6047 0.30464 0.70561 0.0
C1017 C 0.57306 0.29485 0.72806 0.0
H1018 H 0.65468 0.29005 0.67198 0.0
H1019 H 0.61123 0.33062 0.70136 0.0
S1020 S 0.53539 0.20925 0.74766 0.0
N1021 N 0.57479 0.20504 0.72056 0.0
N1022 N 0.53254 0.24937 0.75339 0.0
C1023 C 0.56464 0.26108 0.7328 0.0
C1024 C 0.58794 0.23713 0.71507 0.0
C1025 C 0.92336 0.23747 0.18423 0.0
C1026 C 0.87838 0.25857 0.1923 0.0
C1027 C 0.94932 0.21553 0.20192 0.0
C1028 C 0.93157 0.21369 0.22856 0.0
H1029 H 0.93912 0.23809 0.16409 0.0
H1030 H 0.98343 0.19973 0.19441 0.0
S1031 S 0.81482 0.26374 0.25966 0.0
N1032 N 0.81577 0.27566 0.2286 0.0
N1033 N 0.86655 0.23589 0.26215 0.0
C1034 C 0.88704 0.23507 0.23699 0.0
C1035 C 0.85997 0.25706 0.21882 0.0
C1036 C 0.84201 0.77652 0.69393 0.0
C1037 C 0.86517 0.74463 0.69221 0.0
C1038 C 0.87137 0.80157 0.7081 0.0
C1039 C 0.92519 0.79561 0.72067 0.0
H1040 H 0.80012 0.78181 0.68499 0.0
H1041 H 0.85153 0.82568 0.70943 0.0
S1042 S 0.00398 0.71606 0.72157 0.0
N1043 N 0.94469 0.70834 0.70387 0.0
N1044 N 1.0003 0.75532 0.73022 0.0
C1045 C 0.94923 0.76392 0.71853 0.0
C1046 C 0.91903 0.73843 0.7044 0.0
C1047 C 0.57777 0.76018 0.19823 0.0
C1048 C 0.62711 0.75191 0.18306 0.0
C1049 C 0.55259 0.73758 0.21592 0.0
C1050 C 0.57651 0.70611 0.21949 0.0
H1051 H 0.55875 0.78445 0.19653 0.0
H1052 H 0.51485 0.7451 0.22728 0.0
S1053 S 0.703 0.67156 0.18331 0.0
N1054 N 0.69739 0.70956 0.17191 0.0
N1055 N 0.64986 0.66699 0.20517 0.0
C1056 C 0.62496 0.69722 0.20404 0.0
C1057 C 0.65025 0.72013 0.18578 0.0
C1058 C 0.36189 0.73258 0.34128 0.0
C1059 C 0.37103 0.76591 0.33414 0.0
C1060 C 0.38981 0.70693 0.32773 0.0
C1061 C 0.4264 0.71364 0.30611 0.0
H1062 H 0.33214 0.72613 0.35715 0.0
H1063 H 0.38155 0.68164 0.33376 0.0
S1064 S 0.47052 0.79597 0.281 0.0
N1065 N 0.42522 0.80387 0.30555 0.0
N1066 N 0.4735 0.75533 0.27898 0.0
C1067 C 0.43652 0.74653 0.29884 0.0
C1068 C 0.40992 0.77275 0.31314 0.0
C1069 C 0.0958 0.73973 0.82306 0.0
C1070 C 0.12865 0.75139 0.84484 0.0
C1071 C 0.0685 0.76158 0.80572 0.0
C1072 C 0.0715 0.79576 0.81007 0.0
H1073 H 0.09033 0.71348 0.8195 0.0
H1074 H 0.04359 0.75167 0.78926 0.0
S1075 S 0.15508 0.8396 0.86228 0.0
N1076 N 0.1667 0.80008 0.86789 0.0
N1077 N 0.11091 0.84068 0.8366 0.0
C1078 C 0.10398 0.80789 0.8315 0.0
C1079 C 0.1336 0.78583 0.8486 0.0
loop_
_geom_bond_atom_site_label_1
_geom_bond_atom_site_label_2
_geom_bond_distance
_geom_bond_site_symmetry_2
_ccdc_geom_bond_type
C0 C1 1.391 . S
C0 C4 1.391 . S
C0 H42 0.948 . S
C1 C0 1.391 . S
C1 C2 1.391 . S
C2 C1 1.391 . S
C2 H58 0.947 . S
C2 C59 1.392 . S
C3 C4 1.391 . S
C3 C7 1.397 . S
C3 C59 1.419 . S
C4 C0 1.391 . S
C4 C3 1.391 . S
C4 C5 1.399 . S
C5 C4 1.399 . S
C5 C8 1.396 . S
C5 C17 1.453 . S
C5 C18 1.684 . S
H6 C30 0.948 . S
C7 C3 1.397 . S
C7 C8 1.394 . S
C7 C26 1.723 . S
C8 C5 1.396 . S
C8 C7 1.394 . S
C8 C38 1.723 . S
H9 C32 0.947 . S
H10 C33 0.948 . S
H11 C39 0.982 . S
H12 C40 0.979 . S
H13 C40 0.980 . S
H14 C40 0.983 . S
H15 C39 0.979 . S
H16 C39 0.977 . S
C17 C5 1.453 . S
C17 H46 0.982 . S
C17 H47 0.979 . S
C17 H48 0.977 . S
C18 C5 1.684 . S
C18 H43 0.979 . S
C18 H44 0.980 . S
C18 H45 0.983 . S
C19 C20 1.391 . S
C19 C24 1.391 . S
C19 H49 0.948 . S
C20 C19 1.391 . S
C20 C21 1.391 . S
C21 C20 1.391 . S
C21 C22 1.392 . S
C21 H50 0.947 . S
C22 C21 1.392 . S
C22 C23 1.419 . S
C22 H51 0.948 . S
C23 C22 1.419 . S
C23 C24 1.391 . S
C23 C27 1.397 . S
C24 C19 1.391 . S
C24 C23 1.391 . S
C24 C25 1.399 . S
C25 C24 1.399 . S
C25 C26 1.396 . S
C25 C28 1.453 . S
C25 C29 1.684 . S
C26 C7 1.723 . S
C26 C25 1.396 . S
C26 C27 1.394 . S
C27 C23 1.397 . S
C27 C26 1.394 . S
C27 C37 1.723 . S
C28 C25 1.453 . S
C28 H52 0.982 . S
C28 H53 0.979 . S
C28 H54 0.977 . S
C29 C25 1.684 . S
C29 H55 0.979 . S
C29 H56 0.980 . S
C29 H57 0.983 . S
C30 H6 0.948 . S
C30 C31 1.391 . S
C30 C35 1.391 . S
C31 C30 1.391 . S
C31 C32 1.391 . S
C32 H9 0.947 . S
C32 C31 1.391 . S
C32 C33 1.392 . S
C33 H10 0.948 . S
C33 C32 1.392 . S
C33 C34 1.419 . S
C34 C33 1.419 . S
C34 C35 1.391 . S
C34 C38 1.397 . S
C35 C30 1.391 . S
C35 C34 1.391 . S
C35 C36 1.399 . S
C36 C35 1.399 . S
C36 C37 1.396 . S
C36 C39 1.453 . S
C36 C40 1.684 . S
C37 C27 1.723 . S
C37 C36 1.396 . S
C37 C38 1.394 . S
C38 C8 1.723 . S
C38 C34 1.397 . S
C38 C37 1.394 . S
C39 H11 0.982 . S
C39 H15 0.979 . S
C39 H16 0.977 . S
C39 C36 1.453 . S
C40 H12 0.979 . S
C40 H13 0.980 . S
C40 H14 0.983 . S
C40 C36 1.684 . S
H41 C59 0.948 . S
H42 C0 0.948 . S
H43 C18 0.979 . S
H44 C18 0.980 . S
H45 C18 0.983 . S
H46 C17 0.982 . S
H47 C17 0.979 . S
H48 C17 0.977 . S
H49 C19 0.948 . S
H50 C21 0.947 . S
H51 C22 0.948 . S
H52 C28 0.982 . S
H53 C28 0.979 . S
H54 C28 0.977 . S
H55 C29 0.979 . S
H56 C29 0.980 . S
H57 C29 0.983 . S
H58 C2 0.947 . S
C59 C2 1.392 . S
C59 C3 1.419 . S
C59 H41 0.948 . S
C60 C61 1.391 . S
C60 C64 1.391 . S
C60 H102 0.948 . S
C61 C60 1.391 . S
C61 C62 1.391 . S
C62 C61 1.391 . S
C62 H118 0.947 . S
C62 C119 1.392 . S
C63 C64 1.391 . S
C63 C67 1.397 . S
C63 C119 1.419 . S
C64 C60 1.391 . S
C64 C63 1.391 . S
C64 C65 1.399 . S
C65 C64 1.399 . S
C65 C68 1.396 . S
C65 C77 1.453 . S
C65 C78 1.684 . S
H66 C90 0.948 1_565 S
C67 C63 1.397 . S
C67 C68 1.394 . S
C67 C86 1.723 . S
C68 C65 1.396 . S
C68 C67 1.394 . S
C68 C98 1.723 . S
H69 C92 0.947 . S
H70 C93 0.948 . S
H71 C99 0.982 . S
H72 C100 0.979 . S
H73 C100 0.980 . S
H74 C100 0.983 . S
H75 C99 0.979 . S
H76 C99 0.977 . S
C77 C65 1.453 . S
C77 H106 0.982 . S
C77 H107 0.979 . S
C77 H108 0.977 . S
C78 C65 1.684 . S
C78 H103 0.979 . S
C78 H104 0.980 . S
C78 H105 0.983 . S
C79 C80 1.391 1_556 S
C79 C84 1.391 . S
C79 H109 0.948 . S
C80 C79 1.391 1_554 S
C80 C81 1.391 1_554 S
C81 C80 1.391 1_556 S
C81 C82 1.392 . S
C81 H110 0.947 1_556 S
C82 C81 1.392 . S
C82 C83 1.419 . S
C82 H111 0.948 . S
C83 C82 1.419 . S
C83 C84 1.391 . S
C83 C87 1.397 . S
C84 C79 1.391 . S
C84 C83 1.391 . S
C84 C85 1.399 . S
C85 C84 1.399 . S
C85 C86 1.396 . S
C85 C88 1.453 . S
C85 C89 1.684 . S
C86 C67 1.723 . S
C86 C85 1.396 . S
C86 C87 1.394 . S
C87 C83 1.397 . S
C87 C86 1.394 . S
C87 C97 1.723 . S
C88 C85 1.453 . S
C88 H112 0.982 . S
C88 H113 0.979 . S
C88 H114 0.977 . S
C89 C85 1.684 . S
C89 H115 0.979 . S
C89 H116 0.980 . S
C89 H117 0.983 . S
C90 H66 0.948 1_545 S
C90 C91 1.391 . S
C90 C95 1.391 . S
C91 C90 1.391 . S
C91 C92 1.391 . S
C92 H69 0.947 . S
C92 C91 1.391 . S
C92 C93 1.392 . S
C93 H70 0.948 . S
C93 C92 1.392 . S
C93 C94 1.419 . S
C94 C93 1.419 . S
C94 C95 1.391 . S
C94 C98 1.397 . S
C95 C90 1.391 . S
C95 C94 1.391 . S
C95 C96 1.399 . S
C96 C95 1.399 . S
C96 C97 1.396 . S
C96 C99 1.453 . S
C96 C100 1.684 . S
C97 C87 1.723 . S
C97 C96 1.396 . S
C97 C98 1.394 . S
C98 C68 1.723 . S
C98 C94 1.397 . S
C98 C97 1.394 . S
C99 H71 0.982 . S
C99 H75 0.979 . S
C99 H76 0.977 . S
C99 C96 1.453 . S
C100 H72 0.979 . S
C100 H73 0.980 . S
C100 H74 0.983 . S
C100 C96 1.684 . S
H101 C119 0.948 . S
H102 C60 0.948 . S
H103 C78 0.979 . S
H104 C78 0.980 . S
H105 C78 0.983 . S
H106 C77 0.982 . S
H107 C77 0.979 . S
H108 C77 0.977 . S
H109 C79 0.948 . S
H110 C81 0.947 1_554 S
H111 C82 0.948 . S
H112 C88 0.982 . S
H113 C88 0.979 . S
H114 C88 0.977 . S
H115 C89 0.979 . S
H116 C89 0.980 . S
H117 C89 0.983 . S
H118 C62 0.947 . S
C119 C62 1.392 . S
C119 C63 1.419 . S
C119 H101 0.948 . S
C120 C121 1.391 . S
C120 C124 1.391 . S
C120 H162 0.948 . S
C121 C120 1.391 . S
C121 C122 1.391 . S
C122 C121 1.391 . S
C122 H178 0.947 . S
C122 C179 1.392 . S
C123 C124 1.391 . S
C123 C127 1.397 . S
C123 C179 1.419 . S
C124 C120 1.391 . S
C124 C123 1.391 . S
C124 C125 1.399 . S
C125 C124 1.399 . S
C125 C128 1.396 . S
C125 C137 1.453 . S
C125 C138 1.684 . S
H126 C150 0.948 . S
C127 C123 1.397 . S
C127 C128 1.394 . S
C127 C146 1.723 . S
C128 C125 1.396 . S
C128 C127 1.394 . S
C128 C158 1.723 . S
H129 C152 0.947 . S
H130 C153 0.948 . S
H131 C159 0.982 . S
H132 C160 0.979 . S
H133 C160 0.980 . S
H134 C160 0.983 . S
H135 C159 0.979 . S
H136 C159 0.977 . S
C137 C125 1.453 . S
C137 H166 0.982 . S
C137 H167 0.979 . S
C137 H168 0.977 . S
C138 C125 1.684 . S
C138 H163 0.979 . S
C138 H164 0.980 . S
C138 H165 0.983 . S
C139 C140 1.391 . S
C139 C144 1.391 . S
C139 H169 0.935 1_545 S
C140 C139 1.391 . S
C140 C141 1.391 . S
C141 C140 1.391 . S
C141 C142 1.392 . S
C141 H170 0.947 . S
C142 C141 1.392 . S
C142 C143 1.419 . S
C142 H171 0.948 . S
C143 C142 1.419 . S
C143 C144 1.391 . S
C143 C147 1.397 . S
C144 C139 1.391 . S
C144 C143 1.391 . S
C144 C145 1.399 . S
C145 C144 1.399 . S
C145 C146 1.396 . S
C145 C148 1.453 . S
C145 C149 1.684 . S
C146 C127 1.723 . S
C146 C145 1.396 . S
C146 C147 1.394 . S
C147 C143 1.397 . S
C147 C146 1.394 . S
C147 C157 1.723 . S
C148 C145 1.453 . S
C148 H172 0.982 . S
C148 H173 0.979 . S
C148 H174 0.977 . S
C149 C145 1.684 . S
C149 H175 0.979 . S
C149 H176 0.980 . S
C149 H177 0.983 . S
C150 H126 0.948 . S
C150 C151 1.391 . S
C150 C155 1.391 . S
C151 C150 1.391 . S
C151 C152 1.391 . S
C152 H129 0.947 . S
C152 C151 1.391 . S
C152 C153 1.392 . S
C153 H130 0.948 . S
C153 C152 1.392 . S
C153 C154 1.419 . S
C154 C153 1.419 . S
C154 C155 1.391 . S
C154 C158 1.397 . S
C155 C150 1.391 . S
C155 C154 1.391 . S
C155 C156 1.399 . S
C156 C155 1.399 . S
C156 C157 1.396 . S
C156 C159 1.453 . S
C156 C160 1.684 . S
C157 C147 1.723 . S
C157 C156 1.396 . S
C157 C158 1.394 . S
C158 C128 1.723 . S
C158 C154 1.397 . S
C158 C157 1.394 . S
C159 H131 0.982 . S
C159 H135 0.979 . S
C159 H136 0.977 . S
C159 C156 1.453 . S
C160 H132 0.979 . S
C160 H133 0.980 . S
C160 H134 0.983 . S
C160 C156 1.684 . S
H161 C179 0.948 . S
H162 C120 0.948 . S
H163 C138 0.979 . S
H164 C138 0.980 . S
H165 C138 0.983 . S
H166 C137 0.982 . S
H167 C137 0.979 . S
H168 C137 0.977 . S
H169 C139 0.935 1_565 S
H170 C141 0.947 . S
H171 C142 0.948 . S
H172 C148 0.982 . S
H173 C148 0.979 . S
H174 C148 0.977 . S
H175 C149 0.979 . S
H176 C149 0.980 . S
H177 C149 0.983 . S
H178 C122 0.947 . S
C179 C122 1.392 . S
C179 C123 1.419 . S
C179 H161 0.948 . S
C180 C181 1.391 . S
C180 C184 1.391 . S
C180 H222 0.948 . S
C181 C180 1.391 . S
C181 C182 1.391 . S
C182 C181 1.391 . S
C182 H238 0.947 . S
C182 C239 1.392 . S
C183 C184 1.391 . S
C183 C187 1.397 . S
C183 C239 1.419 . S
C184 C180 1.391 . S
C184 C183 1.391 . S
C184 C185 1.399 . S
C185 C184 1.399 . S
C185 C188 1.396 . S
C185 C197 1.453 . S
C185 C198 1.684 . S
H186 C210 0.948 . S
C187 C183 1.397 . S
C187 C188 1.394 . S
C187 C206 1.723 . S
C188 C185 1.396 . S
C188 C187 1.394 . S
C188 C218 1.723 . S
H189 C212 0.947 . S
H190 C213 0.948 . S
H191 C219 0.982 . S
H192 C220 0.979 . S
H193 C220 0.980 . S
H194 C220 0.983 . S
H195 C219 0.979 . S
H196 C219 0.977 . S
C197 C185 1.453 . S
C197 H226 0.982 . S
C197 H227 0.979 . S
C197 H228 0.977 . S
C198 C185 1.684 . S
C198 H223 0.979 . S
C198 H224 0.980 . S
C198 H225 0.983 . S
C199 C200 1.388 1_554 S
C199 C204 1.391 . S
C199 H229 0.948 . S
C200 C199 1.388 1_556 S
C200 C201 1.388 1_556 S
C201 C200 1.388 1_554 S
C201 C202 1.392 . S
C201 H230 0.947 . S
C202 C201 1.392 . S
C202 C203 1.419 . S
C202 H231 0.948 . S
C203 C202 1.419 . S
C203 C204 1.391 . S
C203 C207 1.397 . S
C204 C199 1.391 . S
C204 C203 1.391 . S
C204 C205 1.399 . S
C205 C204 1.399 . S
C205 C206 1.396 . S
C205 C208 1.453 . S
C205 C209 1.684 . S
C206 C187 1.723 . S
C206 C205 1.396 . S
C206 C207 1.394 . S
C207 C203 1.397 . S
C207 C206 1.394 . S
C207 C217 1.723 . S
C208 C205 1.453 . S
C208 H232 0.982 . S
C208 H233 0.979 . S
C208 H234 0.977 . S
C209 C205 1.684 . S
C209 H235 0.979 . S
C209 H236 0.980 . S
C209 H237 0.983 . S
C210 H186 0.948 . S
C210 C211 1.391 . S
C210 C215 1.391 . S
C211 C210 1.391 . S
C211 C212 1.391 . S
C212 H189 0.947 . S
C212 C211 1.391 . S
C212 C213 1.392 . S
C213 H190 0.948 . S
C213 C212 1.392 . S
C213 C214 1.419 . S
C214 C213 1.419 . S
C214 C215 1.391 . S
C214 C218 1.397 . S
C215 C210 1.391 . S
C215 C214 1.391 . S
C215 C216 1.399 . S
C216 C215 1.399 . S
C216 C217 1.396 . S
C216 C219 1.453 . S
C216 C220 1.684 . S
C217 C207 1.723 . S
C217 C216 1.396 . S
C217 C218 1.394 . S
C218 C188 1.723 . S
C218 C214 1.397 . S
C218 C217 1.394 . S
C219 H191 0.982 . S
C219 H195 0.979 . S
C219 H196 0.977 . S
C219 C216 1.453 . S
C220 H192 0.979 . S
C220 H193 0.980 . S
C220 H194 0.983 . S
C220 C216 1.684 . S
H221 C239 0.948 . S
H222 C180 0.948 . S
H223 C198 0.979 . S
H224 C198 0.980 . S
H225 C198 0.983 . S
H226 C197 0.982 . S
H227 C197 0.979 . S
H228 C197 0.977 . S
H229 C199 0.948 . S
H230 C201 0.947 . S
H231 C202 0.948 . S
H232 C208 0.982 . S
H233 C208 0.979 . S
H234 C208 0.977 . S
H235 C209 0.979 . S
H236 C209 0.980 . S
H237 C209 0.983 . S
H238 C182 0.947 . S
C239 C182 1.392 . S
C239 C183 1.419 . S
C239 H221 0.948 . S
C240 C241 1.391 . S
C240 C244 1.391 . S
C240 H282 0.948 . S
C241 C240 1.391 . S
C241 C242 1.391 . S
C242 C241 1.391 . S
C242 H298 0.947 . S
C242 C299 1.392 . S
C243 C244 1.391 . S
C243 C247 1.397 . S
C243 C299 1.419 . S
C244 C240 1.391 . S
C244 C243 1.391 . S
C244 C245 1.399 . S
C245 C244 1.399 . S
C245 C248 1.396 . S
C245 C257 1.453 . S
C245 C258 1.684 . S
H246 C270 0.948 . S
C247 C243 1.397 . S
C247 C248 1.394 . S
C247 C266 1.723 . S
C248 C245 1.396 . S
C248 C247 1.394 . S
C248 C278 1.723 . S
H249 C272 0.947 . S
H250 C273 0.948 . S
H251 C279 0.982 . S
H252 C280 0.979 . S
H253 C280 0.980 . S
H254 C280 0.983 . S
H255 C279 0.979 . S
H256 C279 0.977 . S
C257 C245 1.453 . S
C257 H286 0.982 . S
C257 H287 0.979 . S
C257 H288 0.977 . S
C258 C245 1.684 . S
C258 H283 0.979 . S
C258 H284 0.980 . S
C258 H285 0.983 . S
C259 C260 1.391 . S
C259 C264 1.391 . S
C259 H289 0.948 . S
C260 C259 1.391 . S
C260 C261 1.391 . S
C261 C260 1.391 . S
C261 C262 1.392 . S
C261 H290 0.947 . S
C262 C261 1.392 . S
C262 C263 1.419 . S
C262 H291 0.948 . S
C263 C262 1.419 . S
C263 C264 1.391 . S
C263 C267 1.397 . S
C264 C259 1.391 . S
C264 C263 1.391 . S
C264 C265 1.399 . S
C265 C264 1.399 . S
C265 C266 1.396 . S
C265 C268 1.453 . S
C265 C269 1.684 . S
C266 C247 1.723 . S
C266 C265 1.396 . S
C266 C267 1.394 . S
C267 C263 1.397 . S
C267 C266 1.394 . S
C267 C277 1.723 . S
C268 C265 1.453 . S
C268 H292 0.982 . S
C268 H293 0.979 . S
C268 H294 0.977 . S
C269 C265 1.684 . S
C269 H295 0.979 . S
C269 H296 0.980 . S
C269 H297 0.983 . S
C270 H246 0.948 . S
C270 C271 1.391 . S
C270 C275 1.391 . S
C271 C270 1.391 . S
C271 C272 1.391 . S
C272 H249 0.947 . S
C272 C271 1.391 . S
C272 C273 1.392 . S
C273 H250 0.948 . S
C273 C272 1.392 . S
C273 C274 1.419 . S
C274 C273 1.419 . S
C274 C275 1.391 . S
C274 C278 1.397 . S
C275 C270 1.391 . S
C275 C274 1.391 . S
C275 C276 1.399 . S
C276 C275 1.399 . S
C276 C277 1.396 . S
C276 C279 1.453 . S
C276 C280 1.684 . S
C277 C267 1.723 . S
C277 C276 1.396 . S
C277 C278 1.394 . S
C278 C248 1.723 . S
C278 C274 1.397 . S
C278 C277 1.394 . S
C279 H251 0.982 . S
C279 H255 0.979 . S
C279 H256 0.977 . S
C279 C276 1.453 . S
C280 H252 0.979 . S
C280 H253 0.980 . S
C280 H254 0.983 . S
C280 C276 1.684 . S
H281 C299 0.948 . S
H282 C240 0.948 . S
H283 C258 0.979 . S
H284 C258 0.980 . S
H285 C258 0.983 . S
H286 C257 0.982 . S
H287 C257 0.979 . S
H288 C257 0.977 . S
H289 C259 0.948 . S
H290 C261 0.947 . S
H291 C262 0.948 . S
H292 C268 0.982 . S
H293 C268 0.979 . S
H294 C268 0.977 . S
H295 C269 0.979 . S
H296 C269 0.980 . S
H297 C269 0.983 . S
H298 C242 0.947 . S
C299 C242 1.392 . S
C299 C243 1.419 . S
C299 H281 0.948 . S
C300 C301 1.391 . S
C300 C304 1.391 . S
C300 H342 0.948 . S
C301 C300 1.391 . S
C301 C302 1.391 . S
C302 C301 1.391 . S
C302 H358 0.947 . S
C302 C359 1.392 . S
C303 C304 1.391 . S
C303 C307 1.397 . S
C303 C359 1.419 . S
C304 C300 1.391 . S
C304 C303 1.391 . S
C304 C305 1.399 . S
C305 C304 1.399 . S
C305 C308 1.396 . S
C305 C317 1.453 . S
C305 C318 1.684 . S
H306 C330 0.948 1_545 S
C307 C303 1.397 . S
C307 C308 1.394 . S
C307 C326 1.723 . S
C308 C305 1.396 . S
C308 C307 1.394 . S
C308 C338 1.723 . S
H309 C332 0.947 . S
H310 C333 0.948 . S
H311 C339 0.982 . S
H312 C340 0.979 . S
H313 C340 0.980 . S
H314 C340 0.995 . S
H315 C339 0.979 . S
H316 C339 0.977 . S
C317 C305 1.453 . S
C317 H346 0.982 . S
C317 H347 0.979 . S
C317 H348 0.977 . S
C318 C305 1.684 . S
C318 H343 0.979 . S
C318 H344 0.980 . S
C318 H345 0.983 . S
C319 C320 1.391 1_554 S
C319 C324 1.391 . S
C319 H349 0.969 . S
C320 C319 1.391 1_556 S
C320 C321 1.391 1_556 S
C321 C320 1.391 1_554 S
C321 C322 1.392 . S
C321 H350 0.947 1_554 S
C322 C321 1.392 . S
C322 C323 1.419 . S
C322 H351 0.948 . S
C323 C322 1.419 . S
C323 C324 1.391 . S
C323 C327 1.397 . S
C324 C319 1.391 . S
C324 C323 1.391 . S
C324 C325 1.399 . S
C325 C324 1.399 . S
C325 C326 1.396 . S
C325 C328 1.453 . S
C325 C329 1.684 . S
C326 C307 1.723 . S
C326 C325 1.396 . S
C326 C327 1.394 . S
C327 C323 1.397 . S
C327 C326 1.394 . S
C327 C337 1.723 . S
C328 C325 1.453 . S
C328 H352 0.982 . S
C328 H353 0.979 . S
C328 H354 0.977 . S
C329 C325 1.684 . S
C329 H355 0.979 . S
C329 H356 0.980 . S
C329 H357 0.983 . S
C330 H306 0.948 1_565 S
C330 C331 1.391 . S
C330 C335 1.391 . S
C331 C330 1.391 . S
C331 C332 1.391 . S
C332 H309 0.947 . S
C332 C331 1.391 . S
C332 C333 1.392 . S
C333 H310 0.948 . S
C333 C332 1.392 . S
C333 C334 1.419 . S
C334 C333 1.419 . S
C334 C335 1.391 . S
C334 C338 1.397 . S
C335 C330 1.391 . S
C335 C334 1.391 . S
C335 C336 1.399 . S
C336 C335 1.399 . S
C336 C337 1.396 . S
C336 C339 1.453 . S
C336 C340 1.684 . S
C337 C327 1.723 . S
C337 C336 1.396 . S
C337 C338 1.394 . S
C338 C308 1.723 . S
C338 C334 1.397 . S
C338 C337 1.394 . S
C339 H311 0.982 . S
C339 H315 0.979 . S
C339 H316 0.977 . S
C339 C336 1.453 . S
C340 H312 0.979 . S
C340 H313 0.980 . S
C340 H314 0.995 . S
C340 C336 1.684 . S
H341 C359 0.948 . S
H342 C300 0.948 . S
H343 C318 0.979 . S
H344 C318 0.980 . S
H345 C318 0.983 . S
H346 C317 0.982 . S
H347 C317 0.979 . S
H348 C317 0.977 . S
H349 C319 0.969 . S
H350 C321 0.947 1_556 S
H351 C322 0.948 . S
H352 C328 0.982 . S
H353 C328 0.979 . S
H354 C328 0.977 . S
H355 C329 0.979 . S
H356 C329 0.980 . S
H357 C329 0.983 . S
H358 C302 0.947 . S
C359 C302 1.392 . S
C359 C303 1.419 . S
C359 H341 0.948 . S
C360 C361 1.391 . S
C360 C364 1.391 . S
C360 H402 0.948 . S
C361 C360 1.391 . S
C361 C362 1.391 . S
C362 C361 1.391 . S
C362 H418 0.947 1_565 S
C362 C419 1.392 . S
C363 C364 1.391 . S
C363 C367 1.397 . S
C363 C419 1.419 . S
C364 C360 1.391 . S
C364 C363 1.391 . S
C364 C365 1.399 . S
C365 C364 1.399 . S
C365 C368 1.396 . S
C365 C377 1.453 . S
C365 C378 1.684 . S
H366 C390 0.948 . S
C367 C363 1.397 . S
C367 C368 1.394 . S
C367 C386 1.723 . S
C368 C365 1.396 . S
C368 C367 1.394 . S
C368 C398 1.723 . S
H369 C392 0.947 . S
H370 C393 0.948 . S
H371 C399 0.982 . S
H372 C400 0.979 . S
H373 C400 0.980 . S
H374 C400 0.983 . S
H375 C399 0.979 . S
H376 C399 0.977 . S
C377 C365 1.453 . S
C377 H406 0.982 . S
C377 H407 0.979 . S
C377 H408 0.977 . S
C378 C365 1.684 . S
C378 H403 0.979 . S
C378 H404 0.980 . S
C378 H405 0.983 . S
C379 C380 1.391 . S
C379 C384 1.391 . S
C379 H409 0.948 . S
C380 C379 1.391 . S
C380 C381 1.391 . S
C381 C380 1.391 . S
C381 C382 1.392 . S
C381 H410 0.947 . S
C382 C381 1.392 . S
C382 C383 1.419 . S
C382 H411 0.948 . S
C383 C382 1.419 . S
C383 C384 1.391 . S
C383 C387 1.397 . S
C384 C379 1.391 . S
C384 C383 1.391 . S
C384 C385 1.399 . S
C385 C384 1.399 . S
C385 C386 1.396 . S
C385 C388 1.453 . S
C385 C389 1.684 . S
C386 C367 1.723 . S
C386 C385 1.396 . S
C386 C387 1.394 . S
C387 C383 1.397 . S
C387 C386 1.394 . S
C387 C397 1.723 . S
C388 C385 1.453 . S
C388 H412 0.982 . S
C388 H413 0.979 . S
C388 H414 0.977 . S
C389 C385 1.684 . S
C389 H415 0.979 . S
C389 H416 0.980 . S
C389 H417 0.983 . S
C390 H366 0.948 . S
C390 C391 1.391 . S
C390 C395 1.391 . S
C391 C390 1.391 . S
C391 C392 1.391 . S
C392 H369 0.947 . S
C392 C391 1.391 . S
C392 C393 1.392 . S
C393 H370 0.948 . S
C393 C392 1.392 . S
C393 C394 1.419 . S
C394 C393 1.419 . S
C394 C395 1.391 . S
C394 C398 1.397 . S
C395 C390 1.391 . S
C395 C394 1.391 . S
C395 C396 1.399 . S
C396 C395 1.399 . S
C396 C397 1.396 . S
C396 C399 1.453 . S
C396 C400 1.684 . S
C397 C387 1.723 . S
C397 C396 1.396 . S
C397 C398 1.394 . S
C398 C368 1.723 . S
C398 C394 1.397 . S
C398 C397 1.394 . S
C399 H371 0.982 . S
C399 H375 0.979 . S
C399 H376 0.977 . S
C399 C396 1.453 . S
C400 H372 0.979 . S
C400 H373 0.980 . S
C400 H374 0.983 . S
C400 C396 1.684 . S
H401 C419 0.948 . S
H402 C360 0.948 . S
H403 C378 0.979 . S
H404 C378 0.980 . S
H405 C378 0.983 . S
H406 C377 0.982 . S
H407 C377 0.979 . S
H408 C377 0.977 . S
H409 C379 0.948 . S
H410 C381 0.947 . S
H411 C382 0.948 . S
H412 C388 0.982 . S
H413 C388 0.979 . S
H414 C388 0.977 . S
H415 C389 0.979 . S
H416 C389 0.980 . S
H417 C389 0.983 . S
H418 C362 0.947 1_545 S
C419 C362 1.392 . S
C419 C363 1.419 . S
C419 H401 0.948 . S
C420 C421 1.391 . S
C420 C424 1.391 . S
C420 H462 0.948 . S
C421 C420 1.391 . S
C421 C422 1.391 . S
C422 C421 1.391 . S
C422 H478 0.947 . S
C422 C479 1.392 . S
C423 C424 1.391 . S
C423 C427 1.397 . S
C423 C479 1.419 . S
C424 C420 1.391 . S
C424 C423 1.391 . S
C424 C425 1.399 . S
C425 C424 1.399 . S
C425 C428 1.396 . S
C425 C437 1.453 . S
C425 C438 1.684 . S
H426 C450 0.948 . S
C427 C423 1.397 . S
C427 C428 1.394 . S
C427 C446 1.723 . S
C428 C425 1.396 . S
C428 C427 1.394 . S
C428 C458 1.723 . S
H429 C452 0.947 . S
H430 C453 0.948 . S
H431 C459 0.982 . S
H432 C460 0.979 . S
H433 C460 0.980 . S
H434 C460 0.983 . S
H435 C459 0.979 . S
H436 C459 0.977 . S
C437 C425 1.453 . S
C437 H466 0.982 . S
C437 H467 0.979 . S
C437 H468 0.977 . S
C438 C425 1.684 . S
C438 H463 0.979 . S
C438 H464 0.980 . S
C438 H465 0.983 . S
C439 C440 1.391 1_556 S
C439 C444 1.391 . S
C439 H469 0.948 . S
C440 C439 1.391 1_554 S
C440 C441 1.391 1_554 S
C441 C440 1.391 1_556 S
C441 C442 1.392 . S
C441 H470 0.947 . S
C442 C441 1.392 . S
C442 C443 1.419 . S
C442 H471 0.948 . S
C443 C442 1.419 . S
C443 C444 1.391 . S
C443 C447 1.397 . S
C444 C439 1.391 . S
C444 C443 1.391 . S
C444 C445 1.399 . S
C445 C444 1.399 . S
C445 C446 1.396 . S
C445 C448 1.453 . S
C445 C449 1.684 . S
C446 C427 1.723 . S
C446 C445 1.396 . S
C446 C447 1.394 . S
C447 C443 1.397 . S
C447 C446 1.394 . S
C447 C457 1.723 . S
C448 C445 1.453 . S
C448 H472 0.982 . S
C448 H473 0.979 . S
C448 H474 0.977 . S
C449 C445 1.684 . S
C449 H475 0.979 . S
C449 H476 0.980 . S
C449 H477 0.983 . S
C450 H426 0.948 . S
C450 C451 1.391 . S
C450 C455 1.391 . S
C451 C450 1.391 . S
C451 C452 1.391 . S
C452 H429 0.947 . S
C452 C451 1.391 . S
C452 C453 1.392 . S
C453 H430 0.948 . S
C453 C452 1.392 . S
C453 C454 1.419 . S
C454 C453 1.419 . S
C454 C455 1.391 . S
C454 C458 1.397 . S
C455 C450 1.391 . S
C455 C454 1.391 . S
C455 C456 1.399 . S
C456 C455 1.399 . S
C456 C457 1.396 . S
C456 C459 1.453 . S
C456 C460 1.684 . S
C457 C447 1.723 . S
C457 C456 1.396 . S
C457 C458 1.394 . S
C458 C428 1.723 . S
C458 C454 1.397 . S
C458 C457 1.394 . S
C459 H431 0.982 . S
C459 H435 0.979 . S
C459 H436 0.977 . S
C459 C456 1.453 . S
C460 H432 0.979 . S
C460 H433 0.980 . S
C460 H434 0.983 . S
C460 C456 1.684 . S
H461 C479 0.948 . S
H462 C420 0.948 . S
H463 C438 0.979 . S
H464 C438 0.980 . S
H465 C438 0.983 . S
H466 C437 0.982 . S
H467 C437 0.979 . S
H468 C437 0.977 . S
H469 C439 0.948 . S
H470 C441 0.947 . S
H471 C442 0.948 . S
H472 C448 0.982 . S
H473 C448 0.979 . S
H474 C448 0.977 . S
H475 C449 0.979 . S
H476 C449 0.980 . S
H477 C449 0.983 . S
H478 C422 0.947 . S
C479 C422 1.392 . S
C479 C423 1.419 . S
C479 H461 0.948 . S
Tb480 N509 2.617 . S
Tb480 N515 2.572 . S
Tb480 O524 2.465 . S
Tb480 O525 2.387 . S
Tb480 O527 2.428 . S
Tb480 O528 2.298 1_455 S
Tb480 O532 2.360 . S
Tb480 O535 2.393 . S
Tb480 C544 2.802 . S
C481 N482 1.379 . S
C481 C484 1.416 . S
C481 C488 1.424 . S
N482 C481 1.379 . S
N482 C485 1.334 . S
N482 Tb491 2.617 . S
C483 C485 1.390 . S
C483 C486 1.339 . S
C483 H503 0.930 . S
C484 C481 1.416 . S
C484 C486 1.416 . S
C484 C490 1.448 . S
C485 N482 1.334 . S
C485 C483 1.390 . S
C485 H496 0.930 . S
C486 C483 1.339 . S
C486 C484 1.416 . S
C486 H507 0.930 . S
C487 C488 1.413 . S
C487 C489 1.427 . S
C487 C493 1.416 . S
C488 C481 1.424 . S
C488 C487 1.413 . S
C488 N492 1.361 . S
C489 C487 1.427 . S
C489 C490 1.328 . S
C489 H504 0.929 . S
C490 C484 1.448 . S
C490 C489 1.328 . S
C490 H505 0.930 . S
Tb491 N482 2.617 . S
Tb491 N492 2.572 . S
Tb491 O526 2.338 1_655 S
Tb491 O529 2.393 . S
Tb491 O530 2.465 . S
Tb491 O531 2.387 . S
Tb491 O533 2.428 . S
Tb491 O534 2.308 1_655 S
Tb491 C555 2.802 . S
N492 C488 1.361 . S
N492 Tb491 2.572 . S
N492 C494 1.340 . S
C493 C487 1.416 . S
C493 C495 1.332 . S
C493 H501 0.931 . S
C494 N492 1.340 . S
C494 C495 1.407 . S
C494 H500 0.930 . S
C495 C493 1.332 . S
C495 C494 1.407 . S
C495 H497 0.929 . S
H496 C485 0.930 . S
H497 C495 0.929 . S
H498 C513 0.930 . S
H499 C520 0.929 . S
H500 C494 0.930 . S
H501 C493 0.931 . S
H502 C516 0.930 . S
H503 C483 0.930 . S
H504 C489 0.929 . S
H505 C490 0.930 . S
H506 C511 0.930 . S
H507 C486 0.930 . S
H508 C519 0.931 . S
N509 Tb480 2.617 . S
N509 C510 1.379 . S
N509 C513 1.334 . S
C510 N509 1.379 . S
C510 C512 1.416 . S
C510 C518 1.424 . S
C511 H506 0.930 . S
C511 C513 1.390 . S
C511 C514 1.339 . S
C512 C510 1.416 . S
C512 C514 1.416 . S
C512 C545 1.448 . S
C513 H498 0.930 . S
C513 N509 1.334 . S
C513 C511 1.390 . S
C514 C511 1.339 . S
C514 C512 1.416 . S
C514 H521 0.930 . S
N515 Tb480 2.572 . S
N515 C516 1.340 . S
N515 C518 1.361 . S
C516 H502 0.930 . S
C516 N515 1.340 . S
C516 C520 1.407 . S
C517 C518 1.413 . S
C517 C519 1.416 . S
C517 C546 1.427 . S
C518 C510 1.424 . S
C518 N515 1.361 . S
C518 C517 1.413 . S
C519 H508 0.931 . S
C519 C517 1.416 . S
C519 C520 1.332 . S
C520 H499 0.929 . S
C520 C516 1.407 . S
C520 C519 1.332 . S
H521 C514 0.930 . S
H522 C545 0.930 . S
H523 C546 0.929 . S
O524 Tb480 2.465 . S
O524 C544 1.264 . S
O525 Tb480 2.387 . S
O525 C536 1.264 . S
O526 Tb491 2.338 1_455 S
O526 C536 1.257 . S
O527 Tb480 2.428 . S
O527 C544 1.256 . S
O528 Tb480 2.298 1_655 S
O528 C543 1.278 . S
O529 Tb491 2.393 . S
O529 C543 1.248 . S
O530 Tb491 2.465 . S
O530 C555 1.264 . S
O531 Tb491 2.387 . S
O531 C547 1.264 . S
O532 Tb480 2.360 . S
O532 C547 1.230 1_455 S
O533 Tb491 2.428 . S
O533 C555 1.256 . S
O534 Tb491 2.308 1_455 S
O534 C554 1.266 . S
O535 Tb480 2.393 . S
O535 C554 1.248 . S
C536 O525 1.264 . S
C536 O526 1.257 . S
C537 C540 1.399 . S
C537 C542 1.383 . S
C537 C544 1.496 . S
C538 C539 1.399 . S
C538 C542 1.389 . S
C539 C538 1.399 . S
C539 C541 1.380 . S
C539 H556 0.929 . S
C540 C537 1.399 . S
C540 C541 1.392 . S
C540 H557 0.929 . S
C541 C539 1.380 . S
C541 C540 1.392 . S
C541 H558 0.929 . S
C542 C537 1.383 . S
C542 C538 1.389 . S
C542 H559 0.931 . S
C543 O528 1.278 . S
C543 O529 1.248 . S
C544 Tb480 2.802 . S
C544 O524 1.264 . S
C544 O527 1.256 . S
C544 C537 1.496 . S
C545 C512 1.448 . S
C545 H522 0.930 . S
C545 C546 1.328 . S
C546 C517 1.427 . S
C546 H523 0.929 . S
C546 C545 1.328 . S
C547 O531 1.264 . S
C547 O532 1.230 1_655 S
C548 C551 1.399 . S
C548 C552 1.383 . S
C548 C555 1.496 . S
C549 C550 1.399 . S
C549 C552 1.389 . S
C550 C549 1.399 . S
C550 C553 1.380 . S
C550 H560 0.929 . S
C551 C548 1.399 . S
C551 C553 1.392 . S
C551 H561 0.929 . S
C552 C548 1.383 . S
C552 C549 1.389 . S
C552 H562 0.931 . S
C553 C550 1.380 . S
C553 C551 1.392 . S
C553 H563 0.929 . S
C554 O534 1.266 . S
C554 O535 1.248 . S
C555 Tb491 2.802 . S
C555 O530 1.264 . S
C555 O533 1.256 . S
C555 C548 1.496 . S
H556 C539 0.929 . S
H557 C540 0.929 . S
H558 C541 0.929 . S
H559 C542 0.931 . S
H560 C550 0.929 . S
H561 C551 0.929 . S
H562 C552 0.931 . S
H563 C553 0.929 . S
Tb564 N593 2.617 . S
Tb564 N599 2.572 . S
Tb564 O608 2.465 . S
Tb564 O609 2.387 . S
Tb564 O611 2.428 . S
Tb564 O612 2.308 . S
Tb564 O616 2.349 . S
Tb564 O619 2.393 . S
Tb564 C628 2.802 . S
C565 N566 1.379 . S
C565 C568 1.416 . S
C565 C572 1.424 . S
N566 C565 1.379 . S
N566 C569 1.334 . S
N566 Tb575 2.617 . S
C567 C569 1.390 . S
C567 C570 1.339 . S
C567 H587 0.930 . S
C568 C565 1.416 . S
C568 C570 1.416 . S
C568 C574 1.448 . S
C569 N566 1.334 . S
C569 C567 1.390 . S
C569 H580 0.930 . S
C570 C567 1.339 . S
C570 C568 1.416 . S
C570 H591 0.930 . S
C571 C572 1.413 . S
C571 C573 1.427 . S
C571 C577 1.416 . S
C572 C565 1.424 . S
C572 C571 1.413 . S
C572 N576 1.361 . S
C573 C571 1.427 . S
C573 C574 1.328 . S
C573 H588 0.929 . S
C574 C568 1.448 . S
C574 C573 1.328 . S
C574 H589 0.930 . S
Tb575 N566 2.617 . S
Tb575 N576 2.572 . S
Tb575 O610 2.349 . S
Tb575 O613 2.393 . S
Tb575 O614 2.465 . S
Tb575 O615 2.387 . S
Tb575 O617 2.428 . S
Tb575 O618 2.308 . S
Tb575 C639 2.802 . S
N576 C572 1.361 . S
N576 Tb575 2.572 . S
N576 C578 1.340 . S
C577 C571 1.416 . S
C577 C579 1.332 . S
C577 H585 0.931 . S
C578 N576 1.340 . S
C578 C579 1.407 . S
C578 H584 0.930 . S
C579 C577 1.332 . S
C579 C578 1.407 . S
C579 H581 0.929 . S
H580 C569 0.930 . S
H581 C579 0.929 . S
H582 C597 0.930 . S
H583 C604 0.929 . S
H584 C578 0.930 . S
H585 C577 0.931 . S
H586 C600 0.930 . S
H587 C567 0.930 . S
H588 C573 0.929 . S
H589 C574 0.930 . S
H590 C595 0.930 . S
H591 C570 0.930 . S
H592 C603 0.931 . S
N593 Tb564 2.617 . S
N593 C594 1.379 . S
N593 C597 1.334 . S
C594 N593 1.379 . S
C594 C596 1.416 . S
C594 C602 1.424 . S
C595 H590 0.930 . S
C595 C597 1.390 . S
C595 C598 1.339 . S
C596 C594 1.416 . S
C596 C598 1.416 . S
C596 C629 1.448 . S
C597 H582 0.930 . S
C597 N593 1.334 . S
C597 C595 1.390 . S
C598 C595 1.339 . S
C598 C596 1.416 . S
C598 H605 0.930 . S
N599 Tb564 2.572 . S
N599 C600 1.340 . S
N599 C602 1.361 . S
C600 H586 0.930 . S
C600 N599 1.340 . S
C600 C604 1.407 . S
C601 C602 1.413 . S
C601 C603 1.416 . S
C601 C630 1.427 . S
C602 C594 1.424 . S
C602 N599 1.361 . S
C602 C601 1.413 . S
C603 H592 0.931 . S
C603 C601 1.416 . S
C603 C604 1.332 . S
C604 H583 0.929 . S
C604 C600 1.407 . S
C604 C603 1.332 . S
H605 C598 0.930 . S
H606 C629 0.930 . S
H607 C630 0.929 . S
O608 Tb564 2.465 . S
O608 C628 1.264 . S
O609 Tb564 2.387 . S
O609 C620 1.264 . S
O610 Tb575 2.349 . S
O610 C620 1.243 . S
O611 Tb564 2.428 . S
O611 C628 1.256 . S
O612 Tb564 2.308 . S
O612 C627 1.266 . S
O613 Tb575 2.393 . S
O613 C627 1.248 . S
O614 Tb575 2.465 . S
O614 C639 1.264 . S
O615 Tb575 2.387 . S
O615 C631 1.264 . S
O616 Tb564 2.349 . S
O616 C631 1.243 . S
O617 Tb575 2.428 . S
O617 C639 1.256 . S
O618 Tb575 2.308 . S
O618 C638 1.266 . S
O619 Tb564 2.393 . S
O619 C638 1.248 . S
C620 O609 1.264 . S
C620 O610 1.243 . S
C621 C624 1.399 . S
C621 C626 1.383 . S
C621 C628 1.496 . S
C622 C623 1.399 . S
C622 C626 1.389 . S
C623 C622 1.399 . S
C623 C625 1.380 . S
C623 H640 0.929 . S
C624 C621 1.399 . S
C624 C625 1.392 . S
C624 H641 0.929 . S
C625 C623 1.380 . S
C625 C624 1.392 . S
C625 H642 0.929 . S
C626 C621 1.383 . S
C626 C622 1.389 . S
C626 H643 0.931 . S
C627 O612 1.266 . S
C627 O613 1.248 . S
C628 Tb564 2.802 . S
C628 O608 1.264 . S
C628 O611 1.256 . S
C628 C621 1.496 . S
C629 C596 1.448 . S
C629 H606 0.930 . S
C629 C630 1.328 . S
C630 C601 1.427 . S
C630 H607 0.929 . S
C630 C629 1.328 . S
C631 O615 1.264 . S
C631 O616 1.243 . S
C632 C635 1.399 . S
C632 C636 1.383 . S
C632 C639 1.496 . S
C633 C634 1.399 . S
C633 C636 1.389 . S
C634 C633 1.399 . S
C634 C637 1.380 . S
C634 H644 0.929 . S
C635 C632 1.399 . S
C635 C637 1.392 . S
C635 H645 0.929 . S
C636 C632 1.383 . S
C636 C633 1.389 . S
C636 H646 0.931 . S
C637 C634 1.380 . S
C637 C635 1.392 . S
C637 H647 0.929 . S
C638 O618 1.266 . S
C638 O619 1.248 . S
C639 Tb575 2.802 . S
C639 O614 1.264 . S
C639 O617 1.256 . S
C639 C632 1.496 . S
H640 C623 0.929 . S
H641 C624 0.929 . S
H642 C625 0.929 . S
H643 C626 0.931 . S
H644 C634 0.929 . S
H645 C635 0.929 . S
H646 C636 0.931 . S
H647 C637 0.929 . S
Tb648 N677 2.617 . S
Tb648 N683 2.572 . S
Tb648 O692 2.465 . S
Tb648 O693 2.387 . S
Tb648 O695 2.428 . S
Tb648 O696 2.308 . S
Tb648 O700 2.349 . S
Tb648 O703 2.393 . S
Tb648 C712 2.802 . S
C649 N650 1.379 . S
C649 C652 1.416 . S
C649 C656 1.424 . S
N650 C649 1.379 . S
N650 C653 1.334 . S
N650 Tb659 2.617 . S
C651 C653 1.390 . S
C651 C654 1.339 . S
C651 H671 0.930 . S
C652 C649 1.416 . S
C652 C654 1.416 . S
C652 C658 1.448 . S
C653 N650 1.334 . S
C653 C651 1.390 . S
C653 H664 0.930 . S
C654 C651 1.339 . S
C654 C652 1.416 . S
C654 H675 0.930 . S
C655 C656 1.413 . S
C655 C657 1.427 . S
C655 C661 1.416 . S
C656 C649 1.424 . S
C656 C655 1.413 . S
C656 N660 1.361 . S
C657 C655 1.427 . S
C657 C658 1.328 . S
C657 H672 0.929 . S
C658 C652 1.448 . S
C658 C657 1.328 . S
C658 H673 0.930 . S
Tb659 N650 2.617 . S
Tb659 N660 2.572 . S
Tb659 O694 2.349 1_655 S
Tb659 O697 2.393 . S
Tb659 O698 2.465 . S
Tb659 O699 2.387 . S
Tb659 O701 2.428 . S
Tb659 O702 2.308 1_655 S
Tb659 C723 2.802 . S
N660 C656 1.361 . S
N660 Tb659 2.572 . S
N660 C662 1.340 . S
C661 C655 1.416 . S
C661 C663 1.332 . S
C661 H669 0.931 . S
C662 N660 1.340 . S
C662 C663 1.407 . S
C662 H668 0.930 . S
C663 C661 1.332 . S
C663 C662 1.407 . S
C663 H665 0.929 . S
H664 C653 0.930 . S
H665 C663 0.929 . S
H666 C681 0.930 . S
H667 C688 0.929 . S
H668 C662 0.930 . S
H669 C661 0.931 . S
H670 C684 0.930 . S
H671 C651 0.930 . S
H672 C657 0.929 . S
H673 C658 0.930 . S
H674 C679 0.930 . S
H675 C654 0.930 . S
H676 C687 0.931 . S
N677 Tb648 2.617 . S
N677 C678 1.379 . S
N677 C681 1.334 . S
C678 N677 1.379 . S
C678 C680 1.416 . S
C678 C686 1.424 . S
C679 H674 0.930 . S
C679 C681 1.390 . S
C679 C682 1.339 . S
C680 C678 1.416 . S
C680 C682 1.416 . S
C680 C713 1.448 . S
C681 H666 0.930 . S
C681 N677 1.334 . S
C681 C679 1.390 . S
C682 C679 1.339 . S
C682 C680 1.416 . S
C682 H689 0.930 . S
N683 Tb648 2.572 . S
N683 C684 1.340 . S
N683 C686 1.361 . S
C684 H670 0.930 . S
C684 N683 1.340 . S
C684 C688 1.407 . S
C685 C686 1.413 . S
C685 C687 1.416 . S
C685 C714 1.427 . S
C686 C678 1.424 . S
C686 N683 1.361 . S
C686 C685 1.413 . S
C687 H676 0.931 . S
C687 C685 1.416 . S
C687 C688 1.332 . S
C688 H667 0.929 . S
C688 C684 1.407 . S
C688 C687 1.332 . S
H689 C682 0.930 . S
H690 C713 0.930 . S
H691 C714 0.929 . S
O692 Tb648 2.465 . S
O692 C712 1.264 . S
O693 Tb648 2.387 . S
O693 C704 1.264 . S
O694 Tb659 2.349 1_455 S
O694 C704 1.243 . S
O695 Tb648 2.428 . S
O695 C712 1.256 . S
O696 Tb648 2.308 . S
O696 C711 1.266 1_455 S
O697 Tb659 2.393 . S
O697 C711 1.248 . S
O698 Tb659 2.465 . S
O698 C723 1.264 . S
O699 Tb659 2.387 . S
O699 C715 1.264 . S
O700 Tb648 2.349 . S
O700 C715 1.243 1_455 S
O701 Tb659 2.428 . S
O701 C723 1.256 . S
O702 Tb659 2.308 1_455 S
O702 C722 1.266 . S
O703 Tb648 2.393 . S
O703 C722 1.248 . S
C704 O693 1.264 . S
C704 O694 1.243 . S
C705 C708 1.399 . S
C705 C710 1.383 . S
C705 C712 1.496 . S
C706 C707 1.399 . S
C706 C710 1.389 . S
C707 C706 1.399 . S
C707 C709 1.380 . S
C707 H724 0.929 . S
C708 C705 1.399 . S
C708 C709 1.392 . S
C708 H725 0.929 . S
C709 C707 1.380 . S
C709 C708 1.392 . S
C709 H726 0.929 . S
C710 C705 1.383 . S
C710 C706 1.389 . S
C710 H727 0.931 . S
C711 O696 1.266 1_655 S
C711 O697 1.248 . S
C712 Tb648 2.802 . S
C712 O692 1.264 . S
C712 O695 1.256 . S
C712 C705 1.496 . S
C713 C680 1.448 . S
C713 H690 0.930 . S
C713 C714 1.328 . S
C714 C685 1.427 . S
C714 H691 0.929 . S
C714 C713 1.328 . S
C715 O699 1.264 . S
C715 O700 1.243 1_655 S
C716 C719 1.399 . S
C716 C720 1.383 . S
C716 C723 1.496 . S
C717 C718 1.399 . S
C717 C720 1.389 . S
C718 C717 1.399 . S
C718 C721 1.380 . S
C718 H728 0.929 . S
C719 C716 1.399 . S
C719 C721 1.392 . S
C719 H729 0.929 . S
C720 C716 1.383 . S
C720 C717 1.389 . S
C720 H730 0.931 . S
C721 C718 1.380 . S
C721 C719 1.392 . S
C721 H731 0.929 . S
C722 O702 1.266 . S
C722 O703 1.248 . S
C723 Tb659 2.802 . S
C723 O698 1.264 . S
C723 O701 1.256 . S
C723 C716 1.496 . S
H724 C707 0.929 . S
H725 C708 0.929 . S
H726 C709 0.929 . S
H727 C710 0.931 . S
H728 C718 0.929 . S
H729 C719 0.929 . S
H730 C720 0.931 . S
H731 C721 0.929 . S
Tb732 N761 2.617 . S
Tb732 N767 2.572 . S
Tb732 O776 2.465 . S
Tb732 O777 2.387 . S
Tb732 O779 2.428 . S
Tb732 O780 2.308 . S
Tb732 O784 2.349 . S
Tb732 O787 2.393 . S
Tb732 C796 2.802 . S
C733 N734 1.379 . S
C733 C736 1.416 . S
C733 C740 1.424 . S
N734 C733 1.379 . S
N734 C737 1.334 . S
N734 Tb743 2.617 . S
C735 C737 1.390 . S
C735 C738 1.339 . S
C735 H755 0.930 . S
C736 C733 1.416 . S
C736 C738 1.416 . S
C736 C742 1.448 . S
C737 N734 1.334 . S
C737 C735 1.390 . S
C737 H748 0.930 . S
C738 C735 1.339 . S
C738 C736 1.416 . S
C738 H759 0.930 . S
C739 C740 1.413 . S
C739 C741 1.427 . S
C739 C745 1.416 . S
C740 C733 1.424 . S
C740 C739 1.413 . S
C740 N744 1.361 . S
C741 C739 1.427 . S
C741 C742 1.328 . S
C741 H756 0.929 . S
C742 C736 1.448 . S
C742 C741 1.328 . S
C742 H757 0.930 . S
Tb743 N734 2.617 . S
Tb743 N744 2.572 . S
Tb743 O778 2.349 . S
Tb743 O781 2.393 . S
Tb743 O782 2.465 . S
Tb743 O783 2.387 . S
Tb743 O785 2.428 . S
Tb743 O786 2.308 . S
Tb743 C807 2.802 . S
N744 C740 1.361 . S
N744 Tb743 2.572 . S
N744 C746 1.340 . S
C745 C739 1.416 . S
C745 C747 1.332 . S
C745 H753 0.931 . S
C746 N744 1.340 . S
C746 C747 1.407 . S
C746 H752 0.930 . S
C747 C745 1.332 . S
C747 C746 1.407 . S
C747 H749 0.929 . S
H748 C737 0.930 . S
H749 C747 0.929 . S
H750 C765 0.930 . S
H751 C772 0.929 . S
H752 C746 0.930 . S
H753 C745 0.931 . S
H754 C768 0.930 . S
H755 C735 0.930 . S
H756 C741 0.929 . S
H757 C742 0.930 . S
H758 C763 0.930 . S
H759 C738 0.930 . S
H760 C771 0.931 . S
N761 Tb732 2.617 . S
N761 C762 1.379 . S
N761 C765 1.334 . S
C762 N761 1.379 . S
C762 C764 1.416 . S
C762 C770 1.424 . S
C763 H758 0.930 . S
C763 C765 1.390 . S
C763 C766 1.339 . S
C764 C762 1.416 . S
C764 C766 1.416 . S
C764 C797 1.448 . S
C765 H750 0.930 . S
C765 N761 1.334 . S
C765 C763 1.390 . S
C766 C763 1.339 . S
C766 C764 1.416 . S
C766 H773 0.930 . S
N767 Tb732 2.572 . S
N767 C768 1.340 . S
N767 C770 1.361 . S
C768 H754 0.930 . S
C768 N767 1.340 . S
C768 C772 1.407 . S
C769 C770 1.413 . S
C769 C771 1.416 . S
C769 C798 1.427 . S
C770 C762 1.424 . S
C770 N767 1.361 . S
C770 C769 1.413 . S
C771 H760 0.931 . S
C771 C769 1.416 . S
C771 C772 1.332 . S
C772 H751 0.929 . S
C772 C768 1.407 . S
C772 C771 1.332 . S
H773 C766 0.930 . S
H774 C797 0.930 . S
H775 C798 0.929 . S
O776 Tb732 2.465 . S
O776 C796 1.264 . S
O777 Tb732 2.387 . S
O777 C788 1.264 . S
O778 Tb743 2.349 . S
O778 C788 1.243 . S
O779 Tb732 2.428 . S
O779 C796 1.256 . S
O780 Tb732 2.308 . S
O780 C795 1.266 . S
O781 Tb743 2.393 . S
O781 C795 1.248 . S
O782 Tb743 2.465 . S
O782 C807 1.264 . S
O783 Tb743 2.387 . S
O783 C799 1.264 . S
O784 Tb732 2.349 . S
O784 C799 1.243 . S
O785 Tb743 2.428 . S
O785 C807 1.256 . S
O786 Tb743 2.308 . S
O786 C806 1.266 . S
O787 Tb732 2.393 . S
O787 C806 1.248 . S
C788 O777 1.264 . S
C788 O778 1.243 . S
C789 C792 1.399 . S
C789 C794 1.383 . S
C789 C796 1.496 . S
C790 C791 1.399 . S
C790 C794 1.389 . S
C791 C790 1.399 . S
C791 C793 1.380 . S
C791 H808 0.929 . S
C792 C789 1.399 . S
C792 C793 1.392 . S
C792 H809 0.929 . S
C793 C791 1.380 . S
C793 C792 1.392 . S
C793 H810 0.929 . S
C794 C789 1.383 . S
C794 C790 1.389 . S
C794 H811 0.931 . S
C795 O780 1.266 . S
C795 O781 1.248 . S
C796 Tb732 2.802 . S
C796 O776 1.264 . S
C796 O779 1.256 . S
C796 C789 1.496 . S
C797 C764 1.448 . S
C797 H774 0.930 . S
C797 C798 1.328 . S
C798 C769 1.427 . S
C798 H775 0.929 . S
C798 C797 1.328 . S
C799 O783 1.264 . S
C799 O784 1.243 . S
C800 C803 1.399 . S
C800 C804 1.383 . S
C800 C807 1.496 . S
C801 C802 1.399 . S
C801 C804 1.389 . S
C802 C801 1.399 . S
C802 C805 1.380 . S
C802 H812 0.929 . S
C803 C800 1.399 . S
C803 C805 1.392 . S
C803 H813 0.929 . S
C804 C800 1.383 . S
C804 C801 1.389 . S
C804 H814 0.931 . S
C805 C802 1.380 . S
C805 C803 1.392 . S
C805 H815 0.929 . S
C806 O786 1.266 . S
C806 O787 1.248 . S
C807 Tb743 2.802 . S
C807 O782 1.264 . S
C807 O785 1.256 . S
C807 C800 1.496 . S
H808 C791 0.929 . S
H809 C792 0.929 . S
H810 C793 0.929 . S
H811 C794 0.931 . S
H812 C802 0.929 . S
H813 C803 0.929 . S
H814 C804 0.931 . S
H815 C805 0.929 . S
C816 C817 1.369 . S
C816 C818 1.419 . S
C816 H820 0.930 1_545 S
C817 C816 1.369 . S
C817 C826 1.429 . S
C818 C816 1.419 . S
C818 C819 1.363 . S
C818 H821 0.929 . S
C819 C818 1.363 . S
C819 C825 1.428 . S
H820 C816 0.930 1_565 S
H821 C818 0.929 . S
S822 N823 1.613 . S
S822 N824 1.610 . S
N823 S822 1.613 . S
N823 C826 1.350 . S
N824 S822 1.610 . S
N824 C825 1.351 . S
C825 C819 1.428 . S
C825 N824 1.351 . S
C825 C826 1.434 . S
C826 C817 1.429 . S
C826 N823 1.350 . S
C826 C825 1.434 . S
C827 C828 1.369 . S
C827 C829 1.419 . S
C827 H831 0.930 . S
C828 C827 1.369 . S
C828 C837 1.429 . S
C829 C827 1.419 . S
C829 C830 1.363 . S
C829 H832 0.929 . S
C830 C829 1.363 . S
C830 C836 1.428 . S
H831 C827 0.930 . S
H832 C829 0.929 . S
S833 N834 1.613 . S
S833 N835 1.610 . S
N834 S833 1.613 . S
N834 C837 1.350 . S
N835 S833 1.610 . S
N835 C836 1.351 . S
C836 C830 1.428 . S
C836 N835 1.351 . S
C836 C837 1.434 . S
C837 C828 1.429 . S
C837 N834 1.350 . S
C837 C836 1.434 . S
C838 C839 1.369 . S
C838 C840 1.419 . S
C838 H842 0.930 . S
C839 C838 1.369 . S
C839 C848 1.429 . S
C840 C838 1.419 . S
C840 C841 1.363 . S
C840 H843 0.929 . S
C841 C840 1.363 . S
C841 C847 1.428 . S
H842 C838 0.930 . S
H843 C840 0.929 . S
S844 N845 1.613 . S
S844 N846 1.610 . S
N845 S844 1.613 . S
N845 C848 1.350 . S
N846 S844 1.610 . S
N846 C847 1.351 . S
C847 C841 1.428 . S
C847 N846 1.351 . S
C847 C848 1.434 . S
C848 C839 1.429 . S
C848 N845 1.350 . S
C848 C847 1.434 . S
C849 C850 1.369 . S
C849 C851 1.419 . S
C849 H853 0.930 . S
C850 C849 1.369 . S
C850 C859 1.429 . S
C851 C849 1.419 . S
C851 C852 1.363 . S
C851 H854 0.929 . S
C852 C851 1.363 . S
C852 C858 1.428 . S
H853 C849 0.930 . S
H854 C851 0.929 . S
S855 N856 1.613 . S
S855 N857 1.610 1_565 S
N856 S855 1.613 . S
N856 C859 1.350 1_565 S
N857 S855 1.610 1_545 S
N857 C858 1.351 . S
C858 C852 1.428 . S
C858 N857 1.351 . S
C858 C859 1.434 . S
C859 C850 1.429 . S
C859 N856 1.350 1_545 S
C859 C858 1.434 . S
C860 C861 1.369 . S
C860 C862 1.419 . S
C860 H864 0.930 . S
C861 C860 1.369 . S
C861 C870 1.429 . S
C862 C860 1.419 . S
C862 C863 1.363 . S
C862 H865 0.929 . S
C863 C862 1.363 . S
C863 C869 1.428 . S
H864 C860 0.930 . S
H865 C862 0.929 . S
S866 N867 1.613 . S
S866 N868 1.610 . S
N867 S866 1.613 . S
N867 C870 1.350 . S
N868 S866 1.610 . S
N868 C869 1.351 . S
C869 C863 1.428 . S
C869 N868 1.351 . S
C869 C870 1.434 . S
C870 C861 1.429 . S
C870 N867 1.350 . S
C870 C869 1.434 . S
C871 C872 1.369 . S
C871 C873 1.419 . S
C871 H875 0.930 . S
C872 C871 1.369 . S
C872 C881 1.429 . S
C873 C871 1.419 . S
C873 C874 1.363 . S
C873 H876 0.929 . S
C874 C873 1.363 . S
C874 C880 1.428 . S
H875 C871 0.930 . S
H876 C873 0.929 . S
S877 N878 1.613 . S
S877 N879 1.610 . S
N878 S877 1.613 . S
N878 C881 1.350 . S
N879 S877 1.610 . S
N879 C880 1.351 . S
C880 C874 1.428 . S
C880 N879 1.351 . S
C880 C881 1.434 . S
C881 C872 1.429 . S
C881 N878 1.350 . S
C881 C880 1.434 . S
C882 C883 1.369 . S
C882 C884 1.419 . S
C882 H886 0.930 . S
C883 C882 1.369 . S
C883 C892 1.429 . S
C884 C882 1.419 . S
C884 C885 1.363 . S
C884 H887 0.929 . S
C885 C884 1.363 . S
C885 C891 1.428 . S
H886 C882 0.930 . S
H887 C884 0.929 . S
S888 N889 1.613 . S
S888 N890 1.610 . S
N889 S888 1.613 . S
N889 C892 1.350 . S
N890 S888 1.610 . S
N890 C891 1.351 . S
C891 C885 1.428 . S
C891 N890 1.351 . S
C891 C892 1.434 . S
C892 C883 1.429 . S
C892 N889 1.350 . S
C892 C891 1.434 . S
C893 C894 1.369 . S
C893 C895 1.419 . S
C893 H897 0.930 . S
C894 C893 1.369 . S
C894 C903 1.429 . S
C895 C893 1.419 . S
C895 C896 1.363 . S
C895 H898 0.929 . S
C896 C895 1.363 . S
C896 C902 1.428 . S
H897 C893 0.930 . S
H898 C895 0.929 . S
S899 N900 1.613 . S
S899 N901 1.610 1_545 S
N900 S899 1.613 . S
N900 C903 1.350 1_545 S
N901 S899 1.610 1_565 S
N901 C902 1.351 . S
C902 C896 1.428 . S
C902 N901 1.351 . S
C902 C903 1.434 . S
C903 C894 1.429 . S
C903 N900 1.350 1_565 S
C903 C902 1.434 . S
C904 C905 1.369 . S
C904 C906 1.419 . S
C904 H908 0.930 . S
C905 C904 1.369 . S
C905 C914 1.429 . S
C906 C904 1.419 . S
C906 C907 1.363 . S
C906 H909 0.929 . S
C907 C906 1.363 . S
C907 C913 1.428 . S
H908 C904 0.930 . S
H909 C906 0.929 . S
S910 N911 1.613 . S
S910 N912 1.610 . S
N911 S910 1.613 . S
N911 C914 1.350 . S
N912 S910 1.610 . S
N912 C913 1.351 . S
C913 C907 1.428 . S
C913 N912 1.351 . S
C913 C914 1.434 . S
C914 C905 1.429 . S
C914 N911 1.350 . S
C914 C913 1.434 . S
C915 C916 1.369 . S
C915 C917 1.419 . S
C915 H919 0.930 . S
C916 C915 1.369 . S
C916 C925 1.429 . S
C917 C915 1.419 . S
C917 C918 1.363 . S
C917 H920 0.929 . S
C918 C917 1.363 . S
C918 C924 1.428 . S
H919 C915 0.930 . S
H920 C917 0.929 . S
S921 N922 1.613 . S
S921 N923 1.610 . S
N922 S921 1.613 . S
N922 C925 1.350 . S
N923 S921 1.610 . S
N923 C924 1.351 . S
C924 C918 1.428 . S
C924 N923 1.351 . S
C924 C925 1.434 . S
C925 C916 1.429 . S
C925 N922 1.350 . S
C925 C924 1.434 . S
C926 C927 1.369 . S
C926 C928 1.419 . S
C926 H930 0.930 . S
C927 C926 1.369 . S
C927 C936 1.429 . S
C928 C926 1.419 . S
C928 C929 1.363 . S
C928 H931 0.929 . S
C929 C928 1.363 . S
C929 C935 1.428 . S
H930 C926 0.930 . S
H931 C928 0.929 . S
S932 N933 1.613 . S
S932 N934 1.610 . S
N933 S932 1.613 . S
N933 C936 1.350 . S
N934 S932 1.610 . S
N934 C935 1.351 . S
C935 C929 1.428 . S
C935 N934 1.351 . S
C935 C936 1.434 . S
C936 C927 1.429 . S
C936 N933 1.350 . S
C936 C935 1.434 . S
C937 C938 1.369 . S
C937 C939 1.419 . S
C937 H941 0.930 . S
C938 C937 1.369 . S
C938 C947 1.429 . S
C939 C937 1.419 . S
C939 C940 1.363 . S
C939 H942 0.929 . S
C940 C939 1.363 . S
C940 C946 1.428 . S
H941 C937 0.930 . S
H942 C939 0.929 . S
S943 N944 1.613 . S
S943 N945 1.610 . S
N944 S943 1.613 . S
N944 C947 1.350 . S
N945 S943 1.610 . S
N945 C946 1.351 . S
C946 C940 1.428 . S
C946 N945 1.351 . S
C946 C947 1.434 . S
C947 C938 1.429 . S
C947 N944 1.350 . S
C947 C946 1.434 . S
C948 C949 1.369 . S
C948 C950 1.419 . S
C948 H952 0.930 . S
C949 C948 1.369 . S
C949 C958 1.429 . S
C950 C948 1.419 . S
C950 C951 1.363 . S
C950 H953 0.929 . S
C951 C950 1.363 . S
C951 C957 1.428 . S
H952 C948 0.930 . S
H953 C950 0.929 . S
S954 N955 1.613 . S
S954 N956 1.610 . S
N955 S954 1.613 . S
N955 C958 1.350 . S
N956 S954 1.610 . S
N956 C957 1.351 . S
C957 C951 1.428 . S
C957 N956 1.351 . S
C957 C958 1.434 . S
C958 C949 1.429 . S
C958 N955 1.350 . S
C958 C957 1.434 . S
C959 C960 1.369 . S
C959 C961 1.419 . S
C959 H963 0.930 . S
C960 C959 1.369 . S
C960 C969 1.429 . S
C961 C959 1.419 . S
C961 C962 1.363 . S
C961 H964 0.929 . S
C962 C961 1.363 . S
C962 C968 1.428 . S
H963 C959 0.930 . S
H964 C961 0.929 . S
S965 N966 1.613 . S
S965 N967 1.610 . S
N966 S965 1.613 . S
N966 C969 1.350 . S
N967 S965 1.610 . S
N967 C968 1.351 . S
C968 C962 1.428 . S
C968 N967 1.351 . S
C968 C969 1.434 . S
C969 C960 1.429 . S
C969 N966 1.350 . S
C969 C968 1.434 . S
C970 C971 1.369 . S
C970 C972 1.419 . S
C970 H974 0.930 . S
C971 C970 1.369 . S
C971 C980 1.429 . S
C972 C970 1.419 . S
C972 C973 1.363 . S
C972 H975 0.929 . S
C973 C972 1.363 . S
C973 C979 1.428 . S
H974 C970 0.930 . S
H975 C972 0.929 . S
S976 N977 1.613 . S
S976 N978 1.610 . S
N977 S976 1.613 . S
N977 C980 1.350 . S
N978 S976 1.610 . S
N978 C979 1.351 . S
C979 C973 1.428 . S
C979 N978 1.351 . S
C979 C980 1.434 . S
C980 C971 1.429 . S
C980 N977 1.350 . S
C980 C979 1.434 . S
C981 C982 1.369 . S
C981 C983 1.419 . S
C981 H985 0.930 . S
C982 C981 1.369 . S
C982 C991 1.429 . S
C983 C981 1.419 . S
C983 C984 1.363 . S
C983 H986 0.929 . S
C984 C983 1.363 . S
C984 C990 1.428 . S
H985 C981 0.930 . S
H986 C983 0.929 . S
S987 N988 1.613 . S
S987 N989 1.610 . S
N988 S987 1.613 . S
N988 C991 1.350 . S
N989 S987 1.610 . S
N989 C990 1.351 . S
C990 C984 1.428 . S
C990 N989 1.351 . S
C990 C991 1.434 . S
C991 C982 1.429 . S
C991 N988 1.350 . S
C991 C990 1.434 . S
C992 C993 1.369 . S
C992 C994 1.419 . S
C992 H996 0.930 . S
C993 C992 1.369 . S
C993 C1002 1.429 . S
C994 C992 1.419 . S
C994 C995 1.363 . S
C994 H997 0.929 1_455 S
C995 C994 1.363 . S
C995 C1001 1.428 . S
H996 C992 0.930 . S
H997 C994 0.929 1_655 S
S998 N999 1.613 . S
S998 N1000 1.610 . S
N999 S998 1.613 . S
N999 C1002 1.350 . S
N1000 S998 1.610 . S
N1000 C1001 1.351 . S
C1001 C995 1.428 . S
C1001 N1000 1.351 . S
C1001 C1002 1.434 . S
C1002 C993 1.429 . S
C1002 N999 1.350 . S
C1002 C1001 1.434 . S
C1003 C1004 1.369 . S
C1003 C1005 1.419 . S
C1003 H1007 0.930 . S
C1004 C1003 1.369 . S
C1004 C1013 1.429 . S
C1005 C1003 1.419 . S
C1005 C1006 1.363 . S
C1005 H1008 0.929 . S
C1006 C1005 1.363 . S
C1006 C1012 1.428 . S
H1007 C1003 0.930 . S
H1008 C1005 0.929 . S
S1009 N1010 1.613 . S
S1009 N1011 1.610 . S
N1010 S1009 1.613 . S
N1010 C1013 1.350 . S
N1011 S1009 1.610 . S
N1011 C1012 1.351 . S
C1012 C1006 1.428 . S
C1012 N1011 1.351 . S
C1012 C1013 1.434 . S
C1013 C1004 1.429 . S
C1013 N1010 1.350 . S
C1013 C1012 1.434 . S
C1014 C1015 1.369 . S
C1014 C1016 1.419 . S
C1014 H1018 0.930 . S
C1015 C1014 1.369 . S
C1015 C1024 1.429 . S
C1016 C1014 1.419 . S
C1016 C1017 1.363 . S
C1016 H1019 0.929 . S
C1017 C1016 1.363 . S
C1017 C1023 1.428 . S
H1018 C1014 0.930 . S
H1019 C1016 0.929 . S
S1020 N1021 1.613 . S
S1020 N1022 1.610 . S
N1021 S1020 1.613 . S
N1021 C1024 1.350 . S
N1022 S1020 1.610 . S
N1022 C1023 1.351 . S
C1023 C1017 1.428 . S
C1023 N1022 1.351 . S
C1023 C1024 1.434 . S
C1024 C1015 1.429 . S
C1024 N1021 1.350 . S
C1024 C1023 1.434 . S
C1025 C1026 1.369 . S
C1025 C1027 1.419 . S
C1025 H1029 0.930 . S
C1026 C1025 1.369 . S
C1026 C1035 1.429 . S
C1027 C1025 1.419 . S
C1027 C1028 1.363 . S
C1027 H1030 0.929 . S
C1028 C1027 1.363 . S
C1028 C1034 1.428 . S
H1029 C1025 0.930 . S
H1030 C1027 0.929 . S
S1031 N1032 1.613 . S
S1031 N1033 1.610 . S
N1032 S1031 1.613 . S
N1032 C1035 1.350 . S
N1033 S1031 1.610 . S
N1033 C1034 1.351 . S
C1034 C1028 1.428 . S
C1034 N1033 1.351 . S
C1034 C1035 1.434 . S
C1035 C1026 1.429 . S
C1035 N1032 1.350 . S
C1035 C1034 1.434 . S
C1036 C1037 1.369 . S
C1036 C1038 1.419 . S
C1036 H1040 0.930 . S
C1037 C1036 1.369 . S
C1037 C1046 1.429 . S
C1038 C1036 1.419 . S
C1038 C1039 1.363 . S
C1038 H1041 0.929 . S
C1039 C1038 1.363 . S
C1039 C1045 1.428 . S
H1040 C1036 0.930 . S
H1041 C1038 0.929 . S
S1042 N1043 1.613 . S
S1042 N1044 1.610 . S
N1043 S1042 1.613 . S
N1043 C1046 1.350 . S
N1044 S1042 1.610 . S
N1044 C1045 1.351 . S
C1045 C1039 1.428 . S
C1045 N1044 1.351 . S
C1045 C1046 1.434 . S
C1046 C1037 1.429 . S
C1046 N1043 1.350 . S
C1046 C1045 1.434 . S
C1047 C1048 1.369 . S
C1047 C1049 1.419 . S
C1047 H1051 0.930 . S
C1048 C1047 1.369 . S
C1048 C1057 1.429 . S
C1049 C1047 1.419 . S
C1049 C1050 1.363 . S
C1049 H1052 0.929 . S
C1050 C1049 1.363 . S
C1050 C1056 1.428 . S
H1051 C1047 0.930 . S
H1052 C1049 0.929 . S
S1053 N1054 1.613 . S
S1053 N1055 1.610 . S
N1054 S1053 1.613 . S
N1054 C1057 1.350 . S
N1055 S1053 1.610 . S
N1055 C1056 1.351 . S
C1056 C1050 1.428 . S
C1056 N1055 1.351 . S
C1056 C1057 1.434 . S
C1057 C1048 1.429 . S
C1057 N1054 1.350 . S
C1057 C1056 1.434 . S
C1058 C1059 1.369 . S
C1058 C1060 1.419 . S
C1058 H1062 0.930 . S
C1059 C1058 1.369 . S
C1059 C1068 1.429 . S
C1060 C1058 1.419 . S
C1060 C1061 1.363 . S
C1060 H1063 0.929 . S
C1061 C1060 1.363 . S
C1061 C1067 1.428 . S
H1062 C1058 0.930 . S
H1063 C1060 0.929 . S
S1064 N1065 1.613 . S
S1064 N1066 1.610 . S
N1065 S1064 1.613 . S
N1065 C1068 1.350 . S
N1066 S1064 1.610 . S
N1066 C1067 1.351 . S
C1067 C1061 1.428 . S
C1067 N1066 1.351 . S
C1067 C1068 1.434 . S
C1068 C1059 1.429 . S
C1068 N1065 1.350 . S
C1068 C1067 1.434 . S
C1069 C1070 1.369 . S
C1069 C1071 1.419 . S
C1069 H1073 0.930 . S
C1070 C1069 1.369 . S
C1070 C1079 1.429 . S
C1071 C1069 1.419 . S
C1071 C1072 1.363 . S
C1071 H1074 0.929 . S
C1072 C1071 1.363 . S
C1072 C1078 1.428 . S
H1073 C1069 0.930 . S
H1074 C1071 0.929 . S
S1075 N1076 1.613 . S
S1075 N1077 1.610 . S
N1076 S1075 1.613 . S
N1076 C1079 1.350 . S
N1077 S1075 1.610 . S
N1077 C1078 1.351 . S
C1078 C1072 1.428 . S
C1078 N1077 1.351 . S
C1078 C1079 1.434 . S
C1079 C1070 1.429 . S
C1079 N1076 1.350 . S
C1079 C1078 1.434 . S
C817 C361 1.448 1_545 S
C819 C554 1.466 . S
C830 C638 1.465 . S
C828 C451 1.462 . S
C841 C631 1.472 . S
C839 C241 1.445 . S
C850 C331 1.454 1_545 S
C852 C547 1.474 . S
C863 C711 1.463 . S
C861 C140 1.439 1_565 S
C874 C795 1.463 . S
C872 C211 1.435 . S
C883 C20 1.434 . S
C885 C788 1.472 . S
C894 C91 1.425 1_565 S
C896 C704 1.475 . S
C907 C538 1.316 . S
C905 C80 1.475 . S
C918 C622 1.316 . S
C916 C1 1.476 . S
C929 C633 1.409 . S
C927 C200 1.500 . S
C940 C549 1.407 . S
C938 C121 1.494 . S
C951 C717 1.328 . S
C949 C320 1.507 . S
C960 C260 1.489 . S
C962 C801 1.320 . S
C973 C790 1.409 . S
C971 C440 1.521 . S
C982 C380 1.499 . S
C984 C706 1.406 . S
C995 C536 1.579 . S
C993 C31 1.550 . S
C1006 C620 1.580 . S
C1004 C61 1.552 . S
C1015 C151 1.547 . S
C1017 C627 1.563 . S
C1028 C543 1.562 . S
C1026 C181 1.545 . S
C1039 C715 1.580 . S
C1037 C271 1.496 . S
C1048 C301 1.585 . S
C1050 C799 1.578 . S
C1059 C391 1.490 . S
C1061 C806 1.562 . S
C1070 C421 1.571 . S
C1072 C722 1.565 . S
