# Generated by pormake.
# Topology ctn, (3,4)-cn, num edge types: 1
# Building blocks:
#     Node 0, Type 0, BuildingBlock: CUQRIR_clean_linker_1, # of connection points: 3
#     Node 1, Type 0, BuildingBlock: CUQRIR_clean_linker_1, # of connection points: 3
#     Node 2, Type 0, BuildingBlock: CUQRIR_clean_linker_1, # of connection points: 3
#     Node 3, Type 0, BuildingBlock: CUQRIR_clean_linker_1, # of connection points: 3
#     Node 4, Type 0, BuildingBlock: CUQRIR_clean_linker_1, # of connection points: 3
#     Node 5, Type 0, BuildingBlock: CUQRIR_clean_linker_1, # of connection points: 3
#     Node 6, Type 0, BuildingBlock: CUQRIR_clean_linker_1, # of connection points: 3
#     Node 7, Type 0, BuildingBlock: CUQRIR_clean_linker_1, # of connection points: 3
#     Node 8, Type 0, BuildingBlock: CUQRIR_clean_linker_1, # of connection points: 3
#     Node 9, Type 0, BuildingBlock: CUQRIR_clean_linker_1, # of connection points: 3
#     Node 10, Type 0, BuildingBlock: CUQRIR_clean_linker_1, # of connection points: 3
#     Node 11, Type 0, BuildingBlock: CUQRIR_clean_linker_1, # of connection points: 3
#     Node 12, Type 0, BuildingBlock: CUQRIR_clean_linker_1, # of connection points: 3
#     Node 13, Type 0, BuildingBlock: CUQRIR_clean_linker_1, # of connection points: 3
#     Node 14, Type 0, BuildingBlock: CUQRIR_clean_linker_1, # of connection points: 3
#     Node 15, Type 0, BuildingBlock: CUQRIR_clean_linker_1, # of connection points: 3
#     Node 16, Type 1, BuildingBlock: AZAVOO_clean_sbu_0, # of connection points: 4
#     Node 17, Type 1, BuildingBlock: AZAVOO_clean_sbu_0, # of connection points: 4
#     Node 18, Type 1, BuildingBlock: AZAVOO_clean_sbu_0, # of connection points: 4
#     Node 19, Type 1, BuildingBlock: AZAVOO_clean_sbu_0, # of connection points: 4
#     Node 20, Type 1, BuildingBlock: AZAVOO_clean_sbu_0, # of connection points: 4
#     Node 21, Type 1, BuildingBlock: AZAVOO_clean_sbu_0, # of connection points: 4
#     Node 22, Type 1, BuildingBlock: AZAVOO_clean_sbu_0, # of connection points: 4
#     Node 23, Type 1, BuildingBlock: AZAVOO_clean_sbu_0, # of connection points: 4
#     Node 24, Type 1, BuildingBlock: AZAVOO_clean_sbu_0, # of connection points: 4
#     Node 25, Type 1, BuildingBlock: AZAVOO_clean_sbu_0, # of connection points: 4
#     Node 26, Type 1, BuildingBlock: AZAVOO_clean_sbu_0, # of connection points: 4
#     Node 27, Type 1, BuildingBlock: AZAVOO_clean_sbu_0, # of connection points: 4
#     Edge 28, Type (0, 1), BuildingBlock: XUDNAN_clean_linker_2, # of connection points: 2
#     Edge 29, Type (0, 1), BuildingBlock: XUDNAN_clean_linker_2, # of connection points: 2
#     Edge 30, Type (0, 1), BuildingBlock: XUDNAN_clean_linker_2, # of connection points: 2
#     Edge 31, Type (0, 1), BuildingBlock: XUDNAN_clean_linker_2, # of connection points: 2
#     Edge 32, Type (0, 1), BuildingBlock: XUDNAN_clean_linker_2, # of connection points: 2
#     Edge 33, Type (0, 1), BuildingBlock: XUDNAN_clean_linker_2, # of connection points: 2
#     Edge 34, Type (0, 1), BuildingBlock: XUDNAN_clean_linker_2, # of connection points: 2
#     Edge 35, Type (0, 1), BuildingBlock: XUDNAN_clean_linker_2, # of connection points: 2
#     Edge 36, Type (0, 1), BuildingBlock: XUDNAN_clean_linker_2, # of connection points: 2
#     Edge 37, Type (0, 1), BuildingBlock: XUDNAN_clean_linker_2, # of connection points: 2
#     Edge 38, Type (0, 1), BuildingBlock: XUDNAN_clean_linker_2, # of connection points: 2
#     Edge 39, Type (0, 1), BuildingBlock: XUDNAN_clean_linker_2, # of connection points: 2
#     Edge 40, Type (0, 1), BuildingBlock: XUDNAN_clean_linker_2, # of connection points: 2
#     Edge 41, Type (0, 1), BuildingBlock: XUDNAN_clean_linker_2, # of connection points: 2
#     Edge 42, Type (0, 1), BuildingBlock: XUDNAN_clean_linker_2, # of connection points: 2
#     Edge 43, Type (0, 1), BuildingBlock: XUDNAN_clean_linker_2, # of connection points: 2
#     Edge 44, Type (0, 1), BuildingBlock: XUDNAN_clean_linker_2, # of connection points: 2
#     Edge 45, Type (0, 1), BuildingBlock: XUDNAN_clean_linker_2, # of connection points: 2
#     Edge 46, Type (0, 1), BuildingBlock: XUDNAN_clean_linker_2, # of connection points: 2
#     Edge 47, Type (0, 1), BuildingBlock: XUDNAN_clean_linker_2, # of connection points: 2
#     Edge 48, Type (0, 1), BuildingBlock: XUDNAN_clean_linker_2, # of connection points: 2
#     Edge 49, Type (0, 1), BuildingBlock: XUDNAN_clean_linker_2, # of connection points: 2
#     Edge 50, Type (0, 1), BuildingBlock: XUDNAN_clean_linker_2, # of connection points: 2
#     Edge 51, Type (0, 1), BuildingBlock: XUDNAN_clean_linker_2, # of connection points: 2
#     Edge 52, Type (0, 1), BuildingBlock: XUDNAN_clean_linker_2, # of connection points: 2
#     Edge 53, Type (0, 1), BuildingBlock: XUDNAN_clean_linker_2, # of connection points: 2
#     Edge 54, Type (0, 1), BuildingBlock: XUDNAN_clean_linker_2, # of connection points: 2
#     Edge 55, Type (0, 1), BuildingBlock: XUDNAN_clean_linker_2, # of connection points: 2
#     Edge 56, Type (0, 1), BuildingBlock: XUDNAN_clean_linker_2, # of connection points: 2
#     Edge 57, Type (0, 1), BuildingBlock: XUDNAN_clean_linker_2, # of connection points: 2
#     Edge 58, Type (0, 1), BuildingBlock: XUDNAN_clean_linker_2, # of connection points: 2
#     Edge 59, Type (0, 1), BuildingBlock: XUDNAN_clean_linker_2, # of connection points: 2
#     Edge 60, Type (0, 1), BuildingBlock: XUDNAN_clean_linker_2, # of connection points: 2
#     Edge 61, Type (0, 1), BuildingBlock: XUDNAN_clean_linker_2, # of connection points: 2
#     Edge 62, Type (0, 1), BuildingBlock: XUDNAN_clean_linker_2, # of connection points: 2
#     Edge 63, Type (0, 1), BuildingBlock: XUDNAN_clean_linker_2, # of connection points: 2
#     Edge 64, Type (0, 1), BuildingBlock: XUDNAN_clean_linker_2, # of connection points: 2
#     Edge 65, Type (0, 1), BuildingBlock: XUDNAN_clean_linker_2, # of connection points: 2
#     Edge 66, Type (0, 1), BuildingBlock: XUDNAN_clean_linker_2, # of connection points: 2
#     Edge 67, Type (0, 1), BuildingBlock: XUDNAN_clean_linker_2, # of connection points: 2
#     Edge 68, Type (0, 1), BuildingBlock: XUDNAN_clean_linker_2, # of connection points: 2
#     Edge 69, Type (0, 1), BuildingBlock: XUDNAN_clean_linker_2, # of connection points: 2
#     Edge 70, Type (0, 1), BuildingBlock: XUDNAN_clean_linker_2, # of connection points: 2
#     Edge 71, Type (0, 1), BuildingBlock: XUDNAN_clean_linker_2, # of connection points: 2
#     Edge 72, Type (0, 1), BuildingBlock: XUDNAN_clean_linker_2, # of connection points: 2
#     Edge 73, Type (0, 1), BuildingBlock: XUDNAN_clean_linker_2, # of connection points: 2
#     Edge 74, Type (0, 1), BuildingBlock: XUDNAN_clean_linker_2, # of connection points: 2
#     Edge 75, Type (0, 1), BuildingBlock: XUDNAN_clean_linker_2, # of connection points: 2
# Relax obj value: 0.080
# Max RMSD: 0.208
# Mean RMSD: 0.132
data_MOF--net-ctn--node1-AZAVOO_clean_sbu_0--node2-CUQRIR_clean_linker_1--edge1-XUDNAN_clean_linker_2
_symmetry_space_group_name_H-M    P1
_symmetry_Int_Tables_number       1
_symmetry_cell_setting            triclinic
loop_
_symmetry_equiv_pos_as_xyz
'x, y, z'
_cell_length_a     51.199519
_cell_length_b     48.441144
_cell_length_c     49.746466
_cell_angle_alpha  96.795537
_cell_angle_beta   91.800171
_cell_angle_gamma 95.900853
loop_
_atom_site_label
_atom_site_type_symbol
_atom_site_fract_x
_atom_site_fract_y
_atom_site_fract_z
_atom_type_partial_charge
C0 C 0.03775 0.99423 0.06052 0.0
N1 N 0.04854 0.99814 0.03644 0.0
N2 N 0.01328 1.00253 0.06128 0.0
C3 C 0.05142 0.98336 0.08372 0.0
C4 C 0.0094 0.01075 0.03655 0.0
N5 N 0.03082 0.00856 0.02152 0.0
C6 C 0.98535 0.02345 0.02778 0.0
H7 H 0.03734 0.97551 0.09819 0.0
H8 H 0.065 1.00056 0.09482 0.0
H9 H 0.06303 0.96616 0.07614 0.0
H10 H 0.98901 0.04658 0.03157 0.0
H11 H 0.96807 0.01643 0.03913 0.0
H12 H 0.98101 0.01759 0.00572 0.0
C13 C 0.29515 0.7358 0.23871 0.0
N14 N 0.30278 0.72163 0.25892 0.0
N15 N 0.31365 0.757 0.23516 0.0
C16 C 0.27008 0.72798 0.22161 0.0
C17 C 0.33289 0.75503 0.25406 0.0
N18 N 0.3261 0.73376 0.26876 0.0
C19 C 0.35833 0.77376 0.25819 0.0
H20 H 0.26306 0.70551 0.22142 0.0
H21 H 0.27292 0.73244 0.20047 0.0
H22 H 0.25467 0.74045 0.23025 0.0
H23 H 0.36501 0.77692 0.27987 0.0
H24 H 0.35624 0.79434 0.25113 0.0
H25 H 0.3736 0.76366 0.24646 0.0
C26 C 0.97429 0.48934 0.09702 0.0
N27 N 0.99111 0.46945 0.09422 0.0
N28 N 0.9567 0.48618 0.07569 0.0
C29 C 0.97411 0.51096 0.12128 0.0
C30 C 0.96313 0.46334 0.05999 0.0
N31 N 0.98396 0.45303 0.07127 0.0
C32 C 0.94803 0.45017 0.03446 0.0
H33 H 0.96243 0.50174 0.13707 0.0
H34 H 0.96499 0.52949 0.11586 0.0
H35 H 0.99438 0.51749 0.12983 0.0
H36 H 0.93868 0.46607 0.02431 0.0
H37 H 0.9323 0.43447 0.03974 0.0
H38 H 0.96109 0.43942 0.02025 0.0
C39 C 0.69455 0.78564 0.22864 0.0
N40 N 0.71456 0.80022 0.21741 0.0
N41 N 0.68467 0.80199 0.24899 0.0
C42 C 0.68298 0.75637 0.21816 0.0
C43 C 0.69925 0.827 0.24975 0.0
N44 N 0.71721 0.82607 0.23037 0.0
C45 C 0.69695 0.85175 0.27056 0.0
H46 H 0.66222 0.75251 0.22369 0.0
H47 H 0.69446 0.74131 0.22723 0.0
H48 H 0.68399 0.7525 0.1958 0.0
H49 H 0.68885 0.84497 0.28943 0.0
H50 H 0.68345 0.86549 0.26229 0.0
H51 H 0.71637 0.86405 0.27545 0.0
C52 C 0.03012 0.98333 0.49889 0.0
N53 N 0.05283 0.9905 0.51395 0.0
N54 N 0.03028 0.99638 0.47633 0.0
C55 C 0.00828 0.96228 0.50559 0.0
C56 C 0.054 0.01187 0.47814 0.0
N57 N 0.06784 0.00833 0.50103 0.0
C58 C 0.0647 0.02808 0.45612 0.0
H59 H 0.01391 0.9409 0.49996 0.0
H60 H 0.98961 0.96445 0.49451 0.0
H61 H 1.0051 0.96483 0.52765 0.0
H62 H 0.0559 0.01896 0.43596 0.0
H63 H 0.08639 0.02851 0.45567 0.0
H64 H 0.05973 0.04991 0.46011 0.0
C65 C 0.18906 0.72346 0.78695 0.0
N66 N 0.20682 0.71138 0.80126 0.0
N67 N 0.18381 0.70888 0.76209 0.0
C68 C 0.17944 0.75135 0.79579 0.0
C69 C 0.19914 0.68772 0.76164 0.0
N70 N 0.21325 0.68927 0.78532 0.0
C71 C 0.20005 0.66529 0.73813 0.0
H72 H 0.16176 0.74799 0.80782 0.0
H73 H 0.17399 0.76192 0.77816 0.0
H74 H 0.19464 0.76532 0.80864 0.0
H75 H 0.21619 0.67162 0.72503 0.0
H76 H 0.1813 0.66222 0.72581 0.0
H77 H 0.20395 0.64523 0.74537 0.0
C78 C 0.9488 0.50778 0.45649 0.0
N79 N 0.96958 0.52772 0.45867 0.0
N80 N 0.92875 0.51678 0.47108 0.0
C81 C 0.94761 0.47996 0.43924 0.0
C82 C 0.93805 0.54299 0.4821 0.0
N83 N 0.96275 0.5498 0.47423 0.0
C84 C 0.92408 0.56082 0.5027 0.0
H85 H 0.92699 0.47164 0.43321 0.0
H86 H 0.95641 0.46487 0.45099 0.0
H87 H 0.95898 0.48183 0.42079 0.0
H88 H 0.93822 0.57402 0.51743 0.0
H89 H 0.91026 0.54781 0.51397 0.0
H90 H 0.91273 0.57485 0.49199 0.0
C91 C 0.79216 0.78842 0.81533 0.0
N92 N 0.81259 0.77308 0.81097 0.0
N93 N 0.79493 0.81154 0.80236 0.0
C94 C 0.76932 0.78052 0.83226 0.0
C95 C 0.81811 0.80976 0.78998 0.0
N96 N 0.82904 0.78642 0.79537 0.0
C97 C 0.83055 0.83116 0.77323 0.0
H98 H 0.75132 0.78916 0.8255 0.0
H99 H 0.7743 0.78896 0.85373 0.0
H100 H 0.76526 0.75747 0.83117 0.0
H101 H 0.81765 0.84725 0.76919 0.0
H102 H 0.83652 0.82064 0.75369 0.0
H103 H 0.84841 0.84231 0.78431 0.0
C104 C 0.29433 0.28508 0.31138 0.0
N105 N 0.3145 0.26947 0.3065 0.0
N106 N 0.29686 0.30802 0.29816 0.0
C107 C 0.27204 0.27772 0.3292 0.0
C108 C 0.31957 0.30587 0.28503 0.0
N109 N 0.33054 0.28249 0.29029 0.0
C110 C 0.33148 0.3269 0.26761 0.0
H111 H 0.25403 0.28678 0.32317 0.0
H112 H 0.27789 0.28608 0.35051 0.0
H113 H 0.26761 0.25471 0.32821 0.0
H114 H 0.34897 0.33899 0.2786 0.0
H115 H 0.31795 0.34214 0.26277 0.0
H116 H 0.33791 0.31604 0.24844 0.0
C117 C 0.47977 0.99914 0.59685 0.0
N118 N 0.49746 0.98046 0.59078 0.0
N119 N 0.46013 0.99607 0.57745 0.0
C120 C 0.48265 0.02198 0.62036 0.0
C121 C 0.46639 0.97498 0.55935 0.0
N122 N 0.4891 0.96567 0.56723 0.0
C123 C 0.44983 0.96287 0.53436 0.0
H124 H 0.47442 0.01358 0.63847 0.0
H125 H 0.47179 0.03975 0.61603 0.0
H126 H 0.50365 0.02972 0.62504 0.0
H127 H 0.42875 0.96523 0.53733 0.0
H128 H 0.45218 0.94042 0.52884 0.0
H129 H 0.45623 0.97429 0.51724 0.0
C130 C 0.19186 0.29099 0.72737 0.0
N131 N 0.21282 0.30188 0.71463 0.0
N132 N 0.18835 0.30737 0.75071 0.0
C133 C 0.17548 0.26374 0.71792 0.0
C134 C 0.2078 0.32874 0.75152 0.0
N135 N 0.22263 0.32549 0.72951 0.0
C136 C 0.21342 0.35184 0.77471 0.0
H137 H 0.15464 0.26755 0.71514 0.0
H138 H 0.17647 0.24945 0.7337 0.0
H139 H 0.18176 0.25342 0.69849 0.0
H140 H 0.2327 0.34995 0.78479 0.0
H141 H 0.19793 0.35149 0.78975 0.0
H142 H 0.21463 0.37245 0.76702 0.0
C143 C 0.80025 0.23892 0.73657 0.0
N144 N 0.81054 0.22547 0.75608 0.0
N145 N 0.81762 0.26014 0.73054 0.0
C146 C 0.77371 0.23028 0.72244 0.0
C147 C 0.83891 0.25888 0.74715 0.0
N148 N 0.83459 0.23789 0.76277 0.0
C149 C 0.86353 0.27896 0.74913 0.0
H150 H 0.76724 0.20788 0.72342 0.0
H151 H 0.77406 0.23402 0.70087 0.0
H152 H 0.75906 0.24282 0.73259 0.0
H153 H 0.87232 0.28202 0.77009 0.0
H154 H 0.85938 0.29948 0.74314 0.0
H155 H 0.87809 0.27018 0.73542 0.0
C156 C 0.52971 0.4797 0.54753 0.0
N157 N 0.54199 0.49336 0.5285 0.0
N158 N 0.5112 0.49458 0.55936 0.0
C159 C 0.53689 0.45234 0.55552 0.0
C160 C 0.51236 0.51767 0.54631 0.0
N161 N 0.53103 0.51693 0.52758 0.0
C162 C 0.49757 0.54252 0.55434 0.0
H163 H 0.52083 0.4419 0.56638 0.0
H164 H 0.555 0.45615 0.56885 0.0
H165 H 0.54114 0.43833 0.53723 0.0
H166 H 0.50095 0.54943 0.57637 0.0
H167 H 0.47621 0.5363 0.55044 0.0
H168 H 0.50327 0.56037 0.54296 0.0
C169 C 0.53018 0.4952 0.00848 0.0
N170 N 0.55372 0.49826 0.02227 0.0
N171 N 0.52902 0.5151 0.99176 0.0
C172 C 0.50853 0.47221 0.01079 0.0
C173 C 0.55281 0.53034 0.99564 0.0
N174 N 0.56792 0.52029 0.01444 0.0
C175 C 0.56218 0.553 0.9788 0.0
H176 H 0.51288 0.45302 0.99797 0.0
H177 H 0.48923 0.47798 0.00388 0.0
H178 H 0.50742 0.46737 0.032 0.0
H179 H 0.55104 0.55059 0.95903 0.0
H180 H 0.58341 0.55277 0.97506 0.0
H181 H 0.55917 0.57362 0.98986 0.0
C182 C 0.68737 0.22269 0.28335 0.0
N183 N 0.70511 0.21182 0.29878 0.0
N184 N 0.68302 0.20705 0.25888 0.0
C185 C 0.6769 0.25042 0.29076 0.0
C186 C 0.6989 0.18647 0.25988 0.0
N187 N 0.71237 0.18938 0.28405 0.0
C188 C 0.70114 0.16339 0.2373 0.0
H189 H 0.65873 0.24701 0.30203 0.0
H190 H 0.67203 0.26025 0.27247 0.0
H191 H 0.69136 0.26507 0.30389 0.0
H192 H 0.71775 0.16962 0.22473 0.0
H193 H 0.68287 0.15936 0.22421 0.0
H194 H 0.70518 0.14389 0.24559 0.0
C195 C 0.44765 0.00802 0.94727 0.0
N196 N 0.46851 0.02785 0.94868 0.0
N197 N 0.42846 0.01687 0.96322 0.0
C198 C 0.44541 0.98047 0.92943 0.0
C199 C 0.43832 0.04287 0.97428 0.0
N200 N 0.46252 0.04972 0.96516 0.0
C201 C 0.42547 0.06043 0.99606 0.0
H202 H 0.42451 0.97266 0.92423 0.0
H203 H 0.45438 0.96488 0.94037 0.0
H204 H 0.45597 0.98251 0.91051 0.0
H205 H 0.44029 0.07354 0.01012 0.0
H206 H 0.41248 0.04721 0.00797 0.0
H207 H 0.41337 0.07454 0.98634 0.0
Mg208 Mg 0.23715 0.84773 0.03449 0.0
O209 O 0.27154 0.87981 0.02591 0.0
O210 O 0.30837 0.85875 0.02763 0.0
Mg211 Mg 0.29846 0.8141 0.03726 0.0
C212 C 0.29644 0.88001 0.02402 0.0
C213 C 0.20283 0.89863 0.03393 0.0
O214 O 0.21731 0.90723 0.0562 0.0
O215 O 0.23958 0.82471 0.99143 0.0
O216 O 0.27668 0.80454 0.99586 0.0
O217 O 0.24299 0.85942 0.08002 0.0
O218 O 0.26315 0.82734 0.0563 0.0
C219 C 0.25671 0.80923 0.98175 0.0
C220 C 0.26004 0.84143 0.07928 0.0
O221 O 0.20668 0.87556 0.02025 0.0
Mg222 Mg 0.15892 0.51547 0.29635 0.0
O223 O 0.13155 0.50246 0.25809 0.0
O224 O 0.15637 0.50148 0.22203 0.0
Mg225 Mg 0.19935 0.51418 0.23733 0.0
C226 C 0.13398 0.49828 0.23248 0.0
C227 C 0.10825 0.5202 0.32876 0.0
O228 O 0.10858 0.54216 0.31557 0.0
O229 O 0.17402 0.47266 0.2932 0.0
O230 O 0.20075 0.47397 0.25849 0.0
O231 O 0.15656 0.56054 0.29437 0.0
O232 O 0.18762 0.53772 0.27529 0.0
C233 C 0.19075 0.46178 0.27783 0.0
C234 C 0.1778 0.5611 0.28094 0.0
O235 O 0.12561 0.50342 0.32406 0.0
Mg236 Mg 0.79975 0.65747 0.02519 0.0
O237 O 0.75909 0.63082 0.02139 0.0
O238 O 0.72921 0.65988 0.014 0.0
Mg239 Mg 0.74978 0.70415 0.01244 0.0
C240 C 0.73521 0.63561 0.01768 0.0
C241 C 0.8161 0.60227 0.04256 0.0
O242 O 0.7969 0.60787 0.05856 0.0
O243 O 0.80089 0.65944 0.97884 0.0
O244 O 0.77288 0.69152 0.97475 0.0
O245 O 0.79463 0.66989 0.06979 0.0
O246 O 0.78236 0.69395 0.03767 0.0
C247 C 0.78963 0.67577 0.96483 0.0
C248 C 0.78372 0.69113 0.063 0.0
O249 O 0.82157 0.61807 0.02434 0.0
Mg250 Mg 0.89599 0.03216 0.27189 0.0
O251 O 0.86626 0.99404 0.25703 0.0
O252 O 0.88825 0.95841 0.24122 0.0
Mg253 Mg 0.93207 0.97413 0.24416 0.0
C254 C 0.86677 0.9687 0.24657 0.0
C255 C 0.86093 0.07848 0.28496 0.0
O256 O 0.87817 0.0882 0.26846 0.0
O257 O 0.90829 0.01267 0.30957 0.0
O258 O 0.9315 0.97926 0.29067 0.0
O259 O 0.89544 0.04616 0.23087 0.0
O260 O 0.92277 0.01745 0.24401 0.0
C261 C 0.92271 0.99287 0.31145 0.0
C262 C 0.91409 0.03065 0.22519 0.0
O263 O 0.8632 0.05465 0.29265 0.0
Mg264 Mg 0.29527 0.15714 0.52169 0.0
O265 O 0.25531 0.12922 0.51639 0.0
O266 O 0.22504 0.15696 0.5065 0.0
Mg267 Mg 0.24464 0.20179 0.50577 0.0
C268 C 0.23143 0.13306 0.51104 0.0
C269 C 0.31402 0.1047 0.54231 0.0
O270 O 0.29481 0.11074 0.55814 0.0
O271 O 0.29828 0.15868 0.47546 0.0
O272 O 0.26969 0.18971 0.46935 0.0
O273 O 0.28816 0.16937 0.56573 0.0
O274 O 0.27633 0.19293 0.53302 0.0
C275 C 0.28725 0.1744 0.46059 0.0
C276 C 0.27683 0.19009 0.55838 0.0
O277 O 0.31844 0.11887 0.52263 0.0
Mg278 Mg 0.3965 0.52691 0.77227 0.0
O279 O 0.37405 0.48262 0.76327 0.0
O280 O 0.40448 0.45261 0.75931 0.0
Mg281 Mg 0.44544 0.4764 0.76564 0.0
C282 C 0.38051 0.45771 0.75888 0.0
C283 C 0.35467 0.56811 0.77348 0.0
O284 O 0.37144 0.57713 0.75618 0.0
O285 O 0.40683 0.5204 0.81629 0.0
O286 O 0.43763 0.49099 0.80984 0.0
O287 O 0.39976 0.52886 0.72723 0.0
O288 O 0.42907 0.51313 0.75322 0.0
C289 C 0.42393 0.506 0.82549 0.0
C290 C 0.42151 0.51768 0.72946 0.0
O291 O 0.35878 0.54627 0.78418 0.0
Mg292 Mg 0.73143 0.34891 0.53204 0.0
O293 O 0.76664 0.38031 0.52422 0.0
O294 O 0.80296 0.3585 0.52686 0.0
Mg295 Mg 0.79181 0.3138 0.53571 0.0
C296 C 0.79155 0.38006 0.52307 0.0
C297 C 0.69764 0.40014 0.53063 0.0
O298 O 0.71086 0.40817 0.55377 0.0
O299 O 0.73423 0.32609 0.48908 0.0
O300 O 0.77094 0.30536 0.49388 0.0
O301 O 0.73698 0.36065 0.57764 0.0
O302 O 0.75655 0.32791 0.5541 0.0
C303 C 0.75135 0.31056 0.47953 0.0
C304 C 0.75374 0.34236 0.57697 0.0
O305 O 0.70202 0.37731 0.51689 0.0
Mg306 Mg 0.66108 0.02097 0.78975 0.0
O307 O 0.63941 0.01116 0.74711 0.0
O308 O 0.67155 0.01042 0.71782 0.0
Mg309 Mg 0.71196 0.02151 0.73977 0.0
C310 C 0.64716 0.00774 0.72282 0.0
C311 C 0.60831 0.02651 0.8192 0.0
O312 O 0.61218 0.05123 0.81076 0.0
O313 O 0.67479 0.97729 0.78732 0.0
O314 O 0.70782 0.98009 0.75895 0.0
O315 O 0.66175 0.06712 0.78997 0.0
O316 O 0.69361 0.0433 0.77448 0.0
C317 C 0.69379 0.96685 0.77511 0.0
C318 C 0.68466 0.06715 0.77972 0.0
O319 O 0.62388 0.00833 0.81209 0.0
Mg320 Mg 0.03022 0.2257 0.92795 0.0
O321 O 0.99297 0.22366 0.90015 0.0
O322 O 0.95825 0.21262 0.92431 0.0
Mg323 Mg 0.97421 0.2056 0.96656 0.0
C324 C 0.96816 0.2187 0.90224 0.0
C325 C 0.05397 0.24913 0.87414 0.0
O326 O 0.0332 0.23581 0.86037 0.0
O327 O 0.02153 0.26645 0.95212 0.0
O328 O 0.98854 0.25296 0.97755 0.0
O329 O 0.03385 0.18125 0.91408 0.0
O330 O 0.01285 0.19547 0.9506 0.0
C331 C 0.00543 0.27189 0.9706 0.0
C332 C 0.02047 0.17508 0.9346 0.0
O333 O 0.056 0.24907 0.89966 0.0
Mg334 Mg 0.5233 0.73253 0.42675 0.0
O335 O 0.48342 0.72304 0.40351 0.0
O336 O 0.45222 0.7175 0.43325 0.0
Mg337 Mg 0.47388 0.71759 0.47489 0.0
C338 C 0.4593 0.71889 0.40904 0.0
C339 C 0.56176 0.74074 0.38147 0.0
O340 O 0.57167 0.7214 0.39382 0.0
O341 O 0.51395 0.77579 0.4456 0.0
O342 O 0.48691 0.76505 0.4781 0.0
O343 O 0.52919 0.68724 0.42097 0.0
O344 O 0.51191 0.70796 0.45717 0.0
C345 C 0.50075 0.78305 0.46618 0.0
C346 C 0.51951 0.68557 0.44451 0.0
O347 O 0.54087 0.75013 0.39004 0.0
Mg348 Mg 0.99733 0.76897 0.61758 0.0
O349 O 0.03795 0.76198 0.63575 0.0
O350 O 0.06345 0.75541 0.60029 0.0
Mg351 Mg 0.04122 0.75916 0.56077 0.0
C352 C 0.05998 0.75705 0.62572 0.0
C353 C 0.95707 0.76518 0.65832 0.0
O354 O 0.94833 0.75189 0.63468 0.0
O355 O 0.0131 0.81482 0.61191 0.0
O356 O 0.03776 0.80484 0.57649 0.0
O357 O 0.98748 0.72235 0.61088 0.0
O358 O 1.00515 0.74663 0.58003 0.0
C359 C 0.02849 0.82259 0.59368 0.0
C360 C 0.99743 0.72272 0.5874 0.0
O361 O 0.97981 0.77893 0.65977 0.0
Mg362 Mg 0.49843 0.26624 0.11165 0.0
O363 O 0.53888 0.25884 0.12988 0.0
O364 O 0.56484 0.25345 0.09468 0.0
Mg365 Mg 0.54294 0.25821 0.05517 0.0
C366 C 0.56104 0.25426 0.12001 0.0
C367 C 0.4582 0.26101 0.15275 0.0
O368 O 0.44953 0.24732 0.12925 0.0
O369 O 0.5142 0.31238 0.1071 0.0
O370 O 0.53898 0.3037 0.07147 0.0
O371 O 0.48869 0.21963 0.1037 0.0
O372 O 0.50664 0.24489 0.07372 0.0
C373 C 0.52942 0.32086 0.08903 0.0
C374 C 0.49884 0.22068 0.08039 0.0
O375 O 0.48068 0.27529 0.15394 0.0
H376 H 0.18247 0.72746 0.84707 0.0
H377 H 0.25906 0.72261 0.81335 0.0
H378 H 0.28015 0.74654 0.85642 0.0
H379 H 0.19708 0.7968 0.88026 0.0
H380 H 0.17789 0.79115 0.90927 0.0
H381 H 0.1689 0.77088 0.87697 0.0
H382 H 0.1712 0.72501 0.89854 0.0
H383 H 0.17991 0.74511 0.93099 0.0
H384 H 0.2008 0.71977 0.917 0.0
H385 H 0.29266 0.77212 0.90239 0.0
H386 H 0.29617 0.79768 0.94848 0.0
H387 H 0.21113 0.78994 0.95128 0.0
C388 C 0.20369 0.7312 0.84899 0.0
C389 C 0.21923 0.72276 0.82717 0.0
C390 C 0.24691 0.72814 0.83013 0.0
C391 C 0.25899 0.74201 0.85439 0.0
C392 C 0.24306 0.75068 0.87529 0.0
C393 C 0.216 0.74554 0.87286 0.0
C394 C 0.20335 0.75841 0.89782 0.0
C395 C 0.18577 0.78063 0.89064 0.0
C396 C 0.18791 0.73572 0.91192 0.0
C397 C 0.22755 0.77162 0.91472 0.0
C398 C 0.25022 0.7667 0.90137 0.0
C399 C 0.27507 0.77616 0.91302 0.0
C400 C 0.27684 0.79067 0.93919 0.0
C401 C 0.25392 0.79591 0.95335 0.0
C402 C 0.22894 0.78657 0.94077 0.0
H403 H 0.99056 0.56038 0.42282 0.0
H404 H 1.00311 0.48937 0.46486 0.0
H405 H 0.04125 0.48017 0.43692 0.0
H406 H 1.00354 0.52978 0.3583 0.0
H407 H 0.02019 0.56079 0.34722 0.0
H408 H 0.99601 0.56387 0.37258 0.0
H409 H 0.03 0.59513 0.40561 0.0
H410 H 0.0542 0.59259 0.38015 0.0
H411 H 0.06111 0.5828 0.41328 0.0
H412 H 0.07519 0.47622 0.40143 0.0
H413 H 0.10468 0.4798 0.36329 0.0
H414 H 0.06974 0.55347 0.34413 0.0
C415 C 1.00195 0.54349 0.42656 0.0
C416 C 0.99424 0.5256 0.44592 0.0
C417 C 0.00899 0.50322 0.45006 0.0
C418 C 0.03055 0.49787 0.43429 0.0
C419 C 0.03713 0.51524 0.41456 0.0
C420 C 0.02349 0.53783 0.41088 0.0
C421 C 0.03372 0.55237 0.38737 0.0
C422 C 0.01207 0.55164 0.36505 0.0
C423 C 0.04546 0.58251 0.39719 0.0
C424 C 0.05486 0.53412 0.37809 0.0
C425 C 0.05659 0.51288 0.39408 0.0
C426 C 0.0742 0.49295 0.38893 0.0
C427 C 0.09077 0.49505 0.36712 0.0
C428 C 0.08959 0.5169 0.35068 0.0
C429 C 0.07122 0.53652 0.35628 0.0
H430 H 0.8353 0.77904 0.86061 0.0
H431 H 0.79743 0.7179 0.7976 0.0
H432 H 0.79467 0.68218 0.82942 0.0
H433 H 0.86978 0.73006 0.90081 0.0
H434 H 0.86216 0.74933 0.93233 0.0
H435 H 0.86784 0.7672 0.9029 0.0
H436 H 0.82261 0.78635 0.90777 0.0
H437 H 0.81654 0.7683 0.93684 0.0
H438 H 0.79342 0.76219 0.90813 0.0
H439 H 0.78904 0.65563 0.8705 0.0
H440 H 0.77995 0.64202 0.91624 0.0
H441 H 0.81856 0.72188 0.95278 0.0
C442 C 0.828 0.75762 0.85327 0.0
C443 C 0.818 0.7507 0.82632 0.0
C444 C 0.80663 0.72309 0.8177 0.0
C445 C 0.80468 0.7028 0.8358 0.0
C446 C 0.81387 0.71058 0.86265 0.0
C447 C 0.82542 0.73742 0.87129 0.0
C448 C 0.82966 0.74211 0.90184 0.0
C449 C 0.85912 0.74749 0.90994 0.0
C450 C 0.81465 0.76614 0.91436 0.0
C451 C 0.81793 0.71413 0.90919 0.0
C452 C 0.80942 0.69591 0.88636 0.0
C453 C 0.79616 0.66955 0.88844 0.0
C454 C 0.79112 0.6619 0.91444 0.0
C455 C 0.79904 0.68072 0.93786 0.0
C456 C 0.8129 0.70689 0.9351 0.0
H457 H 1.00393 0.03325 0.45208 0.0
H458 H 0.01646 0.94588 0.44807 0.0
H459 H 0.98536 0.93466 0.40829 0.0
H460 H 0.93375 0.02251 0.43026 0.0
H461 H 0.93621 0.05133 0.41031 0.0
H462 H 0.95773 0.05227 0.43987 0.0
H463 H 0.99836 0.06007 0.41081 0.0
H464 H 0.97697 0.05947 0.38129 0.0
H465 H 1.00195 0.0358 0.3811 0.0
H466 H 0.95604 0.93339 0.36737 0.0
H467 H 0.93183 0.94237 0.32616 0.0
H468 H 0.93718 0.03059 0.35632 0.0
C469 C 0.99979 0.0118 0.44285 0.0
C470 C 0.01209 0.99027 0.45322 0.0
C471 C 0.00672 0.96244 0.44059 0.0
C472 C 0.98913 0.95593 0.41807 0.0
C473 C 0.97708 0.97754 0.40841 0.0
C474 C 0.98221 0.00494 0.42027 0.0
C475 C 0.96788 0.02438 0.40472 0.0
C476 C 0.94769 0.03845 0.42235 0.0
C477 C 0.98746 0.04621 0.39383 0.0
C478 C 0.9544 1.00369 0.38195 0.0
C479 C 0.95982 0.97676 0.38468 0.0
C480 C 0.95129 0.95429 0.3652 0.0
C481 C 0.93753 0.95957 0.3419 0.0
C482 C 0.93228 0.98706 0.33832 0.0
C483 C 0.94024 0.00927 0.35895 0.0
H484 H 0.23339 0.25263 0.70444 0.0
H485 H 0.21479 0.32568 0.66857 0.0
H486 H 0.22889 0.30484 0.62401 0.0
H487 H 0.2916 0.241 0.66589 0.0
H488 H 0.28516 0.20346 0.66301 0.0
H489 H 0.2743 0.22468 0.69187 0.0
H490 H 0.22667 0.20124 0.68145 0.0
H491 H 0.23732 0.18012 0.65242 0.0
H492 H 0.21128 0.20188 0.64847 0.0
H493 H 0.24264 0.27472 0.5832 0.0
H494 H 0.25887 0.23961 0.54956 0.0
H495 H 0.26951 0.18625 0.61242 0.0
C496 C 0.23249 0.26413 0.68711 0.0
C497 C 0.22283 0.2905 0.68948 0.0
C498 C 0.22209 0.30538 0.66677 0.0
C499 C 0.22995 0.29366 0.64154 0.0
C500 C 0.23876 0.26721 0.6396 0.0
C501 C 0.24041 0.25278 0.66186 0.0
C502 C 0.25069 0.22477 0.65438 0.0
C503 C 0.277 0.22341 0.66969 0.0
C504 C 0.23027 0.20058 0.65948 0.0
C505 C 0.25431 0.22553 0.62436 0.0
C506 C 0.24719 0.25014 0.61623 0.0
C507 C 0.24841 0.25545 0.58936 0.0
C508 C 0.25752 0.23529 0.57037 0.0
C509 C 0.26543 0.21015 0.57832 0.0
C510 C 0.26363 0.20525 0.60569 0.0
H511 H 0.46067 0.49832 0.57394 0.0
H512 H 0.53868 0.48776 0.60471 0.0
H513 H 0.5225 0.48783 0.65075 0.0
H514 H 0.44854 0.54847 0.62838 0.0
H515 H 0.41397 0.53723 0.62961 0.0
H516 H 0.43031 0.53174 0.5982 0.0
H517 H 0.41484 0.47873 0.59416 0.0
H518 H 0.39835 0.48406 0.62555 0.0
H519 H 0.42231 0.45925 0.62163 0.0
H520 H 0.49947 0.49238 0.69333 0.0
H521 H 0.47131 0.50339 0.73126 0.0
H522 H 0.40821 0.51527 0.6747 0.0
C523 C 0.47414 0.49564 0.59038 0.0
C524 C 0.50076 0.49217 0.58567 0.0
C525 C 0.51801 0.4892 0.60769 0.0
C526 C 0.50904 0.4895 0.63395 0.0
C527 C 0.48283 0.49333 0.638 0.0
C528 C 0.4656 0.49656 0.61696 0.0
C529 C 0.43912 0.50314 0.62747 0.0
C530 C 0.43261 0.53185 0.6205 0.0
C531 C 0.41737 0.4799 0.61655 0.0
C532 C 0.4444 0.50351 0.65772 0.0
C533 C 0.46965 0.49735 0.66314 0.0
C534 C 0.47957 0.49699 0.6894 0.0
C535 C 0.46333 0.50323 0.71082 0.0
C536 C 0.43745 0.50998 0.70599 0.0
C537 C 0.42785 0.51005 0.67902 0.0
H538 H 0.77616 0.28872 0.71984 0.0
H539 H 0.85258 0.27011 0.69236 0.0
H540 H 0.84699 0.29695 0.65378 0.0
H541 H 0.74544 0.27588 0.65537 0.0
H542 H 0.72331 0.30246 0.66075 0.0
H543 H 0.73542 0.28682 0.68905 0.0
H544 H 0.75319 0.3359 0.71297 0.0
H545 H 0.74122 0.35172 0.6846 0.0
H546 H 0.77537 0.35848 0.69573 0.0
H547 H 0.83158 0.32116 0.61598 0.0
H548 H 0.80611 0.3376 0.57934 0.0
H549 H 0.7377 0.33721 0.62847 0.0
C550 C 0.79182 0.29066 0.70586 0.0
C551 C 0.81504 0.27775 0.70933 0.0
C552 C 0.83504 0.28056 0.69055 0.0
C553 C 0.83195 0.29565 0.66852 0.0
C554 C 0.8086 0.30763 0.66535 0.0
C555 C 0.78876 0.30515 0.68338 0.0
C556 C 0.76434 0.31688 0.67343 0.0
C557 C 0.74074 0.29416 0.6694 0.0
C558 C 0.75817 0.34226 0.69284 0.0
C559 C 0.77329 0.32557 0.64658 0.0
C560 C 0.79911 0.32059 0.6427 0.0
C561 C 0.8114 0.32527 0.61885 0.0
C562 C 0.79671 0.33435 0.59803 0.0
C563 C 0.76992 0.33835 0.601 0.0
C564 C 0.75829 0.33475 0.6259 0.0
H565 H 0.50495 0.97846 0.64498 0.0
H566 H 0.54576 0.98089 0.57024 0.0
H567 H 0.58834 0.98436 0.59583 0.0
H568 H 0.54849 0.03083 0.68299 0.0
H569 H 0.54679 0.0155 0.71428 0.0
H570 H 0.51945 0.00893 0.6899 0.0
H571 H 0.52127 0.95557 0.68867 0.0
H572 H 0.54854 0.96195 0.7132 0.0
H573 H 0.55163 0.94099 0.68124 0.0
H574 H 0.62636 0.99157 0.62967 0.0
H575 H 0.65754 1.00184 0.66898 0.0
H576 H 0.59257 0.99804 0.72305 0.0
C577 C 0.52288 0.97933 0.63403 0.0
C578 C 0.52203 0.97895 0.60549 0.0
C579 C 0.54588 0.98024 0.59189 0.0
C580 C 0.57017 0.98254 0.60635 0.0
C581 C 0.57034 0.98372 0.63451 0.0
C582 C 0.54733 0.98211 0.64826 0.0
C583 C 0.55305 0.98601 0.67874 0.0
C584 C 0.54125 0.01185 0.69227 0.0
C585 C 0.54303 0.95955 0.69119 0.0
C586 C 0.5829 0.9905 0.68 0.0
C587 C 0.59238 0.98878 0.6542 0.0
C588 C 0.61916 0.99277 0.64995 0.0
C589 C 0.63676 0.99868 0.67256 0.0
C590 C 0.62769 1.0008 0.69934 0.0
C591 C 0.60027 0.99653 0.70296 0.0
H592 H 0.83606 0.23789 0.81759 0.0
H593 H 0.87807 0.21684 0.74519 0.0
H594 H 0.91631 0.20772 0.77318 0.0
H595 H 0.88945 0.27402 0.85676 0.0
H596 H 0.88087 0.26156 0.8884 0.0
H597 H 0.85558 0.26348 0.86293 0.0
H598 H 0.83998 0.21094 0.86306 0.0
H599 H 0.86498 0.20892 0.88888 0.0
H600 H 0.86329 0.18558 0.8577 0.0
H601 H 0.95159 0.20681 0.80851 0.0
H602 H 0.98059 0.20864 0.84934 0.0
H603 H 0.91581 0.22819 0.89995 0.0
C604 C 0.85305 0.23048 0.80782 0.0
C605 C 0.85427 0.22778 0.77931 0.0
C606 C 0.87693 0.21875 0.76702 0.0
C607 C 0.89868 0.21365 0.78275 0.0
C608 C 0.89736 0.2174 0.81084 0.0
C609 C 0.87501 0.22509 0.82336 0.0
C610 C 0.87935 0.22864 0.854 0.0
C611 C 0.87612 0.25872 0.86623 0.0
C612 C 0.8608 0.20724 0.86666 0.0
C613 C 0.90777 0.22243 0.85663 0.0
C614 C 0.91773 0.2161 0.83143 0.0
C615 C 0.94391 0.21128 0.82839 0.0
C616 C 0.96031 0.2126 0.85173 0.0
C617 C 0.95052 0.21844 0.87787 0.0
C618 C 0.92381 0.22334 0.88026 0.0
H619 H 0.48045 0.91216 0.57693 0.0
H620 H 0.51947 0.96642 0.52428 0.0
H621 H 0.52919 0.9251 0.49328 0.0
H622 H 0.52216 0.85297 0.56522 0.0
H623 H 0.49417 0.82721 0.56551 0.0
H624 H 0.49469 0.86082 0.58551 0.0
H625 H 0.45048 0.86794 0.56192 0.0
H626 H 0.45008 0.83471 0.54138 0.0
H627 H 0.44801 0.86604 0.5255 0.0
H628 H 0.53043 0.87789 0.46585 0.0
H629 H 0.52467 0.82866 0.4449 0.0
H630 H 0.48249 0.80529 0.51459 0.0
C631 C 0.49215 0.91507 0.55953 0.0
C632 C 0.50031 0.94221 0.5534 0.0
C633 C 0.51411 0.94563 0.52966 0.0
C634 C 0.51943 0.92233 0.5119 0.0
C635 C 0.51042 0.89573 0.51805 0.0
C636 C 0.49722 0.89197 0.54142 0.0
C637 C 0.48737 0.86146 0.542 0.0
C638 C 0.50038 0.84993 0.56598 0.0
C639 C 0.4572 0.85731 0.54274 0.0
C640 C 0.49672 0.8487 0.51517 0.0
C641 C 0.51015 0.86875 0.50175 0.0
C642 C 0.52014 0.86198 0.47631 0.0
C643 C 0.51665 0.83395 0.4645 0.0
C644 C 0.50305 0.81297 0.47797 0.0
C645 C 0.49288 0.8207 0.50361 0.0
H646 H 0.1351 0.29629 0.74888 0.0
H647 H 0.20506 0.30138 0.80126 0.0
H648 H 0.17765 0.28995 0.83931 0.0
H649 H 0.09126 0.32319 0.79839 0.0
H650 H 0.0634 0.29873 0.78587 0.0
H651 H 0.08824 0.30908 0.7631 0.0
H652 H 0.09518 0.25717 0.74924 0.0
H653 H 0.0702 0.24665 0.77179 0.0
H654 H 0.10263 0.2357 0.7751 0.0
H655 H 0.14313 0.27905 0.87146 0.0
H656 H 0.10392 0.26352 0.8952 0.0
H657 H 0.05592 0.26077 0.82112 0.0
C658 C 0.14453 0.29479 0.76835 0.0
C659 C 0.17209 0.30017 0.77245 0.0
C660 C 0.1839 0.29798 0.79809 0.0
C661 C 0.16852 0.29145 0.81969 0.0
C662 C 0.14139 0.28654 0.81511 0.0
C663 C 0.12946 0.28761 0.79001 0.0
C664 C 0.10002 0.27969 0.79027 0.0
C665 C 0.08484 0.30414 0.78404 0.0
C666 C 0.09151 0.25323 0.77043 0.0
C667 C 0.09733 0.27409 0.81947 0.0
C668 C 0.12143 0.27862 0.83345 0.0
C669 C 0.12414 0.27527 0.86074 0.0
C670 C 0.10167 0.26655 0.87406 0.0
C671 C 0.07681 0.26082 0.86002 0.0
C672 C 0.07464 0.26489 0.83237 0.0
H673 H 0.51402 0.52784 0.47861 0.0
H674 H 0.56658 0.55931 0.5475 0.0
H675 H 0.57102 0.60627 0.53203 0.0
H676 H 0.54746 0.57391 0.42935 0.0
H677 H 0.51625 0.57771 0.41317 0.0
H678 H 0.52115 0.54588 0.42719 0.0
H679 H 0.48033 0.55192 0.45583 0.0
H680 H 0.47576 0.58422 0.44271 0.0
H681 H 0.47932 0.58349 0.47877 0.0
H682 H 0.56167 0.65075 0.51506 0.0
H683 H 0.54758 0.68928 0.49163 0.0
H684 H 0.50404 0.62918 0.4307 0.0
C685 C 0.52761 0.54435 0.4894 0.0
C686 C 0.54052 0.54014 0.51382 0.0
C687 C 0.55726 0.56225 0.52835 0.0
C688 C 0.55956 0.58894 0.51987 0.0
C689 C 0.54538 0.5929 0.49649 0.0
C690 C 0.53046 0.57104 0.48085 0.0
C691 C 0.51606 0.58136 0.45744 0.0
C692 C 0.52582 0.56898 0.43017 0.0
C693 C 0.4861 0.57485 0.45879 0.0
C694 C 0.52434 0.61255 0.46304 0.0
C695 C 0.54103 0.6187 0.48585 0.0
C696 C 0.54924 0.64615 0.49675 0.0
C697 C 0.54086 0.66788 0.48353 0.0
C698 C 0.52481 0.66208 0.45945 0.0
C699 C 0.51648 0.63406 0.44901 0.0
H700 H 0.87862 0.81198 0.7899 0.0
H701 H 0.82741 0.73542 0.7671 0.0
H702 H 0.85957 0.71874 0.73499 0.0
H703 H 0.89194 0.82198 0.72413 0.0
H704 H 0.92555 0.8371 0.73051 0.0
H705 H 0.90253 0.84016 0.75701 0.0
H706 H 0.93299 0.81733 0.78836 0.0
H707 H 0.95631 0.81438 0.76201 0.0
H708 H 0.94366 0.78378 0.77681 0.0
H709 H 0.89233 0.71367 0.70022 0.0
H710 H 0.92365 0.71996 0.66457 0.0
H711 H 0.95317 0.80186 0.70555 0.0
C712 C 0.87446 0.79149 0.7785 0.0
C713 C 0.85051 0.77478 0.78132 0.0
C714 C 0.84592 0.74807 0.76613 0.0
C715 C 0.86401 0.7386 0.74754 0.0
C716 C 0.88665 0.75621 0.74411 0.0
C717 C 0.89206 0.78211 0.75918 0.0
C718 C 0.91585 0.79849 0.74873 0.0
C719 C 0.90852 0.82606 0.73955 0.0
C720 C 0.93855 0.8038 0.77026 0.0
C721 C 0.92232 0.77814 0.72478 0.0
C722 C 0.90543 0.75371 0.72298 0.0
C723 C 0.90592 0.73249 0.70166 0.0
C724 C 0.92374 0.73639 0.68138 0.0
C725 C 0.94096 0.76137 0.68224 0.0
C726 C 0.94061 0.78234 0.7046 0.0
H727 H 0.07696 0.94423 0.50944 0.0
H728 H 0.04117 1.00151 0.56628 0.0
H729 H 0.03604 0.9656 0.59791 0.0
H730 H 0.03548 0.88935 0.51408 0.0
H731 H 0.05788 0.86287 0.51139 0.0
H732 H 0.06589 0.89487 0.49719 0.0
H733 H 0.10975 0.90484 0.52569 0.0
H734 H 0.10248 0.87223 0.5394 0.0
H735 H 0.10966 0.90434 0.56186 0.0
H736 H 0.02515 0.9193 0.61754 0.0
H737 H 0.01456 0.86974 0.62532 0.0
H738 H 0.0586 0.84393 0.55527 0.0
C739 C 0.07003 0.94981 0.52949 0.0
C740 C 0.06043 0.97588 0.53598 0.0
C741 C 0.0496 0.982 0.56154 0.0
C742 C 0.0463 0.96155 0.5794 0.0
C743 C 0.05435 0.93521 0.57152 0.0
C744 C 0.06674 0.92964 0.54741 0.0
C745 C 0.07047 0.89898 0.54162 0.0
C746 C 0.0566 0.88577 0.51449 0.0
C747 C 0.09984 0.89486 0.54219 0.0
C748 C 0.05712 0.88784 0.56542 0.0
C749 C 0.0481 0.90888 0.58269 0.0
C750 C 0.03281 0.90279 0.60452 0.0
C751 C 0.02674 0.87455 0.60873 0.0
C752 C 0.03581 0.85276 0.59108 0.0
C753 C 0.05151 0.85987 0.56947 0.0
H754 H 0.1324 0.71766 0.75924 0.0
H755 H 0.20357 0.71923 0.71446 0.0
H756 H 0.17969 0.73335 0.67517 0.0
H757 H 0.08787 0.68978 0.70317 0.0
H758 H 0.06201 0.71066 0.71382 0.0
H759 H 0.08483 0.70132 0.73863 0.0
H760 H 0.09661 0.75368 0.75665 0.0
H761 H 0.07385 0.76319 0.73184 0.0
H762 H 0.10774 0.77793 0.73353 0.0
H763 H 0.14839 0.74602 0.64089 0.0
H764 H 0.11121 0.75618 0.61259 0.0
H765 H 0.05951 0.74718 0.67938 0.0
C766 C 0.14278 0.72111 0.7411 0.0
C767 C 0.16964 0.71717 0.7395 0.0
C768 C 0.18287 0.72179 0.71567 0.0
C769 C 0.16953 0.72996 0.69344 0.0
C770 C 0.14299 0.73355 0.69551 0.0
C771 C 0.12969 0.72931 0.71867 0.0
C772 C 0.10104 0.73418 0.71525 0.0
C773 C 0.08287 0.70739 0.71787 0.0
C774 C 0.09443 0.75871 0.73552 0.0
C775 C 0.1003 0.74153 0.68644 0.0
C776 C 0.12479 0.74112 0.67558 0.0
C777 C 0.12912 0.74651 0.64916 0.0
C778 C 0.1078 0.75221 0.63323 0.0
C779 C 0.08236 0.7525 0.64371 0.0
C780 C 0.07871 0.74734 0.67082 0.0
H781 H 0.95975 0.60332 0.46653 0.0
H782 H 1.00225 0.54938 0.51076 0.0
H783 H 0.02169 0.59037 0.5422 0.0
H784 H 0.01196 0.66746 0.4782 0.0
H785 H 0.98654 0.69064 0.48116 0.0
H786 H 0.9813 0.65823 0.45884 0.0
H787 H 0.93886 0.64472 0.48335 0.0
H788 H 0.9442 0.67656 0.5062 0.0
H789 H 0.94067 0.64335 0.51941 0.0
H790 H 0.02659 0.63431 0.57476 0.0
H791 H 0.02262 0.67973 0.6022 0.0
H792 H 0.97982 0.70659 0.53525 0.0
C793 C 0.97438 0.60061 0.48191 0.0
C794 C 0.9801 0.57358 0.48612 0.0
C795 C 0.99835 0.57018 0.50701 0.0
C796 C 0.00924 0.59329 0.52501 0.0
C797 C 1.00204 0.61966 0.52134 0.0
C798 C 0.98566 0.62358 0.49976 0.0
C799 C 0.97881 0.65345 0.50191 0.0
C800 C 0.99035 0.66833 0.47865 0.0
C801 C 0.94887 0.65455 0.50278 0.0
C802 C 0.99257 0.66528 0.52882 0.0
C803 C 0.00593 0.64549 0.5397 0.0
C804 C 0.01706 0.65031 0.56603 0.0
C805 C 0.01455 0.67599 0.58153 0.0
C806 C 1.0014 0.69659 0.5705 0.0
C807 C 0.99067 0.69136 0.54372 0.0
H808 H 0.77017 0.82677 0.23129 0.0
H809 H 0.70648 0.87673 0.21906 0.0
H810 H 0.73842 0.91865 0.21869 0.0
H811 H 0.80824 0.87551 0.27629 0.0
H812 H 0.83974 0.86812 0.26373 0.0
H813 H 0.81238 0.84131 0.25937 0.0
H814 H 0.81788 0.83486 0.2075 0.0
H815 H 0.84559 0.86139 0.21171 0.0
H816 H 0.81825 0.86474 0.18903 0.0
H817 H 0.7763 0.95583 0.22642 0.0
H818 H 0.81838 0.98554 0.23686 0.0
H819 H 0.85828 0.91138 0.24208 0.0
C820 C 0.7632 0.84641 0.22765 0.0
C821 C 0.73604 0.84882 0.22526 0.0
C822 C 0.7273 0.87478 0.22104 0.0
C823 C 0.74527 0.89857 0.22077 0.0
C824 C 0.77194 0.89588 0.22433 0.0
C825 C 0.78098 0.87038 0.22716 0.0
C826 C 0.81056 0.8736 0.23215 0.0
C827 C 0.81816 0.86408 0.25951 0.0
C828 C 0.82386 0.85771 0.2087 0.0
C829 C 0.81657 0.90498 0.23263 0.0
C830 C 0.794 0.91739 0.22802 0.0
C831 C 0.79421 0.94633 0.2295 0.0
C832 C 0.81816 0.96304 0.23565 0.0
C833 C 0.84163 0.95078 0.24007 0.0
C834 C 0.84074 0.92133 0.23835 0.0
H835 H 0.75776 0.18538 0.25906 0.0
H836 H 0.71322 0.15705 0.32482 0.0
H837 H 0.74761 0.12625 0.33445 0.0
H838 H 0.77967 0.1211 0.23447 0.0
H839 H 0.81176 0.136 0.22638 0.0
H840 H 0.78436 0.15645 0.22617 0.0
H841 H 0.80991 0.19513 0.2604 0.0
H842 H 0.83746 0.17482 0.26069 0.0
H843 H 0.82281 0.1862 0.29201 0.0
H844 H 0.78576 0.0954 0.33348 0.0
H845 H 0.82499 0.07019 0.3243 0.0
H846 H 0.84466 0.12142 0.26044 0.0
C847 C 0.75548 0.17276 0.27558 0.0
C848 C 0.73302 0.17317 0.29115 0.0
C849 C 0.73048 0.15679 0.3128 0.0
C850 C 0.74984 0.13933 0.3183 0.0
C851 C 0.77169 0.13899 0.30217 0.0
C852 C 0.7747 0.15564 0.28149 0.0
C853 C 0.79963 0.15143 0.2668 0.0
C854 C 0.79348 0.14059 0.23668 0.0
C855 C 0.81857 0.17851 0.27019 0.0
C856 C 0.81004 0.12932 0.28197 0.0
C857 C 0.79374 0.12226 0.30228 0.0
C858 C 0.79883 0.1011 0.31789 0.0
C859 C 0.8211 0.08685 0.31251 0.0
C860 C 0.83806 0.09401 0.29187 0.0
C861 C 0.8324 0.1157 0.27667 0.0
H862 H 0.42645 0.96707 0.98257 0.0
H863 H 0.37854 0.03041 0.96122 0.0
H864 H 0.33888 1.00309 0.97593 0.0
H865 H 0.37953 0.90762 0.95986 0.0
H866 H 0.38836 0.88835 0.98703 0.0
H867 H 0.41241 0.91324 0.97496 0.0
H868 H 0.42037 0.93891 0.02375 0.0
H869 H 0.39617 0.91426 0.03592 0.0
H870 H 0.393 0.95117 0.04184 0.0
H871 H 0.30462 0.96817 0.99318 0.0
H872 H 0.27851 0.92828 0.0098 0.0
H873 H 0.34974 0.88814 0.01927 0.0
C874 C 0.40751 0.97492 0.9807 0.0
C875 C 0.40528 1.0006 0.97063 0.0
C876 C 0.3804 0.01068 0.96891 0.0
C877 C 0.35791 0.99535 0.97722 0.0
C878 C 0.36079 0.97003 0.98719 0.0
C879 C 0.38499 0.95989 0.98884 0.0
C880 C 0.38295 0.93213 1.00008 0.0
C881 C 0.3913 0.90897 0.97923 0.0
C882 C 0.39908 0.93426 0.027 0.0
C883 C 0.35377 0.92808 0.00441 0.0
C884 C 0.34128 0.95016 0.997 0.0
C885 C 0.31423 0.95078 0.99905 0.0
C886 C 0.29957 0.92805 0.00859 0.0
C887 C 0.312 0.905 0.01587 0.0
C888 C 0.33952 0.90535 0.01393 0.0
H889 H 0.27276 0.3291 0.25652 0.0
H890 H 0.28314 0.33747 0.34397 0.0
H891 H 0.25288 0.37423 0.34798 0.0
H892 H 0.27592 0.40359 0.25391 0.0
H893 H 0.2528 0.40047 0.22535 0.0
H894 H 0.27278 0.37265 0.22954 0.0
H895 H 0.23072 0.3377 0.22775 0.0
H896 H 0.21059 0.36552 0.22392 0.0
H897 H 0.20534 0.34447 0.25121 0.0
H898 H 0.22112 0.40936 0.34251 0.0
H899 H 0.19629 0.4466 0.32842 0.0
H900 H 0.21149 0.42067 0.24434 0.0
C901 C 0.26888 0.33897 0.27646 0.0
C902 C 0.28018 0.33042 0.3 0.0
C903 C 0.27436 0.34349 0.32576 0.0
C904 C 0.25722 0.36435 0.32821 0.0
C905 C 0.24649 0.37238 0.30463 0.0
C906 C 0.25256 0.36061 0.27922 0.0
C907 C 0.24036 0.375 0.25719 0.0
C908 C 0.26174 0.38875 0.24052 0.0
C909 C 0.22058 0.35444 0.23894 0.0
C910 C 0.22656 0.39674 0.27421 0.0
C911 C 0.22979 0.39428 0.30148 0.0
C912 C 0.21857 0.41161 0.32123 0.0
C913 C 0.20433 0.43258 0.31299 0.0
C914 C 0.20195 0.43656 0.28529 0.0
C915 C 0.21298 0.41812 0.26565 0.0
H916 H 0.08268 0.06361 0.50843 0.0
H917 H 0.11205 0.98323 0.50975 0.0
H918 H 0.15767 0.00647 0.51525 0.0
H919 H 0.13043 0.08974 0.46714 0.0
H920 H 0.13291 0.12535 0.48315 0.0
H921 H 0.10273 0.10293 0.48389 0.0
H922 H 0.10408 0.11208 0.53633 0.0
H923 H 0.13409 0.13494 0.53578 0.0
H924 H 0.13298 0.1059 0.55541 0.0
H925 H 0.2007 0.0391 0.51653 0.0
H926 H 0.23634 0.07733 0.5145 0.0
H927 H 0.17805 0.13575 0.50927 0.0
C928 C 0.09875 0.05108 0.51071 0.0
C929 C 0.09384 0.02171 0.50935 0.0
C930 C 0.11529 0.00578 0.51168 0.0
C931 C 0.14129 0.01885 0.51446 0.0
C932 C 0.14549 0.04786 0.51473 0.0
C933 C 0.12469 0.06375 0.51306 0.0
C934 C 0.13422 0.09416 0.51155 0.0
C935 C 0.1245 0.10358 0.48485 0.0
C936 C 0.12585 0.11287 0.53624 0.0
C937 C 0.16368 0.09299 0.51231 0.0
C938 C 0.16989 0.0662 0.51438 0.0
C939 C 0.19597 0.06015 0.51505 0.0
C940 C 0.21612 0.08202 0.51379 0.0
C941 C 0.21015 0.10965 0.51158 0.0
C942 C 0.18346 0.11494 0.51079 0.0
H943 H 0.80741 0.16969 0.74106 0.0
H944 H 0.77968 0.23367 0.79774 0.0
H945 H 0.74463 0.19928 0.81077 0.0
H946 H 0.7471 0.13769 0.71678 0.0
H947 H 0.75486 0.10202 0.71383 0.0
H948 H 0.78046 0.13001 0.71188 0.0
H949 H 0.80713 0.11427 0.75135 0.0
H950 H 0.78201 0.08563 0.75293 0.0
H951 H 0.79164 0.10981 0.78282 0.0
H952 H 0.70862 0.16086 0.81142 0.0
H953 H 0.67805 0.11776 0.80696 0.0
H954 H 0.72986 0.07669 0.75148 0.0
C955 C 0.79473 0.17585 0.75721 0.0
C956 C 0.79641 0.20397 0.76906 0.0
C957 C 0.77892 0.21197 0.78918 0.0
C958 C 0.75886 0.19267 0.79639 0.0
C959 C 0.75681 0.16537 0.7834 0.0
C960 C 0.77469 0.15665 0.76481 0.0
C961 C 0.76713 0.12642 0.75291 0.0
C962 C 0.76209 0.12391 0.72202 0.0
C963 C 0.78823 0.10794 0.76046 0.0
C964 C 0.74185 0.11982 0.76715 0.0
C965 C 0.73622 0.14274 0.78443 0.0
C966 C 0.71311 0.14257 0.79844 0.0
C967 C 0.6957 0.11803 0.79549 0.0
C968 C 0.70157 0.09377 0.77895 0.0
C969 C 0.7249 0.09483 0.7644 0.0
H970 H 0.44504 0.0265 0.53846 0.0
H971 H 0.42324 0.99813 0.61474 0.0
H972 H 0.38214 0.02099 0.61277 0.0
H973 H 0.42093 0.09417 0.55127 0.0
H974 H 0.40961 0.09466 0.51667 0.0
H975 H 0.43683 0.07557 0.52397 0.0
H976 H 0.41234 0.03066 0.49735 0.0
H977 H 0.38493 0.04958 0.49015 0.0
H978 H 0.37981 0.01838 0.50663 0.0
H979 H 0.34339 0.046 0.602 0.0
H980 H 0.31115 0.07525 0.58578 0.0
H981 H 0.35848 0.0891 0.51669 0.0
C982 C 0.4315 0.02523 0.55466 0.0
C983 C 0.43703 0.01065 0.57678 0.0
C984 C 0.4192 0.00941 0.5978 0.0
C985 C 0.39584 0.02214 0.59671 0.0
C986 C 0.39077 0.03617 0.5745 0.0
C987 C 0.4082 0.03808 0.55398 0.0
C988 C 0.39838 0.05521 0.53285 0.0
C989 C 0.41758 0.08146 0.5311 0.0
C990 C 0.39358 0.03739 0.5051 0.0
C991 C 0.37272 0.06271 0.54473 0.0
C992 C 0.36863 0.05121 0.56859 0.0
C993 C 0.34642 0.05517 0.58338 0.0
C994 C 0.32815 0.07181 0.57391 0.0
C995 C 0.33221 0.0846 0.54994 0.0
C996 C 0.3547 0.0796 0.53501 0.0
H997 H 0.58839 0.50389 0.55575 0.0
H998 H 0.55042 0.46577 0.47982 0.0
H999 H 0.59011 0.44202 0.46854 0.0
H1000 H 0.65901 0.50981 0.53288 0.0
H1001 H 0.67078 0.50088 0.56493 0.0
H1002 H 0.64247 0.52 0.56337 0.0
H1003 H 0.61563 0.48223 0.58695 0.0
H1004 H 0.64351 0.46264 0.58807 0.0
H1005 H 0.61286 0.44624 0.57194 0.0
H1006 H 0.63025 0.4157 0.47004 0.0
H1007 H 0.6678 0.39096 0.48282 0.0
H1008 H 0.67908 0.44576 0.55876 0.0
C1009 C 0.58925 0.49183 0.5361 0.0
C1010 C 0.56693 0.48723 0.51817 0.0
C1011 C 0.56778 0.47015 0.49325 0.0
C1012 C 0.59014 0.45646 0.48689 0.0
C1013 C 0.61143 0.46021 0.50572 0.0
C1014 C 0.61129 0.47788 0.52969 0.0
C1015 C 0.63483 0.4755 0.5482 0.0
C1016 C 0.65284 0.5032 0.55259 0.0
C1017 C 0.62618 0.46609 0.57537 0.0
C1018 C 0.64776 0.45297 0.53143 0.0
C1019 C 0.63422 0.44465 0.50685 0.0
C1020 C 0.6413 0.4225 0.48898 0.0
C1021 C 0.66261 0.40846 0.49648 0.0
C1022 C 0.67655 0.41646 0.52174 0.0
C1023 C 0.66913 0.43932 0.53915 0.0
H1024 H 0.67976 0.22845 0.34376 0.0
H1025 H 0.757 0.22561 0.31112 0.0
H1026 H 0.77718 0.25058 0.35414 0.0
H1027 H 0.6926 0.29847 0.37721 0.0
H1028 H 0.67323 0.2921 0.40592 0.0
H1029 H 0.66494 0.2719 0.37344 0.0
H1030 H 0.66802 0.22603 0.39482 0.0
H1031 H 0.67607 0.24606 0.42742 0.0
H1032 H 0.69767 0.22141 0.41354 0.0
H1033 H 0.78877 0.27601 0.40019 0.0
H1034 H 0.79141 0.30073 0.44662 0.0
H1035 H 0.7063 0.29101 0.44843 0.0
C1036 C 0.70093 0.23294 0.34591 0.0
C1037 C 0.71695 0.22462 0.32448 0.0
C1038 C 0.74453 0.231 0.32767 0.0
C1039 C 0.75609 0.24547 0.35188 0.0
C1040 C 0.73971 0.25378 0.37248 0.0
C1041 C 0.71272 0.24786 0.36976 0.0
C1042 C 0.69956 0.26018 0.39461 0.0
C1043 C 0.68152 0.28196 0.38735 0.0
C1044 C 0.68444 0.23704 0.40841 0.0
C1045 C 0.7234 0.27386 0.41181 0.0
C1046 C 0.74634 0.26973 0.39865 0.0
C1047 C 0.77097 0.2795 0.41066 0.0
C1048 C 0.77225 0.2935 0.43701 0.0
C1049 C 0.74905 0.29791 0.45097 0.0
C1050 C 0.7243 0.2883 0.43803 0.0
H1051 H 0.49024 0.06268 0.91481 0.0
H1052 H 0.50067 0.98744 0.95106 0.0
H1053 H 0.53785 0.97867 0.92169 0.0
H1054 H 0.50264 0.03681 0.84808 0.0
H1055 H 0.52051 0.0685 0.83976 0.0
H1056 H 0.4962 0.07024 0.86511 0.0
H1057 H 0.53074 0.09758 0.90022 0.0
H1058 H 0.55508 0.09641 0.87483 0.0
H1059 H 0.56116 0.08328 0.90661 0.0
H1060 H 0.57103 0.97592 0.88554 0.0
H1061 H 0.60149 0.98204 0.84865 0.0
H1062 H 0.57032 0.05989 0.83641 0.0
C1063 C 0.50089 0.04482 0.91693 0.0
C1064 C 0.4927 0.02559 0.93495 0.0
C1065 C 0.50668 1.00218 0.93711 0.0
C1066 C 0.52774 0.99708 0.92054 0.0
C1067 C 0.53473 0.01581 0.90212 0.0
C1068 C 0.52206 0.03949 0.90054 0.0
C1069 C 0.53312 0.05589 0.87857 0.0
C1070 C 0.51184 0.05797 0.85658 0.0
C1071 C 0.54578 0.08501 0.89079 0.0
C1072 C 0.55364 0.03749 0.86776 0.0
C1073 C 0.55419 0.01444 0.88158 0.0
C1074 C 0.57099 0.99405 0.87476 0.0
C1075 C 0.5881 0.99761 0.85363 0.0
C1076 C 0.58839 0.02145 0.83962 0.0
C1077 C 0.57069 0.04146 0.84673 0.0
H1078 H 0.33714 0.27559 0.35616 0.0
H1079 H 0.29942 0.2143 0.29321 0.0
H1080 H 0.29582 0.17895 0.32533 0.0
H1081 H 0.37009 0.22649 0.39789 0.0
H1082 H 0.36206 0.24633 0.42895 0.0
H1083 H 0.36876 0.26368 0.39939 0.0
H1084 H 0.32382 0.28368 0.40289 0.0
H1085 H 0.3167 0.26609 0.43204 0.0
H1086 H 0.29423 0.26002 0.4028 0.0
H1087 H 0.2888 0.15309 0.36655 0.0
H1088 H 0.27822 0.14029 0.41224 0.0
H1089 H 0.31742 0.21989 0.44873 0.0
C1090 C 0.32979 0.25416 0.34889 0.0
C1091 C 0.32004 0.24713 0.32185 0.0
C1092 C 0.3085 0.21956 0.31334 0.0
C1093 C 0.30604 0.19949 0.33164 0.0
C1094 C 0.31486 0.20744 0.35857 0.0
C1095 C 0.32663 0.2342 0.36712 0.0
C1096 C 0.33021 0.23923 0.39773 0.0
C1097 C 0.35953 0.24422 0.40651 0.0
C1098 C 0.31535 0.26368 0.40954 0.0
C1099 C 0.31783 0.21156 0.40521 0.0
C1100 C 0.30958 0.19317 0.3824 0.0
C1101 C 0.29573 0.16711 0.3845 0.0
C1102 C 0.28984 0.15993 0.41046 0.0
C1103 C 0.29752 0.1789 0.43385 0.0
C1104 C 0.31196 0.20477 0.4311 0.0
H1105 H 0.51266 0.47651 0.9496 0.0
H1106 H 0.50057 0.55857 0.98843 0.0
H1107 H 0.46668 0.56274 0.95264 0.0
H1108 H 0.50957 0.49318 0.88337 0.0
H1109 H 0.49332 0.45975 0.86877 0.0
H1110 H 0.51372 0.46221 0.89921 0.0
H1111 H 0.47471 0.43908 0.92357 0.0
H1112 H 0.45411 0.43673 0.89315 0.0
H1113 H 0.44401 0.45428 0.9245 0.0
H1114 H 0.43639 0.5588 0.91058 0.0
H1115 H 0.41601 0.54946 0.86418 0.0
H1116 H 0.44903 0.47015 0.85289 0.0
C1117 C 0.50237 0.49502 0.95073 0.0
C1118 C 0.50868 0.51709 0.97172 0.0
C1119 C 0.4956 0.54146 0.97245 0.0
C1120 C 0.47633 0.54386 0.95236 0.0
C1121 C 0.47051 0.52167 0.93175 0.0
C1122 C 0.4833 0.49778 0.93076 0.0
C1123 C 0.47543 0.47808 0.90525 0.0
C1124 C 0.49943 0.47303 0.88815 0.0
C1125 C 0.46121 0.4504 0.91203 0.0
C1126 C 0.45677 0.49491 0.89159 0.0
C1127 C 0.4537 0.51973 0.90737 0.0
C1128 C 0.43844 0.53929 0.89819 0.0
C1129 C 0.4268 0.53375 0.87185 0.0
C1130 C 0.43089 0.50907 0.85491 0.0
C1131 C 0.44541 0.48914 0.86537 0.0
H1132 H 0.74 0.75391 0.20888 0.0
H1133 H 0.71747 0.82466 0.17149 0.0
H1134 H 0.73458 0.80527 0.12801 0.0
H1135 H 0.80004 0.74437 0.17105 0.0
H1136 H 0.7945 0.70678 0.16848 0.0
H1137 H 0.7831 0.72787 0.19714 0.0
H1138 H 0.73596 0.70306 0.18676 0.0
H1139 H 0.74711 0.68212 0.1579 0.0
H1140 H 0.72047 0.70307 0.15371 0.0
H1141 H 0.75022 0.77605 0.08795 0.0
H1142 H 0.76617 0.7408 0.05439 0.0
H1143 H 0.77811 0.68816 0.11758 0.0
C1144 C 0.73916 0.76543 0.19157 0.0
C1145 C 0.72767 0.79082 0.19337 0.0
C1146 C 0.72666 0.80544 0.17047 0.0
C1147 C 0.73613 0.79446 0.14573 0.0
C1148 C 0.7466 0.76889 0.14436 0.0
C1149 C 0.74845 0.75468 0.16674 0.0
C1150 C 0.75944 0.72698 0.15954 0.0
C1151 C 0.78584 0.72648 0.17497 0.0
C1152 C 0.73956 0.70236 0.16479 0.0
C1153 C 0.76306 0.72758 0.12949 0.0
C1154 C 0.75557 0.75197 0.1212 0.0
C1155 C 0.75634 0.75698 0.09424 0.0
C1156 C 0.76527 0.7367 0.07528 0.0
C1157 C 0.77332 0.71163 0.0833 0.0
C1158 C 0.77215 0.7071 0.11082 0.0
H1159 H 0.99057 0.96959 0.09692 0.0
H1160 H 1.00506 0.05518 0.07932 0.0
H1161 H 0.9785 0.07081 0.11764 0.0
H1162 H 0.92522 0.97152 0.12044 0.0
H1163 H 0.93004 0.95135 0.14806 0.0
H1164 H 0.94879 0.94622 0.11815 0.0
H1165 H 0.99217 0.95645 0.14754 0.0
H1166 H 0.97355 0.96128 0.17756 0.0
H1167 H 0.99805 0.98853 0.17026 0.0
H1168 H 0.94863 0.0768 0.15564 0.0
H1169 H 0.92352 0.07463 0.19701 0.0
H1170 H 0.93323 0.98647 0.19471 0.0
C1171 C 0.98833 0.99161 0.10144 0.0
C1172 C 0.99938 0.0112 0.085 0.0
C1173 C 0.99612 0.03987 0.09138 0.0
C1174 C 0.98118 0.04891 0.11308 0.0
C1175 C 0.97021 0.0291 0.1287 0.0
C1176 C 0.97414 1.00117 0.12372 0.0
C1177 C 0.96166 0.98473 0.145 0.0
C1178 C 0.94015 0.96212 0.13213 0.0
C1179 C 0.98261 0.972 0.16105 0.0
C1180 C 0.94998 0.00778 0.1625 0.0
C1181 C 0.9547 0.03304 0.15228 0.0
C1182 C 0.94505 0.05724 0.16409 0.0
C1183 C 0.93069 0.05577 0.18742 0.0
C1184 C 0.92669 0.03047 0.19902 0.0
C1185 C 0.93631 0.00612 0.18633 0.0
H1186 H 0.27476 0.78801 0.22301 0.0
H1187 H 0.35146 0.76632 0.1996 0.0
H1188 H 0.34875 0.79299 0.16034 0.0
H1189 H 0.24641 0.77627 0.15815 0.0
H1190 H 0.22544 0.80405 0.16224 0.0
H1191 H 0.23563 0.78828 0.19125 0.0
H1192 H 0.25477 0.83693 0.2151 0.0
H1193 H 0.24462 0.85291 0.1861 0.0
H1194 H 0.2785 0.85826 0.19832 0.0
H1195 H 0.3353 0.81629 0.12072 0.0
H1196 H 0.31181 0.8331 0.08288 0.0
H1197 H 0.24255 0.83789 0.13035 0.0
C1198 C 0.29116 0.78944 0.20987 0.0
C1199 C 0.31349 0.77546 0.21444 0.0
C1200 C 0.33451 0.77746 0.19677 0.0
C1201 C 0.33305 0.79247 0.17439 0.0
C1202 C 0.31039 0.80533 0.16998 0.0
C1203 C 0.2898 0.80401 0.18725 0.0
C1204 C 0.26644 0.81675 0.17625 0.0
C1205 C 0.24205 0.79504 0.1717 0.0
C1206 C 0.26076 0.84276 0.19507 0.0
C1207 C 0.27675 0.82462 0.14963 0.0
C1208 C 0.30232 0.81827 0.14667 0.0
C1209 C 0.31541 0.82162 0.12296 0.0
C1210 C 0.30182 0.83094 0.10145 0.0
C1211 C 0.27537 0.83665 0.10367 0.0
C1212 C 0.26295 0.83422 0.12836 0.0
H1213 H 0.04364 0.484 0.09575 0.0
H1214 H 0.98059 0.44656 0.13969 0.0
H1215 H 0.01111 0.4473 0.17956 0.0
H1216 H 0.09745 0.44815 0.12542 0.0
H1217 H 0.1209 0.47869 0.12626 0.0
H1218 H 0.09481 0.47188 0.1004 0.0
H1219 H 0.0804 0.521 0.11469 0.0
H1220 H 0.10609 0.5278 0.14087 0.0
H1221 H 0.07241 0.53058 0.14936 0.0
H1222 H 0.04694 0.45793 0.21628 0.0
H1223 H 0.08653 0.47337 0.24608 0.0
H1224 H 0.12733 0.50263 0.17793 0.0
C1225 C 0.03671 0.47496 0.11345 0.0
C1226 C 0.01006 0.46454 0.11466 0.0
C1227 C 1.00115 0.45394 0.1384 0.0
C1228 C 0.0183 0.45449 0.16109 0.0
C1229 C 0.04438 0.4656 0.15962 0.0
C1230 C 0.05371 0.47522 0.13625 0.0
C1231 C 0.08224 0.48751 0.14052 0.0
C1232 C 0.09989 0.47054 0.12205 0.0
C1233 C 0.08546 0.51856 0.1361 0.0
C1234 C 0.08731 0.48395 0.17009 0.0
C1235 C 0.06519 0.4713 0.18073 0.0
C1236 C 0.06452 0.4674 0.20804 0.0
C1237 C 0.08708 0.47641 0.22487 0.0
C1238 C 0.11017 0.48903 0.21438 0.0
C1239 C 0.11017 0.49269 0.18654 0.0
H1240 H 0.3336 0.75101 0.32257 0.0
H1241 H 0.35804 0.69413 0.25687 0.0
H1242 H 0.39334 0.68144 0.28692 0.0
H1243 H 0.39604 0.7771 0.34946 0.0
H1244 H 0.38808 0.77936 0.38464 0.0
H1245 H 0.36294 0.78157 0.35911 0.0
H1246 H 0.3343 0.74025 0.37572 0.0
H1247 H 0.35922 0.73809 0.40157 0.0
H1248 H 0.34794 0.7077 0.378 0.0
H1249 H 0.4295 0.68042 0.32176 0.0
H1250 H 0.46157 0.68686 0.36078 0.0
H1251 H 0.41243 0.74199 0.40576 0.0
C1252 C 0.34593 0.73522 0.315 0.0
C1253 C 0.3431 0.72307 0.28769 0.0
C1254 C 0.35986 0.70312 0.27793 0.0
C1255 C 0.37994 0.69597 0.2948 0.0
C1256 C 0.38276 0.7088 0.32151 0.0
C1257 C 0.36593 0.72762 0.33177 0.0
C1258 C 0.37404 0.73927 0.36088 0.0
C1259 C 0.38067 0.77122 0.36367 0.0
C1260 C 0.3526 0.73082 0.38019 0.0
C1261 C 0.39846 0.72467 0.36514 0.0
C1262 C 0.40316 0.70729 0.34208 0.0
C1263 C 0.4257 0.69344 0.34014 0.0
C1264 C 0.44386 0.69732 0.36233 0.0
C1265 C 0.43925 0.71454 0.38636 0.0
C1266 C 0.4161 0.72817 0.38784 0.0
H1267 H 0.9586 0.40097 0.06605 0.0
H1268 H 0.03222 0.44827 0.05234 0.0
H1269 H 0.04696 0.40605 0.02639 0.0
H1270 H 0.98519 0.33289 0.07149 0.0
H1271 H 0.95647 0.31325 0.05415 0.0
H1272 H 0.95362 0.34615 0.07434 0.0
H1273 H 0.93219 0.36414 0.03283 0.0
H1274 H 0.93539 0.33156 0.01235 0.0
H1275 H 0.94946 0.36399 1.0018 0.0
H1276 H 0.05087 0.36033 0.99715 0.0
H1277 H 0.04612 0.31342 0.97096 0.0
H1278 H 0.96971 0.2955 0.00426 0.0
C1279 C 0.97813 0.40202 0.05825 0.0
C1280 C 0.99455 0.42755 0.06136 0.0
C1281 C 0.01975 0.42864 0.05054 0.0
C1282 C 0.02808 0.40486 0.03562 0.0
C1283 C 0.01098 0.38019 0.03197 0.0
C1284 C 0.9867 0.37848 0.0434 0.0
C1285 C 0.97145 0.35001 0.03534 0.0
C1286 C 0.96639 0.33467 0.06032 0.0
C1287 C 0.9456 0.35259 0.01965 0.0
C1288 C 0.99069 0.33607 0.01711 0.0
C1289 C 0.01335 0.35384 0.0154 0.0
C1290 C 0.03338 0.34612 0.99869 0.0
C1291 C 0.03039 0.31944 0.98372 0.0
C1292 C 0.00757 0.3006 0.98556 0.0
C1293 C 0.98749 0.30922 1.00253 0.0
H1294 H 0.67911 0.76084 0.28121 0.0
H1295 H 0.64087 0.82827 0.25292 0.0
H1296 H 0.60362 0.81849 0.2823 0.0
H1297 H 0.6193 0.71358 0.28683 0.0
H1298 H 0.63149 0.7013 0.31715 0.0
H1299 H 0.65411 0.71259 0.29261 0.0
H1300 H 0.67951 0.74793 0.33 0.0
H1301 H 0.65695 0.73682 0.35462 0.0
H1302 H 0.66206 0.77321 0.34967 0.0
H1303 H 0.57176 0.80261 0.31622 0.0
H1304 H 0.54765 0.78226 0.35271 0.0
H1305 H 0.60703 0.72518 0.35904 0.0
C1306 C 0.66264 0.77316 0.28104 0.0
C1307 C 0.66256 0.79521 0.26496 0.0
C1308 C 0.64106 0.81135 0.26531 0.0
C1309 C 0.61989 0.80587 0.28179 0.0
C1310 C 0.62063 0.78414 0.29772 0.0
C1311 C 0.64142 0.768 0.29746 0.0
C1312 C 0.63794 0.74671 0.31738 0.0
C1313 C 0.63556 0.71677 0.3026 0.0
C1314 C 0.66045 0.75147 0.33921 0.0
C1315 C 0.61215 0.75366 0.32914 0.0
C1316 C 0.60238 0.77515 0.3174 0.0
C1317 C 0.57913 0.78565 0.32546 0.0
C1318 C 0.56559 0.77397 0.34621 0.0
C1319 C 0.57542 0.75212 0.35874 0.0
C1320 C 0.59892 0.74179 0.34984 0.0
H1321 H 0.04645 0.06268 0.03334 0.0
H1322 H 0.02518 0.99782 0.96681 0.0
H1323 H 0.02155 0.03394 0.93568 0.0
H1324 H 0.9985 0.1026 0.017 0.0
H1325 H 0.01669 0.13616 0.02783 0.0
H1326 H 0.02421 0.10592 0.04314 0.0
H1327 H 0.07285 0.11368 0.03029 0.0
H1328 H 0.06576 0.14459 0.01577 0.0
H1329 H 0.08037 0.11728 0.99563 0.0
H1330 H 0.0168 0.07825 0.91308 0.0
H1331 H 0.01161 0.12576 0.90112 0.0
H1332 H 0.02917 0.16029 0.98484 0.0
C1333 C 0.04254 0.05627 0.01187 0.0
C1334 C 0.03714 0.02765 1.00207 0.0
C1335 C 0.03038 0.01966 0.97429 0.0
C1336 C 0.02793 0.04007 0.95668 0.0
C1337 C 0.03178 0.06826 0.96743 0.0
C1338 C 0.03901 0.07629 0.99446 0.0
C1339 C 0.03843 0.1074 1.00211 0.0
C1340 C 0.01826 0.11335 0.0238 0.0
C1341 C 0.06599 0.12158 0.01149 0.0
C1342 C 0.02969 0.1158 0.97522 0.0
C1343 C 0.02635 0.09309 0.9553 0.0
C1344 C 0.0192 0.09608 0.92859 0.0
C1345 C 0.01606 0.12304 0.92201 0.0
C1346 C 0.01929 0.14645 0.94221 0.0
C1347 C 0.02576 0.14261 0.96918 0.0
H1348 H 0.37973 0.3085 0.28413 0.0
H1349 H 0.32928 0.2312 0.26258 0.0
H1350 H 0.36144 0.21453 0.23044 0.0
H1351 H 0.39259 0.3177 0.21811 0.0
H1352 H 0.42609 0.33327 0.22419 0.0
H1353 H 0.40316 0.33641 0.25077 0.0
H1354 H 0.43409 0.31444 0.28238 0.0
H1355 H 0.45733 0.31143 0.25595 0.0
H1356 H 0.44511 0.28097 0.27122 0.0
H1357 H 0.39414 0.20941 0.19551 0.0
H1358 H 0.42528 0.21558 0.15966 0.0
H1359 H 0.45407 0.29813 0.19962 0.0
C1360 C 0.37578 0.28783 0.27305 0.0
C1361 C 0.35204 0.27091 0.27623 0.0
C1362 C 0.34764 0.24402 0.26135 0.0
C1363 C 0.36574 0.23456 0.24274 0.0
C1364 C 0.38817 0.25235 0.23897 0.0
C1365 C 0.39338 0.27843 0.25373 0.0
C1366 C 0.41694 0.2949 0.24298 0.0
C1367 C 0.40923 0.32217 0.23344 0.0
C1368 C 0.43972 0.30078 0.26441 0.0
C1369 C 0.42353 0.27437 0.21923 0.0
C1370 C 0.40689 0.24979 0.21778 0.0
C1371 C 0.40754 0.22836 0.19669 0.0
C1372 C 0.42526 0.23218 0.17629 0.0
C1373 C 0.44223 0.2573 0.1768 0.0
C1374 C 0.44172 0.2785 0.19893 0.0
H1375 H 0.57203 0.44905 0.00919 0.0
H1376 H 0.54788 0.50422 0.0761 0.0
H1377 H 0.54313 0.46489 0.10395 0.0
H1378 H 0.52719 0.39568 0.01468 0.0
H1379 H 0.54701 0.36755 0.00585 0.0
H1380 H 0.55505 0.40078 0.99383 0.0
H1381 H 0.60208 0.40487 0.01566 0.0
H1382 H 0.59462 0.37109 0.02705 0.0
H1383 H 0.60653 0.40092 0.05104 0.0
H1384 H 0.53194 0.4169 0.1204 0.0
H1385 H 0.52083 0.36672 0.12564 0.0
H1386 H 0.55305 0.34399 0.04743 0.0
C1387 C 0.56755 0.45309 0.03033 0.0
C1388 C 0.56129 0.47972 0.04096 0.0
C1389 C 0.55378 0.48414 0.06811 0.0
C1390 C 0.55069 0.4618 0.08386 0.0
C1391 C 0.5555 0.43524 0.07217 0.0
C1392 C 0.56447 0.43103 0.04618 0.0
C1393 C 0.56541 0.40027 0.03696 0.0
C1394 C 0.5476 0.39052 0.01133 0.0
C1395 C 0.59386 0.39391 0.03242 0.0
C1396 C 0.55466 0.38768 0.0613 0.0
C1397 C 0.54911 0.40801 0.08155 0.0
C1398 C 0.53685 0.40087 0.10491 0.0
C1399 C 0.53042 0.37232 0.10766 0.0
C1400 C 0.53624 0.35124 0.08714 0.0
C1401 C 0.54866 0.35936 0.06383 0.0
H1402 H 0.63162 0.21562 0.25491 0.0
H1403 H 0.70305 0.21472 0.21064 0.0
H1404 H 0.67955 0.22748 0.17045 0.0
H1405 H 0.58672 0.18686 0.19881 0.0
H1406 H 0.56138 0.20867 0.20891 0.0
H1407 H 0.58379 0.19929 0.23409 0.0
H1408 H 0.59665 0.25173 0.25109 0.0
H1409 H 0.57433 0.26127 0.22589 0.0
H1410 H 0.60847 0.27512 0.22747 0.0
H1411 H 0.64871 0.24007 0.13551 0.0
H1412 H 0.61214 0.25119 0.10694 0.0
H1413 H 0.56005 0.24493 0.1738 0.0
C1414 C 0.64212 0.2181 0.23664 0.0
C1415 C 0.66896 0.21389 0.23551 0.0
C1416 C 0.68234 0.21737 0.21152 0.0
C1417 C 0.66922 0.2248 0.18877 0.0
C1418 C 0.64274 0.22881 0.19047 0.0
C1419 C 0.62927 0.22559 0.21373 0.0
C1420 C 0.60084 0.23115 0.21004 0.0
C1421 C 0.58208 0.20493 0.21314 0.0
C1422 C 0.59472 0.25632 0.2298 0.0
C1423 C 0.60044 0.23784 0.18101 0.0
C1424 C 0.62487 0.2364 0.17022 0.0
C1425 C 0.62948 0.2413 0.14371 0.0
C1426 C 0.6085 0.24759 0.12763 0.0
C1427 C 0.58312 0.24896 0.13805 0.0
C1428 C 0.57919 0.24422 0.16524 0.0
H1429 H 0.4595 0.10338 0.95818 0.0
H1430 H 0.50307 0.04866 1.00027 0.0
H1431 H 0.52314 0.08922 0.03187 0.0
H1432 H 0.51172 0.16769 0.96981 0.0
H1433 H 0.48624 0.19072 0.97384 0.0
H1434 H 0.48074 0.15867 0.951 0.0
H1435 H 0.4389 0.14446 0.97616 0.0
H1436 H 0.44452 0.1759 0.99953 0.0
H1437 H 0.44145 0.14234 0.01207 0.0
H1438 H 0.52851 0.13265 0.06514 0.0
H1439 H 0.52473 0.17754 0.09361 0.0
H1440 H 0.48044 0.20554 0.02835 0.0
C1441 C 0.47453 0.10044 0.97306 0.0
C1442 C 0.48035 0.07328 0.97664 0.0
C1443 C 0.49909 0.06955 0.99695 0.0
C1444 C 0.51034 0.09243 0.01505 0.0
C1445 C 0.50299 0.1189 0.01207 0.0
C1446 C 0.48614 0.12317 0.99101 0.0
C1447 C 0.47915 0.15301 0.99394 0.0
C1448 C 0.49013 0.16844 0.97077 0.0
C1449 C 0.44924 0.15395 0.99553 0.0
C1450 C 0.49339 0.16441 0.02073 0.0
C1451 C 0.50711 0.14444 0.03084 0.0
C1452 C 0.51871 0.1488 0.05698 0.0
C1453 C 0.51632 0.17418 0.07308 0.0
C1454 C 0.50279 0.19496 0.06281 0.0
C1455 C 0.49158 0.1902 0.03621 0.0
H1456 H 0.23474 0.38102 0.72717 0.0
H1457 H 0.26833 0.30269 0.72779 0.0
H1458 H 0.31301 0.32807 0.73186 0.0
H1459 H 0.2882 0.4186 0.69231 0.0
H1460 H 0.28603 0.45112 0.71344 0.0
H1461 H 0.25719 0.42643 0.70586 0.0
H1462 H 0.25045 0.42629 0.75724 0.0
H1463 H 0.27944 0.45064 0.76502 0.0
H1464 H 0.27667 0.4177 0.77875 0.0
H1465 H 0.35327 0.36203 0.74109 0.0
H1466 H 0.38697 0.40198 0.75303 0.0
H1467 H 0.32719 0.45911 0.74935 0.0
C1468 C 0.25161 0.36932 0.72773 0.0
C1469 C 0.24829 0.33996 0.72703 0.0
C1470 C 0.27064 0.32514 0.72772 0.0
C1471 C 0.29601 0.33941 0.73026 0.0
C1472 C 0.29861 0.36852 0.73216 0.0
C1473 C 0.27704 0.38334 0.73072 0.0
C1474 C 0.28511 0.4146 0.73558 0.0
C1475 C 0.27876 0.4285 0.71029 0.0
C1476 C 0.27215 0.42809 0.76064 0.0
C1477 C 0.31451 0.41503 0.74059 0.0
C1478 C 0.32187 0.38822 0.73822 0.0
C1479 C 0.3478 0.38313 0.74272 0.0
C1480 C 0.3668 0.40604 0.74961 0.0
C1481 C 0.35983 0.43381 0.75216 0.0
C1482 C 0.33323 0.43822 0.74759 0.0
H1483 H 0.25678 0.68331 0.75742 0.0
H1484 H 0.21484 0.6559 0.82523 0.0
H1485 H 0.24731 0.62187 0.83099 0.0
H1486 H 0.27161 0.61727 0.72872 0.0
H1487 H 0.30372 0.62949 0.71827 0.0
H1488 H 0.27843 0.65273 0.7212 0.0
H1489 H 0.30878 0.68834 0.75433 0.0
H1490 H 0.3343 0.66533 0.75131 0.0
H1491 H 0.32304 0.67712 0.78426 0.0
H1492 H 0.28298 0.58817 0.82625 0.0
H1493 H 0.31998 0.56061 0.81396 0.0
H1494 H 0.33806 0.61139 0.74934 0.0
C1495 C 0.25471 0.67028 0.77363 0.0
C1496 C 0.23347 0.67189 0.79086 0.0
C1497 C 0.23119 0.65483 0.812 0.0
C1498 C 0.24943 0.63548 0.81527 0.0
C1499 C 0.26986 0.63382 0.79734 0.0
C1500 C 0.27271 0.65109 0.77716 0.0
C1501 C 0.29583 0.64499 0.7601 0.0
C1502 C 0.28685 0.63556 0.73032 0.0
C1503 C 0.31673 0.67046 0.76267 0.0
C1504 C 0.30543 0.62123 0.77346 0.0
C1505 C 0.29028 0.61498 0.7949 0.0
C1506 C 0.2951 0.59312 0.80966 0.0
C1507 C 0.31608 0.57749 0.80247 0.0
C1508 C 0.33201 0.58388 0.78076 0.0
C1509 C 0.32643 0.60604 0.76616 0.0
H1510 H 0.92504 0.46708 0.49069 0.0
H1511 H 0.87913 0.53052 0.46572 0.0
H1512 H 0.83827 0.50326 0.47779 0.0
H1513 H 0.8792 0.40785 0.46489 0.0
H1514 H 0.886 0.38838 0.49255 0.0
H1515 H 0.91108 0.41334 0.48227 0.0
H1516 H 0.91593 0.43873 0.53135 0.0
H1517 H 0.8907 0.41398 0.54173 0.0
H1518 H 0.88744 0.45089 0.54738 0.0
H1519 H 0.80259 0.46837 0.49273 0.0
H1520 H 0.775 0.42842 0.50751 0.0
H1521 H 0.84519 0.38802 0.52188 0.0
C1522 C 0.90631 0.47498 0.48751 0.0
C1523 C 0.90497 0.50066 0.47717 0.0
C1524 C 0.8803 0.5108 0.47368 0.0
C1525 C 0.85714 0.4955 0.48047 0.0
C1526 C 0.85913 0.47015 0.4907 0.0
C1527 C 0.88313 0.45996 0.49409 0.0
C1528 C 0.88008 0.43211 0.50513 0.0
C1529 C 0.88965 0.40906 0.48501 0.0
C1530 C 0.89438 0.43406 0.53306 0.0
C1531 C 0.85059 0.42807 0.50734 0.0
C1532 C 0.8388 0.45024 0.49909 0.0
C1533 C 0.81163 0.45091 0.49924 0.0
C1534 C 0.79613 0.42814 0.50774 0.0
C1535 C 0.80786 0.405 0.51585 0.0
C1536 C 0.8355 0.40529 0.51582 0.0
H1537 H 0.77325 0.83255 0.75935 0.0
H1538 H 0.77755 0.84 0.84705 0.0
H1539 H 0.74687 0.87635 0.8489 0.0
H1540 H 0.77764 0.90672 0.75765 0.0
H1541 H 0.75679 0.90433 0.7274 0.0
H1542 H 0.77581 0.87611 0.73296 0.0
H1543 H 0.73326 0.84164 0.72749 0.0
H1544 H 0.71405 0.86988 0.72229 0.0
H1545 H 0.70619 0.84841 0.74876 0.0
H1546 H 0.71581 0.91186 0.84114 0.0
H1547 H 0.69357 0.95028 0.82541 0.0
H1548 H 0.71523 0.92533 0.74319 0.0
C1549 C 0.76789 0.84205 0.77892 0.0
C1550 C 0.77765 0.83339 0.8031 0.0
C1551 C 0.76993 0.84604 0.82832 0.0
C1552 C 0.75254 0.86667 0.82953 0.0
C1553 C 0.74348 0.87494 0.80533 0.0
C1554 C 0.7514 0.86354 0.78052 0.0
C1555 C 0.7413 0.87847 0.75779 0.0
C1556 C 0.76425 0.89223 0.74309 0.0
C1557 C 0.72259 0.85839 0.73791 0.0
C1558 C 0.72662 0.90017 0.77375 0.0
C1559 C 0.72745 0.89714 0.80103 0.0
C1560 C 0.71512 0.91451 0.81984 0.0
C1561 C 0.70236 0.93614 0.81069 0.0
C1562 C 0.70265 0.94073 0.7831 0.0
C1563 C 0.71464 0.92222 0.76437 0.0
H1564 H 0.58667 0.57341 0.03234 0.0
H1565 H 0.61026 0.49066 0.01165 0.0
H1566 H 0.65701 0.51064 0.01424 0.0
H1567 H 0.62842 0.6048 0.9895 0.0
H1568 H 0.63548 0.63773 0.01074 0.0
H1569 H 0.6049 0.61654 0.01331 0.0
H1570 H 0.61462 0.61604 0.06467 0.0
H1571 H 0.64506 0.63774 0.06244 0.0
H1572 H 0.64517 0.60489 0.07607 0.0
H1573 H 0.70122 0.54124 0.0142 0.0
H1574 H 0.73769 0.57857 0.01161 0.0
H1575 H 0.68359 0.64122 0.02774 0.0
C1576 C 0.60182 0.55947 0.02926 0.0
C1577 C 0.59495 0.53047 0.02226 0.0
C1578 C 0.61515 0.51281 0.01781 0.0
C1579 C 0.64173 0.52409 0.01893 0.0
C1580 C 0.64772 0.55308 0.02441 0.0
C1581 C 0.62821 0.57047 0.02964 0.0
C1582 C 0.63908 0.60098 0.03188 0.0
C1583 C 0.62621 0.61587 0.01006 0.0
C1584 C 0.63579 0.61578 0.06047 0.0
C1585 C 0.66771 0.59821 0.02664 0.0
C1586 C 0.67251 0.57048 0.02281 0.0
C1587 C 0.69761 0.56299 0.01731 0.0
C1588 C 0.71821 0.58434 0.01579 0.0
C1589 C 0.71355 0.61287 0.01921 0.0
C1590 C 0.68787 0.61966 0.02475 0.0
H1591 H 0.30129 0.66549 0.24669 0.0
H1592 H 0.26572 0.73108 0.29418 0.0
H1593 H 0.22915 0.69677 0.30419 0.0
H1594 H 0.24356 0.62944 0.21634 0.0
H1595 H 0.25259 0.59459 0.21753 0.0
H1596 H 0.2777 0.62329 0.21645 0.0
H1597 H 0.30036 0.61201 0.26052 0.0
H1598 H 0.27578 0.58273 0.26132 0.0
H1599 H 0.28144 0.60915 0.29021 0.0
H1600 H 0.19408 0.65735 0.30369 0.0
H1601 H 0.1658 0.61284 0.30077 0.0
H1602 H 0.22452 0.57097 0.25524 0.0
C1603 C 0.28631 0.67215 0.26014 0.0
C1604 C 0.28634 0.70062 0.27032 0.0
C1605 C 0.26609 0.70915 0.28695 0.0
C1606 C 0.2452 0.6899 0.29239 0.0
C1607 C 0.24505 0.66214 0.28115 0.0
C1608 C 0.26536 0.65302 0.26599 0.0
C1609 C 0.25986 0.62205 0.25584 0.0
C1610 C 0.25834 0.61707 0.22469 0.0
C1611 C 0.28059 0.6055 0.26769 0.0
C1612 C 0.23311 0.61539 0.26731 0.0
C1613 C 0.2249 0.63898 0.28152 0.0
C1614 C 0.20048 0.6386 0.29304 0.0
C1615 C 0.18443 0.61318 0.29102 0.0
C1616 C 0.19293 0.58828 0.2779 0.0
C1617 C 0.21745 0.58959 0.26542 0.0
H1618 H 0.9467 0.52346 0.04115 0.0
H1619 H 0.91407 0.4794 0.10517 0.0
H1620 H 0.87308 0.50222 0.10152 0.0
H1621 H 0.9206 0.58827 0.06166 0.0
H1622 H 0.91413 0.59594 0.02765 0.0
H1623 H 0.94019 0.57513 0.0345 0.0
H1624 H 0.91941 0.53553 0.9982 0.0
H1625 H 0.89319 0.55619 0.99134 0.0
H1626 H 0.88569 0.52148 1.00062 0.0
H1627 H 0.83641 0.53031 0.09151 0.0
H1628 H 0.80699 0.56386 0.07799 0.0
H1629 H 0.86338 0.59086 0.02047 0.0
C1630 C 0.93075 0.51868 0.0542 0.0
C1631 C 0.93317 0.49974 0.0734 0.0
C1632 C 0.91227 0.49391 0.09042 0.0
C1633 C 0.88902 0.50666 0.08836 0.0
C1634 C 0.8871 0.52524 0.06919 0.0
C1635 C 0.90742 0.5314 0.05248 0.0
C1636 C 0.90062 0.55301 0.03438 0.0
C1637 C 0.92004 0.57967 0.03989 0.0
C1638 C 0.89967 0.54082 0.00435 0.0
C1639 C 0.87341 0.55824 0.04371 0.0
C1640 C 0.86596 0.54178 0.06362 0.0
C1641 C 0.842 0.54325 0.07589 0.0
C1642 C 0.82539 0.56241 0.06802 0.0
C1643 C 0.83278 0.58005 0.04812 0.0
C1644 C 0.85701 0.57754 0.03555 0.0
H1645 H 0.09733 0.00738 0.06146 0.0
H1646 H 0.05353 0.96499 0.99001 0.0
H1647 H 0.09136 0.93873 0.97793 0.0
H1648 H 0.1649 0.00813 0.03369 0.0
H1649 H 0.17906 1.00116 0.06551 0.0
H1650 H 0.15103 0.02081 0.06506 0.0
H1651 H 0.12572 0.98571 0.09293 0.0
H1652 H 0.15345 0.96578 0.09321 0.0
H1653 H 0.12174 0.94902 0.08027 0.0
H1654 H 0.13087 0.91153 0.97795 0.0
H1655 H 0.16924 0.88717 0.98886 0.0
H1656 H 0.18658 0.94591 0.06166 0.0
C1657 C 0.09602 0.99305 0.04296 0.0
C1658 C 0.07252 0.98806 0.02666 0.0
C1659 C 0.07151 0.96931 1.0025 0.0
C1660 C 0.09285 0.9542 0.99563 0.0
C1661 C 0.11517 0.95827 0.01306 0.0
C1662 C 0.11703 0.97753 0.03608 0.0
C1663 C 0.14184 0.97582 0.05298 0.0
C1664 C 0.1603 1.00311 0.05438 0.0
C1665 C 0.13528 0.96865 0.08152 0.0
C1666 C 0.15319 0.95191 0.03644 0.0
C1667 C 0.13774 0.94233 0.01328 0.0
C1668 C 0.14335 0.91919 0.99579 0.0
C1669 C 0.16516 0.9054 1.00222 0.0
C1670 C 0.18107 0.91462 0.02606 0.0
C1671 C 0.17506 0.93846 0.04311 0.0
loop_
_geom_bond_atom_site_label_1
_geom_bond_atom_site_label_2
_geom_bond_distance
_geom_bond_site_symmetry_2
_ccdc_geom_bond_type
C0 N1 1.317 . S
C0 N2 1.348 1_465 S
C0 C3 1.485 . S
N1 C0 1.317 . S
N1 N5 1.370 1_565 S
N2 C0 1.348 1_645 S
N2 C4 1.346 . S
C3 C0 1.485 . S
C3 H7 0.960 . S
C3 H8 0.961 . S
C3 H9 0.960 . S
C4 N2 1.346 . S
C4 N5 1.307 1_655 S
C4 C6 1.486 . S
N5 N1 1.370 1_545 S
N5 C4 1.307 1_455 S
C6 C4 1.486 . S
C6 H10 0.960 . S
C6 H11 0.960 . S
C6 H12 0.959 . S
H7 C3 0.960 . S
H8 C3 0.961 . S
H9 C3 0.960 . S
H10 C6 0.960 . S
H11 C6 0.960 . S
H12 C6 0.959 . S
C13 N14 1.317 . S
C13 N15 1.348 . S
C13 C16 1.485 . S
N14 C13 1.317 . S
N14 N18 1.370 . S
N15 C13 1.348 . S
N15 C17 1.346 . S
C16 C13 1.485 . S
C16 H20 0.960 . S
C16 H21 0.961 . S
C16 H22 0.960 . S
C17 N15 1.346 . S
C17 N18 1.307 . S
C17 C19 1.486 . S
N18 N14 1.370 . S
N18 C17 1.307 . S
C19 C17 1.486 . S
C19 H23 0.960 . S
C19 H24 0.960 . S
C19 H25 0.959 . S
H20 C16 0.960 . S
H21 C16 0.961 . S
H22 C16 0.960 . S
H23 C19 0.960 . S
H24 C19 0.960 . S
H25 C19 0.959 . S
C26 N27 1.317 . S
C26 N28 1.348 . S
C26 C29 1.485 . S
N27 C26 1.317 . S
N27 N31 1.370 . S
N28 C26 1.348 . S
N28 C30 1.346 . S
C29 C26 1.485 . S
C29 H33 0.960 . S
C29 H34 0.961 . S
C29 H35 1.000 . S
C30 N28 1.346 . S
C30 N31 1.307 . S
C30 C32 1.486 . S
N31 N27 1.370 . S
N31 C30 1.307 . S
C32 C30 1.486 . S
C32 H36 0.960 . S
C32 H37 0.960 . S
C32 H38 0.959 . S
H33 C29 0.960 . S
H34 C29 0.961 . S
H35 C29 1.000 . S
H36 C32 0.960 . S
H37 C32 0.960 . S
H38 C32 0.959 . S
C39 N40 1.317 . S
C39 N41 1.348 . S
C39 C42 1.485 . S
N40 C39 1.317 . S
N40 N44 1.370 . S
N41 C39 1.348 . S
N41 C43 1.346 . S
C42 C39 1.485 . S
C42 H46 0.960 . S
C42 H47 0.961 . S
C42 H48 0.960 . S
C43 N41 1.346 . S
C43 N44 1.307 . S
C43 C45 1.486 . S
N44 N40 1.370 . S
N44 C43 1.307 . S
C45 C43 1.486 . S
C45 H49 0.960 . S
C45 H50 0.960 . S
C45 H51 0.959 . S
H46 C42 0.960 . S
H47 C42 0.961 . S
H48 C42 0.960 . S
H49 C45 0.960 . S
H50 C45 0.960 . S
H51 C45 0.959 . S
C52 N53 1.317 . S
C52 N54 1.348 . S
C52 C55 1.485 . S
N53 C52 1.317 . S
N53 N57 1.370 . S
N54 C52 1.348 . S
N54 C56 1.354 . S
C55 C52 1.485 . S
C55 H59 0.960 . S
C55 H60 0.961 1_455 S
C55 H61 0.960 . S
C56 N54 1.354 . S
C56 N57 1.316 . S
C56 C58 1.471 1_565 S
N57 N53 1.370 . S
N57 C56 1.316 . S
C58 C56 1.471 1_545 S
C58 H62 0.960 . S
C58 H63 0.960 . S
C58 H64 0.959 . S
H59 C55 0.960 . S
H60 C55 0.961 1_655 S
H61 C55 0.960 . S
H62 C58 0.960 . S
H63 C58 0.960 . S
H64 C58 0.959 . S
C65 N66 1.317 . S
C65 N67 1.348 . S
C65 C68 1.485 . S
N66 C65 1.317 . S
N66 N70 1.370 . S
N67 C65 1.348 . S
N67 C69 1.346 . S
C68 C65 1.485 . S
C68 H72 0.960 . S
C68 H73 0.961 . S
C68 H74 0.960 . S
C69 N67 1.346 . S
C69 N70 1.307 . S
C69 C71 1.486 . S
N70 N66 1.370 . S
N70 C69 1.307 . S
C71 C69 1.486 . S
C71 H75 0.960 . S
C71 H76 0.960 . S
C71 H77 0.959 . S
H72 C68 0.960 . S
H73 C68 0.961 . S
H74 C68 0.960 . S
H75 C71 0.960 . S
H76 C71 0.960 . S
H77 C71 0.959 . S
C78 N79 1.317 . S
C78 N80 1.348 . S
C78 C81 1.485 . S
N79 C78 1.317 . S
N79 N83 1.370 . S
N80 C78 1.348 . S
N80 C82 1.346 . S
C81 C78 1.485 . S
C81 H85 0.960 . S
C81 H86 0.961 . S
C81 H87 0.960 . S
C82 N80 1.346 . S
C82 N83 1.307 . S
C82 C84 1.486 . S
N83 N79 1.370 . S
N83 C82 1.307 . S
C84 C82 1.486 . S
C84 H88 0.960 . S
C84 H89 0.960 . S
C84 H90 0.959 . S
H85 C81 0.960 . S
H86 C81 0.961 . S
H87 C81 0.960 . S
H88 C84 0.960 . S
H89 C84 0.960 . S
H90 C84 0.959 . S
C91 N92 1.317 . S
C91 N93 1.348 . S
C91 C94 1.485 . S
N92 C91 1.317 . S
N92 N96 1.370 . S
N93 C91 1.348 . S
N93 C95 1.346 . S
C94 C91 1.485 . S
C94 H98 0.960 . S
C94 H99 0.961 . S
C94 H100 0.960 . S
C95 N93 1.346 . S
C95 N96 1.307 . S
C95 C97 1.486 . S
N96 N92 1.370 . S
N96 C95 1.307 . S
C97 C95 1.486 . S
C97 H101 0.960 . S
C97 H102 0.960 . S
C97 H103 0.959 . S
H98 C94 0.960 . S
H99 C94 0.961 . S
H100 C94 0.960 . S
H101 C97 0.960 . S
H102 C97 0.960 . S
H103 C97 0.959 . S
C104 N105 1.317 . S
C104 N106 1.348 . S
C104 C107 1.485 . S
N105 C104 1.317 . S
N105 N109 1.370 . S
N106 C104 1.348 . S
N106 C108 1.346 . S
C107 C104 1.485 . S
C107 H111 0.960 . S
C107 H112 0.961 . S
C107 H113 0.960 . S
C108 N106 1.346 . S
C108 N109 1.307 . S
C108 C110 1.486 . S
N109 N105 1.370 . S
N109 C108 1.307 . S
C110 C108 1.486 . S
C110 H114 0.960 . S
C110 H115 0.960 . S
C110 H116 0.959 . S
H111 C107 0.960 . S
H112 C107 0.961 . S
H113 C107 0.960 . S
H114 C110 0.960 . S
H115 C110 0.960 . S
H116 C110 0.959 . S
C117 N118 1.317 . S
C117 N119 1.348 . S
C117 C120 1.485 1_565 S
N118 C117 1.317 . S
N118 N122 1.370 . S
N119 C117 1.348 . S
N119 C121 1.346 . S
C120 C117 1.485 1_545 S
C120 H124 0.960 . S
C120 H125 0.961 . S
C120 H126 0.960 . S
C121 N119 1.346 . S
C121 N122 1.307 . S
C121 C123 1.486 . S
N122 N118 1.370 . S
N122 C121 1.307 . S
C123 C121 1.486 . S
C123 H127 0.960 . S
C123 H128 0.960 . S
C123 H129 0.959 . S
H124 C120 0.960 . S
H125 C120 0.961 . S
H126 C120 0.960 . S
H127 C123 0.960 . S
H128 C123 0.960 . S
H129 C123 0.959 . S
C130 N131 1.317 . S
C130 N132 1.348 . S
C130 C133 1.485 . S
N131 C130 1.317 . S
N131 N135 1.370 . S
N132 C130 1.348 . S
N132 C134 1.346 . S
C133 C130 1.485 . S
C133 H137 0.960 . S
C133 H138 0.961 . S
C133 H139 0.960 . S
C134 N132 1.346 . S
C134 N135 1.307 . S
C134 C136 1.486 . S
N135 N131 1.370 . S
N135 C134 1.307 . S
C136 C134 1.486 . S
C136 H140 0.960 . S
C136 H141 0.960 . S
C136 H142 0.959 . S
H137 C133 0.960 . S
H138 C133 0.961 . S
H139 C133 0.960 . S
H140 C136 0.960 . S
H141 C136 0.960 . S
H142 C136 0.959 . S
C143 N144 1.317 . S
C143 N145 1.348 . S
C143 C146 1.485 . S
N144 C143 1.317 . S
N144 N148 1.370 . S
N145 C143 1.348 . S
N145 C147 1.346 . S
C146 C143 1.485 . S
C146 H150 0.960 . S
C146 H151 0.961 . S
C146 H152 0.960 . S
C147 N145 1.346 . S
C147 N148 1.307 . S
C147 C149 1.486 . S
N148 N144 1.370 . S
N148 C147 1.307 . S
C149 C147 1.486 . S
C149 H153 0.960 . S
C149 H154 0.960 . S
C149 H155 0.959 . S
H150 C146 0.960 . S
H151 C146 0.961 . S
H152 C146 0.960 . S
H153 C149 0.960 . S
H154 C149 0.960 . S
H155 C149 0.959 . S
C156 N157 1.317 . S
C156 N158 1.348 . S
C156 C159 1.485 . S
N157 C156 1.317 . S
N157 N161 1.370 . S
N158 C156 1.348 . S
N158 C160 1.346 . S
C159 C156 1.485 . S
C159 H163 0.960 . S
C159 H164 0.961 . S
C159 H165 0.960 . S
C160 N158 1.346 . S
C160 N161 1.307 . S
C160 C162 1.486 . S
N161 N157 1.370 . S
N161 C160 1.307 . S
C162 C160 1.486 . S
C162 H166 0.960 . S
C162 H167 0.960 . S
C162 H168 0.959 . S
H163 C159 0.960 . S
H164 C159 0.961 . S
H165 C159 0.960 . S
H166 C162 0.960 . S
H167 C162 0.960 . S
H168 C162 0.959 . S
C169 N170 1.317 . S
C169 N171 1.348 . S
C169 C172 1.485 . S
N170 C169 1.317 . S
N170 N174 1.370 . S
N171 C169 1.348 . S
N171 C173 1.346 . S
C172 C169 1.485 . S
C172 H176 0.960 . S
C172 H177 0.961 . S
C172 H178 0.960 . S
C173 N171 1.346 . S
C173 N174 1.307 . S
C173 C175 1.486 . S
N174 N170 1.370 . S
N174 C173 1.307 . S
C175 C173 1.486 . S
C175 H179 0.960 . S
C175 H180 0.960 . S
C175 H181 0.959 . S
H176 C172 0.960 . S
H177 C172 0.961 . S
H178 C172 0.960 . S
H179 C175 0.960 . S
H180 C175 0.960 . S
H181 C175 0.959 . S
C182 N183 1.317 . S
C182 N184 1.348 . S
C182 C185 1.485 . S
N183 C182 1.317 . S
N183 N187 1.370 . S
N184 C182 1.348 . S
N184 C186 1.346 . S
C185 C182 1.485 . S
C185 H189 0.960 . S
C185 H190 0.961 . S
C185 H191 0.960 . S
C186 N184 1.346 . S
C186 N187 1.307 . S
C186 C188 1.486 . S
N187 N183 1.370 . S
N187 C186 1.307 . S
C188 C186 1.486 . S
C188 H192 0.960 . S
C188 H193 0.960 . S
C188 H194 0.959 . S
H189 C185 0.960 . S
H190 C185 0.961 . S
H191 C185 0.960 . S
H192 C188 0.960 . S
H193 C188 0.960 . S
H194 C188 0.959 . S
C195 N196 1.317 . S
C195 N197 1.348 . S
C195 C198 1.485 1_545 S
N196 C195 1.317 . S
N196 N200 1.370 . S
N197 C195 1.348 . S
N197 C199 1.346 . S
C198 C195 1.485 1_565 S
C198 H202 0.960 . S
C198 H203 0.961 . S
C198 H204 0.960 . S
C199 N197 1.346 . S
C199 N200 1.307 . S
C199 C201 1.486 1_556 S
N200 N196 1.370 . S
N200 C199 1.307 . S
C201 C199 1.486 1_554 S
C201 H205 0.960 . S
C201 H206 0.960 . S
C201 H207 0.959 . S
H202 C198 0.960 . S
H203 C198 0.961 . S
H204 C198 0.960 . S
H205 C201 0.960 . S
H206 C201 0.960 . S
H207 C201 0.959 . S
Mg208 O209 2.028 . S
Mg208 O215 1.986 1_554 S
Mg208 O217 2.114 . S
Mg208 O218 2.251 . S
Mg208 O221 2.010 . S
O209 Mg208 2.028 . S
O209 C212 1.250 . S
O210 Mg211 2.028 1_554 S
O210 C212 1.248 . S
Mg211 O210 2.028 1_556 S
Mg211 O216 2.035 . S
Mg211 O218 2.076 1_556 S
C212 O209 1.250 . S
C212 O210 1.248 . S
C213 O214 1.264 . S
C213 O221 1.249 . S
O214 C213 1.264 . S
O215 Mg208 1.986 1_556 S
O215 C219 1.246 . S
O216 Mg211 2.035 . S
O216 C219 1.259 . S
O217 Mg208 2.114 . S
O217 C220 1.252 . S
O218 Mg208 2.251 . S
O218 Mg211 2.076 1_554 S
O218 C220 1.273 . S
C219 O215 1.246 . S
C219 O216 1.259 . S
C220 O217 1.252 . S
C220 O218 1.273 . S
O221 Mg208 2.010 . S
O221 C213 1.249 . S
Mg222 O223 2.028 . S
Mg222 O229 1.986 . S
Mg222 O231 2.114 . S
Mg222 O232 2.251 . S
Mg222 O235 2.010 . S
O223 Mg222 2.028 . S
O223 C226 1.250 . S
O224 Mg225 2.028 . S
O224 C226 1.248 . S
Mg225 O224 2.028 . S
Mg225 O230 2.032 . S
Mg225 O232 2.079 . S
C226 O223 1.250 . S
C226 O224 1.248 . S
C227 O228 1.264 . S
C227 O235 1.249 . S
O228 C227 1.264 . S
O229 Mg222 1.986 . S
O229 C233 1.246 . S
O230 Mg225 2.032 . S
O230 C233 1.259 . S
O231 Mg222 2.114 . S
O231 C234 1.252 . S
O232 Mg222 2.251 . S
O232 Mg225 2.079 . S
O232 C234 1.273 . S
C233 O229 1.246 . S
C233 O230 1.259 . S
C234 O231 1.252 . S
C234 O232 1.273 . S
O235 Mg222 2.010 . S
O235 C227 1.249 . S
Mg236 O237 2.028 . S
Mg236 O243 1.986 1_554 S
Mg236 O245 2.114 . S
Mg236 O246 2.251 . S
Mg236 O249 2.010 . S
O237 Mg236 2.028 . S
O237 C240 1.250 . S
O238 Mg239 2.028 . S
O238 C240 1.248 . S
Mg239 O238 2.028 . S
Mg239 O244 2.032 1_554 S
Mg239 O246 2.079 . S
C240 O237 1.250 . S
C240 O238 1.248 . S
C241 O242 1.264 . S
C241 O249 1.249 . S
O242 C241 1.264 . S
O243 Mg236 1.986 1_556 S
O243 C247 1.246 . S
O244 Mg239 2.032 1_556 S
O244 C247 1.259 . S
O245 Mg236 2.114 . S
O245 C248 1.252 . S
O246 Mg236 2.251 . S
O246 Mg239 2.079 . S
O246 C248 1.273 . S
C247 O243 1.246 . S
C247 O244 1.259 . S
C248 O245 1.252 . S
C248 O246 1.273 . S
O249 Mg236 2.010 . S
O249 C241 1.249 . S
Mg250 O251 2.028 1_545 S
Mg250 O257 1.986 . S
Mg250 O259 2.114 . S
Mg250 O260 2.251 1_545 S
Mg250 O263 2.010 . S
O251 Mg250 2.028 1_565 S
O251 C254 1.250 . S
O252 Mg253 2.028 . S
O252 C254 1.248 . S
Mg253 O252 2.028 . S
Mg253 O258 2.032 . S
Mg253 O260 2.079 . S
C254 O251 1.250 . S
C254 O252 1.248 . S
C255 O256 1.264 . S
C255 O263 1.249 . S
O256 C255 1.264 . S
O257 Mg250 1.986 . S
O257 C261 1.246 . S
O258 Mg253 2.032 . S
O258 C261 1.259 1_565 S
O259 Mg250 2.114 . S
O259 C262 1.252 . S
O260 Mg250 2.251 1_565 S
O260 Mg253 2.079 . S
O260 C262 1.273 1_565 S
C261 O257 1.246 . S
C261 O258 1.259 1_545 S
C262 O259 1.252 . S
C262 O260 1.273 1_545 S
O263 Mg250 2.010 . S
O263 C255 1.249 . S
Mg264 O265 2.028 . S
Mg264 O271 1.986 . S
Mg264 O273 2.114 . S
Mg264 O274 2.251 . S
Mg264 O277 2.010 . S
O265 Mg264 2.028 . S
O265 C268 1.250 . S
O266 Mg267 2.028 . S
O266 C268 1.248 . S
Mg267 O266 2.028 . S
Mg267 O272 2.032 . S
Mg267 O274 2.079 . S
C268 O265 1.250 . S
C268 O266 1.248 . S
C269 O270 1.264 . S
C269 O277 1.249 . S
O270 C269 1.264 . S
O271 Mg264 1.986 . S
O271 C275 1.246 . S
O272 Mg267 2.032 . S
O272 C275 1.259 . S
O273 Mg264 2.114 . S
O273 C276 1.252 . S
O274 Mg264 2.251 . S
O274 Mg267 2.079 . S
O274 C276 1.273 . S
C275 O271 1.246 . S
C275 O272 1.259 . S
C276 O273 1.252 . S
C276 O274 1.273 . S
O277 Mg264 2.010 . S
O277 C269 1.249 . S
Mg278 O279 2.028 . S
Mg278 O285 1.986 . S
Mg278 O287 2.114 . S
Mg278 O288 2.251 . S
Mg278 O291 2.010 . S
O279 Mg278 2.028 . S
O279 C282 1.250 . S
O280 Mg281 2.028 . S
O280 C282 1.248 . S
Mg281 O280 2.028 . S
Mg281 O286 2.032 . S
Mg281 O288 2.079 . S
C282 O279 1.250 . S
C282 O280 1.248 . S
C283 O284 1.264 . S
C283 O291 1.249 . S
O284 C283 1.264 . S
O285 Mg278 1.986 . S
O285 C289 1.246 . S
O286 Mg281 2.032 . S
O286 C289 1.259 . S
O287 Mg278 2.114 . S
O287 C290 1.252 . S
O288 Mg278 2.251 . S
O288 Mg281 2.079 . S
O288 C290 1.273 . S
C289 O285 1.246 . S
C289 O286 1.259 . S
C290 O287 1.252 . S
C290 O288 1.273 . S
O291 Mg278 2.010 . S
O291 C283 1.249 . S
Mg292 O293 2.028 . S
Mg292 O299 1.986 . S
Mg292 O301 2.114 . S
Mg292 O302 2.251 . S
Mg292 O305 2.010 . S
O293 Mg292 2.028 . S
O293 C296 1.250 . S
O294 Mg295 2.028 . S
O294 C296 1.248 . S
Mg295 O294 2.028 . S
Mg295 O300 2.032 . S
Mg295 O302 2.079 . S
C296 O293 1.250 . S
C296 O294 1.248 . S
C297 O298 1.264 . S
C297 O305 1.249 . S
O298 C297 1.264 . S
O299 Mg292 1.986 . S
O299 C303 1.246 . S
O300 Mg295 2.032 . S
O300 C303 1.259 . S
O301 Mg292 2.114 . S
O301 C304 1.252 . S
O302 Mg292 2.251 . S
O302 Mg295 2.079 . S
O302 C304 1.273 . S
C303 O299 1.246 . S
C303 O300 1.259 . S
C304 O301 1.252 . S
C304 O302 1.273 . S
O305 Mg292 2.010 . S
O305 C297 1.249 . S
Mg306 O307 2.028 . S
Mg306 O313 1.986 1_545 S
Mg306 O315 2.114 . S
Mg306 O316 2.251 . S
Mg306 O319 2.010 . S
O307 Mg306 2.028 . S
O307 C310 1.250 1_545 S
O308 Mg309 2.030 1_565 S
O308 C310 1.248 . S
Mg309 O308 2.030 1_545 S
Mg309 O314 2.008 1_545 S
Mg309 O316 2.098 . S
C310 O307 1.250 1_565 S
C310 O308 1.248 . S
C311 O312 1.264 . S
C311 O319 1.249 . S
O312 C311 1.264 . S
O313 Mg306 1.986 1_565 S
O313 C317 1.246 . S
O314 Mg309 2.008 1_565 S
O314 C317 1.259 . S
O315 Mg306 2.114 . S
O315 C318 1.252 . S
O316 Mg306 2.251 . S
O316 Mg309 2.098 . S
O316 C318 1.273 . S
C317 O313 1.246 . S
C317 O314 1.259 . S
C318 O315 1.252 . S
C318 O316 1.273 . S
O319 Mg306 2.010 . S
O319 C311 1.249 . S
Mg320 O321 2.028 1_455 S
Mg320 O327 1.986 . S
Mg320 O329 2.114 . S
Mg320 O330 2.251 1_455 S
Mg320 O333 2.010 . S
O321 Mg320 2.028 1_655 S
O321 C324 1.250 . S
O322 Mg323 2.028 . S
O322 C324 1.248 . S
Mg323 O322 2.028 . S
Mg323 O328 2.032 . S
Mg323 O330 2.079 . S
C324 O321 1.250 . S
C324 O322 1.248 . S
C325 O326 1.264 . S
C325 O333 1.249 . S
O326 C325 1.264 . S
O327 Mg320 1.986 . S
O327 C331 1.246 . S
O328 Mg323 2.032 . S
O328 C331 1.259 1_655 S
O329 Mg320 2.114 . S
O329 C332 1.252 . S
O330 Mg320 2.251 1_655 S
O330 Mg323 2.079 . S
O330 C332 1.273 1_655 S
C331 O327 1.246 . S
C331 O328 1.259 1_455 S
C332 O329 1.252 . S
C332 O330 1.273 1_455 S
O333 Mg320 2.010 . S
O333 C325 1.249 . S
Mg334 O335 2.028 . S
Mg334 O341 1.986 . S
Mg334 O343 2.114 . S
Mg334 O344 2.251 . S
Mg334 O347 2.010 . S
O335 Mg334 2.028 . S
O335 C338 1.250 . S
O336 Mg337 2.028 . S
O336 C338 1.248 . S
Mg337 O336 2.028 . S
Mg337 O342 2.032 . S
Mg337 O344 2.079 . S
C338 O335 1.250 . S
C338 O336 1.248 . S
C339 O340 1.264 . S
C339 O347 1.249 . S
O340 C339 1.264 . S
O341 Mg334 1.986 . S
O341 C345 1.246 . S
O342 Mg337 2.032 . S
O342 C345 1.259 . S
O343 Mg334 2.114 . S
O343 C346 1.252 . S
O344 Mg334 2.251 . S
O344 Mg337 2.079 . S
O344 C346 1.273 . S
C345 O341 1.246 . S
C345 O342 1.259 . S
C346 O343 1.252 . S
C346 O344 1.273 . S
O347 Mg334 2.010 . S
O347 C339 1.249 . S
Mg348 O349 2.028 . S
Mg348 O355 1.986 . S
Mg348 O357 2.114 1_455 S
Mg348 O358 2.251 . S
Mg348 O361 2.010 1_455 S
O349 Mg348 2.028 . S
O349 C352 1.250 . S
O350 Mg351 2.028 . S
O350 C352 1.248 . S
Mg351 O350 2.028 . S
Mg351 O356 2.032 . S
Mg351 O358 2.079 . S
C352 O349 1.250 . S
C352 O350 1.248 . S
C353 O354 1.264 . S
C353 O361 1.249 . S
O354 C353 1.264 . S
O355 Mg348 1.986 . S
O355 C359 1.246 . S
O356 Mg351 2.032 . S
O356 C359 1.259 . S
O357 Mg348 2.114 1_655 S
O357 C360 1.252 1_655 S
O358 Mg348 2.251 . S
O358 Mg351 2.079 . S
O358 C360 1.273 . S
C359 O355 1.246 . S
C359 O356 1.259 . S
C360 O357 1.252 1_455 S
C360 O358 1.273 . S
O361 Mg348 2.010 1_655 S
O361 C353 1.249 . S
Mg362 O363 2.028 . S
Mg362 O369 1.986 . S
Mg362 O371 2.114 . S
Mg362 O372 2.251 . S
Mg362 O375 2.010 . S
O363 Mg362 2.028 . S
O363 C366 1.250 . S
O364 Mg365 2.028 . S
O364 C366 1.248 . S
Mg365 O364 2.028 . S
Mg365 O370 2.032 . S
Mg365 O372 2.079 . S
C366 O363 1.250 . S
C366 O364 1.248 . S
C367 O368 1.264 . S
C367 O375 1.249 . S
O368 C367 1.264 . S
O369 Mg362 1.986 . S
O369 C373 1.246 . S
O370 Mg365 2.032 . S
O370 C373 1.259 . S
O371 Mg362 2.114 . S
O371 C374 1.252 . S
O372 Mg362 2.251 . S
O372 Mg365 2.079 . S
O372 C374 1.273 . S
C373 O369 1.246 . S
C373 O370 1.259 . S
C374 O371 1.252 . S
C374 O372 1.273 . S
O375 Mg362 2.010 . S
O375 C367 1.249 . S
H376 C388 0.930 . S
H377 C390 0.930 . S
H378 C391 0.930 . S
H379 C395 0.959 . S
H380 C395 0.959 . S
H381 C395 0.961 . S
H382 C396 0.960 . S
H383 C396 0.961 . S
H384 C396 0.959 . S
H385 C399 0.929 . S
H386 C400 0.931 . S
H387 C402 0.930 . S
C388 H376 0.930 . S
C388 C389 1.399 . S
C388 C393 1.399 . S
C389 C388 1.399 . S
C389 C390 1.376 . S
C390 H377 0.930 . S
C390 C389 1.376 . S
C390 C391 1.388 . S
C391 H378 0.930 . S
C391 C390 1.388 . S
C391 C392 1.390 . S
C392 C391 1.390 . S
C392 C393 1.394 . S
C392 C398 1.465 . S
C393 C388 1.399 . S
C393 C392 1.394 . S
C393 C394 1.516 . S
C394 C393 1.516 . S
C394 C395 1.502 . S
C394 C396 1.561 . S
C394 C397 1.526 . S
C395 H379 0.959 . S
C395 H380 0.959 . S
C395 H381 0.961 . S
C395 C394 1.502 . S
C396 H382 0.960 . S
C396 H383 0.961 . S
C396 H384 0.959 . S
C396 C394 1.561 . S
C397 C394 1.526 . S
C397 C398 1.396 . S
C397 C402 1.390 . S
C398 C392 1.465 . S
C398 C397 1.396 . S
C398 C399 1.399 . S
C399 H385 0.929 . S
C399 C398 1.399 . S
C399 C400 1.385 . S
C400 H386 0.931 . S
C400 C399 1.385 . S
C400 C401 1.389 . S
C401 C400 1.389 . S
C401 C402 1.387 . S
C402 H387 0.930 . S
C402 C397 1.390 . S
C402 C401 1.387 . S
H403 C415 0.930 . S
H404 C417 0.930 . S
H405 C418 0.930 . S
H406 C422 0.959 . S
H407 C422 0.959 . S
H408 C422 0.961 . S
H409 C423 0.960 . S
H410 C423 0.961 . S
H411 C423 0.959 . S
H412 C426 0.929 . S
H413 C427 0.931 . S
H414 C429 0.930 . S
C415 H403 0.930 . S
C415 C416 1.399 . S
C415 C420 1.399 1_655 S
C416 C415 1.399 . S
C416 C417 1.376 . S
C417 H404 0.930 . S
C417 C416 1.376 . S
C417 C418 1.388 1_655 S
C418 H405 0.930 . S
C418 C417 1.388 1_455 S
C418 C419 1.390 . S
C419 C418 1.390 . S
C419 C420 1.394 . S
C419 C425 1.465 . S
C420 C415 1.399 1_455 S
C420 C419 1.394 . S
C420 C421 1.516 . S
C421 C420 1.516 . S
C421 C422 1.502 . S
C421 C423 1.561 . S
C421 C424 1.526 . S
C422 H406 0.959 . S
C422 H407 0.959 . S
C422 H408 0.961 . S
C422 C421 1.502 . S
C423 H409 0.960 . S
C423 H410 0.961 . S
C423 H411 0.959 . S
C423 C421 1.561 . S
C424 C421 1.526 . S
C424 C425 1.396 . S
C424 C429 1.390 . S
C425 C419 1.465 . S
C425 C424 1.396 . S
C425 C426 1.399 . S
C426 H412 0.929 . S
C426 C425 1.399 . S
C426 C427 1.385 . S
C427 H413 0.931 . S
C427 C426 1.385 . S
C427 C428 1.389 . S
C428 C427 1.389 . S
C428 C429 1.387 . S
C429 H414 0.930 . S
C429 C424 1.390 . S
C429 C428 1.387 . S
H430 C442 0.930 . S
H431 C444 0.930 . S
H432 C445 0.930 . S
H433 C449 0.959 . S
H434 C449 0.959 . S
H435 C449 0.961 . S
H436 C450 0.960 . S
H437 C450 0.961 . S
H438 C450 0.959 . S
H439 C453 0.929 . S
H440 C454 0.931 . S
H441 C456 0.930 . S
C442 H430 0.930 . S
C442 C443 1.399 . S
C442 C447 1.399 . S
C443 C442 1.399 . S
C443 C444 1.376 . S
C444 H431 0.930 . S
C444 C443 1.376 . S
C444 C445 1.388 . S
C445 H432 0.930 . S
C445 C444 1.388 . S
C445 C446 1.390 . S
C446 C445 1.390 . S
C446 C447 1.394 . S
C446 C452 1.465 . S
C447 C442 1.399 . S
C447 C446 1.394 . S
C447 C448 1.516 . S
C448 C447 1.516 . S
C448 C449 1.502 . S
C448 C450 1.561 . S
C448 C451 1.526 . S
C449 H433 0.959 . S
C449 H434 0.959 . S
C449 H435 0.961 . S
C449 C448 1.502 . S
C450 H436 0.960 . S
C450 H437 0.961 . S
C450 H438 0.959 . S
C450 C448 1.561 . S
C451 C448 1.526 . S
C451 C452 1.396 . S
C451 C456 1.390 . S
C452 C446 1.465 . S
C452 C451 1.396 . S
C452 C453 1.399 . S
C453 H439 0.929 . S
C453 C452 1.399 . S
C453 C454 1.385 . S
C454 H440 0.931 . S
C454 C453 1.385 . S
C454 C455 1.389 . S
C455 C454 1.389 . S
C455 C456 1.387 . S
C456 H441 0.930 . S
C456 C451 1.390 . S
C456 C455 1.387 . S
H457 C469 0.930 . S
H458 C471 0.930 . S
H459 C472 0.930 . S
H460 C476 0.959 . S
H461 C476 0.959 . S
H462 C476 0.961 . S
H463 C477 0.960 1_455 S
H464 C477 0.961 . S
H465 C477 0.959 1_455 S
H466 C480 0.929 . S
H467 C481 0.931 . S
H468 C483 0.930 . S
C469 H457 0.930 . S
C469 C470 1.399 1_545 S
C469 C474 1.399 1_455 S
C470 C469 1.399 1_565 S
C470 C471 1.376 . S
C471 H458 0.930 . S
C471 C470 1.376 . S
C471 C472 1.388 1_455 S
C472 H459 0.930 . S
C472 C471 1.388 1_655 S
C472 C473 1.390 . S
C473 C472 1.390 . S
C473 C474 1.394 1_565 S
C473 C479 1.465 . S
C474 C469 1.399 1_655 S
C474 C473 1.394 1_545 S
C474 C475 1.516 . S
C475 C474 1.516 . S
C475 C476 1.502 . S
C475 C477 1.561 . S
C475 C478 1.526 . S
C476 H460 0.959 . S
C476 H461 0.959 . S
C476 H462 0.961 . S
C476 C475 1.502 . S
C477 H463 0.960 1_655 S
C477 H464 0.961 . S
C477 H465 0.959 1_655 S
C477 C475 1.561 . S
C478 C475 1.526 . S
C478 C479 1.396 1_545 S
C478 C483 1.390 . S
C479 C473 1.465 . S
C479 C478 1.396 1_565 S
C479 C480 1.399 . S
C480 H466 0.929 . S
C480 C479 1.399 . S
C480 C481 1.385 . S
C481 H467 0.931 . S
C481 C480 1.385 . S
C481 C482 1.389 1_565 S
C482 C481 1.389 1_545 S
C482 C483 1.387 . S
C483 H468 0.930 . S
C483 C478 1.390 . S
C483 C482 1.387 . S
H484 C496 0.930 . S
H485 C498 0.930 . S
H486 C499 0.930 . S
H487 C503 0.959 . S
H488 C503 0.959 . S
H489 C503 0.961 . S
H490 C504 0.960 . S
H491 C504 0.961 . S
H492 C504 0.959 . S
H493 C507 0.929 . S
H494 C508 0.931 . S
H495 C510 0.930 . S
C496 H484 0.930 . S
C496 C497 1.399 . S
C496 C501 1.399 . S
C497 C496 1.399 . S
C497 C498 1.376 . S
C498 H485 0.930 . S
C498 C497 1.376 . S
C498 C499 1.388 . S
C499 H486 0.930 . S
C499 C498 1.388 . S
C499 C500 1.390 . S
C500 C499 1.390 . S
C500 C501 1.394 . S
C500 C506 1.465 . S
C501 C496 1.399 . S
C501 C500 1.394 . S
C501 C502 1.516 . S
C502 C501 1.516 . S
C502 C503 1.502 . S
C502 C504 1.561 . S
C502 C505 1.526 . S
C503 H487 0.959 . S
C503 H488 0.959 . S
C503 H489 0.961 . S
C503 C502 1.502 . S
C504 H490 0.960 . S
C504 H491 0.961 . S
C504 H492 0.959 . S
C504 C502 1.561 . S
C505 C502 1.526 . S
C505 C506 1.396 . S
C505 C510 1.390 . S
C506 C500 1.465 . S
C506 C505 1.396 . S
C506 C507 1.399 . S
C507 H493 0.929 . S
C507 C506 1.399 . S
C507 C508 1.385 . S
C508 H494 0.931 . S
C508 C507 1.385 . S
C508 C509 1.389 . S
C509 C508 1.389 . S
C509 C510 1.387 . S
C510 H495 0.930 . S
C510 C505 1.390 . S
C510 C509 1.387 . S
H511 C523 0.930 . S
H512 C525 0.930 . S
H513 C526 0.930 . S
H514 C530 0.959 . S
H515 C530 0.959 . S
H516 C530 0.961 . S
H517 C531 0.960 . S
H518 C531 0.961 . S
H519 C531 0.959 . S
H520 C534 0.929 . S
H521 C535 0.931 . S
H522 C537 0.930 . S
C523 H511 0.930 . S
C523 C524 1.399 . S
C523 C528 1.399 . S
C524 C523 1.399 . S
C524 C525 1.376 . S
C525 H512 0.930 . S
C525 C524 1.376 . S
C525 C526 1.388 . S
C526 H513 0.930 . S
C526 C525 1.388 . S
C526 C527 1.390 . S
C527 C526 1.390 . S
C527 C528 1.394 . S
C527 C533 1.465 . S
C528 C523 1.399 . S
C528 C527 1.394 . S
C528 C529 1.516 . S
C529 C528 1.516 . S
C529 C530 1.502 . S
C529 C531 1.561 . S
C529 C532 1.526 . S
C530 H514 0.959 . S
C530 H515 0.959 . S
C530 H516 0.961 . S
C530 C529 1.502 . S
C531 H517 0.960 . S
C531 H518 0.961 . S
C531 H519 0.959 . S
C531 C529 1.561 . S
C532 C529 1.526 . S
C532 C533 1.396 . S
C532 C537 1.390 . S
C533 C527 1.465 . S
C533 C532 1.396 . S
C533 C534 1.399 . S
C534 H520 0.929 . S
C534 C533 1.399 . S
C534 C535 1.385 . S
C535 H521 0.931 . S
C535 C534 1.385 . S
C535 C536 1.389 . S
C536 C535 1.389 . S
C536 C537 1.387 . S
C537 H522 0.930 . S
C537 C532 1.390 . S
C537 C536 1.387 . S
H538 C550 0.930 . S
H539 C552 0.930 . S
H540 C553 0.930 . S
H541 C557 0.959 . S
H542 C557 0.959 . S
H543 C557 0.961 . S
H544 C558 0.960 . S
H545 C558 0.961 . S
H546 C558 0.959 . S
H547 C561 0.929 . S
H548 C562 0.931 . S
H549 C564 0.930 . S
C550 H538 0.930 . S
C550 C551 1.399 . S
C550 C555 1.399 . S
C551 C550 1.399 . S
C551 C552 1.376 . S
C552 H539 0.930 . S
C552 C551 1.376 . S
C552 C553 1.388 . S
C553 H540 0.930 . S
C553 C552 1.388 . S
C553 C554 1.390 . S
C554 C553 1.390 . S
C554 C555 1.394 . S
C554 C560 1.465 . S
C555 C550 1.399 . S
C555 C554 1.394 . S
C555 C556 1.516 . S
C556 C555 1.516 . S
C556 C557 1.502 . S
C556 C558 1.561 . S
C556 C559 1.526 . S
C557 H541 0.959 . S
C557 H542 0.959 . S
C557 H543 0.961 . S
C557 C556 1.502 . S
C558 H544 0.960 . S
C558 H545 0.961 . S
C558 H546 0.959 . S
C558 C556 1.561 . S
C559 C556 1.526 . S
C559 C560 1.396 . S
C559 C564 1.390 . S
C560 C554 1.465 . S
C560 C559 1.396 . S
C560 C561 1.399 . S
C561 H547 0.929 . S
C561 C560 1.399 . S
C561 C562 1.385 . S
C562 H548 0.931 . S
C562 C561 1.385 . S
C562 C563 1.389 . S
C563 C562 1.389 . S
C563 C564 1.387 . S
C564 H549 0.930 . S
C564 C559 1.390 . S
C564 C563 1.387 . S
H565 C577 0.930 . S
H566 C579 0.935 . S
H567 C580 0.941 . S
H568 C584 0.959 . S
H569 C584 0.959 . S
H570 C584 0.961 . S
H571 C585 0.960 . S
H572 C585 0.961 . S
H573 C585 0.959 . S
H574 C588 0.929 . S
H575 C589 0.931 . S
H576 C591 0.930 . S
C577 H565 0.930 . S
C577 C578 1.399 . S
C577 C582 1.399 . S
C578 C577 1.399 . S
C578 C579 1.376 . S
C579 H566 0.935 . S
C579 C578 1.376 . S
C579 C580 1.386 1_565 S
C580 H567 0.941 . S
C580 C579 1.386 1_545 S
C580 C581 1.381 1_545 S
C581 C580 1.381 1_565 S
C581 C582 1.394 . S
C581 C587 1.465 . S
C582 C577 1.399 . S
C582 C581 1.394 . S
C582 C583 1.516 . S
C583 C582 1.516 . S
C583 C584 1.502 . S
C583 C585 1.561 . S
C583 C586 1.526 . S
C584 H568 0.959 . S
C584 H569 0.959 . S
C584 H570 0.961 . S
C584 C583 1.502 . S
C585 H571 0.960 . S
C585 H572 0.961 . S
C585 H573 0.959 . S
C585 C583 1.561 . S
C586 C583 1.526 . S
C586 C587 1.396 . S
C586 C591 1.390 . S
C587 C581 1.465 . S
C587 C586 1.396 . S
C587 C588 1.399 1_565 S
C588 H574 0.929 . S
C588 C587 1.399 1_545 S
C588 C589 1.385 . S
C589 H575 0.931 . S
C589 C588 1.385 . S
C589 C590 1.389 1_545 S
C590 C589 1.389 1_565 S
C590 C591 1.387 . S
C591 H576 0.930 . S
C591 C586 1.390 . S
C591 C590 1.387 . S
H592 C604 0.930 . S
H593 C606 0.930 . S
H594 C607 0.930 . S
H595 C611 0.959 . S
H596 C611 0.959 . S
H597 C611 0.961 . S
H598 C612 0.960 . S
H599 C612 0.961 . S
H600 C612 0.959 . S
H601 C615 0.929 . S
H602 C616 0.931 . S
H603 C618 0.930 . S
C604 H592 0.930 . S
C604 C605 1.399 . S
C604 C609 1.399 . S
C605 C604 1.399 . S
C605 C606 1.376 . S
C606 H593 0.930 . S
C606 C605 1.376 . S
C606 C607 1.388 . S
C607 H594 0.930 . S
C607 C606 1.388 . S
C607 C608 1.390 . S
C608 C607 1.390 . S
C608 C609 1.394 . S
C608 C614 1.465 . S
C609 C604 1.399 . S
C609 C608 1.394 . S
C609 C610 1.516 . S
C610 C609 1.516 . S
C610 C611 1.502 . S
C610 C612 1.561 . S
C610 C613 1.526 . S
C611 H595 0.959 . S
C611 H596 0.959 . S
C611 H597 0.961 . S
C611 C610 1.502 . S
C612 H598 0.960 . S
C612 H599 0.961 . S
C612 H600 0.959 . S
C612 C610 1.561 . S
C613 C610 1.526 . S
C613 C614 1.396 . S
C613 C618 1.390 . S
C614 C608 1.465 . S
C614 C613 1.396 . S
C614 C615 1.399 . S
C615 H601 0.929 . S
C615 C614 1.399 . S
C615 C616 1.385 . S
C616 H602 0.931 . S
C616 C615 1.385 . S
C616 C617 1.389 . S
C617 C616 1.389 . S
C617 C618 1.387 . S
C618 H603 0.930 . S
C618 C613 1.390 . S
C618 C617 1.387 . S
H619 C631 0.930 . S
H620 C633 0.930 . S
H621 C634 0.930 . S
H622 C638 0.959 . S
H623 C638 0.959 . S
H624 C638 0.961 . S
H625 C639 0.960 . S
H626 C639 0.961 . S
H627 C639 0.959 . S
H628 C642 0.929 . S
H629 C643 0.931 . S
H630 C645 0.930 . S
C631 H619 0.930 . S
C631 C632 1.399 . S
C631 C636 1.399 . S
C632 C631 1.399 . S
C632 C633 1.376 . S
C633 H620 0.930 . S
C633 C632 1.376 . S
C633 C634 1.388 . S
C634 H621 0.930 . S
C634 C633 1.388 . S
C634 C635 1.390 . S
C635 C634 1.390 . S
C635 C636 1.394 . S
C635 C641 1.465 . S
C636 C631 1.399 . S
C636 C635 1.394 . S
C636 C637 1.516 . S
C637 C636 1.516 . S
C637 C638 1.502 . S
C637 C639 1.561 . S
C637 C640 1.526 . S
C638 H622 0.959 . S
C638 H623 0.959 . S
C638 H624 0.961 . S
C638 C637 1.502 . S
C639 H625 0.960 . S
C639 H626 0.961 . S
C639 H627 0.959 . S
C639 C637 1.561 . S
C640 C637 1.526 . S
C640 C641 1.396 . S
C640 C645 1.390 . S
C641 C635 1.465 . S
C641 C640 1.396 . S
C641 C642 1.399 . S
C642 H628 0.929 . S
C642 C641 1.399 . S
C642 C643 1.385 . S
C643 H629 0.931 . S
C643 C642 1.385 . S
C643 C644 1.389 . S
C644 C643 1.389 . S
C644 C645 1.387 . S
C645 H630 0.930 . S
C645 C640 1.390 . S
C645 C644 1.387 . S
H646 C658 0.930 . S
H647 C660 0.930 . S
H648 C661 0.930 . S
H649 C665 0.959 . S
H650 C665 0.959 . S
H651 C665 0.961 . S
H652 C666 0.960 . S
H653 C666 0.961 . S
H654 C666 0.959 . S
H655 C669 0.929 . S
H656 C670 0.931 . S
H657 C672 0.930 . S
C658 H646 0.930 . S
C658 C659 1.399 . S
C658 C663 1.399 . S
C659 C658 1.399 . S
C659 C660 1.376 . S
C660 H647 0.930 . S
C660 C659 1.376 . S
C660 C661 1.388 . S
C661 H648 0.930 . S
C661 C660 1.388 . S
C661 C662 1.390 . S
C662 C661 1.390 . S
C662 C663 1.394 . S
C662 C668 1.465 . S
C663 C658 1.399 . S
C663 C662 1.394 . S
C663 C664 1.516 . S
C664 C663 1.516 . S
C664 C665 1.502 . S
C664 C666 1.561 . S
C664 C667 1.526 . S
C665 H649 0.959 . S
C665 H650 0.959 . S
C665 H651 0.961 . S
C665 C664 1.502 . S
C666 H652 0.960 . S
C666 H653 0.961 . S
C666 H654 0.959 . S
C666 C664 1.561 . S
C667 C664 1.526 . S
C667 C668 1.396 . S
C667 C672 1.390 . S
C668 C662 1.465 . S
C668 C667 1.396 . S
C668 C669 1.399 . S
C669 H655 0.929 . S
C669 C668 1.399 . S
C669 C670 1.385 . S
C670 H656 0.931 . S
C670 C669 1.385 . S
C670 C671 1.389 . S
C671 C670 1.389 . S
C671 C672 1.387 . S
C672 H657 0.930 . S
C672 C667 1.390 . S
C672 C671 1.387 . S
H673 C685 0.930 . S
H674 C687 0.930 . S
H675 C688 0.930 . S
H676 C692 0.959 . S
H677 C692 0.959 . S
H678 C692 0.961 . S
H679 C693 0.960 . S
H680 C693 0.961 . S
H681 C693 0.959 . S
H682 C696 0.929 . S
H683 C697 0.931 . S
H684 C699 0.930 . S
C685 H673 0.930 . S
C685 C686 1.399 . S
C685 C690 1.399 . S
C686 C685 1.399 . S
C686 C687 1.376 . S
C687 H674 0.930 . S
C687 C686 1.376 . S
C687 C688 1.388 . S
C688 H675 0.930 . S
C688 C687 1.388 . S
C688 C689 1.390 . S
C689 C688 1.390 . S
C689 C690 1.394 . S
C689 C695 1.465 . S
C690 C685 1.399 . S
C690 C689 1.394 . S
C690 C691 1.516 . S
C691 C690 1.516 . S
C691 C692 1.502 . S
C691 C693 1.561 . S
C691 C694 1.526 . S
C692 H676 0.959 . S
C692 H677 0.959 . S
C692 H678 0.961 . S
C692 C691 1.502 . S
C693 H679 0.960 . S
C693 H680 0.961 . S
C693 H681 0.959 . S
C693 C691 1.561 . S
C694 C691 1.526 . S
C694 C695 1.396 . S
C694 C699 1.390 . S
C695 C689 1.465 . S
C695 C694 1.396 . S
C695 C696 1.399 . S
C696 H682 0.929 . S
C696 C695 1.399 . S
C696 C697 1.385 . S
C697 H683 0.931 . S
C697 C696 1.385 . S
C697 C698 1.389 . S
C698 C697 1.389 . S
C698 C699 1.387 . S
C699 H684 0.930 . S
C699 C694 1.390 . S
C699 C698 1.387 . S
H700 C712 0.930 . S
H701 C714 0.930 . S
H702 C715 0.930 . S
H703 C719 0.959 . S
H704 C719 0.959 . S
H705 C719 0.961 . S
H706 C720 0.960 . S
H707 C720 0.961 . S
H708 C720 0.959 . S
H709 C723 0.929 . S
H710 C724 0.931 . S
H711 C726 0.930 . S
C712 H700 0.930 . S
C712 C713 1.399 . S
C712 C717 1.399 . S
C713 C712 1.399 . S
C713 C714 1.376 . S
C714 H701 0.930 . S
C714 C713 1.376 . S
C714 C715 1.388 . S
C715 H702 0.930 . S
C715 C714 1.388 . S
C715 C716 1.390 . S
C716 C715 1.390 . S
C716 C717 1.394 . S
C716 C722 1.465 . S
C717 C712 1.399 . S
C717 C716 1.394 . S
C717 C718 1.516 . S
C718 C717 1.516 . S
C718 C719 1.502 . S
C718 C720 1.561 . S
C718 C721 1.526 . S
C719 H703 0.959 . S
C719 H704 0.959 . S
C719 H705 0.961 . S
C719 C718 1.502 . S
C720 H706 0.960 . S
C720 H707 0.961 . S
C720 H708 0.959 . S
C720 C718 1.561 . S
C721 C718 1.526 . S
C721 C722 1.396 . S
C721 C726 1.390 . S
C722 C716 1.465 . S
C722 C721 1.396 . S
C722 C723 1.399 . S
C723 H709 0.929 . S
C723 C722 1.399 . S
C723 C724 1.385 . S
C724 H710 0.931 . S
C724 C723 1.385 . S
C724 C725 1.389 . S
C725 C724 1.389 . S
C725 C726 1.387 . S
C726 H711 0.930 . S
C726 C721 1.390 . S
C726 C725 1.387 . S
H727 C739 0.930 . S
H728 C741 0.930 . S
H729 C742 0.930 . S
H730 C746 0.959 . S
H731 C746 0.959 . S
H732 C746 0.961 . S
H733 C747 0.960 . S
H734 C747 0.961 . S
H735 C747 0.959 . S
H736 C750 0.929 . S
H737 C751 0.931 . S
H738 C753 0.930 . S
C739 H727 0.930 . S
C739 C740 1.399 . S
C739 C744 1.399 . S
C740 C739 1.399 . S
C740 C741 1.376 . S
C741 H728 0.930 . S
C741 C740 1.376 . S
C741 C742 1.388 . S
C742 H729 0.930 . S
C742 C741 1.388 . S
C742 C743 1.390 . S
C743 C742 1.390 . S
C743 C744 1.394 . S
C743 C749 1.465 . S
C744 C739 1.399 . S
C744 C743 1.394 . S
C744 C745 1.516 . S
C745 C744 1.516 . S
C745 C746 1.502 1_455 S
C745 C747 1.561 . S
C745 C748 1.526 . S
C746 H730 0.959 . S
C746 H731 0.959 . S
C746 H732 0.961 . S
C746 C745 1.502 1_655 S
C747 H733 0.960 . S
C747 H734 0.961 . S
C747 H735 0.959 . S
C747 C745 1.561 . S
C748 C745 1.526 . S
C748 C749 1.396 . S
C748 C753 1.390 . S
C749 C743 1.465 . S
C749 C748 1.396 . S
C749 C750 1.399 . S
C750 H736 0.929 . S
C750 C749 1.399 . S
C750 C751 1.385 . S
C751 H737 0.931 . S
C751 C750 1.385 . S
C751 C752 1.389 . S
C752 C751 1.389 . S
C752 C753 1.387 . S
C753 H738 0.930 . S
C753 C748 1.390 . S
C753 C752 1.387 . S
H754 C766 0.930 . S
H755 C768 0.930 . S
H756 C769 0.930 . S
H757 C773 0.959 . S
H758 C773 0.959 . S
H759 C773 0.961 . S
H760 C774 0.960 . S
H761 C774 0.961 . S
H762 C774 0.959 . S
H763 C777 0.929 . S
H764 C778 0.931 . S
H765 C780 0.930 . S
C766 H754 0.930 . S
C766 C767 1.399 . S
C766 C771 1.399 . S
C767 C766 1.399 . S
C767 C768 1.376 . S
C768 H755 0.930 . S
C768 C767 1.376 . S
C768 C769 1.388 . S
C769 H756 0.930 . S
C769 C768 1.388 . S
C769 C770 1.390 . S
C770 C769 1.390 . S
C770 C771 1.394 . S
C770 C776 1.465 . S
C771 C766 1.399 . S
C771 C770 1.394 . S
C771 C772 1.516 . S
C772 C771 1.516 . S
C772 C773 1.502 . S
C772 C774 1.561 . S
C772 C775 1.526 . S
C773 H757 0.959 . S
C773 H758 0.959 . S
C773 H759 0.961 . S
C773 C772 1.502 . S
C774 H760 0.960 . S
C774 H761 0.961 . S
C774 H762 0.959 . S
C774 C772 1.561 . S
C775 C772 1.526 . S
C775 C776 1.396 . S
C775 C780 1.390 . S
C776 C770 1.465 . S
C776 C775 1.396 . S
C776 C777 1.399 . S
C777 H763 0.929 . S
C777 C776 1.399 . S
C777 C778 1.385 . S
C778 H764 0.931 . S
C778 C777 1.385 . S
C778 C779 1.389 . S
C779 C778 1.389 . S
C779 C780 1.387 . S
C780 H765 0.930 . S
C780 C775 1.390 . S
C780 C779 1.387 . S
H781 C793 0.930 . S
H782 C795 0.930 . S
H783 C796 0.930 . S
H784 C800 0.959 . S
H785 C800 0.959 . S
H786 C800 0.961 . S
H787 C801 0.960 . S
H788 C801 0.967 . S
H789 C801 0.959 . S
H790 C804 0.929 . S
H791 C805 0.931 . S
H792 C807 0.930 . S
C793 H781 0.930 . S
C793 C794 1.399 . S
C793 C798 1.399 . S
C794 C793 1.399 . S
C794 C795 1.376 . S
C795 H782 0.930 . S
C795 C794 1.376 . S
C795 C796 1.388 . S
C796 H783 0.930 . S
C796 C795 1.388 . S
C796 C797 1.390 . S
C797 C796 1.390 . S
C797 C798 1.394 . S
C797 C803 1.465 . S
C798 C793 1.399 . S
C798 C797 1.394 . S
C798 C799 1.516 1_655 S
C799 C798 1.516 1_455 S
C799 C800 1.502 . S
C799 C801 1.561 1_455 S
C799 C802 1.526 1_455 S
C800 H784 0.959 . S
C800 H785 0.959 . S
C800 H786 0.961 . S
C800 C799 1.502 . S
C801 H787 0.960 . S
C801 H788 0.967 . S
C801 H789 0.959 . S
C801 C799 1.561 1_655 S
C802 C799 1.526 1_655 S
C802 C803 1.396 . S
C802 C807 1.390 1_655 S
C803 C797 1.465 . S
C803 C802 1.396 . S
C803 C804 1.399 . S
C804 H790 0.929 . S
C804 C803 1.399 . S
C804 C805 1.385 . S
C805 H791 0.931 . S
C805 C804 1.385 . S
C805 C806 1.380 1_655 S
C806 C805 1.380 1_455 S
C806 C807 1.391 . S
C807 H792 0.930 . S
C807 C802 1.390 1_455 S
C807 C806 1.391 . S
H808 C820 0.930 . S
H809 C822 0.930 . S
H810 C823 0.930 . S
H811 C827 0.959 . S
H812 C827 0.959 . S
H813 C827 0.961 . S
H814 C828 0.960 . S
H815 C828 0.961 . S
H816 C828 0.959 . S
H817 C831 0.929 . S
H818 C832 0.931 . S
H819 C834 0.930 . S
C820 H808 0.930 . S
C820 C821 1.399 . S
C820 C825 1.399 . S
C821 C820 1.399 . S
C821 C822 1.376 . S
C822 H809 0.930 . S
C822 C821 1.376 . S
C822 C823 1.388 . S
C823 H810 0.930 . S
C823 C822 1.388 . S
C823 C824 1.390 . S
C824 C823 1.390 . S
C824 C825 1.394 . S
C824 C830 1.465 . S
C825 C820 1.399 . S
C825 C824 1.394 . S
C825 C826 1.516 . S
C826 C825 1.516 . S
C826 C827 1.502 . S
C826 C828 1.561 . S
C826 C829 1.526 . S
C827 H811 0.959 . S
C827 H812 0.959 . S
C827 H813 0.961 . S
C827 C826 1.502 . S
C828 H814 0.960 . S
C828 H815 0.961 . S
C828 H816 0.959 . S
C828 C826 1.561 . S
C829 C826 1.526 . S
C829 C830 1.396 . S
C829 C834 1.390 . S
C830 C824 1.465 . S
C830 C829 1.396 . S
C830 C831 1.399 . S
C831 H817 0.929 . S
C831 C830 1.399 . S
C831 C832 1.385 . S
C832 H818 0.931 . S
C832 C831 1.385 . S
C832 C833 1.389 . S
C833 C832 1.389 . S
C833 C834 1.387 . S
C834 H819 0.930 . S
C834 C829 1.390 . S
C834 C833 1.387 . S
H835 C847 0.930 . S
H836 C849 0.930 . S
H837 C850 0.930 . S
H838 C854 0.959 . S
H839 C854 0.959 . S
H840 C854 0.961 . S
H841 C855 0.960 . S
H842 C855 0.961 . S
H843 C855 0.959 . S
H844 C858 0.929 . S
H845 C859 0.931 . S
H846 C861 0.930 . S
C847 H835 0.930 . S
C847 C848 1.399 . S
C847 C852 1.399 . S
C848 C847 1.399 . S
C848 C849 1.376 . S
C849 H836 0.930 . S
C849 C848 1.376 . S
C849 C850 1.388 . S
C850 H837 0.930 . S
C850 C849 1.388 . S
C850 C851 1.390 . S
C851 C850 1.390 . S
C851 C852 1.394 . S
C851 C857 1.465 . S
C852 C847 1.399 . S
C852 C851 1.394 . S
C852 C853 1.516 . S
C853 C852 1.516 . S
C853 C854 1.502 . S
C853 C855 1.561 . S
C853 C856 1.526 . S
C854 H838 0.959 . S
C854 H839 0.959 . S
C854 H840 0.961 . S
C854 C853 1.502 . S
C855 H841 0.960 . S
C855 H842 0.961 . S
C855 H843 0.959 . S
C855 C853 1.561 . S
C856 C853 1.526 . S
C856 C857 1.396 . S
C856 C861 1.390 . S
C857 C851 1.465 . S
C857 C856 1.396 . S
C857 C858 1.399 . S
C858 H844 0.929 . S
C858 C857 1.399 . S
C858 C859 1.385 . S
C859 H845 0.931 . S
C859 C858 1.385 . S
C859 C860 1.389 . S
C860 C859 1.389 . S
C860 C861 1.387 . S
C861 H846 0.930 . S
C861 C856 1.390 . S
C861 C860 1.387 . S
H862 C874 0.930 . S
H863 C876 0.930 . S
H864 C877 0.930 . S
H865 C881 0.959 . S
H866 C881 0.959 . S
H867 C881 0.961 . S
H868 C882 0.960 . S
H869 C882 0.961 . S
H870 C882 0.959 . S
H871 C885 0.929 . S
H872 C886 0.931 . S
H873 C888 0.930 . S
C874 H862 0.930 . S
C874 C875 1.373 1_564 S
C874 C879 1.399 . S
C875 C874 1.373 1_546 S
C875 C876 1.389 . S
C876 H863 0.930 . S
C876 C875 1.389 . S
C876 C877 1.388 1_545 S
C877 H864 0.930 . S
C877 C876 1.388 1_565 S
C877 C878 1.390 . S
C878 C877 1.390 . S
C878 C879 1.394 1_556 S
C878 C884 1.465 . S
C879 C874 1.399 . S
C879 C878 1.394 1_554 S
C879 C880 1.516 . S
C880 C879 1.516 . S
C880 C881 1.502 . S
C880 C882 1.561 . S
C880 C883 1.526 . S
C881 H865 0.959 . S
C881 H866 0.959 . S
C881 H867 0.961 . S
C881 C880 1.502 . S
C882 H868 0.960 . S
C882 H869 0.961 . S
C882 H870 0.959 . S
C882 C880 1.561 . S
C883 C880 1.526 . S
C883 C884 1.396 1_554 S
C883 C888 1.390 . S
C884 C878 1.465 . S
C884 C883 1.396 1_556 S
C884 C885 1.399 . S
C885 H871 0.929 . S
C885 C884 1.399 . S
C885 C886 1.385 . S
C886 H872 0.931 . S
C886 C885 1.385 . S
C886 C887 1.389 1_556 S
C887 C886 1.389 1_554 S
C887 C888 1.387 . S
C888 H873 0.930 . S
C888 C883 1.390 . S
C888 C887 1.387 . S
H889 C901 0.930 . S
H890 C903 0.930 . S
H891 C904 0.930 . S
H892 C908 0.959 . S
H893 C908 0.959 . S
H894 C908 0.961 . S
H895 C909 0.960 . S
H896 C909 0.961 . S
H897 C909 0.959 . S
H898 C912 0.929 . S
H899 C913 0.931 . S
H900 C915 0.930 . S
C901 H889 0.930 . S
C901 C902 1.399 . S
C901 C906 1.399 . S
C902 C901 1.399 . S
C902 C903 1.376 . S
C903 H890 0.930 . S
C903 C902 1.376 . S
C903 C904 1.388 . S
C904 H891 0.930 . S
C904 C903 1.388 . S
C904 C905 1.390 . S
C905 C904 1.390 . S
C905 C906 1.394 . S
C905 C911 1.465 . S
C906 C901 1.399 . S
C906 C905 1.394 . S
C906 C907 1.516 . S
C907 C906 1.516 . S
C907 C908 1.502 . S
C907 C909 1.561 . S
C907 C910 1.526 . S
C908 H892 0.959 . S
C908 H893 0.959 . S
C908 H894 0.961 . S
C908 C907 1.502 . S
C909 H895 0.960 . S
C909 H896 0.961 . S
C909 H897 0.959 . S
C909 C907 1.561 . S
C910 C907 1.526 . S
C910 C911 1.396 . S
C910 C915 1.390 . S
C911 C905 1.465 . S
C911 C910 1.396 . S
C911 C912 1.399 . S
C912 H898 0.929 . S
C912 C911 1.399 . S
C912 C913 1.385 . S
C913 H899 0.931 . S
C913 C912 1.385 . S
C913 C914 1.389 . S
C914 C913 1.389 . S
C914 C915 1.387 . S
C915 H900 0.930 . S
C915 C910 1.390 . S
C915 C914 1.387 . S
H916 C928 0.930 . S
H917 C930 0.930 1_565 S
H918 C931 0.930 . S
H919 C935 0.959 . S
H920 C935 0.959 . S
H921 C935 0.961 . S
H922 C936 0.960 . S
H923 C936 0.961 . S
H924 C936 0.959 . S
H925 C939 0.929 . S
H926 C940 0.931 . S
H927 C942 0.930 . S
C928 H916 0.930 . S
C928 C929 1.399 . S
C928 C933 1.399 . S
C929 C928 1.399 . S
C929 C930 1.376 . S
C930 H917 0.930 1_545 S
C930 C929 1.376 . S
C930 C931 1.388 . S
C931 H918 0.930 . S
C931 C930 1.388 . S
C931 C932 1.390 . S
C932 C931 1.390 . S
C932 C933 1.394 . S
C932 C938 1.465 . S
C933 C928 1.399 . S
C933 C932 1.394 . S
C933 C934 1.516 . S
C934 C933 1.516 . S
C934 C935 1.502 . S
C934 C936 1.561 . S
C934 C937 1.526 . S
C935 H919 0.959 . S
C935 H920 0.959 . S
C935 H921 0.961 . S
C935 C934 1.502 . S
C936 H922 0.960 . S
C936 H923 0.961 . S
C936 H924 0.959 . S
C936 C934 1.561 . S
C937 C934 1.526 . S
C937 C938 1.396 . S
C937 C942 1.390 . S
C938 C932 1.465 . S
C938 C937 1.396 . S
C938 C939 1.399 . S
C939 H925 0.929 . S
C939 C938 1.399 . S
C939 C940 1.385 . S
C940 H926 0.931 . S
C940 C939 1.385 . S
C940 C941 1.389 . S
C941 C940 1.389 . S
C941 C942 1.387 . S
C942 H927 0.930 . S
C942 C937 1.390 . S
C942 C941 1.387 . S
H943 C955 0.930 . S
H944 C957 0.930 . S
H945 C958 0.930 . S
H946 C962 0.959 . S
H947 C962 0.959 . S
H948 C962 0.961 . S
H949 C963 0.960 . S
H950 C963 0.961 . S
H951 C963 0.959 . S
H952 C966 0.929 . S
H953 C967 0.931 . S
H954 C969 0.930 . S
C955 H943 0.930 . S
C955 C956 1.399 . S
C955 C960 1.399 . S
C956 C955 1.399 . S
C956 C957 1.376 . S
C957 H944 0.930 . S
C957 C956 1.376 . S
C957 C958 1.388 . S
C958 H945 0.930 . S
C958 C957 1.388 . S
C958 C959 1.390 . S
C959 C958 1.390 . S
C959 C960 1.394 . S
C959 C965 1.465 . S
C960 C955 1.399 . S
C960 C959 1.394 . S
C960 C961 1.516 . S
C961 C960 1.516 . S
C961 C962 1.502 . S
C961 C963 1.561 . S
C961 C964 1.526 . S
C962 H946 0.959 . S
C962 H947 0.959 . S
C962 H948 0.961 . S
C962 C961 1.502 . S
C963 H949 0.960 . S
C963 H950 0.961 . S
C963 H951 0.959 . S
C963 C961 1.561 . S
C964 C961 1.526 . S
C964 C965 1.396 . S
C964 C969 1.390 . S
C965 C959 1.465 . S
C965 C964 1.396 . S
C965 C966 1.399 . S
C966 H952 0.929 . S
C966 C965 1.399 . S
C966 C967 1.385 . S
C967 H953 0.931 . S
C967 C966 1.385 . S
C967 C968 1.389 . S
C968 C967 1.389 . S
C968 C969 1.387 . S
C969 H954 0.930 . S
C969 C964 1.390 . S
C969 C968 1.387 . S
H970 C982 0.930 . S
H971 C984 0.930 . S
H972 C985 0.930 . S
H973 C989 0.959 . S
H974 C989 0.959 . S
H975 C989 0.961 . S
H976 C990 0.960 . S
H977 C990 0.961 . S
H978 C990 0.959 . S
H979 C993 0.929 . S
H980 C994 0.931 . S
H981 C996 0.930 . S
C982 H970 0.930 . S
C982 C983 1.399 1_545 S
C982 C987 1.399 . S
C983 C982 1.399 1_565 S
C983 C984 1.376 . S
C984 H971 0.930 . S
C984 C983 1.376 . S
C984 C985 1.388 1_565 S
C985 H972 0.930 . S
C985 C984 1.388 1_545 S
C985 C986 1.390 . S
C986 C985 1.390 . S
C986 C987 1.394 . S
C986 C992 1.465 . S
C987 C982 1.399 . S
C987 C986 1.394 . S
C987 C988 1.516 . S
C988 C987 1.516 . S
C988 C989 1.502 . S
C988 C990 1.561 . S
C988 C991 1.526 . S
C989 H973 0.959 . S
C989 H974 0.959 . S
C989 H975 0.961 . S
C989 C988 1.502 . S
C990 H976 0.960 . S
C990 H977 0.961 . S
C990 H978 0.959 . S
C990 C988 1.561 . S
C991 C988 1.526 . S
C991 C992 1.396 . S
C991 C996 1.390 . S
C992 C986 1.465 . S
C992 C991 1.396 . S
C992 C993 1.399 . S
C993 H979 0.929 . S
C993 C992 1.399 . S
C993 C994 1.385 . S
C994 H980 0.931 . S
C994 C993 1.385 . S
C994 C995 1.389 . S
C995 C994 1.389 . S
C995 C996 1.387 . S
C996 H981 0.930 . S
C996 C991 1.390 . S
C996 C995 1.387 . S
H997 C1009 0.930 . S
H998 C1011 0.930 . S
H999 C1012 0.930 . S
H1000 C1016 0.959 . S
H1001 C1016 0.959 . S
H1002 C1016 0.961 . S
H1003 C1017 0.960 . S
H1004 C1017 0.961 . S
H1005 C1017 0.959 . S
H1006 C1020 0.929 . S
H1007 C1021 0.931 . S
H1008 C1023 0.930 . S
C1009 H997 0.930 . S
C1009 C1010 1.399 . S
C1009 C1014 1.399 . S
C1010 C1009 1.399 . S
C1010 C1011 1.376 . S
C1011 H998 0.930 . S
C1011 C1010 1.376 . S
C1011 C1012 1.388 . S
C1012 H999 0.930 . S
C1012 C1011 1.388 . S
C1012 C1013 1.390 . S
C1013 C1012 1.390 . S
C1013 C1014 1.394 . S
C1013 C1019 1.465 . S
C1014 C1009 1.399 . S
C1014 C1013 1.394 . S
C1014 C1015 1.516 . S
C1015 C1014 1.516 . S
C1015 C1016 1.502 . S
C1015 C1017 1.561 . S
C1015 C1018 1.526 . S
C1016 H1000 0.959 . S
C1016 H1001 0.959 . S
C1016 H1002 0.961 . S
C1016 C1015 1.502 . S
C1017 H1003 0.960 . S
C1017 H1004 0.961 . S
C1017 H1005 0.959 . S
C1017 C1015 1.561 . S
C1018 C1015 1.526 . S
C1018 C1019 1.396 . S
C1018 C1023 1.390 . S
C1019 C1013 1.465 . S
C1019 C1018 1.396 . S
C1019 C1020 1.399 . S
C1020 H1006 0.929 . S
C1020 C1019 1.399 . S
C1020 C1021 1.385 . S
C1021 H1007 0.931 . S
C1021 C1020 1.385 . S
C1021 C1022 1.389 . S
C1022 C1021 1.389 . S
C1022 C1023 1.387 . S
C1023 H1008 0.930 . S
C1023 C1018 1.390 . S
C1023 C1022 1.387 . S
H1024 C1036 0.930 . S
H1025 C1038 0.930 . S
H1026 C1039 0.930 . S
H1027 C1043 0.959 . S
H1028 C1043 0.959 . S
H1029 C1043 0.961 . S
H1030 C1044 0.960 . S
H1031 C1044 0.961 . S
H1032 C1044 0.959 . S
H1033 C1047 0.929 . S
H1034 C1048 0.931 . S
H1035 C1050 0.930 . S
C1036 H1024 0.930 . S
C1036 C1037 1.399 . S
C1036 C1041 1.399 . S
C1037 C1036 1.399 . S
C1037 C1038 1.376 . S
C1038 H1025 0.930 . S
C1038 C1037 1.376 . S
C1038 C1039 1.388 . S
C1039 H1026 0.930 . S
C1039 C1038 1.388 . S
C1039 C1040 1.390 . S
C1040 C1039 1.390 . S
C1040 C1041 1.394 . S
C1040 C1046 1.465 . S
C1041 C1036 1.399 . S
C1041 C1040 1.394 . S
C1041 C1042 1.516 . S
C1042 C1041 1.516 . S
C1042 C1043 1.502 . S
C1042 C1044 1.561 . S
C1042 C1045 1.526 . S
C1043 H1027 0.959 . S
C1043 H1028 0.959 . S
C1043 H1029 0.961 . S
C1043 C1042 1.502 . S
C1044 H1030 0.960 . S
C1044 H1031 0.961 . S
C1044 H1032 0.959 . S
C1044 C1042 1.561 . S
C1045 C1042 1.526 . S
C1045 C1046 1.396 . S
C1045 C1050 1.390 . S
C1046 C1040 1.465 . S
C1046 C1045 1.396 . S
C1046 C1047 1.399 . S
C1047 H1033 0.929 . S
C1047 C1046 1.399 . S
C1047 C1048 1.385 . S
C1048 H1034 0.931 . S
C1048 C1047 1.385 . S
C1048 C1049 1.389 . S
C1049 C1048 1.389 . S
C1049 C1050 1.387 . S
C1050 H1035 0.930 . S
C1050 C1045 1.390 . S
C1050 C1049 1.387 . S
H1051 C1063 0.930 . S
H1052 C1065 0.930 1_565 S
H1053 C1066 0.916 1_565 S
H1054 C1070 0.959 . S
H1055 C1070 0.959 . S
H1056 C1070 0.961 . S
H1057 C1071 0.960 . S
H1058 C1071 0.961 . S
H1059 C1071 0.959 . S
H1060 C1074 0.929 . S
H1061 C1075 0.931 . S
H1062 C1077 0.930 . S
C1063 H1051 0.930 . S
C1063 C1064 1.399 . S
C1063 C1068 1.399 . S
C1064 C1063 1.399 . S
C1064 C1065 1.376 . S
C1065 H1052 0.930 1_545 S
C1065 C1064 1.376 . S
C1065 C1066 1.393 . S
C1066 H1053 0.916 1_545 S
C1066 C1065 1.393 . S
C1066 C1067 1.400 . S
C1067 C1066 1.400 . S
C1067 C1068 1.394 . S
C1067 C1073 1.465 . S
C1068 C1063 1.399 . S
C1068 C1067 1.394 . S
C1068 C1069 1.516 . S
C1069 C1068 1.516 . S
C1069 C1070 1.502 . S
C1069 C1071 1.561 . S
C1069 C1072 1.526 . S
C1070 H1054 0.959 . S
C1070 H1055 0.959 . S
C1070 H1056 0.961 . S
C1070 C1069 1.502 . S
C1071 H1057 0.960 . S
C1071 H1058 0.961 . S
C1071 H1059 0.959 . S
C1071 C1069 1.561 . S
C1072 C1069 1.526 . S
C1072 C1073 1.396 . S
C1072 C1077 1.390 . S
C1073 C1067 1.465 . S
C1073 C1072 1.396 . S
C1073 C1074 1.399 1_545 S
C1074 H1060 0.929 . S
C1074 C1073 1.399 1_565 S
C1074 C1075 1.385 . S
C1075 H1061 0.931 . S
C1075 C1074 1.385 . S
C1075 C1076 1.389 1_565 S
C1076 C1075 1.389 1_545 S
C1076 C1077 1.387 . S
C1077 H1062 0.930 . S
C1077 C1072 1.390 . S
C1077 C1076 1.387 . S
H1078 C1090 0.930 . S
H1079 C1092 0.930 . S
H1080 C1093 0.930 . S
H1081 C1097 0.959 . S
H1082 C1097 0.959 . S
H1083 C1097 0.961 . S
H1084 C1098 0.960 . S
H1085 C1098 0.961 . S
H1086 C1098 0.959 . S
H1087 C1101 0.929 . S
H1088 C1102 0.931 . S
H1089 C1104 0.930 . S
C1090 H1078 0.930 . S
C1090 C1091 1.399 . S
C1090 C1095 1.399 . S
C1091 C1090 1.399 . S
C1091 C1092 1.376 . S
C1092 H1079 0.930 . S
C1092 C1091 1.376 . S
C1092 C1093 1.388 . S
C1093 H1080 0.930 . S
C1093 C1092 1.388 . S
C1093 C1094 1.390 . S
C1094 C1093 1.390 . S
C1094 C1095 1.394 . S
C1094 C1100 1.465 . S
C1095 C1090 1.399 . S
C1095 C1094 1.394 . S
C1095 C1096 1.516 . S
C1096 C1095 1.516 . S
C1096 C1097 1.502 . S
C1096 C1098 1.561 . S
C1096 C1099 1.526 . S
C1097 H1081 0.959 . S
C1097 H1082 0.959 . S
C1097 H1083 0.961 . S
C1097 C1096 1.502 . S
C1098 H1084 0.960 . S
C1098 H1085 0.961 . S
C1098 H1086 0.959 . S
C1098 C1096 1.561 . S
C1099 C1096 1.526 . S
C1099 C1100 1.396 . S
C1099 C1104 1.390 . S
C1100 C1094 1.465 . S
C1100 C1099 1.396 . S
C1100 C1101 1.399 . S
C1101 H1087 0.929 . S
C1101 C1100 1.399 . S
C1101 C1102 1.385 . S
C1102 H1088 0.931 . S
C1102 C1101 1.385 . S
C1102 C1103 1.389 . S
C1103 C1102 1.389 . S
C1103 C1104 1.387 . S
C1104 H1089 0.930 . S
C1104 C1099 1.390 . S
C1104 C1103 1.387 . S
H1105 C1117 0.930 . S
H1106 C1119 0.930 . S
H1107 C1120 0.930 . S
H1108 C1124 0.959 . S
H1109 C1124 0.959 . S
H1110 C1124 0.961 . S
H1111 C1125 0.960 . S
H1112 C1125 0.961 . S
H1113 C1125 0.959 . S
H1114 C1128 0.929 . S
H1115 C1129 0.931 . S
H1116 C1131 0.930 . S
C1117 H1105 0.930 . S
C1117 C1118 1.399 . S
C1117 C1122 1.399 . S
C1118 C1117 1.399 . S
C1118 C1119 1.376 . S
C1119 H1106 0.930 . S
C1119 C1118 1.376 . S
C1119 C1120 1.388 . S
C1120 H1107 0.930 . S
C1120 C1119 1.388 . S
C1120 C1121 1.390 . S
C1121 C1120 1.390 . S
C1121 C1122 1.394 . S
C1121 C1127 1.465 . S
C1122 C1117 1.399 . S
C1122 C1121 1.394 . S
C1122 C1123 1.516 . S
C1123 C1122 1.516 . S
C1123 C1124 1.502 . S
C1123 C1125 1.561 . S
C1123 C1126 1.526 . S
C1124 H1108 0.959 . S
C1124 H1109 0.959 . S
C1124 H1110 0.961 . S
C1124 C1123 1.502 . S
C1125 H1111 0.960 . S
C1125 H1112 0.961 . S
C1125 H1113 0.959 . S
C1125 C1123 1.561 . S
C1126 C1123 1.526 . S
C1126 C1127 1.396 . S
C1126 C1131 1.390 . S
C1127 C1121 1.465 . S
C1127 C1126 1.396 . S
C1127 C1128 1.399 . S
C1128 H1114 0.929 . S
C1128 C1127 1.399 . S
C1128 C1129 1.385 . S
C1129 H1115 0.931 . S
C1129 C1128 1.385 . S
C1129 C1130 1.389 . S
C1130 C1129 1.389 . S
C1130 C1131 1.387 . S
C1131 H1116 0.930 . S
C1131 C1126 1.390 . S
C1131 C1130 1.387 . S
H1132 C1144 0.930 . S
H1133 C1146 0.930 . S
H1134 C1147 0.930 . S
H1135 C1151 0.959 . S
H1136 C1151 0.959 . S
H1137 C1151 0.961 . S
H1138 C1152 0.960 . S
H1139 C1152 0.961 . S
H1140 C1152 0.959 . S
H1141 C1155 0.929 . S
H1142 C1156 0.931 . S
H1143 C1158 0.930 . S
C1144 H1132 0.930 . S
C1144 C1145 1.399 . S
C1144 C1149 1.399 . S
C1145 C1144 1.399 . S
C1145 C1146 1.376 . S
C1146 H1133 0.930 . S
C1146 C1145 1.376 . S
C1146 C1147 1.388 . S
C1147 H1134 0.930 . S
C1147 C1146 1.388 . S
C1147 C1148 1.390 . S
C1148 C1147 1.390 . S
C1148 C1149 1.394 . S
C1148 C1154 1.465 . S
C1149 C1144 1.399 . S
C1149 C1148 1.394 . S
C1149 C1150 1.516 . S
C1150 C1149 1.516 . S
C1150 C1151 1.502 . S
C1150 C1152 1.561 . S
C1150 C1153 1.526 . S
C1151 H1135 0.959 . S
C1151 H1136 0.959 . S
C1151 H1137 0.961 . S
C1151 C1150 1.502 . S
C1152 H1138 0.960 . S
C1152 H1139 0.961 . S
C1152 H1140 0.959 . S
C1152 C1150 1.561 . S
C1153 C1150 1.526 . S
C1153 C1154 1.396 . S
C1153 C1158 1.390 . S
C1154 C1148 1.465 . S
C1154 C1153 1.396 . S
C1154 C1155 1.399 . S
C1155 H1141 0.929 . S
C1155 C1154 1.399 . S
C1155 C1156 1.385 . S
C1156 H1142 0.931 . S
C1156 C1155 1.385 . S
C1156 C1157 1.389 . S
C1157 C1156 1.389 . S
C1157 C1158 1.387 . S
C1158 H1143 0.930 . S
C1158 C1153 1.390 . S
C1158 C1157 1.387 . S
H1159 C1171 0.930 . S
H1160 C1173 0.930 . S
H1161 C1174 0.930 . S
H1162 C1178 0.959 . S
H1163 C1178 0.959 . S
H1164 C1178 0.961 . S
H1165 C1179 0.960 . S
H1166 C1179 0.961 . S
H1167 C1179 0.959 . S
H1168 C1182 0.929 . S
H1169 C1183 0.931 . S
H1170 C1185 0.930 . S
C1171 H1159 0.930 . S
C1171 C1172 1.399 1_565 S
C1171 C1176 1.399 . S
C1172 C1171 1.399 1_545 S
C1172 C1173 1.376 . S
C1173 H1160 0.930 . S
C1173 C1172 1.376 . S
C1173 C1174 1.388 . S
C1174 H1161 0.930 . S
C1174 C1173 1.388 . S
C1174 C1175 1.390 . S
C1175 C1174 1.390 . S
C1175 C1176 1.394 1_545 S
C1175 C1181 1.465 . S
C1176 C1171 1.399 . S
C1176 C1175 1.394 1_565 S
C1176 C1177 1.516 . S
C1177 C1176 1.516 . S
C1177 C1178 1.502 . S
C1177 C1179 1.561 . S
C1177 C1180 1.526 . S
C1178 H1162 0.959 . S
C1178 H1163 0.959 . S
C1178 H1164 0.961 . S
C1178 C1177 1.502 . S
C1179 H1165 0.960 . S
C1179 H1166 0.961 . S
C1179 H1167 0.959 . S
C1179 C1177 1.561 . S
C1180 C1177 1.526 . S
C1180 C1181 1.396 1_565 S
C1180 C1185 1.390 . S
C1181 C1175 1.465 . S
C1181 C1180 1.396 1_545 S
C1181 C1182 1.399 . S
C1182 H1168 0.929 . S
C1182 C1181 1.399 . S
C1182 C1183 1.385 . S
C1183 H1169 0.931 . S
C1183 C1182 1.385 . S
C1183 C1184 1.389 . S
C1184 C1183 1.389 . S
C1184 C1185 1.387 1_545 S
C1185 H1170 0.930 . S
C1185 C1180 1.390 . S
C1185 C1184 1.387 1_565 S
H1186 C1198 0.930 . S
H1187 C1200 0.930 . S
H1188 C1201 0.930 . S
H1189 C1205 0.959 . S
H1190 C1205 0.959 . S
H1191 C1205 0.961 . S
H1192 C1206 0.960 . S
H1193 C1206 0.961 . S
H1194 C1206 0.959 . S
H1195 C1209 0.929 . S
H1196 C1210 0.931 . S
H1197 C1212 0.930 . S
C1198 H1186 0.930 . S
C1198 C1199 1.399 . S
C1198 C1203 1.399 . S
C1199 C1198 1.399 . S
C1199 C1200 1.376 . S
C1200 H1187 0.930 . S
C1200 C1199 1.376 . S
C1200 C1201 1.388 . S
C1201 H1188 0.930 . S
C1201 C1200 1.388 . S
C1201 C1202 1.390 . S
C1202 C1201 1.390 . S
C1202 C1203 1.394 . S
C1202 C1208 1.465 . S
C1203 C1198 1.399 . S
C1203 C1202 1.394 . S
C1203 C1204 1.516 . S
C1204 C1203 1.516 . S
C1204 C1205 1.502 . S
C1204 C1206 1.561 . S
C1204 C1207 1.526 . S
C1205 H1189 0.959 . S
C1205 H1190 0.959 . S
C1205 H1191 0.961 . S
C1205 C1204 1.502 . S
C1206 H1192 0.960 . S
C1206 H1193 0.961 . S
C1206 H1194 0.959 . S
C1206 C1204 1.561 . S
C1207 C1204 1.526 . S
C1207 C1208 1.396 . S
C1207 C1212 1.390 . S
C1208 C1202 1.465 . S
C1208 C1207 1.396 . S
C1208 C1209 1.399 . S
C1209 H1195 0.929 . S
C1209 C1208 1.399 . S
C1209 C1210 1.385 . S
C1210 H1196 0.931 . S
C1210 C1209 1.385 . S
C1210 C1211 1.389 . S
C1211 C1210 1.389 . S
C1211 C1212 1.387 . S
C1212 H1197 0.930 . S
C1212 C1207 1.390 . S
C1212 C1211 1.387 . S
H1213 C1225 0.930 . S
H1214 C1227 0.930 1_655 S
H1215 C1228 0.930 . S
H1216 C1232 0.959 . S
H1217 C1232 0.959 . S
H1218 C1232 0.961 . S
H1219 C1233 0.960 . S
H1220 C1233 0.961 . S
H1221 C1233 0.959 . S
H1222 C1236 0.929 . S
H1223 C1237 0.931 . S
H1224 C1239 0.930 . S
C1225 H1213 0.930 . S
C1225 C1226 1.399 . S
C1225 C1230 1.399 . S
C1226 C1225 1.399 . S
C1226 C1227 1.376 . S
C1227 H1214 0.930 1_455 S
C1227 C1226 1.376 . S
C1227 C1228 1.388 . S
C1228 H1215 0.930 . S
C1228 C1227 1.388 . S
C1228 C1229 1.390 . S
C1229 C1228 1.390 . S
C1229 C1230 1.394 . S
C1229 C1235 1.465 . S
C1230 C1225 1.399 . S
C1230 C1229 1.394 . S
C1230 C1231 1.516 . S
C1231 C1230 1.516 . S
C1231 C1232 1.502 . S
C1231 C1233 1.561 . S
C1231 C1234 1.526 . S
C1232 H1216 0.959 . S
C1232 H1217 0.959 . S
C1232 H1218 0.961 . S
C1232 C1231 1.502 . S
C1233 H1219 0.960 . S
C1233 H1220 0.961 . S
C1233 H1221 0.959 . S
C1233 C1231 1.561 . S
C1234 C1231 1.526 . S
C1234 C1235 1.396 . S
C1234 C1239 1.390 . S
C1235 C1229 1.465 . S
C1235 C1234 1.396 . S
C1235 C1236 1.399 . S
C1236 H1222 0.929 . S
C1236 C1235 1.399 . S
C1236 C1237 1.385 . S
C1237 H1223 0.931 . S
C1237 C1236 1.385 . S
C1237 C1238 1.389 . S
C1238 C1237 1.389 . S
C1238 C1239 1.387 . S
C1239 H1224 0.930 . S
C1239 C1234 1.390 . S
C1239 C1238 1.387 . S
H1240 C1252 0.930 . S
H1241 C1254 0.930 . S
H1242 C1255 0.930 . S
H1243 C1259 0.959 . S
H1244 C1259 0.959 . S
H1245 C1259 0.961 . S
H1246 C1260 0.960 . S
H1247 C1260 0.961 . S
H1248 C1260 0.959 . S
H1249 C1263 0.929 . S
H1250 C1264 0.931 . S
H1251 C1266 0.930 . S
C1252 H1240 0.930 . S
C1252 C1253 1.399 . S
C1252 C1257 1.399 . S
C1253 C1252 1.399 . S
C1253 C1254 1.376 . S
C1254 H1241 0.930 . S
C1254 C1253 1.376 . S
C1254 C1255 1.388 . S
C1255 H1242 0.930 . S
C1255 C1254 1.388 . S
C1255 C1256 1.390 . S
C1256 C1255 1.390 . S
C1256 C1257 1.394 . S
C1256 C1262 1.465 . S
C1257 C1252 1.399 . S
C1257 C1256 1.394 . S
C1257 C1258 1.516 . S
C1258 C1257 1.516 . S
C1258 C1259 1.502 . S
C1258 C1260 1.561 . S
C1258 C1261 1.526 . S
C1259 H1243 0.959 . S
C1259 H1244 0.959 . S
C1259 H1245 0.961 . S
C1259 C1258 1.502 . S
C1260 H1246 0.960 . S
C1260 H1247 0.961 . S
C1260 H1248 0.959 . S
C1260 C1258 1.561 . S
C1261 C1258 1.526 . S
C1261 C1262 1.396 . S
C1261 C1266 1.390 . S
C1262 C1256 1.465 . S
C1262 C1261 1.396 . S
C1262 C1263 1.399 . S
C1263 H1249 0.929 . S
C1263 C1262 1.399 . S
C1263 C1264 1.385 . S
C1264 H1250 0.931 . S
C1264 C1263 1.385 . S
C1264 C1265 1.389 . S
C1265 C1264 1.389 . S
C1265 C1266 1.387 . S
C1266 H1251 0.930 . S
C1266 C1261 1.390 . S
C1266 C1265 1.387 . S
H1267 C1279 0.930 . S
H1268 C1281 0.930 . S
H1269 C1282 0.930 . S
H1270 C1286 0.959 . S
H1271 C1286 0.959 . S
H1272 C1286 0.961 . S
H1273 C1287 0.960 . S
H1274 C1287 0.961 . S
H1275 C1287 0.959 . S
H1276 C1290 0.929 . S
H1277 C1291 0.931 . S
H1278 C1293 0.930 . S
C1279 H1267 0.930 . S
C1279 C1280 1.399 . S
C1279 C1284 1.399 . S
C1280 C1279 1.399 . S
C1280 C1281 1.376 1_655 S
C1281 H1268 0.930 . S
C1281 C1280 1.376 1_455 S
C1281 C1282 1.388 . S
C1282 H1269 0.930 . S
C1282 C1281 1.388 . S
C1282 C1283 1.390 . S
C1283 C1282 1.390 . S
C1283 C1284 1.394 1_455 S
C1283 C1289 1.465 1_554 S
C1284 C1279 1.399 . S
C1284 C1283 1.394 1_655 S
C1284 C1285 1.516 . S
C1285 C1284 1.516 . S
C1285 C1286 1.501 . S
C1285 C1287 1.562 1_554 S
C1285 C1288 1.526 1_554 S
C1286 H1270 0.959 . S
C1286 H1271 0.959 . S
C1286 H1272 0.961 . S
C1286 C1285 1.501 . S
C1287 H1273 0.960 . S
C1287 H1274 0.961 . S
C1287 H1275 0.959 . S
C1287 C1285 1.562 1_556 S
C1288 C1285 1.526 1_556 S
C1288 C1289 1.396 1_655 S
C1288 C1293 1.390 . S
C1289 C1283 1.465 1_556 S
C1289 C1288 1.396 1_455 S
C1289 C1290 1.399 . S
C1290 H1276 0.929 . S
C1290 C1289 1.399 . S
C1290 C1291 1.385 . S
C1291 H1277 0.931 . S
C1291 C1290 1.385 . S
C1291 C1292 1.389 . S
C1292 C1291 1.389 . S
C1292 C1293 1.387 1_455 S
C1293 H1278 0.930 . S
C1293 C1288 1.390 . S
C1293 C1292 1.387 1_655 S
H1294 C1306 0.930 . S
H1295 C1308 0.930 . S
H1296 C1309 0.930 . S
H1297 C1313 0.959 . S
H1298 C1313 0.959 . S
H1299 C1313 0.961 . S
H1300 C1314 0.960 . S
H1301 C1314 0.961 . S
H1302 C1314 0.959 . S
H1303 C1317 0.929 . S
H1304 C1318 0.931 . S
H1305 C1320 0.930 . S
C1306 H1294 0.930 . S
C1306 C1307 1.399 . S
C1306 C1311 1.399 . S
C1307 C1306 1.399 . S
C1307 C1308 1.376 . S
C1308 H1295 0.930 . S
C1308 C1307 1.376 . S
C1308 C1309 1.388 . S
C1309 H1296 0.930 . S
C1309 C1308 1.388 . S
C1309 C1310 1.390 . S
C1310 C1309 1.390 . S
C1310 C1311 1.394 . S
C1310 C1316 1.465 . S
C1311 C1306 1.399 . S
C1311 C1310 1.394 . S
C1311 C1312 1.516 . S
C1312 C1311 1.516 . S
C1312 C1313 1.502 . S
C1312 C1314 1.561 . S
C1312 C1315 1.526 . S
C1313 H1297 0.959 . S
C1313 H1298 0.959 . S
C1313 H1299 0.961 . S
C1313 C1312 1.502 . S
C1314 H1300 0.960 . S
C1314 H1301 0.961 . S
C1314 H1302 0.959 . S
C1314 C1312 1.561 . S
C1315 C1312 1.526 . S
C1315 C1316 1.396 . S
C1315 C1320 1.390 . S
C1316 C1310 1.465 . S
C1316 C1315 1.396 . S
C1316 C1317 1.399 . S
C1317 H1303 0.929 . S
C1317 C1316 1.399 . S
C1317 C1318 1.385 . S
C1318 H1304 0.931 . S
C1318 C1317 1.385 . S
C1318 C1319 1.389 . S
C1319 C1318 1.389 . S
C1319 C1320 1.387 . S
C1320 H1305 0.930 . S
C1320 C1315 1.390 . S
C1320 C1319 1.387 . S
H1321 C1333 0.939 . S
H1322 C1335 0.930 . S
H1323 C1336 0.930 . S
H1324 C1340 0.959 . S
H1325 C1340 0.959 . S
H1326 C1340 0.961 . S
H1327 C1341 0.960 . S
H1328 C1341 0.961 . S
H1329 C1341 0.959 . S
H1330 C1344 0.929 . S
H1331 C1345 0.931 . S
H1332 C1347 0.930 1_655 S
C1333 H1321 0.939 . S
C1333 C1334 1.399 . S
C1333 C1338 1.399 . S
C1334 C1333 1.399 . S
C1334 C1335 1.376 1_554 S
C1335 H1322 0.930 . S
C1335 C1334 1.376 1_556 S
C1335 C1336 1.388 . S
C1336 H1323 0.930 . S
C1336 C1335 1.388 . S
C1336 C1337 1.390 . S
C1337 C1336 1.390 . S
C1337 C1338 1.394 1_556 S
C1337 C1343 1.465 . S
C1338 C1333 1.399 . S
C1338 C1337 1.394 1_554 S
C1338 C1339 1.516 . S
C1339 C1338 1.516 . S
C1339 C1340 1.502 1_455 S
C1339 C1341 1.561 . S
C1339 C1342 1.526 1_554 S
C1340 H1324 0.959 . S
C1340 H1325 0.959 . S
C1340 H1326 0.961 . S
C1340 C1339 1.502 1_655 S
C1341 H1327 0.960 . S
C1341 H1328 0.961 . S
C1341 H1329 0.959 . S
C1341 C1339 1.561 . S
C1342 C1339 1.526 1_556 S
C1342 C1343 1.396 . S
C1342 C1347 1.390 . S
C1343 C1337 1.465 . S
C1343 C1342 1.396 . S
C1343 C1344 1.399 . S
C1344 H1330 0.929 . S
C1344 C1343 1.399 . S
C1344 C1345 1.385 . S
C1345 H1331 0.931 . S
C1345 C1344 1.385 . S
C1345 C1346 1.389 . S
C1346 C1345 1.389 . S
C1346 C1347 1.387 . S
C1347 H1332 0.930 1_455 S
C1347 C1342 1.390 . S
C1347 C1346 1.387 . S
H1348 C1360 0.930 . S
H1349 C1362 0.930 . S
H1350 C1363 0.930 . S
H1351 C1367 0.959 . S
H1352 C1367 0.959 . S
H1353 C1367 0.961 . S
H1354 C1368 0.960 . S
H1355 C1368 0.961 . S
H1356 C1368 0.959 . S
H1357 C1371 0.929 . S
H1358 C1372 0.931 . S
H1359 C1374 0.930 . S
C1360 H1348 0.930 . S
C1360 C1361 1.399 . S
C1360 C1365 1.399 . S
C1361 C1360 1.399 . S
C1361 C1362 1.376 . S
C1362 H1349 0.930 . S
C1362 C1361 1.376 . S
C1362 C1363 1.388 . S
C1363 H1350 0.930 . S
C1363 C1362 1.388 . S
C1363 C1364 1.390 . S
C1364 C1363 1.390 . S
C1364 C1365 1.394 . S
C1364 C1370 1.465 . S
C1365 C1360 1.399 . S
C1365 C1364 1.394 . S
C1365 C1366 1.516 . S
C1366 C1365 1.516 . S
C1366 C1367 1.502 . S
C1366 C1368 1.561 . S
C1366 C1369 1.526 . S
C1367 H1351 0.959 . S
C1367 H1352 0.959 . S
C1367 H1353 0.961 . S
C1367 C1366 1.502 . S
C1368 H1354 0.960 . S
C1368 H1355 0.961 . S
C1368 H1356 0.959 . S
C1368 C1366 1.561 . S
C1369 C1366 1.526 . S
C1369 C1370 1.396 . S
C1369 C1374 1.390 . S
C1370 C1364 1.465 . S
C1370 C1369 1.396 . S
C1370 C1371 1.399 . S
C1371 H1357 0.929 . S
C1371 C1370 1.399 . S
C1371 C1372 1.385 . S
C1372 H1358 0.931 . S
C1372 C1371 1.385 . S
C1372 C1373 1.389 . S
C1373 C1372 1.389 . S
C1373 C1374 1.387 . S
C1374 H1359 0.930 . S
C1374 C1369 1.390 . S
C1374 C1373 1.387 . S
H1375 C1387 0.930 . S
H1376 C1389 0.930 . S
H1377 C1390 0.930 . S
H1378 C1394 0.959 . S
H1379 C1394 0.959 . S
H1380 C1394 0.961 1_556 S
H1381 C1395 0.960 . S
H1382 C1395 0.961 . S
H1383 C1395 0.959 1_554 S
H1384 C1398 0.929 . S
H1385 C1399 0.931 . S
H1386 C1401 0.930 . S
C1387 H1375 0.930 . S
C1387 C1388 1.399 1_556 S
C1387 C1392 1.399 1_556 S
C1388 C1387 1.399 1_554 S
C1388 C1389 1.376 . S
C1389 H1376 0.930 . S
C1389 C1388 1.376 . S
C1389 C1390 1.388 . S
C1390 H1377 0.930 . S
C1390 C1389 1.388 . S
C1390 C1391 1.390 . S
C1391 C1390 1.390 . S
C1391 C1392 1.394 . S
C1391 C1397 1.465 . S
C1392 C1387 1.399 1_554 S
C1392 C1391 1.394 . S
C1392 C1393 1.516 . S
C1393 C1392 1.516 . S
C1393 C1394 1.502 . S
C1393 C1395 1.561 1_554 S
C1393 C1396 1.526 . S
C1394 H1378 0.959 . S
C1394 H1379 0.959 . S
C1394 H1380 0.961 1_554 S
C1394 C1393 1.502 . S
C1395 H1381 0.960 . S
C1395 H1382 0.961 . S
C1395 H1383 0.959 1_556 S
C1395 C1393 1.561 1_556 S
C1396 C1393 1.526 . S
C1396 C1397 1.396 . S
C1396 C1401 1.390 . S
C1397 C1391 1.465 . S
C1397 C1396 1.396 . S
C1397 C1398 1.399 . S
C1398 H1384 0.929 . S
C1398 C1397 1.399 . S
C1398 C1399 1.385 . S
C1399 H1385 0.931 . S
C1399 C1398 1.385 . S
C1399 C1400 1.389 . S
C1400 C1399 1.389 . S
C1400 C1401 1.387 . S
C1401 H1386 0.930 . S
C1401 C1396 1.390 . S
C1401 C1400 1.387 . S
H1402 C1414 0.930 . S
H1403 C1416 0.930 . S
H1404 C1417 0.930 . S
H1405 C1421 0.959 . S
H1406 C1421 0.959 . S
H1407 C1421 0.961 . S
H1408 C1422 0.960 . S
H1409 C1422 0.961 . S
H1410 C1422 0.959 . S
H1411 C1425 0.929 . S
H1412 C1426 0.931 . S
H1413 C1428 0.930 . S
C1414 H1402 0.930 . S
C1414 C1415 1.399 . S
C1414 C1419 1.399 . S
C1415 C1414 1.399 . S
C1415 C1416 1.376 . S
C1416 H1403 0.930 . S
C1416 C1415 1.376 . S
C1416 C1417 1.388 . S
C1417 H1404 0.930 . S
C1417 C1416 1.388 . S
C1417 C1418 1.390 . S
C1418 C1417 1.390 . S
C1418 C1419 1.394 . S
C1418 C1424 1.465 . S
C1419 C1414 1.399 . S
C1419 C1418 1.394 . S
C1419 C1420 1.516 . S
C1420 C1419 1.516 . S
C1420 C1421 1.502 . S
C1420 C1422 1.561 . S
C1420 C1423 1.526 . S
C1421 H1405 0.959 . S
C1421 H1406 0.959 . S
C1421 H1407 0.961 . S
C1421 C1420 1.502 . S
C1422 H1408 0.960 . S
C1422 H1409 0.961 . S
C1422 H1410 0.959 . S
C1422 C1420 1.561 . S
C1423 C1420 1.526 . S
C1423 C1424 1.396 . S
C1423 C1428 1.390 . S
C1424 C1418 1.465 . S
C1424 C1423 1.396 . S
C1424 C1425 1.399 . S
C1425 H1411 0.929 . S
C1425 C1424 1.399 . S
C1425 C1426 1.385 . S
C1426 H1412 0.931 . S
C1426 C1425 1.385 . S
C1426 C1427 1.389 . S
C1427 C1426 1.389 . S
C1427 C1428 1.387 . S
C1428 H1413 0.930 . S
C1428 C1423 1.390 . S
C1428 C1427 1.387 . S
H1429 C1441 0.930 . S
H1430 C1443 0.930 . S
H1431 C1444 0.930 . S
H1432 C1448 0.959 . S
H1433 C1448 0.959 . S
H1434 C1448 0.961 1_556 S
H1435 C1449 0.960 1_556 S
H1436 C1449 0.965 . S
H1437 C1449 0.959 . S
H1438 C1452 0.929 . S
H1439 C1453 0.931 . S
H1440 C1455 0.930 . S
C1441 H1429 0.930 . S
C1441 C1442 1.399 1_556 S
C1441 C1446 1.399 1_556 S
C1442 C1441 1.399 1_554 S
C1442 C1443 1.376 . S
C1443 H1430 0.930 . S
C1443 C1442 1.376 . S
C1443 C1444 1.388 . S
C1444 H1431 0.930 . S
C1444 C1443 1.388 . S
C1444 C1445 1.390 . S
C1445 C1444 1.390 . S
C1445 C1446 1.394 . S
C1445 C1451 1.465 . S
C1446 C1441 1.399 1_554 S
C1446 C1445 1.394 . S
C1446 C1447 1.516 . S
C1447 C1446 1.516 . S
C1447 C1448 1.502 . S
C1447 C1449 1.561 . S
C1447 C1450 1.526 . S
C1448 H1432 0.959 . S
C1448 H1433 0.959 . S
C1448 H1434 0.961 1_554 S
C1448 C1447 1.502 . S
C1449 H1435 0.960 1_554 S
C1449 H1436 0.965 . S
C1449 H1437 0.959 . S
C1449 C1447 1.561 . S
C1450 C1447 1.526 . S
C1450 C1451 1.396 . S
C1450 C1455 1.390 . S
C1451 C1445 1.465 . S
C1451 C1450 1.396 . S
C1451 C1452 1.399 . S
C1452 H1438 0.929 . S
C1452 C1451 1.399 . S
C1452 C1453 1.385 . S
C1453 H1439 0.931 . S
C1453 C1452 1.385 . S
C1453 C1454 1.389 . S
C1454 C1453 1.389 . S
C1454 C1455 1.387 . S
C1455 H1440 0.930 . S
C1455 C1450 1.390 . S
C1455 C1454 1.387 . S
H1456 C1468 0.930 . S
H1457 C1470 0.930 . S
H1458 C1471 0.930 . S
H1459 C1475 0.959 . S
H1460 C1475 0.959 . S
H1461 C1475 0.961 . S
H1462 C1476 0.960 . S
H1463 C1476 0.961 . S
H1464 C1476 0.959 . S
H1465 C1479 0.929 . S
H1466 C1480 0.931 . S
H1467 C1482 0.930 . S
C1468 H1456 0.930 . S
C1468 C1469 1.399 . S
C1468 C1473 1.399 . S
C1469 C1468 1.399 . S
C1469 C1470 1.376 . S
C1470 H1457 0.930 . S
C1470 C1469 1.376 . S
C1470 C1471 1.388 . S
C1471 H1458 0.930 . S
C1471 C1470 1.388 . S
C1471 C1472 1.390 . S
C1472 C1471 1.390 . S
C1472 C1473 1.394 . S
C1472 C1478 1.465 . S
C1473 C1468 1.399 . S
C1473 C1472 1.394 . S
C1473 C1474 1.516 . S
C1474 C1473 1.516 . S
C1474 C1475 1.502 . S
C1474 C1476 1.561 . S
C1474 C1477 1.526 . S
C1475 H1459 0.959 . S
C1475 H1460 0.959 . S
C1475 H1461 0.961 . S
C1475 C1474 1.502 . S
C1476 H1462 0.960 . S
C1476 H1463 0.961 . S
C1476 H1464 0.959 . S
C1476 C1474 1.561 . S
C1477 C1474 1.526 . S
C1477 C1478 1.396 . S
C1477 C1482 1.390 . S
C1478 C1472 1.465 . S
C1478 C1477 1.396 . S
C1478 C1479 1.399 . S
C1479 H1465 0.929 . S
C1479 C1478 1.399 . S
C1479 C1480 1.385 . S
C1480 H1466 0.931 . S
C1480 C1479 1.385 . S
C1480 C1481 1.389 . S
C1481 C1480 1.389 . S
C1481 C1482 1.387 . S
C1482 H1467 0.930 . S
C1482 C1477 1.390 . S
C1482 C1481 1.387 . S
H1483 C1495 0.930 . S
H1484 C1497 0.930 . S
H1485 C1498 0.930 . S
H1486 C1502 0.959 . S
H1487 C1502 0.959 . S
H1488 C1502 0.961 . S
H1489 C1503 0.960 . S
H1490 C1503 0.961 . S
H1491 C1503 0.959 . S
H1492 C1506 0.929 . S
H1493 C1507 0.931 . S
H1494 C1509 0.930 . S
C1495 H1483 0.930 . S
C1495 C1496 1.399 . S
C1495 C1500 1.399 . S
C1496 C1495 1.399 . S
C1496 C1497 1.376 . S
C1497 H1484 0.930 . S
C1497 C1496 1.376 . S
C1497 C1498 1.388 . S
C1498 H1485 0.930 . S
C1498 C1497 1.388 . S
C1498 C1499 1.390 . S
C1499 C1498 1.390 . S
C1499 C1500 1.394 . S
C1499 C1505 1.465 . S
C1500 C1495 1.399 . S
C1500 C1499 1.394 . S
C1500 C1501 1.516 . S
C1501 C1500 1.516 . S
C1501 C1502 1.502 . S
C1501 C1503 1.561 . S
C1501 C1504 1.526 . S
C1502 H1486 0.959 . S
C1502 H1487 0.959 . S
C1502 H1488 0.961 . S
C1502 C1501 1.502 . S
C1503 H1489 0.960 . S
C1503 H1490 0.961 . S
C1503 H1491 0.959 . S
C1503 C1501 1.561 . S
C1504 C1501 1.526 . S
C1504 C1505 1.396 . S
C1504 C1509 1.390 . S
C1505 C1499 1.465 . S
C1505 C1504 1.396 . S
C1505 C1506 1.399 . S
C1506 H1492 0.929 . S
C1506 C1505 1.399 . S
C1506 C1507 1.385 . S
C1507 H1493 0.931 . S
C1507 C1506 1.385 . S
C1507 C1508 1.389 . S
C1508 C1507 1.389 . S
C1508 C1509 1.387 . S
C1509 H1494 0.930 . S
C1509 C1504 1.390 . S
C1509 C1508 1.387 . S
H1510 C1522 0.930 . S
H1511 C1524 0.930 . S
H1512 C1525 0.930 . S
H1513 C1529 0.959 . S
H1514 C1529 0.959 . S
H1515 C1529 0.961 . S
H1516 C1530 0.960 . S
H1517 C1530 0.961 . S
H1518 C1530 0.959 . S
H1519 C1533 0.929 . S
H1520 C1534 0.931 . S
H1521 C1536 0.930 . S
C1522 H1510 0.930 . S
C1522 C1523 1.399 . S
C1522 C1527 1.399 . S
C1523 C1522 1.399 . S
C1523 C1524 1.376 . S
C1524 H1511 0.930 . S
C1524 C1523 1.376 . S
C1524 C1525 1.388 . S
C1525 H1512 0.930 . S
C1525 C1524 1.388 . S
C1525 C1526 1.390 . S
C1526 C1525 1.390 . S
C1526 C1527 1.394 . S
C1526 C1532 1.465 . S
C1527 C1522 1.399 . S
C1527 C1526 1.394 . S
C1527 C1528 1.516 . S
C1528 C1527 1.516 . S
C1528 C1529 1.502 . S
C1528 C1530 1.561 . S
C1528 C1531 1.526 . S
C1529 H1513 0.959 . S
C1529 H1514 0.959 . S
C1529 H1515 0.961 . S
C1529 C1528 1.502 . S
C1530 H1516 0.960 . S
C1530 H1517 0.961 . S
C1530 H1518 0.959 . S
C1530 C1528 1.561 . S
C1531 C1528 1.526 . S
C1531 C1532 1.396 . S
C1531 C1536 1.390 . S
C1532 C1526 1.465 . S
C1532 C1531 1.396 . S
C1532 C1533 1.399 . S
C1533 H1519 0.929 . S
C1533 C1532 1.399 . S
C1533 C1534 1.385 . S
C1534 H1520 0.931 . S
C1534 C1533 1.385 . S
C1534 C1535 1.389 . S
C1535 C1534 1.389 . S
C1535 C1536 1.387 . S
C1536 H1521 0.930 . S
C1536 C1531 1.390 . S
C1536 C1535 1.387 . S
H1537 C1549 0.930 . S
H1538 C1551 0.930 . S
H1539 C1552 0.930 . S
H1540 C1556 0.959 . S
H1541 C1556 0.959 . S
H1542 C1556 0.961 . S
H1543 C1557 0.960 . S
H1544 C1557 0.961 . S
H1545 C1557 0.959 . S
H1546 C1560 0.929 . S
H1547 C1561 0.931 . S
H1548 C1563 0.930 . S
C1549 H1537 0.930 . S
C1549 C1550 1.399 . S
C1549 C1554 1.399 . S
C1550 C1549 1.399 . S
C1550 C1551 1.376 . S
C1551 H1538 0.930 . S
C1551 C1550 1.376 . S
C1551 C1552 1.388 . S
C1552 H1539 0.930 . S
C1552 C1551 1.388 . S
C1552 C1553 1.390 . S
C1553 C1552 1.390 . S
C1553 C1554 1.394 . S
C1553 C1559 1.465 . S
C1554 C1549 1.399 . S
C1554 C1553 1.394 . S
C1554 C1555 1.516 . S
C1555 C1554 1.516 . S
C1555 C1556 1.502 . S
C1555 C1557 1.561 . S
C1555 C1558 1.526 . S
C1556 H1540 0.959 . S
C1556 H1541 0.959 . S
C1556 H1542 0.961 . S
C1556 C1555 1.502 . S
C1557 H1543 0.960 . S
C1557 H1544 0.961 . S
C1557 H1545 0.959 . S
C1557 C1555 1.561 . S
C1558 C1555 1.526 . S
C1558 C1559 1.396 . S
C1558 C1563 1.390 . S
C1559 C1553 1.465 . S
C1559 C1558 1.396 . S
C1559 C1560 1.399 . S
C1560 H1546 0.929 . S
C1560 C1559 1.399 . S
C1560 C1561 1.385 . S
C1561 H1547 0.931 . S
C1561 C1560 1.385 . S
C1561 C1562 1.389 . S
C1562 C1561 1.389 . S
C1562 C1563 1.387 . S
C1563 H1548 0.930 . S
C1563 C1558 1.390 . S
C1563 C1562 1.387 . S
H1564 C1576 0.930 . S
H1565 C1578 0.930 . S
H1566 C1579 0.930 . S
H1567 C1583 0.959 . S
H1568 C1583 0.959 . S
H1569 C1583 0.961 . S
H1570 C1584 0.960 . S
H1571 C1584 0.961 . S
H1572 C1584 0.959 . S
H1573 C1587 0.929 . S
H1574 C1588 0.931 . S
H1575 C1590 0.930 . S
C1576 H1564 0.930 . S
C1576 C1577 1.399 1_554 S
C1576 C1581 1.397 1_554 S
C1577 C1576 1.399 1_556 S
C1577 C1578 1.376 . S
C1578 H1565 0.930 . S
C1578 C1577 1.376 . S
C1578 C1579 1.388 . S
C1579 H1566 0.930 . S
C1579 C1578 1.388 . S
C1579 C1580 1.390 . S
C1580 C1579 1.390 . S
C1580 C1581 1.402 . S
C1580 C1586 1.465 . S
C1581 C1576 1.397 1_556 S
C1581 C1580 1.402 . S
C1581 C1582 1.510 1_556 S
C1582 C1581 1.510 1_554 S
C1582 C1583 1.502 . S
C1582 C1584 1.561 . S
C1582 C1585 1.526 . S
C1583 H1567 0.959 . S
C1583 H1568 0.959 . S
C1583 H1569 0.961 . S
C1583 C1582 1.502 . S
C1584 H1570 0.960 . S
C1584 H1571 0.961 . S
C1584 H1572 0.959 . S
C1584 C1582 1.561 . S
C1585 C1582 1.526 . S
C1585 C1586 1.396 1_554 S
C1585 C1590 1.390 . S
C1586 C1580 1.465 . S
C1586 C1585 1.396 1_556 S
C1586 C1587 1.399 . S
C1587 H1573 0.929 . S
C1587 C1586 1.399 . S
C1587 C1588 1.385 . S
C1588 H1574 0.931 . S
C1588 C1587 1.385 . S
C1588 C1589 1.389 . S
C1589 C1588 1.389 . S
C1589 C1590 1.387 1_556 S
C1590 H1575 0.930 . S
C1590 C1585 1.390 . S
C1590 C1589 1.387 1_554 S
H1591 C1603 0.930 . S
H1592 C1605 0.930 . S
H1593 C1606 0.930 . S
H1594 C1610 0.959 . S
H1595 C1610 0.959 . S
H1596 C1610 0.961 . S
H1597 C1611 0.960 . S
H1598 C1611 0.961 . S
H1599 C1611 0.959 . S
H1600 C1614 0.929 . S
H1601 C1615 0.931 . S
H1602 C1617 0.930 . S
C1603 H1591 0.930 . S
C1603 C1604 1.399 . S
C1603 C1608 1.399 . S
C1604 C1603 1.399 . S
C1604 C1605 1.376 . S
C1605 H1592 0.930 . S
C1605 C1604 1.376 . S
C1605 C1606 1.388 . S
C1606 H1593 0.930 . S
C1606 C1605 1.388 . S
C1606 C1607 1.390 . S
C1607 C1606 1.390 . S
C1607 C1608 1.394 . S
C1607 C1613 1.465 . S
C1608 C1603 1.399 . S
C1608 C1607 1.394 . S
C1608 C1609 1.516 . S
C1609 C1608 1.516 . S
C1609 C1610 1.502 . S
C1609 C1611 1.561 . S
C1609 C1612 1.526 . S
C1610 H1594 0.959 . S
C1610 H1595 0.959 . S
C1610 H1596 0.961 . S
C1610 C1609 1.502 . S
C1611 H1597 0.960 . S
C1611 H1598 0.961 . S
C1611 H1599 0.959 . S
C1611 C1609 1.561 . S
C1612 C1609 1.526 . S
C1612 C1613 1.396 . S
C1612 C1617 1.390 . S
C1613 C1607 1.465 . S
C1613 C1612 1.396 . S
C1613 C1614 1.399 . S
C1614 H1600 0.929 . S
C1614 C1613 1.399 . S
C1614 C1615 1.385 . S
C1615 H1601 0.931 . S
C1615 C1614 1.385 . S
C1615 C1616 1.389 . S
C1616 C1615 1.389 . S
C1616 C1617 1.387 . S
C1617 H1602 0.930 . S
C1617 C1612 1.390 . S
C1617 C1616 1.387 . S
H1618 C1630 0.930 . S
H1619 C1632 0.930 . S
H1620 C1633 0.930 . S
H1621 C1637 0.959 . S
H1622 C1637 0.959 . S
H1623 C1637 0.961 . S
H1624 C1638 0.960 . S
H1625 C1638 0.959 . S
H1626 C1638 0.961 1_554 S
H1627 C1641 0.929 . S
H1628 C1642 0.931 . S
H1629 C1644 0.930 1_556 S
C1630 H1618 0.930 . S
C1630 C1631 1.399 . S
C1630 C1635 1.399 . S
C1631 C1630 1.399 . S
C1631 C1632 1.376 . S
C1632 H1619 0.930 . S
C1632 C1631 1.376 . S
C1632 C1633 1.388 . S
C1633 H1620 0.930 . S
C1633 C1632 1.388 . S
C1633 C1634 1.390 . S
C1634 C1633 1.390 . S
C1634 C1635 1.394 . S
C1634 C1640 1.465 . S
C1635 C1630 1.399 . S
C1635 C1634 1.394 . S
C1635 C1636 1.516 . S
C1636 C1635 1.516 . S
C1636 C1637 1.502 1_554 S
C1636 C1638 1.562 1_554 S
C1636 C1639 1.526 . S
C1637 H1621 0.959 . S
C1637 H1622 0.959 . S
C1637 H1623 0.961 . S
C1637 C1636 1.502 1_556 S
C1638 H1624 0.960 . S
C1638 H1625 0.959 . S
C1638 H1626 0.961 1_556 S
C1638 C1636 1.562 1_556 S
C1639 C1636 1.526 . S
C1639 C1640 1.396 . S
C1639 C1644 1.390 . S
C1640 C1634 1.465 . S
C1640 C1639 1.396 . S
C1640 C1641 1.399 . S
C1641 H1627 0.929 . S
C1641 C1640 1.399 . S
C1641 C1642 1.385 . S
C1642 H1628 0.931 . S
C1642 C1641 1.385 . S
C1642 C1643 1.389 . S
C1643 C1642 1.389 . S
C1643 C1644 1.387 . S
C1644 H1629 0.930 1_554 S
C1644 C1639 1.390 . S
C1644 C1643 1.387 . S
H1645 C1657 0.930 . S
H1646 C1659 0.930 1_556 S
H1647 C1660 0.916 1_556 S
H1648 C1664 0.959 . S
H1649 C1664 0.959 . S
H1650 C1664 0.963 . S
H1651 C1665 0.960 . S
H1652 C1665 0.961 . S
H1653 C1665 0.959 . S
H1654 C1668 0.929 . S
H1655 C1669 0.957 . S
H1656 C1671 0.930 . S
C1657 H1645 0.930 . S
C1657 C1658 1.399 . S
C1657 C1662 1.399 . S
C1658 C1657 1.399 . S
C1658 C1659 1.376 . S
C1659 H1646 0.930 1_554 S
C1659 C1658 1.376 . S
C1659 C1660 1.392 . S
C1660 H1647 0.916 1_554 S
C1660 C1659 1.392 . S
C1660 C1661 1.400 . S
C1661 C1660 1.400 . S
C1661 C1662 1.394 . S
C1661 C1667 1.465 . S
C1662 C1657 1.399 . S
C1662 C1661 1.394 . S
C1662 C1663 1.516 . S
C1663 C1662 1.516 . S
C1663 C1664 1.502 . S
C1663 C1665 1.561 . S
C1663 C1666 1.526 . S
C1664 H1648 0.959 . S
C1664 H1649 0.959 . S
C1664 H1650 0.963 . S
C1664 C1663 1.502 . S
C1665 H1651 0.960 . S
C1665 H1652 0.961 . S
C1665 H1653 0.959 . S
C1665 C1663 1.561 . S
C1666 C1663 1.526 . S
C1666 C1667 1.396 . S
C1666 C1671 1.390 . S
C1667 C1661 1.465 . S
C1667 C1666 1.396 . S
C1667 C1668 1.399 1_554 S
C1668 H1654 0.929 . S
C1668 C1667 1.399 1_556 S
C1668 C1669 1.391 . S
C1669 H1655 0.957 . S
C1669 C1668 1.391 . S
C1669 C1670 1.359 1_556 S
C1670 C1669 1.359 1_554 S
C1670 C1671 1.387 . S
C1671 H1656 0.930 . S
C1671 C1666 1.390 . S
C1671 C1670 1.387 . S
C401 C219 1.236 . S
C389 N66 1.250 . S
C428 C227 1.357 . S
C416 N79 1.554 . S
C443 N92 1.679 . S
C455 C247 1.669 . S
C482 C261 1.284 . S
C470 N54 1.364 . S
C509 C276 1.526 . S
C497 N131 1.513 . S
C536 C290 1.223 . S
C524 N158 1.202 . S
C551 N145 1.585 . S
C563 C304 1.587 . S
C590 C310 1.699 . S
C578 N118 1.720 . S
C605 N148 1.951 . S
C617 C324 1.898 . S
C644 C345 1.611 . S
C632 N122 1.605 . S
C659 N132 1.237 . S
C671 C325 1.014 . S
C698 C346 1.520 . S
C686 N161 1.451 . S
C713 N96 1.836 . S
C725 C353 1.565 . S
C740 N53 1.717 . S
C752 C359 1.705 . S
C767 N67 1.072 . S
C779 C352 0.991 . S
C794 N83 1.311 . S
C806 C360 1.348 . S
C821 N44 1.465 . S
C833 C254 1.393 . S
C848 N187 1.496 . S
C860 C255 1.208 . S
C887 C212 1.207 . S
C875 N197 1.242 . S
C914 C233 1.283 . S
C902 N106 1.273 . S
C929 N57 1.756 1_545 S
C941 C268 1.745 . S
C968 C318 1.448 . S
C956 N144 1.430 . S
C995 C269 1.148 . S
C983 N119 1.345 . S
C1022 C297 1.427 . S
C1010 N157 1.785 . S
C1049 C303 1.246 . S
C1037 N183 1.238 . S
C1064 N196 1.554 . S
C1076 C311 1.355 . S
C1091 N105 1.694 . S
C1103 C275 1.685 . S
C1130 C289 1.326 . S
C1118 N171 1.355 . S
C1145 N40 1.521 . S
C1157 C248 1.527 . S
C1184 C262 1.224 . S
C1172 N2 1.199 . S
C1211 C220 1.587 . S
C1199 N15 1.587 . S
C1238 C226 1.734 . S
C1226 N27 1.730 1_455 S
C1253 N18 1.950 . S
C1265 C338 1.904 . S
C1280 N31 1.594 . S
C1292 C331 1.614 . S
C1307 N41 1.237 . S
C1319 C339 1.018 . S
C1334 N5 1.513 . S
C1346 C332 1.516 . S
C1373 C367 1.559 . S
C1361 N109 1.836 . S
C1400 C373 1.712 . S
C1388 N170 1.716 1_554 S
C1427 C366 0.991 . S
C1415 N184 1.075 . S
C1442 N200 1.311 1_554 S
C1454 C374 1.347 . S
C1469 N135 1.413 . S
C1481 C282 1.424 . S
C1508 C283 1.254 . S
C1496 N70 1.494 . S
C1535 C296 1.180 . S
C1523 N80 1.228 . S
C1562 C317 1.286 . S
C1550 N93 1.274 . S
C1577 N174 1.752 . S
C1589 C240 1.739 1_556 S
C1616 C234 1.441 . S
C1604 N14 1.446 . S
C1631 N28 1.344 . S
C1643 C241 1.096 . S
C1670 C213 1.452 . S
C1658 N1 1.796 . S
