# Generated by pormake.
# Topology zzz, (3,6)-cn, num edge types: 1
# Building blocks:
#     Node 0, Type 0, BuildingBlock: KAKCAD_clean_linker_0, # of connection points: 3
#     Node 1, Type 0, BuildingBlock: KAKCAD_clean_linker_0, # of connection points: 3
#     Node 2, Type 0, BuildingBlock: KAKCAD_clean_linker_0, # of connection points: 3
#     Node 3, Type 0, BuildingBlock: KAKCAD_clean_linker_0, # of connection points: 3
#     Node 4, Type 0, BuildingBlock: KAKCAD_clean_linker_0, # of connection points: 3
#     Node 5, Type 0, BuildingBlock: KAKCAD_clean_linker_0, # of connection points: 3
#     Node 6, Type 0, BuildingBlock: KAKCAD_clean_linker_0, # of connection points: 3
#     Node 7, Type 0, BuildingBlock: KAKCAD_clean_linker_0, # of connection points: 3
#     Node 8, Type 1, BuildingBlock: BETDAH_clean_sbu_0, # of connection points: 6
#     Node 9, Type 1, BuildingBlock: BETDAH_clean_sbu_0, # of connection points: 6
#     Node 10, Type 1, BuildingBlock: BETDAH_clean_sbu_0, # of connection points: 6
#     Node 11, Type 1, BuildingBlock: BETDAH_clean_sbu_0, # of connection points: 6
#     Edge 12, Type (0, 1), BuildingBlock: ZUJKAS_clean_linker_0, # of connection points: 2
#     Edge 13, Type (0, 1), BuildingBlock: ZUJKAS_clean_linker_0, # of connection points: 2
#     Edge 14, Type (0, 1), BuildingBlock: ZUJKAS_clean_linker_0, # of connection points: 2
#     Edge 15, Type (0, 1), BuildingBlock: ZUJKAS_clean_linker_0, # of connection points: 2
#     Edge 16, Type (0, 1), BuildingBlock: ZUJKAS_clean_linker_0, # of connection points: 2
#     Edge 17, Type (0, 1), BuildingBlock: ZUJKAS_clean_linker_0, # of connection points: 2
#     Edge 18, Type (0, 1), BuildingBlock: ZUJKAS_clean_linker_0, # of connection points: 2
#     Edge 19, Type (0, 1), BuildingBlock: ZUJKAS_clean_linker_0, # of connection points: 2
#     Edge 20, Type (0, 1), BuildingBlock: ZUJKAS_clean_linker_0, # of connection points: 2
#     Edge 21, Type (0, 1), BuildingBlock: ZUJKAS_clean_linker_0, # of connection points: 2
#     Edge 22, Type (0, 1), BuildingBlock: ZUJKAS_clean_linker_0, # of connection points: 2
#     Edge 23, Type (0, 1), BuildingBlock: ZUJKAS_clean_linker_0, # of connection points: 2
#     Edge 24, Type (0, 1), BuildingBlock: ZUJKAS_clean_linker_0, # of connection points: 2
#     Edge 25, Type (0, 1), BuildingBlock: ZUJKAS_clean_linker_0, # of connection points: 2
#     Edge 26, Type (0, 1), BuildingBlock: ZUJKAS_clean_linker_0, # of connection points: 2
#     Edge 27, Type (0, 1), BuildingBlock: ZUJKAS_clean_linker_0, # of connection points: 2
#     Edge 28, Type (0, 1), BuildingBlock: ZUJKAS_clean_linker_0, # of connection points: 2
#     Edge 29, Type (0, 1), BuildingBlock: ZUJKAS_clean_linker_0, # of connection points: 2
#     Edge 30, Type (0, 1), BuildingBlock: ZUJKAS_clean_linker_0, # of connection points: 2
#     Edge 31, Type (0, 1), BuildingBlock: ZUJKAS_clean_linker_0, # of connection points: 2
#     Edge 32, Type (0, 1), BuildingBlock: ZUJKAS_clean_linker_0, # of connection points: 2
#     Edge 33, Type (0, 1), BuildingBlock: ZUJKAS_clean_linker_0, # of connection points: 2
#     Edge 34, Type (0, 1), BuildingBlock: ZUJKAS_clean_linker_0, # of connection points: 2
#     Edge 35, Type (0, 1), BuildingBlock: ZUJKAS_clean_linker_0, # of connection points: 2
# Relax obj value: 0.408
# Max RMSD: 0.275
# Mean RMSD: 0.253
data_MOF--net-zzz--node1-BETDAH_clean_sbu_0--node2-KAKCAD_clean_linker_0--edge1-ZUJKAS_clean_linker_0
_symmetry_space_group_name_H-M    P1
_symmetry_Int_Tables_number       1
_symmetry_cell_setting            triclinic
loop_
_symmetry_equiv_pos_as_xyz
'x, y, z'
_cell_length_a     74.786579
_cell_length_b     74.755496
_cell_length_c     22.521482
_cell_angle_alpha  89.973294
_cell_angle_beta   90.055662
_cell_angle_gamma 90.216701
loop_
_atom_site_label
_atom_site_type_symbol
_atom_site_fract_x
_atom_site_fract_y
_atom_site_fract_z
_atom_type_partial_charge
C0 C 0.74622 0.52071 0.01377 0.0
C1 C 0.76073 0.50909 0.00541 0.0
C2 C 0.73827 0.52238 0.06959 0.0
C3 C 0.74456 0.51238 0.1182 0.0
C4 C 0.75869 0.50037 0.10938 0.0
C5 C 0.76674 0.49881 0.05381 0.0
C6 C 0.73659 0.51463 0.17808 0.0
C7 C 0.71813 0.5168 0.18442 0.0
C8 C 0.71037 0.51919 0.24044 0.0
C9 C 0.72131 0.51935 0.29159 0.0
C10 C 0.73997 0.51699 0.28578 0.0
C11 C 0.74739 0.51472 0.22902 0.0
C12 C 0.75242 0.51689 0.33722 0.0
C13 C 0.75676 0.53285 0.36681 0.0
C14 C 0.76272 0.50158 0.34838 0.0
C15 C 0.77761 0.50238 0.38599 0.0
C16 C 0.78273 0.5186 0.41291 0.0
C17 C 0.69069 0.52105 0.24197 0.0
C18 C 0.68301 0.53681 0.21984 0.0
C19 C 0.68002 0.50563 0.24657 0.0
C20 C 0.66246 0.50557 0.22465 0.0
C21 C 0.65527 0.52092 0.19737 0.0
C22 C 0.66547 0.53679 0.19801 0.0
C23 C 0.7718 0.53372 0.40418 0.0
H24 H 0.74117 0.52872 0.97741 0.0
H25 H 0.72749 0.53187 0.07493 0.0
H26 H 0.76367 0.49224 0.14558 0.0
H27 H 0.77809 0.48996 0.0495 0.0
H28 H 0.70959 0.51633 0.14549 0.0
H29 H 0.76176 0.51337 0.22461 0.0
H30 H 0.71541 0.52112 0.33509 0.0
H31 H 0.74922 0.54492 0.35812 0.0
H32 H 0.75982 0.48919 0.32527 0.0
H33 H 0.78574 0.49052 0.39096 0.0
H34 H 0.69113 0.54874 0.21438 0.0
H35 H 0.68577 0.4932 0.26219 0.0
H36 H 0.77523 0.54638 0.42466 0.0
H37 H 0.66052 0.54883 0.17702 0.0
H38 H 0.6549 0.49319 0.22583 0.0
C39 C 0.05392 0.76158 0.0554 0.0
C40 C 0.06682 0.77395 0.07521 0.0
C41 C 0.04351 0.75203 0.0961 0.0
C42 C 0.04591 0.75452 0.15746 0.0
C43 C 0.0599 0.76564 0.17711 0.0
C44 C 0.07017 0.77532 0.13651 0.0
C45 C 0.0328 0.74706 0.20046 0.0
C46 C 0.02552 0.72994 0.19278 0.0
C47 C 0.01201 0.72351 0.23051 0.0
C48 C 1.00565 0.73442 0.27704 0.0
C49 C 0.01332 0.75147 0.28631 0.0
C50 C 0.02669 0.75762 0.24759 0.0
C51 C 0.00794 0.76356 0.33536 0.0
C52 C 0.99111 0.77186 0.33525 0.0
C53 C 0.02112 0.76978 0.3748 0.0
C54 C 0.0181 0.78482 0.41006 0.0
C55 C 1.0018 0.79407 0.40672 0.0
C56 C 1.005 0.70531 0.21882 0.0
C57 C 0.9889 0.703 0.18764 0.0
C58 C 0.01649 0.69065 0.22564 0.0
C59 C 0.01262 0.67434 0.19809 0.0
C60 C 0.99725 0.67238 0.16258 0.0
C61 C 0.98501 0.68664 0.15986 0.0
C62 C 0.98804 0.78699 0.37085 0.0
H63 H 0.05122 0.75994 0.00846 0.0
H64 H 0.03287 0.74355 0.07936 0.0
H65 H 0.06238 0.76753 0.22409 0.0
H66 H 0.0799 0.78476 0.15361 0.0
H67 H 0.03029 0.72155 0.15689 0.0
H68 H 0.03195 0.77105 0.25334 0.0
H69 H 0.99522 0.72957 0.30631 0.0
H70 H 0.98084 0.76749 0.30454 0.0
H71 H 0.03423 0.76365 0.37548 0.0
H72 H 0.02884 0.78971 0.43803 0.0
H73 H 0.98003 0.71425 0.18081 0.0
H74 H 0.02909 0.6922 0.24891 0.0
H75 H 0.97535 0.79383 0.36725 0.0
H76 H 0.97311 0.68562 0.13265 0.0
H77 H 0.02217 0.66354 0.20199 0.0
C78 C 0.75608 1.00645 0.024 0.0
C79 C 0.74229 0.01889 0.01511 0.0
C80 C 0.76353 1.00408 0.08028 0.0
C81 C 0.75754 0.01424 0.12892 0.0
C82 C 0.74429 0.02719 0.11951 0.0
C83 C 0.7367 0.02943 0.06339 0.0
C84 C 0.76474 0.01091 0.18943 0.0
C85 C 0.78282 1.00687 0.1972 0.0
C86 C 0.78972 1.00259 0.25324 0.0
C87 C 0.77834 1.00265 0.30319 0.0
C88 C 0.76011 0.0071 0.29619 0.0
C89 C 0.75351 0.01114 0.23929 0.0
C90 C 0.74723 0.00713 0.34636 0.0
C91 C 0.74199 0.99103 0.37346 0.0
C92 C 0.73765 0.02279 0.35926 0.0
C93 C 0.72262 0.02224 0.39618 0.0
C94 C 0.71661 1.00595 0.42042 0.0
C95 C 0.80897 0.99817 0.2559 0.0
C96 C 0.81489 0.98279 0.22615 0.0
C97 C 0.82142 0.01159 0.27 0.0
C98 C 0.8391 0.01042 0.24963 0.0
C99 C 0.84458 0.99589 0.21417 0.0
C100 C 0.83247 0.98165 0.20551 0.0
C101 C 0.72677 0.99042 0.40991 0.0
H102 H 0.76083 0.99823 0.98776 0.0
H103 H 0.7736 0.99385 0.08594 0.0
H104 H 0.73957 0.03544 0.15572 0.0
H105 H 0.72591 0.03894 0.05861 0.0
H106 H 0.79174 0.0071 0.15924 0.0
H107 H 0.73938 0.0139 0.23377 0.0
H108 H 0.78357 0.99932 0.34667 0.0
H109 H 0.74898 0.97873 0.36347 0.0
H110 H 0.74129 0.03532 0.33822 0.0
H111 H 0.71507 0.03442 0.40274 0.0
H112 H 0.80543 0.97244 0.21365 0.0
H113 H 0.81709 0.02372 0.29194 0.0
H114 H 0.7226 0.97769 0.4283 0.0
H115 H 0.836 0.9703 0.17816 0.0
H116 H 0.84813 0.02146 0.25842 0.0
C117 C 0.4949 0.73688 0.40708 0.0
C118 C 0.51128 0.73114 0.43109 0.0
C119 C 0.49432 0.7511 0.36674 0.0
C120 C 0.51005 0.7601 0.3499 0.0
C121 C 0.52625 0.75528 0.37693 0.0
C122 C 0.52688 0.7409 0.41699 0.0
C123 C 0.51001 0.77139 0.29563 0.0
C124 C 0.51502 0.78963 0.29588 0.0
C125 C 0.51536 0.79934 0.24208 0.0
C126 C 0.51088 0.79069 0.18879 0.0
C127 C 0.50578 0.77268 0.18807 0.0
C128 C 0.50528 0.76319 0.24176 0.0
C129 C 0.50104 0.76375 0.13125 0.0
C130 C 0.49098 0.77272 0.08757 0.0
C131 C 0.50648 0.74608 0.12047 0.0
C132 C 0.50152 0.7374 0.06822 0.0
C133 C 0.49116 0.74623 0.0253 0.0
C134 C 0.51959 0.81869 0.23869 0.0
C135 C 0.50714 0.83129 0.25895 0.0
C136 C 0.53354 0.82443 0.20149 0.0
C137 C 0.53414 0.84203 0.18061 0.0
C138 C 0.52074 0.85433 0.19629 0.0
C139 C 0.50772 0.84896 0.23798 0.0
C140 C 0.48618 0.76406 0.03486 0.0
H141 H 0.48265 0.72963 0.41632 0.0
H142 H 0.48169 0.75441 0.34587 0.0
H143 H 0.5386 0.76182 0.36401 0.0
H144 H 0.53969 0.73696 0.43515 0.0
H145 H 0.51855 0.79616 0.33721 0.0
H146 H 0.50124 0.74924 0.24182 0.0
H147 H 0.51137 0.79814 0.14749 0.0
H148 H 0.48643 0.78628 0.09471 0.0
H149 H 0.51459 0.73893 0.1524 0.0
H150 H 0.50574 0.7237 0.06138 0.0
H151 H 0.49612 0.82713 0.28696 0.0
H152 H 0.54314 0.81489 0.18461 0.0
H153 H 0.47808 0.77107 1.00251 0.0
H154 H 0.49737 0.85814 0.25187 0.0
H155 H 0.54429 0.84552 0.14834 0.0
C156 C 0.24574 0.46585 0.28214 0.0
C157 C 0.23353 0.45174 0.2735 0.0
C158 C 0.25661 0.47166 0.23559 0.0
C159 C 0.25544 0.4635 0.17955 0.0
C160 C 0.24448 0.44835 0.17252 0.0
C161 C 0.23368 0.44247 0.21919 0.0
C162 C 0.26385 0.47215 0.12733 0.0
C163 C 0.28123 0.47893 0.13064 0.0
C164 C 0.2885 0.48897 0.0839 0.0
C165 C 0.27815 0.49226 0.03252 0.0
C166 C 0.26061 0.48517 0.02815 0.0
C167 C 0.25373 0.47519 0.07599 0.0
C168 C 0.24855 0.48859 0.97647 0.0
C169 C 0.24563 0.50598 0.95492 0.0
C170 C 0.2377 0.47464 0.95474 0.0
C171 C 0.22339 0.47812 0.9166 0.0
C172 C 0.21958 0.49567 0.89787 0.0
C173 C 0.3068 0.49606 0.0926 0.0
C174 C 0.30932 0.51085 0.1301 0.0
C175 C 0.32151 0.48523 0.07901 0.0
C176 C 0.33816 0.48837 0.10581 0.0
C177 C 0.34037 0.50233 0.14725 0.0
C178 C 0.32593 0.51401 0.15697 0.0
C179 C 0.23134 0.50948 0.91595 0.0
H180 H 0.24585 0.4734 0.32315 0.0
H181 H 0.26488 0.48342 0.24224 0.0
H182 H 0.2436 0.44161 0.13003 0.0
H183 H 0.22463 0.43135 0.21158 0.0
H184 H 0.28913 0.47663 0.17036 0.0
H185 H 0.23999 0.47052 0.07457 0.0
H186 H 0.28366 0.50019 0.99661 0.0
H187 H 0.25371 0.51704 0.97081 0.0
H188 H 0.23969 0.46103 0.96995 0.0
H189 H 0.21475 0.46704 0.90477 0.0
H190 H 0.29803 0.51909 0.14254 0.0
H191 H 0.31979 0.4735 0.05131 0.0
H192 H 0.22921 0.52312 0.90156 0.0
H193 H 0.32699 0.52478 0.18893 0.0
H194 H 0.34904 0.47929 0.09645 0.0
C195 C 0.01491 0.25956 0.29556 0.0
C196 C 0.02769 0.24662 0.31127 0.0
C197 C 0.01679 0.2694 0.24331 0.0
C198 C 0.03132 0.26633 0.20541 0.0
C199 C 0.0446 0.25417 0.22234 0.0
C200 C 0.04292 0.24457 0.2752 0.0
C201 C 0.03174 0.27473 0.14625 0.0
C202 C 0.02992 0.29321 0.14054 0.0
C203 C 0.02873 0.30121 0.08442 0.0
C204 C 0.02891 0.29041 0.03295 0.0
C205 C 0.03085 0.27167 0.03858 0.0
C206 C 0.0325 0.26408 0.09531 0.0
C207 C 0.03003 0.2592 0.98745 0.0
C208 C 0.01346 0.25502 0.96148 0.0
C209 C 0.04479 0.24824 0.97512 0.0
C210 C 0.04281 0.23283 0.94041 0.0
C211 C 0.02595 0.22785 0.91798 0.0
C212 C 0.02728 0.32092 0.08326 0.0
C213 C 0.01089 0.32881 0.09823 0.0
C214 C 0.04296 0.33122 0.08705 0.0
C215 C 0.04247 0.34858 0.11037 0.0
C216 C 0.02628 0.35594 0.13062 0.0
C217 C 0.01037 0.34619 0.1214 0.0
C218 C 0.01142 0.23947 0.9272 0.0
H219 H 1.0029 0.26137 0.32159 0.0
H220 H 1.00634 0.27868 0.2308 0.0
H221 H 0.05603 0.25179 0.19393 0.0
H222 H 0.05324 0.23504 0.28665 0.0
H223 H 0.02941 0.30145 0.18017 0.0
H224 H 0.03349 0.24967 0.09993 0.0
H225 H 0.02758 0.29645 0.98945 0.0
H226 H 1.0018 0.26305 0.97135 0.0
H227 H 0.05761 0.25098 0.99572 0.0
H228 H 0.05426 0.22416 0.93473 0.0
H229 H 0.9987 0.32095 0.09725 0.0
H230 H 0.0558 0.32527 0.0771 0.0
H231 H 0.99829 0.23614 0.91004 0.0
H232 H 0.99768 0.35133 0.13684 0.0
H233 H 0.05494 0.35581 0.11597 0.0
C234 C 0.25297 0.01569 0.32369 0.0
C235 C 0.26623 0.02856 0.33587 0.0
C236 C 0.24309 0.01648 0.27125 0.0
C237 C 0.24636 0.03005 0.22952 0.0
C238 C 0.25905 0.04335 0.24246 0.0
C239 C 0.26878 0.04272 0.29541 0.0
C240 C 0.23725 0.02952 0.17128 0.0
C241 C 0.21883 0.02655 0.16833 0.0
C242 C 0.21017 0.02413 0.11366 0.0
C243 C 0.22025 0.0247 0.06065 0.0
C244 C 0.2389 0.02777 0.06335 0.0
C245 C 0.24716 0.03038 0.11867 0.0
C246 C 0.25066 0.02704 0.01051 0.0
C247 C 0.25781 0.01057 0.99264 0.0
C248 C 0.25821 0.04286 0.98812 0.0
C249 C 0.27323 0.04228 0.951 0.0
C250 C 0.28128 0.02583 0.93635 0.0
C251 C 0.19068 0.02056 0.11547 0.0
C252 C 0.18455 1.00539 0.14619 0.0
C253 C 0.1785 0.03419 0.10186 0.0
C254 C 0.16086 0.03331 0.12301 0.0
C255 C 0.15513 0.01884 0.15862 0.0
C256 C 0.16703 1.00453 0.16754 0.0
C257 C 0.27293 0.00995 0.95593 0.0
H258 H 0.25083 1.0044 0.353 0.0
H259 H 0.23349 1.00595 0.26201 0.0
H260 H 0.26163 0.05407 0.21118 0.0
H261 H 0.27864 0.05305 0.30384 0.0
H262 H 0.21114 0.02596 0.20913 0.0
H263 H 0.26154 0.03221 0.12086 0.0
H264 H 0.21377 0.02244 0.01825 0.0
H265 H 0.2525 0.9982 0.01065 0.0
H266 H 0.25313 0.05573 1.00221 0.0
H267 H 0.27898 0.05479 0.93588 0.0
H268 H 0.19379 0.99485 0.15813 0.0
H269 H 0.18299 0.04615 0.07905 0.0
H270 H 0.27875 0.99704 0.94637 0.0
H271 H 0.16337 0.99324 0.19511 0.0
H272 H 0.15201 0.04442 0.11408 0.0
C273 C 0.48964 0.28964 0.97586 0.0
C274 C 0.50317 0.29711 0.93997 0.0
C275 C 0.49303 0.27435 0.01041 0.0
C276 C 0.50996 0.26628 0.00925 0.0
C277 C 0.52293 0.27291 0.96984 0.0
C278 C 0.51958 0.2881 0.93557 0.0
C279 C 0.51565 0.25397 0.05734 0.0
C280 C 0.50832 0.23673 0.06538 0.0
C281 C 0.51495 0.22557 0.11096 0.0
C282 C 0.52835 0.23205 0.14924 0.0
C283 C 0.53519 0.24941 0.14305 0.0
C284 C 0.52887 0.26015 0.09658 0.0
C285 C 0.54787 0.257 0.18734 0.0
C286 C 0.54536 0.25389 0.24835 0.0
C287 C 0.56137 0.26896 0.16947 0.0
C288 C 0.5709 0.27888 0.21144 0.0
C289 C 0.56732 0.2769 0.27242 0.0
C290 C 0.508 0.20722 0.12152 0.0
C291 C 0.4901 0.20438 0.13773 0.0
C292 C 0.52009 0.19294 0.12583 0.0
C293 C 0.51472 0.17651 0.14955 0.0
C294 C 0.49712 0.17396 0.16989 0.0
C295 C 0.48471 0.18791 0.16189 0.0
C296 C 0.55507 0.26365 0.29042 0.0
H297 H 0.47686 0.29628 0.98031 0.0
H298 H 0.48292 0.26966 0.04115 0.0
H299 H 0.53612 0.26697 0.9684 0.0
H300 H 0.53016 0.29329 0.90752 0.0
H301 H 0.49795 0.2319 0.03577 0.0
H302 H 0.53378 0.27374 0.0919 0.0
H303 H 0.53324 0.22359 0.1848 0.0
H304 H 0.5351 0.24476 0.26382 0.0
H305 H 0.56398 0.27134 0.12282 0.0
H306 H 0.58016 0.28898 0.1956 0.0
H307 H 0.48056 0.21523 0.13533 0.0
H308 H 0.534 0.19483 0.11387 0.0
H309 H 0.55226 0.26148 0.33703 0.0
H310 H 0.47099 0.18632 0.17636 0.0
H311 H 0.52472 0.16622 0.15541 0.0
Ho312 Ho 0.01338 1.00213 0.74271 0.0
Ho313 Ho 0.98737 0.01426 0.63898 0.0
C314 C 0.99762 0.97306 0.64697 0.0
C315 C 0.02589 0.98814 0.83822 0.0
C316 C 0.03755 0.9726 0.8456 0.0
C317 C 0.04409 0.96785 0.90167 0.0
C318 C 0.05439 0.95238 0.90838 0.0
C319 C 0.05814 0.94146 0.85907 0.0
C320 C 0.05196 0.94662 0.80272 0.0
C321 C 0.0418 0.96208 0.79603 0.0
C322 C 0.03183 1.00691 0.63911 0.0
C323 C 1.0063 0.04399 0.72608 0.0
C324 C 0.9714 0.03079 0.55387 0.0
C325 C 0.97277 0.04954 0.53518 0.0
C326 C 0.98895 0.05883 0.54298 0.0
C327 C 0.98948 0.07736 0.53755 0.0
C328 C 0.97389 0.08691 0.52421 0.0
C329 C 0.95793 0.0776 0.51272 0.0
C330 C 0.95735 0.05896 0.51862 0.0
C331 C 0.97212 1.00232 0.74063 0.0
O332 O 1.00364 0.97618 0.70157 0.0
O333 O 0.99248 0.98605 0.61079 0.0
O334 O 0.03332 1.002 0.81219 0.0
O335 O 0.0099 0.98442 0.81741 0.0
O336 O 0.03913 1.00178 0.68843 0.0
O337 O 0.0155 0.00898 0.64936 0.0
O338 O 0.9991 0.04031 0.67349 0.0
O339 O 0.01093 0.03131 0.76411 0.0
O340 O 0.96436 0.02861 0.60652 0.0
O341 O 0.98562 0.02089 0.54564 0.0
O342 O 0.96579 0.99916 0.68794 0.0
O343 O 0.98582 0.0121 0.73656 0.0
H344 H 0.04093 0.97587 0.9403 0.0
H345 H 0.05883 0.94861 0.95242 0.0
H346 H 0.05478 0.93854 0.76392 0.0
H347 H 0.03695 0.96566 0.75228 0.0
H348 H 1.001 0.05188 0.55616 0.0
H349 H 1.00199 0.08432 0.54562 0.0
H350 H 0.94578 0.08478 0.5021 0.0
H351 H 0.94472 0.05201 0.51305 0.0
Ho352 Ho 0.50381 0.02541 0.7215 0.0
Ho353 Ho 0.49388 0.99861 0.63035 0.0
C354 C 0.53452 0.00888 0.63442 0.0
C355 C 0.52138 0.04197 0.80274 0.0
C356 C 0.54092 0.04141 0.81226 0.0
C357 C 0.54918 0.02543 0.83029 0.0
C358 C 0.56765 0.02349 0.82593 0.0
C359 C 0.57829 0.03746 0.80354 0.0
C360 C 0.57022 0.05384 0.78917 0.0
C361 C 0.55169 0.0558 0.79359 0.0
C362 C 0.49171 0.03987 0.61938 0.0
C363 C 0.46303 0.01506 0.71978 0.0
C364 C 0.47768 0.98129 0.54707 0.0
C365 C 0.45917 0.9747 0.54365 0.0
C366 C 0.44899 0.97822 0.49275 0.0
C367 C 0.43048 0.97574 0.49353 0.0
C368 C 0.42185 0.96965 0.54532 0.0
C369 C 0.43229 0.96482 0.59466 0.0
C370 C 0.45076 0.96744 0.59402 0.0
C371 C 0.50611 0.9842 0.73261 0.0
O372 O 0.53057 0.01559 0.68713 0.0
O373 O 0.52181 1.00319 0.5984 0.0
O374 O 0.51632 0.0497 0.75345 0.0
O375 O 0.51261 0.02708 0.81281 0.0
O376 O 0.48792 0.04593 0.67185 0.0
O377 O 0.5022 0.02671 0.62361 0.0
O378 O 0.46696 1.00582 0.67121 0.0
O379 O 0.47551 0.02321 0.75121 0.0
O380 O 0.48804 0.97357 0.58618 0.0
O381 O 0.47925 0.99872 0.54752 0.0
O382 O 0.50977 0.97804 0.68022 0.0
O383 O 0.49555 0.99726 0.72814 0.0
H384 H 0.54136 0.01405 0.84512 0.0
H385 H 0.57356 0.01088 0.83895 0.0
H386 H 0.57811 0.06486 0.77198 0.0
H387 H 0.54568 0.06825 0.77928 0.0
H388 H 0.45522 0.98397 0.45368 0.0
H389 H 0.42284 0.9798 0.45496 0.0
H390 H 0.42607 0.95987 0.6349 0.0
H391 H 0.45829 0.96474 0.63413 0.0
Ho392 Ho 0.48478 0.5184 0.723 0.0
Ho393 Ho 0.51035 0.50734 0.61724 0.0
C394 C 0.50282 0.54905 0.63641 0.0
C395 C 0.47001 0.53613 0.8071 0.0
C396 C 0.47072 0.55568 0.81542 0.0
C397 C 0.48724 0.56473 0.81462 0.0
C398 C 0.4879 0.58325 0.80764 0.0
C399 C 0.47208 0.59313 0.80107 0.0
C400 C 0.45554 0.58421 0.80536 0.0
C401 C 0.45488 0.56564 0.81255 0.0
C402 C 0.46895 0.50777 0.62098 0.0
C403 C 0.4952 0.47754 0.71276 0.0
C404 C 0.52175 0.49333 0.52023 0.0
C405 C 0.53237 0.47714 0.5106 0.0
C406 C 0.53445 0.46479 0.55704 0.0
C407 C 0.54371 0.44889 0.54777 0.0
C408 C 0.55127 0.44517 0.49212 0.0
C409 C 0.54974 0.45786 0.44623 0.0
C410 C 0.54025 0.47373 0.45538 0.0
C411 C 0.52935 0.51116 0.72007 0.0
O412 O 0.49494 0.54482 0.68725 0.0
O413 O 0.50869 0.53681 0.59868 0.0
O414 O 0.4613 0.53101 0.75964 0.0
O415 O 0.48505 0.52744 0.81429 0.0
O416 O 0.46288 0.50402 0.67364 0.0
O417 O 0.48283 0.51735 0.62526 0.0
O418 O 0.50099 0.48112 0.65816 0.0
O419 O 0.49001 0.49019 0.75007 0.0
O420 O 0.53011 0.50645 0.54727 0.0
O421 O 0.50562 0.49047 0.5412 0.0
O422 O 0.53644 0.50691 0.66954 0.0
O423 O 0.51289 0.51309 0.71121 0.0
H424 H 0.49973 0.55745 0.81581 0.0
H425 H 0.50086 0.58966 0.80404 0.0
H426 H 0.4431 0.59151 0.80189 0.0
H427 H 0.44199 0.55896 0.81266 0.0
H428 H 0.52869 0.46732 0.60028 0.0
H429 H 0.54485 0.43942 0.58401 0.0
H430 H 0.55535 0.45522 0.4028 0.0
H431 H 0.53884 0.48318 0.41922 0.0
Ho432 Ho 0.99776 0.50075 0.69756 0.0
Ho433 Ho 0.00733 0.52622 0.58878 0.0
C434 C 0.96605 0.51831 0.61162 0.0
C435 C 0.9807 0.48613 0.78352 0.0
C436 C 0.96147 0.48811 0.79641 0.0
C437 C 0.954 0.5052 0.80377 0.0
C438 C 0.93553 0.50753 0.80138 0.0
C439 C 0.92412 0.49288 0.79121 0.0
C440 C 0.93153 0.47566 0.78711 0.0
C441 C 0.95004 0.4733 0.78989 0.0
C442 C 0.01002 0.48482 0.59825 0.0
C443 C 0.03814 0.51168 0.68185 0.0
C444 C 0.02176 0.53411 0.48899 0.0
C445 C 0.0387 0.52661 0.46647 0.0
C446 C 0.04053 0.50801 0.45967 0.0
C447 C 0.05741 0.50026 0.45658 0.0
C448 C 0.07279 0.51099 0.45888 0.0
C449 C 0.07102 0.52969 0.46026 0.0
C450 C 0.05408 0.53744 0.46425 0.0
C451 C 1.0003 0.54586 0.68752 0.0
O452 O 0.97091 0.50919 0.65971 0.0
O453 O 0.9777 0.52603 0.57527 0.0
O454 O 0.98411 0.47772 0.73385 0.0
O455 O 0.99077 0.50038 0.7908 0.0
O456 O 0.01356 0.47913 0.6515 0.0
O457 O 0.99965 0.49804 0.601 0.0
O458 O 0.03384 0.51663 0.62692 0.0
O459 O 0.02595 0.50709 0.7217 0.0
O460 O 0.02356 0.54419 0.53618 0.0
O461 O 0.0082 0.523 0.49329 0.0
O462 O 1.00371 0.55284 0.63584 0.0
O463 O 1.00036 0.52913 0.68149 0.0
H464 H 0.96239 0.51694 0.80852 0.0
H465 H 0.93022 0.52091 0.80626 0.0
H466 H 0.92312 0.46409 0.77909 0.0
H467 H 0.95548 0.46003 0.78342 0.0
H468 H 0.029 0.49929 0.46027 0.0
H469 H 0.05845 0.48583 0.45425 0.0
H470 H 0.08275 0.53824 0.4617 0.0
H471 H 0.05307 0.55181 0.46963 0.0
H472 H 0.13238 0.99103 0.18805 0.0
H473 H 0.10791 0.99154 0.25941 0.0
H474 H 0.1137 0.04871 0.27667 0.0
H475 H 0.13897 0.04818 0.20856 0.0
H476 H 0.11336 0.03446 0.38087 0.0
H477 H 0.05655 1.00501 0.25822 0.0
H478 H 0.07552 0.99045 0.25596 0.0
H479 H 0.07678 0.01218 0.22144 0.0
C480 C 0.12841 1.00377 0.20659 0.0
C481 C 0.1379 0.01954 0.19255 0.0
C482 C 0.11415 1.00407 0.24687 0.0
C483 C 0.10872 0.0202 0.27326 0.0
C484 C 0.11753 0.03609 0.25691 0.0
H485 H 0.02033 0.02296 0.53554 0.0
H486 H 0.03777 0.02759 0.44401 0.0
C487 C 0.13193 0.03577 0.21722 0.0
C488 C 0.09538 0.02021 0.32267 0.0
H489 H 0.0545 1.00401 0.36553 0.0
C490 C 0.10039 0.02803 0.37697 0.0
C491 C 0.07828 0.01208 0.31795 0.0
C492 C 0.0714 1.00464 0.26 0.0
C493 C 0.08922 0.02726 0.427 0.0
C494 C 0.07272 0.01796 0.42351 0.0
C495 C 0.06727 0.01089 0.36859 0.0
C496 C 0.0616 0.01462 0.47732 0.0
C497 C 0.0953 0.03639 0.48333 0.0
C498 C 0.06898 1.00544 0.5258 0.0
C499 C 0.05912 1.00289 0.57773 0.0
C500 C 0.0415 0.0092 0.58224 0.0
C501 C 0.03383 0.01789 0.53315 0.0
C502 C 0.0438 0.02056 0.48097 0.0
H503 H 0.10477 0.0475 0.47373 0.0
H504 H 0.0838 0.04181 0.50863 0.0
H505 H 0.10236 0.02656 0.51179 0.0
H506 H 0.0825 1.00032 0.52366 0.0
H507 H 0.06535 0.99598 0.61459 0.0
H508 H 0.50734 0.13919 0.14903 0.0
H509 H 0.50348 0.11337 0.21474 0.0
H510 H 0.47296 0.14577 0.33591 0.0
H511 H 0.47689 0.17164 0.271 0.0
H512 H 0.516 0.11181 0.32972 0.0
H513 H 0.44282 0.10033 0.32743 0.0
H514 H 0.45406 0.1137 0.27192 0.0
H515 H 0.44883 0.1231 0.34331 0.0
C516 C 0.49962 0.14079 0.18932 0.0
C517 C 0.49246 0.15756 0.20463 0.0
C518 C 0.49737 0.12598 0.22674 0.0
C519 C 0.48778 0.12755 0.28004 0.0
C520 C 0.48007 0.14409 0.29442 0.0
H521 H 0.47374 0.07126 0.60804 0.0
H522 H 0.47233 0.0908 0.52108 0.0
C523 C 0.48232 0.1589 0.25708 0.0
C524 C 0.4873 0.11248 0.32329 0.0
H525 H 0.45914 0.08661 0.40683 0.0
C526 C 0.50358 0.1061 0.34595 0.0
C527 C 0.47109 0.10508 0.34463 0.0
C528 C 0.45321 0.11077 0.32018 0.0
C529 C 0.50409 0.09312 0.39109 0.0
C530 C 0.48786 0.086 0.41346 0.0
C531 C 0.47158 0.09204 0.38972 0.0
C532 C 0.48752 0.0732 0.46415 0.0
C533 C 0.522 0.08777 0.41633 0.0
C534 C 0.49607 0.05651 0.46072 0.0
C535 C 0.49697 0.04532 0.51062 0.0
C536 C 0.48922 0.05059 0.56468 0.0
C537 C 0.47994 0.06689 0.56713 0.0
C538 C 0.47909 0.07806 0.51739 0.0
H539 H 0.53274 0.09737 0.4039 0.0
H540 H 0.52143 0.08687 0.4655 0.0
H541 H 0.52571 0.07443 0.39877 0.0
H542 H 0.50233 0.05228 0.41975 0.0
H543 H 0.50409 0.03277 0.50729 0.0
H544 H 0.35821 0.53246 0.18647 0.0
H545 H 0.38272 0.53401 0.25856 0.0
H546 H 0.38381 0.47643 0.26783 0.0
H547 H 0.35932 0.47474 0.19651 0.0
H548 H 0.38175 0.52175 0.37275 0.0
H549 H 0.43666 0.48823 0.25198 0.0
H550 H 0.41676 0.4962 0.21517 0.0
H551 H 0.41651 0.47514 0.25391 0.0
C552 C 0.36378 0.52011 0.20336 0.0
C553 C 0.35676 0.50347 0.18524 0.0
C554 C 0.37784 0.52102 0.24448 0.0
C555 C 0.38531 0.50534 0.26817 0.0
C556 C 0.37863 0.48873 0.24918 0.0
H557 H 0.43658 0.49136 0.60885 0.0
H558 H 0.41715 0.49096 0.52136 0.0
C559 C 0.36458 0.48779 0.20814 0.0
C560 C 0.39901 0.5063 0.31624 0.0
H561 H 0.44049 0.4915 0.35714 0.0
C562 C 0.39465 0.51527 0.36904 0.0
C563 C 0.41596 0.49801 0.3114 0.0
C564 C 0.42186 0.489 0.25484 0.0
C565 C 0.40646 0.51568 0.41761 0.0
C566 C 0.42303 0.50665 0.41382 0.0
C567 C 0.42769 0.4982 0.36036 0.0
C568 C 0.4355 0.5057 0.46532 0.0
C569 C 0.40111 0.52586 0.47261 0.0
C570 C 0.45262 0.51346 0.4623 0.0
C571 C 0.46382 0.51363 0.51233 0.0
C572 C 0.45812 0.50594 0.56613 0.0
C573 C 0.4413 0.4975 0.5682 0.0
C574 C 0.43013 0.49736 0.5183 0.0
H575 H 0.3905 0.53581 0.46298 0.0
H576 H 0.3958 0.51632 0.50607 0.0
H577 H 0.41277 0.53292 0.49238 0.0
H578 H 0.45711 0.51986 0.42177 0.0
H579 H 0.47673 0.52018 0.50935 0.0
H580 H 0.04993 0.36506 0.21832 0.0
H581 H 0.04784 0.38969 0.28898 0.0
H582 H 1.00033 0.40859 0.20079 0.0
H583 H 1.00225 0.38381 0.12985 0.0
H584 H 0.04748 0.42632 0.28052 0.0
H585 H 0.98275 0.40138 0.36929 0.0
H586 H 0.99633 0.38835 0.31945 0.0
H587 H 0.98252 0.40606 0.29112 0.0
C588 C 0.03922 0.37464 0.21301 0.0
C589 C 0.02621 0.37237 0.16833 0.0
C590 C 0.038 0.38869 0.25381 0.0
C591 C 0.02373 0.40081 0.25109 0.0
C592 C 0.01121 0.39915 0.20479 0.0
H593 H 0.99126 0.48582 0.49442 0.0
H594 H 0.99532 0.46683 0.40672 0.0
C595 C 0.01236 0.38501 0.16408 0.0
C596 C 0.02166 0.41463 0.29829 0.0
H597 H 0.9937 0.42849 0.40905 0.0
C598 C 0.0357 0.42681 0.30854 0.0
C599 C 1.00633 0.41525 0.33515 0.0
C600 C 0.99118 0.40198 0.32874 0.0
C601 C 0.03478 0.43959 0.35434 0.0
C602 C 0.0195 0.44009 0.39124 0.0
C603 C 1.00538 0.42811 0.38054 0.0
C604 C 0.01804 0.45257 0.44242 0.0
C605 C 0.05003 0.45263 0.36256 0.0
C606 C 0.02946 0.45086 0.49167 0.0
C607 C 0.02707 0.4616 0.54198 0.0
C608 C 0.0133 0.47431 0.54376 0.0
C609 C 1.00207 0.47621 0.49409 0.0
C610 C 1.00436 0.46537 0.44402 0.0
H611 H 0.05901 0.45298 0.32332 0.0
H612 H 0.04486 0.46631 0.3707 0.0
H613 H 0.05806 0.44862 0.4018 0.0
H614 H 0.0399 0.44086 0.49187 0.0
H615 H 0.03587 0.45983 0.57977 0.0
H616 H 0.8673 0.96824 0.18433 0.0
H617 H 0.89161 0.96897 0.11198 0.0
H618 H 0.88509 0.02596 0.09276 0.0
H619 H 0.8602 0.02523 0.16225 0.0
H620 H 0.88479 0.01007 0.98789 0.0
H621 H 0.94306 0.98501 0.11436 0.0
H622 H 0.92421 0.97012 0.11767 0.0
H623 H 0.92267 0.99206 0.15008 0.0
C624 C 0.87112 0.98098 0.16521 0.0
C625 C 0.86161 0.99666 0.17931 0.0
C626 C 0.88523 0.98141 0.12427 0.0
C627 C 0.89035 0.99755 0.09709 0.0
C628 C 0.88146 0.01333 0.11319 0.0
H629 H 0.97939 0.01536 0.85173 0.0
H630 H 0.96015 0.01366 0.93986 0.0
C631 C 0.86729 0.01291 0.15368 0.0
C632 C 0.90362 0.99781 0.04765 0.0
H633 H 0.94615 0.9859 0.00855 0.0
C634 C 0.89824 1.00488 0.99268 0.0
C635 C 0.92126 0.9912 0.05375 0.0
C636 C 0.92823 0.98434 0.11231 0.0
C637 C 0.90981 1.00529 0.94364 0.0
C638 C 0.92718 0.998 0.94896 0.0
C639 C 0.93275 0.99125 0.00419 0.0
C640 C 0.93971 0.99751 0.8976 0.0
C641 C 0.90337 0.01383 0.88678 0.0
C642 C 0.93495 0.98849 0.84518 0.0
C643 C 0.94584 0.98954 0.7948 0.0
C644 C 0.96182 0.99948 0.796 0.0
C645 C 0.9671 0.00768 0.84943 0.0
C646 C 0.95613 1.0067 0.89981 0.0
H647 H 0.89201 0.02305 0.89482 0.0
H648 H 0.91428 0.02142 0.8647 0.0
H649 H 0.89868 1.00323 0.85594 0.0
H650 H 0.92258 0.98095 0.84279 0.0
H651 H 0.94152 0.98293 0.75444 0.0
H652 H 0.54759 0.87706 0.15877 0.0
H653 H 0.54493 0.90211 0.08951 0.0
H654 H 0.4876 0.8959 0.08919 0.0
H655 H 0.49016 0.87043 0.15628 0.0
H656 H 0.50096 0.89617 0.97845 0.0
H657 H 0.52898 0.95374 0.10276 0.0
H658 H 0.54366 0.9348 0.10117 0.0
H659 H 0.52248 0.9331 0.13861 0.0
C660 C 0.53439 0.88114 0.14457 0.0
C661 C 0.5191 0.8716 0.1632 0.0
C662 C 0.53288 0.89564 0.1054 0.0
C663 C 0.51605 0.90105 0.08441 0.0
C664 C 0.50073 0.89207 0.10496 0.0
H665 H 0.49282 0.99063 0.84413 0.0
H666 H 0.49542 0.97127 0.93201 0.0
C667 C 0.50222 0.87756 0.14392 0.0
C668 C 0.51449 0.91471 0.03645 0.0
H669 H 0.52557 0.95762 0.99771 0.0
C670 C 0.50622 0.90965 0.98298 0.0
C671 C 0.52121 0.93237 0.0423 0.0
C672 C 0.52943 0.93891 0.09951 0.0
C673 C 0.50487 0.92153 0.93491 0.0
C674 C 0.51226 0.93892 0.9398 0.0
C675 C 0.5201 0.94421 0.99374 0.0
C676 C 0.51208 0.95159 0.88881 0.0
C677 C 0.49541 0.91537 0.87928 0.0
C678 C 0.52104 0.94725 0.83604 0.0
C679 C 0.51955 0.95822 0.78599 0.0
C680 C 0.50913 0.97381 0.78773 0.0
C681 C 0.50086 0.97864 0.84143 0.0
C682 C 0.50235 0.96761 0.89162 0.0
H683 H 0.48654 0.9037 0.888 0.0
H684 H 0.48727 0.9263 0.85984 0.0
H685 H 0.50549 0.91126 0.8459 0.0
H686 H 0.5289 0.93514 0.83317 0.0
H687 H 0.52623 0.95425 0.74545 0.0
H688 H 0.64432 0.49368 0.12453 0.0
H689 H 0.61929 0.49349 0.05504 0.0
H690 H 0.60325 0.54557 0.11683 0.0
H691 H 0.62836 0.54589 0.18693 0.0
H692 H 0.58238 0.49656 0.06489 0.0
H693 H 0.61129 0.55388 0.93973 0.0
H694 H 0.62368 0.54204 0.99602 0.0
H695 H 0.60698 0.55806 0.01691 0.0
C696 C 0.63526 0.50495 0.12457 0.0
C697 C 0.63847 0.51985 0.1614 0.0
C698 C 0.62097 0.50485 0.08439 0.0
C699 C 0.60955 0.51964 0.0798 0.0
C700 C 0.61211 0.53416 0.11857 0.0
H701 H 0.51656 0.51617 0.8339 0.0
H702 H 0.53427 0.51939 0.92547 0.0
C703 C 0.62647 0.5343 0.15874 0.0
C704 C 0.59571 0.52013 0.0321 0.0
H705 H 0.58439 0.54171 0.90362 0.0
C706 C 0.58268 0.50653 0.02993 0.0
C707 C 0.59624 0.53304 0.98606 0.0
C708 C 0.61036 0.54751 0.98421 0.0
C709 C 0.57043 0.50531 0.98254 0.0
C710 C 0.57105 0.51815 0.93636 0.0
C711 C 0.58382 0.53196 0.93926 0.0
C712 C 0.55988 0.51656 0.88173 0.0
C713 C 0.55743 0.48983 0.9809 0.0
C714 C 0.56831 0.51426 0.82665 0.0
C715 C 0.55825 0.51261 0.77466 0.0
C716 C 0.53948 0.51333 0.77625 0.0
C717 C 0.53097 0.51575 0.83125 0.0
C718 C 0.54109 0.5174 0.88362 0.0
H719 H 0.56089 0.47931 0.01381 0.0
H720 H 0.54381 0.49476 0.99121 0.0
H721 H 0.55708 0.4837 0.936 0.0
H722 H 0.58276 0.51357 0.82391 0.0
H723 H 0.56523 0.51074 0.73301 0.0
H724 H 0.02309 0.65639 0.09615 0.0
H725 H 0.01987 0.63199 0.02534 0.0
H726 H 0.96376 0.6278 0.06747 0.0
H727 H 0.96686 0.65263 0.13819 0.0
H728 H 0.00997 0.59764 0.03429 0.0
H729 H 0.96179 0.6338 0.89001 0.0
H730 H 0.97353 0.64466 0.95 0.0
H731 H 0.95453 0.63058 0.96521 0.0
C732 C 0.01008 0.65014 0.09115 0.0
C733 C 0.99522 0.65648 0.12304 0.0
C734 C 0.00825 0.63619 0.05034 0.0
C735 C 0.99153 0.62816 0.04022 0.0
C736 C 0.97673 0.63404 0.07335 0.0
H737 H 0.99121 0.53393 0.79948 0.0
H738 H 0.98671 0.55213 0.88903 0.0
C739 C 0.97852 0.64818 0.11397 0.0
C740 C 0.98981 0.61408 0.99361 0.0
H741 H 0.97036 0.60506 0.85946 0.0
C742 C 1.00118 0.59917 0.99628 0.0
C743 C 0.97844 0.61613 0.94374 0.0
C744 C 0.96648 0.63221 0.93653 0.0
C745 C 1.002 0.58665 0.94973 0.0
C746 C 0.99076 0.5888 0.89959 0.0
C747 C 0.9789 0.60334 0.89798 0.0
C748 C 0.99243 0.57738 0.84559 0.0
C749 C 0.01557 0.57179 0.95337 0.0
C750 C 0.99651 0.58544 0.79094 0.0
C751 C 0.99874 0.57509 0.73992 0.0
C752 C 0.99702 0.55638 0.74216 0.0
C753 C 0.99266 0.54826 0.79651 0.0
C754 C 0.99024 0.55868 0.84777 0.0
H755 H 0.02579 0.57436 0.98822 0.0
H756 H 0.00865 0.55907 0.96447 0.0
H757 H 0.02251 0.57002 0.91021 0.0
H758 H 0.99828 0.59981 0.78788 0.0
H759 H 1.0021 0.58178 0.69872 0.0
H760 H 0.01114 0.25304 0.41866 0.0
H761 H 1.00046 0.23056 0.48977 0.0
H762 H 0.02504 0.18901 0.38562 0.0
H763 H 0.03508 0.21095 0.31381 0.0
H764 H 0.97713 0.20242 0.45539 0.0
H765 H 0.03866 0.17562 0.55662 0.0
H766 H 0.03778 0.19745 0.52215 0.0
H767 H 0.04102 0.17771 0.47766 0.0
C768 C 0.01444 0.23913 0.41129 0.0
C769 C 0.02396 0.23384 0.3603 0.0
C770 C 0.00844 0.22636 0.45219 0.0
C771 C 0.01219 0.20821 0.44325 0.0
C772 C 0.02239 0.20302 0.39409 0.0
H773 H 0.96489 0.10994 0.43534 0.0
H774 H 0.97083 0.14217 0.43254 0.0
C775 C 0.0282 0.21566 0.35304 0.0
C776 C 1.00373 0.19418 0.47988 0.0
H777 H 0.01407 0.15437 0.54411 0.0
C778 C 0.9851 0.19213 0.47658 0.0
C779 C 0.01409 0.181 0.50852 0.0
C780 C 0.03399 0.18316 0.51703 0.0
C781 C 0.97679 0.17628 0.49555 0.0
C782 C 0.98749 0.16216 0.51721 0.0
C783 C 1.00586 0.16505 0.52645 0.0
C784 C 0.98063 0.14366 0.5231 0.0
C785 C 0.95677 0.17456 0.48978 0.0
C786 C 0.98409 0.13381 0.57481 0.0
C787 C 0.98099 0.11541 0.57588 0.0
C788 C 0.9744 0.1066 0.52536 0.0
C789 C 0.96989 0.11655 0.47484 0.0
C790 C 0.97314 0.13496 0.47353 0.0
H791 H 0.95021 0.18774 0.49581 0.0
H792 H 0.95342 0.16974 0.4445 0.0
H793 H 0.9512 0.16498 0.52269 0.0
H794 H 0.98996 0.14023 0.61335 0.0
H795 H 0.9843 0.1079 0.61544 0.0
H796 H 0.25873 0.01537 0.44751 0.0
H797 H 0.28044 1.00542 0.52195 0.0
H798 H 0.32342 0.0258 0.41356 0.0
H799 H 0.30215 0.03513 0.33854 0.0
H800 H 0.30618 0.97996 0.49262 0.0
H801 H 0.33887 0.04059 0.58099 0.0
H802 H 0.31692 0.04099 0.5472 0.0
H803 H 0.33673 0.04189 0.50179 0.0
C804 C 0.2728 0.01796 0.43993 0.0
C805 C 0.27867 0.02593 0.38664 0.0
C806 C 0.28514 0.0124 0.48277 0.0
C807 C 0.30349 0.01507 0.47353 0.0
C808 C 0.30928 0.02402 0.42228 0.0
H809 H 0.39645 0.96117 0.46172 0.0
H810 H 0.36492 0.96941 0.46375 0.0
C811 C 0.29703 0.02938 0.37927 0.0
C812 C 0.31691 1.00617 0.51142 0.0
H813 H 0.35793 0.01417 0.57147 0.0
C814 C 0.31726 0.9874 0.51171 0.0
C815 C 0.33113 0.01585 0.5375 0.0
C816 C 0.3308 0.03595 0.54247 0.0
C817 C 0.33244 0.97814 0.53113 0.0
C818 C 0.34762 0.98796 0.54971 0.0
C819 C 0.34641 1.00661 0.55604 0.0
C820 C 0.36555 0.97974 0.55365 0.0
C821 C 0.3324 0.95798 0.52861 0.0
C822 C 0.37637 0.98268 0.60355 0.0
C823 C 0.39446 0.97823 0.60195 0.0
C824 C 0.40211 0.97087 0.55048 0.0
C825 C 0.39099 0.96694 0.50188 0.0
C826 C 0.3729 0.97142 0.50336 0.0
H827 H 0.31877 0.95258 0.53692 0.0
H828 H 0.33649 0.95362 0.48355 0.0
H829 H 0.34178 0.95215 0.56156 0.0
H830 H 0.37103 0.98926 0.64254 0.0
H831 H 0.40272 0.98166 0.63958 0.0
H832 H 0.60029 0.2936 0.27473 0.0
H833 H 0.6079 0.32098 0.32897 0.0
H834 H 0.55744 0.31827 0.42095 0.0
H835 H 0.54948 0.29152 0.36622 0.0
H836 H 0.58583 0.35035 0.31126 0.0
H837 H 0.59125 0.33606 0.5511 0.0
H838 H 0.59415 0.31901 0.49501 0.0
H839 H 0.57207 0.32538 0.51862 0.0
C840 C 0.59097 0.29863 0.30744 0.0
C841 C 0.57415 0.29043 0.31539 0.0
C842 C 0.59543 0.31417 0.33875 0.0
C843 C 0.5833 0.32156 0.3793 0.0
C844 C 0.56719 0.31258 0.39092 0.0
H845 H 0.5377 0.41247 0.51909 0.0
H846 H 0.55025 0.38326 0.49532 0.0
C847 C 0.56265 0.29719 0.35937 0.0
C848 C 0.58553 0.34015 0.40061 0.0
H849 H 0.58081 0.36582 0.52463 0.0
C850 C 0.58528 0.35384 0.35797 0.0
C851 C 0.58474 0.34458 0.46149 0.0
C852 C 0.58575 0.33045 0.50918 0.0
C853 C 0.58254 0.37172 0.37424 0.0
C854 C 0.58055 0.37604 0.43509 0.0
C855 C 0.58225 0.36249 0.478 0.0
C856 C 0.57423 0.39388 0.45429 0.0
C857 C 0.58033 0.38551 0.32579 0.0
C858 C 0.58369 0.40958 0.4401 0.0
C859 C 0.57635 0.42635 0.4528 0.0
C860 C 0.55967 0.42761 0.48111 0.0
C861 C 0.55064 0.41187 0.49758 0.0
C862 C 0.55782 0.39519 0.48412 0.0
H863 H 0.5788 0.37929 0.28126 0.0
H864 H 0.56846 0.39401 0.33431 0.0
H865 H 0.59232 0.39428 0.32459 0.0
H866 H 0.59656 0.40888 0.41829 0.0
H867 H 0.58367 0.43831 0.44043 0.0
H868 H 0.19845 0.44704 0.24675 0.0
H869 H 0.17321 0.45079 0.31269 0.0
H870 H 0.20892 0.45507 0.46265 0.0
H871 H 0.23461 0.45156 0.39594 0.0
H872 H 0.15862 0.43621 0.41171 0.0
H873 H 0.18637 0.50409 0.45959 0.0
H874 H 0.19615 0.48977 0.40424 0.0
H875 H 0.19946 0.48513 0.48177 0.0
C876 C 0.20103 0.44812 0.29395 0.0
C877 C 0.21858 0.44923 0.31598 0.0
C878 C 0.18651 0.45034 0.33174 0.0
C879 C 0.18919 0.45366 0.39238 0.0
C880 C 0.20659 0.45299 0.4157 0.0
H881 H 0.08359 0.48467 0.53435 0.0
H882 H 0.11276 0.46979 0.53696 0.0
C883 C 0.22123 0.45092 0.37763 0.0
C884 C 0.17385 0.46019 0.42766 0.0
H885 H 0.15632 0.49919 0.48019 0.0
C886 C 0.15816 0.44983 0.4282 0.0
C887 C 0.17335 0.47801 0.44904 0.0
C888 C 0.18966 0.49 0.44855 0.0
C889 C 0.14165 0.4573 0.44389 0.0
C890 C 0.141 0.47548 0.46124 0.0
C891 C 0.15693 0.4853 0.46641 0.0
C892 C 0.1239 0.48531 0.46469 0.0
C893 C 0.12491 0.44615 0.4367 0.0
C894 C 0.12078 0.49943 0.42481 0.0
C895 C 0.10428 0.50805 0.4237 0.0
C896 C 0.09059 0.50258 0.46214 0.0
C897 C 0.09388 0.48884 0.50337 0.0
C898 C 0.11048 0.48034 0.50492 0.0
H899 H 0.12755 0.43328 0.41371 0.0
H900 H 0.11929 0.44306 0.48112 0.0
H901 H 0.11464 0.45358 0.4111 0.0
H902 H 0.13098 0.50346 0.39335 0.0
H903 H 0.10205 0.51861 0.39163 0.0
H904 H 0.10093 0.78811 0.07508 0.0
H905 H 0.11068 0.81533 0.02345 0.0
H906 H 0.06033 0.81726 0.93047 0.0
H907 H 0.05029 0.79059 0.98243 0.0
H908 H 0.09284 0.82924 0.8626 0.0
H909 H 0.08312 0.86083 0.0848 0.0
H910 H 0.09809 0.84213 0.07861 0.0
H911 H 0.07451 0.83879 0.06855 0.0
C912 C 0.09207 0.79414 0.04278 0.0
C913 C 0.0747 0.78731 0.03375 0.0
C914 C 0.09772 0.8096 0.0131 0.0
C915 C 0.08611 0.81835 0.97384 0.0
C916 C 0.06949 0.81063 0.96051 0.0
H917 H 0.04813 0.90936 0.81319 0.0
H918 H 0.06066 0.8801 0.83492 0.0
C919 C 0.0638 0.79529 0.99026 0.0
C920 C 0.08962 0.83687 0.95411 0.0
H921 H 0.08472 0.8797 1.00285 0.0
C922 C 0.09154 0.84035 0.89327 0.0
C923 C 0.08802 0.85128 0.99439 0.0
C924 C 0.08575 0.84822 0.06026 0.0
C925 C 0.09086 0.8579 0.87124 0.0
C926 C 0.08764 0.87219 0.91103 0.0
C927 C 0.08713 0.86877 0.97229 0.0
C928 C 0.08212 0.89019 0.89042 0.0
C929 C 0.09307 0.86086 0.80541 0.0
C930 C 0.08979 0.9057 0.91505 0.0
C931 C 0.08238 0.9225 0.90355 0.0
C932 C 0.06723 0.92406 0.86699 0.0
C933 C 0.05999 0.90861 0.84068 0.0
C934 C 0.06726 0.89185 0.85269 0.0
H935 H 0.10242 0.85091 0.78619 0.0
H936 H 0.07995 0.85903 0.78312 0.0
H937 H 0.09816 0.87451 0.79546 0.0
H938 H 0.10115 0.90473 0.94479 0.0
H939 H 0.08827 0.93422 0.9241 0.0
H940 H 0.73324 0.9909 0.94247 0.0
H941 H 0.71119 0.99108 0.86305 0.0
H942 H 0.70562 0.04822 0.8819 0.0
H943 H 0.72853 0.04833 0.95864 0.0
H944 H 0.67919 0.99924 0.89666 0.0
H945 H 0.69525 0.04335 0.7086 0.0
H946 H 0.71228 0.03506 0.75839 0.0
H947 H 0.6998 0.05492 0.7766 0.0
C948 C 0.72803 1.00365 0.92783 0.0
C949 C 0.73239 0.01958 0.95793 0.0
C950 C 0.71534 1.0037 0.88234 0.0
C951 C 0.70668 0.01963 0.86647 0.0
C952 C 0.71228 0.03578 0.89247 0.0
H953 H 0.60567 0.06048 0.82985 0.0
H954 H 0.63773 0.05424 0.82604 0.0
C955 C 0.72515 0.03577 0.93738 0.0
C956 C 0.68928 0.01891 0.83508 0.0
H957 H 0.66334 0.04209 0.7371 0.0
C958 C 0.67586 0.00818 0.86037 0.0
C959 C 0.68491 0.03058 0.78786 0.0
C960 C 0.69893 0.04147 0.756 0.0
C961 C 0.65795 0.01001 0.84379 0.0
C962 C 0.65338 0.02273 0.79989 0.0
C963 C 0.66691 0.03248 0.77117 0.0
C964 C 0.63453 0.02761 0.78976 0.0
C965 C 0.64393 0.99935 0.87691 0.0
C966 C 0.62224 0.01492 0.76879 0.0
C967 C 0.60395 0.0184 0.77127 0.0
C968 C 0.59769 0.03467 0.79456 0.0
C969 C 0.6101 0.04784 0.8117 0.0
C970 C 0.6284 0.04432 0.80933 0.0
H971 H 0.64956 0.99219 0.91586 0.0
H972 H 0.63304 0.00822 0.89262 0.0
H973 H 0.63797 0.98925 0.84666 0.0
H974 H 0.62675 1.002 0.75324 0.0
H975 H 0.59469 0.00817 0.75632 0.0
H976 H 0.49379 0.75606 0.90811 0.0
H977 H 0.48566 0.73779 0.82095 0.0
H978 H 0.46674 0.69604 0.9378 0.0
H979 H 0.47462 0.71409 0.02371 0.0
H980 H 0.50005 0.70494 0.79447 0.0
H981 H 0.42747 0.69685 0.81427 0.0
H982 H 0.43927 0.71542 0.84804 0.0
H983 H 0.43694 0.6944 0.88687 0.0
C984 C 0.48754 0.74312 0.91472 0.0
C985 C 0.48491 0.73636 0.97237 0.0
C986 C 0.4829 0.73275 0.86512 0.0
C987 C 0.47523 0.71574 0.87288 0.0
C988 C 0.47215 0.70933 0.9306 0.0
H989 H 0.49484 0.61772 0.84937 0.0
H990 H 0.49543 0.64979 0.83299 0.0
C991 C 0.47689 0.71953 0.97974 0.0
C992 C 0.47251 0.70328 0.82265 0.0
H993 H 0.4444 0.66867 0.79203 0.0
C994 C 0.48766 0.69739 0.79163 0.0
C995 C 0.45622 0.69384 0.8163 0.0
C996 C 0.43903 0.70065 0.84269 0.0
C997 C 0.48766 0.68063 0.7636 0.0
C998 C 0.47238 0.66954 0.76877 0.0
C999 C 0.45637 0.67688 0.78996 0.0
C1000 C 0.47393 0.64982 0.76833 0.0
C1001 C 0.50447 0.67428 0.73348 0.0
C1002 C 0.46147 0.63908 0.73815 0.0
C1003 C 0.46101 0.6206 0.74799 0.0
C1004 C 0.47291 0.6126 0.78852 0.0
C1005 C 0.48566 0.62337 0.81728 0.0
C1006 C 0.48613 0.64174 0.8074 0.0
H1007 H 0.51111 0.68552 0.7098 0.0
H1008 H 0.51399 0.66928 0.76747 0.0
H1009 H 0.50165 0.66337 0.70126 0.0
H1010 H 0.4518 0.64506 0.70841 0.0
H1011 H 0.45126 0.6126 0.72418 0.0
H1012 H 0.76853 0.53728 0.93177 0.0
H1013 H 0.79022 0.53772 0.85117 0.0
H1014 H 0.79837 0.48096 0.87288 0.0
H1015 H 0.77578 0.48018 0.95018 0.0
H1016 H 0.82268 0.53195 0.87785 0.0
H1017 H 0.80698 0.48425 0.70027 0.0
H1018 H 0.79007 0.49195 0.75138 0.0
H1019 H 0.80392 0.47297 0.76962 0.0
C1020 C 0.77428 0.52472 0.91752 0.0
C1021 C 0.77068 0.50873 0.94836 0.0
C1022 C 0.78676 0.52502 0.87144 0.0
C1023 C 0.79598 0.5094 0.85573 0.0
C1024 C 0.79125 0.49316 0.88303 0.0
H1025 H 0.89691 0.4721 0.83433 0.0
H1026 H 0.86488 0.47804 0.82921 0.0
C1027 C 0.77857 0.4928 0.92835 0.0
C1028 C 0.81297 0.51057 0.82201 0.0
H1029 H 0.83924 0.48628 0.7283 0.0
C1030 C 0.8261 0.52241 0.84344 0.0
C1031 C 0.81751 0.49822 0.7769 0.0
C1032 C 0.80374 0.4863 0.74792 0.0
C1033 C 0.84396 0.52095 0.82585 0.0
C1034 C 0.84878 0.50733 0.78555 0.0
C1035 C 0.83547 0.49656 0.75984 0.0
C1036 C 0.86769 0.50236 0.77792 0.0
C1037 C 0.85781 0.53292 0.85452 0.0
C1038 C 0.87975 0.5139 0.74957 0.0
C1039 C 0.8981 0.51062 0.75284 0.0
C1040 C 0.90461 0.49566 0.78405 0.0
C1041 C 0.89235 0.48365 0.80965 0.0
C1042 C 0.87404 0.48699 0.80659 0.0
H1043 H 0.85195 0.54188 0.88864 0.0
H1044 H 0.8684 0.52473 0.87577 0.0
H1045 H 0.86426 0.54136 0.82006 0.0
H1046 H 0.87503 0.52578 0.72695 0.0
H1047 H 0.90718 0.51995 0.73165 0.0
H1048 H 0.99866 0.20412 0.93819 0.0
H1049 H 0.99573 0.17343 0.90212 0.0
H1050 H 0.04413 0.17978 0.80026 0.0
H1051 H 0.04731 0.21047 0.83711 0.0
H1052 H 0.99195 0.15857 0.79524 0.0
H1053 H 0.05578 0.13548 0.89363 0.0
H1054 H 0.04629 0.15701 0.91063 0.0
H1055 H 0.05859 0.15377 0.84286 0.0
C1056 C 0.00857 0.1991 0.90747 0.0
C1057 C 0.02327 0.20979 0.89076 0.0
C1058 C 0.00693 0.18147 0.88709 0.0
C1059 C 0.01991 0.17406 0.84944 0.0
C1060 C 0.03421 0.18494 0.83067 0.0
H1061 H 1.00503 0.07373 0.65486 0.0
H1062 H 0.00875 0.10508 0.68377 0.0
C1063 C 0.03596 0.20255 0.85149 0.0
C1064 C 0.01846 0.15494 0.83048 0.0
H1065 H 0.04061 0.11495 0.83076 0.0
C1066 C 1.00261 0.14905 0.80303 0.0
C1067 C 0.03221 0.14235 0.84153 0.0
C1068 C 0.0491 0.14739 0.87431 0.0
C1069 C 1.00019 0.13109 0.78599 0.0
C1070 C 0.01419 0.11866 0.79511 0.0
C1071 C 0.02997 0.12449 0.82305 0.0
C1072 C 0.01256 0.0995 0.77708 0.0
C1073 C 0.98244 0.12548 0.75998 0.0
C1074 C 0.01425 0.0858 0.81941 0.0
C1075 C 0.01243 0.0678 0.80282 0.0
C1076 C 0.00882 0.06308 0.74346 0.0
C1077 C 0.00748 0.07684 0.70102 0.0
C1078 C 0.00949 0.09481 0.71756 0.0
H1079 H 0.9717 0.13518 0.77079 0.0
H1080 H 0.98362 0.12482 0.71102 0.0
H1081 H 0.97837 0.11206 0.77635 0.0
H1082 H 0.01675 0.08903 0.86557 0.0
H1083 H 0.01358 0.0576 0.83678 0.0
H1084 H 0.30959 0.04892 0.95063 0.0
H1085 H 0.33938 0.04707 0.90763 0.0
H1086 H 0.32418 0.99905 0.81421 0.0
H1087 H 0.29393 1.00126 0.85486 0.0
H1088 H 0.36329 0.02101 0.92488 0.0
H1089 H 0.34927 0.02617 0.68362 0.0
H1090 H 0.33259 0.03111 0.73902 0.0
H1091 H 0.33741 0.00829 0.7194 0.0
C1092 C 0.31231 0.03822 0.9196 0.0
C1093 C 0.29913 0.02532 0.90607 0.0
C1094 C 0.3295 0.03708 0.89546 0.0
C1095 C 0.33408 0.02303 0.85706 0.0
C1096 C 0.32095 0.01023 0.84273 0.0
H1097 H 0.43567 0.99157 0.69651 0.0
H1098 H 0.40474 0.99292 0.73293 0.0
C1099 C 0.30367 0.0114 0.86671 0.0
C1100 C 0.3529 0.02128 0.83565 0.0
H1101 H 0.37897 0.01862 0.71116 0.0
C1102 C 0.36669 0.02059 0.87809 0.0
C1103 C 0.35742 0.02052 0.77458 0.0
C1104 C 0.34342 0.02172 0.72649 0.0
C1105 C 0.38474 0.01913 0.86143 0.0
C1106 C 0.38929 0.01866 0.80046 0.0
C1107 C 0.37552 0.01907 0.75791 0.0
C1108 C 0.40824 0.01778 0.77998 0.0
C1109 C 0.39875 0.0177 0.90946 0.0
C1110 C 0.4206 0.03121 0.79538 0.0
C1111 C 0.4384 0.03024 0.77619 0.0
C1112 C 0.44413 0.01604 0.73997 0.0
C1113 C 0.43166 1.00276 0.72383 0.0
C1114 C 0.41397 1.00356 0.74418 0.0
H1115 H 0.39289 0.01317 0.95223 0.0
H1116 H 0.40949 0.00826 0.89655 0.0
H1117 H 0.40489 0.03105 0.91683 0.0
H1118 H 0.41647 0.0425 0.82206 0.0
H1119 H 0.44761 0.04076 0.78905 0.0
H1120 H 0.47432 0.31031 0.87749 0.0
H1121 H 0.47137 0.34003 0.83178 0.0
H1122 H 0.52383 0.35434 0.89624 0.0
H1123 H 0.52696 0.32477 0.94053 0.0
H1124 H 0.47119 0.37293 0.87735 0.0
H1125 H 0.52889 0.36807 0.72553 0.0
H1126 H 0.52014 0.34892 0.76481 0.0
H1127 H 0.53551 0.36406 0.80083 0.0
C1128 C 0.48524 0.31979 0.88154 0.0
C1129 C 0.50101 0.31504 0.91171 0.0
C1130 C 0.48356 0.33676 0.85537 0.0
C1131 C 0.49757 0.34934 0.85912 0.0
C1132 C 0.51308 0.34473 0.8907 0.0
H1133 H 0.49132 0.4647 0.82606 0.0
H1134 H 0.49093 0.43355 0.85872 0.0
C1135 C 0.51484 0.32778 0.9162 0.0
C1136 C 0.4959 0.36748 0.83197 0.0
H1137 H 0.51796 0.39768 0.74433 0.0
C1138 C 0.48132 0.37827 0.84773 0.0
C1139 C 0.5089 0.37443 0.79229 0.0
C1140 C 0.52412 0.36318 0.76937 0.0
C1141 C 0.47973 0.39594 0.82679 0.0
C1142 C 0.49338 0.40329 0.79043 0.0
C1143 C 0.50761 0.39226 0.77293 0.0
C1144 C 0.49332 0.42235 0.77041 0.0
C1145 C 0.46328 0.40644 0.84338 0.0
C1146 C 0.49548 0.42663 0.71002 0.0
C1147 C 0.49609 0.4445 0.69131 0.0
C1148 C 0.49445 0.45855 0.73252 0.0
C1149 C 0.49236 0.45425 0.79296 0.0
C1150 C 0.49199 0.43638 0.81171 0.0
H1151 H 0.4518 0.39742 0.8531 0.0
H1152 H 0.46607 0.41431 0.88412 0.0
H1153 H 0.45932 0.41579 0.80743 0.0
H1154 H 0.49668 0.41612 0.6772 0.0
H1155 H 0.49776 0.44728 0.64443 0.0
H1156 H 0.19835 0.52586 0.90204 0.0
H1157 H 0.16923 0.53045 0.85619 0.0
H1158 H 0.17214 0.47831 0.77524 0.0
H1159 H 0.20199 0.47427 0.81612 0.0
H1160 H 0.15592 0.49933 0.70274 0.0
H1161 H 0.12508 0.50967 0.92328 0.0
H1162 H 0.14171 0.52629 0.90735 0.0
H1163 H 0.14809 0.50317 0.91498 0.0
C1164 C 0.19311 0.5155 0.87328 0.0
C1165 C 0.20264 0.49949 0.86413 0.0
C1166 C 0.17617 0.51803 0.84791 0.0
C1167 C 0.16802 0.50445 0.81406 0.0
C1168 C 0.17788 0.48891 0.80199 0.0
H1169 H 0.05304 0.49343 0.77479 0.0
H1170 H 0.08455 0.49143 0.802 0.0
C1171 C 0.19498 0.48653 0.82622 0.0
C1172 C 0.14908 0.50607 0.79287 0.0
H1173 H 0.1065 0.51462 0.83988 0.0
C1174 C 0.14511 0.50263 0.73282 0.0
C1175 C 0.13479 0.51002 0.83206 0.0
C1176 C 0.13758 0.5123 0.89806 0.0
C1177 C 0.12743 0.50302 0.71106 0.0
C1178 C 0.11325 0.50768 0.74987 0.0
C1179 C 0.11726 0.51119 0.80976 0.0
C1180 C 0.09408 0.50837 0.73053 0.0
C1181 C 0.12415 0.49775 0.64725 0.0
C1182 C 0.08868 0.51852 0.68106 0.0
C1183 C 0.07059 0.51938 0.66464 0.0
C1184 C 0.05739 0.51053 0.6983 0.0
C1185 C 0.06279 0.50053 0.74805 0.0
C1186 C 0.08087 0.49938 0.76369 0.0
H1187 H 0.13509 0.48922 0.62982 0.0
H1188 H 0.11132 0.49036 0.64229 0.0
H1189 H 0.1236 0.50996 0.61931 0.0
H1190 H 0.09838 0.52606 0.65558 0.0
H1191 H 0.06691 0.5273 0.62624 0.0
H1192 H 0.02582 0.8215 0.40569 0.0
H1193 H 0.02335 0.85084 0.45199 0.0
H1194 H 0.9713 0.83666 0.51998 0.0
H1195 H 0.97356 0.80719 0.47209 0.0
H1196 H 0.97104 0.86984 0.47722 0.0
H1197 H 0.0301 0.86342 0.62281 0.0
H1198 H 0.03601 0.85989 0.54664 0.0
H1199 H 0.02083 0.84462 0.58295 0.0
C1200 C 0.01393 0.8245 0.43116 0.0
C1201 C 1.00001 0.81187 0.43603 0.0
C1202 C 0.01255 0.84131 0.45784 0.0
C1203 C 0.99736 0.84588 0.49105 0.0
C1204 C 0.98325 0.83342 0.49514 0.0
H1205 H 1.00051 0.9423 0.71272 0.0
H1206 H 0.99881 0.91139 0.67775 0.0
C1207 C 0.98453 0.81659 0.46775 0.0
C1208 C 0.99614 0.86385 0.51964 0.0
H1209 H 0.01932 0.89325 0.60714 0.0
C1210 C 0.98151 0.87488 0.50616 0.0
C1211 C 0.00957 0.87041 0.55848 0.0
C1212 C 0.0249 0.85888 0.57909 0.0
C1213 C 0.98029 0.89242 0.52851 0.0
C1214 C 0.99436 0.89939 0.56398 0.0
C1215 C 0.00864 0.88812 0.57922 0.0
C1216 C 0.99468 0.91831 0.58539 0.0
C1217 C 0.96379 0.90317 0.5144 0.0
C1218 C 0.99311 0.93264 0.5453 0.0
C1219 C 0.99384 0.95037 0.56532 0.0
C1220 C 0.99653 0.95423 0.62584 0.0
C1221 C 0.99839 0.93987 0.66582 0.0
C1222 C 0.99742 0.92214 0.64585 0.0
H1223 H 0.95214 0.89433 0.50515 0.0
H1224 H 0.96027 0.91229 0.55145 0.0
H1225 H 0.96627 0.91132 0.47403 0.0
H1226 H 0.99159 0.93015 0.49821 0.0
H1227 H 0.9926 0.96106 0.53311 0.0
H1228 H 0.70291 0.02912 0.50361 0.0
H1229 H 0.67266 0.02921 0.54572 0.0
H1230 H 0.65998 0.98114 0.44863 0.0
H1231 H 0.69009 0.98099 0.40617 0.0
H1232 H 0.63525 0.01098 0.4338 0.0
H1233 H 0.64869 0.99513 0.67085 0.0
H1234 H 0.66155 0.01315 0.63939 0.0
H1235 H 0.66475 0.99075 0.61286 0.0
C1236 C 0.69374 0.01846 0.49173 0.0
C1237 C 0.69899 1.00502 0.45158 0.0
C1238 C 0.67648 0.01847 0.51612 0.0
C1239 C 0.66407 1.00512 0.50063 0.0
C1240 C 0.66936 0.99152 0.4615 0.0
H1241 H 0.54927 0.98834 0.54655 0.0
H1242 H 0.58057 0.98729 0.51534 0.0
C1243 C 0.68664 0.99139 0.43758 0.0
C1244 C 0.64522 1.00594 0.52182 0.0
H1245 H 0.61884 1.00228 0.64506 0.0
C1246 C 0.63165 0.00905 0.48001 0.0
C1247 C 0.64056 1.00371 0.58223 0.0
C1248 C 0.65459 1.00038 0.62907 0.0
C1249 C 0.61357 0.01012 0.49687 0.0
C1250 C 0.60877 0.00732 0.55708 0.0
C1251 C 0.62242 1.00436 0.59899 0.0
C1252 C 0.58974 0.00745 0.57748 0.0
C1253 C 0.59991 0.0148 0.45003 0.0
C1254 C 0.58443 0.01852 0.62468 0.0
C1255 C 0.56659 0.01878 0.64369 0.0
C1256 C 0.55356 0.00812 0.61546 0.0
C1257 C 0.5589 0.9969 0.56872 0.0
C1258 C 0.57681 0.99639 0.55051 0.0
H1259 H 0.60612 0.02217 0.41241 0.0
H1260 H 0.594 1.00231 0.43196 0.0
H1261 H 0.589 0.02312 0.46861 0.0
H1262 H 0.59407 0.02718 0.64638 0.0
H1263 H 0.56295 0.02761 0.67979 0.0
H1264 H 0.48824 0.71872 0.5172 0.0
H1265 H 0.48786 0.68908 0.5637 0.0
H1266 H 0.53544 0.67486 0.46688 0.0
H1267 H 0.53601 0.70442 0.4209 0.0
H1268 H 0.48366 0.65771 0.50866 0.0
H1269 H 0.54803 0.65626 0.62909 0.0
H1270 H 0.53846 0.67672 0.60106 0.0
H1271 H 0.55102 0.66229 0.55264 0.0
C1272 C 0.49877 0.70936 0.50645 0.0
C1273 C 0.5122 0.71403 0.46539 0.0
C1274 C 0.49855 0.69241 0.53315 0.0
C1275 C 0.51174 0.67972 0.51949 0.0
C1276 C 0.52538 0.6845 0.47957 0.0
H1277 H 0.52504 0.56499 0.55441 0.0
H1278 H 0.52711 0.59694 0.5295 0.0
C1279 C 0.52568 0.70147 0.45316 0.0
C1280 C 0.5104 0.66103 0.54262 0.0
H1281 H 0.53424 0.62772 0.61017 0.0
C1282 C 0.49466 0.65125 0.5315 0.0
C1283 C 0.52469 0.65252 0.57275 0.0
C1284 C 0.54142 0.66255 0.59017 0.0
C1285 C 0.49308 0.63312 0.54746 0.0
C1286 C 0.50762 0.62446 0.57548 0.0
C1287 C 0.52321 0.63429 0.58791 0.0
C1288 C 0.50681 0.60519 0.592 0.0
C1289 C 0.47603 0.62321 0.53279 0.0
C1290 C 0.49484 0.59924 0.6357 0.0
C1291 C 0.49362 0.58105 0.64992 0.0
C1292 C 0.50442 0.56836 0.62101 0.0
C1293 C 0.51651 0.57437 0.57745 0.0
C1294 C 0.51776 0.59263 0.56338 0.0
H1295 H 0.4676 0.63068 0.50066 0.0
H1296 H 0.47901 0.60981 0.51401 0.0
H1297 H 0.46817 0.62123 0.57407 0.0
H1298 H 0.48635 0.60868 0.65857 0.0
H1299 H 0.48394 0.5769 0.68287 0.0
H1300 H 0.79775 0.49445 0.49047 0.0
H1301 H 0.82778 0.49525 0.53392 0.0
H1302 H 0.8376 0.54623 0.4503 0.0
H1303 H 0.80765 0.54556 0.40702 0.0
H1304 H 0.85911 0.49535 0.47527 0.0
H1305 H 0.85604 0.55596 0.61566 0.0
H1306 H 0.83627 0.54543 0.58542 0.0
H1307 H 0.8495 0.56034 0.54039 0.0
C1308 C 0.80623 0.50593 0.48182 0.0
C1309 C 0.80018 0.51996 0.44526 0.0
C1310 C 0.8234 0.50639 0.50683 0.0
C1311 C 0.83497 0.5209 0.49611 0.0
C1312 C 0.82884 0.53509 0.46065 0.0
H1313 H 0.94888 0.54085 0.53369 0.0
H1314 H 0.91692 0.5414 0.5089 0.0
C1315 C 0.81165 0.53468 0.43582 0.0
C1316 C 0.85384 0.52055 0.51805 0.0
H1317 H 0.88533 0.54472 0.59441 0.0
C1318 C 0.86475 0.50608 0.50183 0.0
C1319 C 0.8613 0.53449 0.55292 0.0
C1320 C 0.85012 0.54984 0.57516 0.0
C1321 C 0.88294 0.50545 0.51781 0.0
C1322 C 0.89048 0.51963 0.55112 0.0
C1323 C 0.87957 0.53396 0.5683 0.0
C1324 C 0.90973 0.51977 0.56812 0.0
C1325 C 0.89411 0.48982 0.49779 0.0
C1326 C 0.91627 0.50757 0.61014 0.0
C1327 C 0.93445 0.50739 0.62507 0.0
C1328 C 0.9466 0.51922 0.59751 0.0
C1329 C 0.93996 0.53151 0.55561 0.0
C1330 C 0.92168 0.53187 0.54148 0.0
H1331 H 0.88708 0.48147 0.46426 0.0
H1332 H 0.90696 0.49458 0.47862 0.0
H1333 H 0.89729 0.48128 0.53667 0.0
H1334 H 0.90728 0.49813 0.63131 0.0
H1335 H 0.93901 0.49771 0.65745 0.0
loop_
_geom_bond_atom_site_label_1
_geom_bond_atom_site_label_2
_geom_bond_distance
_geom_bond_site_symmetry_2
_ccdc_geom_bond_type
C0 C1 1.386 . S
C0 C2 1.397 . S
C0 H24 0.931 . S
C1 C0 1.386 . S
C1 C5 1.397 . S
C2 C0 1.397 . S
C2 C3 1.384 . S
C2 H25 0.930 . S
C3 C2 1.384 . S
C3 C4 1.377 . S
C3 C6 1.481 . S
C4 C3 1.377 . S
C4 C5 1.389 . S
C4 H26 0.929 . S
C5 C1 1.397 . S
C5 C4 1.389 . S
C5 H27 0.931 . S
C6 C3 1.481 . S
C6 C7 1.387 . S
C6 C11 1.390 . S
C7 C6 1.387 . S
C7 C8 1.401 . S
C7 H28 0.930 . S
C8 C7 1.401 . S
C8 C9 1.376 . S
C8 C17 1.511 . S
C9 C8 1.376 . S
C9 C10 1.392 . S
C9 H30 0.931 . S
C10 C9 1.392 . S
C10 C11 1.361 . S
C10 C12 1.500 . S
C11 C6 1.390 . S
C11 C10 1.361 . S
C11 H29 0.931 . S
C12 C10 1.500 . S
C12 C13 1.371 . S
C12 C14 1.365 . S
C13 C12 1.371 . S
C13 C23 1.386 . S
C13 H31 0.931 . S
C14 C12 1.365 . S
C14 C15 1.409 . S
C14 H32 0.929 . S
C15 C14 1.409 . S
C15 C16 1.380 . S
C15 H33 0.930 . S
C16 C15 1.380 . S
C16 C23 1.357 . S
C17 C8 1.511 . S
C17 C18 1.341 . S
C17 C19 1.371 . S
C18 C17 1.341 . S
C18 C22 1.394 . S
C18 H34 0.930 . S
C19 C17 1.371 . S
C19 C20 1.392 . S
C19 H35 0.931 . S
C20 C19 1.392 . S
C20 C21 1.331 . S
C20 H38 0.932 . S
C21 C20 1.331 . S
C21 C22 1.336 . S
C22 C18 1.394 . S
C22 C21 1.336 . S
C22 H37 0.929 . S
C23 C13 1.386 . S
C23 C16 1.357 . S
C23 H36 0.928 . S
H24 C0 0.931 . S
H25 C2 0.930 . S
H26 C4 0.929 . S
H27 C5 0.931 . S
H28 C7 0.930 . S
H29 C11 0.931 . S
H30 C9 0.931 . S
H31 C13 0.931 . S
H32 C14 0.929 . S
H33 C15 0.930 . S
H34 C18 0.930 . S
H35 C19 0.931 . S
H36 C23 0.928 . S
H37 C22 0.929 . S
H38 C20 0.932 . S
C39 C40 1.394 . S
C39 C41 1.397 . S
C39 H63 0.931 . S
C40 C39 1.394 . S
C40 C44 1.389 1_655 S
C41 C39 1.397 . S
C41 C42 1.389 . S
C41 H64 0.930 . S
C42 C41 1.389 . S
C42 C43 1.373 1_655 S
C42 C45 1.480 . S
C43 C42 1.373 1_455 S
C43 C44 1.389 . S
C43 H65 0.929 . S
C44 C40 1.389 1_455 S
C44 C43 1.389 . S
C44 H66 0.931 . S
C45 C42 1.480 . S
C45 C46 1.388 . S
C45 C50 1.390 . S
C46 C45 1.388 . S
C46 C47 1.402 . S
C46 H67 0.930 . S
C47 C46 1.402 . S
C47 C48 1.376 . S
C47 C56 1.513 . S
C48 C47 1.376 . S
C48 C49 1.392 . S
C48 H69 0.934 . S
C49 C48 1.392 . S
C49 C50 1.361 . S
C49 C51 1.499 1_655 S
C50 C45 1.390 . S
C50 C49 1.361 . S
C50 H68 0.931 . S
C51 C49 1.499 1_455 S
C51 C52 1.364 1_455 S
C51 C53 1.373 . S
C52 C51 1.364 1_655 S
C52 C62 1.386 . S
C52 H70 0.931 . S
C53 C51 1.373 . S
C53 C54 1.409 . S
C53 H71 0.929 . S
C54 C53 1.409 . S
C54 C55 1.378 . S
C54 H72 0.930 . S
C55 C54 1.378 . S
C55 C62 1.360 1_455 S
C56 C47 1.513 . S
C56 C57 1.341 . S
C56 C58 1.371 1_655 S
C57 C56 1.341 . S
C57 C61 1.394 . S
C57 H73 0.930 . S
C58 C56 1.371 1_455 S
C58 C59 1.392 . S
C58 H74 0.931 . S
C59 C58 1.392 . S
C59 C60 1.322 1_455 S
C59 H77 0.932 . S
C60 C59 1.322 1_655 S
C60 C61 1.345 . S
C61 C57 1.394 . S
C61 C60 1.345 . S
C61 H76 0.929 . S
C62 C52 1.386 . S
C62 C55 1.360 1_655 S
C62 H75 0.928 . S
H63 C39 0.931 . S
H64 C41 0.930 . S
H65 C43 0.929 . S
H66 C44 0.931 . S
H67 C46 0.930 . S
H68 C50 0.931 . S
H69 C48 0.934 . S
H70 C52 0.931 . S
H71 C53 0.929 . S
H72 C54 0.930 . S
H73 C57 0.930 . S
H74 C58 0.931 . S
H75 C62 0.928 . S
H76 C61 0.929 . S
H77 C59 0.932 . S
C78 C79 1.386 . S
C78 C80 1.397 . S
C78 H102 0.931 . S
C79 C78 1.386 . S
C79 C83 1.397 1_565 S
C80 C78 1.397 . S
C80 C81 1.384 . S
C80 H103 0.930 . S
C81 C80 1.384 . S
C81 C82 1.377 1_565 S
C81 C84 1.481 . S
C82 C81 1.377 1_545 S
C82 C83 1.389 . S
C82 H104 0.929 . S
C83 C79 1.397 1_545 S
C83 C82 1.389 . S
C83 H105 0.931 . S
C84 C81 1.481 . S
C84 C85 1.387 . S
C84 C89 1.390 . S
C85 C84 1.387 . S
C85 C86 1.401 . S
C85 H106 0.930 . S
C86 C85 1.401 . S
C86 C87 1.376 . S
C86 C95 1.511 . S
C87 C86 1.376 . S
C87 C88 1.392 . S
C87 H108 0.931 . S
C88 C87 1.392 . S
C88 C89 1.361 . S
C88 C90 1.500 . S
C89 C84 1.390 . S
C89 C88 1.361 . S
C89 H107 0.931 . S
C90 C88 1.500 . S
C90 C91 1.371 . S
C90 C92 1.365 1_565 S
C91 C90 1.371 . S
C91 C101 1.386 . S
C91 H109 0.931 . S
C92 C90 1.365 1_545 S
C92 C93 1.409 . S
C92 H110 0.929 . S
C93 C92 1.409 . S
C93 C94 1.380 1_545 S
C93 H111 0.930 . S
C94 C93 1.380 1_565 S
C94 C101 1.357 . S
C95 C86 1.511 . S
C95 C96 1.341 . S
C95 C97 1.371 . S
C96 C95 1.341 . S
C96 C100 1.394 . S
C96 H112 0.930 . S
C97 C95 1.371 . S
C97 C98 1.394 . S
C97 H113 0.931 1_565 S
C98 C97 1.394 . S
C98 C99 1.340 . S
C98 H116 0.922 1_565 S
C99 C98 1.340 . S
C99 C100 1.336 . S
C100 C96 1.394 . S
C100 C99 1.336 . S
C100 H115 0.929 . S
C101 C91 1.386 . S
C101 C94 1.357 . S
C101 H114 0.928 . S
H102 C78 0.931 . S
H103 C80 0.930 . S
H104 C82 0.929 . S
H105 C83 0.931 . S
H106 C85 0.930 . S
H107 C89 0.931 . S
H108 C87 0.931 . S
H109 C91 0.931 . S
H110 C92 0.929 . S
H111 C93 0.930 . S
H112 C96 0.930 . S
H113 C97 0.931 1_545 S
H114 C101 0.928 . S
H115 C100 0.929 . S
H116 C98 0.922 1_545 S
C117 C118 1.386 . S
C117 C119 1.397 . S
C117 H141 0.931 . S
C118 C117 1.386 . S
C118 C122 1.397 . S
C119 C117 1.397 . S
C119 C120 1.384 . S
C119 H142 0.930 . S
C120 C119 1.384 . S
C120 C121 1.377 . S
C120 C123 1.481 . S
C121 C120 1.377 . S
C121 C122 1.389 . S
C121 H143 0.929 . S
C122 C118 1.397 . S
C122 C121 1.389 . S
C122 H144 0.931 . S
C123 C120 1.481 . S
C123 C124 1.387 . S
C123 C128 1.390 . S
C124 C123 1.387 . S
C124 C125 1.401 . S
C124 H145 0.930 . S
C125 C124 1.401 . S
C125 C126 1.376 . S
C125 C134 1.511 . S
C126 C125 1.376 . S
C126 C127 1.392 . S
C126 H147 0.931 . S
C127 C126 1.392 . S
C127 C128 1.361 . S
C127 C129 1.500 . S
C128 C123 1.390 . S
C128 C127 1.361 . S
C128 H146 0.931 . S
C129 C127 1.500 . S
C129 C130 1.371 . S
C129 C131 1.365 . S
C130 C129 1.371 . S
C130 C140 1.386 . S
C130 H148 0.931 . S
C131 C129 1.365 . S
C131 C132 1.409 . S
C131 H149 0.929 . S
C132 C131 1.409 . S
C132 C133 1.380 . S
C132 H150 0.930 . S
C133 C132 1.380 . S
C133 C140 1.357 . S
C134 C125 1.511 . S
C134 C135 1.341 . S
C134 C136 1.371 . S
C135 C134 1.341 . S
C135 C139 1.394 . S
C135 H151 0.930 . S
C136 C134 1.371 . S
C136 C137 1.392 . S
C136 H152 0.931 . S
C137 C136 1.392 . S
C137 C138 1.331 . S
C137 H155 0.932 . S
C138 C137 1.331 . S
C138 C139 1.336 . S
C139 C135 1.394 . S
C139 C138 1.336 . S
C139 H154 0.929 . S
C140 C130 1.386 . S
C140 C133 1.357 . S
C140 H153 0.928 . S
H141 C117 0.931 . S
H142 C119 0.930 . S
H143 C121 0.929 . S
H144 C122 0.931 . S
H145 C124 0.930 . S
H146 C128 0.931 . S
H147 C126 0.931 . S
H148 C130 0.931 . S
H149 C131 0.929 . S
H150 C132 0.930 . S
H151 C135 0.930 . S
H152 C136 0.931 . S
H153 C140 0.928 . S
H154 C139 0.929 . S
H155 C137 0.932 . S
C156 C157 1.386 . S
C156 C158 1.397 . S
C156 H180 0.931 . S
C157 C156 1.386 . S
C157 C161 1.397 . S
C158 C156 1.397 . S
C158 C159 1.384 . S
C158 H181 0.930 . S
C159 C158 1.384 . S
C159 C160 1.377 . S
C159 C162 1.481 . S
C160 C159 1.377 . S
C160 C161 1.389 . S
C160 H182 0.929 . S
C161 C157 1.397 . S
C161 C160 1.389 . S
C161 H183 0.931 . S
C162 C159 1.481 . S
C162 C163 1.387 . S
C162 C167 1.390 . S
C163 C162 1.387 . S
C163 C164 1.401 . S
C163 H184 0.930 . S
C164 C163 1.401 . S
C164 C165 1.376 1_554 S
C164 C173 1.511 . S
C165 C164 1.376 1_556 S
C165 C166 1.392 . S
C165 H186 0.931 . S
C166 C165 1.392 . S
C166 C167 1.361 1_556 S
C166 C168 1.500 . S
C167 C162 1.390 . S
C167 C166 1.361 1_554 S
C167 H185 0.931 . S
C168 C166 1.500 . S
C168 C169 1.371 . S
C168 C170 1.365 . S
C169 C168 1.371 . S
C169 C179 1.386 . S
C169 H187 0.931 . S
C170 C168 1.365 . S
C170 C171 1.409 . S
C170 H188 0.929 . S
C171 C170 1.409 . S
C171 C172 1.380 . S
C171 H189 0.930 . S
C172 C171 1.380 . S
C172 C179 1.357 . S
C173 C164 1.511 . S
C173 C174 1.341 . S
C173 C175 1.371 . S
C174 C173 1.341 . S
C174 C178 1.394 . S
C174 H190 0.930 . S
C175 C173 1.371 . S
C175 C176 1.392 . S
C175 H191 0.931 1_554 S
C176 C175 1.392 . S
C176 C177 1.331 . S
C176 H194 0.932 . S
C177 C176 1.331 . S
C177 C178 1.336 . S
C178 C174 1.394 . S
C178 C177 1.336 . S
C178 H193 0.929 . S
C179 C169 1.386 . S
C179 C172 1.357 . S
C179 H192 0.928 . S
H180 C156 0.931 . S
H181 C158 0.930 . S
H182 C160 0.929 . S
H183 C161 0.931 . S
H184 C163 0.930 . S
H185 C167 0.931 . S
H186 C165 0.931 . S
H187 C169 0.931 . S
H188 C170 0.929 . S
H189 C171 0.930 . S
H190 C174 0.930 . S
H191 C175 0.931 1_556 S
H192 C179 0.928 . S
H193 C178 0.929 . S
H194 C176 0.932 . S
C195 C196 1.385 . S
C195 C197 1.397 . S
C195 H219 0.931 . S
C196 C195 1.385 . S
C196 C200 1.398 1_655 S
C197 C195 1.397 . S
C197 C198 1.389 1_655 S
C197 H220 0.930 . S
C198 C197 1.389 1_455 S
C198 C199 1.373 . S
C198 C201 1.480 1_455 S
C199 C198 1.373 . S
C199 C200 1.389 . S
C199 H221 0.929 . S
C200 C196 1.398 1_455 S
C200 C199 1.389 . S
C200 H222 0.931 . S
C201 C198 1.480 1_655 S
C201 C202 1.386 . S
C201 C206 1.390 . S
C202 C201 1.386 . S
C202 C203 1.400 . S
C202 H223 0.935 . S
C203 C202 1.400 . S
C203 C204 1.376 1_554 S
C203 C212 1.512 . S
C204 C203 1.376 1_556 S
C204 C205 1.392 1_655 S
C204 H225 0.933 . S
C205 C204 1.392 1_455 S
C205 C206 1.361 1_456 S
C205 C207 1.499 . S
C206 C201 1.390 . S
C206 C205 1.361 1_654 S
C206 H224 0.931 1_655 S
C207 C205 1.499 . S
C207 C208 1.357 1_455 S
C207 C209 1.380 . S
C208 C207 1.357 1_655 S
C208 C218 1.386 . S
C208 H226 0.931 . S
C209 C207 1.380 . S
C209 C210 1.409 . S
C209 H227 0.929 . S
C210 C209 1.409 . S
C210 C211 1.384 . S
C210 H228 0.930 . S
C211 C210 1.384 . S
C211 C218 1.353 1_455 S
C212 C203 1.512 . S
C212 C213 1.341 . S
C212 C214 1.371 1_655 S
C213 C212 1.341 . S
C213 C217 1.394 . S
C213 H229 0.930 . S
C214 C212 1.371 1_455 S
C214 C215 1.392 . S
C214 H230 0.931 1_554 S
C215 C214 1.392 . S
C215 C216 1.326 1_455 S
C215 H233 0.932 . S
C216 C215 1.326 1_655 S
C216 C217 1.340 . S
C217 C213 1.394 . S
C217 C216 1.340 . S
C217 H232 0.929 . S
C218 C208 1.386 . S
C218 C211 1.353 1_655 S
C218 H231 0.928 . S
H219 C195 0.931 . S
H220 C197 0.930 . S
H221 C199 0.929 . S
H222 C200 0.931 . S
H223 C202 0.935 . S
H224 C206 0.931 1_455 S
H225 C204 0.933 . S
H226 C208 0.931 . S
H227 C209 0.929 . S
H228 C210 0.930 . S
H229 C213 0.930 . S
H230 C214 0.931 1_556 S
H231 C218 0.928 . S
H232 C217 0.929 . S
H233 C215 0.932 . S
C234 C235 1.386 . S
C234 C236 1.397 . S
C234 H258 0.931 1_545 S
C235 C234 1.386 . S
C235 C239 1.397 . S
C236 C234 1.397 . S
C236 C237 1.384 . S
C236 H259 0.930 1_545 S
C237 C236 1.384 . S
C237 C238 1.377 . S
C237 C240 1.481 . S
C238 C237 1.377 . S
C238 C239 1.389 . S
C238 H260 0.929 . S
C239 C235 1.397 . S
C239 C238 1.389 . S
C239 H261 0.931 . S
C240 C237 1.481 . S
C240 C241 1.387 . S
C240 C245 1.390 . S
C241 C240 1.387 . S
C241 C242 1.401 . S
C241 H262 0.930 . S
C242 C241 1.401 . S
C242 C243 1.376 1_554 S
C242 C251 1.511 . S
C243 C242 1.376 1_556 S
C243 C244 1.392 . S
C243 H264 0.931 . S
C244 C243 1.392 . S
C244 C245 1.361 1_556 S
C244 C246 1.500 . S
C245 C240 1.390 . S
C245 C244 1.361 1_554 S
C245 H263 0.931 . S
C246 C244 1.500 . S
C246 C247 1.371 . S
C246 C248 1.365 . S
C247 C246 1.371 . S
C247 C257 1.386 . S
C247 H265 0.917 1_545 S
C248 C246 1.365 . S
C248 C249 1.409 . S
C248 H266 0.929 . S
C249 C248 1.409 . S
C249 C250 1.380 . S
C249 H267 0.930 . S
C250 C249 1.380 . S
C250 C257 1.357 . S
C251 C242 1.511 . S
C251 C252 1.341 . S
C251 C253 1.371 . S
C252 C251 1.341 . S
C252 C256 1.394 . S
C252 H268 0.930 . S
C253 C251 1.371 . S
C253 C254 1.392 . S
C253 H269 0.931 1_554 S
C254 C253 1.392 . S
C254 C255 1.331 . S
C254 H272 0.932 . S
C255 C254 1.331 . S
C255 C256 1.336 . S
C256 C252 1.394 . S
C256 C255 1.336 . S
C256 H271 0.929 . S
C257 C247 1.386 . S
C257 C250 1.357 . S
C257 H270 0.924 1_545 S
H258 C234 0.931 1_565 S
H259 C236 0.930 1_565 S
H260 C238 0.929 . S
H261 C239 0.931 . S
H262 C241 0.930 . S
H263 C245 0.931 . S
H264 C243 0.931 . S
H265 C247 0.917 1_565 S
H266 C248 0.929 . S
H267 C249 0.930 . S
H268 C252 0.930 . S
H269 C253 0.931 1_556 S
H270 C257 0.924 1_565 S
H271 C256 0.929 . S
H272 C254 0.932 . S
C273 C274 1.386 . S
C273 C275 1.397 . S
C273 H297 0.931 . S
C274 C273 1.386 . S
C274 C278 1.397 . S
C275 C273 1.397 . S
C275 C276 1.384 . S
C275 H298 0.930 . S
C276 C275 1.384 . S
C276 C277 1.377 . S
C276 C279 1.481 . S
C277 C276 1.377 . S
C277 C278 1.389 . S
C277 H299 0.929 . S
C278 C274 1.397 . S
C278 C277 1.389 . S
C278 H300 0.931 . S
C279 C276 1.481 . S
C279 C280 1.387 . S
C279 C284 1.390 1_556 S
C280 C279 1.387 . S
C280 C281 1.401 1_556 S
C280 H301 0.930 . S
C281 C280 1.401 1_554 S
C281 C282 1.376 . S
C281 C290 1.511 . S
C282 C281 1.376 . S
C282 C283 1.392 . S
C282 H303 0.931 . S
C283 C282 1.392 . S
C283 C284 1.361 . S
C283 C285 1.500 . S
C284 C279 1.390 1_554 S
C284 C283 1.361 . S
C284 H302 0.931 . S
C285 C283 1.500 . S
C285 C286 1.371 . S
C285 C287 1.365 . S
C286 C285 1.371 . S
C286 C296 1.386 . S
C286 H304 0.931 . S
C287 C285 1.365 . S
C287 C288 1.409 . S
C287 H305 0.929 . S
C288 C287 1.409 . S
C288 C289 1.380 . S
C288 H306 0.930 . S
C289 C288 1.380 . S
C289 C296 1.357 . S
C290 C281 1.511 . S
C290 C291 1.341 . S
C290 C292 1.371 . S
C291 C290 1.341 . S
C291 C295 1.394 . S
C291 H307 0.930 1_554 S
C292 C290 1.371 . S
C292 C293 1.392 . S
C292 H308 0.931 . S
C293 C292 1.392 . S
C293 C294 1.331 . S
C293 H311 0.932 . S
C294 C293 1.331 . S
C294 C295 1.336 . S
C295 C291 1.394 . S
C295 C294 1.336 . S
C295 H310 0.929 . S
C296 C286 1.386 . S
C296 C289 1.357 . S
C296 H309 0.928 . S
H297 C273 0.931 . S
H298 C275 0.930 . S
H299 C277 0.929 . S
H300 C278 0.931 . S
H301 C280 0.930 . S
H302 C284 0.931 . S
H303 C282 0.931 . S
H304 C286 0.931 . S
H305 C287 0.929 . S
H306 C288 0.930 . S
H307 C291 0.930 1_556 S
H308 C292 0.931 . S
H309 C296 0.928 . S
H310 C295 0.929 . S
H311 C293 0.932 . S
Ho312 C315 2.811 . S
Ho312 O332 2.322 . S
Ho312 O334 2.378 . S
Ho312 O335 2.538 . S
Ho312 O336 2.381 . S
Ho312 O337 2.669 1_565 S
Ho312 O339 2.346 1_565 S
Ho312 O343 2.315 1_455 S
Ho313 C324 2.811 . S
Ho313 O333 2.346 1_545 S
Ho313 O337 2.305 1_655 S
Ho313 O338 2.322 . S
Ho313 O340 2.378 . S
Ho313 O341 2.532 . S
Ho313 O342 2.381 . S
Ho313 O343 2.648 1_545 S
C314 O332 1.259 1_655 S
C314 O333 1.268 . S
C315 Ho312 2.811 . S
C315 C316 1.488 . S
C315 O334 1.215 . S
C315 O335 1.323 . S
C316 C315 1.488 . S
C316 C317 1.348 . S
C316 C321 1.413 . S
C317 C316 1.348 . S
C317 C318 1.442 . S
C317 H344 0.930 1_455 S
C318 C317 1.442 . S
C318 C319 1.381 . S
C318 H345 0.931 1_455 S
C319 C318 1.381 . S
C319 C320 1.321 . S
C320 C319 1.321 . S
C320 C321 1.403 . S
C320 H346 0.934 . S
C321 C316 1.413 . S
C321 C320 1.403 . S
C321 H347 0.930 . S
C322 O336 1.275 1_545 S
C322 O337 1.256 . S
C323 O338 1.259 1_455 S
C323 O339 1.268 . S
C324 Ho313 2.811 . S
C324 C325 1.488 . S
C324 O340 1.215 . S
C324 O341 1.309 . S
C325 C324 1.488 . S
C325 C326 1.348 . S
C325 C330 1.413 . S
C326 C325 1.348 . S
C326 C327 1.442 . S
C326 H348 0.930 1_655 S
C327 C326 1.442 . S
C327 C328 1.381 . S
C327 H349 0.931 1_655 S
C328 C327 1.381 . S
C328 C329 1.321 . S
C329 C328 1.321 . S
C329 C330 1.403 . S
C329 H350 0.934 . S
C330 C325 1.413 . S
C330 C329 1.403 . S
C330 H351 0.930 . S
C331 O342 1.275 . S
C331 O343 1.242 1_545 S
O332 Ho312 2.322 . S
O332 C314 1.259 1_455 S
O333 Ho313 2.346 1_565 S
O333 C314 1.268 . S
O334 Ho312 2.378 . S
O334 C315 1.215 . S
O335 Ho312 2.538 . S
O335 C315 1.323 . S
O336 Ho312 2.381 . S
O336 C322 1.275 1_565 S
O337 Ho312 2.669 1_545 S
O337 Ho313 2.305 1_455 S
O337 C322 1.256 . S
O338 Ho313 2.322 . S
O338 C323 1.259 1_655 S
O339 Ho312 2.346 1_545 S
O339 C323 1.268 . S
O340 Ho313 2.378 . S
O340 C324 1.215 . S
O341 Ho313 2.532 . S
O341 C324 1.309 . S
O342 Ho313 2.381 . S
O342 C331 1.275 . S
O343 Ho312 2.315 1_655 S
O343 Ho313 2.648 1_565 S
O343 C331 1.242 1_565 S
H344 C317 0.930 1_655 S
H345 C318 0.931 1_655 S
H346 C320 0.934 . S
H347 C321 0.930 . S
H348 C326 0.930 1_455 S
H349 C327 0.931 1_455 S
H350 C329 0.934 . S
H351 C330 0.930 . S
Ho352 C355 2.811 . S
Ho352 O372 2.322 . S
Ho352 O374 2.378 . S
Ho352 O375 2.524 . S
Ho352 O376 2.381 . S
Ho352 O377 2.669 . S
Ho352 O379 2.346 . S
Ho352 O383 2.305 1_545 S
Ho353 C364 2.811 . S
Ho353 O373 2.346 . S
Ho353 O377 2.305 1_565 S
Ho353 O378 2.322 . S
Ho353 O380 2.378 . S
Ho353 O381 2.524 1_565 S
Ho353 O382 2.381 . S
Ho353 O383 2.669 . S
C354 O372 1.259 1_565 S
C354 O373 1.268 . S
C355 Ho352 2.811 . S
C355 C356 1.488 . S
C355 O374 1.215 . S
C355 O375 1.289 . S
C356 C355 1.488 . S
C356 C357 1.348 . S
C356 C361 1.413 . S
C357 C356 1.348 . S
C357 C358 1.442 . S
C357 H384 0.930 1_545 S
C358 C357 1.442 . S
C358 C359 1.381 . S
C358 H385 0.931 1_545 S
C359 C358 1.381 . S
C359 C360 1.321 . S
C360 C359 1.321 . S
C360 C361 1.403 . S
C360 H386 0.934 . S
C361 C356 1.413 . S
C361 C360 1.403 . S
C361 H387 0.930 . S
C362 O376 1.275 . S
C362 O377 1.256 . S
C363 O378 1.259 1_545 S
C363 O379 1.268 . S
C364 Ho353 2.811 . S
C364 C365 1.488 . S
C364 O380 1.215 . S
C364 O381 1.289 1_565 S
C365 C364 1.488 . S
C365 C366 1.348 1_565 S
C365 C370 1.413 . S
C366 C365 1.348 1_545 S
C366 C367 1.442 . S
C366 H388 0.930 . S
C367 C366 1.442 . S
C367 C368 1.378 1_545 S
C367 H389 0.933 . S
C368 C367 1.378 1_565 S
C368 C369 1.321 . S
C369 C368 1.321 . S
C369 C370 1.403 . S
C369 H390 0.934 . S
C370 C365 1.413 . S
C370 C369 1.403 . S
C370 H391 0.930 . S
C371 O382 1.275 . S
C371 O383 1.256 . S
O372 Ho352 2.322 . S
O372 C354 1.259 1_545 S
O373 Ho353 2.346 . S
O373 C354 1.268 . S
O374 Ho352 2.378 . S
O374 C355 1.215 . S
O375 Ho352 2.524 . S
O375 C355 1.289 . S
O376 Ho352 2.381 . S
O376 C362 1.275 . S
O377 Ho352 2.669 . S
O377 Ho353 2.305 1_545 S
O377 C362 1.256 . S
O378 Ho353 2.322 . S
O378 C363 1.259 1_565 S
O379 Ho352 2.346 . S
O379 C363 1.268 . S
O380 Ho353 2.378 . S
O380 C364 1.215 . S
O381 Ho353 2.524 1_545 S
O381 C364 1.289 1_545 S
O382 Ho353 2.381 . S
O382 C371 1.275 . S
O383 Ho352 2.305 1_565 S
O383 Ho353 2.669 . S
O383 C371 1.256 . S
H384 C357 0.930 1_565 S
H385 C358 0.931 1_565 S
H386 C360 0.934 . S
H387 C361 0.930 . S
H388 C366 0.930 . S
H389 C367 0.933 . S
H390 C369 0.934 . S
H391 C370 0.930 . S
Ho392 C395 2.811 . S
Ho392 O412 2.322 . S
Ho392 O414 2.378 . S
Ho392 O415 2.524 . S
Ho392 O416 2.381 . S
Ho392 O417 2.669 . S
Ho392 O419 2.346 . S
Ho392 O423 2.305 . S
Ho393 C404 2.811 . S
Ho393 O413 2.346 . S
Ho393 O417 2.305 . S
Ho393 O418 2.322 . S
Ho393 O420 2.378 . S
Ho393 O421 2.524 . S
Ho393 O422 2.381 . S
Ho393 O423 2.669 . S
C394 O412 1.259 . S
C394 O413 1.268 . S
C395 Ho392 2.811 . S
C395 C396 1.488 . S
C395 O414 1.215 . S
C395 O415 1.289 . S
C396 C395 1.488 . S
C396 C397 1.348 . S
C396 C401 1.413 . S
C397 C396 1.348 . S
C397 C398 1.442 . S
C397 H424 0.930 . S
C398 C397 1.442 . S
C398 C399 1.381 . S
C398 H425 0.931 . S
C399 C398 1.381 . S
C399 C400 1.321 . S
C400 C399 1.321 . S
C400 C401 1.403 . S
C400 H426 0.934 . S
C401 C396 1.413 . S
C401 C400 1.403 . S
C401 H427 0.930 . S
C402 O416 1.275 . S
C402 O417 1.256 . S
C403 O418 1.259 . S
C403 O419 1.268 . S
C404 Ho393 2.811 . S
C404 C405 1.488 . S
C404 O420 1.215 . S
C404 O421 1.289 . S
C405 C404 1.488 . S
C405 C406 1.348 . S
C405 C410 1.413 . S
C406 C405 1.348 . S
C406 C407 1.442 . S
C406 H428 0.930 . S
C407 C406 1.442 . S
C407 C408 1.381 . S
C407 H429 0.931 . S
C408 C407 1.381 . S
C408 C409 1.321 . S
C409 C408 1.321 . S
C409 C410 1.403 . S
C409 H430 0.934 . S
C410 C405 1.413 . S
C410 C409 1.403 . S
C410 H431 0.930 . S
C411 O422 1.275 . S
C411 O423 1.256 . S
O412 Ho392 2.322 . S
O412 C394 1.259 . S
O413 Ho393 2.346 . S
O413 C394 1.268 . S
O414 Ho392 2.378 . S
O414 C395 1.215 . S
O415 Ho392 2.524 . S
O415 C395 1.289 . S
O416 Ho392 2.381 . S
O416 C402 1.275 . S
O417 Ho392 2.669 . S
O417 Ho393 2.305 . S
O417 C402 1.256 . S
O418 Ho393 2.322 . S
O418 C403 1.259 . S
O419 Ho392 2.346 . S
O419 C403 1.268 . S
O420 Ho393 2.378 . S
O420 C404 1.215 . S
O421 Ho393 2.524 . S
O421 C404 1.289 . S
O422 Ho393 2.381 . S
O422 C411 1.275 . S
O423 Ho392 2.305 . S
O423 Ho393 2.669 . S
O423 C411 1.256 . S
H424 C397 0.930 . S
H425 C398 0.931 . S
H426 C400 0.934 . S
H427 C401 0.930 . S
H428 C406 0.930 . S
H429 C407 0.931 . S
H430 C409 0.934 . S
H431 C410 0.930 . S
Ho432 C435 2.811 . S
Ho432 O452 2.322 . S
Ho432 O454 2.378 . S
Ho432 O455 2.524 . S
Ho432 O456 2.381 . S
Ho432 O457 2.669 1_655 S
Ho432 O459 2.346 1_655 S
Ho432 O463 2.305 . S
Ho433 C444 2.811 . S
Ho433 O453 2.346 1_455 S
Ho433 O457 2.305 . S
Ho433 O458 2.322 . S
Ho433 O460 2.378 . S
Ho433 O461 2.524 . S
Ho433 O462 2.381 . S
Ho433 O463 2.669 1_455 S
C434 O452 1.259 . S
C434 O453 1.268 . S
C435 Ho432 2.811 . S
C435 C436 1.488 . S
C435 O454 1.215 . S
C435 O455 1.289 . S
C436 C435 1.488 . S
C436 C437 1.348 . S
C436 C441 1.413 . S
C437 C436 1.348 . S
C437 C438 1.442 . S
C437 H464 0.930 . S
C438 C437 1.442 . S
C438 C439 1.381 . S
C438 H465 0.931 . S
C439 C438 1.381 . S
C439 C440 1.321 . S
C440 C439 1.321 . S
C440 C441 1.403 . S
C440 H466 0.934 . S
C441 C436 1.413 . S
C441 C440 1.403 . S
C441 H467 0.930 . S
C442 O456 1.275 . S
C442 O457 1.256 1_655 S
C443 O458 1.259 . S
C443 O459 1.268 . S
C444 Ho433 2.811 . S
C444 C445 1.488 . S
C444 O460 1.215 . S
C444 O461 1.289 . S
C445 C444 1.488 . S
C445 C446 1.348 . S
C445 C450 1.413 . S
C446 C445 1.348 . S
C446 C447 1.442 . S
C446 H468 0.930 . S
C447 C446 1.442 . S
C447 C448 1.381 . S
C447 H469 0.931 . S
C448 C447 1.381 . S
C448 C449 1.321 . S
C449 C448 1.321 . S
C449 C450 1.403 . S
C449 H470 0.934 . S
C450 C445 1.413 . S
C450 C449 1.403 . S
C450 H471 0.930 . S
C451 O462 1.275 . S
C451 O463 1.256 1_455 S
O452 Ho432 2.322 . S
O452 C434 1.259 . S
O453 Ho433 2.346 1_655 S
O453 C434 1.268 . S
O454 Ho432 2.378 . S
O454 C435 1.215 . S
O455 Ho432 2.524 . S
O455 C435 1.289 . S
O456 Ho432 2.381 . S
O456 C442 1.275 . S
O457 Ho432 2.669 1_455 S
O457 Ho433 2.305 . S
O457 C442 1.256 1_455 S
O458 Ho433 2.322 . S
O458 C443 1.259 . S
O459 Ho432 2.346 1_455 S
O459 C443 1.268 . S
O460 Ho433 2.378 . S
O460 C444 1.215 . S
O461 Ho433 2.524 . S
O461 C444 1.289 . S
O462 Ho433 2.381 . S
O462 C451 1.275 . S
O463 Ho432 2.305 . S
O463 Ho433 2.669 1_655 S
O463 C451 1.256 1_655 S
H464 C437 0.930 . S
H465 C438 0.931 . S
H466 C440 0.934 . S
H467 C441 0.930 . S
H468 C446 0.930 . S
H469 C447 0.931 . S
H470 C449 0.934 . S
H471 C450 0.930 . S
H472 C480 0.929 . S
H473 C482 0.930 . S
H474 C484 0.930 . S
H475 C487 0.929 . S
H476 C490 0.930 . S
H477 C492 0.960 . S
H478 C492 0.960 . S
H479 C492 0.960 . S
C480 H472 0.929 . S
C480 C481 1.377 1_565 S
C480 C482 1.384 . S
C481 C480 1.377 1_545 S
C481 C487 1.390 . S
C482 H473 0.930 . S
C482 C480 1.384 . S
C482 C483 1.372 1_565 S
C483 C482 1.372 1_545 S
C483 C484 1.400 . S
C483 C488 1.490 . S
C484 H474 0.930 . S
C484 C483 1.400 . S
C484 C487 1.386 . S
H485 C501 0.930 . S
H486 C502 0.931 . S
C487 H475 0.929 . S
C487 C481 1.390 . S
C487 C484 1.386 . S
C488 C483 1.490 . S
C488 C490 1.395 . S
C488 C491 1.403 . S
H489 C495 0.930 . S
C490 H476 0.930 . S
C490 C488 1.395 . S
C490 C493 1.403 . S
C491 C488 1.403 . S
C491 C492 1.524 . S
C491 C495 1.400 . S
C492 H477 0.960 . S
C492 H478 0.960 . S
C492 H479 0.960 . S
C492 C491 1.524 . S
C493 C490 1.403 . S
C493 C494 1.392 . S
C493 C497 1.505 . S
C494 C493 1.392 . S
C494 C495 1.385 . S
C494 C496 1.478 . S
C495 H489 0.930 . S
C495 C491 1.400 . S
C495 C494 1.385 . S
C496 C494 1.478 . S
C496 C498 1.381 1_545 S
C496 C502 1.383 . S
C497 C493 1.505 . S
C497 H503 0.954 1_545 S
C497 H504 0.996 . S
C497 H505 0.923 1_545 S
C498 C496 1.381 1_565 S
C498 C499 1.394 . S
C498 H506 0.930 . S
C499 C498 1.394 . S
C499 C500 1.383 1_565 S
C499 H507 0.929 . S
C500 C499 1.383 1_545 S
C500 C501 1.377 . S
C501 H485 0.930 . S
C501 C500 1.377 . S
C501 C502 1.379 . S
C502 H486 0.931 . S
C502 C496 1.383 . S
C502 C501 1.379 . S
H503 C497 0.954 1_565 S
H504 C497 0.996 . S
H505 C497 0.923 1_565 S
H506 C498 0.930 . S
H507 C499 0.929 . S
H508 C516 0.929 . S
H509 C518 0.930 . S
H510 C520 0.930 . S
H511 C523 0.929 . S
H512 C526 0.930 . S
H513 C528 0.960 . S
H514 C528 0.960 . S
H515 C528 0.960 . S
C516 H508 0.929 . S
C516 C517 1.377 . S
C516 C518 1.384 . S
C517 C516 1.377 . S
C517 C523 1.390 . S
C518 H509 0.930 . S
C518 C516 1.384 . S
C518 C519 1.372 . S
C519 C518 1.372 . S
C519 C520 1.400 . S
C519 C524 1.490 . S
C520 H510 0.930 . S
C520 C519 1.400 . S
C520 C523 1.386 . S
H521 C537 0.930 . S
H522 C538 0.931 . S
C523 H511 0.929 . S
C523 C517 1.390 . S
C523 C520 1.386 . S
C524 C519 1.490 . S
C524 C526 1.395 . S
C524 C527 1.403 . S
H525 C531 0.930 . S
C526 H512 0.930 . S
C526 C524 1.395 . S
C526 C529 1.403 . S
C527 C524 1.403 . S
C527 C528 1.524 . S
C527 C531 1.400 . S
C528 H513 0.960 . S
C528 H514 0.960 . S
C528 H515 0.960 . S
C528 C527 1.524 . S
C529 C526 1.403 . S
C529 C530 1.392 . S
C529 C533 1.495 . S
C530 C529 1.392 . S
C530 C531 1.385 . S
C530 C532 1.478 . S
C531 H525 0.930 . S
C531 C527 1.400 . S
C531 C530 1.385 . S
C532 C530 1.478 . S
C532 C534 1.381 . S
C532 C538 1.383 . S
C533 C529 1.495 . S
C533 H539 0.959 . S
C533 H540 0.961 . S
C533 H541 0.960 . S
C534 C532 1.381 . S
C534 C535 1.394 . S
C534 H542 0.930 . S
C535 C534 1.394 . S
C535 C536 1.383 . S
C535 H543 0.929 . S
C536 C535 1.383 . S
C536 C537 1.377 . S
C537 H521 0.930 . S
C537 C536 1.377 . S
C537 C538 1.379 . S
C538 H522 0.931 . S
C538 C532 1.383 . S
C538 C537 1.379 . S
H539 C533 0.959 . S
H540 C533 0.961 . S
H541 C533 0.960 . S
H542 C534 0.930 . S
H543 C535 0.929 . S
H544 C552 0.929 . S
H545 C554 0.930 . S
H546 C556 0.930 . S
H547 C559 0.929 . S
H548 C562 0.930 . S
H549 C564 0.960 . S
H550 C564 0.960 . S
H551 C564 0.960 . S
C552 H544 0.929 . S
C552 C553 1.377 . S
C552 C554 1.384 . S
C553 C552 1.377 . S
C553 C559 1.390 . S
C554 H545 0.930 . S
C554 C552 1.384 . S
C554 C555 1.372 . S
C555 C554 1.372 . S
C555 C556 1.400 . S
C555 C560 1.490 . S
C556 H546 0.930 . S
C556 C555 1.400 . S
C556 C559 1.386 . S
H557 C573 0.930 . S
H558 C574 0.931 . S
C559 H547 0.929 . S
C559 C553 1.390 . S
C559 C556 1.386 . S
C560 C555 1.490 . S
C560 C562 1.395 . S
C560 C563 1.403 . S
H561 C567 0.930 . S
C562 H548 0.930 . S
C562 C560 1.395 . S
C562 C565 1.403 . S
C563 C560 1.403 . S
C563 C564 1.524 . S
C563 C567 1.400 . S
C564 H549 0.960 . S
C564 H550 0.960 . S
C564 H551 0.960 . S
C564 C563 1.524 . S
C565 C562 1.403 . S
C565 C566 1.392 . S
C565 C569 1.495 . S
C566 C565 1.392 . S
C566 C567 1.385 . S
C566 C568 1.478 . S
C567 H561 0.930 . S
C567 C563 1.400 . S
C567 C566 1.385 . S
C568 C566 1.478 . S
C568 C570 1.381 . S
C568 C574 1.383 . S
C569 C565 1.495 . S
C569 H575 0.959 . S
C569 H576 0.961 . S
C569 H577 0.960 . S
C570 C568 1.381 . S
C570 C571 1.394 . S
C570 H578 0.930 . S
C571 C570 1.394 . S
C571 C572 1.383 . S
C571 H579 0.929 . S
C572 C571 1.383 . S
C572 C573 1.377 . S
C573 H557 0.930 . S
C573 C572 1.377 . S
C573 C574 1.379 . S
C574 H558 0.931 . S
C574 C568 1.383 . S
C574 C573 1.379 . S
H575 C569 0.959 . S
H576 C569 0.961 . S
H577 C569 0.960 . S
H578 C570 0.930 . S
H579 C571 0.929 . S
H580 C588 0.929 . S
H581 C590 0.930 . S
H582 C592 0.930 . S
H583 C595 0.929 . S
H584 C598 0.930 . S
H585 C600 0.960 . S
H586 C600 0.960 . S
H587 C600 0.960 . S
C588 H580 0.929 . S
C588 C589 1.388 . S
C588 C590 1.384 . S
C589 C588 1.388 . S
C589 C595 1.379 1_455 S
C590 H581 0.930 . S
C590 C588 1.384 . S
C590 C591 1.372 . S
C591 C590 1.372 . S
C591 C592 1.400 1_455 S
C591 C596 1.490 . S
C592 H582 0.930 . S
C592 C591 1.400 1_655 S
C592 C595 1.386 . S
H593 C609 0.930 . S
H594 C610 0.931 . S
C595 H583 0.929 . S
C595 C589 1.379 1_655 S
C595 C592 1.386 . S
C596 C591 1.490 . S
C596 C598 1.395 . S
C596 C599 1.403 1_455 S
H597 C603 0.930 . S
C598 H584 0.930 . S
C598 C596 1.395 . S
C598 C601 1.403 . S
C599 C596 1.403 1_655 S
C599 C600 1.524 . S
C599 C603 1.400 . S
C600 H585 0.960 . S
C600 H586 0.960 . S
C600 H587 0.960 . S
C600 C599 1.524 . S
C601 C598 1.403 . S
C601 C602 1.392 . S
C601 C605 1.495 . S
C602 C601 1.392 . S
C602 C603 1.385 1_455 S
C602 C604 1.478 . S
C603 H597 0.930 . S
C603 C599 1.400 . S
C603 C602 1.385 1_655 S
C604 C602 1.478 . S
C604 C606 1.381 . S
C604 C610 1.383 1_455 S
C605 C601 1.495 . S
C605 H611 0.959 . S
C605 H612 0.961 . S
C605 H613 0.960 . S
C606 C604 1.381 . S
C606 C607 1.394 . S
C606 H614 0.930 . S
C607 C606 1.394 . S
C607 C608 1.383 . S
C607 H615 0.929 . S
C608 C607 1.383 . S
C608 C609 1.377 1_455 S
C609 H593 0.930 . S
C609 C608 1.377 1_655 S
C609 C610 1.379 . S
C610 H594 0.931 . S
C610 C604 1.383 1_655 S
C610 C609 1.379 . S
H611 C605 0.959 . S
H612 C605 0.961 . S
H613 C605 0.960 . S
H614 C606 0.930 . S
H615 C607 0.929 . S
H616 C624 0.929 . S
H617 C626 0.930 . S
H618 C628 0.930 . S
H619 C631 0.929 . S
H620 C634 0.930 . S
H621 C636 0.960 . S
H622 C636 0.960 . S
H623 C636 0.960 . S
C624 H616 0.929 . S
C624 C625 1.377 . S
C624 C626 1.384 . S
C625 C624 1.377 . S
C625 C631 1.390 1_565 S
C626 H617 0.930 . S
C626 C624 1.384 . S
C626 C627 1.372 . S
C627 C626 1.372 . S
C627 C628 1.400 1_565 S
C627 C632 1.490 . S
C628 H618 0.930 . S
C628 C627 1.400 1_545 S
C628 C631 1.386 . S
H629 C645 0.930 . S
H630 C646 0.931 . S
C631 H619 0.929 . S
C631 C625 1.390 1_545 S
C631 C628 1.386 . S
C632 C627 1.490 . S
C632 C634 1.395 1_564 S
C632 C635 1.403 . S
H633 C639 0.930 . S
C634 H620 0.930 . S
C634 C632 1.395 1_546 S
C634 C637 1.403 . S
C635 C632 1.403 . S
C635 C636 1.524 . S
C635 C639 1.400 1_554 S
C636 H621 0.960 . S
C636 H622 0.960 . S
C636 H623 0.960 . S
C636 C635 1.524 . S
C637 C634 1.403 . S
C637 C638 1.392 1_545 S
C637 C641 1.495 . S
C638 C637 1.392 1_565 S
C638 C639 1.386 . S
C638 C640 1.477 1_565 S
C639 H633 0.930 . S
C639 C635 1.400 1_556 S
C639 C638 1.386 . S
C640 C638 1.477 1_545 S
C640 C642 1.381 1_545 S
C640 C646 1.383 . S
C641 C637 1.495 . S
C641 H647 0.959 . S
C641 H648 0.961 . S
C641 H649 0.960 . S
C642 C640 1.381 1_565 S
C642 C643 1.394 . S
C642 H650 0.930 . S
C643 C642 1.394 . S
C643 C644 1.383 1_565 S
C643 H651 0.929 . S
C644 C643 1.383 1_545 S
C644 C645 1.377 . S
C645 H629 0.930 . S
C645 C644 1.377 . S
C645 C646 1.379 . S
C646 H630 0.931 . S
C646 C640 1.383 . S
C646 C645 1.379 . S
H647 C641 0.959 . S
H648 C641 0.961 . S
H649 C641 0.960 . S
H650 C642 0.930 . S
H651 C643 0.929 . S
H652 C660 0.929 . S
H653 C662 0.930 . S
H654 C664 0.930 . S
H655 C667 0.929 . S
H656 C670 0.930 . S
H657 C672 0.960 . S
H658 C672 0.960 . S
H659 C672 0.960 . S
C660 H652 0.929 . S
C660 C661 1.377 . S
C660 C662 1.384 . S
C661 C660 1.377 . S
C661 C667 1.390 . S
C662 H653 0.930 . S
C662 C660 1.384 . S
C662 C663 1.372 . S
C663 C662 1.372 . S
C663 C664 1.400 . S
C663 C668 1.490 . S
C664 H654 0.930 . S
C664 C663 1.400 . S
C664 C667 1.386 . S
H665 C681 0.930 . S
H666 C682 0.931 . S
C667 H655 0.929 . S
C667 C661 1.390 . S
C667 C664 1.386 . S
C668 C663 1.490 . S
C668 C670 1.395 1_554 S
C668 C671 1.403 . S
H669 C675 0.930 . S
C670 H656 0.930 . S
C670 C668 1.395 1_556 S
C670 C673 1.403 . S
C671 C668 1.403 . S
C671 C672 1.524 . S
C671 C675 1.400 1_554 S
C672 H657 0.960 . S
C672 H658 0.960 . S
C672 H659 0.960 . S
C672 C671 1.524 . S
C673 C670 1.403 . S
C673 C674 1.392 . S
C673 C677 1.495 . S
C674 C673 1.392 . S
C674 C675 1.385 . S
C674 C676 1.478 . S
C675 H669 0.930 . S
C675 C671 1.400 1_556 S
C675 C674 1.385 . S
C676 C674 1.478 . S
C676 C678 1.381 . S
C676 C682 1.383 . S
C677 C673 1.495 . S
C677 H683 0.959 . S
C677 H684 0.961 . S
C677 H685 0.960 . S
C678 C676 1.381 . S
C678 C679 1.394 . S
C678 H686 0.930 . S
C679 C678 1.394 . S
C679 C680 1.383 . S
C679 H687 0.929 . S
C680 C679 1.383 . S
C680 C681 1.377 . S
C681 H665 0.930 . S
C681 C680 1.377 . S
C681 C682 1.379 . S
C682 H666 0.931 . S
C682 C676 1.383 . S
C682 C681 1.379 . S
H683 C677 0.959 . S
H684 C677 0.961 . S
H685 C677 0.960 . S
H686 C678 0.930 . S
H687 C679 0.929 . S
H688 C696 0.929 . S
H689 C698 0.930 . S
H690 C700 0.930 . S
H691 C703 0.929 . S
H692 C706 0.930 . S
H693 C708 0.960 1_556 S
H694 C708 0.960 . S
H695 C708 0.960 . S
C696 H688 0.929 . S
C696 C697 1.377 . S
C696 C698 1.384 . S
C697 C696 1.377 . S
C697 C703 1.390 . S
C698 H689 0.930 . S
C698 C696 1.384 . S
C698 C699 1.372 . S
C699 C698 1.372 . S
C699 C700 1.400 . S
C699 C704 1.490 . S
C700 H690 0.930 . S
C700 C699 1.400 . S
C700 C703 1.386 . S
H701 C717 0.930 . S
H702 C718 0.931 . S
C703 H691 0.929 . S
C703 C697 1.390 . S
C703 C700 1.386 . S
C704 C699 1.490 . S
C704 C706 1.395 . S
C704 C707 1.405 . S
H705 C711 0.930 . S
C706 H692 0.930 . S
C706 C704 1.395 . S
C706 C709 1.403 1_554 S
C707 C704 1.405 . S
C707 C708 1.525 . S
C707 C711 1.396 1_554 S
C708 H693 0.960 1_554 S
C708 H694 0.960 . S
C708 H695 0.960 . S
C708 C707 1.525 . S
C709 C706 1.403 1_556 S
C709 C710 1.392 . S
C709 C713 1.495 . S
C710 C709 1.392 . S
C710 C711 1.385 . S
C710 C712 1.478 . S
C711 H705 0.930 . S
C711 C707 1.396 1_556 S
C711 C710 1.385 . S
C712 C710 1.478 . S
C712 C714 1.381 . S
C712 C718 1.383 . S
C713 C709 1.495 . S
C713 H719 0.959 . S
C713 H720 0.961 . S
C713 H721 0.960 . S
C714 C712 1.381 . S
C714 C715 1.394 . S
C714 H722 0.930 . S
C715 C714 1.394 . S
C715 C716 1.383 . S
C715 H723 0.929 . S
C716 C715 1.383 . S
C716 C717 1.377 . S
C717 H701 0.930 . S
C717 C716 1.377 . S
C717 C718 1.379 . S
C718 H702 0.931 . S
C718 C712 1.383 . S
C718 C717 1.379 . S
H719 C713 0.959 . S
H720 C713 0.961 . S
H721 C713 0.960 . S
H722 C714 0.930 . S
H723 C715 0.929 . S
H724 C732 0.929 . S
H725 C734 0.930 . S
H726 C736 0.930 . S
H727 C739 0.929 . S
H728 C742 0.930 1_554 S
H729 C744 0.960 . S
H730 C744 0.960 . S
H731 C744 0.960 . S
C732 H724 0.929 . S
C732 C733 1.374 1_455 S
C732 C734 1.384 . S
C733 C732 1.374 1_655 S
C733 C739 1.394 . S
C734 H725 0.930 . S
C734 C732 1.384 . S
C734 C735 1.370 1_455 S
C735 C734 1.370 1_655 S
C735 C736 1.402 . S
C735 C740 1.489 1_655 S
C736 H726 0.930 . S
C736 C735 1.402 . S
C736 C739 1.386 . S
H737 C753 0.930 . S
H738 C754 0.928 1_655 S
C739 H727 0.929 . S
C739 C733 1.394 . S
C739 C736 1.386 . S
C740 C735 1.489 1_455 S
C740 C742 1.407 1_554 S
C740 C743 1.391 1_455 S
H741 C747 0.930 . S
C742 H728 0.930 1_556 S
C742 C740 1.407 1_556 S
C742 C745 1.403 . S
C743 C740 1.391 1_655 S
C743 C744 1.524 . S
C743 C747 1.400 1_554 S
C744 H729 0.960 . S
C744 H730 0.960 . S
C744 H731 0.960 . S
C744 C743 1.524 . S
C745 C742 1.403 . S
C745 C746 1.392 . S
C745 C749 1.495 . S
C746 C745 1.392 . S
C746 C747 1.385 1_455 S
C746 C748 1.478 . S
C747 H741 0.930 . S
C747 C743 1.400 1_556 S
C747 C746 1.385 1_655 S
C748 C746 1.478 . S
C748 C750 1.381 . S
C748 C754 1.384 . S
C749 C745 1.495 . S
C749 H755 0.959 . S
C749 H756 0.961 . S
C749 H757 0.960 . S
C750 C748 1.381 . S
C750 C751 1.394 . S
C750 H758 0.930 . S
C751 C750 1.394 . S
C751 C752 1.389 . S
C751 H759 0.929 . S
C752 C751 1.389 . S
C752 C753 1.374 1_455 S
C753 H737 0.930 . S
C753 C752 1.374 1_655 S
C753 C754 1.379 1_655 S
C754 H738 0.928 1_455 S
C754 C748 1.384 . S
C754 C753 1.379 1_455 S
H755 C749 0.959 . S
H756 C749 0.961 . S
H757 C749 0.960 . S
H758 C750 0.930 . S
H759 C751 0.929 . S
H760 C768 0.929 . S
H761 C770 0.930 . S
H762 C772 0.927 1_455 S
H763 C775 0.929 . S
H764 C778 0.930 . S
H765 C780 0.960 . S
H766 C780 0.960 . S
H767 C780 0.960 . S
C768 H760 0.929 . S
C768 C769 1.377 1_655 S
C768 C770 1.384 . S
C769 C768 1.377 1_455 S
C769 C775 1.390 . S
C770 H761 0.930 . S
C770 C768 1.384 . S
C770 C771 1.372 . S
C771 C770 1.372 . S
C771 C772 1.408 . S
C771 C776 1.490 . S
C772 H762 0.927 1_655 S
C772 C771 1.408 . S
C772 C775 1.380 1_655 S
H773 C789 0.930 . S
H774 C790 0.931 . S
C775 H763 0.929 . S
C775 C769 1.390 . S
C775 C772 1.380 1_455 S
C776 C771 1.490 . S
C776 C778 1.395 . S
C776 C779 1.403 1_655 S
H777 C783 0.930 1_455 S
C778 H764 0.930 . S
C778 C776 1.395 . S
C778 C781 1.403 . S
C779 C776 1.403 1_455 S
C779 C780 1.524 . S
C779 C783 1.400 1_455 S
C780 H765 0.960 . S
C780 H766 0.960 . S
C780 H767 0.960 . S
C780 C779 1.524 . S
C781 C778 1.403 . S
C781 C782 1.392 . S
C781 C785 1.495 . S
C782 C781 1.392 . S
C782 C783 1.385 . S
C782 C784 1.478 . S
C783 H777 0.930 1_655 S
C783 C779 1.400 1_655 S
C783 C782 1.385 . S
C784 C782 1.478 . S
C784 C786 1.381 . S
C784 C790 1.383 . S
C785 C781 1.495 . S
C785 H791 0.959 . S
C785 H792 0.961 . S
C785 H793 0.960 . S
C786 C784 1.381 . S
C786 C787 1.394 . S
C786 H794 0.930 . S
C787 C786 1.394 . S
C787 C788 1.383 . S
C787 H795 0.929 . S
C788 C787 1.383 . S
C788 C789 1.377 . S
C789 H773 0.930 . S
C789 C788 1.377 . S
C789 C790 1.379 . S
C790 H774 0.931 . S
C790 C784 1.383 . S
C790 C789 1.379 . S
H791 C785 0.959 . S
H792 C785 0.961 . S
H793 C785 0.960 . S
H794 C786 0.930 . S
H795 C787 0.929 . S
H796 C804 0.929 . S
H797 C806 0.926 1_565 S
H798 C808 0.930 . S
H799 C811 0.929 . S
H800 C814 0.930 . S
H801 C816 0.960 . S
H802 C816 0.960 . S
H803 C816 0.960 . S
C804 H796 0.929 . S
C804 C805 1.377 . S
C804 C806 1.384 . S
C805 C804 1.377 . S
C805 C811 1.390 . S
C806 H797 0.926 1_545 S
C806 C804 1.384 . S
C806 C807 1.372 . S
C807 C806 1.372 . S
C807 C808 1.400 . S
C807 C812 1.490 . S
C808 H798 0.930 . S
C808 C807 1.400 . S
C808 C811 1.386 . S
H809 C825 0.930 . S
H810 C826 0.931 . S
C811 H799 0.929 . S
C811 C805 1.390 . S
C811 C808 1.386 . S
C812 C807 1.490 . S
C812 C814 1.395 1_545 S
C812 C815 1.403 . S
H813 C819 0.930 . S
C814 H800 0.930 . S
C814 C812 1.395 1_565 S
C814 C817 1.403 . S
C815 C812 1.403 . S
C815 C816 1.524 . S
C815 C819 1.400 . S
C816 H801 0.960 . S
C816 H802 0.960 . S
C816 H803 0.960 . S
C816 C815 1.524 . S
C817 C814 1.403 . S
C817 C818 1.392 . S
C817 C821 1.495 . S
C818 C817 1.392 . S
C818 C819 1.385 1_565 S
C818 C820 1.478 . S
C819 H813 0.930 . S
C819 C815 1.400 . S
C819 C818 1.385 1_545 S
C820 C818 1.478 . S
C820 C822 1.381 . S
C820 C826 1.383 . S
C821 C817 1.495 . S
C821 H827 0.959 . S
C821 H828 0.961 . S
C821 H829 0.960 . S
C822 C820 1.381 . S
C822 C823 1.394 . S
C822 H830 0.930 . S
C823 C822 1.394 . S
C823 C824 1.383 . S
C823 H831 0.929 . S
C824 C823 1.383 . S
C824 C825 1.377 . S
C825 H809 0.930 . S
C825 C824 1.377 . S
C825 C826 1.379 . S
C826 H810 0.931 . S
C826 C820 1.383 . S
C826 C825 1.379 . S
H827 C821 0.959 . S
H828 C821 0.961 . S
H829 C821 0.960 . S
H830 C822 0.930 . S
H831 C823 0.929 . S
H832 C840 0.929 . S
H833 C842 0.930 . S
H834 C844 0.930 . S
H835 C847 0.929 . S
H836 C850 0.930 . S
H837 C852 0.960 . S
H838 C852 0.960 . S
H839 C852 0.960 . S
C840 H832 0.929 . S
C840 C841 1.377 . S
C840 C842 1.384 . S
C841 C840 1.377 . S
C841 C847 1.390 . S
C842 H833 0.930 . S
C842 C840 1.384 . S
C842 C843 1.372 . S
C843 C842 1.372 . S
C843 C844 1.400 . S
C843 C848 1.490 . S
C844 H834 0.930 . S
C844 C843 1.400 . S
C844 C847 1.386 . S
H845 C861 0.930 . S
H846 C862 0.931 . S
C847 H835 0.929 . S
C847 C841 1.390 . S
C847 C844 1.386 . S
C848 C843 1.490 . S
C848 C850 1.395 . S
C848 C851 1.403 . S
H849 C855 0.930 . S
C850 H836 0.930 . S
C850 C848 1.395 . S
C850 C853 1.403 . S
C851 C848 1.403 . S
C851 C852 1.524 . S
C851 C855 1.400 . S
C852 H837 0.960 . S
C852 H838 0.960 . S
C852 H839 0.960 . S
C852 C851 1.524 . S
C853 C850 1.403 . S
C853 C854 1.392 . S
C853 C857 1.495 . S
C854 C853 1.392 . S
C854 C855 1.385 . S
C854 C856 1.478 . S
C855 H849 0.930 . S
C855 C851 1.400 . S
C855 C854 1.385 . S
C856 C854 1.478 . S
C856 C858 1.381 . S
C856 C862 1.383 . S
C857 C853 1.495 . S
C857 H863 0.959 . S
C857 H864 0.961 . S
C857 H865 0.960 . S
C858 C856 1.381 . S
C858 C859 1.394 . S
C858 H866 0.930 . S
C859 C858 1.394 . S
C859 C860 1.383 . S
C859 H867 0.929 . S
C860 C859 1.383 . S
C860 C861 1.377 . S
C861 H845 0.930 . S
C861 C860 1.377 . S
C861 C862 1.379 . S
C862 H846 0.931 . S
C862 C856 1.383 . S
C862 C861 1.379 . S
H863 C857 0.959 . S
H864 C857 0.961 . S
H865 C857 0.960 . S
H866 C858 0.930 . S
H867 C859 0.929 . S
H868 C876 0.929 . S
H869 C878 0.930 . S
H870 C880 0.930 . S
H871 C883 0.929 . S
H872 C886 0.930 . S
H873 C888 0.960 . S
H874 C888 0.960 . S
H875 C888 0.960 . S
C876 H868 0.929 . S
C876 C877 1.377 . S
C876 C878 1.384 . S
C877 C876 1.377 . S
C877 C883 1.390 . S
C878 H869 0.930 . S
C878 C876 1.384 . S
C878 C879 1.372 . S
C879 C878 1.372 . S
C879 C880 1.400 . S
C879 C884 1.490 . S
C880 H870 0.930 . S
C880 C879 1.400 . S
C880 C883 1.386 . S
H881 C897 0.930 . S
H882 C898 0.931 . S
C883 H871 0.929 . S
C883 C877 1.390 . S
C883 C880 1.386 . S
C884 C879 1.490 . S
C884 C886 1.395 . S
C884 C887 1.403 . S
H885 C891 0.930 . S
C886 H872 0.930 . S
C886 C884 1.395 . S
C886 C889 1.403 . S
C887 C884 1.403 . S
C887 C888 1.524 . S
C887 C891 1.400 . S
C888 H873 0.960 . S
C888 H874 0.960 . S
C888 H875 0.960 . S
C888 C887 1.524 . S
C889 C886 1.403 . S
C889 C890 1.392 . S
C889 C893 1.495 . S
C890 C889 1.392 . S
C890 C891 1.385 . S
C890 C892 1.478 . S
C891 H885 0.930 . S
C891 C887 1.400 . S
C891 C890 1.385 . S
C892 C890 1.478 . S
C892 C894 1.381 . S
C892 C898 1.383 . S
C893 C889 1.495 . S
C893 H899 0.959 . S
C893 H900 0.961 . S
C893 H901 0.960 . S
C894 C892 1.381 . S
C894 C895 1.394 . S
C894 H902 0.930 . S
C895 C894 1.394 . S
C895 C896 1.383 . S
C895 H903 0.929 . S
C896 C895 1.383 . S
C896 C897 1.377 . S
C897 H881 0.930 . S
C897 C896 1.377 . S
C897 C898 1.379 . S
C898 H882 0.931 . S
C898 C892 1.383 . S
C898 C897 1.379 . S
H899 C893 0.959 . S
H900 C893 0.961 . S
H901 C893 0.960 . S
H902 C894 0.930 . S
H903 C895 0.929 . S
H904 C912 0.929 . S
H905 C914 0.930 . S
H906 C916 0.930 . S
H907 C919 0.929 . S
H908 C922 0.930 . S
H909 C924 0.960 . S
H910 C924 0.958 . S
H911 C924 0.960 . S
C912 H904 0.929 . S
C912 C913 1.377 1_455 S
C912 C914 1.384 . S
C913 C912 1.377 1_655 S
C913 C919 1.390 . S
C914 H905 0.930 . S
C914 C912 1.384 . S
C914 C915 1.372 . S
C915 C914 1.372 . S
C915 C916 1.400 1_455 S
C915 C920 1.490 . S
C916 H906 0.930 . S
C916 C915 1.400 1_655 S
C916 C919 1.386 . S
H917 C933 0.930 . S
H918 C934 0.931 1_655 S
C919 H907 0.929 . S
C919 C913 1.390 . S
C919 C916 1.386 . S
C920 C915 1.490 . S
C920 C922 1.395 1_554 S
C920 C923 1.403 . S
H921 C927 0.930 1_554 S
C922 H908 0.930 . S
C922 C920 1.395 1_556 S
C922 C925 1.403 . S
C923 C920 1.403 . S
C923 C924 1.524 1_455 S
C923 C927 1.400 1_554 S
C924 H909 0.960 . S
C924 H910 0.958 . S
C924 H911 0.960 . S
C924 C923 1.524 1_655 S
C925 C922 1.403 . S
C925 C926 1.392 . S
C925 C929 1.495 . S
C926 C925 1.392 . S
C926 C927 1.385 . S
C926 C928 1.478 . S
C927 H921 0.930 1_556 S
C927 C923 1.400 1_556 S
C927 C926 1.385 . S
C928 C926 1.478 . S
C928 C930 1.381 . S
C928 C934 1.383 . S
C929 C925 1.495 . S
C929 H935 0.959 . S
C929 H936 0.961 . S
C929 H937 0.960 . S
C930 C928 1.381 . S
C930 C931 1.394 . S
C930 H938 0.930 . S
C931 C930 1.394 . S
C931 C932 1.383 . S
C931 H939 0.929 . S
C932 C931 1.383 . S
C932 C933 1.377 . S
C933 H917 0.930 . S
C933 C932 1.377 . S
C933 C934 1.379 . S
C934 H918 0.931 1_455 S
C934 C928 1.383 . S
C934 C933 1.379 . S
H935 C929 0.959 . S
H936 C929 0.961 . S
H937 C929 0.960 . S
H938 C930 0.930 . S
H939 C931 0.929 . S
H940 C948 0.929 . S
H941 C950 0.930 . S
H942 C952 0.930 . S
H943 C955 0.929 . S
H944 C958 0.923 1_565 S
H945 C960 0.960 . S
H946 C960 0.960 . S
H947 C960 0.960 . S
C948 H940 0.929 . S
C948 C949 1.377 . S
C948 C950 1.384 . S
C949 C948 1.377 . S
C949 C955 1.390 1_565 S
C950 H941 0.930 . S
C950 C948 1.384 . S
C950 C951 1.348 1_565 S
C951 C950 1.348 1_545 S
C951 C952 1.418 . S
C951 C956 1.496 . S
C952 H942 0.930 . S
C952 C951 1.418 . S
C952 C955 1.386 . S
H953 C969 0.930 . S
H954 C970 0.931 . S
C955 H943 0.929 . S
C955 C949 1.390 1_545 S
C955 C952 1.386 . S
C956 C951 1.496 . S
C956 C958 1.398 . S
C956 C959 1.403 1_554 S
H957 C963 0.930 . S
C958 H944 0.923 1_545 S
C958 C956 1.398 . S
C958 C961 1.407 . S
C959 C956 1.403 1_556 S
C959 C960 1.524 . S
C959 C963 1.400 . S
C960 H945 0.960 . S
C960 H946 0.960 . S
C960 H947 0.960 . S
C960 C959 1.524 . S
C961 C958 1.407 . S
C961 C962 1.392 1_554 S
C961 C965 1.487 1_545 S
C962 C961 1.392 1_556 S
C962 C963 1.385 . S
C962 C964 1.478 . S
C963 H957 0.930 . S
C963 C959 1.400 . S
C963 C962 1.385 . S
C964 C962 1.478 . S
C964 C966 1.381 . S
C964 C970 1.383 . S
C965 C961 1.487 1_565 S
C965 H971 0.977 . S
C965 H972 0.930 1_565 S
C965 H973 0.983 . S
C966 C964 1.381 . S
C966 C967 1.394 . S
C966 H974 0.930 1_545 S
C967 C966 1.394 . S
C967 C968 1.383 . S
C967 H975 0.970 . S
C968 C967 1.383 . S
C968 C969 1.377 . S
C969 H953 0.930 . S
C969 C968 1.377 . S
C969 C970 1.379 . S
C970 H954 0.931 . S
C970 C964 1.383 . S
C970 C969 1.379 . S
H971 C965 0.977 . S
H972 C965 0.930 1_545 S
H973 C965 0.983 . S
H974 C966 0.930 1_565 S
H975 C967 0.970 . S
H976 C984 0.929 . S
H977 C986 0.930 1_556 S
H978 C988 0.930 . S
H979 C991 0.929 . S
H980 C994 0.930 . S
H981 C996 0.960 . S
H982 C996 0.960 . S
H983 C996 0.960 . S
C984 H976 0.929 . S
C984 C985 1.377 . S
C984 C986 1.384 . S
C985 C984 1.377 . S
C985 C991 1.390 . S
C986 H977 0.930 1_554 S
C986 C984 1.384 . S
C986 C987 1.372 . S
C987 C986 1.372 . S
C987 C988 1.400 . S
C987 C992 1.490 . S
C988 H978 0.930 . S
C988 C987 1.400 . S
C988 C991 1.386 . S
H989 C1005 0.930 . S
H990 C1006 0.931 . S
C991 H979 0.929 . S
C991 C985 1.390 . S
C991 C988 1.386 . S
C992 C987 1.490 . S
C992 C994 1.395 1_554 S
C992 C995 1.403 . S
H993 C999 0.930 . S
C994 H980 0.930 . S
C994 C992 1.395 1_556 S
C994 C997 1.403 . S
C995 C992 1.403 . S
C995 C996 1.524 . S
C995 C999 1.400 1_554 S
C996 H981 0.960 . S
C996 H982 0.960 . S
C996 H983 0.960 . S
C996 C995 1.524 . S
C997 C994 1.403 . S
C997 C998 1.392 . S
C997 C1001 1.495 . S
C998 C997 1.392 . S
C998 C999 1.385 . S
C998 C1000 1.478 . S
C999 H993 0.930 . S
C999 C995 1.400 1_556 S
C999 C998 1.385 . S
C1000 C998 1.478 . S
C1000 C1002 1.381 . S
C1000 C1006 1.383 . S
C1001 C997 1.495 . S
C1001 H1007 0.959 . S
C1001 H1008 0.961 . S
C1001 H1009 0.960 . S
C1002 C1000 1.381 . S
C1002 C1003 1.394 . S
C1002 H1010 0.930 . S
C1003 C1002 1.394 . S
C1003 C1004 1.383 . S
C1003 H1011 0.929 . S
C1004 C1003 1.383 . S
C1004 C1005 1.377 . S
C1005 H989 0.930 . S
C1005 C1004 1.377 . S
C1005 C1006 1.379 . S
C1006 H990 0.931 . S
C1006 C1000 1.383 . S
C1006 C1005 1.379 . S
H1007 C1001 0.959 . S
H1008 C1001 0.961 . S
H1009 C1001 0.960 . S
H1010 C1002 0.930 . S
H1011 C1003 0.929 . S
H1012 C1020 0.929 . S
H1013 C1022 0.930 . S
H1014 C1024 0.930 . S
H1015 C1027 0.929 . S
H1016 C1030 0.930 . S
H1017 C1032 0.960 . S
H1018 C1032 0.960 . S
H1019 C1032 0.960 . S
C1020 H1012 0.929 . S
C1020 C1021 1.377 . S
C1020 C1022 1.384 . S
C1021 C1020 1.377 . S
C1021 C1027 1.390 . S
C1022 H1013 0.930 . S
C1022 C1020 1.384 . S
C1022 C1023 1.372 . S
C1023 C1022 1.372 . S
C1023 C1024 1.400 . S
C1023 C1028 1.490 . S
C1024 H1014 0.930 . S
C1024 C1023 1.400 . S
C1024 C1027 1.386 . S
H1025 C1041 0.930 . S
H1026 C1042 0.931 . S
C1027 H1015 0.929 . S
C1027 C1021 1.390 . S
C1027 C1024 1.386 . S
C1028 C1023 1.490 . S
C1028 C1030 1.395 . S
C1028 C1031 1.403 1_554 S
H1029 C1035 0.930 . S
C1030 H1016 0.930 . S
C1030 C1028 1.395 . S
C1030 C1033 1.403 . S
C1031 C1028 1.403 1_556 S
C1031 C1032 1.524 . S
C1031 C1035 1.400 . S
C1032 H1017 0.960 . S
C1032 H1018 0.960 . S
C1032 H1019 0.960 . S
C1032 C1031 1.524 . S
C1033 C1030 1.403 . S
C1033 C1034 1.392 1_554 S
C1033 C1037 1.495 . S
C1034 C1033 1.392 1_556 S
C1034 C1035 1.385 . S
C1034 C1036 1.478 . S
C1035 H1029 0.930 . S
C1035 C1031 1.400 . S
C1035 C1034 1.385 . S
C1036 C1034 1.478 . S
C1036 C1038 1.381 . S
C1036 C1042 1.383 . S
C1037 C1033 1.495 . S
C1037 H1043 0.959 . S
C1037 H1044 0.961 . S
C1037 H1045 0.960 . S
C1038 C1036 1.381 . S
C1038 C1039 1.394 . S
C1038 H1046 0.930 . S
C1039 C1038 1.394 . S
C1039 C1040 1.383 . S
C1039 H1047 0.929 . S
C1040 C1039 1.383 . S
C1040 C1041 1.377 . S
C1041 H1025 0.930 . S
C1041 C1040 1.377 . S
C1041 C1042 1.379 . S
C1042 H1026 0.931 . S
C1042 C1036 1.383 . S
C1042 C1041 1.379 . S
H1043 C1037 0.959 . S
H1044 C1037 0.961 . S
H1045 C1037 0.960 . S
H1046 C1038 0.930 . S
H1047 C1039 0.929 . S
H1048 C1056 0.929 . S
H1049 C1058 0.930 . S
H1050 C1060 0.930 . S
H1051 C1063 0.929 . S
H1052 C1066 0.930 . S
H1053 C1068 0.960 . S
H1054 C1068 0.960 . S
H1055 C1068 0.960 . S
C1056 H1048 0.929 . S
C1056 C1057 1.377 1_655 S
C1056 C1058 1.384 . S
C1057 C1056 1.377 1_455 S
C1057 C1063 1.390 . S
C1058 H1049 0.930 . S
C1058 C1056 1.384 . S
C1058 C1059 1.372 1_655 S
C1059 C1058 1.372 1_455 S
C1059 C1060 1.400 . S
C1059 C1064 1.490 . S
C1060 H1050 0.930 . S
C1060 C1059 1.400 . S
C1060 C1063 1.386 . S
H1061 C1077 0.930 . S
H1062 C1078 0.931 . S
C1063 H1051 0.929 . S
C1063 C1057 1.390 . S
C1063 C1060 1.386 . S
C1064 C1059 1.490 . S
C1064 C1066 1.395 1_455 S
C1064 C1067 1.403 . S
H1065 C1071 0.930 . S
C1066 H1052 0.930 . S
C1066 C1064 1.395 1_655 S
C1066 C1069 1.403 . S
C1067 C1064 1.403 . S
C1067 C1068 1.524 . S
C1067 C1071 1.400 . S
C1068 H1053 0.960 . S
C1068 H1054 0.960 . S
C1068 H1055 0.960 . S
C1068 C1067 1.524 . S
C1069 C1066 1.403 . S
C1069 C1070 1.392 1_655 S
C1069 C1073 1.495 . S
C1070 C1069 1.392 1_455 S
C1070 C1071 1.385 . S
C1070 C1072 1.478 . S
C1071 H1065 0.930 . S
C1071 C1067 1.400 . S
C1071 C1070 1.385 . S
C1072 C1070 1.478 . S
C1072 C1074 1.379 1_455 S
C1072 C1078 1.383 . S
C1073 C1069 1.495 . S
C1073 H1079 0.959 . S
C1073 H1080 0.961 . S
C1073 H1081 0.960 . S
C1074 C1072 1.379 1_655 S
C1074 C1075 1.393 1_655 S
C1074 H1082 0.934 . S
C1075 C1074 1.393 1_455 S
C1075 C1076 1.383 . S
C1075 H1083 0.930 1_455 S
C1076 C1075 1.383 . S
C1076 C1077 1.377 . S
C1077 H1061 0.930 . S
C1077 C1076 1.377 . S
C1077 C1078 1.379 . S
C1078 H1062 0.931 . S
C1078 C1072 1.383 . S
C1078 C1077 1.379 . S
H1079 C1073 0.959 . S
H1080 C1073 0.961 . S
H1081 C1073 0.960 . S
H1082 C1074 0.934 . S
H1083 C1075 0.930 1_655 S
H1084 C1092 0.929 . S
H1085 C1094 0.930 . S
H1086 C1096 0.930 . S
H1087 C1099 0.929 . S
H1088 C1102 0.930 1_565 S
H1089 C1104 0.960 . S
H1090 C1104 0.960 . S
H1091 C1104 0.960 . S
C1092 H1084 0.929 . S
C1092 C1093 1.377 . S
C1092 C1094 1.384 . S
C1093 C1092 1.377 . S
C1093 C1099 1.390 . S
C1094 H1085 0.930 . S
C1094 C1092 1.384 . S
C1094 C1095 1.372 . S
C1095 C1094 1.372 . S
C1095 C1096 1.400 . S
C1095 C1100 1.490 . S
C1096 H1086 0.930 . S
C1096 C1095 1.400 . S
C1096 C1099 1.386 . S
H1097 C1113 0.955 . S
H1098 C1114 0.916 1_565 S
C1099 H1087 0.929 . S
C1099 C1093 1.390 . S
C1099 C1096 1.386 . S
C1100 C1095 1.490 . S
C1100 C1102 1.395 . S
C1100 C1103 1.403 . S
H1101 C1107 0.930 . S
C1102 H1088 0.930 1_545 S
C1102 C1100 1.395 . S
C1102 C1105 1.403 . S
C1103 C1100 1.403 . S
C1103 C1104 1.524 . S
C1103 C1107 1.400 . S
C1104 H1089 0.960 . S
C1104 H1090 0.960 . S
C1104 H1091 0.960 . S
C1104 C1103 1.524 . S
C1105 C1102 1.403 . S
C1105 C1106 1.392 . S
C1105 C1109 1.495 1_545 S
C1106 C1105 1.392 . S
C1106 C1107 1.385 . S
C1106 C1108 1.478 . S
C1107 H1101 0.930 . S
C1107 C1103 1.400 . S
C1107 C1106 1.385 . S
C1108 C1106 1.478 . S
C1108 C1110 1.381 . S
C1108 C1114 1.383 . S
C1109 C1105 1.495 1_565 S
C1109 H1115 0.959 . S
C1109 H1116 0.961 . S
C1109 H1117 0.960 . S
C1110 C1108 1.381 . S
C1110 C1111 1.394 . S
C1110 H1118 0.930 . S
C1111 C1110 1.394 . S
C1111 C1112 1.383 . S
C1111 H1119 0.929 . S
C1112 C1111 1.383 . S
C1112 C1113 1.377 . S
C1113 H1097 0.955 . S
C1113 C1112 1.377 . S
C1113 C1114 1.379 . S
C1114 H1098 0.916 1_545 S
C1114 C1108 1.383 . S
C1114 C1113 1.379 . S
H1115 C1109 0.959 . S
H1116 C1109 0.961 . S
H1117 C1109 0.960 . S
H1118 C1110 0.930 . S
H1119 C1111 0.929 . S
H1120 C1128 0.929 . S
H1121 C1130 0.930 . S
H1122 C1132 0.930 . S
H1123 C1135 0.929 . S
H1124 C1138 0.930 . S
H1125 C1140 0.960 . S
H1126 C1140 0.960 . S
H1127 C1140 0.960 . S
C1128 H1120 0.929 . S
C1128 C1129 1.377 . S
C1128 C1130 1.384 . S
C1129 C1128 1.377 . S
C1129 C1135 1.390 . S
C1130 H1121 0.930 . S
C1130 C1128 1.384 . S
C1130 C1131 1.372 . S
C1131 C1130 1.372 . S
C1131 C1132 1.400 . S
C1131 C1136 1.490 . S
C1132 H1122 0.930 . S
C1132 C1131 1.400 . S
C1132 C1135 1.386 . S
H1133 C1149 0.930 . S
H1134 C1150 0.931 . S
C1135 H1123 0.929 . S
C1135 C1129 1.390 . S
C1135 C1132 1.386 . S
C1136 C1131 1.490 . S
C1136 C1138 1.395 . S
C1136 C1139 1.403 . S
H1137 C1143 0.930 . S
C1138 H1124 0.930 . S
C1138 C1136 1.395 . S
C1138 C1141 1.403 . S
C1139 C1136 1.403 . S
C1139 C1140 1.524 . S
C1139 C1143 1.400 . S
C1140 H1125 0.960 . S
C1140 H1126 0.960 . S
C1140 H1127 0.960 . S
C1140 C1139 1.524 . S
C1141 C1138 1.403 . S
C1141 C1142 1.392 . S
C1141 C1145 1.495 . S
C1142 C1141 1.392 . S
C1142 C1143 1.385 . S
C1142 C1144 1.478 . S
C1143 H1137 0.930 . S
C1143 C1139 1.400 . S
C1143 C1142 1.385 . S
C1144 C1142 1.478 . S
C1144 C1146 1.381 . S
C1144 C1150 1.383 . S
C1145 C1141 1.495 . S
C1145 H1151 0.959 . S
C1145 H1152 0.961 . S
C1145 H1153 0.960 . S
C1146 C1144 1.381 . S
C1146 C1147 1.394 . S
C1146 H1154 0.930 . S
C1147 C1146 1.394 . S
C1147 C1148 1.383 . S
C1147 H1155 0.929 . S
C1148 C1147 1.383 . S
C1148 C1149 1.377 . S
C1149 H1133 0.930 . S
C1149 C1148 1.377 . S
C1149 C1150 1.379 . S
C1150 H1134 0.931 . S
C1150 C1144 1.383 . S
C1150 C1149 1.379 . S
H1151 C1145 0.959 . S
H1152 C1145 0.961 . S
H1153 C1145 0.960 . S
H1154 C1146 0.930 . S
H1155 C1147 0.929 . S
H1156 C1164 0.929 . S
H1157 C1166 0.930 . S
H1158 C1168 0.930 . S
H1159 C1171 0.929 . S
H1160 C1174 0.930 . S
H1161 C1176 0.960 . S
H1162 C1176 0.960 . S
H1163 C1176 0.960 . S
C1164 H1156 0.929 . S
C1164 C1165 1.377 . S
C1164 C1166 1.384 . S
C1165 C1164 1.377 . S
C1165 C1171 1.390 . S
C1166 H1157 0.930 . S
C1166 C1164 1.384 . S
C1166 C1167 1.372 . S
C1167 C1166 1.372 . S
C1167 C1168 1.400 . S
C1167 C1172 1.490 . S
C1168 H1158 0.930 . S
C1168 C1167 1.400 . S
C1168 C1171 1.386 . S
H1169 C1185 0.930 . S
H1170 C1186 0.931 . S
C1171 H1159 0.929 . S
C1171 C1165 1.390 . S
C1171 C1168 1.386 . S
C1172 C1167 1.490 . S
C1172 C1174 1.395 . S
C1172 C1175 1.403 . S
H1173 C1179 0.930 . S
C1174 H1160 0.930 . S
C1174 C1172 1.395 . S
C1174 C1177 1.403 . S
C1175 C1172 1.403 . S
C1175 C1176 1.524 . S
C1175 C1179 1.400 . S
C1176 H1161 0.960 . S
C1176 H1162 0.960 . S
C1176 H1163 0.960 . S
C1176 C1175 1.524 . S
C1177 C1174 1.403 . S
C1177 C1178 1.392 . S
C1177 C1181 1.495 . S
C1178 C1177 1.392 . S
C1178 C1179 1.385 . S
C1178 C1180 1.478 . S
C1179 H1173 0.930 . S
C1179 C1175 1.400 . S
C1179 C1178 1.385 . S
C1180 C1178 1.478 . S
C1180 C1182 1.381 . S
C1180 C1186 1.383 . S
C1181 C1177 1.495 . S
C1181 H1187 0.959 . S
C1181 H1188 0.961 . S
C1181 H1189 0.960 . S
C1182 C1180 1.381 . S
C1182 C1183 1.394 . S
C1182 H1190 0.930 . S
C1183 C1182 1.394 . S
C1183 C1184 1.383 . S
C1183 H1191 0.929 . S
C1184 C1183 1.383 . S
C1184 C1185 1.377 . S
C1185 H1169 0.930 . S
C1185 C1184 1.377 . S
C1185 C1186 1.379 . S
C1186 H1170 0.931 . S
C1186 C1180 1.383 . S
C1186 C1185 1.379 . S
H1187 C1181 0.959 . S
H1188 C1181 0.961 . S
H1189 C1181 0.960 . S
H1190 C1182 0.930 . S
H1191 C1183 0.929 . S
H1192 C1200 0.929 . S
H1193 C1202 0.930 . S
H1194 C1204 0.930 . S
H1195 C1207 0.929 . S
H1196 C1210 0.930 . S
H1197 C1212 0.960 . S
H1198 C1212 0.960 . S
H1199 C1212 0.960 . S
C1200 H1192 0.929 . S
C1200 C1201 1.377 1_455 S
C1200 C1202 1.384 . S
C1201 C1200 1.377 1_655 S
C1201 C1207 1.390 . S
C1202 H1193 0.930 . S
C1202 C1200 1.384 . S
C1202 C1203 1.372 1_455 S
C1203 C1202 1.372 1_655 S
C1203 C1204 1.400 . S
C1203 C1208 1.490 . S
C1204 H1194 0.930 . S
C1204 C1203 1.400 . S
C1204 C1207 1.386 . S
H1205 C1221 0.930 . S
H1206 C1222 0.931 . S
C1207 H1195 0.929 . S
C1207 C1201 1.390 . S
C1207 C1204 1.386 . S
C1208 C1203 1.490 . S
C1208 C1210 1.395 . S
C1208 C1211 1.403 1_655 S
H1209 C1215 0.930 . S
C1210 H1196 0.930 . S
C1210 C1208 1.395 . S
C1210 C1213 1.403 . S
C1211 C1208 1.403 1_455 S
C1211 C1212 1.524 . S
C1211 C1215 1.400 . S
C1212 H1197 0.960 . S
C1212 H1198 0.960 . S
C1212 H1199 0.960 . S
C1212 C1211 1.524 . S
C1213 C1210 1.403 . S
C1213 C1214 1.392 . S
C1213 C1217 1.495 . S
C1214 C1213 1.392 . S
C1214 C1215 1.385 1_655 S
C1214 C1216 1.478 . S
C1215 H1209 0.930 . S
C1215 C1211 1.400 . S
C1215 C1214 1.385 1_455 S
C1216 C1214 1.478 . S
C1216 C1218 1.381 . S
C1216 C1222 1.383 . S
C1217 C1213 1.495 . S
C1217 H1223 0.959 . S
C1217 H1224 0.961 . S
C1217 H1225 0.960 . S
C1218 C1216 1.381 . S
C1218 C1219 1.394 . S
C1218 H1226 0.929 . S
C1219 C1218 1.394 . S
C1219 C1220 1.383 . S
C1219 H1227 0.924 1_655 S
C1220 C1219 1.383 . S
C1220 C1221 1.377 . S
C1221 H1205 0.930 . S
C1221 C1220 1.377 . S
C1221 C1222 1.379 . S
C1222 H1206 0.931 . S
C1222 C1216 1.383 . S
C1222 C1221 1.379 . S
H1223 C1217 0.959 . S
H1224 C1217 0.961 . S
H1225 C1217 0.960 . S
H1226 C1218 0.929 . S
H1227 C1219 0.924 1_455 S
H1228 C1236 0.929 . S
H1229 C1238 0.930 . S
H1230 C1240 0.930 . S
H1231 C1243 0.929 . S
H1232 C1246 0.930 . S
H1233 C1248 0.960 . S
H1234 C1248 0.960 1_545 S
H1235 C1248 0.960 . S
C1236 H1228 0.929 . S
C1236 C1237 1.377 1_545 S
C1236 C1238 1.384 . S
C1237 C1236 1.377 1_565 S
C1237 C1243 1.390 . S
C1238 H1229 0.930 . S
C1238 C1236 1.384 . S
C1238 C1239 1.372 1_545 S
C1239 C1238 1.372 1_565 S
C1239 C1240 1.400 . S
C1239 C1244 1.490 . S
C1240 H1230 0.930 . S
C1240 C1239 1.400 . S
C1240 C1243 1.386 . S
H1241 C1257 0.930 . S
H1242 C1258 0.931 . S
C1243 H1231 0.929 . S
C1243 C1237 1.390 . S
C1243 C1240 1.386 . S
C1244 C1239 1.490 . S
C1244 C1246 1.395 . S
C1244 C1247 1.403 . S
H1245 C1251 0.930 . S
C1246 H1232 0.930 . S
C1246 C1244 1.395 . S
C1246 C1249 1.403 . S
C1247 C1244 1.403 . S
C1247 C1248 1.524 . S
C1247 C1251 1.400 . S
C1248 H1233 0.960 . S
C1248 H1234 0.960 1_565 S
C1248 H1235 0.960 . S
C1248 C1247 1.524 . S
C1249 C1246 1.403 . S
C1249 C1250 1.392 . S
C1249 C1253 1.495 . S
C1250 C1249 1.392 . S
C1250 C1251 1.385 . S
C1250 C1252 1.478 . S
C1251 H1245 0.930 . S
C1251 C1247 1.400 . S
C1251 C1250 1.385 . S
C1252 C1250 1.478 . S
C1252 C1254 1.381 1_565 S
C1252 C1258 1.383 . S
C1253 C1249 1.495 . S
C1253 H1259 0.959 . S
C1253 H1260 0.961 . S
C1253 H1261 0.960 1_565 S
C1254 C1252 1.381 1_545 S
C1254 C1255 1.394 . S
C1254 H1262 0.930 . S
C1255 C1254 1.394 . S
C1255 C1256 1.383 1_545 S
C1255 H1263 0.929 . S
C1256 C1255 1.383 1_565 S
C1256 C1257 1.377 . S
C1257 H1241 0.930 . S
C1257 C1256 1.377 . S
C1257 C1258 1.379 . S
C1258 H1242 0.931 . S
C1258 C1252 1.383 . S
C1258 C1257 1.379 . S
H1259 C1253 0.959 . S
H1260 C1253 0.961 . S
H1261 C1253 0.960 1_545 S
H1262 C1254 0.930 . S
H1263 C1255 0.929 . S
H1264 C1272 0.929 . S
H1265 C1274 0.930 . S
H1266 C1276 0.930 . S
H1267 C1279 0.929 . S
H1268 C1282 0.930 . S
H1269 C1284 0.960 . S
H1270 C1284 0.960 . S
H1271 C1284 0.960 . S
C1272 H1264 0.929 . S
C1272 C1273 1.377 . S
C1272 C1274 1.384 . S
C1273 C1272 1.377 . S
C1273 C1279 1.390 . S
C1274 H1265 0.930 . S
C1274 C1272 1.384 . S
C1274 C1275 1.372 . S
C1275 C1274 1.372 . S
C1275 C1276 1.400 . S
C1275 C1280 1.490 . S
C1276 H1266 0.930 . S
C1276 C1275 1.400 . S
C1276 C1279 1.386 . S
H1277 C1293 0.930 . S
H1278 C1294 0.931 . S
C1279 H1267 0.929 . S
C1279 C1273 1.390 . S
C1279 C1276 1.386 . S
C1280 C1275 1.490 . S
C1280 C1282 1.395 . S
C1280 C1283 1.403 . S
H1281 C1287 0.930 . S
C1282 H1268 0.930 . S
C1282 C1280 1.395 . S
C1282 C1285 1.403 . S
C1283 C1280 1.403 . S
C1283 C1284 1.524 . S
C1283 C1287 1.400 . S
C1284 H1269 0.960 . S
C1284 H1270 0.960 . S
C1284 H1271 0.960 . S
C1284 C1283 1.524 . S
C1285 C1282 1.403 . S
C1285 C1286 1.392 . S
C1285 C1289 1.495 . S
C1286 C1285 1.392 . S
C1286 C1287 1.385 . S
C1286 C1288 1.478 . S
C1287 H1281 0.930 . S
C1287 C1283 1.400 . S
C1287 C1286 1.385 . S
C1288 C1286 1.478 . S
C1288 C1290 1.381 . S
C1288 C1294 1.383 . S
C1289 C1285 1.495 . S
C1289 H1295 0.959 . S
C1289 H1296 0.961 . S
C1289 H1297 0.960 . S
C1290 C1288 1.381 . S
C1290 C1291 1.394 . S
C1290 H1298 0.930 . S
C1291 C1290 1.394 . S
C1291 C1292 1.383 . S
C1291 H1299 0.929 . S
C1292 C1291 1.383 . S
C1292 C1293 1.377 . S
C1293 H1277 0.930 . S
C1293 C1292 1.377 . S
C1293 C1294 1.379 . S
C1294 H1278 0.931 . S
C1294 C1288 1.383 . S
C1294 C1293 1.379 . S
H1295 C1289 0.959 . S
H1296 C1289 0.961 . S
H1297 C1289 0.960 . S
H1298 C1290 0.930 . S
H1299 C1291 0.929 . S
H1300 C1308 0.929 . S
H1301 C1310 0.930 . S
H1302 C1312 0.930 . S
H1303 C1315 0.929 . S
H1304 C1318 0.930 . S
H1305 C1320 0.960 . S
H1306 C1320 0.960 . S
H1307 C1320 0.960 . S
C1308 H1300 0.929 . S
C1308 C1309 1.377 . S
C1308 C1310 1.384 . S
C1309 C1308 1.377 . S
C1309 C1315 1.390 . S
C1310 H1301 0.930 . S
C1310 C1308 1.384 . S
C1310 C1311 1.372 . S
C1311 C1310 1.372 . S
C1311 C1312 1.400 . S
C1311 C1316 1.490 . S
C1312 H1302 0.930 . S
C1312 C1311 1.400 . S
C1312 C1315 1.386 . S
H1313 C1329 0.930 . S
H1314 C1330 0.931 . S
C1315 H1303 0.929 . S
C1315 C1309 1.390 . S
C1315 C1312 1.386 . S
C1316 C1311 1.490 . S
C1316 C1318 1.395 . S
C1316 C1319 1.403 . S
H1317 C1323 0.930 . S
C1318 H1304 0.930 . S
C1318 C1316 1.395 . S
C1318 C1321 1.403 . S
C1319 C1316 1.403 . S
C1319 C1320 1.524 . S
C1319 C1323 1.400 . S
C1320 H1305 0.960 . S
C1320 H1306 0.960 . S
C1320 H1307 0.960 . S
C1320 C1319 1.524 . S
C1321 C1318 1.403 . S
C1321 C1322 1.392 . S
C1321 C1325 1.495 . S
C1322 C1321 1.392 . S
C1322 C1323 1.385 . S
C1322 C1324 1.478 . S
C1323 H1317 0.930 . S
C1323 C1319 1.400 . S
C1323 C1322 1.385 . S
C1324 C1322 1.478 . S
C1324 C1326 1.381 . S
C1324 C1330 1.383 . S
C1325 C1321 1.495 . S
C1325 H1331 0.959 . S
C1325 H1332 0.961 . S
C1325 H1333 0.960 . S
C1326 C1324 1.381 . S
C1326 C1327 1.394 . S
C1326 H1334 0.930 . S
C1327 C1326 1.394 . S
C1327 C1328 1.383 . S
C1327 H1335 0.929 . S
C1328 C1327 1.383 . S
C1328 C1329 1.377 . S
C1329 H1313 0.930 . S
C1329 C1328 1.377 . S
C1329 C1330 1.379 . S
C1330 H1314 0.931 . S
C1330 C1324 1.383 . S
C1330 C1329 1.379 . S
H1331 C1325 0.959 . S
H1332 C1325 0.961 . S
H1333 C1325 0.960 . S
H1334 C1326 0.930 . S
H1335 C1327 0.929 . S
C481 C255 1.909 . S
C500 C322 2.009 . S
C536 C362 2.016 . S
C517 C294 1.897 . S
C572 C402 2.007 . S
C553 C177 1.912 . S
C608 C442 2.019 1_455 S
C589 C216 1.904 1_455 S
C644 C331 2.011 . S
C625 C99 1.912 . S
C661 C138 1.894 . S
C680 C371 2.019 . S
C697 C21 1.904 . S
C716 C411 2.007 . S
C733 C60 1.905 . S
C752 C451 2.009 . S
C788 C328 0.360 . S
C769 C196 0.290 1_455 S
C824 C368 0.372 . S
C805 C235 0.308 . S
C860 C408 0.314 . S
C841 C289 0.276 . S
C877 C157 0.271 . S
C896 C448 0.219 . S
C913 C40 0.241 . S
C932 C319 0.310 . S
C968 C359 0.256 . S
C949 C79 0.292 . S
C1004 C399 0.173 . S
C985 C133 0.263 . S
C1021 C1 0.291 . S
C1040 C439 0.250 . S
C1057 C211 2.521 . S
C1076 C323 2.822 . S
C1093 C250 2.512 . S
C1112 C363 2.814 . S
C1148 C403 2.836 . S
C1129 C274 2.530 . S
C1184 C443 2.828 . S
C1165 C172 2.512 . S
C1201 C55 2.524 1_655 S
C1220 C314 2.842 . S
C1256 C354 2.821 . S
C1237 C94 2.516 . S
C1292 C394 2.817 . S
C1273 C118 2.532 . S
C1309 C16 2.527 . S
C1328 C434 2.831 . S
