# Generated by pormake.
# Topology bwt, (3,3)-cn, num edge types: 1
# Building blocks:
#     Node 0, Type 0, BuildingBlock: OLANEW_clean_sbu_2, # of connection points: 3
#     Node 1, Type 0, BuildingBlock: OLANEW_clean_sbu_2, # of connection points: 3
#     Node 2, Type 0, BuildingBlock: OLANEW_clean_sbu_2, # of connection points: 3
#     Node 3, Type 0, BuildingBlock: OLANEW_clean_sbu_2, # of connection points: 3
#     Node 4, Type 0, BuildingBlock: OLANEW_clean_sbu_2, # of connection points: 3
#     Node 5, Type 0, BuildingBlock: OLANEW_clean_sbu_2, # of connection points: 3
#     Node 6, Type 0, BuildingBlock: OLANEW_clean_sbu_2, # of connection points: 3
#     Node 7, Type 0, BuildingBlock: OLANEW_clean_sbu_2, # of connection points: 3
#     Node 8, Type 0, BuildingBlock: OLANEW_clean_sbu_2, # of connection points: 3
#     Node 9, Type 0, BuildingBlock: OLANEW_clean_sbu_2, # of connection points: 3
#     Node 10, Type 0, BuildingBlock: OLANEW_clean_sbu_2, # of connection points: 3
#     Node 11, Type 0, BuildingBlock: OLANEW_clean_sbu_2, # of connection points: 3
#     Node 12, Type 0, BuildingBlock: OLANEW_clean_sbu_2, # of connection points: 3
#     Node 13, Type 0, BuildingBlock: OLANEW_clean_sbu_2, # of connection points: 3
#     Node 14, Type 0, BuildingBlock: OLANEW_clean_sbu_2, # of connection points: 3
#     Node 15, Type 0, BuildingBlock: OLANEW_clean_sbu_2, # of connection points: 3
#     Node 16, Type 0, BuildingBlock: OLANEW_clean_sbu_2, # of connection points: 3
#     Node 17, Type 0, BuildingBlock: OLANEW_clean_sbu_2, # of connection points: 3
#     Node 18, Type 0, BuildingBlock: OLANEW_clean_sbu_2, # of connection points: 3
#     Node 19, Type 0, BuildingBlock: OLANEW_clean_sbu_2, # of connection points: 3
#     Node 20, Type 0, BuildingBlock: OLANEW_clean_sbu_2, # of connection points: 3
#     Node 21, Type 0, BuildingBlock: OLANEW_clean_sbu_2, # of connection points: 3
#     Node 22, Type 0, BuildingBlock: OLANEW_clean_sbu_2, # of connection points: 3
#     Node 23, Type 0, BuildingBlock: OLANEW_clean_sbu_2, # of connection points: 3
#     Node 24, Type 1, BuildingBlock: VETTIZ_charged_linker_0, # of connection points: 3
#     Node 25, Type 1, BuildingBlock: VETTIZ_charged_linker_0, # of connection points: 3
#     Node 26, Type 1, BuildingBlock: VETTIZ_charged_linker_0, # of connection points: 3
#     Node 27, Type 1, BuildingBlock: VETTIZ_charged_linker_0, # of connection points: 3
#     Node 28, Type 1, BuildingBlock: VETTIZ_charged_linker_0, # of connection points: 3
#     Node 29, Type 1, BuildingBlock: VETTIZ_charged_linker_0, # of connection points: 3
#     Node 30, Type 1, BuildingBlock: VETTIZ_charged_linker_0, # of connection points: 3
#     Node 31, Type 1, BuildingBlock: VETTIZ_charged_linker_0, # of connection points: 3
#     Node 32, Type 1, BuildingBlock: VETTIZ_charged_linker_0, # of connection points: 3
#     Node 33, Type 1, BuildingBlock: VETTIZ_charged_linker_0, # of connection points: 3
#     Node 34, Type 1, BuildingBlock: VETTIZ_charged_linker_0, # of connection points: 3
#     Node 35, Type 1, BuildingBlock: VETTIZ_charged_linker_0, # of connection points: 3
#     Node 36, Type 1, BuildingBlock: VETTIZ_charged_linker_0, # of connection points: 3
#     Node 37, Type 1, BuildingBlock: VETTIZ_charged_linker_0, # of connection points: 3
#     Node 38, Type 1, BuildingBlock: VETTIZ_charged_linker_0, # of connection points: 3
#     Node 39, Type 1, BuildingBlock: VETTIZ_charged_linker_0, # of connection points: 3
#     Node 40, Type 1, BuildingBlock: VETTIZ_charged_linker_0, # of connection points: 3
#     Node 41, Type 1, BuildingBlock: VETTIZ_charged_linker_0, # of connection points: 3
#     Node 42, Type 1, BuildingBlock: VETTIZ_charged_linker_0, # of connection points: 3
#     Node 43, Type 1, BuildingBlock: VETTIZ_charged_linker_0, # of connection points: 3
#     Node 44, Type 1, BuildingBlock: VETTIZ_charged_linker_0, # of connection points: 3
#     Node 45, Type 1, BuildingBlock: VETTIZ_charged_linker_0, # of connection points: 3
#     Node 46, Type 1, BuildingBlock: VETTIZ_charged_linker_0, # of connection points: 3
#     Node 47, Type 1, BuildingBlock: VETTIZ_charged_linker_0, # of connection points: 3
#     Edge 48, Type (0, 1), BuildingBlock: UVAHIK_clean_linker_0, # of connection points: 2
#     Edge 49, Type (0, 1), BuildingBlock: UVAHIK_clean_linker_0, # of connection points: 2
#     Edge 50, Type (0, 1), BuildingBlock: UVAHIK_clean_linker_0, # of connection points: 2
#     Edge 51, Type (0, 1), BuildingBlock: UVAHIK_clean_linker_0, # of connection points: 2
#     Edge 52, Type (0, 1), BuildingBlock: UVAHIK_clean_linker_0, # of connection points: 2
#     Edge 53, Type (0, 1), BuildingBlock: UVAHIK_clean_linker_0, # of connection points: 2
#     Edge 54, Type (0, 1), BuildingBlock: UVAHIK_clean_linker_0, # of connection points: 2
#     Edge 55, Type (0, 1), BuildingBlock: UVAHIK_clean_linker_0, # of connection points: 2
#     Edge 56, Type (0, 1), BuildingBlock: UVAHIK_clean_linker_0, # of connection points: 2
#     Edge 57, Type (0, 1), BuildingBlock: UVAHIK_clean_linker_0, # of connection points: 2
#     Edge 58, Type (0, 1), BuildingBlock: UVAHIK_clean_linker_0, # of connection points: 2
#     Edge 59, Type (0, 1), BuildingBlock: UVAHIK_clean_linker_0, # of connection points: 2
#     Edge 60, Type (0, 1), BuildingBlock: UVAHIK_clean_linker_0, # of connection points: 2
#     Edge 61, Type (0, 1), BuildingBlock: UVAHIK_clean_linker_0, # of connection points: 2
#     Edge 62, Type (0, 1), BuildingBlock: UVAHIK_clean_linker_0, # of connection points: 2
#     Edge 63, Type (0, 1), BuildingBlock: UVAHIK_clean_linker_0, # of connection points: 2
#     Edge 64, Type (0, 1), BuildingBlock: UVAHIK_clean_linker_0, # of connection points: 2
#     Edge 65, Type (0, 1), BuildingBlock: UVAHIK_clean_linker_0, # of connection points: 2
#     Edge 66, Type (0, 1), BuildingBlock: UVAHIK_clean_linker_0, # of connection points: 2
#     Edge 67, Type (0, 1), BuildingBlock: UVAHIK_clean_linker_0, # of connection points: 2
#     Edge 68, Type (0, 1), BuildingBlock: UVAHIK_clean_linker_0, # of connection points: 2
#     Edge 69, Type (0, 1), BuildingBlock: UVAHIK_clean_linker_0, # of connection points: 2
#     Edge 70, Type (0, 1), BuildingBlock: UVAHIK_clean_linker_0, # of connection points: 2
#     Edge 71, Type (0, 1), BuildingBlock: UVAHIK_clean_linker_0, # of connection points: 2
#     Edge 72, Type (0, 1), BuildingBlock: UVAHIK_clean_linker_0, # of connection points: 2
#     Edge 73, Type (0, 1), BuildingBlock: UVAHIK_clean_linker_0, # of connection points: 2
#     Edge 74, Type (0, 1), BuildingBlock: UVAHIK_clean_linker_0, # of connection points: 2
#     Edge 75, Type (0, 1), BuildingBlock: UVAHIK_clean_linker_0, # of connection points: 2
#     Edge 76, Type (0, 1), BuildingBlock: UVAHIK_clean_linker_0, # of connection points: 2
#     Edge 77, Type (0, 1), BuildingBlock: UVAHIK_clean_linker_0, # of connection points: 2
#     Edge 78, Type (0, 1), BuildingBlock: UVAHIK_clean_linker_0, # of connection points: 2
#     Edge 79, Type (0, 1), BuildingBlock: UVAHIK_clean_linker_0, # of connection points: 2
#     Edge 80, Type (0, 1), BuildingBlock: UVAHIK_clean_linker_0, # of connection points: 2
#     Edge 81, Type (0, 1), BuildingBlock: UVAHIK_clean_linker_0, # of connection points: 2
#     Edge 82, Type (0, 1), BuildingBlock: UVAHIK_clean_linker_0, # of connection points: 2
#     Edge 83, Type (0, 1), BuildingBlock: UVAHIK_clean_linker_0, # of connection points: 2
#     Edge 84, Type (0, 1), BuildingBlock: UVAHIK_clean_linker_0, # of connection points: 2
#     Edge 85, Type (0, 1), BuildingBlock: UVAHIK_clean_linker_0, # of connection points: 2
#     Edge 86, Type (0, 1), BuildingBlock: UVAHIK_clean_linker_0, # of connection points: 2
#     Edge 87, Type (0, 1), BuildingBlock: UVAHIK_clean_linker_0, # of connection points: 2
#     Edge 88, Type (0, 1), BuildingBlock: UVAHIK_clean_linker_0, # of connection points: 2
#     Edge 89, Type (0, 1), BuildingBlock: UVAHIK_clean_linker_0, # of connection points: 2
#     Edge 90, Type (0, 1), BuildingBlock: UVAHIK_clean_linker_0, # of connection points: 2
#     Edge 91, Type (0, 1), BuildingBlock: UVAHIK_clean_linker_0, # of connection points: 2
#     Edge 92, Type (0, 1), BuildingBlock: UVAHIK_clean_linker_0, # of connection points: 2
#     Edge 93, Type (0, 1), BuildingBlock: UVAHIK_clean_linker_0, # of connection points: 2
#     Edge 94, Type (0, 1), BuildingBlock: UVAHIK_clean_linker_0, # of connection points: 2
#     Edge 95, Type (0, 1), BuildingBlock: UVAHIK_clean_linker_0, # of connection points: 2
#     Edge 96, Type (0, 1), BuildingBlock: UVAHIK_clean_linker_0, # of connection points: 2
#     Edge 97, Type (0, 1), BuildingBlock: UVAHIK_clean_linker_0, # of connection points: 2
#     Edge 98, Type (0, 1), BuildingBlock: UVAHIK_clean_linker_0, # of connection points: 2
#     Edge 99, Type (0, 1), BuildingBlock: UVAHIK_clean_linker_0, # of connection points: 2
#     Edge 100, Type (0, 1), BuildingBlock: UVAHIK_clean_linker_0, # of connection points: 2
#     Edge 101, Type (0, 1), BuildingBlock: UVAHIK_clean_linker_0, # of connection points: 2
#     Edge 102, Type (0, 1), BuildingBlock: UVAHIK_clean_linker_0, # of connection points: 2
#     Edge 103, Type (0, 1), BuildingBlock: UVAHIK_clean_linker_0, # of connection points: 2
#     Edge 104, Type (0, 1), BuildingBlock: UVAHIK_clean_linker_0, # of connection points: 2
#     Edge 105, Type (0, 1), BuildingBlock: UVAHIK_clean_linker_0, # of connection points: 2
#     Edge 106, Type (0, 1), BuildingBlock: UVAHIK_clean_linker_0, # of connection points: 2
#     Edge 107, Type (0, 1), BuildingBlock: UVAHIK_clean_linker_0, # of connection points: 2
#     Edge 108, Type (0, 1), BuildingBlock: UVAHIK_clean_linker_0, # of connection points: 2
#     Edge 109, Type (0, 1), BuildingBlock: UVAHIK_clean_linker_0, # of connection points: 2
#     Edge 110, Type (0, 1), BuildingBlock: UVAHIK_clean_linker_0, # of connection points: 2
#     Edge 111, Type (0, 1), BuildingBlock: UVAHIK_clean_linker_0, # of connection points: 2
#     Edge 112, Type (0, 1), BuildingBlock: UVAHIK_clean_linker_0, # of connection points: 2
#     Edge 113, Type (0, 1), BuildingBlock: UVAHIK_clean_linker_0, # of connection points: 2
#     Edge 114, Type (0, 1), BuildingBlock: UVAHIK_clean_linker_0, # of connection points: 2
#     Edge 115, Type (0, 1), BuildingBlock: UVAHIK_clean_linker_0, # of connection points: 2
#     Edge 116, Type (0, 1), BuildingBlock: UVAHIK_clean_linker_0, # of connection points: 2
#     Edge 117, Type (0, 1), BuildingBlock: UVAHIK_clean_linker_0, # of connection points: 2
#     Edge 118, Type (0, 1), BuildingBlock: UVAHIK_clean_linker_0, # of connection points: 2
#     Edge 119, Type (0, 1), BuildingBlock: UVAHIK_clean_linker_0, # of connection points: 2
# Relax obj value: 0.157
# Max RMSD: 0.150
# Mean RMSD: 0.093
data_MOF--net-bwt--node1-OLANEW_clean_sbu_2--node2-VETTIZ_charged_linker_0--edge1-UVAHIK_clean_linker_0
_symmetry_space_group_name_H-M    P1
_symmetry_Int_Tables_number       1
_symmetry_cell_setting            triclinic
loop_
_symmetry_equiv_pos_as_xyz
'x, y, z'
_cell_length_a     87.638663
_cell_length_b     87.621431
_cell_length_c     87.622729
_cell_angle_alpha  93.49002
_cell_angle_beta   93.475646
_cell_angle_gamma 93.471859
loop_
_atom_site_label
_atom_site_type_symbol
_atom_site_fract_x
_atom_site_fract_y
_atom_site_fract_z
_atom_type_partial_charge
O0 O 0.26811 0.58895 0.31917 0.0
Cd1 Cd 0.26605 0.5894 0.29128 0.0
O2 O 0.28726 0.60648 0.32225 0.0
Cd3 Cd 0.29203 0.60582 0.29809 0.0
O4 O 0.31244 0.60118 0.28595 0.0
C5 C 0.32453 0.60867 0.29165 0.0
O6 O 0.32333 0.61902 0.30295 0.0
C7 C 0.27742 0.59762 0.32797 0.0
C8 C 0.2352 0.58651 0.28103 0.0
O9 O 0.24281 0.5747 0.2832 0.0
O10 O 0.24226 0.59976 0.28344 0.0
O11 O 0.22651 0.39411 0.6969 0.0
Cd12 Cd 0.21981 0.38079 0.67178 0.0
O13 O 0.23126 0.37237 0.70689 0.0
Cd14 Cd 0.21491 0.36068 0.68968 0.0
O15 O 0.19037 0.36362 0.69 0.0
C16 C 0.18123 0.366 0.6787 0.0
O17 O 0.18619 0.36571 0.66484 0.0
C18 C 0.23203 0.38694 0.70794 0.0
C19 C 0.24627 0.38134 0.65561 0.0
O20 O 0.23632 0.39132 0.65376 0.0
O21 O 0.24348 0.37079 0.66473 0.0
O22 O 0.7558 0.98088 0.6873 0.0
Cd23 Cd 0.76027 0.983 0.71515 0.0
O24 O 0.75987 0.95639 0.6847 0.0
Cd25 Cd 0.7735 0.95847 0.7065 0.0
O26 O 0.79715 0.96667 0.71327 0.0
C27 C 0.80164 0.97845 0.70658 0.0
O28 O 0.7917 0.98481 0.69753 0.0
C29 C 0.75533 0.96844 0.67898 0.0
C30 C 0.73356 0.9935 0.72676 0.0
O31 O 0.7445 0.00284 0.72341 0.0
O32 O 0.73547 0.97912 0.72516 0.0
O33 O 0.75971 0.03352 0.30348 0.0
Cd34 Cd 0.7714 0.03605 0.32962 0.0
O35 O 0.73825 0.02342 0.31127 0.0
Cd36 Cd 0.71417 0.01488 0.30801 0.0
O37 O 0.69029 0.00639 0.3031 0.0
C38 C 0.68696 0.99503 0.2935 0.0
O39 O 0.69806 0.9885 0.28669 0.0
C40 C 0.74612 0.02778 0.30041 0.0
C41 C 0.79822 0.02049 0.33172 0.0
O42 O 0.78531 0.01396 0.3346 0.0
O43 O 0.79844 0.03441 0.32796 0.0
O44 O 0.31515 0.25477 0.62525 0.0
Cd45 Cd 0.29229 0.24499 0.63703 0.0
O46 O 0.3052 0.27709 0.62496 0.0
Cd47 Cd 0.30401 0.30064 0.6183 0.0
O48 O 0.30443 0.32388 0.61071 0.0
C49 C 0.31195 0.32706 0.59924 0.0
O50 O 0.31922 0.31622 0.59231 0.0
C51 C 0.31605 0.26865 0.6218 0.0
C52 C 0.2837 0.21537 0.62499 0.0
O53 O 0.27967 0.22708 0.61804 0.0
O54 O 0.29163 0.21764 0.63779 0.0
O55 O 0.31078 0.75866 0.0301 0.0
Cd56 Cd 0.33692 0.76862 0.02682 0.0
O57 O 0.31742 0.73552 0.02369 0.0
Cd58 Cd 0.31225 0.71121 0.01704 0.0
O59 O 0.30495 0.68736 0.01045 0.0
C60 C 0.29404 0.68423 0.0003 0.0
O61 O 0.28736 0.69552 0.99397 0.0
C62 C 0.30718 0.74443 0.02758 0.0
C63 C 0.3366 0.79586 0.01198 0.0
O64 O 0.33549 0.78284 0.00437 0.0
O65 O 0.33803 0.79602 0.02663 0.0
O66 O 0.69605 0.22768 0.38816 0.0
Cd67 Cd 0.67008 0.22502 0.3759 0.0
O68 O 0.70565 0.21363 0.36989 0.0
Cd69 Cd 0.68341 0.20367 0.3605 0.0
O70 O 0.67313 0.18045 0.3612 0.0
C71 C 0.66527 0.17706 0.37237 0.0
O72 O 0.66194 0.18809 0.38222 0.0
C73 C 0.70759 0.2223 0.38211 0.0
C74 C 0.65887 0.25414 0.37536 0.0
O75 O 0.6563 0.24557 0.38638 0.0
O76 O 0.66638 0.24876 0.36436 0.0
O77 O 0.69674 0.73925 0.96723 0.0
Cd78 Cd 0.72293 0.73402 0.96154 0.0
O79 O 0.69992 0.76252 0.95949 0.0
Cd80 Cd 0.69233 0.7857 0.95782 0.0
O81 O 0.68572 0.80899 0.96281 0.0
C82 C 0.67609 0.81122 0.97285 0.0
O83 O 0.67008 0.79939 0.97942 0.0
C84 C 0.69149 0.75219 0.96501 0.0
C85 C 0.73074 0.70652 0.97338 0.0
O86 O 0.73221 0.71914 0.98168 0.0
O87 O 0.72573 0.7069 0.95937 0.0
O88 O 0.61265 0.32617 0.25866 0.0
Cd89 Cd 0.63055 0.30712 0.25129 0.0
O90 O 0.61489 0.32021 0.28259 0.0
Cd91 Cd 0.6088 0.32119 0.30645 0.0
O92 O 0.60145 0.3224 0.32982 0.0
C93 C 0.58867 0.3278 0.33244 0.0
O94 O 0.58026 0.3326 0.32098 0.0
C95 C 0.60903 0.32824 0.27242 0.0
C96 C 0.6208 0.29276 0.22282 0.0
O97 O 0.61656 0.28732 0.23525 0.0
O98 O 0.62985 0.30488 0.22387 0.0
O99 O 0.02964 0.30478 0.75798 0.0
Cd100 Cd 0.03451 0.33085 0.76945 0.0
O101 O 0.02709 0.31236 0.73458 0.0
Cd102 Cd 0.02096 0.3083 0.71003 0.0
O103 O 0.01356 0.30265 0.686 0.0
C104 C 0.00398 0.29132 0.68244 0.0
O105 O -0.00119 0.28319 0.69336 0.0
C106 C 0.02709 0.30158 0.74368 0.0
C107 C 0.02024 0.33351 0.797 0.0
O108 O 0.01344 0.33693 0.78441 0.0
O109 O 0.03389 0.32909 0.79658 0.0
O110 O 0.40471 0.69243 0.22237 0.0
Cd111 Cd 0.39721 0.66524 0.21654 0.0
O112 O 0.38129 0.6975 0.22766 0.0
Cd113 Cd 0.37303 0.67788 0.2122 0.0
O114 O 0.37678 0.67571 0.18774 0.0
C115 C 0.38093 0.6886 0.18288 0.0
O116 O 0.38169 0.70077 0.1925 0.0
C117 C 0.39548 0.70163 0.22792 0.0
C118 C 0.39331 0.65284 0.24472 0.0
O119 O 0.40629 0.65302 0.23871 0.0
O120 O 0.38198 0.65793 0.23709 0.0
O121 O 0.95497 0.68923 0.73023 0.0
Cd122 Cd 0.94394 0.71367 0.72583 0.0
O123 O 0.95689 0.69434 0.75511 0.0
Cd124 Cd 0.96433 0.69002 0.77865 0.0
O125 O 0.97349 0.68663 0.80183 0.0
C126 C 0.98402 0.67746 0.80387 0.0
O127 O 0.98901 0.66999 0.7919 0.0
C128 C 0.95878 0.68528 0.74357 0.0
C129 C 0.95657 0.72666 0.70081 0.0
O130 O 0.96224 0.73019 0.71449 0.0
O131 O 0.94481 0.71715 0.69899 0.0
O132 O 0.73605 0.38134 0.68838 0.0
Cd133 Cd 0.74534 0.36878 0.71098 0.0
O134 O 0.7131 0.38267 0.69688 0.0
Cd135 Cd 0.68885 0.38734 0.69465 0.0
O136 O 0.66562 0.39467 0.69107 0.0
C137 C 0.65919 0.39434 0.67764 0.0
O138 O 0.66663 0.3893 0.66597 0.0
C139 C 0.72239 0.38534 0.68661 0.0
C140 C 0.77689 0.37475 0.71629 0.0
O141 O 0.77138 0.3634 0.70731 0.0
O142 O 0.76747 0.38319 0.72289 0.0
O143 O 0.76787 0.64185 0.29471 0.0
Cd144 Cd 0.75973 0.65677 0.31692 0.0
O145 O 0.78074 0.62708 0.30951 0.0
Cd146 Cd 0.7971 0.60932 0.31113 0.0
O147 O 0.81717 0.59736 0.30494 0.0
C148 C 0.82374 0.60184 0.29331 0.0
O149 O 0.81799 0.61295 0.28585 0.0
C150 C 0.77611 0.63054 0.2962 0.0
C151 C 0.72926 0.64809 0.3213 0.0
O152 O 0.73271 0.65881 0.31256 0.0
O153 O 0.74023 0.6417 0.32823 0.0
O154 O 0.25382 0.05896 0.28835 0.0
Cd155 Cd 0.26268 0.06483 0.26332 0.0
O156 O 0.24005 0.03861 0.2783 0.0
Cd157 Cd 0.22257 0.0203 0.28105 0.0
O158 O 0.20173 0.00785 0.28714 0.0
C159 C 0.19505 0.01301 0.29868 0.0
O160 O 0.20113 0.02533 0.3066 0.0
C161 C 0.24482 0.04733 0.28994 0.0
C162 C 0.29042 0.05193 0.2584 0.0
O163 O 0.29008 0.06525 0.26522 0.0
O164 O 0.27763 0.04474 0.25382 0.0
O165 O 0.2563 0.97912 0.68542 0.0
Cd166 Cd 0.24139 0.97758 0.66079 0.0
O167 O 0.2732 0.99647 0.67833 0.0
Cd168 Cd 0.29483 0.01025 0.68338 0.0
O169 O 0.31783 0.01983 0.69114 0.0
C170 C 0.32556 0.01299 0.70107 0.0
O171 O 0.31942 0.00051 0.70643 0.0
C172 C 0.26824 0.988 0.68846 0.0
C173 C 0.21233 0.98839 0.66398 0.0
O174 O 0.21485 0.97438 0.66602 0.0
O175 O 0.22353 0.99726 0.66035 0.0
O176 O 0.67567 0.73435 0.37438 0.0
Cd177 Cd 0.6977 0.74108 0.35973 0.0
O178 O 0.68742 0.71551 0.38417 0.0
Cd179 Cd 0.6909 0.69598 0.39823 0.0
O180 O 0.69052 0.67407 0.40891 0.0
C181 C 0.68142 0.66317 0.40296 0.0
O182 O 0.67272 0.6655 0.39068 0.0
C183 C 0.67554 0.72316 0.38294 0.0
C184 C 0.70608 0.77234 0.36358 0.0
O185 O 0.69577 0.76711 0.35328 0.0
O186 O 0.71249 0.76278 0.37199 0.0
O187 O 0.68412 0.25425 0.9663 0.0
Cd188 Cd 0.65808 0.24235 0.96369 0.0
O189 O 0.67948 0.26644 0.98803 0.0
Cd190 Cd 0.68638 0.28361 0.00678 0.0
O191 O 0.69449 0.30428 0.0209 0.0
C192 C 0.68741 0.31635 0.01912 0.0
O193 O 0.67543 0.31571 0.00928 0.0
C194 C 0.6887 0.26323 0.97781 0.0
C195 C 0.65676 0.21457 0.97766 0.0
O196 O 0.66008 0.2152 0.96365 0.0
O197 O 0.65393 0.22708 0.98501 0.0
O198 O 0.30323 0.7583 0.64678 0.0
Cd199 Cd 0.3266 0.758 0.66353 0.0
O200 O 0.30981 0.78146 0.64024 0.0
Cd201 Cd 0.30598 0.80097 0.62636 0.0
O202 O 0.29883 0.81879 0.61163 0.0
C203 C 0.2878 0.82674 0.61528 0.0
O204 O 0.28106 0.82411 0.62794 0.0
C205 C 0.3003 0.76984 0.63927 0.0
C206 C 0.34021 0.73033 0.65865 0.0
O207 O 0.32986 0.73174 0.66827 0.0
O208 O 0.34431 0.74209 0.65151 0.0
O209 O 0.28775 0.26383 0.06177 0.0
Cd210 Cd 0.26177 0.26801 0.06901 0.0
O211 O 0.28012 0.24243 0.0485 0.0
Cd212 Cd 0.28224 0.22219 0.03297 0.0
O213 O 0.28654 0.20069 0.02045 0.0
C214 C 0.29551 0.19167 0.02669 0.0
O215 O 0.3019 0.19558 0.04043 0.0
C216 C 0.29088 0.25231 0.05327 0.0
C217 C 0.25078 0.29257 0.05385 0.0
O218 O 0.25852 0.29473 0.06677 0.0
O219 O 0.24801 0.27876 0.04823 0.0
O220 O 0.37507 0.67195 0.73745 0.0
Cd221 Cd 0.36271 0.69495 0.74596 0.0
O222 O 0.37636 0.68085 0.71469 0.0
Cd223 Cd 0.38417 0.68086 0.69142 0.0
O224 O 0.39238 0.68097 0.66839 0.0
C225 C 0.39474 0.66843 0.66111 0.0
O226 O 0.39216 0.6555 0.66761 0.0
C227 C 0.3791 0.67043 0.72378 0.0
C228 C 0.37158 0.70313 0.77658 0.0
O229 O 0.35905 0.6951 0.77288 0.0
O230 O 0.37976 0.70746 0.76579 0.0
O231 O 0.97426 0.68082 0.25068 0.0
Cd232 Cd 0.97527 0.65462 0.23971 0.0
O233 O 0.98866 0.675 0.27056 0.0
Cd234 Cd 0.00082 0.67967 0.29312 0.0
O235 O 0.01323 0.68713 0.31493 0.0
C236 C 0.00937 0.69897 0.32248 0.0
O237 O 0.99787 0.70638 0.31701 0.0
C238 C 0.98158 0.68492 0.26337 0.0
C239 C 0.98556 0.65509 0.21024 0.0
O240 O 0.97121 0.65374 0.21231 0.0
O241 O 0.995 0.65599 0.22207 0.0
O242 O 0.63856 0.30421 0.75959 0.0
Cd243 Cd 0.65455 0.32785 0.75792 0.0
O244 O 0.63813 0.30858 0.78447 0.0
Cd245 Cd 0.62944 0.30352 0.80659 0.0
O246 O 0.61983 0.29574 0.82736 0.0
C247 C 0.60772 0.28689 0.82647 0.0
O248 O 0.601 0.28272 0.81292 0.0
C249 C 0.63405 0.30023 0.77236 0.0
C250 C 0.64489 0.34169 0.73155 0.0
O251 O 0.65576 0.33255 0.73137 0.0
O252 O 0.6389 0.34459 0.74431 0.0
O253 O 0.0663 0.29126 0.26279 0.0
Cd254 Cd 0.07227 0.26483 0.26651 0.0
O255 O 0.05693 0.28448 0.23941 0.0
Cd256 Cd 0.04404 0.28868 0.21806 0.0
O257 O 0.03056 0.29269 0.19706 0.0
C258 C 0.03376 0.30428 0.18953 0.0
O259 O 0.04531 0.3139 0.19456 0.0
C260 C 0.05983 0.29478 0.25024 0.0
C261 C 0.05627 0.25445 0.2908 0.0
O262 O 0.07016 0.26 0.29299 0.0
O263 O 0.05012 0.25351 0.2771 0.0
C264 C 0.32953 0.49281 0.55946 0.0
C265 C 0.32426 0.48053 0.54898 0.0
C266 C 0.32054 0.48358 0.53361 0.0
C267 C 0.32696 0.51067 0.53947 0.0
C268 C 0.33089 0.50768 0.55445 0.0
C269 C 0.33658 0.52194 0.56406 0.0
H270 H 0.35305 0.59867 0.56901 0.0
C271 C 0.32955 0.52733 0.53804 0.0
C272 C 0.33535 0.53398 0.55238 0.0
H273 H 0.35686 0.56762 0.6053 0.0
H274 H 0.34806 0.54624 0.58744 0.0
H275 H 0.36604 0.57624 0.54165 0.0
H276 H 0.3216 0.58592 0.55646 0.0
H277 H 0.31906 0.58235 0.53655 0.0
H278 H 0.3317 0.59832 0.54441 0.0
H279 H 0.35759 0.59421 0.53949 0.0
H280 H 0.35405 0.5785 0.5252 0.0
C281 C 0.35341 0.52011 0.56973 0.0
C282 C 0.32556 0.52443 0.57704 0.0
C283 C 0.31503 0.5505 0.48771 0.0
C284 C 0.31572 0.56566 0.48317 0.0
C285 C 0.3219 0.57754 0.49375 0.0
C286 C 0.32726 0.57443 0.50853 0.0
C287 C 0.32639 0.55927 0.51292 0.0
C288 C 0.32038 0.54759 0.50259 0.0
C289 C 0.3203 0.53221 0.50937 0.0
C290 C 0.32701 0.53666 0.52555 0.0
C291 C 0.33058 0.55251 0.5275 0.0
C292 C 0.33087 0.52198 0.50026 0.0
C293 C 0.30345 0.5257 0.5092 0.0
C294 C 0.35233 0.58721 0.57302 0.0
C295 C 0.35587 0.58473 0.58847 0.0
C296 C 0.35426 0.56974 0.59339 0.0
C297 C 0.34914 0.55738 0.58302 0.0
C298 C 0.3454 0.5601 0.56761 0.0
C299 C 0.34701 0.57484 0.56289 0.0
C300 C 0.34161 0.57583 0.5464 0.0
C301 C 0.33677 0.5592 0.54187 0.0
C302 C 0.33907 0.55001 0.55428 0.0
C303 C 0.35545 0.58159 0.53763 0.0
C304 C 0.32785 0.5862 0.54579 0.0
H305 H 0.3188 0.50009 0.517 0.0
H306 H 0.33236 0.49098 0.57138 0.0
H307 H 0.31355 0.52073 0.57298 0.0
H308 H 0.32516 0.5366 0.58099 0.0
H309 H 0.32869 0.51772 0.58699 0.0
H310 H 0.35968 0.51425 0.56064 0.0
H311 H 0.354 0.51313 0.5799 0.0
H312 H 0.35999 0.53116 0.57256 0.0
H313 H 0.31055 0.54106 0.47983 0.0
H314 H 0.32236 0.58934 0.49069 0.0
H315 H 0.33178 0.584 0.51599 0.0
H316 H 0.34039 0.52897 0.49571 0.0
H317 H 0.32443 0.51553 0.49035 0.0
H318 H 0.33665 0.51383 0.50744 0.0
H319 H 0.29584 0.5349 0.51251 0.0
H320 H 0.30167 0.51688 0.51748 0.0
H321 H 0.29932 0.52081 0.49758 0.0
H322 H 0.31677 0.47436 0.52518 0.0
C323 C 0.32183 0.49855 0.52883 0.0
C324 C 0.23319 0.43253 0.96225 0.0
C325 C 0.23147 0.41681 0.95764 0.0
C326 C 0.23186 0.41228 0.94195 0.0
C327 C 0.23621 0.43874 0.93592 0.0
C328 C 0.23556 0.44324 0.95124 0.0
C329 C 0.2381 0.46034 0.95422 0.0
H330 H 0.25501 0.52977 0.92719 0.0
C331 C 0.23945 0.45258 0.92755 0.0
C332 C 0.24053 0.46529 0.93817 0.0
H333 H 0.24721 0.51919 0.97377 0.0
H334 H 0.24222 0.49247 0.96567 0.0
H335 H 0.2748 0.50139 0.91964 0.0
H336 H 0.22661 0.5072 0.91113 0.0
H337 H 0.23313 0.49777 0.89471 0.0
H338 H 0.24098 0.51682 0.90079 0.0
H339 H 0.26769 0.51342 0.90531 0.0
H340 H 0.26927 0.49319 0.9012 0.0
C341 C 0.2527 0.46366 0.96509 0.0
C342 C 0.22337 0.46649 0.96054 0.0
C343 C 0.24653 0.44699 0.87053 0.0
C344 C 0.25013 0.45747 0.85956 0.0
C345 C 0.25199 0.47323 0.86414 0.0
C346 C 0.25049 0.47839 0.87944 0.0
C347 C 0.24709 0.4677 0.89029 0.0
C348 C 0.2451 0.45231 0.8857 0.0
C349 C 0.24157 0.44252 0.89869 0.0
C350 C 0.2418 0.45456 0.91189 0.0
C351 C 0.24506 0.46928 0.90695 0.0
C352 C 0.25463 0.4315 0.90075 0.0
C353 C 0.2254 0.43444 0.89512 0.0
C354 C 0.25204 0.52171 0.93561 0.0
C355 C 0.25155 0.52659 0.95115 0.0
C356 C 0.24786 0.51569 0.96176 0.0
C357 C 0.24491 0.50018 0.95703 0.0
C358 C 0.24573 0.49544 0.94151 0.0
C359 C 0.24915 0.50614 0.93107 0.0
C360 C 0.24971 0.49896 0.91508 0.0
C361 C 0.24608 0.48219 0.91767 0.0
C362 C 0.24378 0.4802 0.93317 0.0
C363 C 0.26615 0.50191 0.90988 0.0
C364 C 0.23705 0.50553 0.90476 0.0
H365 H 0.2345 0.41889 0.91939 0.0
H366 H 0.2328 0.43643 0.97418 0.0
H367 H 0.21297 0.45995 0.95507 0.0
H368 H 0.22181 0.47851 0.95802 0.0
H369 H 0.22325 0.46543 0.9731 0.0
H370 H 0.26143 0.45531 0.96253 0.0
H371 H 0.25004 0.46277 0.97725 0.0
H372 H 0.25853 0.47498 0.96381 0.0
H373 H 0.24472 0.43484 0.86737 0.0
H374 H 0.25483 0.48155 0.85594 0.0
H375 H 0.25213 0.49049 0.88224 0.0
H376 H 0.26583 0.4371 0.89815 0.0
H377 H 0.2525 0.42101 0.89295 0.0
H378 H 0.25644 0.42814 0.91263 0.0
H379 H 0.21771 0.44194 0.88885 0.0
H380 H 0.21949 0.4319 0.90555 0.0
H381 H 0.22593 0.42367 0.88787 0.0
H382 H 0.23082 0.40027 0.93805 0.0
C383 C 0.23416 0.42313 0.9311 0.0
C384 C 0.69714 0.02159 0.42562 0.0
C385 C 0.69417 0.03488 0.4345 0.0
C386 C 0.69663 0.03514 0.45057 0.0
C387 C 0.70508 0.00933 0.44866 0.0
C388 C 0.70264 0.00903 0.43291 0.0
C389 C 0.70665 0.9941 0.42521 0.0
H390 H 0.73138 0.92291 0.43197 0.0
C391 C 0.71104 0.99458 0.45264 0.0
C392 C 0.71209 0.98561 0.43893 0.0
H393 H 0.71635 0.94336 0.39043 0.0
H394 H 0.71241 0.96697 0.40507 0.0
H395 H 0.75184 0.95216 0.44686 0.0
H396 H 0.70555 0.93498 0.45178 0.0
H397 H 0.7134 0.94103 0.47021 0.0
H398 H 0.72193 0.92596 0.45945 0.0
H399 H 0.74745 0.9363 0.45821 0.0
H400 H 0.74842 0.95586 0.46622 0.0
C401 C 0.71972 0.99749 0.41454 0.0
C402 C 0.69186 0.98621 0.41693 0.0
C403 C 0.72187 0.98376 0.50855 0.0
C404 C 0.72772 0.97117 0.5157 0.0
C405 C 0.73227 0.95873 0.50643 0.0
C406 C 0.73065 0.95861 0.49044 0.0
C407 C 0.72445 0.97108 0.48351 0.0
C408 C 0.72042 0.9835 0.49252 0.0
C409 C 0.71457 0.99596 0.48307 0.0
C410 C 0.71541 0.98876 0.46693 0.0
C411 C 0.72109 0.97417 0.46731 0.0
C412 C 0.7257 0.0104 0.48623 0.0
C413 C 0.69784 0.99836 0.48697 0.0
C414 C 0.72754 0.93255 0.42594 0.0
C415 C 0.72426 0.93127 0.41 0.0
C416 C 0.71888 0.94401 0.40271 0.0
C417 C 0.7166 0.9577 0.41124 0.0
C418 C 0.71962 0.95863 0.42724 0.0
C419 C 0.72512 0.94619 0.43427 0.0
C420 C 0.72732 0.94895 0.45135 0.0
C421 C 0.72214 0.96508 0.4535 0.0
C422 C 0.71766 0.97074 0.43937 0.0
C423 C 0.7446 0.94819 0.45604 0.0
C424 C 0.71662 0.93711 0.45871 0.0
H425 H 0.70366 0.02341 0.46994 0.0
H426 H 0.69551 0.02108 0.41324 0.0
H427 H 0.6817 0.98842 0.42356 0.0
H428 H 0.69205 0.97362 0.41577 0.0
H429 H 0.68973 0.99058 0.4054 0.0
H430 H 0.7281 0.00655 0.41998 0.0
H431 H 0.71517 0.00156 0.4035 0.0
H432 H 0.72649 0.9875 0.41215 0.0
H433 H 0.71823 0.99352 0.51525 0.0
H434 H 0.73721 0.94906 0.51153 0.0
H435 H 0.73423 0.94874 0.4841 0.0
H436 H 0.7376 0.00724 0.48909 0.0
H437 H 0.72224 0.0178 0.496 0.0
H438 H 0.72665 0.01726 0.47611 0.0
H439 H 0.69151 0.98717 0.4883 0.0
H440 H 0.69118 0.00371 0.47788 0.0
H441 H 0.6975 0.00544 0.49789 0.0
H442 H 0.69424 0.04516 0.45768 0.0
C443 C 0.70205 0.02247 0.45768 0.0
C444 C 0.66486 0.0602 0.04791 0.0
C445 C 0.66623 0.07493 0.05546 0.0
C446 C 0.67013 0.07635 0.07137 0.0
C447 C 0.67126 0.04883 0.07189 0.0
C448 C 0.66744 0.04739 0.05631 0.0
C449 C 0.6667 0.03096 0.05003 0.0
H450 H 0.67403 0.95616 0.06262 0.0
C451 C 0.6733 0.03335 0.07718 0.0
C452 C 0.67065 0.02281 0.06442 0.0
H453 H 0.66319 0.97588 0.01951 0.0
H454 H 0.66412 0.00108 0.03244 0.0
H455 H 0.70035 0.98129 0.0742 0.0
H456 H 0.65254 0.97656 0.08279 0.0
H457 H 0.66253 0.98277 0.10027 0.0
H458 H 0.66639 0.9646 0.09095 0.0
H459 H 0.69288 0.96746 0.08656 0.0
H460 H 0.69895 0.98678 0.09363 0.0
C461 C 0.67905 0.0294 0.0382 0.0
C462 C 0.65012 0.02651 0.04346 0.0
C463 C 0.68806 0.0268 0.13331 0.0
C464 C 0.69098 0.0139 0.1416 0.0
C465 C 0.68954 -0.00073 0.13381 0.0
C466 C 0.68537 0.9975 0.11808 0.0
C467 C 0.68264 0.01051 0.10995 0.0
C468 C 0.68395 0.02484 0.11758 0.0
C469 C 0.68068 0.03736 0.10707 0.0
C470 C 0.67722 0.02816 0.09186 0.0
C471 C 0.6784 0.01246 0.09363 0.0
C472 C 0.69538 0.04812 0.10699 0.0
C473 C 0.66646 0.04532 0.1125 0.0
C474 C 0.67198 0.9659 0.05591 0.0
C475 C 0.66859 0.96397 0.03998 0.0
C476 C 0.66568 0.97699 0.0318 0.0
C477 C 0.66634 0.99164 0.03932 0.0
C478 C 0.66997 0.99336 0.05521 0.0
C479 C 0.67267 0.98058 0.06322 0.0
C480 C 0.67653 0.98452 0.07999 0.0
C481 C 0.67575 0.00179 0.08076 0.0
C482 C 0.67189 0.00692 0.06623 0.0
C483 C 0.69297 0.97972 0.08395 0.0
C484 C 0.66397 0.97667 0.08909 0.0
H485 H 0.6756 0.06533 0.09164 0.0
H486 H 0.66175 0.05864 0.03574 0.0
H487 H 0.64168 0.03184 0.05077 0.0
H488 H 0.64712 0.01408 0.04319 0.0
H489 H 0.6482 0.03047 0.03173 0.0
H490 H 0.68944 0.03702 0.04176 0.0
H491 H 0.67471 0.03261 0.02673 0.0
H492 H 0.68324 0.01778 0.03711 0.0
H493 H 0.68888 0.0382 0.13894 0.0
H494 H 0.69191 0.98915 0.13983 0.0
H495 H 0.68457 0.98607 0.11284 0.0
H496 H 0.70583 0.04157 0.10814 0.0
H497 H 0.69602 0.05699 0.11666 0.0
H498 H 0.69635 0.05379 0.09615 0.0
H499 H 0.65804 0.03687 0.11683 0.0
H500 H 0.66004 0.0506 0.10319 0.0
H501 H 0.66973 0.05417 0.12193 0.0
H502 H 0.67154 0.08753 0.07746 0.0
C503 C 0.67261 0.06342 0.07959 0.0
C504 C 0.52276 0.33059 0.48986 0.0
C505 C 0.5378 0.33436 0.4859 0.0
C506 C 0.54888 0.34005 0.49752 0.0
C507 C 0.53016 0.33783 0.51661 0.0
C508 C 0.51921 0.3324 0.50524 0.0
C509 C 0.50386 0.32883 0.51153 0.0
H510 H 0.46057 0.3274 0.57315 0.0
C511 C 0.5229 0.33824 0.53138 0.0
C512 C 0.50745 0.33302 0.52851 0.0
H513 H 0.44618 0.31354 0.52606 0.0
H514 H 0.47183 0.3199 0.51844 0.0
H515 H 0.49042 0.31103 0.5736 0.0
H516 H 0.48173 0.35784 0.56637 0.0
H517 H 0.49822 0.35799 0.57888 0.0
H518 H 0.48035 0.34947 0.58447 0.0
H519 H 0.48852 0.32473 0.58931 0.0
H520 H 0.5068 0.32184 0.58149 0.0
C521 C 0.49953 0.31149 0.50827 0.0
C522 C 0.49225 0.33939 0.50433 0.0
C523 C 0.55491 0.35457 0.58072 0.0
C524 C 0.55158 0.35502 0.59627 0.0
C525 C 0.53636 0.35144 0.59994 0.0
C526 C 0.5248 0.34732 0.58846 0.0
C527 C 0.52841 0.34655 0.57305 0.0
C528 C 0.54323 0.35019 0.56938 0.0
C529 C 0.54501 0.34815 0.55241 0.0
C530 C 0.52883 0.34257 0.54658 0.0
C531 C 0.51918 0.34175 0.55872 0.0
C532 C 0.55662 0.33576 0.54967 0.0
C533 C 0.54974 0.36401 0.54662 0.0
C534 C 0.46288 0.32595 0.56115 0.0
C535 C 0.45133 0.32017 0.55015 0.0
C536 C 0.45492 0.318 0.53473 0.0
C537 C 0.46979 0.32174 0.53035 0.0
C538 C 0.48121 0.32756 0.54154 0.0
C539 C 0.47763 0.32947 0.55665 0.0
C540 C 0.49121 0.33514 0.56716 0.0
C541 C 0.50354 0.33666 0.55586 0.0
C542 C 0.49768 0.33226 0.54085 0.0
C543 C 0.49444 0.32267 0.57859 0.0
C544 C 0.48778 0.35089 0.57476 0.0
H545 H 0.55413 0.3462 0.52105 0.0
H546 H 0.51399 0.3261 0.48124 0.0
H547 H 0.49764 0.35111 0.50352 0.0
H548 H 0.48228 0.34097 0.51124 0.0
H549 H 0.48812 0.33491 0.49258 0.0
H550 H 0.50985 0.30475 0.50937 0.0
H551 H 0.4942 0.30904 0.49648 0.0
H552 H 0.49174 0.30683 0.51653 0.0
H553 H 0.56639 0.35736 0.57739 0.0
H554 H 0.5334 0.35131 0.61175 0.0
H555 H 0.51354 0.34462 0.59208 0.0
H556 H 0.55547 0.3267 0.55797 0.0
H557 H 0.5686 0.34081 0.55108 0.0
H558 H 0.55477 0.32954 0.5383 0.0
H559 H 0.54423 0.37332 0.55302 0.0
H560 H 0.54598 0.36507 0.53449 0.0
H561 H 0.56234 0.36652 0.54817 0.0
H562 H 0.56047 0.34331 0.49477 0.0
C563 C 0.54515 0.34181 0.5128 0.0
C564 C 0.14024 0.68794 0.01286 0.0
C565 C 0.1489 0.68908 0.027 0.0
C566 C 0.14146 0.68595 0.0404 0.0
C567 C 0.11713 0.68141 0.02564 0.0
C568 C 0.12447 0.68408 0.01246 0.0
C569 C 0.1136 0.68255 0.99841 0.0
H570 H 0.04109 0.67047 0.9669 0.0
C571 C 0.10061 0.67832 0.02135 0.0
C572 C 0.09847 0.6789 0.0054 0.0
H573 H 0.08294 0.67797 0.94391 0.0
H574 H 0.09762 0.67974 0.96816 0.0
H575 H 0.05481 0.64723 0.9911 0.0
H576 H 0.04956 0.69589 0.99446 0.0
H577 H 0.04521 0.68887 0.01213 0.0
H578 H 0.03357 0.68219 0.99505 0.0
H579 H 0.03645 0.65528 0.99143 0.0
H580 H 0.04742 0.65207 0.00886 0.0
C581 C 0.11826 0.66902 0.9878 0.0
C582 C 0.11391 0.69819 0.99104 0.0
C583 C 0.06354 0.67022 0.06283 0.0
C584 C 0.04746 0.66848 0.06275 0.0
C585 C 0.03884 0.66806 0.04856 0.0
C586 C 0.04608 0.66944 0.03481 0.0
C587 C 0.06214 0.67138 0.03518 0.0
C588 C 0.07057 0.6718 0.04906 0.0
C589 C 0.08746 0.6746 0.04742 0.0
C590 C 0.08782 0.67565 0.03024 0.0
C591 C 0.07299 0.67366 0.02309 0.0
C592 C 0.09561 0.66054 0.05295 0.0
C593 C 0.09284 0.69001 0.05636 0.0
C594 C 0.05341 0.67259 0.96712 0.0
C595 C 0.06087 0.67403 0.95345 0.0
C596 C 0.07694 0.6766 0.95424 0.0
C597 C 0.08545 0.67771 0.96835 0.0
C598 C 0.07786 0.67621 0.9819 0.0
C599 C 0.06211 0.67364 0.98115 0.0
C600 C 0.05607 0.67214 0.99675 0.0
C601 C 0.07081 0.67409 0.00693 0.0
C602 C 0.0835 0.67659 0.99815 0.0
C603 C 0.04816 0.65589 0.99715 0.0
C604 C 0.04544 0.68535 -0.00017 0.0
H605 H 0.12071 0.67996 0.05042 0.0
H606 H 0.14552 0.69036 0.00234 0.0
H607 H 0.11442 0.70778 2e-05 0.0
H608 H 0.10352 0.6997 0.98366 0.0
H609 H 0.12409 0.69978 0.98421 0.0
H610 H 0.12372 0.66021 0.99453 0.0
H611 H 0.12657 0.67299 0.97958 0.0
H612 H 0.10832 0.66274 0.98139 0.0
H613 H 0.07062 0.67038 0.07342 0.0
H614 H 0.02644 0.66696 0.04809 0.0
H615 H 0.03887 0.66912 0.02444 0.0
H616 H 0.08845 0.64975 0.04978 0.0
H617 H 0.09779 0.66139 0.06561 0.0
H618 H 0.10651 0.65891 0.04756 0.0
H619 H 0.0837 0.69828 0.05586 0.0
H620 H 0.10272 0.69595 0.0515 0.0
H621 H 0.09576 0.68832 0.06863 0.0
H622 H 0.14786 0.68643 0.0514 0.0
C623 C 0.12567 0.68212 0.0398 0.0
C624 C 0.93555 0.25333 0.51973 0.0
C625 C 0.95117 0.25618 0.52436 0.0
C626 C 0.96209 0.25531 0.51321 0.0
C627 C 0.94193 0.24879 0.49331 0.0
C628 C 0.93121 0.24969 0.50421 0.0
C629 C 0.91509 0.24649 0.49731 0.0
H630 H 0.86751 0.22943 0.43391 0.0
C631 C 0.93372 0.24459 0.47829 0.0
C632 C 0.91796 0.24316 0.48055 0.0
H633 H 0.85493 0.23845 0.48041 0.0
H634 H 0.88173 0.24173 0.48917 0.0
H635 H 0.89458 0.25584 0.43489 0.0
H636 H 0.89326 0.20766 0.44166 0.0
H637 H 0.91072 0.21181 0.43352 0.0
H638 H 0.89292 0.21465 0.42285 0.0
H639 H 0.88965 0.24115 0.41991 0.0
H640 H 0.90922 0.24797 0.42468 0.0
C641 C 0.90632 0.26117 0.49986 0.0
C642 C 0.90794 0.23223 0.50448 0.0
C643 C 0.96333 0.23952 0.43015 0.0
C644 C 0.95878 0.23515 0.41472 0.0
C645 C 0.94324 0.23053 0.41085 0.0
C646 C 0.93239 0.23086 0.4219 0.0
C647 C 0.93703 0.23574 0.43711 0.0
C648 C 0.95231 0.23959 0.44112 0.0
C649 C 0.95516 0.24362 0.45806 0.0
C650 C 0.93898 0.24197 0.46339 0.0
C651 C 0.92844 0.23757 0.45101 0.0
C652 C 0.96197 0.26039 0.46029 0.0
C653 C 0.96557 0.23168 0.46485 0.0
C654 C 0.87046 0.23188 0.44603 0.0
C655 C 0.85904 0.23362 0.45647 0.0
C656 C 0.86349 0.23718 0.47209 0.0
C657 C 0.87906 0.23904 0.47715 0.0
C658 C 0.89032 0.2374 0.46648 0.0
C659 C 0.88588 0.23379 0.45123 0.0
C660 C 0.89925 0.23259 0.4414 0.0
C661 C 0.91252 0.2363 0.45321 0.0
C662 C 0.90728 0.2391 0.46789 0.0
C663 C 0.89819 0.24492 0.42949 0.0
C664 C 0.89907 0.21588 0.43436 0.0
H665 H 0.96644 0.25113 0.48986 0.0
H666 H 0.92686 0.25409 0.52797 0.0
H667 H 0.91649 0.22346 0.50585 0.0
H668 H 0.8983 0.2264 0.49727 0.0
H669 H 0.90394 0.23533 0.51599 0.0
H670 H 0.91405 0.27163 0.49918 0.0
H671 H 0.90153 0.26175 0.51131 0.0
H672 H 0.89701 0.26216 0.49099 0.0
H673 H 0.97513 0.2431 0.43364 0.0
H674 H 0.9394 0.2266 0.39922 0.0
H675 H 0.92077 0.22739 0.41811 0.0
H676 H 0.95612 0.2677 0.45211 0.0
H677 H 0.97437 0.26112 0.45825 0.0
H678 H 0.9604 0.26576 0.47176 0.0
H679 H 0.96363 0.22035 0.45835 0.0
H680 H 0.96314 0.22932 0.47674 0.0
H681 H 0.97788 0.23539 0.46447 0.0
H682 H 0.9742 0.25728 0.51647 0.0
C683 C 0.95757 0.25163 0.49775 0.0
C684 C 0.52408 0.7507 0.99545 0.0
C685 C 0.53125 0.75735 0.98324 0.0
C686 C 0.52199 0.76107 0.97041 0.0
C687 C 0.49946 0.7497 0.98103 0.0
C688 C 0.50821 0.74718 0.99417 0.0
C689 C 0.49866 0.74046 0.00615 0.0
H690 H 0.42985 0.71083 0.02576 0.0
C691 C 0.48366 0.74352 0.98272 0.0
C692 C 0.48301 0.73832 0.99751 0.0
H693 H 0.47109 0.72157 0.05498 0.0
H694 H 0.48437 0.73026 0.03342 0.0
H695 H 0.43188 0.74168 0.00765 0.0
H696 H 0.44643 0.69642 0.99702 0.0
H697 H 0.4403 0.70352 0.97954 0.0
H698 H 0.4268 0.70085 0.99408 0.0
H699 H 0.41884 0.72516 0.0033 0.0
H700 H 0.42612 0.73621 0.98837 0.0
C701 C 0.49886 0.75237 0.02002 0.0
C702 C 0.5049 0.72493 0.01012 0.0
C703 C 0.44592 0.73785 0.9362 0.0
C704 C 0.43142 0.73006 0.93326 0.0
C705 C 0.42417 0.72366 0.94557 0.0
C706 C 0.43142 0.72463 0.96035 0.0
C707 C 0.44617 0.73192 0.9629 0.0
C708 C 0.45314 0.7384 0.95092 0.0
C709 C 0.46918 0.74481 0.95541 0.0
C710 C 0.47074 0.74105 0.97208 0.0
C711 C 0.45719 0.73363 0.97645 0.0
C712 C 0.46993 0.76234 0.95364 0.0
C713 C 0.48019 0.73594 0.94545 0.0
C714 C 0.44179 0.71489 0.02743 0.0
C715 C 0.44946 0.71554 0.04204 0.0
C716 C 0.46494 0.72109 0.04384 0.0
C717 C 0.47261 0.72617 0.03134 0.0
C718 C 0.46469 0.72584 0.01689 0.0
C719 C 0.44955 0.72024 0.01509 0.0
C720 C 0.44287 0.72123 -0.00102 0.0
C721 C 0.45631 0.7289 0.9916 0.0
C722 C 0.46911 0.73135 0.00209 0.0
C723 C 0.42912 0.73152 -0.00051 0.0
C724 C 0.43875 0.70471 0.99197 0.0
H725 H 0.49991 0.7601 0.95903 0.0
H726 H 0.53065 0.74783 0.00561 0.0
H727 H 0.507 0.71799 -0.00052 0.0
H728 H 0.49683 0.71783 0.01632 0.0
H729 H 0.5159 0.7267 0.01718 0.0
H730 H 0.50186 0.7642 0.01675 0.0
H731 H 0.50735 0.7498 0.02929 0.0
H732 H 0.48746 0.75303 0.02476 0.0
H733 H 0.45177 0.74317 0.92716 0.0
H734 H 0.4131 0.71744 0.9437 0.0
H735 H 0.42539 0.71936 0.96916 0.0
H736 H 0.45861 0.76712 0.95526 0.0
H737 H 0.47336 0.76511 0.94208 0.0
H738 H 0.47783 0.76874 0.96244 0.0
H739 H 0.47672 0.72347 0.94447 0.0
H740 H 0.49213 0.73676 0.95026 0.0
H741 H 0.48001 0.74001 0.93368 0.0
H742 H 0.52694 0.76682 0.96111 0.0
C743 C 0.50621 0.75724 0.96923 0.0
C744 C 0.57064 0.56689 0.31234 0.0
C745 C 0.58557 0.56204 0.3146 0.0
C746 C 0.58768 0.54627 0.31518 0.0
C747 C 0.56037 0.54042 0.31061 0.0
C748 C 0.55826 0.5559 0.31028 0.0
C749 C 0.5417 0.55894 0.30693 0.0
H750 H 0.46809 0.53155 0.29148 0.0
C751 C 0.5453 0.53198 0.30744 0.0
C752 C 0.5343 0.54273 0.30523 0.0
H753 H 0.48636 0.57874 0.29524 0.0
H754 H 0.51171 0.57057 0.30054 0.0
H755 H 0.49501 0.51907 0.27158 0.0
H756 H 0.48896 0.51998 0.32011 0.0
H757 H 0.49479 0.50182 0.31406 0.0
H758 H 0.4769 0.5081 0.3063 0.0
H759 H 0.48123 0.50633 0.27951 0.0
H760 H 0.50093 0.50174 0.27824 0.0
C761 C 0.54037 0.56709 0.29173 0.0
C762 C 0.53627 0.5682 0.32099 0.0
C763 C 0.54215 0.47396 0.30485 0.0
C764 C 0.53017 0.46271 0.30121 0.0
C765 C 0.51522 0.46734 0.29807 0.0
C766 C 0.51232 0.48296 0.29853 0.0
C767 C 0.52451 0.49407 0.302 0.0
C768 C 0.53911 0.48944 0.30511 0.0
C769 C 0.55083 0.50267 0.30799 0.0
C770 C 0.5409 0.51609 0.30617 0.0
C771 C 0.52548 0.51104 0.30272 0.0
C772 C 0.56255 0.50155 0.29543 0.0
C773 C 0.55786 0.50231 0.32462 0.0
C774 C 0.47756 0.54012 0.29332 0.0
C775 C 0.47511 0.55585 0.29307 0.0
C776 C 0.48781 0.56658 0.29566 0.0
C777 C 0.50258 0.56181 0.29865 0.0
C778 C 0.50482 0.5461 0.29898 0.0
C779 C 0.49245 0.53553 0.29627 0.0
C780 C 0.49713 0.5193 0.29682 0.0
C781 C 0.51429 0.52192 0.30051 0.0
C782 C 0.5187 0.53766 0.30176 0.0
C783 C 0.49333 0.51104 0.28078 0.0
C784 C 0.489 0.51176 0.30992 0.0
H785 H 0.57762 0.52365 0.31374 0.0
H786 H 0.56869 0.57893 0.31168 0.0
H787 H 0.54141 0.56419 0.33184 0.0
H788 H 0.52378 0.56679 0.32201 0.0
H789 H 0.53969 0.58059 0.32069 0.0
H790 H 0.54891 0.56312 0.28373 0.0
H791 H 0.54242 0.5797 0.2938 0.0
H792 H 0.52919 0.56453 0.28529 0.0
H793 H 0.55382 0.47082 0.30696 0.0
H794 H 0.5058 0.45886 0.29526 0.0
H795 H 0.50072 0.48578 0.29603 0.0
H796 H 0.55711 0.49597 0.28453 0.0
H797 H 0.57223 0.49469 0.29903 0.0
H798 H 0.56712 0.51287 0.29226 0.0
H799 H 0.54899 0.49866 0.33245 0.0
H800 H 0.56251 0.51367 0.32953 0.0
H801 H 0.56703 0.49412 0.32526 0.0
H802 H 0.59907 0.5423 0.31709 0.0
C803 C 0.57519 0.53546 0.31326 0.0
C804 C 0.05366 0.0452 0.69028 0.0
C805 C 0.06809 0.05316 0.69013 0.0
C806 C 0.06909 0.06929 0.69197 0.0
C807 C 0.04169 0.06931 0.69418 0.0
C808 C 0.04066 0.05349 0.69243 0.0
C809 C 0.02449 0.04691 0.69348 0.0
H810 H 0.94979 0.05931 0.70262 0.0
C811 C 0.02619 0.07447 0.69631 0.0
C812 C 0.01603 0.06141 0.696 0.0
H813 H 0.96992 0.01572 0.69627 0.0
H814 H 0.99497 0.02876 0.69521 0.0
H815 H 0.97559 0.07454 0.72631 0.0
H816 H 0.96845 0.07619 0.67747 0.0
H817 H 0.97449 0.09482 0.68479 0.0
H818 H 0.9569 0.08591 0.6907 0.0
H819 H 0.96134 0.08575 0.71769 0.0
H820 H 0.98081 0.09339 0.72208 0.0
C821 C 0.02417 0.03695 0.70748 0.0
C822 C 0.01927 0.03812 0.67801 0.0
C823 C 0.01831 0.13148 0.70287 0.0
C824 C 0.00535 0.13975 0.70545 0.0
C825 C 0.99102 0.13167 0.70616 0.0
C826 C 0.98964 0.11564 0.70443 0.0
C827 C 0.00272 0.10752 0.70201 0.0
C828 C 0.01675 0.11544 0.70125 0.0
C829 C 0.02944 0.10489 0.69892 0.0
C830 C 0.02069 0.08933 0.69835 0.0
C831 C 0.00507 0.09097 0.70013 0.0
C832 C 0.04112 0.10737 0.71301 0.0
C833 C 0.03619 0.10807 0.6834 0.0
C834 C 0.95956 0.05255 0.70086 0.0
C835 C 0.95785 0.03647 0.69941 0.0
C836 C 0.97095 0.02812 0.6975 0.0
C837 C 0.98546 0.03572 0.69681 0.0
C838 C 0.98691 0.05184 0.69813 0.0
C839 C 0.97406 0.05993 0.70018 0.0
C840 C 0.97765 0.07695 0.70154 0.0
C841 C 0.99478 0.07781 0.6999 0.0
C842 C 0.0002 0.06309 0.69787 0.0
C843 C 0.97358 0.08312 0.71766 0.0
C844 C 0.96889 0.08397 0.68803 0.0
H845 H 0.05757 0.08963 0.69525 0.0
H846 H 0.05258 0.0328 0.68905 0.0
H847 H 0.02334 0.0445 0.66827 0.0
H848 H 0.0067 0.03674 0.67599 0.0
H849 H 0.02398 0.02663 0.67723 0.0
H850 H 0.03225 0.042 0.71699 0.0
H851 H 0.02755 0.02519 0.70445 0.0
H852 H 0.01289 0.03623 0.71244 0.0
H853 H 0.02952 0.13733 0.70249 0.0
H854 H 0.98084 0.13779 0.70798 0.0
H855 H 0.97842 0.11021 0.7051 0.0
H856 H 0.03539 0.11081 0.72356 0.0
H857 H 0.05008 0.11651 0.7113 0.0
H858 H 0.04669 0.09681 0.7158 0.0
H859 H 0.02697 0.1103 0.67468 0.0
H860 H 0.0419 0.09825 0.67836 0.0
H861 H 0.04443 0.11828 0.6846 0.0
H862 H 0.08004 0.07568 0.69172 0.0
C863 C 0.056 0.07738 0.69395 0.0
C864 C 0.51815 0.94587 0.26066 0.0
C865 C 0.53014 0.93606 0.26274 0.0
C866 C 0.52658 0.92012 0.2624 0.0
C867 C 0.49953 0.92405 0.25832 0.0
C868 C 0.50302 0.93965 0.25848 0.0
C869 C 0.48896 0.9485 0.25624 0.0
H870 H 0.41169 0.94853 0.24798 0.0
C871 C 0.48271 0.92135 0.25605 0.0
C872 C 0.47645 0.93565 0.25479 0.0
H873 H 0.44466 0.98748 0.24966 0.0
H874 H 0.46538 0.97066 0.25197 0.0
H875 H 0.42929 0.92756 0.22505 0.0
H876 H 0.42843 0.93079 0.27413 0.0
H877 H 0.42762 0.91121 0.26825 0.0
H878 H 0.41255 0.9228 0.26168 0.0
H879 H 0.41362 0.91928 0.23468 0.0
H880 H 0.43023 0.9088 0.23081 0.0
C881 C 0.49005 0.95685 0.24122 0.0
C882 C 0.48783 0.95926 0.27078 0.0
C883 C 0.45806 0.86713 0.25517 0.0
C884 C 0.44273 0.86115 0.25324 0.0
C885 C 0.43105 0.87133 0.25102 0.0
C886 C 0.4345 0.88712 0.25084 0.0
C887 C 0.44983 0.89291 0.25286 0.0
C888 C 0.46133 0.88298 0.25489 0.0
C889 C 0.47697 0.89123 0.2566 0.0
C890 C 0.47292 0.90774 0.25528 0.0
C891 C 0.45701 0.90863 0.25316 0.0
C892 C 0.48626 0.8855 0.24313 0.0
C893 C 0.48425 0.88856 0.2727 0.0
C894 C 0.42335 0.95347 0.24863 0.0
C895 C 0.42648 0.96941 0.24866 0.0
C896 C 0.44189 0.97528 0.24982 0.0
C897 C 0.45392 0.96548 0.25109 0.0
C898 C 0.45056 0.94959 0.25123 0.0
C899 C 0.43547 0.94385 0.24987 0.0
C900 C 0.43399 0.92669 0.25007 0.0
C901 C 0.45067 0.92306 0.25192 0.0
C902 C 0.46034 0.9365 0.25266 0.0
C903 C 0.4263 0.92013 0.23443 0.0
C904 C 0.42511 0.92252 0.26417 0.0
H905 H 0.50943 0.90187 0.26018 0.0
H906 H 0.52049 0.95815 0.26065 0.0
H907 H 0.49144 0.95352 0.28127 0.0
H908 H 0.47604 0.96241 0.27255 0.0
H909 H 0.49535 0.96989 0.27042 0.0
H910 H 0.49573 0.94984 0.23248 0.0
H911 H 0.49683 0.968 0.24326 0.0
H912 H 0.47872 0.9588 0.23572 0.0
H913 H 0.46734 0.85969 0.25699 0.0
H914 H 0.41918 0.86708 0.24917 0.0
H915 H 0.42506 0.8942 0.2491 0.0
H916 H 0.4787 0.88298 0.2325 0.0
H917 H 0.49183 0.87482 0.24574 0.0
H918 H 0.49505 0.89414 0.24004 0.0
H919 H 0.47545 0.88857 0.28133 0.0
H920 H 0.49294 0.89769 0.27703 0.0
H921 H 0.48951 0.87734 0.27274 0.0
H922 H 0.53556 0.91232 0.26413 0.0
C923 C 0.51137 0.91408 0.26021 0.0
C924 C 0.03046 0.43267 0.71497 0.0
C925 C 0.04526 0.43981 0.71506 0.0
C926 C 0.04765 0.45547 0.71982 0.0
C927 C 0.02065 0.4567 0.72405 0.0
C928 C 0.01841 0.44126 0.71965 0.0
C929 C 0.00213 0.43527 0.72096 0.0
H930 H 0.92935 0.44921 0.73625 0.0
C931 C 0.00578 0.46225 0.72829 0.0
C932 C 0.99492 0.44969 0.72667 0.0
H933 H 0.94719 0.40572 0.72297 0.0
H934 H 0.97251 0.41803 0.72246 0.0
H935 H 0.9564 0.45981 0.76099 0.0
H936 H 0.94819 0.46912 0.71371 0.0
H937 H 0.95509 0.48645 0.72356 0.0
H938 H 0.93744 0.47708 0.72872 0.0
H939 H 0.94294 0.47323 0.75503 0.0
H940 H 0.96294 0.47895 0.75953 0.0
C941 C 0.00205 0.42296 0.73295 0.0
C942 C 0.99543 0.42938 0.70476 0.0
C943 C 0.00076 0.51904 0.74172 0.0
C944 C 0.98827 0.52747 0.74575 0.0
C945 C 0.974 0.51958 0.74731 0.0
C946 C 0.97208 0.50367 0.74459 0.0
C947 C 0.98455 0.49544 0.74023 0.0
C948 C -0.00134 0.50307 0.73907 0.0
C949 C 0.01064 0.49231 0.73462 0.0
C950 C 0.00126 0.47705 0.73292 0.0
C951 C 0.98599 0.47901 0.73614 0.0
C952 C 0.02318 0.49282 0.74793 0.0
C953 C 0.01659 0.49697 0.71917 0.0
C954 C 0.93871 0.44225 0.73343 0.0
C955 C 0.93617 0.42643 0.72961 0.0
C956 C 0.94873 0.41795 0.72575 0.0
C957 C 0.96347 0.42511 0.72554 0.0
C958 C 0.96575 0.44095 0.72926 0.0
C959 C 0.95349 0.4492 0.73324 0.0
C960 C 0.95801 0.46589 0.73699 0.0
C961 C 0.97503 0.46632 0.7346 0.0
C962 C 0.97948 0.45172 0.72996 0.0
C963 C 0.95485 0.46982 0.75396 0.0
C964 C 0.94921 0.47525 0.72527 0.0
H965 H 0.03793 0.47586 0.72767 0.0
H966 H 0.02839 0.42058 0.71164 0.0
H967 H -0.00084 0.43728 0.69604 0.0
H968 H 0.9828 0.4288 0.70364 0.0
H969 H -0.00061 0.41788 0.70154 0.0
H970 H 0.01153 0.4255 0.74196 0.0
H971 H 0.00351 0.4114 0.72751 0.0
H972 H 0.99154 0.42259 0.73931 0.0
H973 H 0.01192 0.52475 0.74061 0.0
H974 H 0.96414 0.52579 0.75021 0.0
H975 H 0.96088 0.49842 0.74577 0.0
H976 H 0.01836 0.4955 0.75918 0.0
H977 H 0.03246 0.50173 0.7465 0.0
H978 H 0.02822 0.48166 0.74915 0.0
H979 H 0.0069 0.49964 0.71117 0.0
H980 H 0.02237 0.4878 0.71311 0.0
H981 H 0.02461 0.50733 0.72086 0.0
H982 H 0.05899 0.46116 0.71998 0.0
C983 C 0.03541 0.46396 0.72425 0.0
C984 C 0.66905 0.50144 0.45574 0.0
C985 C 0.6721 0.51465 0.46566 0.0
C986 C 0.67409 0.51304 0.48156 0.0
C987 C 0.67032 0.48542 0.47739 0.0
C988 C 0.6682 0.48702 0.46182 0.0
C989 C 0.66505 0.47184 0.45285 0.0
H990 H 0.66051 0.39439 0.45197 0.0
C991 C 0.66894 0.46889 0.47994 0.0
C992 C 0.66579 0.46087 0.46559 0.0
H993 H 0.65414 0.42239 0.41348 0.0
H994 H 0.65752 0.44537 0.43054 0.0
H995 H 0.68843 0.41512 0.46962 0.0
H996 H 0.63971 0.41261 0.47335 0.0
H997 H 0.64776 0.41703 0.49203 0.0
H998 H 0.65167 0.3992 0.48201 0.0
H999 H 0.67806 0.39925 0.47713 0.0
H1000 H 0.68517 0.41582 0.48924 0.0
C1001 C 0.67805 0.46979 0.44185 0.0
C1002 C 0.6488 0.4715 0.44475 0.0
C1003 C 0.67706 0.45073 0.53381 0.0
C1004 C 0.67666 0.43605 0.53954 0.0
C1005 C 0.6734 0.42311 0.52924 0.0
C1006 C 0.67066 0.42469 0.51355 0.0
C1007 C 0.67119 0.43939 0.50797 0.0
C1008 C 0.67424 0.45212 0.51804 0.0
C1009 C 0.67414 0.46681 0.50996 0.0
C1010 C 0.67053 0.46074 0.49343 0.0
C1011 C 0.66892 0.44468 0.49237 0.0
C1012 C 0.69037 0.47497 0.5124 0.0
C1013 C 0.66119 0.47628 0.5161 0.0
C1014 C 0.65992 0.4055 0.44723 0.0
C1015 C 0.65727 0.40667 0.43139 0.0
C1016 C 0.6562 0.42127 0.42566 0.0
C1017 C 0.65824 0.43455 0.43557 0.0
C1018 C 0.66126 0.43319 0.45138 0.0
C1019 C 0.66177 0.4188 0.45695 0.0
C1020 C 0.66452 0.41942 0.47407 0.0
C1021 C 0.66588 0.43657 0.47788 0.0
C1022 C 0.66414 0.44461 0.46457 0.0
C1023 C 0.67977 0.41195 0.47785 0.0
C1024 C 0.65029 0.41159 0.48082 0.0
H1025 H 0.67493 0.49807 0.49965 0.0
H1026 H 0.66723 0.50229 0.44349 0.0
H1027 H 0.64103 0.47825 0.45169 0.0
H1028 H 0.64313 0.45984 0.44331 0.0
H1029 H 0.64913 0.47644 0.43339 0.0
H1030 H 0.68935 0.4737 0.44771 0.0
H1031 H 0.67633 0.47662 0.43168 0.0
H1032 H 0.67917 0.45775 0.43789 0.0
H1033 H 0.67941 0.46091 0.54143 0.0
H1034 H 0.67327 0.41166 0.53329 0.0
H1035 H 0.66837 0.41437 0.50636 0.0
H1036 H 0.69932 0.46651 0.51201 0.0
H1037 H 0.6919 0.4815 0.52372 0.0
H1038 H 0.69302 0.48277 0.50336 0.0
H1039 H 0.65121 0.46865 0.51874 0.0
H1040 H 0.65651 0.48391 0.50766 0.0
H1041 H 0.66518 0.48321 0.5268 0.0
H1042 H 0.67657 0.52302 0.48943 0.0
C1043 C 0.67322 0.49852 0.48746 0.0
C1044 C 0.76033 0.55866 0.05042 0.0
C1045 C 0.76534 0.57422 0.05289 0.0
C1046 C 0.77292 0.57944 0.06705 0.0
C1047 C 0.76956 0.55406 0.07632 0.0
C1048 C 0.7627 0.54878 0.06222 0.0
C1049 C 0.75822 0.53189 0.06158 0.0
H1050 H 0.7516 0.46593 0.09782 0.0
C1051 C 0.76959 0.54111 0.08635 0.0
C1052 C 0.76321 0.52802 0.07774 0.0
H1053 H 0.7394 0.47333 0.05039 0.0
H1054 H 0.74859 0.49978 0.05444 0.0
H1055 H 0.78433 0.48603 0.09995 0.0
H1056 H 0.73915 0.49774 0.1116 0.0
H1057 H 0.75245 0.50528 0.12638 0.0
H1058 H 0.75011 0.48485 0.1223 0.0
H1059 H 0.77549 0.47884 0.11626 0.0
H1060 H 0.7861 0.49722 0.1174 0.0
C1061 C 0.76754 0.52374 0.04936 0.0
C1062 C 0.74061 0.52973 0.05842 0.0
C1063 C 0.78538 0.55146 0.14275 0.0
C1064 C 0.78596 0.54224 0.15534 0.0
C1065 C 0.78257 0.52629 0.15268 0.0
C1066 C 0.77825 0.5198 0.13787 0.0
C1067 C 0.77727 0.52932 0.12553 0.0
C1068 C 0.78114 0.54482 0.1281 0.0
C1069 C 0.77972 0.55327 0.11373 0.0
C1070 C 0.77396 0.54036 0.10213 0.0
C1071 C 0.77242 0.52635 0.10907 0.0
C1072 C 0.79587 0.56003 0.11042 0.0
C1073 C 0.76768 0.56534 0.11593 0.0
C1074 C 0.75105 0.47324 0.0883 0.0
C1075 C 0.74465 0.46755 0.07379 0.0
C1076 C 0.74403 0.47748 0.06173 0.0
C1077 C 0.74945 0.49284 0.06408 0.0
C1078 C 0.75552 0.49845 0.07868 0.0
C1079 C 0.75635 0.48871 0.09049 0.0
C1080 C 0.76305 0.49683 0.10526 0.0
C1081 C 0.76622 0.51298 0.10029 0.0
C1082 C 0.76169 0.51384 0.08472 0.0
C1083 C 0.77799 0.48935 0.11013 0.0
C1084 C 0.75067 0.49612 0.11713 0.0
H1085 H 0.78062 0.57422 0.08936 0.0
H1086 H 0.75464 0.5543 0.03956 0.0
H1087 H 0.73481 0.53874 0.06496 0.0
H1088 H 0.73567 0.51878 0.0621 0.0
H1089 H 0.73732 0.53054 0.04606 0.0
H1090 H 0.77884 0.52999 0.04839 0.0
H1091 H 0.76135 0.52304 0.03788 0.0
H1092 H 0.77038 0.51211 0.05232 0.0
H1093 H 0.78766 0.56376 0.14426 0.0
H1094 H 0.78316 0.51882 0.16207 0.0
H1095 H 0.77566 0.50764 0.13662 0.0
H1096 H 0.80507 0.55331 0.11547 0.0
H1097 H 0.79792 0.57204 0.11528 0.0
H1098 H 0.79775 0.5596 0.09802 0.0
H1099 H 0.75775 0.56046 0.12179 0.0
H1100 H 0.76273 0.56917 0.10506 0.0
H1101 H 0.77267 0.57555 0.12306 0.0
H1102 H 0.77679 0.59139 0.06924 0.0
C1103 C 0.77505 0.56946 0.07876 0.0
C1104 C 0.25045 0.96917 0.5368 0.0
C1105 C 0.24923 0.95484 0.52851 0.0
C1106 C 0.24442 0.95412 0.5128 0.0
C1107 C 0.24266 0.98171 0.51391 0.0
C1108 C 0.24719 0.98234 0.52933 0.0
C1109 C 0.24839 -0.00159 0.53653 0.0
H1110 H 0.24169 0.07405 0.5293 0.0
C1111 C 0.24042 0.99755 0.50967 0.0
C1112 C 0.24373 0.00735 0.52292 0.0
H1113 H 0.25788 0.05167 0.56937 0.0
H1114 H 0.25341 0.0271 0.5555 0.0
H1115 H 0.26093 0.05653 0.50737 0.0
H1116 H 0.21389 0.04862 0.51742 0.0
H1117 H 0.21475 0.0462 0.49741 0.0
H1118 H 0.22089 0.06445 0.50716 0.0
H1119 H 0.24607 0.06684 0.49856 0.0
H1120 H 0.25154 0.0488 0.49016 0.0
C1121 C 0.2653 0.00244 0.5424 0.0
C1122 C 0.23674 -0.00063 0.5491 0.0
C1123 C 0.22616 0.00848 0.4543 0.0
C1124 C 0.22425 0.02222 0.44702 0.0
C1125 C 0.22517 0.03615 0.45612 0.0
C1126 C 0.22814 0.03646 0.47199 0.0
C1127 C 0.23047 0.02275 0.47899 0.0
C1128 C 0.22933 0.00903 0.47023 0.0
C1129 C 0.23254 0.99567 0.47974 0.0
C1130 C 0.23603 0.00373 0.49554 0.0
C1131 C 0.23476 0.01958 0.49497 0.0
C1132 C 0.24667 0.98804 0.47369 0.0
C1133 C 0.21782 0.98489 0.47908 0.0
C1134 C 0.24438 0.06392 0.53514 0.0
C1135 C 0.25016 0.06496 0.55055 0.0
C1136 C 0.2532 0.05132 0.55763 0.0
C1137 C 0.25075 0.03701 0.54948 0.0
C1138 C 0.24536 0.03626 0.534 0.0
C1139 C 0.24229 0.04958 0.5271 0.0
C1140 C 0.23745 0.04673 0.51037 0.0
C1141 C 0.23799 0.02945 0.50838 0.0
C1142 C 0.24251 0.02337 0.52226 0.0
C1143 C 0.24948 0.05519 0.50104 0.0
C1144 C 0.22092 0.05182 0.50781 0.0
H1145 H 0.23762 0.96619 0.49349 0.0
H1146 H 0.25385 0.97015 0.54893 0.0
H1147 H 0.22581 0.99275 0.54523 0.0
H1148 H 0.2335 0.01115 0.55185 0.0
H1149 H 0.24126 0.99456 0.55978 0.0
H1150 H 0.27332 0.99621 0.53528 0.0
H1151 H 0.26741 -0.0007 0.5544 0.0
H1152 H 0.26885 0.01467 0.54164 0.0
H1153 H 0.22541 0.99754 0.44777 0.0
H1154 H 0.22411 0.04698 0.45094 0.0
H1155 H 0.22883 0.04746 0.47814 0.0
H1156 H 0.25532 0.99685 0.47035 0.0
H1157 H 0.24338 0.98018 0.46344 0.0
H1158 H 0.2528 0.98168 0.48238 0.0
H1159 H 0.20743 0.9916 0.47907 0.0
H1160 H 0.21714 0.97797 0.48915 0.0
H1161 H 0.21686 0.97712 0.46851 0.0
H1162 H 0.24349 0.94328 0.50609 0.0
C1163 C 0.24111 0.96746 0.50548 0.0
C1164 C 0.32489 0.94951 0.94129 0.0
C1165 C 0.32592 0.93513 0.93344 0.0
C1166 C 0.32622 0.9344 0.91731 0.0
C1167 C 0.32442 0.96187 0.91721 0.0
C1168 C 0.32429 0.96266 0.933 0.0
C1169 C 0.32363 0.97886 0.9396 0.0
H1170 H 0.32003 0.05432 0.92806 0.0
C1171 C 0.32387 0.97759 0.91211 0.0
C1172 C 0.32359 0.98763 0.92518 0.0
H1173 H 0.32032 0.03257 0.97107 0.0
H1174 H 0.32229 0.00793 0.95774 0.0
H1175 H 0.34633 0.03614 0.91402 0.0
H1176 H 0.29728 0.02816 0.90894 0.0
H1177 H 0.30455 0.0263 0.89067 0.0
H1178 H 0.30749 0.04431 0.90173 0.0
H1179 H 0.33481 0.04672 0.90134 0.0
H1180 H 0.34194 0.02858 0.89514 0.0
C1181 C 0.33829 0.98296 0.9502 0.0
C1182 C 0.30846 0.97997 0.94769 0.0
C1183 C 0.32025 0.98625 0.85523 0.0
C1184 C 0.32014 -0.00046 0.84693 0.0
C1185 C 0.32194 0.01398 0.85516 0.0
C1186 C 0.32317 0.01515 0.87121 0.0
C1187 C 0.32275 0.00177 0.87926 0.0
C1188 C 0.32174 0.98764 0.87126 0.0
C1189 C 0.32252 0.97468 0.88172 0.0
C1190 C 0.32352 0.98337 0.89731 0.0
C1191 C 0.32343 -0.00078 0.89579 0.0
C1192 C 0.33726 0.96627 0.8788 0.0
C1193 C 0.30748 0.9644 0.87893 0.0
C1194 C 0.3207 0.04428 0.93463 0.0
C1195 C 0.31998 0.04542 0.95065 0.0
C1196 C 0.32065 0.032 0.95871 0.0
C1197 C 0.32187 0.01769 0.95095 0.0
C1198 C 0.32238 0.01674 0.93492 0.0
C1199 C 0.32185 0.0299 0.92705 0.0
C1200 C 0.32232 0.0267 0.91003 0.0
C1201 C 0.32316 0.00942 0.90899 0.0
C1202 C 0.32318 0.00364 0.9236 0.0
C1203 C 0.33702 0.035 0.90473 0.0
C1204 C 0.3072 0.03166 0.90231 0.0
H1205 H 0.32566 0.94627 0.89697 0.0
H1206 H 0.32448 0.95056 0.95363 0.0
H1207 H 0.29905 0.97262 0.94137 0.0
H1208 H 0.30428 0.99162 0.94808 0.0
H1209 H 0.30968 0.97615 0.95953 0.0
H1210 H 0.34834 0.97761 0.94546 0.0
H1211 H 0.33696 0.9788 0.9618 0.0
H1212 H 0.34156 0.99536 0.95128 0.0
H1213 H 0.31888 0.97493 0.84946 0.0
H1214 H 0.32243 0.02445 0.84922 0.0
H1215 H 0.32433 0.02646 0.87675 0.0
H1216 H 0.34613 0.97391 0.87402 0.0
H1217 H 0.33482 0.95617 0.87054 0.0
H1218 H 0.34291 0.96257 0.88948 0.0
H1219 H 0.29743 0.97154 0.87802 0.0
H1220 H 0.30534 0.95692 0.88836 0.0
H1221 H 0.30751 0.95711 0.8681 0.0
H1222 H 0.32732 0.92359 0.91093 0.0
C1223 C 0.32542 0.94764 0.9092 0.0
C1224 C 0.51975 0.68769 0.44757 0.0
C1225 C 0.52502 0.69003 0.43295 0.0
C1226 C 0.5142 0.68978 0.42032 0.0
C1227 C 0.49365 0.68335 0.43646 0.0
C1228 C 0.50403 0.68445 0.44906 0.0
C1229 C 0.4963 0.68171 0.46366 0.0
H1230 H 0.43148 0.66173 0.49831 0.0
C1231 C 0.47843 0.67874 0.44158 0.0
C1232 C 0.4798 0.67783 0.45751 0.0
H1233 H 0.47575 0.67781 0.51963 0.0
H1234 H 0.48588 0.67983 0.49472 0.0
H1235 H 0.43103 0.68655 0.47235 0.0
H1236 H 0.44406 0.63982 0.47133 0.0
H1237 H 0.4348 0.64258 0.45346 0.0
H1238 H 0.42434 0.64436 0.47056 0.0
H1239 H 0.41765 0.67047 0.47405 0.0
H1240 H 0.42254 0.6765 0.45563 0.0
C1241 C 0.498 0.6968 0.47403 0.0
C1242 C 0.50333 0.66793 0.47103 0.0
C1243 C 0.43435 0.6665 0.40181 0.0
C1244 C 0.41942 0.65996 0.40242 0.0
C1245 C 0.41418 0.65601 0.41663 0.0
C1246 C 0.42371 0.65885 0.43014 0.0
C1247 C 0.43867 0.66549 0.42933 0.0
C1248 C 0.44377 0.66897 0.41526 0.0
C1249 C 0.46028 0.67478 0.41623 0.0
C1250 C 0.46424 0.67455 0.43327 0.0
C1251 C 0.45153 0.66931 0.44095 0.0
C1252 C 0.46114 0.69132 0.41082 0.0
C1253 C 0.46927 0.66322 0.40673 0.0
C1254 C 0.44339 0.66552 0.49756 0.0
C1255 C 0.45286 0.6696 0.51088 0.0
C1256 C 0.46824 0.67471 0.50949 0.0
C1257 C 0.47409 0.67589 0.49505 0.0
C1258 C 0.46441 0.67209 0.48182 0.0
C1259 C 0.44932 0.66702 0.4832 0.0
C1260 C 0.44056 0.66416 0.46788 0.0
C1261 C 0.45276 0.66874 0.45714 0.0
C1262 C 0.46677 0.67315 0.46537 0.0
C1263 C 0.42715 0.67488 0.46736 0.0
C1264 C 0.43553 0.64688 0.46562 0.0
H1265 H 0.49111 0.68617 0.41185 0.0
H1266 H 0.52767 0.68797 0.45757 0.0
H1267 H 0.50423 0.65837 0.46224 0.0
H1268 H 0.49634 0.66317 0.47988 0.0
H1269 H 0.51503 0.67119 0.47627 0.0
H1270 H 0.49989 0.70699 0.46724 0.0
H1271 H 0.50785 0.69679 0.48262 0.0
H1272 H 0.4875 0.69896 0.48002 0.0
H1273 H 0.43879 0.66926 0.39095 0.0
H1274 H 0.40272 0.65083 0.41726 0.0
H1275 H 0.41911 0.65571 0.44067 0.0
H1276 H 0.45103 0.69752 0.41419 0.0
H1277 H 0.46139 0.69127 0.39816 0.0
H1278 H 0.47113 0.69843 0.41616 0.0
H1279 H 0.46408 0.65133 0.40699 0.0
H1280 H 0.48121 0.66252 0.41129 0.0
H1281 H 0.46925 0.66604 0.39454 0.0
H1282 H 0.51776 0.69213 0.40903 0.0
C1283 C 0.49864 0.68641 0.42199 0.0
C1284 C 0.93557 0.32039 0.04287 0.0
C1285 C 0.95165 0.32209 0.04476 0.0
C1286 C 0.96009 0.32446 0.03181 0.0
C1287 C 0.93662 0.32276 0.01548 0.0
C1288 C 0.92834 0.32075 0.02822 0.0
C1289 C 0.91137 0.31884 0.02423 0.0
H1290 H 0.85286 0.30896 0.96998 0.0
C1291 C 0.92568 0.32195 0.00189 0.0
C1292 C 0.91086 0.31966 0.00695 0.0
H1293 H 0.85049 0.31195 0.0193 0.0
H1294 H 0.87786 0.31632 0.02248 0.0
H1295 H 0.876 0.33844 0.97 0.0
H1296 H 0.88307 0.29022 0.96829 0.0
H1297 H 0.89469 0.29856 0.95497 0.0
H1298 H 0.8742 0.29939 0.95259 0.0
H1299 H 0.87189 0.32633 0.9528 0.0
H1300 H 0.8907 0.33553 0.95762 0.0
C1301 C 0.90372 0.33245 0.03215 0.0
C1302 C 0.90552 0.30286 0.02893 0.0
C1303 C 0.94523 0.32642 0.94876 0.0
C1304 C 0.93786 0.32548 0.93397 0.0
C1305 C 0.92181 0.32262 0.93237 0.0
C1306 C 0.91325 0.32086 0.94521 0.0
C1307 C 0.92077 0.32192 0.95989 0.0
C1308 C 0.9365 0.32459 0.96148 0.0
C1309 C 0.94255 0.32508 0.97796 0.0
C1310 C 0.92782 0.32258 0.986 0.0
C1311 C 0.91511 0.32071 0.97534 0.0
C1312 C 0.95048 0.34117 0.98229 0.0
C1313 C 0.95315 0.31168 0.97978 0.0
C1314 C 0.85814 0.31071 0.98149 0.0
C1315 C 0.84933 0.30984 0.99438 0.0
C1316 C 0.8569 0.31211 0.00912 0.0
C1317 C 0.87284 0.31479 0.01098 0.0
C1318 C 0.88143 0.31536 0.99799 0.0
C1319 C 0.87404 0.31363 0.98356 0.0
C1320 C 0.88495 0.31545 0.97109 0.0
C1321 C 0.90014 0.31828 0.98044 0.0
C1322 C 0.89802 0.318 0.99617 0.0
C1323 C 0.8807 0.32958 0.96228 0.0
C1324 C 0.8842 0.3002 0.96107 0.0
H1325 H 0.95976 0.32651 0.00782 0.0
H1326 H 0.92872 0.31881 0.05261 0.0
H1327 H 0.91359 0.29406 0.02569 0.0
H1328 H 0.89437 0.29876 0.02315 0.0
H1329 H 0.90455 0.30291 0.04151 0.0
H1330 H 0.91178 0.3428 0.03394 0.0
H1331 H 0.89989 0.32958 0.04355 0.0
H1332 H 0.89389 0.33619 0.02512 0.0
H1333 H 0.95752 0.32872 0.95046 0.0
H1334 H 0.91584 0.32154 0.92113 0.0
H1335 H 0.9011 0.31867 0.94318 0.0
H1336 H 0.94406 0.35018 0.97679 0.0
H1337 H 0.96233 0.34198 0.97844 0.0
H1338 H 0.95083 0.34437 0.99469 0.0
H1339 H 0.94898 0.30156 0.97203 0.0
H1340 H 0.95344 0.30738 0.99138 0.0
H1341 H 0.96502 0.31504 0.97694 0.0
H1342 H 0.97249 0.32568 0.03292 0.0
C1343 C 0.95268 0.32481 0.01722 0.0
C1344 C 0.14669 0.76456 0.54585 0.0
C1345 C 0.15187 0.76847 0.56118 0.0
C1346 C 0.14108 0.77136 0.57211 0.0
C1347 C 0.12033 0.76608 0.55263 0.0
C1348 C 0.1309 0.76358 0.54181 0.0
C1349 C 0.12333 0.75998 0.526 0.0
H1350 H 0.05786 0.74811 0.48028 0.0
C1351 C 0.10486 0.76392 0.54486 0.0
C1352 C 0.1065 0.76053 0.5292 0.0
H1353 H 0.10451 0.7469 0.46699 0.0
H1354 H 0.11395 0.753 0.49327 0.0
H1355 H 0.06301 0.73001 0.51023 0.0
H1356 H 0.06337 0.77829 0.5035 0.0
H1357 H 0.0536 0.77509 0.52006 0.0
H1358 H 0.04608 0.76608 0.50187 0.0
H1359 H 0.04578 0.73946 0.50606 0.0
H1360 H 0.05374 0.73855 0.52542 0.0
C1361 C 0.12735 0.7437 0.52038 0.0
C1362 C 0.12855 0.77279 0.51567 0.0
C1363 C 0.05828 0.7655 0.57649 0.0
C1364 C 0.04243 0.76329 0.57276 0.0
C1365 C 0.03719 0.76103 0.55719 0.0
C1366 C 0.04756 0.76058 0.54561 0.0
C1367 C 0.06338 0.76237 0.5496 0.0
C1368 C 0.06847 0.76501 0.56481 0.0
C1369 C 0.08565 0.76674 0.56696 0.0
C1370 C 0.09006 0.76433 0.55054 0.0
C1371 C 0.07699 0.76173 0.54043 0.0
C1372 C 0.09103 0.75385 0.57698 0.0
C1373 C 0.09033 0.78322 0.57381 0.0
C1374 C 0.07012 0.74935 0.48299 0.0
C1375 C 0.08045 0.74708 0.47152 0.0
C1376 C 0.09631 0.74848 0.47562 0.0
C1377 C 0.10177 0.75209 0.49088 0.0
C1378 C 0.09127 0.75427 0.50221 0.0
C1379 C 0.07574 0.75289 0.49815 0.0
C1380 C 0.06622 0.75526 0.5117 0.0
C1381 C 0.07859 0.75853 0.52455 0.0
C1382 C 0.09326 0.75791 0.51896 0.0
C1383 C 0.05656 0.74014 0.51349 0.0
C1384 C 0.05669 0.76933 0.50922 0.0
H1385 H 0.11778 0.77235 0.57683 0.0
H1386 H 0.15475 0.76246 0.53718 0.0
H1387 H 0.13002 0.78409 0.52228 0.0
H1388 H 0.12004 0.77444 0.50619 0.0
H1389 H 0.13968 0.77046 0.51087 0.0
H1390 H 0.12725 0.73589 0.52993 0.0
H1391 H 0.13895 0.74391 0.51591 0.0
H1392 H 0.11899 0.73822 0.51148 0.0
H1393 H 0.06276 0.76709 0.58831 0.0
H1394 H 0.02505 0.75955 0.55395 0.0
H1395 H 0.04285 0.75869 0.53401 0.0
H1396 H 0.08429 0.74286 0.57361 0.0
H1397 H 0.08946 0.75674 0.58929 0.0
H1398 H 0.10308 0.75134 0.57571 0.0
H1399 H 0.08163 0.79138 0.57057 0.0
H1400 H 0.10106 0.788 0.56939 0.0
H1401 H 0.09159 0.78365 0.58652 0.0
H1402 H 0.1448 0.77427 0.584 0.0
C1403 C 0.12538 0.77017 0.56793 0.0
C1404 C 0.529 0.245 0.96874 0.0
C1405 C 0.54496 0.24599 0.96744 0.0
C1406 C 0.55471 0.24498 0.98071 0.0
C1407 C 0.53282 0.24314 0.99623 0.0
C1408 C 0.52321 0.24356 0.98319 0.0
C1409 C 0.50657 0.24268 0.98666 0.0
H1410 H 0.45353 0.24485 0.03969 0.0
C1411 C 0.52325 0.24241 0.0095 0.0
C1412 C 0.50784 0.24203 0.00397 0.0
H1413 H 0.44548 0.24058 0.99049 0.0
H1414 H 0.4728 0.23962 0.9876 0.0
H1415 H 0.47667 0.21923 0.04106 0.0
H1416 H 0.48384 0.2682 0.04133 0.0
H1417 H 0.49644 0.26181 0.05563 0.0
H1418 H 0.47611 0.25834 0.0568 0.0
H1419 H 0.4758 0.23124 0.05826 0.0
H1420 H 0.49359 0.22396 0.05253 0.0
C1421 C 0.49875 0.22774 0.9786 0.0
C1422 C 0.49951 0.2575 0.98165 0.0
C1423 C 0.54854 0.24543 0.06355 0.0
C1424 C 0.54259 0.24563 0.07811 0.0
C1425 C 0.52657 0.24438 0.07914 0.0
C1426 C 0.51665 0.24323 0.06594 0.0
C1427 C 0.52274 0.24333 0.05148 0.0
C1428 C 0.53843 0.24421 0.05044 0.0
C1429 C 0.54278 0.24394 0.03408 0.0
C1430 C 0.5271 0.2428 0.02551 0.0
C1431 C 0.51545 0.24262 0.0358 0.0
C1432 C 0.5517 0.22947 0.03079 0.0
C1433 C 0.55187 0.25928 0.03182 0.0
C1434 C 0.45773 0.24378 0.02831 0.0
C1435 C 0.44754 0.24302 0.01528 0.0
C1436 C 0.45324 0.24125 0.00064 0.0
C1437 C 0.46906 0.24074 -0.00098 0.0
C1438 C 0.47919 0.24186 0.0122 0.0
C1439 C 0.4734 0.243 0.02652 0.0
C1440 C 0.48568 0.24319 0.03926 0.0
C1441 C 0.49988 0.24234 0.03026 0.0
C1442 C 0.49606 0.24181 0.01443 0.0
C1443 C 0.48283 0.22876 0.04838 0.0
C1444 C 0.48555 0.25861 0.0489 0.0
H1445 H 0.55678 0.243 0.00469 0.0
H1446 H 0.52117 0.24577 0.95882 0.0
H1447 H 0.50739 0.2677 0.98524 0.0
H1448 H 0.48867 0.25966 0.9869 0.0
H1449 H 0.49744 0.25717 0.969 0.0
H1450 H 0.50699 0.21861 0.9776 0.0
H1451 H 0.49411 0.22968 0.96685 0.0
H1452 H 0.48948 0.22275 0.98513 0.0
H1453 H 0.56079 0.2462 0.06237 0.0
H1454 H 0.52168 0.24469 0.09021 0.0
H1455 H 0.5046 0.24252 0.06753 0.0
H1456 H 0.54766 0.21991 0.03766 0.0
H1457 H 0.56416 0.23181 0.03372 0.0
H1458 H 0.54991 0.22482 0.01876 0.0
H1459 H 0.54681 0.26898 0.03807 0.0
H1460 H 0.55162 0.2623 0.01978 0.0
H1461 H 0.56399 0.25904 0.03626 0.0
H1462 H 0.56702 0.24535 0.98002 0.0
C1463 C 0.54874 0.24356 0.99505 0.0
C1464 C 0.43634 0.52319 0.66598 0.0
C1465 C 0.44788 0.53358 0.67297 0.0
C1466 C 0.46276 0.52861 0.67561 0.0
C1467 C 0.45434 0.50325 0.66431 0.0
C1468 C 0.43978 0.5082 0.66184 0.0
C1469 C 0.42855 0.49574 0.65487 0.0
H1470 H 0.41169 0.42112 0.63336 0.0
C1471 C 0.45385 0.48686 0.65891 0.0
C1472 C 0.43875 0.48244 0.65342 0.0
H1473 H 0.38173 0.45858 0.63345 0.0
H1474 H 0.40299 0.47645 0.64119 0.0
H1475 H 0.43818 0.43897 0.61698 0.0
H1476 H 0.43276 0.43249 0.66469 0.0
H1477 H 0.45157 0.42854 0.66027 0.0
H1478 H 0.43561 0.41728 0.65066 0.0
H1479 H 0.44354 0.42181 0.62547 0.0
H1480 H 0.45672 0.43851 0.62563 0.0
C1481 C 0.42243 0.50053 0.63899 0.0
C1482 C 0.41607 0.49299 0.66641 0.0
C1483 C 0.5022 0.45763 0.66199 0.0
C1484 C 0.50529 0.44253 0.65739 0.0
C1485 C 0.4932 0.43238 0.65094 0.0
C1486 C 0.47825 0.43716 0.64914 0.0
C1487 C 0.47535 0.4523 0.65375 0.0
C1488 C 0.48724 0.46228 0.65996 0.0
C1489 C 0.4821 0.47807 0.66376 0.0
C1490 C 0.46522 0.47596 0.65861 0.0
C1491 C 0.46129 0.46078 0.65293 0.0
C1492 C 0.49086 0.4895 0.65409 0.0
C1493 C 0.48463 0.48158 0.6813 0.0
C1494 C 0.4098 0.43319 0.63505 0.0
C1495 C 0.39501 0.43844 0.63284 0.0
C1496 C 0.39302 0.45425 0.63491 0.0
C1497 C 0.40538 0.46463 0.63956 0.0
C1498 C 0.41999 0.45922 0.64222 0.0
C1499 C 0.42214 0.44381 0.63959 0.0
C1500 C 0.43872 0.44042 0.64234 0.0
C1501 C 0.44591 0.45623 0.64774 0.0
C1502 C 0.4348 0.4671 0.64778 0.0
C1503 C 0.44467 0.43452 0.62689 0.0
C1504 C 0.43983 0.42901 0.6551 0.0
H1505 H 0.4776 0.5104 0.67355 0.0
H1506 H 0.42471 0.52654 0.66409 0.0
H1507 H 0.42111 0.49436 0.67842 0.0
H1508 H 0.41061 0.48127 0.66527 0.0
H1509 H 0.40705 0.5013 0.66527 0.0
H1510 H 0.43119 0.50783 0.63364 0.0
H1511 H 0.4121 0.50718 0.63997 0.0
H1512 H 0.41976 0.49065 0.63059 0.0
H1513 H 0.5113 0.46576 0.6668 0.0
H1514 H 0.49529 0.42066 0.64744 0.0
H1515 H 0.46952 0.42888 0.64425 0.0
H1516 H 0.49208 0.48434 0.64234 0.0
H1517 H 0.50255 0.4927 0.65937 0.0
H1518 H 0.48485 0.50003 0.65241 0.0
H1519 H 0.48239 0.47107 0.68753 0.0
H1520 H 0.4767 0.4898 0.68584 0.0
H1521 H 0.49661 0.48602 0.68453 0.0
H1522 H 0.47186 0.53642 0.68096 0.0
C1523 C 0.46607 0.51351 0.67127 0.0
C1524 C 0.97961 0.85486 0.31149 0.0
C1525 C 0.99222 0.84606 0.3088 0.0
C1526 C 0.00694 0.85359 0.30895 0.0
C1527 C 0.99638 0.87809 0.31443 0.0
C1528 C 0.98195 0.87078 0.31423 0.0
C1529 C 0.96978 0.88185 0.317 0.0
H1530 H 0.9507 0.95492 0.3309 0.0
C1531 C 0.99489 0.89468 0.3175 0.0
C1532 C 0.97933 0.89699 0.31899 0.0
H1533 H 0.92063 0.91369 0.3244 0.0
H1534 H 0.94233 0.89853 0.32124 0.0
H1535 H 0.97731 0.94064 0.35181 0.0
H1536 H 0.97159 0.94613 0.3033 0.0
H1537 H 0.99093 0.95082 0.30904 0.0
H1538 H 0.97639 0.96205 0.31698 0.0
H1539 H 0.97929 0.95901 0.34387 0.0
H1540 H 0.99518 0.94694 0.3456 0.0
C1541 C 0.96223 0.87789 0.33192 0.0
C1542 C 0.95857 0.88099 0.30255 0.0
C1543 C 0.04232 0.93121 0.32035 0.0
C1544 C 0.04471 0.9472 0.32286 0.0
C1545 C 0.03203 0.95595 0.32552 0.0
C1546 C 0.01723 0.94889 0.32561 0.0
C1547 C 0.01504 0.93289 0.32296 0.0
C1548 C 0.0275 0.92435 0.32045 0.0
C1549 C 0.02307 0.90752 0.31773 0.0
C1550 C 0.00588 0.90735 0.31901 0.0
C1551 C 0.00122 0.92222 0.32205 0.0
C1552 C 0.03107 0.89908 0.33073 0.0
C1553 C 0.02727 0.90233 0.30136 0.0
C1554 C 0.94875 0.94264 0.3287 0.0
C1555 C 0.93385 0.93554 0.32798 0.0
C1556 C 0.93195 0.91947 0.32529 0.0
C1557 C 0.94458 0.91067 0.32332 0.0
C1558 C 0.95935 0.91795 0.32395 0.0
C1559 C 0.96126 0.93367 0.3266 0.0
C1560 C 0.97779 0.93944 0.32663 0.0
C1561 C 0.98546 0.92459 0.32353 0.0
C1562 C 0.9746 0.91204 0.322 0.0
C1563 C 0.98274 0.94703 0.34275 0.0
C1564 C 0.97937 0.95028 0.3134 0.0
H1565 H 0.02055 0.87447 0.31166 0.0
H1566 H 0.96816 0.84948 0.31158 0.0
H1567 H 0.96463 0.87844 0.29198 0.0
H1568 H 0.95337 0.89195 0.30066 0.0
H1569 H 0.94933 0.87183 0.3031 0.0
H1570 H 0.97093 0.8745 0.34064 0.0
H1571 H 0.95345 0.86819 0.32972 0.0
H1572 H 0.95693 0.8877 0.33749 0.0
H1573 H 0.05175 0.92415 0.31803 0.0
H1574 H 0.03357 0.96827 0.32763 0.0
H1575 H 0.00806 0.95617 0.32769 0.0
H1576 H 0.03158 0.90609 0.3418 0.0
H1577 H 0.043 0.8968 0.32815 0.0
H1578 H 0.02486 0.8882 0.33301 0.0
H1579 H 0.02595 0.91166 0.29341 0.0
H1580 H 0.01965 0.89268 0.29608 0.0
H1581 H 0.03933 0.8991 0.30134 0.0
H1582 H 0.01683 0.84721 0.30661 0.0
C1583 C 0.00908 0.86949 0.31177 0.0
C1584 C 0.57845 0.05655 0.75652 0.0
C1585 C 0.59377 0.06206 0.76008 0.0
C1586 C 0.59676 0.07697 0.76703 0.0
C1587 C 0.56977 0.08133 0.76488 0.0
C1588 C 0.56663 0.06639 0.75904 0.0
C1589 C 0.54967 0.06279 0.75551 0.0
H1590 H 0.47806 0.08832 0.74922 0.0
C1591 C 0.55529 0.08908 0.76473 0.0
C1592 C 0.54339 0.07829 0.75941 0.0
H1593 H 0.49137 0.04184 0.74186 0.0
H1594 H 0.51778 0.05024 0.74872 0.0
H1595 H 0.49996 0.09687 0.78031 0.0
H1596 H 0.50587 0.10397 0.73273 0.0
H1597 H 0.51406 0.12032 0.74343 0.0
H1598 H 0.49379 0.11541 0.74391 0.0
H1599 H 0.48901 0.10979 0.76965 0.0
H1600 H 0.5075 0.11579 0.77888 0.0
C1601 C 0.54415 0.0505 0.76628 0.0
C1602 C 0.54697 0.05789 0.73824 0.0
C1603 C 0.55748 0.14656 0.77614 0.0
C1604 C 0.54658 0.15759 0.77485 0.0
C1605 C 0.53115 0.15269 0.77085 0.0
C1606 C 0.52673 0.13703 0.768 0.0
C1607 C 0.53789 0.12617 0.76896 0.0
C1608 C 0.55295 0.13106 0.77306 0.0
C1609 C 0.56348 0.11818 0.77269 0.0
C1610 C 0.55229 0.10467 0.76771 0.0
C1611 C 0.53732 0.10936 0.7656 0.0
C1612 C 0.57066 0.11693 0.78915 0.0
C1613 C 0.57522 0.12137 0.7605 0.0
C1614 C 0.48667 0.07996 0.74898 0.0
C1615 C 0.48259 0.06439 0.74497 0.0
C1616 C 0.49416 0.05387 0.74505 0.0
C1617 C 0.50951 0.05877 0.74898 0.0
C1618 C 0.51339 0.07438 0.75289 0.0
C1619 C 0.50204 0.08466 0.75294 0.0
C1620 C 0.50825 0.10077 0.75756 0.0
C1621 C 0.52515 0.09841 0.76059 0.0
C1622 C 0.52814 0.08294 0.75766 0.0
C1623 C 0.50078 0.10624 0.77233 0.0
C1624 C 0.50531 0.11076 0.74381 0.0
H1625 H 0.58802 0.09789 0.77445 0.0
H1626 H 0.57576 0.04509 0.75133 0.0
H1627 H 0.55387 0.06562 0.73131 0.0
H1628 H 0.53497 0.05853 0.73387 0.0
H1629 H 0.55038 0.04602 0.7358 0.0
H1630 H 0.5512 0.05139 0.77734 0.0
H1631 H 0.54494 0.03875 0.76099 0.0
H1632 H 0.53231 0.05189 0.76957 0.0
H1633 H 0.56948 0.14995 0.77884 0.0
H1634 H 0.52254 0.16099 0.76981 0.0
H1635 H 0.51484 0.13401 0.76492 0.0
H1636 H 0.56269 0.12054 0.79791 0.0
H1637 H 0.58142 0.12432 0.79126 0.0
H1638 H 0.57297 0.10502 0.79162 0.0
H1639 H 0.56981 0.12695 0.75065 0.0
H1640 H 0.57967 0.1109 0.75531 0.0
H1641 H 0.58502 0.12912 0.76541 0.0
H1642 H 0.60839 0.08134 0.77034 0.0
C1643 C 0.58489 0.08658 0.76946 0.0
C1644 C 0.06424 0.55131 0.24441 0.0
C1645 C 0.07842 0.54553 0.24122 0.0
C1646 C 0.07894 0.52992 0.2365 0.0
C1647 C 0.05177 0.52582 0.2395 0.0
C1648 C 0.05105 0.54128 0.24333 0.0
C1649 C 0.03499 0.54537 0.2463 0.0
H1650 H 0.9612 0.52175 0.25529 0.0
C1651 C 0.03639 0.51829 0.24059 0.0
C1652 C 0.02643 0.52968 0.24438 0.0
H1653 H 0.98096 0.56829 0.2562 0.0
H1654 H 0.0056 0.5589 0.25118 0.0
H1655 H 0.97815 0.50937 0.22529 0.0
H1656 H 0.98849 0.50831 0.27385 0.0
H1657 H 0.99392 0.49094 0.26549 0.0
H1658 H 0.97407 0.49543 0.2638 0.0
H1659 H 0.96699 0.49791 0.23739 0.0
H1660 H 0.9837 0.49091 0.229 0.0
C1661 C 0.02958 0.55608 0.23389 0.0
C1662 C 0.03503 0.55244 0.26293 0.0
C1663 C 0.0297 0.46021 0.23632 0.0
C1664 C 0.0174 0.4498 0.23879 0.0
C1665 C 0.00316 0.45545 0.24206 0.0
C1666 C 0.00125 0.47125 0.24302 0.0
C1667 C 0.01377 0.48154 0.24086 0.0
C1668 C 0.02768 0.47594 0.23754 0.0
C1669 C 0.03994 0.4885 0.23641 0.0
C1670 C 0.03109 0.5026 0.23955 0.0
C1671 C 0.01578 0.49847 0.24209 0.0
C1672 C 0.04539 0.48755 0.21989 0.0
C1673 C 0.05268 0.48676 0.24915 0.0
C1674 C 0.97076 0.52996 0.25422 0.0
C1675 C 0.96906 0.54581 0.25616 0.0
C1676 C 0.98195 0.55603 0.25497 0.0
C1677 C 0.99625 0.55056 0.25193 0.0
C1678 C 0.99772 0.53469 0.25003 0.0
C1679 C 0.98508 0.52469 0.2511 0.0
C1680 C 0.98872 0.50822 0.24862 0.0
C1681 C 0.00556 0.50998 0.24554 0.0
C1682 C 0.01083 0.5255 0.24655 0.0
C1683 C 0.97885 0.50108 0.2344 0.0
C1684 C 0.9861 0.50017 0.26361 0.0
H1685 H 0.06696 0.50825 0.23226 0.0
H1686 H 0.06347 0.56331 0.24783 0.0
H1687 H 0.04187 0.5457 0.27089 0.0
H1688 H 0.0235 0.55245 0.26732 0.0
H1689 H 0.04016 0.5644 0.26384 0.0
H1690 H 0.03536 0.55395 0.22307 0.0
H1691 H 0.03214 0.56832 0.23777 0.0
H1692 H 0.01722 0.55414 0.23051 0.0
H1693 H 0.04086 0.45621 0.23408 0.0
H1694 H 0.99351 0.44762 0.24394 0.0
H1695 H 0.99016 0.47485 0.24561 0.0
H1696 H 0.03596 0.483 0.21147 0.0
H1697 H 0.05495 0.47986 0.21889 0.0
H1698 H 0.04897 0.4989 0.21596 0.0
H1699 H 0.04763 0.48318 0.25983 0.0
H1700 H 0.05949 0.49753 0.25263 0.0
H1701 H 0.06054 0.47793 0.24556 0.0
H1702 H 0.08973 0.52517 0.23407 0.0
C1703 C 0.06572 0.52006 0.2356 0.0
C1704 C 0.21041 0.5707 0.27725 0.0
C1705 C 0.21865 0.58484 0.27636 0.0
C1706 C 0.19467 0.56917 0.27348 0.0
C1707 C 0.1638 0.5846 0.25077 0.0
H1708 H 0.13778 0.56395 0.27842 0.0
C1709 C 0.10429 0.55451 0.23335 0.0
C1710 C 0.0929 0.55521 0.24393 0.0
C1711 C 0.11892 0.56148 0.23707 0.0
C1712 C 0.14484 0.56994 0.27068 0.0
H1713 H 0.21691 0.6084 0.27052 0.0
H1714 H 0.18932 0.60559 0.2636 0.0
H1715 H 0.16501 0.56917 0.2856 0.0
H1716 H 0.08759 0.56444 0.26636 0.0
H1717 H 0.1132 0.57659 0.27291 0.0
H1718 H 0.14365 0.5849 0.23563 0.0
C1719 C 0.1951 0.59577 0.26735 0.0
C1720 C 0.16044 0.57277 0.27472 0.0
C1721 C 0.21085 0.59737 0.27134 0.0
C1722 C 0.09613 0.56378 0.25796 0.0
C1723 C 0.11081 0.57062 0.26175 0.0
C1724 C 0.14818 0.58158 0.24663 0.0
C1725 C 0.18685 0.58169 0.26854 0.0
C1726 C 0.17012 0.57991 0.26471 0.0
C1727 C 0.12246 0.56915 0.25152 0.0
C1728 C 0.13859 0.57403 0.25647 0.0
H1729 H 0.21607 0.56083 0.28108 0.0
H1730 H 0.18861 0.55813 0.27432 0.0
H1731 H 0.17104 0.59009 0.24284 0.0
H1732 H 0.10206 0.54807 0.22241 0.0
H1733 H 0.12768 0.56008 0.22899 0.0
C1734 C 0.26316 0.39291 0.63678 0.0
C1735 C 0.26108 0.38276 0.64838 0.0
C1736 C 0.27768 0.39593 0.63147 0.0
C1737 C 0.31802 0.38414 0.63317 0.0
H1738 H 0.32712 0.42757 0.62953 0.0
C1739 C 0.37884 0.41518 0.63858 0.0
C1740 C 0.38134 0.42768 0.62953 0.0
C1741 C 0.36451 0.40711 0.63781 0.0
C1742 C 0.32474 0.41537 0.63026 0.0
H1743 H 0.2724 0.36711 0.66288 0.0
H1744 H 0.29781 0.37273 0.65397 0.0
H1745 H 0.3012 0.41828 0.63369 0.0
H1746 H 0.37141 0.44052 0.61147 0.0
H1747 H 0.34646 0.4264 0.61005 0.0
H1748 H 0.34188 0.38147 0.63019 0.0
C1749 C 0.28822 0.37819 0.64876 0.0
C1750 C 0.30983 0.41001 0.63259 0.0
C1751 C 0.27365 0.37502 0.65394 0.0
C1752 C 0.3697 0.4311 0.61877 0.0
C1753 C 0.35542 0.42305 0.61798 0.0
C1754 C 0.33302 0.38954 0.63085 0.0
C1755 C 0.2905 0.38906 0.63781 0.0
C1756 C 0.30625 0.39434 0.63417 0.0
C1757 C 0.35247 0.41142 0.62797 0.0
C1758 C 0.33653 0.40524 0.62943 0.0
H1759 H 0.25366 0.39889 0.63211 0.0
H1760 H 0.27894 0.40405 0.62271 0.0
H1761 H 0.31564 0.37199 0.63419 0.0
H1762 H 0.38759 0.41234 0.64702 0.0
H1763 H 0.36255 0.39822 0.64567 0.0
C1764 C 0.71615 0.01477 0.73066 0.0
C1765 C 0.71884 -0.00082 0.7314 0.0
C1766 C 0.70183 0.02001 0.73364 0.0
C1767 C 0.66642 0.01167 0.75258 0.0
H1768 H 0.64946 0.03878 0.72352 0.0
C1769 C 0.60701 0.03725 0.75831 0.0
C1770 C 0.6068 0.05294 0.75584 0.0
C1771 C 0.61975 0.02909 0.75473 0.0
C1772 C 0.65406 0.03131 0.73181 0.0
H1773 H 0.70877 0.97695 0.73641 0.0
H1774 H 0.68372 0.98623 0.74183 0.0
H1775 H 0.67383 0.02787 0.71917 0.0
H1776 H 0.61951 0.07219 0.74709 0.0
H1777 H 0.64166 0.05821 0.74123 0.0
H1778 H 0.64681 0.0155 0.76546 0.0
C1779 C 0.69272 0.99433 0.73886 0.0
C1780 C 0.66802 0.02506 0.7293 0.0
C1781 C 0.70704 0.98903 0.73572 0.0
C1782 C 0.6194 0.06018 0.74939 0.0
C1783 C 0.63204 0.05209 0.74582 0.0
C1784 C 0.65245 0.01805 0.75517 0.0
C1785 C 0.6899 0.00982 0.73755 0.0
C1786 C 0.67451 0.01543 0.73981 0.0
C1787 C 0.63243 0.03646 0.74847 0.0
C1788 C 0.64628 0.02821 0.74497 0.0
H1789 H 0.72498 0.0229 0.7274 0.0
H1790 H 0.70006 0.03207 0.73279 0.0
H1791 H 0.67118 0.00428 0.76086 0.0
H1792 H 0.59747 0.03137 0.76329 0.0
H1793 H 0.61966 0.01703 0.7568 0.0
C1794 C 0.81241 0.99755 0.33833 0.0
C1795 C 0.8124 0.01214 0.33251 0.0
C1796 C 0.82573 0.98953 0.33877 0.0
C1797 C 0.86796 0.99464 0.33658 0.0
H1798 H 0.86433 0.9508 0.32655 0.0
C1799 C 0.91965 0.95909 0.32324 0.0
C1800 C 0.9203 0.94481 0.32969 0.0
C1801 C 0.9067 0.96755 0.32441 0.0
C1802 C 0.86552 0.96301 0.32954 0.0
H1803 H 0.82637 0.02978 0.32261 0.0
H1804 H 0.84948 0.01567 0.32303 0.0
H1805 H 0.84134 0.96506 0.32693 0.0
H1806 H 0.90795 0.92849 0.34286 0.0
H1807 H 0.88527 0.94315 0.34465 0.0
H1808 H 0.89222 0.99255 0.33884 0.0
C1809 C 0.8393 0.01052 0.32756 0.0
C1810 C 0.85233 0.9712 0.32979 0.0
C1811 C 0.82602 0.01858 0.32723 0.0
C1812 C 0.90774 0.9393 0.3375 0.0
C1813 C 0.89476 0.9477 0.33856 0.0
C1814 C 0.88116 0.98646 0.3362 0.0
C1815 C 0.83932 0.99587 0.33329 0.0
C1816 C 0.85338 0.98713 0.3333 0.0
C1817 C 0.89407 0.96188 0.33197 0.0
C1818 C 0.88007 0.97056 0.33266 0.0
H1819 H 0.80213 0.9923 0.34258 0.0
H1820 H 0.82537 0.9784 0.3435 0.0
H1821 H 0.8692 0.00685 0.33958 0.0
H1822 H 0.92899 0.96359 0.31694 0.0
H1823 H 0.90643 0.97836 0.31905 0.0
C1824 C 0.27593 0.19726 0.60237 0.0
C1825 C 0.27968 0.19971 0.61818 0.0
C1826 C 0.27282 0.18242 0.59573 0.0
C1827 C 0.25853 0.1442 0.60255 0.0
H1828 H 0.28303 0.13091 0.56943 0.0
C1829 C 0.25161 0.08229 0.57475 0.0
C1830 C 0.25352 0.08022 0.55895 0.0
C1831 C 0.25505 0.0966 0.58258 0.0
C1832 C 0.27588 0.13447 0.57847 0.0
H1833 H 0.28274 0.18861 0.63952 0.0
H1834 H 0.2768 0.16259 0.62789 0.0
H1835 H 0.28799 0.15652 0.58178 0.0
H1836 H 0.2608 0.09175 0.5391 0.0
H1837 H 0.26577 0.11669 0.55242 0.0
H1838 H 0.24593 0.12249 0.59889 0.0
C1839 C 0.27648 0.1722 0.62068 0.0
C1840 C 0.27883 0.14911 0.5856 0.0
C1841 C 0.27992 0.18705 0.62729 0.0
C1842 C 0.25887 0.09288 0.55119 0.0
C1843 C 0.26204 0.1072 0.55895 0.0
C1844 C 0.25535 0.12963 0.5952 0.0
C1845 C 0.2731 0.16978 0.60483 0.0
C1846 C 0.27015 0.15411 0.59764 0.0
C1847 C 0.2603 0.10927 0.57478 0.0
C1848 C 0.26393 0.12459 0.58299 0.0
H1849 H 0.2757 0.20679 0.59506 0.0
H1850 H 0.27016 0.18079 0.58348 0.0
H1851 H 0.25165 0.14789 0.61178 0.0
H1852 H 0.24734 0.0729 0.58111 0.0
H1853 H 0.25374 0.09764 0.5948 0.0
C1854 C 0.34031 0.82444 0.01198 0.0
C1855 C 0.336 0.81027 0.00406 0.0
C1856 C 0.33958 0.83805 0.0045 0.0
C1857 C 0.33641 0.85284 0.96552 0.0
H1858 H 0.3243 0.88941 0.9876 0.0
C1859 C 0.31979 0.90695 0.93567 0.0
C1860 C 0.32687 0.92097 0.94195 0.0
C1861 C 0.32107 0.89357 0.94341 0.0
C1862 C 0.3278 0.8793 0.98134 0.0
H1863 H 0.32736 0.79924 0.98216 0.0
H1864 H 0.32556 0.82293 0.96926 0.0
H1865 H 0.32614 0.86576 0.00073 0.0
H1866 H 0.34086 0.93179 0.96142 0.0
H1867 H 0.34263 0.90847 0.97511 0.0
H1868 H 0.33761 0.86637 0.94602 0.0
C1869 C 0.32995 0.82359 0.98112 0.0
C1870 C 0.32893 0.86575 0.98886 0.0
C1871 C 0.33089 0.80998 0.98854 0.0
C1872 C 0.33503 0.92128 0.95632 0.0
C1873 C 0.33613 0.90792 0.96416 0.0
C1874 C 0.33507 0.86632 0.95796 0.0
C1875 C 0.33431 0.83782 0.98899 0.0
C1876 C 0.33325 0.85232 0.98105 0.0
C1877 C 0.32926 0.89392 0.95771 0.0
C1878 C 0.33075 0.87967 0.96579 0.0
H1879 H 0.34439 0.82502 0.02393 0.0
H1880 H 0.34329 0.84874 0.01088 0.0
H1881 H 0.34008 0.84286 0.95919 0.0
H1882 H 0.31313 0.90629 0.92481 0.0
H1883 H 0.31549 0.88295 0.93829 0.0
C1884 C 0.64608 0.2759 0.38802 0.0
C1885 C 0.65436 0.27017 0.37592 0.0
C1886 C 0.64366 0.29151 0.38977 0.0
C1887 C 0.66293 0.32786 0.3822 0.0
H1888 H 0.6275 0.34499 0.39949 0.0
C1889 C 0.64356 0.38945 0.41026 0.0
C1890 C 0.65608 0.39262 0.42102 0.0
C1891 C 0.64201 0.3755 0.40141 0.0
C1892 C 0.63739 0.34043 0.39443 0.0
H1893 H 0.66571 0.27618 0.35558 0.0
H1894 H 0.66153 0.30345 0.3587 0.0
H1895 H 0.62589 0.31822 0.38941 0.0
H1896 H 0.67706 0.38411 0.43055 0.0
H1897 H 0.67448 0.35993 0.41507 0.0
H1898 H 0.67461 0.34984 0.38771 0.0
C1899 C 0.65703 0.29587 0.3669 0.0
C1900 C 0.63651 0.32509 0.38878 0.0
C1901 C 0.65938 0.28024 0.3651 0.0
C1902 C 0.66726 0.38189 0.4224 0.0
C1903 C 0.66584 0.36812 0.41345 0.0
C1904 C 0.66384 0.34312 0.38793 0.0
C1905 C 0.64952 0.30174 0.3795 0.0
C1906 C 0.64942 0.31853 0.38302 0.0
C1907 C 0.65312 0.36467 0.403 0.0
C1908 C 0.65124 0.34942 0.39454 0.0
H1909 H 0.64199 0.26843 0.39651 0.0
H1910 H 0.63795 0.29567 0.39968 0.0
H1911 H 0.67312 0.32314 0.37795 0.0
H1912 H 0.63477 0.39754 0.40905 0.0
H1913 H 0.63212 0.37314 0.39341 0.0
C1914 C 0.73601 0.67872 0.97033 0.0
C1915 C 0.73439 0.69191 0.97991 0.0
C1916 C 0.73922 0.66487 0.97661 0.0
C1917 C 0.7347 0.644 0.01096 0.0
H1918 H 0.76876 0.62107 0.99817 0.0
C1919 C 0.77335 0.59615 0.0375 0.0
C1920 C 0.76196 0.58528 0.04122 0.0
C1921 C 0.76971 0.60774 0.0279 0.0
C1922 C 0.75917 0.62733 0.00177 0.0
H1923 H 0.73483 0.70093 0.00356 0.0
H1924 H 0.74016 0.67669 0.01448 0.0
H1925 H 0.76282 0.64452 0.98571 0.0
H1926 H 0.73796 0.57767 0.03748 0.0
H1927 H 0.73154 0.59809 0.02081 0.0
H1928 H 0.7311 0.62697 0.0271 0.0
C1929 C 0.739 0.6771 0.00213 0.0
C1930 C 0.75574 0.64067 0.99461 0.0
C1931 C 0.73604 0.69098 0.99587 0.0
C1932 C 0.74697 0.58586 0.03471 0.0
C1933 C 0.74329 0.59758 0.02528 0.0
C1934 C 0.73797 0.63057 0.01794 0.0
C1935 C 0.7406 0.66392 0.99257 0.0
C1936 C 0.74363 0.64924 -0.00067 0.0
C1937 C 0.75457 0.60879 0.02202 0.0
C1938 C 0.75037 0.62222 0.01357 0.0
H1939 H 0.73483 0.6791 0.95798 0.0
H1940 H 0.74036 0.65484 0.969 0.0
H1941 H 0.72524 0.65035 0.01472 0.0
H1942 H 0.78501 0.59589 0.04231 0.0
H1943 H 0.77861 0.61629 0.02564 0.0
C1944 C 0.61895 0.29215 0.19412 0.0
C1945 C 0.61493 0.28561 0.20769 0.0
C1946 C 0.61256 0.286 0.1799 0.0
C1947 C 0.57846 0.26332 0.16285 0.0
H1948 H 0.60138 0.26122 0.12637 0.0
C1949 C 0.54994 0.2392 0.10495 0.0
C1950 C 0.55288 0.24772 0.09226 0.0
C1951 C 0.55873 0.24215 0.11876 0.0
C1952 C 0.59482 0.26182 0.13644 0.0
H1953 H 0.60145 0.26716 0.21693 0.0
H1954 H 0.59042 0.25637 0.19212 0.0
H1955 H 0.61459 0.26945 0.15113 0.0
H1956 H 0.56763 0.26573 0.08395 0.0
H1957 H 0.58294 0.27099 0.10809 0.0
H1958 H 0.55865 0.25602 0.14822 0.0
C1959 C 0.59834 0.26639 0.19249 0.0
C1960 C 0.60238 0.26653 0.15062 0.0
C1961 C 0.60472 0.27253 0.2067 0.0
C1962 C 0.56518 0.25887 0.09349 0.0
C1963 C 0.57396 0.26187 0.10733 0.0
C1964 C 0.57091 0.25864 0.14871 0.0
C1965 C 0.60201 0.27319 0.17894 0.0
C1966 C 0.59425 0.26743 0.16396 0.0
C1967 C 0.57065 0.25374 0.12021 0.0
C1968 C 0.57897 0.25793 0.13531 0.0
H1969 H 0.62678 0.30223 0.19449 0.0
H1970 H 0.61551 0.29161 0.1697 0.0
H1971 H 0.5718 0.26416 0.17285 0.0
H1972 H 0.5407 0.23034 0.10426 0.0
H1973 H 0.55608 0.23547 0.12837 0.0
C1974 C 0.01908 0.32844 0.82475 0.0
C1975 C 0.01239 0.33421 0.81149 0.0
C1976 C 0.01133 0.32838 0.83823 0.0
C1977 C 0.97231 0.3299 0.85198 0.0
H1978 H 0.9941 0.33759 0.89183 0.0
C1979 C 0.94101 0.33533 0.90792 0.0
C1980 C 0.94682 0.32738 0.92024 0.0
C1981 C 0.94922 0.33679 0.89486 0.0
C1982 C 0.98789 0.33531 0.88078 0.0
H1983 H 0.99248 0.34482 0.80209 0.0
H1984 H 0.9791 0.34503 0.82567 0.0
H1985 H 0.00808 0.33935 0.86868 0.0
H1986 H 0.9659 0.31474 0.92844 0.0
H1987 H 0.98031 0.31749 0.90569 0.0
H1988 H 0.95211 0.32595 0.86411 0.0
C1989 C 0.9902 0.34023 0.82558 0.0
C1990 C 0.99589 0.33629 0.86751 0.0
C1991 C 0.99791 0.34021 0.81208 0.0
C1992 C 0.96117 0.32113 0.91926 0.0
C1993 C 0.96943 0.32267 0.90622 0.0
C1994 C 0.9643 0.32902 0.86524 0.0
C1995 C 0.99673 0.33417 0.83878 0.0
C1996 C 0.98821 0.33354 0.85294 0.0
C1997 C 0.96349 0.33043 0.89384 0.0
C1998 C 0.97201 0.33166 0.87978 0.0
H1999 H 0.0302 0.32368 0.82466 0.0
H2000 H 0.01663 0.32344 0.8481 0.0
H2001 H 0.96606 0.32742 0.84098 0.0
H2002 H 0.93014 0.34055 0.9084 0.0
H2003 H 0.94446 0.34304 0.88559 0.0
C2004 C 0.40485 0.64477 0.26953 0.0
C2005 C 0.39182 0.6482 0.26056 0.0
C2006 C 0.40397 0.64267 0.28513 0.0
C2007 C 0.38167 0.65461 0.31718 0.0
H2008 H 0.40741 0.62771 0.33921 0.0
C2009 C 0.4078 0.66867 0.37811 0.0
C2010 C 0.40984 0.65685 0.38799 0.0
C2011 C 0.40132 0.66543 0.36325 0.0
C2012 C 0.39992 0.6351 0.33325 0.0
H2013 H 0.36741 0.65108 0.2607 0.0
H2014 H 0.36584 0.64711 0.28793 0.0
H2015 H 0.40452 0.62493 0.31129 0.0
H2016 H 0.40611 0.63251 0.39049 0.0
H2017 H 0.39484 0.62674 0.36427 0.0
H2018 H 0.37753 0.66513 0.33913 0.0
C2019 C 0.3768 0.6464 0.28294 0.0
C2020 C 0.39842 0.63363 0.31725 0.0
C2021 C 0.37769 0.64858 0.26733 0.0
C2022 C 0.40453 0.64182 0.38307 0.0
C2023 C 0.39821 0.63852 0.36808 0.0
C2024 C 0.38326 0.65615 0.33317 0.0
C2025 C 0.39002 0.64383 0.2921 0.0
C2026 C 0.38965 0.64368 0.30902 0.0
C2027 C 0.39692 0.65026 0.3579 0.0
C2028 C 0.39278 0.64672 0.34134 0.0
H2029 H 0.41591 0.64437 0.26467 0.0
H2030 H 0.4144 0.64082 0.29185 0.0
H2031 H 0.3749 0.6626 0.31121 0.0
H2032 H 0.41185 0.68035 0.38168 0.0
H2033 H 0.40065 0.67471 0.35566 0.0
C2034 C 0.95917 0.72703 0.67253 0.0
C2035 C 0.9637 0.73299 0.68747 0.0
C2036 C 0.96655 0.73233 0.65999 0.0
C2037 C 0.00309 0.75172 0.65045 0.0
H2038 H 0.98158 0.75413 0.61075 0.0
C2039 C 0.03408 0.7722 0.5986 0.0
C2040 C 0.03155 0.76256 0.58513 0.0
C2041 C 0.02477 0.77044 0.61085 0.0
C2042 C 0.98772 0.75348 0.62177 0.0
H2043 H 0.97914 0.74961 0.70094 0.0
H2044 H 0.99176 0.75914 0.67906 0.0
H2045 H 0.96717 0.74785 0.63278 0.0
H2046 H 0.01693 0.74381 0.57386 0.0
H2047 H 0.00057 0.74092 0.59516 0.0
H2048 H 0.02363 0.75729 0.63941 0.0
C2049 C 0.98277 0.75009 0.67703 0.0
C2050 C 0.97949 0.74983 0.63438 0.0
C2051 C 0.97547 0.74469 0.68958 0.0
C2052 C 0.01909 0.75156 0.58397 0.0
C2053 C 0.00972 0.74988 0.59619 0.0
C2054 C 0.01128 0.75548 0.63788 0.0
C2055 C 0.97856 0.74382 0.66209 0.0
C2056 C 0.9871 0.74871 0.64885 0.0
C2057 C 0.01266 0.75909 0.60987 0.0
C2058 C 0.00372 0.75622 0.62337 0.0
H2059 H 0.95017 0.71797 0.67052 0.0
H2060 H 0.96314 0.72707 0.6487 0.0
H2061 H 0.00939 0.75069 0.66132 0.0
H2062 H 0.04338 0.78099 0.59976 0.0
H2063 H 0.02716 0.77786 0.62117 0.0
C2064 C 0.80376 0.37049 0.70958 0.0
C2065 C 0.79363 0.37824 0.71867 0.0
C2066 C 0.81952 0.37428 0.71134 0.0
C2067 C 0.85001 0.39272 0.73822 0.0
H2068 H 0.87136 0.39974 0.70155 0.0
C2069 C 0.91026 0.42349 0.74032 0.0
C2070 C 0.92044 0.41897 0.72935 0.0
C2071 C 0.89517 0.41723 0.7395 0.0
C2072 C 0.86568 0.39756 0.71191 0.0
H2073 H 0.79214 0.3958 0.73698 0.0
H2074 H 0.81967 0.40233 0.7401 0.0
H2075 H 0.84435 0.39103 0.6993 0.0
H2076 H 0.92273 0.40399 0.70908 0.0
H2077 H 0.89661 0.39266 0.70798 0.0
H2078 H 0.87132 0.39917 0.75085 0.0
C2079 C 0.81541 0.39331 0.73164 0.0
C2080 C 0.85017 0.39261 0.71061 0.0
C2081 C 0.79963 0.38963 0.72978 0.0
C2082 C 0.91527 0.40767 0.7178 0.0
C2083 C 0.9002 0.40132 0.71704 0.0
C2084 C 0.86557 0.39754 0.73953 0.0
C2085 C 0.8255 0.38579 0.72233 0.0
C2086 C 0.84214 0.39029 0.72375 0.0
C2087 C 0.88989 0.40617 0.72776 0.0
C2088 C 0.87356 0.40018 0.72639 0.0
H2089 H 0.79951 0.36165 0.70093 0.0
H2090 H 0.82705 0.3682 0.70411 0.0
H2091 H 0.84415 0.39083 0.74855 0.0
H2092 H 0.9139 0.43199 0.74952 0.0
H2093 H 0.88754 0.42137 0.74787 0.0
C2094 C 0.70939 0.63133 0.33276 0.0
C2095 C 0.71311 0.64266 0.32268 0.0
C2096 C 0.69433 0.62515 0.333 0.0
C2097 C 0.65995 0.61764 0.30751 0.0
H2098 H 0.64077 0.60634 0.34431 0.0
C2099 C 0.59948 0.58658 0.32552 0.0
C2100 C 0.59902 0.57322 0.31574 0.0
C2101 C 0.61246 0.59682 0.32679 0.0
C2102 C 0.64591 0.60959 0.33395 0.0
H2103 H 0.70381 0.65688 0.30541 0.0
H2104 H 0.67754 0.64602 0.30577 0.0
H2105 H 0.66519 0.62171 0.34646 0.0
H2106 H 0.61151 0.56029 0.2993 0.0
H2107 H 0.63408 0.57817 0.30143 0.0
H2108 H 0.64091 0.60524 0.29499 0.0
C2109 C 0.68631 0.64185 0.31342 0.0
C2110 C 0.65992 0.61826 0.33518 0.0
C2111 C 0.70134 0.64811 0.31326 0.0
C2112 C 0.61162 0.57043 0.30704 0.0
C2113 C 0.62447 0.58073 0.30816 0.0
C2114 C 0.64605 0.60887 0.30628 0.0
C2115 C 0.6827 0.63011 0.32308 0.0
C2116 C 0.66718 0.6222 0.32196 0.0
C2117 C 0.62507 0.59398 0.31809 0.0
C2118 C 0.63902 0.60454 0.31948 0.0
H2119 H 0.71818 0.62692 0.3402 0.0
H2120 H 0.69192 0.61602 0.34047 0.0
H2121 H 0.66532 0.62037 0.29711 0.0
H2122 H 0.58992 0.58895 0.33238 0.0
H2123 H 0.61261 0.60699 0.33448 0.0
C2124 C 0.30551 0.03105 0.24726 0.0
C2125 C 0.30514 0.04493 0.25612 0.0
C2126 C 0.31935 0.02423 0.24544 0.0
C2127 C 0.35756 0.02221 0.26423 0.0
H2128 H 0.3676 0.00431 0.22482 0.0
C2129 C 0.41448 0.99367 0.25693 0.0
C2130 C 0.41367 0.97979 0.24789 0.0
C2131 C 0.40199 0.00288 0.25701 0.0
C2132 C 0.36491 0.00913 0.23594 0.0
H2133 H 0.31903 0.06262 0.2699 0.0
H2134 H 0.34319 0.05063 0.26681 0.0
H2135 H 0.34421 0.01787 0.22677 0.0
H2136 H 0.3993 0.96507 0.23134 0.0
H2137 H 0.37741 0.9808 0.23188 0.0
H2138 H 0.37796 0.01314 0.27354 0.0
C2139 C 0.33275 0.04502 0.26131 0.0
C2140 C 0.35153 0.01692 0.23703 0.0
C2141 C 0.31892 0.05191 0.26301 0.0
C2142 C 0.40024 0.97556 0.23862 0.0
C2143 C 0.38774 0.98471 0.23877 0.0
C2144 C 0.37088 0.01432 0.26317 0.0
C2145 C 0.33309 0.03108 0.25256 0.0
C2146 C 0.34765 0.02344 0.25122 0.0
C2147 C 0.38838 -0.0016 0.24811 0.0
C2148 C 0.37467 0.00757 0.24903 0.0
H2149 H 0.29509 0.02539 0.24179 0.0
H2150 H 0.31924 0.01341 0.23876 0.0
H2151 H 0.35478 0.02695 0.27536 0.0
H2152 H 0.42459 0.99724 0.2643 0.0
H2153 H 0.40298 0.01346 0.26416 0.0
C2154 C 0.19383 0.00896 0.66173 0.0
C2155 C 0.19702 0.99422 0.66597 0.0
C2156 C 0.17952 0.01465 0.66396 0.0
C2157 C 0.13935 0.00283 0.67173 0.0
H2158 H 0.13835 0.04574 0.68503 0.0
C2159 C 0.08269 0.0334 0.67628 0.0
C2160 C 0.08217 0.04489 0.6881 0.0
C2161 C 0.0964 0.02654 0.67367 0.0
C2162 C 0.1384 0.03369 0.68149 0.0
H2163 H 0.18762 0.97383 0.67577 0.0
H2164 H 0.16279 0.98388 0.68004 0.0
H2165 H 0.16271 0.03515 0.68037 0.0
H2166 H 0.09529 0.05761 0.70699 0.0
H2167 H 0.11904 0.04542 0.70275 0.0
H2168 H 0.11503 0.00131 0.67338 0.0
C2169 C 0.17123 0.99096 0.6747 0.0
C2170 C 0.15239 0.02765 0.67857 0.0
C2171 C 0.18551 0.98523 0.67234 0.0
C2172 C 0.09544 0.04897 0.69762 0.0
C2173 C 0.10907 0.04202 0.69513 0.0
C2174 C 0.12533 0.00886 0.67476 0.0
C2175 C 0.16807 0.00579 0.67063 0.0
C2176 C 0.15307 0.01215 0.67363 0.0
C2177 C 0.10982 0.03093 0.68294 0.0
C2178 C 0.12468 0.02437 0.67971 0.0
H2179 H 0.2024 0.01614 0.65667 0.0
H2180 H 0.17743 0.02599 0.6604 0.0
H2181 H 0.1394 0.99088 0.66778 0.0
H2182 H 0.07264 0.03012 0.66871 0.0
H2183 H 0.09657 0.01815 0.6641 0.0
C2184 C 0.72296 0.79443 0.37568 0.0
C2185 C 0.71021 0.78898 0.36596 0.0
C2186 C 0.72645 0.81016 0.37848 0.0
C2187 C 0.7177 0.84834 0.36475 0.0
H2188 H 0.73035 0.86221 0.40672 0.0
C2189 C 0.71377 0.91038 0.39063 0.0
C2190 C 0.72552 0.91632 0.40139 0.0
C2191 C 0.71376 0.89531 0.38435 0.0
C2192 C 0.72706 0.85853 0.39489 0.0
H2193 H 0.69127 0.79575 0.35133 0.0
H2194 H 0.69707 0.82317 0.35657 0.0
H2195 H 0.72667 0.83494 0.39972 0.0
H2196 H 0.7471 0.91154 0.41302 0.0
H2197 H 0.74701 0.88524 0.40214 0.0
H2198 H 0.71759 0.87211 0.36016 0.0
C2199 C 0.7046 0.81533 0.36179 0.0
C2200 C 0.72497 0.84286 0.39085 0.0
C2201 C 0.7012 0.79959 0.35886 0.0
C2202 C 0.73772 0.90719 0.405 0.0
C2203 C 0.73768 0.89214 0.39878 0.0
C2204 C 0.71968 0.86406 0.36883 0.0
C2205 C 0.71718 0.82082 0.37177 0.0
C2206 C 0.72016 0.83754 0.37576 0.0
C2207 C 0.72548 0.8859 0.38874 0.0
C2208 C 0.72431 0.8693 0.38397 0.0
H2209 H 0.73022 0.78654 0.3812 0.0
H2210 H 0.7364 0.81395 0.386 0.0
H2211 H 0.71422 0.84466 0.35296 0.0
H2212 H 0.70414 0.91706 0.3877 0.0
H2213 H 0.70416 0.89078 0.37671 0.0
C2214 C 0.6514 0.19905 4e-05 0.0
C2215 C 0.65646 0.1999 0.98519 0.0
C2216 C 0.65152 0.1853 0.00732 0.0
C2217 C 0.65388 0.14331 -0.0001 0.0
H2218 H 0.66644 0.14503 0.04321 0.0
C2219 C 0.66927 0.08996 0.03214 0.0
C2220 C 0.66385 0.08879 0.04684 0.0
C2221 C 0.66756 0.10326 0.02433 0.0
C2222 C 0.66275 0.14437 0.03115 0.0
H2223 H 0.66555 0.18695 0.96629 0.0
H2224 H 0.66608 0.16306 0.9791 0.0
H2225 H 0.66504 0.1687 0.03016 0.0
H2226 H 0.65186 0.10054 0.06457 0.0
H2227 H 0.64908 0.12378 0.05101 0.0
H2228 H 0.65189 0.1189 0.00092 0.0
C2229 C 0.66173 0.17293 0.98504 0.0
C2230 C 0.66191 0.15794 0.02366 0.0
C2231 C 0.66152 0.18666 0.97772 0.0
C2232 C 0.65645 0.10115 0.05341 0.0
C2233 C 0.65482 0.11447 0.04564 0.0
C2234 C 0.65482 0.12972 0.00739 0.0
C2235 C 0.65681 0.17209 -4e-05 0.0
C2236 C 0.65747 0.1576 0.00794 0.0
C2237 C 0.66046 0.11571 0.03106 0.0
C2238 C 0.65926 0.13011 0.02309 0.0
H2239 H 0.64734 0.20902 0.00608 0.0
H2240 H 0.64739 0.18501 0.01871 0.0
H2241 H 0.65019 0.14262 0.98785 0.0
H2242 H 0.67521 0.08076 0.02682 0.0
H2243 H 0.67216 0.10395 0.01318 0.0
C2244 C 0.3589 0.71415 0.64577 0.0
C2245 C 0.34657 0.71534 0.6552 0.0
C2246 C 0.36381 0.6998 0.64116 0.0
C2247 C 0.35946 0.6581 0.64779 0.0
H2248 H 0.36616 0.65356 0.60448 0.0
C2249 C 0.35174 0.60019 0.6126 0.0
C2250 C 0.35996 0.59804 0.59947 0.0
C2251 C 0.35354 0.61406 0.62148 0.0
C2252 C 0.36468 0.6546 0.61667 0.0
H2253 H 0.3302 0.70245 0.66782 0.0
H2254 H 0.33841 0.67745 0.65945 0.0
H2255 H 0.3631 0.67877 0.61631 0.0
H2256 H 0.37742 0.60808 0.58601 0.0
H2257 H 0.38096 0.63213 0.60175 0.0
H2258 H 0.36086 0.63381 0.64803 0.0
C2259 C 0.34452 0.68757 0.6558 0.0
C2260 C 0.36289 0.66913 0.62348 0.0
C2261 C 0.33972 0.70192 0.66052 0.0
C2262 C 0.37081 0.60956 0.59599 0.0
C2263 C 0.37276 0.62334 0.60496 0.0
C2264 C 0.36138 0.64354 0.64099 0.0
C2265 C 0.35636 0.68631 0.64575 0.0
C2266 C 0.35996 0.67104 0.63905 0.0
C2267 C 0.36371 0.626 0.61747 0.0
C2268 C 0.36366 0.64157 0.62526 0.0
H2269 H 0.36455 0.72429 0.64164 0.0
H2270 H 0.3732 0.69927 0.63371 0.0
H2271 H 0.35755 0.6592 0.65989 0.0
H2272 H 0.3432 0.59154 0.61545 0.0
H2273 H 0.34626 0.61571 0.63091 0.0
C2274 C 0.25128 0.3207 0.05011 0.0
C2275 C 0.24575 0.30567 0.04537 0.0
C2276 C 0.24745 0.33297 0.04148 0.0
C2277 C 0.23432 0.34114 0.0021 0.0
H2278 H 0.22958 0.38172 0.02077 0.0
C2279 C 0.22047 0.39163 0.96576 0.0
C2280 C 0.23005 0.40504 0.96909 0.0
C2281 C 0.22034 0.37986 0.97581 0.0
C2282 C 0.2309 0.37045 0.01542 0.0
H2283 H 0.23132 0.29179 0.0282 0.0
H2284 H 0.22429 0.31321 0.01335 0.0
H2285 H 0.23284 0.3603 0.037 0.0
H2286 H 0.24661 0.41675 0.98592 0.0
H2287 H 0.2462 0.39627 0.00355 0.0
H2288 H 0.23243 0.3513 0.98054 0.0
C2289 C 0.23193 0.31551 0.02353 0.0
C2290 C 0.23282 0.35818 0.0247 0.0
C2291 C 0.23588 0.30323 0.03209 0.0
C2292 C 0.23897 0.40667 0.98306 0.0
C2293 C 0.23876 0.39492 0.99317 0.0
C2294 C 0.23227 0.35336 0.99284 0.0
C2295 C 0.23787 0.33051 0.02796 0.0
C2296 C 0.23475 0.3434 0.01815 0.0
C2297 C 0.22969 0.38126 0.98949 0.0
C2298 C 0.23073 0.36818 -0.00061 0.0
H2299 H 0.25895 0.32296 0.06027 0.0
H2300 H 0.25241 0.34431 0.04515 0.0
H2301 H 0.23605 0.33001 0.99664 0.0
H2302 H 0.21321 0.39013 0.95525 0.0
H2303 H 0.21305 0.36956 0.9728 0.0
C2304 C 0.36654 0.70524 0.80447 0.0
C2305 C 0.37675 0.70689 0.79281 0.0
C2306 C 0.37167 0.70823 0.81986 0.0
C2307 C 0.4057 0.70743 0.84531 0.0
H2308 H 0.38618 0.73507 0.87317 0.0
C2309 C 0.43371 0.72557 0.90494 0.0
C2310 C 0.4244 0.72785 0.9173 0.0
C2311 C 0.4273 0.72323 0.88997 0.0
C2312 C 0.39162 0.72712 0.86563 0.0
H2313 H 0.40027 0.71308 0.78811 0.0
H2314 H 0.40925 0.71795 0.815 0.0
H2315 H 0.37584 0.73054 0.84662 0.0
H2316 H 0.40089 0.72953 0.9234 0.0
H2317 H 0.38964 0.72466 0.89731 0.0
H2318 H 0.42119 0.70354 0.86419 0.0
C2319 C 0.39729 0.71445 0.8122 0.0
C2320 C 0.38573 0.7246 0.85042 0.0
C2321 C 0.39212 0.71173 0.79683 0.0
C2322 C 0.40844 0.72765 0.91422 0.0
C2323 C 0.40198 0.72507 0.89921 0.0
C2324 C 0.41143 0.70973 0.86053 0.0
C2325 C 0.38713 0.71264 0.82384 0.0
C2326 C 0.39286 0.7149 0.8401 0.0
C2327 C 0.41135 0.72277 0.88688 0.0
C2328 C 0.40464 0.71979 0.87086 0.0
H2329 H 0.35462 0.70157 0.80171 0.0
H2330 H 0.36365 0.7067 0.82866 0.0
H2331 H 0.41124 0.6997 0.83762 0.0
H2332 H 0.44602 0.72534 0.9068 0.0
H2333 H 0.43494 0.72181 0.8808 0.0
C2334 C 0.00604 0.66202 0.19277 0.0
C2335 C 0.9911 0.656 0.1947 0.0
C2336 C 0.01115 0.66346 0.17811 0.0
C2337 C 0.00608 0.64788 0.13873 0.0
H2338 H 0.02397 0.68729 0.12871 0.0
C2339 C 0.02641 0.65789 0.07828 0.0
C2340 C 0.03981 0.6674 0.07741 0.0
C2341 C 0.01947 0.65676 0.09217 0.0
C2342 C 0.01922 0.67613 0.13135 0.0
H2343 H 0.96991 0.64649 0.1828 0.0
H2344 H 0.97906 0.64866 0.15709 0.0
H2345 H 0.01416 0.68443 0.15387 0.0
H2346 H 0.05612 0.68351 0.09055 0.0
H2347 H 0.04462 0.68088 0.11474 0.0
H2348 H 0.01167 0.63934 0.11652 0.0
C2349 C 0.9867 0.65239 0.16698 0.0
C2350 C 0.01353 0.67455 0.14575 0.0
C2351 C 0.98147 0.6512 0.18166 0.0
C2352 C 0.046 0.67583 0.09078 0.0
C2353 C 0.0392 0.67453 0.10467 0.0
C2354 C 0.01202 0.64938 0.1244 0.0
C2355 C 0.00153 0.65868 0.16509 0.0
C2356 C 0.007 0.6604 0.1496 0.0
C2357 C 0.02583 0.66499 0.10559 0.0
C2358 C 0.0188 0.66351 0.12055 0.0
H2359 H 0.01372 0.66585 0.20259 0.0
H2360 H 0.02269 0.66824 0.17693 0.0
H2361 H 0.00117 0.63682 0.1415 0.0
H2362 H 0.02138 0.65111 0.06829 0.0
H2363 H 0.00907 0.64946 0.09235 0.0
C2364 C 0.62501 0.35541 0.71709 0.0
C2365 C 0.63867 0.34779 0.71724 0.0
C2366 C 0.61797 0.35933 0.70327 0.0
C2367 C 0.61547 0.34659 0.66243 0.0
H2368 H 0.59127 0.38185 0.65839 0.0
C2369 C 0.57857 0.35277 0.60707 0.0
C2370 C 0.56393 0.35819 0.6087 0.0
C2371 C 0.5896 0.35418 0.61935 0.0
C2372 C 0.59788 0.37188 0.65932 0.0
H2373 H 0.65624 0.33931 0.70316 0.0
H2374 H 0.6441 0.34644 0.67906 0.0
H2375 H 0.60712 0.3796 0.68184 0.0
H2376 H 0.54991 0.37038 0.62435 0.0
H2377 H 0.56865 0.37193 0.64594 0.0
H2378 H 0.60568 0.33836 0.64039 0.0
C2379 C 0.63862 0.34902 0.68958 0.0
C2380 C 0.60704 0.37064 0.67276 0.0
C2381 C 0.64562 0.345 0.7034 0.0
C2382 C 0.5609 0.3657 0.62274 0.0
C2383 C 0.57182 0.36684 0.63511 0.0
C2384 C 0.60619 0.34773 0.64908 0.0
C2385 C 0.62446 0.35579 0.68931 0.0
C2386 C 0.61585 0.35793 0.67452 0.0
C2387 C 0.58621 0.36077 0.63371 0.0
C2388 C 0.59713 0.36032 0.64738 0.0
H2389 H 0.61938 0.35776 0.72757 0.0
H2390 H 0.60702 0.36442 0.70351 0.0
H2391 H 0.6218 0.33643 0.66352 0.0
H2392 H 0.58137 0.34685 0.59649 0.0
H2393 H 0.60067 0.34973 0.61766 0.0
C2394 C 0.05465 0.24848 0.31831 0.0
C2395 C 0.04737 0.24987 0.30377 0.0
C2396 C 0.04606 0.24494 0.33072 0.0
C2397 C 0.00695 0.23076 0.34038 0.0
H2398 H 0.01885 0.2518 0.37993 0.0
C2399 C 0.96532 0.23977 0.38779 0.0
C2400 C 0.96996 0.23566 0.40257 0.0
C2401 C 0.97557 0.24 0.37623 0.0
C2402 C 0.01552 0.24572 0.36899 0.0
H2403 H 0.0254 0.24857 0.29081 0.0
H2404 H 0.01042 0.24298 0.31244 0.0
H2405 H 0.03526 0.25486 0.35865 0.0
H2406 H 0.98924 0.2287 0.41669 0.0
H2407 H 0.00733 0.22975 0.39651 0.0
H2408 H 0.98681 0.22228 0.35063 0.0
C2409 C 0.02278 0.24414 0.31427 0.0
C2410 C 0.02493 0.2474 0.35679 0.0
C2411 C 0.03137 0.24746 0.30185 0.0
C2412 C 0.98528 0.2321 0.40553 0.0
C2413 C 0.99563 0.2326 0.39398 0.0
C2414 C 0.99745 0.22929 0.3525 0.0
C2415 C 0.02998 0.24292 0.3289 0.0
C2416 C 0.02065 0.24013 0.34225 0.0
C2417 C 0.9908 0.23642 0.37921 0.0
C2418 C 0.00155 0.23692 0.36684 0.0
H2419 H 0.06699 0.25018 0.32012 0.0
H2420 H 0.05204 0.24384 0.34173 0.0
H2421 H 0.00345 0.22467 0.32949 0.0
H2422 H 0.95379 0.24302 0.38513 0.0
H2423 H 0.97165 0.24325 0.36499 0.0
C2424 C 0.28904 0.60506 0.35437 0.0
C2425 C 0.27783 0.59642 0.34478 0.0
C2426 C 0.29077 0.60259 0.36995 0.0
C2427 C 0.28372 0.57242 0.39653 0.0
H2428 H 0.29666 0.60502 0.42735 0.0
C2429 C 0.29647 0.56165 0.46056 0.0
C2430 C 0.30996 0.56919 0.46755 0.0
C2431 C 0.29093 0.56528 0.446 0.0
C2432 C 0.29311 0.59579 0.41885 0.0
H2433 H 0.25912 0.57896 0.34422 0.0
H2434 H 0.26201 0.57482 0.37151 0.0
H2435 H 0.2891 0.61134 0.40135 0.0
H2436 H 0.32841 0.58618 0.46451 0.0
H2437 H 0.31868 0.59257 0.43924 0.0
H2438 H 0.28792 0.55687 0.41402 0.0
C2439 C 0.26965 0.5833 0.36689 0.0
C2440 C 0.28878 0.59941 0.40396 0.0
C2441 C 0.26793 0.58575 0.35127 0.0
C2442 C 0.31783 0.58036 0.4596 0.0
C2443 C 0.31225 0.58404 0.44512 0.0
C2444 C 0.28799 0.56881 0.41144 0.0
C2445 C 0.28131 0.59146 0.37634 0.0
C2446 C 0.28431 0.58775 0.39254 0.0
C2447 C 0.29872 0.57658 0.43817 0.0
C2448 C 0.293 0.58044 0.42268 0.0
H2449 H 0.29687 0.61337 0.34977 0.0
H2450 H 0.29997 0.60896 0.37684 0.0
H2451 H 0.28055 0.56314 0.38798 0.0
H2452 H 0.29001 0.55314 0.46644 0.0
H2453 H 0.28041 0.55942 0.44098 0.0
C2454 C 0.24555 0.38776 0.73403 0.0
C2455 C 0.238 0.3954 0.72243 0.0
C2456 C 0.24962 0.39529 0.74834 0.0
C2457 C 0.25319 0.43366 0.76971 0.0
H2458 H 0.24493 0.40955 0.8043 0.0
C2459 C 0.24549 0.45954 0.83115 0.0
C2460 C 0.25179 0.45185 0.84344 0.0
C2461 C 0.24595 0.45342 0.81607 0.0
C2462 C 0.24751 0.4164 0.79479 0.0
H2463 H 0.22935 0.41712 0.71656 0.0
H2464 H 0.23607 0.43011 0.74162 0.0
H2465 H 0.24209 0.39742 0.77854 0.0
H2466 H 0.26437 0.43226 0.84943 0.0
H2467 H 0.26501 0.42154 0.82318 0.0
H2468 H 0.2581 0.45277 0.78612 0.0
C2469 C 0.23912 0.41839 0.73962 0.0
C2470 C 0.24593 0.40943 0.77999 0.0
C2471 C 0.23518 0.41091 0.72525 0.0
C2472 C 0.25909 0.43827 0.84026 0.0
C2473 C 0.2595 0.43214 0.82522 0.0
C2474 C 0.25466 0.44067 0.78456 0.0
C2475 C 0.24608 0.41057 0.75146 0.0
C2476 C 0.24868 0.41796 0.76723 0.0
C2477 C 0.25268 0.43948 0.81299 0.0
C2478 C 0.25177 0.43211 0.79724 0.0
H2479 H 0.24803 0.37586 0.73217 0.0
H2480 H 0.2553 0.38901 0.75707 0.0
H2481 H 0.25559 0.44054 0.76018 0.0
H2482 H 0.23969 0.46996 0.83323 0.0
H2483 H 0.2405 0.45927 0.80688 0.0
C2484 C 0.74888 0.98215 0.65546 0.0
C2485 C 0.75034 0.9683 0.66253 0.0
C2486 C 0.74518 0.98217 0.63974 0.0
C2487 C 0.74567 0.95754 0.60387 0.0
H2488 H 0.72147 0.98892 0.58704 0.0
C2489 C 0.72618 0.95707 0.53974 0.0
C2490 C 0.72906 0.97087 0.53269 0.0
C2491 C 0.7279 0.9566 0.55564 0.0
C2492 C 0.7283 0.98014 0.5916 0.0
H2493 H 0.74851 0.94355 0.65873 0.0
H2494 H 0.74155 0.94354 0.63136 0.0
H2495 H 0.72544 0.98801 0.61477 0.0
H2496 H 0.73588 0.99506 0.53699 0.0
H2497 H 0.73848 0.99427 0.56483 0.0
H2498 H 0.74828 0.94958 0.58064 0.0
C2499 C 0.7437 0.95443 0.63788 0.0
C2500 C 0.73063 0.97963 0.60748 0.0
C2501 C 0.74759 0.95443 0.6536 0.0
C2502 C 0.73336 0.98428 0.54201 0.0
C2503 C 0.7349 0.98383 0.55795 0.0
C2504 C 0.74317 0.95795 0.58801 0.0
C2505 C 0.74265 0.96831 0.63071 0.0
C2506 C 0.73947 0.9684 0.61383 0.0
C2507 C 0.73233 0.96995 0.56489 0.0
C2508 C 0.73457 0.96932 0.58173 0.0
H2509 H 0.75102 0.99306 0.66199 0.0
H2510 H 0.74474 0.99308 0.63462 0.0
H2511 H 0.75278 0.94892 0.60829 0.0
H2512 H 0.7225 0.94659 0.53299 0.0
H2513 H 0.72564 0.94579 0.56073 0.0
C2514 C 0.72948 0.01412 0.27897 0.0
C2515 C 0.73963 0.02653 0.2844 0.0
C2516 C 0.72353 0.01291 0.26375 0.0
C2517 C 0.71761 0.03561 0.22978 0.0
H2518 H 0.71395 0.99575 0.20761 0.0
C2519 C 0.70608 0.02783 0.16407 0.0
C2520 C 0.69573 0.01568 0.15822 0.0
C2521 C 0.71084 0.0293 0.17963 0.0
C2522 C 0.71473 0.00694 0.21369 0.0
H2523 H 0.75198 0.04713 0.27809 0.0
H2524 H 0.74186 0.0449 0.25142 0.0
H2525 H 0.72343 0.99799 0.23443 0.0
H2526 H 0.68198 0.99579 0.16426 0.0
H2527 H 0.69038 0.9983 0.1914 0.0
H2528 H 0.70907 0.04456 0.20894 0.0
C2529 C 0.73811 0.03632 0.259 0.0
C2530 C 0.72015 0.00822 0.22908 0.0
C2531 C 0.74401 0.03754 0.27424 0.0
C2532 C 0.69016 0.00512 0.16833 0.0
C2533 C 0.69496 0.00657 0.18389 0.0
C2534 C 0.71223 0.03433 0.21438 0.0
C2535 C 0.72778 0.024 0.25357 0.0
C2536 C 0.7217 0.02259 0.23729 0.0
C2537 C 0.70539 0.01864 0.1897 0.0
C2538 C 0.71078 0.01998 0.20615 0.0
H2539 H 0.72643 0.00512 0.28635 0.0
H2540 H 0.71558 0.00328 0.25996 0.0
H2541 H 0.71842 0.04681 0.23583 0.0
H2542 H 0.71078 0.03602 0.15656 0.0
H2543 H 0.71905 0.0386 0.18371 0.0
C2544 C 0.33608 0.2649 0.60308 0.0
C2545 C 0.32922 0.27457 0.61367 0.0
C2546 C 0.34849 0.27042 0.59525 0.0
C2547 C 0.37986 0.30042 0.59813 0.0
H2548 H 0.38231 0.29002 0.55472 0.0
C2549 C 0.4289 0.32609 0.56532 0.0
C2550 C 0.43578 0.3161 0.55506 0.0
C2551 C 0.41506 0.32167 0.57137 0.0
C2552 C 0.38187 0.29291 0.56687 0.0
H2553 H 0.33047 0.29735 0.62495 0.0
H2554 H 0.35195 0.3071 0.61108 0.0
H2555 H 0.3599 0.28093 0.56766 0.0
H2556 H 0.43336 0.29383 0.54269 0.0
H2557 H 0.40923 0.28596 0.55342 0.0
H2558 H 0.40188 0.31213 0.59751 0.0
C2559 C 0.34765 0.29528 0.60872 0.0
C2560 C 0.36902 0.28772 0.57428 0.0
C2561 C 0.33519 0.28978 0.61649 0.0
C2562 C 0.42824 0.30181 0.55049 0.0
C2563 C 0.41441 0.29732 0.55664 0.0
C2564 C 0.39271 0.30555 0.59076 0.0
C2565 C 0.35443 0.28567 0.59799 0.0
C2566 C 0.36789 0.2914 0.59 0.0
C2567 C 0.40782 0.30708 0.5674 0.0
C2568 C 0.39389 0.30186 0.57504 0.0
H2569 H 0.33175 0.25309 0.60075 0.0
H2570 H 0.3536 0.26266 0.58723 0.0
H2571 H 0.37946 0.30323 0.61031 0.0
H2572 H 0.43435 0.33728 0.56885 0.0
H2573 H 0.41013 0.32963 0.57933 0.0
C2574 C 0.28761 0.72404 0.0337 0.0
C2575 C 0.29113 0.73855 0.02838 0.0
C2576 C 0.27237 0.71842 0.03405 0.0
C2577 C 0.23274 0.73092 0.03379 0.0
H2578 H 0.22166 0.68824 0.02151 0.0
C2579 C 0.17494 0.68884 0.01639 0.0
C2580 C 0.1655 0.69393 0.02783 0.0
C2581 C 0.19041 0.6939 0.01691 0.0
C2582 C 0.22454 0.70021 0.02487 0.0
H2583 H 0.28154 0.75875 0.01966 0.0
H2584 H 0.25493 0.74893 0.0201 0.0
H2585 H 0.24827 0.69803 0.02128 0.0
H2586 H 0.16502 0.70833 0.04882 0.0
H2587 H 0.19205 0.71676 0.04997 0.0
H2588 H 0.20898 0.73324 0.03692 0.0
C2589 C 0.2639 0.74189 0.0241 0.0
C2590 C 0.23983 0.70578 0.02492 0.0
C2591 C 0.27913 0.74751 0.02379 0.0
C2592 C 0.17197 0.70403 0.03991 0.0
C2593 C 0.18744 0.70904 0.04046 0.0
C2594 C 0.21746 0.72537 0.03369 0.0
C2595 C 0.26033 0.72724 0.02917 0.0
C2596 C 0.24411 0.72122 0.02935 0.0
C2597 C 0.19683 0.70414 0.02891 0.0
C2598 C 0.21316 0.70995 0.02921 0.0
H2599 H 0.29661 0.71714 0.03787 0.0
H2600 H 0.27003 0.70725 0.03836 0.0
H2601 H 0.23565 0.74283 0.03745 0.0
H2602 H 0.17038 0.68093 0.00702 0.0
H2603 H 0.19726 0.69001 0.00774 0.0
C2604 C 0.72574 0.23536 0.40287 0.0
C2605 C 0.72314 0.22528 0.38972 0.0
C2606 C 0.74028 0.23735 0.41052 0.0
C2607 C 0.78125 0.23059 0.40549 0.0
H2608 H 0.78466 0.2329 0.44993 0.0
C2609 C 0.83756 0.22101 0.43905 0.0
C2610 C 0.84264 0.23214 0.45079 0.0
C2611 C 0.82268 0.22068 0.43237 0.0
C2612 C 0.78386 0.23239 0.43752 0.0
H2613 H 0.73385 0.2095 0.37426 0.0
H2614 H 0.75897 0.21272 0.3877 0.0
H2615 H 0.75936 0.23192 0.43638 0.0
H2616 H 0.83576 0.25122 0.46519 0.0
H2617 H 0.80954 0.25038 0.45367 0.0
H2618 H 0.8057 0.23065 0.40664 0.0
C2619 C 0.74991 0.21935 0.39197 0.0
C2620 C 0.76938 0.2319 0.42974 0.0
C2621 C 0.73544 0.21744 0.38429 0.0
C2622 C 0.83219 0.24244 0.45625 0.0
C2623 C 0.81721 0.24201 0.44962 0.0
C2624 C 0.79565 0.23093 0.41325 0.0
C2625 C 0.75253 0.22927 0.40523 0.0
C2626 C 0.7679 0.23081 0.41361 0.0
C2627 C 0.81245 0.23136 0.43737 0.0
C2628 C 0.7971 0.23165 0.42933 0.0
H2629 H 0.71651 0.24161 0.40734 0.0
H2630 H 0.74193 0.24524 0.42057 0.0
H2631 H 0.78059 0.23013 0.39308 0.0
H2632 H 0.84518 0.21267 0.43482 0.0
H2633 H 0.81921 0.21213 0.42316 0.0
C2634 C 0.6662 0.76296 0.95938 0.0
C2635 C 0.67586 0.7552 0.96916 0.0
C2636 C 0.65112 0.76514 0.96292 0.0
C2637 C 0.62088 0.74974 0.98695 0.0
H2638 H 0.59957 0.78411 0.9724 0.0
C2639 C 0.55731 0.76292 0.99728 0.0
C2640 C 0.54829 0.7597 0.98344 0.0
C2641 C 0.57332 0.76409 0.99735 0.0
C2642 C 0.60548 0.77456 0.97665 0.0
H2643 H 0.6776 0.74393 0.99043 0.0
H2644 H 0.65151 0.7483 0.99705 0.0
H2645 H 0.6271 0.78328 0.96972 0.0
H2646 H 0.54939 0.75519 0.95883 0.0
H2647 H 0.57715 0.75811 0.95903 0.0
H2648 H 0.59911 0.74125 0.99403 0.0
C2649 C 0.65532 0.75233 0.98639 0.0
C2650 C 0.62119 0.77395 0.97497 0.0
C2651 C 0.67031 0.74989 0.98267 0.0
C2652 C 0.55577 0.75809 0.96969 0.0
C2653 C 0.57171 0.75962 0.96976 0.0
C2654 C 0.60524 0.75054 0.9889 0.0
C2655 C 0.64542 0.75979 0.97646 0.0
C2656 C 0.62905 0.76133 0.97974 0.0
C2657 C 0.58058 0.76245 0.98358 0.0
C2658 C 0.5974 0.76279 0.98348 0.0
H2659 H 0.67014 0.76688 0.94872 0.0
H2660 H 0.64384 0.7706 0.95477 0.0
H2661 H 0.62637 0.7397 0.99054 0.0
H2662 H 0.55206 0.7645 0.00808 0.0
H2663 H 0.58005 0.76628 0.00813 0.0
C2664 C 0.58617 0.34266 0.26549 0.0
C2665 C 0.59798 0.33975 0.27627 0.0
C2666 C 0.57612 0.35405 0.2687 0.0
C2667 C 0.56272 0.37911 0.30032 0.0
H2668 H 0.55377 0.40592 0.26777 0.0
C2669 C 0.54384 0.44052 0.31077 0.0
C2670 C 0.53365 0.44633 0.2999 0.0
C2671 C 0.54895 0.42583 0.30844 0.0
C2672 C 0.55588 0.39839 0.27691 0.0
H2673 H 0.60887 0.34685 0.29864 0.0
H2674 H 0.59133 0.36666 0.30432 0.0
H2675 H 0.56811 0.38349 0.26257 0.0
H2676 H 0.52022 0.44101 0.27844 0.0
H2677 H 0.52904 0.41521 0.27443 0.0
H2678 H 0.55086 0.39436 0.31477 0.0
C2679 C 0.58951 0.35985 0.29356 0.0
C2680 C 0.56413 0.38551 0.27393 0.0
C2681 C 0.59953 0.34842 0.29035 0.0
C2682 C 0.52803 0.43682 0.28705 0.0
C2683 C 0.5332 0.42212 0.28468 0.0
C2684 C 0.55449 0.39203 0.30331 0.0
C2685 C 0.57776 0.3629 0.28271 0.0
C2686 C 0.56787 0.37584 0.28565 0.0
C2687 C 0.54402 0.41661 0.29516 0.0
C2688 C 0.55119 0.40195 0.29169 0.0
H2689 H 0.58471 0.33613 0.25454 0.0
H2690 H 0.5671 0.35597 0.26016 0.0
H2691 H 0.56518 0.37176 0.30954 0.0
H2692 H 0.54824 0.44754 0.32087 0.0
H2693 H 0.55736 0.422 0.3167 0.0
C2694 C 0.01551 0.27535 0.74668 0.0
C2695 C 0.02377 0.28547 0.73793 0.0
C2696 C 0.01269 0.25996 0.74162 0.0
C2697 C 0.02804 0.22958 0.71782 0.0
H2698 H 0.98822 0.20863 0.72108 0.0
C2699 C 0.01568 0.16554 0.69835 0.0
C2700 C 0.00678 0.1567 0.70778 0.0
C2701 C 0.01716 0.1815 0.70073 0.0
C2702 C -0.00055 0.21426 0.72023 0.0
H2703 H 0.03607 0.28735 0.71733 0.0
H2704 H 0.03098 0.26042 0.70837 0.0
H2705 H 0.99182 0.23612 0.72757 0.0
H2706 H 0.99263 0.15761 0.72722 0.0
H2707 H 0.99539 0.18537 0.73155 0.0
H2708 H 0.03583 0.2077 0.71091 0.0
C2709 C 0.02656 0.26446 0.71906 0.0
C2710 C 0.00149 0.23002 0.72391 0.0
C2711 C 0.02927 0.2799 0.72407 0.0
C2712 C -0.00063 0.16414 0.71962 0.0
C2713 C 0.00093 0.18007 0.72206 0.0
C2714 C 0.02604 0.21379 0.71425 0.0
C2715 C 0.01825 0.25433 0.7278 0.0
C2716 C 0.01584 0.23781 0.7229 0.0
C2717 C 0.00985 0.18896 0.71266 0.0
C2718 C 0.01176 0.2059 0.71558 0.0
H2719 H 0.01122 0.27934 0.75745 0.0
H2720 H 0.00644 0.25238 0.74871 0.0
H2721 H 0.03928 0.23525 0.71711 0.0
H2722 H 0.02138 0.16012 0.68902 0.0
H2723 H 0.02394 0.188 0.69314 0.0
C2724 C 0.39134 0.72718 0.24099 0.0
C2725 C 0.40106 0.71736 0.23359 0.0
C2726 C 0.39628 0.74239 0.24527 0.0
C2727 C 0.43109 0.76935 0.25042 0.0
H2728 H 0.40176 0.79993 0.24319 0.0
C2729 C 0.44801 0.8338 0.24612 0.0
C2730 C 0.43884 0.84439 0.25326 0.0
C2731 C 0.44383 0.8181 0.24544 0.0
C2732 C 0.41004 0.79152 0.24545 0.0
H2733 H 0.42372 0.71574 0.22517 0.0
H2734 H 0.43218 0.74229 0.23225 0.0
H2735 H 0.39362 0.77288 0.23901 0.0
H2736 H 0.41846 0.84665 0.2659 0.0
H2737 H 0.41105 0.81931 0.26442 0.0
H2738 H 0.44761 0.78815 0.25638 0.0
C2739 C 0.42085 0.73821 0.23506 0.0
C2740 C 0.40537 0.77599 0.24311 0.0
C2741 C 0.41596 0.72298 0.23091 0.0
C2742 C 0.4256 0.83886 0.26002 0.0
C2743 C 0.42138 0.8232 0.25922 0.0
C2744 C 0.43579 0.78491 0.25263 0.0
C2745 C 0.41101 0.74818 0.24211 0.0
C2746 C 0.41585 0.76469 0.24547 0.0
C2747 C 0.43035 0.81267 0.25178 0.0
C2748 C 0.42533 0.79615 0.25009 0.0
H2749 H 0.37983 0.72317 0.24332 0.0
H2750 H 0.38849 0.74965 0.25094 0.0
H2751 H 0.43942 0.76097 0.25259 0.0
H2752 H 0.45817 0.83765 0.24064 0.0
H2753 H 0.45089 0.81026 0.23949 0.0
C2754 C 0.9744 0.66421 0.73413 0.0
C2755 C 0.96536 0.67032 0.7454 0.0
C2756 C 0.97981 0.64962 0.73517 0.0
C2757 C 0.9851 0.61843 0.76168 0.0
H2758 H 0.98191 0.59261 0.72393 0.0
C2759 C 0.9826 0.55229 0.75942 0.0
C2760 C 0.9897 0.54446 0.74759 0.0
C2761 C 0.98234 0.56825 0.76008 0.0
C2762 C 0.98315 0.59972 0.73454 0.0
H2763 H 0.95457 0.66578 0.7664 0.0
H2764 H 0.96399 0.64032 0.76827 0.0
H2765 H 0.97628 0.61939 0.72331 0.0
H2766 H 0.00267 0.54729 0.72754 0.0
H2767 H 0.00236 0.57519 0.72877 0.0
H2768 H 0.99151 0.5985 0.77294 0.0
C2769 C 0.9673 0.64696 0.75884 0.0
C2770 C 0.97992 0.61511 0.73419 0.0
C2771 C 0.96195 0.6616 0.75782 0.0
C2772 C 0.99716 0.55299 0.73684 0.0
C2773 C 0.99685 0.56895 0.73745 0.0
C2774 C 0.98828 0.60299 0.76204 0.0
C2775 C 0.97614 0.6407 0.74742 0.0
C2776 C 0.98068 0.62462 0.74777 0.0
C2777 C 0.98915 0.57673 0.74889 0.0
C2778 C 0.98716 0.59342 0.74848 0.0
H2779 H 0.97721 0.67071 0.72443 0.0
H2780 H 0.98677 0.64526 0.72629 0.0
H2781 H 0.98603 0.62549 0.77232 0.0
H2782 H 0.97691 0.54604 0.76798 0.0
H2783 H 0.97623 0.57387 0.76898 0.0
C2784 C 0.70658 0.40365 0.67259 0.0
C2785 C 0.71742 0.39248 0.67244 0.0
C2786 C 0.7019 0.41022 0.65906 0.0
C2787 C 0.7138 0.41673 0.62009 0.0
H2788 H 0.67056 0.42105 0.61052 0.0
C2789 C 0.67141 0.42302 0.56356 0.0
C2790 C 0.68002 0.43402 0.55609 0.0
C2791 C 0.67544 0.42002 0.57869 0.0
C2792 C 0.68267 0.41992 0.61303 0.0
H2793 H 0.73226 0.3798 0.65817 0.0
H2794 H 0.72412 0.39122 0.63456 0.0
H2795 H 0.67896 0.41143 0.63501 0.0
H2796 H 0.6993 0.45089 0.55883 0.0
H2797 H 0.70622 0.44579 0.58538 0.0
H2798 H 0.71749 0.42469 0.59794 0.0
C2799 C 0.71921 0.39493 0.64511 0.0
C2800 C 0.6875 0.41454 0.62712 0.0
C2801 C 0.72383 0.38834 0.65861 0.0
C2802 C 0.6924 0.44239 0.56429 0.0
C2803 C 0.69645 0.43936 0.57944 0.0
C2804 C 0.70898 0.42213 0.60604 0.0
C2805 C 0.70815 0.40591 0.64516 0.0
C2806 C 0.7031 0.41265 0.6307 0.0
C2807 C 0.68818 0.42794 0.58672 0.0
C2808 C 0.69334 0.42357 0.60224 0.0
H2809 H 0.70196 0.4076 0.68319 0.0
H2810 H 0.69358 0.41886 0.65954 0.0
H2811 H 0.72592 0.4156 0.62259 0.0
H2812 H 0.66168 0.41653 0.55761 0.0
H2813 H 0.66889 0.41107 0.5839 0.0
C2814 C 0.78498 0.6285 0.26964 0.0
C2815 C 0.78015 0.62136 0.28256 0.0
C2816 C 0.78834 0.61969 0.25655 0.0
C2817 C 0.79404 0.57926 0.2421 0.0
H2818 H 0.78368 0.59528 0.20278 0.0
C2819 C 0.78123 0.54413 0.18348 0.0
C2820 C 0.78915 0.54951 0.17115 0.0
C2821 C 0.78264 0.55224 0.1978 0.0
C2822 C 0.78675 0.59074 0.2137 0.0
H2823 H 0.77464 0.59958 0.29194 0.0
H2824 H 0.77972 0.5842 0.26898 0.0
H2825 H 0.78096 0.61099 0.22617 0.0
H2826 H 0.80574 0.56704 0.16474 0.0
H2827 H 0.80754 0.58152 0.18952 0.0
H2828 H 0.79887 0.55858 0.22933 0.0
C2829 C 0.78165 0.59652 0.26901 0.0
C2830 C 0.78531 0.59977 0.22715 0.0
C2831 C 0.77864 0.60532 0.28219 0.0
C2832 C 0.79911 0.56276 0.17378 0.0
C2833 C 0.80027 0.57102 0.18799 0.0
C2834 C 0.79513 0.57009 0.22861 0.0
C2835 C 0.78649 0.60356 0.25595 0.0
C2836 C 0.78886 0.59416 0.24158 0.0
C2837 C 0.7918 0.56599 0.20001 0.0
C2838 C 0.79146 0.57576 0.21432 0.0
H2839 H 0.78628 0.64088 0.26971 0.0
H2840 H 0.79234 0.62559 0.24691 0.0
H2841 H 0.79722 0.5746 0.25292 0.0
H2842 H 0.77333 0.53409 0.1819 0.0
H2843 H 0.77594 0.54822 0.20692 0.0
C2844 C 0.24027 0.02914 0.31023 0.0
C2845 C 0.23991 0.04403 0.30524 0.0
C2846 C 0.23642 0.02612 0.32504 0.0
C2847 C 0.23222 0.04619 0.36317 0.0
H2848 H 0.21523 0.00622 0.37269 0.0
C2849 C 0.21352 0.03335 0.42313 0.0
C2850 C 0.2223 0.02238 0.43001 0.0
C2851 C 0.21355 0.03508 0.4074 0.0
C2852 C 0.21993 0.01742 0.37012 0.0
H2853 H 0.23493 0.06737 0.3115 0.0
H2854 H 0.22737 0.06205 0.33707 0.0
H2855 H 0.21884 0.01153 0.34603 0.0
H2856 H 0.23725 0.00397 0.42536 0.0
H2857 H 0.23669 0.00663 0.39776 0.0
H2858 H 0.23284 0.05212 0.38729 0.0
C2859 C 0.23115 0.05273 0.32986 0.0
C2860 C 0.22214 0.02047 0.35489 0.0
C2861 C 0.23536 0.05581 0.31516 0.0
C2862 C 0.23023 0.01244 0.42053 0.0
C2863 C 0.22999 0.01399 0.40472 0.0
C2864 C 0.22967 0.04324 0.37831 0.0
C2865 C 0.23186 0.03789 0.33512 0.0
C2866 C 0.22853 0.03484 0.35121 0.0
C2867 C 0.22202 0.02562 0.39813 0.0
C2868 C 0.22368 0.0288 0.38193 0.0
H2869 H 0.244 0.01993 0.30283 0.0
H2870 H 0.23745 0.01462 0.32867 0.0
H2871 H 0.23748 0.05726 0.36097 0.0
H2872 H 0.20692 0.04092 0.42995 0.0
H2873 H 0.20719 0.04403 0.4025 0.0
C2874 C 0.28057 0.00275 0.71161 0.0
C2875 C 0.27618 0.98858 0.7038 0.0
C2876 C 0.28734 0.0034 0.7265 0.0
C2877 C 0.29186 0.97957 0.76008 0.0
H2878 H 0.31976 0.01385 0.77554 0.0
C2879 C 0.32282 0.98592 0.82106 0.0
C2880 C 0.31767 0.99836 0.82988 0.0
C2881 C 0.31951 0.98432 0.80521 0.0
C2882 C 0.31205 0.00419 0.77129 0.0
H2883 H 0.27559 0.96399 0.70511 0.0
H2884 H 0.28813 0.96499 0.73083 0.0
H2885 H 0.31127 0.01131 0.74839 0.0
H2886 H 0.30511 0.01897 0.82859 0.0
H2887 H 0.30017 0.01651 0.80088 0.0
H2888 H 0.29308 0.97236 0.78306 0.0
C2889 C 0.28595 0.97567 0.72576 0.0
C2890 C 0.30704 0.00278 0.75579 0.0
C2891 C 0.27887 0.97505 0.71098 0.0
C2892 C 0.30959 0.00941 0.82228 0.0
C2893 C 0.30663 0.00798 0.8064 0.0
C2894 C 0.29717 0.98082 0.77549 0.0
C2895 C 0.2901 0.98987 0.73383 0.0
C2896 C 0.2966 0.99062 0.75002 0.0
C2897 C 0.31137 0.99533 0.7978 0.0
C2898 C 0.30706 0.99328 0.78124 0.0
H2899 H 0.27831 0.01334 0.7064 0.0
H2900 H 0.28999 0.01456 0.73238 0.0
H2901 H 0.28364 0.97021 0.75624 0.0
H2902 H 0.32937 0.97735 0.82635 0.0
H2903 H 0.32332 0.9745 0.79871 0.0
C2904 C 0.65126 0.73057 0.39413 0.0
C2905 C 0.66162 0.7193 0.39111 0.0
C2906 C 0.63763 0.72692 0.40099 0.0
C2907 C 0.61147 0.69328 0.40777 0.0
H2908 H 0.59146 0.7238 0.43187 0.0
C2909 C 0.54748 0.68602 0.41711 0.0
C2910 C 0.54167 0.69233 0.43053 0.0
C2911 C 0.56284 0.68867 0.41422 0.0
C2912 C 0.59696 0.71501 0.4254 0.0
H2913 H 0.66525 0.69518 0.39231 0.0
H2914 H 0.6424 0.68907 0.40548 0.0
H2915 H 0.61721 0.72964 0.42413 0.0
H2916 H 0.54774 0.70603 0.45173 0.0
H2917 H 0.57481 0.71008 0.44702 0.0
H2918 H 0.59156 0.67843 0.40956 0.0
C2919 C 0.6446 0.70073 0.40236 0.0
C2920 C 0.61169 0.71847 0.42071 0.0
C2921 C 0.65805 0.70433 0.39519 0.0
C2922 C 0.55181 0.70094 0.44129 0.0
C2923 C 0.56731 0.70343 0.43849 0.0
C2924 C 0.59691 0.68973 0.4127 0.0
C2925 C 0.63405 0.71192 0.40516 0.0
C2926 C 0.61901 0.70778 0.4115 0.0
C2927 C 0.573 0.69745 0.42482 0.0
C2928 C 0.58926 0.70068 0.42122 0.0
H2929 H 0.65357 0.74221 0.39097 0.0
H2930 H 0.62972 0.73582 0.40258 0.0
H2931 H 0.61654 0.68474 0.40057 0.0
H2932 H 0.54014 0.67902 0.4087 0.0
H2933 H 0.56662 0.68406 0.40345 0.0
C2934 C 0.71303 0.27046 0.9935 0.0
C2935 C 0.70465 0.26978 0.9793 0.0
C2936 C 0.72836 0.27598 0.99484 0.0
C2937 C 0.7617 0.2837 0.97139 0.0
H2938 H 0.77898 0.30451 0.00943 0.0
C2939 C 0.8237 0.3117 0.98007 0.0
C2940 C 0.83241 0.30645 0.99251 0.0
C2941 C 0.8079 0.30815 0.97816 0.0
C2942 C 0.77427 0.29871 -0.00125 0.0
H2943 H 0.70556 0.27434 0.95537 0.0
H2944 H 0.73218 0.28464 0.95775 0.0
H2945 H 0.75162 0.29721 0.00648 0.0
H2946 H 0.83109 0.29318 0.01262 0.0
H2947 H 0.80347 0.28765 0.00959 0.0
H2948 H 0.78445 0.28565 0.96362 0.0
C2949 C 0.7271 0.28057 0.96783 0.0
C2950 C 0.75862 0.29441 0.99707 0.0
C2951 C 0.71182 0.27478 0.96645 0.0
C2952 C 0.82481 0.29774 0.00309 0.0
C2953 C 0.80899 0.29447 0.00133 0.0
C2954 C 0.77731 0.28827 0.97299 0.0
C2955 C 0.73564 0.28113 0.98203 0.0
C2956 C 0.75214 0.28662 0.98345 0.0
C2957 C 0.80042 0.29955 0.9888 0.0
C2958 C 0.78375 0.29561 0.98676 0.0
H2959 H 0.70786 0.26625 0.00348 0.0
H2960 H 0.73459 0.27581 0.00588 0.0
H2961 H 0.75727 0.2775 0.96083 0.0
H2962 H 0.82902 0.31869 0.97184 0.0
H2963 H 0.80148 0.31229 0.96846 0.0
C2964 C 0.27755 0.78274 0.62905 0.0
C2965 C 0.28599 0.76966 0.62946 0.0
C2966 C 0.2639 0.78254 0.61992 0.0
C2967 C 0.23342 0.75582 0.60036 0.0
H2968 H 0.22192 0.79234 0.58079 0.0
C2969 C 0.17748 0.75714 0.56206 0.0
C2970 C 0.16841 0.76926 0.56605 0.0
C2971 C 0.19266 0.75719 0.56802 0.0
C2972 C 0.22499 0.78207 0.5862 0.0
H2973 H 0.28678 0.74604 0.62089 0.0
H2974 H 0.26308 0.74572 0.60464 0.0
H2975 H 0.24693 0.79222 0.5946 0.0
H2976 H 0.16824 0.79125 0.57874 0.0
H2977 H 0.19479 0.79142 0.58903 0.0
H2978 H 0.21143 0.7457 0.59189 0.0
C2979 C 0.26687 0.75611 0.61148 0.0
C2980 C 0.23929 0.782 0.59419 0.0
C2981 C 0.28047 0.7563 0.62072 0.0
C2982 C 0.17497 0.78172 0.57558 0.0
C2983 C 0.19018 0.78186 0.58137 0.0
C2984 C 0.21919 0.75584 0.59224 0.0
C2985 C 0.25837 0.76923 0.61099 0.0
C2986 C 0.24359 0.76896 0.60159 0.0
C2987 C 0.1991 0.76947 0.57789 0.0
C2988 C 0.21474 0.76904 0.58528 0.0
H2989 H 0.28128 0.79301 0.63611 0.0
H2990 H 0.2575 0.79274 0.62018 0.0
H2991 H 0.2362 0.74565 0.60609 0.0
H2992 H 0.17267 0.74737 0.5548 0.0
H2993 H 0.19932 0.74754 0.56507 0.0
C2994 C 0.31649 0.26429 0.04817 0.0
C2995 C 0.30677 0.251 0.04872 0.0
C2996 C 0.33154 0.26329 0.04397 0.0
C2997 C 0.35645 0.23993 0.02224 0.0
H2998 H 0.38933 0.25979 0.04931 0.0
C2999 C 0.42041 0.23211 0.01241 0.0
C3000 C 0.43105 0.24431 0.01715 0.0
C3001 C 0.40501 0.23288 0.01562 0.0
C3002 C 0.38032 0.25442 0.04142 0.0
H3003 H 0.3057 0.2262 0.04643 0.0
H3004 H 0.3317 0.22448 0.03816 0.0
H3005 H 0.36293 0.26133 0.05606 0.0
H3006 H 0.43409 0.26711 0.02826 0.0
H3007 H 0.40717 0.2689 0.03315 0.0
H3008 H 0.37369 0.23343 0.0073 0.0
C3009 C 0.32751 0.23567 0.04075 0.0
C3010 C 0.3652 0.25522 0.04539 0.0
C3011 C 0.31253 0.23667 0.04523 0.0
C3012 C 0.42604 0.25752 0.02461 0.0
C3013 C 0.41064 0.25844 0.02754 0.0
C3014 C 0.37158 0.23936 0.0181 0.0
C3015 C 0.33714 0.24898 0.04012 0.0
C3016 C 0.35314 0.24798 0.03586 0.0
C3017 C 0.39995 0.246 0.02341 0.0
C3018 C 0.38375 0.24661 0.02764 0.0
H3019 H 0.31244 0.27551 0.05089 0.0
H3020 H 0.33877 0.27372 0.04358 0.0
H3021 H 0.34729 0.23435 0.01465 0.0
H3022 H 0.42412 0.22177 0.00674 0.0
H3023 H 0.39722 0.22299 0.01241 0.0
C3024 C 0.39784 0.65075 0.72912 0.0
C3025 C 0.38738 0.657 0.71884 0.0
C3026 C 0.40592 0.6382 0.72443 0.0
C3027 C 0.41772 0.61719 0.6896 0.0
H3028 H 0.42302 0.58407 0.71645 0.0
C3029 C 0.43453 0.55748 0.66822 0.0
C3030 C 0.44406 0.54935 0.67784 0.0
C3031 C 0.42945 0.57157 0.67334 0.0
C3032 C 0.42188 0.59334 0.70891 0.0
H3033 H 0.37639 0.65443 0.69594 0.0
H3034 H 0.39039 0.63243 0.68774 0.0
H3035 H 0.41016 0.60655 0.72531 0.0
H3036 H 0.45618 0.54988 0.70018 0.0
H3037 H 0.44745 0.57468 0.7091 0.0
H3038 H 0.42924 0.60388 0.67312 0.0
C3039 C 0.39282 0.6376 0.69924 0.0
C3040 C 0.41447 0.60621 0.71398 0.0
C3041 C 0.38482 0.65021 0.70391 0.0
C3042 C 0.44891 0.55592 0.69249 0.0
C3043 C 0.44377 0.57003 0.69764 0.0
C3044 C 0.42513 0.60432 0.68454 0.0
C3045 C 0.40357 0.63154 0.70939 0.0
C3046 C 0.41213 0.6182 0.70431 0.0
C3047 C 0.43377 0.57788 0.68821 0.0
C3048 C 0.42712 0.59215 0.69406 0.0
H3049 H 0.39997 0.65575 0.74073 0.0
H3050 H 0.41416 0.63385 0.73251 0.0
H3051 H 0.41636 0.62636 0.68198 0.0
H3052 H 0.43073 0.55278 0.6568 0.0
H3053 H 0.42165 0.57723 0.66582 0.0
C3054 C 0.96953 0.71 0.26618 0.0
C3055 C 0.98196 0.70107 0.26942 0.0
C3056 C 0.97013 0.72548 0.27126 0.0
C3057 C 0.998 0.75789 0.28413 0.0
H3058 H 0.96205 0.77697 0.29796 0.0
C3059 C 0.0011 0.81955 0.31133 0.0
C3060 C 0.99014 0.82917 0.30558 0.0
C3061 C -0.00036 0.80378 0.30762 0.0
C3062 C 0.97215 0.77179 0.29404 0.0
H3063 H 0.0051 0.70162 0.27976 0.0
H3064 H 0.00584 0.72824 0.28942 0.0
H3065 H 0.96043 0.7496 0.29033 0.0
H3066 H 0.96886 0.82963 0.29162 0.0
H3067 H 0.9662 0.80203 0.2854 0.0
H3068 H 0.00973 0.78005 0.288 0.0
C3069 C 0.99561 0.72337 0.28291 0.0
C3070 C 0.97123 0.75613 0.28963 0.0
C3071 C 0.99505 0.70796 0.27771 0.0
C3072 C 0.97743 0.82256 0.2964 0.0
C3073 C 0.9759 0.80675 0.2928 0.0
C3074 C -0.00106 0.77349 0.28867 0.0
C3075 C 0.98321 0.73238 0.27966 0.0
C3076 C 0.98415 0.74899 0.28459 0.0
C3077 C 0.98711 0.79724 0.2982 0.0
C3078 C 0.98603 0.78061 0.29364 0.0
H3079 H 0.95937 0.70503 0.25962 0.0
H3080 H 0.96047 0.73211 0.2683 0.0
H3081 H 0.0081 0.75289 0.28001 0.0
H3082 H 0.01085 0.82419 0.3187 0.0
H3083 H 0.00832 0.79669 0.31215 0.0
C3084 C 0.62528 0.27672 0.78503 0.0
C3085 C 0.62369 0.28639 0.77293 0.0
C3086 C 0.61528 0.26376 0.78565 0.0
C3087 C 0.5884 0.23708 0.76146 0.0
H3088 H 0.57433 0.22558 0.80055 0.0
C3089 C 0.54709 0.18408 0.76548 0.0
C3090 C 0.55172 0.17408 0.77656 0.0
C3091 C 0.55387 0.19897 0.7657 0.0
C3092 C 0.57819 0.22863 0.78955 0.0
H3093 H 0.61068 0.28997 0.75178 0.0
H3094 H 0.59301 0.26746 0.75295 0.0
H3095 H 0.59049 0.24912 0.79933 0.0
H3096 H 0.56629 0.17214 0.79714 0.0
H3097 H 0.57817 0.19806 0.79751 0.0
H3098 H 0.57628 0.21652 0.75172 0.0
C3099 C 0.60204 0.2698 0.76193 0.0
C3100 C 0.58749 0.24208 0.78886 0.0
C3101 C 0.61212 0.28271 0.76127 0.0
C3102 C 0.5626 0.17956 0.78837 0.0
C3103 C 0.56932 0.19445 0.78865 0.0
C3104 C 0.57907 0.22367 0.76215 0.0
C3105 C 0.60346 0.26021 0.77418 0.0
C3106 C 0.59288 0.24636 0.77483 0.0
C3107 C 0.56534 0.20418 0.77707 0.0
C3108 C 0.57401 0.21918 0.77623 0.0
H3109 H 0.63444 0.27901 0.79389 0.0
H3110 H 0.61695 0.25641 0.79504 0.0
H3111 H 0.5925 0.2399 0.7505 0.0
H3112 H 0.53881 0.18015 0.75618 0.0
H3113 H 0.55043 0.20627 0.75674 0.0
C3114 C 0.04924 0.31853 0.26112 0.0
C3115 C 0.05503 0.31048 0.24865 0.0
C3116 C 0.04439 0.3333 0.25968 0.0
C3117 C 0.03344 0.3606 0.23057 0.0
H3118 H 0.04029 0.39037 0.26528 0.0
C3119 C 0.02754 0.42592 0.22717 0.0
C3120 C 0.01977 0.43321 0.23883 0.0
C3121 C 0.03084 0.41056 0.22787 0.0
C3122 C 0.03817 0.38213 0.25554 0.0
H3123 H 0.06107 0.31173 0.22516 0.0
H3124 H 0.05292 0.33765 0.22264 0.0
H3125 H 0.04859 0.36455 0.26751 0.0
H3126 H 0.00922 0.43018 0.26027 0.0
H3127 H 0.01511 0.40334 0.26157 0.0
H3128 H 0.02343 0.37849 0.21851 0.0
C3129 C 0.05155 0.3324 0.23339 0.0
C3130 C 0.04288 0.36729 0.25681 0.0
C3131 C 0.05622 0.31755 0.2348 0.0
C3132 C 0.0151 0.42479 0.25106 0.0
C3133 C 0.01858 0.4095 0.25187 0.0
C3134 C 0.0289 0.37551 0.22925 0.0
C3135 C 0.04551 0.34046 0.2458 0.0
C3136 C 0.04054 0.3563 0.24437 0.0
C3137 C 0.02663 0.40229 0.24037 0.0
C3138 C 0.03118 0.3864 0.24174 0.0
H3139 H 0.04817 0.31329 0.27193 0.0
H3140 H 0.03959 0.33901 0.26941 0.0
H3141 H 0.03121 0.3524 0.22082 0.0
H3142 H 0.0312 0.43215 0.21759 0.0
H3143 H 0.03712 0.40529 0.2189 0.0
C3144 C 0.34154 0.59198 0.27679 0.0
C3145 C 0.33986 0.60445 0.28731 0.0
C3146 C 0.3561 0.58695 0.27422 0.0
C3147 C 0.39765 0.59842 0.28056 0.0
H3148 H 0.40236 0.55485 0.2825 0.0
C3149 C 0.45502 0.57436 0.29838 0.0
C3150 C 0.45943 0.56117 0.29028 0.0
C3151 C 0.44044 0.57959 0.29567 0.0
C3152 C 0.40121 0.56702 0.2817 0.0
H3153 H 0.35221 0.62178 0.30291 0.0
H3154 H 0.37732 0.61277 0.29871 0.0
H3155 H 0.37673 0.56438 0.28124 0.0
H3156 H 0.45184 0.54313 0.27291 0.0
H3157 H 0.4262 0.55216 0.2684 0.0
H3158 H 0.42212 0.60112 0.28158 0.0
C3159 C 0.36751 0.60708 0.2922 0.0
C3160 C 0.38653 0.57248 0.28093 0.0
C3161 C 0.35305 0.61215 0.29471 0.0
C3162 C 0.44878 0.55323 0.2795 0.0
C3163 C 0.43411 0.55842 0.27686 0.0
C3164 C 0.4123 0.59298 0.28141 0.0
C3165 C 0.36923 0.59432 0.28211 0.0
C3166 C 0.38461 0.58829 0.28073 0.0
C3167 C 0.42983 0.57171 0.28487 0.0
C3168 C 0.41425 0.57726 0.28234 0.0
H3169 H 0.3316 0.58581 0.27088 0.0
H3170 H 0.35706 0.57715 0.26627 0.0
H3171 H 0.39652 0.6106 0.28008 0.0
H3172 H 0.46277 0.58058 0.30701 0.0
H3173 H 0.43736 0.58968 0.30227 0.0
C3174 C 0.15468 0.37211 0.66944 0.0
C3175 C 0.16567 0.37079 0.68157 0.0
C3176 C 0.14041 0.3777 0.67228 0.0
C3177 C 0.11514 0.38692 0.70416 0.0
H3178 H 0.09784 0.41439 0.67568 0.0
C3179 C 0.07158 0.43102 0.72024 0.0
C3180 C 0.05824 0.43088 0.71052 0.0
C3181 C 0.08374 0.42238 0.71611 0.0
C3182 C 0.10249 0.40663 0.68365 0.0
H3183 H 0.17023 0.37419 0.7062 0.0
H3184 H 0.14581 0.38437 0.71107 0.0
H3185 H 0.12074 0.40136 0.66948 0.0
H3186 H 0.04715 0.42182 0.6888 0.0
H3187 H 0.06871 0.40699 0.68135 0.0
H3188 H 0.09726 0.39289 0.71863 0.0
C3189 C 0.14788 0.38069 0.6994 0.0
C3190 C 0.11556 0.39907 0.68008 0.0
C3191 C 0.162 0.37493 0.69659 0.0
C3192 C 0.05732 0.42206 0.69651 0.0
C3193 C 0.06962 0.41366 0.69223 0.0
C3194 C 0.10226 0.39469 0.70783 0.0
C3195 C 0.1369 0.38227 0.6873 0.0
C3196 C 0.1222 0.38927 0.6904 0.0
C3197 C 0.08289 0.41367 0.70206 0.0
C3198 C 0.09593 0.40474 0.69769 0.0
H3199 H 0.15714 0.36894 0.65775 0.0
H3200 H 0.13217 0.3785 0.66269 0.0
H3201 H 0.11964 0.37919 0.71223 0.0
H3202 H 0.07251 0.43766 0.73114 0.0
H3203 H 0.09391 0.42265 0.72383 0.0
C3204 C 0.82922 0.9763 0.71558 0.0
C3205 C 0.81799 0.98403 0.70753 0.0
C3206 C 0.84477 0.98093 0.71518 0.0
C3207 C 0.87108 0.00152 0.69108 0.0
H3208 H 0.89934 0.00503 0.7271 0.0
C3209 C 0.92975 0.03437 0.69189 0.0
C3210 C 0.94239 0.02861 0.69977 0.0
C3211 C 0.91504 0.0276 0.69276 0.0
C3212 C 0.89164 0.00387 0.71689 0.0
H3213 H 0.81428 0.00304 0.69327 0.0
H3214 H 0.84124 0.01111 0.69269 0.0
H3215 H 0.87265 0.99599 0.72931 0.0
H3216 H 0.9495 0.01106 0.71458 0.0
H3217 H 0.92368 -0.00095 0.71596 0.0
H3218 H 0.88992 0.00947 0.67866 0.0
C3219 C 0.83809 0.00132 0.69908 0.0
C3220 C 0.87635 -0.00127 0.71817 0.0
C3221 C 0.82261 0.99674 0.6995 0.0
C3222 C 0.93999 0.0157 0.70832 0.0
C3223 C 0.92521 0.00893 0.70923 0.0
C3224 C 0.88631 0.00661 0.6898 0.0
C3225 C 0.84938 0.99331 0.70667 0.0
C3226 C 0.86585 0.99777 0.70532 0.0
C3227 C 0.91255 0.01486 0.70151 0.0
C3228 C 0.89672 0.00812 0.70273 0.0
H3229 H 0.82603 0.96646 0.72187 0.0
H3230 H 0.85321 0.97452 0.72113 0.0
H3231 H 0.86336 0.00056 0.68089 0.0
H3232 H 0.93123 0.04419 0.68507 0.0
H3233 H 0.90555 0.03259 0.68682 0.0
C3234 C 0.65889 0.99632 0.29716 0.0
C3235 C 0.67082 0.9892 0.29009 0.0
C3236 C 0.64368 0.99075 0.29399 0.0
C3237 C 0.61835 0.96682 0.26546 0.0
H3238 H 0.5912 0.96482 0.29872 0.0
C3239 C 0.55818 0.93528 0.25844 0.0
C3240 C 0.54625 0.94242 0.26548 0.0
C3241 C 0.57335 0.94115 0.26122 0.0
C3242 C 0.59858 0.96547 0.28928 0.0
H3243 H 0.6761 0.97064 0.27412 0.0
H3244 H 0.64958 0.96083 0.26874 0.0
H3245 H 0.6177 0.97474 0.304 0.0
H3246 H 0.54092 0.96128 0.28103 0.0
H3247 H 0.56735 0.97165 0.2857 0.0
H3248 H 0.59922 0.95747 0.25076 0.0
C3249 C 0.65196 0.97085 0.27658 0.0
C3250 C 0.61378 0.97116 0.2923 0.0
C3251 C 0.66718 0.97642 0.27974 0.0
C3252 C 0.54982 0.9556 0.27531 0.0
C3253 C 0.56499 0.96144 0.27812 0.0
C3254 C 0.60315 0.9611 0.26244 0.0
C3255 C 0.64003 0.97792 0.28368 0.0
C3256 C 0.62385 0.97191 0.28043 0.0
C3257 C 0.57694 0.95426 0.27114 0.0
C3258 C 0.59309 0.96037 0.27432 0.0
H3259 H 0.66129 0.00623 0.30514 0.0
H3260 H 0.63475 0.9966 0.2995 0.0
H3261 H 0.62573 0.96745 0.25602 0.0
H3262 H 0.55579 0.92519 0.25069 0.0
H3263 H 0.5823 0.93527 0.25576 0.0
C3264 C 0.30489 0.35438 0.60125 0.0
C3265 C 0.31253 0.34272 0.59377 0.0
C3266 C 0.30555 0.36918 0.59612 0.0
C3267 C 0.31361 0.39115 0.5626 0.0
H3268 H 0.32115 0.42539 0.59288 0.0
C3269 C 0.31041 0.45444 0.54796 0.0
C3270 C 0.32262 0.46462 0.55402 0.0
C3271 C 0.30889 0.43949 0.55264 0.0
C3272 C 0.31911 0.41594 0.58429 0.0
H3273 H 0.32679 0.33745 0.57499 0.0
H3274 H 0.32805 0.36333 0.56616 0.0
H3275 H 0.3188 0.39927 0.60112 0.0
H3276 H 0.34293 0.46687 0.56968 0.0
H3277 H 0.34 0.4409 0.57812 0.0
H3278 H 0.31392 0.40783 0.5457 0.0
C3279 C 0.32141 0.36096 0.57587 0.0
C3280 C 0.31764 0.40103 0.58903 0.0
C3281 C 0.32076 0.34616 0.581 0.0
C3282 C 0.33323 0.45947 0.56496 0.0
C3283 C 0.3316 0.44458 0.56977 0.0
C3284 C 0.31492 0.40609 0.55784 0.0
C3285 C 0.31387 0.37264 0.58341 0.0
C3286 C 0.31497 0.38847 0.57827 0.0
C3287 C 0.31945 0.43443 0.56361 0.0
C3288 C 0.31779 0.41862 0.56865 0.0
H3289 H 0.29842 0.35212 0.6111 0.0
H3290 H 0.29944 0.3779 0.60203 0.0
H3291 H 0.31141 0.3817 0.55404 0.0
H3292 H 0.30185 0.45807 0.53975 0.0
H3293 H 0.29931 0.43196 0.54786 0.0
C3294 C 0.29539 0.65605 0.00311 0.0
C3295 C 0.28911 0.66811 0.99551 0.0
C3296 C 0.29094 0.64082 0.99843 0.0
C3297 C 0.26045 0.6164 0.97595 0.0
H3298 H 0.29143 0.58661 0.97573 0.0
C3299 C 0.24952 0.55472 0.94804 0.0
C3300 C 0.25529 0.54289 0.95638 0.0
C3301 C 0.2533 0.57006 0.95288 0.0
C3302 C 0.28262 0.59477 0.97587 0.0
H3303 H 0.27315 0.67361 0.97705 0.0
H3304 H 0.2656 0.64704 0.9687 0.0
H3305 H 0.29866 0.61325 0.984 0.0
H3306 H 0.26963 0.53786 0.97625 0.0
H3307 H 0.27615 0.56462 0.98474 0.0
H3308 H 0.24445 0.59786 0.96762 0.0
C3309 C 0.27379 0.64935 0.97845 0.0
C3310 C 0.28675 0.61003 0.98063 0.0
C3311 C 0.27819 0.66459 0.98318 0.0
C3312 C 0.26489 0.54672 0.96967 0.0
C3313 C 0.26874 0.56204 0.97444 0.0
C3314 C 0.25633 0.60112 0.97109 0.0
C3315 C 0.28016 0.63727 0.98598 0.0
C3316 C 0.27572 0.62104 0.9808 0.0
C3317 C 0.26303 0.57388 0.96608 0.0
C3318 C 0.26737 0.59014 0.97106 0.0
H3319 H 0.30376 0.65836 0.01272 0.0
H3320 H 0.29588 0.63183 0.00467 0.0
H3321 H 0.25161 0.62452 0.97613 0.0
H3322 H 0.24201 0.55212 0.93781 0.0
H3323 H 0.24881 0.57894 0.94614 0.0
C3324 C 0.65446 0.15699 0.38859 0.0
C3325 C 0.66272 0.16084 0.37596 0.0
C3326 C 0.65441 0.14218 0.39369 0.0
C3327 C 0.66591 0.10246 0.38413 0.0
H3328 H 0.67326 0.10236 0.4282 0.0
C3329 C 0.69504 0.06326 0.4322 0.0
C3330 C 0.68877 0.04856 0.42713 0.0
C3331 C 0.68989 0.07621 0.42551 0.0
C3332 C 0.67128 0.10218 0.41587 0.0
H3333 H 0.6765 0.15186 0.35814 0.0
H3334 H 0.67671 0.12623 0.36723 0.0
H3335 H 0.66704 0.12593 0.41677 0.0
H3336 H 0.67217 0.03592 0.41103 0.0
H3337 H 0.66305 0.05863 0.39937 0.0
H3338 H 0.67098 0.07883 0.38325 0.0
C3339 C 0.6701 0.13453 0.37312 0.0
C3340 C 0.66746 0.11567 0.4093 0.0
C3341 C 0.67005 0.1493 0.36793 0.0
C3342 C 0.67731 0.0471 0.41509 0.0
C3343 C 0.67209 0.0601 0.40842 0.0
C3344 C 0.66982 0.08896 0.39071 0.0
C3345 C 0.66271 0.13092 0.38637 0.0
C3346 C 0.66498 0.11607 0.39333 0.0
C3347 C 0.67828 0.07482 0.41361 0.0
C3348 C 0.67285 0.08874 0.40664 0.0
H3349 H 0.64855 0.16557 0.39492 0.0
H3350 H 0.64828 0.1397 0.40371 0.0
H3351 H 0.6639 0.10231 0.3718 0.0
H3352 H 0.7041 0.06475 0.44124 0.0
H3353 H 0.69518 0.08733 0.42955 0.0
C3354 C 0.66337 0.82949 0.99032 0.0
C3355 C 0.67272 0.82699 0.97805 0.0
C3356 C 0.66124 0.84436 0.99613 0.0
C3357 C 0.66513 0.88523 0.98767 0.0
H3358 H 0.67026 0.89207 0.03188 0.0
C3359 C 0.65718 0.9438 0.02013 0.0
C3360 C 0.66833 0.94847 0.032 0.0
C3361 C 0.6568 0.92904 0.01298 0.0
C3362 C 0.66883 0.89035 0.01952 0.0
H3363 H 0.68666 0.83819 0.96184 0.0
H3364 H 0.68298 0.86415 0.97202 0.0
H3365 H 0.67079 0.86619 0.02015 0.0
H3366 H 0.68814 0.94144 0.04523 0.0
H3367 H 0.68732 0.91574 0.03291 0.0
H3368 H 0.66348 0.90951 0.98708 0.0
C3369 C 0.67724 0.8546 0.97711 0.0
C3370 C 0.66896 0.8755 0.01281 0.0
C3371 C 0.67942 0.83972 0.97133 0.0
C3372 C 0.67919 0.93813 0.03638 0.0
C3373 C 0.67874 0.92339 0.02931 0.0
C3374 C 0.66489 0.9001 0.99441 0.0
C3375 C 0.66836 0.85707 0.98975 0.0
C3376 C 0.66726 0.87278 0.9968 0.0
C3377 C 0.66749 0.91864 0.0176 0.0
C3378 C 0.66693 0.90283 0.0104 0.0
H3379 H 0.65795 0.81995 0.9957 0.0
H3380 H 0.65416 0.84592 0.00574 0.0
H3381 H 0.66368 0.88347 0.97531 0.0
H3382 H 0.64855 0.95142 0.01658 0.0
H3383 H 0.64792 0.92566 0.00406 0.0
C3384 C 0.5923 0.3236 0.36046 0.0
C3385 C 0.58318 0.3284 0.34811 0.0
C3386 C 0.58697 0.32392 0.37518 0.0
C3387 C 0.55876 0.34163 0.39919 0.0
H3388 H 0.56577 0.30762 0.4245 0.0
C3389 C 0.5323 0.33688 0.45769 0.0
C3390 C 0.54205 0.33249 0.46976 0.0
C3391 C 0.53674 0.33582 0.44261 0.0
C3392 C 0.56383 0.31727 0.41763 0.0
H3393 H 0.56136 0.33737 0.34157 0.0
H3394 H 0.55203 0.33778 0.36722 0.0
H3395 H 0.57492 0.30718 0.39876 0.0
H3396 H 0.56384 0.32302 0.47538 0.0
H3397 H 0.57167 0.32143 0.44918 0.0
H3398 H 0.54776 0.35177 0.4181 0.0
C3399 C 0.56336 0.33393 0.36555 0.0
C3400 C 0.56909 0.31702 0.40288 0.0
C3401 C 0.56868 0.33362 0.35083 0.0
C3402 C 0.55616 0.32669 0.46637 0.0
C3403 C 0.56057 0.32561 0.45132 0.0
C3404 C 0.5535 0.34188 0.41395 0.0
C3405 C 0.57241 0.32903 0.37789 0.0
C3406 C 0.56667 0.32923 0.39352 0.0
C3407 C 0.55098 0.33029 0.43927 0.0
C3408 C 0.55604 0.32973 0.42337 0.0
H3409 H 0.60356 0.31959 0.35878 0.0
H3410 H 0.59433 0.32029 0.38448 0.0
H3411 H 0.55688 0.35131 0.39235 0.0
H3412 H 0.5214 0.34147 0.45993 0.0
H3413 H 0.52901 0.33934 0.43356 0.0
C3414 C 0.98739 0.27548 0.66235 0.0
C3415 C -0.00142 0.28749 0.66623 0.0
C3416 C 0.98215 0.27198 0.64707 0.0
C3417 C 0.99278 0.27652 0.60743 0.0
H3418 H 0.94931 0.26807 0.59709 0.0
C3419 C 0.96775 0.27155 0.54484 0.0
C3420 C 0.95616 0.25998 0.54072 0.0
C3421 C 0.97273 0.27489 0.5602 0.0
C3422 C 0.9615 0.27022 0.5998 0.0
H3423 H 0.01309 0.30522 0.65708 0.0
H3424 H 0.00391 0.29914 0.63045 0.0
H3425 H 0.95849 0.27374 0.6238 0.0
H3426 H 0.94073 0.24283 0.5495 0.0
H3427 H 0.94949 0.24859 0.57632 0.0
H3428 H 0.99584 0.27294 0.58348 0.0
C3429 C -0.00072 0.29234 0.63921 0.0
C3430 C 0.96676 0.27348 0.61511 0.0
C3431 C 0.00447 0.29587 0.65449 0.0
C3432 C 0.94955 0.25193 0.55233 0.0
C3433 C 0.95457 0.25524 0.56769 0.0
C3434 C 0.98754 0.27322 0.59214 0.0
C3435 C 0.98803 0.28038 0.63533 0.0
C3436 C 0.98245 0.27671 0.61909 0.0
C3437 C 0.96627 0.26671 0.57181 0.0
C3438 C 0.97183 0.27009 0.58812 0.0
H3439 H 0.98263 0.26877 0.67111 0.0
H3440 H 0.97361 0.26258 0.64444 0.0
H3441 H 0.00497 0.27872 0.61015 0.0
H3442 H 0.97289 0.27813 0.5362 0.0
H3443 H 0.98155 0.28399 0.56298 0.0
C3444 C 0.39167 0.70428 0.1628 0.0
C3445 C 0.38563 0.69005 0.16706 0.0
C3446 C 0.39673 0.70586 0.14818 0.0
C3447 C 0.41011 0.6838 0.1149 0.0
H3448 H 0.40573 0.72234 0.096 0.0
C3449 C 0.43202 0.69751 0.05524 0.0
C3450 C 0.44113 0.71131 0.05553 0.0
C3451 C 0.42395 0.69381 0.06797 0.0
C3452 C 0.40702 0.71152 0.10114 0.0
H3453 H 0.37997 0.66633 0.15919 0.0
H3454 H 0.38859 0.66917 0.13338 0.0
H3455 H 0.3932 0.71771 0.1195 0.0
H3456 H 0.44881 0.73211 0.06918 0.0
H3457 H 0.43459 0.72575 0.0913 0.0
H3458 H 0.42395 0.67769 0.09634 0.0
C3459 C 0.3896 0.67905 0.14151 0.0
C3460 C 0.39991 0.70887 0.11463 0.0
C3461 C 0.38459 0.67744 0.15625 0.0
C3462 C 0.44199 0.72134 0.06871 0.0
C3463 C 0.43375 0.71777 0.0813 0.0
C3464 C 0.41709 0.6864 0.10125 0.0
C3465 C 0.39578 0.6933 0.13732 0.0
C3466 C 0.40172 0.69517 0.12194 0.0
C3467 C 0.42464 0.70399 0.08105 0.0
C3468 C 0.41593 0.70044 0.09449 0.0
H3469 H 0.39275 0.71422 0.17086 0.0
H3470 H 0.40173 0.71692 0.14554 0.0
H3471 H 0.41185 0.67317 0.12025 0.0
H3472 H 0.43121 0.68957 0.04521 0.0
H3473 H 0.41698 0.68313 0.06751 0.0
C3474 C 0.98551 0.68354 0.83228 0.0
C3475 C 0.99098 0.67571 0.81944 0.0
C3476 C 0.99247 0.68235 0.84691 0.0
C3477 C 0.029 0.67359 0.86627 0.0
H3478 H 0.00504 0.66979 0.90179 0.0
C3479 C 0.05737 0.66467 0.92577 0.0
C3480 C 0.05202 0.67296 0.93839 0.0
C3481 C 0.04944 0.66417 0.91142 0.0
C3482 C 0.0119 0.67101 0.89201 0.0
H3483 H 0.00786 0.66025 0.81195 0.0
H3484 H 0.01996 0.65815 0.83747 0.0
H3485 H 0.99205 0.67041 0.87641 0.0
H3486 H 0.03409 0.6871 0.94587 0.0
H3487 H 0.02029 0.68635 0.92076 0.0
H3488 H 0.04884 0.67442 0.88181 0.0
C3489 C 0.0104 0.66534 0.8362 0.0
C3490 C 0.00445 0.67134 0.87747 0.0
C3491 C 0.0034 0.66648 0.82158 0.0
C3492 C 0.03841 0.68049 0.9364 0.0
C3493 C 0.0305 0.68004 0.92201 0.0
C3494 C 0.03644 0.67331 0.88079 0.0
C3495 C 0.00508 0.67335 0.84901 0.0
C3496 C 0.01292 0.67266 0.86444 0.0
C3497 C 0.036 0.67198 0.90931 0.0
C3498 C 0.02799 0.67203 0.89385 0.0
H3499 H 0.97596 0.69075 0.83104 0.0
H3500 H 0.98821 0.68878 0.85652 0.0
H3501 H 0.03586 0.67488 0.8565 0.0
H3502 H 0.06768 0.65852 0.92701 0.0
H3503 H 0.05383 0.6576 0.90197 0.0
C3504 C 0.63607 0.39864 0.66052 0.0
C3505 C 0.6436 0.39975 0.6752 0.0
C3506 C 0.62131 0.40368 0.65827 0.0
C3507 C 0.58719 0.41184 0.67975 0.0
H3508 H 0.57401 0.43099 0.64287 0.0
C3509 C 0.52998 0.44089 0.67305 0.0
C3510 C 0.52109 0.43742 0.65925 0.0
C3511 C 0.54488 0.43614 0.67479 0.0
C3512 C 0.57752 0.42554 0.65317 0.0
H3513 H 0.64165 0.40731 0.699 0.0
H3514 H 0.61607 0.41628 0.69508 0.0
H3515 H 0.60039 0.42371 0.64632 0.0
H3516 H 0.52089 0.42642 0.63639 0.0
H3517 H 0.54704 0.41819 0.63942 0.0
H3518 H 0.56436 0.41395 0.68669 0.0
C3519 C 0.62142 0.41128 0.68531 0.0
C3520 C 0.59262 0.42134 0.65515 0.0
C3521 C 0.63613 0.40618 0.68756 0.0
C3522 C 0.52744 0.42915 0.6472 0.0
C3523 C 0.54243 0.42456 0.64888 0.0
C3524 C 0.57216 0.41619 0.67784 0.0
C3525 C 0.61373 0.40993 0.67068 0.0
C3526 C 0.59768 0.4145 0.66851 0.0
C3527 C 0.55128 0.42798 0.66271 0.0
C3528 C 0.56718 0.42312 0.66456 0.0
H3529 H 0.64148 0.3937 0.65076 0.0
H3530 H 0.61567 0.40222 0.64689 0.0
H3531 H 0.59052 0.40621 0.68999 0.0
H3532 H 0.52534 0.44716 0.68256 0.0
H3533 H 0.55149 0.43903 0.68554 0.0
C3534 C 0.84586 0.60123 0.27657 0.0
C3535 C 0.83805 0.59527 0.28866 0.0
C3536 C 0.85975 0.59559 0.27259 0.0
C3537 C 0.88343 0.56247 0.27567 0.0
H3538 H 0.9168 0.59184 0.26865 0.0
C3539 C 0.94034 0.54445 0.2522 0.0
C3540 C 0.95391 0.55162 0.25943 0.0
C3541 C 0.92609 0.54968 0.25551 0.0
C3542 C 0.90762 0.58351 0.27065 0.0
H3543 H 0.83852 0.57844 0.30582 0.0
H3544 H 0.8628 0.56857 0.29884 0.0
H3545 H 0.892 0.6009 0.27493 0.0
H3546 H 0.96306 0.5699 0.27588 0.0
H3547 H 0.93818 0.57915 0.28147 0.0
H3548 H 0.89911 0.54508 0.27155 0.0
C3549 C 0.85813 0.57759 0.29242 0.0
C3550 C 0.89338 0.58869 0.27409 0.0
C3551 C 0.84426 0.5833 0.29647 0.0
C3552 C 0.95287 0.56425 0.26992 0.0
C3553 C 0.93861 0.56954 0.27316 0.0
C3554 C 0.89765 0.55729 0.27213 0.0
C3555 C 0.8661 0.5838 0.28055 0.0
C3556 C 0.88114 0.57823 0.27668 0.0
C3557 C 0.92506 0.56227 0.26604 0.0
C3558 C 0.90991 0.56776 0.26963 0.0
H3559 H 0.84136 0.6104 0.27027 0.0
H3560 H 0.86552 0.60045 0.26325 0.0
H3561 H 0.87419 0.55414 0.2775 0.0
H3562 H 0.94072 0.53487 0.24385 0.0
H3563 H 0.91586 0.54399 0.24966 0.0
C3564 C 0.17272 0.01172 0.31521 0.0
C3565 C 0.18025 0.00575 0.30267 0.0
C3566 C 0.1584 0.00534 0.31856 0.0
C3567 C 0.13234 0.97048 0.31153 0.0
H3568 H 0.10091 0.99795 0.32188 0.0
C3569 C 0.07313 0.94796 0.32893 0.0
C3570 C 0.06034 0.95466 0.32234 0.0
C3571 C 0.08791 0.95444 0.32764 0.0
C3572 C 0.10955 0.99013 0.31895 0.0
H3573 H 0.17874 0.98821 0.28397 0.0
H3574 H 0.15372 0.97716 0.28975 0.0
H3575 H 0.12652 0.00847 0.3173 0.0
H3576 H 0.05306 0.97354 0.30937 0.0
H3577 H 0.07888 0.98487 0.30713 0.0
H3578 H 0.11528 0.95215 0.31277 0.0
C3579 C 0.15895 0.98669 0.29709 0.0
C3580 C 0.12427 0.99615 0.3165 0.0
C3581 C 0.17326 0.99308 0.29372 0.0
C3582 C 0.06265 0.9682 0.31475 0.0
C3583 C 0.07745 0.97469 0.31346 0.0
C3584 C 0.11764 0.96446 0.31401 0.0
C3585 C 0.15129 0.99283 0.30947 0.0
C3586 C 0.13581 0.9864 0.31265 0.0
C3587 C 0.09027 0.96779 0.31974 0.0
C3588 C 0.10604 0.97422 0.31766 0.0
H3589 H 0.17782 0.02143 0.32239 0.0
H3590 H 0.1529 0.0102 0.32831 0.0
H3591 H 0.14101 0.96265 0.30874 0.0
H3592 H 0.07171 0.93767 0.33508 0.0
H3593 H 0.09752 0.949 0.33285 0.0
C3594 C 0.35017 0.01065 0.71665 0.0
C3595 C 0.34143 0.01868 0.70622 0.0
C3596 C 0.36529 0.01573 0.72119 0.0
C3597 C 0.39245 0.04983 0.72341 0.0
H3598 H 0.42332 0.01999 0.72527 0.0
C3599 C 0.45713 0.06774 0.73123 0.0
C3600 C 0.46635 0.05916 0.7407 0.0
C3601 C 0.44184 0.06285 0.72724 0.0
C3602 C 0.41483 0.02846 0.72501 0.0
H3603 H 0.34169 0.0385 0.69253 0.0
H3604 H 0.36809 0.04733 0.70042 0.0
H3605 H 0.39672 0.01149 0.71812 0.0
H3606 H 0.46666 0.03883 0.75361 0.0
H3607 H 0.43997 0.03036 0.74675 0.0
H3608 H 0.41053 0.0668 0.73035 0.0
C3609 C 0.3632 0.03715 0.70517 0.0
C3610 C 0.39957 0.02358 0.72089 0.0
C3611 C 0.34809 0.03204 0.70059 0.0
C3612 C 0.45992 0.04558 0.74611 0.0
C3613 C 0.44462 0.04072 0.74216 0.0
C3614 C 0.40771 0.05471 0.72757 0.0
C3615 C 0.37201 0.029 0.71545 0.0
C3616 C 0.3882 0.0342 0.72001 0.0
C3617 C 0.43538 0.04929 0.73266 0.0
C3618 C 0.4191 0.04409 0.72839 0.0
H3619 H 0.34537 0.00035 0.72128 0.0
H3620 H 0.37169 0.00931 0.72928 0.0
H3621 H 0.38394 0.05828 0.72305 0.0
H3622 H 0.46179 0.07813 0.72668 0.0
H3623 H 0.43516 0.0696 0.71969 0.0
C3624 C 0.67001 0.63632 0.4034 0.0
C3625 C 0.68063 0.64805 0.40966 0.0
C3626 C 0.66924 0.62201 0.40962 0.0
C3627 C 0.67973 0.60245 0.44465 0.0
H3628 H 0.67324 0.56585 0.41728 0.0
C3629 C 0.66656 0.54248 0.46663 0.0
C3630 C 0.67332 0.53004 0.45944 0.0
C3631 C 0.66764 0.55693 0.4607 0.0
C3632 C 0.67519 0.57594 0.42509 0.0
H3633 H 0.69877 0.65393 0.42736 0.0
H3634 H 0.69757 0.62887 0.43808 0.0
H3635 H 0.67513 0.59089 0.40669 0.0
H3636 H 0.6868 0.52311 0.44057 0.0
H3637 H 0.68879 0.54832 0.43027 0.0
H3638 H 0.68015 0.58745 0.46305 0.0
C3639 C 0.68969 0.63081 0.4285 0.0
C3640 C 0.67608 0.59032 0.41902 0.0
C3641 C 0.69044 0.64515 0.4223 0.0
C3642 C 0.68126 0.5324 0.44623 0.0
C3643 C 0.68239 0.54685 0.44033 0.0
C3644 C 0.67887 0.58805 0.45073 0.0
C3645 C 0.67909 0.61906 0.42222 0.0
C3646 C 0.67832 0.60375 0.42872 0.0
C3647 C 0.67555 0.55929 0.44746 0.0
C3648 C 0.67657 0.57462 0.44102 0.0
H3649 H 0.66224 0.63818 0.39371 0.0
H3650 H 0.66078 0.61331 0.40465 0.0
H3651 H 0.68132 0.61256 0.45246 0.0
H3652 H 0.6602 0.54098 0.47671 0.0
H3653 H 0.66204 0.56619 0.46634 0.0
C3654 C 0.68502 0.34433 0.02526 0.0
C3655 C 0.69291 0.33107 0.02744 0.0
C3656 C 0.69049 0.3584 0.03253 0.0
C3657 C 0.72588 0.379 0.04961 0.0
H3658 H 0.69772 0.40809 0.06452 0.0
C3659 C 0.74655 0.43931 0.07662 0.0
C3660 C 0.73842 0.45141 0.07111 0.0
C3661 C 0.74096 0.42409 0.0733 0.0
C3662 C 0.70572 0.40011 0.06036 0.0
H3663 H 0.71262 0.32213 0.03922 0.0
H3664 H 0.72212 0.34672 0.05201 0.0
H3665 H 0.688 0.38236 0.0551 0.0
H3666 H 0.71777 0.45705 0.05834 0.0
H3667 H 0.70812 0.43059 0.05243 0.0
H3668 H 0.74356 0.39687 0.05464 0.0
C3669 C 0.71178 0.34625 0.04453 0.0
C3670 C 0.70016 0.38538 0.05495 0.0
C3671 C 0.70629 0.33214 0.03726 0.0
C3672 C 0.7244 0.44798 0.06259 0.0
C3673 C 0.71878 0.43281 0.05935 0.0
C3674 C 0.73145 0.39375 0.05506 0.0
C3675 C 0.70399 0.35956 0.04217 0.0
C3676 C 0.71012 0.37473 0.04924 0.0
C3677 C 0.72706 0.42067 0.06453 0.0
C3678 C 0.72139 0.40456 0.06022 0.0
H3679 H 0.6747 0.34393 0.01775 0.0
H3680 H 0.68433 0.36845 0.03027 0.0
H3681 H 0.73384 0.37115 0.04515 0.0
H3682 H 0.75742 0.4416 0.08317 0.0
H3683 H 0.74754 0.41498 0.07755 0.0
C3684 C 0.27191 0.84901 0.61057 0.0
C3685 C 0.28282 0.83902 0.60559 0.0
C3686 C 0.26757 0.86092 0.60169 0.0
C3687 C 0.26679 0.87416 0.56255 0.0
H3688 H 0.26567 0.91447 0.5832 0.0
C3689 C 0.2443 0.92692 0.53312 0.0
C3690 C 0.25312 0.94083 0.53629 0.0
C3691 C 0.24764 0.914 0.54104 0.0
C3692 C 0.26598 0.90329 0.57727 0.0
H3693 H 0.29745 0.83349 0.58719 0.0
H3694 H 0.28982 0.85431 0.57167 0.0
H3695 H 0.27178 0.89272 0.59803 0.0
H3696 H 0.27281 0.95182 0.54977 0.0
H3697 H 0.27843 0.9294 0.56369 0.0
H3698 H 0.26112 0.88484 0.54174 0.0
C3699 C 0.28461 0.85287 0.58244 0.0
C3700 C 0.26933 0.89082 0.58578 0.0
C3701 C 0.28905 0.84102 0.59138 0.0
C3702 C 0.26554 0.94141 0.5473 0.0
C3703 C 0.2688 0.92856 0.55526 0.0
C3704 C 0.2633 0.88665 0.55404 0.0
C3705 C 0.27394 0.86304 0.58758 0.0
C3706 C 0.26987 0.87614 0.5785 0.0
C3707 C 0.2598 0.91476 0.55233 0.0
C3708 C 0.263 0.90136 0.5613 0.0
H3709 H 0.26684 0.84776 0.62143 0.0
H3710 H 0.25919 0.86849 0.60586 0.0
H3711 H 0.26701 0.86295 0.55666 0.0
H3712 H 0.23456 0.92611 0.52483 0.0
H3713 H 0.24045 0.90353 0.53862 0.0
C3714 C 0.30874 0.16713 0.02558 0.0
C3715 C 0.29856 0.17688 0.01873 0.0
C3716 C 0.31148 0.15305 0.01823 0.0
C3717 C 0.30839 0.13177 0.9803 0.0
H3718 H 0.31108 0.09622 0.00438 0.0
C3719 C 0.32642 0.07375 0.95478 0.0
C3720 C 0.31821 0.06048 0.95886 0.0
C3721 C 0.32441 0.08799 0.96221 0.0
C3722 C 0.31027 0.10601 0.99748 0.0
H3723 H 0.28333 0.17951 -0.00126 0.0
H3724 H 0.28798 0.15486 0.986 0.0
H3725 H 0.30652 0.12097 0.01692 0.0
H3726 H 0.30138 0.0518 0.97385 0.0
H3727 H 0.29786 0.07663 0.98679 0.0
H3728 H 0.31177 0.11672 0.9608 0.0
C3729 C 0.294 0.15819 0.99697 0.0
C3730 C 0.30783 0.12024 0.00469 0.0
C3731 C 0.29126 0.17228 0.00432 0.0
C3732 C 0.30805 0.06176 0.97061 0.0
C3733 C 0.30603 0.076 0.97802 0.0
C3734 C 0.31083 0.11753 0.97308 0.0
C3735 C 0.3041 0.14838 0.00386 0.0
C3736 C 0.30683 0.13328 0.99619 0.0
C3737 C 0.31414 0.0893 0.97387 0.0
C3738 C 0.31177 0.10448 0.98158 0.0
H3739 H 0.31462 0.17035 0.03664 0.0
H3740 H 0.3195 0.14588 0.02375 0.0
H3741 H 0.30783 0.14161 0.97344 0.0
H3742 H 0.3345 0.07312 0.94593 0.0
H3743 H 0.33102 0.09797 0.95891 0.0
C3744 C 0.40102 0.65447 0.6367 0.0
C3745 C 0.40002 0.66837 0.64538 0.0
C3746 C 0.40604 0.65441 0.62185 0.0
C3747 C 0.43044 0.6762 0.59805 0.0
H3748 H 0.40757 0.6542 0.56341 0.0
C3749 C 0.44879 0.68195 0.53664 0.0
C3750 C 0.4466 0.66913 0.52617 0.0
C3751 C 0.44271 0.68171 0.551 0.0
C3752 C 0.41425 0.6602 0.57298 0.0
H3753 H 0.40335 0.6931 0.64524 0.0
H3754 H 0.41248 0.69293 0.61944 0.0
H3755 H 0.3976 0.65387 0.58884 0.0
H3756 H 0.43647 0.64595 0.52247 0.0
H3757 H 0.42633 0.64522 0.54779 0.0
H3758 H 0.44735 0.68215 0.58254 0.0
C3759 C 0.4093 0.68212 0.62414 0.0
C3760 C 0.40847 0.66006 0.58751 0.0
C3761 C 0.40408 0.6822 0.63889 0.0
C3762 C 0.43824 0.65602 0.53033 0.0
C3763 C 0.43236 0.65567 0.54481 0.0
C3764 C 0.43635 0.67614 0.58361 0.0
C3765 C 0.41037 0.66823 0.61552 0.0
C3766 C 0.41647 0.66817 0.60014 0.0
C3767 C 0.4345 0.66853 0.55535 0.0
C3768 C 0.42829 0.66825 0.57082 0.0
H3769 H 0.39791 0.64362 0.64134 0.0
H3770 H 0.40684 0.64355 0.61545 0.0
H3771 H 0.43693 0.68235 0.60767 0.0
H3772 H 0.45499 0.69229 0.53361 0.0
H3773 H 0.4443 0.69198 0.55859 0.0
C3774 C 0.0303 0.69675 0.34291 0.0
C3775 C 0.01765 0.70431 0.33727 0.0
C3776 C 0.03802 0.70173 0.35693 0.0
C3777 C 0.04382 0.7352 0.38515 0.0
H3778 H 0.05647 0.70493 0.41301 0.0
C3779 C 0.06224 0.7504 0.44892 0.0
C3780 C 0.07463 0.74302 0.45542 0.0
C3781 C 0.05624 0.74609 0.43404 0.0
C3782 C 0.0532 0.71353 0.40528 0.0
H3783 H 0.00322 0.7231 0.34191 0.0
H3784 H 0.01652 0.73164 0.36644 0.0
H3785 H 0.0441 0.69657 0.38799 0.0
H3786 H 0.09053 0.72543 0.45133 0.0
H3787 H 0.08014 0.718 0.42526 0.0
H3788 H 0.05273 0.75216 0.40257 0.0
C3789 C 0.02064 0.72199 0.35994 0.0
C3790 C 0.04611 0.70874 0.39093 0.0
C3791 C 0.01295 0.71702 0.34591 0.0
C3792 C 0.08105 0.73141 0.4466 0.0
C3793 C 0.075 0.72705 0.43173 0.0
C3794 C 0.05087 0.73999 0.39952 0.0
C3795 C 0.03326 0.71439 0.36564 0.0
C3796 C 0.04124 0.71951 0.38072 0.0
C3797 C 0.06246 0.73426 0.42532 0.0
C3798 C 0.05556 0.72921 0.40979 0.0
H3799 H 0.03428 0.68696 0.33651 0.0
H3800 H 0.04782 0.69574 0.36088 0.0
H3801 H 0.04046 0.74381 0.37747 0.0
H3802 H 0.05713 0.7595 0.45536 0.0
H3803 H 0.04649 0.75179 0.42949 0.0
C3804 C 0.60795 0.2866 0.85503 0.0
C3805 C 0.60128 0.28139 0.84051 0.0
C3806 C 0.60185 0.2815 0.86831 0.0
C3807 C 0.56649 0.26445 0.88284 0.0
H3808 H 0.59383 0.2563 0.91745 0.0
C3809 C 0.54469 0.24138 0.93876 0.0
C3810 C 0.55149 0.24863 0.95249 0.0
C3811 C 0.55075 0.24421 0.92472 0.0
C3812 C 0.58605 0.25862 0.90791 0.0
H3813 H 0.58305 0.2666 0.82856 0.0
H3814 H 0.5725 0.25758 0.85179 0.0
H3815 H 0.60445 0.26331 0.89359 0.0
H3816 H 0.56983 0.26478 0.96212 0.0
H3817 H 0.58042 0.26957 0.93772 0.0
H3818 H 0.54809 0.25984 0.89725 0.0
C3819 C 0.58232 0.26578 0.85288 0.0
C3820 C 0.59213 0.26266 0.89424 0.0
C3821 C 0.58841 0.2709 0.83957 0.0
C3822 C 0.56449 0.25873 0.95183 0.0
C3823 C 0.57057 0.26151 0.93783 0.0
C3824 C 0.5604 0.26037 0.89651 0.0
C3825 C 0.58897 0.27103 0.86741 0.0
C3826 C 0.58243 0.26583 0.88161 0.0
C3827 C 0.56376 0.25431 0.92412 0.0
C3828 C 0.57013 0.25762 0.90926 0.0
H3829 H 0.61783 0.29472 0.85616 0.0
H3830 H 0.60711 0.28597 0.87931 0.0
H3831 H 0.55871 0.26698 0.87338 0.0
H3832 H 0.53478 0.23339 0.93888 0.0
H3833 H 0.54535 0.23838 0.91435 0.0
C3834 C 0.01209 0.29674 0.17001 0.0
C3835 C 0.02479 0.30671 0.1751 0.0
C3836 C 0.00384 0.29882 0.15623 0.0
C3837 C 0.99645 0.32746 0.12769 0.0
H3838 H 0.98313 0.29154 0.10108 0.0
C3839 C 0.97229 0.33095 0.0651 0.0
C3840 C 0.95959 0.32094 0.06007 0.0
C3841 C 0.97995 0.32957 0.07937 0.0
C3842 C 0.98662 0.30167 0.10846 0.0
H3843 H 0.03869 0.32679 0.16974 0.0
H3844 H 0.02441 0.33027 0.14559 0.0
H3845 H 0.99701 0.2885 0.12552 0.0
H3846 H 0.94503 0.3016 0.06607 0.0
H3847 H 0.95827 0.29933 0.09103 0.0
H3848 H 0.98615 0.34062 0.11049 0.0
C3849 C 0.02071 0.32096 0.15236 0.0
C3850 C 0.99456 0.29993 0.12248 0.0
C3851 C 0.02895 0.31891 0.16617 0.0
C3852 C 0.95468 0.30959 0.06967 0.0
C3853 C 0.96237 0.30818 0.0839 0.0
C3854 C 0.98853 0.3292 0.11363 0.0
C3855 C 0.0081 0.31089 0.14718 0.0
C3856 C -0.00043 0.3128 0.13229 0.0
C3857 C 0.97513 0.3181 0.08889 0.0
C3858 C 0.98351 0.31632 0.10386 0.0
H3859 H 0.00852 0.28729 0.17666 0.0
H3860 H 0.99404 0.291 0.15272 0.0
H3861 H -5e-05 0.33759 0.13506 0.0
H3862 H 0.97627 0.3399 0.05802 0.0
H3863 H 0.98982 0.33732 0.08283 0.0
loop_
_geom_bond_atom_site_label_1
_geom_bond_atom_site_label_2
_geom_bond_distance
_geom_bond_site_symmetry_2
_ccdc_geom_bond_type
O0 Cd1 2.300 . S
O0 C7 1.275 . S
Cd1 O0 2.300 . S
Cd1 O9 2.381 . S
Cd1 O10 2.378 . S
O2 Cd3 2.385 . S
O2 C7 1.255 . S
Cd3 O2 2.385 . S
Cd3 O4 2.317 . S
O4 Cd3 2.317 . S
O4 C5 1.232 . S
C5 O4 1.232 . S
C5 O6 1.218 . S
O6 C5 1.218 . S
C7 O0 1.275 . S
C7 O2 1.255 . S
C8 O9 1.258 . S
C8 O10 1.256 . S
O9 Cd1 2.381 . S
O9 C8 1.258 . S
O10 Cd1 2.378 . S
O10 C8 1.256 . S
O11 Cd12 2.300 . S
O11 C18 1.275 . S
Cd12 O11 2.300 . S
Cd12 O20 2.381 . S
Cd12 O21 2.378 . S
O13 Cd14 2.385 . S
O13 C18 1.255 . S
Cd14 O13 2.385 . S
Cd14 O15 2.317 . S
O15 Cd14 2.317 . S
O15 C16 1.232 . S
C16 O15 1.232 . S
C16 O17 1.218 . S
O17 C16 1.218 . S
C18 O11 1.275 . S
C18 O13 1.255 . S
C19 O20 1.258 . S
C19 O21 1.256 . S
O20 Cd12 2.381 . S
O20 C19 1.258 . S
O21 Cd12 2.378 . S
O21 C19 1.256 . S
O22 Cd23 2.300 . S
O22 C29 1.275 . S
Cd23 O22 2.300 . S
Cd23 O31 2.381 1_565 S
Cd23 O32 2.378 . S
O24 Cd25 2.385 . S
O24 C29 1.255 . S
Cd25 O24 2.385 . S
Cd25 O26 2.317 . S
O26 Cd25 2.317 . S
O26 C27 1.232 . S
C27 O26 1.232 . S
C27 O28 1.218 . S
O28 C27 1.218 . S
C29 O22 1.275 . S
C29 O24 1.255 . S
C30 O31 1.258 . S
C30 O32 1.256 1_545 S
O31 Cd23 2.381 1_545 S
O31 C30 1.258 . S
O32 Cd23 2.378 . S
O32 C30 1.256 1_565 S
O33 Cd34 2.300 . S
O33 C40 1.275 . S
Cd34 O33 2.300 . S
Cd34 O42 2.381 1_545 S
Cd34 O43 2.378 . S
O35 Cd36 2.385 . S
O35 C40 1.255 . S
Cd36 O35 2.385 . S
Cd36 O37 2.317 . S
O37 Cd36 2.317 . S
O37 C38 1.232 . S
C38 O37 1.232 . S
C38 O39 1.218 . S
O39 C38 1.218 . S
C40 O33 1.275 . S
C40 O35 1.255 . S
C41 O42 1.258 . S
C41 O43 1.256 1_565 S
O42 Cd34 2.381 1_565 S
O42 C41 1.258 . S
O43 Cd34 2.378 . S
O43 C41 1.256 1_545 S
O44 Cd45 2.300 . S
O44 C51 1.275 . S
Cd45 O44 2.300 . S
Cd45 O53 2.381 . S
Cd45 O54 2.378 . S
O46 Cd47 2.385 . S
O46 C51 1.255 . S
Cd47 O46 2.385 . S
Cd47 O48 2.317 . S
O48 Cd47 2.317 . S
O48 C49 1.232 . S
C49 O48 1.232 . S
C49 O50 1.218 . S
O50 C49 1.218 . S
C51 O44 1.275 . S
C51 O46 1.255 . S
C52 O53 1.258 . S
C52 O54 1.256 . S
O53 Cd45 2.381 . S
O53 C52 1.258 . S
O54 Cd45 2.378 . S
O54 C52 1.256 . S
O55 Cd56 2.300 . S
O55 C62 1.275 . S
Cd56 O55 2.300 . S
Cd56 O64 2.381 1_554 S
Cd56 O65 2.378 . S
O57 Cd58 2.385 . S
O57 C62 1.255 . S
Cd58 O57 2.385 . S
Cd58 O59 2.317 . S
O59 Cd58 2.317 . S
O59 C60 1.232 . S
C60 O59 1.232 . S
C60 O61 1.218 . S
O61 C60 1.218 . S
C62 O55 1.275 . S
C62 O57 1.255 . S
C63 O64 1.258 . S
C63 O65 1.256 1_556 S
O64 Cd56 2.381 1_556 S
O64 C63 1.258 . S
O65 Cd56 2.378 . S
O65 C63 1.256 1_554 S
O66 Cd67 2.300 . S
O66 C73 1.275 . S
Cd67 O66 2.300 . S
Cd67 O75 2.381 . S
Cd67 O76 2.378 . S
O68 Cd69 2.385 . S
O68 C73 1.255 . S
Cd69 O68 2.385 . S
Cd69 O70 2.317 . S
O70 Cd69 2.317 . S
O70 C71 1.232 . S
C71 O70 1.232 . S
C71 O72 1.218 . S
O72 C71 1.218 . S
C73 O66 1.275 . S
C73 O68 1.255 . S
C74 O75 1.258 . S
C74 O76 1.256 . S
O75 Cd67 2.381 . S
O75 C74 1.258 . S
O76 Cd67 2.378 . S
O76 C74 1.256 . S
O77 Cd78 2.300 . S
O77 C84 1.275 . S
Cd78 O77 2.300 . S
Cd78 O86 2.381 1_556 S
Cd78 O87 2.378 . S
O79 Cd80 2.385 . S
O79 C84 1.255 . S
Cd80 O79 2.385 . S
Cd80 O81 2.317 . S
O81 Cd80 2.317 . S
O81 C82 1.232 . S
C82 O81 1.232 . S
C82 O83 1.218 . S
O83 C82 1.218 . S
C84 O77 1.275 . S
C84 O79 1.255 . S
C85 O86 1.258 . S
C85 O87 1.256 1_554 S
O86 Cd78 2.381 1_554 S
O86 C85 1.258 . S
O87 Cd78 2.378 . S
O87 C85 1.256 1_556 S
O88 Cd89 2.300 . S
O88 C95 1.275 . S
Cd89 O88 2.300 . S
Cd89 O97 2.381 . S
Cd89 O98 2.378 . S
O90 Cd91 2.385 . S
O90 C95 1.255 . S
Cd91 O90 2.385 . S
Cd91 O92 2.317 . S
O92 Cd91 2.317 . S
O92 C93 1.232 . S
C93 O92 1.232 . S
C93 O94 1.218 . S
O94 C93 1.218 . S
C95 O88 1.275 . S
C95 O90 1.255 . S
C96 O97 1.258 . S
C96 O98 1.256 . S
O97 Cd89 2.381 . S
O97 C96 1.258 . S
O98 Cd89 2.378 . S
O98 C96 1.256 . S
O99 Cd100 2.300 . S
O99 C106 1.275 . S
Cd100 O99 2.300 . S
Cd100 O108 2.381 1_455 S
Cd100 O109 2.378 . S
O101 Cd102 2.385 . S
O101 C106 1.255 . S
Cd102 O101 2.385 . S
Cd102 O103 2.317 . S
O103 Cd102 2.317 . S
O103 C104 1.232 . S
C104 O103 1.232 . S
C104 O105 1.218 . S
O105 C104 1.218 . S
C106 O99 1.275 . S
C106 O101 1.255 . S
C107 O108 1.258 . S
C107 O109 1.256 1_655 S
O108 Cd100 2.381 1_655 S
O108 C107 1.258 . S
O109 Cd100 2.378 . S
O109 C107 1.256 1_455 S
O110 Cd111 2.300 . S
O110 C117 1.275 . S
Cd111 O110 2.300 . S
Cd111 O119 2.381 . S
Cd111 O120 2.378 . S
O112 Cd113 2.385 . S
O112 C117 1.255 . S
Cd113 O112 2.385 . S
Cd113 O114 2.317 . S
O114 Cd113 2.317 . S
O114 C115 1.232 . S
C115 O114 1.232 . S
C115 O116 1.218 . S
O116 C115 1.218 . S
C117 O110 1.275 . S
C117 O112 1.255 . S
C118 O119 1.258 . S
C118 O120 1.256 . S
O119 Cd111 2.381 . S
O119 C118 1.258 . S
O120 Cd111 2.378 . S
O120 C118 1.256 . S
O121 Cd122 2.300 . S
O121 C128 1.275 . S
Cd122 O121 2.300 . S
Cd122 O130 2.381 1_655 S
Cd122 O131 2.378 . S
O123 Cd124 2.385 . S
O123 C128 1.255 . S
Cd124 O123 2.385 . S
Cd124 O125 2.317 . S
O125 Cd124 2.317 . S
O125 C126 1.232 . S
C126 O125 1.232 . S
C126 O127 1.218 . S
O127 C126 1.218 . S
C128 O121 1.275 . S
C128 O123 1.255 . S
C129 O130 1.258 . S
C129 O131 1.256 1_455 S
O130 Cd122 2.381 1_455 S
O130 C129 1.258 . S
O131 Cd122 2.378 . S
O131 C129 1.256 1_655 S
O132 Cd133 2.300 . S
O132 C139 1.275 . S
Cd133 O132 2.300 . S
Cd133 O141 2.381 . S
Cd133 O142 2.378 . S
O134 Cd135 2.385 . S
O134 C139 1.255 . S
Cd135 O134 2.385 . S
Cd135 O136 2.317 . S
O136 Cd135 2.317 . S
O136 C137 1.232 . S
C137 O136 1.232 . S
C137 O138 1.218 . S
O138 C137 1.218 . S
C139 O132 1.275 . S
C139 O134 1.255 . S
C140 O141 1.258 . S
C140 O142 1.256 . S
O141 Cd133 2.381 . S
O141 C140 1.258 . S
O142 Cd133 2.378 . S
O142 C140 1.256 . S
O143 Cd144 2.300 . S
O143 C150 1.275 . S
Cd144 O143 2.300 . S
Cd144 O152 2.381 . S
Cd144 O153 2.378 . S
O145 Cd146 2.385 . S
O145 C150 1.255 . S
Cd146 O145 2.385 . S
Cd146 O147 2.317 . S
O147 Cd146 2.317 . S
O147 C148 1.232 . S
C148 O147 1.232 . S
C148 O149 1.218 . S
O149 C148 1.218 . S
C150 O143 1.275 . S
C150 O145 1.255 . S
C151 O152 1.258 . S
C151 O153 1.256 . S
O152 Cd144 2.381 . S
O152 C151 1.258 . S
O153 Cd144 2.378 . S
O153 C151 1.256 . S
O154 Cd155 2.300 1_545 S
O154 C161 1.275 . S
Cd155 O154 2.300 1_565 S
Cd155 O163 2.381 1_565 S
Cd155 O164 2.378 . S
O156 Cd157 2.385 . S
O156 C161 1.255 1_565 S
Cd157 O156 2.385 . S
Cd157 O158 2.317 . S
O158 Cd157 2.317 . S
O158 C159 1.232 . S
C159 O158 1.232 . S
C159 O160 1.218 . S
O160 C159 1.218 . S
C161 O154 1.275 . S
C161 O156 1.255 1_545 S
C162 O163 1.258 1_565 S
C162 O164 1.256 . S
O163 Cd155 2.381 1_545 S
O163 C162 1.258 1_545 S
O164 Cd155 2.378 . S
O164 C162 1.256 . S
O165 Cd166 2.300 1_565 S
O165 C172 1.275 . S
Cd166 O165 2.300 1_545 S
Cd166 O174 2.381 1_545 S
Cd166 O175 2.378 . S
O167 Cd168 2.385 . S
O167 C172 1.255 1_545 S
Cd168 O167 2.385 . S
Cd168 O169 2.317 . S
O169 Cd168 2.317 . S
O169 C170 1.232 . S
C170 O169 1.232 . S
C170 O171 1.218 . S
O171 C170 1.218 . S
C172 O165 1.275 . S
C172 O167 1.255 1_565 S
C173 O174 1.258 1_545 S
C173 O175 1.256 . S
O174 Cd166 2.381 1_565 S
O174 C173 1.258 1_565 S
O175 Cd166 2.378 . S
O175 C173 1.256 . S
O176 Cd177 2.300 . S
O176 C183 1.275 . S
Cd177 O176 2.300 . S
Cd177 O185 2.381 . S
Cd177 O186 2.378 . S
O178 Cd179 2.385 . S
O178 C183 1.255 . S
Cd179 O178 2.385 . S
Cd179 O180 2.317 . S
O180 Cd179 2.317 . S
O180 C181 1.232 . S
C181 O180 1.232 . S
C181 O182 1.218 . S
O182 C181 1.218 . S
C183 O176 1.275 . S
C183 O178 1.255 . S
C184 O185 1.258 . S
C184 O186 1.256 . S
O185 Cd177 2.381 . S
O185 C184 1.258 . S
O186 Cd177 2.378 . S
O186 C184 1.256 . S
O187 Cd188 2.300 1_556 S
O187 C194 1.275 . S
Cd188 O187 2.300 1_554 S
Cd188 O196 2.381 1_554 S
Cd188 O197 2.378 . S
O189 Cd190 2.385 . S
O189 C194 1.255 1_554 S
Cd190 O189 2.385 . S
Cd190 O191 2.317 . S
O191 Cd190 2.317 . S
O191 C192 1.232 . S
C192 O191 1.232 . S
C192 O193 1.218 . S
O193 C192 1.218 . S
C194 O187 1.275 . S
C194 O189 1.255 1_556 S
C195 O196 1.258 1_554 S
C195 O197 1.256 . S
O196 Cd188 2.381 1_556 S
O196 C195 1.258 1_556 S
O197 Cd188 2.378 . S
O197 C195 1.256 . S
O198 Cd199 2.300 . S
O198 C205 1.275 . S
Cd199 O198 2.300 . S
Cd199 O207 2.381 . S
Cd199 O208 2.378 . S
O200 Cd201 2.385 . S
O200 C205 1.255 . S
Cd201 O200 2.385 . S
Cd201 O202 2.317 . S
O202 Cd201 2.317 . S
O202 C203 1.232 . S
C203 O202 1.232 . S
C203 O204 1.218 . S
O204 C203 1.218 . S
C205 O198 1.275 . S
C205 O200 1.255 . S
C206 O207 1.258 . S
C206 O208 1.256 . S
O207 Cd199 2.381 . S
O207 C206 1.258 . S
O208 Cd199 2.378 . S
O208 C206 1.256 . S
O209 Cd210 2.300 1_554 S
O209 C216 1.275 . S
Cd210 O209 2.300 1_556 S
Cd210 O218 2.381 1_556 S
Cd210 O219 2.378 . S
O211 Cd212 2.385 . S
O211 C216 1.255 1_556 S
Cd212 O211 2.385 . S
Cd212 O213 2.317 . S
O213 Cd212 2.317 . S
O213 C214 1.232 . S
C214 O213 1.232 . S
C214 O215 1.218 . S
O215 C214 1.218 . S
C216 O209 1.275 . S
C216 O211 1.255 1_554 S
C217 O218 1.258 1_556 S
C217 O219 1.256 . S
O218 Cd210 2.381 1_554 S
O218 C217 1.258 1_554 S
O219 Cd210 2.378 . S
O219 C217 1.256 . S
O220 Cd221 2.300 . S
O220 C227 1.275 . S
Cd221 O220 2.300 . S
Cd221 O229 2.381 . S
Cd221 O230 2.378 . S
O222 Cd223 2.385 . S
O222 C227 1.255 . S
Cd223 O222 2.385 . S
Cd223 O224 2.317 . S
O224 Cd223 2.317 . S
O224 C225 1.232 . S
C225 O224 1.232 . S
C225 O226 1.218 . S
O226 C225 1.218 . S
C227 O220 1.275 . S
C227 O222 1.255 . S
C228 O229 1.258 . S
C228 O230 1.256 . S
O229 Cd221 2.381 . S
O229 C228 1.258 . S
O230 Cd221 2.378 . S
O230 C228 1.256 . S
O231 Cd232 2.300 1_655 S
O231 C238 1.275 . S
Cd232 O231 2.300 1_455 S
Cd232 O240 2.381 1_455 S
Cd232 O241 2.378 . S
O233 Cd234 2.385 . S
O233 C238 1.255 1_455 S
Cd234 O233 2.385 . S
Cd234 O235 2.317 . S
O235 Cd234 2.317 . S
O235 C236 1.232 . S
C236 O235 1.232 . S
C236 O237 1.218 . S
O237 C236 1.218 . S
C238 O231 1.275 . S
C238 O233 1.255 1_655 S
C239 O240 1.258 1_455 S
C239 O241 1.256 . S
O240 Cd232 2.381 1_655 S
O240 C239 1.258 1_655 S
O241 Cd232 2.378 . S
O241 C239 1.256 . S
O242 Cd243 2.300 . S
O242 C249 1.275 . S
Cd243 O242 2.300 . S
Cd243 O251 2.381 . S
Cd243 O252 2.378 . S
O244 Cd245 2.385 . S
O244 C249 1.255 . S
Cd245 O244 2.385 . S
Cd245 O246 2.317 . S
O246 Cd245 2.317 . S
O246 C247 1.232 . S
C247 O246 1.232 . S
C247 O248 1.218 . S
O248 C247 1.218 . S
C249 O242 1.275 . S
C249 O244 1.255 . S
C250 O251 1.258 . S
C250 O252 1.256 . S
O251 Cd243 2.381 . S
O251 C250 1.258 . S
O252 Cd243 2.378 . S
O252 C250 1.256 . S
O253 Cd254 2.300 1_455 S
O253 C260 1.275 . S
Cd254 O253 2.300 1_655 S
Cd254 O262 2.381 1_655 S
Cd254 O263 2.378 . S
O255 Cd256 2.385 . S
O255 C260 1.255 1_655 S
Cd256 O255 2.385 . S
Cd256 O257 2.317 . S
O257 Cd256 2.317 . S
O257 C258 1.232 . S
C258 O257 1.232 . S
C258 O259 1.218 . S
O259 C258 1.218 . S
C260 O253 1.275 . S
C260 O255 1.255 1_455 S
C261 O262 1.258 1_655 S
C261 O263 1.256 . S
O262 Cd254 2.381 1_455 S
O262 C261 1.258 1_455 S
O263 Cd254 2.378 . S
O263 C261 1.256 . S
C264 C265 1.391 . S
C264 C268 1.391 . S
C264 H306 0.948 . S
C265 C264 1.391 . S
C265 C266 1.391 . S
C266 C265 1.391 . S
C266 H322 0.947 . S
C266 C323 1.392 . S
C267 C268 1.391 . S
C267 C271 1.397 . S
C267 C323 1.419 . S
C268 C264 1.391 . S
C268 C267 1.391 . S
C268 C269 1.399 . S
C269 C268 1.399 . S
C269 C272 1.396 . S
C269 C281 1.453 . S
C269 C282 1.684 . S
H270 C294 0.948 . S
C271 C267 1.397 . S
C271 C272 1.394 . S
C271 C290 1.723 . S
C272 C269 1.396 . S
C272 C271 1.394 . S
C272 C302 1.723 . S
H273 C296 0.947 . S
H274 C297 0.948 . S
H275 C303 0.982 . S
H276 C304 0.979 . S
H277 C304 0.980 . S
H278 C304 0.983 . S
H279 C303 0.979 . S
H280 C303 0.977 . S
C281 C269 1.453 . S
C281 H310 0.982 . S
C281 H311 0.979 . S
C281 H312 0.977 . S
C282 C269 1.684 . S
C282 H307 0.979 . S
C282 H308 0.980 . S
C282 H309 0.983 . S
C283 C284 1.391 . S
C283 C288 1.391 . S
C283 H313 0.948 . S
C284 C283 1.391 . S
C284 C285 1.391 . S
C285 C284 1.391 . S
C285 C286 1.392 . S
C285 H314 0.947 . S
C286 C285 1.392 . S
C286 C287 1.419 . S
C286 H315 0.948 . S
C287 C286 1.419 . S
C287 C288 1.391 . S
C287 C291 1.397 . S
C288 C283 1.391 . S
C288 C287 1.391 . S
C288 C289 1.399 . S
C289 C288 1.399 . S
C289 C290 1.396 . S
C289 C292 1.453 . S
C289 C293 1.684 . S
C290 C271 1.723 . S
C290 C289 1.396 . S
C290 C291 1.394 . S
C291 C287 1.397 . S
C291 C290 1.394 . S
C291 C301 1.723 . S
C292 C289 1.453 . S
C292 H316 0.982 . S
C292 H317 0.979 . S
C292 H318 0.977 . S
C293 C289 1.684 . S
C293 H319 0.979 . S
C293 H320 0.980 . S
C293 H321 0.983 . S
C294 H270 0.948 . S
C294 C295 1.391 . S
C294 C299 1.391 . S
C295 C294 1.391 . S
C295 C296 1.391 . S
C296 H273 0.947 . S
C296 C295 1.391 . S
C296 C297 1.392 . S
C297 H274 0.948 . S
C297 C296 1.392 . S
C297 C298 1.419 . S
C298 C297 1.419 . S
C298 C299 1.391 . S
C298 C302 1.397 . S
C299 C294 1.391 . S
C299 C298 1.391 . S
C299 C300 1.399 . S
C300 C299 1.399 . S
C300 C301 1.396 . S
C300 C303 1.453 . S
C300 C304 1.684 . S
C301 C291 1.723 . S
C301 C300 1.396 . S
C301 C302 1.394 . S
C302 C272 1.723 . S
C302 C298 1.397 . S
C302 C301 1.394 . S
C303 H275 0.982 . S
C303 H279 0.979 . S
C303 H280 0.977 . S
C303 C300 1.453 . S
C304 H276 0.979 . S
C304 H277 0.980 . S
C304 H278 0.983 . S
C304 C300 1.684 . S
H305 C323 0.948 . S
H306 C264 0.948 . S
H307 C282 0.979 . S
H308 C282 0.980 . S
H309 C282 0.983 . S
H310 C281 0.982 . S
H311 C281 0.979 . S
H312 C281 0.977 . S
H313 C283 0.948 . S
H314 C285 0.947 . S
H315 C286 0.948 . S
H316 C292 0.982 . S
H317 C292 0.979 . S
H318 C292 0.977 . S
H319 C293 0.979 . S
H320 C293 0.980 . S
H321 C293 0.983 . S
H322 C266 0.947 . S
C323 C266 1.392 . S
C323 C267 1.419 . S
C323 H305 0.948 . S
C324 C325 1.391 . S
C324 C328 1.391 . S
C324 H366 0.948 . S
C325 C324 1.391 . S
C325 C326 1.391 . S
C326 C325 1.391 . S
C326 H382 0.947 . S
C326 C383 1.392 . S
C327 C328 1.391 . S
C327 C331 1.397 . S
C327 C383 1.419 . S
C328 C324 1.391 . S
C328 C327 1.391 . S
C328 C329 1.399 . S
C329 C328 1.399 . S
C329 C332 1.396 . S
C329 C341 1.453 . S
C329 C342 1.684 . S
H330 C354 0.948 . S
C331 C327 1.397 . S
C331 C332 1.394 . S
C331 C350 1.723 . S
C332 C329 1.396 . S
C332 C331 1.394 . S
C332 C362 1.723 . S
H333 C356 0.947 . S
H334 C357 0.948 . S
H335 C363 0.982 . S
H336 C364 0.979 . S
H337 C364 0.980 . S
H338 C364 0.983 . S
H339 C363 0.979 . S
H340 C363 0.977 . S
C341 C329 1.453 . S
C341 H370 0.982 . S
C341 H371 0.979 . S
C341 H372 0.977 . S
C342 C329 1.684 . S
C342 H367 0.979 . S
C342 H368 0.980 . S
C342 H369 0.983 . S
C343 C344 1.391 . S
C343 C348 1.391 . S
C343 H373 0.948 . S
C344 C343 1.391 . S
C344 C345 1.391 . S
C345 C344 1.391 . S
C345 C346 1.392 . S
C345 H374 0.947 . S
C346 C345 1.392 . S
C346 C347 1.419 . S
C346 H375 0.948 . S
C347 C346 1.419 . S
C347 C348 1.391 . S
C347 C351 1.397 . S
C348 C343 1.391 . S
C348 C347 1.391 . S
C348 C349 1.399 . S
C349 C348 1.399 . S
C349 C350 1.396 . S
C349 C352 1.453 . S
C349 C353 1.684 . S
C350 C331 1.723 . S
C350 C349 1.396 . S
C350 C351 1.394 . S
C351 C347 1.397 . S
C351 C350 1.394 . S
C351 C361 1.723 . S
C352 C349 1.453 . S
C352 H376 0.982 . S
C352 H377 0.979 . S
C352 H378 0.977 . S
C353 C349 1.684 . S
C353 H379 0.979 . S
C353 H380 0.980 . S
C353 H381 0.983 . S
C354 H330 0.948 . S
C354 C355 1.391 . S
C354 C359 1.391 . S
C355 C354 1.391 . S
C355 C356 1.391 . S
C356 H333 0.947 . S
C356 C355 1.391 . S
C356 C357 1.392 . S
C357 H334 0.948 . S
C357 C356 1.392 . S
C357 C358 1.419 . S
C358 C357 1.419 . S
C358 C359 1.391 . S
C358 C362 1.397 . S
C359 C354 1.391 . S
C359 C358 1.391 . S
C359 C360 1.399 . S
C360 C359 1.399 . S
C360 C361 1.396 . S
C360 C363 1.453 . S
C360 C364 1.684 . S
C361 C351 1.723 . S
C361 C360 1.396 . S
C361 C362 1.394 . S
C362 C332 1.723 . S
C362 C358 1.397 . S
C362 C361 1.394 . S
C363 H335 0.982 . S
C363 H339 0.979 . S
C363 H340 0.977 . S
C363 C360 1.453 . S
C364 H336 0.979 . S
C364 H337 0.980 . S
C364 H338 0.983 . S
C364 C360 1.684 . S
H365 C383 0.948 . S
H366 C324 0.948 . S
H367 C342 0.979 . S
H368 C342 0.980 . S
H369 C342 0.983 . S
H370 C341 0.982 . S
H371 C341 0.979 . S
H372 C341 0.977 . S
H373 C343 0.948 . S
H374 C345 0.947 . S
H375 C346 0.948 . S
H376 C352 0.982 . S
H377 C352 0.979 . S
H378 C352 0.977 . S
H379 C353 0.979 . S
H380 C353 0.980 . S
H381 C353 0.983 . S
H382 C326 0.947 . S
C383 C326 1.392 . S
C383 C327 1.419 . S
C383 H365 0.948 . S
C384 C385 1.391 . S
C384 C388 1.391 . S
C384 H426 0.948 . S
C385 C384 1.391 . S
C385 C386 1.391 . S
C386 C385 1.391 . S
C386 H442 0.947 . S
C386 C443 1.392 . S
C387 C388 1.391 . S
C387 C391 1.397 . S
C387 C443 1.419 . S
C388 C384 1.391 . S
C388 C387 1.391 . S
C388 C389 1.399 . S
C389 C388 1.399 . S
C389 C392 1.396 . S
C389 C401 1.453 . S
C389 C402 1.684 . S
H390 C414 0.948 . S
C391 C387 1.397 . S
C391 C392 1.394 . S
C391 C410 1.723 . S
C392 C389 1.396 . S
C392 C391 1.394 . S
C392 C422 1.723 1_545 S
H393 C416 0.947 . S
H394 C417 0.948 . S
H395 C423 0.982 . S
H396 C424 0.979 . S
H397 C424 0.980 . S
H398 C424 0.983 . S
H399 C423 0.979 . S
H400 C423 0.977 . S
C401 C389 1.453 . S
C401 H430 0.982 . S
C401 H431 0.979 . S
C401 H432 0.977 1_545 S
C402 C389 1.684 . S
C402 H427 0.979 . S
C402 H428 0.980 1_545 S
C402 H429 0.983 . S
C403 C404 1.391 . S
C403 C408 1.391 . S
C403 H433 0.948 . S
C404 C403 1.391 . S
C404 C405 1.391 1_545 S
C405 C404 1.391 1_565 S
C405 C406 1.392 . S
C405 H434 0.947 . S
C406 C405 1.392 . S
C406 C407 1.419 . S
C406 H435 0.948 . S
C407 C406 1.419 . S
C407 C408 1.391 1_565 S
C407 C411 1.397 . S
C408 C403 1.391 . S
C408 C407 1.391 1_545 S
C408 C409 1.399 . S
C409 C408 1.399 . S
C409 C410 1.396 . S
C409 C412 1.453 . S
C409 C413 1.684 . S
C410 C391 1.723 . S
C410 C409 1.396 . S
C410 C411 1.394 1_545 S
C411 C407 1.397 . S
C411 C410 1.394 1_565 S
C411 C421 1.723 . S
C412 C409 1.453 . S
C412 H436 0.982 . S
C412 H437 0.979 . S
C412 H438 0.977 . S
C413 C409 1.684 . S
C413 H439 0.979 . S
C413 H440 0.980 . S
C413 H441 0.983 . S
C414 H390 0.948 . S
C414 C415 1.391 . S
C414 C419 1.391 . S
C415 C414 1.391 . S
C415 C416 1.391 . S
C416 H393 0.947 . S
C416 C415 1.391 . S
C416 C417 1.392 . S
C417 H394 0.948 . S
C417 C416 1.392 . S
C417 C418 1.419 . S
C418 C417 1.419 . S
C418 C419 1.391 . S
C418 C422 1.397 . S
C419 C414 1.391 . S
C419 C418 1.391 . S
C419 C420 1.399 . S
C420 C419 1.399 . S
C420 C421 1.396 . S
C420 C423 1.453 . S
C420 C424 1.684 . S
C421 C411 1.723 . S
C421 C420 1.396 . S
C421 C422 1.394 . S
C422 C392 1.723 1_565 S
C422 C418 1.397 . S
C422 C421 1.394 . S
C423 H395 0.982 . S
C423 H399 0.979 . S
C423 H400 0.977 . S
C423 C420 1.453 . S
C424 H396 0.979 . S
C424 H397 0.980 . S
C424 H398 0.983 . S
C424 C420 1.684 . S
H425 C443 0.948 . S
H426 C384 0.948 . S
H427 C402 0.979 . S
H428 C402 0.980 1_565 S
H429 C402 0.983 . S
H430 C401 0.982 . S
H431 C401 0.979 . S
H432 C401 0.977 1_565 S
H433 C403 0.948 . S
H434 C405 0.947 . S
H435 C406 0.948 . S
H436 C412 0.982 . S
H437 C412 0.979 . S
H438 C412 0.977 . S
H439 C413 0.979 . S
H440 C413 0.980 . S
H441 C413 0.983 . S
H442 C386 0.947 . S
C443 C386 1.392 . S
C443 C387 1.419 . S
C443 H425 0.948 . S
C444 C445 1.391 . S
C444 C448 1.391 . S
C444 H486 0.948 . S
C445 C444 1.391 . S
C445 C446 1.391 . S
C446 C445 1.391 . S
C446 H502 0.947 . S
C446 C503 1.392 . S
C447 C448 1.391 . S
C447 C451 1.397 . S
C447 C503 1.419 . S
C448 C444 1.391 . S
C448 C447 1.391 . S
C448 C449 1.399 . S
C449 C448 1.399 . S
C449 C452 1.396 . S
C449 C461 1.453 . S
C449 C462 1.684 . S
H450 C474 0.948 . S
C451 C447 1.397 . S
C451 C452 1.394 . S
C451 C470 1.723 . S
C452 C449 1.396 . S
C452 C451 1.394 . S
C452 C482 1.723 1_545 S
H453 C476 0.947 . S
H454 C477 0.948 . S
H455 C483 0.982 . S
H456 C484 0.979 . S
H457 C484 0.980 . S
H458 C484 0.983 . S
H459 C483 0.979 . S
H460 C483 0.977 . S
C461 C449 1.453 . S
C461 H490 0.982 . S
C461 H491 0.979 . S
C461 H492 0.977 1_545 S
C462 C449 1.684 . S
C462 H487 0.979 . S
C462 H488 0.980 1_545 S
C462 H489 0.983 . S
C463 C464 1.391 1_545 S
C463 C468 1.391 . S
C463 H493 0.948 . S
C464 C463 1.391 1_565 S
C464 C465 1.391 . S
C465 C464 1.391 . S
C465 C466 1.392 . S
C465 H494 0.947 . S
C466 C465 1.392 . S
C466 C467 1.419 . S
C466 H495 0.948 . S
C467 C466 1.419 . S
C467 C468 1.391 1_565 S
C467 C471 1.397 . S
C468 C463 1.391 . S
C468 C467 1.391 1_545 S
C468 C469 1.399 . S
C469 C468 1.399 . S
C469 C470 1.396 . S
C469 C472 1.453 . S
C469 C473 1.684 . S
C470 C451 1.723 . S
C470 C469 1.396 . S
C470 C471 1.394 1_545 S
C471 C467 1.397 . S
C471 C470 1.394 1_565 S
C471 C481 1.723 . S
C472 C469 1.453 . S
C472 H496 0.982 . S
C472 H497 0.979 . S
C472 H498 0.977 . S
C473 C469 1.684 . S
C473 H499 0.979 . S
C473 H500 0.980 . S
C473 H501 0.983 . S
C474 H450 0.948 . S
C474 C475 1.391 . S
C474 C479 1.391 . S
C475 C474 1.391 . S
C475 C476 1.391 . S
C476 H453 0.947 . S
C476 C475 1.391 . S
C476 C477 1.392 . S
C477 H454 0.948 . S
C477 C476 1.392 . S
C477 C478 1.419 . S
C478 C477 1.419 . S
C478 C479 1.391 . S
C478 C482 1.397 . S
C479 C474 1.391 . S
C479 C478 1.391 . S
C479 C480 1.399 . S
C480 C479 1.399 . S
C480 C481 1.396 . S
C480 C483 1.453 . S
C480 C484 1.684 . S
C481 C471 1.723 . S
C481 C480 1.396 . S
C481 C482 1.394 . S
C482 C452 1.723 1_565 S
C482 C478 1.397 . S
C482 C481 1.394 . S
C483 H455 0.982 . S
C483 H459 0.979 . S
C483 H460 0.977 . S
C483 C480 1.453 . S
C484 H456 0.979 . S
C484 H457 0.980 . S
C484 H458 0.983 . S
C484 C480 1.684 . S
H485 C503 0.948 . S
H486 C444 0.948 . S
H487 C462 0.979 . S
H488 C462 0.980 1_565 S
H489 C462 0.983 . S
H490 C461 0.982 . S
H491 C461 0.979 . S
H492 C461 0.977 1_565 S
H493 C463 0.948 . S
H494 C465 0.947 . S
H495 C466 0.948 . S
H496 C472 0.982 . S
H497 C472 0.979 . S
H498 C472 0.977 . S
H499 C473 0.979 . S
H500 C473 0.980 . S
H501 C473 0.983 . S
H502 C446 0.947 . S
C503 C446 1.392 . S
C503 C447 1.419 . S
C503 H485 0.948 . S
C504 C505 1.391 . S
C504 C508 1.391 . S
C504 H546 0.948 . S
C505 C504 1.391 . S
C505 C506 1.391 . S
C506 C505 1.391 . S
C506 H562 0.947 . S
C506 C563 1.392 . S
C507 C508 1.391 . S
C507 C511 1.397 . S
C507 C563 1.419 . S
C508 C504 1.391 . S
C508 C507 1.391 . S
C508 C509 1.399 . S
C509 C508 1.399 . S
C509 C512 1.396 . S
C509 C521 1.453 . S
C509 C522 1.684 . S
H510 C534 0.948 . S
C511 C507 1.397 . S
C511 C512 1.394 . S
C511 C530 1.723 . S
C512 C509 1.396 . S
C512 C511 1.394 . S
C512 C542 1.723 . S
H513 C536 0.947 . S
H514 C537 0.948 . S
H515 C543 0.982 . S
H516 C544 0.979 . S
H517 C544 0.980 . S
H518 C544 0.983 . S
H519 C543 0.979 . S
H520 C543 0.977 . S
C521 C509 1.453 . S
C521 H550 0.982 . S
C521 H551 0.979 . S
C521 H552 0.977 . S
C522 C509 1.684 . S
C522 H547 0.979 . S
C522 H548 0.980 . S
C522 H549 0.983 . S
C523 C524 1.391 . S
C523 C528 1.391 . S
C523 H553 0.948 . S
C524 C523 1.391 . S
C524 C525 1.391 . S
C525 C524 1.391 . S
C525 C526 1.392 . S
C525 H554 0.947 . S
C526 C525 1.392 . S
C526 C527 1.419 . S
C526 H555 0.948 . S
C527 C526 1.419 . S
C527 C528 1.391 . S
C527 C531 1.397 . S
C528 C523 1.391 . S
C528 C527 1.391 . S
C528 C529 1.399 . S
C529 C528 1.399 . S
C529 C530 1.396 . S
C529 C532 1.453 . S
C529 C533 1.684 . S
C530 C511 1.723 . S
C530 C529 1.396 . S
C530 C531 1.394 . S
C531 C527 1.397 . S
C531 C530 1.394 . S
C531 C541 1.723 . S
C532 C529 1.453 . S
C532 H556 0.982 . S
C532 H557 0.979 . S
C532 H558 0.977 . S
C533 C529 1.684 . S
C533 H559 0.979 . S
C533 H560 0.980 . S
C533 H561 0.983 . S
C534 H510 0.948 . S
C534 C535 1.391 . S
C534 C539 1.391 . S
C535 C534 1.391 . S
C535 C536 1.391 . S
C536 H513 0.947 . S
C536 C535 1.391 . S
C536 C537 1.392 . S
C537 H514 0.948 . S
C537 C536 1.392 . S
C537 C538 1.419 . S
C538 C537 1.419 . S
C538 C539 1.391 . S
C538 C542 1.397 . S
C539 C534 1.391 . S
C539 C538 1.391 . S
C539 C540 1.399 . S
C540 C539 1.399 . S
C540 C541 1.396 . S
C540 C543 1.453 . S
C540 C544 1.684 . S
C541 C531 1.723 . S
C541 C540 1.396 . S
C541 C542 1.394 . S
C542 C512 1.723 . S
C542 C538 1.397 . S
C542 C541 1.394 . S
C543 H515 0.982 . S
C543 H519 0.979 . S
C543 H520 0.977 . S
C543 C540 1.453 . S
C544 H516 0.979 . S
C544 H517 0.980 . S
C544 H518 0.983 . S
C544 C540 1.684 . S
H545 C563 0.948 . S
H546 C504 0.948 . S
H547 C522 0.979 . S
H548 C522 0.980 . S
H549 C522 0.983 . S
H550 C521 0.982 . S
H551 C521 0.979 . S
H552 C521 0.977 . S
H553 C523 0.948 . S
H554 C525 0.947 . S
H555 C526 0.948 . S
H556 C532 0.982 . S
H557 C532 0.979 . S
H558 C532 0.977 . S
H559 C533 0.979 . S
H560 C533 0.980 . S
H561 C533 0.983 . S
H562 C506 0.947 . S
C563 C506 1.392 . S
C563 C507 1.419 . S
C563 H545 0.948 . S
C564 C565 1.391 1_556 S
C564 C568 1.391 . S
C564 H606 0.948 . S
C565 C564 1.391 1_554 S
C565 C566 1.391 . S
C566 C565 1.391 . S
C566 H622 0.947 . S
C566 C623 1.392 . S
C567 C568 1.391 1_554 S
C567 C571 1.397 . S
C567 C623 1.419 . S
C568 C564 1.391 . S
C568 C567 1.391 1_556 S
C568 C569 1.399 . S
C569 C568 1.399 . S
C569 C572 1.396 . S
C569 C581 1.453 . S
C569 C582 1.684 . S
H570 C594 0.948 . S
C571 C567 1.397 . S
C571 C572 1.394 1_554 S
C571 C590 1.723 . S
C572 C569 1.396 . S
C572 C571 1.394 1_556 S
C572 C602 1.723 . S
H573 C596 0.947 . S
H574 C597 0.948 . S
H575 C603 0.982 . S
H576 C604 0.979 . S
H577 C604 0.980 1_554 S
H578 C604 0.983 . S
H579 C603 0.979 . S
H580 C603 0.928 1_554 S
C581 C569 1.453 . S
C581 H610 0.982 . S
C581 H611 0.979 . S
C581 H612 0.977 . S
C582 C569 1.684 . S
C582 H607 0.979 . S
C582 H608 0.980 . S
C582 H609 0.983 . S
C583 C584 1.391 . S
C583 C588 1.391 . S
C583 H613 0.948 . S
C584 C583 1.391 . S
C584 C585 1.391 . S
C585 C584 1.391 . S
C585 C586 1.392 . S
C585 H614 0.947 . S
C586 C585 1.392 . S
C586 C587 1.419 . S
C586 H615 0.948 . S
C587 C586 1.419 . S
C587 C588 1.391 . S
C587 C591 1.397 . S
C588 C583 1.391 . S
C588 C587 1.391 . S
C588 C589 1.399 . S
C589 C588 1.399 . S
C589 C590 1.396 . S
C589 C592 1.453 . S
C589 C593 1.684 . S
C590 C571 1.723 . S
C590 C589 1.396 . S
C590 C591 1.394 . S
C591 C587 1.397 . S
C591 C590 1.394 . S
C591 C601 1.723 1_554 S
C592 C589 1.453 . S
C592 H616 0.982 . S
C592 H617 0.979 . S
C592 H618 0.977 . S
C593 C589 1.684 . S
C593 H619 0.979 . S
C593 H620 0.980 . S
C593 H621 0.983 . S
C594 H570 0.948 . S
C594 C595 1.391 . S
C594 C599 1.391 . S
C595 C594 1.391 . S
C595 C596 1.391 . S
C596 H573 0.947 . S
C596 C595 1.391 . S
C596 C597 1.392 . S
C597 H574 0.948 . S
C597 C596 1.392 . S
C597 C598 1.419 . S
C598 C597 1.419 . S
C598 C599 1.391 . S
C598 C602 1.397 . S
C599 C594 1.391 . S
C599 C598 1.391 . S
C599 C600 1.399 . S
C600 C599 1.399 . S
C600 C601 1.396 . S
C600 C603 1.453 . S
C600 C604 1.684 . S
C601 C591 1.723 1_556 S
C601 C600 1.396 . S
C601 C602 1.394 . S
C602 C572 1.723 . S
C602 C598 1.397 . S
C602 C601 1.394 . S
C603 H575 0.982 . S
C603 H579 0.979 . S
C603 H580 0.928 1_556 S
C603 C600 1.453 . S
C604 H576 0.979 . S
C604 H577 0.980 1_556 S
C604 H578 0.983 . S
C604 C600 1.684 . S
H605 C623 0.948 . S
H606 C564 0.948 . S
H607 C582 0.979 . S
H608 C582 0.980 . S
H609 C582 0.983 . S
H610 C581 0.982 . S
H611 C581 0.979 . S
H612 C581 0.977 . S
H613 C583 0.948 . S
H614 C585 0.947 . S
H615 C586 0.948 . S
H616 C592 0.982 . S
H617 C592 0.979 . S
H618 C592 0.977 . S
H619 C593 0.979 . S
H620 C593 0.980 . S
H621 C593 0.983 . S
H622 C566 0.947 . S
C623 C566 1.392 . S
C623 C567 1.419 . S
C623 H605 0.948 . S
C624 C625 1.391 . S
C624 C628 1.391 . S
C624 H666 0.948 . S
C625 C624 1.391 . S
C625 C626 1.391 . S
C626 C625 1.391 . S
C626 H682 0.947 . S
C626 C683 1.392 . S
C627 C628 1.391 . S
C627 C631 1.397 . S
C627 C683 1.419 . S
C628 C624 1.391 . S
C628 C627 1.391 . S
C628 C629 1.399 . S
C629 C628 1.399 . S
C629 C632 1.396 . S
C629 C641 1.453 . S
C629 C642 1.684 . S
H630 C654 0.948 . S
C631 C627 1.397 . S
C631 C632 1.394 . S
C631 C650 1.723 . S
C632 C629 1.396 . S
C632 C631 1.394 . S
C632 C662 1.723 . S
H633 C656 0.947 . S
H634 C657 0.948 . S
H635 C663 0.982 . S
H636 C664 0.979 . S
H637 C664 0.980 . S
H638 C664 0.983 . S
H639 C663 0.979 . S
H640 C663 0.977 . S
C641 C629 1.453 . S
C641 H670 0.982 . S
C641 H671 0.979 . S
C641 H672 0.977 . S
C642 C629 1.684 . S
C642 H667 0.979 . S
C642 H668 0.980 . S
C642 H669 0.983 . S
C643 C644 1.391 . S
C643 C648 1.391 . S
C643 H673 0.948 . S
C644 C643 1.391 . S
C644 C645 1.391 . S
C645 C644 1.391 . S
C645 C646 1.392 . S
C645 H674 0.947 . S
C646 C645 1.392 . S
C646 C647 1.419 . S
C646 H675 0.948 . S
C647 C646 1.419 . S
C647 C648 1.391 . S
C647 C651 1.397 . S
C648 C643 1.391 . S
C648 C647 1.391 . S
C648 C649 1.399 . S
C649 C648 1.399 . S
C649 C650 1.396 . S
C649 C652 1.453 . S
C649 C653 1.684 . S
C650 C631 1.723 . S
C650 C649 1.396 . S
C650 C651 1.394 . S
C651 C647 1.397 . S
C651 C650 1.394 . S
C651 C661 1.723 . S
C652 C649 1.453 . S
C652 H676 0.982 . S
C652 H677 0.979 . S
C652 H678 0.977 . S
C653 C649 1.684 . S
C653 H679 0.979 . S
C653 H680 0.980 . S
C653 H681 0.983 . S
C654 H630 0.948 . S
C654 C655 1.391 . S
C654 C659 1.391 . S
C655 C654 1.391 . S
C655 C656 1.391 . S
C656 H633 0.947 . S
C656 C655 1.391 . S
C656 C657 1.392 . S
C657 H634 0.948 . S
C657 C656 1.392 . S
C657 C658 1.419 . S
C658 C657 1.419 . S
C658 C659 1.391 . S
C658 C662 1.397 . S
C659 C654 1.391 . S
C659 C658 1.391 . S
C659 C660 1.399 . S
C660 C659 1.399 . S
C660 C661 1.396 . S
C660 C663 1.453 . S
C660 C664 1.684 . S
C661 C651 1.723 . S
C661 C660 1.396 . S
C661 C662 1.394 . S
C662 C632 1.723 . S
C662 C658 1.397 . S
C662 C661 1.394 . S
C663 H635 0.982 . S
C663 H639 0.979 . S
C663 H640 0.977 . S
C663 C660 1.453 . S
C664 H636 0.979 . S
C664 H637 0.980 . S
C664 H638 0.983 . S
C664 C660 1.684 . S
H665 C683 0.948 . S
H666 C624 0.948 . S
H667 C642 0.979 . S
H668 C642 0.980 . S
H669 C642 0.983 . S
H670 C641 0.982 . S
H671 C641 0.979 . S
H672 C641 0.977 . S
H673 C643 0.948 . S
H674 C645 0.947 . S
H675 C646 0.948 . S
H676 C652 0.982 . S
H677 C652 0.979 . S
H678 C652 0.977 . S
H679 C653 0.979 . S
H680 C653 0.980 . S
H681 C653 0.983 . S
H682 C626 0.947 . S
C683 C626 1.392 . S
C683 C627 1.419 . S
C683 H665 0.948 . S
C684 C685 1.391 . S
C684 C688 1.391 . S
C684 H726 0.948 . S
C685 C684 1.391 . S
C685 C686 1.391 1_554 S
C686 C685 1.391 1_556 S
C686 H742 0.947 . S
C686 C743 1.392 . S
C687 C688 1.391 1_556 S
C687 C691 1.397 . S
C687 C743 1.419 . S
C688 C684 1.391 . S
C688 C687 1.391 1_554 S
C688 C689 1.399 . S
C689 C688 1.399 . S
C689 C692 1.396 . S
C689 C701 1.453 . S
C689 C702 1.684 . S
H690 C714 0.948 . S
C691 C687 1.397 . S
C691 C692 1.394 1_556 S
C691 C710 1.723 . S
C692 C689 1.396 . S
C692 C691 1.394 1_554 S
C692 C722 1.723 . S
H693 C716 0.947 . S
H694 C717 0.948 . S
H695 C723 0.982 . S
H696 C724 0.979 . S
H697 C724 0.980 1_556 S
H698 C724 0.983 . S
H699 C723 0.979 . S
H700 C723 0.977 1_556 S
C701 C689 1.453 . S
C701 H730 0.982 . S
C701 H731 0.979 . S
C701 H732 0.977 . S
C702 C689 1.684 . S
C702 H727 0.979 . S
C702 H728 0.980 . S
C702 H729 0.983 . S
C703 C704 1.391 . S
C703 C708 1.391 . S
C703 H733 0.948 . S
C704 C703 1.391 . S
C704 C705 1.391 . S
C705 C704 1.391 . S
C705 C706 1.392 . S
C705 H734 0.947 . S
C706 C705 1.392 . S
C706 C707 1.419 . S
C706 H735 0.948 . S
C707 C706 1.419 . S
C707 C708 1.391 . S
C707 C711 1.397 . S
C708 C703 1.391 . S
C708 C707 1.391 . S
C708 C709 1.399 . S
C709 C708 1.399 . S
C709 C710 1.396 . S
C709 C712 1.453 . S
C709 C713 1.684 . S
C710 C691 1.723 . S
C710 C709 1.396 . S
C710 C711 1.394 . S
C711 C707 1.397 . S
C711 C710 1.394 . S
C711 C721 1.723 1_556 S
C712 C709 1.453 . S
C712 H736 0.982 . S
C712 H737 0.979 . S
C712 H738 0.977 . S
C713 C709 1.684 . S
C713 H739 0.979 . S
C713 H740 0.980 . S
C713 H741 0.983 . S
C714 H690 0.948 . S
C714 C715 1.391 . S
C714 C719 1.391 . S
C715 C714 1.391 . S
C715 C716 1.391 . S
C716 H693 0.947 . S
C716 C715 1.391 . S
C716 C717 1.392 . S
C717 H694 0.948 . S
C717 C716 1.392 . S
C717 C718 1.419 . S
C718 C717 1.419 . S
C718 C719 1.391 . S
C718 C722 1.397 . S
C719 C714 1.391 . S
C719 C718 1.391 . S
C719 C720 1.399 . S
C720 C719 1.399 . S
C720 C721 1.396 . S
C720 C723 1.453 . S
C720 C724 1.684 . S
C721 C711 1.723 1_554 S
C721 C720 1.396 . S
C721 C722 1.394 . S
C722 C692 1.723 . S
C722 C718 1.397 . S
C722 C721 1.394 . S
C723 H695 0.982 . S
C723 H699 0.979 . S
C723 H700 0.977 1_554 S
C723 C720 1.453 . S
C724 H696 0.979 . S
C724 H697 0.980 1_554 S
C724 H698 0.983 . S
C724 C720 1.684 . S
H725 C743 0.948 . S
H726 C684 0.948 . S
H727 C702 0.979 . S
H728 C702 0.980 . S
H729 C702 0.983 . S
H730 C701 0.982 . S
H731 C701 0.979 . S
H732 C701 0.977 . S
H733 C703 0.948 . S
H734 C705 0.947 . S
H735 C706 0.948 . S
H736 C712 0.982 . S
H737 C712 0.979 . S
H738 C712 0.977 . S
H739 C713 0.979 . S
H740 C713 0.980 . S
H741 C713 0.983 . S
H742 C686 0.947 . S
C743 C686 1.392 . S
C743 C687 1.419 . S
C743 H725 0.948 . S
C744 C745 1.391 . S
C744 C748 1.391 . S
C744 H786 0.948 . S
C745 C744 1.391 . S
C745 C746 1.391 . S
C746 C745 1.391 . S
C746 H802 0.947 . S
C746 C803 1.392 . S
C747 C748 1.391 . S
C747 C751 1.397 . S
C747 C803 1.419 . S
C748 C744 1.391 . S
C748 C747 1.391 . S
C748 C749 1.399 . S
C749 C748 1.399 . S
C749 C752 1.396 . S
C749 C761 1.453 . S
C749 C762 1.684 . S
H750 C774 0.948 . S
C751 C747 1.397 . S
C751 C752 1.394 . S
C751 C770 1.723 . S
C752 C749 1.396 . S
C752 C751 1.394 . S
C752 C782 1.723 . S
H753 C776 0.947 . S
H754 C777 0.948 . S
H755 C783 0.982 . S
H756 C784 0.979 . S
H757 C784 0.980 . S
H758 C784 0.983 . S
H759 C783 0.979 . S
H760 C783 0.977 . S
C761 C749 1.453 . S
C761 H790 0.982 . S
C761 H791 0.979 . S
C761 H792 0.977 . S
C762 C749 1.684 . S
C762 H787 0.979 . S
C762 H788 0.980 . S
C762 H789 0.983 . S
C763 C764 1.391 . S
C763 C768 1.391 . S
C763 H793 0.948 . S
C764 C763 1.391 . S
C764 C765 1.391 . S
C765 C764 1.391 . S
C765 C766 1.392 . S
C765 H794 0.947 . S
C766 C765 1.392 . S
C766 C767 1.419 . S
C766 H795 0.948 . S
C767 C766 1.419 . S
C767 C768 1.391 . S
C767 C771 1.397 . S
C768 C763 1.391 . S
C768 C767 1.391 . S
C768 C769 1.399 . S
C769 C768 1.399 . S
C769 C770 1.396 . S
C769 C772 1.453 . S
C769 C773 1.684 . S
C770 C751 1.723 . S
C770 C769 1.396 . S
C770 C771 1.394 . S
C771 C767 1.397 . S
C771 C770 1.394 . S
C771 C781 1.723 . S
C772 C769 1.453 . S
C772 H796 0.982 . S
C772 H797 0.979 . S
C772 H798 0.977 . S
C773 C769 1.684 . S
C773 H799 0.979 . S
C773 H800 0.980 . S
C773 H801 0.983 . S
C774 H750 0.948 . S
C774 C775 1.391 . S
C774 C779 1.391 . S
C775 C774 1.391 . S
C775 C776 1.391 . S
C776 H753 0.947 . S
C776 C775 1.391 . S
C776 C777 1.392 . S
C777 H754 0.948 . S
C777 C776 1.392 . S
C777 C778 1.419 . S
C778 C777 1.419 . S
C778 C779 1.391 . S
C778 C782 1.397 . S
C779 C774 1.391 . S
C779 C778 1.391 . S
C779 C780 1.399 . S
C780 C779 1.399 . S
C780 C781 1.396 . S
C780 C783 1.453 . S
C780 C784 1.684 . S
C781 C771 1.723 . S
C781 C780 1.396 . S
C781 C782 1.394 . S
C782 C752 1.723 . S
C782 C778 1.397 . S
C782 C781 1.394 . S
C783 H755 0.982 . S
C783 H759 0.979 . S
C783 H760 0.977 . S
C783 C780 1.453 . S
C784 H756 0.979 . S
C784 H757 0.980 . S
C784 H758 0.983 . S
C784 C780 1.684 . S
H785 C803 0.948 . S
H786 C744 0.948 . S
H787 C762 0.979 . S
H788 C762 0.980 . S
H789 C762 0.983 . S
H790 C761 0.982 . S
H791 C761 0.979 . S
H792 C761 0.977 . S
H793 C763 0.948 . S
H794 C765 0.947 . S
H795 C766 0.948 . S
H796 C772 0.982 . S
H797 C772 0.979 . S
H798 C772 0.977 . S
H799 C773 0.979 . S
H800 C773 0.980 . S
H801 C773 0.983 . S
H802 C746 0.947 . S
C803 C746 1.392 . S
C803 C747 1.419 . S
C803 H785 0.948 . S
C804 C805 1.391 . S
C804 C808 1.391 . S
C804 H846 0.948 . S
C805 C804 1.391 . S
C805 C806 1.391 . S
C806 C805 1.391 . S
C806 H862 0.947 . S
C806 C863 1.392 . S
C807 C808 1.391 . S
C807 C811 1.397 . S
C807 C863 1.419 . S
C808 C804 1.391 . S
C808 C807 1.391 . S
C808 C809 1.399 . S
C809 C808 1.399 . S
C809 C812 1.396 . S
C809 C821 1.453 . S
C809 C822 1.684 . S
H810 C834 0.948 . S
C811 C807 1.397 . S
C811 C812 1.394 . S
C811 C830 1.723 . S
C812 C809 1.396 . S
C812 C811 1.394 . S
C812 C842 1.723 1_455 S
H813 C836 0.947 . S
H814 C837 0.948 . S
H815 C843 0.982 . S
H816 C844 0.979 . S
H817 C844 0.980 . S
H818 C844 0.983 . S
H819 C843 0.979 . S
H820 C843 0.977 . S
C821 C809 1.453 . S
C821 H850 0.982 . S
C821 H851 0.979 . S
C821 H852 0.977 1_455 S
C822 C809 1.684 . S
C822 H847 0.979 . S
C822 H848 0.980 1_455 S
C822 H849 0.983 . S
C823 C824 1.391 1_455 S
C823 C828 1.391 . S
C823 H853 0.948 . S
C824 C823 1.391 1_655 S
C824 C825 1.391 . S
C825 C824 1.391 . S
C825 C826 1.392 . S
C825 H854 0.947 . S
C826 C825 1.392 . S
C826 C827 1.419 . S
C826 H855 0.948 . S
C827 C826 1.419 . S
C827 C828 1.391 1_655 S
C827 C831 1.397 . S
C828 C823 1.391 . S
C828 C827 1.391 1_455 S
C828 C829 1.399 . S
C829 C828 1.399 . S
C829 C830 1.396 . S
C829 C832 1.453 . S
C829 C833 1.684 . S
C830 C811 1.723 . S
C830 C829 1.396 . S
C830 C831 1.394 1_455 S
C831 C827 1.397 . S
C831 C830 1.394 1_655 S
C831 C841 1.723 . S
C832 C829 1.453 . S
C832 H856 0.982 . S
C832 H857 0.979 . S
C832 H858 0.977 . S
C833 C829 1.684 . S
C833 H859 0.979 . S
C833 H860 0.980 . S
C833 H861 0.983 . S
C834 H810 0.948 . S
C834 C835 1.391 . S
C834 C839 1.391 . S
C835 C834 1.391 . S
C835 C836 1.391 . S
C836 H813 0.947 . S
C836 C835 1.391 . S
C836 C837 1.392 . S
C837 H814 0.948 . S
C837 C836 1.392 . S
C837 C838 1.419 . S
C838 C837 1.419 . S
C838 C839 1.391 . S
C838 C842 1.397 . S
C839 C834 1.391 . S
C839 C838 1.391 . S
C839 C840 1.399 . S
C840 C839 1.399 . S
C840 C841 1.396 . S
C840 C843 1.453 . S
C840 C844 1.684 . S
C841 C831 1.723 . S
C841 C840 1.396 . S
C841 C842 1.394 . S
C842 C812 1.723 1_655 S
C842 C838 1.397 . S
C842 C841 1.394 . S
C843 H815 0.982 . S
C843 H819 0.979 . S
C843 H820 0.977 . S
C843 C840 1.453 . S
C844 H816 0.979 . S
C844 H817 0.980 . S
C844 H818 0.983 . S
C844 C840 1.684 . S
H845 C863 0.948 . S
H846 C804 0.948 . S
H847 C822 0.979 . S
H848 C822 0.980 1_655 S
H849 C822 0.983 . S
H850 C821 0.982 . S
H851 C821 0.979 . S
H852 C821 0.977 1_655 S
H853 C823 0.948 . S
H854 C825 0.947 . S
H855 C826 0.948 . S
H856 C832 0.982 . S
H857 C832 0.979 . S
H858 C832 0.977 . S
H859 C833 0.979 . S
H860 C833 0.980 . S
H861 C833 0.983 . S
H862 C806 0.947 . S
C863 C806 1.392 . S
C863 C807 1.419 . S
C863 H845 0.948 . S
C864 C865 1.391 . S
C864 C868 1.391 . S
C864 H906 0.948 . S
C865 C864 1.391 . S
C865 C866 1.391 . S
C866 C865 1.391 . S
C866 H922 0.947 . S
C866 C923 1.392 . S
C867 C868 1.391 . S
C867 C871 1.397 . S
C867 C923 1.419 . S
C868 C864 1.391 . S
C868 C867 1.391 . S
C868 C869 1.399 . S
C869 C868 1.399 . S
C869 C872 1.396 . S
C869 C881 1.453 . S
C869 C882 1.684 . S
H870 C894 0.948 . S
C871 C867 1.397 . S
C871 C872 1.394 . S
C871 C890 1.723 . S
C872 C869 1.396 . S
C872 C871 1.394 . S
C872 C902 1.723 . S
H873 C896 0.947 . S
H874 C897 0.948 . S
H875 C903 0.982 . S
H876 C904 0.979 . S
H877 C904 0.980 . S
H878 C904 0.983 . S
H879 C903 0.979 . S
H880 C903 0.977 . S
C881 C869 1.453 . S
C881 H910 0.982 . S
C881 H911 0.979 . S
C881 H912 0.977 . S
C882 C869 1.684 . S
C882 H907 0.979 . S
C882 H908 0.980 . S
C882 H909 0.983 . S
C883 C884 1.391 . S
C883 C888 1.391 . S
C883 H913 0.948 . S
C884 C883 1.391 . S
C884 C885 1.391 . S
C885 C884 1.391 . S
C885 C886 1.392 . S
C885 H914 0.947 . S
C886 C885 1.392 . S
C886 C887 1.419 . S
C886 H915 0.948 . S
C887 C886 1.419 . S
C887 C888 1.391 . S
C887 C891 1.397 . S
C888 C883 1.391 . S
C888 C887 1.391 . S
C888 C889 1.399 . S
C889 C888 1.399 . S
C889 C890 1.396 . S
C889 C892 1.453 . S
C889 C893 1.684 . S
C890 C871 1.723 . S
C890 C889 1.396 . S
C890 C891 1.394 . S
C891 C887 1.397 . S
C891 C890 1.394 . S
C891 C901 1.723 . S
C892 C889 1.453 . S
C892 H916 0.982 . S
C892 H917 0.979 . S
C892 H918 0.977 . S
C893 C889 1.684 . S
C893 H919 0.979 . S
C893 H920 0.980 . S
C893 H921 0.983 . S
C894 H870 0.948 . S
C894 C895 1.391 . S
C894 C899 1.391 . S
C895 C894 1.391 . S
C895 C896 1.391 . S
C896 H873 0.947 . S
C896 C895 1.391 . S
C896 C897 1.392 . S
C897 H874 0.948 . S
C897 C896 1.392 . S
C897 C898 1.419 . S
C898 C897 1.419 . S
C898 C899 1.391 . S
C898 C902 1.397 . S
C899 C894 1.391 . S
C899 C898 1.391 . S
C899 C900 1.399 . S
C900 C899 1.399 . S
C900 C901 1.396 . S
C900 C903 1.453 . S
C900 C904 1.684 . S
C901 C891 1.723 . S
C901 C900 1.396 . S
C901 C902 1.394 . S
C902 C872 1.723 . S
C902 C898 1.397 . S
C902 C901 1.394 . S
C903 H875 0.982 . S
C903 H879 0.979 . S
C903 H880 0.977 . S
C903 C900 1.453 . S
C904 H876 0.979 . S
C904 H877 0.980 . S
C904 H878 0.983 . S
C904 C900 1.684 . S
H905 C923 0.948 . S
H906 C864 0.948 . S
H907 C882 0.979 . S
H908 C882 0.980 . S
H909 C882 0.983 . S
H910 C881 0.982 . S
H911 C881 0.979 . S
H912 C881 0.977 . S
H913 C883 0.948 . S
H914 C885 0.947 . S
H915 C886 0.948 . S
H916 C892 0.982 . S
H917 C892 0.979 . S
H918 C892 0.977 . S
H919 C893 0.979 . S
H920 C893 0.980 . S
H921 C893 0.983 . S
H922 C866 0.947 . S
C923 C866 1.392 . S
C923 C867 1.419 . S
C923 H905 0.948 . S
C924 C925 1.391 . S
C924 C928 1.391 . S
C924 H966 0.948 . S
C925 C924 1.391 . S
C925 C926 1.391 . S
C926 C925 1.391 . S
C926 H982 0.947 . S
C926 C983 1.392 . S
C927 C928 1.391 . S
C927 C931 1.397 . S
C927 C983 1.419 . S
C928 C924 1.391 . S
C928 C927 1.391 . S
C928 C929 1.399 . S
C929 C928 1.399 . S
C929 C932 1.396 . S
C929 C941 1.453 . S
C929 C942 1.684 . S
H930 C954 0.948 . S
C931 C927 1.397 . S
C931 C932 1.394 . S
C931 C950 1.723 . S
C932 C929 1.396 . S
C932 C931 1.394 . S
C932 C962 1.723 1_455 S
H933 C956 0.947 . S
H934 C957 0.948 . S
H935 C963 0.982 . S
H936 C964 0.979 . S
H937 C964 0.980 . S
H938 C964 0.983 . S
H939 C963 0.979 . S
H940 C963 0.977 . S
C941 C929 1.453 . S
C941 H970 0.982 . S
C941 H971 0.979 . S
C941 H972 0.977 1_455 S
C942 C929 1.684 . S
C942 H967 0.979 . S
C942 H968 0.980 1_455 S
C942 H969 0.983 . S
C943 C944 1.391 . S
C943 C948 1.391 . S
C943 H973 0.948 . S
C944 C943 1.391 . S
C944 C945 1.391 1_455 S
C945 C944 1.391 1_655 S
C945 C946 1.392 . S
C945 H974 0.947 . S
C946 C945 1.392 . S
C946 C947 1.419 . S
C946 H975 0.948 . S
C947 C946 1.419 . S
C947 C948 1.391 1_655 S
C947 C951 1.397 . S
C948 C943 1.391 . S
C948 C947 1.391 1_455 S
C948 C949 1.399 . S
C949 C948 1.399 . S
C949 C950 1.396 . S
C949 C952 1.453 . S
C949 C953 1.684 . S
C950 C931 1.723 . S
C950 C949 1.396 . S
C950 C951 1.394 1_455 S
C951 C947 1.397 . S
C951 C950 1.394 1_655 S
C951 C961 1.723 . S
C952 C949 1.453 . S
C952 H976 0.982 . S
C952 H977 0.979 . S
C952 H978 0.977 . S
C953 C949 1.684 . S
C953 H979 0.979 . S
C953 H980 0.980 . S
C953 H981 0.983 . S
C954 H930 0.948 . S
C954 C955 1.391 . S
C954 C959 1.391 . S
C955 C954 1.391 . S
C955 C956 1.391 . S
C956 H933 0.947 . S
C956 C955 1.391 . S
C956 C957 1.392 . S
C957 H934 0.948 . S
C957 C956 1.392 . S
C957 C958 1.419 . S
C958 C957 1.419 . S
C958 C959 1.391 . S
C958 C962 1.397 . S
C959 C954 1.391 . S
C959 C958 1.391 . S
C959 C960 1.399 . S
C960 C959 1.399 . S
C960 C961 1.396 . S
C960 C963 1.453 . S
C960 C964 1.684 . S
C961 C951 1.723 . S
C961 C960 1.396 . S
C961 C962 1.394 . S
C962 C932 1.723 1_655 S
C962 C958 1.397 . S
C962 C961 1.394 . S
C963 H935 0.982 . S
C963 H939 0.979 . S
C963 H940 0.977 . S
C963 C960 1.453 . S
C964 H936 0.979 . S
C964 H937 0.980 . S
C964 H938 0.983 . S
C964 C960 1.684 . S
H965 C983 0.948 . S
H966 C924 0.948 . S
H967 C942 0.979 . S
H968 C942 0.980 1_655 S
H969 C942 0.983 . S
H970 C941 0.982 . S
H971 C941 0.979 . S
H972 C941 0.977 1_655 S
H973 C943 0.948 . S
H974 C945 0.947 . S
H975 C946 0.948 . S
H976 C952 0.982 . S
H977 C952 0.979 . S
H978 C952 0.977 . S
H979 C953 0.979 . S
H980 C953 0.980 . S
H981 C953 0.983 . S
H982 C926 0.947 . S
C983 C926 1.392 . S
C983 C927 1.419 . S
C983 H965 0.948 . S
C984 C985 1.391 . S
C984 C988 1.391 . S
C984 H1026 0.948 . S
C985 C984 1.391 . S
C985 C986 1.391 . S
C986 C985 1.391 . S
C986 H1042 0.947 . S
C986 C1043 1.392 . S
C987 C988 1.391 . S
C987 C991 1.397 . S
C987 C1043 1.419 . S
C988 C984 1.391 . S
C988 C987 1.391 . S
C988 C989 1.399 . S
C989 C988 1.399 . S
C989 C992 1.396 . S
C989 C1001 1.453 . S
C989 C1002 1.684 . S
H990 C1014 0.948 . S
C991 C987 1.397 . S
C991 C992 1.394 . S
C991 C1010 1.723 . S
C992 C989 1.396 . S
C992 C991 1.394 . S
C992 C1022 1.723 . S
H993 C1016 0.947 . S
H994 C1017 0.948 . S
H995 C1023 0.982 . S
H996 C1024 0.979 . S
H997 C1024 0.980 . S
H998 C1024 0.983 . S
H999 C1023 0.979 . S
H1000 C1023 0.977 . S
C1001 C989 1.453 . S
C1001 H1030 0.982 . S
C1001 H1031 0.979 . S
C1001 H1032 0.977 . S
C1002 C989 1.684 . S
C1002 H1027 0.979 . S
C1002 H1028 0.980 . S
C1002 H1029 0.983 . S
C1003 C1004 1.391 . S
C1003 C1008 1.391 . S
C1003 H1033 0.948 . S
C1004 C1003 1.391 . S
C1004 C1005 1.391 . S
C1005 C1004 1.391 . S
C1005 C1006 1.392 . S
C1005 H1034 0.947 . S
C1006 C1005 1.392 . S
C1006 C1007 1.419 . S
C1006 H1035 0.948 . S
C1007 C1006 1.419 . S
C1007 C1008 1.391 . S
C1007 C1011 1.397 . S
C1008 C1003 1.391 . S
C1008 C1007 1.391 . S
C1008 C1009 1.399 . S
C1009 C1008 1.399 . S
C1009 C1010 1.396 . S
C1009 C1012 1.453 . S
C1009 C1013 1.684 . S
C1010 C991 1.723 . S
C1010 C1009 1.396 . S
C1010 C1011 1.394 . S
C1011 C1007 1.397 . S
C1011 C1010 1.394 . S
C1011 C1021 1.723 . S
C1012 C1009 1.453 . S
C1012 H1036 0.982 . S
C1012 H1037 0.979 . S
C1012 H1038 0.977 . S
C1013 C1009 1.684 . S
C1013 H1039 0.979 . S
C1013 H1040 0.980 . S
C1013 H1041 0.983 . S
C1014 H990 0.948 . S
C1014 C1015 1.391 . S
C1014 C1019 1.391 . S
C1015 C1014 1.391 . S
C1015 C1016 1.391 . S
C1016 H993 0.947 . S
C1016 C1015 1.391 . S
C1016 C1017 1.392 . S
C1017 H994 0.948 . S
C1017 C1016 1.392 . S
C1017 C1018 1.419 . S
C1018 C1017 1.419 . S
C1018 C1019 1.391 . S
C1018 C1022 1.397 . S
C1019 C1014 1.391 . S
C1019 C1018 1.391 . S
C1019 C1020 1.399 . S
C1020 C1019 1.399 . S
C1020 C1021 1.396 . S
C1020 C1023 1.453 . S
C1020 C1024 1.684 . S
C1021 C1011 1.723 . S
C1021 C1020 1.396 . S
C1021 C1022 1.394 . S
C1022 C992 1.723 . S
C1022 C1018 1.397 . S
C1022 C1021 1.394 . S
C1023 H995 0.982 . S
C1023 H999 0.979 . S
C1023 H1000 0.977 . S
C1023 C1020 1.453 . S
C1024 H996 0.979 . S
C1024 H997 0.980 . S
C1024 H998 0.983 . S
C1024 C1020 1.684 . S
H1025 C1043 0.948 . S
H1026 C984 0.948 . S
H1027 C1002 0.979 . S
H1028 C1002 0.980 . S
H1029 C1002 0.983 . S
H1030 C1001 0.982 . S
H1031 C1001 0.979 . S
H1032 C1001 0.977 . S
H1033 C1003 0.948 . S
H1034 C1005 0.947 . S
H1035 C1006 0.948 . S
H1036 C1012 0.982 . S
H1037 C1012 0.979 . S
H1038 C1012 0.977 . S
H1039 C1013 0.979 . S
H1040 C1013 0.980 . S
H1041 C1013 0.983 . S
H1042 C986 0.947 . S
C1043 C986 1.392 . S
C1043 C987 1.419 . S
C1043 H1025 0.948 . S
C1044 C1045 1.391 . S
C1044 C1048 1.391 . S
C1044 H1086 0.948 . S
C1045 C1044 1.391 . S
C1045 C1046 1.391 . S
C1046 C1045 1.391 . S
C1046 H1102 0.947 . S
C1046 C1103 1.392 . S
C1047 C1048 1.391 . S
C1047 C1051 1.397 . S
C1047 C1103 1.419 . S
C1048 C1044 1.391 . S
C1048 C1047 1.391 . S
C1048 C1049 1.399 . S
C1049 C1048 1.399 . S
C1049 C1052 1.396 . S
C1049 C1061 1.453 . S
C1049 C1062 1.684 . S
H1050 C1074 0.948 . S
C1051 C1047 1.397 . S
C1051 C1052 1.394 . S
C1051 C1070 1.723 . S
C1052 C1049 1.396 . S
C1052 C1051 1.394 . S
C1052 C1082 1.723 . S
H1053 C1076 0.947 . S
H1054 C1077 0.948 . S
H1055 C1083 0.982 . S
H1056 C1084 0.979 . S
H1057 C1084 0.980 . S
H1058 C1084 0.983 . S
H1059 C1083 0.979 . S
H1060 C1083 0.977 . S
C1061 C1049 1.453 . S
C1061 H1090 0.982 . S
C1061 H1091 0.979 . S
C1061 H1092 0.977 . S
C1062 C1049 1.684 . S
C1062 H1087 0.979 . S
C1062 H1088 0.980 . S
C1062 H1089 0.983 . S
C1063 C1064 1.391 . S
C1063 C1068 1.391 . S
C1063 H1093 0.948 . S
C1064 C1063 1.391 . S
C1064 C1065 1.391 . S
C1065 C1064 1.391 . S
C1065 C1066 1.392 . S
C1065 H1094 0.947 . S
C1066 C1065 1.392 . S
C1066 C1067 1.419 . S
C1066 H1095 0.948 . S
C1067 C1066 1.419 . S
C1067 C1068 1.391 . S
C1067 C1071 1.397 . S
C1068 C1063 1.391 . S
C1068 C1067 1.391 . S
C1068 C1069 1.399 . S
C1069 C1068 1.399 . S
C1069 C1070 1.396 . S
C1069 C1072 1.453 . S
C1069 C1073 1.684 . S
C1070 C1051 1.723 . S
C1070 C1069 1.396 . S
C1070 C1071 1.394 . S
C1071 C1067 1.397 . S
C1071 C1070 1.394 . S
C1071 C1081 1.723 . S
C1072 C1069 1.453 . S
C1072 H1096 0.982 . S
C1072 H1097 0.979 . S
C1072 H1098 0.977 . S
C1073 C1069 1.684 . S
C1073 H1099 0.979 . S
C1073 H1100 0.980 . S
C1073 H1101 0.983 . S
C1074 H1050 0.948 . S
C1074 C1075 1.391 . S
C1074 C1079 1.391 . S
C1075 C1074 1.391 . S
C1075 C1076 1.391 . S
C1076 H1053 0.947 . S
C1076 C1075 1.391 . S
C1076 C1077 1.392 . S
C1077 H1054 0.948 . S
C1077 C1076 1.392 . S
C1077 C1078 1.419 . S
C1078 C1077 1.419 . S
C1078 C1079 1.391 . S
C1078 C1082 1.397 . S
C1079 C1074 1.391 . S
C1079 C1078 1.391 . S
C1079 C1080 1.399 . S
C1080 C1079 1.399 . S
C1080 C1081 1.396 . S
C1080 C1083 1.453 . S
C1080 C1084 1.684 . S
C1081 C1071 1.723 . S
C1081 C1080 1.396 . S
C1081 C1082 1.394 . S
C1082 C1052 1.723 . S
C1082 C1078 1.397 . S
C1082 C1081 1.394 . S
C1083 H1055 0.982 . S
C1083 H1059 0.979 . S
C1083 H1060 0.977 . S
C1083 C1080 1.453 . S
C1084 H1056 0.979 . S
C1084 H1057 0.980 . S
C1084 H1058 0.983 . S
C1084 C1080 1.684 . S
H1085 C1103 0.948 . S
H1086 C1044 0.948 . S
H1087 C1062 0.979 . S
H1088 C1062 0.980 . S
H1089 C1062 0.983 . S
H1090 C1061 0.982 . S
H1091 C1061 0.979 . S
H1092 C1061 0.977 . S
H1093 C1063 0.948 . S
H1094 C1065 0.947 . S
H1095 C1066 0.948 . S
H1096 C1072 0.982 . S
H1097 C1072 0.979 . S
H1098 C1072 0.977 . S
H1099 C1073 0.979 . S
H1100 C1073 0.980 . S
H1101 C1073 0.983 . S
H1102 C1046 0.947 . S
C1103 C1046 1.392 . S
C1103 C1047 1.419 . S
C1103 H1085 0.948 . S
C1104 C1105 1.391 . S
C1104 C1108 1.391 . S
C1104 H1146 0.948 . S
C1105 C1104 1.391 . S
C1105 C1106 1.391 . S
C1106 C1105 1.391 . S
C1106 H1162 0.947 . S
C1106 C1163 1.392 . S
C1107 C1108 1.391 . S
C1107 C1111 1.397 . S
C1107 C1163 1.419 . S
C1108 C1104 1.391 . S
C1108 C1107 1.391 . S
C1108 C1109 1.399 . S
C1109 C1108 1.399 . S
C1109 C1112 1.396 . S
C1109 C1121 1.453 . S
C1109 C1122 1.684 . S
H1110 C1134 0.948 . S
C1111 C1107 1.397 . S
C1111 C1112 1.394 . S
C1111 C1130 1.723 . S
C1112 C1109 1.396 . S
C1112 C1111 1.394 . S
C1112 C1142 1.723 1_565 S
H1113 C1136 0.947 . S
H1114 C1137 0.948 . S
H1115 C1143 0.982 . S
H1116 C1144 0.979 . S
H1117 C1144 0.980 . S
H1118 C1144 0.983 . S
H1119 C1143 0.979 . S
H1120 C1143 0.977 . S
C1121 C1109 1.453 . S
C1121 H1150 0.982 . S
C1121 H1151 0.979 . S
C1121 H1152 0.977 1_565 S
C1122 C1109 1.684 . S
C1122 H1147 0.979 . S
C1122 H1148 0.980 1_565 S
C1122 H1149 0.983 . S
C1123 C1124 1.391 . S
C1123 C1128 1.391 . S
C1123 H1153 0.948 . S
C1124 C1123 1.391 . S
C1124 C1125 1.391 1_565 S
C1125 C1124 1.391 1_545 S
C1125 C1126 1.392 . S
C1125 H1154 0.947 . S
C1126 C1125 1.392 . S
C1126 C1127 1.419 . S
C1126 H1155 0.948 . S
C1127 C1126 1.419 . S
C1127 C1128 1.391 1_545 S
C1127 C1131 1.397 . S
C1128 C1123 1.391 . S
C1128 C1127 1.391 1_565 S
C1128 C1129 1.399 . S
C1129 C1128 1.399 . S
C1129 C1130 1.396 . S
C1129 C1132 1.453 . S
C1129 C1133 1.684 . S
C1130 C1111 1.723 . S
C1130 C1129 1.396 . S
C1130 C1131 1.394 1_565 S
C1131 C1127 1.397 . S
C1131 C1130 1.394 1_545 S
C1131 C1141 1.723 . S
C1132 C1129 1.453 . S
C1132 H1156 0.982 . S
C1132 H1157 0.979 . S
C1132 H1158 0.977 . S
C1133 C1129 1.684 . S
C1133 H1159 0.979 . S
C1133 H1160 0.980 . S
C1133 H1161 0.983 . S
C1134 H1110 0.948 . S
C1134 C1135 1.391 . S
C1134 C1139 1.391 . S
C1135 C1134 1.391 . S
C1135 C1136 1.391 . S
C1136 H1113 0.947 . S
C1136 C1135 1.391 . S
C1136 C1137 1.392 . S
C1137 H1114 0.948 . S
C1137 C1136 1.392 . S
C1137 C1138 1.419 . S
C1138 C1137 1.419 . S
C1138 C1139 1.391 . S
C1138 C1142 1.397 . S
C1139 C1134 1.391 . S
C1139 C1138 1.391 . S
C1139 C1140 1.399 . S
C1140 C1139 1.399 . S
C1140 C1141 1.396 . S
C1140 C1143 1.453 . S
C1140 C1144 1.684 . S
C1141 C1131 1.723 . S
C1141 C1140 1.396 . S
C1141 C1142 1.394 . S
C1142 C1112 1.723 1_545 S
C1142 C1138 1.397 . S
C1142 C1141 1.394 . S
C1143 H1115 0.982 . S
C1143 H1119 0.979 . S
C1143 H1120 0.977 . S
C1143 C1140 1.453 . S
C1144 H1116 0.979 . S
C1144 H1117 0.980 . S
C1144 H1118 0.983 . S
C1144 C1140 1.684 . S
H1145 C1163 0.948 . S
H1146 C1104 0.948 . S
H1147 C1122 0.979 . S
H1148 C1122 0.980 1_545 S
H1149 C1122 0.983 . S
H1150 C1121 0.982 . S
H1151 C1121 0.979 . S
H1152 C1121 0.977 1_545 S
H1153 C1123 0.948 . S
H1154 C1125 0.947 . S
H1155 C1126 0.948 . S
H1156 C1132 0.982 . S
H1157 C1132 0.979 . S
H1158 C1132 0.977 . S
H1159 C1133 0.979 . S
H1160 C1133 0.980 . S
H1161 C1133 0.983 . S
H1162 C1106 0.947 . S
C1163 C1106 1.392 . S
C1163 C1107 1.419 . S
C1163 H1145 0.948 . S
C1164 C1165 1.391 . S
C1164 C1168 1.391 . S
C1164 H1206 0.948 . S
C1165 C1164 1.391 . S
C1165 C1166 1.391 . S
C1166 C1165 1.391 . S
C1166 H1222 0.947 . S
C1166 C1223 1.392 . S
C1167 C1168 1.391 . S
C1167 C1171 1.397 . S
C1167 C1223 1.419 . S
C1168 C1164 1.391 . S
C1168 C1167 1.391 . S
C1168 C1169 1.399 . S
C1169 C1168 1.399 . S
C1169 C1172 1.396 . S
C1169 C1181 1.453 . S
C1169 C1182 1.684 . S
H1170 C1194 0.948 . S
C1171 C1167 1.397 . S
C1171 C1172 1.394 . S
C1171 C1190 1.723 . S
C1172 C1169 1.396 . S
C1172 C1171 1.394 . S
C1172 C1202 1.723 1_565 S
H1173 C1196 0.947 . S
H1174 C1197 0.948 . S
H1175 C1203 0.982 . S
H1176 C1204 0.979 . S
H1177 C1204 0.980 . S
H1178 C1204 0.983 . S
H1179 C1203 0.979 . S
H1180 C1203 0.977 . S
C1181 C1169 1.453 . S
C1181 H1210 0.982 . S
C1181 H1211 0.979 . S
C1181 H1212 0.977 1_565 S
C1182 C1169 1.684 . S
C1182 H1207 0.979 . S
C1182 H1208 0.980 1_565 S
C1182 H1209 0.983 . S
C1183 C1184 1.391 1_565 S
C1183 C1188 1.391 . S
C1183 H1213 0.948 . S
C1184 C1183 1.391 1_545 S
C1184 C1185 1.391 . S
C1185 C1184 1.391 . S
C1185 C1186 1.392 . S
C1185 H1214 0.947 . S
C1186 C1185 1.392 . S
C1186 C1187 1.419 . S
C1186 H1215 0.948 . S
C1187 C1186 1.419 . S
C1187 C1188 1.391 1_545 S
C1187 C1191 1.397 . S
C1188 C1183 1.391 . S
C1188 C1187 1.391 1_565 S
C1188 C1189 1.399 . S
C1189 C1188 1.399 . S
C1189 C1190 1.396 . S
C1189 C1192 1.453 . S
C1189 C1193 1.684 . S
C1190 C1171 1.723 . S
C1190 C1189 1.396 . S
C1190 C1191 1.394 1_565 S
C1191 C1187 1.397 . S
C1191 C1190 1.394 1_545 S
C1191 C1201 1.723 . S
C1192 C1189 1.453 . S
C1192 H1216 0.982 . S
C1192 H1217 0.979 . S
C1192 H1218 0.977 . S
C1193 C1189 1.684 . S
C1193 H1219 0.979 . S
C1193 H1220 0.980 . S
C1193 H1221 0.983 . S
C1194 H1170 0.948 . S
C1194 C1195 1.391 . S
C1194 C1199 1.391 . S
C1195 C1194 1.391 . S
C1195 C1196 1.391 . S
C1196 H1173 0.947 . S
C1196 C1195 1.391 . S
C1196 C1197 1.392 . S
C1197 H1174 0.948 . S
C1197 C1196 1.392 . S
C1197 C1198 1.419 . S
C1198 C1197 1.419 . S
C1198 C1199 1.391 . S
C1198 C1202 1.397 . S
C1199 C1194 1.391 . S
C1199 C1198 1.391 . S
C1199 C1200 1.399 . S
C1200 C1199 1.399 . S
C1200 C1201 1.396 . S
C1200 C1203 1.453 . S
C1200 C1204 1.684 . S
C1201 C1191 1.723 . S
C1201 C1200 1.396 . S
C1201 C1202 1.394 . S
C1202 C1172 1.723 1_545 S
C1202 C1198 1.397 . S
C1202 C1201 1.394 . S
C1203 H1175 0.982 . S
C1203 H1179 0.979 . S
C1203 H1180 0.977 . S
C1203 C1200 1.453 . S
C1204 H1176 0.979 . S
C1204 H1177 0.980 . S
C1204 H1178 0.983 . S
C1204 C1200 1.684 . S
H1205 C1223 0.948 . S
H1206 C1164 0.948 . S
H1207 C1182 0.979 . S
H1208 C1182 0.980 1_545 S
H1209 C1182 0.983 . S
H1210 C1181 0.982 . S
H1211 C1181 0.979 . S
H1212 C1181 0.977 1_545 S
H1213 C1183 0.948 . S
H1214 C1185 0.947 . S
H1215 C1186 0.948 . S
H1216 C1192 0.982 . S
H1217 C1192 0.979 . S
H1218 C1192 0.977 . S
H1219 C1193 0.979 . S
H1220 C1193 0.980 . S
H1221 C1193 0.983 . S
H1222 C1166 0.947 . S
C1223 C1166 1.392 . S
C1223 C1167 1.419 . S
C1223 H1205 0.948 . S
C1224 C1225 1.391 . S
C1224 C1228 1.391 . S
C1224 H1266 0.948 . S
C1225 C1224 1.391 . S
C1225 C1226 1.391 . S
C1226 C1225 1.391 . S
C1226 H1282 0.947 . S
C1226 C1283 1.392 . S
C1227 C1228 1.391 . S
C1227 C1231 1.397 . S
C1227 C1283 1.419 . S
C1228 C1224 1.391 . S
C1228 C1227 1.391 . S
C1228 C1229 1.399 . S
C1229 C1228 1.399 . S
C1229 C1232 1.396 . S
C1229 C1241 1.453 . S
C1229 C1242 1.684 . S
H1230 C1254 0.948 . S
C1231 C1227 1.397 . S
C1231 C1232 1.394 . S
C1231 C1250 1.723 . S
C1232 C1229 1.396 . S
C1232 C1231 1.394 . S
C1232 C1262 1.723 . S
H1233 C1256 0.947 . S
H1234 C1257 0.948 . S
H1235 C1263 0.982 . S
H1236 C1264 0.979 . S
H1237 C1264 0.980 . S
H1238 C1264 0.983 . S
H1239 C1263 0.979 . S
H1240 C1263 0.977 . S
C1241 C1229 1.453 . S
C1241 H1270 0.982 . S
C1241 H1271 0.979 . S
C1241 H1272 0.977 . S
C1242 C1229 1.684 . S
C1242 H1267 0.979 . S
C1242 H1268 0.980 . S
C1242 H1269 0.983 . S
C1243 C1244 1.391 . S
C1243 C1248 1.391 . S
C1243 H1273 0.948 . S
C1244 C1243 1.391 . S
C1244 C1245 1.391 . S
C1245 C1244 1.391 . S
C1245 C1246 1.392 . S
C1245 H1274 0.947 . S
C1246 C1245 1.392 . S
C1246 C1247 1.419 . S
C1246 H1275 0.948 . S
C1247 C1246 1.419 . S
C1247 C1248 1.391 . S
C1247 C1251 1.397 . S
C1248 C1243 1.391 . S
C1248 C1247 1.391 . S
C1248 C1249 1.399 . S
C1249 C1248 1.399 . S
C1249 C1250 1.396 . S
C1249 C1252 1.453 . S
C1249 C1253 1.684 . S
C1250 C1231 1.723 . S
C1250 C1249 1.396 . S
C1250 C1251 1.394 . S
C1251 C1247 1.397 . S
C1251 C1250 1.394 . S
C1251 C1261 1.723 . S
C1252 C1249 1.453 . S
C1252 H1276 0.982 . S
C1252 H1277 0.979 . S
C1252 H1278 0.977 . S
C1253 C1249 1.684 . S
C1253 H1279 0.979 . S
C1253 H1280 0.980 . S
C1253 H1281 0.983 . S
C1254 H1230 0.948 . S
C1254 C1255 1.391 . S
C1254 C1259 1.391 . S
C1255 C1254 1.391 . S
C1255 C1256 1.391 . S
C1256 H1233 0.947 . S
C1256 C1255 1.391 . S
C1256 C1257 1.392 . S
C1257 H1234 0.948 . S
C1257 C1256 1.392 . S
C1257 C1258 1.419 . S
C1258 C1257 1.419 . S
C1258 C1259 1.391 . S
C1258 C1262 1.397 . S
C1259 C1254 1.391 . S
C1259 C1258 1.391 . S
C1259 C1260 1.399 . S
C1260 C1259 1.399 . S
C1260 C1261 1.396 . S
C1260 C1263 1.453 . S
C1260 C1264 1.684 . S
C1261 C1251 1.723 . S
C1261 C1260 1.396 . S
C1261 C1262 1.394 . S
C1262 C1232 1.723 . S
C1262 C1258 1.397 . S
C1262 C1261 1.394 . S
C1263 H1235 0.982 . S
C1263 H1239 0.979 . S
C1263 H1240 0.977 . S
C1263 C1260 1.453 . S
C1264 H1236 0.979 . S
C1264 H1237 0.980 . S
C1264 H1238 0.983 . S
C1264 C1260 1.684 . S
H1265 C1283 0.948 . S
H1266 C1224 0.948 . S
H1267 C1242 0.979 . S
H1268 C1242 0.980 . S
H1269 C1242 0.983 . S
H1270 C1241 0.982 . S
H1271 C1241 0.979 . S
H1272 C1241 0.977 . S
H1273 C1243 0.948 . S
H1274 C1245 0.947 . S
H1275 C1246 0.948 . S
H1276 C1252 0.982 . S
H1277 C1252 0.979 . S
H1278 C1252 0.977 . S
H1279 C1253 0.979 . S
H1280 C1253 0.980 . S
H1281 C1253 0.983 . S
H1282 C1226 0.947 . S
C1283 C1226 1.392 . S
C1283 C1227 1.419 . S
C1283 H1265 0.948 . S
C1284 C1285 1.391 . S
C1284 C1288 1.391 . S
C1284 H1326 0.948 . S
C1285 C1284 1.391 . S
C1285 C1286 1.391 . S
C1286 C1285 1.391 . S
C1286 H1342 0.947 . S
C1286 C1343 1.392 . S
C1287 C1288 1.391 . S
C1287 C1291 1.397 . S
C1287 C1343 1.419 . S
C1288 C1284 1.391 . S
C1288 C1287 1.391 . S
C1288 C1289 1.399 . S
C1289 C1288 1.399 . S
C1289 C1292 1.396 . S
C1289 C1301 1.453 . S
C1289 C1302 1.684 . S
H1290 C1314 0.948 . S
C1291 C1287 1.397 . S
C1291 C1292 1.394 . S
C1291 C1310 1.723 1_554 S
C1292 C1289 1.396 . S
C1292 C1291 1.394 . S
C1292 C1322 1.723 . S
H1293 C1316 0.947 . S
H1294 C1317 0.948 . S
H1295 C1323 0.982 . S
H1296 C1324 0.979 . S
H1297 C1324 0.980 . S
H1298 C1324 0.983 . S
H1299 C1323 0.979 . S
H1300 C1323 0.977 . S
C1301 C1289 1.453 . S
C1301 H1330 0.982 . S
C1301 H1331 0.979 . S
C1301 H1332 0.977 . S
C1302 C1289 1.684 . S
C1302 H1327 0.979 . S
C1302 H1328 0.980 . S
C1302 H1329 0.983 . S
C1303 C1304 1.391 . S
C1303 C1308 1.391 . S
C1303 H1333 0.948 . S
C1304 C1303 1.391 . S
C1304 C1305 1.391 . S
C1305 C1304 1.391 . S
C1305 C1306 1.392 . S
C1305 H1334 0.947 . S
C1306 C1305 1.392 . S
C1306 C1307 1.419 . S
C1306 H1335 0.948 . S
C1307 C1306 1.419 . S
C1307 C1308 1.391 . S
C1307 C1311 1.397 . S
C1308 C1303 1.391 . S
C1308 C1307 1.391 . S
C1308 C1309 1.399 . S
C1309 C1308 1.399 . S
C1309 C1310 1.396 . S
C1309 C1312 1.453 . S
C1309 C1313 1.684 . S
C1310 C1291 1.723 1_556 S
C1310 C1309 1.396 . S
C1310 C1311 1.394 . S
C1311 C1307 1.397 . S
C1311 C1310 1.394 . S
C1311 C1321 1.723 . S
C1312 C1309 1.453 . S
C1312 H1336 0.982 . S
C1312 H1337 0.979 . S
C1312 H1338 0.977 1_556 S
C1313 C1309 1.684 . S
C1313 H1339 0.979 . S
C1313 H1340 0.980 1_556 S
C1313 H1341 0.983 . S
C1314 H1290 0.948 . S
C1314 C1315 1.391 1_556 S
C1314 C1319 1.391 . S
C1315 C1314 1.391 1_554 S
C1315 C1316 1.391 . S
C1316 H1293 0.947 . S
C1316 C1315 1.391 . S
C1316 C1317 1.392 . S
C1317 H1294 0.948 . S
C1317 C1316 1.392 . S
C1317 C1318 1.419 . S
C1318 C1317 1.419 . S
C1318 C1319 1.391 1_554 S
C1318 C1322 1.397 . S
C1319 C1314 1.391 . S
C1319 C1318 1.391 1_556 S
C1319 C1320 1.399 . S
C1320 C1319 1.399 . S
C1320 C1321 1.396 . S
C1320 C1323 1.453 . S
C1320 C1324 1.684 . S
C1321 C1311 1.723 . S
C1321 C1320 1.396 . S
C1321 C1322 1.394 1_556 S
C1322 C1292 1.723 . S
C1322 C1318 1.397 . S
C1322 C1321 1.394 1_554 S
C1323 H1295 0.982 . S
C1323 H1299 0.979 . S
C1323 H1300 0.977 . S
C1323 C1320 1.453 . S
C1324 H1296 0.979 . S
C1324 H1297 0.980 . S
C1324 H1298 0.983 . S
C1324 C1320 1.684 . S
H1325 C1343 0.948 . S
H1326 C1284 0.948 . S
H1327 C1302 0.979 . S
H1328 C1302 0.980 . S
H1329 C1302 0.983 . S
H1330 C1301 0.982 . S
H1331 C1301 0.979 . S
H1332 C1301 0.977 . S
H1333 C1303 0.948 . S
H1334 C1305 0.947 . S
H1335 C1306 0.948 . S
H1336 C1312 0.982 . S
H1337 C1312 0.979 . S
H1338 C1312 0.977 1_554 S
H1339 C1313 0.979 . S
H1340 C1313 0.980 1_554 S
H1341 C1313 0.983 . S
H1342 C1286 0.947 . S
C1343 C1286 1.392 . S
C1343 C1287 1.419 . S
C1343 H1325 0.948 . S
C1344 C1345 1.391 . S
C1344 C1348 1.391 . S
C1344 H1386 0.948 . S
C1345 C1344 1.391 . S
C1345 C1346 1.391 . S
C1346 C1345 1.391 . S
C1346 H1402 0.947 . S
C1346 C1403 1.392 . S
C1347 C1348 1.391 . S
C1347 C1351 1.397 . S
C1347 C1403 1.419 . S
C1348 C1344 1.391 . S
C1348 C1347 1.391 . S
C1348 C1349 1.399 . S
C1349 C1348 1.399 . S
C1349 C1352 1.396 . S
C1349 C1361 1.453 . S
C1349 C1362 1.684 . S
H1350 C1374 0.948 . S
C1351 C1347 1.397 . S
C1351 C1352 1.394 . S
C1351 C1370 1.723 . S
C1352 C1349 1.396 . S
C1352 C1351 1.394 . S
C1352 C1382 1.723 . S
H1353 C1376 0.947 . S
H1354 C1377 0.948 . S
H1355 C1383 0.982 . S
H1356 C1384 0.979 . S
H1357 C1384 0.980 . S
H1358 C1384 0.983 . S
H1359 C1383 0.979 . S
H1360 C1383 0.977 . S
C1361 C1349 1.453 . S
C1361 H1390 0.982 . S
C1361 H1391 0.979 . S
C1361 H1392 0.977 . S
C1362 C1349 1.684 . S
C1362 H1387 0.979 . S
C1362 H1388 0.980 . S
C1362 H1389 0.983 . S
C1363 C1364 1.391 . S
C1363 C1368 1.391 . S
C1363 H1393 0.948 . S
C1364 C1363 1.391 . S
C1364 C1365 1.391 . S
C1365 C1364 1.391 . S
C1365 C1366 1.392 . S
C1365 H1394 0.947 . S
C1366 C1365 1.392 . S
C1366 C1367 1.419 . S
C1366 H1395 0.948 . S
C1367 C1366 1.419 . S
C1367 C1368 1.391 . S
C1367 C1371 1.397 . S
C1368 C1363 1.391 . S
C1368 C1367 1.391 . S
C1368 C1369 1.399 . S
C1369 C1368 1.399 . S
C1369 C1370 1.396 . S
C1369 C1372 1.453 . S
C1369 C1373 1.684 . S
C1370 C1351 1.723 . S
C1370 C1369 1.396 . S
C1370 C1371 1.394 . S
C1371 C1367 1.397 . S
C1371 C1370 1.394 . S
C1371 C1381 1.723 . S
C1372 C1369 1.453 . S
C1372 H1396 0.982 . S
C1372 H1397 0.979 . S
C1372 H1398 0.977 . S
C1373 C1369 1.684 . S
C1373 H1399 0.979 . S
C1373 H1400 0.980 . S
C1373 H1401 0.983 . S
C1374 H1350 0.948 . S
C1374 C1375 1.391 . S
C1374 C1379 1.391 . S
C1375 C1374 1.391 . S
C1375 C1376 1.391 . S
C1376 H1353 0.947 . S
C1376 C1375 1.391 . S
C1376 C1377 1.392 . S
C1377 H1354 0.948 . S
C1377 C1376 1.392 . S
C1377 C1378 1.419 . S
C1378 C1377 1.419 . S
C1378 C1379 1.391 . S
C1378 C1382 1.397 . S
C1379 C1374 1.391 . S
C1379 C1378 1.391 . S
C1379 C1380 1.399 . S
C1380 C1379 1.399 . S
C1380 C1381 1.396 . S
C1380 C1383 1.453 . S
C1380 C1384 1.684 . S
C1381 C1371 1.723 . S
C1381 C1380 1.396 . S
C1381 C1382 1.394 . S
C1382 C1352 1.723 . S
C1382 C1378 1.397 . S
C1382 C1381 1.394 . S
C1383 H1355 0.982 . S
C1383 H1359 0.979 . S
C1383 H1360 0.977 . S
C1383 C1380 1.453 . S
C1384 H1356 0.979 . S
C1384 H1357 0.980 . S
C1384 H1358 0.983 . S
C1384 C1380 1.684 . S
H1385 C1403 0.948 . S
H1386 C1344 0.948 . S
H1387 C1362 0.979 . S
H1388 C1362 0.980 . S
H1389 C1362 0.983 . S
H1390 C1361 0.982 . S
H1391 C1361 0.979 . S
H1392 C1361 0.977 . S
H1393 C1363 0.948 . S
H1394 C1365 0.947 . S
H1395 C1366 0.948 . S
H1396 C1372 0.982 . S
H1397 C1372 0.979 . S
H1398 C1372 0.977 . S
H1399 C1373 0.979 . S
H1400 C1373 0.980 . S
H1401 C1373 0.983 . S
H1402 C1346 0.947 . S
C1403 C1346 1.392 . S
C1403 C1347 1.419 . S
C1403 H1385 0.948 . S
C1404 C1405 1.391 . S
C1404 C1408 1.391 . S
C1404 H1446 0.948 . S
C1405 C1404 1.391 . S
C1405 C1406 1.391 . S
C1406 C1405 1.391 . S
C1406 H1462 0.947 . S
C1406 C1463 1.392 . S
C1407 C1408 1.391 . S
C1407 C1411 1.397 . S
C1407 C1463 1.419 . S
C1408 C1404 1.391 . S
C1408 C1407 1.391 . S
C1408 C1409 1.399 . S
C1409 C1408 1.399 . S
C1409 C1412 1.396 . S
C1409 C1421 1.453 . S
C1409 C1422 1.684 . S
H1410 C1434 0.948 . S
C1411 C1407 1.397 . S
C1411 C1412 1.394 . S
C1411 C1430 1.723 1_556 S
C1412 C1409 1.396 . S
C1412 C1411 1.394 . S
C1412 C1442 1.723 . S
H1413 C1436 0.947 . S
H1414 C1437 0.948 . S
H1415 C1443 0.982 . S
H1416 C1444 0.979 . S
H1417 C1444 0.980 . S
H1418 C1444 0.983 . S
H1419 C1443 0.979 . S
H1420 C1443 0.977 . S
C1421 C1409 1.453 . S
C1421 H1450 0.982 . S
C1421 H1451 0.979 . S
C1421 H1452 0.977 . S
C1422 C1409 1.684 . S
C1422 H1447 0.979 . S
C1422 H1448 0.980 . S
C1422 H1449 0.983 . S
C1423 C1424 1.391 . S
C1423 C1428 1.391 . S
C1423 H1453 0.948 . S
C1424 C1423 1.391 . S
C1424 C1425 1.391 . S
C1425 C1424 1.391 . S
C1425 C1426 1.392 . S
C1425 H1454 0.947 . S
C1426 C1425 1.392 . S
C1426 C1427 1.419 . S
C1426 H1455 0.948 . S
C1427 C1426 1.419 . S
C1427 C1428 1.391 . S
C1427 C1431 1.397 . S
C1428 C1423 1.391 . S
C1428 C1427 1.391 . S
C1428 C1429 1.399 . S
C1429 C1428 1.399 . S
C1429 C1430 1.396 . S
C1429 C1432 1.453 . S
C1429 C1433 1.684 . S
C1430 C1411 1.723 1_554 S
C1430 C1429 1.396 . S
C1430 C1431 1.394 . S
C1431 C1427 1.397 . S
C1431 C1430 1.394 . S
C1431 C1441 1.723 . S
C1432 C1429 1.453 . S
C1432 H1456 0.982 . S
C1432 H1457 0.979 . S
C1432 H1458 0.977 . S
C1433 C1429 1.684 . S
C1433 H1459 0.979 . S
C1433 H1460 0.980 . S
C1433 H1461 0.983 . S
C1434 H1410 0.948 . S
C1434 C1435 1.391 1_554 S
C1434 C1439 1.391 . S
C1435 C1434 1.391 1_556 S
C1435 C1436 1.391 . S
C1436 H1413 0.947 . S
C1436 C1435 1.391 . S
C1436 C1437 1.392 . S
C1437 H1414 0.948 . S
C1437 C1436 1.392 . S
C1437 C1438 1.419 . S
C1438 C1437 1.419 . S
C1438 C1439 1.391 1_556 S
C1438 C1442 1.397 . S
C1439 C1434 1.391 . S
C1439 C1438 1.391 1_554 S
C1439 C1440 1.399 . S
C1440 C1439 1.399 . S
C1440 C1441 1.396 . S
C1440 C1443 1.453 . S
C1440 C1444 1.684 . S
C1441 C1431 1.723 . S
C1441 C1440 1.396 . S
C1441 C1442 1.394 1_554 S
C1442 C1412 1.723 . S
C1442 C1438 1.397 . S
C1442 C1441 1.394 1_556 S
C1443 H1415 0.982 . S
C1443 H1419 0.979 . S
C1443 H1420 0.977 . S
C1443 C1440 1.453 . S
C1444 H1416 0.979 . S
C1444 H1417 0.980 . S
C1444 H1418 0.983 . S
C1444 C1440 1.684 . S
H1445 C1463 0.948 . S
H1446 C1404 0.948 . S
H1447 C1422 0.979 . S
H1448 C1422 0.980 . S
H1449 C1422 0.983 . S
H1450 C1421 0.982 . S
H1451 C1421 0.979 . S
H1452 C1421 0.977 . S
H1453 C1423 0.948 . S
H1454 C1425 0.947 . S
H1455 C1426 0.948 . S
H1456 C1432 0.982 . S
H1457 C1432 0.979 . S
H1458 C1432 0.977 . S
H1459 C1433 0.979 . S
H1460 C1433 0.980 . S
H1461 C1433 0.983 . S
H1462 C1406 0.947 . S
C1463 C1406 1.392 . S
C1463 C1407 1.419 . S
C1463 H1445 0.948 . S
C1464 C1465 1.391 . S
C1464 C1468 1.391 . S
C1464 H1506 0.948 . S
C1465 C1464 1.391 . S
C1465 C1466 1.391 . S
C1466 C1465 1.391 . S
C1466 H1522 0.947 . S
C1466 C1523 1.392 . S
C1467 C1468 1.391 . S
C1467 C1471 1.397 . S
C1467 C1523 1.419 . S
C1468 C1464 1.391 . S
C1468 C1467 1.391 . S
C1468 C1469 1.399 . S
C1469 C1468 1.399 . S
C1469 C1472 1.396 . S
C1469 C1481 1.453 . S
C1469 C1482 1.684 . S
H1470 C1494 0.948 . S
C1471 C1467 1.397 . S
C1471 C1472 1.394 . S
C1471 C1490 1.723 . S
C1472 C1469 1.396 . S
C1472 C1471 1.394 . S
C1472 C1502 1.723 . S
H1473 C1496 0.947 . S
H1474 C1497 0.948 . S
H1475 C1503 0.982 . S
H1476 C1504 0.979 . S
H1477 C1504 0.980 . S
H1478 C1504 0.983 . S
H1479 C1503 0.979 . S
H1480 C1503 0.977 . S
C1481 C1469 1.453 . S
C1481 H1510 0.982 . S
C1481 H1511 0.979 . S
C1481 H1512 0.977 . S
C1482 C1469 1.684 . S
C1482 H1507 0.979 . S
C1482 H1508 0.980 . S
C1482 H1509 0.983 . S
C1483 C1484 1.391 . S
C1483 C1488 1.391 . S
C1483 H1513 0.948 . S
C1484 C1483 1.391 . S
C1484 C1485 1.391 . S
C1485 C1484 1.391 . S
C1485 C1486 1.392 . S
C1485 H1514 0.947 . S
C1486 C1485 1.392 . S
C1486 C1487 1.419 . S
C1486 H1515 0.948 . S
C1487 C1486 1.419 . S
C1487 C1488 1.391 . S
C1487 C1491 1.397 . S
C1488 C1483 1.391 . S
C1488 C1487 1.391 . S
C1488 C1489 1.399 . S
C1489 C1488 1.399 . S
C1489 C1490 1.396 . S
C1489 C1492 1.453 . S
C1489 C1493 1.684 . S
C1490 C1471 1.723 . S
C1490 C1489 1.396 . S
C1490 C1491 1.394 . S
C1491 C1487 1.397 . S
C1491 C1490 1.394 . S
C1491 C1501 1.723 . S
C1492 C1489 1.453 . S
C1492 H1516 0.982 . S
C1492 H1517 0.979 . S
C1492 H1518 0.977 . S
C1493 C1489 1.684 . S
C1493 H1519 0.979 . S
C1493 H1520 0.980 . S
C1493 H1521 0.983 . S
C1494 H1470 0.948 . S
C1494 C1495 1.391 . S
C1494 C1499 1.391 . S
C1495 C1494 1.391 . S
C1495 C1496 1.391 . S
C1496 H1473 0.947 . S
C1496 C1495 1.391 . S
C1496 C1497 1.392 . S
C1497 H1474 0.948 . S
C1497 C1496 1.392 . S
C1497 C1498 1.419 . S
C1498 C1497 1.419 . S
C1498 C1499 1.391 . S
C1498 C1502 1.397 . S
C1499 C1494 1.391 . S
C1499 C1498 1.391 . S
C1499 C1500 1.399 . S
C1500 C1499 1.399 . S
C1500 C1501 1.396 . S
C1500 C1503 1.453 . S
C1500 C1504 1.684 . S
C1501 C1491 1.723 . S
C1501 C1500 1.396 . S
C1501 C1502 1.394 . S
C1502 C1472 1.723 . S
C1502 C1498 1.397 . S
C1502 C1501 1.394 . S
C1503 H1475 0.982 . S
C1503 H1479 0.979 . S
C1503 H1480 0.977 . S
C1503 C1500 1.453 . S
C1504 H1476 0.979 . S
C1504 H1477 0.980 . S
C1504 H1478 0.983 . S
C1504 C1500 1.684 . S
H1505 C1523 0.948 . S
H1506 C1464 0.948 . S
H1507 C1482 0.979 . S
H1508 C1482 0.980 . S
H1509 C1482 0.983 . S
H1510 C1481 0.982 . S
H1511 C1481 0.979 . S
H1512 C1481 0.977 . S
H1513 C1483 0.948 . S
H1514 C1485 0.947 . S
H1515 C1486 0.948 . S
H1516 C1492 0.982 . S
H1517 C1492 0.979 . S
H1518 C1492 0.977 . S
H1519 C1493 0.979 . S
H1520 C1493 0.980 . S
H1521 C1493 0.983 . S
H1522 C1466 0.947 . S
C1523 C1466 1.392 . S
C1523 C1467 1.419 . S
C1523 H1505 0.948 . S
C1524 C1525 1.391 1_655 S
C1524 C1528 1.391 . S
C1524 H1566 0.948 . S
C1525 C1524 1.391 1_455 S
C1525 C1526 1.391 . S
C1526 C1525 1.391 . S
C1526 H1582 0.947 . S
C1526 C1583 1.392 . S
C1527 C1528 1.391 1_455 S
C1527 C1531 1.397 . S
C1527 C1583 1.419 . S
C1528 C1524 1.391 . S
C1528 C1527 1.391 1_655 S
C1528 C1529 1.399 . S
C1529 C1528 1.399 . S
C1529 C1532 1.396 . S
C1529 C1541 1.453 . S
C1529 C1542 1.684 . S
H1530 C1554 0.948 . S
C1531 C1527 1.397 . S
C1531 C1532 1.394 1_455 S
C1531 C1550 1.723 . S
C1532 C1529 1.396 . S
C1532 C1531 1.394 1_655 S
C1532 C1562 1.723 . S
H1533 C1556 0.947 . S
H1534 C1557 0.948 . S
H1535 C1563 0.982 . S
H1536 C1564 0.979 . S
H1537 C1564 0.980 1_455 S
H1538 C1564 0.983 . S
H1539 C1563 0.979 . S
H1540 C1563 0.977 1_455 S
C1541 C1529 1.453 . S
C1541 H1570 0.982 . S
C1541 H1571 0.979 . S
C1541 H1572 0.977 . S
C1542 C1529 1.684 . S
C1542 H1567 0.979 . S
C1542 H1568 0.980 . S
C1542 H1569 0.983 . S
C1543 C1544 1.391 . S
C1543 C1548 1.391 . S
C1543 H1573 0.948 . S
C1544 C1543 1.391 . S
C1544 C1545 1.391 . S
C1545 C1544 1.391 . S
C1545 C1546 1.392 . S
C1545 H1574 0.947 . S
C1546 C1545 1.392 . S
C1546 C1547 1.419 . S
C1546 H1575 0.948 . S
C1547 C1546 1.419 . S
C1547 C1548 1.391 . S
C1547 C1551 1.397 . S
C1548 C1543 1.391 . S
C1548 C1547 1.391 . S
C1548 C1549 1.399 . S
C1549 C1548 1.399 . S
C1549 C1550 1.396 . S
C1549 C1552 1.453 . S
C1549 C1553 1.684 . S
C1550 C1531 1.723 . S
C1550 C1549 1.396 . S
C1550 C1551 1.394 . S
C1551 C1547 1.397 . S
C1551 C1550 1.394 . S
C1551 C1561 1.723 1_455 S
C1552 C1549 1.453 . S
C1552 H1576 0.982 . S
C1552 H1577 0.979 . S
C1552 H1578 0.977 . S
C1553 C1549 1.684 . S
C1553 H1579 0.979 . S
C1553 H1580 0.980 . S
C1553 H1581 0.983 . S
C1554 H1530 0.948 . S
C1554 C1555 1.391 . S
C1554 C1559 1.391 . S
C1555 C1554 1.391 . S
C1555 C1556 1.391 . S
C1556 H1533 0.947 . S
C1556 C1555 1.391 . S
C1556 C1557 1.392 . S
C1557 H1534 0.948 . S
C1557 C1556 1.392 . S
C1557 C1558 1.419 . S
C1558 C1557 1.419 . S
C1558 C1559 1.391 . S
C1558 C1562 1.397 . S
C1559 C1554 1.391 . S
C1559 C1558 1.391 . S
C1559 C1560 1.399 . S
C1560 C1559 1.399 . S
C1560 C1561 1.396 . S
C1560 C1563 1.453 . S
C1560 C1564 1.684 . S
C1561 C1551 1.723 1_655 S
C1561 C1560 1.396 . S
C1561 C1562 1.394 . S
C1562 C1532 1.723 . S
C1562 C1558 1.397 . S
C1562 C1561 1.394 . S
C1563 H1535 0.982 . S
C1563 H1539 0.979 . S
C1563 H1540 0.977 1_655 S
C1563 C1560 1.453 . S
C1564 H1536 0.979 . S
C1564 H1537 0.980 1_655 S
C1564 H1538 0.983 . S
C1564 C1560 1.684 . S
H1565 C1583 0.948 . S
H1566 C1524 0.948 . S
H1567 C1542 0.979 . S
H1568 C1542 0.980 . S
H1569 C1542 0.983 . S
H1570 C1541 0.982 . S
H1571 C1541 0.979 . S
H1572 C1541 0.977 . S
H1573 C1543 0.948 . S
H1574 C1545 0.947 . S
H1575 C1546 0.948 . S
H1576 C1552 0.982 . S
H1577 C1552 0.979 . S
H1578 C1552 0.977 . S
H1579 C1553 0.979 . S
H1580 C1553 0.980 . S
H1581 C1553 0.983 . S
H1582 C1526 0.947 . S
C1583 C1526 1.392 . S
C1583 C1527 1.419 . S
C1583 H1565 0.948 . S
C1584 C1585 1.391 . S
C1584 C1588 1.391 . S
C1584 H1626 0.948 . S
C1585 C1584 1.391 . S
C1585 C1586 1.391 . S
C1586 C1585 1.391 . S
C1586 H1642 0.947 . S
C1586 C1643 1.392 . S
C1587 C1588 1.391 . S
C1587 C1591 1.397 . S
C1587 C1643 1.419 . S
C1588 C1584 1.391 . S
C1588 C1587 1.391 . S
C1588 C1589 1.399 . S
C1589 C1588 1.399 . S
C1589 C1592 1.396 . S
C1589 C1601 1.453 . S
C1589 C1602 1.684 . S
H1590 C1614 0.948 . S
C1591 C1587 1.397 . S
C1591 C1592 1.394 . S
C1591 C1610 1.723 . S
C1592 C1589 1.396 . S
C1592 C1591 1.394 . S
C1592 C1622 1.723 . S
H1593 C1616 0.947 . S
H1594 C1617 0.948 . S
H1595 C1623 0.982 . S
H1596 C1624 0.979 . S
H1597 C1624 0.980 . S
H1598 C1624 0.983 . S
H1599 C1623 0.979 . S
H1600 C1623 0.977 . S
C1601 C1589 1.453 . S
C1601 H1630 0.982 . S
C1601 H1631 0.979 . S
C1601 H1632 0.977 . S
C1602 C1589 1.684 . S
C1602 H1627 0.979 . S
C1602 H1628 0.980 . S
C1602 H1629 0.983 . S
C1603 C1604 1.391 . S
C1603 C1608 1.391 . S
C1603 H1633 0.948 . S
C1604 C1603 1.391 . S
C1604 C1605 1.391 . S
C1605 C1604 1.391 . S
C1605 C1606 1.392 . S
C1605 H1634 0.947 . S
C1606 C1605 1.392 . S
C1606 C1607 1.419 . S
C1606 H1635 0.948 . S
C1607 C1606 1.419 . S
C1607 C1608 1.391 . S
C1607 C1611 1.397 . S
C1608 C1603 1.391 . S
C1608 C1607 1.391 . S
C1608 C1609 1.399 . S
C1609 C1608 1.399 . S
C1609 C1610 1.396 . S
C1609 C1612 1.453 . S
C1609 C1613 1.684 . S
C1610 C1591 1.723 . S
C1610 C1609 1.396 . S
C1610 C1611 1.394 . S
C1611 C1607 1.397 . S
C1611 C1610 1.394 . S
C1611 C1621 1.723 . S
C1612 C1609 1.453 . S
C1612 H1636 0.982 . S
C1612 H1637 0.979 . S
C1612 H1638 0.977 . S
C1613 C1609 1.684 . S
C1613 H1639 0.979 . S
C1613 H1640 0.980 . S
C1613 H1641 0.983 . S
C1614 H1590 0.948 . S
C1614 C1615 1.391 . S
C1614 C1619 1.391 . S
C1615 C1614 1.391 . S
C1615 C1616 1.391 . S
C1616 H1593 0.947 . S
C1616 C1615 1.391 . S
C1616 C1617 1.392 . S
C1617 H1594 0.948 . S
C1617 C1616 1.392 . S
C1617 C1618 1.419 . S
C1618 C1617 1.419 . S
C1618 C1619 1.391 . S
C1618 C1622 1.397 . S
C1619 C1614 1.391 . S
C1619 C1618 1.391 . S
C1619 C1620 1.399 . S
C1620 C1619 1.399 . S
C1620 C1621 1.396 . S
C1620 C1623 1.453 . S
C1620 C1624 1.684 . S
C1621 C1611 1.723 . S
C1621 C1620 1.396 . S
C1621 C1622 1.394 . S
C1622 C1592 1.723 . S
C1622 C1618 1.397 . S
C1622 C1621 1.394 . S
C1623 H1595 0.982 . S
C1623 H1599 0.979 . S
C1623 H1600 0.977 . S
C1623 C1620 1.453 . S
C1624 H1596 0.979 . S
C1624 H1597 0.980 . S
C1624 H1598 0.983 . S
C1624 C1620 1.684 . S
H1625 C1643 0.948 . S
H1626 C1584 0.948 . S
H1627 C1602 0.979 . S
H1628 C1602 0.980 . S
H1629 C1602 0.983 . S
H1630 C1601 0.982 . S
H1631 C1601 0.979 . S
H1632 C1601 0.977 . S
H1633 C1603 0.948 . S
H1634 C1605 0.947 . S
H1635 C1606 0.948 . S
H1636 C1612 0.982 . S
H1637 C1612 0.979 . S
H1638 C1612 0.977 . S
H1639 C1613 0.979 . S
H1640 C1613 0.980 . S
H1641 C1613 0.983 . S
H1642 C1586 0.947 . S
C1643 C1586 1.392 . S
C1643 C1587 1.419 . S
C1643 H1625 0.948 . S
C1644 C1645 1.391 . S
C1644 C1648 1.391 . S
C1644 H1686 0.948 . S
C1645 C1644 1.391 . S
C1645 C1646 1.391 . S
C1646 C1645 1.391 . S
C1646 H1702 0.947 . S
C1646 C1703 1.392 . S
C1647 C1648 1.391 . S
C1647 C1651 1.397 . S
C1647 C1703 1.419 . S
C1648 C1644 1.391 . S
C1648 C1647 1.391 . S
C1648 C1649 1.399 . S
C1649 C1648 1.399 . S
C1649 C1652 1.396 . S
C1649 C1661 1.453 . S
C1649 C1662 1.684 . S
H1650 C1674 0.948 . S
C1651 C1647 1.397 . S
C1651 C1652 1.394 . S
C1651 C1670 1.723 . S
C1652 C1649 1.396 . S
C1652 C1651 1.394 . S
C1652 C1682 1.723 1_455 S
H1653 C1676 0.947 . S
H1654 C1677 0.948 . S
H1655 C1683 0.982 . S
H1656 C1684 0.979 . S
H1657 C1684 0.980 . S
H1658 C1684 0.983 . S
H1659 C1683 0.979 . S
H1660 C1683 0.977 . S
C1661 C1649 1.453 . S
C1661 H1690 0.982 . S
C1661 H1691 0.979 . S
C1661 H1692 0.977 . S
C1662 C1649 1.684 . S
C1662 H1687 0.979 . S
C1662 H1688 0.980 . S
C1662 H1689 0.983 . S
C1663 C1664 1.391 1_455 S
C1663 C1668 1.391 . S
C1663 H1693 0.948 . S
C1664 C1663 1.391 1_655 S
C1664 C1665 1.391 . S
C1665 C1664 1.391 . S
C1665 C1666 1.392 . S
C1665 H1694 0.947 . S
C1666 C1665 1.392 . S
C1666 C1667 1.419 . S
C1666 H1695 0.948 . S
C1667 C1666 1.419 . S
C1667 C1668 1.391 1_655 S
C1667 C1671 1.397 . S
C1668 C1663 1.391 . S
C1668 C1667 1.391 1_455 S
C1668 C1669 1.399 . S
C1669 C1668 1.399 . S
C1669 C1670 1.396 . S
C1669 C1672 1.453 . S
C1669 C1673 1.684 . S
C1670 C1651 1.723 . S
C1670 C1669 1.396 . S
C1670 C1671 1.394 1_455 S
C1671 C1667 1.397 . S
C1671 C1670 1.394 1_655 S
C1671 C1681 1.723 . S
C1672 C1669 1.453 . S
C1672 H1696 0.982 . S
C1672 H1697 0.979 . S
C1672 H1698 0.977 . S
C1673 C1669 1.684 . S
C1673 H1699 0.979 . S
C1673 H1700 0.980 . S
C1673 H1701 0.983 . S
C1674 H1650 0.948 . S
C1674 C1675 1.391 . S
C1674 C1679 1.391 . S
C1675 C1674 1.391 . S
C1675 C1676 1.391 . S
C1676 H1653 0.947 . S
C1676 C1675 1.391 . S
C1676 C1677 1.392 . S
C1677 H1654 0.948 . S
C1677 C1676 1.392 . S
C1677 C1678 1.419 . S
C1678 C1677 1.419 . S
C1678 C1679 1.391 . S
C1678 C1682 1.397 . S
C1679 C1674 1.391 . S
C1679 C1678 1.391 . S
C1679 C1680 1.399 . S
C1680 C1679 1.399 . S
C1680 C1681 1.396 . S
C1680 C1683 1.453 . S
C1680 C1684 1.684 . S
C1681 C1671 1.723 . S
C1681 C1680 1.396 . S
C1681 C1682 1.394 . S
C1682 C1652 1.723 1_655 S
C1682 C1678 1.397 . S
C1682 C1681 1.394 . S
C1683 H1655 0.982 . S
C1683 H1659 0.979 . S
C1683 H1660 0.977 . S
C1683 C1680 1.453 . S
C1684 H1656 0.979 . S
C1684 H1657 0.980 . S
C1684 H1658 0.983 . S
C1684 C1680 1.684 . S
H1685 C1703 0.948 . S
H1686 C1644 0.948 . S
H1687 C1662 0.979 . S
H1688 C1662 0.980 . S
H1689 C1662 0.983 . S
H1690 C1661 0.982 . S
H1691 C1661 0.979 . S
H1692 C1661 0.977 . S
H1693 C1663 0.948 . S
H1694 C1665 0.947 . S
H1695 C1666 0.948 . S
H1696 C1672 0.982 . S
H1697 C1672 0.979 . S
H1698 C1672 0.977 . S
H1699 C1673 0.979 . S
H1700 C1673 0.980 . S
H1701 C1673 0.983 . S
H1702 C1646 0.947 . S
C1703 C1646 1.392 . S
C1703 C1647 1.419 . S
C1703 H1685 0.948 . S
C1704 C1705 1.349 . S
C1704 C1706 1.327 . S
C1704 H1729 0.950 . S
C1705 C1704 1.349 . S
C1705 C1721 1.349 . S
C1706 C1704 1.327 . S
C1706 C1725 1.429 . S
C1706 H1730 0.950 . S
C1707 C1724 1.574 . S
C1707 C1726 1.368 . S
C1707 H1731 0.949 . S
H1708 C1712 0.949 . S
C1709 C1710 1.349 . S
C1709 C1711 1.327 . S
C1709 H1732 0.950 . S
C1710 C1709 1.349 . S
C1710 C1722 1.349 . S
C1711 C1709 1.327 . S
C1711 C1727 1.429 . S
C1711 H1733 0.950 . S
C1712 H1708 0.949 . S
C1712 C1720 1.574 . S
C1712 C1728 1.368 . S
H1713 C1721 0.950 . S
H1714 C1719 0.950 . S
H1715 C1720 0.949 . S
H1716 C1722 0.950 . S
H1717 C1723 0.950 . S
H1718 C1724 0.949 . S
C1719 H1714 0.950 . S
C1719 C1721 1.327 . S
C1719 C1725 1.429 . S
C1720 C1712 1.574 . S
C1720 H1715 0.949 . S
C1720 C1726 1.368 . S
C1721 C1705 1.349 . S
C1721 H1713 0.950 . S
C1721 C1719 1.327 . S
C1722 C1710 1.349 . S
C1722 H1716 0.950 . S
C1722 C1723 1.327 . S
C1723 H1717 0.950 . S
C1723 C1722 1.327 . S
C1723 C1727 1.429 . S
C1724 C1707 1.574 . S
C1724 H1718 0.949 . S
C1724 C1728 1.368 . S
C1725 C1706 1.429 . S
C1725 C1719 1.429 . S
C1725 C1726 1.523 . S
C1726 C1707 1.368 . S
C1726 C1720 1.368 . S
C1726 C1725 1.523 . S
C1727 C1711 1.429 . S
C1727 C1723 1.429 . S
C1727 C1728 1.523 . S
C1728 C1712 1.368 . S
C1728 C1724 1.368 . S
C1728 C1727 1.523 . S
H1729 C1704 0.950 . S
H1730 C1706 0.950 . S
H1731 C1707 0.949 . S
H1732 C1709 0.950 . S
H1733 C1711 0.950 . S
C1734 C1735 1.349 . S
C1734 C1736 1.327 . S
C1734 H1759 0.950 . S
C1735 C1734 1.349 . S
C1735 C1751 1.349 . S
C1736 C1734 1.327 . S
C1736 C1755 1.429 . S
C1736 H1760 0.950 . S
C1737 C1754 1.574 . S
C1737 C1756 1.368 . S
C1737 H1761 0.949 . S
H1738 C1742 0.949 . S
C1739 C1740 1.349 . S
C1739 C1741 1.327 . S
C1739 H1762 0.950 . S
C1740 C1739 1.349 . S
C1740 C1752 1.349 . S
C1741 C1739 1.327 . S
C1741 C1757 1.429 . S
C1741 H1763 0.950 . S
C1742 H1738 0.949 . S
C1742 C1750 1.574 . S
C1742 C1758 1.368 . S
H1743 C1751 0.950 . S
H1744 C1749 0.950 . S
H1745 C1750 0.949 . S
H1746 C1752 0.950 . S
H1747 C1753 0.950 . S
H1748 C1754 0.949 . S
C1749 H1744 0.950 . S
C1749 C1751 1.327 . S
C1749 C1755 1.429 . S
C1750 C1742 1.574 . S
C1750 H1745 0.949 . S
C1750 C1756 1.368 . S
C1751 C1735 1.349 . S
C1751 H1743 0.950 . S
C1751 C1749 1.327 . S
C1752 C1740 1.349 . S
C1752 H1746 0.950 . S
C1752 C1753 1.327 . S
C1753 H1747 0.950 . S
C1753 C1752 1.327 . S
C1753 C1757 1.429 . S
C1754 C1737 1.574 . S
C1754 H1748 0.949 . S
C1754 C1758 1.368 . S
C1755 C1736 1.429 . S
C1755 C1749 1.429 . S
C1755 C1756 1.523 . S
C1756 C1737 1.368 . S
C1756 C1750 1.368 . S
C1756 C1755 1.523 . S
C1757 C1741 1.429 . S
C1757 C1753 1.429 . S
C1757 C1758 1.523 . S
C1758 C1742 1.368 . S
C1758 C1754 1.368 . S
C1758 C1757 1.523 . S
H1759 C1734 0.950 . S
H1760 C1736 0.950 . S
H1761 C1737 0.949 . S
H1762 C1739 0.950 . S
H1763 C1741 0.950 . S
C1764 C1765 1.349 . S
C1764 C1766 1.327 . S
C1764 H1789 0.950 . S
C1765 C1764 1.349 . S
C1765 C1781 1.349 . S
C1766 C1764 1.327 . S
C1766 C1785 1.429 . S
C1766 H1790 0.950 . S
C1767 C1784 1.574 . S
C1767 C1786 1.368 . S
C1767 H1791 0.949 . S
H1768 C1772 0.949 . S
C1769 C1770 1.349 . S
C1769 C1771 1.327 . S
C1769 H1792 0.950 . S
C1770 C1769 1.349 . S
C1770 C1782 1.349 . S
C1771 C1769 1.327 . S
C1771 C1787 1.429 . S
C1771 H1793 0.950 . S
C1772 H1768 0.949 . S
C1772 C1780 1.574 . S
C1772 C1788 1.368 . S
H1773 C1781 0.950 . S
H1774 C1779 0.950 . S
H1775 C1780 0.949 . S
H1776 C1782 0.950 . S
H1777 C1783 0.950 . S
H1778 C1784 0.949 . S
C1779 H1774 0.950 . S
C1779 C1781 1.327 . S
C1779 C1785 1.429 . S
C1780 C1772 1.574 . S
C1780 H1775 0.949 . S
C1780 C1786 1.368 . S
C1781 C1765 1.349 . S
C1781 H1773 0.950 . S
C1781 C1779 1.327 . S
C1782 C1770 1.349 . S
C1782 H1776 0.950 . S
C1782 C1783 1.327 . S
C1783 H1777 0.950 . S
C1783 C1782 1.327 . S
C1783 C1787 1.429 . S
C1784 C1767 1.574 . S
C1784 H1778 0.949 . S
C1784 C1788 1.368 . S
C1785 C1766 1.429 . S
C1785 C1779 1.429 . S
C1785 C1786 1.523 . S
C1786 C1767 1.368 . S
C1786 C1780 1.368 . S
C1786 C1785 1.523 . S
C1787 C1771 1.429 . S
C1787 C1783 1.429 . S
C1787 C1788 1.523 . S
C1788 C1772 1.368 . S
C1788 C1784 1.368 . S
C1788 C1787 1.523 . S
H1789 C1764 0.950 . S
H1790 C1766 0.950 . S
H1791 C1767 0.949 . S
H1792 C1769 0.950 . S
H1793 C1771 0.950 . S
C1794 C1795 1.349 . S
C1794 C1796 1.327 . S
C1794 H1819 0.950 . S
C1795 C1794 1.349 . S
C1795 C1811 1.349 . S
C1796 C1794 1.327 . S
C1796 C1815 1.429 . S
C1796 H1820 0.950 . S
C1797 C1814 1.574 . S
C1797 C1816 1.368 . S
C1797 H1821 0.949 . S
H1798 C1802 0.949 . S
C1799 C1800 1.349 . S
C1799 C1801 1.327 . S
C1799 H1822 0.950 . S
C1800 C1799 1.349 . S
C1800 C1812 1.349 . S
C1801 C1799 1.327 . S
C1801 C1817 1.429 . S
C1801 H1823 0.950 . S
C1802 H1798 0.949 . S
C1802 C1810 1.574 . S
C1802 C1818 1.368 . S
H1803 C1811 0.950 1_545 S
H1804 C1809 0.950 1_545 S
H1805 C1810 0.949 . S
H1806 C1812 0.950 . S
H1807 C1813 0.950 . S
H1808 C1814 0.949 . S
C1809 H1804 0.950 1_565 S
C1809 C1811 1.327 . S
C1809 C1815 1.429 . S
C1810 C1802 1.574 . S
C1810 H1805 0.949 . S
C1810 C1816 1.368 . S
C1811 C1795 1.349 . S
C1811 H1803 0.950 1_565 S
C1811 C1809 1.327 . S
C1812 C1800 1.349 . S
C1812 H1806 0.950 . S
C1812 C1813 1.327 . S
C1813 H1807 0.950 . S
C1813 C1812 1.327 . S
C1813 C1817 1.429 . S
C1814 C1797 1.574 . S
C1814 H1808 0.949 . S
C1814 C1818 1.368 . S
C1815 C1796 1.429 . S
C1815 C1809 1.429 . S
C1815 C1816 1.523 . S
C1816 C1797 1.368 . S
C1816 C1810 1.368 . S
C1816 C1815 1.523 . S
C1817 C1801 1.429 . S
C1817 C1813 1.429 . S
C1817 C1818 1.523 . S
C1818 C1802 1.368 . S
C1818 C1814 1.368 . S
C1818 C1817 1.523 . S
H1819 C1794 0.950 . S
H1820 C1796 0.950 . S
H1821 C1797 0.949 . S
H1822 C1799 0.950 . S
H1823 C1801 0.950 . S
C1824 C1825 1.349 . S
C1824 C1826 1.327 . S
C1824 H1849 0.950 . S
C1825 C1824 1.349 . S
C1825 C1841 1.349 . S
C1826 C1824 1.327 . S
C1826 C1845 1.429 . S
C1826 H1850 0.950 . S
C1827 C1844 1.574 . S
C1827 C1846 1.368 . S
C1827 H1851 0.949 . S
H1828 C1832 0.949 . S
C1829 C1830 1.349 . S
C1829 C1831 1.327 . S
C1829 H1852 0.950 . S
C1830 C1829 1.349 . S
C1830 C1842 1.349 . S
C1831 C1829 1.327 . S
C1831 C1847 1.429 . S
C1831 H1853 0.950 . S
C1832 H1828 0.949 . S
C1832 C1840 1.574 . S
C1832 C1848 1.368 . S
H1833 C1841 0.950 . S
H1834 C1839 0.950 . S
H1835 C1840 0.949 . S
H1836 C1842 0.950 . S
H1837 C1843 0.950 . S
H1838 C1844 0.949 . S
C1839 H1834 0.950 . S
C1839 C1841 1.327 . S
C1839 C1845 1.429 . S
C1840 C1832 1.574 . S
C1840 H1835 0.949 . S
C1840 C1846 1.368 . S
C1841 C1825 1.349 . S
C1841 H1833 0.950 . S
C1841 C1839 1.327 . S
C1842 C1830 1.349 . S
C1842 H1836 0.950 . S
C1842 C1843 1.327 . S
C1843 H1837 0.950 . S
C1843 C1842 1.327 . S
C1843 C1847 1.429 . S
C1844 C1827 1.574 . S
C1844 H1838 0.949 . S
C1844 C1848 1.368 . S
C1845 C1826 1.429 . S
C1845 C1839 1.429 . S
C1845 C1846 1.523 . S
C1846 C1827 1.368 . S
C1846 C1840 1.368 . S
C1846 C1845 1.523 . S
C1847 C1831 1.429 . S
C1847 C1843 1.429 . S
C1847 C1848 1.523 . S
C1848 C1832 1.368 . S
C1848 C1844 1.368 . S
C1848 C1847 1.523 . S
H1849 C1824 0.950 . S
H1850 C1826 0.950 . S
H1851 C1827 0.949 . S
H1852 C1829 0.950 . S
H1853 C1831 0.950 . S
C1854 C1855 1.374 . S
C1854 C1856 1.343 . S
C1854 H1879 0.911 1_556 S
C1855 C1854 1.374 . S
C1855 C1871 1.349 . S
C1856 C1854 1.343 . S
C1856 C1875 1.429 . S
C1856 H1880 0.950 1_556 S
C1857 C1874 1.574 . S
C1857 C1876 1.368 . S
C1857 H1881 0.949 . S
H1858 C1862 0.949 . S
C1859 C1860 1.349 . S
C1859 C1861 1.327 . S
C1859 H1882 0.950 . S
C1860 C1859 1.349 . S
C1860 C1872 1.349 . S
C1861 C1859 1.327 . S
C1861 C1877 1.429 . S
C1861 H1883 0.950 . S
C1862 H1858 0.949 . S
C1862 C1870 1.574 . S
C1862 C1878 1.368 . S
H1863 C1871 0.950 . S
H1864 C1869 0.950 . S
H1865 C1870 0.949 . S
H1866 C1872 0.950 . S
H1867 C1873 0.950 . S
H1868 C1874 0.949 . S
C1869 H1864 0.950 . S
C1869 C1871 1.327 . S
C1869 C1875 1.429 . S
C1870 C1862 1.574 . S
C1870 H1865 0.949 . S
C1870 C1876 1.368 . S
C1871 C1855 1.349 . S
C1871 H1863 0.950 . S
C1871 C1869 1.327 . S
C1872 C1860 1.349 . S
C1872 H1866 0.950 . S
C1872 C1873 1.327 . S
C1873 H1867 0.950 . S
C1873 C1872 1.327 . S
C1873 C1877 1.429 . S
C1874 C1857 1.574 . S
C1874 H1868 0.949 . S
C1874 C1878 1.368 . S
C1875 C1856 1.429 . S
C1875 C1869 1.429 . S
C1875 C1876 1.523 . S
C1876 C1857 1.368 . S
C1876 C1870 1.368 . S
C1876 C1875 1.523 . S
C1877 C1861 1.429 . S
C1877 C1873 1.429 . S
C1877 C1878 1.523 . S
C1878 C1862 1.368 . S
C1878 C1874 1.368 . S
C1878 C1877 1.523 . S
H1879 C1854 0.911 1_554 S
H1880 C1856 0.950 1_554 S
H1881 C1857 0.949 . S
H1882 C1859 0.950 . S
H1883 C1861 0.950 . S
C1884 C1885 1.349 . S
C1884 C1886 1.327 . S
C1884 H1909 0.950 . S
C1885 C1884 1.349 . S
C1885 C1901 1.349 . S
C1886 C1884 1.327 . S
C1886 C1905 1.429 . S
C1886 H1910 0.950 . S
C1887 C1904 1.574 . S
C1887 C1906 1.368 . S
C1887 H1911 0.949 . S
H1888 C1892 0.949 . S
C1889 C1890 1.349 . S
C1889 C1891 1.327 . S
C1889 H1912 0.950 . S
C1890 C1889 1.349 . S
C1890 C1902 1.349 . S
C1891 C1889 1.327 . S
C1891 C1907 1.429 . S
C1891 H1913 0.950 . S
C1892 H1888 0.949 . S
C1892 C1900 1.574 . S
C1892 C1908 1.368 . S
H1893 C1901 0.950 . S
H1894 C1899 0.950 . S
H1895 C1900 0.949 . S
H1896 C1902 0.950 . S
H1897 C1903 0.950 . S
H1898 C1904 0.949 . S
C1899 H1894 0.950 . S
C1899 C1901 1.327 . S
C1899 C1905 1.429 . S
C1900 C1892 1.574 . S
C1900 H1895 0.949 . S
C1900 C1906 1.368 . S
C1901 C1885 1.349 . S
C1901 H1893 0.950 . S
C1901 C1899 1.327 . S
C1902 C1890 1.349 . S
C1902 H1896 0.950 . S
C1902 C1903 1.327 . S
C1903 H1897 0.950 . S
C1903 C1902 1.327 . S
C1903 C1907 1.429 . S
C1904 C1887 1.574 . S
C1904 H1898 0.949 . S
C1904 C1908 1.368 . S
C1905 C1886 1.429 . S
C1905 C1899 1.429 . S
C1905 C1906 1.523 . S
C1906 C1887 1.368 . S
C1906 C1900 1.368 . S
C1906 C1905 1.523 . S
C1907 C1891 1.429 . S
C1907 C1903 1.429 . S
C1907 C1908 1.523 . S
C1908 C1892 1.368 . S
C1908 C1904 1.368 . S
C1908 C1907 1.523 . S
H1909 C1884 0.950 . S
H1910 C1886 0.950 . S
H1911 C1887 0.949 . S
H1912 C1889 0.950 . S
H1913 C1891 0.950 . S
C1914 C1915 1.336 1_556 S
C1914 C1916 1.319 1_556 S
C1914 H1939 0.972 . S
C1915 C1914 1.336 1_554 S
C1915 C1931 1.349 . S
C1916 C1914 1.319 1_554 S
C1916 C1935 1.429 . S
C1916 H1940 0.950 1_554 S
C1917 C1934 1.574 . S
C1917 C1936 1.368 . S
C1917 H1941 0.949 . S
H1918 C1922 0.949 . S
C1919 C1920 1.349 . S
C1919 C1921 1.327 . S
C1919 H1942 0.950 . S
C1920 C1919 1.349 . S
C1920 C1932 1.349 . S
C1921 C1919 1.327 . S
C1921 C1937 1.429 . S
C1921 H1943 0.950 . S
C1922 H1918 0.949 . S
C1922 C1930 1.574 . S
C1922 C1938 1.368 . S
H1923 C1931 0.950 . S
H1924 C1929 0.950 . S
H1925 C1930 0.949 . S
H1926 C1932 0.950 . S
H1927 C1933 0.950 . S
H1928 C1934 0.949 . S
C1929 H1924 0.950 . S
C1929 C1931 1.327 . S
C1929 C1935 1.429 . S
C1930 C1922 1.574 . S
C1930 H1925 0.949 . S
C1930 C1936 1.368 . S
C1931 C1915 1.349 . S
C1931 H1923 0.950 . S
C1931 C1929 1.327 . S
C1932 C1920 1.349 . S
C1932 H1926 0.950 . S
C1932 C1933 1.327 . S
C1933 H1927 0.950 . S
C1933 C1932 1.327 . S
C1933 C1937 1.429 . S
C1934 C1917 1.574 . S
C1934 H1928 0.949 . S
C1934 C1938 1.368 . S
C1935 C1916 1.429 . S
C1935 C1929 1.429 . S
C1935 C1936 1.523 . S
C1936 C1917 1.368 . S
C1936 C1930 1.368 . S
C1936 C1935 1.523 . S
C1937 C1921 1.429 . S
C1937 C1933 1.429 . S
C1937 C1938 1.523 . S
C1938 C1922 1.368 . S
C1938 C1934 1.368 . S
C1938 C1937 1.523 . S
H1939 C1914 0.972 . S
H1940 C1916 0.950 1_556 S
H1941 C1917 0.949 . S
H1942 C1919 0.950 . S
H1943 C1921 0.950 . S
C1944 C1945 1.349 . S
C1944 C1946 1.327 . S
C1944 H1969 0.950 . S
C1945 C1944 1.349 . S
C1945 C1961 1.349 . S
C1946 C1944 1.327 . S
C1946 C1965 1.429 . S
C1946 H1970 0.950 . S
C1947 C1964 1.574 . S
C1947 C1966 1.368 . S
C1947 H1971 0.949 . S
H1948 C1952 0.949 . S
C1949 C1950 1.349 . S
C1949 C1951 1.327 . S
C1949 H1972 0.950 . S
C1950 C1949 1.349 . S
C1950 C1962 1.349 . S
C1951 C1949 1.327 . S
C1951 C1967 1.429 . S
C1951 H1973 0.950 . S
C1952 H1948 0.949 . S
C1952 C1960 1.574 . S
C1952 C1968 1.368 . S
H1953 C1961 0.950 . S
H1954 C1959 0.950 . S
H1955 C1960 0.949 . S
H1956 C1962 0.950 . S
H1957 C1963 0.950 . S
H1958 C1964 0.949 . S
C1959 H1954 0.950 . S
C1959 C1961 1.327 . S
C1959 C1965 1.429 . S
C1960 C1952 1.574 . S
C1960 H1955 0.949 . S
C1960 C1966 1.368 . S
C1961 C1945 1.349 . S
C1961 H1953 0.950 . S
C1961 C1959 1.327 . S
C1962 C1950 1.349 . S
C1962 H1956 0.950 . S
C1962 C1963 1.327 . S
C1963 H1957 0.950 . S
C1963 C1962 1.327 . S
C1963 C1967 1.429 . S
C1964 C1947 1.574 . S
C1964 H1958 0.949 . S
C1964 C1968 1.368 . S
C1965 C1946 1.429 . S
C1965 C1959 1.429 . S
C1965 C1966 1.523 . S
C1966 C1947 1.368 . S
C1966 C1960 1.368 . S
C1966 C1965 1.523 . S
C1967 C1951 1.429 . S
C1967 C1963 1.429 . S
C1967 C1968 1.523 . S
C1968 C1952 1.368 . S
C1968 C1964 1.368 . S
C1968 C1967 1.523 . S
H1969 C1944 0.950 . S
H1970 C1946 0.950 . S
H1971 C1947 0.949 . S
H1972 C1949 0.950 . S
H1973 C1951 0.950 . S
C1974 C1975 1.349 . S
C1974 C1976 1.327 . S
C1974 H1999 0.950 1_655 S
C1975 C1974 1.349 . S
C1975 C1991 1.349 . S
C1976 C1974 1.327 . S
C1976 C1995 1.429 . S
C1976 H2000 0.950 . S
C1977 C1994 1.574 . S
C1977 C1996 1.368 . S
C1977 H2001 0.949 . S
H1978 C1982 0.949 . S
C1979 C1980 1.349 . S
C1979 C1981 1.327 . S
C1979 H2002 0.950 . S
C1980 C1979 1.349 . S
C1980 C1992 1.349 . S
C1981 C1979 1.327 . S
C1981 C1997 1.429 . S
C1981 H2003 0.950 . S
C1982 H1978 0.949 . S
C1982 C1990 1.574 . S
C1982 C1998 1.368 . S
H1983 C1991 0.950 . S
H1984 C1989 0.950 . S
H1985 C1990 0.949 . S
H1986 C1992 0.950 . S
H1987 C1993 0.950 . S
H1988 C1994 0.949 . S
C1989 H1984 0.950 . S
C1989 C1991 1.327 . S
C1989 C1995 1.429 . S
C1990 C1982 1.574 . S
C1990 H1985 0.949 . S
C1990 C1996 1.368 . S
C1991 C1975 1.349 . S
C1991 H1983 0.950 . S
C1991 C1989 1.327 . S
C1992 C1980 1.349 . S
C1992 H1986 0.950 . S
C1992 C1993 1.327 . S
C1993 H1987 0.950 . S
C1993 C1992 1.327 . S
C1993 C1997 1.429 . S
C1994 C1977 1.574 . S
C1994 H1988 0.949 . S
C1994 C1998 1.368 . S
C1995 C1976 1.429 . S
C1995 C1989 1.429 . S
C1995 C1996 1.523 . S
C1996 C1977 1.368 . S
C1996 C1990 1.368 . S
C1996 C1995 1.523 . S
C1997 C1981 1.429 . S
C1997 C1993 1.429 . S
C1997 C1998 1.523 . S
C1998 C1982 1.368 . S
C1998 C1994 1.368 . S
C1998 C1997 1.523 . S
H1999 C1974 0.950 1_455 S
H2000 C1976 0.950 . S
H2001 C1977 0.949 . S
H2002 C1979 0.950 . S
H2003 C1981 0.950 . S
C2004 C2005 1.349 . S
C2004 C2006 1.327 . S
C2004 H2029 0.950 . S
C2005 C2004 1.349 . S
C2005 C2021 1.349 . S
C2006 C2004 1.327 . S
C2006 C2025 1.429 . S
C2006 H2030 0.950 . S
C2007 C2024 1.574 . S
C2007 C2026 1.368 . S
C2007 H2031 0.949 . S
H2008 C2012 0.949 . S
C2009 C2010 1.349 . S
C2009 C2011 1.327 . S
C2009 H2032 0.950 . S
C2010 C2009 1.349 . S
C2010 C2022 1.349 . S
C2011 C2009 1.327 . S
C2011 C2027 1.429 . S
C2011 H2033 0.950 . S
C2012 H2008 0.949 . S
C2012 C2020 1.574 . S
C2012 C2028 1.368 . S
H2013 C2021 0.950 . S
H2014 C2019 0.950 . S
H2015 C2020 0.949 . S
H2016 C2022 0.950 . S
H2017 C2023 0.950 . S
H2018 C2024 0.949 . S
C2019 H2014 0.950 . S
C2019 C2021 1.327 . S
C2019 C2025 1.429 . S
C2020 C2012 1.574 . S
C2020 H2015 0.949 . S
C2020 C2026 1.368 . S
C2021 C2005 1.349 . S
C2021 H2013 0.950 . S
C2021 C2019 1.327 . S
C2022 C2010 1.349 . S
C2022 H2016 0.950 . S
C2022 C2023 1.327 . S
C2023 H2017 0.950 . S
C2023 C2022 1.327 . S
C2023 C2027 1.429 . S
C2024 C2007 1.574 . S
C2024 H2018 0.949 . S
C2024 C2028 1.368 . S
C2025 C2006 1.429 . S
C2025 C2019 1.429 . S
C2025 C2026 1.523 . S
C2026 C2007 1.368 . S
C2026 C2020 1.368 . S
C2026 C2025 1.523 . S
C2027 C2011 1.429 . S
C2027 C2023 1.429 . S
C2027 C2028 1.523 . S
C2028 C2012 1.368 . S
C2028 C2024 1.368 . S
C2028 C2027 1.523 . S
H2029 C2004 0.950 . S
H2030 C2006 0.950 . S
H2031 C2007 0.949 . S
H2032 C2009 0.950 . S
H2033 C2011 0.950 . S
C2034 C2035 1.365 . S
C2034 C2036 1.339 . S
C2034 H2059 0.923 1_455 S
C2035 C2034 1.365 . S
C2035 C2051 1.349 . S
C2036 C2034 1.339 . S
C2036 C2055 1.429 . S
C2036 H2060 0.928 1_455 S
C2037 C2054 1.574 . S
C2037 C2056 1.368 . S
C2037 H2061 0.949 . S
H2038 C2042 0.949 . S
C2039 C2040 1.349 . S
C2039 C2041 1.327 . S
C2039 H2062 0.950 . S
C2040 C2039 1.349 . S
C2040 C2052 1.349 . S
C2041 C2039 1.327 . S
C2041 C2057 1.429 . S
C2041 H2063 0.950 . S
C2042 H2038 0.949 . S
C2042 C2050 1.574 . S
C2042 C2058 1.368 . S
H2043 C2051 0.950 . S
H2044 C2049 0.950 . S
H2045 C2050 0.949 . S
H2046 C2052 0.950 . S
H2047 C2053 0.950 . S
H2048 C2054 0.949 . S
C2049 H2044 0.950 . S
C2049 C2051 1.327 . S
C2049 C2055 1.429 . S
C2050 C2042 1.574 . S
C2050 H2045 0.949 . S
C2050 C2056 1.368 . S
C2051 C2035 1.349 . S
C2051 H2043 0.950 . S
C2051 C2049 1.327 . S
C2052 C2040 1.349 . S
C2052 H2046 0.950 . S
C2052 C2053 1.327 . S
C2053 H2047 0.950 . S
C2053 C2052 1.327 . S
C2053 C2057 1.429 . S
C2054 C2037 1.574 . S
C2054 H2048 0.949 . S
C2054 C2058 1.368 . S
C2055 C2036 1.429 . S
C2055 C2049 1.429 . S
C2055 C2056 1.523 . S
C2056 C2037 1.368 . S
C2056 C2050 1.368 . S
C2056 C2055 1.523 . S
C2057 C2041 1.429 . S
C2057 C2053 1.429 . S
C2057 C2058 1.523 . S
C2058 C2042 1.368 . S
C2058 C2054 1.368 . S
C2058 C2057 1.523 . S
H2059 C2034 0.923 1_655 S
H2060 C2036 0.928 1_655 S
H2061 C2037 0.949 . S
H2062 C2039 0.950 . S
H2063 C2041 0.950 . S
C2064 C2065 1.349 . S
C2064 C2066 1.327 . S
C2064 H2089 0.950 . S
C2065 C2064 1.349 . S
C2065 C2081 1.349 . S
C2066 C2064 1.327 . S
C2066 C2085 1.429 . S
C2066 H2090 0.950 . S
C2067 C2084 1.574 . S
C2067 C2086 1.368 . S
C2067 H2091 0.949 . S
H2068 C2072 0.949 . S
C2069 C2070 1.349 . S
C2069 C2071 1.327 . S
C2069 H2092 0.950 . S
C2070 C2069 1.349 . S
C2070 C2082 1.349 . S
C2071 C2069 1.327 . S
C2071 C2087 1.429 . S
C2071 H2093 0.950 . S
C2072 H2068 0.949 . S
C2072 C2080 1.574 . S
C2072 C2088 1.368 . S
H2073 C2081 0.950 . S
H2074 C2079 0.950 . S
H2075 C2080 0.949 . S
H2076 C2082 0.950 . S
H2077 C2083 0.950 . S
H2078 C2084 0.949 . S
C2079 H2074 0.950 . S
C2079 C2081 1.327 . S
C2079 C2085 1.429 . S
C2080 C2072 1.574 . S
C2080 H2075 0.949 . S
C2080 C2086 1.368 . S
C2081 C2065 1.349 . S
C2081 H2073 0.950 . S
C2081 C2079 1.327 . S
C2082 C2070 1.349 . S
C2082 H2076 0.950 . S
C2082 C2083 1.327 . S
C2083 H2077 0.950 . S
C2083 C2082 1.327 . S
C2083 C2087 1.429 . S
C2084 C2067 1.574 . S
C2084 H2078 0.949 . S
C2084 C2088 1.368 . S
C2085 C2066 1.429 . S
C2085 C2079 1.429 . S
C2085 C2086 1.523 . S
C2086 C2067 1.368 . S
C2086 C2080 1.368 . S
C2086 C2085 1.523 . S
C2087 C2071 1.429 . S
C2087 C2083 1.429 . S
C2087 C2088 1.523 . S
C2088 C2072 1.368 . S
C2088 C2084 1.368 . S
C2088 C2087 1.523 . S
H2089 C2064 0.950 . S
H2090 C2066 0.950 . S
H2091 C2067 0.949 . S
H2092 C2069 0.950 . S
H2093 C2071 0.950 . S
C2094 C2095 1.349 . S
C2094 C2096 1.327 . S
C2094 H2119 0.950 . S
C2095 C2094 1.349 . S
C2095 C2111 1.349 . S
C2096 C2094 1.327 . S
C2096 C2115 1.429 . S
C2096 H2120 0.950 . S
C2097 C2114 1.574 . S
C2097 C2116 1.368 . S
C2097 H2121 0.949 . S
H2098 C2102 0.949 . S
C2099 C2100 1.349 . S
C2099 C2101 1.327 . S
C2099 H2122 0.950 . S
C2100 C2099 1.349 . S
C2100 C2112 1.349 . S
C2101 C2099 1.327 . S
C2101 C2117 1.429 . S
C2101 H2123 0.950 . S
C2102 H2098 0.949 . S
C2102 C2110 1.574 . S
C2102 C2118 1.368 . S
H2103 C2111 0.950 . S
H2104 C2109 0.950 . S
H2105 C2110 0.949 . S
H2106 C2112 0.950 . S
H2107 C2113 0.950 . S
H2108 C2114 0.949 . S
C2109 H2104 0.950 . S
C2109 C2111 1.327 . S
C2109 C2115 1.429 . S
C2110 C2102 1.574 . S
C2110 H2105 0.949 . S
C2110 C2116 1.368 . S
C2111 C2095 1.349 . S
C2111 H2103 0.950 . S
C2111 C2109 1.327 . S
C2112 C2100 1.349 . S
C2112 H2106 0.950 . S
C2112 C2113 1.327 . S
C2113 H2107 0.950 . S
C2113 C2112 1.327 . S
C2113 C2117 1.429 . S
C2114 C2097 1.574 . S
C2114 H2108 0.949 . S
C2114 C2118 1.368 . S
C2115 C2096 1.429 . S
C2115 C2109 1.429 . S
C2115 C2116 1.523 . S
C2116 C2097 1.368 . S
C2116 C2110 1.368 . S
C2116 C2115 1.523 . S
C2117 C2101 1.429 . S
C2117 C2113 1.429 . S
C2117 C2118 1.523 . S
C2118 C2102 1.368 . S
C2118 C2114 1.368 . S
C2118 C2117 1.523 . S
H2119 C2094 0.950 . S
H2120 C2096 0.950 . S
H2121 C2097 0.949 . S
H2122 C2099 0.950 . S
H2123 C2101 0.950 . S
C2124 C2125 1.349 . S
C2124 C2126 1.327 . S
C2124 H2149 0.950 . S
C2125 C2124 1.349 . S
C2125 C2141 1.349 . S
C2126 C2124 1.327 . S
C2126 C2145 1.429 . S
C2126 H2150 0.950 . S
C2127 C2144 1.574 . S
C2127 C2146 1.368 . S
C2127 H2151 0.949 . S
H2128 C2132 0.949 . S
C2129 C2130 1.349 . S
C2129 C2131 1.327 . S
C2129 H2152 0.950 . S
C2130 C2129 1.349 . S
C2130 C2142 1.349 . S
C2131 C2129 1.327 . S
C2131 C2147 1.429 . S
C2131 H2153 0.950 . S
C2132 H2128 0.949 . S
C2132 C2140 1.574 . S
C2132 C2148 1.368 . S
H2133 C2141 0.950 . S
H2134 C2139 0.950 . S
H2135 C2140 0.949 . S
H2136 C2142 0.950 . S
H2137 C2143 0.950 . S
H2138 C2144 0.949 . S
C2139 H2134 0.950 . S
C2139 C2141 1.327 . S
C2139 C2145 1.429 . S
C2140 C2132 1.574 . S
C2140 H2135 0.949 . S
C2140 C2146 1.368 . S
C2141 C2125 1.349 . S
C2141 H2133 0.950 . S
C2141 C2139 1.327 . S
C2142 C2130 1.349 . S
C2142 H2136 0.950 . S
C2142 C2143 1.327 . S
C2143 H2137 0.950 . S
C2143 C2142 1.327 . S
C2143 C2147 1.429 . S
C2144 C2127 1.574 . S
C2144 H2138 0.949 . S
C2144 C2148 1.368 . S
C2145 C2126 1.429 . S
C2145 C2139 1.429 . S
C2145 C2146 1.523 . S
C2146 C2127 1.368 . S
C2146 C2140 1.368 . S
C2146 C2145 1.523 . S
C2147 C2131 1.429 . S
C2147 C2143 1.429 . S
C2147 C2148 1.523 . S
C2148 C2132 1.368 . S
C2148 C2144 1.368 . S
C2148 C2147 1.523 . S
H2149 C2124 0.950 . S
H2150 C2126 0.950 . S
H2151 C2127 0.949 . S
H2152 C2129 0.950 . S
H2153 C2131 0.950 . S
C2154 C2155 1.349 . S
C2154 C2156 1.327 . S
C2154 H2179 0.950 . S
C2155 C2154 1.349 . S
C2155 C2171 1.349 . S
C2156 C2154 1.327 . S
C2156 C2175 1.429 . S
C2156 H2180 0.950 . S
C2157 C2174 1.574 . S
C2157 C2176 1.368 . S
C2157 H2181 0.949 . S
H2158 C2162 0.949 . S
C2159 C2160 1.349 . S
C2159 C2161 1.327 . S
C2159 H2182 0.950 . S
C2160 C2159 1.349 . S
C2160 C2172 1.349 . S
C2161 C2159 1.327 . S
C2161 C2177 1.429 . S
C2161 H2183 0.950 . S
C2162 H2158 0.949 . S
C2162 C2170 1.574 . S
C2162 C2178 1.368 . S
H2163 C2171 0.950 1_565 S
H2164 C2169 0.950 . S
H2165 C2170 0.949 . S
H2166 C2172 0.950 . S
H2167 C2173 0.950 . S
H2168 C2174 0.949 . S
C2169 H2164 0.950 . S
C2169 C2171 1.327 . S
C2169 C2175 1.429 . S
C2170 C2162 1.574 . S
C2170 H2165 0.949 . S
C2170 C2176 1.368 . S
C2171 C2155 1.349 . S
C2171 H2163 0.950 1_545 S
C2171 C2169 1.327 . S
C2172 C2160 1.349 . S
C2172 H2166 0.950 . S
C2172 C2173 1.327 . S
C2173 H2167 0.950 . S
C2173 C2172 1.327 . S
C2173 C2177 1.429 . S
C2174 C2157 1.574 . S
C2174 H2168 0.949 . S
C2174 C2178 1.368 . S
C2175 C2156 1.429 . S
C2175 C2169 1.429 . S
C2175 C2176 1.523 . S
C2176 C2157 1.368 . S
C2176 C2170 1.368 . S
C2176 C2175 1.523 . S
C2177 C2161 1.429 . S
C2177 C2173 1.429 . S
C2177 C2178 1.523 . S
C2178 C2162 1.368 . S
C2178 C2174 1.368 . S
C2178 C2177 1.523 . S
H2179 C2154 0.950 . S
H2180 C2156 0.950 . S
H2181 C2157 0.949 . S
H2182 C2159 0.950 . S
H2183 C2161 0.950 . S
C2184 C2185 1.349 . S
C2184 C2186 1.327 . S
C2184 H2209 0.950 . S
C2185 C2184 1.349 . S
C2185 C2201 1.349 . S
C2186 C2184 1.327 . S
C2186 C2205 1.429 . S
C2186 H2210 0.950 . S
C2187 C2204 1.574 . S
C2187 C2206 1.368 . S
C2187 H2211 0.949 . S
H2188 C2192 0.949 . S
C2189 C2190 1.349 . S
C2189 C2191 1.327 . S
C2189 H2212 0.950 . S
C2190 C2189 1.349 . S
C2190 C2202 1.349 . S
C2191 C2189 1.327 . S
C2191 C2207 1.429 . S
C2191 H2213 0.950 . S
C2192 H2188 0.949 . S
C2192 C2200 1.574 . S
C2192 C2208 1.368 . S
H2193 C2201 0.950 . S
H2194 C2199 0.950 . S
H2195 C2200 0.949 . S
H2196 C2202 0.950 . S
H2197 C2203 0.950 . S
H2198 C2204 0.949 . S
C2199 H2194 0.950 . S
C2199 C2201 1.327 . S
C2199 C2205 1.429 . S
C2200 C2192 1.574 . S
C2200 H2195 0.949 . S
C2200 C2206 1.368 . S
C2201 C2185 1.349 . S
C2201 H2193 0.950 . S
C2201 C2199 1.327 . S
C2202 C2190 1.349 . S
C2202 H2196 0.950 . S
C2202 C2203 1.327 . S
C2203 H2197 0.950 . S
C2203 C2202 1.327 . S
C2203 C2207 1.429 . S
C2204 C2187 1.574 . S
C2204 H2198 0.949 . S
C2204 C2208 1.368 . S
C2205 C2186 1.429 . S
C2205 C2199 1.429 . S
C2205 C2206 1.523 . S
C2206 C2187 1.368 . S
C2206 C2200 1.368 . S
C2206 C2205 1.523 . S
C2207 C2191 1.429 . S
C2207 C2203 1.429 . S
C2207 C2208 1.523 . S
C2208 C2192 1.368 . S
C2208 C2204 1.368 . S
C2208 C2207 1.523 . S
H2209 C2184 0.950 . S
H2210 C2186 0.950 . S
H2211 C2187 0.949 . S
H2212 C2189 0.950 . S
H2213 C2191 0.950 . S
C2214 C2215 1.349 . S
C2214 C2216 1.327 . S
C2214 H2239 0.950 . S
C2215 C2214 1.349 . S
C2215 C2231 1.349 1_554 S
C2216 C2214 1.327 . S
C2216 C2235 1.429 . S
C2216 H2240 0.950 . S
C2217 C2234 1.574 . S
C2217 C2236 1.368 . S
C2217 H2241 0.904 1_554 S
H2218 C2222 0.949 . S
C2219 C2220 1.349 . S
C2219 C2221 1.327 . S
C2219 H2242 0.950 . S
C2220 C2219 1.349 . S
C2220 C2232 1.349 . S
C2221 C2219 1.327 . S
C2221 C2237 1.429 . S
C2221 H2243 0.950 . S
C2222 H2218 0.949 . S
C2222 C2230 1.574 . S
C2222 C2238 1.368 . S
H2223 C2231 0.950 . S
H2224 C2229 0.950 1_556 S
H2225 C2230 0.949 . S
H2226 C2232 0.950 . S
H2227 C2233 0.950 . S
H2228 C2234 0.949 . S
C2229 H2224 0.950 1_554 S
C2229 C2231 1.327 1_554 S
C2229 C2235 1.429 . S
C2230 C2222 1.574 . S
C2230 H2225 0.949 . S
C2230 C2236 1.368 . S
C2231 C2215 1.349 1_556 S
C2231 H2223 0.950 . S
C2231 C2229 1.327 1_556 S
C2232 C2220 1.349 . S
C2232 H2226 0.950 . S
C2232 C2233 1.327 . S
C2233 H2227 0.950 . S
C2233 C2232 1.327 . S
C2233 C2237 1.429 . S
C2234 C2217 1.574 . S
C2234 H2228 0.949 . S
C2234 C2238 1.368 . S
C2235 C2216 1.429 . S
C2235 C2229 1.429 . S
C2235 C2236 1.523 . S
C2236 C2217 1.368 . S
C2236 C2230 1.368 . S
C2236 C2235 1.523 . S
C2237 C2221 1.429 . S
C2237 C2233 1.429 . S
C2237 C2238 1.523 . S
C2238 C2222 1.368 . S
C2238 C2234 1.368 . S
C2238 C2237 1.523 . S
H2239 C2214 0.950 . S
H2240 C2216 0.950 . S
H2241 C2217 0.904 1_556 S
H2242 C2219 0.950 . S
H2243 C2221 0.950 . S
C2244 C2245 1.349 . S
C2244 C2246 1.327 . S
C2244 H2269 0.950 . S
C2245 C2244 1.349 . S
C2245 C2261 1.349 . S
C2246 C2244 1.327 . S
C2246 C2265 1.429 . S
C2246 H2270 0.950 . S
C2247 C2264 1.574 . S
C2247 C2266 1.368 . S
C2247 H2271 0.949 . S
H2248 C2252 0.949 . S
C2249 C2250 1.349 . S
C2249 C2251 1.327 . S
C2249 H2272 0.950 . S
C2250 C2249 1.349 . S
C2250 C2262 1.349 . S
C2251 C2249 1.327 . S
C2251 C2267 1.429 . S
C2251 H2273 0.950 . S
C2252 H2248 0.949 . S
C2252 C2260 1.574 . S
C2252 C2268 1.368 . S
H2253 C2261 0.950 . S
H2254 C2259 0.950 . S
H2255 C2260 0.949 . S
H2256 C2262 0.950 . S
H2257 C2263 0.950 . S
H2258 C2264 0.949 . S
C2259 H2254 0.950 . S
C2259 C2261 1.327 . S
C2259 C2265 1.429 . S
C2260 C2252 1.574 . S
C2260 H2255 0.949 . S
C2260 C2266 1.368 . S
C2261 C2245 1.349 . S
C2261 H2253 0.950 . S
C2261 C2259 1.327 . S
C2262 C2250 1.349 . S
C2262 H2256 0.950 . S
C2262 C2263 1.327 . S
C2263 H2257 0.950 . S
C2263 C2262 1.327 . S
C2263 C2267 1.429 . S
C2264 C2247 1.574 . S
C2264 H2258 0.949 . S
C2264 C2268 1.368 . S
C2265 C2246 1.429 . S
C2265 C2259 1.429 . S
C2265 C2266 1.523 . S
C2266 C2247 1.368 . S
C2266 C2260 1.368 . S
C2266 C2265 1.523 . S
C2267 C2251 1.429 . S
C2267 C2263 1.429 . S
C2267 C2268 1.523 . S
C2268 C2252 1.368 . S
C2268 C2264 1.368 . S
C2268 C2267 1.523 . S
H2269 C2244 0.950 . S
H2270 C2246 0.950 . S
H2271 C2247 0.949 . S
H2272 C2249 0.950 . S
H2273 C2251 0.950 . S
C2274 C2275 1.349 . S
C2274 C2276 1.327 . S
C2274 H2299 0.950 1_556 S
C2275 C2274 1.349 . S
C2275 C2291 1.349 . S
C2276 C2274 1.327 . S
C2276 C2295 1.429 . S
C2276 H2300 0.950 . S
C2277 C2294 1.574 . S
C2277 C2296 1.368 . S
C2277 H2301 0.949 . S
H2278 C2282 0.949 . S
C2279 C2280 1.349 . S
C2279 C2281 1.327 . S
C2279 H2302 0.950 . S
C2280 C2279 1.349 . S
C2280 C2292 1.349 . S
C2281 C2279 1.327 . S
C2281 C2297 1.429 . S
C2281 H2303 0.950 . S
C2282 H2278 0.949 . S
C2282 C2290 1.574 . S
C2282 C2298 1.368 . S
H2283 C2291 0.950 . S
H2284 C2289 0.950 . S
H2285 C2290 0.949 . S
H2286 C2292 0.950 . S
H2287 C2293 0.950 . S
H2288 C2294 0.949 . S
C2289 H2284 0.950 . S
C2289 C2291 1.327 . S
C2289 C2295 1.429 . S
C2290 C2282 1.574 . S
C2290 H2285 0.949 . S
C2290 C2296 1.368 . S
C2291 C2275 1.349 . S
C2291 H2283 0.950 . S
C2291 C2289 1.327 . S
C2292 C2280 1.349 . S
C2292 H2286 0.950 . S
C2292 C2293 1.327 . S
C2293 H2287 0.950 . S
C2293 C2292 1.327 . S
C2293 C2297 1.429 . S
C2294 C2277 1.574 . S
C2294 H2288 0.949 . S
C2294 C2298 1.368 . S
C2295 C2276 1.429 . S
C2295 C2289 1.429 . S
C2295 C2296 1.523 . S
C2296 C2277 1.368 . S
C2296 C2290 1.368 . S
C2296 C2295 1.523 . S
C2297 C2281 1.429 . S
C2297 C2293 1.429 . S
C2297 C2298 1.523 . S
C2298 C2282 1.368 . S
C2298 C2294 1.368 . S
C2298 C2297 1.523 . S
H2299 C2274 0.950 1_554 S
H2300 C2276 0.950 . S
H2301 C2277 0.949 . S
H2302 C2279 0.950 . S
H2303 C2281 0.950 . S
C2304 C2305 1.349 . S
C2304 C2306 1.327 . S
C2304 H2329 0.950 . S
C2305 C2304 1.349 . S
C2305 C2321 1.349 . S
C2306 C2304 1.327 . S
C2306 C2325 1.429 . S
C2306 H2330 0.950 . S
C2307 C2324 1.574 . S
C2307 C2326 1.368 . S
C2307 H2331 0.949 . S
H2308 C2312 0.949 . S
C2309 C2310 1.349 . S
C2309 C2311 1.327 . S
C2309 H2332 0.950 . S
C2310 C2309 1.349 . S
C2310 C2322 1.349 . S
C2311 C2309 1.327 . S
C2311 C2327 1.429 . S
C2311 H2333 0.950 . S
C2312 H2308 0.949 . S
C2312 C2320 1.574 . S
C2312 C2328 1.368 . S
H2313 C2321 0.950 . S
H2314 C2319 0.950 . S
H2315 C2320 0.949 . S
H2316 C2322 0.950 . S
H2317 C2323 0.950 . S
H2318 C2324 0.949 . S
C2319 H2314 0.950 . S
C2319 C2321 1.327 . S
C2319 C2325 1.429 . S
C2320 C2312 1.574 . S
C2320 H2315 0.949 . S
C2320 C2326 1.368 . S
C2321 C2305 1.349 . S
C2321 H2313 0.950 . S
C2321 C2319 1.327 . S
C2322 C2310 1.349 . S
C2322 H2316 0.950 . S
C2322 C2323 1.327 . S
C2323 H2317 0.950 . S
C2323 C2322 1.327 . S
C2323 C2327 1.429 . S
C2324 C2307 1.574 . S
C2324 H2318 0.949 . S
C2324 C2328 1.368 . S
C2325 C2306 1.429 . S
C2325 C2319 1.429 . S
C2325 C2326 1.523 . S
C2326 C2307 1.368 . S
C2326 C2320 1.368 . S
C2326 C2325 1.523 . S
C2327 C2311 1.429 . S
C2327 C2323 1.429 . S
C2327 C2328 1.523 . S
C2328 C2312 1.368 . S
C2328 C2324 1.368 . S
C2328 C2327 1.523 . S
H2329 C2304 0.950 . S
H2330 C2306 0.950 . S
H2331 C2307 0.949 . S
H2332 C2309 0.950 . S
H2333 C2311 0.950 . S
C2334 C2335 1.349 . S
C2334 C2336 1.327 . S
C2334 H2359 0.950 . S
C2335 C2334 1.349 . S
C2335 C2351 1.349 . S
C2336 C2334 1.327 . S
C2336 C2355 1.429 . S
C2336 H2360 0.950 . S
C2337 C2354 1.574 . S
C2337 C2356 1.368 . S
C2337 H2361 0.949 . S
H2338 C2342 0.949 . S
C2339 C2340 1.349 . S
C2339 C2341 1.327 . S
C2339 H2362 0.950 . S
C2340 C2339 1.349 . S
C2340 C2352 1.349 . S
C2341 C2339 1.327 . S
C2341 C2357 1.429 . S
C2341 H2363 0.950 . S
C2342 H2338 0.949 . S
C2342 C2350 1.574 . S
C2342 C2358 1.368 . S
H2343 C2351 0.950 1_655 S
H2344 C2349 0.966 . S
H2345 C2350 0.949 . S
H2346 C2352 0.950 . S
H2347 C2353 0.950 . S
H2348 C2354 0.949 . S
C2349 H2344 0.966 . S
C2349 C2351 1.327 . S
C2349 C2355 1.429 . S
C2350 C2342 1.574 . S
C2350 H2345 0.949 . S
C2350 C2356 1.368 . S
C2351 C2335 1.349 . S
C2351 H2343 0.950 1_455 S
C2351 C2349 1.327 . S
C2352 C2340 1.349 . S
C2352 H2346 0.950 . S
C2352 C2353 1.327 . S
C2353 H2347 0.950 . S
C2353 C2352 1.327 . S
C2353 C2357 1.429 . S
C2354 C2337 1.574 . S
C2354 H2348 0.949 . S
C2354 C2358 1.368 . S
C2355 C2336 1.429 . S
C2355 C2349 1.429 . S
C2355 C2356 1.523 . S
C2356 C2337 1.368 . S
C2356 C2350 1.368 . S
C2356 C2355 1.523 . S
C2357 C2341 1.429 . S
C2357 C2353 1.429 . S
C2357 C2358 1.523 . S
C2358 C2342 1.368 . S
C2358 C2354 1.368 . S
C2358 C2357 1.523 . S
H2359 C2334 0.950 . S
H2360 C2336 0.950 . S
H2361 C2337 0.949 . S
H2362 C2339 0.950 . S
H2363 C2341 0.950 . S
C2364 C2365 1.349 . S
C2364 C2366 1.327 . S
C2364 H2389 0.950 . S
C2365 C2364 1.349 . S
C2365 C2381 1.349 . S
C2366 C2364 1.327 . S
C2366 C2385 1.429 . S
C2366 H2390 0.950 . S
C2367 C2384 1.574 . S
C2367 C2386 1.368 . S
C2367 H2391 0.949 . S
H2368 C2372 0.949 . S
C2369 C2370 1.349 . S
C2369 C2371 1.327 . S
C2369 H2392 0.950 . S
C2370 C2369 1.349 . S
C2370 C2382 1.349 . S
C2371 C2369 1.327 . S
C2371 C2387 1.429 . S
C2371 H2393 0.950 . S
C2372 H2368 0.949 . S
C2372 C2380 1.574 . S
C2372 C2388 1.368 . S
H2373 C2381 0.950 . S
H2374 C2379 0.950 . S
H2375 C2380 0.949 . S
H2376 C2382 0.950 . S
H2377 C2383 0.950 . S
H2378 C2384 0.949 . S
C2379 H2374 0.950 . S
C2379 C2381 1.327 . S
C2379 C2385 1.429 . S
C2380 C2372 1.574 . S
C2380 H2375 0.949 . S
C2380 C2386 1.368 . S
C2381 C2365 1.349 . S
C2381 H2373 0.950 . S
C2381 C2379 1.327 . S
C2382 C2370 1.349 . S
C2382 H2376 0.950 . S
C2382 C2383 1.327 . S
C2383 H2377 0.950 . S
C2383 C2382 1.327 . S
C2383 C2387 1.429 . S
C2384 C2367 1.574 . S
C2384 H2378 0.949 . S
C2384 C2388 1.368 . S
C2385 C2366 1.429 . S
C2385 C2379 1.429 . S
C2385 C2386 1.523 . S
C2386 C2367 1.368 . S
C2386 C2380 1.368 . S
C2386 C2385 1.523 . S
C2387 C2371 1.429 . S
C2387 C2383 1.429 . S
C2387 C2388 1.523 . S
C2388 C2372 1.368 . S
C2388 C2384 1.368 . S
C2388 C2387 1.523 . S
H2389 C2364 0.950 . S
H2390 C2366 0.950 . S
H2391 C2367 0.949 . S
H2392 C2369 0.950 . S
H2393 C2371 0.950 . S
C2394 C2395 1.349 . S
C2394 C2396 1.327 . S
C2394 H2419 0.950 1_655 S
C2395 C2394 1.349 . S
C2395 C2411 1.349 . S
C2396 C2394 1.327 . S
C2396 C2415 1.429 . S
C2396 H2420 0.950 . S
C2397 C2414 1.574 . S
C2397 C2416 1.368 . S
C2397 H2421 0.949 . S
H2398 C2402 0.949 . S
C2399 C2400 1.349 . S
C2399 C2401 1.327 . S
C2399 H2422 0.950 . S
C2400 C2399 1.349 . S
C2400 C2412 1.349 . S
C2401 C2399 1.327 . S
C2401 C2417 1.429 . S
C2401 H2423 0.950 . S
C2402 H2398 0.949 . S
C2402 C2410 1.574 . S
C2402 C2418 1.368 . S
H2403 C2411 0.950 . S
H2404 C2409 0.950 . S
H2405 C2410 0.949 . S
H2406 C2412 0.950 . S
H2407 C2413 0.950 . S
H2408 C2414 0.949 . S
C2409 H2404 0.950 . S
C2409 C2411 1.327 . S
C2409 C2415 1.429 . S
C2410 C2402 1.574 . S
C2410 H2405 0.949 . S
C2410 C2416 1.368 . S
C2411 C2395 1.349 . S
C2411 H2403 0.950 . S
C2411 C2409 1.327 . S
C2412 C2400 1.349 . S
C2412 H2406 0.950 . S
C2412 C2413 1.327 . S
C2413 H2407 0.950 . S
C2413 C2412 1.327 . S
C2413 C2417 1.429 . S
C2414 C2397 1.574 . S
C2414 H2408 0.949 . S
C2414 C2418 1.368 . S
C2415 C2396 1.429 . S
C2415 C2409 1.429 . S
C2415 C2416 1.523 . S
C2416 C2397 1.368 . S
C2416 C2410 1.368 . S
C2416 C2415 1.523 . S
C2417 C2401 1.429 . S
C2417 C2413 1.429 . S
C2417 C2418 1.523 . S
C2418 C2402 1.368 . S
C2418 C2414 1.368 . S
C2418 C2417 1.523 . S
H2419 C2394 0.950 1_455 S
H2420 C2396 0.950 . S
H2421 C2397 0.949 . S
H2422 C2399 0.950 . S
H2423 C2401 0.950 . S
C2424 C2425 1.349 . S
C2424 C2426 1.327 . S
C2424 H2449 0.950 . S
C2425 C2424 1.349 . S
C2425 C2441 1.349 . S
C2426 C2424 1.327 . S
C2426 C2445 1.429 . S
C2426 H2450 0.950 . S
C2427 C2444 1.574 . S
C2427 C2446 1.368 . S
C2427 H2451 0.949 . S
H2428 C2432 0.949 . S
C2429 C2430 1.349 . S
C2429 C2431 1.327 . S
C2429 H2452 0.950 . S
C2430 C2429 1.349 . S
C2430 C2442 1.349 . S
C2431 C2429 1.327 . S
C2431 C2447 1.429 . S
C2431 H2453 0.950 . S
C2432 H2428 0.949 . S
C2432 C2440 1.574 . S
C2432 C2448 1.368 . S
H2433 C2441 0.950 . S
H2434 C2439 0.950 . S
H2435 C2440 0.949 . S
H2436 C2442 0.950 . S
H2437 C2443 0.950 . S
H2438 C2444 0.949 . S
C2439 H2434 0.950 . S
C2439 C2441 1.327 . S
C2439 C2445 1.429 . S
C2440 C2432 1.574 . S
C2440 H2435 0.949 . S
C2440 C2446 1.368 . S
C2441 C2425 1.349 . S
C2441 H2433 0.950 . S
C2441 C2439 1.327 . S
C2442 C2430 1.349 . S
C2442 H2436 0.950 . S
C2442 C2443 1.327 . S
C2443 H2437 0.950 . S
C2443 C2442 1.327 . S
C2443 C2447 1.429 . S
C2444 C2427 1.574 . S
C2444 H2438 0.949 . S
C2444 C2448 1.368 . S
C2445 C2426 1.429 . S
C2445 C2439 1.429 . S
C2445 C2446 1.523 . S
C2446 C2427 1.368 . S
C2446 C2440 1.368 . S
C2446 C2445 1.523 . S
C2447 C2431 1.429 . S
C2447 C2443 1.429 . S
C2447 C2448 1.523 . S
C2448 C2432 1.368 . S
C2448 C2444 1.368 . S
C2448 C2447 1.523 . S
H2449 C2424 0.950 . S
H2450 C2426 0.950 . S
H2451 C2427 0.949 . S
H2452 C2429 0.950 . S
H2453 C2431 0.950 . S
C2454 C2455 1.349 . S
C2454 C2456 1.327 . S
C2454 H2479 0.950 . S
C2455 C2454 1.349 . S
C2455 C2471 1.349 . S
C2456 C2454 1.327 . S
C2456 C2475 1.429 . S
C2456 H2480 0.950 . S
C2457 C2474 1.574 . S
C2457 C2476 1.368 . S
C2457 H2481 0.949 . S
H2458 C2462 0.949 . S
C2459 C2460 1.349 . S
C2459 C2461 1.327 . S
C2459 H2482 0.950 . S
C2460 C2459 1.349 . S
C2460 C2472 1.349 . S
C2461 C2459 1.327 . S
C2461 C2477 1.429 . S
C2461 H2483 0.950 . S
C2462 H2458 0.949 . S
C2462 C2470 1.574 . S
C2462 C2478 1.368 . S
H2463 C2471 0.950 . S
H2464 C2469 0.950 . S
H2465 C2470 0.949 . S
H2466 C2472 0.950 . S
H2467 C2473 0.950 . S
H2468 C2474 0.949 . S
C2469 H2464 0.950 . S
C2469 C2471 1.327 . S
C2469 C2475 1.429 . S
C2470 C2462 1.574 . S
C2470 H2465 0.949 . S
C2470 C2476 1.368 . S
C2471 C2455 1.349 . S
C2471 H2463 0.950 . S
C2471 C2469 1.327 . S
C2472 C2460 1.349 . S
C2472 H2466 0.950 . S
C2472 C2473 1.327 . S
C2473 H2467 0.950 . S
C2473 C2472 1.327 . S
C2473 C2477 1.429 . S
C2474 C2457 1.574 . S
C2474 H2468 0.949 . S
C2474 C2478 1.368 . S
C2475 C2456 1.429 . S
C2475 C2469 1.429 . S
C2475 C2476 1.523 . S
C2476 C2457 1.368 . S
C2476 C2470 1.368 . S
C2476 C2475 1.523 . S
C2477 C2461 1.429 . S
C2477 C2473 1.429 . S
C2477 C2478 1.523 . S
C2478 C2462 1.368 . S
C2478 C2474 1.368 . S
C2478 C2477 1.523 . S
H2479 C2454 0.950 . S
H2480 C2456 0.950 . S
H2481 C2457 0.949 . S
H2482 C2459 0.950 . S
H2483 C2461 0.950 . S
C2484 C2485 1.349 1_545 S
C2484 C2486 1.327 . S
C2484 H2509 0.950 . S
C2485 C2484 1.349 1_565 S
C2485 C2501 1.349 . S
C2486 C2484 1.327 . S
C2486 C2505 1.429 1_545 S
C2486 H2510 0.950 . S
C2487 C2504 1.574 . S
C2487 C2506 1.368 . S
C2487 H2511 0.949 . S
H2488 C2492 0.949 . S
C2489 C2490 1.349 1_565 S
C2489 C2491 1.327 . S
C2489 H2512 0.950 . S
C2490 C2489 1.349 1_545 S
C2490 C2502 1.349 . S
C2491 C2489 1.327 . S
C2491 C2507 1.429 1_565 S
C2491 H2513 0.950 . S
C2492 H2488 0.949 . S
C2492 C2500 1.574 . S
C2492 C2508 1.368 . S
H2493 C2501 0.950 . S
H2494 C2499 0.950 . S
H2495 C2500 0.949 . S
H2496 C2502 0.950 . S
H2497 C2503 0.950 . S
H2498 C2504 0.949 . S
C2499 H2494 0.950 . S
C2499 C2501 1.327 . S
C2499 C2505 1.429 . S
C2500 C2492 1.574 . S
C2500 H2495 0.949 . S
C2500 C2506 1.368 1_545 S
C2501 C2485 1.349 . S
C2501 H2493 0.950 . S
C2501 C2499 1.327 . S
C2502 C2490 1.349 . S
C2502 H2496 0.950 . S
C2502 C2503 1.327 . S
C2503 H2497 0.950 . S
C2503 C2502 1.327 . S
C2503 C2507 1.429 . S
C2504 C2487 1.574 . S
C2504 H2498 0.949 . S
C2504 C2508 1.368 1_565 S
C2505 C2486 1.429 1_565 S
C2505 C2499 1.429 . S
C2505 C2506 1.523 . S
C2506 C2487 1.368 . S
C2506 C2500 1.368 1_565 S
C2506 C2505 1.523 . S
C2507 C2491 1.429 1_545 S
C2507 C2503 1.429 . S
C2507 C2508 1.523 . S
C2508 C2492 1.368 . S
C2508 C2504 1.368 1_545 S
C2508 C2507 1.523 . S
H2509 C2484 0.950 . S
H2510 C2486 0.950 . S
H2511 C2487 0.949 . S
H2512 C2489 0.950 . S
H2513 C2491 0.950 . S
C2514 C2515 1.347 . S
C2514 C2516 1.327 1_545 S
C2514 H2539 0.952 1_545 S
C2515 C2514 1.347 . S
C2515 C2531 1.349 . S
C2516 C2514 1.327 1_565 S
C2516 C2535 1.429 1_565 S
C2516 H2540 0.950 . S
C2517 C2534 1.574 . S
C2517 C2536 1.368 . S
C2517 H2541 0.949 . S
H2518 C2522 0.949 . S
C2519 C2520 1.349 . S
C2519 C2521 1.327 . S
C2519 H2542 0.950 . S
C2520 C2519 1.349 . S
C2520 C2532 1.349 1_545 S
C2521 C2519 1.327 . S
C2521 C2537 1.429 . S
C2521 H2543 0.950 . S
C2522 H2518 0.949 . S
C2522 C2530 1.574 . S
C2522 C2538 1.368 1_565 S
H2523 C2531 0.950 . S
H2524 C2529 0.950 . S
H2525 C2530 0.949 . S
H2526 C2532 0.950 . S
H2527 C2533 0.950 . S
H2528 C2534 0.949 . S
C2529 H2524 0.950 . S
C2529 C2531 1.327 . S
C2529 C2535 1.429 . S
C2530 C2522 1.574 . S
C2530 H2525 0.949 . S
C2530 C2536 1.368 1_565 S
C2531 C2515 1.349 . S
C2531 H2523 0.950 . S
C2531 C2529 1.327 . S
C2532 C2520 1.349 1_565 S
C2532 H2526 0.950 . S
C2532 C2533 1.327 . S
C2533 H2527 0.950 . S
C2533 C2532 1.327 . S
C2533 C2537 1.429 1_565 S
C2534 C2517 1.574 . S
C2534 H2528 0.949 . S
C2534 C2538 1.368 . S
C2535 C2516 1.429 1_545 S
C2535 C2529 1.429 . S
C2535 C2536 1.523 . S
C2536 C2517 1.368 . S
C2536 C2530 1.368 1_545 S
C2536 C2535 1.523 . S
C2537 C2521 1.429 . S
C2537 C2533 1.429 1_545 S
C2537 C2538 1.523 . S
C2538 C2522 1.368 1_545 S
C2538 C2534 1.368 . S
C2538 C2537 1.523 . S
H2539 C2514 0.952 1_565 S
H2540 C2516 0.950 . S
H2541 C2517 0.949 . S
H2542 C2519 0.950 . S
H2543 C2521 0.950 . S
C2544 C2545 1.349 . S
C2544 C2546 1.327 . S
C2544 H2569 0.950 . S
C2545 C2544 1.349 . S
C2545 C2561 1.349 . S
C2546 C2544 1.327 . S
C2546 C2565 1.429 . S
C2546 H2570 0.950 . S
C2547 C2564 1.574 . S
C2547 C2566 1.368 . S
C2547 H2571 0.949 . S
H2548 C2552 0.949 . S
C2549 C2550 1.349 . S
C2549 C2551 1.327 . S
C2549 H2572 0.950 . S
C2550 C2549 1.349 . S
C2550 C2562 1.349 . S
C2551 C2549 1.327 . S
C2551 C2567 1.429 . S
C2551 H2573 0.950 . S
C2552 H2548 0.949 . S
C2552 C2560 1.574 . S
C2552 C2568 1.368 . S
H2553 C2561 0.950 . S
H2554 C2559 0.950 . S
H2555 C2560 0.949 . S
H2556 C2562 0.950 . S
H2557 C2563 0.950 . S
H2558 C2564 0.949 . S
C2559 H2554 0.950 . S
C2559 C2561 1.327 . S
C2559 C2565 1.429 . S
C2560 C2552 1.574 . S
C2560 H2555 0.949 . S
C2560 C2566 1.368 . S
C2561 C2545 1.349 . S
C2561 H2553 0.950 . S
C2561 C2559 1.327 . S
C2562 C2550 1.349 . S
C2562 H2556 0.950 . S
C2562 C2563 1.327 . S
C2563 H2557 0.950 . S
C2563 C2562 1.327 . S
C2563 C2567 1.429 . S
C2564 C2547 1.574 . S
C2564 H2558 0.949 . S
C2564 C2568 1.368 . S
C2565 C2546 1.429 . S
C2565 C2559 1.429 . S
C2565 C2566 1.523 . S
C2566 C2547 1.368 . S
C2566 C2560 1.368 . S
C2566 C2565 1.523 . S
C2567 C2551 1.429 . S
C2567 C2563 1.429 . S
C2567 C2568 1.523 . S
C2568 C2552 1.368 . S
C2568 C2564 1.368 . S
C2568 C2567 1.523 . S
H2569 C2544 0.950 . S
H2570 C2546 0.950 . S
H2571 C2547 0.949 . S
H2572 C2549 0.950 . S
H2573 C2551 0.950 . S
C2574 C2575 1.349 . S
C2574 C2576 1.327 . S
C2574 H2599 0.950 . S
C2575 C2574 1.349 . S
C2575 C2591 1.296 1_554 S
C2576 C2574 1.327 . S
C2576 C2595 1.429 . S
C2576 H2600 0.950 . S
C2577 C2594 1.574 . S
C2577 C2596 1.368 1_556 S
C2577 H2601 0.949 . S
H2578 C2582 0.949 . S
C2579 C2580 1.349 1_556 S
C2579 C2581 1.327 . S
C2579 H2602 0.950 . S
C2580 C2579 1.349 1_554 S
C2580 C2592 1.349 . S
C2581 C2579 1.327 . S
C2581 C2597 1.429 1_556 S
C2581 H2603 0.950 . S
C2582 H2578 0.949 . S
C2582 C2590 1.574 . S
C2582 C2598 1.368 . S
H2583 C2591 1.004 . S
H2584 C2589 0.950 . S
H2585 C2590 0.949 . S
H2586 C2592 0.950 . S
H2587 C2593 0.950 . S
H2588 C2594 0.949 . S
C2589 H2584 0.950 . S
C2589 C2591 1.331 . S
C2589 C2595 1.429 1_556 S
C2590 C2582 1.574 . S
C2590 H2585 0.949 . S
C2590 C2596 1.368 . S
C2591 C2575 1.296 1_556 S
C2591 H2583 1.004 . S
C2591 C2589 1.331 . S
C2592 C2580 1.349 . S
C2592 H2586 0.950 . S
C2592 C2593 1.327 . S
C2593 H2587 0.950 . S
C2593 C2592 1.327 . S
C2593 C2597 1.429 . S
C2594 C2577 1.574 . S
C2594 H2588 0.949 . S
C2594 C2598 1.368 1_556 S
C2595 C2576 1.429 . S
C2595 C2589 1.429 1_554 S
C2595 C2596 1.523 . S
C2596 C2577 1.368 1_554 S
C2596 C2590 1.368 . S
C2596 C2595 1.523 . S
C2597 C2581 1.429 1_554 S
C2597 C2593 1.429 . S
C2597 C2598 1.523 . S
C2598 C2582 1.368 . S
C2598 C2594 1.368 1_554 S
C2598 C2597 1.523 . S
H2599 C2574 0.950 . S
H2600 C2576 0.950 . S
H2601 C2577 0.949 . S
H2602 C2579 0.950 . S
H2603 C2581 0.950 . S
C2604 C2605 1.349 . S
C2604 C2606 1.327 . S
C2604 H2629 0.950 . S
C2605 C2604 1.349 . S
C2605 C2621 1.349 . S
C2606 C2604 1.327 . S
C2606 C2625 1.429 . S
C2606 H2630 0.950 . S
C2607 C2624 1.574 . S
C2607 C2626 1.368 . S
C2607 H2631 0.949 . S
H2608 C2612 0.949 . S
C2609 C2610 1.349 . S
C2609 C2611 1.327 . S
C2609 H2632 0.950 . S
C2610 C2609 1.349 . S
C2610 C2622 1.349 . S
C2611 C2609 1.327 . S
C2611 C2627 1.429 . S
C2611 H2633 0.950 . S
C2612 H2608 0.949 . S
C2612 C2620 1.574 . S
C2612 C2628 1.368 . S
H2613 C2621 0.950 . S
H2614 C2619 0.950 . S
H2615 C2620 0.949 . S
H2616 C2622 0.950 . S
H2617 C2623 0.950 . S
H2618 C2624 0.949 . S
C2619 H2614 0.950 . S
C2619 C2621 1.327 . S
C2619 C2625 1.429 . S
C2620 C2612 1.574 . S
C2620 H2615 0.949 . S
C2620 C2626 1.368 . S
C2621 C2605 1.349 . S
C2621 H2613 0.950 . S
C2621 C2619 1.327 . S
C2622 C2610 1.349 . S
C2622 H2616 0.950 . S
C2622 C2623 1.327 . S
C2623 H2617 0.950 . S
C2623 C2622 1.327 . S
C2623 C2627 1.429 . S
C2624 C2607 1.574 . S
C2624 H2618 0.949 . S
C2624 C2628 1.368 . S
C2625 C2606 1.429 . S
C2625 C2619 1.429 . S
C2625 C2626 1.523 . S
C2626 C2607 1.368 . S
C2626 C2620 1.368 . S
C2626 C2625 1.523 . S
C2627 C2611 1.429 . S
C2627 C2623 1.429 . S
C2627 C2628 1.523 . S
C2628 C2612 1.368 . S
C2628 C2624 1.368 . S
C2628 C2627 1.523 . S
H2629 C2604 0.950 . S
H2630 C2606 0.950 . S
H2631 C2607 0.949 . S
H2632 C2609 0.950 . S
H2633 C2611 0.950 . S
C2634 C2635 1.349 . S
C2634 C2636 1.327 . S
C2634 H2659 0.950 . S
C2635 C2634 1.349 . S
C2635 C2651 1.349 1_556 S
C2636 C2634 1.327 . S
C2636 C2655 1.429 . S
C2636 H2660 0.950 . S
C2637 C2654 1.574 . S
C2637 C2656 1.368 1_554 S
C2637 H2661 0.949 . S
H2638 C2642 0.949 . S
C2639 C2640 1.349 . S
C2639 C2641 1.327 . S
C2639 H2662 0.950 . S
C2640 C2639 1.349 . S
C2640 C2652 1.349 1_554 S
C2641 C2639 1.327 . S
C2641 C2657 1.429 . S
C2641 H2663 0.950 . S
C2642 H2638 0.949 . S
C2642 C2650 1.574 . S
C2642 C2658 1.368 1_556 S
H2643 C2651 0.950 . S
H2644 C2649 0.950 . S
H2645 C2650 0.949 . S
H2646 C2652 0.950 . S
H2647 C2653 0.950 . S
H2648 C2654 0.949 . S
C2649 H2644 0.950 . S
C2649 C2651 1.327 . S
C2649 C2655 1.429 1_554 S
C2650 C2642 1.574 . S
C2650 H2645 0.949 . S
C2650 C2656 1.368 . S
C2651 C2635 1.349 1_554 S
C2651 H2643 0.950 . S
C2651 C2649 1.327 . S
C2652 C2640 1.349 1_556 S
C2652 H2646 0.950 . S
C2652 C2653 1.327 . S
C2653 H2647 0.950 . S
C2653 C2652 1.327 . S
C2653 C2657 1.429 1_556 S
C2654 C2637 1.574 . S
C2654 H2648 0.949 . S
C2654 C2658 1.368 . S
C2655 C2636 1.429 . S
C2655 C2649 1.429 1_556 S
C2655 C2656 1.523 . S
C2656 C2637 1.368 1_556 S
C2656 C2650 1.368 . S
C2656 C2655 1.523 . S
C2657 C2641 1.429 . S
C2657 C2653 1.429 1_554 S
C2657 C2658 1.523 . S
C2658 C2642 1.368 1_554 S
C2658 C2654 1.368 . S
C2658 C2657 1.523 . S
H2659 C2634 0.950 . S
H2660 C2636 0.950 . S
H2661 C2637 0.949 . S
H2662 C2639 0.950 . S
H2663 C2641 0.950 . S
C2664 C2665 1.349 . S
C2664 C2666 1.327 . S
C2664 H2689 0.950 . S
C2665 C2664 1.349 . S
C2665 C2681 1.349 . S
C2666 C2664 1.327 . S
C2666 C2685 1.429 . S
C2666 H2690 0.950 . S
C2667 C2684 1.574 . S
C2667 C2686 1.368 . S
C2667 H2691 0.949 . S
H2668 C2672 0.949 . S
C2669 C2670 1.349 . S
C2669 C2671 1.327 . S
C2669 H2692 0.950 . S
C2670 C2669 1.349 . S
C2670 C2682 1.349 . S
C2671 C2669 1.327 . S
C2671 C2687 1.429 . S
C2671 H2693 0.950 . S
C2672 H2668 0.949 . S
C2672 C2680 1.574 . S
C2672 C2688 1.368 . S
H2673 C2681 0.950 . S
H2674 C2679 0.950 . S
H2675 C2680 0.949 . S
H2676 C2682 0.950 . S
H2677 C2683 0.950 . S
H2678 C2684 0.949 . S
C2679 H2674 0.950 . S
C2679 C2681 1.327 . S
C2679 C2685 1.429 . S
C2680 C2672 1.574 . S
C2680 H2675 0.949 . S
C2680 C2686 1.368 . S
C2681 C2665 1.349 . S
C2681 H2673 0.950 . S
C2681 C2679 1.327 . S
C2682 C2670 1.349 . S
C2682 H2676 0.950 . S
C2682 C2683 1.327 . S
C2683 H2677 0.950 . S
C2683 C2682 1.327 . S
C2683 C2687 1.429 . S
C2684 C2667 1.574 . S
C2684 H2678 0.949 . S
C2684 C2688 1.368 . S
C2685 C2666 1.429 . S
C2685 C2679 1.429 . S
C2685 C2686 1.523 . S
C2686 C2667 1.368 . S
C2686 C2680 1.368 . S
C2686 C2685 1.523 . S
C2687 C2671 1.429 . S
C2687 C2683 1.429 . S
C2687 C2688 1.523 . S
C2688 C2672 1.368 . S
C2688 C2684 1.368 . S
C2688 C2687 1.523 . S
H2689 C2664 0.950 . S
H2690 C2666 0.950 . S
H2691 C2667 0.949 . S
H2692 C2669 0.950 . S
H2693 C2671 0.950 . S
C2694 C2695 1.349 . S
C2694 C2696 1.327 . S
C2694 H2719 0.950 1_455 S
C2695 C2694 1.349 . S
C2695 C2711 1.349 . S
C2696 C2694 1.327 . S
C2696 C2715 1.429 . S
C2696 H2720 0.950 1_455 S
C2697 C2714 1.574 . S
C2697 C2716 1.368 . S
C2697 H2721 0.949 . S
H2698 C2702 0.949 . S
C2699 C2700 1.349 . S
C2699 C2701 1.327 . S
C2699 H2722 0.950 . S
C2700 C2699 1.349 . S
C2700 C2712 1.349 1_455 S
C2701 C2699 1.327 . S
C2701 C2717 1.429 . S
C2701 H2723 0.950 . S
C2702 H2698 0.949 . S
C2702 C2710 1.574 . S
C2702 C2718 1.368 1_655 S
H2703 C2711 0.950 . S
H2704 C2709 0.950 . S
H2705 C2710 0.949 . S
H2706 C2712 0.950 . S
H2707 C2713 0.950 . S
H2708 C2714 0.949 . S
C2709 H2704 0.950 . S
C2709 C2711 1.327 . S
C2709 C2715 1.429 . S
C2710 C2702 1.574 . S
C2710 H2705 0.949 . S
C2710 C2716 1.368 1_655 S
C2711 C2695 1.349 . S
C2711 H2703 0.950 . S
C2711 C2709 1.327 . S
C2712 C2700 1.349 1_655 S
C2712 H2706 0.950 . S
C2712 C2713 1.327 . S
C2713 H2707 0.950 . S
C2713 C2712 1.327 . S
C2713 C2717 1.429 1_655 S
C2714 C2697 1.574 . S
C2714 H2708 0.949 . S
C2714 C2718 1.368 . S
C2715 C2696 1.429 . S
C2715 C2709 1.429 . S
C2715 C2716 1.523 . S
C2716 C2697 1.368 . S
C2716 C2710 1.368 1_455 S
C2716 C2715 1.523 . S
C2717 C2701 1.429 . S
C2717 C2713 1.429 1_455 S
C2717 C2718 1.523 . S
C2718 C2702 1.368 1_455 S
C2718 C2714 1.368 . S
C2718 C2717 1.523 . S
H2719 C2694 0.950 1_655 S
H2720 C2696 0.950 1_655 S
H2721 C2697 0.949 . S
H2722 C2699 0.950 . S
H2723 C2701 0.950 . S
C2724 C2725 1.349 . S
C2724 C2726 1.327 . S
C2724 H2749 0.950 . S
C2725 C2724 1.349 . S
C2725 C2741 1.349 . S
C2726 C2724 1.327 . S
C2726 C2745 1.429 . S
C2726 H2750 0.950 . S
C2727 C2744 1.574 . S
C2727 C2746 1.368 . S
C2727 H2751 0.949 . S
H2728 C2732 0.949 . S
C2729 C2730 1.349 . S
C2729 C2731 1.327 . S
C2729 H2752 0.950 . S
C2730 C2729 1.349 . S
C2730 C2742 1.349 . S
C2731 C2729 1.327 . S
C2731 C2747 1.429 . S
C2731 H2753 0.950 . S
C2732 H2728 0.949 . S
C2732 C2740 1.574 . S
C2732 C2748 1.368 . S
H2733 C2741 0.950 . S
H2734 C2739 0.950 . S
H2735 C2740 0.949 . S
H2736 C2742 0.950 . S
H2737 C2743 0.950 . S
H2738 C2744 0.949 . S
C2739 H2734 0.950 . S
C2739 C2741 1.327 . S
C2739 C2745 1.429 . S
C2740 C2732 1.574 . S
C2740 H2735 0.949 . S
C2740 C2746 1.368 . S
C2741 C2725 1.349 . S
C2741 H2733 0.950 . S
C2741 C2739 1.327 . S
C2742 C2730 1.349 . S
C2742 H2736 0.950 . S
C2742 C2743 1.327 . S
C2743 H2737 0.950 . S
C2743 C2742 1.327 . S
C2743 C2747 1.429 . S
C2744 C2727 1.574 . S
C2744 H2738 0.949 . S
C2744 C2748 1.368 . S
C2745 C2726 1.429 . S
C2745 C2739 1.429 . S
C2745 C2746 1.523 . S
C2746 C2727 1.368 . S
C2746 C2740 1.368 . S
C2746 C2745 1.523 . S
C2747 C2731 1.429 . S
C2747 C2743 1.429 . S
C2747 C2748 1.523 . S
C2748 C2732 1.368 . S
C2748 C2744 1.368 . S
C2748 C2747 1.523 . S
H2749 C2724 0.950 . S
H2750 C2726 0.950 . S
H2751 C2727 0.949 . S
H2752 C2729 0.950 . S
H2753 C2731 0.950 . S
C2754 C2755 1.384 . S
C2754 C2756 1.317 1_655 S
C2754 H2779 0.927 1_655 S
C2755 C2754 1.384 . S
C2755 C2771 1.349 . S
C2756 C2754 1.317 1_455 S
C2756 C2775 1.429 1_455 S
C2756 H2780 0.950 . S
C2757 C2774 1.574 . S
C2757 C2776 1.368 . S
C2757 H2781 0.949 . S
H2758 C2762 0.949 . S
C2759 C2760 1.349 1_655 S
C2759 C2761 1.327 . S
C2759 H2782 0.950 . S
C2760 C2759 1.349 1_455 S
C2760 C2772 1.349 . S
C2761 C2759 1.327 . S
C2761 C2777 1.429 1_655 S
C2761 H2783 0.950 . S
C2762 H2758 0.949 . S
C2762 C2770 1.574 . S
C2762 C2778 1.368 . S
H2763 C2771 0.950 . S
H2764 C2769 0.950 . S
H2765 C2770 0.949 . S
H2766 C2772 0.950 . S
H2767 C2773 0.950 . S
H2768 C2774 0.949 . S
C2769 H2764 0.950 . S
C2769 C2771 1.327 . S
C2769 C2775 1.429 . S
C2770 C2762 1.574 . S
C2770 H2765 0.949 . S
C2770 C2776 1.368 1_455 S
C2771 C2755 1.349 . S
C2771 H2763 0.950 . S
C2771 C2769 1.327 . S
C2772 C2760 1.349 . S
C2772 H2766 0.950 . S
C2772 C2773 1.327 . S
C2773 H2767 0.950 . S
C2773 C2772 1.327 . S
C2773 C2777 1.429 . S
C2774 C2757 1.574 . S
C2774 H2768 0.949 . S
C2774 C2778 1.368 1_655 S
C2775 C2756 1.429 1_655 S
C2775 C2769 1.429 . S
C2775 C2776 1.523 . S
C2776 C2757 1.368 . S
C2776 C2770 1.368 1_655 S
C2776 C2775 1.523 . S
C2777 C2761 1.429 1_455 S
C2777 C2773 1.429 . S
C2777 C2778 1.523 . S
C2778 C2762 1.368 . S
C2778 C2774 1.368 1_455 S
C2778 C2777 1.523 . S
H2779 C2754 0.927 1_455 S
H2780 C2756 0.950 . S
H2781 C2757 0.949 . S
H2782 C2759 0.950 . S
H2783 C2761 0.950 . S
C2784 C2785 1.349 . S
C2784 C2786 1.327 . S
C2784 H2809 0.950 . S
C2785 C2784 1.349 . S
C2785 C2801 1.349 . S
C2786 C2784 1.327 . S
C2786 C2805 1.429 . S
C2786 H2810 0.950 . S
C2787 C2804 1.574 . S
C2787 C2806 1.368 . S
C2787 H2811 0.949 . S
H2788 C2792 0.949 . S
C2789 C2790 1.349 . S
C2789 C2791 1.327 . S
C2789 H2812 0.950 . S
C2790 C2789 1.349 . S
C2790 C2802 1.349 . S
C2791 C2789 1.327 . S
C2791 C2807 1.429 . S
C2791 H2813 0.950 . S
C2792 H2788 0.949 . S
C2792 C2800 1.574 . S
C2792 C2808 1.368 . S
H2793 C2801 0.950 . S
H2794 C2799 0.950 . S
H2795 C2800 0.949 . S
H2796 C2802 0.950 . S
H2797 C2803 0.950 . S
H2798 C2804 0.949 . S
C2799 H2794 0.950 . S
C2799 C2801 1.327 . S
C2799 C2805 1.429 . S
C2800 C2792 1.574 . S
C2800 H2795 0.949 . S
C2800 C2806 1.368 . S
C2801 C2785 1.349 . S
C2801 H2793 0.950 . S
C2801 C2799 1.327 . S
C2802 C2790 1.349 . S
C2802 H2796 0.950 . S
C2802 C2803 1.327 . S
C2803 H2797 0.950 . S
C2803 C2802 1.327 . S
C2803 C2807 1.429 . S
C2804 C2787 1.574 . S
C2804 H2798 0.949 . S
C2804 C2808 1.368 . S
C2805 C2786 1.429 . S
C2805 C2799 1.429 . S
C2805 C2806 1.523 . S
C2806 C2787 1.368 . S
C2806 C2800 1.368 . S
C2806 C2805 1.523 . S
C2807 C2791 1.429 . S
C2807 C2803 1.429 . S
C2807 C2808 1.523 . S
C2808 C2792 1.368 . S
C2808 C2804 1.368 . S
C2808 C2807 1.523 . S
H2809 C2784 0.950 . S
H2810 C2786 0.950 . S
H2811 C2787 0.949 . S
H2812 C2789 0.950 . S
H2813 C2791 0.950 . S
C2814 C2815 1.349 . S
C2814 C2816 1.327 . S
C2814 H2839 0.950 . S
C2815 C2814 1.349 . S
C2815 C2831 1.349 . S
C2816 C2814 1.327 . S
C2816 C2835 1.429 . S
C2816 H2840 0.950 . S
C2817 C2834 1.574 . S
C2817 C2836 1.368 . S
C2817 H2841 0.949 . S
H2818 C2822 0.949 . S
C2819 C2820 1.349 . S
C2819 C2821 1.327 . S
C2819 H2842 0.950 . S
C2820 C2819 1.349 . S
C2820 C2832 1.349 . S
C2821 C2819 1.327 . S
C2821 C2837 1.429 . S
C2821 H2843 0.950 . S
C2822 H2818 0.949 . S
C2822 C2830 1.574 . S
C2822 C2838 1.368 . S
H2823 C2831 0.950 . S
H2824 C2829 0.950 . S
H2825 C2830 0.949 . S
H2826 C2832 0.950 . S
H2827 C2833 0.950 . S
H2828 C2834 0.949 . S
C2829 H2824 0.950 . S
C2829 C2831 1.327 . S
C2829 C2835 1.429 . S
C2830 C2822 1.574 . S
C2830 H2825 0.949 . S
C2830 C2836 1.368 . S
C2831 C2815 1.349 . S
C2831 H2823 0.950 . S
C2831 C2829 1.327 . S
C2832 C2820 1.349 . S
C2832 H2826 0.950 . S
C2832 C2833 1.327 . S
C2833 H2827 0.950 . S
C2833 C2832 1.327 . S
C2833 C2837 1.429 . S
C2834 C2817 1.574 . S
C2834 H2828 0.949 . S
C2834 C2838 1.368 . S
C2835 C2816 1.429 . S
C2835 C2829 1.429 . S
C2835 C2836 1.523 . S
C2836 C2817 1.368 . S
C2836 C2830 1.368 . S
C2836 C2835 1.523 . S
C2837 C2821 1.429 . S
C2837 C2833 1.429 . S
C2837 C2838 1.523 . S
C2838 C2822 1.368 . S
C2838 C2834 1.368 . S
C2838 C2837 1.523 . S
H2839 C2814 0.950 . S
H2840 C2816 0.950 . S
H2841 C2817 0.949 . S
H2842 C2819 0.950 . S
H2843 C2821 0.950 . S
C2844 C2845 1.349 1_565 S
C2844 C2846 1.327 . S
C2844 H2869 0.950 . S
C2845 C2844 1.349 1_545 S
C2845 C2861 1.349 . S
C2846 C2844 1.327 . S
C2846 C2865 1.429 1_565 S
C2846 H2870 0.950 . S
C2847 C2864 1.574 . S
C2847 C2866 1.368 . S
C2847 H2871 0.949 . S
H2848 C2852 0.949 . S
C2849 C2850 1.349 1_545 S
C2849 C2851 1.327 . S
C2849 H2872 0.950 . S
C2850 C2849 1.349 1_565 S
C2850 C2862 1.349 . S
C2851 C2849 1.327 . S
C2851 C2867 1.429 1_545 S
C2851 H2873 0.950 . S
C2852 H2848 0.949 . S
C2852 C2860 1.574 . S
C2852 C2868 1.368 . S
H2853 C2861 0.950 . S
H2854 C2859 0.950 . S
H2855 C2860 0.949 . S
H2856 C2862 0.950 . S
H2857 C2863 0.950 . S
H2858 C2864 0.949 . S
C2859 H2854 0.950 . S
C2859 C2861 1.327 . S
C2859 C2865 1.429 . S
C2860 C2852 1.574 . S
C2860 H2855 0.949 . S
C2860 C2866 1.368 1_565 S
C2861 C2845 1.349 . S
C2861 H2853 0.950 . S
C2861 C2859 1.327 . S
C2862 C2850 1.349 . S
C2862 H2856 0.950 . S
C2862 C2863 1.327 . S
C2863 H2857 0.950 . S
C2863 C2862 1.327 . S
C2863 C2867 1.429 . S
C2864 C2847 1.574 . S
C2864 H2858 0.949 . S
C2864 C2868 1.368 1_545 S
C2865 C2846 1.429 1_545 S
C2865 C2859 1.429 . S
C2865 C2866 1.523 . S
C2866 C2847 1.368 . S
C2866 C2860 1.368 1_545 S
C2866 C2865 1.523 . S
C2867 C2851 1.429 1_565 S
C2867 C2863 1.429 . S
C2867 C2868 1.523 . S
C2868 C2852 1.368 . S
C2868 C2864 1.368 1_565 S
C2868 C2867 1.523 . S
H2869 C2844 0.950 . S
H2870 C2846 0.950 . S
H2871 C2847 0.949 . S
H2872 C2849 0.950 . S
H2873 C2851 0.950 . S
C2874 C2875 1.350 . S
C2874 C2876 1.327 1_565 S
C2874 H2899 0.949 1_565 S
C2875 C2874 1.350 . S
C2875 C2891 1.349 . S
C2876 C2874 1.327 1_545 S
C2876 C2895 1.429 1_545 S
C2876 H2900 0.950 . S
C2877 C2894 1.574 . S
C2877 C2896 1.368 . S
C2877 H2901 0.949 . S
H2878 C2882 0.949 . S
C2879 C2880 1.349 . S
C2879 C2881 1.327 . S
C2879 H2902 0.950 . S
C2880 C2879 1.349 . S
C2880 C2892 1.349 1_565 S
C2881 C2879 1.327 . S
C2881 C2897 1.429 . S
C2881 H2903 0.950 . S
C2882 H2878 0.949 . S
C2882 C2890 1.574 . S
C2882 C2898 1.368 1_545 S
H2883 C2891 0.950 . S
H2884 C2889 0.950 . S
H2885 C2890 0.949 . S
H2886 C2892 0.950 . S
H2887 C2893 0.950 . S
H2888 C2894 0.949 . S
C2889 H2884 0.950 . S
C2889 C2891 1.327 . S
C2889 C2895 1.429 . S
C2890 C2882 1.574 . S
C2890 H2885 0.949 . S
C2890 C2896 1.368 1_545 S
C2891 C2875 1.349 . S
C2891 H2883 0.950 . S
C2891 C2889 1.327 . S
C2892 C2880 1.349 1_545 S
C2892 H2886 0.950 . S
C2892 C2893 1.327 . S
C2893 H2887 0.950 . S
C2893 C2892 1.327 . S
C2893 C2897 1.429 1_545 S
C2894 C2877 1.574 . S
C2894 H2888 0.949 . S
C2894 C2898 1.368 . S
C2895 C2876 1.429 1_565 S
C2895 C2889 1.429 . S
C2895 C2896 1.523 . S
C2896 C2877 1.368 . S
C2896 C2890 1.368 1_565 S
C2896 C2895 1.523 . S
C2897 C2881 1.429 . S
C2897 C2893 1.429 1_565 S
C2897 C2898 1.523 . S
C2898 C2882 1.368 1_565 S
C2898 C2894 1.368 . S
C2898 C2897 1.523 . S
H2899 C2874 0.949 1_545 S
H2900 C2876 0.950 . S
H2901 C2877 0.949 . S
H2902 C2879 0.950 . S
H2903 C2881 0.950 . S
C2904 C2905 1.349 . S
C2904 C2906 1.327 . S
C2904 H2929 0.950 . S
C2905 C2904 1.349 . S
C2905 C2921 1.349 . S
C2906 C2904 1.327 . S
C2906 C2925 1.429 . S
C2906 H2930 0.950 . S
C2907 C2924 1.574 . S
C2907 C2926 1.368 . S
C2907 H2931 0.949 . S
H2908 C2912 0.949 . S
C2909 C2910 1.349 . S
C2909 C2911 1.327 . S
C2909 H2932 0.950 . S
C2910 C2909 1.349 . S
C2910 C2922 1.349 . S
C2911 C2909 1.327 . S
C2911 C2927 1.429 . S
C2911 H2933 0.950 . S
C2912 H2908 0.949 . S
C2912 C2920 1.574 . S
C2912 C2928 1.368 . S
H2913 C2921 0.950 . S
H2914 C2919 0.950 . S
H2915 C2920 0.949 . S
H2916 C2922 0.950 . S
H2917 C2923 0.950 . S
H2918 C2924 0.949 . S
C2919 H2914 0.950 . S
C2919 C2921 1.327 . S
C2919 C2925 1.429 . S
C2920 C2912 1.574 . S
C2920 H2915 0.949 . S
C2920 C2926 1.368 . S
C2921 C2905 1.349 . S
C2921 H2913 0.950 . S
C2921 C2919 1.327 . S
C2922 C2910 1.349 . S
C2922 H2916 0.950 . S
C2922 C2923 1.327 . S
C2923 H2917 0.950 . S
C2923 C2922 1.327 . S
C2923 C2927 1.429 . S
C2924 C2907 1.574 . S
C2924 H2918 0.949 . S
C2924 C2928 1.368 . S
C2925 C2906 1.429 . S
C2925 C2919 1.429 . S
C2925 C2926 1.523 . S
C2926 C2907 1.368 . S
C2926 C2920 1.368 . S
C2926 C2925 1.523 . S
C2927 C2911 1.429 . S
C2927 C2923 1.429 . S
C2927 C2928 1.523 . S
C2928 C2912 1.368 . S
C2928 C2924 1.368 . S
C2928 C2927 1.523 . S
H2929 C2904 0.950 . S
H2930 C2906 0.950 . S
H2931 C2907 0.949 . S
H2932 C2909 0.950 . S
H2933 C2911 0.950 . S
C2934 C2935 1.349 . S
C2934 C2936 1.327 1_556 S
C2934 H2959 0.950 1_556 S
C2935 C2934 1.349 . S
C2935 C2951 1.349 . S
C2936 C2934 1.327 1_554 S
C2936 C2955 1.421 1_554 S
C2936 H2960 0.958 . S
C2937 C2954 1.574 . S
C2937 C2956 1.368 . S
C2937 H2961 0.949 . S
H2938 C2942 0.949 . S
C2939 C2940 1.349 . S
C2939 C2941 1.327 . S
C2939 H2962 0.950 . S
C2940 C2939 1.349 . S
C2940 C2952 1.349 1_556 S
C2941 C2939 1.327 . S
C2941 C2957 1.429 . S
C2941 H2963 0.950 . S
C2942 H2938 0.949 . S
C2942 C2950 1.574 . S
C2942 C2958 1.368 1_554 S
H2943 C2951 0.950 . S
H2944 C2949 0.950 . S
H2945 C2950 0.949 . S
H2946 C2952 0.950 . S
H2947 C2953 0.950 . S
H2948 C2954 0.949 . S
C2949 H2944 0.950 . S
C2949 C2951 1.327 . S
C2949 C2955 1.429 . S
C2950 C2942 1.574 . S
C2950 H2945 0.949 . S
C2950 C2956 1.368 1_554 S
C2951 C2935 1.349 . S
C2951 H2943 0.950 . S
C2951 C2949 1.327 . S
C2952 C2940 1.349 1_554 S
C2952 H2946 0.950 . S
C2952 C2953 1.327 . S
C2953 H2947 0.950 . S
C2953 C2952 1.327 . S
C2953 C2957 1.429 1_554 S
C2954 C2937 1.574 . S
C2954 H2948 0.949 . S
C2954 C2958 1.368 . S
C2955 C2936 1.421 1_556 S
C2955 C2949 1.429 . S
C2955 C2956 1.523 . S
C2956 C2937 1.368 . S
C2956 C2950 1.368 1_556 S
C2956 C2955 1.523 . S
C2957 C2941 1.429 . S
C2957 C2953 1.429 1_556 S
C2957 C2958 1.523 . S
C2958 C2942 1.368 1_556 S
C2958 C2954 1.368 . S
C2958 C2957 1.523 . S
H2959 C2934 0.950 1_554 S
H2960 C2936 0.958 . S
H2961 C2937 0.949 . S
H2962 C2939 0.950 . S
H2963 C2941 0.950 . S
C2964 C2965 1.349 . S
C2964 C2966 1.327 . S
C2964 H2989 0.950 . S
C2965 C2964 1.349 . S
C2965 C2981 1.349 . S
C2966 C2964 1.327 . S
C2966 C2985 1.429 . S
C2966 H2990 0.950 . S
C2967 C2984 1.574 . S
C2967 C2986 1.368 . S
C2967 H2991 0.949 . S
H2968 C2972 0.949 . S
C2969 C2970 1.349 . S
C2969 C2971 1.327 . S
C2969 H2992 0.950 . S
C2970 C2969 1.349 . S
C2970 C2982 1.349 . S
C2971 C2969 1.327 . S
C2971 C2987 1.429 . S
C2971 H2993 0.950 . S
C2972 H2968 0.949 . S
C2972 C2980 1.574 . S
C2972 C2988 1.368 . S
H2973 C2981 0.950 . S
H2974 C2979 0.950 . S
H2975 C2980 0.949 . S
H2976 C2982 0.950 . S
H2977 C2983 0.950 . S
H2978 C2984 0.949 . S
C2979 H2974 0.950 . S
C2979 C2981 1.327 . S
C2979 C2985 1.429 . S
C2980 C2972 1.574 . S
C2980 H2975 0.949 . S
C2980 C2986 1.368 . S
C2981 C2965 1.349 . S
C2981 H2973 0.950 . S
C2981 C2979 1.327 . S
C2982 C2970 1.349 . S
C2982 H2976 0.950 . S
C2982 C2983 1.327 . S
C2983 H2977 0.950 . S
C2983 C2982 1.327 . S
C2983 C2987 1.429 . S
C2984 C2967 1.574 . S
C2984 H2978 0.949 . S
C2984 C2988 1.368 . S
C2985 C2966 1.429 . S
C2985 C2979 1.429 . S
C2985 C2986 1.523 . S
C2986 C2967 1.368 . S
C2986 C2980 1.368 . S
C2986 C2985 1.523 . S
C2987 C2971 1.429 . S
C2987 C2983 1.429 . S
C2987 C2988 1.523 . S
C2988 C2972 1.368 . S
C2988 C2984 1.368 . S
C2988 C2987 1.523 . S
H2989 C2964 0.950 . S
H2990 C2966 0.950 . S
H2991 C2967 0.949 . S
H2992 C2969 0.950 . S
H2993 C2971 0.950 . S
C2994 C2995 1.349 . S
C2994 C2996 1.327 . S
C2994 H3019 0.950 . S
C2995 C2994 1.349 . S
C2995 C3011 1.349 . S
C2996 C2994 1.327 . S
C2996 C3015 1.429 . S
C2996 H3020 0.950 . S
C2997 C3014 1.574 . S
C2997 C3016 1.368 1_556 S
C2997 H3021 0.949 . S
H2998 C3002 0.949 . S
C2999 C3000 1.349 . S
C2999 C3001 1.327 . S
C2999 H3022 0.950 . S
C3000 C2999 1.349 . S
C3000 C3012 1.365 . S
C3001 C2999 1.327 . S
C3001 C3017 1.429 . S
C3001 H3023 0.950 . S
C3002 H2998 0.949 . S
C3002 C3010 1.574 . S
C3002 C3018 1.368 1_554 S
H3003 C3011 0.937 1_556 S
H3004 C3009 0.942 1_556 S
H3005 C3010 0.949 . S
H3006 C3012 0.942 1_554 S
H3007 C3013 0.950 . S
H3008 C3014 0.949 . S
C3009 H3004 0.942 1_554 S
C3009 C3011 1.331 . S
C3009 C3015 1.432 . S
C3010 C3002 1.574 . S
C3010 H3005 0.949 . S
C3010 C3016 1.368 . S
C3011 C2995 1.349 . S
C3011 H3003 0.937 1_554 S
C3011 C3009 1.331 . S
C3012 C3000 1.365 . S
C3012 H3006 0.942 1_556 S
C3012 C3013 1.320 1_556 S
C3013 H3007 0.950 . S
C3013 C3012 1.320 1_554 S
C3013 C3017 1.429 1_554 S
C3014 C2997 1.574 . S
C3014 H3008 0.949 . S
C3014 C3018 1.368 . S
C3015 C2996 1.429 . S
C3015 C3009 1.432 . S
C3015 C3016 1.523 . S
C3016 C2997 1.368 1_554 S
C3016 C3010 1.368 . S
C3016 C3015 1.523 . S
C3017 C3001 1.429 . S
C3017 C3013 1.429 1_556 S
C3017 C3018 1.523 . S
C3018 C3002 1.368 1_556 S
C3018 C3014 1.368 . S
C3018 C3017 1.523 . S
H3019 C2994 0.950 . S
H3020 C2996 0.950 . S
H3021 C2997 0.949 . S
H3022 C2999 0.950 . S
H3023 C3001 0.950 . S
C3024 C3025 1.349 . S
C3024 C3026 1.327 . S
C3024 H3049 0.950 . S
C3025 C3024 1.349 . S
C3025 C3041 1.349 . S
C3026 C3024 1.327 . S
C3026 C3045 1.429 . S
C3026 H3050 0.950 . S
C3027 C3044 1.574 . S
C3027 C3046 1.368 . S
C3027 H3051 0.949 . S
H3028 C3032 0.949 . S
C3029 C3030 1.349 . S
C3029 C3031 1.327 . S
C3029 H3052 0.950 . S
C3030 C3029 1.349 . S
C3030 C3042 1.349 . S
C3031 C3029 1.327 . S
C3031 C3047 1.429 . S
C3031 H3053 0.950 . S
C3032 H3028 0.949 . S
C3032 C3040 1.574 . S
C3032 C3048 1.368 . S
H3033 C3041 0.950 . S
H3034 C3039 0.950 . S
H3035 C3040 0.949 . S
H3036 C3042 0.950 . S
H3037 C3043 0.950 . S
H3038 C3044 0.949 . S
C3039 H3034 0.950 . S
C3039 C3041 1.327 . S
C3039 C3045 1.429 . S
C3040 C3032 1.574 . S
C3040 H3035 0.949 . S
C3040 C3046 1.368 . S
C3041 C3025 1.349 . S
C3041 H3033 0.950 . S
C3041 C3039 1.327 . S
C3042 C3030 1.349 . S
C3042 H3036 0.950 . S
C3042 C3043 1.327 . S
C3043 H3037 0.950 . S
C3043 C3042 1.327 . S
C3043 C3047 1.429 . S
C3044 C3027 1.574 . S
C3044 H3038 0.949 . S
C3044 C3048 1.368 . S
C3045 C3026 1.429 . S
C3045 C3039 1.429 . S
C3045 C3046 1.523 . S
C3046 C3027 1.368 . S
C3046 C3040 1.368 . S
C3046 C3045 1.523 . S
C3047 C3031 1.429 . S
C3047 C3043 1.429 . S
C3047 C3048 1.523 . S
C3048 C3032 1.368 . S
C3048 C3044 1.368 . S
C3048 C3047 1.523 . S
H3049 C3024 0.950 . S
H3050 C3026 0.950 . S
H3051 C3027 0.949 . S
H3052 C3029 0.950 . S
H3053 C3031 0.950 . S
C3054 C3055 1.349 . S
C3054 C3056 1.327 . S
C3054 H3079 0.950 . S
C3055 C3054 1.349 . S
C3055 C3071 1.312 1_655 S
C3056 C3054 1.327 . S
C3056 C3075 1.429 . S
C3056 H3080 0.950 . S
C3057 C3074 1.574 . S
C3057 C3076 1.368 1_455 S
C3057 H3081 0.949 . S
H3058 C3062 0.949 . S
C3059 C3060 1.349 1_455 S
C3059 C3061 1.327 . S
C3059 H3082 0.950 . S
C3060 C3059 1.349 1_655 S
C3060 C3072 1.349 . S
C3061 C3059 1.327 . S
C3061 C3077 1.429 1_455 S
C3061 H3083 0.950 . S
C3062 H3058 0.949 . S
C3062 C3070 1.574 . S
C3062 C3078 1.368 . S
H3063 C3071 0.987 . S
H3064 C3069 0.950 . S
H3065 C3070 0.949 . S
H3066 C3072 0.950 . S
H3067 C3073 0.950 . S
H3068 C3074 0.949 . S
C3069 H3064 0.950 . S
C3069 C3071 1.329 . S
C3069 C3075 1.429 1_455 S
C3070 C3062 1.574 . S
C3070 H3065 0.949 . S
C3070 C3076 1.368 . S
C3071 C3055 1.312 1_455 S
C3071 H3063 0.987 . S
C3071 C3069 1.329 . S
C3072 C3060 1.349 . S
C3072 H3066 0.950 . S
C3072 C3073 1.327 . S
C3073 H3067 0.950 . S
C3073 C3072 1.327 . S
C3073 C3077 1.429 . S
C3074 C3057 1.574 . S
C3074 H3068 0.949 . S
C3074 C3078 1.368 1_455 S
C3075 C3056 1.429 . S
C3075 C3069 1.429 1_655 S
C3075 C3076 1.523 . S
C3076 C3057 1.368 1_655 S
C3076 C3070 1.368 . S
C3076 C3075 1.523 . S
C3077 C3061 1.429 1_655 S
C3077 C3073 1.429 . S
C3077 C3078 1.523 . S
C3078 C3062 1.368 . S
C3078 C3074 1.368 1_655 S
C3078 C3077 1.523 . S
H3079 C3054 0.950 . S
H3080 C3056 0.950 . S
H3081 C3057 0.949 . S
H3082 C3059 0.950 . S
H3083 C3061 0.950 . S
C3084 C3085 1.349 . S
C3084 C3086 1.327 . S
C3084 H3109 0.950 . S
C3085 C3084 1.349 . S
C3085 C3101 1.349 . S
C3086 C3084 1.327 . S
C3086 C3105 1.429 . S
C3086 H3110 0.950 . S
C3087 C3104 1.574 . S
C3087 C3106 1.368 . S
C3087 H3111 0.949 . S
H3088 C3092 0.949 . S
C3089 C3090 1.349 . S
C3089 C3091 1.327 . S
C3089 H3112 0.950 . S
C3090 C3089 1.349 . S
C3090 C3102 1.349 . S
C3091 C3089 1.327 . S
C3091 C3107 1.429 . S
C3091 H3113 0.950 . S
C3092 H3088 0.949 . S
C3092 C3100 1.574 . S
C3092 C3108 1.368 . S
H3093 C3101 0.950 . S
H3094 C3099 0.950 . S
H3095 C3100 0.949 . S
H3096 C3102 0.950 . S
H3097 C3103 0.950 . S
H3098 C3104 0.949 . S
C3099 H3094 0.950 . S
C3099 C3101 1.327 . S
C3099 C3105 1.429 . S
C3100 C3092 1.574 . S
C3100 H3095 0.949 . S
C3100 C3106 1.368 . S
C3101 C3085 1.349 . S
C3101 H3093 0.950 . S
C3101 C3099 1.327 . S
C3102 C3090 1.349 . S
C3102 H3096 0.950 . S
C3102 C3103 1.327 . S
C3103 H3097 0.950 . S
C3103 C3102 1.327 . S
C3103 C3107 1.429 . S
C3104 C3087 1.574 . S
C3104 H3098 0.949 . S
C3104 C3108 1.368 . S
C3105 C3086 1.429 . S
C3105 C3099 1.429 . S
C3105 C3106 1.523 . S
C3106 C3087 1.368 . S
C3106 C3100 1.368 . S
C3106 C3105 1.523 . S
C3107 C3091 1.429 . S
C3107 C3103 1.429 . S
C3107 C3108 1.523 . S
C3108 C3092 1.368 . S
C3108 C3104 1.368 . S
C3108 C3107 1.523 . S
H3109 C3084 0.950 . S
H3110 C3086 0.950 . S
H3111 C3087 0.949 . S
H3112 C3089 0.950 . S
H3113 C3091 0.950 . S
C3114 C3115 1.349 . S
C3114 C3116 1.327 . S
C3114 H3139 0.950 . S
C3115 C3114 1.349 . S
C3115 C3131 1.349 1_455 S
C3116 C3114 1.327 . S
C3116 C3135 1.429 . S
C3116 H3140 0.950 . S
C3117 C3134 1.574 . S
C3117 C3136 1.368 1_655 S
C3117 H3141 0.949 . S
H3118 C3122 0.949 . S
C3119 C3120 1.349 . S
C3119 C3121 1.327 . S
C3119 H3142 0.950 . S
C3120 C3119 1.349 . S
C3120 C3132 1.349 1_655 S
C3121 C3119 1.327 . S
C3121 C3137 1.429 . S
C3121 H3143 0.950 . S
C3122 H3118 0.949 . S
C3122 C3130 1.574 . S
C3122 C3138 1.368 1_455 S
H3123 C3131 0.950 . S
H3124 C3129 0.950 . S
H3125 C3130 0.949 . S
H3126 C3132 0.950 . S
H3127 C3133 0.950 . S
H3128 C3134 0.949 . S
C3129 H3124 0.950 . S
C3129 C3131 1.327 . S
C3129 C3135 1.429 1_655 S
C3130 C3122 1.574 . S
C3130 H3125 0.949 . S
C3130 C3136 1.368 . S
C3131 C3115 1.349 1_655 S
C3131 H3123 0.950 . S
C3131 C3129 1.327 . S
C3132 C3120 1.349 1_455 S
C3132 H3126 0.950 . S
C3132 C3133 1.327 . S
C3133 H3127 0.950 . S
C3133 C3132 1.327 . S
C3133 C3137 1.429 1_455 S
C3134 C3117 1.574 . S
C3134 H3128 0.949 . S
C3134 C3138 1.368 . S
C3135 C3116 1.429 . S
C3135 C3129 1.429 1_455 S
C3135 C3136 1.523 . S
C3136 C3117 1.368 1_455 S
C3136 C3130 1.368 . S
C3136 C3135 1.523 . S
C3137 C3121 1.429 . S
C3137 C3133 1.429 1_655 S
C3137 C3138 1.523 . S
C3138 C3122 1.368 1_655 S
C3138 C3134 1.368 . S
C3138 C3137 1.523 . S
H3139 C3114 0.950 . S
H3140 C3116 0.950 . S
H3141 C3117 0.949 . S
H3142 C3119 0.950 . S
H3143 C3121 0.950 . S
C3144 C3145 1.349 . S
C3144 C3146 1.327 . S
C3144 H3169 0.950 . S
C3145 C3144 1.349 . S
C3145 C3161 1.349 . S
C3146 C3144 1.327 . S
C3146 C3165 1.429 . S
C3146 H3170 0.950 . S
C3147 C3164 1.574 . S
C3147 C3166 1.368 . S
C3147 H3171 0.949 . S
H3148 C3152 0.949 . S
C3149 C3150 1.349 . S
C3149 C3151 1.327 . S
C3149 H3172 0.950 . S
C3150 C3149 1.349 . S
C3150 C3162 1.349 . S
C3151 C3149 1.327 . S
C3151 C3167 1.429 . S
C3151 H3173 0.950 . S
C3152 H3148 0.949 . S
C3152 C3160 1.574 . S
C3152 C3168 1.368 . S
H3153 C3161 0.950 . S
H3154 C3159 0.950 . S
H3155 C3160 0.949 . S
H3156 C3162 0.950 . S
H3157 C3163 0.950 . S
H3158 C3164 0.949 . S
C3159 H3154 0.950 . S
C3159 C3161 1.327 . S
C3159 C3165 1.429 . S
C3160 C3152 1.574 . S
C3160 H3155 0.949 . S
C3160 C3166 1.368 . S
C3161 C3145 1.349 . S
C3161 H3153 0.950 . S
C3161 C3159 1.327 . S
C3162 C3150 1.349 . S
C3162 H3156 0.950 . S
C3162 C3163 1.327 . S
C3163 H3157 0.950 . S
C3163 C3162 1.327 . S
C3163 C3167 1.429 . S
C3164 C3147 1.574 . S
C3164 H3158 0.949 . S
C3164 C3168 1.368 . S
C3165 C3146 1.429 . S
C3165 C3159 1.429 . S
C3165 C3166 1.523 . S
C3166 C3147 1.368 . S
C3166 C3160 1.368 . S
C3166 C3165 1.523 . S
C3167 C3151 1.429 . S
C3167 C3163 1.429 . S
C3167 C3168 1.523 . S
C3168 C3152 1.368 . S
C3168 C3164 1.368 . S
C3168 C3167 1.523 . S
H3169 C3144 0.950 . S
H3170 C3146 0.950 . S
H3171 C3147 0.949 . S
H3172 C3149 0.950 . S
H3173 C3151 0.950 . S
C3174 C3175 1.349 . S
C3174 C3176 1.327 . S
C3174 H3199 0.950 . S
C3175 C3174 1.349 . S
C3175 C3191 1.349 . S
C3176 C3174 1.327 . S
C3176 C3195 1.429 . S
C3176 H3200 0.950 . S
C3177 C3194 1.574 . S
C3177 C3196 1.368 . S
C3177 H3201 0.949 . S
H3178 C3182 0.949 . S
C3179 C3180 1.349 . S
C3179 C3181 1.327 . S
C3179 H3202 0.950 . S
C3180 C3179 1.349 . S
C3180 C3192 1.349 . S
C3181 C3179 1.327 . S
C3181 C3197 1.429 . S
C3181 H3203 0.950 . S
C3182 H3178 0.949 . S
C3182 C3190 1.574 . S
C3182 C3198 1.368 . S
H3183 C3191 0.950 . S
H3184 C3189 0.950 . S
H3185 C3190 0.949 . S
H3186 C3192 0.950 . S
H3187 C3193 0.950 . S
H3188 C3194 0.949 . S
C3189 H3184 0.950 . S
C3189 C3191 1.327 . S
C3189 C3195 1.429 . S
C3190 C3182 1.574 . S
C3190 H3185 0.949 . S
C3190 C3196 1.368 . S
C3191 C3175 1.349 . S
C3191 H3183 0.950 . S
C3191 C3189 1.327 . S
C3192 C3180 1.349 . S
C3192 H3186 0.950 . S
C3192 C3193 1.327 . S
C3193 H3187 0.950 . S
C3193 C3192 1.327 . S
C3193 C3197 1.429 . S
C3194 C3177 1.574 . S
C3194 H3188 0.949 . S
C3194 C3198 1.368 . S
C3195 C3176 1.429 . S
C3195 C3189 1.429 . S
C3195 C3196 1.523 . S
C3196 C3177 1.368 . S
C3196 C3190 1.368 . S
C3196 C3195 1.523 . S
C3197 C3181 1.429 . S
C3197 C3193 1.429 . S
C3197 C3198 1.523 . S
C3198 C3182 1.368 . S
C3198 C3194 1.368 . S
C3198 C3197 1.523 . S
H3199 C3174 0.950 . S
H3200 C3176 0.950 . S
H3201 C3177 0.949 . S
H3202 C3179 0.950 . S
H3203 C3181 0.950 . S
C3204 C3205 1.349 . S
C3204 C3206 1.327 . S
C3204 H3229 0.950 . S
C3205 C3204 1.349 . S
C3205 C3221 1.349 . S
C3206 C3204 1.327 . S
C3206 C3225 1.429 . S
C3206 H3230 0.950 . S
C3207 C3224 1.574 . S
C3207 C3226 1.368 . S
C3207 H3231 0.949 . S
H3208 C3212 0.949 . S
C3209 C3210 1.349 . S
C3209 C3211 1.327 . S
C3209 H3232 0.950 . S
C3210 C3209 1.349 . S
C3210 C3222 1.349 . S
C3211 C3209 1.327 . S
C3211 C3227 1.429 . S
C3211 H3233 0.950 . S
C3212 H3208 0.949 . S
C3212 C3220 1.574 . S
C3212 C3228 1.368 . S
H3213 C3221 0.950 . S
H3214 C3219 0.950 . S
H3215 C3220 0.949 . S
H3216 C3222 0.950 . S
H3217 C3223 0.950 . S
H3218 C3224 0.949 . S
C3219 H3214 0.950 . S
C3219 C3221 1.327 . S
C3219 C3225 1.429 . S
C3220 C3212 1.574 . S
C3220 H3215 0.949 . S
C3220 C3226 1.368 . S
C3221 C3205 1.349 . S
C3221 H3213 0.950 . S
C3221 C3219 1.327 . S
C3222 C3210 1.349 . S
C3222 H3216 0.950 . S
C3222 C3223 1.327 . S
C3223 H3217 0.950 . S
C3223 C3222 1.327 . S
C3223 C3227 1.429 . S
C3224 C3207 1.574 . S
C3224 H3218 0.949 . S
C3224 C3228 1.368 . S
C3225 C3206 1.429 . S
C3225 C3219 1.429 . S
C3225 C3226 1.523 . S
C3226 C3207 1.368 . S
C3226 C3220 1.368 . S
C3226 C3225 1.523 . S
C3227 C3211 1.429 . S
C3227 C3223 1.429 . S
C3227 C3228 1.523 . S
C3228 C3212 1.368 . S
C3228 C3224 1.368 . S
C3228 C3227 1.523 . S
H3229 C3204 0.950 . S
H3230 C3206 0.950 . S
H3231 C3207 0.949 . S
H3232 C3209 0.950 . S
H3233 C3211 0.950 . S
C3234 C3235 1.349 . S
C3234 C3236 1.327 . S
C3234 H3259 0.950 . S
C3235 C3234 1.349 . S
C3235 C3251 1.349 . S
C3236 C3234 1.327 . S
C3236 C3255 1.429 . S
C3236 H3260 0.950 . S
C3237 C3254 1.574 . S
C3237 C3256 1.368 . S
C3237 H3261 0.949 . S
H3238 C3242 0.949 . S
C3239 C3240 1.349 . S
C3239 C3241 1.327 . S
C3239 H3262 0.950 . S
C3240 C3239 1.349 . S
C3240 C3252 1.349 . S
C3241 C3239 1.327 . S
C3241 C3257 1.429 . S
C3241 H3263 0.950 . S
C3242 H3238 0.949 . S
C3242 C3250 1.574 . S
C3242 C3258 1.368 . S
H3243 C3251 0.950 1_545 S
H3244 C3249 0.950 . S
H3245 C3250 0.949 . S
H3246 C3252 0.950 . S
H3247 C3253 0.950 . S
H3248 C3254 0.949 . S
C3249 H3244 0.950 . S
C3249 C3251 1.327 . S
C3249 C3255 1.429 . S
C3250 C3242 1.574 . S
C3250 H3245 0.949 . S
C3250 C3256 1.368 . S
C3251 C3235 1.349 . S
C3251 H3243 0.950 1_565 S
C3251 C3249 1.327 . S
C3252 C3240 1.349 . S
C3252 H3246 0.950 . S
C3252 C3253 1.327 . S
C3253 H3247 0.950 . S
C3253 C3252 1.327 . S
C3253 C3257 1.429 . S
C3254 C3237 1.574 . S
C3254 H3248 0.949 . S
C3254 C3258 1.368 . S
C3255 C3236 1.429 . S
C3255 C3249 1.429 . S
C3255 C3256 1.523 . S
C3256 C3237 1.368 . S
C3256 C3250 1.368 . S
C3256 C3255 1.523 . S
C3257 C3241 1.429 . S
C3257 C3253 1.429 . S
C3257 C3258 1.523 . S
C3258 C3242 1.368 . S
C3258 C3254 1.368 . S
C3258 C3257 1.523 . S
H3259 C3234 0.950 . S
H3260 C3236 0.950 . S
H3261 C3237 0.949 . S
H3262 C3239 0.950 . S
H3263 C3241 0.950 . S
C3264 C3265 1.349 . S
C3264 C3266 1.327 . S
C3264 H3289 0.950 . S
C3265 C3264 1.349 . S
C3265 C3281 1.349 . S
C3266 C3264 1.327 . S
C3266 C3285 1.429 . S
C3266 H3290 0.950 . S
C3267 C3284 1.574 . S
C3267 C3286 1.368 . S
C3267 H3291 0.949 . S
H3268 C3272 0.949 . S
C3269 C3270 1.349 . S
C3269 C3271 1.327 . S
C3269 H3292 0.950 . S
C3270 C3269 1.349 . S
C3270 C3282 1.349 . S
C3271 C3269 1.327 . S
C3271 C3287 1.429 . S
C3271 H3293 0.950 . S
C3272 H3268 0.949 . S
C3272 C3280 1.574 . S
C3272 C3288 1.368 . S
H3273 C3281 0.950 . S
H3274 C3279 0.950 . S
H3275 C3280 0.949 . S
H3276 C3282 0.950 . S
H3277 C3283 0.950 . S
H3278 C3284 0.949 . S
C3279 H3274 0.950 . S
C3279 C3281 1.327 . S
C3279 C3285 1.429 . S
C3280 C3272 1.574 . S
C3280 H3275 0.949 . S
C3280 C3286 1.368 . S
C3281 C3265 1.349 . S
C3281 H3273 0.950 . S
C3281 C3279 1.327 . S
C3282 C3270 1.349 . S
C3282 H3276 0.950 . S
C3282 C3283 1.327 . S
C3283 H3277 0.950 . S
C3283 C3282 1.327 . S
C3283 C3287 1.429 . S
C3284 C3267 1.574 . S
C3284 H3278 0.949 . S
C3284 C3288 1.368 . S
C3285 C3266 1.429 . S
C3285 C3279 1.429 . S
C3285 C3286 1.523 . S
C3286 C3267 1.368 . S
C3286 C3280 1.368 . S
C3286 C3285 1.523 . S
C3287 C3271 1.429 . S
C3287 C3283 1.429 . S
C3287 C3288 1.523 . S
C3288 C3272 1.368 . S
C3288 C3284 1.368 . S
C3288 C3287 1.523 . S
H3289 C3264 0.950 . S
H3290 C3266 0.950 . S
H3291 C3267 0.949 . S
H3292 C3269 0.950 . S
H3293 C3271 0.950 . S
C3294 C3295 1.349 . S
C3294 C3296 1.327 . S
C3294 H3319 0.950 . S
C3295 C3294 1.349 . S
C3295 C3311 1.349 . S
C3296 C3294 1.327 . S
C3296 C3315 1.429 . S
C3296 H3320 0.950 . S
C3297 C3314 1.574 . S
C3297 C3316 1.368 . S
C3297 H3321 0.949 . S
H3298 C3302 0.949 . S
C3299 C3300 1.349 . S
C3299 C3301 1.327 . S
C3299 H3322 0.950 . S
C3300 C3299 1.349 . S
C3300 C3312 1.349 . S
C3301 C3299 1.327 . S
C3301 C3317 1.429 . S
C3301 H3323 0.950 . S
C3302 H3298 0.949 . S
C3302 C3310 1.574 . S
C3302 C3318 1.368 . S
H3303 C3311 0.950 . S
H3304 C3309 0.950 . S
H3305 C3310 0.949 . S
H3306 C3312 0.950 . S
H3307 C3313 0.950 . S
H3308 C3314 0.949 . S
C3309 H3304 0.950 . S
C3309 C3311 1.327 . S
C3309 C3315 1.429 . S
C3310 C3302 1.574 . S
C3310 H3305 0.949 . S
C3310 C3316 1.368 . S
C3311 C3295 1.349 . S
C3311 H3303 0.950 . S
C3311 C3309 1.327 . S
C3312 C3300 1.349 . S
C3312 H3306 0.950 . S
C3312 C3313 1.327 . S
C3313 H3307 0.950 . S
C3313 C3312 1.327 . S
C3313 C3317 1.429 . S
C3314 C3297 1.574 . S
C3314 H3308 0.949 . S
C3314 C3318 1.368 . S
C3315 C3296 1.429 . S
C3315 C3309 1.429 . S
C3315 C3316 1.523 . S
C3316 C3297 1.368 . S
C3316 C3310 1.368 . S
C3316 C3315 1.523 . S
C3317 C3301 1.429 . S
C3317 C3313 1.429 . S
C3317 C3318 1.523 . S
C3318 C3302 1.368 . S
C3318 C3314 1.368 . S
C3318 C3317 1.523 . S
H3319 C3294 0.950 . S
H3320 C3296 0.950 . S
H3321 C3297 0.949 . S
H3322 C3299 0.950 . S
H3323 C3301 0.950 . S
C3324 C3325 1.349 . S
C3324 C3326 1.327 . S
C3324 H3349 0.950 . S
C3325 C3324 1.349 . S
C3325 C3341 1.349 . S
C3326 C3324 1.327 . S
C3326 C3345 1.429 . S
C3326 H3350 0.950 . S
C3327 C3344 1.574 . S
C3327 C3346 1.368 . S
C3327 H3351 0.949 . S
H3328 C3332 0.949 . S
C3329 C3330 1.349 . S
C3329 C3331 1.327 . S
C3329 H3352 0.950 . S
C3330 C3329 1.349 . S
C3330 C3342 1.349 . S
C3331 C3329 1.327 . S
C3331 C3347 1.429 . S
C3331 H3353 0.950 . S
C3332 H3328 0.949 . S
C3332 C3340 1.574 . S
C3332 C3348 1.368 . S
H3333 C3341 0.950 . S
H3334 C3339 0.950 . S
H3335 C3340 0.949 . S
H3336 C3342 0.950 . S
H3337 C3343 0.950 . S
H3338 C3344 0.949 . S
C3339 H3334 0.950 . S
C3339 C3341 1.327 . S
C3339 C3345 1.429 . S
C3340 C3332 1.574 . S
C3340 H3335 0.949 . S
C3340 C3346 1.368 . S
C3341 C3325 1.349 . S
C3341 H3333 0.950 . S
C3341 C3339 1.327 . S
C3342 C3330 1.349 . S
C3342 H3336 0.950 . S
C3342 C3343 1.327 . S
C3343 H3337 0.950 . S
C3343 C3342 1.327 . S
C3343 C3347 1.429 . S
C3344 C3327 1.574 . S
C3344 H3338 0.949 . S
C3344 C3348 1.368 . S
C3345 C3326 1.429 . S
C3345 C3339 1.429 . S
C3345 C3346 1.523 . S
C3346 C3327 1.368 . S
C3346 C3340 1.368 . S
C3346 C3345 1.523 . S
C3347 C3331 1.429 . S
C3347 C3343 1.429 . S
C3347 C3348 1.523 . S
C3348 C3332 1.368 . S
C3348 C3344 1.368 . S
C3348 C3347 1.523 . S
H3349 C3324 0.950 . S
H3350 C3326 0.950 . S
H3351 C3327 0.949 . S
H3352 C3329 0.950 . S
H3353 C3331 0.950 . S
C3354 C3355 1.349 . S
C3354 C3356 1.327 . S
C3354 H3379 0.950 . S
C3355 C3354 1.349 . S
C3355 C3371 1.349 1_554 S
C3356 C3354 1.327 . S
C3356 C3375 1.429 . S
C3356 H3380 0.950 . S
C3357 C3374 1.574 . S
C3357 C3376 1.368 . S
C3357 H3381 0.949 1_554 S
H3358 C3362 0.949 . S
C3359 C3360 1.349 . S
C3359 C3361 1.327 . S
C3359 H3382 0.950 . S
C3360 C3359 1.349 . S
C3360 C3372 1.349 . S
C3361 C3359 1.327 . S
C3361 C3377 1.429 . S
C3361 H3383 0.950 . S
C3362 H3358 0.949 . S
C3362 C3370 1.574 . S
C3362 C3378 1.368 . S
H3363 C3371 0.950 . S
H3364 C3369 0.950 . S
H3365 C3370 0.949 . S
H3366 C3372 0.950 . S
H3367 C3373 0.950 . S
H3368 C3374 0.953 1_556 S
C3369 H3364 0.950 . S
C3369 C3371 1.327 . S
C3369 C3375 1.429 1_556 S
C3370 C3362 1.574 . S
C3370 H3365 0.949 . S
C3370 C3376 1.368 . S
C3371 C3355 1.349 1_556 S
C3371 H3363 0.950 . S
C3371 C3369 1.327 . S
C3372 C3360 1.349 . S
C3372 H3366 0.950 . S
C3372 C3373 1.327 . S
C3373 H3367 0.950 . S
C3373 C3372 1.327 . S
C3373 C3377 1.429 . S
C3374 C3357 1.574 . S
C3374 H3368 0.953 1_554 S
C3374 C3378 1.368 . S
C3375 C3356 1.429 . S
C3375 C3369 1.429 1_554 S
C3375 C3376 1.523 . S
C3376 C3357 1.368 . S
C3376 C3370 1.368 . S
C3376 C3375 1.523 . S
C3377 C3361 1.429 . S
C3377 C3373 1.429 . S
C3377 C3378 1.523 . S
C3378 C3362 1.368 . S
C3378 C3374 1.368 . S
C3378 C3377 1.523 . S
H3379 C3354 0.950 . S
H3380 C3356 0.950 . S
H3381 C3357 0.949 1_556 S
H3382 C3359 0.950 . S
H3383 C3361 0.950 . S
C3384 C3385 1.349 . S
C3384 C3386 1.327 . S
C3384 H3409 0.950 . S
C3385 C3384 1.349 . S
C3385 C3401 1.349 . S
C3386 C3384 1.327 . S
C3386 C3405 1.429 . S
C3386 H3410 0.950 . S
C3387 C3404 1.574 . S
C3387 C3406 1.368 . S
C3387 H3411 0.949 . S
H3388 C3392 0.949 . S
C3389 C3390 1.349 . S
C3389 C3391 1.327 . S
C3389 H3412 0.950 . S
C3390 C3389 1.349 . S
C3390 C3402 1.349 . S
C3391 C3389 1.327 . S
C3391 C3407 1.429 . S
C3391 H3413 0.950 . S
C3392 H3388 0.949 . S
C3392 C3400 1.574 . S
C3392 C3408 1.368 . S
H3393 C3401 0.950 . S
H3394 C3399 0.950 . S
H3395 C3400 0.949 . S
H3396 C3402 0.950 . S
H3397 C3403 0.950 . S
H3398 C3404 0.949 . S
C3399 H3394 0.950 . S
C3399 C3401 1.327 . S
C3399 C3405 1.429 . S
C3400 C3392 1.574 . S
C3400 H3395 0.949 . S
C3400 C3406 1.368 . S
C3401 C3385 1.349 . S
C3401 H3393 0.950 . S
C3401 C3399 1.327 . S
C3402 C3390 1.349 . S
C3402 H3396 0.950 . S
C3402 C3403 1.327 . S
C3403 H3397 0.950 . S
C3403 C3402 1.327 . S
C3403 C3407 1.429 . S
C3404 C3387 1.574 . S
C3404 H3398 0.949 . S
C3404 C3408 1.368 . S
C3405 C3386 1.429 . S
C3405 C3399 1.429 . S
C3405 C3406 1.523 . S
C3406 C3387 1.368 . S
C3406 C3400 1.368 . S
C3406 C3405 1.523 . S
C3407 C3391 1.429 . S
C3407 C3403 1.429 . S
C3407 C3408 1.523 . S
C3408 C3392 1.368 . S
C3408 C3404 1.368 . S
C3408 C3407 1.523 . S
H3409 C3384 0.950 . S
H3410 C3386 0.950 . S
H3411 C3387 0.949 . S
H3412 C3389 0.950 . S
H3413 C3391 0.950 . S
C3414 C3415 1.349 . S
C3414 C3416 1.327 . S
C3414 H3439 0.950 . S
C3415 C3414 1.349 . S
C3415 C3431 1.349 . S
C3416 C3414 1.327 . S
C3416 C3435 1.429 . S
C3416 H3440 0.950 . S
C3417 C3434 1.574 . S
C3417 C3436 1.368 . S
C3417 H3441 0.949 . S
H3418 C3422 0.949 . S
C3419 C3420 1.349 . S
C3419 C3421 1.327 . S
C3419 H3442 0.950 . S
C3420 C3419 1.349 . S
C3420 C3432 1.349 . S
C3421 C3419 1.327 . S
C3421 C3437 1.429 . S
C3421 H3443 0.950 . S
C3422 H3418 0.949 . S
C3422 C3430 1.574 . S
C3422 C3438 1.368 . S
H3423 C3431 0.950 1_455 S
H3424 C3429 0.950 . S
H3425 C3430 0.949 . S
H3426 C3432 0.950 . S
H3427 C3433 0.950 . S
H3428 C3434 0.949 . S
C3429 H3424 0.950 . S
C3429 C3431 1.327 . S
C3429 C3435 1.429 . S
C3430 C3422 1.574 . S
C3430 H3425 0.949 . S
C3430 C3436 1.368 . S
C3431 C3415 1.349 . S
C3431 H3423 0.950 1_655 S
C3431 C3429 1.327 . S
C3432 C3420 1.349 . S
C3432 H3426 0.950 . S
C3432 C3433 1.327 . S
C3433 H3427 0.950 . S
C3433 C3432 1.327 . S
C3433 C3437 1.429 . S
C3434 C3417 1.574 . S
C3434 H3428 0.949 . S
C3434 C3438 1.368 . S
C3435 C3416 1.429 . S
C3435 C3429 1.429 . S
C3435 C3436 1.523 . S
C3436 C3417 1.368 . S
C3436 C3430 1.368 . S
C3436 C3435 1.523 . S
C3437 C3421 1.429 . S
C3437 C3433 1.429 . S
C3437 C3438 1.523 . S
C3438 C3422 1.368 . S
C3438 C3434 1.368 . S
C3438 C3437 1.523 . S
H3439 C3414 0.950 . S
H3440 C3416 0.950 . S
H3441 C3417 0.949 . S
H3442 C3419 0.950 . S
H3443 C3421 0.950 . S
C3444 C3445 1.349 . S
C3444 C3446 1.327 . S
C3444 H3469 0.950 . S
C3445 C3444 1.349 . S
C3445 C3461 1.349 . S
C3446 C3444 1.327 . S
C3446 C3465 1.429 . S
C3446 H3470 0.950 . S
C3447 C3464 1.574 . S
C3447 C3466 1.368 . S
C3447 H3471 0.949 . S
H3448 C3452 0.949 . S
C3449 C3450 1.349 . S
C3449 C3451 1.327 . S
C3449 H3472 0.950 . S
C3450 C3449 1.349 . S
C3450 C3462 1.349 . S
C3451 C3449 1.327 . S
C3451 C3467 1.429 . S
C3451 H3473 0.950 . S
C3452 H3448 0.949 . S
C3452 C3460 1.574 . S
C3452 C3468 1.368 . S
H3453 C3461 0.950 . S
H3454 C3459 0.950 . S
H3455 C3460 0.949 . S
H3456 C3462 0.950 . S
H3457 C3463 0.950 . S
H3458 C3464 0.949 . S
C3459 H3454 0.950 . S
C3459 C3461 1.327 . S
C3459 C3465 1.429 . S
C3460 C3452 1.574 . S
C3460 H3455 0.949 . S
C3460 C3466 1.368 . S
C3461 C3445 1.349 . S
C3461 H3453 0.950 . S
C3461 C3459 1.327 . S
C3462 C3450 1.349 . S
C3462 H3456 0.950 . S
C3462 C3463 1.327 . S
C3463 H3457 0.950 . S
C3463 C3462 1.327 . S
C3463 C3467 1.429 . S
C3464 C3447 1.574 . S
C3464 H3458 0.949 . S
C3464 C3468 1.368 . S
C3465 C3446 1.429 . S
C3465 C3459 1.429 . S
C3465 C3466 1.523 . S
C3466 C3447 1.368 . S
C3466 C3460 1.368 . S
C3466 C3465 1.523 . S
C3467 C3451 1.429 . S
C3467 C3463 1.429 . S
C3467 C3468 1.523 . S
C3468 C3452 1.368 . S
C3468 C3464 1.368 . S
C3468 C3467 1.523 . S
H3469 C3444 0.950 . S
H3470 C3446 0.950 . S
H3471 C3447 0.949 . S
H3472 C3449 0.950 . S
H3473 C3451 0.950 . S
C3474 C3475 1.349 1_655 S
C3474 C3476 1.327 1_655 S
C3474 H3499 0.949 . S
C3475 C3474 1.349 1_455 S
C3475 C3491 1.349 . S
C3476 C3474 1.327 1_455 S
C3476 C3495 1.429 . S
C3476 H3500 0.917 1_455 S
C3477 C3494 1.574 . S
C3477 C3496 1.368 . S
C3477 H3501 0.949 . S
H3478 C3482 0.949 . S
C3479 C3480 1.349 . S
C3479 C3481 1.327 . S
C3479 H3502 0.950 . S
C3480 C3479 1.349 . S
C3480 C3492 1.349 . S
C3481 C3479 1.327 . S
C3481 C3497 1.429 . S
C3481 H3503 0.950 . S
C3482 H3478 0.949 . S
C3482 C3490 1.574 . S
C3482 C3498 1.368 . S
H3483 C3491 0.950 . S
H3484 C3489 0.950 . S
H3485 C3490 0.949 . S
H3486 C3492 0.950 . S
H3487 C3493 0.950 . S
H3488 C3494 0.949 . S
C3489 H3484 0.950 . S
C3489 C3491 1.327 . S
C3489 C3495 1.429 . S
C3490 C3482 1.574 . S
C3490 H3485 0.949 . S
C3490 C3496 1.368 . S
C3491 C3475 1.349 . S
C3491 H3483 0.950 . S
C3491 C3489 1.327 . S
C3492 C3480 1.349 . S
C3492 H3486 0.950 . S
C3492 C3493 1.327 . S
C3493 H3487 0.950 . S
C3493 C3492 1.327 . S
C3493 C3497 1.429 . S
C3494 C3477 1.574 . S
C3494 H3488 0.949 . S
C3494 C3498 1.368 . S
C3495 C3476 1.429 . S
C3495 C3489 1.429 . S
C3495 C3496 1.523 . S
C3496 C3477 1.368 . S
C3496 C3490 1.368 . S
C3496 C3495 1.523 . S
C3497 C3481 1.429 . S
C3497 C3493 1.429 . S
C3497 C3498 1.523 . S
C3498 C3482 1.368 . S
C3498 C3494 1.368 . S
C3498 C3497 1.523 . S
H3499 C3474 0.949 . S
H3500 C3476 0.917 1_655 S
H3501 C3477 0.949 . S
H3502 C3479 0.950 . S
H3503 C3481 0.950 . S
C3504 C3505 1.349 . S
C3504 C3506 1.327 . S
C3504 H3529 0.950 . S
C3505 C3504 1.349 . S
C3505 C3521 1.349 . S
C3506 C3504 1.327 . S
C3506 C3525 1.429 . S
C3506 H3530 0.950 . S
C3507 C3524 1.574 . S
C3507 C3526 1.368 . S
C3507 H3531 0.949 . S
H3508 C3512 0.949 . S
C3509 C3510 1.349 . S
C3509 C3511 1.327 . S
C3509 H3532 0.950 . S
C3510 C3509 1.349 . S
C3510 C3522 1.349 . S
C3511 C3509 1.327 . S
C3511 C3527 1.429 . S
C3511 H3533 0.950 . S
C3512 H3508 0.949 . S
C3512 C3520 1.574 . S
C3512 C3528 1.368 . S
H3513 C3521 0.950 . S
H3514 C3519 0.950 . S
H3515 C3520 0.949 . S
H3516 C3522 0.950 . S
H3517 C3523 0.950 . S
H3518 C3524 0.949 . S
C3519 H3514 0.950 . S
C3519 C3521 1.327 . S
C3519 C3525 1.429 . S
C3520 C3512 1.574 . S
C3520 H3515 0.949 . S
C3520 C3526 1.368 . S
C3521 C3505 1.349 . S
C3521 H3513 0.950 . S
C3521 C3519 1.327 . S
C3522 C3510 1.349 . S
C3522 H3516 0.950 . S
C3522 C3523 1.327 . S
C3523 H3517 0.950 . S
C3523 C3522 1.327 . S
C3523 C3527 1.429 . S
C3524 C3507 1.574 . S
C3524 H3518 0.949 . S
C3524 C3528 1.368 . S
C3525 C3506 1.429 . S
C3525 C3519 1.429 . S
C3525 C3526 1.523 . S
C3526 C3507 1.368 . S
C3526 C3520 1.368 . S
C3526 C3525 1.523 . S
C3527 C3511 1.429 . S
C3527 C3523 1.429 . S
C3527 C3528 1.523 . S
C3528 C3512 1.368 . S
C3528 C3524 1.368 . S
C3528 C3527 1.523 . S
H3529 C3504 0.950 . S
H3530 C3506 0.950 . S
H3531 C3507 0.949 . S
H3532 C3509 0.950 . S
H3533 C3511 0.950 . S
C3534 C3535 1.349 . S
C3534 C3536 1.327 . S
C3534 H3559 0.950 . S
C3535 C3534 1.349 . S
C3535 C3551 1.349 . S
C3536 C3534 1.327 . S
C3536 C3555 1.429 . S
C3536 H3560 0.950 . S
C3537 C3554 1.574 . S
C3537 C3556 1.368 . S
C3537 H3561 0.949 . S
H3538 C3542 0.949 . S
C3539 C3540 1.349 . S
C3539 C3541 1.327 . S
C3539 H3562 0.950 . S
C3540 C3539 1.349 . S
C3540 C3552 1.349 . S
C3541 C3539 1.327 . S
C3541 C3557 1.429 . S
C3541 H3563 0.950 . S
C3542 H3538 0.949 . S
C3542 C3550 1.574 . S
C3542 C3558 1.368 . S
H3543 C3551 0.950 . S
H3544 C3549 0.950 . S
H3545 C3550 0.949 . S
H3546 C3552 0.950 . S
H3547 C3553 0.950 . S
H3548 C3554 0.949 . S
C3549 H3544 0.950 . S
C3549 C3551 1.327 . S
C3549 C3555 1.429 . S
C3550 C3542 1.574 . S
C3550 H3545 0.949 . S
C3550 C3556 1.368 . S
C3551 C3535 1.349 . S
C3551 H3543 0.950 . S
C3551 C3549 1.327 . S
C3552 C3540 1.349 . S
C3552 H3546 0.950 . S
C3552 C3553 1.327 . S
C3553 H3547 0.950 . S
C3553 C3552 1.327 . S
C3553 C3557 1.429 . S
C3554 C3537 1.574 . S
C3554 H3548 0.949 . S
C3554 C3558 1.368 . S
C3555 C3536 1.429 . S
C3555 C3549 1.429 . S
C3555 C3556 1.523 . S
C3556 C3537 1.368 . S
C3556 C3550 1.368 . S
C3556 C3555 1.523 . S
C3557 C3541 1.429 . S
C3557 C3553 1.429 . S
C3557 C3558 1.523 . S
C3558 C3542 1.368 . S
C3558 C3554 1.368 . S
C3558 C3557 1.523 . S
H3559 C3534 0.950 . S
H3560 C3536 0.950 . S
H3561 C3537 0.949 . S
H3562 C3539 0.950 . S
H3563 C3541 0.950 . S
C3564 C3565 1.349 1_545 S
C3564 C3566 1.327 . S
C3564 H3589 0.950 . S
C3565 C3564 1.349 1_565 S
C3565 C3581 1.349 . S
C3566 C3564 1.327 . S
C3566 C3585 1.429 1_545 S
C3566 H3590 0.950 . S
C3567 C3584 1.574 . S
C3567 C3586 1.368 . S
C3567 H3591 0.949 . S
H3568 C3572 0.952 . S
C3569 C3570 1.349 . S
C3569 C3571 1.327 . S
C3569 H3592 0.950 . S
C3570 C3569 1.349 . S
C3570 C3582 1.349 . S
C3571 C3569 1.327 . S
C3571 C3587 1.429 . S
C3571 H3593 0.950 . S
C3572 H3568 0.952 . S
C3572 C3580 1.574 . S
C3572 C3588 1.368 . S
H3573 C3581 0.950 . S
H3574 C3579 0.950 . S
H3575 C3580 0.949 1_545 S
H3576 C3582 0.950 . S
H3577 C3583 0.950 . S
H3578 C3584 0.949 . S
C3579 H3574 0.950 . S
C3579 C3581 1.327 . S
C3579 C3585 1.429 . S
C3580 C3572 1.574 . S
C3580 H3575 0.949 1_565 S
C3580 C3586 1.368 . S
C3581 C3565 1.349 . S
C3581 H3573 0.950 . S
C3581 C3579 1.327 . S
C3582 C3570 1.349 . S
C3582 H3576 0.950 . S
C3582 C3583 1.327 . S
C3583 H3577 0.950 . S
C3583 C3582 1.327 . S
C3583 C3587 1.429 . S
C3584 C3567 1.574 . S
C3584 H3578 0.949 . S
C3584 C3588 1.368 . S
C3585 C3566 1.429 1_565 S
C3585 C3579 1.429 . S
C3585 C3586 1.523 . S
C3586 C3567 1.368 . S
C3586 C3580 1.368 . S
C3586 C3585 1.523 . S
C3587 C3571 1.429 . S
C3587 C3583 1.429 . S
C3587 C3588 1.523 . S
C3588 C3572 1.368 . S
C3588 C3584 1.368 . S
C3588 C3587 1.523 . S
H3589 C3564 0.950 . S
H3590 C3566 0.950 . S
H3591 C3567 0.949 . S
H3592 C3569 0.950 . S
H3593 C3571 0.950 . S
C3594 C3595 1.349 . S
C3594 C3596 1.327 . S
C3594 H3619 0.950 1_545 S
C3595 C3594 1.349 . S
C3595 C3611 1.349 . S
C3596 C3594 1.327 . S
C3596 C3615 1.429 . S
C3596 H3620 0.950 1_545 S
C3597 C3614 1.574 . S
C3597 C3616 1.368 . S
C3597 H3621 0.949 . S
H3598 C3602 0.949 . S
C3599 C3600 1.349 . S
C3599 C3601 1.327 . S
C3599 H3622 0.950 . S
C3600 C3599 1.349 . S
C3600 C3612 1.349 . S
C3601 C3599 1.327 . S
C3601 C3617 1.429 . S
C3601 H3623 0.950 . S
C3602 H3598 0.949 . S
C3602 C3610 1.574 . S
C3602 C3618 1.368 . S
H3603 C3611 0.950 . S
H3604 C3609 0.950 . S
H3605 C3610 0.949 . S
H3606 C3612 0.950 . S
H3607 C3613 0.950 . S
H3608 C3614 0.949 . S
C3609 H3604 0.950 . S
C3609 C3611 1.327 . S
C3609 C3615 1.429 . S
C3610 C3602 1.574 . S
C3610 H3605 0.949 . S
C3610 C3616 1.368 . S
C3611 C3595 1.349 . S
C3611 H3603 0.950 . S
C3611 C3609 1.327 . S
C3612 C3600 1.349 . S
C3612 H3606 0.950 . S
C3612 C3613 1.327 . S
C3613 H3607 0.950 . S
C3613 C3612 1.327 . S
C3613 C3617 1.429 . S
C3614 C3597 1.574 . S
C3614 H3608 0.949 . S
C3614 C3618 1.368 . S
C3615 C3596 1.429 . S
C3615 C3609 1.429 . S
C3615 C3616 1.523 . S
C3616 C3597 1.368 . S
C3616 C3610 1.368 . S
C3616 C3615 1.523 . S
C3617 C3601 1.429 . S
C3617 C3613 1.429 . S
C3617 C3618 1.523 . S
C3618 C3602 1.368 . S
C3618 C3614 1.368 . S
C3618 C3617 1.523 . S
H3619 C3594 0.950 1_565 S
H3620 C3596 0.950 1_565 S
H3621 C3597 0.949 . S
H3622 C3599 0.950 . S
H3623 C3601 0.950 . S
C3624 C3625 1.349 . S
C3624 C3626 1.327 . S
C3624 H3649 0.950 . S
C3625 C3624 1.349 . S
C3625 C3641 1.349 . S
C3626 C3624 1.327 . S
C3626 C3645 1.429 . S
C3626 H3650 0.950 . S
C3627 C3644 1.574 . S
C3627 C3646 1.368 . S
C3627 H3651 0.949 . S
H3628 C3632 0.949 . S
C3629 C3630 1.349 . S
C3629 C3631 1.327 . S
C3629 H3652 0.950 . S
C3630 C3629 1.349 . S
C3630 C3642 1.349 . S
C3631 C3629 1.327 . S
C3631 C3647 1.429 . S
C3631 H3653 0.950 . S
C3632 H3628 0.949 . S
C3632 C3640 1.574 . S
C3632 C3648 1.368 . S
H3633 C3641 0.950 . S
H3634 C3639 0.950 . S
H3635 C3640 0.949 . S
H3636 C3642 0.950 . S
H3637 C3643 0.950 . S
H3638 C3644 0.949 . S
C3639 H3634 0.950 . S
C3639 C3641 1.327 . S
C3639 C3645 1.429 . S
C3640 C3632 1.574 . S
C3640 H3635 0.949 . S
C3640 C3646 1.368 . S
C3641 C3625 1.349 . S
C3641 H3633 0.950 . S
C3641 C3639 1.327 . S
C3642 C3630 1.349 . S
C3642 H3636 0.950 . S
C3642 C3643 1.327 . S
C3643 H3637 0.950 . S
C3643 C3642 1.327 . S
C3643 C3647 1.429 . S
C3644 C3627 1.574 . S
C3644 H3638 0.949 . S
C3644 C3648 1.368 . S
C3645 C3626 1.429 . S
C3645 C3639 1.429 . S
C3645 C3646 1.523 . S
C3646 C3627 1.368 . S
C3646 C3640 1.368 . S
C3646 C3645 1.523 . S
C3647 C3631 1.429 . S
C3647 C3643 1.429 . S
C3647 C3648 1.523 . S
C3648 C3632 1.368 . S
C3648 C3644 1.368 . S
C3648 C3647 1.523 . S
H3649 C3624 0.950 . S
H3650 C3626 0.950 . S
H3651 C3627 0.949 . S
H3652 C3629 0.950 . S
H3653 C3631 0.950 . S
C3654 C3655 1.349 . S
C3654 C3656 1.327 . S
C3654 H3679 0.950 1_554 S
C3655 C3654 1.349 . S
C3655 C3671 1.349 . S
C3656 C3654 1.327 . S
C3656 C3675 1.429 . S
C3656 H3680 0.905 1_554 S
C3657 C3674 1.574 . S
C3657 C3676 1.368 . S
C3657 H3681 0.949 . S
H3658 C3662 0.949 . S
C3659 C3660 1.349 . S
C3659 C3661 1.327 . S
C3659 H3682 0.950 . S
C3660 C3659 1.349 . S
C3660 C3672 1.349 . S
C3661 C3659 1.327 . S
C3661 C3677 1.429 . S
C3661 H3683 0.950 . S
C3662 H3658 0.949 . S
C3662 C3670 1.574 . S
C3662 C3678 1.368 . S
H3663 C3671 0.950 . S
H3664 C3669 0.950 . S
H3665 C3670 0.949 . S
H3666 C3672 0.950 . S
H3667 C3673 0.950 . S
H3668 C3674 0.949 . S
C3669 H3664 0.950 . S
C3669 C3671 1.327 . S
C3669 C3675 1.429 . S
C3670 C3662 1.574 . S
C3670 H3665 0.949 . S
C3670 C3676 1.368 . S
C3671 C3655 1.349 . S
C3671 H3663 0.950 . S
C3671 C3669 1.327 . S
C3672 C3660 1.349 . S
C3672 H3666 0.950 . S
C3672 C3673 1.327 . S
C3673 H3667 0.950 . S
C3673 C3672 1.327 . S
C3673 C3677 1.429 . S
C3674 C3657 1.574 . S
C3674 H3668 0.949 . S
C3674 C3678 1.368 . S
C3675 C3656 1.429 . S
C3675 C3669 1.429 . S
C3675 C3676 1.523 . S
C3676 C3657 1.368 . S
C3676 C3670 1.368 . S
C3676 C3675 1.523 . S
C3677 C3661 1.429 . S
C3677 C3673 1.429 . S
C3677 C3678 1.523 . S
C3678 C3662 1.368 . S
C3678 C3674 1.368 . S
C3678 C3677 1.523 . S
H3679 C3654 0.950 1_556 S
H3680 C3656 0.905 1_556 S
H3681 C3657 0.949 . S
H3682 C3659 0.950 . S
H3683 C3661 0.950 . S
C3684 C3685 1.349 . S
C3684 C3686 1.327 . S
C3684 H3709 0.950 . S
C3685 C3684 1.349 . S
C3685 C3701 1.349 . S
C3686 C3684 1.327 . S
C3686 C3705 1.429 . S
C3686 H3710 0.950 . S
C3687 C3704 1.574 . S
C3687 C3706 1.368 . S
C3687 H3711 0.949 . S
H3688 C3692 0.949 . S
C3689 C3690 1.349 . S
C3689 C3691 1.327 . S
C3689 H3712 0.950 . S
C3690 C3689 1.349 . S
C3690 C3702 1.349 . S
C3691 C3689 1.327 . S
C3691 C3707 1.429 . S
C3691 H3713 0.950 . S
C3692 H3688 0.949 . S
C3692 C3700 1.574 . S
C3692 C3708 1.368 . S
H3693 C3701 0.950 . S
H3694 C3699 0.950 . S
H3695 C3700 0.949 . S
H3696 C3702 0.950 . S
H3697 C3703 0.950 . S
H3698 C3704 0.949 . S
C3699 H3694 0.950 . S
C3699 C3701 1.327 . S
C3699 C3705 1.429 . S
C3700 C3692 1.574 . S
C3700 H3695 0.949 . S
C3700 C3706 1.368 . S
C3701 C3685 1.349 . S
C3701 H3693 0.950 . S
C3701 C3699 1.327 . S
C3702 C3690 1.349 . S
C3702 H3696 0.950 . S
C3702 C3703 1.327 . S
C3703 H3697 0.950 . S
C3703 C3702 1.327 . S
C3703 C3707 1.429 . S
C3704 C3687 1.574 . S
C3704 H3698 0.949 . S
C3704 C3708 1.368 . S
C3705 C3686 1.429 . S
C3705 C3699 1.429 . S
C3705 C3706 1.523 . S
C3706 C3687 1.368 . S
C3706 C3700 1.368 . S
C3706 C3705 1.523 . S
C3707 C3691 1.429 . S
C3707 C3703 1.429 . S
C3707 C3708 1.523 . S
C3708 C3692 1.368 . S
C3708 C3704 1.368 . S
C3708 C3707 1.523 . S
H3709 C3684 0.950 . S
H3710 C3686 0.950 . S
H3711 C3687 0.949 . S
H3712 C3689 0.950 . S
H3713 C3691 0.950 . S
C3714 C3715 1.349 1_554 S
C3714 C3716 1.341 . S
C3714 H3739 0.950 . S
C3715 C3714 1.349 1_556 S
C3715 C3731 1.349 . S
C3716 C3714 1.341 . S
C3716 C3735 1.369 1_554 S
C3716 H3740 1.001 . S
C3717 C3734 1.574 . S
C3717 C3736 1.368 . S
C3717 H3741 0.949 . S
H3718 C3722 0.949 . S
C3719 C3720 1.349 . S
C3719 C3721 1.327 . S
C3719 H3742 0.950 . S
C3720 C3719 1.349 . S
C3720 C3732 1.349 . S
C3721 C3719 1.327 . S
C3721 C3737 1.429 . S
C3721 H3743 0.950 . S
C3722 H3718 0.949 . S
C3722 C3730 1.574 . S
C3722 C3738 1.368 . S
H3723 C3731 0.950 . S
H3724 C3729 0.950 . S
H3725 C3730 0.949 1_554 S
H3726 C3732 0.950 . S
H3727 C3733 0.950 . S
H3728 C3734 0.949 . S
C3729 H3724 0.950 . S
C3729 C3731 1.327 . S
C3729 C3735 1.429 . S
C3730 C3722 1.574 . S
C3730 H3725 0.949 1_556 S
C3730 C3736 1.368 . S
C3731 C3715 1.349 . S
C3731 H3723 0.950 . S
C3731 C3729 1.327 . S
C3732 C3720 1.349 . S
C3732 H3726 0.950 . S
C3732 C3733 1.327 . S
C3733 H3727 0.950 . S
C3733 C3732 1.327 . S
C3733 C3737 1.429 . S
C3734 C3717 1.574 . S
C3734 H3728 0.949 . S
C3734 C3738 1.368 . S
C3735 C3716 1.369 1_556 S
C3735 C3729 1.429 . S
C3735 C3736 1.523 . S
C3736 C3717 1.368 . S
C3736 C3730 1.368 . S
C3736 C3735 1.523 . S
C3737 C3721 1.429 . S
C3737 C3733 1.429 . S
C3737 C3738 1.523 . S
C3738 C3722 1.368 . S
C3738 C3734 1.368 . S
C3738 C3737 1.523 . S
H3739 C3714 0.950 . S
H3740 C3716 1.001 . S
H3741 C3717 0.949 . S
H3742 C3719 0.950 . S
H3743 C3721 0.950 . S
C3744 C3745 1.349 . S
C3744 C3746 1.327 . S
C3744 H3769 0.950 . S
C3745 C3744 1.349 . S
C3745 C3761 1.349 . S
C3746 C3744 1.327 . S
C3746 C3765 1.429 . S
C3746 H3770 0.950 . S
C3747 C3764 1.574 . S
C3747 C3766 1.368 . S
C3747 H3771 0.949 . S
H3748 C3752 0.949 . S
C3749 C3750 1.349 . S
C3749 C3751 1.327 . S
C3749 H3772 0.950 . S
C3750 C3749 1.349 . S
C3750 C3762 1.349 . S
C3751 C3749 1.327 . S
C3751 C3767 1.429 . S
C3751 H3773 0.950 . S
C3752 H3748 0.949 . S
C3752 C3760 1.574 . S
C3752 C3768 1.368 . S
H3753 C3761 0.950 . S
H3754 C3759 0.950 . S
H3755 C3760 0.949 . S
H3756 C3762 0.950 . S
H3757 C3763 0.950 . S
H3758 C3764 0.949 . S
C3759 H3754 0.950 . S
C3759 C3761 1.327 . S
C3759 C3765 1.429 . S
C3760 C3752 1.574 . S
C3760 H3755 0.949 . S
C3760 C3766 1.368 . S
C3761 C3745 1.349 . S
C3761 H3753 0.950 . S
C3761 C3759 1.327 . S
C3762 C3750 1.349 . S
C3762 H3756 0.950 . S
C3762 C3763 1.327 . S
C3763 H3757 0.950 . S
C3763 C3762 1.327 . S
C3763 C3767 1.429 . S
C3764 C3747 1.574 . S
C3764 H3758 0.949 . S
C3764 C3768 1.368 . S
C3765 C3746 1.429 . S
C3765 C3759 1.429 . S
C3765 C3766 1.523 . S
C3766 C3747 1.368 . S
C3766 C3760 1.368 . S
C3766 C3765 1.523 . S
C3767 C3751 1.429 . S
C3767 C3763 1.429 . S
C3767 C3768 1.523 . S
C3768 C3752 1.368 . S
C3768 C3764 1.368 . S
C3768 C3767 1.523 . S
H3769 C3744 0.950 . S
H3770 C3746 0.950 . S
H3771 C3747 0.949 . S
H3772 C3749 0.950 . S
H3773 C3751 0.950 . S
C3774 C3775 1.349 . S
C3774 C3776 1.327 . S
C3774 H3799 0.950 . S
C3775 C3774 1.349 . S
C3775 C3791 1.349 . S
C3776 C3774 1.327 . S
C3776 C3795 1.429 . S
C3776 H3800 0.950 . S
C3777 C3794 1.574 . S
C3777 C3796 1.368 . S
C3777 H3801 0.949 . S
H3778 C3782 0.949 . S
C3779 C3780 1.349 . S
C3779 C3781 1.327 . S
C3779 H3802 0.950 . S
C3780 C3779 1.349 . S
C3780 C3792 1.349 . S
C3781 C3779 1.327 . S
C3781 C3797 1.429 . S
C3781 H3803 0.950 . S
C3782 H3778 0.949 . S
C3782 C3790 1.574 . S
C3782 C3798 1.368 . S
H3783 C3791 0.950 . S
H3784 C3789 0.950 . S
H3785 C3790 0.949 . S
H3786 C3792 0.950 . S
H3787 C3793 0.950 . S
H3788 C3794 0.949 . S
C3789 H3784 0.950 . S
C3789 C3791 1.327 . S
C3789 C3795 1.429 . S
C3790 C3782 1.574 . S
C3790 H3785 0.949 . S
C3790 C3796 1.368 . S
C3791 C3775 1.349 . S
C3791 H3783 0.950 . S
C3791 C3789 1.327 . S
C3792 C3780 1.349 . S
C3792 H3786 0.950 . S
C3792 C3793 1.327 . S
C3793 H3787 0.950 . S
C3793 C3792 1.327 . S
C3793 C3797 1.429 . S
C3794 C3777 1.574 . S
C3794 H3788 0.949 . S
C3794 C3798 1.368 . S
C3795 C3776 1.429 . S
C3795 C3789 1.429 . S
C3795 C3796 1.523 . S
C3796 C3777 1.368 . S
C3796 C3790 1.368 . S
C3796 C3795 1.523 . S
C3797 C3781 1.429 . S
C3797 C3793 1.429 . S
C3797 C3798 1.523 . S
C3798 C3782 1.368 . S
C3798 C3794 1.368 . S
C3798 C3797 1.523 . S
H3799 C3774 0.950 . S
H3800 C3776 0.950 . S
H3801 C3777 0.949 . S
H3802 C3779 0.950 . S
H3803 C3781 0.950 . S
C3804 C3805 1.349 . S
C3804 C3806 1.327 . S
C3804 H3829 0.950 . S
C3805 C3804 1.349 . S
C3805 C3821 1.349 . S
C3806 C3804 1.327 . S
C3806 C3825 1.429 . S
C3806 H3830 0.950 . S
C3807 C3824 1.574 . S
C3807 C3826 1.368 . S
C3807 H3831 0.949 . S
H3808 C3812 0.949 . S
C3809 C3810 1.349 . S
C3809 C3811 1.327 . S
C3809 H3832 0.950 . S
C3810 C3809 1.349 . S
C3810 C3822 1.349 . S
C3811 C3809 1.327 . S
C3811 C3827 1.429 . S
C3811 H3833 0.950 . S
C3812 H3808 0.949 . S
C3812 C3820 1.574 . S
C3812 C3828 1.368 . S
H3813 C3821 0.950 . S
H3814 C3819 0.950 . S
H3815 C3820 0.949 . S
H3816 C3822 0.950 . S
H3817 C3823 0.950 . S
H3818 C3824 0.949 . S
C3819 H3814 0.950 . S
C3819 C3821 1.327 . S
C3819 C3825 1.429 . S
C3820 C3812 1.574 . S
C3820 H3815 0.949 . S
C3820 C3826 1.368 . S
C3821 C3805 1.349 . S
C3821 H3813 0.950 . S
C3821 C3819 1.327 . S
C3822 C3810 1.349 . S
C3822 H3816 0.950 . S
C3822 C3823 1.327 . S
C3823 H3817 0.950 . S
C3823 C3822 1.327 . S
C3823 C3827 1.429 . S
C3824 C3807 1.574 . S
C3824 H3818 0.949 . S
C3824 C3828 1.368 . S
C3825 C3806 1.429 . S
C3825 C3819 1.429 . S
C3825 C3826 1.523 . S
C3826 C3807 1.368 . S
C3826 C3820 1.368 . S
C3826 C3825 1.523 . S
C3827 C3811 1.429 . S
C3827 C3823 1.429 . S
C3827 C3828 1.523 . S
C3828 C3812 1.368 . S
C3828 C3824 1.368 . S
C3828 C3827 1.523 . S
H3829 C3804 0.950 . S
H3830 C3806 0.950 . S
H3831 C3807 0.949 . S
H3832 C3809 0.950 . S
H3833 C3811 0.950 . S
C3834 C3835 1.349 . S
C3834 C3836 1.327 . S
C3834 H3859 0.950 . S
C3835 C3834 1.349 . S
C3835 C3851 1.349 . S
C3836 C3834 1.327 . S
C3836 C3855 1.429 . S
C3836 H3860 0.950 . S
C3837 C3854 1.574 . S
C3837 C3856 1.368 . S
C3837 H3861 0.949 . S
H3838 C3842 0.949 . S
C3839 C3840 1.349 . S
C3839 C3841 1.327 . S
C3839 H3862 0.950 . S
C3840 C3839 1.349 . S
C3840 C3852 1.349 . S
C3841 C3839 1.327 . S
C3841 C3857 1.429 . S
C3841 H3863 0.950 . S
C3842 H3838 0.949 . S
C3842 C3850 1.574 . S
C3842 C3858 1.368 . S
H3843 C3851 0.932 1_455 S
H3844 C3849 0.950 . S
H3845 C3850 0.949 . S
H3846 C3852 0.950 . S
H3847 C3853 0.950 . S
H3848 C3854 0.949 . S
C3849 H3844 0.950 . S
C3849 C3851 1.327 . S
C3849 C3855 1.429 . S
C3850 C3842 1.574 . S
C3850 H3845 0.949 . S
C3850 C3856 1.368 . S
C3851 C3835 1.349 . S
C3851 H3843 0.932 1_655 S
C3851 C3849 1.327 . S
C3852 C3840 1.349 . S
C3852 H3846 0.950 . S
C3852 C3853 1.327 . S
C3853 H3847 0.950 . S
C3853 C3852 1.327 . S
C3853 C3857 1.429 . S
C3854 C3837 1.574 . S
C3854 H3848 0.949 . S
C3854 C3858 1.368 . S
C3855 C3836 1.429 . S
C3855 C3849 1.429 . S
C3855 C3856 1.523 . S
C3856 C3837 1.368 . S
C3856 C3850 1.368 . S
C3856 C3855 1.523 . S
C3857 C3841 1.429 . S
C3857 C3853 1.429 . S
C3857 C3858 1.523 . S
C3858 C3842 1.368 . S
C3858 C3854 1.368 . S
C3858 C3857 1.523 . S
H3859 C3834 0.950 . S
H3860 C3836 0.950 . S
H3861 C3837 0.949 . S
H3862 C3839 0.950 . S
H3863 C3841 0.950 . S
C1710 C1645 1.875 . S
C1705 C8 1.977 . S
C1740 C1495 1.330 . S
C1735 C19 1.377 . S
C1770 C1585 1.235 . S
C1765 C30 1.311 . S
C1800 C1555 2.119 . S
C1795 C41 2.173 . S
C1830 C1135 1.995 . S
C1825 C52 1.977 . S
C1855 C63 2.167 . S
C1860 C1165 2.123 . S
C1890 C1015 1.419 . S
C1885 C74 1.377 . S
C1915 C85 1.313 . S
C1920 C1045 1.230 . S
C1950 C1424 1.875 . S
C1945 C96 1.977 . S
C1975 C107 2.167 . S
C1980 C1304 2.123 . S
C2005 C118 1.377 . S
C2010 C1244 1.419 . S
C2040 C1364 1.329 . S
C2035 C129 1.311 . S
C2070 C955 1.974 . S
C2065 C140 1.953 . S
C2095 C151 1.337 . S
C2100 C745 1.330 . S
C2130 C895 1.311 . S
C2125 C162 1.285 . S
C2155 C173 2.110 . S
C2160 C805 2.127 . S
C2190 C415 1.974 . S
C2185 C184 1.953 . S
C2220 C445 2.123 . S
C2215 C195 2.116 . S
C2245 C206 1.337 . S
C2250 C295 1.420 . S
C2275 C217 1.286 . S
C2280 C325 1.250 . S
C2305 C228 1.945 . S
C2310 C704 1.983 . S
C2335 C239 2.110 . S
C2340 C584 2.202 . S
C2370 C524 1.330 . S
C2365 C250 1.337 . S
C2395 C261 1.286 . S
C2400 C644 1.250 . S
C2430 C284 1.028 . S
C2425 C7 1.080 . S
C2460 C344 0.985 . S
C2455 C18 0.979 . S
C2485 C29 0.999 . S
C2490 C404 0.961 . S
C2515 C40 0.638 . S
C2520 C464 0.639 1_545 S
C2550 C535 1.086 . S
C2545 C51 1.080 . S
C2575 C62 0.638 . S
C2580 C565 0.652 . S
C2610 C655 0.985 . S
C2605 C73 0.979 . S
C2640 C685 0.961 . S
C2635 C84 0.999 . S
C2670 C764 1.086 . S
C2665 C95 1.080 . S
C2695 C106 0.638 . S
C2700 C824 0.639 1_455 S
C2725 C117 0.979 . S
C2730 C884 0.921 . S
C2755 C128 0.999 . S
C2760 C944 0.961 . S
C2785 C139 1.025 . S
C2790 C1004 1.041 . S
C2815 C150 0.915 . S
C2820 C1064 0.967 . S
C2845 C161 0.947 . S
C2850 C1124 0.978 . S
C2875 C172 0.673 . S
C2880 C1184 0.648 1_565 S
C2905 C183 1.025 . S
C2910 C1225 1.041 . S
C2940 C1315 0.648 1_556 S
C2935 C194 0.673 . S
C2970 C1345 0.940 . S
C2965 C205 0.915 . S
C3000 C1435 0.987 . S
C2995 C216 0.947 . S
C3030 C1465 1.074 . S
C3025 C227 1.025 . S
C3055 C238 0.673 . S
C3060 C1525 0.648 1_655 S
C3085 C249 0.915 . S
C3090 C1604 0.967 . S
C3115 C260 0.947 . S
C3120 C1664 0.987 . S
C3145 C5 1.442 . S
C3150 C775 1.685 . S
C3180 C925 1.427 . S
C3175 C16 1.299 . S
C3205 C27 1.110 1_545 S
C3210 C835 1.243 . S
C3240 C865 2.108 . S
C3235 C38 1.952 1_565 S
C3265 C49 1.442 . S
C3270 C265 1.603 . S
C3295 C60 1.956 1_556 S
C3300 C355 2.184 . S
C3325 C71 1.306 . S
C3330 C385 1.420 . S
C3355 C82 1.110 1_554 S
C3360 C475 1.243 . S
C3390 C505 1.685 . S
C3385 C93 1.442 . S
C3420 C625 2.185 . S
C3415 C104 1.952 1_655 S
C3445 C115 1.306 . S
C3450 C715 1.419 . S
C3475 C126 1.110 1_455 S
C3480 C595 1.152 . S
C3510 C1484 1.652 . S
C3505 C137 1.298 . S
C3540 C1675 1.467 . S
C3535 C148 1.064 . S
C3565 C159 0.968 . S
C3570 C1544 1.217 . S
C3600 C1615 2.122 . S
C3595 C170 1.621 . S
C3625 C181 1.298 . S
C3630 C985 1.636 . S
C3655 C192 1.620 . S
C3660 C1075 2.120 . S
C3685 C203 1.072 . S
C3690 C1105 1.466 . S
C3720 C1195 1.227 . S
C3715 C214 0.965 . S
C3750 C1255 1.636 . S
C3745 C225 1.298 . S
C3780 C1375 2.172 . S
C3775 C236 1.621 . S
C3805 C247 1.072 . S
C3810 C1405 1.459 . S
C3840 C1285 1.227 . S
C3835 C258 0.965 . S
