# Generated by pormake.
# Topology pyr, (3,6)-cn, num edge types: 1
# Building blocks:
#     Node 0, Type 0, BuildingBlock: ESEHIV_clean_linker_0, # of connection points: 3
#     Node 1, Type 0, BuildingBlock: ESEHIV_clean_linker_0, # of connection points: 3
#     Node 2, Type 0, BuildingBlock: ESEHIV_clean_linker_0, # of connection points: 3
#     Node 3, Type 0, BuildingBlock: ESEHIV_clean_linker_0, # of connection points: 3
#     Node 4, Type 0, BuildingBlock: ESEHIV_clean_linker_0, # of connection points: 3
#     Node 5, Type 0, BuildingBlock: ESEHIV_clean_linker_0, # of connection points: 3
#     Node 6, Type 0, BuildingBlock: ESEHIV_clean_linker_0, # of connection points: 3
#     Node 7, Type 0, BuildingBlock: ESEHIV_clean_linker_0, # of connection points: 3
#     Node 8, Type 1, BuildingBlock: LEVNOQ01_clean_sbu_1, # of connection points: 6
#     Node 9, Type 1, BuildingBlock: LEVNOQ01_clean_sbu_1, # of connection points: 6
#     Node 10, Type 1, BuildingBlock: LEVNOQ01_clean_sbu_1, # of connection points: 6
#     Node 11, Type 1, BuildingBlock: LEVNOQ01_clean_sbu_1, # of connection points: 6
#     Edge 12, Type (0, 1), BuildingBlock: KIFKEQ_clean_linker_1, # of connection points: 2
#     Edge 13, Type (0, 1), BuildingBlock: KIFKEQ_clean_linker_1, # of connection points: 2
#     Edge 14, Type (0, 1), BuildingBlock: KIFKEQ_clean_linker_1, # of connection points: 2
#     Edge 15, Type (0, 1), BuildingBlock: KIFKEQ_clean_linker_1, # of connection points: 2
#     Edge 16, Type (0, 1), BuildingBlock: KIFKEQ_clean_linker_1, # of connection points: 2
#     Edge 17, Type (0, 1), BuildingBlock: KIFKEQ_clean_linker_1, # of connection points: 2
#     Edge 18, Type (0, 1), BuildingBlock: KIFKEQ_clean_linker_1, # of connection points: 2
#     Edge 19, Type (0, 1), BuildingBlock: KIFKEQ_clean_linker_1, # of connection points: 2
#     Edge 20, Type (0, 1), BuildingBlock: KIFKEQ_clean_linker_1, # of connection points: 2
#     Edge 21, Type (0, 1), BuildingBlock: KIFKEQ_clean_linker_1, # of connection points: 2
#     Edge 22, Type (0, 1), BuildingBlock: KIFKEQ_clean_linker_1, # of connection points: 2
#     Edge 23, Type (0, 1), BuildingBlock: KIFKEQ_clean_linker_1, # of connection points: 2
#     Edge 24, Type (0, 1), BuildingBlock: KIFKEQ_clean_linker_1, # of connection points: 2
#     Edge 25, Type (0, 1), BuildingBlock: KIFKEQ_clean_linker_1, # of connection points: 2
#     Edge 26, Type (0, 1), BuildingBlock: KIFKEQ_clean_linker_1, # of connection points: 2
#     Edge 27, Type (0, 1), BuildingBlock: KIFKEQ_clean_linker_1, # of connection points: 2
#     Edge 28, Type (0, 1), BuildingBlock: KIFKEQ_clean_linker_1, # of connection points: 2
#     Edge 29, Type (0, 1), BuildingBlock: KIFKEQ_clean_linker_1, # of connection points: 2
#     Edge 30, Type (0, 1), BuildingBlock: KIFKEQ_clean_linker_1, # of connection points: 2
#     Edge 31, Type (0, 1), BuildingBlock: KIFKEQ_clean_linker_1, # of connection points: 2
#     Edge 32, Type (0, 1), BuildingBlock: KIFKEQ_clean_linker_1, # of connection points: 2
#     Edge 33, Type (0, 1), BuildingBlock: KIFKEQ_clean_linker_1, # of connection points: 2
#     Edge 34, Type (0, 1), BuildingBlock: KIFKEQ_clean_linker_1, # of connection points: 2
#     Edge 35, Type (0, 1), BuildingBlock: KIFKEQ_clean_linker_1, # of connection points: 2
# Relax obj value: 0.035
# Max RMSD: 0.110
# Mean RMSD: 0.045
data_MOF--net-pry--node1-LEVNOQ01_clean_sbu_1--node2-ESEHIV_clean_linker_0--edge1-KIFKEQ_clean_linker_1
_symmetry_space_group_name_H-M    P1
_symmetry_Int_Tables_number       1
_symmetry_cell_setting            triclinic
loop_
_symmetry_equiv_pos_as_xyz
'x, y, z'
_cell_length_a     35.986583
_cell_length_b     34.547315
_cell_length_c     34.456899
_cell_angle_alpha  92.503952
_cell_angle_beta   91.456329
_cell_angle_gamma 93.632
loop_
_atom_site_label
_atom_site_type_symbol
_atom_site_fract_x
_atom_site_fract_y
_atom_site_fract_z
_atom_type_partial_charge
H0 H 0.089 0.17673 0.16756 0.0
H1 H 0.16794 0.08945 0.17005 0.0
H2 H 0.17229 0.17322 0.08036 0.0
C3 C 0.1128 0.16357 0.15508 0.0
C4 C 0.128 0.17761 0.1208 0.0
C5 C 0.12776 0.1323 0.1731 0.0
C6 C 0.15793 0.11465 0.15653 0.0
C7 C 0.17525 0.12934 0.12349 0.0
C8 C 0.15988 0.16119 0.10583 0.0
H9 H 0.34277 0.93788 0.6588 0.0
H10 H 0.43445 0.86438 0.64825 0.0
H11 H 0.34634 0.85625 0.56125 0.0
C12 C 0.35712 0.91597 0.6427 0.0
C13 C 0.34147 0.89972 0.6073 0.0
C14 C 0.39056 0.90306 0.65794 0.0
C15 C 0.40843 0.87417 0.63698 0.0
C16 C 0.39258 0.85674 0.60236 0.0
C17 C 0.35946 0.87027 0.58731 0.0
H18 H 0.67233 0.32983 0.90241 0.0
H19 H 0.67367 0.43169 0.83439 0.0
H20 H 0.62103 0.32307 0.78894 0.0
C21 C 0.66472 0.3443 0.87638 0.0
C22 C 0.64439 0.32284 0.84672 0.0
C23 C 0.67574 0.38366 0.87237 0.0
C24 C 0.66611 0.40119 0.83768 0.0
C25 C 0.64675 0.37951 0.80714 0.0
C26 C 0.63568 0.34039 0.8122 0.0
H27 H 0.85233 0.64747 0.46689 0.0
H28 H 0.92858 0.64748 0.3725 0.0
H29 H 0.82523 0.57805 0.36254 0.0
C30 C 0.86048 0.63665 0.43859 0.0
C31 C 0.83593 0.61018 0.4171 0.0
C32 C 0.89384 0.65113 0.42249 0.0
C33 C 0.90279 0.63713 0.3851 0.0
C34 C 0.87803 0.61147 0.36283 0.0
C35 C 0.84457 0.59807 0.37917 0.0
H36 H 0.83327 0.92645 0.84526 0.0
H37 H 0.89895 0.8273 0.83956 0.0
H38 H 0.8174 0.83706 0.92798 0.0
C39 C 0.8401 0.89897 0.85657 0.0
C40 C 0.82122 0.88458 0.8888 0.0
C41 C 0.86756 0.87827 0.83819 0.0
C42 C 0.87719 0.84298 0.8531 0.0
C43 C 0.85981 0.8283 0.88603 0.0
C44 C 0.83177 0.8492 0.90364 0.0
H45 H 0.58468 0.16538 0.37423 0.0
H46 H 0.6717 0.08606 0.37186 0.0
H47 H 0.67032 0.17342 0.46452 0.0
C48 C 0.60968 0.15501 0.38722 0.0
C49 C 0.62519 0.1734 0.42176 0.0
C50 C 0.62651 0.12388 0.36868 0.0
C51 C 0.65858 0.11018 0.38583 0.0
C52 C 0.6742 0.12762 0.42063 0.0
C53 C 0.65769 0.15947 0.43821 0.0
H54 H 0.31517 0.6902 0.10731 0.0
H55 H 0.32958 0.59635 0.18314 0.0
H56 H 0.40127 0.70048 0.19671 0.0
C57 C 0.33024 0.67767 0.13079 0.0
C58 C 0.35998 0.69949 0.15 0.0
C59 C 0.3189 0.6405 0.14261 0.0
C60 C 0.33766 0.62529 0.17415 0.0
C61 C 0.36696 0.64701 0.19414 0.0
C62 C 0.37823 0.68393 0.18169 0.0
H63 H 0.05533 0.38028 0.64813 0.0
H64 H 0.13396 0.36375 0.55767 0.0
H65 H 0.16089 0.44568 0.65319 0.0
C66 C 0.08165 0.38807 0.63502 0.0
C67 C 0.10707 0.41504 0.65479 0.0
C68 C 0.09093 0.36929 0.5998 0.0
C69 C 0.12558 0.37932 0.58364 0.0
C70 C 0.15105 0.40672 0.60272 0.0
C71 C 0.14136 0.42467 0.6381 0.0
O72 O 0.0199 0.01835 0.61391 0.0
Mg73 Mg 0.04703 0.04794 0.5697 0.0
O74 O 0.98269 0.98595 0.57056 0.0
Mg75 Mg 0.00474 0.00543 0.5098 0.0
O76 O 0.01531 0.07226 0.52804 0.0
O77 O 0.04663 0.10555 0.57774 0.0
O78 O 0.02798 0.02687 0.44937 0.0
O79 O 0.94386 0.02361 0.49599 0.0
Mg80 Mg 0.97519 0.96071 0.44154 0.0
O81 O 0.99195 0.93902 0.49298 0.0
O82 O 0.01661 0.97984 0.40472 0.0
O83 O 0.92532 0.98879 0.44303 0.0
O84 O 0.96835 0.90267 0.44119 0.0
C85 C 0.09707 -0.00078 0.53487 0.0
C86 C 0.99294 0.9938 0.60597 0.0
C87 C 0.02611 0.10499 0.54648 0.0
C88 C 0.03226 0.01244 0.41507 0.0
C89 C 0.91912 0.01396 0.46946 0.0
C90 C 0.98214 0.90527 0.4762 0.0
O91 O 0.09908 0.03171 0.55308 0.0
O92 O 0.06563 0.98435 0.52166 0.0
O93 O 0.42943 0.0882 0.01788 0.0
Mg94 Mg 0.48526 0.10615 0.02866 0.0
O95 O 0.4443 0.02835 0.02846 0.0
Mg96 Mg 0.50738 0.02155 0.0103 0.0
O97 O 0.51817 0.08269 0.98832 0.0
O98 O 0.50902 0.14603 0.99318 0.0
O99 O 0.57145 0.01867 0.98917 0.0
O100 O 0.48503 0.00348 0.94831 0.0
Mg101 Mg 0.53618 0.95949 0.99917 0.0
O102 O 0.49215 0.95828 0.03473 0.0
O103 O 0.58875 0.97377 0.02616 0.0
O104 O 0.52617 0.96048 0.93745 0.0
O105 O 0.52201 0.90593 0.01476 0.0
C106 C 0.52524 0.07021 0.09628 0.0
C107 C 0.41991 0.05358 0.02534 0.0
C108 C 0.52417 0.11733 0.97601 0.0
C109 C 0.59773 0.00054 0.00415 0.0
C110 C 0.5001 0.98006 0.92496 0.0
C111 C 0.49683 0.92118 0.03527 0.0
O112 O 0.50816 0.09896 0.08495 0.0
O113 O 0.52929 0.0406 0.07348 0.0
O114 O 0.4539 0.58131 0.57465 0.0
Mg115 Mg 0.46232 0.52727 0.59837 0.0
O116 O 0.47802 0.57139 0.51628 0.0
Mg117 Mg 0.49679 0.50753 0.51279 0.0
O118 O 0.5103 0.50953 0.57699 0.0
O119 O 0.50373 0.51968 0.64012 0.0
O120 O 0.51635 0.44197 0.51632 0.0
O121 O 0.55724 0.53173 0.5056 0.0
Mg122 Mg 0.51441 0.46958 0.45354 0.0
O123 O 0.48232 0.51471 0.44551 0.0
O124 O 0.48492 0.41742 0.46571 0.0
O125 O 0.57214 0.48114 0.46994 0.0
O126 O 0.50777 0.48042 0.39713 0.0
C127 C 0.41385 0.47211 0.547 0.0
C128 C 0.46222 0.59283 0.54129 0.0
C129 C 0.52382 0.50846 0.61184 0.0
C130 C 0.50248 0.41203 0.49679 0.0
C131 C 0.58189 0.51227 0.4894 0.0
C132 C 0.48729 0.50776 0.4086 0.0
O133 O 0.42187 0.48267 0.58209 0.0
O134 O 0.43497 0.48175 0.51919 0.0
O135 O 0.98513 0.42535 0.07551 0.0
Mg136 Mg 0.005 0.48355 0.07712 0.0
O137 O 0.01007 0.43883 0.02062 0.0
Mg138 Mg 0.98948 0.50355 0.01018 0.0
O139 O 0.96841 0.52568 0.07275 0.0
O140 O 0.99186 0.50551 0.12915 0.0
O141 O 0.97025 0.56429 0.99257 0.0
O142 O 0.92683 0.47853 0.00968 0.0
Mg143 Mg 0.9553 0.48548 0.94808 0.0
O144 O 0.01208 0.48781 0.94614 0.0
O145 O 0.92874 0.53922 0.94933 0.0
O146 O 0.92594 0.43374 0.96377 0.0
O147 O 0.97286 0.47654 0.89413 0.0
C148 C 0.07263 0.5217 0.04556 0.0
C149 C 0.00112 0.41382 0.04558 0.0
C150 C 0.96999 0.52673 0.1106 0.0
C151 C 0.9432 0.56863 0.96879 0.0
C152 C 0.9105 0.44867 0.99258 0.0
C153 C 0.00614 0.48025 0.90897 0.0
O154 O 0.06228 0.4987 0.07131 0.0
O155 O 0.04952 0.53128 0.01971 0.0
H156 H 0.09893 0.05955 0.18543 0.0
H157 H 0.12267 0.17209 0.24278 0.0
H158 H 0.07809 0.03355 0.24626 0.0
H159 H 0.1037 0.14584 0.30469 0.0
H160 H 0.032 0.08997 0.4011 0.0
H161 H 0.05473 0.12132 0.34303 0.0
H162 H 0.10204 0.01454 0.30497 0.0
H163 H 0.07748 0.98318 0.36147 0.0
C164 C 0.0997 0.07865 0.21128 0.0
C165 C 0.11235 0.11771 0.20956 0.0
C166 C 0.08822 0.06374 0.24634 0.0
C167 C 0.08989 0.08731 0.28088 0.0
C168 C 0.10178 0.12679 0.27883 0.0
C169 C 0.11269 0.14188 0.24343 0.0
C170 C 0.04791 0.07364 0.38056 0.0
C171 C 0.05281 0.03414 0.38553 0.0
C172 C 0.0609 0.0915 0.3472 0.0
C173 C 0.07946 0.07025 0.31856 0.0
C174 C 0.08667 0.03153 0.32543 0.0
C175 C 0.07309 0.01362 0.35815 0.0
H176 H 0.41782 0.85983 0.71502 0.0
H177 H 0.39702 0.97799 0.68959 0.0
H178 H 0.44532 0.88188 0.77777 0.0
H179 H 0.42461 0.00025 0.75319 0.0
H180 H 0.44047 0.01175 0.8898 0.0
H181 H 0.41403 0.99592 0.82449 0.0
H182 H 0.50179 0.91884 0.80255 0.0
H183 H 0.52783 0.93406 0.86766 0.0
C184 C 0.41947 0.89065 0.72267 0.0
C185 C 0.40579 0.91722 0.69695 0.0
C186 C 0.43527 0.9033 0.75872 0.0
C187 C 0.43772 0.9429 0.77026 0.0
C188 C 0.42309 0.96953 0.74512 0.0
C189 C 0.40728 0.9568 0.70877 0.0
C190 C 0.4543 0.99169 0.87089 0.0
C191 C 0.486 0.97377 0.88418 0.0
C192 C 0.43922 0.98277 0.83341 0.0
C193 C 0.45551 0.95571 0.80853 0.0
C194 C 0.48811 0.93918 0.8213 0.0
C195 C 0.50315 0.94805 0.85861 0.0
H196 H 0.69102 0.43133 0.76756 0.0
H197 H 0.58326 0.36802 0.76201 0.0
H198 H 0.67559 0.46161 0.70672 0.0
H199 H 0.56888 0.39678 0.701 0.0
H200 H 0.54597 0.43746 0.59061 0.0
H201 H 0.58921 0.4024 0.62968 0.0
H202 H 0.62353 0.50893 0.69469 0.0
H203 H 0.58015 0.54359 0.65588 0.0
C204 C 0.66425 0.42363 0.7533 0.0
C205 C 0.63833 0.39727 0.76972 0.0
C206 C 0.65575 0.44049 0.71825 0.0
C207 C 0.62149 0.43077 0.69876 0.0
C208 C 0.59605 0.4038 0.71471 0.0
C209 C 0.60422 0.38749 0.74987 0.0
C210 C 0.5645 0.45368 0.61156 0.0
C211 C 0.55972 0.49292 0.62074 0.0
C212 C 0.58897 0.43362 0.63414 0.0
C213 C 0.60893 0.45289 0.66571 0.0
C214 C 0.60842 0.49339 0.6706 0.0
C215 C 0.5836 0.51324 0.64843 0.0
H216 H 0.83021 0.60446 0.29891 0.0
H217 H 0.94531 0.59427 0.33379 0.0
H218 H 0.8459 0.59145 0.23098 0.0
H219 H 0.9609 0.58275 0.26628 0.0
H220 H 0.99014 0.59596 0.14616 0.0
H221 H 0.96234 0.62155 0.20515 0.0
H222 H 0.87127 0.53417 0.19014 0.0
H223 H 0.89909 0.509 0.13076 0.0
C224 C 0.85874 0.59921 0.29221 0.0
C225 C 0.88659 0.60077 0.32185 0.0
C226 C 0.86771 0.59217 0.25331 0.0
C227 C 0.90473 0.58712 0.24335 0.0
C228 C 0.9323 0.58777 0.273 0.0
C229 C 0.92333 0.59427 0.31173 0.0
C230 C 0.96317 0.58368 0.1544 0.0
C231 C 0.9464 0.55098 0.13395 0.0
C232 C 0.94754 0.59788 0.18837 0.0
C233 C 0.91511 0.57926 0.20256 0.0
C234 C 0.89622 0.5491 0.17979 0.0
C235 C 0.91193 0.53491 0.1457 0.0
H236 H 0.22867 0.09222 0.16426 0.0
H237 H 0.2005 0.12532 0.04798 0.0
H238 H 0.28148 0.06086 0.14024 0.0
H239 H 0.25703 0.09904 0.02494 0.0
H240 H 0.35491 0.03978 0.9831 0.0
H241 H 0.29271 0.05037 0.00658 0.0
H242 H 0.33991 0.0715 0.12313 0.0
H243 H 0.40046 0.05729 0.09969 0.0
C244 C 0.2334 0.09292 0.13343 0.0
C245 C 0.20933 0.11138 0.10826 0.0
C246 C 0.26477 0.07551 0.11965 0.0
C247 C 0.27454 0.07746 0.08047 0.0
C248 C 0.25061 0.09602 0.05519 0.0
C249 C 0.2183 0.11218 0.06874 0.0
C250 C 0.35124 0.04472 0.014 0.0
C251 C 0.38212 0.04682 0.0398 0.0
C252 C 0.31575 0.05184 0.02749 0.0
C253 C 0.3107 0.06281 0.06688 0.0
C254 C 0.34171 0.0626 0.0928 0.0
C255 C 0.37678 0.0543 0.07945 0.0
H256 H 0.32316 0.91888 0.53351 0.0
H257 H 0.27734 0.90562 0.64711 0.0
H258 H 0.26253 0.93685 0.50853 0.0
H259 H 0.21676 0.92333 0.62208 0.0
H260 H 0.10545 0.92548 0.55684 0.0
H261 H 0.16488 0.89685 0.57071 0.0
H262 H 0.22419 0.99671 0.5251 0.0
H263 H 0.16506 0.0256 0.51236 0.0
C264 C 0.30007 0.91968 0.55304 0.0
C265 C 0.30498 0.91125 0.59232 0.0
C266 C 0.26547 0.92987 0.53875 0.0
C267 C 0.23497 0.93112 0.56331 0.0
C268 C 0.23971 0.92206 0.60241 0.0
C269 C 0.27444 0.91248 0.61685 0.0
C270 C 0.13119 0.94058 0.54867 0.0
C271 C 0.13092 0.97757 0.53343 0.0
C272 C 0.1651 0.92447 0.55695 0.0
C273 C 0.19904 0.94477 0.54922 0.0
C274 C 0.19845 0.98039 0.53118 0.0
C275 C 0.1647 0.99687 0.52383 0.0
H276 H 0.73281 0.43837 0.86207 0.0
H277 H 0.67541 0.37653 0.9519 0.0
H278 H 0.78226 0.45986 0.90868 0.0
H279 H 0.7271 0.3958 0.99756 0.0
H280 H 0.87071 0.37951 0.98013 0.0
H281 H 0.80383 0.37138 0.96511 0.0
H282 H 0.79299 0.49266 0.99449 0.0
H283 H 0.85957 0.50062 0.01128 0.0
C284 C 0.7299 0.43034 0.89191 0.0
C285 C 0.70046 0.40466 0.90277 0.0
C286 C 0.7584 0.44266 0.91859 0.0
C287 C 0.75833 0.42908 0.95632 0.0
C288 C 0.72753 0.40647 0.96846 0.0
C289 C 0.69837 0.39503 0.94207 0.0
C290 C 0.8537 0.40388 0.98535 0.0
C291 C 0.8702 0.44065 0.99655 0.0
C292 C 0.81553 0.39925 0.97689 0.0
C293 C 0.79369 0.43148 0.97873 0.0
C294 C 0.80942 0.46744 0.99339 0.0
C295 C 0.84745 0.47185 0.00295 0.0
H296 H 0.76721 0.6218 0.38786 0.0
H297 H 0.82381 0.56968 0.48228 0.0
H298 H 0.70697 0.59992 0.41355 0.0
H299 H 0.76327 0.54663 0.50744 0.0
H300 H 0.64345 0.47093 0.48144 0.0
H301 H 0.70712 0.49655 0.4703 0.0
H302 H 0.67216 0.61341 0.48378 0.0
H303 H 0.60863 0.58796 0.49602 0.0
C304 C 0.7666 0.60567 0.41413 0.0
C305 C 0.79985 0.59728 0.43318 0.0
C306 C 0.73231 0.59342 0.42891 0.0
C307 C 0.73072 0.57192 0.46253 0.0
C308 C 0.76397 0.56336 0.48157 0.0
C309 C 0.79838 0.57645 0.46726 0.0
C310 C 0.64958 0.50208 0.48292 0.0
C311 C 0.62113 0.5275 0.48932 0.0
C312 C 0.68595 0.51666 0.47671 0.0
C313 C 0.69423 0.55683 0.476 0.0
C314 C 0.66625 0.58228 0.48417 0.0
C315 C 0.63005 0.56773 0.49129 0.0
H316 H 0.05481 0.1792 0.10008 0.0
H317 H 0.15967 0.24639 0.09589 0.0
H318 H 0.02278 0.23205 0.07248 0.0
H319 H 0.12749 0.30028 0.06944 0.0
H320 H 0.06136 0.3876 0.00672 0.0
H321 H 0.09212 0.32745 0.01756 0.0
H322 H 0.00588 0.29298 0.09644 0.0
H323 H 0.97514 0.3519 0.08486 0.0
C324 C 0.07101 0.2054 0.09319 0.0
C325 C 0.10965 0.20888 0.10065 0.0
C326 C 0.05265 0.2358 0.07745 0.0
C327 C 0.07233 0.27088 0.06922 0.0
C328 C 0.11136 0.27369 0.07505 0.0
C329 C 0.12984 0.24291 0.09042 0.0
C330 C 0.0485 0.36653 0.02544 0.0
C331 C 0.0158 0.37456 0.04495 0.0
C332 C 0.06638 0.33229 0.0321 0.0
C333 C 0.05175 0.30528 0.05815 0.0
C334 C 0.01791 0.31259 0.07583 0.0
C335 C 0.00024 0.34663 0.0693 0.0
H336 H 0.57366 0.29119 0.83909 0.0
H337 H 0.68601 0.26361 0.86783 0.0
H338 H 0.55035 0.22783 0.85916 0.0
H339 H 0.66311 0.19912 0.88645 0.0
H340 H 0.59676 0.13865 0.98532 0.0
H341 H 0.6315 0.17998 0.94203 0.0
H342 H 0.5434 0.1593 0.85434 0.0
H343 H 0.50806 0.11913 0.89906 0.0
C344 C 0.59342 0.2709 0.84854 0.0
C345 C 0.63145 0.28221 0.85249 0.0
C346 C 0.58019 0.23438 0.85974 0.0
C347 C 0.60485 0.20826 0.87467 0.0
C348 C 0.6433 0.21871 0.87572 0.0
C349 C 0.65644 0.25552 0.86508 0.0
C350 C 0.58585 0.14141 0.95603 0.0
C351 C 0.55005 0.12589 0.94522 0.0
C352 C 0.60567 0.16519 0.93108 0.0
C353 C 0.58985 0.17377 0.89491 0.0
C354 C 0.55595 0.15402 0.88235 0.0
C355 C 0.53596 0.13054 0.90759 0.0
H356 H 0.90665 0.66731 0.50159 0.0
H357 H 0.93339 0.71059 0.38886 0.0
H358 H 0.93884 0.72582 0.53263 0.0
H359 H 0.96737 0.76613 0.41984 0.0
H360 H 0.03671 0.85603 0.46887 0.0
H361 H 0.02473 0.78572 0.46898 0.0
H362 H 0.91961 0.80115 0.52315 0.0
H363 H 0.9318 0.87153 0.52308 0.0
C364 C 0.91983 0.6886 0.48337 0.0
C365 C 0.91731 0.6837 0.44248 0.0
C366 C 0.93864 0.72178 0.50128 0.0
C367 C 0.95621 0.74996 0.47864 0.0
C368 C 0.95505 0.74427 0.43808 0.0
C369 C 0.93554 0.71201 0.42027 0.0
C370 C 0.01235 0.84433 0.48333 0.0
C371 C 0.98514 0.86891 0.49594 0.0
C372 C 0.00535 0.80411 0.48314 0.0
C373 C 0.97095 0.78818 0.4954 0.0
C374 C 0.94641 0.81271 0.51372 0.0
C375 C 0.95344 0.85302 0.51384 0.0
H376 H 0.41861 0.79638 0.64063 0.0
H377 H 0.4001 0.83602 0.52479 0.0
H378 H 0.43778 0.73502 0.61321 0.0
H379 H 0.41874 0.77334 0.49743 0.0
H380 H 0.50734 0.65352 0.51738 0.0
H381 H 0.49324 0.72244 0.52324 0.0
H382 H 0.38062 0.68851 0.55332 0.0
H383 H 0.39463 0.62032 0.54804 0.0
C384 C 0.41955 0.79249 0.60931 0.0
C385 C 0.408 0.82128 0.5849 0.0
C386 C 0.43036 0.75726 0.59371 0.0
C387 C 0.42988 0.74992 0.5534 0.0
C388 C 0.41959 0.77879 0.52865 0.0
C389 C 0.4087 0.81434 0.54432 0.0
C390 C 0.4792 0.66093 0.52347 0.0
C391 C 0.452 0.63197 0.53233 0.0
C392 C 0.4712 0.70015 0.52686 0.0
C393 C 0.43588 0.71031 0.5386 0.0
C394 C 0.4079 0.68113 0.54389 0.0
C395 C 0.41592 0.64227 0.5409 0.0
H396 H 0.89304 0.95304 0.82708 0.0
H397 H 0.88342 0.83879 0.77022 0.0
H398 H 0.921 0.97936 0.76958 0.0
H399 H 0.91284 0.86507 0.71278 0.0
H400 H 0.93353 0.93868 0.60314 0.0
H401 H 0.90258 0.90932 0.65845 0.0
H402 H 0.97958 0.976 0.73744 0.0
H403 H 0.00971 0.00547 0.68312 0.0
C404 C 0.89687 0.9335 0.80226 0.0
C405 C 0.88596 0.89379 0.80331 0.0
C406 C 0.91324 0.94854 0.76936 0.0
C407 C 0.91936 0.9243 0.73657 0.0
C408 C 0.90828 0.88457 0.73742 0.0
C409 C 0.89188 0.86945 0.7705 0.0
C410 C 0.94373 0.94703 0.63235 0.0
C411 C 0.97392 0.97473 0.63858 0.0
C412 C 0.92616 0.93007 0.664 0.0
C413 C 0.93837 0.94063 0.70242 0.0
C414 C 0.96891 0.96776 0.70836 0.0
C415 C 0.98636 0.98456 0.67701 0.0
H416 H 0.66536 0.10455 0.30401 0.0
H417 H 0.55363 0.10553 0.34682 0.0
H418 H 0.64022 0.08464 0.23916 0.0
H419 H 0.52857 0.08578 0.28202 0.0
H420 H 0.50311 0.11628 0.15588 0.0
H421 H 0.52705 0.12215 0.22231 0.0
H422 H 0.60329 0.03339 0.19686 0.0
H423 H 0.5791 0.02746 0.12931 0.0
C424 C 0.63547 0.0997 0.29979 0.0
C425 C 0.61146 0.10714 0.33049 0.0
C426 C 0.62109 0.08823 0.26262 0.0
C427 C 0.58241 0.08405 0.25537 0.0
C428 C 0.5585 0.08944 0.28655 0.0
C429 C 0.57285 0.10086 0.32364 0.0
C430 C 0.5249 0.09781 0.16426 0.0
C431 C 0.53938 0.07157 0.13714 0.0
C432 C 0.53838 0.10094 0.20258 0.0
C433 C 0.56692 0.07811 0.21497 0.0
C434 C 0.58131 0.05146 0.18808 0.0
C435 C 0.56741 0.04796 0.14953 0.0
H436 H 0.33392 0.61213 0.25489 0.0
H437 H 0.44161 0.6461 0.21015 0.0
H438 H 0.36419 0.5823 0.30926 0.0
H439 H 0.47192 0.61683 0.26495 0.0
H440 H 0.50319 0.50961 0.33203 0.0
H441 H 0.47527 0.54761 0.28275 0.0
H442 H 0.40575 0.59855 0.36893 0.0
H443 H 0.4338 0.56022 0.41879 0.0
C444 C 0.36407 0.61336 0.25686 0.0
C445 C 0.38547 0.63108 0.2282 0.0
C446 C 0.38135 0.59672 0.28816 0.0
C447 C 0.42034 0.59725 0.29122 0.0
C448 C 0.44177 0.61582 0.26309 0.0
C449 C 0.42448 0.63272 0.23191 0.0
C450 C 0.48199 0.52892 0.34063 0.0
C451 C 0.47045 0.53167 0.37927 0.0
C452 C 0.46628 0.55096 0.31241 0.0
C453 C 0.43847 0.57606 0.32207 0.0
C454 C 0.42706 0.57921 0.36075 0.0
C455 C 0.44311 0.55736 0.38921 0.0
H456 H 0.04306 0.44496 0.68047 0.0
H457 H 0.15325 0.41816 0.71917 0.0
H458 H 0.02885 0.46501 0.74729 0.0
H459 H 0.13862 0.4378 0.78608 0.0
H460 H 0.03673 0.53555 0.86487 0.0
H461 H 0.06841 0.52342 0.80373 0.0
H462 H 0.07211 0.40252 0.82885 0.0
H463 H 0.03986 0.41459 0.88973 0.0
C464 C 0.06429 0.44367 0.70315 0.0
C465 C 0.09927 0.43014 0.69459 0.0
C466 C 0.05624 0.45529 0.74122 0.0
C467 C 0.08281 0.45304 0.77146 0.0
C468 C 0.11788 0.43992 0.76306 0.0
C469 C 0.12619 0.42892 0.72484 0.0
C470 C 0.04601 0.50684 0.85816 0.0
C471 C 0.0367 0.47612 0.88214 0.0
C472 C 0.06371 0.49986 0.82314 0.0
C473 C 0.0725 0.46211 0.81186 0.0
C474 C 0.06598 0.43196 0.83735 0.0
C475 C 0.0479 0.43888 0.87223 0.0
H476 H 0.79876 0.88926 0.96512 0.0
H477 H 0.77204 0.92956 0.8513 0.0
H478 H 0.74766 0.92335 0.99161 0.0
H479 H 0.72457 0.96754 0.87852 0.0
H480 H 0.61137 0.99231 0.92748 0.0
H481 H 0.66638 0.96674 0.89959 0.0
H482 H 0.72252 0.97862 0.01257 0.0
H483 H 0.66573 0.00094 0.04061 0.0
C484 C 0.78237 0.90559 0.94566 0.0
C485 C 0.79018 0.90639 0.90588 0.0
C486 C 0.7533 0.92611 0.96114 0.0
C487 C 0.73155 0.9489 0.93755 0.0
C488 C 0.73984 0.9501 0.89791 0.0
C489 C 0.76805 0.92871 0.88227 0.0
C490 C 0.63596 0.9907 0.94601 0.0
C491 C 0.63443 -0.001 0.98611 0.0
C492 C 0.66778 0.97575 0.93006 0.0
C493 C 0.69935 0.96963 0.95369 0.0
C494 C 0.69866 0.98139 0.99339 0.0
C495 C 0.66638 0.99517 0.00948 0.0
H496 H 0.68578 0.05293 0.43602 0.0
H497 H 0.73943 0.16841 0.44341 0.0
H498 H 0.74417 0.02623 0.45535 0.0
H499 H 0.79848 0.1416 0.46198 0.0
H500 H 0.89613 0.07626 0.51384 0.0
H501 H 0.83541 0.10493 0.50958 0.0
H502 H 0.79992 0.02006 0.4182 0.0
H503 H 0.85923 0.99147 0.42269 0.0
C504 C 0.7101 0.07259 0.44214 0.0
C505 C 0.70832 0.1126 0.43769 0.0
C506 C 0.74353 0.05736 0.45314 0.0
C507 C 0.77612 0.08174 0.45949 0.0
C508 C 0.77383 0.12209 0.45744 0.0
C509 C 0.74012 0.13742 0.4467 0.0
C510 C 0.87515 0.06365 0.49313 0.0
C511 C 0.88258 0.03154 0.46867 0.0
C512 C 0.84051 0.08014 0.49059 0.0
C513 C 0.81271 0.06448 0.46386 0.0
C514 C 0.82032 0.03234 0.43971 0.0
C515 C 0.85464 0.01613 0.44208 0.0
H516 H 0.29855 0.63406 0.06495 0.0
H517 H 0.26412 0.59825 0.17798 0.0
H518 H 0.23944 0.6058 0.0362 0.0
H519 H 0.20647 0.56875 0.14907 0.0
H520 H 0.09071 0.57411 0.10277 0.0
H521 H 0.15267 0.60133 0.12245 0.0
H522 H 0.19879 0.54203 0.02351 0.0
H523 H 0.13574 0.51515 0.00335 0.0
C524 C 0.27862 0.61982 0.08355 0.0
C525 C 0.28579 0.61891 0.12386 0.0
C526 C 0.24505 0.60335 0.067 0.0
C527 C 0.21819 0.58583 0.09057 0.0
C528 C 0.2264 0.58286 0.13036 0.0
C529 C 0.25969 0.59935 0.14685 0.0
C530 C 0.11404 0.56765 0.0848 0.0
C531 C 0.10887 0.54286 0.05163 0.0
C532 C 0.14947 0.5828 0.09623 0.0
C533 C 0.18056 0.57303 0.07498 0.0
C534 C 0.17521 0.54987 0.04041 0.0
C535 C 0.13937 0.53469 0.02881 0.0
H536 H 0.17263 0.41624 0.52742 0.0
H537 H 0.21613 0.41126 0.645 0.0
H538 H 0.23645 0.42443 0.50413 0.0
H539 H 0.27901 0.42063 0.62219 0.0
H540 H 0.38822 0.40597 0.57838 0.0
H541 H 0.3229 0.38464 0.58484 0.0
H542 H 0.2909 0.4738 0.50886 0.0
H543 H 0.35677 0.49409 0.50133 0.0
C544 C 0.19576 0.41693 0.54823 0.0
C545 C 0.18933 0.41329 0.58808 0.0
C546 C 0.2322 0.42175 0.53492 0.0
C547 C 0.26279 0.42254 0.56121 0.0
C548 C 0.25615 0.41922 0.601 0.0
C549 C 0.21999 0.41454 0.61422 0.0
C550 C 0.36725 0.4198 0.56172 0.0
C551 C 0.37727 0.45156 0.5394 0.0
C552 C 0.32986 0.40799 0.56578 0.0
C553 C 0.30174 0.42833 0.54831 0.0
C554 C 0.31193 0.45761 0.52274 0.0
C555 C 0.34959 0.46911 0.51823 0.0
H556 H 0.87575 0.8105 0.96155 0.0
H557 H 0.86874 0.76083 0.84428 0.0
H558 H 0.8955 0.74862 0.98506 0.0
H559 H 0.88859 0.69963 0.86748 0.0
H560 H 0.88331 0.58445 0.92369 0.0
H561 H 0.86249 0.64716 0.9069 0.0
H562 H 0.95005 0.70458 0.9803 0.0
H563 H 0.97114 0.64109 0.99756 0.0
C564 C 0.87821 0.78633 0.94087 0.0
C565 C 0.87061 0.79056 0.90104 0.0
C566 C 0.88985 0.75106 0.95427 0.0
C567 C 0.89352 0.71909 0.92819 0.0
C568 C 0.88569 0.72345 0.88846 0.0
C569 C 0.87453 0.75865 0.87509 0.0
C570 C 0.8982 0.61029 0.93654 0.0
C571 C 0.92924 0.60753 0.96173 0.0
C572 C 0.88626 0.64637 0.92672 0.0
C573 C 0.90487 0.68096 0.94178 0.0
C574 C 0.93505 0.67846 0.96824 0.0
C575 C 0.94719 0.64209 0.97804 0.0
H576 H 0.38142 0.76588 0.1937 0.0
H577 H 0.3677 0.71994 0.07504 0.0
H578 H 0.41002 0.82656 0.1703 0.0
H579 H 0.39525 0.7808 0.05215 0.0
H580 H 0.51577 0.85316 0.0629 0.0
H581 H 0.47607 0.8052 0.09447 0.0
H582 H 0.38591 0.88165 0.09303 0.0
H583 H 0.42601 0.93065 0.06107 0.0
C584 C 0.38389 0.76896 0.16271 0.0
C585 C 0.37267 0.738 0.1362 0.0
C586 C 0.39966 0.80379 0.14945 0.0
C587 C 0.40409 0.8081 0.10959 0.0
C588 C 0.39129 0.77808 0.08302 0.0
C589 C 0.37565 0.74332 0.09617 0.0
C590 C 0.48766 0.86013 0.06967 0.0
C591 C 0.47374 0.89539 0.05911 0.0
C592 C 0.46512 0.83276 0.08785 0.0
C593 C 0.42826 0.84003 0.09581 0.0
C594 C 0.4145 0.87586 0.08712 0.0
C595 C 0.43732 0.90367 0.06898 0.0
H596 H 0.05214 0.31323 0.63869 0.0
H597 H 0.07667 0.34779 0.5225 0.0
H598 H 0.02205 0.25301 0.61243 0.0
H599 H 0.04702 0.28617 0.49606 0.0
H600 H 0.0645 0.14875 0.49646 0.0
H601 H 0.06837 0.21949 0.50039 0.0
H602 H 0.97223 0.21774 0.57302 0.0
H603 H 0.96917 0.14682 0.5696 0.0
C604 C 0.05005 0.3087 0.6074 0.0
C605 C 0.06711 0.33553 0.58281 0.0
C606 C 0.03265 0.27391 0.59224 0.0
C607 C 0.03204 0.26471 0.55207 0.0
C608 C 0.04721 0.29235 0.52716 0.0
C609 C 0.06438 0.32751 0.54236 0.0
C610 C 0.04287 0.16358 0.51123 0.0
C611 C 0.01647 0.14261 0.53261 0.0
C612 C 0.04516 0.20418 0.51371 0.0
C613 C 0.02114 0.22422 0.53784 0.0
C614 C 0.99153 0.20307 0.55478 0.0
C615 C 0.98939 0.16249 0.55239 0.0
H616 H 0.61797 0.1931 0.49971 0.0
H617 H 0.59311 0.23188 0.38477 0.0
H618 H 0.58672 0.24831 0.52821 0.0
H619 H 0.56057 0.28514 0.41328 0.0
H620 H 0.46851 0.34354 0.47014 0.0
H621 H 0.49851 0.28301 0.45857 0.0
H622 H 0.59679 0.33101 0.52211 0.0
H623 H 0.56694 0.39232 0.53338 0.0
C624 C 0.60607 0.2133 0.48051 0.0
C625 C 0.60763 0.20754 0.43981 0.0
C626 C 0.58804 0.24469 0.4969 0.0
C627 C 0.57079 0.27038 0.47285 0.0
C628 C 0.57304 0.26518 0.4324 0.0
C629 C 0.5915 0.23444 0.4161 0.0
C630 C 0.49603 0.34083 0.48284 0.0
C631 C 0.51557 0.37286 0.50217 0.0
C632 C 0.51319 0.30623 0.47608 0.0
C633 C 0.55007 0.30277 0.4889 0.0
C634 C 0.56828 0.33312 0.51198 0.0
C635 C 0.55111 0.36808 0.51858 0.0
loop_
_geom_bond_atom_site_label_1
_geom_bond_atom_site_label_2
_geom_bond_distance
_geom_bond_site_symmetry_2
_ccdc_geom_bond_type
H0 C3 0.931 . S
H1 C6 0.928 . S
H2 C8 0.930 . S
C3 H0 0.931 . S
C3 C4 1.413 . S
C3 C5 1.360 . S
C4 C3 1.413 . S
C4 C8 1.429 . S
C5 C3 1.360 . S
C5 C6 1.372 . S
C6 H1 0.928 . S
C6 C5 1.372 . S
C6 C7 1.404 . S
C7 C6 1.404 . S
C7 C8 1.391 . S
C8 H2 0.930 . S
C8 C4 1.429 . S
C8 C7 1.391 . S
H9 C12 0.931 . S
H10 C15 0.928 . S
H11 C17 0.930 . S
C12 H9 0.931 . S
C12 C13 1.413 . S
C12 C14 1.360 . S
C13 C12 1.413 . S
C13 C17 1.429 . S
C14 C12 1.360 . S
C14 C15 1.372 . S
C15 H10 0.928 . S
C15 C14 1.372 . S
C15 C16 1.404 . S
C16 C15 1.404 . S
C16 C17 1.391 . S
C17 H11 0.930 . S
C17 C13 1.429 . S
C17 C16 1.391 . S
H18 C21 0.931 . S
H19 C24 0.928 . S
H20 C26 0.930 . S
C21 H18 0.931 . S
C21 C22 1.413 . S
C21 C23 1.360 . S
C22 C21 1.413 . S
C22 C26 1.429 . S
C23 C21 1.360 . S
C23 C24 1.372 . S
C24 H19 0.928 . S
C24 C23 1.372 . S
C24 C25 1.404 . S
C25 C24 1.404 . S
C25 C26 1.391 . S
C26 H20 0.930 . S
C26 C22 1.429 . S
C26 C25 1.391 . S
H27 C30 0.931 . S
H28 C33 0.928 . S
H29 C35 0.930 . S
C30 H27 0.931 . S
C30 C31 1.413 . S
C30 C32 1.360 . S
C31 C30 1.413 . S
C31 C35 1.429 . S
C32 C30 1.360 . S
C32 C33 1.372 . S
C33 H28 0.928 . S
C33 C32 1.372 . S
C33 C34 1.404 . S
C34 C33 1.404 . S
C34 C35 1.391 . S
C35 H29 0.930 . S
C35 C31 1.429 . S
C35 C34 1.391 . S
H36 C39 0.931 . S
H37 C42 0.928 . S
H38 C44 0.930 . S
C39 H36 0.931 . S
C39 C40 1.413 . S
C39 C41 1.360 . S
C40 C39 1.413 . S
C40 C44 1.429 . S
C41 C39 1.360 . S
C41 C42 1.372 . S
C42 H37 0.928 . S
C42 C41 1.372 . S
C42 C43 1.404 . S
C43 C42 1.404 . S
C43 C44 1.391 . S
C44 H38 0.930 . S
C44 C40 1.429 . S
C44 C43 1.391 . S
H45 C48 0.931 . S
H46 C51 0.928 . S
H47 C53 0.930 . S
C48 H45 0.931 . S
C48 C49 1.413 . S
C48 C50 1.360 . S
C49 C48 1.413 . S
C49 C53 1.429 . S
C50 C48 1.360 . S
C50 C51 1.372 . S
C51 H46 0.928 . S
C51 C50 1.372 . S
C51 C52 1.404 . S
C52 C51 1.404 . S
C52 C53 1.391 . S
C53 H47 0.930 . S
C53 C49 1.429 . S
C53 C52 1.391 . S
H54 C57 0.931 . S
H55 C60 0.928 . S
H56 C62 0.930 . S
C57 H54 0.931 . S
C57 C58 1.413 . S
C57 C59 1.360 . S
C58 C57 1.413 . S
C58 C62 1.429 . S
C59 C57 1.360 . S
C59 C60 1.372 . S
C60 H55 0.928 . S
C60 C59 1.372 . S
C60 C61 1.404 . S
C61 C60 1.404 . S
C61 C62 1.391 . S
C62 H56 0.930 . S
C62 C58 1.429 . S
C62 C61 1.391 . S
H63 C66 0.931 . S
H64 C69 0.928 . S
H65 C71 0.930 . S
C66 H63 0.931 . S
C66 C67 1.413 . S
C66 C68 1.360 . S
C67 C66 1.413 . S
C67 C71 1.429 . S
C68 C66 1.360 . S
C68 C69 1.372 . S
C69 H64 0.928 . S
C69 C68 1.372 . S
C69 C70 1.404 . S
C70 C69 1.404 . S
C70 C71 1.391 . S
C71 H65 0.930 . S
C71 C67 1.429 . S
C71 C70 1.391 . S
O72 Mg73 1.990 . S
O72 C86 1.253 1_445 S
Mg73 O72 1.990 . S
Mg73 O76 2.180 . S
Mg73 O77 2.117 . S
Mg73 O91 2.030 1_545 S
O74 Mg75 2.072 1_665 S
O74 C86 1.260 . S
Mg75 O74 2.072 1_445 S
Mg75 O76 2.099 . S
Mg75 O78 2.079 . S
Mg75 O79 2.072 1_455 S
Mg75 O81 2.099 1_445 S
Mg75 O92 2.079 1_545 S
O76 Mg73 2.180 . S
O76 Mg75 2.099 . S
O76 C87 1.279 . S
O77 Mg73 2.117 . S
O77 C87 1.250 . S
O78 Mg75 2.079 . S
O78 C88 1.264 . S
O79 Mg75 2.072 1_655 S
O79 C89 1.260 . S
Mg80 O81 2.180 . S
Mg80 O82 2.030 1_565 S
Mg80 O83 1.990 1_565 S
Mg80 O84 2.117 . S
O81 Mg75 2.099 1_665 S
O81 Mg80 2.180 . S
O81 C90 1.279 . S
O82 Mg80 2.030 1_545 S
O82 C88 1.248 1_655 S
O83 Mg80 1.990 1_545 S
O83 C89 1.253 . S
O84 Mg80 2.117 . S
O84 C90 1.250 . S
C85 O91 1.248 . S
C85 O92 1.264 . S
C86 O72 1.253 1_665 S
C86 O74 1.260 . S
C87 O76 1.279 . S
C87 O77 1.250 . S
C88 O78 1.264 . S
C88 O82 1.248 1_455 S
C89 O79 1.260 . S
C89 O83 1.253 . S
C90 O81 1.279 . S
C90 O84 1.250 . S
O91 Mg73 2.030 1_565 S
O91 C85 1.248 . S
O92 Mg75 2.079 1_565 S
O92 C85 1.264 . S
O93 Mg94 1.990 . S
O93 C107 1.253 . S
Mg94 O93 1.990 . S
Mg94 O97 2.182 1_554 S
Mg94 O98 2.117 1_554 S
Mg94 O112 2.030 . S
O95 Mg96 2.072 . S
O95 C107 1.260 . S
Mg96 O95 2.072 . S
Mg96 O97 2.099 1_554 S
Mg96 O99 2.079 1_544 S
Mg96 O100 2.072 1_554 S
Mg96 O102 2.099 1_545 S
Mg96 O113 2.079 . S
O97 Mg94 2.182 1_556 S
O97 Mg96 2.099 1_556 S
O97 C108 1.277 . S
O98 Mg94 2.117 1_556 S
O98 C108 1.250 . S
O99 Mg96 2.079 1_566 S
O99 C109 1.264 . S
O100 Mg96 2.072 1_556 S
O100 C110 1.260 1_545 S
Mg101 O102 2.180 1_556 S
Mg101 O103 2.030 . S
Mg101 O104 1.990 . S
Mg101 O105 2.117 1_556 S
O102 Mg96 2.099 1_565 S
O102 Mg101 2.180 1_554 S
O102 C111 1.279 . S
O103 Mg101 2.030 . S
O103 C109 1.248 . S
O104 Mg101 1.990 . S
O104 C110 1.253 . S
O105 Mg101 2.117 1_554 S
O105 C111 1.250 . S
C106 O112 1.248 . S
C106 O113 1.264 . S
C107 O93 1.253 . S
C107 O95 1.260 . S
C108 O97 1.277 . S
C108 O98 1.250 . S
C109 O99 1.264 . S
C109 O103 1.248 . S
C110 O100 1.260 1_565 S
C110 O104 1.253 . S
C111 O102 1.279 . S
C111 O105 1.250 . S
O112 Mg94 2.030 . S
O112 C106 1.248 . S
O113 Mg96 2.079 . S
O113 C106 1.264 . S
O114 Mg115 1.990 . S
O114 C128 1.253 . S
Mg115 O114 1.990 . S
Mg115 O118 2.180 . S
Mg115 O119 2.117 . S
Mg115 O133 2.030 . S
O116 Mg117 2.072 . S
O116 C128 1.260 . S
Mg117 O116 2.072 . S
Mg117 O118 2.099 . S
Mg117 O120 2.079 . S
Mg117 O121 2.072 . S
Mg117 O123 2.099 . S
Mg117 O134 2.079 . S
O118 Mg115 2.180 . S
O118 Mg117 2.099 . S
O118 C129 1.279 . S
O119 Mg115 2.117 . S
O119 C129 1.250 . S
O120 Mg117 2.079 . S
O120 C130 1.264 . S
O121 Mg117 2.072 . S
O121 C131 1.260 . S
Mg122 O123 2.180 . S
Mg122 O124 2.030 . S
Mg122 O125 1.990 . S
Mg122 O126 2.117 . S
O123 Mg117 2.099 . S
O123 Mg122 2.180 . S
O123 C132 1.279 . S
O124 Mg122 2.030 . S
O124 C130 1.248 . S
O125 Mg122 1.990 . S
O125 C131 1.253 . S
O126 Mg122 2.117 . S
O126 C132 1.250 . S
C127 O133 1.248 . S
C127 O134 1.264 . S
C128 O114 1.253 . S
C128 O116 1.260 . S
C129 O118 1.279 . S
C129 O119 1.250 . S
C130 O120 1.264 . S
C130 O124 1.248 . S
C131 O121 1.260 . S
C131 O125 1.253 . S
C132 O123 1.279 . S
C132 O126 1.250 . S
O133 Mg115 2.030 . S
O133 C127 1.248 . S
O134 Mg117 2.079 . S
O134 C127 1.264 . S
O135 Mg136 1.990 . S
O135 C149 1.253 . S
Mg136 O135 1.990 . S
Mg136 O139 2.180 1_455 S
Mg136 O140 2.117 1_455 S
Mg136 O154 2.030 . S
O137 Mg138 2.072 . S
O137 C149 1.260 . S
Mg138 O137 2.072 . S
Mg138 O139 2.099 1_455 S
Mg138 O141 2.079 1_454 S
Mg138 O142 2.072 1_455 S
Mg138 O144 2.099 1_554 S
Mg138 O155 2.079 . S
O139 Mg136 2.180 1_655 S
O139 Mg138 2.099 1_655 S
O139 C150 1.279 . S
O140 Mg136 2.117 1_655 S
O140 C150 1.250 . S
O141 Mg138 2.079 1_656 S
O141 C151 1.264 . S
O142 Mg138 2.072 1_655 S
O142 C152 1.260 1_554 S
Mg143 O144 2.180 1_655 S
Mg143 O145 2.030 . S
Mg143 O146 1.990 . S
Mg143 O147 2.117 . S
O144 Mg138 2.099 1_556 S
O144 Mg143 2.180 1_455 S
O144 C153 1.279 . S
O145 Mg143 2.030 . S
O145 C151 1.248 . S
O146 Mg143 1.990 . S
O146 C152 1.253 . S
O147 Mg143 2.117 . S
O147 C153 1.250 1_655 S
C148 O154 1.248 . S
C148 O155 1.264 . S
C149 O135 1.253 . S
C149 O137 1.260 . S
C150 O139 1.279 . S
C150 O140 1.250 . S
C151 O141 1.264 . S
C151 O145 1.248 . S
C152 O142 1.260 1_556 S
C152 O146 1.253 . S
C153 O144 1.279 . S
C153 O147 1.250 1_455 S
O154 Mg136 2.030 . S
O154 C148 1.248 . S
O155 Mg138 2.079 . S
O155 C148 1.264 . S
H156 C164 0.950 . S
H157 C169 0.950 . S
H158 C166 0.950 . S
H159 C168 0.950 . S
H160 C170 0.950 . S
H161 C172 0.950 . S
H162 C174 0.950 . S
H163 C175 0.925 1_565 S
C164 H156 0.950 . S
C164 C165 1.386 . S
C164 C166 1.391 . S
C165 C164 1.386 . S
C165 C169 1.393 . S
C166 H158 0.950 . S
C166 C164 1.391 . S
C166 C167 1.400 . S
C167 C166 1.400 . S
C167 C168 1.398 . S
C167 C173 1.491 . S
C168 H159 0.950 . S
C168 C167 1.398 . S
C168 C169 1.391 . S
C169 H157 0.950 . S
C169 C165 1.393 . S
C169 C168 1.391 . S
C170 H160 0.950 . S
C170 C171 1.386 . S
C170 C172 1.391 . S
C171 C170 1.386 . S
C171 C175 1.393 . S
C172 H161 0.950 . S
C172 C170 1.391 . S
C172 C173 1.400 . S
C173 C167 1.491 . S
C173 C172 1.400 . S
C173 C174 1.398 . S
C174 H162 0.950 . S
C174 C173 1.398 . S
C174 C175 1.391 . S
C175 H163 0.925 1_545 S
C175 C171 1.393 . S
C175 C174 1.391 . S
H176 C184 0.950 . S
H177 C189 0.950 . S
H178 C186 0.950 . S
H179 C188 0.950 . S
H180 C190 0.950 1_545 S
H181 C192 0.950 . S
H182 C194 0.950 . S
H183 C195 0.950 . S
C184 H176 0.950 . S
C184 C185 1.386 . S
C184 C186 1.391 . S
C185 C184 1.386 . S
C185 C189 1.393 . S
C186 H178 0.950 . S
C186 C184 1.391 . S
C186 C187 1.400 . S
C187 C186 1.400 . S
C187 C188 1.398 . S
C187 C193 1.491 . S
C188 H179 0.950 . S
C188 C187 1.398 . S
C188 C189 1.391 . S
C189 H177 0.950 . S
C189 C185 1.393 . S
C189 C188 1.391 . S
C190 H180 0.950 1_565 S
C190 C191 1.386 . S
C190 C192 1.391 . S
C191 C190 1.386 . S
C191 C195 1.393 . S
C192 H181 0.950 . S
C192 C190 1.391 . S
C192 C193 1.400 . S
C193 C187 1.491 . S
C193 C192 1.400 . S
C193 C194 1.398 . S
C194 H182 0.950 . S
C194 C193 1.398 . S
C194 C195 1.391 . S
C195 H183 0.950 . S
C195 C191 1.393 . S
C195 C194 1.391 . S
H196 C204 0.950 . S
H197 C209 0.950 . S
H198 C206 0.950 . S
H199 C208 0.950 . S
H200 C210 0.950 . S
H201 C212 0.950 . S
H202 C214 0.950 . S
H203 C215 0.950 . S
C204 H196 0.950 . S
C204 C205 1.386 . S
C204 C206 1.391 . S
C205 C204 1.386 . S
C205 C209 1.393 . S
C206 H198 0.950 . S
C206 C204 1.391 . S
C206 C207 1.400 . S
C207 C206 1.400 . S
C207 C208 1.398 . S
C207 C213 1.491 . S
C208 H199 0.950 . S
C208 C207 1.398 . S
C208 C209 1.391 . S
C209 H197 0.950 . S
C209 C205 1.393 . S
C209 C208 1.391 . S
C210 H200 0.950 . S
C210 C211 1.386 . S
C210 C212 1.391 . S
C211 C210 1.386 . S
C211 C215 1.393 . S
C212 H201 0.950 . S
C212 C210 1.391 . S
C212 C213 1.400 . S
C213 C207 1.491 . S
C213 C212 1.400 . S
C213 C214 1.398 . S
C214 H202 0.950 . S
C214 C213 1.398 . S
C214 C215 1.391 . S
C215 H203 0.950 . S
C215 C211 1.393 . S
C215 C214 1.391 . S
H216 C224 0.950 . S
H217 C229 0.950 . S
H218 C226 0.950 . S
H219 C228 0.950 . S
H220 C230 0.950 . S
H221 C232 0.950 . S
H222 C234 0.950 . S
H223 C235 0.950 . S
C224 H216 0.950 . S
C224 C225 1.386 . S
C224 C226 1.391 . S
C225 C224 1.386 . S
C225 C229 1.393 . S
C226 H218 0.950 . S
C226 C224 1.391 . S
C226 C227 1.400 . S
C227 C226 1.400 . S
C227 C228 1.398 . S
C227 C233 1.491 . S
C228 H219 0.950 . S
C228 C227 1.398 . S
C228 C229 1.391 . S
C229 H217 0.950 . S
C229 C225 1.393 . S
C229 C228 1.391 . S
C230 H220 0.950 . S
C230 C231 1.386 . S
C230 C232 1.391 . S
C231 C230 1.386 . S
C231 C235 1.393 . S
C232 H221 0.950 . S
C232 C230 1.391 . S
C232 C233 1.400 . S
C233 C227 1.491 . S
C233 C232 1.400 . S
C233 C234 1.398 . S
C234 H222 0.950 . S
C234 C233 1.398 . S
C234 C235 1.391 . S
C235 H223 0.950 . S
C235 C231 1.393 . S
C235 C234 1.391 . S
H236 C244 0.950 . S
H237 C249 0.950 . S
H238 C246 0.950 . S
H239 C248 0.950 . S
H240 C250 0.950 1_556 S
H241 C252 0.950 . S
H242 C254 0.950 . S
H243 C255 0.950 . S
C244 H236 0.950 . S
C244 C245 1.386 . S
C244 C246 1.391 . S
C245 C244 1.386 . S
C245 C249 1.393 . S
C246 H238 0.950 . S
C246 C244 1.391 . S
C246 C247 1.400 . S
C247 C246 1.400 . S
C247 C248 1.398 . S
C247 C253 1.491 . S
C248 H239 0.950 . S
C248 C247 1.398 . S
C248 C249 1.391 . S
C249 H237 0.950 . S
C249 C245 1.393 . S
C249 C248 1.391 . S
C250 H240 0.950 1_554 S
C250 C251 1.386 . S
C250 C252 1.391 . S
C251 C250 1.386 . S
C251 C255 1.393 . S
C252 H241 0.950 . S
C252 C250 1.391 . S
C252 C253 1.400 . S
C253 C247 1.491 . S
C253 C252 1.400 . S
C253 C254 1.398 . S
C254 H242 0.950 . S
C254 C253 1.398 . S
C254 C255 1.391 . S
C255 H243 0.950 . S
C255 C251 1.393 . S
C255 C254 1.391 . S
H256 C264 0.950 . S
H257 C269 0.950 . S
H258 C266 0.950 . S
H259 C268 0.950 . S
H260 C270 0.950 . S
H261 C272 0.950 . S
H262 C274 0.950 . S
H263 C275 0.950 . S
C264 H256 0.950 . S
C264 C265 1.386 . S
C264 C266 1.391 . S
C265 C264 1.386 . S
C265 C269 1.393 . S
C266 H258 0.950 . S
C266 C264 1.391 . S
C266 C267 1.400 . S
C267 C266 1.400 . S
C267 C268 1.398 . S
C267 C273 1.491 . S
C268 H259 0.950 . S
C268 C267 1.398 . S
C268 C269 1.391 . S
C269 H257 0.950 . S
C269 C265 1.393 . S
C269 C268 1.391 . S
C270 H260 0.950 . S
C270 C271 1.386 . S
C270 C272 1.391 . S
C271 C270 1.386 . S
C271 C275 1.393 . S
C272 H261 0.950 . S
C272 C270 1.391 . S
C272 C273 1.400 . S
C273 C267 1.491 . S
C273 C272 1.400 . S
C273 C274 1.398 . S
C274 H262 0.950 . S
C274 C273 1.398 . S
C274 C275 1.391 . S
C275 H263 0.950 . S
C275 C271 1.393 . S
C275 C274 1.391 . S
H276 C284 0.950 . S
H277 C289 0.950 . S
H278 C286 0.950 . S
H279 C288 0.950 . S
H280 C290 0.950 1_554 S
H281 C292 0.950 . S
H282 C294 0.950 . S
H283 C295 0.950 . S
C284 H276 0.950 . S
C284 C285 1.386 . S
C284 C286 1.391 . S
C285 C284 1.386 . S
C285 C289 1.393 . S
C286 H278 0.950 . S
C286 C284 1.391 . S
C286 C287 1.400 . S
C287 C286 1.400 . S
C287 C288 1.398 . S
C287 C293 1.491 . S
C288 H279 0.950 . S
C288 C287 1.398 . S
C288 C289 1.391 . S
C289 H277 0.950 . S
C289 C285 1.393 . S
C289 C288 1.391 . S
C290 H280 0.950 1_556 S
C290 C291 1.386 . S
C290 C292 1.391 . S
C291 C290 1.386 . S
C291 C295 1.393 . S
C292 H281 0.950 . S
C292 C290 1.391 . S
C292 C293 1.400 . S
C293 C287 1.491 . S
C293 C292 1.400 . S
C293 C294 1.398 . S
C294 H282 0.950 . S
C294 C293 1.398 . S
C294 C295 1.391 . S
C295 H283 0.950 . S
C295 C291 1.393 . S
C295 C294 1.391 . S
H296 C304 0.950 . S
H297 C309 0.950 . S
H298 C306 0.950 . S
H299 C308 0.950 . S
H300 C310 0.950 . S
H301 C312 0.950 . S
H302 C314 0.950 . S
H303 C315 0.950 . S
C304 H296 0.950 . S
C304 C305 1.386 . S
C304 C306 1.391 . S
C305 C304 1.386 . S
C305 C309 1.393 . S
C306 H298 0.950 . S
C306 C304 1.391 . S
C306 C307 1.400 . S
C307 C306 1.400 . S
C307 C308 1.398 . S
C307 C313 1.491 . S
C308 H299 0.950 . S
C308 C307 1.398 . S
C308 C309 1.391 . S
C309 H297 0.950 . S
C309 C305 1.393 . S
C309 C308 1.391 . S
C310 H300 0.950 . S
C310 C311 1.386 . S
C310 C312 1.391 . S
C311 C310 1.386 . S
C311 C315 1.393 . S
C312 H301 0.950 . S
C312 C310 1.391 . S
C312 C313 1.400 . S
C313 C307 1.491 . S
C313 C312 1.400 . S
C313 C314 1.398 . S
C314 H302 0.950 . S
C314 C313 1.398 . S
C314 C315 1.391 . S
C315 H303 0.950 . S
C315 C311 1.393 . S
C315 C314 1.391 . S
H316 C324 0.950 . S
H317 C329 0.950 . S
H318 C326 0.950 . S
H319 C328 0.950 . S
H320 C330 0.950 . S
H321 C332 0.950 . S
H322 C334 0.950 . S
H323 C335 0.950 . S
C324 H316 0.950 . S
C324 C325 1.386 . S
C324 C326 1.391 . S
C325 C324 1.386 . S
C325 C329 1.393 . S
C326 H318 0.950 . S
C326 C324 1.391 . S
C326 C327 1.400 . S
C327 C326 1.400 . S
C327 C328 1.398 . S
C327 C333 1.491 . S
C328 H319 0.950 . S
C328 C327 1.398 . S
C328 C329 1.391 . S
C329 H317 0.950 . S
C329 C325 1.393 . S
C329 C328 1.391 . S
C330 H320 0.950 . S
C330 C331 1.386 . S
C330 C332 1.391 . S
C331 C330 1.386 . S
C331 C335 1.393 . S
C332 H321 0.950 . S
C332 C330 1.391 . S
C332 C333 1.400 . S
C333 C327 1.491 . S
C333 C332 1.400 . S
C333 C334 1.398 . S
C334 H322 0.950 . S
C334 C333 1.398 . S
C334 C335 1.391 . S
C335 H323 0.950 . S
C335 C331 1.393 . S
C335 C334 1.391 . S
H336 C344 0.950 . S
H337 C349 0.950 . S
H338 C346 0.950 . S
H339 C348 0.950 . S
H340 C350 0.950 . S
H341 C352 0.950 . S
H342 C354 0.950 . S
H343 C355 0.950 . S
C344 H336 0.950 . S
C344 C345 1.386 . S
C344 C346 1.391 . S
C345 C344 1.386 . S
C345 C349 1.393 . S
C346 H338 0.950 . S
C346 C344 1.391 . S
C346 C347 1.400 . S
C347 C346 1.400 . S
C347 C348 1.398 . S
C347 C353 1.491 . S
C348 H339 0.950 . S
C348 C347 1.398 . S
C348 C349 1.391 . S
C349 H337 0.950 . S
C349 C345 1.393 . S
C349 C348 1.391 . S
C350 H340 0.950 . S
C350 C351 1.386 . S
C350 C352 1.391 . S
C351 C350 1.386 . S
C351 C355 1.393 . S
C352 H341 0.950 . S
C352 C350 1.391 . S
C352 C353 1.400 . S
C353 C347 1.491 . S
C353 C352 1.400 . S
C353 C354 1.398 . S
C354 H342 0.950 . S
C354 C353 1.398 . S
C354 C355 1.391 . S
C355 H343 0.950 . S
C355 C351 1.393 . S
C355 C354 1.391 . S
H356 C364 0.950 . S
H357 C369 0.950 . S
H358 C366 0.950 . S
H359 C368 0.950 . S
H360 C370 0.950 . S
H361 C372 0.950 . S
H362 C374 0.950 . S
H363 C375 0.950 . S
C364 H356 0.950 . S
C364 C365 1.386 . S
C364 C366 1.391 . S
C365 C364 1.386 . S
C365 C369 1.393 . S
C366 H358 0.950 . S
C366 C364 1.391 . S
C366 C367 1.400 . S
C367 C366 1.400 . S
C367 C368 1.398 . S
C367 C373 1.491 . S
C368 H359 0.950 . S
C368 C367 1.398 . S
C368 C369 1.391 . S
C369 H357 0.950 . S
C369 C365 1.393 . S
C369 C368 1.391 . S
C370 H360 0.950 . S
C370 C371 1.386 . S
C370 C372 1.391 . S
C371 C370 1.386 . S
C371 C375 1.393 . S
C372 H361 0.950 . S
C372 C370 1.391 . S
C372 C373 1.400 . S
C373 C367 1.491 . S
C373 C372 1.400 . S
C373 C374 1.398 . S
C374 H362 0.950 . S
C374 C373 1.398 . S
C374 C375 1.391 . S
C375 H363 0.950 . S
C375 C371 1.393 . S
C375 C374 1.391 . S
H376 C384 0.950 . S
H377 C389 0.950 . S
H378 C386 0.950 . S
H379 C388 0.950 . S
H380 C390 0.950 . S
H381 C392 0.950 . S
H382 C394 0.950 . S
H383 C395 0.950 . S
C384 H376 0.950 . S
C384 C385 1.386 . S
C384 C386 1.391 . S
C385 C384 1.386 . S
C385 C389 1.393 . S
C386 H378 0.950 . S
C386 C384 1.391 . S
C386 C387 1.400 . S
C387 C386 1.400 . S
C387 C388 1.398 . S
C387 C393 1.491 . S
C388 H379 0.950 . S
C388 C387 1.398 . S
C388 C389 1.391 . S
C389 H377 0.950 . S
C389 C385 1.393 . S
C389 C388 1.391 . S
C390 H380 0.950 . S
C390 C391 1.386 . S
C390 C392 1.391 . S
C391 C390 1.386 . S
C391 C395 1.393 . S
C392 H381 0.950 . S
C392 C390 1.391 . S
C392 C393 1.400 . S
C393 C387 1.491 . S
C393 C392 1.400 . S
C393 C394 1.398 . S
C394 H382 0.950 . S
C394 C393 1.398 . S
C394 C395 1.391 . S
C395 H383 0.950 . S
C395 C391 1.393 . S
C395 C394 1.391 . S
H396 C404 0.950 . S
H397 C409 0.950 . S
H398 C406 0.950 . S
H399 C408 0.950 . S
H400 C410 0.950 . S
H401 C412 0.950 . S
H402 C414 0.950 . S
H403 C415 0.950 1_445 S
C404 H396 0.950 . S
C404 C405 1.386 . S
C404 C406 1.391 . S
C405 C404 1.386 . S
C405 C409 1.393 . S
C406 H398 0.950 . S
C406 C404 1.391 . S
C406 C407 1.400 . S
C407 C406 1.400 . S
C407 C408 1.398 . S
C407 C413 1.491 . S
C408 H399 0.950 . S
C408 C407 1.398 . S
C408 C409 1.391 . S
C409 H397 0.950 . S
C409 C405 1.393 . S
C409 C408 1.391 . S
C410 H400 0.950 . S
C410 C411 1.386 . S
C410 C412 1.391 . S
C411 C410 1.386 . S
C411 C415 1.393 . S
C412 H401 0.950 . S
C412 C410 1.391 . S
C412 C413 1.400 . S
C413 C407 1.491 . S
C413 C412 1.400 . S
C413 C414 1.398 . S
C414 H402 0.950 . S
C414 C413 1.398 . S
C414 C415 1.391 . S
C415 H403 0.950 1_665 S
C415 C411 1.393 . S
C415 C414 1.391 . S
H416 C424 0.950 . S
H417 C429 0.950 . S
H418 C426 0.950 . S
H419 C428 0.950 . S
H420 C430 0.950 . S
H421 C432 0.950 . S
H422 C434 0.950 . S
H423 C435 0.950 . S
C424 H416 0.950 . S
C424 C425 1.386 . S
C424 C426 1.391 . S
C425 C424 1.386 . S
C425 C429 1.393 . S
C426 H418 0.950 . S
C426 C424 1.391 . S
C426 C427 1.400 . S
C427 C426 1.400 . S
C427 C428 1.398 . S
C427 C433 1.491 . S
C428 H419 0.950 . S
C428 C427 1.398 . S
C428 C429 1.391 . S
C429 H417 0.950 . S
C429 C425 1.393 . S
C429 C428 1.391 . S
C430 H420 0.950 . S
C430 C431 1.386 . S
C430 C432 1.391 . S
C431 C430 1.386 . S
C431 C435 1.393 . S
C432 H421 0.950 . S
C432 C430 1.391 . S
C432 C433 1.400 . S
C433 C427 1.491 . S
C433 C432 1.400 . S
C433 C434 1.398 . S
C434 H422 0.950 . S
C434 C433 1.398 . S
C434 C435 1.391 . S
C435 H423 0.950 . S
C435 C431 1.393 . S
C435 C434 1.391 . S
H436 C444 0.950 . S
H437 C449 0.950 . S
H438 C446 0.950 . S
H439 C448 0.950 . S
H440 C450 0.950 . S
H441 C452 0.950 . S
H442 C454 0.950 . S
H443 C455 0.950 . S
C444 H436 0.950 . S
C444 C445 1.386 . S
C444 C446 1.391 . S
C445 C444 1.386 . S
C445 C449 1.393 . S
C446 H438 0.950 . S
C446 C444 1.391 . S
C446 C447 1.400 . S
C447 C446 1.400 . S
C447 C448 1.398 . S
C447 C453 1.491 . S
C448 H439 0.950 . S
C448 C447 1.398 . S
C448 C449 1.391 . S
C449 H437 0.950 . S
C449 C445 1.393 . S
C449 C448 1.391 . S
C450 H440 0.950 . S
C450 C451 1.386 . S
C450 C452 1.391 . S
C451 C450 1.386 . S
C451 C455 1.393 . S
C452 H441 0.950 . S
C452 C450 1.391 . S
C452 C453 1.400 . S
C453 C447 1.491 . S
C453 C452 1.400 . S
C453 C454 1.398 . S
C454 H442 0.950 . S
C454 C453 1.398 . S
C454 C455 1.391 . S
C455 H443 0.950 . S
C455 C451 1.393 . S
C455 C454 1.391 . S
H456 C464 0.950 . S
H457 C469 0.950 . S
H458 C466 0.950 . S
H459 C468 0.950 . S
H460 C470 0.950 . S
H461 C472 0.950 . S
H462 C474 0.950 . S
H463 C475 0.950 1_655 S
C464 H456 0.950 . S
C464 C465 1.386 . S
C464 C466 1.391 . S
C465 C464 1.386 . S
C465 C469 1.393 . S
C466 H458 0.950 . S
C466 C464 1.391 . S
C466 C467 1.400 . S
C467 C466 1.400 . S
C467 C468 1.398 . S
C467 C473 1.491 . S
C468 H459 0.950 . S
C468 C467 1.398 . S
C468 C469 1.391 . S
C469 H457 0.950 . S
C469 C465 1.393 . S
C469 C468 1.391 . S
C470 H460 0.950 . S
C470 C471 1.386 . S
C470 C472 1.391 . S
C471 C470 1.386 . S
C471 C475 1.393 . S
C472 H461 0.950 . S
C472 C470 1.391 . S
C472 C473 1.400 . S
C473 C467 1.491 . S
C473 C472 1.400 . S
C473 C474 1.398 . S
C474 H462 0.950 . S
C474 C473 1.398 . S
C474 C475 1.391 . S
C475 H463 0.950 1_455 S
C475 C471 1.393 . S
C475 C474 1.391 . S
H476 C484 0.950 . S
H477 C489 0.950 . S
H478 C486 0.950 . S
H479 C488 0.950 . S
H480 C490 0.950 . S
H481 C492 0.950 . S
H482 C494 0.950 . S
H483 C495 0.950 1_554 S
C484 H476 0.950 . S
C484 C485 1.386 . S
C484 C486 1.391 . S
C485 C484 1.386 . S
C485 C489 1.393 . S
C486 H478 0.950 . S
C486 C484 1.391 . S
C486 C487 1.400 . S
C487 C486 1.400 . S
C487 C488 1.398 . S
C487 C493 1.491 . S
C488 H479 0.950 . S
C488 C487 1.398 . S
C488 C489 1.391 . S
C489 H477 0.950 . S
C489 C485 1.393 . S
C489 C488 1.391 . S
C490 H480 0.950 . S
C490 C491 1.386 . S
C490 C492 1.391 . S
C491 C490 1.386 . S
C491 C495 1.393 . S
C492 H481 0.950 . S
C492 C490 1.391 . S
C492 C493 1.400 . S
C493 C487 1.491 . S
C493 C492 1.400 . S
C493 C494 1.398 . S
C494 H482 0.950 . S
C494 C493 1.398 . S
C494 C495 1.391 . S
C495 H483 0.950 1_556 S
C495 C491 1.393 . S
C495 C494 1.391 . S
H496 C504 0.950 . S
H497 C509 0.950 . S
H498 C506 0.950 . S
H499 C508 0.950 . S
H500 C510 0.950 . S
H501 C512 0.950 . S
H502 C514 0.950 . S
H503 C515 0.950 . S
C504 H496 0.950 . S
C504 C505 1.386 . S
C504 C506 1.391 . S
C505 C504 1.386 . S
C505 C509 1.393 . S
C506 H498 0.950 . S
C506 C504 1.391 . S
C506 C507 1.400 . S
C507 C506 1.400 . S
C507 C508 1.398 . S
C507 C513 1.491 . S
C508 H499 0.950 . S
C508 C507 1.398 . S
C508 C509 1.391 . S
C509 H497 0.950 . S
C509 C505 1.393 . S
C509 C508 1.391 . S
C510 H500 0.950 . S
C510 C511 1.386 . S
C510 C512 1.391 . S
C511 C510 1.386 . S
C511 C515 1.393 . S
C512 H501 0.950 . S
C512 C510 1.391 . S
C512 C513 1.400 . S
C513 C507 1.491 . S
C513 C512 1.400 . S
C513 C514 1.398 . S
C514 H502 0.950 . S
C514 C513 1.398 . S
C514 C515 1.391 . S
C515 H503 0.950 . S
C515 C511 1.393 . S
C515 C514 1.391 . S
H516 C524 0.950 . S
H517 C529 0.950 . S
H518 C526 0.950 . S
H519 C528 0.950 . S
H520 C530 0.950 . S
H521 C532 0.950 . S
H522 C534 0.950 . S
H523 C535 0.950 1_556 S
C524 H516 0.950 . S
C524 C525 1.386 . S
C524 C526 1.391 . S
C525 C524 1.386 . S
C525 C529 1.393 . S
C526 H518 0.950 . S
C526 C524 1.391 . S
C526 C527 1.400 . S
C527 C526 1.400 . S
C527 C528 1.398 . S
C527 C533 1.491 . S
C528 H519 0.950 . S
C528 C527 1.398 . S
C528 C529 1.391 . S
C529 H517 0.950 . S
C529 C525 1.393 . S
C529 C528 1.391 . S
C530 H520 0.950 . S
C530 C531 1.386 . S
C530 C532 1.391 . S
C531 C530 1.386 . S
C531 C535 1.393 . S
C532 H521 0.950 . S
C532 C530 1.391 . S
C532 C533 1.400 . S
C533 C527 1.491 . S
C533 C532 1.400 . S
C533 C534 1.398 . S
C534 H522 0.950 . S
C534 C533 1.398 . S
C534 C535 1.391 . S
C535 H523 0.950 1_554 S
C535 C531 1.393 . S
C535 C534 1.391 . S
H536 C544 0.950 . S
H537 C549 0.950 . S
H538 C546 0.950 . S
H539 C548 0.950 . S
H540 C550 0.950 . S
H541 C552 0.950 . S
H542 C554 0.950 . S
H543 C555 0.950 . S
C544 H536 0.950 . S
C544 C545 1.386 . S
C544 C546 1.391 . S
C545 C544 1.386 . S
C545 C549 1.393 . S
C546 H538 0.950 . S
C546 C544 1.391 . S
C546 C547 1.400 . S
C547 C546 1.400 . S
C547 C548 1.398 . S
C547 C553 1.491 . S
C548 H539 0.950 . S
C548 C547 1.398 . S
C548 C549 1.391 . S
C549 H537 0.950 . S
C549 C545 1.393 . S
C549 C548 1.391 . S
C550 H540 0.950 . S
C550 C551 1.386 . S
C550 C552 1.391 . S
C551 C550 1.386 . S
C551 C555 1.393 . S
C552 H541 0.950 . S
C552 C550 1.391 . S
C552 C553 1.400 . S
C553 C547 1.491 . S
C553 C552 1.400 . S
C553 C554 1.398 . S
C554 H542 0.950 . S
C554 C553 1.398 . S
C554 C555 1.391 . S
C555 H543 0.950 . S
C555 C551 1.393 . S
C555 C554 1.391 . S
H556 C564 0.950 . S
H557 C569 0.950 . S
H558 C566 0.950 . S
H559 C568 0.950 . S
H560 C570 0.950 . S
H561 C572 0.950 . S
H562 C574 0.950 . S
H563 C575 0.926 1_455 S
C564 H556 0.950 . S
C564 C565 1.386 . S
C564 C566 1.391 . S
C565 C564 1.386 . S
C565 C569 1.393 . S
C566 H558 0.950 . S
C566 C564 1.391 . S
C566 C567 1.400 . S
C567 C566 1.400 . S
C567 C568 1.398 . S
C567 C573 1.491 . S
C568 H559 0.950 . S
C568 C567 1.398 . S
C568 C569 1.391 . S
C569 H557 0.950 . S
C569 C565 1.393 . S
C569 C568 1.391 . S
C570 H560 0.950 . S
C570 C571 1.386 . S
C570 C572 1.391 . S
C571 C570 1.386 . S
C571 C575 1.393 . S
C572 H561 0.950 . S
C572 C570 1.391 . S
C572 C573 1.400 . S
C573 C567 1.491 . S
C573 C572 1.400 . S
C573 C574 1.398 . S
C574 H562 0.950 . S
C574 C573 1.398 . S
C574 C575 1.391 . S
C575 H563 0.926 1_655 S
C575 C571 1.393 . S
C575 C574 1.391 . S
H576 C584 0.950 . S
H577 C589 0.950 . S
H578 C586 0.950 . S
H579 C588 0.950 . S
H580 C590 0.950 . S
H581 C592 0.950 . S
H582 C594 0.950 . S
H583 C595 0.950 . S
C584 H576 0.950 . S
C584 C585 1.386 . S
C584 C586 1.391 . S
C585 C584 1.386 . S
C585 C589 1.393 . S
C586 H578 0.950 . S
C586 C584 1.391 . S
C586 C587 1.400 . S
C587 C586 1.400 . S
C587 C588 1.398 . S
C587 C593 1.491 . S
C588 H579 0.950 . S
C588 C587 1.398 . S
C588 C589 1.391 . S
C589 H577 0.950 . S
C589 C585 1.393 . S
C589 C588 1.391 . S
C590 H580 0.950 . S
C590 C591 1.386 . S
C590 C592 1.391 . S
C591 C590 1.386 . S
C591 C595 1.393 . S
C592 H581 0.950 . S
C592 C590 1.391 . S
C592 C593 1.400 . S
C593 C587 1.491 . S
C593 C592 1.400 . S
C593 C594 1.398 . S
C594 H582 0.950 . S
C594 C593 1.398 . S
C594 C595 1.391 . S
C595 H583 0.950 . S
C595 C591 1.393 . S
C595 C594 1.391 . S
H596 C604 0.950 . S
H597 C609 0.950 . S
H598 C606 0.950 . S
H599 C608 0.950 . S
H600 C610 0.950 . S
H601 C612 0.950 . S
H602 C614 0.950 . S
H603 C615 0.950 . S
C604 H596 0.950 . S
C604 C605 1.386 . S
C604 C606 1.391 . S
C605 C604 1.386 . S
C605 C609 1.393 . S
C606 H598 0.950 . S
C606 C604 1.391 . S
C606 C607 1.400 . S
C607 C606 1.400 . S
C607 C608 1.398 . S
C607 C613 1.491 . S
C608 H599 0.950 . S
C608 C607 1.398 . S
C608 C609 1.391 . S
C609 H597 0.950 . S
C609 C605 1.393 . S
C609 C608 1.391 . S
C610 H600 0.950 . S
C610 C611 1.386 . S
C610 C612 1.391 . S
C611 C610 1.386 . S
C611 C615 1.393 . S
C612 H601 0.950 . S
C612 C610 1.391 . S
C612 C613 1.400 . S
C613 C607 1.491 . S
C613 C612 1.400 . S
C613 C614 1.398 . S
C614 H602 0.950 . S
C614 C613 1.398 . S
C614 C615 1.391 . S
C615 H603 0.950 . S
C615 C611 1.393 . S
C615 C614 1.391 . S
H616 C624 0.950 . S
H617 C629 0.950 . S
H618 C626 0.950 . S
H619 C628 0.950 . S
H620 C630 0.950 . S
H621 C632 0.950 . S
H622 C634 0.950 . S
H623 C635 0.950 . S
C624 H616 0.950 . S
C624 C625 1.386 . S
C624 C626 1.391 . S
C625 C624 1.386 . S
C625 C629 1.393 . S
C626 H618 0.950 . S
C626 C624 1.391 . S
C626 C627 1.400 . S
C627 C626 1.400 . S
C627 C628 1.398 . S
C627 C633 1.491 . S
C628 H619 0.950 . S
C628 C627 1.398 . S
C628 C629 1.391 . S
C629 H617 0.950 . S
C629 C625 1.393 . S
C629 C628 1.391 . S
C630 H620 0.950 . S
C630 C631 1.386 . S
C630 C632 1.391 . S
C631 C630 1.386 . S
C631 C635 1.393 . S
C632 H621 0.950 . S
C632 C630 1.391 . S
C632 C633 1.400 . S
C633 C627 1.491 . S
C633 C632 1.400 . S
C633 C634 1.398 . S
C634 H622 0.950 . S
C634 C633 1.398 . S
C634 C635 1.391 . S
C635 H623 0.950 . S
C635 C631 1.393 . S
C635 C634 1.391 . S
C165 C5 1.570 . S
C171 C88 1.528 . S
C185 C14 1.475 . S
C191 C110 1.388 . S
C211 C129 1.216 . S
C205 C25 1.449 . S
C225 C34 1.695 . S
C231 C150 1.390 . S
C251 C107 1.658 . S
C245 C7 1.725 . S
C271 C85 1.577 . S
C265 C13 1.637 . S
C291 C152 1.292 . S
C285 C23 1.382 . S
C311 C131 1.385 . S
C305 C31 1.436 . S
C325 C4 1.673 . S
C331 C149 1.626 . S
C351 C108 1.279 . S
C345 C22 1.568 . S
C365 C32 1.596 . S
C371 C90 1.376 . S
C385 C16 1.473 . S
C391 C128 1.428 . S
C411 C86 1.514 . S
C405 C41 1.574 . S
C425 C50 1.343 . S
C431 C106 1.280 . S
C445 C61 1.497 . S
C451 C132 1.279 . S
C465 C67 1.625 . S
C471 C153 1.320 . S
C485 C40 1.672 . S
C491 C109 1.620 . S
C511 C89 1.617 . S
C505 C52 1.687 . S
C531 C148 1.244 . S
C525 C59 1.307 . S
C551 C127 1.453 . S
C545 C70 1.502 . S
C565 C43 1.518 . S
C571 C151 1.463 . S
C591 C111 1.271 . S
C585 C58 1.505 . S
C611 C87 1.246 . S
C605 C68 1.456 . S
C625 C49 1.423 . S
C631 C130 1.394 . S
