# Generated by pormake.
# Topology zzz, (3,6)-cn, num edge types: 1
# Building blocks:
#     Node 0, Type 0, BuildingBlock: PAMTOO_clean_linker_0, # of connection points: 3
#     Node 1, Type 0, BuildingBlock: PAMTOO_clean_linker_0, # of connection points: 3
#     Node 2, Type 0, BuildingBlock: PAMTOO_clean_linker_0, # of connection points: 3
#     Node 3, Type 0, BuildingBlock: PAMTOO_clean_linker_0, # of connection points: 3
#     Node 4, Type 0, BuildingBlock: PAMTOO_clean_linker_0, # of connection points: 3
#     Node 5, Type 0, BuildingBlock: PAMTOO_clean_linker_0, # of connection points: 3
#     Node 6, Type 0, BuildingBlock: PAMTOO_clean_linker_0, # of connection points: 3
#     Node 7, Type 0, BuildingBlock: PAMTOO_clean_linker_0, # of connection points: 3
#     Node 8, Type 1, BuildingBlock: BETDIP_clean_sbu_0, # of connection points: 6
#     Node 9, Type 1, BuildingBlock: BETDIP_clean_sbu_0, # of connection points: 6
#     Node 10, Type 1, BuildingBlock: BETDIP_clean_sbu_0, # of connection points: 6
#     Node 11, Type 1, BuildingBlock: BETDIP_clean_sbu_0, # of connection points: 6
#     Edge 12, Type (0, 1), BuildingBlock: CIFDUS_clean_linker_0, # of connection points: 2
#     Edge 13, Type (0, 1), BuildingBlock: CIFDUS_clean_linker_0, # of connection points: 2
#     Edge 14, Type (0, 1), BuildingBlock: CIFDUS_clean_linker_0, # of connection points: 2
#     Edge 15, Type (0, 1), BuildingBlock: CIFDUS_clean_linker_0, # of connection points: 2
#     Edge 16, Type (0, 1), BuildingBlock: CIFDUS_clean_linker_0, # of connection points: 2
#     Edge 17, Type (0, 1), BuildingBlock: CIFDUS_clean_linker_0, # of connection points: 2
#     Edge 18, Type (0, 1), BuildingBlock: CIFDUS_clean_linker_0, # of connection points: 2
#     Edge 19, Type (0, 1), BuildingBlock: CIFDUS_clean_linker_0, # of connection points: 2
#     Edge 20, Type (0, 1), BuildingBlock: CIFDUS_clean_linker_0, # of connection points: 2
#     Edge 21, Type (0, 1), BuildingBlock: CIFDUS_clean_linker_0, # of connection points: 2
#     Edge 22, Type (0, 1), BuildingBlock: CIFDUS_clean_linker_0, # of connection points: 2
#     Edge 23, Type (0, 1), BuildingBlock: CIFDUS_clean_linker_0, # of connection points: 2
#     Edge 24, Type (0, 1), BuildingBlock: CIFDUS_clean_linker_0, # of connection points: 2
#     Edge 25, Type (0, 1), BuildingBlock: CIFDUS_clean_linker_0, # of connection points: 2
#     Edge 26, Type (0, 1), BuildingBlock: CIFDUS_clean_linker_0, # of connection points: 2
#     Edge 27, Type (0, 1), BuildingBlock: CIFDUS_clean_linker_0, # of connection points: 2
#     Edge 28, Type (0, 1), BuildingBlock: CIFDUS_clean_linker_0, # of connection points: 2
#     Edge 29, Type (0, 1), BuildingBlock: CIFDUS_clean_linker_0, # of connection points: 2
#     Edge 30, Type (0, 1), BuildingBlock: CIFDUS_clean_linker_0, # of connection points: 2
#     Edge 31, Type (0, 1), BuildingBlock: CIFDUS_clean_linker_0, # of connection points: 2
#     Edge 32, Type (0, 1), BuildingBlock: CIFDUS_clean_linker_0, # of connection points: 2
#     Edge 33, Type (0, 1), BuildingBlock: CIFDUS_clean_linker_0, # of connection points: 2
#     Edge 34, Type (0, 1), BuildingBlock: CIFDUS_clean_linker_0, # of connection points: 2
#     Edge 35, Type (0, 1), BuildingBlock: CIFDUS_clean_linker_0, # of connection points: 2
# Relax obj value: 0.298
# Max RMSD: 0.177
# Mean RMSD: 0.148
data_MOF--net-zzz--node1-BETDIP_clean_sbu_0--node2-PAMTOO_clean_linker_0--edge1-CIFDUS_clean_linker_0
_symmetry_space_group_name_H-M    P1
_symmetry_Int_Tables_number       1
_symmetry_cell_setting            triclinic
loop_
_symmetry_equiv_pos_as_xyz
'x, y, z'
_cell_length_a     45.360547
_cell_length_b     45.12211
_cell_length_c     11.961718
_cell_angle_alpha  89.749268
_cell_angle_beta   89.838352
_cell_angle_gamma 89.527753
loop_
_atom_site_label
_atom_site_type_symbol
_atom_site_fract_x
_atom_site_fract_y
_atom_site_fract_z
_atom_type_partial_charge
H0 H 0.82819 0.47493 0.364 0.0
H1 H 0.74572 0.49294 0.20053 0.0
H2 H 0.76887 0.54076 0.4982 0.0
H3 H 0.69042 0.53432 0.43122 0.0
C4 C 0.69975 0.52266 0.35744 0.0
O5 O 0.72796 0.53356 0.33763 0.0
H6 H 0.7007 0.4986 0.37856 0.0
C7 C 0.80691 0.48611 0.36318 0.0
C8 C 0.80106 0.50789 0.44346 0.0
C9 C 0.78713 0.48052 0.27584 0.0
C10 C 0.76056 0.49638 0.27007 0.0
C11 C 0.75325 0.51739 0.35143 0.0
C12 C 0.77367 0.52338 0.43861 0.0
H13 H 0.06501 0.82806 0.38125 0.0
H14 H 0.04834 0.74479 0.22175 0.0
H15 H 0.99466 0.77271 0.50066 0.0
H16 H 1.00045 0.69176 0.43459 0.0
C17 C 1.01352 0.70114 0.36441 0.0
O18 O 1.00388 0.7302 0.34563 0.0
H19 H 0.03707 0.70073 0.39053 0.0
C20 C 0.05309 0.80731 0.37882 0.0
C21 C 0.0294 0.80323 0.45242 0.0
C22 C 0.06027 0.78628 0.29665 0.0
C23 C 0.04368 0.76044 0.28812 0.0
C24 C 1.02061 0.75479 0.3629 0.0
C25 C 1.01337 0.77628 0.44599 0.0
H26 H 0.72166 0.07733 0.46472 0.0
H27 H 0.80007 0.06922 0.26376 0.0
H28 H 0.76627 0.99335 0.44065 0.0
H29 H 0.84199 0.99155 0.38011 0.0
C30 C 0.83787 1.01219 0.33156 0.0
O31 O 0.80829 1.0131 0.30091 0.0
H32 H 0.84306 0.03127 0.38675 0.0
C33 C 0.74065 0.06449 0.43726 0.0
C34 C 0.74167 0.03435 0.46445 0.0
C35 C 0.76135 0.07739 0.36466 0.0
C36 C 0.78468 0.05993 0.32361 0.0
C37 C 0.78719 0.02987 0.35277 0.0
C38 C 0.76546 1.01691 0.42322 0.0
H39 H 0.47642 0.71759 0.42371 0.0
H40 H 0.48016 0.80411 0.27366 0.0
H41 H 0.54619 0.77688 0.51329 0.0
H42 H 0.55415 0.81228 0.25481 0.0
C43 C 0.54643 0.83139 0.30614 0.0
O44 O 0.52575 0.82218 0.38512 0.0
H45 H 0.56616 0.83937 0.35141 0.0
C46 C 0.48656 0.73927 0.41836 0.0
C47 C 0.5121 0.74441 0.48011 0.0
C48 C 0.47526 0.76031 0.34272 0.0
C49 C 0.48904 0.78778 0.33127 0.0
C50 C 0.51439 0.79425 0.39295 0.0
C51 C 0.52637 0.77223 0.46654 0.0
H52 H 0.21462 0.57341 0.21575 0.0
H53 H 0.29382 0.556 0.40187 0.0
H54 H 0.26405 0.49306 0.15855 0.0
H55 H 0.33737 0.53203 0.23629 0.0
C56 C 0.33508 0.51016 0.27901 0.0
O57 O 0.30586 0.50557 0.31026 0.0
H58 H 0.34155 0.49294 0.21743 0.0
C59 C 0.23428 0.56003 0.22927 0.0
C60 C 0.23699 0.53289 0.17328 0.0
C61 C 0.25434 0.56838 0.31259 0.0
C62 C 0.27867 0.55012 0.3358 0.0
C63 C 0.28294 0.52346 0.27861 0.0
C64 C 0.26173 0.51447 0.19831 0.0
H65 H 0.08328 0.22211 0.16737 0.0
H66 H 0.08193 0.31092 0.29423 0.0
H67 H 1.01615 0.28301 0.05777 0.0
H68 H 1.01174 0.31952 0.32427 0.0
C69 C 1.01621 0.33786 0.26411 0.0
O70 O 0.03621 0.32871 0.18208 0.0
H71 H 0.99486 0.34294 0.22269 0.0
C72 C 0.07394 0.24427 0.16799 0.0
C73 C 0.04882 0.24948 0.103 0.0
C74 C 0.08527 0.26564 0.24134 0.0
C75 C 0.07296 0.29417 0.24013 0.0
C76 C 0.04801 0.30077 0.17549 0.0
C77 C 0.03577 0.27828 0.10618 0.0
H78 H 0.31873 0.97003 0.13224 0.0
H79 H 0.23975 0.98217 0.32711 0.0
H80 H 0.27605 0.05525 0.1409 0.0
H81 H 0.19847 1.02001 0.19399 0.0
C82 C 0.20369 0.03922 0.2485 0.0
O83 O 0.2331 0.03802 0.28105 0.0
H84 H 0.20003 0.0597 0.19845 0.0
C85 C 0.29995 0.98362 0.15658 0.0
C86 C 0.29975 1.01346 0.12479 0.0
C87 C 0.27863 0.972 0.22972 0.0
C88 C 0.2556 0.99044 0.26685 0.0
C89 C 0.25397 1.02021 0.23311 0.0
C90 C 0.27624 0.03188 0.16194 0.0
H91 H 0.4718 0.32844 0.19952 0.0
H92 H 0.47163 0.2401 0.33699 0.0
H93 H 0.53098 0.26274 0.06774 0.0
H94 H 0.54618 0.22477 0.30236 0.0
C95 C 0.53355 0.20669 0.26181 0.0
O96 O 0.51041 0.21841 0.19893 0.0
H97 H 0.5493 0.19571 0.20367 0.0
C98 C 0.4791 0.30549 0.19675 0.0
C99 C 0.50175 0.29834 0.12232 0.0
C100 C 0.46853 0.28509 0.27641 0.0
C101 C 0.47951 0.25597 0.27583 0.0
C102 C 0.50151 0.24742 0.19971 0.0
C103 C 0.51318 0.26888 0.12374 0.0
Tb104 Tb 0.03972 1.01489 0.88072 0.0
Tb105 Tb 1.00346 0.03739 0.70565 0.0
C106 C 0.06495 0.98918 0.04064 0.0
C107 C 0.08676 0.96522 0.0454 0.0
C108 C 0.09604 0.95449 0.14911 0.0
C109 C 0.11414 0.92946 0.15507 0.0
C110 C 0.12289 0.91448 0.05704 0.0
C111 C 0.11539 0.92682 0.95266 0.0
C112 C 0.0974 0.95208 0.9469 0.0
C113 C 0.071 0.03264 0.70281 0.0
C114 C 1.01353 0.96841 0.70363 0.0
C115 C 0.99021 0.06817 0.53962 0.0
C116 C 1.01044 0.09046 0.49212 0.0
C117 C 0.03879 0.08173 0.45641 0.0
C118 C 0.06118 0.10244 0.44372 0.0
C119 C 0.05554 0.13263 0.46264 0.0
C120 C 0.02648 0.14161 0.48936 0.0
C121 C 1.00427 0.12072 0.50507 0.0
C122 C 0.97116 1.0194 0.87912 0.0
C123 C 0.02762 0.08205 0.885 0.0
O124 O 0.03882 0.98178 1.00417 0.0
O125 O 0.07435 1.01375 0.9957 0.0
O126 O 0.04696 1.01889 0.70362 0.0
O127 O 0.0787 0.03611 0.80549 0.0
O128 O 0.02747 0.97225 0.80002 0.0
O129 O 1.00299 0.99157 0.64803 0.0
O130 O 0.999 0.04062 0.53148 0.0
O131 O 0.98028 0.0741 0.63986 0.0
O132 O 0.99566 0.03256 0.8828 0.0
O133 O 0.96305 1.0182 0.77533 0.0
O134 O 0.02389 0.07801 0.77648 0.0
O135 O 0.02881 0.05833 0.94979 0.0
H136 H 0.08795 0.9644 0.22562 0.0
H137 H 0.11891 0.92038 0.23707 0.0
H138 H 0.12172 0.91578 0.87591 0.0
H139 H 0.09059 0.96047 0.86588 0.0
H140 H 0.04422 0.05864 0.44401 0.0
H141 H 0.08308 0.09451 0.42256 0.0
H142 H 1.02084 0.16479 0.49971 0.0
H143 H 0.98265 0.12811 0.5325 0.0
Tb144 Tb 0.53446 0.04081 0.89539 0.0
Tb145 Tb 0.50778 1.0028 0.69836 0.0
C146 C 0.55849 0.05964 0.06845 0.0
C147 C 0.58117 0.0823 0.08173 0.0
C148 C 0.59443 0.08661 0.18562 0.0
C149 C 0.61949 0.10427 0.19363 0.0
C150 C 0.63165 0.11778 0.09752 0.0
C151 C 0.61658 0.11547 0.99559 0.0
C152 C 0.59167 0.09768 0.98764 0.0
C153 C 0.52241 0.07476 0.71422 0.0
C154 C 0.5767 1.01835 0.69912 0.0
C155 C 0.48297 0.98467 0.52616 0.0
C156 C 0.45896 0.96333 0.51596 0.0
C157 C 0.44531 0.95885 0.41291 0.0
C158 C 0.41936 0.94245 0.40745 0.0
C159 C 0.40667 0.93039 0.5053 0.0
C160 C 0.42186 0.93298 0.60684 0.0
C161 C 0.44768 0.94948 0.61219 0.0
C162 C 0.51931 0.96849 0.87891 0.0
C163 C 0.46562 0.02536 0.89425 0.0
O164 O 0.56739 0.03562 0.01615 0.0
O165 O 0.53289 0.06944 0.03258 0.0
O166 O 0.51927 0.04731 0.72913 0.0
O167 O 0.53233 0.08442 0.80825 0.0
O168 O 0.57482 0.02762 0.80443 0.0
O169 O 0.55303 1.01087 0.6403 0.0
O170 O 0.47553 1.00953 0.57606 0.0
O171 O 0.50804 0.97366 0.56263 0.0
O172 O 0.52325 0.99596 0.86509 0.0
O173 O 0.50853 0.95941 0.78543 0.0
O174 O 0.46751 1.0165 0.78854 0.0
O175 O 0.48935 0.03218 0.95378 0.0
H176 H 0.58656 0.07491 0.25903 0.0
H177 H 0.63073 0.10511 0.2733 0.0
H178 H 0.62528 0.12565 0.92038 0.0
H179 H 0.58173 0.09454 0.90653 0.0
H180 H 0.4537 0.96945 0.33797 0.0
H181 H 0.40801 0.94142 0.32805 0.0
H182 H 0.4127 0.92398 0.6834 0.0
H183 H 0.45784 0.95285 0.69278 0.0
Tb184 Tb 0.49936 0.52653 0.91458 0.0
Tb185 Tb 0.53507 0.51712 0.72125 0.0
C186 C 0.47572 0.54458 0.09125 0.0
C187 C 0.4555 0.56943 0.11077 0.0
C188 C 0.45237 0.58083 0.21838 0.0
C189 C 0.43598 0.60668 0.2358 0.0
C190 C 0.42288 0.62182 0.14517 0.0
C191 C 0.42504 0.60956 0.0377 0.0
C192 C 0.4412 0.58347 0.02065 0.0
C193 C 0.46752 0.51573 0.73218 0.0
C194 C 0.52074 0.58343 0.76747 0.0
C195 C 0.54781 0.49564 0.53641 0.0
C196 C 0.5292 0.47268 0.48539 0.0
C197 C 0.49905 0.47861 0.46609 0.0
C198 C 0.47897 0.45552 0.45672 0.0
C199 C 0.48867 0.42601 0.46473 0.0
C200 C 0.51914 0.42012 0.47324 0.0
C201 C 0.53919 0.44322 0.48377 0.0
C202 C 0.56759 0.52739 0.90187 0.0
C203 C 0.51432 0.46185 0.86675 0.0
O204 O 0.50236 0.55202 0.06011 0.0
O205 O 0.46509 0.52307 0.03119 0.0
O206 O 0.49024 0.53157 0.73944 0.0
O207 O 0.46152 0.5059 0.83114 0.0
O208 O 0.50682 0.57302 0.85742 0.0
O209 O 0.53381 0.56506 0.6972 0.0
O210 O 0.53544 0.52177 0.54662 0.0
O211 O 0.56129 0.48743 0.62828 0.0
O212 O 0.54421 0.5124 0.89708 0.0
O213 O 0.57482 0.53493 0.80065 0.0
O214 O 0.5169 0.47258 0.7639 0.0
O215 O 0.51255 0.48071 0.95026 0.0
H216 H 0.46381 0.57051 0.28798 0.0
H217 H 0.43547 0.61597 0.31915 0.0
H218 H 0.4155 0.62093 0.96635 0.0
H219 H 0.44367 0.57499 0.93648 0.0
H220 H 0.49051 0.50107 0.46599 0.0
H221 H 0.45575 0.46084 0.44838 0.0
H222 H 0.5275 0.39757 0.47467 0.0
H223 H 0.56222 0.43798 0.49837 0.0
Tb224 Tb 1.0173 0.50659 0.84162 0.0
Tb225 Tb 0.02919 0.55157 0.69072 0.0
C226 C 0.99673 0.47116 0.98384 0.0
C227 C 0.97162 0.45105 0.98211 0.0
C228 C 0.96348 0.43654 0.0803 0.0
C229 C 0.9368 0.42158 0.0864 0.0
C230 C 0.91774 0.4209 0.99348 0.0
C231 C 0.92768 0.43276 0.89111 0.0
C232 C 0.9544 0.44795 0.8857 0.0
C233 C 0.03436 0.48434 0.64483 0.0
C234 C 0.96469 0.5303 0.68529 0.0
C235 C 0.04863 0.5859 0.54181 0.0
C236 C 0.07236 0.60762 0.53562 0.0
C237 C 0.08242 0.61688 0.43087 0.0
C238 C 0.10812 0.63339 0.42193 0.0
C239 C 0.12445 0.64069 0.51799 0.0
C240 C 0.11254 0.63385 0.62378 0.0
C241 C 0.08676 0.61719 0.6325 0.0
C242 C 1.01166 0.5736 0.88749 0.0
C243 C 0.08215 0.52826 0.84484 0.0
O244 O 0.99012 0.49942 0.98109 0.0
O245 O 1.01817 0.46446 0.9157 0.0
O246 O 1.01704 0.50611 0.66049 0.0
O247 O 0.04369 0.47585 0.74149 0.0
O248 O 0.97153 0.51766 0.78231 0.0
O249 O 0.98611 0.54127 0.62385 0.0
O250 O 0.0571 0.55827 0.55289 0.0
O251 O 0.02679 0.59258 0.60834 0.0
O252 O 0.02902 0.55186 0.87257 0.0
O253 O 1.00379 0.58329 0.79048 0.0
O254 O 0.07449 0.54158 0.75023 0.0
O255 O 0.06156 0.51561 0.90653 0.0
H256 H 0.97697 0.43835 0.15405 0.0
H257 H 0.93011 0.41301 0.16716 0.0
H258 H 0.91391 0.43217 0.81736 0.0
H259 H 0.96082 0.45852 0.80801 0.0
H260 H 0.07154 0.60971 0.35537 0.0
H261 H 0.11653 0.63778 0.33876 0.0
H262 H 0.12428 0.63941 0.69945 0.0
H263 H 0.07902 0.61037 0.71439 0.0
H264 H 0.1482 1.01599 0.26268 0.0
H265 H 0.21076 0.06538 0.45619 0.0
H266 H 0.17545 0.06833 0.61139 0.0
H267 H 0.12638 0.05672 0.6932 0.0
H268 H 0.06416 1.00723 0.49799 0.0
H269 H 0.09929 1.00505 0.34295 0.0
C270 C 0.15426 0.02711 0.33937 0.0
C271 C 0.18258 0.03964 0.34854 0.0
C272 C 0.13365 0.02897 0.42807 0.0
C273 C 0.18956 0.05479 0.4475 0.0
C274 C 0.16923 0.05664 0.53622 0.0
C275 C 0.12053 0.04544 0.61666 0.0
C276 C 0.09244 0.03234 0.60745 0.0
C277 C 0.14118 0.04378 0.5277 0.0
C278 C 0.08541 1.01771 0.5076 0.0
C279 C 0.1056 1.01628 0.41883 0.0
H280 H 0.53233 0.14499 0.25312 0.0
H281 H 0.51335 0.2182 0.47291 0.0
H282 H 0.50598 0.18371 0.62871 0.0
H283 H 0.51003 0.13334 0.70765 0.0
H284 H 0.52763 0.05926 0.49107 0.0
H285 H 0.53029 0.09316 0.32941 0.0
C286 C 0.52596 0.15331 0.33463 0.0
C287 C 0.52359 0.18438 0.35112 0.0
C288 C 0.52185 0.13312 0.42486 0.0
C289 C 0.51533 0.19462 0.45755 0.0
C290 C 0.5113 0.17484 0.54699 0.0
C291 C 0.51386 0.12448 0.62466 0.0
C292 C 0.5186 0.09368 0.61184 0.0
C293 C 0.51525 0.14414 0.53245 0.0
C294 C 0.52359 0.08271 0.50356 0.0
C295 C 0.52534 0.10221 0.41116 0.0
H296 H 0.38153 0.54658 0.32839 0.0
H297 H 0.33763 0.46832 0.44837 0.0
H298 H 0.37444 0.46275 0.59726 0.0
H299 H 0.41992 0.47999 0.69297 0.0
H300 H 0.46406 0.55765 0.56761 0.0
H301 H 0.42593 0.56411 0.42543 0.0
C302 C 0.37972 0.52854 0.38814 0.0
C303 C 0.35626 0.5083 0.37841 0.0
C304 C 0.40126 0.52527 0.47279 0.0
C305 C 0.35493 0.4846 0.45508 0.0
C306 C 0.37616 0.48131 0.53989 0.0
C307 C 0.42134 0.49817 0.63368 0.0
C308 C 0.44504 0.51823 0.64111 0.0
C309 C 0.39957 0.50143 0.54942 0.0
C310 C 0.44641 0.54167 0.56354 0.0
C311 C 0.42463 0.54533 0.48153 0.0
H312 H 0.9936 0.39513 0.26509 0.0
H313 H 0.06039 0.3408 0.42097 0.0
H314 H 0.07396 0.38181 0.54217 0.0
H315 H 0.06433 0.43208 0.61574 0.0
H316 H 0.99541 0.48577 0.46953 0.0
H317 H 0.98466 0.44635 0.33722 0.0
C318 C 1.01157 0.39251 0.32385 0.0
C319 C 0.02666 0.36493 0.33027 0.0
C320 C 1.01859 0.41615 0.39689 0.0
C321 C 0.04924 0.36184 0.40993 0.0
C322 C 0.05671 0.3853 0.48091 0.0
C323 C 0.04739 0.43543 0.55307 0.0
C324 C 0.03087 0.46217 0.55269 0.0
C325 C 0.04131 0.41245 0.47635 0.0
C326 C 1.00879 0.46578 0.47143 0.0
C327 C 1.00265 0.44307 0.39508 0.0
H328 H 0.89659 0.02467 0.3304 0.0
H329 H 0.82692 0.99912 0.10719 0.0
H330 H 0.86176 0.99841 0.95062 0.0
H331 H 0.91233 1.00536 0.87548 0.0
H332 H 0.98203 0.03047 0.09959 0.0
H333 H 0.9472 0.03085 0.25624 0.0
C334 C 0.88898 1.01919 0.2472 0.0
C335 C 0.85887 1.01268 0.23095 0.0
C336 C 0.90932 1.01856 0.15727 0.0
C337 C 0.84966 1.00488 0.12273 0.0
C338 C 0.8697 1.00432 0.03285 0.0
C339 C 0.91994 1.0108 0.95868 0.0
C340 C 0.94992 1.01793 0.97518 0.0
C341 C 0.89961 1.01115 0.04888 0.0
C342 C 0.95922 0.02491 0.08394 0.0
C343 C 0.93923 0.02519 0.17376 0.0
H344 H 0.55789 0.89205 0.30696 0.0
H345 H 0.50999 0.82564 0.12588 0.0
H346 H 0.49644 0.86237 0.98398 0.0
H347 H 0.50113 0.91212 0.90296 0.0
H348 H 0.54918 0.97946 0.07797 0.0
H349 H 0.55979 0.94389 0.22986 0.0
C350 C 0.54406 0.88577 0.23737 0.0
C351 C 0.53477 0.8559 0.2281 0.0
C352 C 0.53676 0.90717 0.15396 0.0
C353 C 0.51707 0.8483 0.13658 0.0
C354 C 0.50957 0.86933 0.05457 0.0
C355 C 0.51382 0.91922 0.9746 0.0
C356 C 0.52456 0.94856 0.978 0.0
C357 C 0.51975 0.89863 0.06112 0.0
C358 C 0.54071 0.95717 0.07238 0.0
C359 C 0.54679 0.93671 0.15928 0.0
H360 H 0.64107 0.51103 0.351 0.0
H361 H 0.71111 0.54302 0.13934 0.0
H362 H 0.67656 0.54813 0.98357 0.0
H363 H 0.62619 0.54282 0.90504 0.0
H364 H 0.55662 0.50942 0.11595 0.0
H365 H 0.59088 0.50577 0.27317 0.0
C366 C 0.64873 0.51927 0.27081 0.0
C367 C 0.67873 0.52687 0.25823 0.0
C368 C 0.62868 0.52192 0.1808 0.0
C369 C 0.68827 0.53721 0.15297 0.0
C370 C 0.66843 0.5401 0.0633 0.0
C371 C 0.61848 0.53487 0.98555 0.0
C372 C 0.58868 0.52643 0.99817 0.0
C373 C 0.63856 0.53248 0.07594 0.0
C374 C 0.57929 0.51605 0.10334 0.0
C375 C 0.59895 0.51393 0.1935 0.0
H376 H 0.02217 0.64124 0.35309 0.0
H377 H 0.99835 0.71565 0.14371 0.0
H378 H 0.99468 0.68283 0.98252 0.0
H379 H 0.99892 0.63297 0.89854 0.0
H380 H 0.0251 0.55868 0.10421 0.0
H381 H 0.02657 0.59105 0.26838 0.0
C382 C 1.01609 0.65024 0.27211 0.0
C383 C 1.01028 0.68102 0.26191 0.0
C384 C 1.01438 0.63112 0.17859 0.0
C385 C 1.00268 0.69223 0.15568 0.0
C386 C 1.00063 0.67337 0.06285 0.0
C387 C 1.0049 0.62378 0.97932 0.0
C388 C 1.01179 0.59321 0.9886 0.0
C389 C 1.00648 0.64279 0.07304 0.0
C390 C 1.01971 0.58197 0.09419 0.0
C391 C 1.02067 0.60059 0.18817 0.0
H392 H 0.13267 0.22714 0.24174 0.0
H393 H 0.07996 0.27977 0.46497 0.0
H394 H 0.07291 0.23723 0.58688 0.0
H395 H 0.06303 0.18384 0.57973 0.0
H396 H 0.1023 0.13167 0.31526 0.0
H397 H 0.13233 0.17341 0.25959 0.0
C398 C 0.1208 0.22945 0.32019 0.0
C399 C 0.10364 0.25515 0.33714 0.0
C400 C 0.11256 0.20375 0.37836 0.0
C401 C 0.09127 0.25929 0.4441 0.0
C402 C 0.08644 0.23463 0.51268 0.0
C403 C 0.07838 0.18146 0.5106 0.0
C404 C 0.07924 0.15499 0.44869 0.0
C405 C 0.09367 0.20634 0.47215 0.0
C406 C 0.10058 0.15181 0.36368 0.0
C407 C 0.11782 0.17584 0.33117 0.0
H408 H 0.27998 0.96273 0.45259 0.0
H409 H 0.29512 0.91833 0.13961 0.0
H410 H 0.33643 0.89093 0.22081 0.0
H411 H 0.37782 0.89653 0.3521 0.0
H412 H 0.36425 0.94594 0.65623 0.0
H413 H 0.31274 0.95332 0.61005 0.0
C414 C 0.29111 0.94571 0.40404 0.0
C415 C 0.28598 0.94392 0.28853 0.0
C416 C 0.31605 0.93167 0.44927 0.0
C417 C 0.29962 0.92091 0.22792 0.0
C418 C 0.32363 0.90563 0.27386 0.0
C419 C 0.36322 0.90779 0.41034 0.0
C420 C 0.37514 0.92189 0.50438 0.0
C421 C 0.33384 0.91344 0.38018 0.0
C422 C 0.35589 0.93539 0.58174 0.0
C423 C 0.32633 0.93996 0.55478 0.0
H424 H 0.42013 0.32153 0.27744 0.0
H425 H 0.48036 0.2768 0.49887 0.0
H426 H 0.48533 0.32158 0.60932 0.0
H427 H 0.48978 0.37547 0.58839 0.0
H428 H 0.43945 0.42095 0.33356 0.0
H429 H 0.41395 0.3752 0.28955 0.0
C430 C 0.43301 0.32131 0.35378 0.0
C431 C 0.45211 0.29715 0.37393 0.0
C432 C 0.43917 0.3483 0.40603 0.0
C433 C 0.46686 0.29588 0.47707 0.0
C434 C 0.47041 0.32184 0.53865 0.0
C435 C 0.47275 0.37547 0.52497 0.0
C436 C 0.4675 0.40116 0.46082 0.0
C437 C 0.45964 0.34871 0.49496 0.0
C438 C 0.44444 0.4013 0.38249 0.0
C439 C 0.42985 0.37506 0.35704 0.0
H440 H 0.2361 0.62444 0.26114 0.0
H441 H 0.25186 0.56533 0.5391 0.0
H442 H 0.2164 0.59262 0.65223 0.0
H443 H 0.17002 0.61983 0.64348 0.0
H444 H 0.15124 0.67678 0.36138 0.0
H445 H 0.1992 0.66459 0.28025 0.0
C446 C 0.23272 0.61851 0.34822 0.0
C447 C 0.24557 0.59231 0.39043 0.0
C448 C 0.2111 0.63339 0.411 0.0
C449 C 0.24183 0.58514 0.50402 0.0
C450 C 0.22121 0.60055 0.56851 0.0
C451 C 0.17685 0.63095 0.56728 0.0
C452 C 0.15629 0.64764 0.50475 0.0
C453 C 0.20386 0.62282 0.51899 0.0
C454 C 0.16615 0.66259 0.40829 0.0
C455 C 0.19352 0.65547 0.3614 0.0
H456 H 0.11647 0.80463 0.32461 0.0
H457 H 0.05128 0.78732 0.07242 0.0
H458 H 0.07539 0.82175 0.94498 0.0
H459 H 0.10208 0.86831 0.93877 0.0
H460 H 0.16365 0.88947 0.19985 0.0
H461 H 0.1551 0.8414 0.28773 0.0
C462 C 0.10851 0.80741 0.2397 0.0
C463 C 0.08167 0.79452 0.20889 0.0
C464 C 0.12154 0.82849 0.16939 0.0
C465 C 0.07169 0.79748 0.09835 0.0
C466 C 0.08531 0.81746 0.02586 0.0
C467 C 0.11495 0.86183 0.01129 0.0
C468 C 0.13211 0.88298 0.0668 0.0
C469 C 0.10844 0.83502 0.06488 0.0
C470 C 0.14936 0.87387 0.15838 0.0
C471 C 0.14418 0.84652 0.20942 0.0
H472 H 0.75933 0.08912 0.14331 0.0
H473 H 0.74334 0.12953 0.46336 0.0
H474 H 0.70097 0.15636 0.38743 0.0
H475 H 0.65957 0.15085 0.25598 0.0
H476 H 0.6744 0.10556 0.94355 0.0
H477 H 0.72612 0.09933 0.98792 0.0
C478 C 0.74774 0.1052 0.19478 0.0
C479 C 0.75301 0.10587 0.31039 0.0
C480 C 0.72231 0.11893 0.15225 0.0
C481 C 0.73875 0.12776 0.3748 0.0
C482 C 0.71415 0.1427 0.33183 0.0
C483 C 0.67444 0.14077 0.19571 0.0
C484 C 0.66287 0.12741 0.0995 0.0
C485 C 0.70404 0.13575 0.22452 0.0
C486 C 0.68247 0.11549 0.0197 0.0
C487 C 0.71218 0.11158 0.04556 0.0
H488 H 0.42184 0.73756 0.39327 0.0
H489 H 0.47846 0.75956 0.11623 0.0
H490 H 0.45743 0.71961 1.00633 0.0
H491 H 0.43792 0.66935 0.0203 0.0
H492 H 0.38659 0.64393 0.30854 0.0
H493 H 0.38986 0.69418 0.38201 0.0
C494 C 0.42828 0.73454 0.30658 0.0
C495 C 0.45233 0.75049 0.264 0.0
C496 C 0.41774 0.71008 0.24756 0.0
C497 C 0.46028 0.74711 0.15125 0.0
C498 C 0.44862 0.72388 0.0891 0.0
C499 C 0.42612 0.67519 0.0962 0.0
C500 C 0.41296 0.65285 0.16122 0.0
C501 C 0.42955 0.70362 0.14074 0.0
C502 C 0.39752 0.66072 0.25881 0.0
C503 C 0.39956 0.6894 0.3011 0.0
H504 H 0.80877 0.4243 0.28236 0.0
H505 H 0.78951 0.49678 0.05763 0.0
H506 H 0.82469 0.47715 0.92222 0.0
H507 H 0.87093 0.44997 0.90173 0.0
H508 H 0.89235 0.37863 0.12977 0.0
H509 H 0.84582 0.38667 0.22826 0.0
C510 C 0.81142 0.43496 0.20149 0.0
C511 C 0.79743 0.46233 0.18095 0.0
C512 C 0.83261 0.42421 0.1261 0.0
C513 C 0.80037 0.47583 0.07557 0.0
C514 C 0.82077 0.46478 0.99861 0.0
C515 C 0.86496 0.43506 0.96919 0.0
C516 C 0.88591 0.4149 0.01253 0.0
C517 C 0.83868 0.44047 0.02753 0.0
C518 C 0.87719 0.39533 0.09821 0.0
C519 C 0.85063 0.4 0.15495 0.0
H520 H 0.03462 0.19626 0.1928 0.0
H521 H 0.0382 0.24171 0.87601 0.0
H522 H 0.03117 0.19427 0.77846 0.0
H523 H 0.02848 0.1384 0.78398 0.0
H524 H 0.02859 0.09481 0.10648 0.0
H525 H 0.03036 0.14242 0.19931 0.0
C526 C 0.03321 0.19598 0.10223 0.0
C527 C 0.03667 0.22287 0.04235 0.0
C528 C 0.03058 0.16852 0.04709 0.0
C529 C 0.03506 0.22173 0.9249 0.0
C530 C 0.03152 0.19439 0.86903 0.0
C531 C 0.02878 0.13932 0.87451 0.0
C532 C 0.02855 0.11248 0.93729 0.0
C533 C 0.03003 0.16739 0.92913 0.0
C534 C 0.02893 0.11458 0.05483 0.0
C535 C 0.0298 0.14202 0.1087 0.0
H536 H 0.35333 1.02389 0.21427 0.0
H537 H 0.30736 1.02364 0.90029 0.0
H538 H 0.3545 0.02748 0.79946 0.0
H539 H 0.4096 0.02667 0.80092 0.0
H540 H 0.45463 0.02667 0.11848 0.0
H541 H 0.40753 0.02695 0.21643 0.0
C542 C 0.35359 0.02576 0.12382 0.0
C543 C 0.32669 0.02437 0.06511 0.0
C544 C 0.38087 0.02721 0.06663 0.0
C545 C 0.32755 0.02564 0.94769 0.0
C546 C 0.35463 0.02735 0.89004 0.0
C547 C 0.40912 0.02691 0.89152 0.0
C548 C 0.43603 0.02654 0.95152 0.0
C549 C 0.38157 0.02743 0.94849 0.0
C550 C 0.43463 0.02702 0.0692 0.0
C551 C 0.40755 0.0272 0.12581 0.0
H552 H 0.48299 0.32512 0.92705 0.0
H553 H 0.54721 0.3322 0.18956 0.0
H554 H 0.55671 0.38364 0.13593 0.0
H555 H 0.5428 0.42871 0.02723 0.0
H556 H 0.48187 0.42087 0.75367 0.0
H557 H 0.47505 0.36818 0.79802 0.0
C558 C 0.50008 0.33747 0.96902 0.0
C559 C 0.51498 0.32422 0.06068 0.0
C560 C 0.50542 0.36741 0.93747 0.0
C561 C 0.53618 0.34123 0.11658 0.0
C562 C 0.54121 0.37097 0.08713 0.0
C563 C 0.52826 0.41538 0.97657 0.0
C564 C 0.51247 0.42903 0.88821 0.0
C565 C 0.52532 0.38464 0.99996 0.0
C566 C 0.49414 0.41117 0.82246 0.0
C567 C 0.49026 0.38092 0.84784 0.0
H568 H 0.21212 0.56221 0.99554 0.0
H569 H 0.20246 0.48367 0.19761 0.0
H570 H 0.15388 0.47488 0.11474 0.0
H571 H 0.11189 0.49209 0.99561 0.0
H572 H 0.12327 0.5695 0.78748 0.0
H573 H 0.17289 0.57607 0.86124 0.0
C574 C 0.19973 0.5427 0.01929 0.0
C575 C 0.21128 0.52347 0.10239 0.0
C576 C 0.17164 0.53788 0.97137 0.0
C577 C 0.19459 0.49854 0.1327 0.0
C578 C 0.16652 0.49374 0.08622 0.0
C579 C 0.12529 0.51029 0.96585 0.0
C580 C 0.11339 0.53044 0.88643 0.0
C581 C 0.15443 0.51367 1.00737 0.0
C582 C 0.13149 0.55363 0.8483 0.0
C583 C 0.16002 0.55746 0.89074 0.0
H584 H 1.00333 0.85503 0.39019 0.0
H585 H 0.04041 0.8108 0.67689 0.0
H586 H 0.03851 0.85746 0.78257 0.0
H587 H 0.02979 0.91254 0.78793 0.0
H588 H 0.99245 0.95535 0.49666 0.0
H589 H 0.99101 0.90819 0.40013 0.0
C590 C 1.0101 0.85538 0.47707 0.0
C591 C 0.02127 0.82907 0.52613 0.0
C592 C 1.00941 0.88249 0.53649 0.0
C593 C 0.03089 0.83033 0.63777 0.0
C594 C 0.03017 0.85724 0.69777 0.0
C595 C 1.02106 0.91154 0.70379 0.0
C596 C 1.01134 0.93807 0.65056 0.0
C597 C 1.02004 0.88375 0.64733 0.0
C598 C 1.00014 0.93582 0.54106 0.0
C599 C 0.99928 0.90863 0.48504 0.0
H600 H 0.68823 1.02274 0.37575 0.0
H601 H 0.73486 1.02285 0.68831 0.0
H602 H 0.68806 1.01762 0.79037 0.0
H603 H 0.63295 1.01751 0.79072 0.0
H604 H 0.58722 1.01779 0.47463 0.0
H605 H 0.63409 1.01859 0.37516 0.0
C606 C 0.68821 1.02048 0.46609 0.0
C607 C 0.71521 1.02226 0.52402 0.0
C608 C 0.66109 1.01829 0.52407 0.0
C609 C 0.71462 1.02054 0.6414 0.0
C610 C 0.68772 1.01806 0.69981 0.0
C611 C 0.63323 1.01754 0.70011 0.0
C612 C 0.6062 1.01766 0.64099 0.0
C613 C 0.66066 1.01767 0.64222 0.0
C614 C 0.60734 1.01756 0.52324 0.0
C615 C 0.63429 1.01802 0.46576 0.0
H616 H 0.4861 0.71773 0.6605 0.0
H617 H 0.56195 0.71108 0.44491 0.0
H618 H 0.57212 0.66091 0.51603 0.0
H619 H 0.55613 0.61654 0.62528 0.0
H620 H 0.48101 0.62443 0.84553 0.0
H621 H 0.47405 0.67598 0.78778 0.0
C622 C 0.50552 0.70573 0.63212 0.0
C623 C 0.52357 0.71865 0.54858 0.0
C624 C 0.51099 0.6766 0.67272 0.0
C625 C 0.54814 0.70226 0.51094 0.0
C626 C 0.55366 0.67325 0.5505 0.0
C627 C 0.53843 0.6296 0.66172 0.0
C628 C 0.51897 0.6161 0.73946 0.0
C629 C 0.53473 0.65978 0.62904 0.0
C630 C 0.49637 0.63381 0.78588 0.0
C631 C 0.4923 0.66347 0.75251 0.0
H632 H 0.84802 0.54193 0.39444 0.0
H633 H 0.81181 0.48833 0.6583 0.0
H634 H 0.85876 0.49082 0.76054 0.0
H635 H 0.91229 0.50498 0.76665 0.0
H636 H 0.94696 0.55782 0.49501 0.0
H637 H 0.89915 0.5587 0.4059 0.0
C638 C 0.85008 0.53163 0.47621 0.0
C639 C 0.82601 0.51574 0.51992 0.0
C640 C 0.8774 0.53245 0.53274 0.0
C641 C 0.82955 0.50152 0.62411 0.0
C642 C 0.85664 0.50259 0.68188 0.0
C643 C 0.90932 0.51691 0.68859 0.0
C644 C 0.93381 0.53114 0.63825 0.0
C645 C 0.8811 0.51746 0.63592 0.0
C646 C 0.92907 0.54641 0.53656 0.0
C647 C 0.90148 0.54706 0.48489 0.0
loop_
_geom_bond_atom_site_label_1
_geom_bond_atom_site_label_2
_geom_bond_distance
_geom_bond_site_symmetry_2
_ccdc_geom_bond_type
H0 C7 0.929 . S
H1 C10 0.930 . S
H2 C12 0.929 . S
H3 C4 0.969 . S
C4 H3 0.969 . S
C4 O5 1.550 . S
C4 H6 0.973 . S
O5 C4 1.550 . S
O5 C11 1.412 . S
H6 C4 0.973 . S
C7 H0 0.929 . S
C7 C8 1.400 . S
C7 C9 1.364 . S
C8 C7 1.400 . S
C8 C12 1.377 . S
C9 C7 1.364 . S
C9 C10 1.374 . S
C10 H1 0.930 . S
C10 C9 1.374 . S
C10 C11 1.383 . S
C11 O5 1.412 . S
C11 C10 1.383 . S
C11 C12 1.394 . S
C12 H2 0.929 . S
C12 C8 1.377 . S
C12 C11 1.394 . S
H13 C20 0.928 1_655 S
H14 C23 0.931 . S
H15 C25 0.928 1_655 S
H16 C17 0.969 . S
C17 H16 0.969 . S
C17 O18 1.550 1_455 S
C17 H19 0.973 1_455 S
O18 C17 1.550 1_655 S
O18 C24 1.404 1_655 S
H19 C17 0.973 1_655 S
C20 H13 0.928 1_455 S
C20 C21 1.399 . S
C20 C22 1.364 . S
C21 C20 1.399 . S
C21 C25 1.377 . S
C22 C20 1.364 . S
C22 C23 1.374 1_455 S
C23 H14 0.931 . S
C23 C22 1.374 1_655 S
C23 C24 1.382 1_655 S
C24 O18 1.404 1_455 S
C24 C23 1.382 1_455 S
C24 C25 1.394 . S
C25 H15 0.928 1_455 S
C25 C21 1.377 . S
C25 C24 1.394 . S
H26 C33 0.928 1_565 S
H27 C36 0.931 . S
H28 C38 0.929 1_565 S
H29 C30 0.969 . S
C30 H29 0.969 . S
C30 O31 1.550 1_545 S
C30 H32 0.973 1_545 S
O31 C30 1.550 1_565 S
O31 C37 1.404 1_565 S
H32 C30 0.973 1_565 S
C33 H26 0.928 1_545 S
C33 C34 1.399 . S
C33 C35 1.364 . S
C34 C33 1.399 . S
C34 C38 1.377 . S
C35 C33 1.364 . S
C35 C36 1.374 1_545 S
C36 H27 0.931 . S
C36 C35 1.374 1_565 S
C36 C37 1.382 1_565 S
C37 O31 1.404 1_545 S
C37 C36 1.382 1_545 S
C37 C38 1.394 . S
C38 H28 0.929 1_545 S
C38 C34 1.377 . S
C38 C37 1.394 . S
H39 C46 0.929 . S
H40 C49 0.930 . S
H41 C51 0.929 . S
H42 C43 0.969 . S
C43 H42 0.969 . S
C43 O44 1.550 . S
C43 H45 0.973 . S
O44 C43 1.550 . S
O44 C50 1.412 . S
H45 C43 0.973 . S
C46 H39 0.929 . S
C46 C47 1.400 . S
C46 C48 1.364 . S
C47 C46 1.400 . S
C47 C51 1.377 . S
C48 C46 1.364 . S
C48 C49 1.374 . S
C49 H40 0.930 . S
C49 C48 1.374 . S
C49 C50 1.383 . S
C50 O44 1.412 . S
C50 C49 1.383 . S
C50 C51 1.394 . S
C51 H41 0.929 . S
C51 C47 1.377 . S
C51 C50 1.394 . S
H52 C59 0.929 . S
H53 C62 0.930 . S
H54 C64 0.929 . S
H55 C56 0.969 . S
C56 H55 0.969 . S
C56 O57 1.550 . S
C56 H58 0.973 . S
O57 C56 1.550 . S
O57 C63 1.412 . S
H58 C56 0.973 . S
C59 H52 0.929 . S
C59 C60 1.400 1_554 S
C59 C61 1.364 . S
C60 C59 1.400 1_556 S
C60 C64 1.377 . S
C61 C59 1.364 . S
C61 C62 1.374 . S
C62 H53 0.930 . S
C62 C61 1.374 . S
C62 C63 1.383 . S
C63 O57 1.412 . S
C63 C62 1.383 . S
C63 C64 1.394 1_554 S
C64 H54 0.929 . S
C64 C60 1.377 . S
C64 C63 1.394 1_556 S
H65 C72 0.928 1_655 S
H66 C75 0.930 . S
H67 C77 0.928 1_655 S
H68 C69 0.969 . S
C69 H68 0.969 . S
C69 O70 1.550 1_455 S
C69 H71 0.973 1_455 S
O70 C69 1.550 1_655 S
O70 C76 1.402 1_655 S
H71 C69 0.973 1_655 S
C72 H65 0.928 1_455 S
C72 C73 1.400 1_554 S
C72 C74 1.364 . S
C73 C72 1.400 1_556 S
C73 C77 1.377 . S
C74 C72 1.364 . S
C74 C75 1.374 1_455 S
C75 H66 0.930 . S
C75 C74 1.374 1_655 S
C75 C76 1.382 1_655 S
C76 O70 1.402 1_455 S
C76 C75 1.382 1_455 S
C76 C77 1.394 1_554 S
C77 H67 0.928 1_455 S
C77 C73 1.377 . S
C77 C76 1.394 1_556 S
H78 C85 0.928 1_565 S
H79 C88 0.930 . S
H80 C90 0.928 1_565 S
H81 C82 0.969 . S
C82 H81 0.969 . S
C82 O83 1.550 1_545 S
C82 H84 0.973 1_545 S
O83 C82 1.550 1_565 S
O83 C89 1.402 1_565 S
H84 C82 0.973 1_565 S
C85 H78 0.928 1_545 S
C85 C86 1.400 1_554 S
C85 C87 1.364 . S
C86 C85 1.400 1_556 S
C86 C90 1.377 . S
C87 C85 1.364 . S
C87 C88 1.374 1_545 S
C88 H79 0.930 . S
C88 C87 1.374 1_565 S
C88 C89 1.383 1_565 S
C89 O83 1.402 1_545 S
C89 C88 1.383 1_545 S
C89 C90 1.394 1_554 S
C90 H80 0.928 1_545 S
C90 C86 1.377 . S
C90 C89 1.394 1_556 S
H91 C98 0.929 . S
H92 C101 0.930 . S
H93 C103 0.929 . S
H94 C95 0.969 . S
C95 H94 0.969 . S
C95 O96 1.550 . S
C95 H97 0.973 . S
O96 C95 1.550 . S
O96 C102 1.412 . S
H97 C95 0.973 . S
C98 H91 0.929 . S
C98 C99 1.400 1_554 S
C98 C100 1.364 . S
C99 C98 1.400 1_556 S
C99 C103 1.377 . S
C100 C98 1.364 . S
C100 C101 1.374 . S
C101 H92 0.930 . S
C101 C100 1.374 . S
C101 C102 1.383 . S
C102 O96 1.412 . S
C102 C101 1.383 . S
C102 C103 1.394 1_554 S
C103 H93 0.929 . S
C103 C99 1.377 . S
C103 C102 1.394 1_556 S
Tb104 C106 2.809 1_556 S
Tb104 O124 2.484 1_556 S
Tb104 O125 2.440 . S
Tb104 O126 2.658 1_565 S
Tb104 O127 2.409 . S
Tb104 O128 2.378 . S
Tb104 O132 2.325 1_455 S
Tb104 O135 2.341 1_565 S
Tb105 C115 2.809 . S
Tb105 O126 2.325 1_655 S
Tb105 O129 2.341 1_545 S
Tb105 O130 2.484 . S
Tb105 O131 2.440 . S
Tb105 O132 2.658 1_545 S
Tb105 O133 2.409 . S
Tb105 O134 2.378 . S
C106 Tb104 2.809 1_554 S
C106 C107 1.514 . S
C106 O124 1.248 . S
C106 O125 1.266 1_554 S
C107 C106 1.514 . S
C107 C108 1.359 . S
C107 C112 1.348 . S
C108 C107 1.359 . S
C108 C109 1.380 . S
C108 H136 0.929 1_455 S
C109 C108 1.380 . S
C109 C110 1.347 . S
C109 H137 0.931 1_455 S
C110 C109 1.347 . S
C110 C111 1.369 . S
C111 C110 1.369 . S
C111 C112 1.408 . S
C111 H138 0.930 . S
C112 C107 1.348 . S
C112 C111 1.408 . S
C112 H139 0.930 . S
C113 O126 1.281 1_565 S
C113 O127 1.254 . S
C114 O128 1.236 1_655 S
C114 O129 1.266 . S
C115 Tb105 2.809 . S
C115 C116 1.514 . S
C115 O130 1.248 . S
C115 O131 1.266 . S
C116 C115 1.514 . S
C116 C117 1.359 . S
C116 C121 1.348 . S
C117 C116 1.359 . S
C117 C118 1.380 . S
C117 H140 0.929 1_655 S
C118 C117 1.380 . S
C118 C119 1.347 . S
C118 H141 0.931 1_655 S
C119 C118 1.347 . S
C119 C120 1.369 . S
C120 C119 1.369 . S
C120 C121 1.408 . S
C120 H142 0.930 . S
C121 C116 1.348 . S
C121 C120 1.408 . S
C121 H143 0.930 . S
C122 O132 1.281 1_545 S
C122 O133 1.254 . S
C123 O134 1.236 1_455 S
C123 O135 1.266 . S
O124 Tb104 2.484 1_554 S
O124 C106 1.248 . S
O125 Tb104 2.440 . S
O125 C106 1.266 1_556 S
O126 Tb104 2.658 1_545 S
O126 Tb105 2.325 1_455 S
O126 C113 1.281 1_545 S
O127 Tb104 2.409 . S
O127 C113 1.254 . S
O128 Tb104 2.378 . S
O128 C114 1.236 1_455 S
O129 Tb105 2.341 1_565 S
O129 C114 1.266 . S
O130 Tb105 2.484 . S
O130 C115 1.248 . S
O131 Tb105 2.440 . S
O131 C115 1.266 . S
O132 Tb104 2.325 1_655 S
O132 Tb105 2.658 1_565 S
O132 C122 1.281 1_565 S
O133 Tb105 2.409 . S
O133 C122 1.254 . S
O134 Tb105 2.378 . S
O134 C123 1.236 1_655 S
O135 Tb104 2.341 1_545 S
O135 C123 1.266 . S
H136 C108 0.929 1_655 S
H137 C109 0.931 1_655 S
H138 C111 0.930 . S
H139 C112 0.930 . S
H140 C117 0.929 1_455 S
H141 C118 0.931 1_455 S
H142 C120 0.930 . S
H143 C121 0.930 . S
Tb144 C146 2.809 1_556 S
Tb144 O164 2.484 1_556 S
Tb144 O165 2.440 . S
Tb144 O166 2.658 . S
Tb144 O167 2.409 . S
Tb144 O168 2.378 . S
Tb144 O172 2.325 1_545 S
Tb144 O175 2.341 . S
Tb145 C155 2.809 . S
Tb145 O166 2.325 1_565 S
Tb145 O169 2.341 . S
Tb145 O170 2.484 . S
Tb145 O171 2.440 . S
Tb145 O172 2.658 . S
Tb145 O173 2.409 . S
Tb145 O174 2.378 . S
C146 Tb144 2.809 1_554 S
C146 C147 1.514 . S
C146 O164 1.248 . S
C146 O165 1.266 1_554 S
C147 C146 1.514 . S
C147 C148 1.359 . S
C147 C152 1.348 . S
C148 C147 1.359 . S
C148 C149 1.380 . S
C148 H176 0.929 1_545 S
C149 C148 1.380 . S
C149 C150 1.347 . S
C149 H177 0.931 1_545 S
C150 C149 1.347 . S
C150 C151 1.369 . S
C151 C150 1.369 . S
C151 C152 1.408 . S
C151 H178 0.930 . S
C152 C147 1.348 . S
C152 C151 1.408 . S
C152 H179 0.930 . S
C153 O166 1.281 . S
C153 O167 1.254 . S
C154 O168 1.236 1_565 S
C154 O169 1.266 . S
C155 Tb145 2.809 . S
C155 C156 1.514 . S
C155 O170 1.248 . S
C155 O171 1.266 . S
C156 C155 1.514 . S
C156 C157 1.359 . S
C156 C161 1.348 . S
C157 C156 1.359 . S
C157 C158 1.380 . S
C157 H180 0.929 1_565 S
C158 C157 1.380 . S
C158 C159 1.347 . S
C158 H181 0.931 1_565 S
C159 C158 1.347 . S
C159 C160 1.369 . S
C160 C159 1.369 . S
C160 C161 1.408 . S
C160 H182 0.930 . S
C161 C156 1.348 . S
C161 C160 1.408 . S
C161 H183 0.930 . S
C162 O172 1.281 . S
C162 O173 1.254 . S
C163 O174 1.236 1_545 S
C163 O175 1.266 . S
O164 Tb144 2.484 1_554 S
O164 C146 1.248 . S
O165 Tb144 2.440 . S
O165 C146 1.266 1_556 S
O166 Tb144 2.658 . S
O166 Tb145 2.325 1_545 S
O166 C153 1.281 . S
O167 Tb144 2.409 . S
O167 C153 1.254 . S
O168 Tb144 2.378 . S
O168 C154 1.236 1_545 S
O169 Tb145 2.341 . S
O169 C154 1.266 . S
O170 Tb145 2.484 . S
O170 C155 1.248 . S
O171 Tb145 2.440 . S
O171 C155 1.266 . S
O172 Tb144 2.325 1_565 S
O172 Tb145 2.658 . S
O172 C162 1.281 . S
O173 Tb145 2.409 . S
O173 C162 1.254 . S
O174 Tb145 2.378 . S
O174 C163 1.236 1_565 S
O175 Tb144 2.341 . S
O175 C163 1.266 . S
H176 C148 0.929 1_565 S
H177 C149 0.931 1_565 S
H178 C151 0.930 . S
H179 C152 0.930 . S
H180 C157 0.929 1_545 S
H181 C158 0.931 1_545 S
H182 C160 0.930 . S
H183 C161 0.930 . S
Tb184 C186 2.809 1_556 S
Tb184 O204 2.484 1_556 S
Tb184 O205 2.440 . S
Tb184 O206 2.658 . S
Tb184 O207 2.409 . S
Tb184 O208 2.378 . S
Tb184 O212 2.325 . S
Tb184 O215 2.341 . S
Tb185 C195 2.809 . S
Tb185 O206 2.325 . S
Tb185 O209 2.341 . S
Tb185 O210 2.484 . S
Tb185 O211 2.440 . S
Tb185 O212 2.658 . S
Tb185 O213 2.409 . S
Tb185 O214 2.378 . S
C186 Tb184 2.809 1_554 S
C186 C187 1.514 . S
C186 O204 1.248 . S
C186 O205 1.266 1_554 S
C187 C186 1.514 . S
C187 C188 1.359 . S
C187 C192 1.348 . S
C188 C187 1.359 . S
C188 C189 1.380 . S
C188 H216 0.929 . S
C189 C188 1.380 . S
C189 C190 1.347 . S
C189 H217 0.931 . S
C190 C189 1.347 . S
C190 C191 1.369 . S
C191 C190 1.369 . S
C191 C192 1.408 . S
C191 H218 0.930 . S
C192 C187 1.348 . S
C192 C191 1.408 . S
C192 H219 0.930 . S
C193 O206 1.281 . S
C193 O207 1.254 . S
C194 O208 1.236 . S
C194 O209 1.266 . S
C195 Tb185 2.809 . S
C195 C196 1.514 . S
C195 O210 1.248 . S
C195 O211 1.266 . S
C196 C195 1.514 . S
C196 C197 1.359 . S
C196 C201 1.348 . S
C197 C196 1.359 . S
C197 C198 1.380 . S
C197 H220 0.929 . S
C198 C197 1.380 . S
C198 C199 1.347 . S
C198 H221 0.931 . S
C199 C198 1.347 . S
C199 C200 1.369 . S
C200 C199 1.369 . S
C200 C201 1.408 . S
C200 H222 0.930 . S
C201 C196 1.348 . S
C201 C200 1.408 . S
C201 H223 0.930 . S
C202 O212 1.281 . S
C202 O213 1.254 . S
C203 O214 1.236 . S
C203 O215 1.266 . S
O204 Tb184 2.484 1_554 S
O204 C186 1.248 . S
O205 Tb184 2.440 . S
O205 C186 1.266 1_556 S
O206 Tb184 2.658 . S
O206 Tb185 2.325 . S
O206 C193 1.281 . S
O207 Tb184 2.409 . S
O207 C193 1.254 . S
O208 Tb184 2.378 . S
O208 C194 1.236 . S
O209 Tb185 2.341 . S
O209 C194 1.266 . S
O210 Tb185 2.484 . S
O210 C195 1.248 . S
O211 Tb185 2.440 . S
O211 C195 1.266 . S
O212 Tb184 2.325 . S
O212 Tb185 2.658 . S
O212 C202 1.281 . S
O213 Tb185 2.409 . S
O213 C202 1.254 . S
O214 Tb185 2.378 . S
O214 C203 1.236 . S
O215 Tb184 2.341 . S
O215 C203 1.266 . S
H216 C188 0.929 . S
H217 C189 0.931 . S
H218 C191 0.930 . S
H219 C192 0.930 . S
H220 C197 0.929 . S
H221 C198 0.931 . S
H222 C200 0.930 . S
H223 C201 0.930 . S
Tb224 C226 2.809 1_556 S
Tb224 O244 2.484 1_556 S
Tb224 O245 2.440 . S
Tb224 O246 2.658 1_655 S
Tb224 O247 2.409 . S
Tb224 O248 2.378 . S
Tb224 O252 2.325 . S
Tb224 O255 2.341 1_655 S
Tb225 C235 2.809 . S
Tb225 O246 2.325 . S
Tb225 O249 2.341 1_455 S
Tb225 O250 2.484 . S
Tb225 O251 2.440 . S
Tb225 O252 2.658 1_455 S
Tb225 O253 2.409 . S
Tb225 O254 2.378 . S
C226 Tb224 2.809 1_554 S
C226 C227 1.514 . S
C226 O244 1.248 . S
C226 O245 1.266 1_554 S
C227 C226 1.514 . S
C227 C228 1.359 . S
C227 C232 1.348 . S
C228 C227 1.359 . S
C228 C229 1.380 . S
C228 H256 0.929 . S
C229 C228 1.380 . S
C229 C230 1.347 . S
C229 H257 0.931 . S
C230 C229 1.347 . S
C230 C231 1.369 . S
C231 C230 1.369 . S
C231 C232 1.408 . S
C231 H258 0.930 . S
C232 C227 1.348 . S
C232 C231 1.408 . S
C232 H259 0.930 . S
C233 O246 1.275 1_655 S
C233 O247 1.261 . S
C234 O248 1.236 . S
C234 O249 1.266 . S
C235 Tb225 2.809 . S
C235 C236 1.514 . S
C235 O250 1.248 . S
C235 O251 1.266 . S
C236 C235 1.514 . S
C236 C237 1.359 . S
C236 C241 1.348 . S
C237 C236 1.359 . S
C237 C238 1.380 . S
C237 H260 0.929 . S
C238 C237 1.380 . S
C238 C239 1.347 . S
C238 H261 0.931 . S
C239 C238 1.347 . S
C239 C240 1.369 . S
C240 C239 1.369 . S
C240 C241 1.408 . S
C240 H262 0.930 . S
C241 C236 1.348 . S
C241 C240 1.408 . S
C241 H263 0.930 . S
C242 O252 1.272 1_455 S
C242 O253 1.265 . S
C243 O254 1.236 . S
C243 O255 1.266 . S
O244 Tb224 2.484 1_554 S
O244 C226 1.248 . S
O245 Tb224 2.440 . S
O245 C226 1.266 1_556 S
O246 Tb224 2.658 1_455 S
O246 Tb225 2.325 . S
O246 C233 1.275 1_455 S
O247 Tb224 2.409 . S
O247 C233 1.261 . S
O248 Tb224 2.378 . S
O248 C234 1.236 . S
O249 Tb225 2.341 1_655 S
O249 C234 1.266 . S
O250 Tb225 2.484 . S
O250 C235 1.248 . S
O251 Tb225 2.440 . S
O251 C235 1.266 . S
O252 Tb224 2.325 . S
O252 Tb225 2.658 1_655 S
O252 C242 1.272 1_655 S
O253 Tb225 2.409 . S
O253 C242 1.265 . S
O254 Tb225 2.378 . S
O254 C243 1.236 . S
O255 Tb224 2.341 1_455 S
O255 C243 1.266 . S
H256 C228 0.929 . S
H257 C229 0.931 . S
H258 C231 0.930 . S
H259 C232 0.930 . S
H260 C237 0.929 . S
H261 C238 0.931 . S
H262 C240 0.930 . S
H263 C241 0.930 . S
H264 C270 0.930 . S
H265 C273 0.930 . S
H266 C274 0.930 . S
H267 C275 0.930 . S
H268 C278 0.930 . S
H269 C279 0.930 . S
C270 H264 0.930 . S
C270 C271 1.355 1_545 S
C270 C272 1.415 . S
C271 C270 1.355 1_565 S
C271 C273 1.419 . S
C272 C270 1.415 . S
C272 C277 1.425 1_545 S
C272 C279 1.409 . S
C273 H265 0.930 . S
C273 C271 1.419 . S
C273 C274 1.362 . S
C274 H266 0.930 . S
C274 C273 1.362 . S
C274 C277 1.409 . S
C275 H267 0.930 . S
C275 C276 1.355 1_565 S
C275 C277 1.415 . S
C276 C275 1.355 1_545 S
C276 C278 1.419 . S
C277 C272 1.425 1_565 S
C277 C274 1.409 . S
C277 C275 1.415 . S
C278 H268 0.930 . S
C278 C276 1.419 . S
C278 C279 1.362 . S
C279 H269 0.930 . S
C279 C272 1.409 . S
C279 C278 1.362 . S
H280 C286 0.930 . S
H281 C289 0.930 . S
H282 C290 0.930 . S
H283 C291 0.930 . S
H284 C294 0.930 . S
H285 C295 0.930 . S
C286 H280 0.930 . S
C286 C287 1.355 . S
C286 C288 1.415 . S
C287 C286 1.355 . S
C287 C289 1.419 . S
C288 C286 1.415 . S
C288 C293 1.425 . S
C288 C295 1.409 . S
C289 H281 0.930 . S
C289 C287 1.419 . S
C289 C290 1.362 . S
C290 H282 0.930 . S
C290 C289 1.362 . S
C290 C293 1.409 . S
C291 H283 0.930 . S
C291 C292 1.355 . S
C291 C293 1.415 . S
C292 C291 1.355 . S
C292 C294 1.419 . S
C293 C288 1.425 . S
C293 C290 1.409 . S
C293 C291 1.415 . S
C294 H284 0.930 . S
C294 C292 1.419 . S
C294 C295 1.362 . S
C295 H285 0.930 . S
C295 C288 1.409 . S
C295 C294 1.362 . S
H296 C302 0.930 . S
H297 C305 0.930 . S
H298 C306 0.930 . S
H299 C307 0.930 . S
H300 C310 0.930 . S
H301 C311 0.930 . S
C302 H296 0.930 . S
C302 C303 1.355 . S
C302 C304 1.415 . S
C303 C302 1.355 . S
C303 C305 1.419 . S
C304 C302 1.415 . S
C304 C309 1.425 . S
C304 C311 1.409 . S
C305 H297 0.930 . S
C305 C303 1.419 . S
C305 C306 1.362 . S
C306 H298 0.930 . S
C306 C305 1.362 . S
C306 C309 1.409 . S
C307 H299 0.930 . S
C307 C308 1.355 . S
C307 C309 1.415 . S
C308 C307 1.355 . S
C308 C310 1.419 . S
C309 C304 1.425 . S
C309 C306 1.409 . S
C309 C307 1.415 . S
C310 H300 0.930 . S
C310 C308 1.419 . S
C310 C311 1.362 . S
C311 H301 0.930 . S
C311 C304 1.409 . S
C311 C310 1.362 . S
H312 C318 0.930 . S
H313 C321 0.930 . S
H314 C322 0.930 . S
H315 C323 0.930 . S
H316 C326 0.930 . S
H317 C327 0.930 . S
C318 H312 0.930 . S
C318 C319 1.355 1_655 S
C318 C320 1.415 . S
C319 C318 1.355 1_455 S
C319 C321 1.419 . S
C320 C318 1.415 . S
C320 C325 1.425 1_655 S
C320 C327 1.409 . S
C321 H313 0.930 . S
C321 C319 1.419 . S
C321 C322 1.362 . S
C322 H314 0.930 . S
C322 C321 1.362 . S
C322 C325 1.409 . S
C323 H315 0.930 . S
C323 C324 1.355 1_455 S
C323 C325 1.415 . S
C324 C323 1.355 1_655 S
C324 C326 1.419 . S
C325 C320 1.425 1_455 S
C325 C322 1.409 . S
C325 C323 1.415 . S
C326 H316 0.930 . S
C326 C324 1.419 . S
C326 C327 1.362 . S
C327 H317 0.930 . S
C327 C320 1.409 . S
C327 C326 1.362 . S
H328 C334 0.930 . S
H329 C337 0.930 . S
H330 C338 0.930 . S
H331 C339 0.930 . S
H332 C342 0.930 1_556 S
H333 C343 0.930 . S
C334 H328 0.930 . S
C334 C335 1.355 1_545 S
C334 C336 1.415 . S
C335 C334 1.355 1_565 S
C335 C337 1.419 . S
C336 C334 1.415 . S
C336 C341 1.425 1_545 S
C336 C343 1.409 . S
C337 H329 0.930 . S
C337 C335 1.419 . S
C337 C338 1.362 . S
C338 H330 0.930 . S
C338 C337 1.362 . S
C338 C341 1.409 . S
C339 H331 0.930 . S
C339 C340 1.355 1_565 S
C339 C341 1.415 . S
C340 C339 1.355 1_545 S
C340 C342 1.419 . S
C341 C336 1.425 1_565 S
C341 C338 1.409 . S
C341 C339 1.415 . S
C342 H332 0.930 1_554 S
C342 C340 1.419 . S
C342 C343 1.362 . S
C343 H333 0.930 . S
C343 C336 1.409 . S
C343 C342 1.362 . S
H344 C350 0.930 . S
H345 C353 0.930 . S
H346 C354 0.930 . S
H347 C355 0.930 . S
H348 C358 0.930 . S
H349 C359 0.930 . S
C350 H344 0.930 . S
C350 C351 1.355 . S
C350 C352 1.415 . S
C351 C350 1.355 . S
C351 C353 1.419 . S
C352 C350 1.415 . S
C352 C357 1.425 . S
C352 C359 1.409 . S
C353 H345 0.930 . S
C353 C351 1.419 . S
C353 C354 1.362 . S
C354 H346 0.930 . S
C354 C353 1.362 . S
C354 C357 1.409 . S
C355 H347 0.930 . S
C355 C356 1.355 . S
C355 C357 1.415 . S
C356 C355 1.355 . S
C356 C358 1.419 . S
C357 C352 1.425 . S
C357 C354 1.409 . S
C357 C355 1.415 . S
C358 H348 0.930 . S
C358 C356 1.419 . S
C358 C359 1.362 . S
C359 H349 0.930 . S
C359 C352 1.409 . S
C359 C358 1.362 . S
H360 C366 0.930 . S
H361 C369 0.930 . S
H362 C370 0.930 . S
H363 C371 0.930 . S
H364 C374 0.930 . S
H365 C375 0.930 . S
C366 H360 0.930 . S
C366 C367 1.355 . S
C366 C368 1.415 . S
C367 C366 1.355 . S
C367 C369 1.419 . S
C368 C366 1.415 . S
C368 C373 1.425 . S
C368 C375 1.409 . S
C369 H361 0.930 . S
C369 C367 1.419 . S
C369 C370 1.362 . S
C370 H362 0.930 . S
C370 C369 1.362 . S
C370 C373 1.409 . S
C371 H363 0.930 . S
C371 C372 1.355 1_554 S
C371 C373 1.415 . S
C372 C371 1.355 1_556 S
C372 C374 1.419 . S
C373 C368 1.425 . S
C373 C370 1.409 . S
C373 C371 1.415 . S
C374 H364 0.930 . S
C374 C372 1.419 . S
C374 C375 1.362 1_556 S
C375 H365 0.930 . S
C375 C368 1.409 . S
C375 C374 1.362 1_554 S
H376 C382 0.930 . S
H377 C385 0.930 . S
H378 C386 0.930 . S
H379 C387 0.930 . S
H380 C390 0.930 . S
H381 C391 0.930 . S
C382 H376 0.930 . S
C382 C383 1.355 1_455 S
C382 C384 1.415 . S
C383 C382 1.355 1_655 S
C383 C385 1.419 . S
C384 C382 1.415 . S
C384 C389 1.425 1_455 S
C384 C391 1.409 . S
C385 H377 0.930 . S
C385 C383 1.419 . S
C385 C386 1.362 . S
C386 H378 0.930 . S
C386 C385 1.362 . S
C386 C389 1.409 . S
C387 H379 0.930 . S
C387 C388 1.355 1_655 S
C387 C389 1.415 . S
C388 C387 1.355 1_455 S
C388 C390 1.419 . S
C389 C384 1.425 1_655 S
C389 C386 1.409 . S
C389 C387 1.415 . S
C390 H380 0.930 . S
C390 C388 1.419 . S
C390 C391 1.362 . S
C391 H381 0.930 . S
C391 C384 1.409 . S
C391 C390 1.362 . S
H392 C398 0.930 . S
H393 C401 0.930 . S
H394 C402 0.930 . S
H395 C403 0.930 . S
H396 C406 0.930 . S
H397 C407 0.930 1_455 S
C398 H392 0.930 . S
C398 C399 1.354 1_455 S
C398 C400 1.415 1_455 S
C399 C398 1.354 1_655 S
C399 C401 1.423 . S
C400 C398 1.415 1_655 S
C400 C405 1.425 . S
C400 C407 1.409 . S
C401 H393 0.930 . S
C401 C399 1.423 . S
C401 C402 1.362 . S
C402 H394 0.930 . S
C402 C401 1.362 . S
C402 C405 1.409 . S
C403 H395 0.930 . S
C403 C404 1.355 . S
C403 C405 1.415 . S
C404 C403 1.355 . S
C404 C406 1.419 . S
C405 C400 1.425 . S
C405 C402 1.409 . S
C405 C403 1.415 . S
C406 H396 0.930 . S
C406 C404 1.419 . S
C406 C407 1.362 . S
C407 H397 0.930 1_655 S
C407 C400 1.409 . S
C407 C406 1.362 . S
H408 C414 0.930 . S
H409 C417 0.930 . S
H410 C418 0.930 . S
H411 C419 0.930 . S
H412 C422 0.930 1_545 S
H413 C423 0.930 . S
C414 H408 0.930 . S
C414 C415 1.344 1_545 S
C414 C416 1.415 1_545 S
C415 C414 1.344 1_565 S
C415 C417 1.442 . S
C416 C414 1.415 1_565 S
C416 C421 1.425 . S
C416 C423 1.409 1_565 S
C417 H409 0.930 . S
C417 C415 1.442 . S
C417 C418 1.362 . S
C418 H410 0.930 . S
C418 C417 1.362 . S
C418 C421 1.409 . S
C419 H411 0.930 . S
C419 C420 1.355 . S
C419 C421 1.415 . S
C420 C419 1.355 . S
C420 C422 1.419 . S
C421 C416 1.425 . S
C421 C418 1.409 . S
C421 C419 1.415 . S
C422 H412 0.930 1_565 S
C422 C420 1.419 . S
C422 C423 1.362 1_565 S
C423 H413 0.930 . S
C423 C416 1.409 1_545 S
C423 C422 1.362 1_545 S
H424 C430 0.930 . S
H425 C433 0.930 . S
H426 C434 0.930 . S
H427 C435 0.930 . S
H428 C438 0.930 . S
H429 C439 0.930 . S
C430 H424 0.930 . S
C430 C431 1.355 . S
C430 C432 1.415 . S
C431 C430 1.355 . S
C431 C433 1.419 . S
C432 C430 1.415 . S
C432 C437 1.425 . S
C432 C439 1.409 . S
C433 H425 0.930 . S
C433 C431 1.419 . S
C433 C434 1.362 . S
C434 H426 0.930 . S
C434 C433 1.362 . S
C434 C437 1.409 . S
C435 H427 0.930 . S
C435 C436 1.355 . S
C435 C437 1.415 . S
C436 C435 1.355 . S
C436 C438 1.419 . S
C437 C432 1.425 . S
C437 C434 1.409 . S
C437 C435 1.415 . S
C438 H428 0.930 . S
C438 C436 1.419 . S
C438 C439 1.362 . S
C439 H429 0.930 . S
C439 C432 1.409 . S
C439 C438 1.362 . S
H440 C446 0.930 . S
H441 C449 0.930 . S
H442 C450 0.930 . S
H443 C451 0.930 . S
H444 C454 0.930 . S
H445 C455 0.930 . S
C446 H440 0.930 . S
C446 C447 1.355 . S
C446 C448 1.415 . S
C447 C446 1.355 . S
C447 C449 1.419 . S
C448 C446 1.415 . S
C448 C453 1.425 . S
C448 C455 1.409 . S
C449 H441 0.930 . S
C449 C447 1.419 . S
C449 C450 1.362 . S
C450 H442 0.930 . S
C450 C449 1.362 . S
C450 C453 1.409 . S
C451 H443 0.930 . S
C451 C452 1.355 . S
C451 C453 1.415 . S
C452 C451 1.355 . S
C452 C454 1.419 . S
C453 C448 1.425 . S
C453 C450 1.409 . S
C453 C451 1.415 . S
C454 H444 0.930 . S
C454 C452 1.419 . S
C454 C455 1.362 . S
C455 H445 0.930 . S
C455 C448 1.409 . S
C455 C454 1.362 . S
H456 C462 0.930 . S
H457 C465 0.930 . S
H458 C466 0.930 . S
H459 C467 0.930 . S
H460 C470 0.930 . S
H461 C471 0.930 . S
C462 H456 0.930 . S
C462 C463 1.355 1_455 S
C462 C464 1.415 . S
C463 C462 1.355 1_655 S
C463 C465 1.419 . S
C464 C462 1.415 . S
C464 C469 1.425 . S
C464 C471 1.409 . S
C465 H457 0.930 . S
C465 C463 1.419 . S
C465 C466 1.362 1_655 S
C466 H458 0.930 . S
C466 C465 1.362 1_455 S
C466 C469 1.409 . S
C467 H459 0.930 . S
C467 C468 1.355 . S
C467 C469 1.415 . S
C468 C467 1.355 . S
C468 C470 1.419 . S
C469 C464 1.425 . S
C469 C466 1.409 . S
C469 C467 1.415 . S
C470 H460 0.930 . S
C470 C468 1.419 . S
C470 C471 1.362 . S
C471 H461 0.930 . S
C471 C464 1.409 . S
C471 C470 1.362 . S
H472 C478 0.930 . S
H473 C481 0.930 . S
H474 C482 0.930 . S
H475 C483 0.930 . S
H476 C486 0.930 . S
H477 C487 0.930 1_565 S
C478 H472 0.930 . S
C478 C479 1.353 1_565 S
C478 C480 1.415 1_565 S
C479 C478 1.353 1_545 S
C479 C481 1.430 . S
C480 C478 1.415 1_545 S
C480 C485 1.425 . S
C480 C487 1.409 . S
C481 H473 0.930 . S
C481 C479 1.430 . S
C481 C482 1.362 . S
C482 H474 0.930 . S
C482 C481 1.362 . S
C482 C485 1.409 . S
C483 H475 0.930 . S
C483 C484 1.355 . S
C483 C485 1.415 . S
C484 C483 1.355 . S
C484 C486 1.419 . S
C485 C480 1.425 . S
C485 C482 1.409 . S
C485 C483 1.415 . S
C486 H476 0.930 . S
C486 C484 1.419 . S
C486 C487 1.362 . S
C487 H477 0.930 1_545 S
C487 C480 1.409 . S
C487 C486 1.362 . S
H488 C494 0.930 . S
H489 C497 0.930 . S
H490 C498 0.930 . S
H491 C499 0.930 . S
H492 C502 0.930 . S
H493 C503 0.930 . S
C494 H488 0.930 . S
C494 C495 1.355 . S
C494 C496 1.415 . S
C495 C494 1.355 . S
C495 C497 1.419 . S
C496 C494 1.415 . S
C496 C501 1.425 . S
C496 C503 1.409 . S
C497 H489 0.930 . S
C497 C495 1.419 . S
C497 C498 1.362 . S
C498 H490 0.930 . S
C498 C497 1.362 . S
C498 C501 1.409 . S
C499 H491 0.930 . S
C499 C500 1.355 . S
C499 C501 1.415 . S
C500 C499 1.355 . S
C500 C502 1.419 . S
C501 C496 1.425 . S
C501 C498 1.409 . S
C501 C499 1.415 . S
C502 H492 0.930 . S
C502 C500 1.419 . S
C502 C503 1.362 . S
C503 H493 0.930 . S
C503 C496 1.409 . S
C503 C502 1.362 . S
H504 C510 0.930 . S
H505 C513 0.930 . S
H506 C514 0.930 . S
H507 C515 0.930 . S
H508 C518 0.930 . S
H509 C519 0.930 . S
C510 H504 0.930 . S
C510 C511 1.355 . S
C510 C512 1.415 . S
C511 C510 1.355 . S
C511 C513 1.419 . S
C512 C510 1.415 . S
C512 C517 1.425 . S
C512 C519 1.409 . S
C513 H505 0.930 . S
C513 C511 1.419 . S
C513 C514 1.362 . S
C514 H506 0.930 . S
C514 C513 1.362 . S
C514 C517 1.409 . S
C515 H507 0.930 . S
C515 C516 1.355 . S
C515 C517 1.415 . S
C516 C515 1.355 . S
C516 C518 1.419 . S
C517 C512 1.425 . S
C517 C514 1.409 . S
C517 C515 1.415 . S
C518 H508 0.930 . S
C518 C516 1.419 . S
C518 C519 1.362 . S
C519 H509 0.930 . S
C519 C512 1.409 . S
C519 C518 1.362 . S
H520 C526 0.930 1_554 S
H521 C529 0.930 . S
H522 C530 0.930 . S
H523 C531 0.930 . S
H524 C534 0.930 1_554 S
H525 C535 0.930 1_554 S
C526 H520 0.930 1_556 S
C526 C527 1.355 1_655 S
C526 C528 1.420 . S
C527 C526 1.355 1_455 S
C527 C529 1.419 . S
C528 C526 1.420 . S
C528 C533 1.407 1_655 S
C528 C535 1.423 . S
C529 H521 0.930 . S
C529 C527 1.419 . S
C529 C530 1.362 . S
C530 H522 0.930 . S
C530 C529 1.362 . S
C530 C533 1.409 . S
C531 H523 0.930 . S
C531 C532 1.355 . S
C531 C533 1.415 . S
C532 C531 1.355 . S
C532 C534 1.419 1_455 S
C533 C528 1.407 1_455 S
C533 C530 1.409 . S
C533 C531 1.415 . S
C534 H524 0.930 1_556 S
C534 C532 1.419 1_655 S
C534 C535 1.362 . S
C535 H525 0.930 1_556 S
C535 C528 1.423 . S
C535 C534 1.362 . S
H536 C542 0.930 . S
H537 C545 0.930 . S
H538 C546 0.930 . S
H539 C547 0.930 . S
H540 C550 0.930 . S
H541 C551 0.930 . S
C542 H536 0.930 . S
C542 C543 1.354 . S
C542 C544 1.415 . S
C543 C542 1.354 . S
C543 C545 1.420 1_545 S
C544 C542 1.415 . S
C544 C549 1.425 1_545 S
C544 C551 1.409 . S
C545 H537 0.930 . S
C545 C543 1.420 1_565 S
C545 C546 1.362 . S
C546 H538 0.930 . S
C546 C545 1.362 . S
C546 C549 1.409 . S
C547 H539 0.930 . S
C547 C548 1.355 1_565 S
C547 C549 1.415 . S
C548 C547 1.355 1_545 S
C548 C550 1.419 . S
C549 C544 1.425 1_565 S
C549 C546 1.409 . S
C549 C547 1.415 . S
C550 H540 0.930 . S
C550 C548 1.419 . S
C550 C551 1.362 . S
C551 H541 0.930 . S
C551 C544 1.409 . S
C551 C550 1.362 . S
H552 C558 0.930 . S
H553 C561 0.930 1_554 S
H554 C562 0.930 . S
H555 C563 0.930 1_554 S
H556 C566 0.930 . S
H557 C567 0.930 . S
C558 H552 0.930 . S
C558 C559 1.355 . S
C558 C560 1.415 . S
C559 C558 1.355 . S
C559 C561 1.419 . S
C560 C558 1.415 . S
C560 C565 1.425 . S
C560 C567 1.409 . S
C561 H553 0.930 1_556 S
C561 C559 1.419 . S
C561 C562 1.362 1_556 S
C562 H554 0.930 . S
C562 C561 1.362 1_554 S
C562 C565 1.409 1_554 S
C563 H555 0.930 1_556 S
C563 C564 1.355 . S
C563 C565 1.415 . S
C564 C563 1.355 . S
C564 C566 1.419 . S
C565 C560 1.425 . S
C565 C562 1.409 1_556 S
C565 C563 1.415 . S
C566 H556 0.930 . S
C566 C564 1.419 . S
C566 C567 1.362 . S
C567 H557 0.930 . S
C567 C560 1.409 . S
C567 C566 1.362 . S
H568 C574 0.930 . S
H569 C577 0.930 . S
H570 C578 0.930 . S
H571 C579 0.930 . S
H572 C582 0.930 . S
H573 C583 0.930 . S
C574 H568 0.930 . S
C574 C575 1.355 . S
C574 C576 1.415 . S
C575 C574 1.355 . S
C575 C577 1.419 . S
C576 C574 1.415 . S
C576 C581 1.425 . S
C576 C583 1.409 . S
C577 H569 0.930 . S
C577 C575 1.419 . S
C577 C578 1.362 . S
C578 H570 0.930 . S
C578 C577 1.362 . S
C578 C581 1.409 . S
C579 H571 0.930 . S
C579 C580 1.355 . S
C579 C581 1.415 . S
C580 C579 1.355 . S
C580 C582 1.419 . S
C581 C576 1.425 . S
C581 C578 1.409 . S
C581 C579 1.415 . S
C582 H572 0.930 . S
C582 C580 1.419 . S
C582 C583 1.362 . S
C583 H573 0.930 . S
C583 C576 1.409 . S
C583 C582 1.362 . S
H584 C590 0.930 . S
H585 C593 0.930 . S
H586 C594 0.930 . S
H587 C595 0.930 . S
H588 C598 0.930 . S
H589 C599 0.930 . S
C590 H584 0.930 . S
C590 C591 1.348 1_655 S
C590 C592 1.415 . S
C591 C590 1.348 1_455 S
C591 C593 1.427 . S
C592 C590 1.415 . S
C592 C597 1.425 1_655 S
C592 C599 1.409 . S
C593 H585 0.930 . S
C593 C591 1.427 . S
C593 C594 1.362 . S
C594 H586 0.930 . S
C594 C593 1.362 . S
C594 C597 1.409 . S
C595 H587 0.930 . S
C595 C596 1.355 1_455 S
C595 C597 1.415 . S
C596 C595 1.355 1_655 S
C596 C598 1.419 . S
C597 C592 1.425 1_455 S
C597 C594 1.409 . S
C597 C595 1.415 . S
C598 H588 0.930 . S
C598 C596 1.419 . S
C598 C599 1.362 . S
C599 H589 0.930 . S
C599 C592 1.409 . S
C599 C598 1.362 . S
H600 C606 0.930 . S
H601 C609 0.930 . S
H602 C610 0.930 . S
H603 C611 0.930 . S
H604 C614 0.930 . S
H605 C615 0.930 . S
C606 H600 0.930 . S
C606 C607 1.355 . S
C606 C608 1.415 . S
C607 C606 1.355 . S
C607 C609 1.419 1_565 S
C608 C606 1.415 . S
C608 C613 1.425 1_565 S
C608 C615 1.409 . S
C609 H601 0.930 . S
C609 C607 1.419 1_545 S
C609 C610 1.362 . S
C610 H602 0.930 . S
C610 C609 1.362 . S
C610 C613 1.409 . S
C611 H603 0.930 . S
C611 C612 1.355 1_545 S
C611 C613 1.415 . S
C612 C611 1.355 1_565 S
C612 C614 1.419 . S
C613 C608 1.425 1_545 S
C613 C610 1.409 . S
C613 C611 1.415 . S
C614 H604 0.930 . S
C614 C612 1.419 . S
C614 C615 1.362 . S
C615 H605 0.930 . S
C615 C608 1.409 . S
C615 C614 1.362 . S
H616 C622 0.930 . S
H617 C625 0.930 . S
H618 C626 0.930 . S
H619 C627 0.930 . S
H620 C630 0.930 . S
H621 C631 0.930 . S
C622 H616 0.930 . S
C622 C623 1.355 . S
C622 C624 1.415 . S
C623 C622 1.355 . S
C623 C625 1.419 . S
C624 C622 1.415 . S
C624 C629 1.425 . S
C624 C631 1.409 . S
C625 H617 0.930 . S
C625 C623 1.419 . S
C625 C626 1.362 . S
C626 H618 0.930 . S
C626 C625 1.362 . S
C626 C629 1.409 . S
C627 H619 0.930 . S
C627 C628 1.355 . S
C627 C629 1.415 . S
C628 C627 1.355 . S
C628 C630 1.419 . S
C629 C624 1.425 . S
C629 C626 1.409 . S
C629 C627 1.415 . S
C630 H620 0.930 . S
C630 C628 1.419 . S
C630 C631 1.362 . S
C631 H621 0.930 . S
C631 C624 1.409 . S
C631 C630 1.362 . S
H632 C638 0.930 . S
H633 C641 0.930 . S
H634 C642 0.930 . S
H635 C643 0.930 . S
H636 C646 0.930 . S
H637 C647 0.930 . S
C638 H632 0.930 . S
C638 C639 1.355 . S
C638 C640 1.415 . S
C639 C638 1.355 . S
C639 C641 1.419 . S
C640 C638 1.415 . S
C640 C645 1.425 . S
C640 C647 1.409 . S
C641 H633 0.930 . S
C641 C639 1.419 . S
C641 C642 1.362 . S
C642 H634 0.930 . S
C642 C641 1.362 . S
C642 C645 1.409 . S
C643 H635 0.930 . S
C643 C644 1.355 . S
C643 C645 1.415 . S
C644 C643 1.355 . S
C644 C646 1.419 . S
C645 C640 1.425 . S
C645 C642 1.409 . S
C645 C643 1.415 . S
C646 H636 0.930 . S
C646 C644 1.419 . S
C646 C647 1.362 . S
C647 H637 0.930 . S
C647 C640 1.409 . S
C647 C646 1.362 . S
C271 C82 1.747 1_565 S
C276 C113 2.026 1_545 S
C292 C153 2.040 . S
C287 C95 1.721 . S
C308 C193 2.052 . S
C303 C56 1.703 . S
C324 C233 2.036 . S
C319 C69 1.684 . S
C340 C122 2.026 1_554 S
C335 C30 1.694 1_565 S
C351 C43 1.712 . S
C356 C162 2.058 1_554 S
C367 C4 1.791 . S
C372 C202 2.051 . S
C383 C17 1.697 1_655 S
C388 C242 2.039 1_554 S
C404 C119 0.532 . S
C399 C74 0.600 1_655 S
C420 C159 0.539 . S
C415 C87 0.524 1_565 S
C436 C199 0.530 . S
C431 C100 0.574 . S
C447 C61 0.634 . S
C452 C239 0.679 . S
C463 C22 0.689 1_655 S
C468 C110 0.643 . S
C484 C150 0.548 . S
C479 C35 0.521 . S
C500 C190 0.683 . S
C495 C48 0.690 . S
C511 C9 0.589 . S
C516 C230 0.659 . S
C527 C73 2.168 . S
C532 C123 2.387 . S
C543 C86 2.116 . S
C548 C163 2.373 . S
C564 C203 2.344 . S
C559 C99 2.038 . S
C580 C243 2.366 . S
C575 C60 2.108 . S
C591 C21 2.148 . S
C596 C114 2.426 . S
C612 C154 2.362 . S
C607 C34 2.057 1_565 S
C628 C194 2.324 . S
C623 C47 2.107 . S
C639 C8 2.111 . S
C644 C234 2.403 . S
