# Generated by pormake.
# Topology nom, (4,4)-cn, num edge types: 1
# Building blocks:
#     Node 0, Type 0, BuildingBlock: NAWXER_clean_linker_0, # of connection points: 4
#     Node 1, Type 0, BuildingBlock: NAWXER_clean_linker_0, # of connection points: 4
#     Node 2, Type 0, BuildingBlock: NAWXER_clean_linker_0, # of connection points: 4
#     Node 3, Type 0, BuildingBlock: NAWXER_clean_linker_0, # of connection points: 4
#     Node 4, Type 0, BuildingBlock: NAWXER_clean_linker_0, # of connection points: 4
#     Node 5, Type 0, BuildingBlock: NAWXER_clean_linker_0, # of connection points: 4
#     Node 6, Type 1, BuildingBlock: AZAVOO_clean_sbu_0, # of connection points: 4
#     Node 7, Type 1, BuildingBlock: AZAVOO_clean_sbu_0, # of connection points: 4
#     Node 8, Type 1, BuildingBlock: AZAVOO_clean_sbu_0, # of connection points: 4
#     Node 9, Type 1, BuildingBlock: AZAVOO_clean_sbu_0, # of connection points: 4
#     Node 10, Type 1, BuildingBlock: AZAVOO_clean_sbu_0, # of connection points: 4
#     Node 11, Type 1, BuildingBlock: AZAVOO_clean_sbu_0, # of connection points: 4
#     Edge 12, Type (0, 1), BuildingBlock: UVAHIK_clean_linker_0, # of connection points: 2
#     Edge 13, Type (0, 1), BuildingBlock: UVAHIK_clean_linker_0, # of connection points: 2
#     Edge 14, Type (0, 1), BuildingBlock: UVAHIK_clean_linker_0, # of connection points: 2
#     Edge 15, Type (0, 1), BuildingBlock: UVAHIK_clean_linker_0, # of connection points: 2
#     Edge 16, Type (0, 1), BuildingBlock: UVAHIK_clean_linker_0, # of connection points: 2
#     Edge 17, Type (0, 1), BuildingBlock: UVAHIK_clean_linker_0, # of connection points: 2
#     Edge 18, Type (0, 1), BuildingBlock: UVAHIK_clean_linker_0, # of connection points: 2
#     Edge 19, Type (0, 1), BuildingBlock: UVAHIK_clean_linker_0, # of connection points: 2
#     Edge 20, Type (0, 1), BuildingBlock: UVAHIK_clean_linker_0, # of connection points: 2
#     Edge 21, Type (0, 1), BuildingBlock: UVAHIK_clean_linker_0, # of connection points: 2
#     Edge 22, Type (0, 1), BuildingBlock: UVAHIK_clean_linker_0, # of connection points: 2
#     Edge 23, Type (0, 1), BuildingBlock: UVAHIK_clean_linker_0, # of connection points: 2
#     Edge 24, Type (0, 1), BuildingBlock: UVAHIK_clean_linker_0, # of connection points: 2
#     Edge 25, Type (0, 1), BuildingBlock: UVAHIK_clean_linker_0, # of connection points: 2
#     Edge 26, Type (0, 1), BuildingBlock: UVAHIK_clean_linker_0, # of connection points: 2
#     Edge 27, Type (0, 1), BuildingBlock: UVAHIK_clean_linker_0, # of connection points: 2
#     Edge 28, Type (0, 1), BuildingBlock: UVAHIK_clean_linker_0, # of connection points: 2
#     Edge 29, Type (0, 1), BuildingBlock: UVAHIK_clean_linker_0, # of connection points: 2
#     Edge 30, Type (0, 1), BuildingBlock: UVAHIK_clean_linker_0, # of connection points: 2
#     Edge 31, Type (0, 1), BuildingBlock: UVAHIK_clean_linker_0, # of connection points: 2
#     Edge 32, Type (0, 1), BuildingBlock: UVAHIK_clean_linker_0, # of connection points: 2
#     Edge 33, Type (0, 1), BuildingBlock: UVAHIK_clean_linker_0, # of connection points: 2
#     Edge 34, Type (0, 1), BuildingBlock: UVAHIK_clean_linker_0, # of connection points: 2
#     Edge 35, Type (0, 1), BuildingBlock: UVAHIK_clean_linker_0, # of connection points: 2
# Relax obj value: 0.043
# Max RMSD: 0.156
# Mean RMSD: 0.129
data_MOF--net-nom--node1-AZAVOO_clean_sbu_0--node2-NAWXER_clean_linker_0--edge1-UVAHIK_clean_linker_0
_symmetry_space_group_name_H-M    P1
_symmetry_Int_Tables_number       1
_symmetry_cell_setting            triclinic
loop_
_symmetry_equiv_pos_as_xyz
'x, y, z'
_cell_length_a     65.075999
_cell_length_b     65.60416
_cell_length_c     69.972912
_cell_angle_alpha  90.857065
_cell_angle_beta   91.023157
_cell_angle_gamma 120.02297
loop_
_atom_site_label
_atom_site_type_symbol
_atom_site_fract_x
_atom_site_fract_y
_atom_site_fract_z
_atom_type_partial_charge
C0 C 0.92438 0.48362 0.34611 0.0
C1 C 0.91468 0.46625 0.35997 0.0
C2 C 0.94605 0.48953 0.33813 0.0
C3 C 0.9584 0.47804 0.34372 0.0
C4 C 0.92683 0.45448 0.36539 0.0
C5 C 0.9487 0.46054 0.35746 0.0
C6 C 0.98253 0.48626 0.3368 0.0
C7 C 0.93394 0.45194 0.28562 0.0
C8 C 0.93572 0.46768 0.27141 0.0
C9 C 0.95084 0.4593 0.30062 0.0
C10 C 0.96993 0.48254 0.30172 0.0
C11 C 0.9549 0.49097 0.27263 0.0
C12 C 0.97191 0.49823 0.28752 0.0
C13 C 0.9882 0.49041 0.31733 0.0
C14 C 0.09549 0.5341 0.32056 0.0
C15 C 0.1015 0.55416 0.30979 0.0
C16 C 0.07189 0.5189 0.32526 0.0
C17 C 0.05403 0.52379 0.31953 0.0
C18 C 0.08335 0.55825 0.30328 0.0
C19 C 0.05985 0.54316 0.30804 0.0
C20 C 0.02942 0.50967 0.326 0.0
C21 C 0.07621 0.54455 0.37842 0.0
C22 C 0.07486 0.52873 0.39239 0.0
C23 C 0.05961 0.53693 0.3632 0.0
C24 C 0.04169 0.51318 0.3613 0.0
C25 C 0.05648 0.5051 0.39068 0.0
C26 C 0.04009 0.49744 0.37532 0.0
C27 C 0.02371 0.50481 0.34544 0.0
H28 H 0.91527 0.49281 0.34152 0.0
H29 H 0.95349 0.5036 0.32801 0.0
H30 H 0.91977 0.44111 0.37612 0.0
H31 H 0.95816 0.45176 0.36218 0.0
H32 H 0.91977 0.43375 0.28498 0.0
H33 H 0.9492 0.44671 0.31118 0.0
H34 H 0.95671 0.50372 0.26217 0.0
H35 H 0.98649 0.51625 0.28809 0.0
H36 H 0.10905 0.53029 0.3255 0.0
H37 H 0.06768 0.50369 0.33374 0.0
H38 H 0.08739 0.57366 0.29512 0.0
H39 H 0.04634 0.5472 0.3034 0.0
H40 H 0.09015 0.56283 0.37917 0.0
H41 H 0.06075 0.54965 0.35297 0.0
H42 H 0.05445 0.49252 0.40137 0.0
H43 H 0.02612 0.47916 0.37437 0.0
N44 N 0.00046 0.4933 0.35005 0.0
N45 N 0.01144 0.50224 0.31271 0.0
C46 C 0.43822 0.92783 0.50022 0.0
C47 C 0.44422 0.91706 0.51479 0.0
C48 C 0.45443 0.95057 0.49474 0.0
C49 C 0.47716 0.96295 0.50348 0.0
C50 C 0.46688 0.92959 0.52374 0.0
C51 C 0.48316 0.95243 0.51822 0.0
C52 C 0.49409 0.98721 0.49773 0.0
C53 C 0.4862 0.94007 0.44795 0.0
C54 C 0.47777 0.94433 0.43074 0.0
C55 C 0.49292 0.95603 0.46343 0.0
C56 C 0.49063 0.9762 0.46219 0.0
C57 C 0.47597 0.96471 0.42932 0.0
C58 C 0.48228 0.98046 0.44491 0.0
C59 C 0.4981 0.99358 0.47838 0.0
C60 C 0.55955 0.09987 0.48164 0.0
C61 C 0.54655 0.10445 0.46779 0.0
C62 C 0.55064 0.07708 0.48848 0.0
C63 C 0.52839 0.05871 0.48184 0.0
C64 C 0.52435 0.08602 0.46125 0.0
C65 C 0.51543 0.06343 0.46815 0.0
C66 C 0.51847 0.03418 0.48811 0.0
C67 C 0.52775 0.07703 0.54253 0.0
C68 C 0.54515 0.07722 0.55493 0.0
C69 C 0.51846 0.0611 0.52693 0.0
C70 C 0.52636 0.04507 0.5235 0.0
C71 C 0.55304 0.06114 0.55125 0.0
C72 C 0.54355 0.04508 0.53583 0.0
C73 C 0.51644 0.02775 0.50743 0.0
H74 H 0.42101 0.91862 0.49293 0.0
H75 H 0.44912 0.95854 0.4837 0.0
H76 H 0.4719 0.92188 0.5352 0.0
H77 H 0.50047 0.96181 0.52535 0.0
H78 H 0.48816 0.92469 0.44926 0.0
H79 H 0.50025 0.95274 0.47624 0.0
H80 H 0.46949 0.96836 0.41618 0.0
H81 H 0.48056 0.99596 0.44346 0.0
H82 H 0.57682 0.11375 0.48678 0.0
H83 H 0.56131 0.07379 0.49864 0.0
H84 H 0.51378 0.08908 0.45079 0.0
H85 H 0.49824 0.04958 0.4628 0.0
H86 H 0.52093 0.08885 0.54506 0.0
H87 H 0.50493 0.06111 0.51769 0.0
H88 H 0.56672 0.06102 0.56021 0.0
H89 H 0.54985 0.03281 0.53337 0.0
N90 N 0.50403 0.00449 0.51155 0.0
N91 N 0.50957 0.01682 0.47436 0.0
C92 C 0.57486 0.49705 0.58526 0.0
C93 C 0.55808 0.48591 0.57023 0.0
C94 C 0.56932 0.50619 0.60127 0.0
C95 C 0.54664 0.50369 0.60275 0.0
C96 C 0.53557 0.4837 0.57157 0.0
C97 C 0.52989 0.49244 0.5877 0.0
C98 C 0.54046 0.51376 0.61931 0.0
C99 C 0.55519 0.46006 0.64495 0.0
C100 C 0.57511 0.46929 0.65751 0.0
C101 C 0.54635 0.47428 0.63849 0.0
C102 C 0.55735 0.49809 0.64432 0.0
C103 C 0.58611 0.49318 0.66331 0.0
C104 C 0.57719 0.5074 0.65688 0.0
C105 C 0.54704 0.51269 0.63845 0.0
C106 C 0.48992 0.54277 0.68443 0.0
C107 C 0.50699 0.55811 0.69813 0.0
C108 C 0.49672 0.53496 0.66836 0.0
C109 C 0.52079 0.54273 0.66544 0.0
C110 C 0.53106 0.56557 0.69529 0.0
C111 C 0.53785 0.55785 0.67914 0.0
C112 C 0.52816 0.53393 0.64886 0.0
C113 C 0.49245 0.57261 0.62572 0.0
C114 C 0.47236 0.55815 0.61398 0.0
C115 C 0.50863 0.56527 0.6307 0.0
C116 C 0.5048 0.54323 0.62418 0.0
C117 C 0.46924 0.53661 0.60686 0.0
C118 C 0.48527 0.52927 0.61189 0.0
C119 C 0.52078 0.53422 0.62978 0.0
H120 H 0.59248 0.49931 0.58436 0.0
H121 H 0.58293 0.51557 0.61226 0.0
H122 H 0.52234 0.47514 0.56015 0.0
H123 H 0.51234 0.49041 0.58839 0.0
H124 H 0.54592 0.44163 0.64056 0.0
H125 H 0.53056 0.46651 0.62929 0.0
H126 H 0.60159 0.50089 0.67286 0.0
H127 H 0.58577 0.52567 0.6617 0.0
H128 H 0.47125 0.53682 0.68606 0.0
H129 H 0.48313 0.5227 0.65831 0.0
H130 H 0.54462 0.57703 0.70571 0.0
H131 H 0.55648 0.56369 0.67734 0.0
H132 H 0.49537 0.58932 0.63141 0.0
H133 H 0.52394 0.57667 0.63977 0.0
H134 H 0.45428 0.52531 0.59742 0.0
H135 H 0.4821 0.51235 0.60645 0.0
N136 N 0.52737 0.52425 0.61582 0.0
N137 N 0.541 0.52316 0.65243 0.0
C138 C 0.91467 0.47297 0.82589 0.0
C139 C 0.90335 0.47793 0.81089 0.0
C140 C 0.93785 0.48935 0.83178 0.0
C141 C 0.95008 0.51131 0.8231 0.0
C142 C 0.91554 0.4999 0.80219 0.0
C143 C 0.93873 0.51643 0.80823 0.0
C144 C 0.97557 0.5275 0.82777 0.0
C145 C 0.9374 0.52128 0.88215 0.0
C146 C 0.94318 0.51055 0.89693 0.0
C147 C 0.95107 0.52866 0.86579 0.0
C148 C 0.97064 0.52529 0.86392 0.0
C149 C 0.96316 0.50784 0.8952 0.0
C150 C 0.97678 0.51521 0.87891 0.0
C151 C 0.9852 0.5325 0.84665 0.0
C152 C 0.09166 0.5876 0.83509 0.0
C153 C 0.09786 0.57461 0.84737 0.0
C154 C 0.06774 0.58023 0.83106 0.0
C155 C 0.04975 0.55971 0.83919 0.0
C156 C 0.07977 0.5547 0.85605 0.0
C157 C 0.05601 0.54739 0.85204 0.0
C158 C 0.0243 0.55041 0.8345 0.0
C159 C 0.05777 0.54683 0.77969 0.0
C160 C 0.05506 0.55946 0.76473 0.0
C161 C 0.04478 0.54261 0.79627 0.0
C162 C 0.02921 0.55141 0.79844 0.0
C163 C 0.03907 0.56783 0.76681 0.0
C164 C 0.02621 0.56375 0.78348 0.0
C165 C 0.01473 0.54635 0.81562 0.0
H166 H 0.90597 0.45598 0.83255 0.0
H167 H 0.94649 0.4844 0.84262 0.0
H168 H 0.90723 0.50418 0.79059 0.0
H169 H 0.94797 0.53306 0.80108 0.0
H170 H 0.92207 0.52355 0.88307 0.0
H171 H 0.9463 0.53691 0.85461 0.0
H172 H 0.96832 0.50003 0.90649 0.0
H173 H 0.99194 0.51265 0.8779 0.0
H174 H 0.10525 0.60305 0.82824 0.0
H175 H 0.06332 0.59032 0.82143 0.0
H176 H 0.08399 0.54462 0.86587 0.0
H177 H 0.04246 0.53165 0.85865 0.0
H178 H 0.07005 0.54028 0.77866 0.0
H179 H 0.0468 0.53232 0.80734 0.0
H180 H 0.03621 0.57724 0.75544 0.0
H181 H 0.0139 0.57024 0.7847 0.0
N182 N 0.99074 0.53505 0.81302 0.0
N183 N 0.00915 0.54347 0.84921 0.0
C184 C 0.46008 0.92205 -0.00192 0.0
C185 C 0.44535 0.90957 0.98218 0.0
C186 C 0.46563 0.94516 0.00226 0.0
C187 C 0.45639 0.95623 0.99074 0.0
C188 C 0.43564 0.92047 0.97095 0.0
C189 C 0.44124 0.94362 0.97512 0.0
C190 C 0.46483 0.98167 0.99348 0.0
C191 C 0.42409 0.94891 0.04612 0.0
C192 C 0.43798 0.95543 0.06315 0.0
C193 C 0.4336 0.96078 0.02927 0.0
C194 C 0.4572 0.97934 0.02912 0.0
C195 C 0.46154 0.97417 0.06294 0.0
C196 C 0.47098 0.98611 0.04613 0.0
C197 C 0.46727 0.99258 0.01158 0.0
C198 C 0.51702 0.09082 0.02141 0.0
C199 C 0.53963 0.10198 0.01341 0.0
C200 C 0.5 0.0679 0.01553 0.0
C201 C 0.50514 0.0558 0.00141 0.0
C202 C 0.54443 0.09013 -0.00119 0.0
C203 C 0.52746 0.06723 0.99298 0.0
C204 C 0.48866 0.03032 -0.00233 0.0
C205 C 0.50686 0.03814 0.92966 0.0
C206 C 0.50237 0.05671 0.92672 0.0
C207 C 0.50092 0.02611 0.9468 0.0
C208 C 0.4907 0.03265 0.96142 0.0
C209 C 0.49181 0.06302 0.94127 0.0
C210 C 0.486 0.05108 0.95846 0.0
C211 C 0.48398 0.01939 0.97931 0.0
H212 H 0.46773 0.9141 0.00706 0.0
H213 H 0.47795 0.95467 0.01405 0.0
H214 H 0.4245 0.91145 0.95845 0.0
H215 H 0.43418 0.95189 0.96587 0.0
H216 H 0.40576 0.93482 0.04585 0.0
H217 H 0.4224 0.95567 0.01643 0.0
H218 H 0.47287 0.97942 0.0757 0.0
H219 H 0.4892 0.00046 0.04636 0.0
H220 H 0.51284 0.09935 0.03283 0.0
H221 H 0.48305 0.05934 0.02245 0.0
H222 H 0.56158 0.09833 0.99222 0.0
H223 H 0.53229 0.05814 0.98253 0.0
H224 H 0.51473 0.03273 0.91862 0.0
H225 H 0.50447 0.0118 0.94869 0.0
H226 H 0.48826 0.07735 0.93943 0.0
H227 H 0.47762 0.05609 0.96935 0.0
N228 N 0.47274 0.99549 0.97798 0.0
N229 N 0.47958 0.01647 0.01302 0.0
C230 C 0.45474 0.56249 0.14353 0.0
C231 C 0.43839 0.55514 0.15829 0.0
C232 C 0.4622 0.54751 0.1361 0.0
C233 C 0.45305 0.52463 0.14295 0.0
C234 C 0.42902 0.53219 0.16504 0.0
C235 C 0.4363 0.51708 0.15743 0.0
C236 C 0.46339 0.50995 0.13711 0.0
C237 C 0.4306 0.51879 0.08331 0.0
C238 C 0.44717 0.53284 0.06978 0.0
C239 C 0.43772 0.51071 0.09905 0.0
C240 C 0.46152 0.5165 0.10152 0.0
C241 C 0.47094 0.53848 0.07223 0.0
C242 C 0.478 0.5302 0.08787 0.0
C243 C 0.46928 0.50798 0.11808 0.0
C244 C 0.51868 0.45074 0.12819 0.0
C245 C 0.54031 0.46583 0.11956 0.0
C246 C 0.50157 0.45747 0.13037 0.0
C247 C 0.50594 0.47954 0.12418 0.0
C248 C 0.54386 0.48717 0.11224 0.0
C249 C 0.52681 0.49391 0.11448 0.0
C250 C 0.48998 0.48872 0.12897 0.0
C251 C 0.52254 0.48097 0.1833 0.0
C252 C 0.50574 0.46484 0.19571 0.0
C253 C 0.51535 0.48955 0.168 0.0
C254 C 0.49115 0.48164 0.16452 0.0
C255 C 0.48166 0.45779 0.19276 0.0
C256 C 0.47443 0.46614 0.17727 0.0
C257 C 0.48322 0.48982 0.14788 0.0
H258 H 0.46267 0.58026 0.13836 0.0
H259 H 0.47599 0.55431 0.12564 0.0
H260 H 0.41637 0.5261 0.1764 0.0
H261 H 0.42928 0.49966 0.16318 0.0
H262 H 0.41217 0.51421 0.08179 0.0
H263 H 0.4246 0.49981 0.10923 0.0
H264 H 0.48402 0.54901 0.06189 0.0
H265 H 0.49641 0.53474 0.08942 0.0
H266 H 0.51538 0.43417 0.13396 0.0
H267 H 0.48534 0.44589 0.13757 0.0
H268 H 0.56009 0.49892 0.10512 0.0
H269 H 0.53043 0.51089 0.1094 0.0
H270 H 0.54127 0.48707 0.18551 0.0
H271 H 0.52868 0.50222 0.15879 0.0
H272 H 0.46837 0.44539 0.20215 0.0
H273 H 0.45571 0.46013 0.17501 0.0
N274 N 0.47024 0.50041 0.1512 0.0
N275 N 0.48271 0.4978 0.11479 0.0
Mg276 Mg 0.62255 0.37291 0.36833 0.0
O277 O 0.61523 0.39225 0.39259 0.0
O278 O 0.62938 0.42949 0.3838 0.0
Mg279 Mg 0.64683 0.43431 0.35504 0.0
C280 C 0.61885 0.41306 0.39567 0.0
C281 C 0.60712 0.3225 0.37847 0.0
O282 O 0.60605 0.32192 0.35968 0.0
O283 O 0.66116 0.39053 0.37814 0.0
O284 O 0.67512 0.4276 0.36908 0.0
O285 O 0.58863 0.36439 0.35309 0.0
O286 O 0.62304 0.39655 0.34867 0.0
C287 C 0.6781 0.41168 0.37677 0.0
C288 C 0.60055 0.38444 0.3449 0.0
O289 O 0.61338 0.34187 0.3873 0.0
Mg290 Mg 0.25857 0.6384 0.59596 0.0
O291 O 0.23496 0.61861 0.56956 0.0
O292 O 0.2147 0.58047 0.57665 0.0
Mg293 Mg 0.22359 0.57622 0.60755 0.0
C294 C 0.22012 0.59713 0.56502 0.0
C295 C 0.27389 0.6838 0.57237 0.0
O296 O 0.2518 0.67811 0.57537 0.0
O297 O 0.28285 0.62366 0.58988 0.0
O298 O 0.26153 0.58643 0.59904 0.0
O299 O 0.23016 0.64414 0.60756 0.0
O300 O 0.23393 0.61322 0.61367 0.0
C301 C 0.28063 0.60351 0.59275 0.0
C302 C 0.22209 0.62401 0.61563 0.0
O303 O 0.28147 0.67056 0.57849 0.0
Mg304 Mg 0.62118 0.2559 0.75847 0.0
O305 O 0.61967 0.23362 0.73228 0.0
O306 O 0.63495 0.21137 0.74153 0.0
Mg307 Mg 0.64597 0.21928 0.7732 0.0
C308 C 0.62551 0.21805 0.72875 0.0
C309 C 0.61997 0.29981 0.74757 0.0
O310 O 0.62796 0.30405 0.76541 0.0
O311 O 0.66086 0.27941 0.75598 0.0
O312 O 0.67538 0.25714 0.76677 0.0
O313 O 0.58549 0.22765 0.76707 0.0
O314 O 0.61934 0.23037 0.77663 0.0
C315 C 0.67834 0.27663 0.76052 0.0
C316 C 0.59648 0.21894 0.77653 0.0
O317 O 0.6148 0.28019 0.73967 0.0
Mg318 Mg 0.39323 0.6527 0.86848 0.0
O319 O 0.3947 0.63105 0.89349 0.0
O320 O 0.37674 0.59345 0.88318 0.0
Mg321 Mg 0.36572 0.59133 0.8517 0.0
C322 C 0.38739 0.60929 0.8963 0.0
C323 C 0.41999 0.69721 0.89739 0.0
O324 O 0.4385 0.6945 0.89515 0.0
O325 O 0.35371 0.6378 0.87206 0.0
O326 O 0.33764 0.60112 0.86003 0.0
O327 O 0.42825 0.65882 0.85823 0.0
O328 O 0.39352 0.62856 0.84916 0.0
C329 C 0.33565 0.61797 0.86737 0.0
C330 C 0.41632 0.63921 0.84848 0.0
O331 O 0.40048 0.68315 0.88874 0.0
Mg332 Mg 0.74727 0.38687 0.07022 0.0
O333 O 0.77022 0.39205 0.09727 0.0
O334 O 0.79337 0.37693 0.09028 0.0
Mg335 Mg 0.78715 0.36455 0.0589 0.0
C336 C 0.78612 0.38691 0.102 0.0
C337 C 0.72719 0.41323 0.09455 0.0
O338 O 0.74933 0.43036 0.09381 0.0
O339 O 0.72518 0.34743 0.07452 0.0
O340 O 0.74948 0.33461 0.06513 0.0
O341 O 0.77426 0.42204 0.05973 0.0
O342 O 0.77383 0.38884 0.05307 0.0
C343 C 0.72931 0.33072 0.07084 0.0
C344 C 0.78397 0.41132 0.05144 0.0
O345 O 0.72135 0.39327 0.08699 0.0
Mg346 Mg 0.3695 0.76098 0.23084 0.0
O347 O 0.39221 0.78446 0.25626 0.0
O348 O 0.4283 0.80889 0.2454 0.0
Mg349 Mg 0.42869 0.80099 0.21355 0.0
C350 C 0.41354 0.8013 0.2589 0.0
C351 C 0.32965 0.7415 0.26124 0.0
O352 O 0.33417 0.76339 0.26136 0.0
O353 O 0.38836 0.73998 0.23194 0.0
O354 O 0.42357 0.76426 0.21965 0.0
O355 O 0.35851 0.78709 0.22334 0.0
O356 O 0.39004 0.78715 0.21203 0.0
C357 C 0.40868 0.74435 0.22637 0.0
C358 C 0.37726 0.79706 0.21309 0.0
O359 O 0.34163 0.73561 0.25071 0.0
C360 C 0.1441 0.57882 0.3208 0.0
C361 C 0.12663 0.57155 0.30611 0.0
C362 C 0.16725 0.59705 0.31793 0.0
C363 C 0.19972 0.64887 0.28845 0.0
H364 H 0.2558 0.64696 0.30533 0.0
C365 C 0.29287 0.72845 0.27998 0.0
C366 C 0.30899 0.72317 0.27125 0.0
C367 C 0.27175 0.71048 0.28717 0.0
C368 C 0.24028 0.64774 0.30058 0.0
H369 H 0.12003 0.57676 0.2766 0.0
H370 H 0.16037 0.60856 0.27161 0.0
H371 H 0.21639 0.61347 0.31101 0.0
H372 H 0.31632 0.6951 0.26433 0.0
H373 H 0.27948 0.66382 0.27674 0.0
H374 H 0.22342 0.68277 0.27758 0.0
C375 C 0.15606 0.60049 0.28545 0.0
C376 C 0.21776 0.62865 0.30393 0.0
C377 C 0.13299 0.58227 0.2883 0.0
C378 C 0.3042 0.69975 0.27085 0.0
C379 C 0.28314 0.68182 0.27809 0.0
C380 C 0.22217 0.66795 0.28519 0.0
C381 C 0.17331 0.60838 0.30034 0.0
C382 C 0.19726 0.6289 0.29762 0.0
C383 C 0.26641 0.6869 0.28586 0.0
C384 C 0.2427 0.66749 0.29101 0.0
H385 H 0.13967 0.57108 0.33476 0.0
H386 H 0.18015 0.60285 0.32969 0.0
H387 H 0.18423 0.64971 0.28369 0.0
H388 H 0.29611 0.74633 0.28063 0.0
H389 H 0.25933 0.71496 0.29335 0.0
C390 C 0.56542 0.14843 0.47174 0.0
C391 C 0.55592 0.12817 0.45978 0.0
C392 C 0.57201 0.1704 0.46408 0.0
C393 C 0.55888 0.19561 0.42204 0.0
H394 H 0.61591 0.25359 0.43762 0.0
C395 C 0.59319 0.27947 0.37894 0.0
C396 C 0.60143 0.30098 0.38898 0.0
C397 C 0.58785 0.25907 0.38866 0.0
C398 C 0.59977 0.23756 0.43331 0.0
H399 H 0.54736 0.1152 0.43038 0.0
H400 H 0.559 0.15338 0.41703 0.0
H401 H 0.60694 0.21668 0.45267 0.0
H402 H 0.61069 0.318 0.41714 0.0
H403 H 0.60126 0.28216 0.43416 0.0
H404 H 0.55174 0.21628 0.40261 0.0
C405 C 0.56075 0.1523 0.43236 0.0
C406 C 0.59465 0.21646 0.44191 0.0
C407 C 0.55415 0.13044 0.43999 0.0
C408 C 0.60433 0.30167 0.40899 0.0
C409 C 0.59907 0.28121 0.41873 0.0
C410 C 0.564 0.21661 0.41346 0.0
C411 C 0.56924 0.17245 0.44433 0.0
C412 C 0.57433 0.19519 0.43613 0.0
C413 C 0.59066 0.25968 0.40865 0.0
C414 C 0.58466 0.23776 0.41878 0.0
H415 H 0.5669 0.14714 0.48706 0.0
H416 H 0.57844 0.18561 0.47367 0.0
H417 H 0.54276 0.17963 0.41761 0.0
H418 H 0.59084 0.27833 0.36352 0.0
H419 H 0.58174 0.24282 0.38045 0.0
C420 C 0.46083 0.58819 0.60493 0.0
C421 C 0.45424 0.56494 0.60948 0.0
C422 C 0.44349 0.59413 0.60028 0.0
C423 C 0.38072 0.56734 0.58384 0.0
H424 H 0.38391 0.6229 0.60709 0.0
C425 C 0.29889 0.57778 0.5919 0.0
C426 C 0.30127 0.60015 0.58993 0.0
C427 C 0.3187 0.57491 0.59113 0.0
C428 C 0.38296 0.60755 0.60019 0.0
H429 H 0.42428 0.52993 0.61343 0.0
H430 H 0.39423 0.54023 0.60532 0.0
H431 H 0.41683 0.61552 0.61208 0.0
H432 H 0.32634 0.63693 0.58487 0.0
H433 H 0.36096 0.63182 0.5835 0.0
H434 H 0.34664 0.55903 0.57235 0.0
C435 C 0.41275 0.55377 0.60488 0.0
C436 C 0.40181 0.60332 0.60307 0.0
C437 C 0.43 0.54788 0.60956 0.0
C438 C 0.32386 0.61945 0.58649 0.0
C439 C 0.34373 0.61658 0.58582 0.0
C440 C 0.36191 0.57155 0.58097 0.0
C441 C 0.41927 0.5769 0.60007 0.0
C442 C 0.40062 0.58287 0.5953 0.0
C443 C 0.3414 0.59433 0.58842 0.0
C444 C 0.36258 0.59141 0.58947 0.0
H445 H 0.47937 0.60168 0.60461 0.0
H446 H 0.44904 0.61209 0.59657 0.0
H447 H 0.37952 0.55167 0.57734 0.0
H448 H 0.28178 0.56251 0.59451 0.0
H449 H 0.31633 0.55757 0.59339 0.0
C450 C 0.86186 0.44576 0.81663 0.0
C451 C 0.87948 0.45953 0.80373 0.0
C452 C 0.84027 0.42677 0.81004 0.0
C453 C 0.80123 0.39972 0.76705 0.0
H454 H 0.77743 0.34293 0.7963 0.0
C455 C 0.72244 0.29492 0.76514 0.0
C456 C 0.70267 0.29729 0.76043 0.0
C457 C 0.74493 0.31481 0.76781 0.0
C458 C 0.78396 0.35851 0.78779 0.0
H459 H 0.88807 0.46464 0.77375 0.0
H460 H 0.85032 0.43134 0.7622 0.0
H461 H 0.81431 0.37783 0.80643 0.0
H462 H 0.69135 0.32247 0.75371 0.0
H463 H 0.73044 0.35707 0.75866 0.0
H464 H 0.77092 0.38015 0.74825 0.0
C465 C 0.85311 0.43539 0.77741 0.0
C466 C 0.80493 0.37867 0.79379 0.0
C467 C 0.87472 0.45447 0.78402 0.0
C468 C 0.70616 0.31995 0.75738 0.0
C469 C 0.72864 0.33985 0.76013 0.0
C470 C 0.7802 0.37949 0.76102 0.0
C471 C 0.83584 0.42103 0.79039 0.0
C472 C 0.8137 0.39959 0.78362 0.0
C473 C 0.74815 0.33753 0.76591 0.0
C474 C 0.77125 0.35869 0.7714 0.0
H475 H 0.8649 0.44948 0.83188 0.0
H476 H 0.82712 0.4164 0.82038 0.0
H477 H 0.80749 0.41558 0.75894 0.0
H478 H 0.72046 0.27774 0.76739 0.0
H479 H 0.75971 0.3124 0.77183 0.0
C480 C 0.46049 0.88157 0.97684 0.0
C481 C 0.44142 0.88594 0.97655 0.0
C482 C 0.45731 0.85996 0.97022 0.0
C483 C 0.41817 0.80984 0.93804 0.0
H484 H 0.45045 0.78006 0.96166 0.0
C485 C 0.40178 0.71962 0.91128 0.0
C486 C 0.42189 0.71721 0.90895 0.0
C487 C 0.40361 0.73917 0.92107 0.0
C488 C 0.44147 0.78827 0.95483 0.0
H489 H 0.40386 0.87071 0.96981 0.0
H490 H 0.39823 0.83286 0.95838 0.0
H491 H 0.4542 0.81587 0.97627 0.0
H492 H 0.45958 0.73315 0.91562 0.0
H493 H 0.4628 0.76749 0.93265 0.0
H494 H 0.40558 0.78243 0.91654 0.0
C495 C 0.41576 0.84633 0.96339 0.0
C496 C 0.4436 0.80877 0.9632 0.0
C497 C 0.41896 0.86798 0.96996 0.0
C498 C 0.44376 0.7345 0.91714 0.0
C499 C 0.44558 0.75411 0.92697 0.0
C500 C 0.416 0.78936 0.92972 0.0
C501 C 0.43498 0.84218 0.96318 0.0
C502 C 0.43203 0.81985 0.95485 0.0
C503 C 0.42558 0.75682 0.92878 0.0
C504 C 0.42767 0.77836 0.93798 0.0
H505 H 0.47811 0.89517 0.98155 0.0
H506 H 0.47257 0.8575 0.97001 0.0
H507 H 0.40941 0.81815 0.931 0.0
H508 H 0.3846 0.70655 0.90531 0.0
H509 H 0.38778 0.74052 0.92251 0.0
C510 C 0.55463 0.43696 0.11463 0.0
C511 C 0.55959 0.45999 0.119 0.0
C512 C 0.57298 0.43171 0.11413 0.0
C513 C 0.63758 0.45997 0.1082 0.0
H514 H 0.62994 0.40195 0.12845 0.0
C515 C 0.71444 0.44051 0.10833 0.0
C516 C 0.70861 0.41786 0.10174 0.0
C517 C 0.69659 0.44553 0.1129 0.0
C518 C 0.63229 0.41816 0.12264 0.0
H519 H 0.58757 0.49535 0.127 0.0
H520 H 0.61949 0.48623 0.12605 0.0
H521 H 0.59783 0.41081 0.13116 0.0
H522 H 0.67947 0.38241 0.09568 0.0
H523 H 0.64841 0.39123 0.10343 0.0
H524 H 0.67181 0.4672 0.09939 0.0
C525 C 0.60151 0.47232 0.12264 0.0
C526 C 0.61389 0.42321 0.12416 0.0
C527 C 0.58322 0.47756 0.12314 0.0
C528 C 0.6846 0.40007 0.10067 0.0
C529 C 0.66676 0.4051 0.10522 0.0
C530 C 0.65594 0.45492 0.10666 0.0
C531 C 0.59664 0.44939 0.11802 0.0
C532 C 0.61629 0.44413 0.11686 0.0
C533 C 0.67252 0.42801 0.11098 0.0
C534 C 0.65347 0.4339 0.11376 0.0
H535 H 0.53664 0.42309 0.11125 0.0
H536 H 0.56869 0.41393 0.11031 0.0
H537 H 0.63986 0.47606 0.10216 0.0
H538 H 0.73277 0.45457 0.10944 0.0
H539 H 0.70162 0.46326 0.11763 0.0
C540 C 0.43375 0.87622 0.52418 0.0
C541 C 0.42672 0.89291 0.52061 0.0
C542 C 0.41702 0.85328 0.52905 0.0
C543 C 0.35696 0.81815 0.54821 0.0
H544 H 0.35981 0.7652 0.52585 0.0
C545 C 0.28298 0.72252 0.5589 0.0
C546 C 0.29047 0.7065 0.56373 0.0
C547 C 0.2992 0.74482 0.5524 0.0
C548 C 0.35889 0.77981 0.53231 0.0
H549 H 0.39672 0.89874 0.51981 0.0
H550 H 0.36754 0.8587 0.52794 0.0
H551 H 0.38931 0.80524 0.51758 0.0
H552 H 0.32071 0.70101 0.56483 0.0
H553 H 0.34897 0.73992 0.5536 0.0
H554 H 0.32663 0.79278 0.563 0.0
C555 C 0.38598 0.86334 0.52711 0.0
C556 C 0.37582 0.80275 0.52762 0.0
C557 C 0.40267 0.88623 0.52224 0.0
C558 C 0.31435 0.71295 0.56127 0.0
C559 C 0.33055 0.73522 0.55473 0.0
C560 C 0.34005 0.79524 0.55288 0.0
C561 C 0.39293 0.84657 0.53051 0.0
C562 C 0.37506 0.82217 0.53553 0.0
C563 C 0.32324 0.75155 0.55053 0.0
C564 C 0.34083 0.77581 0.54501 0.0
H565 H 0.45211 0.88077 0.52289 0.0
H566 H 0.42299 0.84084 0.53179 0.0
H567 H 0.35609 0.83273 0.5548 0.0
H568 H 0.26469 0.71807 0.56054 0.0
H569 H 0.29296 0.75689 0.54898 0.0
C570 C 0.59065 0.45556 0.68452 0.0
C571 C 0.58356 0.45368 0.66517 0.0
C572 C 0.59697 0.43981 0.69208 0.0
C573 C 0.58627 0.37995 0.68457 0.0
H574 H 0.63934 0.40014 0.72056 0.0
C575 C 0.61082 0.31433 0.71742 0.0
C576 C 0.61725 0.31769 0.73698 0.0
C577 C 0.60834 0.33138 0.70754 0.0
C578 C 0.62433 0.39419 0.71066 0.0
H579 H 0.57853 0.43437 0.63842 0.0
H580 H 0.58928 0.40667 0.65172 0.0
H581 H 0.6325 0.42949 0.70527 0.0
H582 H 0.62606 0.34153 0.76151 0.0
H583 H 0.62126 0.37093 0.74443 0.0
H584 H 0.57768 0.34466 0.69029 0.0
C585 C 0.58968 0.4202 0.66105 0.0
C586 C 0.62047 0.41101 0.70188 0.0
C587 C 0.5835 0.43604 0.65346 0.0
C588 C 0.62118 0.33843 0.74643 0.0
C589 C 0.6186 0.3554 0.73659 0.0
C590 C 0.59004 0.36312 0.69344 0.0
C591 C 0.59623 0.42176 0.68049 0.0
C592 C 0.60127 0.40406 0.68889 0.0
C593 C 0.61216 0.3521 0.71702 0.0
C594 C 0.60896 0.37003 0.70675 0.0
H595 H 0.59055 0.46869 0.69402 0.0
H596 H 0.60165 0.44126 0.70717 0.0
H597 H 0.57114 0.37405 0.67481 0.0
H598 H 0.6078 0.29858 0.70971 0.0
H599 H 0.60363 0.32841 0.69242 0.0
C600 C 0.14069 0.60464 0.85462 0.0
C601 C 0.12298 0.58114 0.85081 0.0
C602 C 0.16414 0.61031 0.85861 0.0
C603 C 0.19939 0.5831 0.87439 0.0
H604 H 0.25192 0.63699 0.85145 0.0
C605 C 0.29139 0.59244 0.8664 0.0
C606 C 0.31161 0.61479 0.86942 0.0
C607 C 0.2687 0.58969 0.86674 0.0
C608 C 0.23747 0.62209 0.85821 0.0
H609 H 0.11611 0.54534 0.84737 0.0
H610 H 0.15686 0.55519 0.85414 0.0
H611 H 0.2116 0.62991 0.84658 0.0
H612 H 0.32378 0.65168 0.87571 0.0
H613 H 0.28404 0.64679 0.87621 0.0
H614 H 0.22517 0.57493 0.88557 0.0
C615 C 0.15262 0.56919 0.8546 0.0
C616 C 0.21438 0.61804 0.85542 0.0
C617 C 0.12927 0.56354 0.85067 0.0
C618 C 0.30858 0.63421 0.87331 0.0
C619 C 0.28585 0.63147 0.87349 0.0
C620 C 0.22242 0.5871 0.87711 0.0
C621 C 0.1703 0.59258 0.85882 0.0
C622 C 0.19504 0.59822 0.86317 0.0
C623 C 0.26571 0.60922 0.86999 0.0
C624 C 0.24164 0.60638 0.86876 0.0
H625 H 0.1363 0.61854 0.85493 0.0
H626 H 0.17735 0.62849 0.8619 0.0
H627 H 0.18493 0.56798 0.88091 0.0
H628 H 0.29305 0.57709 0.86342 0.0
H629 H 0.25351 0.57235 0.8638 0.0
C630 C 0.55382 0.14319 0.02602 0.0
C631 C 0.55866 0.12518 0.02112 0.0
C632 C 0.57186 0.16486 0.03351 0.0
C633 C 0.63697 0.20231 0.03539 0.0
H634 H 0.62623 0.2347 0.07746 0.0
C635 C 0.7138 0.28731 0.06815 0.0
C636 C 0.70943 0.30606 0.07085 0.0
C637 C 0.69503 0.2644 0.06477 0.0
C638 C 0.62945 0.22592 0.06563 0.0
H639 H 0.58606 0.11554 0.02089 0.0
H640 H 0.61743 0.15323 0.03378 0.0
H641 H 0.59392 0.19656 0.06556 0.0
H642 H 0.68175 0.31515 0.07337 0.0
H643 H 0.64904 0.27522 0.0672 0.0
H644 H 0.67226 0.23164 0.03515 0.0
C645 C 0.59982 0.15081 0.03151 0.0
C646 C 0.61095 0.20412 0.0588 0.0
C647 C 0.58184 0.12922 0.02407 0.0
C648 C 0.68577 0.30113 0.07133 0.0
C649 C 0.66698 0.2782 0.06783 0.0
C650 C 0.65539 0.22405 0.04217 0.0
C651 C 0.5951 0.16893 0.03623 0.0
C652 C 0.61454 0.19208 0.0436 0.0
C653 C 0.67145 0.25971 0.06389 0.0
C654 C 0.65189 0.23613 0.05738 0.0
H655 H 0.53617 0.14067 0.02381 0.0
H656 H 0.56773 0.17857 0.03681 0.0
H657 H 0.6402 0.19372 0.02343 0.0
H658 H 0.73178 0.29041 0.06793 0.0
H659 H 0.69904 0.25045 0.06226 0.0
C660 C 0.43367 0.57484 0.18747 0.0
C661 C 0.43267 0.57212 0.16746 0.0
C662 C 0.43107 0.59276 0.19606 0.0
C663 C 0.43774 0.65051 0.18501 0.0
H664 H 0.40414 0.64283 0.23196 0.0
C665 C 0.39586 0.70152 0.22805 0.0
C666 C 0.41398 0.72488 0.22549 0.0
C667 C 0.39959 0.68275 0.22389 0.0
C668 C 0.41356 0.64524 0.21883 0.0
H669 H 0.42685 0.58506 0.14078 0.0
H670 H 0.42184 0.61605 0.15573 0.0
H671 H 0.40575 0.60939 0.21785 0.0
H672 H 0.45088 0.74688 0.21818 0.0
H673 H 0.45755 0.71416 0.21138 0.0
H674 H 0.4448 0.68596 0.18546 0.0
C675 C 0.42529 0.60479 0.16481 0.0
C676 C 0.41464 0.62613 0.21083 0.0
C677 C 0.42803 0.58699 0.15623 0.0
C678 C 0.43644 0.7291 0.22005 0.0
C679 C 0.44022 0.71033 0.21603 0.0
C680 C 0.4366 0.66952 0.19293 0.0
C681 C 0.42734 0.60824 0.18479 0.0
C682 C 0.42652 0.6285 0.1937 0.0
C683 C 0.42158 0.68693 0.21722 0.0
C684 C 0.42434 0.6671 0.20985 0.0
H685 H 0.4375 0.56378 0.19646 0.0
H686 H 0.43292 0.59505 0.21148 0.0
H687 H 0.44743 0.65308 0.172 0.0
H688 H 0.37835 0.6976 0.23227 0.0
H689 H 0.3848 0.66498 0.22487 0.0
C690 C 0.87357 0.43753 0.37028 0.0
C691 C 0.89207 0.46089 0.36878 0.0
C692 C 0.85132 0.4328 0.37647 0.0
C693 C 0.81486 0.46058 0.37599 0.0
H694 H 0.77211 0.40813 0.40664 0.0
C695 C 0.72014 0.44131 0.38577 0.0
C696 C 0.70238 0.41766 0.38287 0.0
C697 C 0.74375 0.44726 0.38892 0.0
C698 C 0.78384 0.42281 0.39801 0.0
H699 H 0.90255 0.49751 0.37407 0.0
H700 H 0.86384 0.48929 0.38493 0.0
H701 H 0.81317 0.4171 0.40318 0.0
H702 H 0.69518 0.3816 0.38214 0.0
H703 H 0.73648 0.39202 0.38698 0.0
H704 H 0.78565 0.46584 0.37006 0.0
C705 C 0.86628 0.47465 0.38092 0.0
C706 C 0.80731 0.42794 0.39606 0.0
C707 C 0.88841 0.47935 0.37468 0.0
C708 C 0.70849 0.39999 0.3843 0.0
C709 C 0.73218 0.40598 0.38719 0.0
C710 C 0.79148 0.4554 0.37784 0.0
C711 C 0.8473 0.45138 0.38131 0.0
C712 C 0.82297 0.44676 0.38487 0.0
C713 C 0.75018 0.42974 0.38892 0.0
C714 C 0.77558 0.43632 0.3887 0.0
H715 H 0.87594 0.42298 0.36578 0.0
H716 H 0.83698 0.41469 0.37651 0.0
H717 H 0.82632 0.47489 0.36693 0.0
H718 H 0.71592 0.4553 0.38509 0.0
H719 H 0.75709 0.4657 0.39071 0.0
C720 C 0.1 0.52202 0.4164 0.0
C721 C 0.09221 0.53685 0.40887 0.0
C722 C 0.11538 0.52916 0.43241 0.0
C723 C 0.15954 0.58071 0.46048 0.0
H724 H 0.14116 0.53747 0.50231 0.0
C725 C 0.20642 0.60832 0.53526 0.0
C726 C 0.20815 0.59122 0.5459 0.0
C727 C 0.19357 0.60217 0.51784 0.0
C728 C 0.14688 0.54964 0.49067 0.0
H729 H 0.09488 0.57107 0.41234 0.0
H730 H 0.12224 0.58369 0.43998 0.0
H731 H 0.11683 0.52587 0.47304 0.0
H732 H 0.19878 0.55451 0.54615 0.0
H733 H 0.17725 0.54399 0.51556 0.0
H734 H 0.18983 0.60437 0.47792 0.0
C735 C 0.11636 0.56653 0.4334 0.0
C736 C 0.13282 0.54299 0.47392 0.0
C737 C 0.10074 0.55928 0.41751 0.0
C738 C 0.1975 0.56805 0.53843 0.0
C739 C 0.18499 0.56198 0.52091 0.0
C740 C 0.17382 0.58728 0.47717 0.0
C741 C 0.12358 0.55141 0.44114 0.0
C742 C 0.13895 0.55847 0.45869 0.0
C743 C 0.18245 0.57883 0.51054 0.0
C744 C 0.16763 0.57184 0.49253 0.0
H745 H 0.09427 0.50485 0.4099 0.0
H746 H 0.12092 0.51728 0.43796 0.0
H747 H 0.16475 0.59291 0.44886 0.0
H748 H 0.21434 0.62632 0.54068 0.0
H749 H 0.1918 0.61559 0.51041 0.0
C750 C 0.5604 0.08663 0.58904 0.0
C751 C 0.5548 0.09379 0.5718 0.0
C752 C 0.56981 0.10215 0.60481 0.0
C753 C 0.57227 0.15372 0.62731 0.0
H754 H 0.62696 0.15924 0.65515 0.0
C755 C 0.61285 0.21526 0.69418 0.0
C756 C 0.62017 0.2065 0.70949 0.0
C757 C 0.60675 0.20359 0.6763 0.0
C758 C 0.61153 0.15774 0.64769 0.0
H759 H 0.55479 0.12311 0.5578 0.0
H760 H 0.57055 0.14996 0.58567 0.0
H761 H 0.61223 0.13459 0.62613 0.0
H762 H 0.6269 0.17862 0.71791 0.0
H763 H 0.6157 0.15802 0.68709 0.0
H764 H 0.5709 0.1761 0.64919 0.0
C765 C 0.56769 0.13228 0.5868 0.0
C766 C 0.60318 0.14369 0.63101 0.0
C767 C 0.55856 0.11684 0.57089 0.0
C768 C 0.62152 0.18599 0.70643 0.0
C769 C 0.61522 0.17422 0.68865 0.0
C770 C 0.58044 0.16757 0.64413 0.0
C771 C 0.57355 0.12511 0.60386 0.0
C772 C 0.5833 0.14131 0.62079 0.0
C773 C 0.60764 0.18277 0.67336 0.0
C774 C 0.59999 0.16951 0.65469 0.0
H775 H 0.55724 0.06889 0.5905 0.0
H776 H 0.57379 0.09604 0.61791 0.0
H777 H 0.55679 0.15204 0.61976 0.0
H778 H 0.61174 0.23111 0.69601 0.0
H779 H 0.60135 0.2109 0.66479 0.0
C780 C 0.47878 0.55041 0.72469 0.0
C781 C 0.49962 0.56607 0.71537 0.0
C782 C 0.47128 0.55802 0.74043 0.0
C783 C 0.49093 0.60387 0.77842 0.0
H784 H 0.42458 0.58662 0.77768 0.0
C785 C 0.45173 0.64434 0.83082 0.0
C786 C 0.42822 0.62975 0.83639 0.0
C787 C 0.46184 0.63621 0.81736 0.0
C788 C 0.44307 0.59129 0.77833 0.0
H789 H 0.52911 0.60201 0.71556 0.0
H790 H 0.51607 0.61521 0.74326 0.0
H791 H 0.43957 0.57311 0.7518 0.0
H792 H 0.39755 0.59469 0.83318 0.0
H793 H 0.41527 0.58033 0.81043 0.0
H794 H 0.49436 0.62198 0.80508 0.0
C795 C 0.50566 0.597 0.73836 0.0
C796 C 0.45167 0.58358 0.76343 0.0
C797 C 0.51311 0.58941 0.72251 0.0
C798 C 0.41553 0.60652 0.82906 0.0
C799 C 0.42568 0.59832 0.81585 0.0
C800 C 0.48227 0.61146 0.79347 0.0
C801 C 0.4845 0.58144 0.74732 0.0
C802 C 0.47565 0.58973 0.76332 0.0
C803 C 0.44868 0.61325 0.80938 0.0
C804 C 0.45819 0.60518 0.79362 0.0
H805 H 0.46825 0.53219 0.71987 0.0
H806 H 0.4551 0.54554 0.74725 0.0
H807 H 0.50949 0.60874 0.77874 0.0
H808 H 0.46196 0.66237 0.83619 0.0
H809 H 0.47956 0.64824 0.81265 0.0
C810 C 0.92245 0.47962 0.92115 0.0
C811 C 0.92821 0.50167 0.91394 0.0
C812 C 0.9084 0.47107 0.93714 0.0
C813 C 0.88754 0.48908 0.97922 0.0
H814 H 0.83778 0.42352 0.97762 0.0
C815 C 0.81294 0.44755 0.03458 0.0
C816 C 0.80477 0.424 0.03926 0.0
C817 C 0.83006 0.45833 0.02068 0.0
C818 C 0.85183 0.44177 0.97846 0.0
H819 H 0.92396 0.53217 0.91795 0.0
H820 H 0.89904 0.51703 0.94587 0.0
H821 H 0.86302 0.43973 0.95032 0.0
H822 H 0.80928 0.39383 0.03393 0.0
H823 H 0.83945 0.41275 0.01018 0.0
H824 H 0.87618 0.49104 0.00743 0.0
C825 C 0.90561 0.50648 0.93919 0.0
C826 C 0.86625 0.45107 0.96277 0.0
C827 C 0.91964 0.51503 0.92311 0.0
C828 C 0.81505 0.41193 0.03061 0.0
C829 C 0.83222 0.42272 0.01684 0.0
C830 C 0.8731 0.47973 0.995 0.0
C831 C 0.89976 0.48435 0.9463 0.0
C832 C 0.88432 0.47479 0.96299 0.0
C833 C 0.83937 0.44577 0.01127 0.0
C834 C 0.85515 0.45592 0.99481 0.0
H835 H 0.92857 0.46879 0.91429 0.0
H836 H 0.9044 0.45405 0.94239 0.0
H837 H 0.90147 0.50738 0.97986 0.0
H838 H 0.80534 0.45732 0.04098 0.0
H839 H 0.83511 0.47608 0.01667 0.0
C840 C 0.43412 0.95438 0.09884 0.0
C841 C 0.42822 0.94241 0.08097 0.0
C842 C 0.4264 0.94191 0.1157 0.0
C843 C 0.38352 0.88417 0.13489 0.0
H844 H 0.43325 0.89823 0.17295 0.0
C845 C 0.40477 0.8301 0.19268 0.0
C846 C 0.38339 0.81857 0.20246 0.0
C847 C 0.4095 0.84887 0.18096 0.0
C848 C 0.41913 0.89427 0.16254 0.0
H849 H 0.40909 0.90797 0.06682 0.0
H850 H 0.39542 0.88629 0.09619 0.0
H851 H 0.44162 0.92387 0.14577 0.0
H852 H 0.35055 0.81822 0.20815 0.0
H853 H 0.35874 0.85092 0.18732 0.0
H854 H 0.36135 0.85397 0.15123 0.0
C855 C 0.40585 0.90534 0.09714 0.0
C856 C 0.42386 0.90901 0.14706 0.0
C857 C 0.41369 0.91777 0.08031 0.0
C858 C 0.36719 0.82675 0.20079 0.0
C859 C 0.37181 0.84539 0.18885 0.0
C860 C 0.37874 0.86953 0.15045 0.0
C861 C 0.41245 0.91724 0.11501 0.0
C862 C 0.4063 0.90371 0.13279 0.0
C863 C 0.39286 0.85636 0.17859 0.0
C864 C 0.39672 0.87405 0.1641 0.0
H865 H 0.44489 0.97339 0.09984 0.0
H866 H 0.43154 0.95153 0.12928 0.0
H867 H 0.36961 0.87983 0.12418 0.0
H868 H 0.41758 0.82423 0.19354 0.0
H869 H 0.42573 0.85678 0.17303 0.0
C870 C 0.50558 0.45474 0.23015 0.0
C871 C 0.51343 0.45522 0.21152 0.0
C872 C 0.51368 0.44648 0.24514 0.0
C873 C 0.56306 0.43605 0.25793 0.0
H874 H 0.52271 0.40106 0.29942 0.0
C875 C 0.56506 0.37867 0.32564 0.0
C876 C 0.58892 0.39314 0.3316 0.0
C877 C 0.55477 0.38626 0.3118 0.0
C878 C 0.53415 0.41064 0.28786 0.0
H879 H 0.53501 0.44653 0.19371 0.0
H880 H 0.54871 0.43157 0.21967 0.0
H881 H 0.50636 0.41302 0.27307 0.0
H882 H 0.62038 0.42723 0.32809 0.0
H883 H 0.60232 0.44076 0.30476 0.0
H884 H 0.59058 0.43297 0.27219 0.0
C885 C 0.53691 0.43824 0.22293 0.0
C886 C 0.52486 0.41776 0.27287 0.0
C887 C 0.52902 0.44673 0.20803 0.0
C888 C 0.60199 0.41561 0.32391 0.0
C889 C 0.59167 0.42329 0.31031 0.0
C890 C 0.57226 0.42879 0.27278 0.0
C891 C 0.52963 0.43832 0.24173 0.0
C892 C 0.53923 0.43055 0.25771 0.0
C893 C 0.5681 0.40854 0.30374 0.0
C894 C 0.55799 0.4161 0.28799 0.0
H895 H 0.49366 0.46133 0.23322 0.0
H896 H 0.50793 0.44706 0.25946 0.0
H897 H 0.57478 0.44618 0.24668 0.0
H898 H 0.55452 0.36121 0.33124 0.0
H899 H 0.53664 0.37434 0.30697 0.0
C900 C 0.45597 0.90359 0.41611 0.0
C901 C 0.47142 0.92785 0.41413 0.0
C902 C 0.44986 0.88811 0.40033 0.0
C903 C 0.47079 0.88114 0.35406 0.0
H904 H 0.40442 0.83949 0.34012 0.0
C905 C 0.44167 0.83561 0.27987 0.0
C906 C 0.4211 0.81335 0.27791 0.0
C907 C 0.44812 0.84783 0.29745 0.0
C908 C 0.42305 0.85062 0.34397 0.0
H909 H 0.49295 0.95496 0.39435 0.0
H910 H 0.48261 0.92783 0.36681 0.0
H911 H 0.41512 0.86395 0.36926 0.0
H912 H 0.39155 0.78614 0.29307 0.0
H913 H 0.40325 0.80713 0.32395 0.0
H914 H 0.47892 0.86773 0.32908 0.0
C915 C 0.47512 0.92084 0.38051 0.0
C916 C 0.42913 0.86471 0.36063 0.0
C917 C 0.48088 0.93634 0.39619 0.0
C918 C 0.40743 0.80333 0.29408 0.0
C919 C 0.41407 0.81545 0.31176 0.0
C920 C 0.46475 0.86681 0.33758 0.0
C921 C 0.45948 0.89661 0.38242 0.0
C922 C 0.45305 0.88039 0.36562 0.0
C923 C 0.43436 0.838 0.31363 0.0
C924 C 0.44079 0.85168 0.33209 0.0
H925 H 0.44839 0.89666 0.42981 0.0
H926 H 0.43782 0.86948 0.40214 0.0
H927 H 0.48938 0.89287 0.35776 0.0
H928 H 0.45251 0.84396 0.26769 0.0
H929 H 0.46357 0.86532 0.29815 0.0
C930 C 0.56061 0.48433 0.53476 0.0
C931 C 0.56429 0.47743 0.5528 0.0
C932 C 0.56672 0.47669 0.51823 0.0
C933 C 0.57426 0.42989 0.49789 0.0
H934 H 0.61458 0.47663 0.46194 0.0
C935 C 0.60846 0.40563 0.43018 0.0
C936 C 0.61114 0.41869 0.41375 0.0
C937 C 0.60272 0.41212 0.44755 0.0
C938 C 0.60298 0.46327 0.47163 0.0
H939 H 0.57686 0.45694 0.56782 0.0
H940 H 0.58713 0.44307 0.53868 0.0
H941 H 0.60444 0.48916 0.49147 0.0
H942 H 0.60884 0.44806 0.40237 0.0
H943 H 0.59785 0.45874 0.43228 0.0
H944 H 0.572 0.40388 0.47781 0.0
C945 C 0.57969 0.45454 0.53744 0.0
C946 C 0.59735 0.47051 0.48861 0.0
C947 C 0.57397 0.46255 0.55404 0.0
C948 C 0.60722 0.43785 0.41486 0.0
C949 C 0.6011 0.44408 0.43209 0.0
C950 C 0.57957 0.42257 0.48072 0.0
C951 C 0.57627 0.46172 0.51942 0.0
C952 C 0.58285 0.4539 0.50182 0.0
C953 C 0.59918 0.43159 0.44876 0.0
C954 C 0.59388 0.43918 0.4673 0.0
H955 H 0.5533 0.49591 0.53347 0.0
H956 H 0.56382 0.48234 0.50448 0.0
H957 H 0.5629 0.41676 0.50785 0.0
H958 H 0.61151 0.39084 0.42977 0.0
H959 H 0.60166 0.40223 0.4601 0.0
C960 C 0.07305 0.54644 0.73925 0.0
C961 C 0.06888 0.56387 0.74707 0.0
C962 C 0.08693 0.55092 0.72316 0.0
C963 C 0.11071 0.58969 0.68211 0.0
H964 H 0.16096 0.57437 0.68553 0.0
C965 C 0.1903 0.62799 0.63189 0.0
C966 C 0.20061 0.61424 0.62725 0.0
C967 C 0.17173 0.61989 0.64468 0.0
C968 C 0.14676 0.57835 0.6841 0.0
H969 H 0.0758 0.5996 0.74388 0.0
H970 H 0.09976 0.60727 0.71562 0.0
H971 H 0.13304 0.56376 0.71122 0.0
H972 H 0.19867 0.58067 0.63166 0.0
H973 H 0.16584 0.56622 0.65337 0.0
H974 H 0.12445 0.60433 0.65497 0.0
C975 C 0.09214 0.59009 0.72192 0.0
C976 C 0.1308 0.57233 0.6989 0.0
C977 C 0.0784 0.58568 0.7381 0.0
C978 C 0.19123 0.59177 0.63497 0.0
C979 C 0.17251 0.58356 0.64758 0.0
C980 C 0.12658 0.59555 0.66719 0.0
C981 C 0.09678 0.57286 0.71444 0.0
C982 C 0.11277 0.57814 0.69815 0.0
C983 C 0.16293 0.59775 0.65298 0.0
C984 C 0.14496 0.59017 0.66811 0.0
H985 H 0.06557 0.52927 0.74554 0.0
H986 H 0.08996 0.53721 0.71754 0.0
H987 H 0.09681 0.59415 0.68108 0.0
H988 H 0.19716 0.64543 0.62623 0.0
H989 H 0.16499 0.63142 0.64864 0.0
C990 C 0.49311 0.0752 0.89923 0.0
C991 C 0.50886 0.0696 0.90859 0.0
C992 C 0.49952 0.08785 0.88239 0.0
C993 C 0.54326 0.10709 0.84359 0.0
H994 H 0.52904 0.15762 0.839 0.0
C995 C 0.59568 0.18782 0.79724 0.0
C996 C 0.58336 0.19719 0.78745 0.0
C997 C 0.58375 0.16888 0.80928 0.0
C998 C 0.53278 0.14331 0.83988 0.0
H999 H 0.54364 0.07284 0.90768 0.0
H1000 H 0.55503 0.09525 0.87852 0.0
H1001 H 0.51358 0.13105 0.86561 0.0
H1002 H 0.54868 0.19344 0.78209 0.0
H1003 H 0.52786 0.16038 0.80334 0.0
H1004 H 0.56327 0.12007 0.81823 0.0
C1005 C 0.5375 0.08942 0.88389 0.0
C1006 C 0.52391 0.12806 0.85514 0.0
C1007 C 0.53103 0.07666 0.90065 0.0
C1008 C 0.55869 0.18664 0.78944 0.0
C1009 C 0.54677 0.1678 0.80166 0.0
C1010 C 0.55225 0.12245 0.82841 0.0
C1011 C 0.52188 0.09529 0.8746 0.0
C1012 C 0.52942 0.11004 0.85738 0.0
C1013 C 0.55929 0.15901 0.81195 0.0
C1014 C 0.54745 0.14097 0.8266 0.0
H1015 H 0.47576 0.06967 0.90489 0.0
H1016 H 0.48693 0.09177 0.87545 0.0
H1017 H 0.54743 0.0931 0.84468 0.0
H1018 H 0.61468 0.19556 0.79614 0.0
H1019 H 0.59393 0.16268 0.8172 0.0
C1020 C 0.41917 0.52573 0.04211 0.0
C1021 C 0.43965 0.54127 0.05296 0.0
C1022 C 0.41261 0.53341 0.02581 0.0
C1023 C 0.41976 0.58615 0.00221 0.0
H1024 H 0.40429 0.54763 0.95581 0.0
C1025 C 0.40882 0.61876 0.92827 0.0
C1026 C 0.39185 0.60211 0.91519 0.0
C1027 C 0.41389 0.61161 0.94561 0.0
C1028 C 0.40816 0.55845 0.96869 0.0
H1029 H 0.46894 0.57718 0.0556 0.0
H1030 H 0.45739 0.59065 0.02712 0.0
H1031 H 0.41409 0.53456 0.98519 0.0
H1032 H 0.36621 0.56502 0.91045 0.0
H1033 H 0.37448 0.5527 0.94081 0.0
H1034 H 0.41354 0.60992 0.98581 0.0
C1035 C 0.44646 0.57253 0.03122 0.0
C1036 C 0.41385 0.55096 0.98551 0.0
C1037 C 0.45318 0.56477 0.04741 0.0
C1038 C 0.3796 0.57828 0.92009 0.0
C1039 C 0.38447 0.57119 0.93748 0.0
C1040 C 0.41382 0.59355 0.9854 0.0
C1041 C 0.42625 0.55686 0.02015 0.0
C1042 C 0.41977 0.56474 0.00243 0.0
C1043 C 0.40193 0.58769 0.95036 0.0
C1044 C 0.40798 0.57981 0.9684 0.0
H1045 H 0.4085 0.50748 0.04599 0.0
H1046 H 0.39683 0.521 0.01762 0.0
H1047 H 0.42405 0.59702 0.0151 0.0
H1048 H 0.41864 0.63725 0.92491 0.0
H1049 H 0.42764 0.6248 0.95505 0.0
C1050 C 0.89386 0.44334 0.25797 0.0
C1051 C 0.91796 0.45973 0.2552 0.0
C1052 C 0.87738 0.43542 0.24261 0.0
C1053 C 0.86693 0.45067 0.19443 0.0
H1054 H 0.82535 0.38337 0.1864 0.0
C1055 C 0.7964 0.41109 0.13256 0.0
C1056 C 0.79742 0.39362 0.12139 0.0
C1057 C 0.80884 0.41874 0.15014 0.0
C1058 C 0.83678 0.40221 0.18852 0.0
H1059 H 0.94348 0.48045 0.23389 0.0
H1060 H 0.91464 0.46707 0.20733 0.0
H1061 H 0.85185 0.39822 0.21471 0.0
H1062 H 0.81151 0.36984 0.12033 0.0
H1063 H 0.83287 0.38297 0.15106 0.0
H1064 H 0.85214 0.45463 0.16809 0.0
C1065 C 0.90853 0.46049 0.22143 0.0
C1066 C 0.85182 0.41071 0.20477 0.0
C1067 C 0.92504 0.46821 0.23671 0.0
C1068 C 0.81043 0.3834 0.12852 0.0
C1069 C 0.82256 0.39081 0.14619 0.0
C1070 C 0.85168 0.44218 0.17831 0.0
C1071 C 0.88456 0.4439 0.22419 0.0
C1072 C 0.86733 0.43501 0.20772 0.0
C1073 C 0.82221 0.4088 0.15705 0.0
C1074 C 0.83673 0.41785 0.17504 0.0
H1075 H 0.88762 0.43672 0.27203 0.0
H1076 H 0.85897 0.42278 0.24518 0.0
H1077 H 0.87857 0.46949 0.19643 0.0
H1078 H 0.78658 0.41934 0.12746 0.0
H1079 H 0.80815 0.43254 0.15829 0.0
loop_
_geom_bond_atom_site_label_1
_geom_bond_atom_site_label_2
_geom_bond_distance
_geom_bond_site_symmetry_2
_ccdc_geom_bond_type
C0 C1 1.384 . S
C0 C2 1.384 . S
C0 H28 0.931 . S
C1 C0 1.384 . S
C1 C4 1.382 . S
C2 C0 1.384 . S
C2 C3 1.381 . S
C2 H29 0.930 . S
C3 C2 1.381 . S
C3 C5 1.381 . S
C3 C6 1.487 . S
C4 C1 1.382 . S
C4 C5 1.387 . S
C4 H30 0.930 . S
C5 C3 1.381 . S
C5 C4 1.387 . S
C5 H31 0.931 . S
C6 C3 1.487 . S
C6 C13 1.399 . S
C6 N44 1.343 . S
C7 C8 1.384 . S
C7 C9 1.384 . S
C7 H32 0.931 . S
C8 C7 1.384 . S
C8 C11 1.382 . S
C9 C7 1.384 . S
C9 C10 1.381 . S
C9 H33 0.930 . S
C10 C9 1.381 . S
C10 C12 1.381 . S
C10 C13 1.487 . S
C11 C8 1.382 . S
C11 C12 1.387 . S
C11 H34 0.930 . S
C12 C10 1.381 . S
C12 C11 1.387 . S
C12 H35 0.931 . S
C13 C6 1.399 . S
C13 C10 1.487 . S
C13 N45 1.343 1_655 S
C14 C15 1.384 . S
C14 C16 1.384 . S
C14 H36 0.931 . S
C15 C14 1.384 . S
C15 C18 1.382 . S
C16 C14 1.384 . S
C16 C17 1.381 . S
C16 H37 0.930 . S
C17 C16 1.381 . S
C17 C19 1.381 . S
C17 C20 1.487 . S
C18 C15 1.382 . S
C18 C19 1.387 . S
C18 H38 0.930 . S
C19 C17 1.381 . S
C19 C18 1.387 . S
C19 H39 0.931 . S
C20 C17 1.487 . S
C20 C27 1.399 . S
C20 N45 1.343 . S
C21 C22 1.384 . S
C21 C23 1.384 . S
C21 H40 0.931 . S
C22 C21 1.384 . S
C22 C25 1.382 . S
C23 C21 1.384 . S
C23 C24 1.381 . S
C23 H41 0.930 . S
C24 C23 1.381 . S
C24 C26 1.381 . S
C24 C27 1.487 . S
C25 C22 1.382 . S
C25 C26 1.387 . S
C25 H42 0.930 . S
C26 C24 1.381 . S
C26 C25 1.387 . S
C26 H43 0.931 . S
C27 C20 1.399 . S
C27 C24 1.487 . S
C27 N44 1.343 1_455 S
H28 C0 0.931 . S
H29 C2 0.930 . S
H30 C4 0.930 . S
H31 C5 0.931 . S
H32 C7 0.931 . S
H33 C9 0.930 . S
H34 C11 0.930 . S
H35 C12 0.931 . S
H36 C14 0.931 . S
H37 C16 0.930 . S
H38 C18 0.930 . S
H39 C19 0.931 . S
H40 C21 0.931 . S
H41 C23 0.930 . S
H42 C25 0.930 . S
H43 C26 0.931 . S
N44 C6 1.343 . S
N44 C27 1.343 1_655 S
N45 C13 1.343 1_455 S
N45 C20 1.343 . S
C46 C47 1.384 . S
C46 C48 1.384 . S
C46 H74 0.931 . S
C47 C46 1.384 . S
C47 C50 1.382 . S
C48 C46 1.384 . S
C48 C49 1.381 . S
C48 H75 0.930 . S
C49 C48 1.381 . S
C49 C51 1.381 . S
C49 C52 1.487 . S
C50 C47 1.382 . S
C50 C51 1.387 . S
C50 H76 0.930 . S
C51 C49 1.381 . S
C51 C50 1.387 . S
C51 H77 0.931 . S
C52 C49 1.487 . S
C52 C59 1.399 . S
C52 N90 1.343 1_565 S
C53 C54 1.384 . S
C53 C55 1.384 . S
C53 H78 0.931 . S
C54 C53 1.384 . S
C54 C57 1.382 . S
C55 C53 1.384 . S
C55 C56 1.381 . S
C55 H79 0.930 . S
C56 C55 1.381 . S
C56 C58 1.381 . S
C56 C59 1.487 . S
C57 C54 1.382 . S
C57 C58 1.387 . S
C57 H80 0.930 . S
C58 C56 1.381 . S
C58 C57 1.387 . S
C58 H81 0.931 . S
C59 C52 1.399 . S
C59 C56 1.487 . S
C59 N91 1.343 1_565 S
C60 C61 1.384 . S
C60 C62 1.384 . S
C60 H82 0.931 . S
C61 C60 1.384 . S
C61 C64 1.382 . S
C62 C60 1.384 . S
C62 C63 1.381 . S
C62 H83 0.930 . S
C63 C62 1.381 . S
C63 C65 1.381 . S
C63 C66 1.487 . S
C64 C61 1.382 . S
C64 C65 1.387 . S
C64 H84 0.930 . S
C65 C63 1.381 . S
C65 C64 1.387 . S
C65 H85 0.931 . S
C66 C63 1.487 . S
C66 C73 1.399 . S
C66 N91 1.343 . S
C67 C68 1.384 . S
C67 C69 1.384 . S
C67 H86 0.931 . S
C68 C67 1.384 . S
C68 C71 1.382 . S
C69 C67 1.384 . S
C69 C70 1.381 . S
C69 H87 0.930 . S
C70 C69 1.381 . S
C70 C72 1.381 . S
C70 C73 1.487 . S
C71 C68 1.382 . S
C71 C72 1.387 . S
C71 H88 0.930 . S
C72 C70 1.381 . S
C72 C71 1.387 . S
C72 H89 0.931 . S
C73 C66 1.399 . S
C73 C70 1.487 . S
C73 N90 1.343 . S
H74 C46 0.931 . S
H75 C48 0.930 . S
H76 C50 0.930 . S
H77 C51 0.931 . S
H78 C53 0.931 . S
H79 C55 0.930 . S
H80 C57 0.930 . S
H81 C58 0.931 . S
H82 C60 0.931 . S
H83 C62 0.930 . S
H84 C64 0.930 . S
H85 C65 0.931 . S
H86 C67 0.931 . S
H87 C69 0.930 . S
H88 C71 0.930 . S
H89 C72 0.931 . S
N90 C52 1.343 1_545 S
N90 C73 1.343 . S
N91 C59 1.343 1_545 S
N91 C66 1.343 . S
C92 C93 1.384 . S
C92 C94 1.384 . S
C92 H120 0.931 . S
C93 C92 1.384 . S
C93 C96 1.382 . S
C94 C92 1.384 . S
C94 C95 1.381 . S
C94 H121 0.930 . S
C95 C94 1.381 . S
C95 C97 1.381 . S
C95 C98 1.487 . S
C96 C93 1.382 . S
C96 C97 1.387 . S
C96 H122 0.930 . S
C97 C95 1.381 . S
C97 C96 1.387 . S
C97 H123 0.931 . S
C98 C95 1.487 . S
C98 C105 1.399 . S
C98 N136 1.343 . S
C99 C100 1.384 . S
C99 C101 1.384 . S
C99 H124 0.931 . S
C100 C99 1.384 . S
C100 C103 1.382 . S
C101 C99 1.384 . S
C101 C102 1.381 . S
C101 H125 0.930 . S
C102 C101 1.381 . S
C102 C104 1.381 . S
C102 C105 1.487 . S
C103 C100 1.382 . S
C103 C104 1.387 . S
C103 H126 0.930 . S
C104 C102 1.381 . S
C104 C103 1.387 . S
C104 H127 0.931 . S
C105 C98 1.399 . S
C105 C102 1.487 . S
C105 N137 1.343 . S
C106 C107 1.384 . S
C106 C108 1.384 . S
C106 H128 0.931 . S
C107 C106 1.384 . S
C107 C110 1.382 . S
C108 C106 1.384 . S
C108 C109 1.381 . S
C108 H129 0.930 . S
C109 C108 1.381 . S
C109 C111 1.381 . S
C109 C112 1.487 . S
C110 C107 1.382 . S
C110 C111 1.387 . S
C110 H130 0.930 . S
C111 C109 1.381 . S
C111 C110 1.387 . S
C111 H131 0.931 . S
C112 C109 1.487 . S
C112 C119 1.399 . S
C112 N137 1.343 . S
C113 C114 1.384 . S
C113 C115 1.384 . S
C113 H132 0.931 . S
C114 C113 1.384 . S
C114 C117 1.382 . S
C115 C113 1.384 . S
C115 C116 1.381 . S
C115 H133 0.930 . S
C116 C115 1.381 . S
C116 C118 1.381 . S
C116 C119 1.487 . S
C117 C114 1.382 . S
C117 C118 1.387 . S
C117 H134 0.930 . S
C118 C116 1.381 . S
C118 C117 1.387 . S
C118 H135 0.931 . S
C119 C112 1.399 . S
C119 C116 1.487 . S
C119 N136 1.343 . S
H120 C92 0.931 . S
H121 C94 0.930 . S
H122 C96 0.930 . S
H123 C97 0.931 . S
H124 C99 0.931 . S
H125 C101 0.930 . S
H126 C103 0.930 . S
H127 C104 0.931 . S
H128 C106 0.931 . S
H129 C108 0.930 . S
H130 C110 0.930 . S
H131 C111 0.931 . S
H132 C113 0.931 . S
H133 C115 0.930 . S
H134 C117 0.930 . S
H135 C118 0.931 . S
N136 C98 1.343 . S
N136 C119 1.343 . S
N137 C105 1.343 . S
N137 C112 1.343 . S
C138 C139 1.384 . S
C138 C140 1.384 . S
C138 H166 0.931 . S
C139 C138 1.384 . S
C139 C142 1.382 . S
C140 C138 1.384 . S
C140 C141 1.381 . S
C140 H167 0.930 . S
C141 C140 1.381 . S
C141 C143 1.381 . S
C141 C144 1.487 . S
C142 C139 1.382 . S
C142 C143 1.387 . S
C142 H168 0.930 . S
C143 C141 1.381 . S
C143 C142 1.387 . S
C143 H169 0.931 . S
C144 C141 1.487 . S
C144 C151 1.399 . S
C144 N182 1.319 1_655 S
C145 C146 1.384 . S
C145 C147 1.384 . S
C145 H170 0.931 . S
C146 C145 1.384 . S
C146 C149 1.382 . S
C147 C145 1.384 . S
C147 C148 1.381 . S
C147 H171 0.930 . S
C148 C147 1.381 . S
C148 C150 1.381 . S
C148 C151 1.487 . S
C149 C146 1.382 . S
C149 C150 1.387 . S
C149 H172 0.930 . S
C150 C148 1.381 . S
C150 C149 1.387 . S
C150 H173 0.931 . S
C151 C144 1.399 . S
C151 C148 1.487 . S
C151 N183 1.343 1_655 S
C152 C153 1.384 . S
C152 C154 1.384 . S
C152 H174 0.931 . S
C153 C152 1.384 . S
C153 C156 1.382 . S
C154 C152 1.384 . S
C154 C155 1.381 . S
C154 H175 0.930 . S
C155 C154 1.381 . S
C155 C157 1.381 . S
C155 C158 1.487 . S
C156 C153 1.382 . S
C156 C157 1.387 . S
C156 H176 0.930 . S
C157 C155 1.381 . S
C157 C156 1.387 . S
C157 H177 0.931 . S
C158 C155 1.487 . S
C158 C165 1.399 . S
C158 N183 1.343 . S
C159 C160 1.384 . S
C159 C161 1.384 . S
C159 H178 0.931 . S
C160 C159 1.384 . S
C160 C163 1.382 . S
C161 C159 1.384 . S
C161 C162 1.381 . S
C161 H179 0.930 . S
C162 C161 1.381 . S
C162 C164 1.381 . S
C162 C165 1.487 . S
C163 C160 1.382 . S
C163 C164 1.387 . S
C163 H180 0.930 . S
C164 C162 1.381 . S
C164 C163 1.387 . S
C164 H181 0.931 . S
C165 C158 1.399 . S
C165 C162 1.487 . S
C165 N182 1.383 . S
H166 C138 0.931 . S
H167 C140 0.930 . S
H168 C142 0.930 . S
H169 C143 0.931 . S
H170 C145 0.931 . S
H171 C147 0.930 . S
H172 C149 0.930 . S
H173 C150 0.931 . S
H174 C152 0.931 . S
H175 C154 0.930 . S
H176 C156 0.930 . S
H177 C157 0.931 . S
H178 C159 0.931 . S
H179 C161 0.930 . S
H180 C163 0.930 . S
H181 C164 0.931 . S
N182 C144 1.319 1_455 S
N182 C165 1.383 . S
N183 C151 1.343 1_455 S
N183 C158 1.343 . S
C184 C185 1.384 . S
C184 C186 1.384 . S
C184 H212 0.931 . S
C185 C184 1.384 . S
C185 C188 1.382 . S
C186 C184 1.384 . S
C186 C187 1.381 . S
C186 H213 0.957 . S
C187 C186 1.381 . S
C187 C189 1.381 . S
C187 C190 1.487 . S
C188 C185 1.382 . S
C188 C189 1.387 . S
C188 H214 0.930 . S
C189 C187 1.381 . S
C189 C188 1.387 . S
C189 H215 0.931 . S
C190 C187 1.487 . S
C190 C197 1.399 1_566 S
C190 N228 1.343 1_565 S
C191 C192 1.384 . S
C191 C193 1.384 . S
C191 H216 0.931 . S
C192 C191 1.384 . S
C192 C195 1.382 . S
C193 C191 1.384 . S
C193 C194 1.381 . S
C193 H217 0.930 . S
C194 C193 1.381 . S
C194 C196 1.381 . S
C194 C197 1.487 1_565 S
C195 C192 1.382 . S
C195 C196 1.387 . S
C195 H218 0.930 . S
C196 C194 1.381 . S
C196 C195 1.387 . S
C196 H219 0.931 1_565 S
C197 C190 1.399 1_544 S
C197 C194 1.487 1_545 S
C197 N229 1.343 . S
C198 C199 1.384 . S
C198 C200 1.384 1_554 S
C198 H220 0.914 1_554 S
C199 C198 1.384 . S
C199 C202 1.382 . S
C200 C198 1.384 1_556 S
C200 C201 1.381 1_556 S
C200 H221 0.930 . S
C201 C200 1.381 1_554 S
C201 C203 1.381 . S
C201 C204 1.487 1_554 S
C202 C199 1.382 . S
C202 C203 1.387 . S
C202 H222 0.930 . S
C203 C201 1.381 . S
C203 C202 1.387 . S
C203 H223 0.931 . S
C204 C201 1.487 1_556 S
C204 C211 1.399 . S
C204 N229 1.343 1_556 S
C205 C206 1.384 . S
C205 C207 1.384 . S
C205 H224 0.931 . S
C206 C205 1.384 . S
C206 C209 1.382 . S
C207 C205 1.384 . S
C207 C208 1.381 . S
C207 H225 0.930 . S
C208 C207 1.381 . S
C208 C210 1.381 . S
C208 C211 1.487 . S
C209 C206 1.382 . S
C209 C210 1.387 . S
C209 H226 0.930 . S
C210 C208 1.381 . S
C210 C209 1.387 . S
C210 H227 0.931 . S
C211 C204 1.399 . S
C211 C208 1.487 . S
C211 N228 1.343 . S
H212 C184 0.931 . S
H213 C186 0.957 . S
H214 C188 0.930 . S
H215 C189 0.931 . S
H216 C191 0.931 . S
H217 C193 0.930 . S
H218 C195 0.930 . S
H219 C196 0.931 1_545 S
H220 C198 0.914 1_556 S
H221 C200 0.930 . S
H222 C202 0.930 . S
H223 C203 0.931 . S
H224 C205 0.931 . S
H225 C207 0.930 . S
H226 C209 0.930 . S
H227 C210 0.931 . S
N228 C190 1.343 1_545 S
N228 C211 1.343 . S
N229 C197 1.343 . S
N229 C204 1.343 1_554 S
C230 C231 1.384 . S
C230 C232 1.384 . S
C230 H258 0.931 . S
C231 C230 1.384 . S
C231 C234 1.382 . S
C232 C230 1.384 . S
C232 C233 1.381 . S
C232 H259 0.930 . S
C233 C232 1.381 . S
C233 C235 1.381 . S
C233 C236 1.487 . S
C234 C231 1.382 . S
C234 C235 1.387 . S
C234 H260 0.930 . S
C235 C233 1.381 . S
C235 C234 1.387 . S
C235 H261 0.931 . S
C236 C233 1.487 . S
C236 C243 1.399 . S
C236 N274 1.343 . S
C237 C238 1.384 . S
C237 C239 1.384 . S
C237 H262 0.931 . S
C238 C237 1.384 . S
C238 C241 1.382 . S
C239 C237 1.384 . S
C239 C240 1.381 . S
C239 H263 0.930 . S
C240 C239 1.381 . S
C240 C242 1.381 . S
C240 C243 1.487 . S
C241 C238 1.382 . S
C241 C242 1.387 . S
C241 H264 0.930 . S
C242 C240 1.381 . S
C242 C241 1.387 . S
C242 H265 0.931 . S
C243 C236 1.399 . S
C243 C240 1.487 . S
C243 N275 1.343 . S
C244 C245 1.384 . S
C244 C246 1.384 . S
C244 H266 0.931 . S
C245 C244 1.384 . S
C245 C248 1.382 . S
C246 C244 1.384 . S
C246 C247 1.381 . S
C246 H267 0.930 . S
C247 C246 1.381 . S
C247 C249 1.381 . S
C247 C250 1.487 . S
C248 C245 1.382 . S
C248 C249 1.387 . S
C248 H268 0.930 . S
C249 C247 1.381 . S
C249 C248 1.387 . S
C249 H269 0.931 . S
C250 C247 1.487 . S
C250 C257 1.399 . S
C250 N275 1.343 . S
C251 C252 1.384 . S
C251 C253 1.384 . S
C251 H270 0.931 . S
C252 C251 1.384 . S
C252 C255 1.382 . S
C253 C251 1.384 . S
C253 C254 1.381 . S
C253 H271 0.930 . S
C254 C253 1.381 . S
C254 C256 1.381 . S
C254 C257 1.487 . S
C255 C252 1.382 . S
C255 C256 1.387 . S
C255 H272 0.930 . S
C256 C254 1.381 . S
C256 C255 1.387 . S
C256 H273 0.931 . S
C257 C250 1.399 . S
C257 C254 1.487 . S
C257 N274 1.343 . S
H258 C230 0.931 . S
H259 C232 0.930 . S
H260 C234 0.930 . S
H261 C235 0.931 . S
H262 C237 0.931 . S
H263 C239 0.930 . S
H264 C241 0.930 . S
H265 C242 0.931 . S
H266 C244 0.931 . S
H267 C246 0.930 . S
H268 C248 0.930 . S
H269 C249 0.931 . S
H270 C251 0.931 . S
H271 C253 0.930 . S
H272 C255 0.930 . S
H273 C256 0.931 . S
N274 C236 1.343 . S
N274 C257 1.343 . S
N275 C243 1.343 . S
N275 C250 1.343 . S
Mg276 O277 2.028 . S
Mg276 O283 1.986 . S
Mg276 O285 2.114 . S
Mg276 O286 2.251 . S
Mg276 O289 2.010 . S
O277 Mg276 2.028 . S
O277 C280 1.250 . S
O278 Mg279 2.028 . S
O278 C280 1.248 . S
Mg279 O278 2.028 . S
Mg279 O284 2.032 . S
Mg279 O286 2.079 . S
C280 O277 1.250 . S
C280 O278 1.248 . S
C281 O282 1.264 . S
C281 O289 1.249 . S
O282 C281 1.264 . S
O283 Mg276 1.986 . S
O283 C287 1.246 . S
O284 Mg279 2.032 . S
O284 C287 1.259 . S
O285 Mg276 2.114 . S
O285 C288 1.252 . S
O286 Mg276 2.251 . S
O286 Mg279 2.079 . S
O286 C288 1.273 . S
C287 O283 1.246 . S
C287 O284 1.259 . S
C288 O285 1.252 . S
C288 O286 1.273 . S
O289 Mg276 2.010 . S
O289 C281 1.249 . S
Mg290 O291 2.028 . S
Mg290 O297 1.986 . S
Mg290 O299 2.114 . S
Mg290 O300 2.251 . S
Mg290 O303 2.010 . S
O291 Mg290 2.028 . S
O291 C294 1.250 . S
O292 Mg293 2.028 . S
O292 C294 1.248 . S
Mg293 O292 2.028 . S
Mg293 O298 2.032 . S
Mg293 O300 2.079 . S
C294 O291 1.250 . S
C294 O292 1.248 . S
C295 O296 1.264 . S
C295 O303 1.249 . S
O296 C295 1.264 . S
O297 Mg290 1.986 . S
O297 C301 1.246 . S
O298 Mg293 2.032 . S
O298 C301 1.259 . S
O299 Mg290 2.114 . S
O299 C302 1.252 . S
O300 Mg290 2.251 . S
O300 Mg293 2.079 . S
O300 C302 1.273 . S
C301 O297 1.246 . S
C301 O298 1.259 . S
C302 O299 1.252 . S
C302 O300 1.273 . S
O303 Mg290 2.010 . S
O303 C295 1.249 . S
Mg304 O305 2.028 . S
Mg304 O311 1.986 . S
Mg304 O313 2.114 . S
Mg304 O314 2.251 . S
Mg304 O317 2.010 . S
O305 Mg304 2.028 . S
O305 C308 1.250 . S
O306 Mg307 2.028 . S
O306 C308 1.248 . S
Mg307 O306 2.028 . S
Mg307 O312 2.032 . S
Mg307 O314 2.079 . S
C308 O305 1.250 . S
C308 O306 1.248 . S
C309 O310 1.264 . S
C309 O317 1.249 . S
O310 C309 1.264 . S
O311 Mg304 1.986 . S
O311 C315 1.246 . S
O312 Mg307 2.032 . S
O312 C315 1.259 . S
O313 Mg304 2.114 . S
O313 C316 1.252 . S
O314 Mg304 2.251 . S
O314 Mg307 2.079 . S
O314 C316 1.273 . S
C315 O311 1.246 . S
C315 O312 1.259 . S
C316 O313 1.252 . S
C316 O314 1.273 . S
O317 Mg304 2.010 . S
O317 C309 1.249 . S
Mg318 O319 2.028 . S
Mg318 O325 1.986 . S
Mg318 O327 2.114 . S
Mg318 O328 2.251 . S
Mg318 O331 2.010 . S
O319 Mg318 2.028 . S
O319 C322 1.250 . S
O320 Mg321 2.028 . S
O320 C322 1.248 . S
Mg321 O320 2.028 . S
Mg321 O326 2.032 . S
Mg321 O328 2.079 . S
C322 O319 1.250 . S
C322 O320 1.248 . S
C323 O324 1.264 . S
C323 O331 1.249 . S
O324 C323 1.264 . S
O325 Mg318 1.986 . S
O325 C329 1.246 . S
O326 Mg321 2.032 . S
O326 C329 1.259 . S
O327 Mg318 2.114 . S
O327 C330 1.252 . S
O328 Mg318 2.251 . S
O328 Mg321 2.079 . S
O328 C330 1.273 . S
C329 O325 1.246 . S
C329 O326 1.259 . S
C330 O327 1.252 . S
C330 O328 1.273 . S
O331 Mg318 2.010 . S
O331 C323 1.249 . S
Mg332 O333 2.028 . S
Mg332 O339 1.986 . S
Mg332 O341 2.114 . S
Mg332 O342 2.251 . S
Mg332 O345 2.010 . S
O333 Mg332 2.028 . S
O333 C336 1.250 . S
O334 Mg335 2.028 . S
O334 C336 1.248 . S
Mg335 O334 2.028 . S
Mg335 O340 2.032 . S
Mg335 O342 2.079 . S
C336 O333 1.250 . S
C336 O334 1.248 . S
C337 O338 1.264 . S
C337 O345 1.249 . S
O338 C337 1.264 . S
O339 Mg332 1.986 . S
O339 C343 1.246 . S
O340 Mg335 2.032 . S
O340 C343 1.259 . S
O341 Mg332 2.114 . S
O341 C344 1.252 . S
O342 Mg332 2.251 . S
O342 Mg335 2.079 . S
O342 C344 1.273 . S
C343 O339 1.246 . S
C343 O340 1.259 . S
C344 O341 1.252 . S
C344 O342 1.273 . S
O345 Mg332 2.010 . S
O345 C337 1.249 . S
Mg346 O347 2.028 . S
Mg346 O353 1.986 . S
Mg346 O355 2.114 . S
Mg346 O356 2.251 . S
Mg346 O359 2.010 . S
O347 Mg346 2.028 . S
O347 C350 1.250 . S
O348 Mg349 2.028 . S
O348 C350 1.248 . S
Mg349 O348 2.028 . S
Mg349 O354 2.032 . S
Mg349 O356 2.079 . S
C350 O347 1.250 . S
C350 O348 1.248 . S
C351 O352 1.264 . S
C351 O359 1.249 . S
O352 C351 1.264 . S
O353 Mg346 1.986 . S
O353 C357 1.246 . S
O354 Mg349 2.032 . S
O354 C357 1.259 . S
O355 Mg346 2.114 . S
O355 C358 1.252 . S
O356 Mg346 2.251 . S
O356 Mg349 2.079 . S
O356 C358 1.273 . S
C357 O353 1.246 . S
C357 O354 1.259 . S
C358 O355 1.252 . S
C358 O356 1.273 . S
O359 Mg346 2.010 . S
O359 C351 1.249 . S
C360 C361 1.349 . S
C360 C362 1.327 . S
C360 H385 0.950 . S
C361 C360 1.349 . S
C361 C377 1.349 . S
C362 C360 1.327 . S
C362 C381 1.429 . S
C362 H386 0.950 . S
C363 C380 1.574 . S
C363 C382 1.368 . S
C363 H387 0.949 . S
H364 C368 0.949 . S
C365 C366 1.349 . S
C365 C367 1.327 . S
C365 H388 0.950 . S
C366 C365 1.349 . S
C366 C378 1.349 . S
C367 C365 1.327 . S
C367 C383 1.429 . S
C367 H389 0.950 . S
C368 H364 0.949 . S
C368 C376 1.574 . S
C368 C384 1.368 . S
H369 C377 0.950 . S
H370 C375 0.950 . S
H371 C376 0.949 . S
H372 C378 0.950 . S
H373 C379 0.950 . S
H374 C380 0.949 . S
C375 H370 0.950 . S
C375 C377 1.327 . S
C375 C381 1.429 . S
C376 C368 1.574 . S
C376 H371 0.949 . S
C376 C382 1.368 . S
C377 C361 1.349 . S
C377 H369 0.950 . S
C377 C375 1.327 . S
C378 C366 1.349 . S
C378 H372 0.950 . S
C378 C379 1.327 . S
C379 H373 0.950 . S
C379 C378 1.327 . S
C379 C383 1.429 . S
C380 C363 1.574 . S
C380 H374 0.949 . S
C380 C384 1.368 . S
C381 C362 1.429 . S
C381 C375 1.429 . S
C381 C382 1.523 . S
C382 C363 1.368 . S
C382 C376 1.368 . S
C382 C381 1.523 . S
C383 C367 1.429 . S
C383 C379 1.429 . S
C383 C384 1.523 . S
C384 C368 1.368 . S
C384 C380 1.368 . S
C384 C383 1.523 . S
H385 C360 0.950 . S
H386 C362 0.950 . S
H387 C363 0.949 . S
H388 C365 0.950 . S
H389 C367 0.950 . S
C390 C391 1.349 . S
C390 C392 1.327 . S
C390 H415 0.950 . S
C391 C390 1.349 . S
C391 C407 1.349 . S
C392 C390 1.327 . S
C392 C411 1.429 . S
C392 H416 0.950 . S
C393 C410 1.574 . S
C393 C412 1.368 . S
C393 H417 0.949 . S
H394 C398 0.949 . S
C395 C396 1.349 . S
C395 C397 1.327 . S
C395 H418 0.950 . S
C396 C395 1.349 . S
C396 C408 1.349 . S
C397 C395 1.327 . S
C397 C413 1.429 . S
C397 H419 0.950 . S
C398 H394 0.949 . S
C398 C406 1.574 . S
C398 C414 1.368 . S
H399 C407 0.950 . S
H400 C405 0.950 . S
H401 C406 0.949 . S
H402 C408 0.950 . S
H403 C409 0.950 . S
H404 C410 0.949 . S
C405 H400 0.950 . S
C405 C407 1.327 . S
C405 C411 1.429 . S
C406 C398 1.574 . S
C406 H401 0.949 . S
C406 C412 1.368 . S
C407 C391 1.349 . S
C407 H399 0.950 . S
C407 C405 1.327 . S
C408 C396 1.349 . S
C408 H402 0.950 . S
C408 C409 1.327 . S
C409 H403 0.950 . S
C409 C408 1.327 . S
C409 C413 1.429 . S
C410 C393 1.574 . S
C410 H404 0.949 . S
C410 C414 1.368 . S
C411 C392 1.429 . S
C411 C405 1.429 . S
C411 C412 1.523 . S
C412 C393 1.368 . S
C412 C406 1.368 . S
C412 C411 1.523 . S
C413 C397 1.429 . S
C413 C409 1.429 . S
C413 C414 1.523 . S
C414 C398 1.368 . S
C414 C410 1.368 . S
C414 C413 1.523 . S
H415 C390 0.950 . S
H416 C392 0.950 . S
H417 C393 0.949 . S
H418 C395 0.950 . S
H419 C397 0.950 . S
C420 C421 1.349 . S
C420 C422 1.327 . S
C420 H445 0.950 . S
C421 C420 1.349 . S
C421 C437 1.349 . S
C422 C420 1.327 . S
C422 C441 1.429 . S
C422 H446 0.950 . S
C423 C440 1.574 . S
C423 C442 1.368 . S
C423 H447 0.949 . S
H424 C428 0.949 . S
C425 C426 1.349 . S
C425 C427 1.327 . S
C425 H448 0.950 . S
C426 C425 1.349 . S
C426 C438 1.349 . S
C427 C425 1.327 . S
C427 C443 1.429 . S
C427 H449 0.950 . S
C428 H424 0.949 . S
C428 C436 1.574 . S
C428 C444 1.368 . S
H429 C437 0.950 . S
H430 C435 0.950 . S
H431 C436 0.949 . S
H432 C438 0.950 . S
H433 C439 0.950 . S
H434 C440 0.949 . S
C435 H430 0.950 . S
C435 C437 1.327 . S
C435 C441 1.429 . S
C436 C428 1.574 . S
C436 H431 0.949 . S
C436 C442 1.368 . S
C437 C421 1.349 . S
C437 H429 0.950 . S
C437 C435 1.327 . S
C438 C426 1.349 . S
C438 H432 0.950 . S
C438 C439 1.327 . S
C439 H433 0.950 . S
C439 C438 1.327 . S
C439 C443 1.429 . S
C440 C423 1.574 . S
C440 H434 0.949 . S
C440 C444 1.368 . S
C441 C422 1.429 . S
C441 C435 1.429 . S
C441 C442 1.523 . S
C442 C423 1.368 . S
C442 C436 1.368 . S
C442 C441 1.523 . S
C443 C427 1.429 . S
C443 C439 1.429 . S
C443 C444 1.523 . S
C444 C428 1.368 . S
C444 C440 1.368 . S
C444 C443 1.523 . S
H445 C420 0.950 . S
H446 C422 0.950 . S
H447 C423 0.949 . S
H448 C425 0.950 . S
H449 C427 0.950 . S
C450 C451 1.349 . S
C450 C452 1.327 . S
C450 H475 0.950 . S
C451 C450 1.349 . S
C451 C467 1.349 . S
C452 C450 1.327 . S
C452 C471 1.429 . S
C452 H476 0.950 . S
C453 C470 1.574 . S
C453 C472 1.368 . S
C453 H477 0.949 . S
H454 C458 0.949 . S
C455 C456 1.349 . S
C455 C457 1.327 . S
C455 H478 0.950 . S
C456 C455 1.349 . S
C456 C468 1.349 . S
C457 C455 1.327 . S
C457 C473 1.429 . S
C457 H479 0.950 . S
C458 H454 0.949 . S
C458 C466 1.574 . S
C458 C474 1.368 . S
H459 C467 0.950 . S
H460 C465 0.950 . S
H461 C466 0.949 . S
H462 C468 0.950 . S
H463 C469 0.950 . S
H464 C470 0.949 . S
C465 H460 0.950 . S
C465 C467 1.327 . S
C465 C471 1.429 . S
C466 C458 1.574 . S
C466 H461 0.949 . S
C466 C472 1.368 . S
C467 C451 1.349 . S
C467 H459 0.950 . S
C467 C465 1.327 . S
C468 C456 1.349 . S
C468 H462 0.950 . S
C468 C469 1.327 . S
C469 H463 0.950 . S
C469 C468 1.327 . S
C469 C473 1.429 . S
C470 C453 1.574 . S
C470 H464 0.949 . S
C470 C474 1.368 . S
C471 C452 1.429 . S
C471 C465 1.429 . S
C471 C472 1.523 . S
C472 C453 1.368 . S
C472 C466 1.368 . S
C472 C471 1.523 . S
C473 C457 1.429 . S
C473 C469 1.429 . S
C473 C474 1.523 . S
C474 C458 1.368 . S
C474 C470 1.368 . S
C474 C473 1.523 . S
H475 C450 0.950 . S
H476 C452 0.950 . S
H477 C453 0.949 . S
H478 C455 0.950 . S
H479 C457 0.950 . S
C480 C481 1.349 . S
C480 C482 1.327 . S
C480 H505 0.950 . S
C481 C480 1.349 . S
C481 C497 1.349 . S
C482 C480 1.327 . S
C482 C501 1.429 . S
C482 H506 0.950 . S
C483 C500 1.574 . S
C483 C502 1.368 . S
C483 H507 0.949 . S
H484 C488 0.949 . S
C485 C486 1.349 . S
C485 C487 1.327 . S
C485 H508 0.950 . S
C486 C485 1.349 . S
C486 C498 1.349 . S
C487 C485 1.327 . S
C487 C503 1.429 . S
C487 H509 0.950 . S
C488 H484 0.949 . S
C488 C496 1.574 . S
C488 C504 1.368 . S
H489 C497 0.950 . S
H490 C495 0.950 . S
H491 C496 0.949 . S
H492 C498 0.950 . S
H493 C499 0.950 . S
H494 C500 0.949 . S
C495 H490 0.950 . S
C495 C497 1.327 . S
C495 C501 1.429 . S
C496 C488 1.574 . S
C496 H491 0.949 . S
C496 C502 1.368 . S
C497 C481 1.349 . S
C497 H489 0.950 . S
C497 C495 1.327 . S
C498 C486 1.349 . S
C498 H492 0.950 . S
C498 C499 1.327 . S
C499 H493 0.950 . S
C499 C498 1.327 . S
C499 C503 1.429 . S
C500 C483 1.574 . S
C500 H494 0.949 . S
C500 C504 1.368 . S
C501 C482 1.429 . S
C501 C495 1.429 . S
C501 C502 1.523 . S
C502 C483 1.368 . S
C502 C496 1.368 . S
C502 C501 1.523 . S
C503 C487 1.429 . S
C503 C499 1.429 . S
C503 C504 1.523 . S
C504 C488 1.368 . S
C504 C500 1.368 . S
C504 C503 1.523 . S
H505 C480 0.950 . S
H506 C482 0.950 . S
H507 C483 0.949 . S
H508 C485 0.950 . S
H509 C487 0.950 . S
C510 C511 1.349 . S
C510 C512 1.327 . S
C510 H535 0.950 . S
C511 C510 1.349 . S
C511 C527 1.349 . S
C512 C510 1.327 . S
C512 C531 1.429 . S
C512 H536 0.950 . S
C513 C530 1.574 . S
C513 C532 1.368 . S
C513 H537 0.949 . S
H514 C518 0.949 . S
C515 C516 1.349 . S
C515 C517 1.327 . S
C515 H538 0.950 . S
C516 C515 1.349 . S
C516 C528 1.349 . S
C517 C515 1.327 . S
C517 C533 1.429 . S
C517 H539 0.950 . S
C518 H514 0.949 . S
C518 C526 1.574 . S
C518 C534 1.368 . S
H519 C527 0.950 . S
H520 C525 0.950 . S
H521 C526 0.949 . S
H522 C528 0.950 . S
H523 C529 0.950 . S
H524 C530 0.949 . S
C525 H520 0.950 . S
C525 C527 1.327 . S
C525 C531 1.429 . S
C526 C518 1.574 . S
C526 H521 0.949 . S
C526 C532 1.368 . S
C527 C511 1.349 . S
C527 H519 0.950 . S
C527 C525 1.327 . S
C528 C516 1.349 . S
C528 H522 0.950 . S
C528 C529 1.327 . S
C529 H523 0.950 . S
C529 C528 1.327 . S
C529 C533 1.429 . S
C530 C513 1.574 . S
C530 H524 0.949 . S
C530 C534 1.368 . S
C531 C512 1.429 . S
C531 C525 1.429 . S
C531 C532 1.523 . S
C532 C513 1.368 . S
C532 C526 1.368 . S
C532 C531 1.523 . S
C533 C517 1.429 . S
C533 C529 1.429 . S
C533 C534 1.523 . S
C534 C518 1.368 . S
C534 C530 1.368 . S
C534 C533 1.523 . S
H535 C510 0.950 . S
H536 C512 0.950 . S
H537 C513 0.949 . S
H538 C515 0.950 . S
H539 C517 0.950 . S
C540 C541 1.349 . S
C540 C542 1.327 . S
C540 H565 0.950 . S
C541 C540 1.349 . S
C541 C557 1.349 . S
C542 C540 1.327 . S
C542 C561 1.429 . S
C542 H566 0.950 . S
C543 C560 1.574 . S
C543 C562 1.368 . S
C543 H567 0.949 . S
H544 C548 0.949 . S
C545 C546 1.349 . S
C545 C547 1.327 . S
C545 H568 0.950 . S
C546 C545 1.349 . S
C546 C558 1.349 . S
C547 C545 1.327 . S
C547 C563 1.429 . S
C547 H569 0.950 . S
C548 H544 0.949 . S
C548 C556 1.574 . S
C548 C564 1.368 . S
H549 C557 0.950 . S
H550 C555 0.950 . S
H551 C556 0.949 . S
H552 C558 0.950 . S
H553 C559 0.950 . S
H554 C560 0.949 . S
C555 H550 0.950 . S
C555 C557 1.327 . S
C555 C561 1.429 . S
C556 C548 1.574 . S
C556 H551 0.949 . S
C556 C562 1.368 . S
C557 C541 1.349 . S
C557 H549 0.950 . S
C557 C555 1.327 . S
C558 C546 1.349 . S
C558 H552 0.950 . S
C558 C559 1.327 . S
C559 H553 0.950 . S
C559 C558 1.327 . S
C559 C563 1.429 . S
C560 C543 1.574 . S
C560 H554 0.949 . S
C560 C564 1.368 . S
C561 C542 1.429 . S
C561 C555 1.429 . S
C561 C562 1.523 . S
C562 C543 1.368 . S
C562 C556 1.368 . S
C562 C561 1.523 . S
C563 C547 1.429 . S
C563 C559 1.429 . S
C563 C564 1.523 . S
C564 C548 1.368 . S
C564 C560 1.368 . S
C564 C563 1.523 . S
H565 C540 0.950 . S
H566 C542 0.950 . S
H567 C543 0.949 . S
H568 C545 0.950 . S
H569 C547 0.950 . S
C570 C571 1.349 . S
C570 C572 1.327 . S
C570 H595 0.950 . S
C571 C570 1.349 . S
C571 C587 1.349 . S
C572 C570 1.327 . S
C572 C591 1.429 . S
C572 H596 0.950 . S
C573 C590 1.574 . S
C573 C592 1.368 . S
C573 H597 0.949 . S
H574 C578 0.949 . S
C575 C576 1.349 . S
C575 C577 1.327 . S
C575 H598 0.950 . S
C576 C575 1.349 . S
C576 C588 1.349 . S
C577 C575 1.327 . S
C577 C593 1.429 . S
C577 H599 0.950 . S
C578 H574 0.949 . S
C578 C586 1.574 . S
C578 C594 1.368 . S
H579 C587 0.950 . S
H580 C585 0.950 . S
H581 C586 0.949 . S
H582 C588 0.950 . S
H583 C589 0.950 . S
H584 C590 0.949 . S
C585 H580 0.950 . S
C585 C587 1.327 . S
C585 C591 1.429 . S
C586 C578 1.574 . S
C586 H581 0.949 . S
C586 C592 1.368 . S
C587 C571 1.349 . S
C587 H579 0.950 . S
C587 C585 1.327 . S
C588 C576 1.349 . S
C588 H582 0.950 . S
C588 C589 1.327 . S
C589 H583 0.950 . S
C589 C588 1.327 . S
C589 C593 1.429 . S
C590 C573 1.574 . S
C590 H584 0.949 . S
C590 C594 1.368 . S
C591 C572 1.429 . S
C591 C585 1.429 . S
C591 C592 1.523 . S
C592 C573 1.368 . S
C592 C586 1.368 . S
C592 C591 1.523 . S
C593 C577 1.429 . S
C593 C589 1.429 . S
C593 C594 1.523 . S
C594 C578 1.368 . S
C594 C590 1.368 . S
C594 C593 1.523 . S
H595 C570 0.950 . S
H596 C572 0.950 . S
H597 C573 0.949 . S
H598 C575 0.950 . S
H599 C577 0.950 . S
C600 C601 1.349 . S
C600 C602 1.327 . S
C600 H625 0.950 . S
C601 C600 1.349 . S
C601 C617 1.349 . S
C602 C600 1.327 . S
C602 C621 1.429 . S
C602 H626 0.950 . S
C603 C620 1.574 . S
C603 C622 1.368 . S
C603 H627 0.949 . S
H604 C608 0.949 . S
C605 C606 1.349 . S
C605 C607 1.327 . S
C605 H628 0.950 . S
C606 C605 1.349 . S
C606 C618 1.349 . S
C607 C605 1.327 . S
C607 C623 1.429 . S
C607 H629 0.950 . S
C608 H604 0.949 . S
C608 C616 1.574 . S
C608 C624 1.368 . S
H609 C617 0.950 . S
H610 C615 0.950 . S
H611 C616 0.949 . S
H612 C618 0.950 . S
H613 C619 0.950 . S
H614 C620 0.949 . S
C615 H610 0.950 . S
C615 C617 1.327 . S
C615 C621 1.429 . S
C616 C608 1.574 . S
C616 H611 0.949 . S
C616 C622 1.368 . S
C617 C601 1.349 . S
C617 H609 0.950 . S
C617 C615 1.327 . S
C618 C606 1.349 . S
C618 H612 0.950 . S
C618 C619 1.327 . S
C619 H613 0.950 . S
C619 C618 1.327 . S
C619 C623 1.429 . S
C620 C603 1.574 . S
C620 H614 0.949 . S
C620 C624 1.368 . S
C621 C602 1.429 . S
C621 C615 1.429 . S
C621 C622 1.523 . S
C622 C603 1.368 . S
C622 C616 1.368 . S
C622 C621 1.523 . S
C623 C607 1.429 . S
C623 C619 1.429 . S
C623 C624 1.523 . S
C624 C608 1.368 . S
C624 C620 1.368 . S
C624 C623 1.523 . S
H625 C600 0.950 . S
H626 C602 0.950 . S
H627 C603 0.949 . S
H628 C605 0.950 . S
H629 C607 0.950 . S
C630 C631 1.349 . S
C630 C632 1.327 . S
C630 H655 0.950 . S
C631 C630 1.349 . S
C631 C647 1.349 . S
C632 C630 1.327 . S
C632 C651 1.429 . S
C632 H656 0.950 . S
C633 C650 1.574 . S
C633 C652 1.368 . S
C633 H657 0.949 . S
H634 C638 0.949 . S
C635 C636 1.349 . S
C635 C637 1.327 . S
C635 H658 0.950 . S
C636 C635 1.349 . S
C636 C648 1.349 . S
C637 C635 1.327 . S
C637 C653 1.429 . S
C637 H659 0.950 . S
C638 H634 0.949 . S
C638 C646 1.574 . S
C638 C654 1.368 . S
H639 C647 0.950 . S
H640 C645 0.950 . S
H641 C646 0.949 . S
H642 C648 0.950 . S
H643 C649 0.950 . S
H644 C650 0.949 . S
C645 H640 0.950 . S
C645 C647 1.327 . S
C645 C651 1.429 . S
C646 C638 1.574 . S
C646 H641 0.949 . S
C646 C652 1.368 . S
C647 C631 1.349 . S
C647 H639 0.950 . S
C647 C645 1.327 . S
C648 C636 1.349 . S
C648 H642 0.950 . S
C648 C649 1.327 . S
C649 H643 0.950 . S
C649 C648 1.327 . S
C649 C653 1.429 . S
C650 C633 1.574 . S
C650 H644 0.949 . S
C650 C654 1.368 . S
C651 C632 1.429 . S
C651 C645 1.429 . S
C651 C652 1.523 . S
C652 C633 1.368 . S
C652 C646 1.368 . S
C652 C651 1.523 . S
C653 C637 1.429 . S
C653 C649 1.429 . S
C653 C654 1.523 . S
C654 C638 1.368 . S
C654 C650 1.368 . S
C654 C653 1.523 . S
H655 C630 0.950 . S
H656 C632 0.950 . S
H657 C633 0.949 . S
H658 C635 0.950 . S
H659 C637 0.950 . S
C660 C661 1.349 . S
C660 C662 1.327 . S
C660 H685 0.950 . S
C661 C660 1.349 . S
C661 C677 1.349 . S
C662 C660 1.327 . S
C662 C681 1.429 . S
C662 H686 0.950 . S
C663 C680 1.574 . S
C663 C682 1.368 . S
C663 H687 0.949 . S
H664 C668 0.949 . S
C665 C666 1.349 . S
C665 C667 1.327 . S
C665 H688 0.950 . S
C666 C665 1.349 . S
C666 C678 1.349 . S
C667 C665 1.327 . S
C667 C683 1.429 . S
C667 H689 0.950 . S
C668 H664 0.949 . S
C668 C676 1.574 . S
C668 C684 1.368 . S
H669 C677 0.950 . S
H670 C675 0.950 . S
H671 C676 0.949 . S
H672 C678 0.950 . S
H673 C679 0.950 . S
H674 C680 0.949 . S
C675 H670 0.950 . S
C675 C677 1.327 . S
C675 C681 1.429 . S
C676 C668 1.574 . S
C676 H671 0.949 . S
C676 C682 1.368 . S
C677 C661 1.349 . S
C677 H669 0.950 . S
C677 C675 1.327 . S
C678 C666 1.349 . S
C678 H672 0.950 . S
C678 C679 1.327 . S
C679 H673 0.950 . S
C679 C678 1.327 . S
C679 C683 1.429 . S
C680 C663 1.574 . S
C680 H674 0.949 . S
C680 C684 1.368 . S
C681 C662 1.429 . S
C681 C675 1.429 . S
C681 C682 1.523 . S
C682 C663 1.368 . S
C682 C676 1.368 . S
C682 C681 1.523 . S
C683 C667 1.429 . S
C683 C679 1.429 . S
C683 C684 1.523 . S
C684 C668 1.368 . S
C684 C680 1.368 . S
C684 C683 1.523 . S
H685 C660 0.950 . S
H686 C662 0.950 . S
H687 C663 0.949 . S
H688 C665 0.950 . S
H689 C667 0.950 . S
C690 C691 1.349 . S
C690 C692 1.327 . S
C690 H715 0.950 . S
C691 C690 1.349 . S
C691 C707 1.349 . S
C692 C690 1.327 . S
C692 C711 1.429 . S
C692 H716 0.950 . S
C693 C710 1.574 . S
C693 C712 1.368 . S
C693 H717 0.949 . S
H694 C698 0.949 . S
C695 C696 1.349 . S
C695 C697 1.327 . S
C695 H718 0.950 . S
C696 C695 1.349 . S
C696 C708 1.349 . S
C697 C695 1.327 . S
C697 C713 1.429 . S
C697 H719 0.950 . S
C698 H694 0.949 . S
C698 C706 1.574 . S
C698 C714 1.368 . S
H699 C707 0.950 . S
H700 C705 0.950 . S
H701 C706 0.949 . S
H702 C708 0.950 . S
H703 C709 0.950 . S
H704 C710 0.949 . S
C705 H700 0.950 . S
C705 C707 1.327 . S
C705 C711 1.429 . S
C706 C698 1.574 . S
C706 H701 0.949 . S
C706 C712 1.368 . S
C707 C691 1.349 . S
C707 H699 0.950 . S
C707 C705 1.327 . S
C708 C696 1.349 . S
C708 H702 0.950 . S
C708 C709 1.327 . S
C709 H703 0.950 . S
C709 C708 1.327 . S
C709 C713 1.429 . S
C710 C693 1.574 . S
C710 H704 0.949 . S
C710 C714 1.368 . S
C711 C692 1.429 . S
C711 C705 1.429 . S
C711 C712 1.523 . S
C712 C693 1.368 . S
C712 C706 1.368 . S
C712 C711 1.523 . S
C713 C697 1.429 . S
C713 C709 1.429 . S
C713 C714 1.523 . S
C714 C698 1.368 . S
C714 C710 1.368 . S
C714 C713 1.523 . S
H715 C690 0.950 . S
H716 C692 0.950 . S
H717 C693 0.949 . S
H718 C695 0.950 . S
H719 C697 0.950 . S
C720 C721 1.349 . S
C720 C722 1.327 . S
C720 H745 0.950 . S
C721 C720 1.349 . S
C721 C737 1.349 . S
C722 C720 1.327 . S
C722 C741 1.429 . S
C722 H746 0.950 . S
C723 C740 1.574 . S
C723 C742 1.368 . S
C723 H747 0.949 . S
H724 C728 0.949 . S
C725 C726 1.349 . S
C725 C727 1.327 . S
C725 H748 0.950 . S
C726 C725 1.349 . S
C726 C738 1.349 . S
C727 C725 1.327 . S
C727 C743 1.429 . S
C727 H749 0.950 . S
C728 H724 0.949 . S
C728 C736 1.574 . S
C728 C744 1.368 . S
H729 C737 0.950 . S
H730 C735 0.950 . S
H731 C736 0.949 . S
H732 C738 0.950 . S
H733 C739 0.950 . S
H734 C740 0.949 . S
C735 H730 0.950 . S
C735 C737 1.327 . S
C735 C741 1.429 . S
C736 C728 1.574 . S
C736 H731 0.949 . S
C736 C742 1.368 . S
C737 C721 1.349 . S
C737 H729 0.950 . S
C737 C735 1.327 . S
C738 C726 1.349 . S
C738 H732 0.950 . S
C738 C739 1.327 . S
C739 H733 0.950 . S
C739 C738 1.327 . S
C739 C743 1.429 . S
C740 C723 1.574 . S
C740 H734 0.949 . S
C740 C744 1.368 . S
C741 C722 1.429 . S
C741 C735 1.429 . S
C741 C742 1.523 . S
C742 C723 1.368 . S
C742 C736 1.368 . S
C742 C741 1.523 . S
C743 C727 1.429 . S
C743 C739 1.429 . S
C743 C744 1.523 . S
C744 C728 1.368 . S
C744 C740 1.368 . S
C744 C743 1.523 . S
H745 C720 0.950 . S
H746 C722 0.950 . S
H747 C723 0.949 . S
H748 C725 0.950 . S
H749 C727 0.950 . S
C750 C751 1.349 . S
C750 C752 1.327 . S
C750 H775 0.950 . S
C751 C750 1.349 . S
C751 C767 1.349 . S
C752 C750 1.327 . S
C752 C771 1.429 . S
C752 H776 0.950 . S
C753 C770 1.574 . S
C753 C772 1.368 . S
C753 H777 0.949 . S
H754 C758 0.949 . S
C755 C756 1.349 . S
C755 C757 1.327 . S
C755 H778 0.950 . S
C756 C755 1.349 . S
C756 C768 1.349 . S
C757 C755 1.327 . S
C757 C773 1.429 . S
C757 H779 0.950 . S
C758 H754 0.949 . S
C758 C766 1.574 . S
C758 C774 1.368 . S
H759 C767 0.950 . S
H760 C765 0.950 . S
H761 C766 0.949 . S
H762 C768 0.950 . S
H763 C769 0.950 . S
H764 C770 0.949 . S
C765 H760 0.950 . S
C765 C767 1.327 . S
C765 C771 1.429 . S
C766 C758 1.574 . S
C766 H761 0.949 . S
C766 C772 1.368 . S
C767 C751 1.349 . S
C767 H759 0.950 . S
C767 C765 1.327 . S
C768 C756 1.349 . S
C768 H762 0.950 . S
C768 C769 1.327 . S
C769 H763 0.950 . S
C769 C768 1.327 . S
C769 C773 1.429 . S
C770 C753 1.574 . S
C770 H764 0.949 . S
C770 C774 1.368 . S
C771 C752 1.429 . S
C771 C765 1.429 . S
C771 C772 1.523 . S
C772 C753 1.368 . S
C772 C766 1.368 . S
C772 C771 1.523 . S
C773 C757 1.429 . S
C773 C769 1.429 . S
C773 C774 1.523 . S
C774 C758 1.368 . S
C774 C770 1.368 . S
C774 C773 1.523 . S
H775 C750 0.950 . S
H776 C752 0.950 . S
H777 C753 0.949 . S
H778 C755 0.950 . S
H779 C757 0.950 . S
C780 C781 1.349 . S
C780 C782 1.327 . S
C780 H805 0.950 . S
C781 C780 1.349 . S
C781 C797 1.349 . S
C782 C780 1.327 . S
C782 C801 1.429 . S
C782 H806 0.950 . S
C783 C800 1.574 . S
C783 C802 1.368 . S
C783 H807 0.949 . S
H784 C788 0.949 . S
C785 C786 1.349 . S
C785 C787 1.327 . S
C785 H808 0.950 . S
C786 C785 1.349 . S
C786 C798 1.349 . S
C787 C785 1.327 . S
C787 C803 1.429 . S
C787 H809 0.950 . S
C788 H784 0.949 . S
C788 C796 1.574 . S
C788 C804 1.368 . S
H789 C797 0.950 . S
H790 C795 0.950 . S
H791 C796 0.949 . S
H792 C798 0.950 . S
H793 C799 0.950 . S
H794 C800 0.949 . S
C795 H790 0.950 . S
C795 C797 1.327 . S
C795 C801 1.429 . S
C796 C788 1.574 . S
C796 H791 0.949 . S
C796 C802 1.368 . S
C797 C781 1.349 . S
C797 H789 0.950 . S
C797 C795 1.327 . S
C798 C786 1.349 . S
C798 H792 0.950 . S
C798 C799 1.327 . S
C799 H793 0.950 . S
C799 C798 1.327 . S
C799 C803 1.429 . S
C800 C783 1.574 . S
C800 H794 0.949 . S
C800 C804 1.368 . S
C801 C782 1.429 . S
C801 C795 1.429 . S
C801 C802 1.523 . S
C802 C783 1.368 . S
C802 C796 1.368 . S
C802 C801 1.523 . S
C803 C787 1.429 . S
C803 C799 1.429 . S
C803 C804 1.523 . S
C804 C788 1.368 . S
C804 C800 1.368 . S
C804 C803 1.523 . S
H805 C780 0.950 . S
H806 C782 0.950 . S
H807 C783 0.949 . S
H808 C785 0.950 . S
H809 C787 0.950 . S
C810 C811 1.349 . S
C810 C812 1.327 . S
C810 H835 0.950 . S
C811 C810 1.349 . S
C811 C827 1.349 . S
C812 C810 1.327 . S
C812 C831 1.429 . S
C812 H836 0.950 . S
C813 C830 1.574 . S
C813 C832 1.368 . S
C813 H837 0.949 . S
H814 C818 0.949 . S
C815 C816 1.349 . S
C815 C817 1.327 . S
C815 H838 0.950 . S
C816 C815 1.349 . S
C816 C828 1.349 . S
C817 C815 1.327 . S
C817 C833 1.429 1_554 S
C817 H839 0.950 . S
C818 H814 0.949 . S
C818 C826 1.574 . S
C818 C834 1.368 . S
H819 C827 0.950 . S
H820 C825 0.950 . S
H821 C826 0.949 . S
H822 C828 0.950 . S
H823 C829 0.936 1_556 S
H824 C830 0.949 . S
C825 H820 0.950 . S
C825 C827 1.327 . S
C825 C831 1.429 . S
C826 C818 1.574 . S
C826 H821 0.949 . S
C826 C832 1.368 . S
C827 C811 1.349 . S
C827 H819 0.950 . S
C827 C825 1.327 . S
C828 C816 1.349 . S
C828 H822 0.950 . S
C828 C829 1.343 . S
C829 H823 0.936 1_554 S
C829 C828 1.343 . S
C829 C833 1.426 1_554 S
C830 C813 1.574 . S
C830 H824 0.949 . S
C830 C834 1.368 . S
C831 C812 1.429 . S
C831 C825 1.429 . S
C831 C832 1.523 . S
C832 C813 1.368 . S
C832 C826 1.368 . S
C832 C831 1.523 . S
C833 C817 1.429 1_556 S
C833 C829 1.426 1_556 S
C833 C834 1.523 . S
C834 C818 1.368 . S
C834 C830 1.368 . S
C834 C833 1.523 . S
H835 C810 0.950 . S
H836 C812 0.950 . S
H837 C813 0.949 . S
H838 C815 0.950 . S
H839 C817 0.950 . S
C840 C841 1.349 . S
C840 C842 1.327 . S
C840 H865 0.950 . S
C841 C840 1.349 . S
C841 C857 1.349 . S
C842 C840 1.327 . S
C842 C861 1.429 . S
C842 H866 0.950 . S
C843 C860 1.574 . S
C843 C862 1.368 . S
C843 H867 0.949 . S
H844 C848 0.949 . S
C845 C846 1.349 . S
C845 C847 1.327 . S
C845 H868 0.950 . S
C846 C845 1.349 . S
C846 C858 1.349 . S
C847 C845 1.327 . S
C847 C863 1.429 . S
C847 H869 0.950 . S
C848 H844 0.949 . S
C848 C856 1.574 . S
C848 C864 1.368 . S
H849 C857 0.950 . S
H850 C855 0.950 . S
H851 C856 0.949 . S
H852 C858 0.950 . S
H853 C859 0.950 . S
H854 C860 0.949 . S
C855 H850 0.950 . S
C855 C857 1.327 . S
C855 C861 1.429 . S
C856 C848 1.574 . S
C856 H851 0.949 . S
C856 C862 1.368 . S
C857 C841 1.349 . S
C857 H849 0.950 . S
C857 C855 1.327 . S
C858 C846 1.349 . S
C858 H852 0.950 . S
C858 C859 1.327 . S
C859 H853 0.950 . S
C859 C858 1.327 . S
C859 C863 1.429 . S
C860 C843 1.574 . S
C860 H854 0.949 . S
C860 C864 1.368 . S
C861 C842 1.429 . S
C861 C855 1.429 . S
C861 C862 1.523 . S
C862 C843 1.368 . S
C862 C856 1.368 . S
C862 C861 1.523 . S
C863 C847 1.429 . S
C863 C859 1.429 . S
C863 C864 1.523 . S
C864 C848 1.368 . S
C864 C860 1.368 . S
C864 C863 1.523 . S
H865 C840 0.950 . S
H866 C842 0.950 . S
H867 C843 0.949 . S
H868 C845 0.950 . S
H869 C847 0.950 . S
C870 C871 1.349 . S
C870 C872 1.327 . S
C870 H895 0.950 . S
C871 C870 1.349 . S
C871 C887 1.349 . S
C872 C870 1.327 . S
C872 C891 1.429 . S
C872 H896 0.950 . S
C873 C890 1.574 . S
C873 C892 1.368 . S
C873 H897 0.949 . S
H874 C878 0.949 . S
C875 C876 1.349 . S
C875 C877 1.327 . S
C875 H898 0.950 . S
C876 C875 1.349 . S
C876 C888 1.349 . S
C877 C875 1.327 . S
C877 C893 1.429 . S
C877 H899 0.950 . S
C878 H874 0.949 . S
C878 C886 1.574 . S
C878 C894 1.368 . S
H879 C887 0.950 . S
H880 C885 0.950 . S
H881 C886 0.949 . S
H882 C888 0.950 . S
H883 C889 0.950 . S
H884 C890 0.949 . S
C885 H880 0.950 . S
C885 C887 1.327 . S
C885 C891 1.429 . S
C886 C878 1.574 . S
C886 H881 0.949 . S
C886 C892 1.368 . S
C887 C871 1.349 . S
C887 H879 0.950 . S
C887 C885 1.327 . S
C888 C876 1.349 . S
C888 H882 0.950 . S
C888 C889 1.327 . S
C889 H883 0.950 . S
C889 C888 1.327 . S
C889 C893 1.429 . S
C890 C873 1.574 . S
C890 H884 0.949 . S
C890 C894 1.368 . S
C891 C872 1.429 . S
C891 C885 1.429 . S
C891 C892 1.523 . S
C892 C873 1.368 . S
C892 C886 1.368 . S
C892 C891 1.523 . S
C893 C877 1.429 . S
C893 C889 1.429 . S
C893 C894 1.523 . S
C894 C878 1.368 . S
C894 C890 1.368 . S
C894 C893 1.523 . S
H895 C870 0.950 . S
H896 C872 0.950 . S
H897 C873 0.949 . S
H898 C875 0.950 . S
H899 C877 0.950 . S
C900 C901 1.349 . S
C900 C902 1.327 . S
C900 H925 0.950 . S
C901 C900 1.349 . S
C901 C917 1.349 . S
C902 C900 1.327 . S
C902 C921 1.429 . S
C902 H926 0.950 . S
C903 C920 1.574 . S
C903 C922 1.368 . S
C903 H927 0.949 . S
H904 C908 0.949 . S
C905 C906 1.349 . S
C905 C907 1.327 . S
C905 H928 0.950 . S
C906 C905 1.349 . S
C906 C918 1.349 . S
C907 C905 1.327 . S
C907 C923 1.429 . S
C907 H929 0.950 . S
C908 H904 0.949 . S
C908 C916 1.574 . S
C908 C924 1.368 . S
H909 C917 0.950 . S
H910 C915 0.950 . S
H911 C916 0.949 . S
H912 C918 0.950 . S
H913 C919 0.950 . S
H914 C920 0.949 . S
C915 H910 0.950 . S
C915 C917 1.327 . S
C915 C921 1.429 . S
C916 C908 1.574 . S
C916 H911 0.949 . S
C916 C922 1.368 . S
C917 C901 1.349 . S
C917 H909 0.950 . S
C917 C915 1.327 . S
C918 C906 1.349 . S
C918 H912 0.950 . S
C918 C919 1.327 . S
C919 H913 0.950 . S
C919 C918 1.327 . S
C919 C923 1.429 . S
C920 C903 1.574 . S
C920 H914 0.949 . S
C920 C924 1.368 . S
C921 C902 1.429 . S
C921 C915 1.429 . S
C921 C922 1.523 . S
C922 C903 1.368 . S
C922 C916 1.368 . S
C922 C921 1.523 . S
C923 C907 1.429 . S
C923 C919 1.429 . S
C923 C924 1.523 . S
C924 C908 1.368 . S
C924 C920 1.368 . S
C924 C923 1.523 . S
H925 C900 0.950 . S
H926 C902 0.950 . S
H927 C903 0.949 . S
H928 C905 0.950 . S
H929 C907 0.950 . S
C930 C931 1.349 . S
C930 C932 1.327 . S
C930 H955 0.950 . S
C931 C930 1.349 . S
C931 C947 1.349 . S
C932 C930 1.327 . S
C932 C951 1.429 . S
C932 H956 0.950 . S
C933 C950 1.574 . S
C933 C952 1.368 . S
C933 H957 0.949 . S
H934 C938 0.949 . S
C935 C936 1.349 . S
C935 C937 1.327 . S
C935 H958 0.950 . S
C936 C935 1.349 . S
C936 C948 1.349 . S
C937 C935 1.327 . S
C937 C953 1.429 . S
C937 H959 0.950 . S
C938 H934 0.949 . S
C938 C946 1.574 . S
C938 C954 1.368 . S
H939 C947 0.950 . S
H940 C945 0.950 . S
H941 C946 0.949 . S
H942 C948 0.950 . S
H943 C949 0.950 . S
H944 C950 0.949 . S
C945 H940 0.950 . S
C945 C947 1.327 . S
C945 C951 1.429 . S
C946 C938 1.574 . S
C946 H941 0.949 . S
C946 C952 1.368 . S
C947 C931 1.349 . S
C947 H939 0.950 . S
C947 C945 1.327 . S
C948 C936 1.349 . S
C948 H942 0.950 . S
C948 C949 1.327 . S
C949 H943 0.950 . S
C949 C948 1.327 . S
C949 C953 1.429 . S
C950 C933 1.574 . S
C950 H944 0.949 . S
C950 C954 1.368 . S
C951 C932 1.429 . S
C951 C945 1.429 . S
C951 C952 1.523 . S
C952 C933 1.368 . S
C952 C946 1.368 . S
C952 C951 1.523 . S
C953 C937 1.429 . S
C953 C949 1.429 . S
C953 C954 1.523 . S
C954 C938 1.368 . S
C954 C950 1.368 . S
C954 C953 1.523 . S
H955 C930 0.950 . S
H956 C932 0.950 . S
H957 C933 0.949 . S
H958 C935 0.950 . S
H959 C937 0.950 . S
C960 C961 1.349 . S
C960 C962 1.327 . S
C960 H985 0.950 . S
C961 C960 1.349 . S
C961 C977 1.349 . S
C962 C960 1.327 . S
C962 C981 1.429 . S
C962 H986 0.950 . S
C963 C980 1.574 . S
C963 C982 1.368 . S
C963 H987 0.949 . S
H964 C968 0.949 . S
C965 C966 1.349 . S
C965 C967 1.327 . S
C965 H988 0.950 . S
C966 C965 1.349 . S
C966 C978 1.349 . S
C967 C965 1.327 . S
C967 C983 1.429 . S
C967 H989 0.950 . S
C968 H964 0.949 . S
C968 C976 1.574 . S
C968 C984 1.368 . S
H969 C977 0.950 . S
H970 C975 0.950 . S
H971 C976 0.949 . S
H972 C978 0.950 . S
H973 C979 0.950 . S
H974 C980 0.949 . S
C975 H970 0.950 . S
C975 C977 1.327 . S
C975 C981 1.429 . S
C976 C968 1.574 . S
C976 H971 0.949 . S
C976 C982 1.368 . S
C977 C961 1.349 . S
C977 H969 0.950 . S
C977 C975 1.327 . S
C978 C966 1.349 . S
C978 H972 0.950 . S
C978 C979 1.327 . S
C979 H973 0.950 . S
C979 C978 1.327 . S
C979 C983 1.429 . S
C980 C963 1.574 . S
C980 H974 0.949 . S
C980 C984 1.368 . S
C981 C962 1.429 . S
C981 C975 1.429 . S
C981 C982 1.523 . S
C982 C963 1.368 . S
C982 C976 1.368 . S
C982 C981 1.523 . S
C983 C967 1.429 . S
C983 C979 1.429 . S
C983 C984 1.523 . S
C984 C968 1.368 . S
C984 C980 1.368 . S
C984 C983 1.523 . S
H985 C960 0.950 . S
H986 C962 0.950 . S
H987 C963 0.949 . S
H988 C965 0.950 . S
H989 C967 0.950 . S
C990 C991 1.349 . S
C990 C992 1.327 . S
C990 H1015 0.950 . S
C991 C990 1.349 . S
C991 C1007 1.349 . S
C992 C990 1.327 . S
C992 C1011 1.429 . S
C992 H1016 0.950 . S
C993 C1010 1.574 . S
C993 C1012 1.368 . S
C993 H1017 0.949 . S
H994 C998 0.949 . S
C995 C996 1.349 . S
C995 C997 1.327 . S
C995 H1018 0.950 . S
C996 C995 1.349 . S
C996 C1008 1.349 . S
C997 C995 1.327 . S
C997 C1013 1.429 . S
C997 H1019 0.950 . S
C998 H994 0.949 . S
C998 C1006 1.574 . S
C998 C1014 1.368 . S
H999 C1007 0.950 . S
H1000 C1005 0.950 . S
H1001 C1006 0.949 . S
H1002 C1008 0.950 . S
H1003 C1009 0.950 . S
H1004 C1010 0.949 . S
C1005 H1000 0.950 . S
C1005 C1007 1.327 . S
C1005 C1011 1.429 . S
C1006 C998 1.574 . S
C1006 H1001 0.949 . S
C1006 C1012 1.368 . S
C1007 C991 1.349 . S
C1007 H999 0.950 . S
C1007 C1005 1.327 . S
C1008 C996 1.349 . S
C1008 H1002 0.950 . S
C1008 C1009 1.327 . S
C1009 H1003 0.950 . S
C1009 C1008 1.327 . S
C1009 C1013 1.429 . S
C1010 C993 1.574 . S
C1010 H1004 0.949 . S
C1010 C1014 1.368 . S
C1011 C992 1.429 . S
C1011 C1005 1.429 . S
C1011 C1012 1.523 . S
C1012 C993 1.368 . S
C1012 C1006 1.368 . S
C1012 C1011 1.523 . S
C1013 C997 1.429 . S
C1013 C1009 1.429 . S
C1013 C1014 1.523 . S
C1014 C998 1.368 . S
C1014 C1010 1.368 . S
C1014 C1013 1.523 . S
H1015 C990 0.950 . S
H1016 C992 0.950 . S
H1017 C993 0.949 . S
H1018 C995 0.950 . S
H1019 C997 0.950 . S
C1020 C1021 1.349 . S
C1020 C1022 1.327 . S
C1020 H1045 0.950 . S
C1021 C1020 1.349 . S
C1021 C1037 1.349 . S
C1022 C1020 1.327 . S
C1022 C1041 1.429 . S
C1022 H1046 0.950 . S
C1023 C1040 1.574 . S
C1023 C1042 1.368 . S
C1023 H1047 0.949 . S
H1024 C1028 0.949 . S
C1025 C1026 1.349 . S
C1025 C1027 1.327 . S
C1025 H1048 0.950 . S
C1026 C1025 1.349 . S
C1026 C1038 1.349 . S
C1027 C1025 1.327 . S
C1027 C1043 1.429 . S
C1027 H1049 0.950 . S
C1028 H1024 0.949 . S
C1028 C1036 1.574 1_556 S
C1028 C1044 1.368 . S
H1029 C1037 0.950 . S
H1030 C1035 0.950 . S
H1031 C1036 0.949 . S
H1032 C1038 0.950 . S
H1033 C1039 0.950 . S
H1034 C1040 0.949 1_556 S
C1035 H1030 0.950 . S
C1035 C1037 1.327 . S
C1035 C1041 1.429 . S
C1036 C1028 1.574 1_554 S
C1036 H1031 0.949 . S
C1036 C1042 1.368 . S
C1037 C1021 1.349 . S
C1037 H1029 0.950 . S
C1037 C1035 1.327 . S
C1038 C1026 1.349 . S
C1038 H1032 0.950 . S
C1038 C1039 1.327 . S
C1039 H1033 0.950 . S
C1039 C1038 1.327 . S
C1039 C1043 1.429 . S
C1040 C1023 1.574 . S
C1040 H1034 0.949 1_554 S
C1040 C1044 1.368 1_554 S
C1041 C1022 1.429 . S
C1041 C1035 1.429 . S
C1041 C1042 1.523 . S
C1042 C1023 1.368 . S
C1042 C1036 1.368 . S
C1042 C1041 1.523 . S
C1043 C1027 1.429 . S
C1043 C1039 1.429 . S
C1043 C1044 1.523 . S
C1044 C1028 1.368 . S
C1044 C1040 1.368 1_556 S
C1044 C1043 1.523 . S
H1045 C1020 0.950 . S
H1046 C1022 0.950 . S
H1047 C1023 0.949 . S
H1048 C1025 0.950 . S
H1049 C1027 0.950 . S
C1050 C1051 1.349 . S
C1050 C1052 1.327 . S
C1050 H1075 0.950 . S
C1051 C1050 1.349 . S
C1051 C1067 1.349 . S
C1052 C1050 1.327 . S
C1052 C1071 1.429 . S
C1052 H1076 0.950 . S
C1053 C1070 1.574 . S
C1053 C1072 1.368 . S
C1053 H1077 0.949 . S
H1054 C1058 0.949 . S
C1055 C1056 1.349 . S
C1055 C1057 1.327 . S
C1055 H1078 0.950 . S
C1056 C1055 1.349 . S
C1056 C1068 1.349 . S
C1057 C1055 1.327 . S
C1057 C1073 1.429 . S
C1057 H1079 0.950 . S
C1058 H1054 0.949 . S
C1058 C1066 1.574 . S
C1058 C1074 1.368 . S
H1059 C1067 0.950 . S
H1060 C1065 0.950 . S
H1061 C1066 0.949 . S
H1062 C1068 0.950 . S
H1063 C1069 0.950 . S
H1064 C1070 0.949 . S
C1065 H1060 0.950 . S
C1065 C1067 1.327 . S
C1065 C1071 1.429 . S
C1066 C1058 1.574 . S
C1066 H1061 0.949 . S
C1066 C1072 1.368 . S
C1067 C1051 1.349 . S
C1067 H1059 0.950 . S
C1067 C1065 1.327 . S
C1068 C1056 1.349 . S
C1068 H1062 0.950 . S
C1068 C1069 1.327 . S
C1069 H1063 0.950 . S
C1069 C1068 1.327 . S
C1069 C1073 1.429 . S
C1070 C1053 1.574 . S
C1070 H1064 0.949 . S
C1070 C1074 1.368 . S
C1071 C1052 1.429 . S
C1071 C1065 1.429 . S
C1071 C1072 1.523 . S
C1072 C1053 1.368 . S
C1072 C1066 1.368 . S
C1072 C1071 1.523 . S
C1073 C1057 1.429 . S
C1073 C1069 1.429 . S
C1073 C1074 1.523 . S
C1074 C1058 1.368 . S
C1074 C1070 1.368 . S
C1074 C1073 1.523 . S
H1075 C1050 0.950 . S
H1076 C1052 0.950 . S
H1077 C1053 0.949 . S
H1078 C1055 0.950 . S
H1079 C1057 0.950 . S
C366 C351 1.243 . S
C361 C15 1.468 . S
C391 C61 1.505 . S
C396 C281 1.276 . S
C421 C114 1.468 . S
C426 C301 1.488 . S
C451 C139 1.410 . S
C456 C315 1.416 . S
C486 C323 1.218 . S
C481 C185 1.455 . S
C511 C245 1.457 . S
C516 C337 1.227 . S
C541 C47 1.507 . S
C546 C295 1.265 . S
C571 C100 1.453 . S
C576 C309 1.219 . S
C601 C153 1.391 . S
C606 C329 1.408 . S
C636 C343 1.459 . S
C631 C199 1.438 . S
C666 C357 1.459 . S
C661 C231 1.451 . S
C696 C287 1.484 . S
C691 C1 1.476 . S
C721 C22 1.412 . S
C726 C294 1.392 . S
C751 C68 1.437 . S
C756 C308 1.416 . S
C786 C330 1.430 . S
C781 C107 1.429 . S
C811 C146 1.430 . S
C816 C344 1.430 . S
C846 C358 1.397 . S
C841 C192 1.397 . S
C876 C288 1.379 . S
C871 C252 1.377 . S
C906 C350 1.394 . S
C901 C54 1.416 . S
C931 C93 1.414 . S
C936 C280 1.391 . S
C966 C302 1.410 . S
C961 C160 1.407 . S
C991 C206 1.429 . S
C996 C316 1.430 . S
C1021 C238 1.471 . S
C1026 C322 1.449 . S
C1051 C8 1.447 . S
C1056 C336 1.425 . S
