# Generated by pormake.
# Topology eea, (3,6)-cn, num edge types: 1
# Building blocks:
#     Node 0, Type 0, BuildingBlock: MIDCAF_clean_linker_0, # of connection points: 3
#     Node 1, Type 0, BuildingBlock: MIDCAF_clean_linker_0, # of connection points: 3
#     Node 2, Type 0, BuildingBlock: MIDCAF_clean_linker_0, # of connection points: 3
#     Node 3, Type 0, BuildingBlock: MIDCAF_clean_linker_0, # of connection points: 3
#     Node 4, Type 0, BuildingBlock: MIDCAF_clean_linker_0, # of connection points: 3
#     Node 5, Type 0, BuildingBlock: MIDCAF_clean_linker_0, # of connection points: 3
#     Node 6, Type 0, BuildingBlock: MIDCAF_clean_linker_0, # of connection points: 3
#     Node 7, Type 0, BuildingBlock: MIDCAF_clean_linker_0, # of connection points: 3
#     Node 8, Type 0, BuildingBlock: MIDCAF_clean_linker_0, # of connection points: 3
#     Node 9, Type 0, BuildingBlock: MIDCAF_clean_linker_0, # of connection points: 3
#     Node 10, Type 0, BuildingBlock: MIDCAF_clean_linker_0, # of connection points: 3
#     Node 11, Type 0, BuildingBlock: MIDCAF_clean_linker_0, # of connection points: 3
#     Node 12, Type 0, BuildingBlock: MIDCAF_clean_linker_0, # of connection points: 3
#     Node 13, Type 0, BuildingBlock: MIDCAF_clean_linker_0, # of connection points: 3
#     Node 14, Type 0, BuildingBlock: MIDCAF_clean_linker_0, # of connection points: 3
#     Node 15, Type 0, BuildingBlock: MIDCAF_clean_linker_0, # of connection points: 3
#     Node 16, Type 0, BuildingBlock: MIDCAF_clean_linker_0, # of connection points: 3
#     Node 17, Type 0, BuildingBlock: MIDCAF_clean_linker_0, # of connection points: 3
#     Node 18, Type 1, BuildingBlock: LEVNOQ01_clean_sbu_1, # of connection points: 6
#     Node 19, Type 1, BuildingBlock: LEVNOQ01_clean_sbu_1, # of connection points: 6
#     Node 20, Type 1, BuildingBlock: LEVNOQ01_clean_sbu_1, # of connection points: 6
#     Node 21, Type 1, BuildingBlock: LEVNOQ01_clean_sbu_1, # of connection points: 6
#     Node 22, Type 1, BuildingBlock: LEVNOQ01_clean_sbu_1, # of connection points: 6
#     Node 23, Type 1, BuildingBlock: LEVNOQ01_clean_sbu_1, # of connection points: 6
#     Node 24, Type 1, BuildingBlock: LEVNOQ01_clean_sbu_1, # of connection points: 6
#     Node 25, Type 1, BuildingBlock: LEVNOQ01_clean_sbu_1, # of connection points: 6
#     Node 26, Type 1, BuildingBlock: LEVNOQ01_clean_sbu_1, # of connection points: 6
#     Edge 27, Type (0, 1), BuildingBlock: AJUNOK_clean_linker_0, # of connection points: 2
#     Edge 28, Type (0, 1), BuildingBlock: AJUNOK_clean_linker_0, # of connection points: 2
#     Edge 29, Type (0, 1), BuildingBlock: AJUNOK_clean_linker_0, # of connection points: 2
#     Edge 30, Type (0, 1), BuildingBlock: AJUNOK_clean_linker_0, # of connection points: 2
#     Edge 31, Type (0, 1), BuildingBlock: AJUNOK_clean_linker_0, # of connection points: 2
#     Edge 32, Type (0, 1), BuildingBlock: AJUNOK_clean_linker_0, # of connection points: 2
#     Edge 33, Type (0, 1), BuildingBlock: AJUNOK_clean_linker_0, # of connection points: 2
#     Edge 34, Type (0, 1), BuildingBlock: AJUNOK_clean_linker_0, # of connection points: 2
#     Edge 35, Type (0, 1), BuildingBlock: AJUNOK_clean_linker_0, # of connection points: 2
#     Edge 36, Type (0, 1), BuildingBlock: AJUNOK_clean_linker_0, # of connection points: 2
#     Edge 37, Type (0, 1), BuildingBlock: AJUNOK_clean_linker_0, # of connection points: 2
#     Edge 38, Type (0, 1), BuildingBlock: AJUNOK_clean_linker_0, # of connection points: 2
#     Edge 39, Type (0, 1), BuildingBlock: AJUNOK_clean_linker_0, # of connection points: 2
#     Edge 40, Type (0, 1), BuildingBlock: AJUNOK_clean_linker_0, # of connection points: 2
#     Edge 41, Type (0, 1), BuildingBlock: AJUNOK_clean_linker_0, # of connection points: 2
#     Edge 42, Type (0, 1), BuildingBlock: AJUNOK_clean_linker_0, # of connection points: 2
#     Edge 43, Type (0, 1), BuildingBlock: AJUNOK_clean_linker_0, # of connection points: 2
#     Edge 44, Type (0, 1), BuildingBlock: AJUNOK_clean_linker_0, # of connection points: 2
#     Edge 45, Type (0, 1), BuildingBlock: AJUNOK_clean_linker_0, # of connection points: 2
#     Edge 46, Type (0, 1), BuildingBlock: AJUNOK_clean_linker_0, # of connection points: 2
#     Edge 47, Type (0, 1), BuildingBlock: AJUNOK_clean_linker_0, # of connection points: 2
#     Edge 48, Type (0, 1), BuildingBlock: AJUNOK_clean_linker_0, # of connection points: 2
#     Edge 49, Type (0, 1), BuildingBlock: AJUNOK_clean_linker_0, # of connection points: 2
#     Edge 50, Type (0, 1), BuildingBlock: AJUNOK_clean_linker_0, # of connection points: 2
#     Edge 51, Type (0, 1), BuildingBlock: AJUNOK_clean_linker_0, # of connection points: 2
#     Edge 52, Type (0, 1), BuildingBlock: AJUNOK_clean_linker_0, # of connection points: 2
#     Edge 53, Type (0, 1), BuildingBlock: AJUNOK_clean_linker_0, # of connection points: 2
#     Edge 54, Type (0, 1), BuildingBlock: AJUNOK_clean_linker_0, # of connection points: 2
#     Edge 55, Type (0, 1), BuildingBlock: AJUNOK_clean_linker_0, # of connection points: 2
#     Edge 56, Type (0, 1), BuildingBlock: AJUNOK_clean_linker_0, # of connection points: 2
#     Edge 57, Type (0, 1), BuildingBlock: AJUNOK_clean_linker_0, # of connection points: 2
#     Edge 58, Type (0, 1), BuildingBlock: AJUNOK_clean_linker_0, # of connection points: 2
#     Edge 59, Type (0, 1), BuildingBlock: AJUNOK_clean_linker_0, # of connection points: 2
#     Edge 60, Type (0, 1), BuildingBlock: AJUNOK_clean_linker_0, # of connection points: 2
#     Edge 61, Type (0, 1), BuildingBlock: AJUNOK_clean_linker_0, # of connection points: 2
#     Edge 62, Type (0, 1), BuildingBlock: AJUNOK_clean_linker_0, # of connection points: 2
#     Edge 63, Type (0, 1), BuildingBlock: AJUNOK_clean_linker_0, # of connection points: 2
#     Edge 64, Type (0, 1), BuildingBlock: AJUNOK_clean_linker_0, # of connection points: 2
#     Edge 65, Type (0, 1), BuildingBlock: AJUNOK_clean_linker_0, # of connection points: 2
#     Edge 66, Type (0, 1), BuildingBlock: AJUNOK_clean_linker_0, # of connection points: 2
#     Edge 67, Type (0, 1), BuildingBlock: AJUNOK_clean_linker_0, # of connection points: 2
#     Edge 68, Type (0, 1), BuildingBlock: AJUNOK_clean_linker_0, # of connection points: 2
#     Edge 69, Type (0, 1), BuildingBlock: AJUNOK_clean_linker_0, # of connection points: 2
#     Edge 70, Type (0, 1), BuildingBlock: AJUNOK_clean_linker_0, # of connection points: 2
#     Edge 71, Type (0, 1), BuildingBlock: AJUNOK_clean_linker_0, # of connection points: 2
#     Edge 72, Type (0, 1), BuildingBlock: AJUNOK_clean_linker_0, # of connection points: 2
#     Edge 73, Type (0, 1), BuildingBlock: AJUNOK_clean_linker_0, # of connection points: 2
#     Edge 74, Type (0, 1), BuildingBlock: AJUNOK_clean_linker_0, # of connection points: 2
#     Edge 75, Type (0, 1), BuildingBlock: AJUNOK_clean_linker_0, # of connection points: 2
#     Edge 76, Type (0, 1), BuildingBlock: AJUNOK_clean_linker_0, # of connection points: 2
#     Edge 77, Type (0, 1), BuildingBlock: AJUNOK_clean_linker_0, # of connection points: 2
#     Edge 78, Type (0, 1), BuildingBlock: AJUNOK_clean_linker_0, # of connection points: 2
#     Edge 79, Type (0, 1), BuildingBlock: AJUNOK_clean_linker_0, # of connection points: 2
#     Edge 80, Type (0, 1), BuildingBlock: AJUNOK_clean_linker_0, # of connection points: 2
# Relax obj value: 0.095
# Max RMSD: 0.182
# Mean RMSD: 0.092
data_MOF--net-eea--node1-LEVNOQ01_clean_sbu_1--node2-MIDCAF_clean_linker_0--edge1-AJUNOK_clean_linker_0
_symmetry_space_group_name_H-M    P1
_symmetry_Int_Tables_number       1
_symmetry_cell_setting            triclinic
loop_
_symmetry_equiv_pos_as_xyz
'x, y, z'
_cell_length_a     52.032245
_cell_length_b     51.83363
_cell_length_c     53.240834
_cell_angle_alpha  90.1735
_cell_angle_beta   90.126651
_cell_angle_gamma 120.00168
loop_
_atom_site_label
_atom_site_type_symbol
_atom_site_fract_x
_atom_site_fract_y
_atom_site_fract_z
_atom_type_partial_charge
C0 C 0.2211 0.01736 0.39551 0.0
C1 C 0.20731 0.00861 0.37191 0.0
C2 C 0.21087 0.03064 0.35458 0.0
C3 C 0.22725 0.06077 0.361 0.0
H4 H 0.22987 0.14515 0.35208 0.0
H5 H 0.20444 0.17271 0.34324 0.0
H6 H 0.2359 0.22016 0.41361 0.0
H7 H 0.26228 0.19311 0.42221 0.0
H8 H 0.30935 0.1842 0.45275 0.0
H9 H 0.3279 0.18675 0.4953 0.0
H10 H 0.33304 0.10742 0.48186 0.0
H11 H 0.31505 0.10479 0.43898 0.0
H12 H 0.24818 0.05347 0.42015 0.0
H13 H 0.21879 0.00094 0.40922 0.0
H14 H 0.20152 0.02467 0.33585 0.0
H15 H 0.22948 0.0773 0.34743 0.0
N16 N 0.24864 0.12005 0.38413 0.0
N17 N 0.28182 0.15626 0.41247 0.0
N18 N 0.27873 0.10972 0.40996 0.0
C19 C 0.26078 0.14786 0.39422 0.0
C20 C 0.29124 0.13735 0.42013 0.0
C21 C 0.25753 0.1009 0.39204 0.0
C22 C 0.24805 0.1669 0.38784 0.0
C23 C 0.2316 0.1616 0.3656 0.0
C24 C 0.21679 0.1772 0.36066 0.0
C25 C 0.21784 0.19829 0.37791 0.0
C26 C 0.23484 0.20416 0.39992 0.0
C27 C 0.24998 0.18871 0.40478 0.0
C28 C 0.31003 0.1439 0.44268 0.0
C29 C 0.31535 0.16784 0.45844 0.0
C30 C 0.32586 0.1693 0.48277 0.0
C31 C 0.33129 0.147 0.49153 0.0
C32 C 0.32869 0.12463 0.47527 0.0
C33 C 0.31839 0.12325 0.45083 0.0
C34 C 0.24111 0.06938 0.38454 0.0
C35 C 0.23803 0.04745 0.40169 0.0
C36 C 0.96388 0.20478 0.39251 0.0
C37 C 0.97207 0.1997 0.36867 0.0
C38 C 0.95279 0.17362 0.35552 0.0
C39 C 0.92561 0.15299 0.36596 0.0
H40 H 0.85626 0.06689 0.35649 0.0
H41 H 0.82362 0.01919 0.33606 0.0
H42 H 0.75061 0.00846 0.382 0.0
H43 H 0.78328 0.05562 0.40295 0.0
H44 H 0.81923 0.07059 0.46398 0.0
H45 H 0.80239 0.07144 0.50655 0.0
H46 H 0.8532 0.16745 0.50684 0.0
H47 H 0.87071 0.16683 0.4641 0.0
H48 H 0.93108 0.18867 0.42145 0.0
H49 H 0.97852 0.22483 0.40299 0.0
H50 H 0.95848 0.16947 0.33696 0.0
H51 H 0.91118 0.13316 0.35518 0.0
N52 N 0.86901 0.11215 0.38657 0.0
N53 N 0.83559 0.0942 0.41995 0.0
N54 N 0.88084 0.13874 0.42469 0.0
C55 C 0.84258 0.09138 0.39607 0.0
C56 C 0.85446 0.11761 0.43441 0.0
C57 C 0.88824 0.13599 0.40065 0.0
C58 C 0.82233 0.06477 0.38143 0.0
C59 C 0.83314 0.05455 0.36195 0.0
C60 C 0.81449 0.02732 0.35024 0.0
C61 C 0.7847 0.01024 0.35758 0.0
C62 C 0.77363 0.02109 0.37631 0.0
C63 C 0.7923 0.04809 0.38818 0.0
C64 C 0.84618 0.11872 0.4607 0.0
C65 C 0.82696 0.09195 0.47311 0.0
C66 C 0.81735 0.09231 0.49743 0.0
C67 C 0.82634 0.11945 0.50962 0.0
C68 C 0.84587 0.14628 0.49752 0.0
C69 C 0.85598 0.14592 0.47325 0.0
C70 C 0.91722 0.15801 0.38984 0.0
C71 C 0.93676 0.18408 0.40306 0.0
C72 C 0.77254 0.73605 0.37138 0.0
C73 C 0.78518 0.76438 0.36058 0.0
C74 C 0.81555 0.77979 0.35476 0.0
C75 C 0.83353 0.7679 0.36172 0.0
H76 H 0.92172 0.77215 0.36191 0.0
H77 H 0.97135 0.78302 0.34981 0.0
H78 H 0.95671 0.70271 0.38689 0.0
H79 H 0.90792 0.693 0.40031 0.0
H80 H 0.86798 0.68301 0.45594 0.0
H81 H 0.85245 0.66621 0.49907 0.0
H82 H 0.79198 0.7003 0.49661 0.0
H83 H 0.80702 0.71687 0.45359 0.0
H84 H 0.78019 0.70311 0.38799 0.0
H85 H 0.74907 0.7237 0.37572 0.0
H86 H 0.82561 0.80171 0.3464 0.0
H87 H 0.85726 0.78095 0.35877 0.0
N88 N 0.86595 0.73581 0.37868 0.0
N89 N 0.87353 0.7152 0.41545 0.0
N90 N 0.83124 0.71968 0.41133 0.0
C91 C 0.88264 0.72719 0.39217 0.0
C92 C 0.84791 0.71174 0.42523 0.0
C93 C 0.83985 0.73145 0.38813 0.0
C94 C 0.91114 0.73191 0.38226 0.0
C95 C 0.92903 0.75667 0.36718 0.0
C96 C 0.95738 0.76273 0.36004 0.0
C97 C 0.96804 0.74368 0.36728 0.0
C98 C 0.94939 0.71809 0.3813 0.0
C99 C 0.92142 0.71246 0.38894 0.0
C100 C 0.83871 0.70117 0.45125 0.0
C101 C 0.85139 0.68692 0.46456 0.0
C102 C 0.84249 0.67729 0.48917 0.0
C103 C 0.82115 0.68216 0.50101 0.0
C104 C 0.80863 0.69655 0.48787 0.0
C105 C 0.81717 0.7058 0.46319 0.0
C106 C 0.82112 0.7407 0.37464 0.0
C107 C 0.79033 0.72431 0.37834 0.0
C108 C 0.02575 0.24387 0.60065 0.0
C109 C 0.01272 0.22336 0.62023 0.0
C110 C 0.0302 0.21504 0.63435 0.0
C111 C 0.05995 0.22592 0.62807 0.0
H112 H 0.13261 0.21234 0.64009 0.0
H113 H 0.16485 0.19624 0.66001 0.0
H114 H 0.23977 0.26414 0.61931 0.0
H115 H 0.20809 0.28021 0.59963 0.0
H116 H 0.19107 0.29007 0.54211 0.0
H117 H 0.2038 0.30836 0.49903 0.0
H118 H 0.1213 0.30873 0.49246 0.0
H119 H 0.10865 0.29101 0.53526 0.0
H120 H 0.06443 0.27002 0.57877 0.0
H121 H 0.01289 0.25126 0.58996 0.0
H122 H 0.0206 0.19943 0.6497 0.0
H123 H 0.07268 0.21841 0.63877 0.0
N124 N 0.12104 0.24792 0.61263 0.0
N125 N 0.15758 0.26932 0.58145 0.0
N126 N 0.11254 0.26849 0.57659 0.0
C127 C 0.14846 0.25547 0.60399 0.0
C128 C 0.13971 0.27587 0.5676 0.0
C129 C 0.10305 0.25465 0.59906 0.0
C130 C 0.16781 0.24738 0.61813 0.0
C131 C 0.15606 0.22406 0.63573 0.0
C132 C 0.17437 0.21475 0.64703 0.0
C133 C 0.20467 0.22897 0.64113 0.0
C134 C 0.2165 0.25298 0.62434 0.0
C135 C 0.19829 0.26203 0.61292 0.0
C136 C 0.14874 0.28892 0.54219 0.0
C137 C 0.17573 0.29426 0.53155 0.0
C138 C 0.183 0.30456 0.50685 0.0
C139 C 0.16346 0.30977 0.49242 0.0
C140 C 0.13688 0.30509 0.50324 0.0
C141 C 0.1296 0.29482 0.52779 0.0
C142 C 0.07262 0.24535 0.6076 0.0
C143 C 0.05533 0.2547 0.59436 0.0
C144 C 0.76356 0.786 0.5964 0.0
C145 C 0.77464 0.78878 0.62094 0.0
C146 C 0.76943 0.80588 0.63857 0.0
C147 C 0.75522 0.82145 0.63146 0.0
H148 H 0.75094 0.9032 0.65105 0.0
H149 H 0.77509 0.9543 0.66727 0.0
H150 H 0.77752 0.98689 0.59216 0.0
H151 H 0.75182 0.93603 0.57639 0.0
H152 H 0.67442 0.87634 0.55455 0.0
H153 H 0.65902 0.87875 0.51157 0.0
H154 H 0.69326 0.82262 0.48636 0.0
H155 H 0.70861 0.81996 0.52922 0.0
H156 H 0.74154 0.7997 0.57004 0.0
H157 H 0.76689 0.77261 0.58255 0.0
H158 H 0.77652 0.80738 0.65793 0.0
H159 H 0.7523 0.83506 0.64537 0.0
N160 N 0.74297 0.86566 0.61091 0.0
N161 N 0.71777 0.87859 0.5817 0.0
N162 N 0.71676 0.83308 0.5776 0.0
C163 C 0.73515 0.88538 0.60234 0.0
C164 C 0.70819 0.85248 0.56939 0.0
C165 C 0.73376 0.83938 0.59867 0.0
C166 C 0.74911 0.91575 0.61263 0.0
C167 C 0.7564 0.92136 0.63817 0.0
C168 C 0.77041 0.95055 0.64734 0.0
C169 C 0.7779 0.97458 0.63099 0.0
C170 C 0.77121 0.96886 0.60534 0.0
C171 C 0.75658 0.93972 0.59632 0.0
C172 C 0.69305 0.84825 0.5451 0.0
C173 C 0.67819 0.86408 0.53989 0.0
C174 C 0.66949 0.86561 0.5154 0.0
C175 C 0.6759 0.85166 0.49585 0.0
C176 C 0.68885 0.83416 0.50126 0.0
C177 C 0.69723 0.83231 0.52576 0.0
C178 C 0.74533 0.81984 0.60666 0.0
C179 C 0.74894 0.80137 0.58931 0.0
C180 C 0.1795 0.98463 0.61059 0.0
C181 C 0.17348 0.98845 0.63556 0.0
C182 C 0.15116 0.96384 0.64856 0.0
C183 C 0.13584 0.93577 0.63691 0.0
H184 H 0.06516 0.8458 0.64306 0.0
H185 H 0.0183 0.8036 0.65716 0.0
H186 H 0.0145 0.7549 0.58998 0.0
H187 H 0.0614 0.79619 0.5763 0.0
H188 H 0.11644 0.82288 0.53893 0.0
H189 H 0.1353 0.82037 0.49761 0.0
H190 H 0.18795 0.91626 0.49558 0.0
H191 H 0.16939 0.9191 0.53698 0.0
H192 H 0.17029 0.95501 0.57992 0.0
H193 H 0.19724 0.00273 0.60027 0.0
H194 H 0.14629 0.9661 0.66794 0.0
H195 H 0.11937 0.91701 0.64754 0.0
N196 N 0.1059 0.87784 0.61031 0.0
N197 N 0.10567 0.84875 0.57622 0.0
N198 N 0.14057 0.89949 0.5779 0.0
C199 C 0.09393 0.85092 0.59842 0.0
C200 C 0.12906 0.87299 0.56589 0.0
C201 C 0.12931 0.90225 0.60001 0.0
C202 C 0.06706 0.82456 0.60844 0.0
C203 C 0.05457 0.82591 0.63149 0.0
C204 C 0.02771 0.80178 0.63956 0.0
C205 C 0.01281 0.77584 0.62478 0.0
C206 C 0.02573 0.77422 0.60214 0.0
C207 C 0.05259 0.79815 0.59417 0.0
C208 C 0.14125 0.87116 0.54127 0.0
C209 C 0.13211 0.84345 0.5298 0.0
C210 C 0.14298 0.842 0.50622 0.0
C211 C 0.16296 0.86818 0.49355 0.0
C212 C 0.1724 0.89585 0.50499 0.0
C213 C 0.16179 0.89734 0.52871 0.0
C214 C 0.14283 0.93194 0.61218 0.0
C215 C 0.16431 0.9569 0.59903 0.0
C216 C 0.90784 0.35701 0.71117 0.0
C217 C 0.88277 0.34627 0.69549 0.0
C218 C 0.87052 0.36448 0.69059 0.0
C219 C 0.88332 0.39305 0.70078 0.0
H220 H 0.9035 0.48439 0.68575 0.0
H221 H 0.87741 0.51032 0.6733 0.0
H222 H 0.8806 0.53972 0.74983 0.0
H223 H 0.90792 0.51462 0.76221 0.0
H224 H 0.96262 0.51396 0.79322 0.0
H225 H 0.97744 0.51907 0.8368 0.0
H226 H 0.97443 0.43431 0.83363 0.0
H227 H 0.95839 0.42847 0.78974 0.0
H228 H 0.93967 0.39319 0.73385 0.0
H229 H 0.91782 0.34345 0.71511 0.0
H230 H 0.85077 0.35651 0.67908 0.0
H231 H 0.87307 0.40634 0.69676 0.0
N232 N 0.91192 0.45267 0.72028 0.0
N233 N 0.93567 0.48432 0.75441 0.0
N234 N 0.93639 0.43961 0.75029 0.0
C235 C 0.91969 0.47829 0.7329 0.0
C236 C 0.9444 0.46527 0.76311 0.0
C237 C 0.92016 0.43323 0.72881 0.0
C238 C 0.90738 0.49716 0.72498 0.0
C239 C 0.89882 0.49653 0.6999 0.0
C240 C 0.88354 0.51105 0.69286 0.0
C241 C 0.87588 0.52595 0.71085 0.0
C242 C 0.8858 0.52796 0.7357 0.0
C243 C 0.90154 0.51374 0.74271 0.0
C244 C 0.95869 0.47051 0.78807 0.0
C245 C 0.96535 0.49645 0.80157 0.0
C246 C 0.97404 0.49948 0.8266 0.0
C247 C 0.9766 0.47684 0.83872 0.0
C248 C 0.97191 0.45176 0.82487 0.0
C249 C 0.963 0.4486 0.7997 0.0
C250 C 0.9083 0.40383 0.71659 0.0
C251 C 0.92045 0.38552 0.72172 0.0
C252 C 0.61817 0.54116 0.72411 0.0
C253 C 0.63709 0.53635 0.70843 0.0
C254 C 0.62784 0.50727 0.70005 0.0
C255 C 0.6008 0.48339 0.70791 0.0
H256 H 0.52742 0.39054 0.69227 0.0
H257 H 0.50195 0.33921 0.6777 0.0
H258 H 0.47626 0.30877 0.75392 0.0
H259 H 0.50057 0.36043 0.76827 0.0
H260 H 0.46847 0.39875 0.78938 0.0
H261 H 0.44746 0.40263 0.82904 0.0
H262 H 0.50927 0.49715 0.83122 0.0
H263 H 0.53082 0.49358 0.79148 0.0
H264 H 0.57756 0.52169 0.74478 0.0
H265 H 0.62462 0.56339 0.73071 0.0
H266 H 0.64213 0.50271 0.68836 0.0
H267 H 0.59492 0.4612 0.70165 0.0
N268 N 0.54765 0.43394 0.72786 0.0
N269 N 0.51007 0.41449 0.75803 0.0
N270 N 0.54066 0.46613 0.75454 0.0
C271 C 0.52489 0.41008 0.73924 0.0
C272 C 0.51752 0.44228 0.76573 0.0
C273 C 0.55581 0.46212 0.7355 0.0
C274 C 0.51549 0.3794 0.73126 0.0
C275 C 0.51711 0.37286 0.70597 0.0
C276 C 0.50276 0.34331 0.69771 0.0
C277 C 0.48715 0.31974 0.71471 0.0
C278 C 0.48793 0.32638 0.74038 0.0
C279 C 0.50175 0.35594 0.74854 0.0
C280 C 0.50186 0.44581 0.78749 0.0
C281 C 0.47751 0.42051 0.79807 0.0
C282 C 0.46535 0.42261 0.82075 0.0
C283 C 0.47708 0.45003 0.83318 0.0
C284 C 0.49993 0.47572 0.82185 0.0
C285 C 0.51229 0.47364 0.79918 0.0
C286 C 0.5825 0.48795 0.72461 0.0
C287 C 0.59117 0.51724 0.73213 0.0
C288 C 0.46869 0.11485 0.7062 0.0
C289 C 0.47321 0.11886 0.68022 0.0
C290 C 0.49159 0.11005 0.66823 0.0
C291 C 0.50562 0.09775 0.68225 0.0
H292 H 0.58396 0.09314 0.68567 0.0
H293 H 0.63352 0.10288 0.67458 0.0
H294 H 0.64086 0.06852 0.74637 0.0
H295 H 0.59133 0.05806 0.75731 0.0
H296 H 0.54868 0.05362 0.80115 0.0
H297 H 0.53104 0.03826 0.8439 0.0
H298 H 0.44516 0.02524 0.82317 0.0
H299 H 0.46276 0.04103 0.7802 0.0
H300 H 0.47811 0.09941 0.74008 0.0
H301 H 0.45397 0.12078 0.71574 0.0
H302 H 0.49493 0.11255 0.64811 0.0
H303 H 0.51976 0.09113 0.67267 0.0
N304 N 0.54041 0.08151 0.71546 0.0
N305 N 0.54369 0.06049 0.75344 0.0
N306 N 0.50426 0.0692 0.74653 0.0
C307 C 0.5548 0.07151 0.73035 0.0
C308 C 0.51831 0.05908 0.76159 0.0
C309 C 0.51515 0.08045 0.72349 0.0
C310 C 0.58362 0.07491 0.72246 0.0
C311 C 0.59594 0.08725 0.69897 0.0
C312 C 0.62436 0.09294 0.69261 0.0
C313 C 0.64094 0.08629 0.70954 0.0
C314 C 0.62836 0.0733 0.73271 0.0
C315 C 0.59998 0.06751 0.73904 0.0
C316 C 0.50714 0.04856 0.78724 0.0
C317 C 0.52602 0.04746 0.80558 0.0
C318 C 0.51604 0.03893 0.83009 0.0
C319 C 0.4869 0.03091 0.83671 0.0
C320 C 0.46778 0.0315 0.81843 0.0
C321 C 0.47789 0.0405 0.79392 0.0
C322 C 0.50077 0.09347 0.70829 0.0
C323 C 0.48221 0.10221 0.72006 0.0
C324 C 0.69737 0.57994 0.93227 0.0
C325 C 0.68175 0.55838 0.95068 0.0
C326 C 0.69634 0.54606 0.96401 0.0
C327 C 0.72583 0.55476 0.9587 0.0
H328 H 0.8066 0.56399 0.98934 0.0
H329 H 0.83286 0.54446 0.0142 0.0
H330 H 0.88223 0.54661 0.94847 0.0
H331 H 0.85661 0.56627 0.92373 0.0
H332 H 0.86474 0.62078 0.88197 0.0
H333 H 0.88085 0.63743 0.83877 0.0
H334 H 0.79248 0.61854 0.81979 0.0
H335 H 0.77634 0.6024 0.86262 0.0
H336 H 0.73798 0.60469 0.91214 0.0
H337 H 0.68673 0.59002 0.92191 0.0
H338 H 0.6847 0.52898 0.97796 0.0
H339 H 0.73619 0.54429 0.9689 0.0
N340 N 0.78703 0.57394 0.94692 0.0
N341 N 0.82429 0.59033 0.91634 0.0
N342 N 0.78215 0.59468 0.90943 0.0
C343 C 0.81361 0.57794 0.93917 0.0
C344 C 0.80871 0.59885 0.90139 0.0
C345 C 0.77122 0.58235 0.93217 0.0
C346 C 0.82962 0.56678 0.95456 0.0
C347 C 0.82302 0.56022 0.98021 0.0
C348 C 0.83789 0.549 0.99443 0.0
C349 C 0.85911 0.54371 0.98306 0.0
C350 C 0.86553 0.55008 0.95749 0.0
C351 C 0.8511 0.56165 0.94342 0.0
C352 C 0.81923 0.61024 0.87577 0.0
C353 C 0.84879 0.62028 0.8686 0.0
C354 C 0.85804 0.62979 0.84396 0.0
C355 C 0.83776 0.62889 0.8261 0.0
C356 C 0.80839 0.61908 0.83326 0.0
C357 C 0.79926 0.61006 0.85785 0.0
C358 C 0.74117 0.57561 0.93968 0.0
C359 C 0.72675 0.58841 0.92677 0.0
C360 C 0.43156 0.12262 0.93291 0.0
C361 C 0.44137 0.12564 0.9579 0.0
C362 C 0.43291 0.1406 0.97519 0.0
C363 C 0.41671 0.15393 0.96734 0.0
H364 H 0.40821 0.23295 0.98293 0.0
H365 H 0.43209 0.28432 -0.00189 0.0
H366 H 0.42805 0.31426 0.92328 0.0
H367 H 0.40265 0.26294 0.90851 0.0
H368 H 0.35611 0.21545 0.87251 0.0
H369 H 0.34896 0.21272 0.82712 0.0
H370 H 0.3483 0.12917 0.82537 0.0
H371 H 0.35594 0.13184 0.87065 0.0
H372 H 0.40853 0.13371 0.90553 0.0
H373 H 0.43747 0.11097 0.91923 0.0
H374 H 0.43898 0.14217 0.99484 0.0
H375 H 0.41133 0.16608 0.98095 0.0
N376 N 0.40074 0.1952 0.9448 0.0
N377 N 0.37659 0.20574 0.91268 0.0
N378 N 0.37891 0.16183 0.91115 0.0
C379 C 0.39196 0.21354 0.9346 0.0
C380 C 0.36964 0.1798 0.90096 0.0
C381 C 0.39421 0.16924 0.93316 0.0
C382 C 0.40363 0.24395 0.94458 0.0
C383 C 0.41218 0.25052 0.96984 0.0
C384 C 0.42624 0.27997 0.9784 0.0
C385 C 0.43279 0.30345 0.96169 0.0
C386 C 0.4234 0.29671 0.9366 0.0
C387 C 0.40877 0.26726 0.92817 0.0
C388 C 0.35758 0.17432 0.87512 0.0
C389 C 0.35387 0.19616 0.8626 0.0
C390 C 0.34974 0.19466 0.83662 0.0
C391 C 0.34917 0.1713 0.82288 0.0
C392 C 0.34965 0.14789 0.83564 0.0
C393 C 0.35384 0.14937 0.86156 0.0
C394 C 0.40794 0.15196 0.94215 0.0
C395 C 0.41488 0.13554 0.92512 0.0
C396 C 0.87787 0.29611 0.96035 0.0
C397 C 0.86392 0.3063 0.97686 0.0
C398 C 0.83383 0.28749 0.98279 0.0
C399 C 0.81789 0.25907 0.97201 0.0
H400 H 0.74191 0.17123 0.9781 0.0
H401 H 0.6919 0.13263 0.99 0.0
H402 H 0.68457 0.08474 0.92141 0.0
H403 H 0.73438 0.12252 0.90972 0.0
H404 H 0.77867 0.1565 0.86511 0.0
H405 H 0.79535 0.1595 0.82186 0.0
H406 H 0.8819 0.23201 0.84229 0.0
H407 H 0.86555 0.2291 0.88564 0.0
H408 H 0.8735 0.26095 0.93667 0.0
H409 H 0.90117 0.30995 0.95585 0.0
H410 H 0.82253 0.29498 -0.00463 0.0
H411 H 0.79456 0.24527 0.97636 0.0
N412 N 0.78789 0.19896 0.94903 0.0
N413 N 0.78302 0.17159 0.91229 0.0
N414 N 0.82541 0.21797 0.9187 0.0
C415 C 0.772 0.17395 0.9348 0.0
C416 C 0.80978 0.19353 0.90419 0.0
C417 C 0.81478 0.22097 0.94102 0.0
C418 C 0.74227 0.15009 0.94292 0.0
C419 C 0.72977 0.15232 0.96567 0.0
C420 C 0.70112 0.13028 0.97249 0.0
C421 C 0.68451 0.10554 0.95677 0.0
C422 C 0.6971 0.10318 0.93421 0.0
C423 C 0.72564 0.12507 0.92742 0.0
C424 C 0.82069 0.19268 0.87879 0.0
C425 C 0.80136 0.17284 0.86052 0.0
C426 C 0.81078 0.17473 0.83574 0.0
C427 C 0.83973 0.19625 0.82886 0.0
C428 C 0.85946 0.21531 0.84722 0.0
C429 C 0.85001 0.21359 0.87198 0.0
C430 C 0.83179 0.24923 0.95499 0.0
C431 C 0.86203 0.26793 0.94955 0.0
C432 C 0.56713 0.69197 0.04176 0.0
C433 C 0.54592 0.6829 0.02253 0.0
C434 C 0.53538 0.7019 0.01499 0.0
C435 C 0.54538 0.72931 0.02702 0.0
H436 H 0.55194 0.81353 0.02392 0.0
H437 H 0.52973 0.84305 0.01168 0.0
H438 H 0.54025 0.87735 0.08726 0.0
H439 H 0.56305 0.84774 0.09978 0.0
H440 H 0.61649 0.83708 0.13429 0.0
H441 H 0.63491 0.83618 0.17664 0.0
H442 H 0.61238 0.74481 0.16556 0.0
H443 H 0.59455 0.74545 0.12345 0.0
H444 H 0.5932 0.72534 0.0688 0.0
H445 H 0.57591 0.67787 0.04759 0.0
H446 H 0.51888 0.69524 0.00023 0.0
H447 H 0.53625 0.74314 0.02132 0.0
N448 N 0.56527 0.78467 0.05505 0.0
N449 N 0.58344 0.81063 0.09323 0.0
N450 N 0.58707 0.76824 0.08451 0.0
C451 C 0.5702 0.80776 0.07044 0.0
C452 C 0.59199 0.79079 0.10025 0.0
C453 C 0.5738 0.76491 0.06199 0.0
C454 C 0.55904 0.82796 0.06293 0.0
C455 C 0.54964 0.82731 0.03806 0.0
C456 C 0.53673 0.84413 0.03103 0.0
C457 C 0.53278 0.86207 0.04862 0.0
C458 C 0.54298 0.86363 0.07335 0.0
C459 C 0.55605 0.84671 0.08045 0.0
C460 C 0.60404 0.79141 0.12551 0.0
C461 C 0.61559 0.81689 0.14085 0.0
C462 C 0.62614 0.81641 0.16493 0.0
C463 C 0.62481 0.79035 0.174 0.0
C464 C 0.61346 0.76502 0.15877 0.0
C465 C 0.6034 0.76559 0.13468 0.0
C466 C 0.56595 0.73801 0.04686 0.0
C467 C 0.57712 0.71927 0.05375 0.0
C468 C 0.29059 0.88824 0.06133 0.0
C469 C 0.30829 0.88405 0.04372 0.0
C470 C 0.29748 0.85579 0.03277 0.0
C471 C 0.27 0.83202 0.0398 0.0
H472 H 0.20723 0.74484 0.02078 0.0
H473 H 0.18424 0.69635 -0.00036 0.0
H474 H 0.12765 0.65619 0.06384 0.0
H475 H 0.15055 0.70397 0.08502 0.0
H476 H 0.14737 0.74104 0.12699 0.0
H477 H 0.12749 0.74343 0.16778 0.0
H478 H 0.17719 0.83941 0.16529 0.0
H479 H 0.1975 0.83736 0.12444 0.0
H480 H 0.25042 0.86817 0.08265 0.0
H481 H 0.2983 0.90985 0.06995 0.0
H482 H 0.31082 0.85164 0.01957 0.0
H483 H 0.26286 0.8104 0.03144 0.0
N484 N 0.2152 0.78257 0.05672 0.0
N485 N 0.17836 0.76058 0.08733 0.0
N486 N 0.2119 0.81191 0.08886 0.0
C487 C 0.19163 0.75795 0.06637 0.0
C488 C 0.18819 0.78736 0.09868 0.0
C489 C 0.22551 0.80965 0.06782 0.0
C490 C 0.18042 0.7284 0.05445 0.0
C491 C 0.19033 0.72553 0.03059 0.0
C492 C 0.17734 0.69779 0.01853 0.0
C493 C 0.15446 0.67245 0.03023 0.0
C494 C 0.14578 0.67511 0.0546 0.0
C495 C 0.1586 0.70271 0.06657 0.0
C496 C 0.17428 0.78906 0.12245 0.0
C497 C 0.15393 0.76274 0.13491 0.0
C498 C 0.14251 0.76399 0.1583 0.0
C499 C 0.15077 0.79153 0.16952 0.0
C500 C 0.17027 0.81788 0.15681 0.0
C501 C 0.18201 0.81668 0.13352 0.0
C502 C 0.25283 0.83581 0.05825 0.0
C503 C 0.26315 0.86436 0.06856 0.0
C504 C 0.11328 0.40841 0.03253 0.0
C505 C 0.12783 0.43851 0.02566 0.0
C506 C 0.15894 0.45492 0.02548 0.0
C507 C 0.1753 0.44174 0.0335 0.0
H508 H 0.2477 0.41643 0.01852 0.0
H509 H 0.29919 0.43265 0.00811 0.0
H510 H 0.31662 0.4222 0.08569 0.0
H511 H 0.26487 0.40461 0.09587 0.0
H512 H 0.19831 0.34386 0.12073 0.0
H513 H 0.17921 0.32136 0.16169 0.0
H514 H 0.11522 0.35108 0.15914 0.0
H515 H 0.13394 0.37339 0.11804 0.0
H516 H 0.11777 0.3727 0.04772 0.0
H517 H 0.08925 0.3955 0.03292 0.0
H518 H 0.17045 0.47824 0.02032 0.0
H519 H 0.19926 0.45521 0.0345 0.0
N520 N 0.20527 0.40851 0.05001 0.0
N521 N 0.20867 0.38366 0.0856 0.0
N522 N 0.16488 0.38452 0.07739 0.0
C523 C 0.22112 0.39979 0.06446 0.0
C524 C 0.18049 0.37592 0.09214 0.0
C525 C 0.17705 0.40067 0.05632 0.0
C526 C 0.25222 0.40926 0.05802 0.0
C527 C 0.26255 0.41761 0.03335 0.0
C528 C 0.29213 0.4272 0.02742 0.0
C529 C 0.31214 0.42924 0.04616 0.0
C530 C 0.30173 0.42075 0.0708 0.0
C531 C 0.27207 0.4107 0.07664 0.0
C532 C 0.16768 0.36042 0.1161 0.0
C533 C 0.17996 0.34534 0.12873 0.0
C534 C 0.16892 0.33229 0.15207 0.0
C535 C 0.14561 0.33434 0.16335 0.0
C536 C 0.13309 0.34911 0.1507 0.0
C537 C 0.14382 0.36178 0.12717 0.0
C538 C 0.16062 0.41231 0.04237 0.0
C539 C 0.12954 0.39547 0.04105 0.0
C540 C 0.36213 0.92058 0.26846 0.0
C541 C 0.34628 0.89752 0.28569 0.0
C542 C 0.36051 0.88344 0.2969 0.0
C543 C 0.38987 0.89211 0.29084 0.0
H544 H 0.46301 0.87994 0.30907 0.0
H545 H 0.49252 0.85922 0.32651 0.0
H546 H 0.56812 0.92253 0.28349 0.0
H547 H 0.53945 0.94367 0.26695 0.0
H548 H 0.52999 0.96854 0.21646 0.0
H549 H 0.54613 0.98207 0.17301 0.0
H550 H 0.456 0.95353 0.15076 0.0
H551 H 0.43965 0.94002 0.19409 0.0
H552 H 0.40268 0.94658 0.24857 0.0
H553 H 0.3519 0.93209 0.25972 0.0
H554 H 0.34871 0.86516 0.30982 0.0
H555 H 0.40006 0.88049 0.29945 0.0
N556 N 0.45283 0.9155 0.27974 0.0
N557 N 0.49027 0.93547 0.24935 0.0
N558 N 0.44591 0.93541 0.24237 0.0
C559 C 0.48039 0.92234 0.27197 0.0
C560 C 0.47327 0.94196 0.23439 0.0
C561 C 0.43565 0.92246 0.26512 0.0
C562 C 0.49875 0.91309 0.28629 0.0
C563 C 0.48613 0.88982 0.30386 0.0
C564 C 0.50288 0.87776 0.31362 0.0
C565 C 0.53241 0.88889 0.30597 0.0
C566 C 0.54543 0.91346 0.28979 0.0
C567 C 0.52887 0.92546 0.28015 0.0
C568 C 0.48347 0.95306 0.20871 0.0
C569 C 0.51359 0.96525 0.20233 0.0
C570 C 0.52288 0.97293 0.17752 0.0
C571 C 0.50217 0.96812 0.15861 0.0
C572 C 0.47224 0.95673 0.16501 0.0
C573 C 0.46298 0.94938 0.18985 0.0
C574 C 0.40539 0.91464 0.27309 0.0
C575 C 0.39127 0.92893 0.26214 0.0
C576 C 0.11301 0.46218 0.26734 0.0
C577 C 0.13968 0.47804 0.28103 0.0
C578 C 0.14941 0.50756 0.28813 0.0
C579 C 0.13224 0.52055 0.28276 0.0
H580 H 0.12478 0.58631 0.30701 0.0
H581 H 0.14919 0.63775 0.32029 0.0
H582 H 0.08315 0.65004 0.28149 0.0
H583 H 0.059 0.59827 0.26684 0.0
H584 H 0.02051 0.55127 0.22632 0.0
H585 H 0.00363 0.55094 0.18346 0.0
H586 H 0.02312 0.48184 0.16354 0.0
H587 H 0.04036 0.48211 0.20614 0.0
H588 H 0.07499 0.46237 0.25181 0.0
H589 H 0.10459 0.4391 0.26216 0.0
H590 H 0.16984 0.52026 0.29869 0.0
H591 H 0.14028 0.54323 0.28903 0.0
N592 N 0.09268 0.54303 0.27908 0.0
N593 N 0.05777 0.54876 0.25593 0.0
N594 N 0.06555 0.50868 0.24739 0.0
C595 C 0.07856 0.55841 0.27433 0.0
C596 C 0.05091 0.52381 0.24247 0.0
C597 C 0.08644 0.51825 0.26586 0.0
C598 C 0.08994 0.58812 0.28573 0.0
C599 C 0.1151 0.59967 0.30138 0.0
C600 C 0.12916 0.62922 0.30906 0.0
C601 C 0.11796 0.64772 0.30193 0.0
C602 C 0.0923 0.63615 0.28696 0.0
C603 C 0.07834 0.6065 0.2789 0.0
C604 C 0.03276 0.51739 0.21945 0.0
C605 C 0.02061 0.53549 0.213 0.0
C606 C 0.01091 0.53537 0.18852 0.0
C607 C 0.01315 0.51713 0.17028 0.0
C608 C 0.02203 0.49668 0.17733 0.0
C609 C 0.03172 0.49674 0.20176 0.0
C610 C 0.10494 0.50438 0.27 0.0
C611 C 0.09585 0.47533 0.26172 0.0
C612 C 0.54202 0.61999 0.28895 0.0
C613 C 0.52825 0.62715 0.30814 0.0
C614 C 0.4991 0.60627 0.31515 0.0
C615 C 0.48367 0.57892 0.30258 0.0
H616 H 0.40726 0.49482 0.3026 0.0
H617 H 0.35674 0.45712 0.31364 0.0
H618 H 0.3478 0.41217 0.24305 0.0
H619 H 0.39836 0.44933 0.23206 0.0
H620 H 0.45568 0.47432 0.19468 0.0
H621 H 0.47416 0.47652 0.15203 0.0
H622 H 0.54025 0.56884 0.16322 0.0
H623 H 0.52234 0.56691 0.2058 0.0
H624 H 0.53795 0.58827 0.26144 0.0
H625 H 0.56465 0.63556 0.28352 0.0
H626 H 0.488 0.61143 0.32985 0.0
H627 H 0.46093 0.56355 0.30784 0.0
N628 N 0.45314 0.52278 0.27436 0.0
N629 N 0.44855 0.49771 0.23629 0.0
N630 N 0.49114 0.54348 0.24461 0.0
C631 C 0.4372 0.49887 0.25903 0.0
C632 C 0.4756 0.52005 0.229 0.0
C633 C 0.48027 0.54508 0.26725 0.0
C634 C 0.40701 0.4752 0.26639 0.0
C635 C 0.39468 0.47679 0.28947 0.0
C636 C 0.36569 0.45527 0.29581 0.0
C637 C 0.34844 0.43162 0.27929 0.0
C638 C 0.36078 0.42984 0.25637 0.0
C639 C 0.38975 0.4513 0.25002 0.0
C640 C 0.4874 0.52042 0.20366 0.0
C641 C 0.47425 0.49503 0.18814 0.0
C642 C 0.48484 0.49624 0.16382 0.0
C643 C 0.50844 0.52292 0.15453 0.0
C644 C 0.52189 0.54814 0.17003 0.0
C645 C 0.51161 0.54687 0.19442 0.0
C646 C 0.49717 0.57219 0.28274 0.0
C647 C 0.5267 0.59281 0.27642 0.0
O648 O 0.47192 0.96116 0.93401 0.0
Mg649 Mg 0.50441 0.95953 0.95634 0.0
O650 O 0.48206 0.00143 0.95554 0.0
Mg651 Mg 0.49445 -0.00311 -0.00288 0.0
O652 O 0.49403 0.95231 0.99317 0.0
O653 O 0.49657 0.91874 0.9687 0.0
O654 O 0.50619 0.99081 0.0386 0.0
O655 O 0.44512 0.97105 0.00721 0.0
Mg656 Mg 0.48942 0.03066 0.03708 0.0
O657 O 0.49398 0.0418 0.00015 0.0
O658 O 0.52646 0.0345 0.05624 0.0
O659 O 0.44551 -0.00654 0.04286 0.0
O660 O 0.49255 0.07063 0.03098 0.0
C661 C 0.56013 0.01868 0.97105 0.0
C662 C 0.47179 0.98539 0.93581 0.0
C663 C 0.49378 0.92728 0.99081 0.0
C664 C 0.52086 0.00793 0.05679 0.0
C665 C 0.43176 0.97301 0.02655 0.0
C666 C 0.49374 0.06568 0.00737 0.0
O667 O 0.54906 -0.00388 0.95642 0.0
O668 O 0.54423 0.02287 0.98699 0.0
O669 O 0.98609 0.52271 0.94927 0.0
Mg670 Mg 0.00161 0.54391 0.98419 0.0
O671 O -0.00867 0.48549 0.96255 0.0
Mg672 Mg -0.00253 0.49721 0.005 0.0
O673 O 0.0388 0.54658 -0.0008 0.0
O674 O 0.03797 0.58243 0.97622 0.0
O675 O 0.00849 0.51509 0.04762 0.0
O676 O 0.03409 0.48539 0.00413 0.0
Mg677 Mg 0.98229 0.4637 0.03951 0.0
O678 O 0.95883 0.44525 0.00774 0.0
O679 O 0.96512 0.48473 0.06237 0.0
O680 O 0.02665 0.4706 0.04327 0.0
O681 O 0.95432 0.42021 0.04343 0.0
C682 C 0.95332 0.5272 0.01165 0.0
C683 C 0.98642 0.49892 0.94489 0.0
C684 C 0.05246 0.57324 0.98956 0.0
C685 C 0.98963 0.50812 0.06519 0.0
C686 C 0.04227 0.47732 0.02356 0.0
C687 C 0.94587 0.4207 0.02078 0.0
O688 O 0.97557 0.55261 0.00866 0.0
O689 O 0.9559 0.50449 0.0069 0.0
O690 O 0.53203 0.49015 0.04436 0.0
Mg691 Mg 0.48982 0.46015 0.02939 0.0
O692 O 0.50813 0.51293 0.03521 0.0
Mg693 Mg 0.49528 0.4943 0.99329 0.0
O694 O 0.4874 0.44463 0.99439 0.0
O695 O 0.4848 0.41915 0.02944 0.0
O696 O 0.48125 0.47329 0.95178 0.0
O697 O 0.5442 0.51052 0.98613 0.0
Mg698 Mg 0.50392 0.52498 0.95782 0.0
O699 O 0.50343 0.54483 0.99061 0.0
O700 O 0.46367 0.50055 0.93814 0.0
O701 O 0.54339 0.52416 0.9475 0.0
O702 O 0.51471 0.56711 0.9529 0.0
C703 C 0.43494 0.46557 0.02357 0.0
C704 C 0.52579 0.50993 0.04992 0.0
C705 C 0.48408 0.4207 0.00531 0.0
C706 C 0.46634 0.47797 0.93524 0.0
C707 C 0.55711 0.51994 0.96523 0.0
C708 C 0.51114 0.56831 0.97667 0.0
O709 O 0.44928 0.45909 0.0393 0.0
O710 O 0.44663 0.47752 0.00265 0.0
O711 O 0.1318 0.27437 0.27194 0.0
Mg712 Mg 0.16855 0.28646 0.29501 0.0
O713 O 0.147 0.32033 0.28252 0.0
Mg714 Mg 0.16044 0.32422 0.32584 0.0
O715 O 0.16396 0.28103 0.33266 0.0
O716 O 0.16828 0.24942 0.30627 0.0
O717 O 0.17436 0.32968 0.36871 0.0
O718 O 0.10879 0.29139 0.33426 0.0
Mg719 Mg 0.13257 0.34537 0.34689 0.0
O720 O 0.16256 0.37184 0.32049 0.0
O721 O 0.14109 0.3393 0.3839 0.0
O722 O 0.0893 0.32006 0.33452 0.0
O723 O 0.14088 0.38701 0.34877 0.0
C724 C 0.22451 0.34612 0.29908 0.0
C725 C 0.13389 0.29896 0.26675 0.0
C726 C 0.16621 0.25743 0.32877 0.0
C727 C 0.16192 0.33407 0.38752 0.0
C728 C 0.08578 0.29425 0.33443 0.0
C729 C 0.15746 0.39235 0.32941 0.0
O730 O 0.21186 0.32216 0.28626 0.0
O731 O 0.21019 0.35148 0.31576 0.0
O732 O 0.68496 0.82483 0.28192 0.0
Mg733 Mg 0.66774 0.84887 0.30048 0.0
O734 O 0.6396 0.79775 0.2931 0.0
Mg735 Mg 0.65221 0.81877 0.33475 0.0
O736 O 0.69014 0.87093 0.33102 0.0
O737 O 0.69664 0.89139 0.29276 0.0
O738 O 0.66488 0.84035 0.37571 0.0
O739 O 0.6895 0.80794 0.33552 0.0
Mg740 Mg 0.63703 0.78834 0.37071 0.0
O741 O 0.61481 0.76686 0.33937 0.0
O742 O 0.62086 0.81278 0.39031 0.0
O743 O 0.6813 0.79537 0.37511 0.0
O744 O 0.60876 0.74514 0.37702 0.0
C745 C 0.60855 0.83878 0.3145 0.0
C746 C 0.6598 0.8032 0.2771 0.0
C747 C 0.70354 0.89384 0.31621 0.0
C748 C 0.64588 0.83574 0.39263 0.0
C749 C 0.69738 0.80094 0.35573 0.0
C750 C 0.60189 0.74331 0.35358 0.0
O751 O 0.6248 0.84471 0.29524 0.0
O752 O 0.61528 0.83009 0.33436 0.0
O753 O 0.16385 0.80334 0.39894 0.0
Mg754 Mg 0.14634 0.77179 0.37096 0.0
O755 O 0.17139 0.84038 0.37418 0.0
Mg756 Mg 0.15912 0.82494 0.33192 0.0
O757 O 0.15621 0.77953 0.33325 0.0
O758 O 0.18656 0.77504 0.3584 0.0
O759 O 0.14718 0.80924 0.28896 0.0
O760 O 0.2087 0.84658 0.32306 0.0
Mg761 Mg 0.16675 0.86446 0.29547 0.0
O762 O 0.1617 0.87156 0.33209 0.0
O763 O 0.12837 0.83568 0.27551 0.0
O764 O 0.20925 0.86876 0.28759 0.0
O765 O 0.16774 0.9033 0.30084 0.0
C766 C 0.09202 0.77801 0.35343 0.0
C767 C 0.17241 0.83047 0.39584 0.0
C768 C 0.17409 0.76965 0.33695 0.0
C769 C 0.13274 0.81423 0.27207 0.0
C770 C 0.22239 0.8612 0.30362 0.0
C771 C 0.1641 0.89643 0.32433 0.0
O772 O 0.1016 0.76298 0.3651 0.0
O773 O 0.10928 0.80158 0.34114 0.0
O774 O 0.8023 0.61624 0.60484 0.0
Mg775 Mg 0.83689 0.62327 0.62876 0.0
O776 O 0.81368 0.65904 0.62152 0.0
Mg777 Mg 0.82437 0.65581 0.66452 0.0
O778 O 0.82728 0.61193 0.66524 0.0
O779 O 0.8349 0.58447 0.63662 0.0
O780 O 0.83565 0.6519 0.7069 0.0
O781 O 0.77431 0.62727 0.67281 0.0
Mg782 Mg 0.81495 0.68806 0.70149 0.0
O783 O 0.82116 0.69948 0.66445 0.0
O784 O 0.85112 0.69533 0.7241 0.0
O785 O 0.77179 0.65006 0.70714 0.0
O786 O 0.81539 0.72654 0.69465 0.0
C787 C 0.89105 0.68249 0.64027 0.0
C788 C 0.80323 0.64086 0.60306 0.0
C789 C 0.82976 0.58885 0.65947 0.0
C790 C 0.84871 0.66997 0.725 0.0
C791 C 0.75955 0.62884 0.69128 0.0
C792 C 0.81879 0.72232 0.67131 0.0
O793 O 0.88075 0.66035 0.62533 0.0
O794 O 0.87447 0.68492 0.65658 0.0
O795 O 0.35655 0.20016 0.59495 0.0
Mg796 Mg 0.3582 0.22689 0.62513 0.0
O797 O 0.33281 0.15642 0.6145 0.0
Mg798 Mg 0.33451 0.16507 0.65757 0.0
O799 O 0.37219 0.21248 0.65421 0.0
O800 O 0.39899 0.25839 0.63982 0.0
O801 O 0.3366 0.17319 0.70015 0.0
O802 O 0.37629 0.15805 0.65819 0.0
Mg803 Mg 0.33053 0.1187 0.67356 0.0
O804 O 0.29214 0.11564 0.66092 0.0
O805 O 0.35046 0.14046 0.70797 0.0
O806 O 0.35632 0.1117 0.64699 0.0
O807 O 0.29486 0.08 0.68276 0.0
C808 C 0.29689 0.20176 0.64926 0.0
C809 C 0.34399 0.17197 0.59477 0.0
C810 C 0.39574 0.23831 0.65573 0.0
C811 C 0.3467 0.16155 0.71531 0.0
C812 C 0.37937 0.13666 0.64998 0.0
C813 C 0.27938 0.08896 0.67056 0.0
O814 O 0.31829 0.22343 0.63805 0.0
O815 O 0.29793 0.17862 0.65594 0.0
O816 O 0.85966 0.15415 0.72633 0.0
Mg817 Mg 0.82055 0.1204 0.70968 0.0
O818 O 0.84005 0.17815 0.70914 0.0
Mg819 Mg 0.82882 0.15808 0.66831 0.0
O820 O 0.8244 0.11121 0.67364 0.0
O821 O 0.82067 0.08163 0.70582 0.0
O822 O 0.81701 0.13616 0.62729 0.0
O823 O 0.87812 0.17654 0.6611 0.0
Mg824 Mg 0.83443 0.18739 0.63098 0.0
O825 O 0.83426 0.2069 0.66386 0.0
O826 O 0.79376 0.15799 0.61341 0.0
O827 O 0.87428 0.18677 0.6218 0.0
O828 O 0.84236 0.22882 0.62607 0.0
C829 C 0.76515 0.12381 0.69593 0.0
C830 C 0.85561 0.17608 0.72664 0.0
C831 C 0.82212 0.08662 0.682 0.0
C832 C 0.80058 0.13809 0.6105 0.0
C833 C 0.88926 0.18403 0.63933 0.0
C834 C 0.84004 0.22995 0.65007 0.0
O835 O 0.77753 0.11635 0.71284 0.0
O836 O 0.77945 0.1387 0.67673 0.0
C837 C 0.35802 0.92424 0.05857 0.0
C838 C 0.33901 0.90826 0.03847 0.0
C839 C 0.38786 0.94541 0.05449 0.0
C840 C 0.39991 0.95123 0.03017 0.0
H841 H 0.35003 0.91974 0.07772 0.0
H842 H 0.40174 0.95674 0.07061 0.0
S843 S 0.35876 0.91775 0.97087 0.0
N844 N 0.33374 0.90152 0.99315 0.0
N845 N 0.39003 0.94085 0.98548 0.0
C846 C 0.38098 0.93601 0.00981 0.0
C847 C 0.35049 0.91465 0.01395 0.0
C848 C 0.08931 0.44467 0.00299 0.0
C849 C 0.11019 0.45332 0.02255 0.0
C850 C 0.06846 0.45427 0.00261 0.0
C851 C 0.06737 0.47195 0.02221 0.0
H852 H 0.08841 0.42954 0.98848 0.0
H853 H 0.052 0.44635 0.98772 0.0
S854 S 0.11845 0.50203 0.07666 0.0
N855 N 0.12995 0.4822 0.06091 0.0
N856 N 0.08988 0.4992 0.0607 0.0
C857 C 0.08879 0.48159 0.04131 0.0
C858 C 0.11049 0.47253 0.04134 0.0
C859 C 0.52455 0.62776 0.02505 0.0
C860 C 0.53509 0.6536 0.01037 0.0
C861 C 0.51582 0.60001 0.01396 0.0
C862 C 0.51761 0.59719 0.98785 0.0
H863 H 0.52326 0.62907 0.04528 0.0
H864 H 0.50811 0.58076 0.02596 0.0
S865 S 0.54356 0.65861 0.94123 0.0
N866 N 0.54665 0.6749 0.96861 0.0
N867 N 0.53017 0.62301 0.94752 0.0
C868 C 0.52756 0.62297 0.97293 0.0
C869 C 0.53633 0.65111 0.98427 0.0
C870 C 0.89953 0.36094 0.97299 0.0
C871 C 0.88145 0.33627 0.98822 0.0
C872 C 0.91938 0.38872 0.98357 0.0
C873 C 0.92199 0.39267 0.00976 0.0
H874 H 0.89889 0.3585 0.95274 0.0
H875 H 0.93363 0.40679 0.9712 0.0
S876 S 0.87763 0.33566 0.05772 0.0
N877 N 0.86609 0.31796 0.03061 0.0
N878 N 0.90289 0.37016 0.05063 0.0
C879 C 0.90287 0.36852 0.02513 0.0
C880 C 0.88269 0.34032 0.01433 0.0
C881 C 0.63044 0.54053 0.93449 0.0
C882 C 0.64991 0.54787 0.95508 0.0
C883 C 0.60033 0.53094 0.93797 0.0
C884 C 0.5885 0.52809 0.96218 0.0
H885 H 0.63852 0.54214 0.9155 0.0
H886 H 0.58626 0.5258 0.92153 0.0
S887 S 0.63035 0.54548 0.02233 0.0
N888 N 0.65546 0.55247 0.00049 0.0
N889 N 0.59871 0.53379 0.00714 0.0
C890 C 0.60766 0.53505 0.98298 0.0
C891 C 0.6384 0.5451 0.97941 0.0
C892 C 0.45168 0.08323 0.95969 0.0
C893 C 0.45977 0.11269 0.96627 0.0
C894 C 0.46552 0.0689 0.97101 0.0
C895 C 0.48762 0.08351 0.98943 0.0
H896 H 0.43319 0.07048 0.94706 0.0
H897 H 0.45698 0.04549 0.96698 0.0
S898 S 0.52143 0.16257 0.00893 0.0
N899 N 0.49517 0.15757 0.98874 0.0
N900 N 0.5202 0.13017 0.01077 0.0
C901 C 0.49784 0.11373 0.99431 0.0
C902 C 0.48411 0.12843 0.98257 0.0
C903 C 0.63297 0.09186 0.9698 0.0
C904 C 0.6535 0.0829 0.96303 0.0
C905 C 0.60284 0.07089 0.97311 0.0
C906 C 0.5922 0.04031 0.96948 0.0
H907 H 0.64004 0.1153 0.97168 0.0
H908 H 0.58762 0.07875 0.97763 0.0
S909 S 0.63754 0.00507 0.95555 0.0
N910 N 0.6616 0.04117 0.9558 0.0
N911 N 0.60492 0.00185 0.96142 0.0
C912 C 0.61269 0.03098 0.96386 0.0
C913 C 0.64335 0.05225 0.96079 0.0
C914 C 0.87801 0.50863 0.9893 0.0
C915 C 0.87659 0.53366 -0.00238 0.0
C916 C 0.90124 0.50413 -0.00311 0.0
C917 C 0.92398 0.52491 0.0126 0.0
H918 H 0.86252 0.49392 0.9752 0.0
H919 H 0.90307 0.4862 0.98817 0.0
S920 S 0.92671 0.5903 0.04369 0.0
N921 N 0.89677 0.57642 0.02572 0.0
N922 N 0.94077 0.56819 0.03978 0.0
C923 C 0.92074 0.54788 0.02342 0.0
C924 C 0.89691 0.55225 0.01592 0.0
C925 C 0.43916 0.35467 0.96325 0.0
C926 C 0.44899 0.33488 0.97043 0.0
C927 C 0.45236 0.3836 0.97316 0.0
C928 C 0.47558 0.39353 0.99071 0.0
H929 H 0.42025 0.34736 0.95081 0.0
H930 H 0.44307 0.39755 0.96828 0.0
S931 S 0.51275 0.35254 0.01251 0.0
N932 N 0.48621 0.32898 0.99346 0.0
N933 N 0.51002 0.38294 0.01292 0.0
C934 C 0.48676 0.37473 -0.00306 0.0
C935 C 0.4737 0.34549 0.98659 0.0
C936 C 0.12291 0.64711 0.99312 0.0
C937 C 0.13553 0.64487 0.01574 0.0
C938 C 0.09755 0.62258 0.98328 0.0
C939 C 0.08374 0.59499 -0.0042 0.0
H940 H 0.13087 0.66853 0.98421 0.0
H941 H 0.08739 0.62607 0.96682 0.0
S942 S 0.11404 0.57562 0.05108 0.0
N943 N 0.13692 0.6116 0.04703 0.0
N944 N 0.0887 0.56521 0.02868 0.0
C945 C 0.09857 0.59143 0.01642 0.0
C946 C 0.12459 0.61651 0.02641 0.0
C947 C 0.35716 0.42384 0.04989 0.0
C948 C 0.34365 0.43937 0.04009 0.0
C949 C 0.38679 0.43281 0.04469 0.0
C950 C 0.40402 0.45742 0.0292 0.0
H951 H 0.34463 0.40432 0.06145 0.0
H952 H 0.39608 0.41995 0.0525 0.0
S953 S 0.38002 0.50687 0.00012 0.0
N954 N 0.35043 0.48171 0.0153 0.0
N955 N 0.40595 0.4979 0.00482 0.0
C956 C 0.39096 0.47328 0.01932 0.0
C957 C 0.36083 0.4644 0.02492 0.0
C958 C 0.49192 0.86433 0.02605 0.0
C959 C 0.5182 0.87901 0.04037 0.0
C960 C 0.48175 0.88037 0.01218 0.0
C961 C 0.49724 0.91163 0.01242 0.0
H962 H 0.48036 0.8403 0.02406 0.0
H963 H 0.46302 0.86828 -0.0004 0.0
S964 S 0.56502 0.96064 0.04934 0.0
N965 N 0.5577 0.92654 0.05608 0.0
N966 N 0.53851 0.95671 0.02989 0.0
C967 C 0.52186 0.92654 0.02853 0.0
C968 C 0.53235 0.91019 0.04262 0.0
C969 C 0.00597 0.25186 0.35558 0.0
C970 C 0.00016 0.22245 0.35722 0.0
C971 C 0.03312 0.2745 0.34667 0.0
C972 C 0.05581 0.26872 0.33939 0.0
H973 H 0.98953 0.25753 0.36166 0.0
H974 H 0.03667 0.29695 0.34655 0.0
S975 S 0.05042 0.1946 0.33796 0.0
N976 N 0.01809 0.18799 0.34914 0.0
N977 N 0.06962 0.23079 0.33257 0.0
C978 C 0.04974 0.23906 0.3398 0.0
C979 C 0.0218 0.21585 0.34868 0.0
C980 C 0.75422 0.78244 0.38059 0.0
C981 C 0.76687 0.77864 0.35862 0.0
C982 C 0.73293 0.79127 0.37949 0.0
C983 C 0.72336 0.79651 0.35632 0.0
H984 H 0.76009 0.77746 0.39877 0.0
H985 H 0.72313 0.7929 0.39692 0.0
S986 S 0.75191 0.79212 0.29344 0.0
N987 N 0.77025 0.78267 0.31325 0.0
N988 N 0.73005 0.79942 0.31086 0.0
C989 C 0.73721 0.79448 0.33422 0.0
C990 C 0.75903 0.78548 0.33545 0.0
C991 C 0.20427 0.95903 0.36956 0.0
C992 C 0.19134 0.97675 0.36459 0.0
C993 C 0.1929 0.93083 0.3586 0.0
C994 C 0.16851 0.91973 0.34219 0.0
H995 H 0.22456 0.96778 0.38043 0.0
H996 H 0.20486 0.91889 0.36118 0.0
S997 S 0.12295 0.95424 0.32735 0.0
N998 N 0.14958 0.97866 0.3459 0.0
N999 N 0.12923 0.92615 0.32422 0.0
C1000 C 0.15381 0.93589 0.33887 0.0
C1001 C 0.165 0.96434 0.35036 0.0
C1002 C 0.55841 0.68254 0.30563 0.0
C1003 C 0.54454 0.65668 0.3204 0.0
C1004 C 0.57604 0.71063 0.31658 0.0
C1005 C 0.58057 0.71385 0.34272 0.0
H1006 H 0.55596 0.68098 0.28537 0.0
H1007 H 0.58681 0.7298 0.30435 0.0
S1008 S 0.54812 0.65272 0.38967 0.0
N1009 N 0.53576 0.63583 0.36233 0.0
N1010 N 0.56855 0.68852 0.38321 0.0
C1011 C 0.56599 0.6881 0.35777 0.0
C1012 C 0.54804 0.65954 0.34654 0.0
C1013 C 0.29525 0.88374 0.27099 0.0
C1014 C 0.31464 0.88761 0.29098 0.0
C1015 C 0.26549 0.87512 0.27528 0.0
C1016 C 0.25379 0.86967 0.29971 0.0
H1017 H 0.30309 0.88727 0.25179 0.0
H1018 H 0.25149 0.87249 0.25926 0.0
S1019 S 0.29538 0.87764 0.35869 0.0
N1020 N 0.32021 0.8863 0.33626 0.0
N1021 N 0.264 0.86925 0.34429 0.0
C1022 C 0.27281 0.8732 0.3199 0.0
C1023 C 0.30327 0.88234 0.31555 0.0
C1024 C 0.15952 0.46387 0.31763 0.0
C1025 C 0.15435 0.4623 0.29162 0.0
C1026 C 0.1653 0.44333 0.32948 0.0
C1027 C 0.1656 0.42018 0.31582 0.0
H1028 H 0.15636 0.47922 0.32929 0.0
H1029 H 0.16638 0.44372 0.34982 0.0
S1030 S 0.16379 0.4133 0.24648 0.0
N1031 N 0.15764 0.44113 0.25187 0.0
N1032 N 0.16798 0.40178 0.27432 0.0
C1033 C 0.16502 0.42122 0.28948 0.0
C1034 C 0.15923 0.44235 0.27734 0.0
C1035 C 0.29755 0.41881 0.29367 0.0
C1036 C 0.31728 0.40937 0.28554 0.0
C1037 C 0.26762 0.39822 0.29839 0.0
C1038 C 0.25632 0.3675 0.29491 0.0
H1039 H 0.30516 0.44234 0.29586 0.0
H1040 H 0.25308 0.40646 0.30421 0.0
S1041 S 0.2996 0.33112 0.27705 0.0
N1042 N 0.324 0.36712 0.27658 0.0
N1043 N 0.2677 0.32847 0.28496 0.0
C1044 C 0.27601 0.35773 0.28754 0.0
C1045 C 0.30648 0.37864 0.28297 0.0
C1046 C 0.57953 0.89174 0.31979 0.0
C1047 C 0.54951 0.87411 0.31282 0.0
C1048 C 0.59814 0.87959 0.3211 0.0
C1049 C 0.58733 0.84939 0.31572 0.0
H1050 H 0.589 0.91541 0.3232 0.0
H1051 H 0.62142 0.89414 0.32553 0.0
S1052 S 0.51028 0.79295 0.29905 0.0
N1053 N 0.50949 0.82429 0.30208 0.0
N1054 N 0.5448 0.80147 0.3052 0.0
C1055 C 0.55718 0.83103 0.31026 0.0
C1056 C 0.53812 0.84339 0.30876 0.0
C1057 C 0.14076 0.70243 0.29382 0.0
C1058 C 0.13301 0.67888 0.31073 0.0
C1059 C 0.15556 0.73213 0.30218 0.0
C1060 C 0.16334 0.73909 0.3276 0.0
H1061 H 0.13532 0.69786 0.27405 0.0
H1062 H 0.16051 0.74971 0.28883 0.0
S1063 S 0.1456 0.68474 0.37955 0.0
N1064 N 0.13233 0.6641 0.35404 0.0
N1065 N 0.16076 0.71945 0.36982 0.0
C1066 C 0.15564 0.71547 0.34464 0.0
C1067 C 0.14027 0.68547 0.33618 0.0
C1068 C 0.74852 0.95613 0.3623 0.0
C1069 C 0.76527 0.98058 0.34651 0.0
C1070 C 0.72917 0.92793 0.35235 0.0
C1071 C 0.72585 0.92322 0.32625 0.0
H1072 H 0.75031 0.95886 0.38253 0.0
H1073 H 0.71632 0.90989 0.36524 0.0
S1074 S 0.76555 0.98012 0.27692 0.0
N1075 N 0.77775 -0.00153 0.30369 0.0
N1076 N 0.7419 0.94537 0.28475 0.0
C1077 C 0.74306 0.94746 0.31024 0.0
C1078 C 0.76268 0.97617 0.32043 0.0
C1079 C 0.01588 0.74822 0.38176 0.0
C1080 C -0.00066 0.75164 0.36241 0.0
C1081 C 0.04561 0.75632 0.3784 0.0
C1082 C 0.06028 0.76873 0.35572 0.0
H1083 H 0.00599 0.73976 0.39994 0.0
H1084 H 0.05742 0.75355 0.39399 0.0
S1085 S 0.02688 0.78049 0.29843 0.0
N1086 N -0.00046 0.7665 0.31901 0.0
N1087 N 0.056 0.78291 0.31313 0.0
C1088 C 0.04415 0.77212 0.33607 0.0
C1089 C 0.01358 0.76333 0.33931 0.0
C1090 C 0.17241 0.19808 0.36249 0.0
C1091 C 0.20151 0.21422 0.37214 0.0
C1092 C 0.15901 0.21263 0.35096 0.0
C1093 C 0.17402 0.24377 0.34922 0.0
H1094 H 0.16073 0.17395 0.36224 0.0
H1095 H 0.13783 0.19937 0.34157 0.0
S1096 S 0.24891 0.29649 0.37409 0.0
N1097 N 0.24373 0.26323 0.38121 0.0
N1098 N 0.21812 0.29051 0.35993 0.0
C1099 C 0.20182 0.26029 0.36094 0.0
C1100 C 0.2157 0.2455 0.37239 0.0
C1101 C 0.6854 0.5795 0.72259 0.0
C1102 C 0.66755 0.56102 0.7029 0.0
C1103 C 0.71495 0.60148 0.71854 0.0
C1104 C 0.72798 0.60577 0.69466 0.0
H1105 H 0.67673 0.57644 0.7415 0.0
H1106 H 0.72785 0.61478 0.73445 0.0
S1107 S 0.68994 0.56525 0.63623 0.0
N1108 N 0.66434 0.54997 0.65821 0.0
N1109 N 0.72014 0.59096 0.65063 0.0
C1110 C 0.71021 0.58793 0.67463 0.0
C1111 C 0.67997 0.56566 0.67874 0.0
C1112 C 0.43461 0.11006 0.64853 0.0
C1113 C 0.45592 0.12936 0.66593 0.0
C1114 C 0.41121 0.11442 0.64118 0.0
C1115 C 0.4085 0.13821 0.651 0.0
H1116 H 0.43439 0.08998 0.64244 0.0
H1117 H 0.39387 0.09766 0.62937 0.0
S1118 S 0.46269 0.19846 0.69286 0.0
N1119 N 0.47602 0.17569 0.68941 0.0
N1120 N 0.43213 0.18411 0.67566 0.0
C1121 C 0.43182 0.15967 0.66594 0.0
C1122 C 0.45552 0.15512 0.67346 0.0
C1123 C 0.86412 0.29151 0.69864 0.0
C1124 C 0.86969 0.31628 0.68395 0.0
C1125 C 0.85298 0.2632 0.68779 0.0
C1126 C 0.84716 0.25872 0.66184 0.0
H1127 H 0.86869 0.29409 0.71863 0.0
H1128 H 0.84992 0.24499 0.69973 0.0
S1129 S 0.85693 0.31637 0.61537 0.0
N1130 N 0.86807 0.33452 0.64231 0.0
N1131 N 0.84636 0.28138 0.62197 0.0
C1132 C 0.85166 0.28321 0.64712 0.0
C1133 C 0.86314 0.31197 0.65815 0.0
C1134 C 0.20792 0.0155 0.67093 0.0
C1135 C 0.19409 0.01671 0.64864 0.0
C1136 C 0.23424 0.04023 0.67925 0.0
C1137 C 0.24781 0.06701 0.66552 0.0
H1138 H 0.19999 -0.00538 0.68076 0.0
H1139 H 0.24516 0.03752 0.69555 0.0
S1140 S 0.21631 0.08352 0.6094 0.0
N1141 N 0.19238 0.04838 0.61587 0.0
N1142 N 0.24254 0.09477 0.63108 0.0
C1143 C 0.23228 0.0696 0.64498 0.0
C1144 C 0.20524 0.04443 0.63664 0.0
C1145 C 0.97102 0.2119 0.64969 0.0
C1146 C 0.98075 0.21046 0.62541 0.0
C1147 C 0.94105 0.20228 0.65429 0.0
C1148 C 0.91999 0.19108 0.6347 0.0
H1149 H 0.9868 0.22147 0.66502 0.0
H1150 H 0.93457 0.20467 0.67309 0.0
S1151 S 0.93363 0.17843 0.56867 0.0
N1152 N 0.96662 0.19382 0.58225 0.0
N1153 N 0.91038 0.17612 0.59078 0.0
C1154 C 0.92925 0.18816 0.61063 0.0
C1155 C 0.95964 0.19776 0.60601 0.0
C1156 C 0.77887 0.74276 0.62388 0.0
C1157 C 0.7909 0.77338 0.62876 0.0
C1158 C 0.79043 0.72655 0.6357 0.0
C1159 C 0.81423 0.74052 0.65274 0.0
H1160 H 0.7591 0.73082 0.6124 0.0
H1161 H 0.77903 0.70259 0.63321 0.0
S1162 S 0.85742 0.82104 0.66769 0.0
N1163 N 0.83119 0.81782 0.64824 0.0
N1164 N 0.85202 0.78703 0.67117 0.0
C1165 C 0.82811 0.77145 0.65591 0.0
C1166 C 0.81667 0.788 0.64369 0.0
C1167 C 0.96073 0.75834 0.63882 0.0
C1168 C 0.98271 0.7515 0.63168 0.0
C1169 C 0.93121 0.73581 0.64236 0.0
C1170 C 0.92259 0.70571 0.63853 0.0
H1171 H 0.9661 0.78131 0.64073 0.0
H1172 H 0.91484 0.74208 0.64715 0.0
S1173 S 0.97225 0.67568 0.62366 0.0
N1174 N -0.00563 0.71218 0.62403 0.0
N1175 N 0.93872 0.66995 0.62986 0.0
C1176 C 0.94451 0.69846 0.63254 0.0
C1177 C 0.97461 0.72132 0.62933 0.0
C1178 C 0.25212 0.23892 0.66057 0.0
C1179 C 0.22429 0.21816 0.65061 0.0
C1180 C 0.27491 0.23221 0.66226 0.0
C1181 C 0.27055 0.20442 0.65429 0.0
H1182 H 0.25701 0.2613 0.66522 0.0
H1183 H 0.2967 0.24962 0.66824 0.0
S1184 S 0.20036 0.14078 0.63076 0.0
N1185 N 0.19242 0.16751 0.63558 0.0
N1186 N 0.23543 0.1547 0.63923 0.0
C1187 C 0.24199 0.18236 0.64689 0.0
C1188 C 0.21872 0.18929 0.64495 0.0
C1189 C 0.81514 0.01498 0.65877 0.0
C1190 C 0.79221 0.00545 0.64087 0.0
C1191 C 0.82651 0.04262 0.67074 0.0
C1192 C 0.81574 0.06189 0.66489 0.0
H1193 H 0.82367 0.00054 0.6642 0.0
H1194 H 0.84296 0.04842 0.68545 0.0
S1195 S 0.75659 0.04813 0.61893 0.0
N1196 N 0.75957 0.01791 0.61754 0.0
N1197 N 0.7817 0.07026 0.63962 0.0
C1198 C 0.79407 0.05349 0.64605 0.0
C1199 C 0.78209 0.02513 0.63413 0.0
C1200 C 0.4358 0.27608 0.71352 0.0
C1201 C 0.46538 0.28969 0.70499 0.0
C1202 C 0.41246 0.25458 0.69889 0.0
C1203 C 0.41812 0.24638 0.67536 0.0
H1204 H 0.43015 0.28447 0.73001 0.0
H1205 H 0.38986 0.24736 0.70452 0.0
S1206 S 0.4916 0.26822 0.64829 0.0
N1207 N 0.49921 0.28749 0.67473 0.0
N1208 N 0.45503 0.24822 0.64658 0.0
C1209 C 0.44756 0.2564 0.66842 0.0
C1210 C 0.47135 0.27782 0.68348 0.0
C1211 C 0.69223 0.1235 0.69548 0.0
C1212 C 0.67201 0.09457 0.7039 0.0
C1213 C 0.72239 0.13276 0.6924 0.0
C1214 C 0.73329 0.11353 0.69803 0.0
H1215 H 0.68489 0.13939 0.69199 0.0
H1216 H 0.73739 0.15536 0.68636 0.0
S1217 S 0.68895 0.03437 0.71692 0.0
N1218 N 0.66454 0.04579 0.71488 0.0
N1219 N 0.72135 0.06353 0.70986 0.0
C1220 C 0.71318 0.08427 0.70547 0.0
C1221 C 0.68249 0.0747 0.70822 0.0
C1222 C 0.86768 0.56965 0.70923 0.0
C1223 C 0.85807 0.53971 0.70318 0.0
C1224 C 0.85518 0.58494 0.69732 0.0
C1225 C 0.83301 0.57072 0.67891 0.0
H1226 H 0.88653 0.582 0.72163 0.0
H1227 H 0.86507 0.60868 0.7006 0.0
S1228 S 0.7954 0.49099 0.66097 0.0
N1229 N 0.82101 0.49503 0.6815 0.0
N1230 N 0.79855 0.52419 0.65834 0.0
C1231 C 0.82103 0.5401 0.67486 0.0
C1232 C 0.83336 0.52446 0.68718 0.0
C1233 C 0.53317 0.00539 0.12626 0.0
C1234 C 0.51167 0.97604 0.13227 0.0
C1235 C 0.53829 0.0149 0.10126 0.0
C1236 C 0.52209 -0.00464 0.08142 0.0
H1237 H 0.54464 0.0216 0.14104 0.0
H1238 H 0.55358 0.03824 0.09761 0.0
S1239 S 0.46776 0.91455 0.08742 0.0
N1240 N 0.47757 0.92633 0.1166 0.0
N1241 N 0.48684 0.94405 0.06953 0.0
C1242 C 0.50272 0.96516 0.08716 0.0
C1243 C 0.49749 0.95557 0.11264 0.0
C1244 C 0.98184 0.51647 0.13435 0.0
C1245 C 0.00917 0.52121 0.14348 0.0
C1246 C 0.9766 0.51545 0.10844 0.0
C1247 C -0.00137 0.51944 0.091 0.0
H1248 H 0.96389 0.51163 0.14721 0.0
H1249 H 0.95452 0.50947 0.10201 0.0
S1250 S 0.07551 0.53758 0.10617 0.0
N1251 N 0.05966 0.53394 0.13372 0.0
N1252 N 0.04994 0.53193 0.085 0.0
C1253 C 0.02694 0.52708 0.1001 0.0
C1254 C 0.03214 0.52786 0.12641 0.0
C1255 C 0.52812 0.50495 0.12037 0.0
C1256 C 0.51834 0.52436 0.12839 0.0
C1257 C 0.53352 0.50276 0.09497 0.0
C1258 C 0.52853 0.51933 0.07656 0.0
H1259 H 0.53053 0.49056 0.13373 0.0
H1260 H 0.53958 0.48632 0.08968 0.0
S1261 S 0.50684 0.57634 0.08868 0.0
N1262 N 0.50717 0.56298 0.11674 0.0
N1263 N 0.5166 0.55834 0.06871 0.0
C1264 C 0.52083 0.5404 0.08467 0.0
C1265 C 0.51582 0.54299 0.11066 0.0
C1266 C 0.00391 0.50688 0.87615 0.0
C1267 C 0.98237 0.47931 0.86611 0.0
C1268 C 0.00558 0.51239 0.9019 0.0
C1269 C 0.98625 0.49038 0.91862 0.0
H1270 H 0.01866 0.52484 0.86387 0.0
H1271 H 0.02163 0.53441 0.90875 0.0
S1272 S 0.92807 0.41352 0.90251 0.0
N1273 N 0.9425 0.42898 0.87519 0.0
N1274 N 0.94673 0.43931 0.92404 0.0
C1275 C 0.96614 0.46201 0.90926 0.0
C1276 C 0.96399 0.45645 0.88283 0.0
C1277 C 0.45795 0.47163 0.86486 0.0
C1278 C 0.46781 0.45164 0.85903 0.0
C1279 C 0.45437 0.47759 0.88985 0.0
C1280 C 0.46132 0.46435 0.9099 0.0
H1281 H 0.4543 0.48375 0.85005 0.0
H1282 H 0.44823 0.49439 0.89336 0.0
S1283 S 0.48398 0.40715 0.90409 0.0
N1284 N 0.48112 0.41591 0.87483 0.0
N1285 N 0.47498 0.42751 0.92193 0.0
C1286 C 0.46885 0.44245 0.90416 0.0
C1287 C 0.47207 0.43608 0.87866 0.0
C1288 C 0.49216 0.03975 0.88295 0.0
C1289 C 0.47672 0.02094 0.86261 0.0
C1290 C 0.48765 0.02876 0.90752 0.0
C1291 C 0.46806 -0.00159 0.91239 0.0
H1292 H 0.50912 0.06266 0.87964 0.0
H1293 H 0.50163 0.04351 0.92234 0.0
S1294 S 0.41892 0.94129 0.86604 0.0
N1295 N 0.43828 0.97173 0.84923 0.0
N1296 N 0.43018 0.95079 0.89539 0.0
C1297 C 0.45055 0.98009 0.89249 0.0
C1298 C 0.45484 -0.00857 0.86755 0.0
C1299 C 0.16605 0.34305 0.45772 0.0
C1300 C 0.16983 0.31941 0.46587 0.0
C1301 C 0.16599 0.34907 0.43218 0.0
C1302 C 0.16981 0.33178 0.41375 0.0
H1303 H 0.16168 0.35611 0.47116 0.0
H1304 H 0.16137 0.3665 0.42677 0.0
S1305 S 0.18317 0.26899 0.42531 0.0
N1306 N 0.17967 0.27992 0.45365 0.0
N1307 N 0.17968 0.29145 0.4054 0.0
C1308 C 0.1758 0.30947 0.42162 0.0
C1309 C 0.17576 0.30322 0.44777 0.0
C1310 C 0.64021 0.84487 0.46186 0.0
C1311 C 0.66956 0.85539 0.46962 0.0
C1312 C 0.63302 0.84192 0.43629 0.0
C1313 C 0.65499 0.84933 0.41782 0.0
H1314 H 0.62248 0.83676 0.47552 0.0
H1315 H 0.6098 0.83144 0.43104 0.0
S1316 S 0.7361 0.8851 0.42919 0.0
N1317 N 0.72134 0.87857 0.45752 0.0
N1318 N 0.70799 0.87315 0.40931 0.0
C1319 C 0.68487 0.86344 0.42552 0.0
C1320 C 0.6921 0.86627 0.45154 0.0
C1321 C 0.18565 0.84795 0.46431 0.0
C1322 C 0.17304 0.86603 0.46812 0.0
C1323 C 0.18899 0.83964 0.44012 0.0
C1324 C 0.17933 0.84868 0.41889 0.0
H1325 H 0.19125 0.83866 0.48021 0.0
H1326 H 0.19687 0.82394 0.43819 0.0
S1327 S 0.14945 0.90026 0.4188 0.0
N1328 N 0.15476 0.89625 0.44882 0.0
N1329 N 0.16041 0.87996 0.40309 0.0
C1330 C 0.16957 0.86927 0.42229 0.0
C1331 C 0.16643 0.87801 0.44706 0.0
C1332 C 0.61381 0.77322 0.21826 0.0
C1333 C 0.63472 0.78941 0.19961 0.0
C1334 C 0.62247 0.77535 0.24346 0.0
C1335 C 0.65235 0.79355 0.25062 0.0
H1336 H 0.59045 0.76017 0.2135 0.0
H1337 H 0.60541 0.76423 0.25752 0.0
S1338 S 0.71604 0.83569 0.20747 0.0
N1339 N 0.68653 0.82094 0.18899 0.0
N1340 N 0.7034 0.82428 0.2361 0.0
C1341 C 0.67377 0.80739 0.23154 0.0
C1342 C 0.66477 0.80564 0.20607 0.0
C1343 C 0.14739 0.7795 0.21522 0.0
C1344 C 0.14078 0.79291 0.19523 0.0
C1345 C 0.14237 0.7844 0.24021 0.0
C1346 C 0.13033 0.80271 0.24605 0.0
H1347 H 0.15811 0.76653 0.21161 0.0
H1348 H 0.14961 0.77522 0.25502 0.0
S1349 S 0.10428 0.83841 0.19975 0.0
N1350 N 0.11834 0.82205 0.18242 0.0
N1351 N 0.10803 0.8308 0.22916 0.0
C1352 C 0.12117 0.814 0.22592 0.0
C1353 C 0.12674 0.80934 0.20057 0.0
C1354 C 0.13819 0.34236 0.20841 0.0
C1355 C 0.13605 0.32287 0.18907 0.0
C1356 C 0.13477 0.33348 0.23363 0.0
C1357 C 0.12915 0.30493 0.24035 0.0
H1358 H 0.14431 0.36513 0.20413 0.0
H1359 H 0.13812 0.34955 0.24806 0.0
S1360 S 0.11517 0.2437 0.19589 0.0
N1361 N 0.12344 0.27255 0.17771 0.0
N1362 N 0.11666 0.25557 0.22496 0.0
C1363 C 0.12397 0.28432 0.22086 0.0
C1364 C 0.12768 0.29345 0.19525 0.0
C1365 C 0.83161 0.61856 0.78012 0.0
C1366 C 0.84666 0.63852 0.79992 0.0
C1367 C 0.83483 0.6285 0.75528 0.0
C1368 C 0.85269 0.65892 0.7495 0.0
H1369 H 0.81605 0.59536 0.78406 0.0
H1370 H 0.82139 0.61258 0.74089 0.0
S1371 S 0.90007 0.71927 0.79433 0.0
N1372 N 0.88273 0.6892 0.81195 0.0
N1373 N 0.88855 0.7082 0.76527 0.0
C1374 C 0.86972 0.67864 0.76893 0.0
C1375 C 0.86672 0.66837 0.79418 0.0
C1376 C 0.32998 0.17603 0.781 0.0
C1377 C 0.3508 0.17251 0.79524 0.0
C1378 C 0.32999 0.17461 0.7547 0.0
C1379 C 0.35078 0.16956 0.74205 0.0
H1380 H 0.31288 0.17862 0.79027 0.0
H1381 H 0.31264 0.17574 0.74434 0.0
S1382 S 0.41327 0.16482 0.77062 0.0
N1383 N 0.39527 0.16824 0.79473 0.0
N1384 N 0.39495 0.16507 0.74534 0.0
C1385 C 0.37292 0.16817 0.75602 0.0
C1386 C 0.37301 0.16975 0.78265 0.0
C1387 C 0.83156 0.20103 0.78346 0.0
C1388 C 0.84896 0.19844 0.80242 0.0
C1389 C 0.83632 0.19748 0.75815 0.0
C1390 C 0.8583 0.19065 0.7511 0.0
H1391 H 0.81313 0.20423 0.78833 0.0
H1392 H 0.82094 0.19741 0.74437 0.0
S1393 S 0.91301 0.18678 0.79336 0.0
N1394 N 0.89151 0.19285 0.81236 0.0
N1395 N 0.9004 0.18592 0.76469 0.0
C1396 C 0.87769 0.19098 0.76971 0.0
C1397 C 0.87297 0.19484 0.79546 0.0
C1398 C 0.3638 0.16451 0.52894 0.0
C1399 C 0.33585 0.1455 0.51847 0.0
C1400 C 0.36676 0.17051 0.5547 0.0
C1401 C 0.34182 0.15773 0.57051 0.0
H1402 H 0.38296 0.17655 0.51695 0.0
H1403 H 0.38828 0.18702 0.56199 0.0
S1404 S 0.26446 0.10387 0.55211 0.0
N1405 N 0.28338 0.11169 0.52564 0.0
N1406 N 0.28896 0.12303 0.57434 0.0
C1407 C 0.31426 0.13653 0.56057 0.0
C1408 C 0.31125 0.13047 0.53432 0.0
C1409 C 0.82292 0.10793 0.55533 0.0
C1410 C 0.81516 0.11979 0.53493 0.0
C1411 C 0.81549 0.11134 0.57992 0.0
C1412 C 0.7999 0.12655 0.58484 0.0
H1413 H 0.83615 0.09738 0.55236 0.0
H1414 H 0.82369 0.10365 0.59521 0.0
S1415 S 0.76952 0.15619 0.53682 0.0
N1416 N 0.7878 0.14346 0.52047 0.0
N1417 N 0.77301 0.14934 0.56653 0.0
C1418 C 0.78957 0.13586 0.56418 0.0
C1419 C 0.79757 0.13276 0.53925 0.0
C1420 C 0.80022 0.64138 0.53236 0.0
C1421 C 0.81172 0.67161 0.52692 0.0
C1422 C 0.79458 0.63119 0.5571 0.0
C1423 C 0.80096 0.65098 0.57749 0.0
H1424 H 0.79647 0.62563 0.5174 0.0
H1425 H 0.78693 0.60782 0.56026 0.0
S1426 S 0.82756 0.73193 0.5726 0.0
N1427 N 0.82607 0.72083 0.54324 0.0
N1428 N 0.81626 0.7019 0.59007 0.0
C1429 C 0.81038 0.681 0.57208 0.0
C1430 C 0.81569 0.69128 0.54671 0.0
loop_
_geom_bond_atom_site_label_1
_geom_bond_atom_site_label_2
_geom_bond_distance
_geom_bond_site_symmetry_2
_ccdc_geom_bond_type
C0 C1 1.384 . S
C0 H13 0.947 . S
C0 C35 1.382 . S
C1 C0 1.384 . S
C1 C2 1.378 . S
C2 C1 1.378 . S
C2 C3 1.378 . S
C2 H14 0.952 . S
C3 C2 1.378 . S
C3 H15 0.950 . S
C3 C34 1.383 . S
H4 C23 0.947 . S
H5 C24 0.946 . S
H6 C26 0.953 . S
H7 C27 0.945 . S
H8 C29 0.952 . S
H9 C30 0.949 . S
H10 C32 0.950 . S
H11 C33 0.948 . S
H12 C35 0.951 . S
H13 C0 0.947 . S
H14 C2 0.952 . S
H15 C3 0.950 . S
N16 C19 1.382 . S
N16 C21 1.363 . S
N17 C19 1.371 . S
N17 C20 1.372 . S
N18 C20 1.361 . S
N18 C21 1.377 . S
C19 N16 1.382 . S
C19 N17 1.371 . S
C19 C22 1.480 . S
C20 N17 1.372 . S
C20 N18 1.361 . S
C20 C28 1.457 . S
C21 N16 1.363 . S
C21 N18 1.377 . S
C21 C34 1.479 . S
C22 C19 1.480 . S
C22 C23 1.383 . S
C22 C27 1.385 . S
C23 H4 0.947 . S
C23 C22 1.383 . S
C23 C24 1.388 . S
C24 H5 0.946 . S
C24 C23 1.388 . S
C24 C25 1.384 . S
C25 C24 1.384 . S
C25 C26 1.377 . S
C26 H6 0.953 . S
C26 C25 1.377 . S
C26 C27 1.369 . S
C27 H7 0.945 . S
C27 C22 1.385 . S
C27 C26 1.369 . S
C28 C20 1.457 . S
C28 C29 1.372 . S
C28 C33 1.364 . S
C29 H8 0.952 . S
C29 C28 1.372 . S
C29 C30 1.389 . S
C30 H9 0.949 . S
C30 C29 1.389 . S
C30 C31 1.387 . S
C31 C30 1.387 . S
C31 C32 1.372 . S
C32 H10 0.950 . S
C32 C31 1.372 . S
C32 C33 1.379 . S
C33 H11 0.948 . S
C33 C28 1.364 . S
C33 C32 1.379 . S
C34 C3 1.383 . S
C34 C21 1.479 . S
C34 C35 1.398 . S
C35 C0 1.382 . S
C35 H12 0.951 . S
C35 C34 1.398 . S
C36 C37 1.384 . S
C36 H49 0.947 . S
C36 C71 1.382 . S
C37 C36 1.384 . S
C37 C38 1.378 . S
C38 C37 1.378 . S
C38 C39 1.378 . S
C38 H50 0.952 . S
C39 C38 1.378 . S
C39 H51 0.950 . S
C39 C70 1.383 . S
H40 C59 0.947 . S
H41 C60 0.946 . S
H42 C62 0.953 . S
H43 C63 0.945 . S
H44 C65 0.952 . S
H45 C66 0.949 . S
H46 C68 0.950 . S
H47 C69 0.948 . S
H48 C71 0.951 . S
H49 C36 0.947 . S
H50 C38 0.952 . S
H51 C39 0.950 . S
N52 C55 1.382 . S
N52 C57 1.363 . S
N53 C55 1.371 . S
N53 C56 1.372 . S
N54 C56 1.361 . S
N54 C57 1.377 . S
C55 N52 1.382 . S
C55 N53 1.371 . S
C55 C58 1.480 . S
C56 N53 1.372 . S
C56 N54 1.361 . S
C56 C64 1.457 . S
C57 N52 1.363 . S
C57 N54 1.377 . S
C57 C70 1.479 . S
C58 C55 1.480 . S
C58 C59 1.383 . S
C58 C63 1.385 . S
C59 H40 0.947 . S
C59 C58 1.383 . S
C59 C60 1.388 . S
C60 H41 0.946 . S
C60 C59 1.388 . S
C60 C61 1.384 . S
C61 C60 1.384 . S
C61 C62 1.377 . S
C62 H42 0.953 . S
C62 C61 1.377 . S
C62 C63 1.369 . S
C63 H43 0.945 . S
C63 C58 1.385 . S
C63 C62 1.369 . S
C64 C56 1.457 . S
C64 C65 1.372 . S
C64 C69 1.364 . S
C65 H44 0.952 . S
C65 C64 1.372 . S
C65 C66 1.389 . S
C66 H45 0.949 . S
C66 C65 1.389 . S
C66 C67 1.387 . S
C67 C66 1.387 . S
C67 C68 1.372 . S
C68 H46 0.950 . S
C68 C67 1.372 . S
C68 C69 1.379 . S
C69 H47 0.948 . S
C69 C64 1.364 . S
C69 C68 1.379 . S
C70 C39 1.383 . S
C70 C57 1.479 . S
C70 C71 1.398 . S
C71 C36 1.382 . S
C71 H48 0.951 . S
C71 C70 1.398 . S
C72 C73 1.384 . S
C72 H85 0.947 . S
C72 C107 1.382 . S
C73 C72 1.384 . S
C73 C74 1.378 . S
C74 C73 1.378 . S
C74 C75 1.378 . S
C74 H86 0.952 . S
C75 C74 1.378 . S
C75 H87 0.950 . S
C75 C106 1.383 . S
H76 C95 0.947 . S
H77 C96 0.946 . S
H78 C98 0.953 . S
H79 C99 0.945 . S
H80 C101 0.952 . S
H81 C102 0.949 . S
H82 C104 0.950 . S
H83 C105 0.948 . S
H84 C107 0.951 . S
H85 C72 0.947 . S
H86 C74 0.952 . S
H87 C75 0.950 . S
N88 C91 1.382 . S
N88 C93 1.363 . S
N89 C91 1.371 . S
N89 C92 1.372 . S
N90 C92 1.361 . S
N90 C93 1.377 . S
C91 N88 1.382 . S
C91 N89 1.371 . S
C91 C94 1.480 . S
C92 N89 1.372 . S
C92 N90 1.361 . S
C92 C100 1.457 . S
C93 N88 1.363 . S
C93 N90 1.377 . S
C93 C106 1.479 . S
C94 C91 1.480 . S
C94 C95 1.383 . S
C94 C99 1.385 . S
C95 H76 0.947 . S
C95 C94 1.383 . S
C95 C96 1.388 . S
C96 H77 0.946 . S
C96 C95 1.388 . S
C96 C97 1.384 . S
C97 C96 1.384 . S
C97 C98 1.377 . S
C98 H78 0.953 . S
C98 C97 1.377 . S
C98 C99 1.369 . S
C99 H79 0.945 . S
C99 C94 1.385 . S
C99 C98 1.369 . S
C100 C92 1.457 . S
C100 C101 1.372 . S
C100 C105 1.364 . S
C101 H80 0.952 . S
C101 C100 1.372 . S
C101 C102 1.389 . S
C102 H81 0.949 . S
C102 C101 1.389 . S
C102 C103 1.387 . S
C103 C102 1.387 . S
C103 C104 1.372 . S
C104 H82 0.950 . S
C104 C103 1.372 . S
C104 C105 1.379 . S
C105 H83 0.948 . S
C105 C100 1.364 . S
C105 C104 1.379 . S
C106 C75 1.383 . S
C106 C93 1.479 . S
C106 C107 1.398 . S
C107 C72 1.382 . S
C107 H84 0.951 . S
C107 C106 1.398 . S
C108 C109 1.384 . S
C108 H121 0.947 . S
C108 C143 1.382 . S
C109 C108 1.384 . S
C109 C110 1.378 . S
C110 C109 1.378 . S
C110 C111 1.378 . S
C110 H122 0.952 . S
C111 C110 1.378 . S
C111 H123 0.950 . S
C111 C142 1.383 . S
H112 C131 0.947 . S
H113 C132 0.946 . S
H114 C134 0.953 . S
H115 C135 0.945 . S
H116 C137 0.952 . S
H117 C138 0.949 . S
H118 C140 0.950 . S
H119 C141 0.948 . S
H120 C143 0.951 . S
H121 C108 0.947 . S
H122 C110 0.952 . S
H123 C111 0.950 . S
N124 C127 1.382 . S
N124 C129 1.363 . S
N125 C127 1.371 . S
N125 C128 1.372 . S
N126 C128 1.361 . S
N126 C129 1.377 . S
C127 N124 1.382 . S
C127 N125 1.371 . S
C127 C130 1.480 . S
C128 N125 1.372 . S
C128 N126 1.361 . S
C128 C136 1.457 . S
C129 N124 1.363 . S
C129 N126 1.377 . S
C129 C142 1.479 . S
C130 C127 1.480 . S
C130 C131 1.383 . S
C130 C135 1.385 . S
C131 H112 0.947 . S
C131 C130 1.383 . S
C131 C132 1.388 . S
C132 H113 0.946 . S
C132 C131 1.388 . S
C132 C133 1.384 . S
C133 C132 1.384 . S
C133 C134 1.377 . S
C134 H114 0.953 . S
C134 C133 1.377 . S
C134 C135 1.369 . S
C135 H115 0.945 . S
C135 C130 1.385 . S
C135 C134 1.369 . S
C136 C128 1.457 . S
C136 C137 1.372 . S
C136 C141 1.364 . S
C137 H116 0.952 . S
C137 C136 1.372 . S
C137 C138 1.389 . S
C138 H117 0.949 . S
C138 C137 1.389 . S
C138 C139 1.387 . S
C139 C138 1.387 . S
C139 C140 1.372 . S
C140 H118 0.950 . S
C140 C139 1.372 . S
C140 C141 1.379 . S
C141 H119 0.948 . S
C141 C136 1.364 . S
C141 C140 1.379 . S
C142 C111 1.383 . S
C142 C129 1.479 . S
C142 C143 1.398 . S
C143 C108 1.382 . S
C143 H120 0.951 . S
C143 C142 1.398 . S
C144 C145 1.384 . S
C144 H157 0.947 . S
C144 C179 1.382 . S
C145 C144 1.384 . S
C145 C146 1.378 . S
C146 C145 1.378 . S
C146 C147 1.378 . S
C146 H158 0.952 . S
C147 C146 1.378 . S
C147 H159 0.950 . S
C147 C178 1.383 . S
H148 C167 0.947 . S
H149 C168 0.946 . S
H150 C170 0.953 . S
H151 C171 0.945 . S
H152 C173 0.952 . S
H153 C174 0.949 . S
H154 C176 0.950 . S
H155 C177 0.948 . S
H156 C179 0.951 . S
H157 C144 0.947 . S
H158 C146 0.952 . S
H159 C147 0.950 . S
N160 C163 1.382 . S
N160 C165 1.363 . S
N161 C163 1.371 . S
N161 C164 1.372 . S
N162 C164 1.361 . S
N162 C165 1.377 . S
C163 N160 1.382 . S
C163 N161 1.371 . S
C163 C166 1.480 . S
C164 N161 1.372 . S
C164 N162 1.361 . S
C164 C172 1.457 . S
C165 N160 1.363 . S
C165 N162 1.377 . S
C165 C178 1.479 . S
C166 C163 1.480 . S
C166 C167 1.383 . S
C166 C171 1.385 . S
C167 H148 0.947 . S
C167 C166 1.383 . S
C167 C168 1.388 . S
C168 H149 0.946 . S
C168 C167 1.388 . S
C168 C169 1.384 . S
C169 C168 1.384 . S
C169 C170 1.377 . S
C170 H150 0.953 . S
C170 C169 1.377 . S
C170 C171 1.369 . S
C171 H151 0.945 . S
C171 C166 1.385 . S
C171 C170 1.369 . S
C172 C164 1.457 . S
C172 C173 1.372 . S
C172 C177 1.364 . S
C173 H152 0.952 . S
C173 C172 1.372 . S
C173 C174 1.389 . S
C174 H153 0.949 . S
C174 C173 1.389 . S
C174 C175 1.387 . S
C175 C174 1.387 . S
C175 C176 1.372 . S
C176 H154 0.950 . S
C176 C175 1.372 . S
C176 C177 1.379 . S
C177 H155 0.948 . S
C177 C172 1.364 . S
C177 C176 1.379 . S
C178 C147 1.383 . S
C178 C165 1.479 . S
C178 C179 1.398 . S
C179 C144 1.382 . S
C179 H156 0.951 . S
C179 C178 1.398 . S
C180 C181 1.384 . S
C180 H193 0.947 . S
C180 C215 1.382 . S
C181 C180 1.384 . S
C181 C182 1.378 . S
C182 C181 1.378 . S
C182 C183 1.378 . S
C182 H194 0.952 . S
C183 C182 1.378 . S
C183 H195 0.950 . S
C183 C214 1.383 . S
H184 C203 0.947 . S
H185 C204 0.946 . S
H186 C206 0.953 . S
H187 C207 0.945 . S
H188 C209 0.952 . S
H189 C210 0.949 . S
H190 C212 0.950 . S
H191 C213 0.948 . S
H192 C215 0.951 . S
H193 C180 0.947 . S
H194 C182 0.952 . S
H195 C183 0.950 . S
N196 C199 1.382 . S
N196 C201 1.363 . S
N197 C199 1.371 . S
N197 C200 1.372 . S
N198 C200 1.361 . S
N198 C201 1.377 . S
C199 N196 1.382 . S
C199 N197 1.371 . S
C199 C202 1.480 . S
C200 N197 1.372 . S
C200 N198 1.361 . S
C200 C208 1.457 . S
C201 N196 1.363 . S
C201 N198 1.377 . S
C201 C214 1.479 . S
C202 C199 1.480 . S
C202 C203 1.383 . S
C202 C207 1.385 . S
C203 H184 0.947 . S
C203 C202 1.383 . S
C203 C204 1.388 . S
C204 H185 0.946 . S
C204 C203 1.388 . S
C204 C205 1.384 . S
C205 C204 1.384 . S
C205 C206 1.377 . S
C206 H186 0.953 . S
C206 C205 1.377 . S
C206 C207 1.369 . S
C207 H187 0.945 . S
C207 C202 1.385 . S
C207 C206 1.369 . S
C208 C200 1.457 . S
C208 C209 1.372 . S
C208 C213 1.364 . S
C209 H188 0.952 . S
C209 C208 1.372 . S
C209 C210 1.389 . S
C210 H189 0.949 . S
C210 C209 1.389 . S
C210 C211 1.387 . S
C211 C210 1.387 . S
C211 C212 1.372 . S
C212 H190 0.950 . S
C212 C211 1.372 . S
C212 C213 1.379 . S
C213 H191 0.948 . S
C213 C208 1.364 . S
C213 C212 1.379 . S
C214 C183 1.383 . S
C214 C201 1.479 . S
C214 C215 1.398 . S
C215 C180 1.382 . S
C215 H192 0.951 . S
C215 C214 1.398 . S
C216 C217 1.384 . S
C216 H229 0.947 . S
C216 C251 1.382 . S
C217 C216 1.384 . S
C217 C218 1.378 . S
C218 C217 1.378 . S
C218 C219 1.378 . S
C218 H230 0.952 . S
C219 C218 1.378 . S
C219 H231 0.950 . S
C219 C250 1.383 . S
H220 C239 0.947 . S
H221 C240 0.946 . S
H222 C242 0.953 . S
H223 C243 0.945 . S
H224 C245 0.952 . S
H225 C246 0.949 . S
H226 C248 0.950 . S
H227 C249 0.948 . S
H228 C251 0.951 . S
H229 C216 0.947 . S
H230 C218 0.952 . S
H231 C219 0.950 . S
N232 C235 1.382 . S
N232 C237 1.363 . S
N233 C235 1.371 . S
N233 C236 1.372 . S
N234 C236 1.361 . S
N234 C237 1.377 . S
C235 N232 1.382 . S
C235 N233 1.371 . S
C235 C238 1.480 . S
C236 N233 1.372 . S
C236 N234 1.361 . S
C236 C244 1.457 . S
C237 N232 1.363 . S
C237 N234 1.377 . S
C237 C250 1.479 . S
C238 C235 1.480 . S
C238 C239 1.383 . S
C238 C243 1.385 . S
C239 H220 0.947 . S
C239 C238 1.383 . S
C239 C240 1.388 . S
C240 H221 0.946 . S
C240 C239 1.388 . S
C240 C241 1.384 . S
C241 C240 1.384 . S
C241 C242 1.377 . S
C242 H222 0.953 . S
C242 C241 1.377 . S
C242 C243 1.369 . S
C243 H223 0.945 . S
C243 C238 1.385 . S
C243 C242 1.369 . S
C244 C236 1.457 . S
C244 C245 1.372 . S
C244 C249 1.364 . S
C245 H224 0.952 . S
C245 C244 1.372 . S
C245 C246 1.389 . S
C246 H225 0.949 . S
C246 C245 1.389 . S
C246 C247 1.387 . S
C247 C246 1.387 . S
C247 C248 1.372 . S
C248 H226 0.950 . S
C248 C247 1.372 . S
C248 C249 1.379 . S
C249 H227 0.948 . S
C249 C244 1.364 . S
C249 C248 1.379 . S
C250 C219 1.383 . S
C250 C237 1.479 . S
C250 C251 1.398 . S
C251 C216 1.382 . S
C251 H228 0.951 . S
C251 C250 1.398 . S
C252 C253 1.384 . S
C252 H265 0.947 . S
C252 C287 1.382 . S
C253 C252 1.384 . S
C253 C254 1.378 . S
C254 C253 1.378 . S
C254 C255 1.378 . S
C254 H266 0.952 . S
C255 C254 1.378 . S
C255 H267 0.950 . S
C255 C286 1.383 . S
H256 C275 0.947 . S
H257 C276 0.946 . S
H258 C278 0.953 . S
H259 C279 0.945 . S
H260 C281 0.952 . S
H261 C282 0.949 . S
H262 C284 0.950 . S
H263 C285 0.948 . S
H264 C287 0.951 . S
H265 C252 0.947 . S
H266 C254 0.952 . S
H267 C255 0.950 . S
N268 C271 1.382 . S
N268 C273 1.363 . S
N269 C271 1.371 . S
N269 C272 1.372 . S
N270 C272 1.361 . S
N270 C273 1.377 . S
C271 N268 1.382 . S
C271 N269 1.371 . S
C271 C274 1.480 . S
C272 N269 1.372 . S
C272 N270 1.361 . S
C272 C280 1.457 . S
C273 N268 1.363 . S
C273 N270 1.377 . S
C273 C286 1.479 . S
C274 C271 1.480 . S
C274 C275 1.383 . S
C274 C279 1.385 . S
C275 H256 0.947 . S
C275 C274 1.383 . S
C275 C276 1.388 . S
C276 H257 0.946 . S
C276 C275 1.388 . S
C276 C277 1.384 . S
C277 C276 1.384 . S
C277 C278 1.377 . S
C278 H258 0.953 . S
C278 C277 1.377 . S
C278 C279 1.369 . S
C279 H259 0.945 . S
C279 C274 1.385 . S
C279 C278 1.369 . S
C280 C272 1.457 . S
C280 C281 1.372 . S
C280 C285 1.364 . S
C281 H260 0.952 . S
C281 C280 1.372 . S
C281 C282 1.389 . S
C282 H261 0.949 . S
C282 C281 1.389 . S
C282 C283 1.387 . S
C283 C282 1.387 . S
C283 C284 1.372 . S
C284 H262 0.950 . S
C284 C283 1.372 . S
C284 C285 1.379 . S
C285 H263 0.948 . S
C285 C280 1.364 . S
C285 C284 1.379 . S
C286 C255 1.383 . S
C286 C273 1.479 . S
C286 C287 1.398 . S
C287 C252 1.382 . S
C287 H264 0.951 . S
C287 C286 1.398 . S
C288 C289 1.384 . S
C288 H301 0.947 . S
C288 C323 1.382 . S
C289 C288 1.384 . S
C289 C290 1.378 . S
C290 C289 1.378 . S
C290 C291 1.378 . S
C290 H302 0.952 . S
C291 C290 1.378 . S
C291 H303 0.950 . S
C291 C322 1.383 . S
H292 C311 0.947 . S
H293 C312 0.946 . S
H294 C314 0.953 . S
H295 C315 0.945 . S
H296 C317 0.952 . S
H297 C318 0.949 . S
H298 C320 0.950 . S
H299 C321 0.948 . S
H300 C323 0.951 . S
H301 C288 0.947 . S
H302 C290 0.952 . S
H303 C291 0.950 . S
N304 C307 1.382 . S
N304 C309 1.363 . S
N305 C307 1.371 . S
N305 C308 1.372 . S
N306 C308 1.361 . S
N306 C309 1.377 . S
C307 N304 1.382 . S
C307 N305 1.371 . S
C307 C310 1.480 . S
C308 N305 1.372 . S
C308 N306 1.361 . S
C308 C316 1.457 . S
C309 N304 1.363 . S
C309 N306 1.377 . S
C309 C322 1.479 . S
C310 C307 1.480 . S
C310 C311 1.383 . S
C310 C315 1.385 . S
C311 H292 0.947 . S
C311 C310 1.383 . S
C311 C312 1.388 . S
C312 H293 0.946 . S
C312 C311 1.388 . S
C312 C313 1.384 . S
C313 C312 1.384 . S
C313 C314 1.377 . S
C314 H294 0.953 . S
C314 C313 1.377 . S
C314 C315 1.369 . S
C315 H295 0.945 . S
C315 C310 1.385 . S
C315 C314 1.369 . S
C316 C308 1.457 . S
C316 C317 1.372 . S
C316 C321 1.364 . S
C317 H296 0.952 . S
C317 C316 1.372 . S
C317 C318 1.389 . S
C318 H297 0.949 . S
C318 C317 1.389 . S
C318 C319 1.387 . S
C319 C318 1.387 . S
C319 C320 1.372 . S
C320 H298 0.950 . S
C320 C319 1.372 . S
C320 C321 1.379 . S
C321 H299 0.948 . S
C321 C316 1.364 . S
C321 C320 1.379 . S
C322 C291 1.383 . S
C322 C309 1.479 . S
C322 C323 1.398 . S
C323 C288 1.382 . S
C323 H300 0.951 . S
C323 C322 1.398 . S
C324 C325 1.384 . S
C324 H337 0.947 . S
C324 C359 1.382 . S
C325 C324 1.384 . S
C325 C326 1.378 . S
C326 C325 1.378 . S
C326 C327 1.378 . S
C326 H338 0.952 1_556 S
C327 C326 1.378 . S
C327 H339 0.950 . S
C327 C358 1.383 . S
H328 C347 0.947 . S
H329 C348 0.946 1_554 S
H330 C350 0.953 . S
H331 C351 0.945 . S
H332 C353 0.952 . S
H333 C354 0.949 . S
H334 C356 0.950 . S
H335 C357 0.948 . S
H336 C359 0.951 . S
H337 C324 0.947 . S
H338 C326 0.952 1_554 S
H339 C327 0.950 . S
N340 C343 1.382 . S
N340 C345 1.363 . S
N341 C343 1.371 . S
N341 C344 1.372 . S
N342 C344 1.361 . S
N342 C345 1.377 . S
C343 N340 1.382 . S
C343 N341 1.371 . S
C343 C346 1.480 . S
C344 N341 1.372 . S
C344 N342 1.361 . S
C344 C352 1.457 . S
C345 N340 1.363 . S
C345 N342 1.377 . S
C345 C358 1.479 . S
C346 C343 1.480 . S
C346 C347 1.383 . S
C346 C351 1.385 . S
C347 H328 0.947 . S
C347 C346 1.383 . S
C347 C348 1.388 . S
C348 H329 0.946 1_556 S
C348 C347 1.388 . S
C348 C349 1.384 . S
C349 C348 1.384 . S
C349 C350 1.377 . S
C350 H330 0.953 . S
C350 C349 1.377 . S
C350 C351 1.369 . S
C351 H331 0.945 . S
C351 C346 1.385 . S
C351 C350 1.369 . S
C352 C344 1.457 . S
C352 C353 1.372 . S
C352 C357 1.364 . S
C353 H332 0.952 . S
C353 C352 1.372 . S
C353 C354 1.389 . S
C354 H333 0.949 . S
C354 C353 1.389 . S
C354 C355 1.387 . S
C355 C354 1.387 . S
C355 C356 1.372 . S
C356 H334 0.950 . S
C356 C355 1.372 . S
C356 C357 1.379 . S
C357 H335 0.948 . S
C357 C352 1.364 . S
C357 C356 1.379 . S
C358 C327 1.383 . S
C358 C345 1.479 . S
C358 C359 1.398 . S
C359 C324 1.382 . S
C359 H336 0.951 . S
C359 C358 1.398 . S
C360 C361 1.384 . S
C360 H373 0.947 . S
C360 C395 1.382 . S
C361 C360 1.384 . S
C361 C362 1.385 . S
C362 C361 1.385 . S
C362 C363 1.383 . S
C362 H374 0.941 1_556 S
C363 C362 1.383 . S
C363 H375 0.950 . S
C363 C394 1.383 . S
H364 C383 0.947 . S
H365 C384 0.946 1_554 S
H366 C386 0.953 . S
H367 C387 0.945 . S
H368 C389 0.952 . S
H369 C390 0.949 . S
H370 C392 0.950 . S
H371 C393 0.948 . S
H372 C395 0.951 . S
H373 C360 0.947 . S
H374 C362 0.941 1_554 S
H375 C363 0.950 . S
N376 C379 1.382 . S
N376 C381 1.363 . S
N377 C379 1.371 . S
N377 C380 1.372 . S
N378 C380 1.361 . S
N378 C381 1.377 . S
C379 N376 1.382 . S
C379 N377 1.371 . S
C379 C382 1.480 . S
C380 N377 1.372 . S
C380 N378 1.361 . S
C380 C388 1.457 . S
C381 N376 1.363 . S
C381 N378 1.377 . S
C381 C394 1.479 . S
C382 C379 1.480 . S
C382 C383 1.383 . S
C382 C387 1.385 . S
C383 H364 0.947 . S
C383 C382 1.383 . S
C383 C384 1.388 . S
C384 H365 0.946 1_556 S
C384 C383 1.388 . S
C384 C385 1.384 . S
C385 C384 1.384 . S
C385 C386 1.377 . S
C386 H366 0.953 . S
C386 C385 1.377 . S
C386 C387 1.369 . S
C387 H367 0.945 . S
C387 C382 1.385 . S
C387 C386 1.369 . S
C388 C380 1.457 . S
C388 C389 1.372 . S
C388 C393 1.364 . S
C389 H368 0.952 . S
C389 C388 1.372 . S
C389 C390 1.389 . S
C390 H369 0.949 . S
C390 C389 1.389 . S
C390 C391 1.387 . S
C391 C390 1.387 . S
C391 C392 1.372 . S
C392 H370 0.950 . S
C392 C391 1.372 . S
C392 C393 1.379 . S
C393 H371 0.948 . S
C393 C388 1.364 . S
C393 C392 1.379 . S
C394 C363 1.383 . S
C394 C381 1.479 . S
C394 C395 1.398 . S
C395 C360 1.382 . S
C395 H372 0.951 . S
C395 C394 1.398 . S
C396 C397 1.384 . S
C396 H409 0.947 . S
C396 C431 1.382 . S
C397 C396 1.384 . S
C397 C398 1.378 . S
C398 C397 1.378 . S
C398 C399 1.378 . S
C398 H410 0.952 1_556 S
C399 C398 1.378 . S
C399 H411 0.950 . S
C399 C430 1.383 . S
H400 C419 0.947 . S
H401 C420 0.946 1_554 S
H402 C422 0.953 . S
H403 C423 0.945 . S
H404 C425 0.952 . S
H405 C426 0.949 . S
H406 C428 0.950 . S
H407 C429 0.948 . S
H408 C431 0.951 . S
H409 C396 0.947 . S
H410 C398 0.952 1_554 S
H411 C399 0.950 . S
N412 C415 1.382 . S
N412 C417 1.363 . S
N413 C415 1.371 . S
N413 C416 1.372 . S
N414 C416 1.361 . S
N414 C417 1.377 . S
C415 N412 1.382 . S
C415 N413 1.371 . S
C415 C418 1.480 . S
C416 N413 1.372 . S
C416 N414 1.361 . S
C416 C424 1.457 . S
C417 N412 1.363 . S
C417 N414 1.377 . S
C417 C430 1.479 . S
C418 C415 1.480 . S
C418 C419 1.383 . S
C418 C423 1.385 . S
C419 H400 0.947 . S
C419 C418 1.383 . S
C419 C420 1.388 . S
C420 H401 0.946 1_556 S
C420 C419 1.388 . S
C420 C421 1.384 . S
C421 C420 1.384 . S
C421 C422 1.377 . S
C422 H402 0.953 . S
C422 C421 1.377 . S
C422 C423 1.369 . S
C423 H403 0.945 . S
C423 C418 1.385 . S
C423 C422 1.369 . S
C424 C416 1.457 . S
C424 C425 1.372 . S
C424 C429 1.364 . S
C425 H404 0.952 . S
C425 C424 1.372 . S
C425 C426 1.389 . S
C426 H405 0.949 . S
C426 C425 1.389 . S
C426 C427 1.387 . S
C427 C426 1.387 . S
C427 C428 1.372 . S
C428 H406 0.950 . S
C428 C427 1.372 . S
C428 C429 1.379 . S
C429 H407 0.948 . S
C429 C424 1.364 . S
C429 C428 1.379 . S
C430 C399 1.383 . S
C430 C417 1.479 . S
C430 C431 1.398 . S
C431 C396 1.382 . S
C431 H408 0.951 . S
C431 C430 1.398 . S
C432 C433 1.384 . S
C432 H445 0.947 . S
C432 C467 1.382 . S
C433 C432 1.384 . S
C433 C434 1.378 . S
C434 C433 1.378 . S
C434 C435 1.378 . S
C434 H446 0.952 1_554 S
C435 C434 1.378 . S
C435 H447 0.950 . S
C435 C466 1.383 . S
H436 C455 0.947 . S
H437 C456 0.946 1_556 S
H438 C458 0.953 . S
H439 C459 0.945 . S
H440 C461 0.952 . S
H441 C462 0.949 . S
H442 C464 0.950 . S
H443 C465 0.948 . S
H444 C467 0.951 . S
H445 C432 0.947 . S
H446 C434 0.952 1_556 S
H447 C435 0.950 . S
N448 C451 1.382 . S
N448 C453 1.363 . S
N449 C451 1.371 . S
N449 C452 1.372 . S
N450 C452 1.361 . S
N450 C453 1.377 . S
C451 N448 1.382 . S
C451 N449 1.371 . S
C451 C454 1.480 . S
C452 N449 1.372 . S
C452 N450 1.361 . S
C452 C460 1.457 . S
C453 N448 1.363 . S
C453 N450 1.377 . S
C453 C466 1.479 . S
C454 C451 1.480 . S
C454 C455 1.383 . S
C454 C459 1.385 . S
C455 H436 0.947 . S
C455 C454 1.383 . S
C455 C456 1.388 . S
C456 H437 0.946 1_554 S
C456 C455 1.388 . S
C456 C457 1.384 . S
C457 C456 1.384 . S
C457 C458 1.377 . S
C458 H438 0.953 . S
C458 C457 1.377 . S
C458 C459 1.369 . S
C459 H439 0.945 . S
C459 C454 1.385 . S
C459 C458 1.369 . S
C460 C452 1.457 . S
C460 C461 1.372 . S
C460 C465 1.364 . S
C461 H440 0.952 . S
C461 C460 1.372 . S
C461 C462 1.389 . S
C462 H441 0.949 . S
C462 C461 1.389 . S
C462 C463 1.387 . S
C463 C462 1.387 . S
C463 C464 1.372 . S
C464 H442 0.950 . S
C464 C463 1.372 . S
C464 C465 1.379 . S
C465 H443 0.948 . S
C465 C460 1.364 . S
C465 C464 1.379 . S
C466 C435 1.383 . S
C466 C453 1.479 . S
C466 C467 1.398 . S
C467 C432 1.382 . S
C467 H444 0.951 . S
C467 C466 1.398 . S
C468 C469 1.384 . S
C468 H481 0.947 . S
C468 C503 1.382 . S
C469 C468 1.384 . S
C469 C470 1.378 . S
C470 C469 1.378 . S
C470 C471 1.378 . S
C470 H482 0.952 1_554 S
C471 C470 1.378 . S
C471 H483 0.950 . S
C471 C502 1.383 . S
H472 C491 0.947 . S
H473 C492 0.946 1_556 S
H474 C494 0.953 . S
H475 C495 0.945 . S
H476 C497 0.952 . S
H477 C498 0.949 . S
H478 C500 0.950 . S
H479 C501 0.948 . S
H480 C503 0.951 . S
H481 C468 0.947 . S
H482 C470 0.952 1_556 S
H483 C471 0.950 . S
N484 C487 1.382 . S
N484 C489 1.363 . S
N485 C487 1.371 . S
N485 C488 1.372 . S
N486 C488 1.361 . S
N486 C489 1.377 . S
C487 N484 1.382 . S
C487 N485 1.371 . S
C487 C490 1.480 . S
C488 N485 1.372 . S
C488 N486 1.361 . S
C488 C496 1.457 . S
C489 N484 1.363 . S
C489 N486 1.377 . S
C489 C502 1.479 . S
C490 C487 1.480 . S
C490 C491 1.383 . S
C490 C495 1.385 . S
C491 H472 0.947 . S
C491 C490 1.383 . S
C491 C492 1.388 . S
C492 H473 0.946 1_554 S
C492 C491 1.388 . S
C492 C493 1.384 . S
C493 C492 1.384 . S
C493 C494 1.377 . S
C494 H474 0.953 . S
C494 C493 1.377 . S
C494 C495 1.369 . S
C495 H475 0.945 . S
C495 C490 1.385 . S
C495 C494 1.369 . S
C496 C488 1.457 . S
C496 C497 1.372 . S
C496 C501 1.364 . S
C497 H476 0.952 . S
C497 C496 1.372 . S
C497 C498 1.389 . S
C498 H477 0.949 . S
C498 C497 1.389 . S
C498 C499 1.387 . S
C499 C498 1.387 . S
C499 C500 1.372 . S
C500 H478 0.950 . S
C500 C499 1.372 . S
C500 C501 1.379 . S
C501 H479 0.948 . S
C501 C496 1.364 . S
C501 C500 1.379 . S
C502 C471 1.383 . S
C502 C489 1.479 . S
C502 C503 1.398 . S
C503 C468 1.382 . S
C503 H480 0.951 . S
C503 C502 1.398 . S
C504 C505 1.384 . S
C504 H517 0.947 . S
C504 C539 1.382 . S
C505 C504 1.384 . S
C505 C506 1.378 . S
C506 C505 1.378 . S
C506 C507 1.378 . S
C506 H518 0.952 1_554 S
C507 C506 1.378 . S
C507 H519 0.950 . S
C507 C538 1.383 . S
H508 C527 0.947 . S
H509 C528 0.946 . S
H510 C530 0.953 . S
H511 C531 0.945 . S
H512 C533 0.952 . S
H513 C534 0.949 . S
H514 C536 0.950 . S
H515 C537 0.948 . S
H516 C539 0.951 . S
H517 C504 0.947 . S
H518 C506 0.952 1_556 S
H519 C507 0.950 . S
N520 C523 1.382 . S
N520 C525 1.363 . S
N521 C523 1.371 . S
N521 C524 1.372 . S
N522 C524 1.361 . S
N522 C525 1.377 . S
C523 N520 1.382 . S
C523 N521 1.371 . S
C523 C526 1.480 . S
C524 N521 1.372 . S
C524 N522 1.361 . S
C524 C532 1.457 . S
C525 N520 1.363 . S
C525 N522 1.377 . S
C525 C538 1.479 . S
C526 C523 1.480 . S
C526 C527 1.383 . S
C526 C531 1.385 . S
C527 H508 0.947 . S
C527 C526 1.383 . S
C527 C528 1.388 . S
C528 H509 0.946 . S
C528 C527 1.388 . S
C528 C529 1.384 . S
C529 C528 1.384 . S
C529 C530 1.377 . S
C530 H510 0.953 . S
C530 C529 1.377 . S
C530 C531 1.369 . S
C531 H511 0.945 . S
C531 C526 1.385 . S
C531 C530 1.369 . S
C532 C524 1.457 . S
C532 C533 1.372 . S
C532 C537 1.364 . S
C533 H512 0.952 . S
C533 C532 1.372 . S
C533 C534 1.389 . S
C534 H513 0.949 . S
C534 C533 1.389 . S
C534 C535 1.387 . S
C535 C534 1.387 . S
C535 C536 1.372 . S
C536 H514 0.950 . S
C536 C535 1.372 . S
C536 C537 1.379 . S
C537 H515 0.948 . S
C537 C532 1.364 . S
C537 C536 1.379 . S
C538 C507 1.383 . S
C538 C525 1.479 . S
C538 C539 1.398 . S
C539 C504 1.382 . S
C539 H516 0.951 . S
C539 C538 1.398 . S
C540 C541 1.384 . S
C540 H553 0.947 . S
C540 C575 1.382 . S
C541 C540 1.384 . S
C541 C542 1.378 . S
C542 C541 1.378 . S
C542 C543 1.378 . S
C542 H554 0.952 . S
C543 C542 1.378 . S
C543 H555 0.950 . S
C543 C574 1.383 . S
H544 C563 0.947 . S
H545 C564 0.946 . S
H546 C566 0.953 . S
H547 C567 0.945 . S
H548 C569 0.952 . S
H549 C570 0.949 . S
H550 C572 0.950 . S
H551 C573 0.948 . S
H552 C575 0.951 . S
H553 C540 0.947 . S
H554 C542 0.952 . S
H555 C543 0.950 . S
N556 C559 1.382 . S
N556 C561 1.363 . S
N557 C559 1.371 . S
N557 C560 1.372 . S
N558 C560 1.361 . S
N558 C561 1.377 . S
C559 N556 1.382 . S
C559 N557 1.371 . S
C559 C562 1.480 . S
C560 N557 1.372 . S
C560 N558 1.361 . S
C560 C568 1.457 . S
C561 N556 1.363 . S
C561 N558 1.377 . S
C561 C574 1.479 . S
C562 C559 1.480 . S
C562 C563 1.383 . S
C562 C567 1.385 . S
C563 H544 0.947 . S
C563 C562 1.383 . S
C563 C564 1.388 . S
C564 H545 0.946 . S
C564 C563 1.388 . S
C564 C565 1.384 . S
C565 C564 1.384 . S
C565 C566 1.377 . S
C566 H546 0.953 . S
C566 C565 1.377 . S
C566 C567 1.369 . S
C567 H547 0.945 . S
C567 C562 1.385 . S
C567 C566 1.369 . S
C568 C560 1.457 . S
C568 C569 1.372 . S
C568 C573 1.364 . S
C569 H548 0.952 . S
C569 C568 1.372 . S
C569 C570 1.389 . S
C570 H549 0.949 . S
C570 C569 1.389 . S
C570 C571 1.387 . S
C571 C570 1.387 . S
C571 C572 1.372 . S
C572 H550 0.950 . S
C572 C571 1.372 . S
C572 C573 1.379 . S
C573 H551 0.948 . S
C573 C568 1.364 . S
C573 C572 1.379 . S
C574 C543 1.383 . S
C574 C561 1.479 . S
C574 C575 1.398 . S
C575 C540 1.382 . S
C575 H552 0.951 . S
C575 C574 1.398 . S
C576 C577 1.384 . S
C576 H589 0.947 . S
C576 C611 1.382 . S
C577 C576 1.384 . S
C577 C578 1.378 . S
C578 C577 1.378 . S
C578 C579 1.378 . S
C578 H590 0.952 . S
C579 C578 1.378 . S
C579 H591 0.950 . S
C579 C610 1.383 . S
H580 C599 0.947 . S
H581 C600 0.946 . S
H582 C602 0.953 . S
H583 C603 0.945 . S
H584 C605 0.952 . S
H585 C606 0.949 . S
H586 C608 0.950 . S
H587 C609 0.948 . S
H588 C611 0.951 . S
H589 C576 0.947 . S
H590 C578 0.952 . S
H591 C579 0.950 . S
N592 C595 1.382 . S
N592 C597 1.363 . S
N593 C595 1.371 . S
N593 C596 1.372 . S
N594 C596 1.361 . S
N594 C597 1.377 . S
C595 N592 1.382 . S
C595 N593 1.371 . S
C595 C598 1.480 . S
C596 N593 1.372 . S
C596 N594 1.361 . S
C596 C604 1.457 . S
C597 N592 1.363 . S
C597 N594 1.377 . S
C597 C610 1.479 . S
C598 C595 1.480 . S
C598 C599 1.383 . S
C598 C603 1.385 . S
C599 H580 0.947 . S
C599 C598 1.383 . S
C599 C600 1.388 . S
C600 H581 0.946 . S
C600 C599 1.388 . S
C600 C601 1.384 . S
C601 C600 1.384 . S
C601 C602 1.377 . S
C602 H582 0.953 . S
C602 C601 1.377 . S
C602 C603 1.369 . S
C603 H583 0.945 . S
C603 C598 1.385 . S
C603 C602 1.369 . S
C604 C596 1.457 . S
C604 C605 1.372 . S
C604 C609 1.364 . S
C605 H584 0.952 . S
C605 C604 1.372 . S
C605 C606 1.389 . S
C606 H585 0.949 . S
C606 C605 1.389 . S
C606 C607 1.387 . S
C607 C606 1.387 . S
C607 C608 1.372 . S
C608 H586 0.950 . S
C608 C607 1.372 . S
C608 C609 1.379 . S
C609 H587 0.948 . S
C609 C604 1.364 . S
C609 C608 1.379 . S
C610 C579 1.383 . S
C610 C597 1.479 . S
C610 C611 1.398 . S
C611 C576 1.382 . S
C611 H588 0.951 . S
C611 C610 1.398 . S
C612 C613 1.384 . S
C612 H625 0.947 . S
C612 C647 1.382 . S
C613 C612 1.384 . S
C613 C614 1.378 . S
C614 C613 1.378 . S
C614 C615 1.378 . S
C614 H626 0.952 . S
C615 C614 1.378 . S
C615 H627 0.950 . S
C615 C646 1.383 . S
H616 C635 0.947 . S
H617 C636 0.946 . S
H618 C638 0.953 . S
H619 C639 0.945 . S
H620 C641 0.952 . S
H621 C642 0.949 . S
H622 C644 0.950 . S
H623 C645 0.948 . S
H624 C647 0.951 . S
H625 C612 0.947 . S
H626 C614 0.952 . S
H627 C615 0.950 . S
N628 C631 1.382 . S
N628 C633 1.363 . S
N629 C631 1.371 . S
N629 C632 1.372 . S
N630 C632 1.361 . S
N630 C633 1.377 . S
C631 N628 1.382 . S
C631 N629 1.371 . S
C631 C634 1.480 . S
C632 N629 1.372 . S
C632 N630 1.361 . S
C632 C640 1.457 . S
C633 N628 1.363 . S
C633 N630 1.377 . S
C633 C646 1.479 . S
C634 C631 1.480 . S
C634 C635 1.383 . S
C634 C639 1.385 . S
C635 H616 0.947 . S
C635 C634 1.383 . S
C635 C636 1.388 . S
C636 H617 0.946 . S
C636 C635 1.388 . S
C636 C637 1.384 . S
C637 C636 1.384 . S
C637 C638 1.377 . S
C638 H618 0.953 . S
C638 C637 1.377 . S
C638 C639 1.369 . S
C639 H619 0.945 . S
C639 C634 1.385 . S
C639 C638 1.369 . S
C640 C632 1.457 . S
C640 C641 1.372 . S
C640 C645 1.364 . S
C641 H620 0.952 . S
C641 C640 1.372 . S
C641 C642 1.389 . S
C642 H621 0.949 . S
C642 C641 1.389 . S
C642 C643 1.387 . S
C643 C642 1.387 . S
C643 C644 1.372 . S
C644 H622 0.950 . S
C644 C643 1.372 . S
C644 C645 1.379 . S
C645 H623 0.948 . S
C645 C640 1.364 . S
C645 C644 1.379 . S
C646 C615 1.383 . S
C646 C633 1.479 . S
C646 C647 1.398 . S
C647 C612 1.382 . S
C647 H624 0.951 . S
C647 C646 1.398 . S
O648 Mg649 1.990 . S
O648 C662 1.248 1_565 S
Mg649 O648 1.990 . S
Mg649 O652 2.180 1_556 S
Mg649 O653 2.117 . S
Mg649 O667 2.030 1_565 S
O650 Mg651 2.072 1_556 S
O650 C662 1.263 . S
Mg651 O650 2.072 1_554 S
Mg651 O652 2.099 1_545 S
Mg651 O654 2.079 . S
Mg651 O655 2.072 1_545 S
Mg651 O657 2.099 . S
Mg651 O668 2.079 . S
O652 Mg649 2.180 1_554 S
O652 Mg651 2.099 1_565 S
O652 C663 1.279 . S
O653 Mg649 2.117 . S
O653 C663 1.251 1_556 S
O654 Mg651 2.079 . S
O654 C664 1.264 . S
O655 Mg651 2.072 1_565 S
O655 C665 1.260 . S
Mg656 O657 2.180 . S
Mg656 O658 2.035 . S
Mg656 O659 1.990 1_545 S
Mg656 O660 2.117 . S
O657 Mg651 2.099 . S
O657 Mg656 2.180 . S
O657 C666 1.290 . S
O658 Mg656 2.035 . S
O658 C664 1.244 . S
O659 Mg656 1.990 1_565 S
O659 C665 1.253 . S
O660 Mg656 2.117 . S
O660 C666 1.257 . S
C661 O667 1.248 . S
C661 O668 1.264 1_556 S
C662 O648 1.248 1_545 S
C662 O650 1.263 . S
C663 O652 1.279 . S
C663 O653 1.251 1_554 S
C664 O654 1.264 . S
C664 O658 1.244 . S
C665 O655 1.260 . S
C665 O659 1.253 . S
C666 O657 1.290 . S
C666 O660 1.257 . S
O667 Mg649 2.030 1_545 S
O667 C661 1.248 . S
O668 Mg651 2.079 . S
O668 C661 1.264 1_554 S
O669 Mg670 1.990 . S
O669 C683 1.253 . S
Mg670 O669 1.990 . S
Mg670 O673 2.180 1_556 S
Mg670 O674 2.117 . S
Mg670 O688 2.030 1_455 S
O671 Mg672 2.072 1_556 S
O671 C683 1.260 1_655 S
Mg672 O671 2.072 1_554 S
Mg672 O673 2.097 1_655 S
Mg672 O675 2.080 . S
Mg672 O676 2.052 1_655 S
Mg672 O678 2.101 . S
Mg672 O689 2.099 . S
O673 Mg670 2.180 1_554 S
O673 Mg672 2.097 1_455 S
O673 C684 1.284 . S
O674 Mg670 2.117 . S
O674 C684 1.225 1_556 S
O675 Mg672 2.080 . S
O675 C685 1.264 1_655 S
O676 Mg672 2.052 1_455 S
O676 C686 1.260 . S
Mg677 O678 2.180 . S
Mg677 O679 2.030 1_655 S
Mg677 O680 1.990 1_655 S
Mg677 O681 2.117 . S
O678 Mg672 2.101 . S
O678 Mg677 2.180 . S
O678 C687 1.281 1_554 S
O679 Mg677 2.030 1_455 S
O679 C685 1.248 . S
O680 Mg677 1.990 1_455 S
O680 C686 1.253 . S
O681 Mg677 2.117 . S
O681 C687 1.252 1_554 S
C682 O688 1.248 . S
C682 O689 1.264 1_556 S
C683 O669 1.253 . S
C683 O671 1.260 1_455 S
C684 O673 1.284 . S
C684 O674 1.225 1_554 S
C685 O675 1.264 1_455 S
C685 O679 1.248 . S
C686 O676 1.260 . S
C686 O680 1.253 . S
C687 O678 1.281 1_556 S
C687 O681 1.252 1_556 S
O688 Mg670 2.030 1_655 S
O688 C682 1.248 . S
O689 Mg672 2.099 . S
O689 C682 1.264 1_554 S
O690 Mg691 1.990 . S
O690 C704 1.253 . S
Mg691 O690 1.990 . S
Mg691 O694 2.180 . S
Mg691 O695 2.117 . S
Mg691 O709 2.030 . S
O692 Mg693 2.053 1_554 S
O692 C704 1.260 . S
Mg693 O692 2.053 1_556 S
Mg693 O694 2.097 1_556 S
Mg693 O696 2.099 . S
Mg693 O697 2.074 . S
Mg693 O699 2.101 . S
Mg693 O710 2.077 1_556 S
O694 Mg691 2.180 . S
O694 Mg693 2.097 1_554 S
O694 C705 1.279 . S
O695 Mg691 2.117 . S
O695 C705 1.250 . S
O696 Mg693 2.099 . S
O696 C706 1.264 . S
O697 Mg693 2.074 . S
O697 C707 1.260 . S
Mg698 O699 2.180 . S
Mg698 O700 2.030 . S
Mg698 O701 1.990 . S
Mg698 O702 2.138 . S
O699 Mg693 2.101 . S
O699 Mg698 2.180 . S
O699 C708 1.279 1_556 S
O700 Mg698 2.030 . S
O700 C706 1.248 . S
O701 Mg698 1.990 . S
O701 C707 1.253 . S
O702 Mg698 2.138 . S
O702 C708 1.243 1_556 S
C703 O709 1.248 . S
C703 O710 1.291 . S
C704 O690 1.253 . S
C704 O692 1.260 . S
C705 O694 1.279 . S
C705 O695 1.250 . S
C706 O696 1.264 . S
C706 O700 1.248 . S
C707 O697 1.260 . S
C707 O701 1.253 . S
C708 O699 1.279 1_554 S
C708 O702 1.243 1_554 S
O709 Mg691 2.030 . S
O709 C703 1.248 . S
O710 Mg693 2.077 1_554 S
O710 C703 1.291 . S
O711 Mg712 1.990 . S
O711 C725 1.253 . S
Mg712 O711 1.990 . S
Mg712 O715 2.180 . S
Mg712 O716 2.117 . S
Mg712 O730 2.030 . S
O713 Mg714 2.072 . S
O713 C725 1.260 . S
Mg714 O713 2.072 . S
Mg714 O715 2.099 . S
Mg714 O717 2.079 . S
Mg714 O718 2.072 . S
Mg714 O720 2.099 . S
Mg714 O731 2.079 . S
O715 Mg712 2.180 . S
O715 Mg714 2.099 . S
O715 C726 1.279 . S
O716 Mg712 2.117 . S
O716 C726 1.250 . S
O717 Mg714 2.079 . S
O717 C727 1.264 . S
O718 Mg714 2.072 . S
O718 C728 1.260 . S
Mg719 O720 2.180 . S
Mg719 O721 2.030 . S
Mg719 O722 1.990 . S
Mg719 O723 2.117 . S
O720 Mg714 2.099 . S
O720 Mg719 2.180 . S
O720 C729 1.279 . S
O721 Mg719 2.030 . S
O721 C727 1.248 . S
O722 Mg719 1.990 . S
O722 C728 1.253 . S
O723 Mg719 2.117 . S
O723 C729 1.250 . S
C724 O730 1.248 . S
C724 O731 1.264 . S
C725 O711 1.253 . S
C725 O713 1.260 . S
C726 O715 1.279 . S
C726 O716 1.250 . S
C727 O717 1.264 . S
C727 O721 1.248 . S
C728 O718 1.260 . S
C728 O722 1.253 . S
C729 O720 1.279 . S
C729 O723 1.250 . S
O730 Mg712 2.030 . S
O730 C724 1.248 . S
O731 Mg714 2.079 . S
O731 C724 1.264 . S
O732 Mg733 1.990 . S
O732 C746 1.253 . S
Mg733 O732 1.990 . S
Mg733 O736 2.180 . S
Mg733 O737 2.117 . S
Mg733 O751 2.030 . S
O734 Mg735 2.072 . S
O734 C746 1.260 . S
Mg735 O734 2.072 . S
Mg735 O736 2.099 . S
Mg735 O738 2.079 . S
Mg735 O739 2.072 . S
Mg735 O741 2.099 . S
Mg735 O752 2.079 . S
O736 Mg733 2.180 . S
O736 Mg735 2.099 . S
O736 C747 1.279 . S
O737 Mg733 2.117 . S
O737 C747 1.250 . S
O738 Mg735 2.079 . S
O738 C748 1.264 . S
O739 Mg735 2.072 . S
O739 C749 1.260 . S
Mg740 O741 2.180 . S
Mg740 O742 2.030 . S
Mg740 O743 1.990 . S
Mg740 O744 2.117 . S
O741 Mg735 2.099 . S
O741 Mg740 2.180 . S
O741 C750 1.279 . S
O742 Mg740 2.030 . S
O742 C748 1.248 . S
O743 Mg740 1.990 . S
O743 C749 1.253 . S
O744 Mg740 2.117 . S
O744 C750 1.250 . S
C745 O751 1.248 . S
C745 O752 1.264 . S
C746 O732 1.253 . S
C746 O734 1.260 . S
C747 O736 1.279 . S
C747 O737 1.250 . S
C748 O738 1.264 . S
C748 O742 1.248 . S
C749 O739 1.260 . S
C749 O743 1.253 . S
C750 O741 1.279 . S
C750 O744 1.250 . S
O751 Mg733 2.030 . S
O751 C745 1.248 . S
O752 Mg735 2.079 . S
O752 C745 1.264 . S
O753 Mg754 1.990 . S
O753 C767 1.253 . S
Mg754 O753 1.990 . S
Mg754 O757 2.180 . S
Mg754 O758 2.117 . S
Mg754 O772 2.030 . S
O755 Mg756 2.072 . S
O755 C767 1.260 . S
Mg756 O755 2.072 . S
Mg756 O757 2.099 . S
Mg756 O759 2.079 . S
Mg756 O760 2.072 . S
Mg756 O762 2.099 . S
Mg756 O773 2.079 . S
O757 Mg754 2.180 . S
O757 Mg756 2.099 . S
O757 C768 1.279 . S
O758 Mg754 2.117 . S
O758 C768 1.250 . S
O759 Mg756 2.079 . S
O759 C769 1.264 . S
O760 Mg756 2.072 . S
O760 C770 1.260 . S
Mg761 O762 2.180 . S
Mg761 O763 2.030 . S
Mg761 O764 1.990 . S
Mg761 O765 2.117 . S
O762 Mg756 2.099 . S
O762 Mg761 2.180 . S
O762 C771 1.279 . S
O763 Mg761 2.030 . S
O763 C769 1.248 . S
O764 Mg761 1.990 . S
O764 C770 1.253 . S
O765 Mg761 2.117 . S
O765 C771 1.250 . S
C766 O772 1.248 . S
C766 O773 1.264 . S
C767 O753 1.253 . S
C767 O755 1.260 . S
C768 O757 1.279 . S
C768 O758 1.250 . S
C769 O759 1.264 . S
C769 O763 1.248 . S
C770 O760 1.260 . S
C770 O764 1.253 . S
C771 O762 1.279 . S
C771 O765 1.250 . S
O772 Mg754 2.030 . S
O772 C766 1.248 . S
O773 Mg756 2.079 . S
O773 C766 1.264 . S
O774 Mg775 1.990 . S
O774 C788 1.253 . S
Mg775 O774 1.990 . S
Mg775 O778 2.180 . S
Mg775 O779 2.117 . S
Mg775 O793 2.030 . S
O776 Mg777 2.072 . S
O776 C788 1.260 . S
Mg777 O776 2.072 . S
Mg777 O778 2.099 . S
Mg777 O780 2.079 . S
Mg777 O781 2.072 . S
Mg777 O783 2.099 . S
Mg777 O794 2.079 . S
O778 Mg775 2.180 . S
O778 Mg777 2.099 . S
O778 C789 1.279 . S
O779 Mg775 2.117 . S
O779 C789 1.250 . S
O780 Mg777 2.079 . S
O780 C790 1.264 . S
O781 Mg777 2.072 . S
O781 C791 1.260 . S
Mg782 O783 2.180 . S
Mg782 O784 2.030 . S
Mg782 O785 1.990 . S
Mg782 O786 2.117 . S
O783 Mg777 2.099 . S
O783 Mg782 2.180 . S
O783 C792 1.279 . S
O784 Mg782 2.030 . S
O784 C790 1.248 . S
O785 Mg782 1.990 . S
O785 C791 1.253 . S
O786 Mg782 2.117 . S
O786 C792 1.250 . S
C787 O793 1.248 . S
C787 O794 1.264 . S
C788 O774 1.253 . S
C788 O776 1.260 . S
C789 O778 1.279 . S
C789 O779 1.250 . S
C790 O780 1.264 . S
C790 O784 1.248 . S
C791 O781 1.260 . S
C791 O785 1.253 . S
C792 O783 1.279 . S
C792 O786 1.250 . S
O793 Mg775 2.030 . S
O793 C787 1.248 . S
O794 Mg777 2.079 . S
O794 C787 1.264 . S
O795 Mg796 1.990 . S
O795 C809 1.253 . S
Mg796 O795 1.990 . S
Mg796 O799 2.180 . S
Mg796 O800 2.117 . S
Mg796 O814 2.030 . S
O797 Mg798 2.072 . S
O797 C809 1.260 . S
Mg798 O797 2.072 . S
Mg798 O799 2.099 . S
Mg798 O801 2.079 . S
Mg798 O802 2.072 . S
Mg798 O804 2.099 . S
Mg798 O815 2.079 . S
O799 Mg796 2.180 . S
O799 Mg798 2.099 . S
O799 C810 1.279 . S
O800 Mg796 2.117 . S
O800 C810 1.250 . S
O801 Mg798 2.079 . S
O801 C811 1.264 . S
O802 Mg798 2.072 . S
O802 C812 1.260 . S
Mg803 O804 2.180 . S
Mg803 O805 2.030 . S
Mg803 O806 1.990 . S
Mg803 O807 2.117 . S
O804 Mg798 2.099 . S
O804 Mg803 2.180 . S
O804 C813 1.279 . S
O805 Mg803 2.030 . S
O805 C811 1.248 . S
O806 Mg803 1.990 . S
O806 C812 1.253 . S
O807 Mg803 2.117 . S
O807 C813 1.250 . S
C808 O814 1.248 . S
C808 O815 1.264 . S
C809 O795 1.253 . S
C809 O797 1.260 . S
C810 O799 1.279 . S
C810 O800 1.250 . S
C811 O801 1.264 . S
C811 O805 1.248 . S
C812 O802 1.260 . S
C812 O806 1.253 . S
C813 O804 1.279 . S
C813 O807 1.250 . S
O814 Mg796 2.030 . S
O814 C808 1.248 . S
O815 Mg798 2.079 . S
O815 C808 1.264 . S
O816 Mg817 1.990 . S
O816 C830 1.253 . S
Mg817 O816 1.990 . S
Mg817 O820 2.180 . S
Mg817 O821 2.117 . S
Mg817 O835 2.030 . S
O818 Mg819 2.072 . S
O818 C830 1.260 . S
Mg819 O818 2.072 . S
Mg819 O820 2.099 . S
Mg819 O822 2.079 . S
Mg819 O823 2.072 . S
Mg819 O825 2.099 . S
Mg819 O836 2.079 . S
O820 Mg817 2.180 . S
O820 Mg819 2.099 . S
O820 C831 1.279 . S
O821 Mg817 2.117 . S
O821 C831 1.250 . S
O822 Mg819 2.079 . S
O822 C832 1.264 . S
O823 Mg819 2.072 . S
O823 C833 1.260 . S
Mg824 O825 2.180 . S
Mg824 O826 2.030 . S
Mg824 O827 1.990 . S
Mg824 O828 2.117 . S
O825 Mg819 2.099 . S
O825 Mg824 2.180 . S
O825 C834 1.279 . S
O826 Mg824 2.030 . S
O826 C832 1.248 . S
O827 Mg824 1.990 . S
O827 C833 1.253 . S
O828 Mg824 2.117 . S
O828 C834 1.250 . S
C829 O835 1.248 . S
C829 O836 1.264 . S
C830 O816 1.253 . S
C830 O818 1.260 . S
C831 O820 1.279 . S
C831 O821 1.250 . S
C832 O822 1.264 . S
C832 O826 1.248 . S
C833 O823 1.260 . S
C833 O827 1.253 . S
C834 O825 1.279 . S
C834 O828 1.250 . S
O835 Mg817 2.030 . S
O835 C829 1.248 . S
O836 Mg819 2.079 . S
O836 C829 1.264 . S
C837 C838 1.369 . S
C837 C839 1.419 . S
C837 H841 0.930 . S
C838 C837 1.369 . S
C838 C847 1.429 1_554 S
C839 C837 1.419 . S
C839 C840 1.363 . S
C839 H842 0.929 . S
C840 C839 1.363 . S
C840 C846 1.428 1_554 S
H841 C837 0.930 . S
H842 C839 0.929 . S
S843 N844 1.613 . S
S843 N845 1.610 . S
N844 S843 1.613 . S
N844 C847 1.350 . S
N845 S843 1.610 . S
N845 C846 1.351 . S
C846 C840 1.428 1_556 S
C846 N845 1.351 . S
C846 C847 1.434 . S
C847 C838 1.429 1_556 S
C847 N844 1.350 . S
C847 C846 1.434 . S
C848 C849 1.369 . S
C848 C850 1.419 . S
C848 H852 0.930 . S
C849 C848 1.369 . S
C849 C858 1.429 . S
C850 C848 1.419 . S
C850 C851 1.363 . S
C850 H853 0.929 . S
C851 C850 1.363 . S
C851 C857 1.428 . S
H852 C848 0.930 . S
H853 C850 0.929 . S
S854 N855 1.613 . S
S854 N856 1.610 . S
N855 S854 1.613 . S
N855 C858 1.350 . S
N856 S854 1.610 . S
N856 C857 1.351 . S
C857 C851 1.428 . S
C857 N856 1.351 . S
C857 C858 1.434 . S
C858 C849 1.429 . S
C858 N855 1.350 . S
C858 C857 1.434 . S
C859 C860 1.369 . S
C859 C861 1.419 . S
C859 H863 0.930 . S
C860 C859 1.369 . S
C860 C869 1.429 1_554 S
C861 C859 1.419 . S
C861 C862 1.363 . S
C861 H864 0.929 . S
C862 C861 1.363 . S
C862 C868 1.428 1_554 S
H863 C859 0.930 . S
H864 C861 0.929 . S
S865 N866 1.613 . S
S865 N867 1.610 . S
N866 S865 1.613 . S
N866 C869 1.350 . S
N867 S865 1.610 . S
N867 C868 1.351 . S
C868 C862 1.428 1_556 S
C868 N867 1.351 . S
C868 C869 1.434 . S
C869 C860 1.429 1_556 S
C869 N866 1.350 . S
C869 C868 1.434 . S
C870 C871 1.369 . S
C870 C872 1.419 . S
C870 H874 0.930 . S
C871 C870 1.369 . S
C871 C880 1.429 1_556 S
C872 C870 1.419 . S
C872 C873 1.363 . S
C872 H875 0.929 . S
C873 C872 1.363 . S
C873 C879 1.428 1_556 S
H874 C870 0.930 . S
H875 C872 0.929 . S
S876 N877 1.613 . S
S876 N878 1.610 . S
N877 S876 1.613 . S
N877 C880 1.350 . S
N878 S876 1.610 . S
N878 C879 1.351 . S
C879 C873 1.428 1_554 S
C879 N878 1.351 . S
C879 C880 1.434 . S
C880 C871 1.429 1_554 S
C880 N877 1.350 . S
C880 C879 1.434 . S
C881 C882 1.369 . S
C881 C883 1.419 . S
C881 H885 0.930 . S
C882 C881 1.369 . S
C882 C891 1.429 1_556 S
C883 C881 1.419 . S
C883 C884 1.363 . S
C883 H886 0.929 . S
C884 C883 1.363 . S
C884 C890 1.428 1_556 S
H885 C881 0.930 . S
H886 C883 0.929 . S
S887 N888 1.613 . S
S887 N889 1.610 . S
N888 S887 1.613 . S
N888 C891 1.350 . S
N889 S887 1.610 . S
N889 C890 1.351 . S
C890 C884 1.428 1_554 S
C890 N889 1.351 . S
C890 C891 1.434 . S
C891 C882 1.429 1_554 S
C891 N888 1.350 . S
C891 C890 1.434 . S
C892 C893 1.369 . S
C892 C894 1.419 . S
C892 H896 0.930 . S
C893 C892 1.369 . S
C893 C902 1.415 1_556 S
C894 C892 1.419 . S
C894 C895 1.363 . S
C894 H897 0.929 . S
C895 C894 1.363 . S
C895 C901 1.419 1_556 S
H896 C892 0.930 . S
H897 C894 0.929 . S
S898 N899 1.613 . S
S898 N900 1.610 . S
N899 S898 1.613 . S
N899 C902 1.364 . S
N900 S898 1.610 . S
N900 C901 1.360 . S
C901 C895 1.419 1_554 S
C901 N900 1.360 . S
C901 C902 1.434 . S
C902 C893 1.415 1_554 S
C902 N899 1.364 . S
C902 C901 1.434 . S
C903 C904 1.369 . S
C903 C905 1.419 . S
C903 H907 0.930 . S
C904 C903 1.369 . S
C904 C913 1.429 . S
C905 C903 1.419 . S
C905 C906 1.363 . S
C905 H908 0.929 . S
C906 C905 1.363 . S
C906 C912 1.428 . S
H907 C903 0.930 . S
H908 C905 0.929 . S
S909 N910 1.613 . S
S909 N911 1.610 . S
N910 S909 1.613 . S
N910 C913 1.350 . S
N911 S909 1.610 . S
N911 C912 1.351 . S
C912 C906 1.428 . S
C912 N911 1.351 . S
C912 C913 1.434 . S
C913 C904 1.429 . S
C913 N910 1.350 . S
C913 C912 1.434 . S
C914 C915 1.369 . S
C914 C916 1.419 . S
C914 H918 0.930 . S
C915 C914 1.369 . S
C915 C924 1.429 1_556 S
C916 C914 1.419 . S
C916 C917 1.363 . S
C916 H919 0.929 . S
C917 C916 1.363 . S
C917 C923 1.428 1_556 S
H918 C914 0.930 . S
H919 C916 0.929 . S
S920 N921 1.613 . S
S920 N922 1.610 . S
N921 S920 1.613 . S
N921 C924 1.350 . S
N922 S920 1.610 . S
N922 C923 1.351 . S
C923 C917 1.428 1_554 S
C923 N922 1.351 . S
C923 C924 1.434 . S
C924 C915 1.429 1_554 S
C924 N921 1.350 . S
C924 C923 1.434 . S
C925 C926 1.369 . S
C925 C927 1.419 . S
C925 H929 0.930 . S
C926 C925 1.369 . S
C926 C935 1.429 1_556 S
C927 C925 1.419 . S
C927 C928 1.363 . S
C927 H930 0.929 . S
C928 C927 1.363 . S
C928 C934 1.428 1_556 S
H929 C925 0.930 . S
H930 C927 0.929 . S
S931 N932 1.613 . S
S931 N933 1.610 . S
N932 S931 1.613 . S
N932 C935 1.350 . S
N933 S931 1.610 . S
N933 C934 1.351 . S
C934 C928 1.428 1_554 S
C934 N933 1.351 . S
C934 C935 1.434 . S
C935 C926 1.429 1_554 S
C935 N932 1.350 . S
C935 C934 1.434 . S
C936 C937 1.369 1_556 S
C936 C938 1.419 . S
C936 H940 0.930 . S
C937 C936 1.369 1_554 S
C937 C946 1.429 . S
C938 C936 1.419 . S
C938 C939 1.363 1_556 S
C938 H941 0.929 . S
C939 C938 1.363 1_554 S
C939 C945 1.428 . S
H940 C936 0.930 . S
H941 C938 0.929 . S
S942 N943 1.613 . S
S942 N944 1.610 . S
N943 S942 1.613 . S
N943 C946 1.350 . S
N944 S942 1.610 . S
N944 C945 1.351 . S
C945 C939 1.428 . S
C945 N944 1.351 . S
C945 C946 1.434 . S
C946 C937 1.429 . S
C946 N943 1.350 . S
C946 C945 1.434 . S
C947 C948 1.369 . S
C947 C949 1.419 . S
C947 H951 0.930 . S
C948 C947 1.369 . S
C948 C957 1.429 . S
C949 C947 1.419 . S
C949 C950 1.363 . S
C949 H952 0.929 . S
C950 C949 1.363 . S
C950 C956 1.428 . S
H951 C947 0.930 . S
H952 C949 0.929 . S
S953 N954 1.613 . S
S953 N955 1.610 . S
N954 S953 1.613 . S
N954 C957 1.350 . S
N955 S953 1.610 . S
N955 C956 1.351 . S
C956 C950 1.428 . S
C956 N955 1.351 . S
C956 C957 1.434 . S
C957 C948 1.429 . S
C957 N954 1.350 . S
C957 C956 1.434 . S
C958 C959 1.369 . S
C958 C960 1.419 . S
C958 H962 0.930 1_554 S
C959 C958 1.369 . S
C959 C968 1.429 . S
C960 C958 1.419 . S
C960 C961 1.363 . S
C960 H963 0.929 1_554 S
C961 C960 1.363 . S
C961 C967 1.428 . S
H962 C958 0.930 1_556 S
H963 C960 0.929 1_556 S
S964 N965 1.613 . S
S964 N966 1.610 . S
N965 S964 1.613 . S
N965 C968 1.350 . S
N966 S964 1.610 . S
N966 C967 1.351 . S
C967 C961 1.428 . S
C967 N966 1.351 . S
C967 C968 1.434 . S
C968 C959 1.429 . S
C968 N965 1.350 . S
C968 C967 1.434 . S
C969 C970 1.369 . S
C969 C971 1.419 . S
C969 H973 0.930 . S
C970 C969 1.369 . S
C970 C979 1.429 . S
C971 C969 1.419 . S
C971 C972 1.363 . S
C971 H974 0.929 . S
C972 C971 1.363 . S
C972 C978 1.428 . S
H973 C969 0.930 . S
H974 C971 0.929 . S
S975 N976 1.613 . S
S975 N977 1.610 . S
N976 S975 1.613 . S
N976 C979 1.350 . S
N977 S975 1.610 . S
N977 C978 1.351 . S
C978 C972 1.428 . S
C978 N977 1.351 . S
C978 C979 1.434 . S
C979 C970 1.429 . S
C979 N976 1.350 . S
C979 C978 1.434 . S
C980 C981 1.369 . S
C980 C982 1.419 . S
C980 H984 0.930 . S
C981 C980 1.369 . S
C981 C990 1.429 . S
C982 C980 1.419 . S
C982 C983 1.363 . S
C982 H985 0.929 . S
C983 C982 1.363 . S
C983 C989 1.428 . S
H984 C980 0.930 . S
H985 C982 0.929 . S
S986 N987 1.613 . S
S986 N988 1.610 . S
N987 S986 1.613 . S
N987 C990 1.350 . S
N988 S986 1.610 . S
N988 C989 1.351 . S
C989 C983 1.428 . S
C989 N988 1.351 . S
C989 C990 1.434 . S
C990 C981 1.429 . S
C990 N987 1.350 . S
C990 C989 1.434 . S
C991 C992 1.369 . S
C991 C993 1.419 . S
C991 H995 0.930 . S
C992 C991 1.369 . S
C992 C1001 1.429 . S
C993 C991 1.419 . S
C993 C994 1.363 . S
C993 H996 0.929 . S
C994 C993 1.363 . S
C994 C1000 1.428 . S
H995 C991 0.930 . S
H996 C993 0.929 . S
S997 N998 1.613 . S
S997 N999 1.610 . S
N998 S997 1.613 . S
N998 C1001 1.350 . S
N999 S997 1.610 . S
N999 C1000 1.351 . S
C1000 C994 1.428 . S
C1000 N999 1.351 . S
C1000 C1001 1.434 . S
C1001 C992 1.429 . S
C1001 N998 1.350 . S
C1001 C1000 1.434 . S
C1002 C1003 1.369 . S
C1002 C1004 1.419 . S
C1002 H1006 0.930 . S
C1003 C1002 1.369 . S
C1003 C1012 1.429 . S
C1004 C1002 1.419 . S
C1004 C1005 1.363 . S
C1004 H1007 0.929 . S
C1005 C1004 1.363 . S
C1005 C1011 1.428 . S
H1006 C1002 0.930 . S
H1007 C1004 0.929 . S
S1008 N1009 1.613 . S
S1008 N1010 1.610 . S
N1009 S1008 1.613 . S
N1009 C1012 1.350 . S
N1010 S1008 1.610 . S
N1010 C1011 1.351 . S
C1011 C1005 1.428 . S
C1011 N1010 1.351 . S
C1011 C1012 1.434 . S
C1012 C1003 1.429 . S
C1012 N1009 1.350 . S
C1012 C1011 1.434 . S
C1013 C1014 1.369 . S
C1013 C1015 1.419 . S
C1013 H1017 0.930 . S
C1014 C1013 1.369 . S
C1014 C1023 1.429 . S
C1015 C1013 1.419 . S
C1015 C1016 1.363 . S
C1015 H1018 0.929 . S
C1016 C1015 1.363 . S
C1016 C1022 1.428 . S
H1017 C1013 0.930 . S
H1018 C1015 0.929 . S
S1019 N1020 1.613 . S
S1019 N1021 1.610 . S
N1020 S1019 1.613 . S
N1020 C1023 1.350 . S
N1021 S1019 1.610 . S
N1021 C1022 1.351 . S
C1022 C1016 1.428 . S
C1022 N1021 1.351 . S
C1022 C1023 1.434 . S
C1023 C1014 1.429 . S
C1023 N1020 1.350 . S
C1023 C1022 1.434 . S
C1024 C1025 1.369 . S
C1024 C1026 1.419 . S
C1024 H1028 0.930 . S
C1025 C1024 1.369 . S
C1025 C1034 1.429 . S
C1026 C1024 1.419 . S
C1026 C1027 1.363 . S
C1026 H1029 0.929 . S
C1027 C1026 1.363 . S
C1027 C1033 1.428 . S
H1028 C1024 0.930 . S
H1029 C1026 0.929 . S
S1030 N1031 1.613 . S
S1030 N1032 1.610 . S
N1031 S1030 1.613 . S
N1031 C1034 1.350 . S
N1032 S1030 1.610 . S
N1032 C1033 1.351 . S
C1033 C1027 1.428 . S
C1033 N1032 1.351 . S
C1033 C1034 1.434 . S
C1034 C1025 1.429 . S
C1034 N1031 1.350 . S
C1034 C1033 1.434 . S
C1035 C1036 1.369 . S
C1035 C1037 1.419 . S
C1035 H1039 0.930 . S
C1036 C1035 1.369 . S
C1036 C1045 1.429 . S
C1037 C1035 1.419 . S
C1037 C1038 1.363 . S
C1037 H1040 0.929 . S
C1038 C1037 1.363 . S
C1038 C1044 1.428 . S
H1039 C1035 0.930 . S
H1040 C1037 0.929 . S
S1041 N1042 1.613 . S
S1041 N1043 1.610 . S
N1042 S1041 1.613 . S
N1042 C1045 1.350 . S
N1043 S1041 1.610 . S
N1043 C1044 1.351 . S
C1044 C1038 1.428 . S
C1044 N1043 1.351 . S
C1044 C1045 1.434 . S
C1045 C1036 1.429 . S
C1045 N1042 1.350 . S
C1045 C1044 1.434 . S
C1046 C1047 1.369 . S
C1046 C1048 1.419 . S
C1046 H1050 0.930 . S
C1047 C1046 1.369 . S
C1047 C1056 1.429 . S
C1048 C1046 1.419 . S
C1048 C1049 1.363 . S
C1048 H1051 0.929 . S
C1049 C1048 1.363 . S
C1049 C1055 1.428 . S
H1050 C1046 0.930 . S
H1051 C1048 0.929 . S
S1052 N1053 1.613 . S
S1052 N1054 1.610 . S
N1053 S1052 1.613 . S
N1053 C1056 1.350 . S
N1054 S1052 1.610 . S
N1054 C1055 1.351 . S
C1055 C1049 1.428 . S
C1055 N1054 1.351 . S
C1055 C1056 1.434 . S
C1056 C1047 1.429 . S
C1056 N1053 1.350 . S
C1056 C1055 1.434 . S
C1057 C1058 1.369 . S
C1057 C1059 1.419 . S
C1057 H1061 0.930 . S
C1058 C1057 1.369 . S
C1058 C1067 1.429 . S
C1059 C1057 1.419 . S
C1059 C1060 1.363 . S
C1059 H1062 0.929 . S
C1060 C1059 1.363 . S
C1060 C1066 1.428 . S
H1061 C1057 0.930 . S
H1062 C1059 0.929 . S
S1063 N1064 1.613 . S
S1063 N1065 1.610 . S
N1064 S1063 1.613 . S
N1064 C1067 1.350 . S
N1065 S1063 1.610 . S
N1065 C1066 1.351 . S
C1066 C1060 1.428 . S
C1066 N1065 1.351 . S
C1066 C1067 1.434 . S
C1067 C1058 1.429 . S
C1067 N1064 1.350 . S
C1067 C1066 1.434 . S
C1068 C1069 1.369 . S
C1068 C1070 1.419 . S
C1068 H1072 0.930 . S
C1069 C1068 1.369 . S
C1069 C1078 1.429 . S
C1070 C1068 1.419 . S
C1070 C1071 1.363 . S
C1070 H1073 0.929 . S
C1071 C1070 1.363 . S
C1071 C1077 1.428 . S
H1072 C1068 0.930 . S
H1073 C1070 0.929 . S
S1074 N1075 1.613 . S
S1074 N1076 1.610 . S
N1075 S1074 1.613 . S
N1075 C1078 1.350 . S
N1076 S1074 1.610 . S
N1076 C1077 1.351 . S
C1077 C1071 1.428 . S
C1077 N1076 1.351 . S
C1077 C1078 1.434 . S
C1078 C1069 1.429 . S
C1078 N1075 1.350 . S
C1078 C1077 1.434 . S
C1079 C1080 1.369 . S
C1079 C1081 1.419 . S
C1079 H1083 0.930 . S
C1080 C1079 1.369 . S
C1080 C1089 1.429 . S
C1081 C1079 1.419 . S
C1081 C1082 1.363 . S
C1081 H1084 0.929 . S
C1082 C1081 1.363 . S
C1082 C1088 1.428 . S
H1083 C1079 0.930 . S
H1084 C1081 0.929 . S
S1085 N1086 1.613 . S
S1085 N1087 1.610 . S
N1086 S1085 1.613 . S
N1086 C1089 1.350 . S
N1087 S1085 1.610 . S
N1087 C1088 1.351 . S
C1088 C1082 1.428 . S
C1088 N1087 1.351 . S
C1088 C1089 1.434 . S
C1089 C1080 1.429 . S
C1089 N1086 1.350 . S
C1089 C1088 1.434 . S
C1090 C1091 1.369 . S
C1090 C1092 1.419 . S
C1090 H1094 0.930 . S
C1091 C1090 1.369 . S
C1091 C1100 1.429 . S
C1092 C1090 1.419 . S
C1092 C1093 1.363 . S
C1092 H1095 0.929 . S
C1093 C1092 1.363 . S
C1093 C1099 1.428 . S
H1094 C1090 0.930 . S
H1095 C1092 0.929 . S
S1096 N1097 1.613 . S
S1096 N1098 1.610 . S
N1097 S1096 1.613 . S
N1097 C1100 1.350 . S
N1098 S1096 1.610 . S
N1098 C1099 1.351 . S
C1099 C1093 1.428 . S
C1099 N1098 1.351 . S
C1099 C1100 1.434 . S
C1100 C1091 1.429 . S
C1100 N1097 1.350 . S
C1100 C1099 1.434 . S
C1101 C1102 1.369 . S
C1101 C1103 1.419 . S
C1101 H1105 0.930 . S
C1102 C1101 1.369 . S
C1102 C1111 1.429 . S
C1103 C1101 1.419 . S
C1103 C1104 1.363 . S
C1103 H1106 0.929 . S
C1104 C1103 1.363 . S
C1104 C1110 1.428 . S
H1105 C1101 0.930 . S
H1106 C1103 0.929 . S
S1107 N1108 1.613 . S
S1107 N1109 1.610 . S
N1108 S1107 1.613 . S
N1108 C1111 1.350 . S
N1109 S1107 1.610 . S
N1109 C1110 1.351 . S
C1110 C1104 1.428 . S
C1110 N1109 1.351 . S
C1110 C1111 1.434 . S
C1111 C1102 1.429 . S
C1111 N1108 1.350 . S
C1111 C1110 1.434 . S
C1112 C1113 1.369 . S
C1112 C1114 1.419 . S
C1112 H1116 0.930 . S
C1113 C1112 1.369 . S
C1113 C1122 1.429 . S
C1114 C1112 1.419 . S
C1114 C1115 1.363 . S
C1114 H1117 0.929 . S
C1115 C1114 1.363 . S
C1115 C1121 1.428 . S
H1116 C1112 0.930 . S
H1117 C1114 0.929 . S
S1118 N1119 1.613 . S
S1118 N1120 1.610 . S
N1119 S1118 1.613 . S
N1119 C1122 1.350 . S
N1120 S1118 1.610 . S
N1120 C1121 1.351 . S
C1121 C1115 1.428 . S
C1121 N1120 1.351 . S
C1121 C1122 1.434 . S
C1122 C1113 1.429 . S
C1122 N1119 1.350 . S
C1122 C1121 1.434 . S
C1123 C1124 1.369 . S
C1123 C1125 1.419 . S
C1123 H1127 0.930 . S
C1124 C1123 1.369 . S
C1124 C1133 1.429 . S
C1125 C1123 1.419 . S
C1125 C1126 1.363 . S
C1125 H1128 0.929 . S
C1126 C1125 1.363 . S
C1126 C1132 1.428 . S
H1127 C1123 0.930 . S
H1128 C1125 0.929 . S
S1129 N1130 1.613 . S
S1129 N1131 1.610 . S
N1130 S1129 1.613 . S
N1130 C1133 1.350 . S
N1131 S1129 1.610 . S
N1131 C1132 1.351 . S
C1132 C1126 1.428 . S
C1132 N1131 1.351 . S
C1132 C1133 1.434 . S
C1133 C1124 1.429 . S
C1133 N1130 1.350 . S
C1133 C1132 1.434 . S
C1134 C1135 1.369 . S
C1134 C1136 1.419 . S
C1134 H1138 0.930 . S
C1135 C1134 1.369 . S
C1135 C1144 1.429 . S
C1136 C1134 1.419 . S
C1136 C1137 1.363 . S
C1136 H1139 0.929 . S
C1137 C1136 1.363 . S
C1137 C1143 1.428 . S
H1138 C1134 0.930 . S
H1139 C1136 0.929 . S
S1140 N1141 1.613 . S
S1140 N1142 1.610 . S
N1141 S1140 1.613 . S
N1141 C1144 1.350 . S
N1142 S1140 1.610 . S
N1142 C1143 1.351 . S
C1143 C1137 1.428 . S
C1143 N1142 1.351 . S
C1143 C1144 1.434 . S
C1144 C1135 1.429 . S
C1144 N1141 1.350 . S
C1144 C1143 1.434 . S
C1145 C1146 1.369 . S
C1145 C1147 1.419 . S
C1145 H1149 0.930 . S
C1146 C1145 1.369 . S
C1146 C1155 1.429 . S
C1147 C1145 1.419 . S
C1147 C1148 1.363 . S
C1147 H1150 0.929 . S
C1148 C1147 1.363 . S
C1148 C1154 1.428 . S
H1149 C1145 0.930 . S
H1150 C1147 0.929 . S
S1151 N1152 1.613 . S
S1151 N1153 1.610 . S
N1152 S1151 1.613 . S
N1152 C1155 1.350 . S
N1153 S1151 1.610 . S
N1153 C1154 1.351 . S
C1154 C1148 1.428 . S
C1154 N1153 1.351 . S
C1154 C1155 1.434 . S
C1155 C1146 1.429 . S
C1155 N1152 1.350 . S
C1155 C1154 1.434 . S
C1156 C1157 1.369 . S
C1156 C1158 1.419 . S
C1156 H1160 0.930 . S
C1157 C1156 1.369 . S
C1157 C1166 1.429 . S
C1158 C1156 1.419 . S
C1158 C1159 1.363 . S
C1158 H1161 0.929 . S
C1159 C1158 1.363 . S
C1159 C1165 1.428 . S
H1160 C1156 0.930 . S
H1161 C1158 0.929 . S
S1162 N1163 1.613 . S
S1162 N1164 1.610 . S
N1163 S1162 1.613 . S
N1163 C1166 1.350 . S
N1164 S1162 1.610 . S
N1164 C1165 1.351 . S
C1165 C1159 1.428 . S
C1165 N1164 1.351 . S
C1165 C1166 1.434 . S
C1166 C1157 1.429 . S
C1166 N1163 1.350 . S
C1166 C1165 1.434 . S
C1167 C1168 1.340 1_655 S
C1167 C1169 1.419 . S
C1167 H1171 0.930 . S
C1168 C1167 1.340 1_455 S
C1168 C1177 1.425 1_455 S
C1169 C1167 1.419 . S
C1169 C1170 1.363 . S
C1169 H1172 0.929 . S
C1170 C1169 1.363 . S
C1170 C1176 1.428 . S
H1171 C1167 0.930 . S
H1172 C1169 0.929 . S
S1173 N1174 1.613 . S
S1173 N1175 1.610 . S
N1174 S1173 1.613 . S
N1174 C1177 1.350 . S
N1175 S1173 1.610 . S
N1175 C1176 1.351 . S
C1176 C1170 1.428 . S
C1176 N1175 1.351 . S
C1176 C1177 1.434 . S
C1177 C1168 1.425 1_655 S
C1177 N1174 1.350 . S
C1177 C1176 1.434 . S
C1178 C1179 1.369 . S
C1178 C1180 1.419 . S
C1178 H1182 0.930 . S
C1179 C1178 1.369 . S
C1179 C1188 1.429 . S
C1180 C1178 1.419 . S
C1180 C1181 1.363 . S
C1180 H1183 0.929 . S
C1181 C1180 1.363 . S
C1181 C1187 1.428 . S
H1182 C1178 0.930 . S
H1183 C1180 0.929 . S
S1184 N1185 1.613 . S
S1184 N1186 1.610 . S
N1185 S1184 1.613 . S
N1185 C1188 1.350 . S
N1186 S1184 1.610 . S
N1186 C1187 1.351 . S
C1187 C1181 1.428 . S
C1187 N1186 1.351 . S
C1187 C1188 1.434 . S
C1188 C1179 1.429 . S
C1188 N1185 1.350 . S
C1188 C1187 1.434 . S
C1189 C1190 1.369 . S
C1189 C1191 1.419 . S
C1189 H1193 0.930 . S
C1190 C1189 1.369 . S
C1190 C1199 1.429 . S
C1191 C1189 1.419 . S
C1191 C1192 1.363 . S
C1191 H1194 0.929 . S
C1192 C1191 1.363 . S
C1192 C1198 1.428 . S
H1193 C1189 0.930 . S
H1194 C1191 0.929 . S
S1195 N1196 1.613 . S
S1195 N1197 1.610 . S
N1196 S1195 1.613 . S
N1196 C1199 1.350 . S
N1197 S1195 1.610 . S
N1197 C1198 1.351 . S
C1198 C1192 1.428 . S
C1198 N1197 1.351 . S
C1198 C1199 1.434 . S
C1199 C1190 1.429 . S
C1199 N1196 1.350 . S
C1199 C1198 1.434 . S
C1200 C1201 1.369 . S
C1200 C1202 1.419 . S
C1200 H1204 0.930 . S
C1201 C1200 1.369 . S
C1201 C1210 1.429 . S
C1202 C1200 1.419 . S
C1202 C1203 1.363 . S
C1202 H1205 0.929 . S
C1203 C1202 1.363 . S
C1203 C1209 1.428 . S
H1204 C1200 0.930 . S
H1205 C1202 0.929 . S
S1206 N1207 1.613 . S
S1206 N1208 1.610 . S
N1207 S1206 1.613 . S
N1207 C1210 1.350 . S
N1208 S1206 1.610 . S
N1208 C1209 1.351 . S
C1209 C1203 1.428 . S
C1209 N1208 1.351 . S
C1209 C1210 1.434 . S
C1210 C1201 1.429 . S
C1210 N1207 1.350 . S
C1210 C1209 1.434 . S
C1211 C1212 1.369 . S
C1211 C1213 1.419 . S
C1211 H1215 0.930 . S
C1212 C1211 1.369 . S
C1212 C1221 1.429 . S
C1213 C1211 1.419 . S
C1213 C1214 1.363 . S
C1213 H1216 0.929 . S
C1214 C1213 1.363 . S
C1214 C1220 1.428 . S
H1215 C1211 0.930 . S
H1216 C1213 0.929 . S
S1217 N1218 1.613 . S
S1217 N1219 1.610 . S
N1218 S1217 1.613 . S
N1218 C1221 1.350 . S
N1219 S1217 1.610 . S
N1219 C1220 1.351 . S
C1220 C1214 1.428 . S
C1220 N1219 1.351 . S
C1220 C1221 1.434 . S
C1221 C1212 1.429 . S
C1221 N1218 1.350 . S
C1221 C1220 1.434 . S
C1222 C1223 1.369 . S
C1222 C1224 1.419 . S
C1222 H1226 0.930 . S
C1223 C1222 1.369 . S
C1223 C1232 1.429 . S
C1224 C1222 1.419 . S
C1224 C1225 1.363 . S
C1224 H1227 0.929 . S
C1225 C1224 1.363 . S
C1225 C1231 1.428 . S
H1226 C1222 0.930 . S
H1227 C1224 0.929 . S
S1228 N1229 1.613 . S
S1228 N1230 1.610 . S
N1229 S1228 1.613 . S
N1229 C1232 1.350 . S
N1230 S1228 1.610 . S
N1230 C1231 1.351 . S
C1231 C1225 1.428 . S
C1231 N1230 1.351 . S
C1231 C1232 1.434 . S
C1232 C1223 1.429 . S
C1232 N1229 1.350 . S
C1232 C1231 1.434 . S
C1233 C1234 1.369 1_545 S
C1233 C1235 1.419 . S
C1233 H1237 0.930 . S
C1234 C1233 1.369 1_565 S
C1234 C1243 1.429 . S
C1235 C1233 1.419 . S
C1235 C1236 1.363 1_545 S
C1235 H1238 0.929 . S
C1236 C1235 1.363 1_565 S
C1236 C1242 1.428 . S
H1237 C1233 0.930 . S
H1238 C1235 0.929 . S
S1239 N1240 1.613 . S
S1239 N1241 1.610 . S
N1240 S1239 1.613 . S
N1240 C1243 1.350 . S
N1241 S1239 1.610 . S
N1241 C1242 1.351 . S
C1242 C1236 1.428 . S
C1242 N1241 1.351 . S
C1242 C1243 1.434 . S
C1243 C1234 1.429 . S
C1243 N1240 1.350 . S
C1243 C1242 1.434 . S
C1244 C1245 1.369 1_655 S
C1244 C1246 1.419 . S
C1244 H1248 0.930 . S
C1245 C1244 1.369 1_455 S
C1245 C1254 1.429 . S
C1246 C1244 1.419 . S
C1246 C1247 1.363 1_655 S
C1246 H1249 0.929 . S
C1247 C1246 1.363 1_455 S
C1247 C1253 1.428 . S
H1248 C1244 0.930 . S
H1249 C1246 0.929 . S
S1250 N1251 1.613 . S
S1250 N1252 1.610 . S
N1251 S1250 1.613 . S
N1251 C1254 1.350 . S
N1252 S1250 1.610 . S
N1252 C1253 1.351 . S
C1253 C1247 1.428 . S
C1253 N1252 1.351 . S
C1253 C1254 1.434 . S
C1254 C1245 1.429 . S
C1254 N1251 1.350 . S
C1254 C1253 1.434 . S
C1255 C1256 1.369 . S
C1255 C1257 1.419 . S
C1255 H1259 0.930 . S
C1256 C1255 1.369 . S
C1256 C1265 1.429 . S
C1257 C1255 1.419 . S
C1257 C1258 1.363 . S
C1257 H1260 0.929 . S
C1258 C1257 1.363 . S
C1258 C1264 1.428 . S
H1259 C1255 0.930 . S
H1260 C1257 0.929 . S
S1261 N1262 1.613 . S
S1261 N1263 1.610 . S
N1262 S1261 1.613 . S
N1262 C1265 1.350 . S
N1263 S1261 1.610 . S
N1263 C1264 1.351 . S
C1264 C1258 1.428 . S
C1264 N1263 1.351 . S
C1264 C1265 1.434 . S
C1265 C1256 1.429 . S
C1265 N1262 1.350 . S
C1265 C1264 1.434 . S
C1266 C1267 1.369 . S
C1266 C1268 1.419 . S
C1266 H1270 0.930 . S
C1267 C1266 1.369 . S
C1267 C1276 1.429 . S
C1268 C1266 1.419 . S
C1268 C1269 1.363 . S
C1268 H1271 0.929 1_655 S
C1269 C1268 1.363 . S
C1269 C1275 1.428 . S
H1270 C1266 0.930 . S
H1271 C1268 0.929 1_455 S
S1272 N1273 1.613 . S
S1272 N1274 1.610 . S
N1273 S1272 1.613 . S
N1273 C1276 1.350 . S
N1274 S1272 1.610 . S
N1274 C1275 1.351 . S
C1275 C1269 1.428 . S
C1275 N1274 1.351 . S
C1275 C1276 1.434 . S
C1276 C1267 1.429 . S
C1276 N1273 1.350 . S
C1276 C1275 1.434 . S
C1277 C1278 1.369 . S
C1277 C1279 1.419 . S
C1277 H1281 0.930 . S
C1278 C1277 1.369 . S
C1278 C1287 1.429 . S
C1279 C1277 1.419 . S
C1279 C1280 1.363 . S
C1279 H1282 0.929 . S
C1280 C1279 1.363 . S
C1280 C1286 1.428 . S
H1281 C1277 0.930 . S
H1282 C1279 0.929 . S
S1283 N1284 1.613 . S
S1283 N1285 1.610 . S
N1284 S1283 1.613 . S
N1284 C1287 1.350 . S
N1285 S1283 1.610 . S
N1285 C1286 1.351 . S
C1286 C1280 1.428 . S
C1286 N1285 1.351 . S
C1286 C1287 1.434 . S
C1287 C1278 1.429 . S
C1287 N1284 1.350 . S
C1287 C1286 1.434 . S
C1288 C1289 1.369 . S
C1288 C1290 1.419 . S
C1288 H1292 0.930 . S
C1289 C1288 1.369 . S
C1289 C1298 1.429 . S
C1290 C1288 1.419 . S
C1290 C1291 1.363 . S
C1290 H1293 0.929 . S
C1291 C1290 1.363 . S
C1291 C1297 1.428 . S
H1292 C1288 0.930 . S
H1293 C1290 0.929 . S
S1294 N1295 1.613 1_565 S
S1294 N1296 1.610 . S
N1295 S1294 1.613 1_545 S
N1295 C1298 1.350 . S
N1296 S1294 1.610 . S
N1296 C1297 1.351 1_565 S
C1297 C1291 1.428 . S
C1297 N1296 1.351 1_545 S
C1297 C1298 1.434 . S
C1298 C1289 1.429 . S
C1298 N1295 1.350 . S
C1298 C1297 1.434 . S
C1299 C1300 1.369 . S
C1299 C1301 1.419 . S
C1299 H1303 0.930 . S
C1300 C1299 1.369 . S
C1300 C1309 1.429 . S
C1301 C1299 1.419 . S
C1301 C1302 1.363 . S
C1301 H1304 0.929 . S
C1302 C1301 1.363 . S
C1302 C1308 1.428 . S
H1303 C1299 0.930 . S
H1304 C1301 0.929 . S
S1305 N1306 1.613 . S
S1305 N1307 1.610 . S
N1306 S1305 1.613 . S
N1306 C1309 1.350 . S
N1307 S1305 1.610 . S
N1307 C1308 1.351 . S
C1308 C1302 1.428 . S
C1308 N1307 1.351 . S
C1308 C1309 1.434 . S
C1309 C1300 1.429 . S
C1309 N1306 1.350 . S
C1309 C1308 1.434 . S
C1310 C1311 1.369 . S
C1310 C1312 1.419 . S
C1310 H1314 0.930 . S
C1311 C1310 1.369 . S
C1311 C1320 1.429 . S
C1312 C1310 1.419 . S
C1312 C1313 1.363 . S
C1312 H1315 0.929 . S
C1313 C1312 1.363 . S
C1313 C1319 1.428 . S
H1314 C1310 0.930 . S
H1315 C1312 0.929 . S
S1316 N1317 1.613 . S
S1316 N1318 1.610 . S
N1317 S1316 1.613 . S
N1317 C1320 1.350 . S
N1318 S1316 1.610 . S
N1318 C1319 1.351 . S
C1319 C1313 1.428 . S
C1319 N1318 1.351 . S
C1319 C1320 1.434 . S
C1320 C1311 1.429 . S
C1320 N1317 1.350 . S
C1320 C1319 1.434 . S
C1321 C1322 1.369 . S
C1321 C1323 1.419 . S
C1321 H1325 0.930 . S
C1322 C1321 1.369 . S
C1322 C1331 1.429 . S
C1323 C1321 1.419 . S
C1323 C1324 1.363 . S
C1323 H1326 0.929 . S
C1324 C1323 1.363 . S
C1324 C1330 1.428 . S
H1325 C1321 0.930 . S
H1326 C1323 0.929 . S
S1327 N1328 1.613 . S
S1327 N1329 1.610 . S
N1328 S1327 1.613 . S
N1328 C1331 1.350 . S
N1329 S1327 1.610 . S
N1329 C1330 1.351 . S
C1330 C1324 1.428 . S
C1330 N1329 1.351 . S
C1330 C1331 1.434 . S
C1331 C1322 1.429 . S
C1331 N1328 1.350 . S
C1331 C1330 1.434 . S
C1332 C1333 1.369 . S
C1332 C1334 1.419 . S
C1332 H1336 0.930 . S
C1333 C1332 1.369 . S
C1333 C1342 1.429 . S
C1334 C1332 1.419 . S
C1334 C1335 1.363 . S
C1334 H1337 0.929 . S
C1335 C1334 1.363 . S
C1335 C1341 1.428 . S
H1336 C1332 0.930 . S
H1337 C1334 0.929 . S
S1338 N1339 1.613 . S
S1338 N1340 1.610 . S
N1339 S1338 1.613 . S
N1339 C1342 1.350 . S
N1340 S1338 1.610 . S
N1340 C1341 1.351 . S
C1341 C1335 1.428 . S
C1341 N1340 1.351 . S
C1341 C1342 1.434 . S
C1342 C1333 1.429 . S
C1342 N1339 1.350 . S
C1342 C1341 1.434 . S
C1343 C1344 1.369 . S
C1343 C1345 1.419 . S
C1343 H1347 0.930 . S
C1344 C1343 1.369 . S
C1344 C1353 1.429 . S
C1345 C1343 1.419 . S
C1345 C1346 1.363 . S
C1345 H1348 0.929 . S
C1346 C1345 1.363 . S
C1346 C1352 1.428 . S
H1347 C1343 0.930 . S
H1348 C1345 0.929 . S
S1349 N1350 1.613 . S
S1349 N1351 1.610 . S
N1350 S1349 1.613 . S
N1350 C1353 1.350 . S
N1351 S1349 1.610 . S
N1351 C1352 1.351 . S
C1352 C1346 1.428 . S
C1352 N1351 1.351 . S
C1352 C1353 1.434 . S
C1353 C1344 1.429 . S
C1353 N1350 1.350 . S
C1353 C1352 1.434 . S
C1354 C1355 1.369 . S
C1354 C1356 1.419 . S
C1354 H1358 0.930 . S
C1355 C1354 1.369 . S
C1355 C1364 1.429 . S
C1356 C1354 1.419 . S
C1356 C1357 1.363 . S
C1356 H1359 0.929 . S
C1357 C1356 1.363 . S
C1357 C1363 1.428 . S
H1358 C1354 0.930 . S
H1359 C1356 0.929 . S
S1360 N1361 1.613 . S
S1360 N1362 1.610 . S
N1361 S1360 1.613 . S
N1361 C1364 1.350 . S
N1362 S1360 1.610 . S
N1362 C1363 1.351 . S
C1363 C1357 1.428 . S
C1363 N1362 1.351 . S
C1363 C1364 1.434 . S
C1364 C1355 1.429 . S
C1364 N1361 1.350 . S
C1364 C1363 1.434 . S
C1365 C1366 1.369 . S
C1365 C1367 1.419 . S
C1365 H1369 0.930 . S
C1366 C1365 1.369 . S
C1366 C1375 1.429 . S
C1367 C1365 1.419 . S
C1367 C1368 1.363 . S
C1367 H1370 0.929 . S
C1368 C1367 1.363 . S
C1368 C1374 1.428 . S
H1369 C1365 0.930 . S
H1370 C1367 0.929 . S
S1371 N1372 1.613 . S
S1371 N1373 1.610 . S
N1372 S1371 1.613 . S
N1372 C1375 1.350 . S
N1373 S1371 1.610 . S
N1373 C1374 1.351 . S
C1374 C1368 1.428 . S
C1374 N1373 1.351 . S
C1374 C1375 1.434 . S
C1375 C1366 1.429 . S
C1375 N1372 1.350 . S
C1375 C1374 1.434 . S
C1376 C1377 1.369 . S
C1376 C1378 1.419 . S
C1376 H1380 0.930 . S
C1377 C1376 1.369 . S
C1377 C1386 1.429 . S
C1378 C1376 1.419 . S
C1378 C1379 1.363 . S
C1378 H1381 0.929 . S
C1379 C1378 1.363 . S
C1379 C1385 1.428 . S
H1380 C1376 0.930 . S
H1381 C1378 0.929 . S
S1382 N1383 1.613 . S
S1382 N1384 1.610 . S
N1383 S1382 1.613 . S
N1383 C1386 1.350 . S
N1384 S1382 1.610 . S
N1384 C1385 1.351 . S
C1385 C1379 1.428 . S
C1385 N1384 1.351 . S
C1385 C1386 1.434 . S
C1386 C1377 1.429 . S
C1386 N1383 1.350 . S
C1386 C1385 1.434 . S
C1387 C1388 1.369 . S
C1387 C1389 1.419 . S
C1387 H1391 0.930 . S
C1388 C1387 1.369 . S
C1388 C1397 1.429 . S
C1389 C1387 1.419 . S
C1389 C1390 1.363 . S
C1389 H1392 0.929 . S
C1390 C1389 1.363 . S
C1390 C1396 1.428 . S
H1391 C1387 0.930 . S
H1392 C1389 0.929 . S
S1393 N1394 1.613 . S
S1393 N1395 1.610 . S
N1394 S1393 1.613 . S
N1394 C1397 1.350 . S
N1395 S1393 1.610 . S
N1395 C1396 1.351 . S
C1396 C1390 1.428 . S
C1396 N1395 1.351 . S
C1396 C1397 1.434 . S
C1397 C1388 1.429 . S
C1397 N1394 1.350 . S
C1397 C1396 1.434 . S
C1398 C1399 1.369 . S
C1398 C1400 1.419 . S
C1398 H1402 0.930 . S
C1399 C1398 1.369 . S
C1399 C1408 1.429 . S
C1400 C1398 1.419 . S
C1400 C1401 1.363 . S
C1400 H1403 0.929 . S
C1401 C1400 1.363 . S
C1401 C1407 1.428 . S
H1402 C1398 0.930 . S
H1403 C1400 0.929 . S
S1404 N1405 1.613 . S
S1404 N1406 1.610 . S
N1405 S1404 1.613 . S
N1405 C1408 1.350 . S
N1406 S1404 1.610 . S
N1406 C1407 1.351 . S
C1407 C1401 1.428 . S
C1407 N1406 1.351 . S
C1407 C1408 1.434 . S
C1408 C1399 1.429 . S
C1408 N1405 1.350 . S
C1408 C1407 1.434 . S
C1409 C1410 1.369 . S
C1409 C1411 1.419 . S
C1409 H1413 0.930 . S
C1410 C1409 1.369 . S
C1410 C1419 1.429 . S
C1411 C1409 1.419 . S
C1411 C1412 1.363 . S
C1411 H1414 0.929 . S
C1412 C1411 1.363 . S
C1412 C1418 1.428 . S
H1413 C1409 0.930 . S
H1414 C1411 0.929 . S
S1415 N1416 1.613 . S
S1415 N1417 1.610 . S
N1416 S1415 1.613 . S
N1416 C1419 1.350 . S
N1417 S1415 1.610 . S
N1417 C1418 1.351 . S
C1418 C1412 1.428 . S
C1418 N1417 1.351 . S
C1418 C1419 1.434 . S
C1419 C1410 1.429 . S
C1419 N1416 1.350 . S
C1419 C1418 1.434 . S
C1420 C1421 1.369 . S
C1420 C1422 1.419 . S
C1420 H1424 0.930 . S
C1421 C1420 1.369 . S
C1421 C1430 1.429 . S
C1422 C1420 1.419 . S
C1422 C1423 1.363 . S
C1422 H1425 0.929 . S
C1423 C1422 1.363 . S
C1423 C1429 1.428 . S
H1424 C1420 0.930 . S
H1425 C1422 0.929 . S
S1426 N1427 1.613 . S
S1426 N1428 1.610 . S
N1427 S1426 1.613 . S
N1427 C1430 1.350 . S
N1428 S1426 1.610 . S
N1428 C1429 1.351 . S
C1429 C1423 1.428 . S
C1429 N1428 1.351 . S
C1429 C1430 1.434 . S
C1430 C1421 1.429 . S
C1430 N1427 1.350 . S
C1430 C1429 1.434 . S
C838 C469 1.533 . S
C840 C665 1.424 . S
C849 C505 1.533 . S
C851 C686 1.422 . S
C860 C433 1.484 . S
C862 C708 1.180 . S
C871 C397 1.501 . S
C873 C687 1.182 . S
C884 C707 1.425 . S
C882 C325 1.558 . S
C893 C361 1.496 . S
C895 C666 1.184 1_556 S
C906 C661 1.395 . S
C904 C421 1.506 . S
C917 C682 1.395 . S
C915 C349 1.482 . S
C926 C385 1.552 . S
C928 C705 1.227 1_556 S
C937 C493 1.493 . S
C939 C684 1.224 . S
C948 C529 1.453 . S
C950 C703 1.369 . S
C961 C663 1.224 . S
C959 C457 1.526 . S
C972 C728 1.425 . S
C970 C37 1.532 1_455 S
C981 C73 1.539 . S
C983 C749 1.416 . S
C992 C1 1.478 1_565 S
C994 C771 1.195 . S
C1003 C613 1.502 . S
C1005 C750 1.181 . S
C1014 C541 1.558 . S
C1016 C770 1.423 . S
C1025 C577 1.495 . S
C1027 C729 1.195 . S
C1036 C637 1.504 . S
C1038 C724 1.396 . S
C1047 C565 1.482 . S
C1049 C745 1.402 . S
C1060 C768 1.219 . S
C1058 C601 1.554 . S
C1069 C61 1.500 1_565 S
C1071 C747 1.194 . S
C1082 C766 1.365 . S
C1080 C97 1.457 1_455 S
C1091 C25 1.529 . S
C1093 C726 1.217 . S
C1104 C791 1.422 . S
C1102 C253 1.534 . S
C1113 C289 1.534 . S
C1115 C812 1.422 . S
C1126 C834 1.186 . S
C1124 C217 1.482 . S
C1137 C813 1.197 . S
C1135 C181 1.495 1_545 S
C1148 C833 1.432 . S
C1146 C109 1.551 1_655 S
C1157 C145 1.495 . S
C1159 C792 1.197 . S
C1168 C205 1.535 . S
C1170 C787 1.395 . S
C1179 C133 1.477 . S
C1181 C808 1.403 . S
C1192 C831 1.228 . S
C1190 C169 1.548 1_545 S
C1201 C277 1.497 . S
C1203 C810 1.204 . S
C1212 C313 1.454 . S
C1214 C829 1.359 . S
C1223 C241 1.528 . S
C1225 C789 1.226 . S
C1234 C571 1.448 . S
C1236 C664 1.403 1_565 S
C1247 C685 1.445 . S
C1245 C607 1.486 . S
C1256 C643 1.534 . S
C1258 C704 1.495 . S
C1267 C247 1.573 . S
C1269 C683 1.534 1_655 S
C1278 C283 1.494 . S
C1280 C706 1.445 . S
C1291 C662 1.500 . S
C1289 C319 1.533 . S
C1300 C139 1.449 . S
C1302 C727 1.406 . S
C1311 C175 1.487 . S
C1313 C748 1.446 . S
C1322 C211 1.534 . S
C1324 C767 1.496 . S
C1333 C463 1.575 . S
C1335 C746 1.528 . S
C1346 C769 1.441 . S
C1344 C499 1.494 . S
C1355 C535 1.535 . S
C1357 C725 1.494 . S
C1366 C355 1.450 . S
C1368 C790 1.404 . S
C1377 C391 1.486 . S
C1379 C811 1.444 . S
C1390 C830 1.495 . S
C1388 C427 1.534 . S
C1399 C31 1.573 . S
C1401 C809 1.532 . S
C1410 C67 1.495 . S
C1412 C832 1.443 . S
C1421 C103 1.533 . S
C1423 C788 1.498 . S
