# Generated by pormake.
# Topology llk, (3,12)-cn, num edge types: 1
# Building blocks:
#     Node 0, Type 0, BuildingBlock: MIDCAF_clean_linker_0, # of connection points: 3
#     Node 1, Type 0, BuildingBlock: MIDCAF_clean_linker_0, # of connection points: 3
#     Node 2, Type 0, BuildingBlock: MIDCAF_clean_linker_0, # of connection points: 3
#     Node 3, Type 0, BuildingBlock: MIDCAF_clean_linker_0, # of connection points: 3
#     Node 4, Type 0, BuildingBlock: MIDCAF_clean_linker_0, # of connection points: 3
#     Node 5, Type 0, BuildingBlock: MIDCAF_clean_linker_0, # of connection points: 3
#     Node 6, Type 0, BuildingBlock: MIDCAF_clean_linker_0, # of connection points: 3
#     Node 7, Type 0, BuildingBlock: MIDCAF_clean_linker_0, # of connection points: 3
#     Node 8, Type 0, BuildingBlock: MIDCAF_clean_linker_0, # of connection points: 3
#     Node 9, Type 0, BuildingBlock: MIDCAF_clean_linker_0, # of connection points: 3
#     Node 10, Type 0, BuildingBlock: MIDCAF_clean_linker_0, # of connection points: 3
#     Node 11, Type 0, BuildingBlock: MIDCAF_clean_linker_0, # of connection points: 3
#     Node 12, Type 0, BuildingBlock: MIDCAF_clean_linker_0, # of connection points: 3
#     Node 13, Type 0, BuildingBlock: MIDCAF_clean_linker_0, # of connection points: 3
#     Node 14, Type 0, BuildingBlock: MIDCAF_clean_linker_0, # of connection points: 3
#     Node 15, Type 0, BuildingBlock: MIDCAF_clean_linker_0, # of connection points: 3
#     Node 16, Type 0, BuildingBlock: MIDCAF_clean_linker_0, # of connection points: 3
#     Node 17, Type 0, BuildingBlock: MIDCAF_clean_linker_0, # of connection points: 3
#     Node 18, Type 0, BuildingBlock: MIDCAF_clean_linker_0, # of connection points: 3
#     Node 19, Type 0, BuildingBlock: MIDCAF_clean_linker_0, # of connection points: 3
#     Node 20, Type 0, BuildingBlock: MIDCAF_clean_linker_0, # of connection points: 3
#     Node 21, Type 0, BuildingBlock: MIDCAF_clean_linker_0, # of connection points: 3
#     Node 22, Type 0, BuildingBlock: MIDCAF_clean_linker_0, # of connection points: 3
#     Node 23, Type 0, BuildingBlock: MIDCAF_clean_linker_0, # of connection points: 3
#     Node 24, Type 1, BuildingBlock: EZIPEK_clean_sbu_0, # of connection points: 12
#     Node 25, Type 1, BuildingBlock: EZIPEK_clean_sbu_0, # of connection points: 12
#     Node 26, Type 1, BuildingBlock: EZIPEK_clean_sbu_0, # of connection points: 12
#     Node 27, Type 1, BuildingBlock: EZIPEK_clean_sbu_0, # of connection points: 12
#     Node 28, Type 1, BuildingBlock: EZIPEK_clean_sbu_0, # of connection points: 12
#     Node 29, Type 1, BuildingBlock: EZIPEK_clean_sbu_0, # of connection points: 12
#     Edge 30, Type (0, 1), None
#     Edge 31, Type (0, 1), None
#     Edge 32, Type (0, 1), None
#     Edge 33, Type (0, 1), None
#     Edge 34, Type (0, 1), None
#     Edge 35, Type (0, 1), None
#     Edge 36, Type (0, 1), None
#     Edge 37, Type (0, 1), None
#     Edge 38, Type (0, 1), None
#     Edge 39, Type (0, 1), None
#     Edge 40, Type (0, 1), None
#     Edge 41, Type (0, 1), None
#     Edge 42, Type (0, 1), None
#     Edge 43, Type (0, 1), None
#     Edge 44, Type (0, 1), None
#     Edge 45, Type (0, 1), None
#     Edge 46, Type (0, 1), None
#     Edge 47, Type (0, 1), None
#     Edge 48, Type (0, 1), None
#     Edge 49, Type (0, 1), None
#     Edge 50, Type (0, 1), None
#     Edge 51, Type (0, 1), None
#     Edge 52, Type (0, 1), None
#     Edge 53, Type (0, 1), None
#     Edge 54, Type (0, 1), None
#     Edge 55, Type (0, 1), None
#     Edge 56, Type (0, 1), None
#     Edge 57, Type (0, 1), None
#     Edge 58, Type (0, 1), None
#     Edge 59, Type (0, 1), None
#     Edge 60, Type (0, 1), None
#     Edge 61, Type (0, 1), None
#     Edge 62, Type (0, 1), None
#     Edge 63, Type (0, 1), None
#     Edge 64, Type (0, 1), None
#     Edge 65, Type (0, 1), None
#     Edge 66, Type (0, 1), None
#     Edge 67, Type (0, 1), None
#     Edge 68, Type (0, 1), None
#     Edge 69, Type (0, 1), None
#     Edge 70, Type (0, 1), None
#     Edge 71, Type (0, 1), None
#     Edge 72, Type (0, 1), None
#     Edge 73, Type (0, 1), None
#     Edge 74, Type (0, 1), None
#     Edge 75, Type (0, 1), None
#     Edge 76, Type (0, 1), None
#     Edge 77, Type (0, 1), None
#     Edge 78, Type (0, 1), None
#     Edge 79, Type (0, 1), None
#     Edge 80, Type (0, 1), None
#     Edge 81, Type (0, 1), None
#     Edge 82, Type (0, 1), None
#     Edge 83, Type (0, 1), None
#     Edge 84, Type (0, 1), None
#     Edge 85, Type (0, 1), None
#     Edge 86, Type (0, 1), None
#     Edge 87, Type (0, 1), None
#     Edge 88, Type (0, 1), None
#     Edge 89, Type (0, 1), None
#     Edge 90, Type (0, 1), None
#     Edge 91, Type (0, 1), None
#     Edge 92, Type (0, 1), None
#     Edge 93, Type (0, 1), None
#     Edge 94, Type (0, 1), None
#     Edge 95, Type (0, 1), None
#     Edge 96, Type (0, 1), None
#     Edge 97, Type (0, 1), None
#     Edge 98, Type (0, 1), None
#     Edge 99, Type (0, 1), None
#     Edge 100, Type (0, 1), None
#     Edge 101, Type (0, 1), None
# Relax obj value: 0.107
# Max RMSD: 0.161
# Mean RMSD: 0.135
data_MOF--net-llk--node1-EZIPEK_clean_sbu_0--node2-MIDCAF_clean_linker_0--edge1-none
_symmetry_space_group_name_H-M    P1
_symmetry_Int_Tables_number       1
_symmetry_cell_setting            triclinic
loop_
_symmetry_equiv_pos_as_xyz
'x, y, z'
_cell_length_a     32.327379
_cell_length_b     32.321074
_cell_length_c     32.371495
_cell_angle_alpha  89.985376
_cell_angle_beta   89.887474
_cell_angle_gamma 89.756435
loop_
_atom_site_label
_atom_site_type_symbol
_atom_site_fract_x
_atom_site_fract_y
_atom_site_fract_z
_atom_type_partial_charge
C0 C 0.02186 0.38224 0.1832 0.0
C1 C 1.00614 0.37561 0.14341 0.0
C2 C 0.99105 0.3358 0.13361 0.0
C3 C 0.98889 0.3045 0.16382 0.0
H4 H 0.04598 0.23526 0.34981 0.0
H5 H 0.05313 0.18299 0.40367 0.0
H6 H 0.98109 0.09822 0.33047 0.0
H7 H 0.97242 0.1516 0.27739 0.0
H8 H 0.94733 0.27951 0.38659 0.0
H9 H 0.97155 0.32963 0.43655 0.0
H10 H 0.96118 0.42618 0.34454 0.0
H11 H 0.93579 0.37662 0.29518 0.0
H12 H 0.03052 0.35796 0.24408 0.0
H13 H 0.03421 0.4121 0.1918 0.0
H14 H 0.97885 0.32942 0.10314 0.0
H15 H 0.97381 0.27558 0.15644 0.0
N16 N 1.00262 0.24993 0.25157 0.0
N17 N 0.9652 0.25591 0.31382 0.0
N18 N 0.96197 0.30884 0.26563 0.0
C19 C 0.99019 0.23354 0.28876 0.0
C20 C 0.9515 0.29382 0.30305 0.0
C21 C 0.98699 0.28768 0.23958 0.0
C22 C 1.00962 0.19718 0.30869 0.0
C23 C 0.03339 0.20472 0.34433 0.0
C24 C 0.03676 0.17504 0.37571 0.0
C25 C 0.01729 0.13653 0.37188 0.0
C26 C 0.99654 0.1276 0.33458 0.0
C27 C 0.99224 0.15783 0.30359 0.0
C28 C 0.94217 0.32369 0.33614 0.0
C29 C 0.94873 0.31172 0.37742 0.0
C30 C 0.96362 0.34031 0.40584 0.0
C31 C 0.9712 0.38123 0.39347 0.0
C32 C 0.95772 0.3944 0.3544 0.0
C33 C 0.94231 0.36601 0.32626 0.0
C34 C 1.00274 0.31206 0.20414 0.0
C35 C 0.02049 0.35084 0.21295 0.0
C36 C 0.63963 0.04012 0.18495 0.0
C37 C 0.6467 0.02526 0.14482 0.0
C38 C 0.68667 1.01029 0.13488 0.0
C39 C 0.71736 1.00657 0.16527 0.0
H40 H 0.77226 0.02521 0.36944 0.0
H41 H 0.82547 0.0297 0.42234 0.0
H42 H 0.91837 1.00021 0.33062 0.0
H43 H 0.86435 0.99436 0.27796 0.0
H44 H 0.73125 0.9295 0.37655 0.0
H45 H 0.68172 0.95374 0.42667 0.0
H46 H 0.5878 0.9602 0.33182 0.0
H47 H 0.6385 0.93843 0.28084 0.0
H48 H 0.66289 0.04531 0.24663 0.0
H49 H 0.60959 0.05226 0.1937 0.0
H50 H 0.69355 0.99869 0.10423 0.0
H51 H 0.74611 0.99094 0.1577 0.0
N52 N 0.76666 1.01173 0.25782 0.0
N53 N 0.75777 0.96341 0.31141 0.0
N54 N 0.70877 0.96773 0.25945 0.0
C55 C 0.78063 0.99334 0.29342 0.0
C56 C 0.72143 0.95091 0.29538 0.0
C57 C 0.7308 0.99755 0.24024 0.0
C58 C 0.81426 1.01016 0.31933 0.0
C59 C 0.80431 0.0211 0.36033 0.0
C60 C 0.83477 0.02305 0.39088 0.0
C61 C 0.87627 0.01469 0.38119 0.0
C62 C 0.88666 1.00663 0.33945 0.0
C63 C 0.8559 1.00401 0.3089 0.0
C64 C 0.68967 0.93559 0.32423 0.0
C65 C 0.69973 0.93478 0.36641 0.0
C66 C 0.67139 0.94946 0.39518 0.0
C67 C 0.63167 0.96178 0.3826 0.0
C68 C 0.61899 0.95334 0.342 0.0
C69 C 0.64783 0.93971 0.31294 0.0
C70 C 0.70907 0.01847 0.20604 0.0
C71 C 0.67054 0.03697 0.21508 0.0
C72 C 0.99934 0.64087 0.18206 0.0
C73 C 0.01777 0.64706 0.14329 0.0
C74 C 0.0343 0.68644 0.13434 0.0
C75 C 0.03536 0.71764 0.16466 0.0
H76 H 0.99214 0.77151 0.37001 0.0
H77 H 0.98186 0.82517 0.42199 0.0
H78 H 0.01285 0.9179 0.3309 0.0
H79 H 0.02398 0.8637 0.27935 0.0
H80 H 0.0949 0.73165 0.38234 0.0
H81 H 0.06976 0.68206 0.43244 0.0
H82 H 0.05639 0.59104 0.33544 0.0
H83 H 0.08272 0.64007 0.2858 0.0
H84 H 0.9875 0.66544 0.24238 0.0
H85 H 0.9859 0.61128 0.18988 0.0
H86 H 0.04858 0.6924 0.10464 0.0
H87 H 0.05191 0.746 0.15827 0.0
N88 N 0.01629 0.76731 0.25762 0.0
N89 N 0.05767 0.75797 0.31664 0.0
N90 N 0.06356 0.71185 0.26212 0.0
C91 C 0.02907 0.78038 0.29592 0.0
C92 C 0.07454 0.72328 0.30059 0.0
C93 C 0.03495 0.73314 0.24028 0.0
C94 C 1.00842 0.81343 0.32034 0.0
C95 C 0.9952 0.80359 0.36074 0.0
C96 C 0.98979 0.83435 0.39079 0.0
C97 C 0.99723 0.876 0.38125 0.0
C98 C 1.00707 0.88614 0.33979 0.0
C99 C 0.01284 0.85518 0.30975 0.0
C100 C 0.0876 0.69077 0.3297 0.0
C101 C 0.08825 0.7005 0.37199 0.0
C102 C 0.07259 0.67241 0.40051 0.0
C103 C 0.05765 0.6339 0.3871 0.0
C104 C 0.06536 0.62137 0.3463 0.0
C105 C 0.08142 0.64936 0.31794 0.0
C106 C 0.01862 0.71062 0.20406 0.0
C107 C 0.99934 0.67236 0.2118 0.0
C108 C 0.38347 0.9919 0.18603 0.0
C109 C 0.3761 1.00523 0.14546 0.0
C110 C 0.33591 0.01925 0.13518 0.0
C111 C 0.30501 0.02307 0.16552 0.0
H112 H 0.2426 0.98815 0.36036 0.0
H113 H 0.18971 0.98083 0.41289 0.0
H114 H 0.09771 0.0251 0.32676 0.0
H115 H 0.15215 0.03539 0.27471 0.0
H116 H 0.28093 0.08503 0.38278 0.0
H117 H 0.33187 0.065 0.4337 0.0
H118 H 0.42787 0.07166 0.34065 0.0
H119 H 0.3769 0.09164 0.28969 0.0
H120 H 0.3601 0.98756 0.24779 0.0
H121 H 0.41369 0.98051 0.19505 0.0
H122 H 0.32891 0.02973 0.10418 0.0
H123 H 0.27577 0.03747 0.15755 0.0
N124 N 0.2524 0.01561 0.25465 0.0
N125 N 0.25748 0.05935 0.31252 0.0
N126 N 0.31003 0.0589 0.26371 0.0
C127 C 0.23587 0.03121 0.2905 0.0
C128 C 0.29482 0.07294 0.29993 0.0
C129 C 0.28943 0.03085 0.24071 0.0
C130 C 0.20139 1.01156 0.3131 0.0
C131 C 0.21076 0.9947 0.35205 0.0
C132 C 0.18035 0.99078 0.38243 0.0
C133 C 0.13923 1.0022 0.37436 0.0
C134 C 0.12907 0.01582 0.33412 0.0
C135 C 0.16004 0.02106 0.30392 0.0
C136 C 0.32448 0.0868 0.33153 0.0
C137 C 0.31309 0.08362 0.37337 0.0
C138 C 0.34224 0.07123 0.40248 0.0
C139 C 0.38321 0.06323 0.39024 0.0
C140 C 0.39594 0.07486 0.35038 0.0
C141 C 0.36677 0.08729 0.32132 0.0
C142 C 0.31345 0.01228 0.20654 0.0
C143 C 0.35247 0.99524 0.2161 0.0
C144 C 0.03546 0.63782 0.84005 0.0
C145 C 0.02474 0.64628 0.88123 0.0
C146 C 0.01317 0.68727 0.89158 0.0
C147 C 1.00922 0.718 0.86097 0.0
H148 H 0.04584 0.78411 0.66927 0.0
H149 H 0.05014 0.83688 0.61542 0.0
H150 H 0.98808 0.92369 0.69602 0.0
H151 H 0.98271 0.87009 0.74935 0.0
H152 H 0.94163 0.7433 0.64502 0.0
H153 H 0.96126 0.69208 0.5941 0.0
H154 H 0.95307 0.59626 0.68707 0.0
H155 H 0.93356 0.64754 0.73804 0.0
H156 H 0.03779 0.66014 0.77781 0.0
H157 H 0.04486 0.60697 0.83084 0.0
H158 H 1.00462 0.6951 0.92299 0.0
H159 H 0.99665 0.74798 0.86929 0.0
N160 N 0.01367 0.77048 0.7717 0.0
N161 N 0.96834 0.76631 0.71498 0.0
N162 N 0.96977 0.71322 0.76316 0.0
C163 C 0.99716 0.78751 0.73642 0.0
C164 C 0.95481 0.72896 0.72759 0.0
C165 C 0.99864 0.73325 0.78562 0.0
C166 C 0.01507 0.82327 0.71415 0.0
C167 C 0.03486 0.81509 0.67617 0.0
C168 C 0.03648 0.84507 0.6449 0.0
C169 C 0.01886 0.8844 0.65095 0.0
C170 C 1.00198 0.8937 0.69016 0.0
C171 C 0.99959 0.86328 0.7212 0.0
C172 C 0.93943 0.69981 0.69625 0.0
C173 C 0.94257 0.71113 0.6544 0.0
C174 C 0.95476 0.68182 0.62529 0.0
C175 C 0.96238 0.64084 0.63761 0.0
C176 C 0.95028 0.62822 0.67736 0.0
C177 C 0.93807 0.65755 0.7064 0.0
C178 C 0.01746 0.70861 0.81947 0.0
C179 C 0.03207 0.6686 0.80973 0.0
C180 C 0.18728 0.99393 0.63724 0.0
C181 C 0.14598 1.00477 0.6455 0.0
C182 C 0.13553 0.01606 0.68652 0.0
C183 C 0.16596 0.01938 0.71741 0.0
H184 H 0.35912 0.98475 0.78331 0.0
H185 H 0.41328 0.98145 0.83553 0.0
H186 H 0.329 0.03367 0.92511 0.0
H187 H 0.27544 0.03921 0.87174 0.0
H188 H 0.38262 0.08133 0.74579 0.0
H189 H 0.43276 0.05789 0.69532 0.0
H190 H 0.34093 0.07108 0.5991 0.0
H191 H 0.2911 0.09482 0.64937 0.0
H192 H 0.24951 0.99111 0.65984 0.0
H193 H 0.19668 0.98469 0.60645 0.0
H194 H 0.10405 0.02452 0.69444 0.0
H195 H 0.15741 0.03153 0.74743 0.0
N196 N 0.25474 0.0134 0.77077 0.0
N197 N 0.31117 0.05918 0.76806 0.0
N198 N 0.26414 0.05813 0.71414 0.0
C199 C 0.28966 0.02988 0.78854 0.0
C200 C 0.29948 0.07286 0.73055 0.0
C201 C 0.24131 0.02905 0.73355 0.0
C202 C 0.31239 1.01107 0.82362 0.0
C203 C 0.35154 0.9938 0.81468 0.0
C204 C 0.383 0.99273 0.84441 0.0
C205 C 0.37592 1.00774 0.88446 0.0
C206 C 0.33569 0.02189 0.89449 0.0
C207 C 0.30451 0.02421 0.86422 0.0
C208 C 0.33198 0.08683 0.7019 0.0
C209 C 0.37353 0.0809 0.7136 0.0
C210 C 0.40216 0.06653 0.68476 0.0
C211 C 0.38995 0.05988 0.64376 0.0
C212 C 0.35082 0.07392 0.6309 0.0
C213 C 0.32237 0.08847 0.65967 0.0
C214 C 0.20754 1.01092 0.70829 0.0
C215 C 0.21751 0.99691 0.66817 0.0
C216 C 0.98114 0.38477 0.8412 0.0
C217 C 0.99376 0.37705 0.88196 0.0
C218 C 1.00784 0.33675 0.89189 0.0
C219 C 0.01272 0.30634 0.86114 0.0
H220 H 0.9968 0.25047 0.65652 0.0
H221 H 0.99404 0.19713 0.60325 0.0
H222 H 0.02934 0.10552 0.69394 0.0
H223 H 0.0328 0.15949 0.74695 0.0
H224 H 0.09715 0.2933 0.65105 0.0
H225 H 0.074 0.34311 0.60038 0.0
H226 H 0.06126 0.43551 0.69622 0.0
H227 H 0.08379 0.38536 0.74708 0.0
H228 H 0.97854 0.36234 0.77898 0.0
H229 H 0.96987 0.41509 0.83233 0.0
H230 H 0.01792 0.32944 0.92294 0.0
H231 H 0.02761 0.2773 0.869 0.0
N232 N 1.01058 0.2572 0.76788 0.0
N233 N 0.0598 0.26634 0.71501 0.0
N234 N 0.05466 0.31504 0.76735 0.0
C235 C 0.02964 0.24331 0.73243 0.0
C236 C 0.07213 0.30253 0.7316 0.0
C237 C 0.02438 0.2931 0.78594 0.0
C238 C 0.014 0.20904 0.70629 0.0
C239 C 1.00249 0.2186 0.66536 0.0
C240 C 1.0017 0.18812 0.63455 0.0
C241 C 0.01222 0.14697 0.64377 0.0
C242 C 0.02123 0.13691 0.68539 0.0
C243 C 0.02246 0.16765 0.71619 0.0
C244 C 0.08845 0.33442 0.70346 0.0
C245 C 0.09087 0.32465 0.66123 0.0
C246 C 0.07657 0.35298 0.63221 0.0
C247 C 0.06213 0.39196 0.64503 0.0
C248 C 0.06941 0.40467 0.68586 0.0
C249 C 0.08343 0.37613 0.7149 0.0
C250 C 1.00278 0.31514 0.81992 0.0
C251 C 0.98534 0.35415 0.81074 0.0
C252 C 0.84478 0.04218 0.64556 0.0
C253 C 0.88464 0.02572 0.65132 0.0
C254 C 0.89402 1.00792 0.69014 0.0
C255 C 0.8634 1.00354 0.72083 0.0
H256 H 0.66282 0.03382 0.7823 0.0
H257 H 0.609 0.03598 0.83508 0.0
H258 H 0.69579 0.98857 0.92462 0.0
H259 H 0.7494 0.98449 0.87072 0.0
H260 H 0.64751 0.93765 0.73727 0.0
H261 H 0.59609 0.95706 0.68671 0.0
H262 H 0.69077 0.96064 0.59215 0.0
H263 H 0.74243 0.942 0.64292 0.0
H264 H 0.78323 0.04844 0.66957 0.0
H265 H 0.83633 0.05637 0.61645 0.0
H266 H 0.92434 0.99478 0.69591 0.0
H267 H 0.87055 0.98609 0.7485 0.0
N268 N 0.77168 1.01108 0.7729 0.0
N269 N 0.71527 0.96633 0.76319 0.0
N270 N 0.76597 0.97062 0.71263 0.0
C271 C 0.73544 0.99389 0.7871 0.0
C272 C 0.72963 0.95497 0.72576 0.0
C273 C 0.78755 0.99799 0.73558 0.0
C274 C 0.71085 1.00999 0.82249 0.0
C275 C 0.6709 0.02528 0.81366 0.0
C276 C 0.6397 0.02576 0.84374 0.0
C277 C 0.64765 0.01186 0.884 0.0
C278 C 0.68845 0.99937 0.89381 0.0
C279 C 0.71956 0.99784 0.86321 0.0
C280 C 0.69947 0.94127 0.69464 0.0
C281 C 0.6573 0.94128 0.70545 0.0
C282 C 0.62781 0.95325 0.67658 0.0
C283 C 0.63997 0.96357 0.63626 0.0
C284 C 0.68081 0.95526 0.62366 0.0
C285 C 0.71037 0.94366 0.65266 0.0
C286 C 0.8229 0.01765 0.71387 0.0
C287 C 0.81449 0.03836 0.67645 0.0
C288 C 0.16423 0.36543 0.98156 0.0
C289 C 0.12876 0.36475 1.00659 0.0
C290 C 0.12229 0.33005 0.03213 0.0
C291 C 0.15271 0.29892 0.03554 0.0
H292 H 0.35803 0.24377 0.9869 0.0
H293 H 0.41147 0.1908 0.98054 0.0
H294 H 0.32638 0.10017 0.02914 0.0
H295 H 0.27305 0.15394 0.03612 0.0
H296 H 0.36875 0.29521 0.09203 0.0
H297 H 0.42056 0.34687 0.07668 0.0
H298 H 0.32412 0.43546 0.04792 0.0
H299 H 0.27223 0.38386 0.06355 0.0
H300 H 0.22248 0.33723 0.96681 0.0
H301 H 0.16996 0.39134 0.96135 0.0
H302 H 0.09522 0.32857 0.05186 0.0
H303 H 0.14909 0.27517 0.05887 0.0
N304 N 0.24639 0.24743 0.0152 0.0
N305 N 0.30644 0.26487 0.05218 0.0
N306 N 0.24986 0.3093 0.05358 0.0
C307 C 0.28586 0.23788 0.02791 0.0
C308 C 0.28904 0.30069 0.06492 0.0
C309 C 0.22805 0.28321 0.02938 0.0
C310 C 0.311 0.20295 0.01144 0.0
C311 C 0.35027 0.21216 0.99488 0.0
C312 C 0.38122 0.18185 0.99176 0.0
C313 C 0.37381 0.14116 1.00494 0.0
C314 C 0.33348 0.13119 0.01876 0.0
C315 C 0.30249 0.16182 0.02221 0.0
C316 C 0.31656 0.33478 0.07678 0.0
C317 C 0.35854 0.3261 0.08378 0.0
C318 C 0.38825 0.35553 0.07416 0.0
C319 C 0.37627 0.39419 0.05817 0.0
C320 C 0.33424 0.40521 0.05831 0.0
C321 C 0.30446 0.37572 0.06795 0.0
C322 C 0.18948 0.30109 0.01236 0.0
C323 C 0.19389 0.33377 0.98399 0.0
C324 C 0.19603 0.62422 0.0176 0.0
C325 C 0.15418 0.63574 0.01643 0.0
C326 C 0.14455 0.67861 0.01533 0.0
C327 C 0.17578 0.70873 0.01249 0.0
H328 H 0.3643 0.77643 0.04596 0.0
H329 H 0.41639 0.8305 0.05329 0.0
H330 H 0.3312 0.91865 0.99971 0.0
H331 H 0.27985 0.86405 0.99156 0.0
H332 H 0.38996 0.74604 0.93945 0.0
H333 H 0.43882 0.69555 0.96575 0.0
H334 H 0.34922 0.59869 0.94602 0.0
H335 H 0.30071 0.64912 0.91915 0.0
H336 H 0.25902 0.64397 0.01353 0.0
H337 H 0.2049 0.5919 0.01897 0.0
H338 H 0.1127 0.68908 0.01479 0.0
H339 H 0.16723 0.74093 1.00861 0.0
N340 N 0.26237 0.76093 0.01352 0.0
N341 N 0.31816 0.76457 0.96669 0.0
N342 N 0.27266 0.70947 0.96311 0.0
C343 C 0.29641 0.78137 0.99825 0.0
C344 C 0.30718 0.72834 0.94933 0.0
C345 C 0.25001 0.72487 0.99471 0.0
C346 C 0.31733 0.81618 0.01935 0.0
C347 C 0.35601 0.8079 0.03773 0.0
C348 C 0.3863 0.83875 0.04107 0.0
C349 C 0.3786 0.87899 0.02648 0.0
C350 C 0.33859 0.88806 0.01125 0.0
C351 C 0.30855 0.85695 1.00731 0.0
C352 C 0.34003 0.70191 0.93168 0.0
C353 C 0.3812 0.71372 0.93907 0.0
C354 C 0.40887 0.68492 0.95535 0.0
C355 C 0.39602 0.64397 0.96195 0.0
C356 C 0.35867 0.63072 0.94438 0.0
C357 C 0.33135 0.65953 0.92773 0.0
C358 C 0.21743 0.69678 0.01099 0.0
C359 C 0.2271 0.65427 0.01496 0.0
C360 C 0.82617 0.39952 0.01884 0.0
C361 C 0.86798 0.38784 0.0197 0.0
C362 C 0.87751 0.34495 0.01964 0.0
C363 C 0.84633 0.3149 0.01585 0.0
H364 H 0.66084 0.2455 0.04781 0.0
H365 H 0.60766 0.19215 0.05284 0.0
H366 H 0.6917 0.10464 0.9962 0.0
H367 H 0.74402 0.15853 0.99021 0.0
H368 H 0.63319 0.27455 0.94241 0.0
H369 H 0.58388 0.32466 0.96919 0.0
H370 H 0.67221 0.42218 0.94747 0.0
H371 H 0.72054 0.37261 0.91915 0.0
H372 H 0.76338 0.37996 0.0122 0.0
H373 H 0.81735 0.43188 0.01929 0.0
H374 H 0.90932 0.33439 0.02073 0.0
H375 H 0.85492 0.2826 0.01299 0.0
N376 N 0.76116 0.26207 0.0143 0.0
N377 N 0.70598 0.25715 0.9671 0.0
N378 N 0.74985 0.31358 0.96419 0.0
C379 C 0.72784 0.24086 0.99873 0.0
C380 C 0.71596 0.29382 0.95013 0.0
C381 C 0.77275 0.29852 0.99573 0.0
C382 C 0.70723 0.20593 0.01976 0.0
C383 C 0.66863 0.21421 0.03849 0.0
C384 C 0.6377 0.18389 0.04038 0.0
C385 C 0.64482 0.1442 0.02417 0.0
C386 C 0.68478 0.1349 1.00887 0.0
C387 C 0.7154 0.16552 1.00626 0.0
C388 C 0.68229 0.3194 0.93292 0.0
C389 C 0.64142 0.307 0.9415 0.0
C390 C 0.61353 0.33554 0.95808 0.0
C391 C 0.62592 0.37667 0.96403 0.0
C392 C 0.66291 0.39019 0.94577 0.0
C393 C 0.69021 0.36181 0.92844 0.0
C394 C 0.80487 0.32699 0.01215 0.0
C395 C 0.79516 0.36956 0.01511 0.0
C396 C 0.64217 0.84144 0.02531 0.0
C397 C 0.6496 0.88244 0.01338 0.0
C398 C 0.69005 0.89308 1.00051 0.0
C399 C 0.72134 0.86271 0.99689 0.0
H400 H 0.8014 0.68922 0.05644 0.0
H401 H 0.85305 0.63429 0.06291 0.0
H402 H 0.928 0.69354 0.97011 0.0
H403 H 0.87505 0.74764 0.96221 0.0
H404 H 0.75182 0.63867 0.96277 0.0
H405 H 0.7005 0.58816 0.98371 0.0
H406 H 0.60329 0.67641 0.95691 0.0
H407 H 0.65412 0.72626 0.93491 0.0
H408 H 0.66579 0.77981 0.03008 0.0
H409 H 0.61181 0.83206 0.03578 0.0
H410 H 0.69699 0.92448 0.99117 0.0
H411 H 0.75099 0.87107 0.98375 0.0
N412 N 0.77801 0.77735 1.00449 0.0
N413 N 0.77427 0.7137 0.96911 0.0
N414 N 0.71815 0.75855 0.96801 0.0
C415 C 0.79622 0.74089 0.99193 0.0
C416 C 0.73513 0.72189 0.95744 0.0
C417 C 0.7387 0.78655 0.99108 0.0
C418 C 0.83464 0.72359 1.00968 0.0
C419 C 0.82992 0.69174 0.03897 0.0
C420 C 0.85899 0.65959 0.04192 0.0
C421 C 0.89417 0.65904 0.0165 0.0
C422 C 0.90108 0.69301 0.9901 0.0
C423 C 0.87125 0.72459 0.9862 0.0
C424 C 0.70703 0.68723 0.94914 0.0
C425 C 0.71941 0.64681 0.95986 0.0
C426 C 0.69005 0.61809 0.97273 0.0
C427 C 0.64814 0.6294 0.97454 0.0
C428 C 0.63557 0.66749 0.95778 0.0
C429 C 0.66473 0.69586 0.94437 0.0
C430 C 0.71296 0.82134 1.00693 0.0
C431 C 0.67344 0.81156 0.02254 0.0
C432 C 0.52191 0.88215 0.68331 0.0
C433 C 0.50615 0.87556 0.64353 0.0
C434 C 0.49101 0.83576 0.63371 0.0
C435 C 0.48885 0.80445 0.6639 0.0
H436 H 0.5457 0.73541 0.85016 0.0
H437 H 0.55287 0.68313 0.90401 0.0
H438 H 0.48129 0.59817 0.83057 0.0
H439 H 0.4726 0.65155 0.77749 0.0
H440 H 0.44701 0.77962 0.8866 0.0
H441 H 0.47128 0.82975 0.93651 0.0
H442 H 0.4612 0.9262 0.84437 0.0
H443 H 0.43575 0.87662 0.79505 0.0
H444 H 0.5306 0.85781 0.74416 0.0
H445 H 0.53428 0.91199 0.69192 0.0
H446 H 0.47877 0.82942 0.60325 0.0
H447 H 0.47373 0.77555 0.65651 0.0
N448 N 0.5026 0.7499 0.75172 0.0
N449 N 0.46508 0.75594 0.8139 0.0
N450 N 0.46186 0.80878 0.76562 0.0
C451 C 0.49013 0.73355 0.78891 0.0
C452 C 0.45136 0.79381 0.80305 0.0
C453 C 0.48694 0.78761 0.73965 0.0
C454 C 0.50956 0.69723 0.80892 0.0
C455 C 0.53321 0.70483 0.84463 0.0
C456 C 0.5366 0.67514 0.876 0.0
C457 C 0.51726 0.63657 0.8721 0.0
C458 C 0.49663 0.6276 0.83474 0.0
C459 C 0.49232 0.65783 0.80375 0.0
C460 C 0.44199 0.82373 0.83608 0.0
C461 C 0.44847 0.81181 0.87738 0.0
C462 C 0.46341 0.8404 0.90578 0.0
C463 C 0.4711 0.8813 0.89336 0.0
C464 C 0.45766 0.89444 0.85427 0.0
C465 C 0.44221 0.86604 0.82615 0.0
C466 C 0.50275 0.81197 0.70421 0.0
C467 C 0.52054 0.85073 0.71304 0.0
C468 C 0.13966 0.54013 0.68508 0.0
C469 C 0.14672 0.52527 0.64495 0.0
C470 C 0.18668 0.51032 0.63498 0.0
C471 C 0.21739 0.50661 0.66535 0.0
H472 H 0.27223 0.5251 0.86958 0.0
H473 H 0.32541 0.5296 0.9225 0.0
H474 H 0.41838 0.50033 0.83077 0.0
H475 H 0.36438 0.49448 0.77809 0.0
H476 H 0.23127 0.42939 0.87655 0.0
H477 H 0.18174 0.45371 0.92662 0.0
H478 H 0.08787 0.46015 0.83172 0.0
H479 H 0.13858 0.43832 0.78078 0.0
H480 H 0.16297 0.54533 0.74675 0.0
H481 H 0.10962 0.55226 0.69385 0.0
H482 H 0.19355 0.49873 0.60433 0.0
H483 H 0.24613 0.49099 0.65776 0.0
N484 N 0.2667 0.51176 0.75793 0.0
N485 N 0.25782 0.46337 0.81146 0.0
N486 N 0.20885 0.46769 0.75946 0.0
C487 C 0.28066 0.49335 0.79351 0.0
C488 C 0.2215 0.45084 0.79538 0.0
C489 C 0.23087 0.49756 0.7403 0.0
C490 C 0.31426 0.51016 0.81947 0.0
C491 C 0.30428 0.52104 0.86047 0.0
C492 C 0.33473 0.523 0.89103 0.0
C493 C 0.37625 0.51469 0.88135 0.0
C494 C 0.38666 0.5067 0.8396 0.0
C495 C 0.35591 0.50408 0.80904 0.0
C496 C 0.18973 0.43548 0.8242 0.0
C497 C 0.19977 0.43468 0.86638 0.0
C498 C 0.17142 0.44941 0.89513 0.0
C499 C 0.13171 0.46174 0.88252 0.0
C500 C 0.11905 0.45328 0.84192 0.0
C501 C 0.14789 0.43961 0.81289 0.0
C502 C 0.20913 0.51851 0.70612 0.0
C503 C 0.1706 0.53699 0.7152 0.0
C504 C 0.49939 0.14085 0.68222 0.0
C505 C 0.51777 0.14704 0.64343 0.0
C506 C 0.53424 0.18644 0.63444 0.0
C507 C 0.53529 0.21765 0.66474 0.0
H508 H 0.4922 0.2715 0.8701 0.0
H509 H 0.48189 0.32512 0.9221 0.0
H510 H 0.51279 0.41791 0.83105 0.0
H511 H 0.52394 0.36375 0.77947 0.0
H512 H 0.595 0.23174 0.88237 0.0
H513 H 0.56981 0.18213 0.93242 0.0
H514 H 0.55656 0.09113 0.83539 0.0
H515 H 0.58295 0.14019 0.78579 0.0
H516 H 0.48759 0.16543 0.74254 0.0
H517 H 0.48599 0.11125 0.69007 0.0
H518 H 0.54848 0.19241 0.60472 0.0
H519 H 0.55181 0.24603 0.65832 0.0
N520 N 0.51628 0.26733 0.75771 0.0
N521 N 0.55775 0.25805 0.81668 0.0
N522 N 0.56363 0.21194 0.76216 0.0
C523 C 0.52909 0.28043 0.796 0.0
C524 C 0.57464 0.22338 0.80061 0.0
C525 C 0.53496 0.23318 0.74035 0.0
C526 C 0.50842 0.31345 0.82044 0.0
C527 C 0.49523 0.30358 0.86083 0.0
C528 C 0.4898 0.33432 0.89091 0.0
C529 C 0.49721 0.37598 0.88138 0.0
C530 C 0.50703 0.38615 0.83992 0.0
C531 C 0.51281 0.35521 0.80987 0.0
C532 C 0.58775 0.19088 0.82971 0.0
C533 C 0.58837 0.20059 0.872 0.0
C534 C 0.57268 0.17249 0.9005 0.0
C535 C 0.55775 0.13398 0.88706 0.0
C536 C 0.56552 0.12146 0.84627 0.0
C537 C 0.58161 0.14946 0.81793 0.0
C538 C 0.51861 0.21063 0.70417 0.0
C539 C 0.49939 0.17235 0.71195 0.0
C540 C 0.8833 0.49173 0.68608 0.0
C541 C 0.87601 0.50517 0.64553 0.0
C542 C 0.83585 0.51928 0.63524 0.0
C543 C 0.80492 0.52308 0.66555 0.0
H544 H 0.74266 0.48839 0.86066 0.0
H545 H 0.68977 0.48106 0.91318 0.0
H546 H 0.59768 0.52478 0.82687 0.0
H547 H 0.65211 0.53507 0.77481 0.0
H548 H 0.78101 0.58526 0.88273 0.0
H549 H 0.83199 0.56524 0.93362 0.0
H550 H 0.92788 0.57157 0.84043 0.0
H551 H 0.87687 0.59156 0.7895 0.0
H552 H 0.85985 0.4873 0.74781 0.0
H553 H 0.91349 0.48026 0.69511 0.0
H554 H 0.8289 0.52984 0.60426 0.0
H555 H 0.77573 0.53756 0.65758 0.0
N556 N 0.75232 0.51552 0.75477 0.0
N557 N 0.75747 0.55935 0.81256 0.0
N558 N 0.80993 0.55889 0.76366 0.0
C559 C 0.73585 0.53116 0.79063 0.0
C560 C 0.79478 0.57296 0.79989 0.0
C561 C 0.78931 0.53079 0.74073 0.0
C562 C 0.70141 0.51153 0.81331 0.0
C563 C 0.7108 0.49482 0.85231 0.0
C564 C 0.68039 0.4909 0.88269 0.0
C565 C 0.63924 0.50216 0.87456 0.0
C566 C 0.62906 0.51562 0.83428 0.0
C567 C 0.66003 0.52087 0.80408 0.0
C568 C 0.8245 0.58686 0.83141 0.0
C569 C 0.81316 0.58378 0.87327 0.0
C570 C 0.84232 0.57139 0.90237 0.0
C571 C 0.88327 0.5633 0.89008 0.0
C572 C 0.89596 0.57485 0.8502 0.0
C573 C 0.86678 0.58728 0.82115 0.0
C574 C 0.81329 0.51218 0.70656 0.0
C575 C 0.85227 0.49504 0.71612 0.0
C576 C 0.53541 0.13779 0.34019 0.0
C577 C 0.52469 0.14625 0.38137 0.0
C578 C 0.51311 0.18725 0.39171 0.0
C579 C 0.50916 0.21797 0.36109 0.0
H580 H 0.54607 0.28425 0.16963 0.0
H581 H 0.55037 0.337 0.11576 0.0
H582 H 0.48779 0.42367 0.19611 0.0
H583 H 0.48242 0.37008 0.24946 0.0
H584 H 0.44187 0.24335 0.14505 0.0
H585 H 0.46146 0.19216 0.09408 0.0
H586 H 0.45317 0.09625 0.18696 0.0
H587 H 0.43369 0.1475 0.23797 0.0
H588 H 0.53776 0.1601 0.27796 0.0
H589 H 0.54482 0.10694 0.33099 0.0
H590 H 0.50455 0.19508 0.42312 0.0
H591 H 0.49659 0.24796 0.36942 0.0
N592 N 0.51362 0.2705 0.27189 0.0
N593 N 0.46839 0.26632 0.21508 0.0
N594 N 0.46983 0.21317 0.26321 0.0
C595 C 0.49714 0.28754 0.2366 0.0
C596 C 0.4549 0.22894 0.22762 0.0
C597 C 0.49863 0.23323 0.28574 0.0
C598 C 0.51504 0.32334 0.21439 0.0
C599 C 0.53498 0.3152 0.17648 0.0
C600 C 0.53659 0.34517 0.14519 0.0
C601 C 0.51883 0.38444 0.15116 0.0
C602 C 0.5018 0.39372 0.19032 0.0
C603 C 0.49941 0.36331 0.22137 0.0
C604 C 0.4396 0.1998 0.19623 0.0
C605 C 0.44278 0.21116 0.1544 0.0
C606 C 0.45495 0.18188 0.12526 0.0
C607 C 0.46252 0.14087 0.13753 0.0
C608 C 0.45041 0.12823 0.17727 0.0
C609 C 0.43822 0.15753 0.20634 0.0
C610 C 0.51741 0.20858 0.3196 0.0
C611 C 0.53202 0.16857 0.30987 0.0
C612 C 0.68717 0.4937 0.13746 0.0
C613 C 0.6459 0.50471 0.14568 0.0
C614 C 0.63546 0.51616 0.18666 0.0
C615 C 0.6659 0.51947 0.21755 0.0
H616 H 0.85919 0.48476 0.28337 0.0
H617 H 0.91332 0.48145 0.33562 0.0
H618 H 0.82898 0.53358 0.42519 0.0
H619 H 0.77544 0.53914 0.3718 0.0
H620 H 0.88263 0.58119 0.24568 0.0
H621 H 0.93276 0.55785 0.19517 0.0
H622 H 0.84086 0.57099 0.09901 0.0
H623 H 0.79102 0.59458 0.14934 0.0
H624 H 0.74937 0.49075 0.1601 0.0
H625 H 0.69655 0.48434 0.10671 0.0
H626 H 0.60402 0.52475 0.19454 0.0
H627 H 0.65738 0.53175 0.24753 0.0
N628 N 0.75473 0.51336 0.27089 0.0
N629 N 0.81121 0.55907 0.26804 0.0
N630 N 0.76411 0.55799 0.21418 0.0
C631 C 0.78969 0.52982 0.28859 0.0
C632 C 0.79948 0.57271 0.23053 0.0
C633 C 0.74127 0.52897 0.23366 0.0
C634 C 0.81243 0.51104 0.32368 0.0
C635 C 0.8516 0.49379 0.31475 0.0
C636 C 0.88304 0.4927 0.34449 0.0
C637 C 0.87593 0.50769 0.38455 0.0
C638 C 0.83569 0.52182 0.39456 0.0
C639 C 0.80452 0.52415 0.36428 0.0
C640 C 0.83195 0.58664 0.20183 0.0
C641 C 0.87351 0.58076 0.21349 0.0
C642 C 0.90215 0.56646 0.18463 0.0
C643 C 0.88992 0.55982 0.14363 0.0
C644 C 0.85076 0.5738 0.1308 0.0
C645 C 0.82231 0.58828 0.15961 0.0
C646 C 0.70746 0.51084 0.20847 0.0
C647 C 0.71739 0.49667 0.1684 0.0
C648 C 0.48105 0.88473 0.34137 0.0
C649 C 0.49372 0.87702 0.38211 0.0
C650 C 0.50784 0.83673 0.39202 0.0
C651 C 0.51272 0.80632 0.36127 0.0
H652 H 0.49655 0.75037 0.15673 0.0
H653 H 0.49381 0.69702 0.10347 0.0
H654 H 0.52952 0.60549 0.19408 0.0
H655 H 0.53296 0.65947 0.24709 0.0
H656 H 0.59695 0.79333 0.1511 0.0
H657 H 0.57392 0.84312 0.10038 0.0
H658 H 0.56107 0.93558 0.19616 0.0
H659 H 0.58351 0.88544 0.24707 0.0
H660 H 0.47839 0.86229 0.27915 0.0
H661 H 0.46974 0.91504 0.33251 0.0
H662 H 0.51797 0.82943 0.42306 0.0
H663 H 0.52764 0.7773 0.36912 0.0
N664 N 0.51054 0.75716 0.26804 0.0
N665 N 0.55967 0.76636 0.21509 0.0
N666 N 0.55452 0.81508 0.26741 0.0
C667 C 0.52958 0.74329 0.23257 0.0
C668 C 0.57196 0.80258 0.23165 0.0
C669 C 0.52431 0.7931 0.28606 0.0
C670 C 0.51396 0.70898 0.20647 0.0
C671 C 0.50233 0.71851 0.16556 0.0
C672 C 0.50156 0.68803 0.13475 0.0
C673 C 0.51219 0.6469 0.14396 0.0
C674 C 0.52131 0.63686 0.18555 0.0
C675 C 0.52254 0.6676 0.21635 0.0
C676 C 0.58822 0.83447 0.20348 0.0
C677 C 0.59068 0.82468 0.16125 0.0
C678 C 0.57644 0.853 0.13221 0.0
C679 C 0.56201 0.89201 0.14499 0.0
C680 C 0.56923 0.90473 0.18582 0.0
C681 C 0.58319 0.87619 0.2149 0.0
C682 C 0.50272 0.81512 0.32006 0.0
C683 C 0.48524 0.85411 0.3109 0.0
C684 C 0.34485 0.5423 0.14579 0.0
C685 C 0.38468 0.52572 0.15149 0.0
C686 C 0.39403 0.50781 0.19026 0.0
C687 C 0.36341 0.50344 0.22096 0.0
H688 H 0.16275 0.53384 0.28243 0.0
H689 H 0.10896 0.53598 0.33523 0.0
H690 H 0.19579 0.48855 0.42473 0.0
H691 H 0.24938 0.48448 0.3708 0.0
H692 H 0.14745 0.43779 0.2372 0.0
H693 H 0.09606 0.45714 0.1866 0.0
H694 H 0.19082 0.46083 0.09213 0.0
H695 H 0.24245 0.44223 0.14294 0.0
H696 H 0.28333 0.54866 0.16985 0.0
H697 H 0.33643 0.55658 0.11671 0.0
H698 H 0.42431 0.49458 0.19599 0.0
H699 H 0.37052 0.4859 0.24859 0.0
N700 N 0.27167 0.51108 0.27304 0.0
N701 N 0.2152 0.46643 0.26322 0.0
N702 N 0.26596 0.47072 0.21271 0.0
C703 C 0.23539 0.49392 0.28718 0.0
C704 C 0.22959 0.4551 0.22578 0.0
C705 C 0.28755 0.49803 0.23572 0.0
C706 C 0.2108 0.50999 0.32259 0.0
C707 C 0.17085 0.52529 0.31378 0.0
C708 C 0.13966 0.52576 0.34388 0.0
C709 C 0.14763 0.51185 0.38413 0.0
C710 C 0.18843 0.49936 0.39392 0.0
C711 C 0.21953 0.49783 0.36331 0.0
C712 C 0.19945 0.44145 0.19462 0.0
C713 C 0.15727 0.44143 0.20539 0.0
C714 C 0.1278 0.45337 0.1765 0.0
C715 C 0.13998 0.46369 0.13619 0.0
C716 C 0.18084 0.45544 0.12362 0.0
C717 C 0.21038 0.44387 0.15265 0.0
C718 C 0.32294 0.51767 0.21406 0.0
C719 C 0.31457 0.53849 0.17669 0.0
C720 C 0.66421 0.86542 0.48164 0.0
C721 C 0.62876 0.86474 0.50668 0.0
C722 C 0.6223 0.83004 0.53223 0.0
C723 C 0.65274 0.79891 0.53563 0.0
H724 H 0.85792 0.74363 0.48676 0.0
H725 H 0.91136 0.69066 0.48044 0.0
H726 H 0.82639 0.60013 0.52944 0.0
H727 H 0.77307 0.65391 0.53637 0.0
H728 H 0.86889 0.79518 0.59181 0.0
H729 H 0.92068 0.84684 0.57641 0.0
H730 H 0.82421 0.93545 0.54783 0.0
H731 H 0.77233 0.88386 0.56352 0.0
H732 H 0.72245 0.83722 0.46685 0.0
H733 H 0.66992 0.89133 0.46141 0.0
H734 H 0.59525 0.82856 0.55198 0.0
H735 H 0.64914 0.77516 0.55897 0.0
N736 N 0.74638 0.74739 0.51527 0.0
N737 N 0.80648 0.76483 0.55216 0.0
N738 N 0.74993 0.80931 0.55356 0.0
C739 C 0.78585 0.73783 0.52795 0.0
C740 C 0.78912 0.80068 0.56486 0.0
C741 C 0.72807 0.78321 0.52942 0.0
C742 C 0.81095 0.70286 0.51149 0.0
C743 C 0.85019 0.71204 0.49483 0.0
C744 C 0.88114 0.68172 0.49174 0.0
C745 C 0.87376 0.64108 0.50504 0.0
C746 C 0.83346 0.63113 0.51895 0.0
C747 C 0.80247 0.66176 0.52239 0.0
C748 C 0.81667 0.83477 0.57667 0.0
C749 C 0.85866 0.82608 0.58359 0.0
C750 C 0.88837 0.8555 0.57394 0.0
C751 C 0.87637 0.89417 0.55799 0.0
C752 C 0.83434 0.9052 0.55819 0.0
C753 C 0.80458 0.87571 0.56787 0.0
C754 C 0.68949 0.80108 0.51243 0.0
C755 C 0.69387 0.83377 0.48406 0.0
C756 C 0.69601 0.12419 0.51774 0.0
C757 C 0.65416 0.13571 0.51659 0.0
C758 C 0.64454 0.17858 0.51551 0.0
C759 C 0.67577 0.20869 0.51268 0.0
H760 H 0.86443 0.27632 0.546 0.0
H761 H 0.91651 0.3304 0.55331 0.0
H762 H 0.83116 0.4186 0.50006 0.0
H763 H 0.77981 0.364 0.49194 0.0
H764 H 0.88987 0.24606 0.4394 0.0
H765 H 0.93878 0.19557 0.46561 0.0
H766 H 0.84915 0.0987 0.44601 0.0
H767 H 0.80059 0.14914 0.41924 0.0
H768 H 0.75901 0.14394 0.51367 0.0
H769 H 0.70488 0.09187 0.5191 0.0
H770 H 0.61269 0.18905 0.51498 0.0
H771 H 0.66722 0.2409 0.50882 0.0
N772 N 0.76239 0.26087 0.51373 0.0
N773 N 0.81813 0.26455 0.46684 0.0
N774 N 0.7726 0.20947 0.46324 0.0
C775 C 0.79642 0.28132 0.49845 0.0
C776 C 0.80711 0.22834 0.44944 0.0
C777 C 0.74999 0.22484 0.49489 0.0
C778 C 0.81738 0.31609 0.51956 0.0
C779 C 0.85611 0.30779 0.53784 0.0
C780 C 0.88639 0.33866 0.54118 0.0
C781 C 0.87864 0.37892 0.52666 0.0
C782 C 0.83859 0.388 0.51154 0.0
C783 C 0.80856 0.35688 0.50761 0.0
C784 C 0.83993 0.20193 0.43171 0.0
C785 C 0.88111 0.21373 0.43903 0.0
C786 C 0.90881 0.18493 0.45526 0.0
C787 C 0.89598 0.14398 0.46187 0.0
C788 C 0.8586 0.13073 0.44437 0.0
C789 C 0.83124 0.15954 0.42776 0.0
C790 C 0.71741 0.19674 0.51117 0.0
C791 C 0.72708 0.15424 0.51511 0.0
C792 C 0.32616 0.89947 0.51907 0.0
C793 C 0.36798 0.8878 0.5199 0.0
C794 C 0.37752 0.84491 0.51985 0.0
C795 C 0.34634 0.81486 0.51607 0.0
H796 H 0.16076 0.7455 0.54794 0.0
H797 H 0.10758 0.69215 0.55294 0.0
H798 H 0.1917 0.60461 0.49646 0.0
H799 H 0.24402 0.6585 0.49051 0.0
H800 H 0.13325 0.77452 0.44249 0.0
H801 H 0.08392 0.82467 0.46915 0.0
H802 H 0.17234 0.92213 0.4475 0.0
H803 H 0.22068 0.87253 0.41928 0.0
H804 H 0.26337 0.8799 0.51245 0.0
H805 H 0.31734 0.93183 0.51952 0.0
H806 H 0.40933 0.83436 0.52092 0.0
H807 H 0.35494 0.78256 0.5132 0.0
N808 N 0.26115 0.76204 0.51454 0.0
N809 N 0.206 0.75711 0.46729 0.0
N810 N 0.2499 0.81352 0.46438 0.0
C811 C 0.22782 0.74083 0.49895 0.0
C812 C 0.21601 0.79376 0.4503 0.0
C813 C 0.27276 0.79847 0.49596 0.0
C814 C 0.20719 0.70592 0.51998 0.0
C815 C 0.16857 0.71421 0.53865 0.0
C816 C 0.13764 0.68389 0.54052 0.0
C817 C 0.14478 0.64418 0.52435 0.0
C818 C 0.18476 0.63488 0.50911 0.0
C819 C 0.21537 0.66549 0.50652 0.0
C820 C 0.18238 0.81934 0.43303 0.0
C821 C 0.1415 0.80697 0.44156 0.0
C822 C 0.11359 0.83553 0.45808 0.0
C823 C 0.12599 0.87666 0.46401 0.0
C824 C 0.16301 0.89015 0.4458 0.0
C825 C 0.19033 0.86174 0.42852 0.0
C826 C 0.30487 0.82694 0.51239 0.0
C827 C 0.29516 0.86951 0.51535 0.0
C828 C 0.1421 0.34139 0.52532 0.0
C829 C 0.14956 0.38241 0.5135 0.0
C830 C 0.19004 0.39308 0.50073 0.0
C831 C 0.22133 0.3627 0.4971 0.0
H832 H 0.30133 0.1892 0.55649 0.0
H833 H 0.35298 0.13425 0.56298 0.0
H834 H 0.42801 0.19353 0.47028 0.0
H835 H 0.37508 0.24764 0.46235 0.0
H836 H 0.25187 0.13871 0.46268 0.0
H837 H 0.20053 0.08819 0.48357 0.0
H838 H 0.10334 0.17646 0.45677 0.0
H839 H 0.15418 0.22631 0.43482 0.0
H840 H 0.16568 0.27974 0.52999 0.0
H841 H 0.11171 0.33199 0.5357 0.0
H842 H 0.19701 0.42449 0.49149 0.0
H843 H 0.25101 0.37108 0.48405 0.0
N844 N 0.27798 0.27734 0.5046 0.0
N845 N 0.2743 0.21373 0.46913 0.0
N846 N 0.21817 0.25857 0.46802 0.0
C847 C 0.29622 0.2409 0.492 0.0
C848 C 0.23518 0.22193 0.45742 0.0
C849 C 0.23869 0.28654 0.49116 0.0
C850 C 0.33463 0.22358 0.50977 0.0
C851 C 0.32987 0.19172 0.53905 0.0
C852 C 0.35894 0.15956 0.54201 0.0
C853 C 0.39414 0.15902 0.51662 0.0
C854 C 0.40108 0.19299 0.49023 0.0
C855 C 0.37125 0.22458 0.48633 0.0
C856 C 0.20708 0.18727 0.44906 0.0
C857 C 0.21946 0.14685 0.45976 0.0
C858 C 0.19009 0.11812 0.4726 0.0
C859 C 0.14818 0.12943 0.4744 0.0
C860 C 0.13561 0.16753 0.45765 0.0
C861 C 0.16479 0.19591 0.44427 0.0
C862 C 0.21292 0.32131 0.50702 0.0
C863 C 0.17336 0.3115 0.52254 0.0
C864 C 0.0165 0.91497 0.61634 0.0
C865 C 0.9982 0.90838 0.41436 0.0
C866 C 0.01414 0.11466 0.61058 0.0
C867 C 0.01688 0.10645 0.40692 0.0
C868 C 0.92184 0.11486 0.48532 0.0
C869 C 0.90758 0.9219 0.54017 0.0
C870 C 0.11712 0.10156 0.49215 0.0
C871 C 0.10022 0.90604 0.48733 0.0
C872 C 0.10805 1.00255 0.40842 0.0
C873 C 0.90848 0.01357 0.41421 0.0
C874 C 0.1141 1.00589 0.61178 0.0
C875 C 0.91542 0.02442 0.61656 0.0
Eu876 Eu 1.00605 0.93286 0.51481 0.0
O877 O 0.96937 0.9748 0.47754 0.0
O878 O 0.04752 0.97217 0.54943 0.0
Eu879 Eu 0.93305 0.0174 0.51467 0.0
Eu880 Eu 0.0901 1.00518 0.51043 0.0
O881 O 0.97494 0.97992 0.54957 0.0
O882 O 0.04369 0.97182 0.47717 0.0
Eu883 Eu 0.01434 0.0143 0.58979 0.0
Eu884 Eu 1.00869 1.0081 0.43463 0.0
O885 O 0.97789 0.05309 0.54894 0.0
O886 O 0.97769 0.04817 0.47695 0.0
O887 O 0.04869 0.0428 0.47454 0.0
O888 O 0.05349 0.04775 0.54709 0.0
Eu889 Eu 0.01733 0.08972 0.50951 0.0
O890 O 0.01715 0.90072 0.5773 0.0
O891 O 0.9947 0.897 0.45422 0.0
O892 O 0.0145 0.12653 0.57068 0.0
O893 O 0.02113 0.1209 0.44561 0.0
O894 O 0.9051 0.07844 0.49508 0.0
O895 O 0.89616 0.96081 0.53212 0.0
O896 O 0.12789 0.06209 0.49736 0.0
O897 O 0.11731 0.94245 0.4963 0.0
O898 O 0.06828 1.00442 0.39755 0.0
O899 O 0.94761 0.01302 0.40129 0.0
O900 O 0.07516 0.01196 0.62404 0.0
O901 O 0.95464 0.01649 0.62688 0.0
O902 O 0.07987 0.11791 0.49926 0.0
O903 O 0.96065 0.1263 0.49255 0.0
O904 O 0.06124 0.89521 0.49485 0.0
O905 O 0.945 0.90555 0.53371 0.0
O906 O 1.00494 0.94689 0.40151 0.0
O907 O 1.01091 0.06695 0.39692 0.0
O908 O 0.01304 0.95475 0.62702 0.0
O909 O 0.01543 0.07551 0.62351 0.0
O910 O 0.90173 0.02932 0.57762 0.0
O911 O 0.89646 0.01269 0.45399 0.0
O912 O 0.12615 1.00188 0.57209 0.0
O913 O 0.12213 1.00234 0.44738 0.0
C914 C 0.54011 0.91913 0.1158 0.0
C915 C 0.48308 0.11158 0.10938 0.0
C916 C 0.49113 0.91073 0.92142 0.0
C917 C 0.53577 0.10658 0.91583 0.0
C918 C 0.61374 1.01053 0.9155 0.0
C919 C 0.61253 0.02281 0.11396 0.0
C920 C 0.41004 1.00902 0.9156 0.0
C921 C 0.41022 1.00658 0.11439 0.0
C922 C 0.40825 0.11 1.00655 0.0
C923 C 0.61097 0.11285 0.02151 0.0
C924 C 0.41221 0.91083 0.02466 0.0
C925 C 0.61527 0.91358 0.01396 0.0
Eu926 Eu 0.51139 0.01448 0.09387 0.0
O927 O 0.54758 0.05115 0.05155 0.0
O928 O 0.47534 0.97486 0.05415 0.0
Eu929 Eu 0.58923 0.01295 0.01501 0.0
Eu930 Eu 0.43405 1.01078 0.01511 0.0
O931 O 0.54754 0.97798 0.05208 0.0
O932 O 0.47541 0.04829 0.04993 0.0
Eu933 Eu 0.51331 0.93317 0.01818 0.0
Eu934 Eu 0.50997 0.09073 0.01315 0.0
O935 O 0.54955 0.97319 0.97845 0.0
O936 O 0.54598 0.04699 0.97876 0.0
O937 O 0.47395 0.0482 0.97614 0.0
O938 O 0.47758 0.97469 0.98094 0.0
Eu939 Eu 0.51191 1.00957 0.93661 0.0
O940 O 0.53145 0.95745 0.12848 0.0
O941 O 0.49177 0.07408 0.12438 0.0
O942 O 0.499 0.94831 0.90626 0.0
O943 O 0.52685 0.06856 0.90251 0.0
O944 O 0.6252 0.01438 0.95485 0.0
O945 O 0.62406 0.01474 0.07526 0.0
O946 O 0.39844 1.00721 0.9551 0.0
O947 O 0.39871 0.01193 0.07526 0.0
O948 O 0.44744 0.12327 1.00237 0.0
O949 O 0.57128 0.12537 0.02428 0.0
O950 O 0.45186 0.89867 0.02892 0.0
O951 O 0.57607 0.89992 0.01217 0.0
O952 O 0.4494 0.01218 0.90234 0.0
O953 O 0.5745 1.00595 0.90253 0.0
O954 O 0.4496 1.00374 0.12747 0.0
O955 O 0.57314 0.02699 0.12684 0.0
O956 O 0.49051 0.12455 0.07095 0.0
O957 O 0.52886 0.12131 0.9537 0.0
O958 O 0.53213 0.90361 0.07845 0.0
O959 O 0.49725 0.89832 0.96023 0.0
O960 O 0.62627 0.95324 0.01619 0.0
O961 O 0.62319 0.0739 0.01529 0.0
O962 O 0.40006 0.94962 0.01717 0.0
O963 O 0.39744 0.07081 0.01357 0.0
C964 C 1.00563 0.40977 0.11229 0.0
C965 C 0.99534 0.41106 0.91337 0.0
C966 C 0.01915 0.61303 0.11213 0.0
C967 C 0.02307 0.6124 0.91274 0.0
C968 C 0.92248 0.62255 0.01608 0.0
C969 C 0.90177 0.41955 0.01849 0.0
C970 C 0.12048 0.60394 0.01492 0.0
C971 C 0.10009 0.40102 1.00781 0.0
C972 C 0.10385 0.48253 0.91191 0.0
C973 C 0.91244 0.54291 0.91846 0.0
C974 C 0.11035 0.4828 0.1075 0.0
C975 C 0.9178 0.53946 0.11397 0.0
Eu976 Eu 1.00261 0.43439 0.01304 0.0
O977 O 0.96809 0.47826 0.97575 0.0
O978 O 0.04393 0.47316 0.047 0.0
Eu979 Eu 0.93279 0.519 0.0154 0.0
Eu980 Eu 0.08937 0.50445 1.0103 0.0
O981 O 0.97044 0.47805 0.05261 0.0
O982 O 0.04158 0.47355 0.97671 0.0
Eu983 Eu 0.01343 0.51135 0.09156 0.0
Eu984 Eu 1.00865 0.51184 0.93416 0.0
O985 O 0.98081 0.54966 0.04879 0.0
O986 O 0.97824 0.55027 0.97864 0.0
O987 O 0.05176 0.54531 0.97308 0.0
O988 O 0.05387 0.54511 0.05 0.0
Eu989 Eu 0.01965 0.58898 0.01257 0.0
O990 O 1.00423 0.39826 0.07281 0.0
O991 O 0.99912 0.39922 0.95266 0.0
O992 O 0.01892 0.62473 0.07265 0.0
O993 O 0.02173 0.62429 0.95216 0.0
O994 O 0.90559 0.58476 0.01894 0.0
O995 O 0.89216 0.46016 0.01762 0.0
O996 O 0.13008 0.56336 0.01281 0.0
O997 O 0.11685 0.43893 1.00616 0.0
O998 O 0.06513 0.48966 0.89971 0.0
O999 O 0.95002 0.53413 0.90372 0.0
O1000 O 0.07334 0.49345 0.12258 0.0
O1001 O 0.95589 0.5299 0.12666 0.0
O1002 O 0.08217 0.61902 0.0149 0.0
O1003 O 0.96276 0.63037 0.01193 0.0
O1004 O 0.05975 0.393 0.01139 0.0
O1005 O 0.94006 0.40442 0.01701 0.0
O1006 O 0.99513 0.4506 0.90034 0.0
O1007 O 0.02129 0.57291 0.89973 0.0
O1008 O 1.00681 0.44916 0.12565 0.0
O1009 O 0.01982 0.57362 0.12547 0.0
O1010 O 0.90286 0.53384 0.07612 0.0
O1011 O 0.89912 0.53548 0.95675 0.0
O1012 O 0.1228 0.48714 0.06853 0.0
O1013 O 0.11944 0.49119 0.94901 0.0
C1014 C 0.51647 0.41498 0.11652 0.0
C1015 C 0.51412 0.6146 0.11075 0.0
C1016 C 0.49817 0.40835 0.91451 0.0
C1017 C 0.51686 0.60647 0.90712 0.0
C1018 C 0.60804 0.50251 0.90861 0.0
C1019 C 0.61404 0.50585 0.11194 0.0
C1020 C 0.40845 0.51357 0.91438 0.0
C1021 C 0.41543 0.52441 0.11671 0.0
C1022 C 0.42184 0.61485 0.98544 0.0
C1023 C 0.61709 0.60154 0.99231 0.0
C1024 C 0.4075 0.42189 0.04035 0.0
C1025 C 0.60017 0.40601 0.98741 0.0
Eu1026 Eu 0.51432 0.51428 0.08985 0.0
O1027 O 0.55353 0.54775 0.04723 0.0
O1028 O 0.47489 0.47984 0.04966 0.0
Eu1029 Eu 0.59007 0.50515 0.01062 0.0
Eu1030 Eu 0.43302 0.51739 0.01483 0.0
O1031 O 0.54749 0.47204 0.04953 0.0
O1032 O 0.47781 0.55311 0.04908 0.0
Eu1033 Eu 0.50599 0.43274 0.01499 0.0
Eu1034 Eu 0.51731 0.58969 1.00971 0.0
O1035 O 0.54359 0.4718 0.97739 0.0
O1036 O 0.54866 0.54275 0.97471 0.0
O1037 O 0.47767 0.54814 0.97712 0.0
O1038 O 0.46938 0.47475 0.97773 0.0
Eu1039 Eu 0.50867 0.50809 0.93479 0.0
O1040 O 0.513 0.45477 0.12715 0.0
O1041 O 0.51541 0.57545 0.12365 0.0
O1042 O 0.50491 0.44687 0.90167 0.0
O1043 O 0.51091 0.56696 0.89711 0.0
O1044 O 0.62211 0.50231 0.94758 0.0
O1045 O 0.62611 0.50182 0.07227 0.0
O1046 O 0.39643 0.51268 0.95415 0.0
O1047 O 0.40172 0.52934 0.07778 0.0
O1048 O 0.46065 0.62628 0.99272 0.0
O1049 O 0.57984 0.61788 0.99944 0.0
O1050 O 0.4449 0.40551 0.03389 0.0
O1051 O 0.5612 0.39515 0.99498 0.0
O1052 O 0.44758 0.51303 0.90146 0.0
O1053 O 0.56828 0.50437 0.89773 0.0
O1054 O 0.45465 0.51645 0.12699 0.0
O1055 O 0.57509 0.51193 0.12417 0.0
O1056 O 0.51448 0.6265 0.07086 0.0
O1057 O 0.5211 0.62091 0.94582 0.0
O1058 O 0.51711 0.40067 0.07751 0.0
O1059 O 0.49467 0.39694 0.95436 0.0
O1060 O 0.61725 0.44242 0.99639 0.0
O1061 O 0.62786 0.56206 0.99752 0.0
O1062 O 0.39611 0.46081 0.0323 0.0
O1063 O 0.4051 0.57843 0.99518 0.0
C1064 C 0.04016 0.41909 0.61589 0.0
C1065 C 0.99119 0.41069 0.42155 0.0
C1066 C 0.98298 0.61155 0.60949 0.0
C1067 C 0.0357 0.60651 0.41591 0.0
C1068 C 0.90822 0.60992 0.50665 0.0
C1069 C 0.91224 0.41077 0.52481 0.0
C1070 C 0.11093 0.61283 0.52167 0.0
C1071 C 0.11524 0.41357 0.51409 0.0
C1072 C 0.11372 0.51051 0.41564 0.0
C1073 C 0.91004 0.50896 0.41571 0.0
C1074 C 0.11252 0.52281 0.61411 0.0
C1075 C 0.91016 0.50652 0.6145 0.0
Eu1076 Eu 0.01329 0.43323 0.51829 0.0
O1077 O 0.9775 0.47464 0.48102 0.0
O1078 O 0.04751 0.47802 0.55228 0.0
Eu1079 Eu 0.93404 0.5107 0.51521 0.0
Eu1080 Eu 0.08921 0.51293 0.51515 0.0
O1081 O 0.97532 0.47489 0.55435 0.0
O1082 O 0.04958 0.47321 0.47858 0.0
Eu1083 Eu 0.01136 0.51444 0.59409 0.0
Eu1084 Eu 0.0119 0.50952 0.43675 0.0
O1085 O 0.97544 0.5482 0.55005 0.0
O1086 O 0.97393 0.54816 0.47629 0.0
O1087 O 0.04597 0.54697 0.47889 0.0
O1088 O 0.04751 0.55111 0.55172 0.0
Eu1089 Eu 1.00994 0.59069 0.51325 0.0
O1090 O 0.03218 0.40361 0.57852 0.0
O1091 O 0.99725 0.39831 0.46038 0.0
O1092 O 0.99041 0.6245 0.57105 0.0
O1093 O 0.02885 0.62124 0.45379 0.0
O1094 O 0.89741 0.57073 0.51368 0.0
O1095 O 0.90006 0.44955 0.5173 0.0
O1096 O 0.12316 0.57389 0.51545 0.0
O1097 O 0.12625 0.45322 0.51636 0.0
O1098 O 0.07449 0.50592 0.40267 0.0
O1099 O 0.9494 0.51211 0.40245 0.0
O1100 O 0.07314 0.52697 0.62702 0.0
O1101 O 0.94952 0.50369 0.62762 0.0
O1102 O 0.07124 0.62535 0.52442 0.0
O1103 O 0.94739 0.6232 0.50247 0.0
O1104 O 0.07604 0.39993 0.51227 0.0
O1105 O 0.95189 0.39865 0.52908 0.0
O1106 O 0.99907 0.44825 0.40638 0.0
O1107 O 0.02676 0.56849 0.4026 0.0
O1108 O 0.03145 0.45738 0.62863 0.0
O1109 O 0.99171 0.57407 0.62453 0.0
O1110 O 0.89867 0.51187 0.57536 0.0
O1111 O 0.89843 0.50715 0.4552 0.0
O1112 O 0.12404 0.51475 0.5754 0.0
O1113 O 0.12518 0.51436 0.45499 0.0
C1114 C 0.50563 0.90974 0.61243 0.0
C1115 C 0.4953 0.91103 0.41351 0.0
C1116 C 0.51914 0.11301 0.61227 0.0
C1117 C 0.52302 0.11237 0.41288 0.0
C1118 C 0.42245 0.12252 0.51621 0.0
C1119 C 0.40175 0.91951 0.51867 0.0
C1120 C 0.62046 0.10392 0.51506 0.0
C1121 C 0.60008 0.901 0.50792 0.0
C1122 C 0.60381 0.98253 0.41202 0.0
C1123 C 0.41239 0.04286 0.41862 0.0
C1124 C 0.61034 0.98272 0.6076 0.0
C1125 C 0.41781 0.03946 0.61412 0.0
Eu1126 Eu 0.5026 0.93437 0.51318 0.0
O1127 O 0.46807 0.97823 0.47589 0.0
O1128 O 0.54391 0.97314 0.54713 0.0
Eu1129 Eu 0.43277 0.01897 0.51556 0.0
Eu1130 Eu 0.58935 1.00443 0.51042 0.0
O1131 O 0.47043 0.97802 0.55275 0.0
O1132 O 0.54156 0.97352 0.47684 0.0
Eu1133 Eu 0.51342 1.01132 0.5917 0.0
Eu1134 Eu 0.50861 0.01181 0.4343 0.0
O1135 O 0.4808 0.04963 0.54893 0.0
O1136 O 0.47821 0.05024 0.47879 0.0
O1137 O 0.55173 0.04529 0.47321 0.0
O1138 O 0.55385 0.04508 0.55013 0.0
Eu1139 Eu 0.51963 0.08896 0.51271 0.0
O1140 O 0.50424 0.89823 0.57295 0.0
O1141 O 0.49909 0.89919 0.4528 0.0
O1142 O 0.51889 0.1247 0.57279 0.0
O1143 O 0.5217 0.12427 0.45231 0.0
O1144 O 0.40557 0.08473 0.51908 0.0
O1145 O 0.39214 0.96012 0.51781 0.0
O1146 O 0.63006 0.06333 0.51294 0.0
O1147 O 0.61683 0.93891 0.50626 0.0
O1148 O 0.56508 0.98966 0.39983 0.0
O1149 O 0.44997 0.03409 0.40387 0.0
O1150 O 0.57335 0.99339 0.6227 0.0
O1151 O 0.45591 0.0299 0.62681 0.0
O1152 O 0.58215 0.119 0.51504 0.0
O1153 O 0.46273 0.13034 0.51207 0.0
O1154 O 0.55974 0.89298 0.51152 0.0
O1155 O 0.44005 0.90439 0.51717 0.0
O1156 O 0.49509 0.95057 0.40048 0.0
O1157 O 0.52123 0.07289 0.39987 0.0
O1158 O 0.50681 0.94912 0.62579 0.0
O1159 O 0.51983 0.07359 0.62561 0.0
O1160 O 0.40286 0.03383 0.57627 0.0
O1161 O 0.39908 0.03543 0.45691 0.0
O1162 O 0.62279 0.98708 0.56863 0.0
O1163 O 0.6194 0.99118 0.44911 0.0
loop_
_geom_bond_atom_site_label_1
_geom_bond_atom_site_label_2
_geom_bond_distance
_geom_bond_site_symmetry_2
_ccdc_geom_bond_type
C0 C1 1.383 1_455 S
C0 H13 0.948 . S
C0 C35 1.382 . S
C1 C0 1.383 1_655 S
C1 C2 1.378 . S
C2 C1 1.378 . S
C2 C3 1.378 . S
C2 H14 0.952 . S
C3 C2 1.378 . S
C3 H15 0.950 . S
C3 C34 1.383 . S
H4 C23 0.947 . S
H5 C24 0.946 . S
H6 C26 0.953 . S
H7 C27 0.945 . S
H8 C29 0.949 1_455 S
H9 C30 0.949 . S
H10 C32 0.950 . S
H11 C33 0.948 . S
H12 C35 0.951 . S
H13 C0 0.948 . S
H14 C2 0.952 . S
H15 C3 0.950 . S
N16 C19 1.382 . S
N16 C21 1.363 . S
N17 C19 1.371 . S
N17 C20 1.372 . S
N18 C20 1.361 . S
N18 C21 1.377 . S
C19 N16 1.382 . S
C19 N17 1.371 . S
C19 C22 1.480 . S
C20 N17 1.372 . S
C20 N18 1.361 . S
C20 C28 1.457 . S
C21 N16 1.363 . S
C21 N18 1.377 . S
C21 C34 1.479 . S
C22 C19 1.480 . S
C22 C23 1.383 . S
C22 C27 1.385 . S
C23 H4 0.947 . S
C23 C22 1.383 . S
C23 C24 1.388 1_655 S
C24 H5 0.946 . S
C24 C23 1.388 1_455 S
C24 C25 1.384 1_455 S
C25 C24 1.384 1_655 S
C25 C26 1.377 . S
C26 H6 0.953 . S
C26 C25 1.377 . S
C26 C27 1.369 . S
C27 H7 0.945 . S
C27 C22 1.385 . S
C27 C26 1.369 . S
C28 C20 1.457 . S
C28 C29 1.376 . S
C28 C33 1.364 . S
C29 H8 0.949 1_655 S
C29 C28 1.376 . S
C29 C30 1.388 1_655 S
C30 H9 0.949 . S
C30 C29 1.388 1_455 S
C30 C31 1.387 1_455 S
C31 C30 1.387 1_655 S
C31 C32 1.372 . S
C32 H10 0.950 . S
C32 C31 1.372 . S
C32 C33 1.379 . S
C33 H11 0.948 . S
C33 C28 1.364 . S
C33 C32 1.379 . S
C34 C3 1.383 . S
C34 C21 1.479 . S
C34 C35 1.398 1_655 S
C35 C0 1.382 . S
C35 H12 0.951 . S
C35 C34 1.398 1_455 S
C36 C37 1.384 1_545 S
C36 H49 0.948 . S
C36 C71 1.382 1_545 S
C37 C36 1.384 1_565 S
C37 C38 1.378 . S
C38 C37 1.378 . S
C38 C39 1.378 . S
C38 H50 0.952 . S
C39 C38 1.378 . S
C39 H51 0.950 . S
C39 C70 1.383 . S
H40 C59 0.947 . S
H41 C60 0.952 . S
H42 C62 0.953 . S
H43 C63 0.945 . S
H44 C65 0.948 1_545 S
H45 C66 0.949 . S
H46 C68 0.950 . S
H47 C69 0.948 . S
H48 C71 0.951 1_545 S
H49 C36 0.948 . S
H50 C38 0.952 . S
H51 C39 0.950 . S
N52 C55 1.382 . S
N52 C57 1.363 . S
N53 C55 1.371 . S
N53 C56 1.372 . S
N54 C56 1.361 . S
N54 C57 1.377 . S
C55 N52 1.382 . S
C55 N53 1.371 . S
C55 C58 1.480 . S
C56 N53 1.372 . S
C56 N54 1.361 . S
C56 C64 1.457 . S
C57 N52 1.363 . S
C57 N54 1.377 . S
C57 C70 1.479 . S
C58 C55 1.480 . S
C58 C59 1.383 . S
C58 C63 1.385 . S
C59 H40 0.947 . S
C59 C58 1.383 . S
C59 C60 1.386 1_565 S
C60 H41 0.952 . S
C60 C59 1.386 1_545 S
C60 C61 1.381 1_545 S
C61 C60 1.381 1_565 S
C61 C62 1.377 . S
C62 H42 0.953 . S
C62 C61 1.377 . S
C62 C63 1.369 . S
C63 H43 0.945 . S
C63 C58 1.385 . S
C63 C62 1.369 . S
C64 C56 1.457 . S
C64 C65 1.377 . S
C64 C69 1.364 . S
C65 H44 0.948 1_565 S
C65 C64 1.377 . S
C65 C66 1.387 1_565 S
C66 H45 0.949 . S
C66 C65 1.387 1_545 S
C66 C67 1.387 1_545 S
C67 C66 1.387 1_565 S
C67 C68 1.372 . S
C68 H46 0.950 . S
C68 C67 1.372 . S
C68 C69 1.379 . S
C69 H47 0.948 . S
C69 C64 1.364 . S
C69 C68 1.379 . S
C70 C39 1.383 . S
C70 C57 1.479 . S
C70 C71 1.399 . S
C71 C36 1.382 1_565 S
C71 H48 0.951 1_565 S
C71 C70 1.399 . S
C72 C73 1.384 . S
C72 H85 0.947 1_455 S
C72 C107 1.382 . S
C73 C72 1.384 . S
C73 C74 1.378 . S
C74 C73 1.378 . S
C74 C75 1.378 . S
C74 H86 0.952 . S
C75 C74 1.378 . S
C75 H87 0.950 . S
C75 C106 1.383 . S
H76 C95 0.947 . S
H77 C96 0.948 . S
H78 C98 0.953 . S
H79 C99 0.945 . S
H80 C101 0.952 1_655 S
H81 C102 0.953 . S
H82 C104 0.950 . S
H83 C105 0.948 . S
H84 C107 0.949 1_655 S
H85 C72 0.947 1_655 S
H86 C74 0.952 . S
H87 C75 0.950 . S
N88 C91 1.382 . S
N88 C93 1.363 . S
N89 C91 1.371 . S
N89 C92 1.372 . S
N90 C92 1.361 . S
N90 C93 1.377 . S
C91 N88 1.382 . S
C91 N89 1.371 . S
C91 C94 1.480 . S
C92 N89 1.372 . S
C92 N90 1.361 . S
C92 C100 1.457 . S
C93 N88 1.363 . S
C93 N90 1.377 . S
C93 C106 1.479 . S
C94 C91 1.480 . S
C94 C95 1.383 . S
C94 C99 1.385 . S
C95 H76 0.947 . S
C95 C94 1.383 . S
C95 C96 1.387 1_455 S
C96 H77 0.948 . S
C96 C95 1.387 1_655 S
C96 C97 1.383 1_655 S
C97 C96 1.383 1_455 S
C97 C98 1.377 . S
C98 H78 0.953 . S
C98 C97 1.377 . S
C98 C99 1.369 . S
C99 H79 0.945 . S
C99 C94 1.385 . S
C99 C98 1.369 . S
C100 C92 1.457 . S
C100 C101 1.372 . S
C100 C105 1.364 . S
C101 H80 0.952 1_455 S
C101 C100 1.372 . S
C101 C102 1.387 1_455 S
C102 H81 0.953 . S
C102 C101 1.387 1_655 S
C102 C103 1.384 1_655 S
C103 C102 1.384 1_455 S
C103 C104 1.372 . S
C104 H82 0.950 . S
C104 C103 1.372 . S
C104 C105 1.379 . S
C105 H83 0.948 . S
C105 C100 1.364 . S
C105 C104 1.379 . S
C106 C75 1.383 . S
C106 C93 1.479 . S
C106 C107 1.401 . S
C107 C72 1.382 . S
C107 H84 0.949 1_455 S
C107 C106 1.401 . S
C108 C109 1.384 1_565 S
C108 H121 0.947 . S
C108 C143 1.382 1_565 S
C109 C108 1.384 1_545 S
C109 C110 1.378 . S
C110 C109 1.378 . S
C110 C111 1.378 . S
C110 H122 0.952 . S
C111 C110 1.378 . S
C111 H123 0.950 . S
C111 C142 1.383 . S
H112 C131 0.947 . S
H113 C132 0.950 . S
H114 C134 0.953 . S
H115 C135 0.945 . S
H116 C137 0.952 1_565 S
H117 C138 0.949 . S
H118 C140 0.950 . S
H119 C141 0.948 . S
H120 C143 0.950 1_565 S
H121 C108 0.947 . S
H122 C110 0.952 . S
H123 C111 0.950 . S
N124 C127 1.382 . S
N124 C129 1.363 . S
N125 C127 1.371 . S
N125 C128 1.372 . S
N126 C128 1.361 . S
N126 C129 1.377 . S
C127 N124 1.382 . S
C127 N125 1.371 . S
C127 C130 1.480 . S
C128 N125 1.372 . S
C128 N126 1.361 . S
C128 C136 1.457 . S
C129 N124 1.363 . S
C129 N126 1.377 . S
C129 C142 1.479 . S
C130 C127 1.480 . S
C130 C131 1.383 . S
C130 C135 1.385 . S
C131 H112 0.947 . S
C131 C130 1.383 . S
C131 C132 1.386 1_545 S
C132 H113 0.950 . S
C132 C131 1.386 1_565 S
C132 C133 1.382 1_565 S
C133 C132 1.382 1_545 S
C133 C134 1.377 . S
C134 H114 0.953 . S
C134 C133 1.377 . S
C134 C135 1.369 . S
C135 H115 0.945 . S
C135 C130 1.385 . S
C135 C134 1.369 . S
C136 C128 1.457 . S
C136 C137 1.372 . S
C136 C141 1.364 . S
C137 H116 0.952 1_545 S
C137 C136 1.372 . S
C137 C138 1.389 1_545 S
C138 H117 0.949 . S
C138 C137 1.389 1_565 S
C138 C139 1.387 1_565 S
C139 C138 1.387 1_545 S
C139 C140 1.372 . S
C140 H118 0.950 . S
C140 C139 1.372 . S
C140 C141 1.379 . S
C141 H119 0.948 . S
C141 C136 1.364 . S
C141 C140 1.379 . S
C142 C111 1.383 . S
C142 C129 1.479 . S
C142 C143 1.399 . S
C143 C108 1.382 1_545 S
C143 H120 0.950 1_545 S
C143 C142 1.399 . S
C144 C145 1.383 1_455 S
C144 H157 0.949 . S
C144 C179 1.382 . S
C145 C144 1.383 1_655 S
C145 C146 1.378 . S
C146 C145 1.378 . S
C146 C147 1.378 . S
C146 H158 0.952 . S
C147 C146 1.378 . S
C147 H159 0.950 . S
C147 C178 1.383 . S
H148 C167 0.947 . S
H149 C168 0.946 . S
H150 C170 0.953 . S
H151 C171 0.945 . S
H152 C173 0.950 1_455 S
H153 C174 0.949 . S
H154 C176 0.950 . S
H155 C177 0.948 . S
H156 C179 0.951 . S
H157 C144 0.949 . S
H158 C146 0.952 . S
H159 C147 0.950 . S
N160 C163 1.382 . S
N160 C165 1.363 . S
N161 C163 1.371 . S
N161 C164 1.372 . S
N162 C164 1.361 . S
N162 C165 1.377 . S
C163 N160 1.382 . S
C163 N161 1.371 . S
C163 C166 1.480 . S
C164 N161 1.372 . S
C164 N162 1.361 . S
C164 C172 1.457 . S
C165 N160 1.363 . S
C165 N162 1.377 . S
C165 C178 1.479 . S
C166 C163 1.480 . S
C166 C167 1.383 . S
C166 C171 1.385 . S
C167 H148 0.947 . S
C167 C166 1.383 . S
C167 C168 1.388 1_655 S
C168 H149 0.946 . S
C168 C167 1.388 1_455 S
C168 C169 1.384 1_455 S
C169 C168 1.384 1_655 S
C169 C170 1.377 . S
C170 H150 0.953 . S
C170 C169 1.377 . S
C170 C171 1.369 . S
C171 H151 0.945 . S
C171 C166 1.385 . S
C171 C170 1.369 . S
C172 C164 1.457 . S
C172 C173 1.375 . S
C172 C177 1.364 . S
C173 H152 0.950 1_655 S
C173 C172 1.375 . S
C173 C174 1.388 1_655 S
C174 H153 0.949 . S
C174 C173 1.388 1_455 S
C174 C175 1.387 1_455 S
C175 C174 1.387 1_655 S
C175 C176 1.372 . S
C176 H154 0.950 . S
C176 C175 1.372 . S
C176 C177 1.379 . S
C177 H155 0.948 . S
C177 C172 1.364 . S
C177 C176 1.379 . S
C178 C147 1.383 . S
C178 C165 1.479 . S
C178 C179 1.398 1_655 S
C179 C144 1.382 . S
C179 H156 0.951 . S
C179 C178 1.398 1_455 S
C180 C181 1.384 1_565 S
C180 H193 0.947 . S
C180 C215 1.382 1_565 S
C181 C180 1.384 1_545 S
C181 C182 1.378 . S
C182 C181 1.378 . S
C182 C183 1.378 . S
C182 H194 0.952 . S
C183 C182 1.378 . S
C183 H195 0.950 . S
C183 C214 1.383 . S
H184 C203 0.947 . S
H185 C204 0.950 . S
H186 C206 0.953 . S
H187 C207 0.945 . S
H188 C209 0.952 1_565 S
H189 C210 0.949 . S
H190 C212 0.950 . S
H191 C213 0.948 . S
H192 C215 0.950 1_565 S
H193 C180 0.947 . S
H194 C182 0.952 . S
H195 C183 0.950 . S
N196 C199 1.382 . S
N196 C201 1.363 . S
N197 C199 1.371 . S
N197 C200 1.372 . S
N198 C200 1.361 . S
N198 C201 1.377 . S
C199 N196 1.382 . S
C199 N197 1.371 . S
C199 C202 1.480 . S
C200 N197 1.372 . S
C200 N198 1.361 . S
C200 C208 1.457 . S
C201 N196 1.363 . S
C201 N198 1.377 . S
C201 C214 1.479 . S
C202 C199 1.480 . S
C202 C203 1.383 . S
C202 C207 1.385 . S
C203 H184 0.947 . S
C203 C202 1.383 . S
C203 C204 1.386 1_545 S
C204 H185 0.950 . S
C204 C203 1.386 1_565 S
C204 C205 1.382 1_565 S
C205 C204 1.382 1_545 S
C205 C206 1.377 . S
C206 H186 0.953 . S
C206 C205 1.377 . S
C206 C207 1.369 . S
C207 H187 0.945 . S
C207 C202 1.385 . S
C207 C206 1.369 . S
C208 C200 1.457 . S
C208 C209 1.372 . S
C208 C213 1.364 . S
C209 H188 0.952 1_545 S
C209 C208 1.372 . S
C209 C210 1.389 1_545 S
C210 H189 0.949 . S
C210 C209 1.389 1_565 S
C210 C211 1.387 1_565 S
C211 C210 1.387 1_545 S
C211 C212 1.372 . S
C212 H190 0.950 . S
C212 C211 1.372 . S
C212 C213 1.379 . S
C213 H191 0.948 . S
C213 C208 1.364 . S
C213 C212 1.379 . S
C214 C183 1.383 . S
C214 C201 1.479 . S
C214 C215 1.400 . S
C215 C180 1.382 1_545 S
C215 H192 0.950 1_545 S
C215 C214 1.400 . S
C216 C217 1.384 . S
C216 H229 0.947 1_455 S
C216 C251 1.382 . S
C217 C216 1.384 . S
C217 C218 1.378 . S
C218 C217 1.378 . S
C218 C219 1.378 . S
C218 H230 0.952 . S
C219 C218 1.378 . S
C219 H231 0.950 . S
C219 C250 1.383 . S
H220 C239 0.947 . S
H221 C240 0.949 . S
H222 C242 0.953 . S
H223 C243 0.945 . S
H224 C245 0.952 1_655 S
H225 C246 0.954 . S
H226 C248 0.950 . S
H227 C249 0.948 . S
H228 C251 0.949 1_655 S
H229 C216 0.947 1_655 S
H230 C218 0.952 . S
H231 C219 0.950 . S
N232 C235 1.382 . S
N232 C237 1.363 . S
N233 C235 1.371 . S
N233 C236 1.372 . S
N234 C236 1.361 . S
N234 C237 1.377 . S
C235 N232 1.382 . S
C235 N233 1.371 . S
C235 C238 1.480 . S
C236 N233 1.372 . S
C236 N234 1.361 . S
C236 C244 1.457 . S
C237 N232 1.363 . S
C237 N234 1.377 . S
C237 C250 1.479 . S
C238 C235 1.480 . S
C238 C239 1.383 . S
C238 C243 1.385 . S
C239 H220 0.947 . S
C239 C238 1.383 . S
C239 C240 1.387 1_455 S
C240 H221 0.949 . S
C240 C239 1.387 1_655 S
C240 C241 1.383 1_655 S
C241 C240 1.383 1_455 S
C241 C242 1.377 . S
C242 H222 0.953 . S
C242 C241 1.377 . S
C242 C243 1.369 . S
C243 H223 0.945 . S
C243 C238 1.385 . S
C243 C242 1.369 . S
C244 C236 1.457 . S
C244 C245 1.372 . S
C244 C249 1.364 . S
C245 H224 0.952 1_455 S
C245 C244 1.372 . S
C245 C246 1.387 1_455 S
C246 H225 0.954 . S
C246 C245 1.387 1_655 S
C246 C247 1.384 1_655 S
C247 C246 1.384 1_455 S
C247 C248 1.372 . S
C248 H226 0.950 . S
C248 C247 1.372 . S
C248 C249 1.379 . S
C249 H227 0.948 . S
C249 C244 1.364 . S
C249 C248 1.379 . S
C250 C219 1.383 . S
C250 C237 1.479 . S
C250 C251 1.401 . S
C251 C216 1.382 . S
C251 H228 0.949 1_455 S
C251 C250 1.401 . S
C252 C253 1.384 1_545 S
C252 H265 0.948 . S
C252 C287 1.382 1_545 S
C253 C252 1.384 1_565 S
C253 C254 1.378 . S
C254 C253 1.378 . S
C254 C255 1.378 . S
C254 H266 0.952 . S
C255 C254 1.378 . S
C255 H267 0.950 . S
C255 C286 1.383 . S
H256 C275 0.947 . S
H257 C276 0.952 . S
H258 C278 0.953 . S
H259 C279 0.945 . S
H260 C281 0.948 1_545 S
H261 C282 0.949 . S
H262 C284 0.950 . S
H263 C285 0.948 . S
H264 C287 0.951 1_545 S
H265 C252 0.948 . S
H266 C254 0.952 . S
H267 C255 0.950 . S
N268 C271 1.382 . S
N268 C273 1.363 . S
N269 C271 1.371 . S
N269 C272 1.372 . S
N270 C272 1.361 . S
N270 C273 1.377 . S
C271 N268 1.382 . S
C271 N269 1.371 . S
C271 C274 1.480 . S
C272 N269 1.372 . S
C272 N270 1.361 . S
C272 C280 1.457 . S
C273 N268 1.363 . S
C273 N270 1.377 . S
C273 C286 1.479 . S
C274 C271 1.480 . S
C274 C275 1.383 . S
C274 C279 1.385 . S
C275 H256 0.947 . S
C275 C274 1.383 . S
C275 C276 1.386 1_565 S
C276 H257 0.952 . S
C276 C275 1.386 1_545 S
C276 C277 1.381 1_545 S
C277 C276 1.381 1_565 S
C277 C278 1.377 . S
C278 H258 0.953 . S
C278 C277 1.377 . S
C278 C279 1.369 . S
C279 H259 0.945 . S
C279 C274 1.385 . S
C279 C278 1.369 . S
C280 C272 1.457 . S
C280 C281 1.377 . S
C280 C285 1.364 . S
C281 H260 0.948 1_565 S
C281 C280 1.377 . S
C281 C282 1.387 1_565 S
C282 H261 0.949 . S
C282 C281 1.387 1_545 S
C282 C283 1.387 1_545 S
C283 C282 1.387 1_565 S
C283 C284 1.372 . S
C284 H262 0.950 . S
C284 C283 1.372 . S
C284 C285 1.379 . S
C285 H263 0.948 . S
C285 C280 1.364 . S
C285 C284 1.379 . S
C286 C255 1.383 . S
C286 C273 1.479 . S
C286 C287 1.398 . S
C287 C252 1.382 1_565 S
C287 H264 0.951 1_565 S
C287 C286 1.398 . S
C288 C289 1.385 . S
C288 H301 0.946 1_554 S
C288 C323 1.382 . S
C289 C288 1.385 . S
C289 C290 1.378 . S
C290 C289 1.378 . S
C290 C291 1.378 . S
C290 H302 0.952 . S
C291 C290 1.378 . S
C291 H303 0.950 . S
C291 C322 1.383 . S
H292 C311 0.947 . S
H293 C312 0.945 . S
H294 C314 0.953 . S
H295 C315 0.945 . S
H296 C317 0.952 1_556 S
H297 C318 0.951 . S
H298 C320 0.950 . S
H299 C321 0.948 . S
H300 C323 0.951 1_556 S
H301 C288 0.946 1_556 S
H302 C290 0.952 . S
H303 C291 0.950 . S
N304 C307 1.382 . S
N304 C309 1.363 . S
N305 C307 1.371 . S
N305 C308 1.372 . S
N306 C308 1.361 . S
N306 C309 1.377 . S
C307 N304 1.382 . S
C307 N305 1.371 . S
C307 C310 1.480 . S
C308 N305 1.372 . S
C308 N306 1.361 . S
C308 C316 1.457 . S
C309 N304 1.363 . S
C309 N306 1.377 . S
C309 C322 1.479 . S
C310 C307 1.480 . S
C310 C311 1.383 . S
C310 C315 1.385 . S
C311 H292 0.947 . S
C311 C310 1.383 . S
C311 C312 1.388 1_554 S
C312 H293 0.945 . S
C312 C311 1.388 1_556 S
C312 C313 1.384 1_556 S
C313 C312 1.384 1_554 S
C313 C314 1.377 . S
C314 H294 0.953 . S
C314 C313 1.377 . S
C314 C315 1.369 . S
C315 H295 0.945 . S
C315 C310 1.385 . S
C315 C314 1.369 . S
C316 C308 1.457 . S
C316 C317 1.372 . S
C316 C321 1.364 . S
C317 H296 0.952 1_554 S
C317 C316 1.372 . S
C317 C318 1.388 1_554 S
C318 H297 0.951 . S
C318 C317 1.388 1_556 S
C318 C319 1.385 1_556 S
C319 C318 1.385 1_554 S
C319 C320 1.372 . S
C320 H298 0.950 . S
C320 C319 1.372 . S
C320 C321 1.379 . S
C321 H299 0.948 . S
C321 C316 1.364 . S
C321 C320 1.379 . S
C322 C291 1.383 . S
C322 C309 1.479 . S
C322 C323 1.398 . S
C323 C288 1.382 . S
C323 H300 0.951 1_554 S
C323 C322 1.398 . S
C324 C325 1.383 1_554 S
C324 H337 0.950 . S
C324 C359 1.382 . S
C325 C324 1.383 1_556 S
C325 C326 1.378 . S
C326 C325 1.378 . S
C326 C327 1.378 . S
C326 H338 0.952 . S
C327 C326 1.378 . S
C327 H339 0.950 . S
C327 C358 1.383 . S
H328 C347 0.947 . S
H329 C348 0.946 . S
H330 C350 0.953 . S
H331 C351 0.945 . S
H332 C353 0.951 1_554 S
H333 C354 0.949 . S
H334 C356 0.950 . S
H335 C357 0.948 . S
H336 C359 0.952 . S
H337 C324 0.950 . S
H338 C326 0.952 . S
H339 C327 0.950 . S
N340 C343 1.382 . S
N340 C345 1.363 . S
N341 C343 1.371 . S
N341 C344 1.372 . S
N342 C344 1.361 . S
N342 C345 1.377 . S
C343 N340 1.382 . S
C343 N341 1.371 . S
C343 C346 1.480 . S
C344 N341 1.372 . S
C344 N342 1.361 . S
C344 C352 1.457 . S
C345 N340 1.363 . S
C345 N342 1.377 . S
C345 C358 1.479 . S
C346 C343 1.480 . S
C346 C347 1.383 . S
C346 C351 1.385 . S
C347 H328 0.947 . S
C347 C346 1.383 . S
C347 C348 1.388 1_556 S
C348 H329 0.946 . S
C348 C347 1.388 1_554 S
C348 C349 1.384 1_554 S
C349 C348 1.384 1_556 S
C349 C350 1.377 . S
C350 H330 0.953 . S
C350 C349 1.377 . S
C350 C351 1.369 . S
C351 H331 0.945 . S
C351 C346 1.385 . S
C351 C350 1.369 . S
C352 C344 1.457 . S
C352 C353 1.373 . S
C352 C357 1.364 . S
C353 H332 0.951 1_556 S
C353 C352 1.373 . S
C353 C354 1.388 1_556 S
C354 H333 0.949 . S
C354 C353 1.388 1_554 S
C354 C355 1.387 1_554 S
C355 C354 1.387 1_556 S
C355 C356 1.372 . S
C356 H334 0.950 . S
C356 C355 1.372 . S
C356 C357 1.379 . S
C357 H335 0.948 . S
C357 C352 1.364 . S
C357 C356 1.379 . S
C358 C327 1.383 . S
C358 C345 1.479 . S
C358 C359 1.397 1_556 S
C359 C324 1.382 . S
C359 H336 0.952 . S
C359 C358 1.397 1_554 S
C360 C361 1.383 1_554 S
C360 H373 0.950 . S
C360 C395 1.382 . S
C361 C360 1.383 1_556 S
C361 C362 1.378 . S
C362 C361 1.378 . S
C362 C363 1.378 . S
C362 H374 0.952 . S
C363 C362 1.378 . S
C363 H375 0.950 . S
C363 C394 1.383 . S
H364 C383 0.947 . S
H365 C384 0.946 . S
H366 C386 0.953 . S
H367 C387 0.945 . S
H368 C389 0.951 1_554 S
H369 C390 0.949 . S
H370 C392 0.950 . S
H371 C393 0.948 . S
H372 C395 0.952 . S
H373 C360 0.950 . S
H374 C362 0.952 . S
H375 C363 0.950 . S
N376 C379 1.382 . S
N376 C381 1.363 . S
N377 C379 1.371 . S
N377 C380 1.372 . S
N378 C380 1.361 . S
N378 C381 1.377 . S
C379 N376 1.382 . S
C379 N377 1.371 . S
C379 C382 1.480 . S
C380 N377 1.372 . S
C380 N378 1.361 . S
C380 C388 1.457 . S
C381 N376 1.363 . S
C381 N378 1.377 . S
C381 C394 1.479 . S
C382 C379 1.480 . S
C382 C383 1.383 . S
C382 C387 1.385 . S
C383 H364 0.947 . S
C383 C382 1.383 . S
C383 C384 1.388 1_556 S
C384 H365 0.946 . S
C384 C383 1.388 1_554 S
C384 C385 1.384 1_554 S
C385 C384 1.384 1_556 S
C385 C386 1.377 . S
C386 H366 0.953 . S
C386 C385 1.377 . S
C386 C387 1.369 . S
C387 H367 0.945 . S
C387 C382 1.385 . S
C387 C386 1.369 . S
C388 C380 1.457 . S
C388 C389 1.373 . S
C388 C393 1.364 . S
C389 H368 0.951 1_556 S
C389 C388 1.373 . S
C389 C390 1.388 1_556 S
C390 H369 0.949 . S
C390 C389 1.388 1_554 S
C390 C391 1.387 1_554 S
C391 C390 1.387 1_556 S
C391 C392 1.372 . S
C392 H370 0.950 . S
C392 C391 1.372 . S
C392 C393 1.379 . S
C393 H371 0.948 . S
C393 C388 1.364 . S
C393 C392 1.379 . S
C394 C363 1.383 . S
C394 C381 1.479 . S
C394 C395 1.397 1_556 S
C395 C360 1.382 . S
C395 H372 0.952 . S
C395 C394 1.397 1_554 S
C396 C397 1.382 1_554 S
C396 H409 0.950 . S
C396 C431 1.382 . S
C397 C396 1.382 1_556 S
C397 C398 1.378 . S
C398 C397 1.378 . S
C398 C399 1.378 . S
C398 H410 0.952 . S
C399 C398 1.378 . S
C399 H411 0.950 . S
C399 C430 1.383 . S
H400 C419 0.947 . S
H401 C420 0.946 . S
H402 C422 0.953 . S
H403 C423 0.945 . S
H404 C425 0.951 1_554 S
H405 C426 0.949 . S
H406 C428 0.950 . S
H407 C429 0.948 . S
H408 C431 0.953 . S
H409 C396 0.950 . S
H410 C398 0.952 . S
H411 C399 0.950 . S
N412 C415 1.382 . S
N412 C417 1.363 . S
N413 C415 1.371 . S
N413 C416 1.372 . S
N414 C416 1.361 . S
N414 C417 1.377 . S
C415 N412 1.382 . S
C415 N413 1.371 . S
C415 C418 1.480 . S
C416 N413 1.372 . S
C416 N414 1.361 . S
C416 C424 1.457 . S
C417 N412 1.363 . S
C417 N414 1.377 . S
C417 C430 1.479 . S
C418 C415 1.480 . S
C418 C419 1.383 . S
C418 C423 1.385 . S
C419 H400 0.947 . S
C419 C418 1.383 . S
C419 C420 1.388 1_556 S
C420 H401 0.946 . S
C420 C419 1.388 1_554 S
C420 C421 1.384 1_554 S
C421 C420 1.384 1_556 S
C421 C422 1.377 . S
C422 H402 0.953 . S
C422 C421 1.377 . S
C422 C423 1.369 . S
C423 H403 0.945 . S
C423 C418 1.385 . S
C423 C422 1.369 . S
C424 C416 1.457 . S
C424 C425 1.373 . S
C424 C429 1.364 . S
C425 H404 0.951 1_556 S
C425 C424 1.373 . S
C425 C426 1.388 1_556 S
C426 H405 0.949 . S
C426 C425 1.388 1_554 S
C426 C427 1.387 1_554 S
C427 C426 1.387 1_556 S
C427 C428 1.372 . S
C428 H406 0.950 . S
C428 C427 1.372 . S
C428 C429 1.379 . S
C429 H407 0.948 . S
C429 C424 1.364 . S
C429 C428 1.379 . S
C430 C399 1.383 . S
C430 C417 1.479 . S
C430 C431 1.397 1_556 S
C431 C396 1.382 . S
C431 H408 0.953 . S
C431 C430 1.397 1_554 S
C432 C433 1.384 . S
C432 H445 0.947 . S
C432 C467 1.382 . S
C433 C432 1.384 . S
C433 C434 1.378 . S
C434 C433 1.378 . S
C434 C435 1.378 . S
C434 H446 0.952 . S
C435 C434 1.378 . S
C435 H447 0.950 . S
C435 C466 1.383 . S
H436 C455 0.947 . S
H437 C456 0.946 . S
H438 C458 0.953 . S
H439 C459 0.945 . S
H440 C461 0.952 . S
H441 C462 0.949 . S
H442 C464 0.950 . S
H443 C465 0.948 . S
H444 C467 0.951 . S
H445 C432 0.947 . S
H446 C434 0.952 . S
H447 C435 0.950 . S
N448 C451 1.382 . S
N448 C453 1.363 . S
N449 C451 1.371 . S
N449 C452 1.372 . S
N450 C452 1.361 . S
N450 C453 1.377 . S
C451 N448 1.382 . S
C451 N449 1.371 . S
C451 C454 1.480 . S
C452 N449 1.372 . S
C452 N450 1.361 . S
C452 C460 1.457 . S
C453 N448 1.363 . S
C453 N450 1.377 . S
C453 C466 1.479 . S
C454 C451 1.480 . S
C454 C455 1.383 . S
C454 C459 1.385 . S
C455 H436 0.947 . S
C455 C454 1.383 . S
C455 C456 1.388 . S
C456 H437 0.946 . S
C456 C455 1.388 . S
C456 C457 1.384 . S
C457 C456 1.384 . S
C457 C458 1.377 . S
C458 H438 0.953 . S
C458 C457 1.377 . S
C458 C459 1.369 . S
C459 H439 0.945 . S
C459 C454 1.385 . S
C459 C458 1.369 . S
C460 C452 1.457 . S
C460 C461 1.372 . S
C460 C465 1.364 . S
C461 H440 0.952 . S
C461 C460 1.372 . S
C461 C462 1.389 . S
C462 H441 0.949 . S
C462 C461 1.389 . S
C462 C463 1.387 . S
C463 C462 1.387 . S
C463 C464 1.372 . S
C464 H442 0.950 . S
C464 C463 1.372 . S
C464 C465 1.379 . S
C465 H443 0.948 . S
C465 C460 1.364 . S
C465 C464 1.379 . S
C466 C435 1.383 . S
C466 C453 1.479 . S
C466 C467 1.398 . S
C467 C432 1.382 . S
C467 H444 0.951 . S
C467 C466 1.398 . S
C468 C469 1.384 . S
C468 H481 0.947 . S
C468 C503 1.382 . S
C469 C468 1.384 . S
C469 C470 1.378 . S
C470 C469 1.378 . S
C470 C471 1.378 . S
C470 H482 0.952 . S
C471 C470 1.378 . S
C471 H483 0.950 . S
C471 C502 1.383 . S
H472 C491 0.947 . S
H473 C492 0.946 . S
H474 C494 0.953 . S
H475 C495 0.945 . S
H476 C497 0.952 . S
H477 C498 0.949 . S
H478 C500 0.950 . S
H479 C501 0.948 . S
H480 C503 0.951 . S
H481 C468 0.947 . S
H482 C470 0.952 . S
H483 C471 0.950 . S
N484 C487 1.382 . S
N484 C489 1.363 . S
N485 C487 1.371 . S
N485 C488 1.372 . S
N486 C488 1.361 . S
N486 C489 1.377 . S
C487 N484 1.382 . S
C487 N485 1.371 . S
C487 C490 1.480 . S
C488 N485 1.372 . S
C488 N486 1.361 . S
C488 C496 1.457 . S
C489 N484 1.363 . S
C489 N486 1.377 . S
C489 C502 1.479 . S
C490 C487 1.480 . S
C490 C491 1.383 . S
C490 C495 1.385 . S
C491 H472 0.947 . S
C491 C490 1.383 . S
C491 C492 1.388 . S
C492 H473 0.946 . S
C492 C491 1.388 . S
C492 C493 1.384 . S
C493 C492 1.384 . S
C493 C494 1.377 . S
C494 H474 0.953 . S
C494 C493 1.377 . S
C494 C495 1.369 . S
C495 H475 0.945 . S
C495 C490 1.385 . S
C495 C494 1.369 . S
C496 C488 1.457 . S
C496 C497 1.372 . S
C496 C501 1.364 . S
C497 H476 0.952 . S
C497 C496 1.372 . S
C497 C498 1.389 . S
C498 H477 0.949 . S
C498 C497 1.389 . S
C498 C499 1.387 . S
C499 C498 1.387 . S
C499 C500 1.372 . S
C500 H478 0.950 . S
C500 C499 1.372 . S
C500 C501 1.379 . S
C501 H479 0.948 . S
C501 C496 1.364 . S
C501 C500 1.379 . S
C502 C471 1.383 . S
C502 C489 1.479 . S
C502 C503 1.398 . S
C503 C468 1.382 . S
C503 H480 0.951 . S
C503 C502 1.398 . S
C504 C505 1.384 . S
C504 H517 0.947 . S
C504 C539 1.382 . S
C505 C504 1.384 . S
C505 C506 1.378 . S
C506 C505 1.378 . S
C506 C507 1.378 . S
C506 H518 0.952 . S
C507 C506 1.378 . S
C507 H519 0.950 . S
C507 C538 1.383 . S
H508 C527 0.947 . S
H509 C528 0.946 . S
H510 C530 0.953 . S
H511 C531 0.945 . S
H512 C533 0.952 . S
H513 C534 0.949 . S
H514 C536 0.950 . S
H515 C537 0.948 . S
H516 C539 0.951 . S
H517 C504 0.947 . S
H518 C506 0.952 . S
H519 C507 0.950 . S
N520 C523 1.382 . S
N520 C525 1.363 . S
N521 C523 1.371 . S
N521 C524 1.372 . S
N522 C524 1.361 . S
N522 C525 1.377 . S
C523 N520 1.382 . S
C523 N521 1.371 . S
C523 C526 1.480 . S
C524 N521 1.372 . S
C524 N522 1.361 . S
C524 C532 1.457 . S
C525 N520 1.363 . S
C525 N522 1.377 . S
C525 C538 1.479 . S
C526 C523 1.480 . S
C526 C527 1.383 . S
C526 C531 1.385 . S
C527 H508 0.947 . S
C527 C526 1.383 . S
C527 C528 1.388 . S
C528 H509 0.946 . S
C528 C527 1.388 . S
C528 C529 1.384 . S
C529 C528 1.384 . S
C529 C530 1.377 . S
C530 H510 0.953 . S
C530 C529 1.377 . S
C530 C531 1.369 . S
C531 H511 0.945 . S
C531 C526 1.385 . S
C531 C530 1.369 . S
C532 C524 1.457 . S
C532 C533 1.372 . S
C532 C537 1.364 . S
C533 H512 0.952 . S
C533 C532 1.372 . S
C533 C534 1.389 . S
C534 H513 0.949 . S
C534 C533 1.389 . S
C534 C535 1.387 . S
C535 C534 1.387 . S
C535 C536 1.372 . S
C536 H514 0.950 . S
C536 C535 1.372 . S
C536 C537 1.379 . S
C537 H515 0.948 . S
C537 C532 1.364 . S
C537 C536 1.379 . S
C538 C507 1.383 . S
C538 C525 1.479 . S
C538 C539 1.398 . S
C539 C504 1.382 . S
C539 H516 0.951 . S
C539 C538 1.398 . S
C540 C541 1.384 . S
C540 H553 0.947 . S
C540 C575 1.382 . S
C541 C540 1.384 . S
C541 C542 1.378 . S
C542 C541 1.378 . S
C542 C543 1.378 . S
C542 H554 0.952 . S
C543 C542 1.378 . S
C543 H555 0.950 . S
C543 C574 1.383 . S
H544 C563 0.947 . S
H545 C564 0.946 . S
H546 C566 0.953 . S
H547 C567 0.945 . S
H548 C569 0.952 . S
H549 C570 0.949 . S
H550 C572 0.950 . S
H551 C573 0.948 . S
H552 C575 0.951 . S
H553 C540 0.947 . S
H554 C542 0.952 . S
H555 C543 0.950 . S
N556 C559 1.382 . S
N556 C561 1.363 . S
N557 C559 1.371 . S
N557 C560 1.372 . S
N558 C560 1.361 . S
N558 C561 1.377 . S
C559 N556 1.382 . S
C559 N557 1.371 . S
C559 C562 1.480 . S
C560 N557 1.372 . S
C560 N558 1.361 . S
C560 C568 1.457 . S
C561 N556 1.363 . S
C561 N558 1.377 . S
C561 C574 1.479 . S
C562 C559 1.480 . S
C562 C563 1.383 . S
C562 C567 1.385 . S
C563 H544 0.947 . S
C563 C562 1.383 . S
C563 C564 1.388 . S
C564 H545 0.946 . S
C564 C563 1.388 . S
C564 C565 1.384 . S
C565 C564 1.384 . S
C565 C566 1.377 . S
C566 H546 0.953 . S
C566 C565 1.377 . S
C566 C567 1.369 . S
C567 H547 0.945 . S
C567 C562 1.385 . S
C567 C566 1.369 . S
C568 C560 1.457 . S
C568 C569 1.372 . S
C568 C573 1.364 . S
C569 H548 0.952 . S
C569 C568 1.372 . S
C569 C570 1.389 . S
C570 H549 0.949 . S
C570 C569 1.389 . S
C570 C571 1.387 . S
C571 C570 1.387 . S
C571 C572 1.372 . S
C572 H550 0.950 . S
C572 C571 1.372 . S
C572 C573 1.379 . S
C573 H551 0.948 . S
C573 C568 1.364 . S
C573 C572 1.379 . S
C574 C543 1.383 . S
C574 C561 1.479 . S
C574 C575 1.398 . S
C575 C540 1.382 . S
C575 H552 0.951 . S
C575 C574 1.398 . S
C576 C577 1.384 . S
C576 H589 0.947 . S
C576 C611 1.382 . S
C577 C576 1.384 . S
C577 C578 1.378 . S
C578 C577 1.378 . S
C578 C579 1.378 . S
C578 H590 0.952 . S
C579 C578 1.378 . S
C579 H591 0.950 . S
C579 C610 1.383 . S
H580 C599 0.947 . S
H581 C600 0.946 . S
H582 C602 0.953 . S
H583 C603 0.945 . S
H584 C605 0.952 . S
H585 C606 0.949 . S
H586 C608 0.950 . S
H587 C609 0.948 . S
H588 C611 0.951 . S
H589 C576 0.947 . S
H590 C578 0.952 . S
H591 C579 0.950 . S
N592 C595 1.382 . S
N592 C597 1.363 . S
N593 C595 1.371 . S
N593 C596 1.372 . S
N594 C596 1.361 . S
N594 C597 1.377 . S
C595 N592 1.382 . S
C595 N593 1.371 . S
C595 C598 1.480 . S
C596 N593 1.372 . S
C596 N594 1.361 . S
C596 C604 1.457 . S
C597 N592 1.363 . S
C597 N594 1.377 . S
C597 C610 1.479 . S
C598 C595 1.480 . S
C598 C599 1.383 . S
C598 C603 1.385 . S
C599 H580 0.947 . S
C599 C598 1.383 . S
C599 C600 1.388 . S
C600 H581 0.946 . S
C600 C599 1.388 . S
C600 C601 1.384 . S
C601 C600 1.384 . S
C601 C602 1.377 . S
C602 H582 0.953 . S
C602 C601 1.377 . S
C602 C603 1.369 . S
C603 H583 0.945 . S
C603 C598 1.385 . S
C603 C602 1.369 . S
C604 C596 1.457 . S
C604 C605 1.372 . S
C604 C609 1.364 . S
C605 H584 0.952 . S
C605 C604 1.372 . S
C605 C606 1.389 . S
C606 H585 0.949 . S
C606 C605 1.389 . S
C606 C607 1.387 . S
C607 C606 1.387 . S
C607 C608 1.372 . S
C608 H586 0.950 . S
C608 C607 1.372 . S
C608 C609 1.379 . S
C609 H587 0.948 . S
C609 C604 1.364 . S
C609 C608 1.379 . S
C610 C579 1.383 . S
C610 C597 1.479 . S
C610 C611 1.398 . S
C611 C576 1.382 . S
C611 H588 0.951 . S
C611 C610 1.398 . S
C612 C613 1.384 . S
C612 H625 0.947 . S
C612 C647 1.382 . S
C613 C612 1.384 . S
C613 C614 1.378 . S
C614 C613 1.378 . S
C614 C615 1.378 . S
C614 H626 0.952 . S
C615 C614 1.378 . S
C615 H627 0.950 . S
C615 C646 1.383 . S
H616 C635 0.947 . S
H617 C636 0.946 . S
H618 C638 0.953 . S
H619 C639 0.945 . S
H620 C641 0.952 . S
H621 C642 0.949 . S
H622 C644 0.950 . S
H623 C645 0.948 . S
H624 C647 0.951 . S
H625 C612 0.947 . S
H626 C614 0.952 . S
H627 C615 0.950 . S
N628 C631 1.382 . S
N628 C633 1.363 . S
N629 C631 1.371 . S
N629 C632 1.372 . S
N630 C632 1.361 . S
N630 C633 1.377 . S
C631 N628 1.382 . S
C631 N629 1.371 . S
C631 C634 1.480 . S
C632 N629 1.372 . S
C632 N630 1.361 . S
C632 C640 1.457 . S
C633 N628 1.363 . S
C633 N630 1.377 . S
C633 C646 1.479 . S
C634 C631 1.480 . S
C634 C635 1.383 . S
C634 C639 1.385 . S
C635 H616 0.947 . S
C635 C634 1.383 . S
C635 C636 1.388 . S
C636 H617 0.946 . S
C636 C635 1.388 . S
C636 C637 1.384 . S
C637 C636 1.384 . S
C637 C638 1.377 . S
C638 H618 0.953 . S
C638 C637 1.377 . S
C638 C639 1.369 . S
C639 H619 0.945 . S
C639 C634 1.385 . S
C639 C638 1.369 . S
C640 C632 1.457 . S
C640 C641 1.372 . S
C640 C645 1.364 . S
C641 H620 0.952 . S
C641 C640 1.372 . S
C641 C642 1.389 . S
C642 H621 0.949 . S
C642 C641 1.389 . S
C642 C643 1.387 . S
C643 C642 1.387 . S
C643 C644 1.372 . S
C644 H622 0.950 . S
C644 C643 1.372 . S
C644 C645 1.379 . S
C645 H623 0.948 . S
C645 C640 1.364 . S
C645 C644 1.379 . S
C646 C615 1.383 . S
C646 C633 1.479 . S
C646 C647 1.398 . S
C647 C612 1.382 . S
C647 H624 0.951 . S
C647 C646 1.398 . S
C648 C649 1.384 . S
C648 H661 0.947 . S
C648 C683 1.382 . S
C649 C648 1.384 . S
C649 C650 1.378 . S
C650 C649 1.378 . S
C650 C651 1.378 . S
C650 H662 0.952 . S
C651 C650 1.378 . S
C651 H663 0.950 . S
C651 C682 1.383 . S
H652 C671 0.947 . S
H653 C672 0.946 . S
H654 C674 0.953 . S
H655 C675 0.945 . S
H656 C677 0.952 . S
H657 C678 0.949 . S
H658 C680 0.950 . S
H659 C681 0.948 . S
H660 C683 0.951 . S
H661 C648 0.947 . S
H662 C650 0.952 . S
H663 C651 0.950 . S
N664 C667 1.382 . S
N664 C669 1.363 . S
N665 C667 1.371 . S
N665 C668 1.372 . S
N666 C668 1.361 . S
N666 C669 1.377 . S
C667 N664 1.382 . S
C667 N665 1.371 . S
C667 C670 1.480 . S
C668 N665 1.372 . S
C668 N666 1.361 . S
C668 C676 1.457 . S
C669 N664 1.363 . S
C669 N666 1.377 . S
C669 C682 1.479 . S
C670 C667 1.480 . S
C670 C671 1.383 . S
C670 C675 1.385 . S
C671 H652 0.947 . S
C671 C670 1.383 . S
C671 C672 1.388 . S
C672 H653 0.946 . S
C672 C671 1.388 . S
C672 C673 1.384 . S
C673 C672 1.384 . S
C673 C674 1.377 . S
C674 H654 0.953 . S
C674 C673 1.377 . S
C674 C675 1.369 . S
C675 H655 0.945 . S
C675 C670 1.385 . S
C675 C674 1.369 . S
C676 C668 1.457 . S
C676 C677 1.372 . S
C676 C681 1.364 . S
C677 H656 0.952 . S
C677 C676 1.372 . S
C677 C678 1.389 . S
C678 H657 0.949 . S
C678 C677 1.389 . S
C678 C679 1.387 . S
C679 C678 1.387 . S
C679 C680 1.372 . S
C680 H658 0.950 . S
C680 C679 1.372 . S
C680 C681 1.379 . S
C681 H659 0.948 . S
C681 C676 1.364 . S
C681 C680 1.379 . S
C682 C651 1.383 . S
C682 C669 1.479 . S
C682 C683 1.398 . S
C683 C648 1.382 . S
C683 H660 0.951 . S
C683 C682 1.398 . S
C684 C685 1.384 . S
C684 H697 0.947 . S
C684 C719 1.382 . S
C685 C684 1.384 . S
C685 C686 1.378 . S
C686 C685 1.378 . S
C686 C687 1.378 . S
C686 H698 0.952 . S
C687 C686 1.378 . S
C687 H699 0.950 . S
C687 C718 1.383 . S
H688 C707 0.947 . S
H689 C708 0.946 . S
H690 C710 0.953 . S
H691 C711 0.945 . S
H692 C713 0.952 . S
H693 C714 0.949 . S
H694 C716 0.950 . S
H695 C717 0.948 . S
H696 C719 0.951 . S
H697 C684 0.947 . S
H698 C686 0.952 . S
H699 C687 0.950 . S
N700 C703 1.382 . S
N700 C705 1.363 . S
N701 C703 1.371 . S
N701 C704 1.372 . S
N702 C704 1.361 . S
N702 C705 1.377 . S
C703 N700 1.382 . S
C703 N701 1.371 . S
C703 C706 1.480 . S
C704 N701 1.372 . S
C704 N702 1.361 . S
C704 C712 1.457 . S
C705 N700 1.363 . S
C705 N702 1.377 . S
C705 C718 1.479 . S
C706 C703 1.480 . S
C706 C707 1.383 . S
C706 C711 1.385 . S
C707 H688 0.947 . S
C707 C706 1.383 . S
C707 C708 1.388 . S
C708 H689 0.946 . S
C708 C707 1.388 . S
C708 C709 1.384 . S
C709 C708 1.384 . S
C709 C710 1.377 . S
C710 H690 0.953 . S
C710 C709 1.377 . S
C710 C711 1.369 . S
C711 H691 0.945 . S
C711 C706 1.385 . S
C711 C710 1.369 . S
C712 C704 1.457 . S
C712 C713 1.372 . S
C712 C717 1.364 . S
C713 H692 0.952 . S
C713 C712 1.372 . S
C713 C714 1.389 . S
C714 H693 0.949 . S
C714 C713 1.389 . S
C714 C715 1.387 . S
C715 C714 1.387 . S
C715 C716 1.372 . S
C716 H694 0.950 . S
C716 C715 1.372 . S
C716 C717 1.379 . S
C717 H695 0.948 . S
C717 C712 1.364 . S
C717 C716 1.379 . S
C718 C687 1.383 . S
C718 C705 1.479 . S
C718 C719 1.398 . S
C719 C684 1.382 . S
C719 H696 0.951 . S
C719 C718 1.398 . S
C720 C721 1.384 . S
C720 H733 0.947 . S
C720 C755 1.382 . S
C721 C720 1.384 . S
C721 C722 1.378 . S
C722 C721 1.378 . S
C722 C723 1.378 . S
C722 H734 0.952 . S
C723 C722 1.378 . S
C723 H735 0.950 . S
C723 C754 1.383 . S
H724 C743 0.947 . S
H725 C744 0.946 . S
H726 C746 0.953 . S
H727 C747 0.945 . S
H728 C749 0.952 . S
H729 C750 0.949 . S
H730 C752 0.950 . S
H731 C753 0.948 . S
H732 C755 0.951 . S
H733 C720 0.947 . S
H734 C722 0.952 . S
H735 C723 0.950 . S
N736 C739 1.382 . S
N736 C741 1.363 . S
N737 C739 1.371 . S
N737 C740 1.372 . S
N738 C740 1.361 . S
N738 C741 1.377 . S
C739 N736 1.382 . S
C739 N737 1.371 . S
C739 C742 1.480 . S
C740 N737 1.372 . S
C740 N738 1.361 . S
C740 C748 1.457 . S
C741 N736 1.363 . S
C741 N738 1.377 . S
C741 C754 1.479 . S
C742 C739 1.480 . S
C742 C743 1.383 . S
C742 C747 1.385 . S
C743 H724 0.947 . S
C743 C742 1.383 . S
C743 C744 1.388 . S
C744 H725 0.946 . S
C744 C743 1.388 . S
C744 C745 1.384 . S
C745 C744 1.384 . S
C745 C746 1.377 . S
C746 H726 0.953 . S
C746 C745 1.377 . S
C746 C747 1.369 . S
C747 H727 0.945 . S
C747 C742 1.385 . S
C747 C746 1.369 . S
C748 C740 1.457 . S
C748 C749 1.372 . S
C748 C753 1.364 . S
C749 H728 0.952 . S
C749 C748 1.372 . S
C749 C750 1.389 . S
C750 H729 0.949 . S
C750 C749 1.389 . S
C750 C751 1.387 . S
C751 C750 1.387 . S
C751 C752 1.372 . S
C752 H730 0.950 . S
C752 C751 1.372 . S
C752 C753 1.379 . S
C753 H731 0.948 . S
C753 C748 1.364 . S
C753 C752 1.379 . S
C754 C723 1.383 . S
C754 C741 1.479 . S
C754 C755 1.398 . S
C755 C720 1.382 . S
C755 H732 0.951 . S
C755 C754 1.398 . S
C756 C757 1.384 . S
C756 H769 0.947 . S
C756 C791 1.382 . S
C757 C756 1.384 . S
C757 C758 1.378 . S
C758 C757 1.378 . S
C758 C759 1.378 . S
C758 H770 0.952 . S
C759 C758 1.378 . S
C759 H771 0.950 . S
C759 C790 1.383 . S
H760 C779 0.947 . S
H761 C780 0.946 . S
H762 C782 0.953 . S
H763 C783 0.945 . S
H764 C785 0.952 . S
H765 C786 0.949 . S
H766 C788 0.950 . S
H767 C789 0.948 . S
H768 C791 0.951 . S
H769 C756 0.947 . S
H770 C758 0.952 . S
H771 C759 0.950 . S
N772 C775 1.382 . S
N772 C777 1.363 . S
N773 C775 1.371 . S
N773 C776 1.372 . S
N774 C776 1.361 . S
N774 C777 1.377 . S
C775 N772 1.382 . S
C775 N773 1.371 . S
C775 C778 1.480 . S
C776 N773 1.372 . S
C776 N774 1.361 . S
C776 C784 1.457 . S
C777 N772 1.363 . S
C777 N774 1.377 . S
C777 C790 1.479 . S
C778 C775 1.480 . S
C778 C779 1.383 . S
C778 C783 1.385 . S
C779 H760 0.947 . S
C779 C778 1.383 . S
C779 C780 1.388 . S
C780 H761 0.946 . S
C780 C779 1.388 . S
C780 C781 1.384 . S
C781 C780 1.384 . S
C781 C782 1.377 . S
C782 H762 0.953 . S
C782 C781 1.377 . S
C782 C783 1.369 . S
C783 H763 0.945 . S
C783 C778 1.385 . S
C783 C782 1.369 . S
C784 C776 1.457 . S
C784 C785 1.372 . S
C784 C789 1.364 . S
C785 H764 0.952 . S
C785 C784 1.372 . S
C785 C786 1.389 . S
C786 H765 0.949 . S
C786 C785 1.389 . S
C786 C787 1.387 . S
C787 C786 1.387 . S
C787 C788 1.372 . S
C788 H766 0.950 . S
C788 C787 1.372 . S
C788 C789 1.379 . S
C789 H767 0.948 . S
C789 C784 1.364 . S
C789 C788 1.379 . S
C790 C759 1.383 . S
C790 C777 1.479 . S
C790 C791 1.398 . S
C791 C756 1.382 . S
C791 H768 0.951 . S
C791 C790 1.398 . S
C792 C793 1.384 . S
C792 H805 0.947 . S
C792 C827 1.382 . S
C793 C792 1.384 . S
C793 C794 1.378 . S
C794 C793 1.378 . S
C794 C795 1.378 . S
C794 H806 0.952 . S
C795 C794 1.378 . S
C795 H807 0.950 . S
C795 C826 1.383 . S
H796 C815 0.947 . S
H797 C816 0.946 . S
H798 C818 0.953 . S
H799 C819 0.945 . S
H800 C821 0.952 . S
H801 C822 0.949 . S
H802 C824 0.950 . S
H803 C825 0.948 . S
H804 C827 0.951 . S
H805 C792 0.947 . S
H806 C794 0.952 . S
H807 C795 0.950 . S
N808 C811 1.382 . S
N808 C813 1.363 . S
N809 C811 1.371 . S
N809 C812 1.372 . S
N810 C812 1.361 . S
N810 C813 1.377 . S
C811 N808 1.382 . S
C811 N809 1.371 . S
C811 C814 1.480 . S
C812 N809 1.372 . S
C812 N810 1.361 . S
C812 C820 1.457 . S
C813 N808 1.363 . S
C813 N810 1.377 . S
C813 C826 1.479 . S
C814 C811 1.480 . S
C814 C815 1.383 . S
C814 C819 1.385 . S
C815 H796 0.947 . S
C815 C814 1.383 . S
C815 C816 1.388 . S
C816 H797 0.946 . S
C816 C815 1.388 . S
C816 C817 1.384 . S
C817 C816 1.384 . S
C817 C818 1.377 . S
C818 H798 0.953 . S
C818 C817 1.377 . S
C818 C819 1.369 . S
C819 H799 0.945 . S
C819 C814 1.385 . S
C819 C818 1.369 . S
C820 C812 1.457 . S
C820 C821 1.372 . S
C820 C825 1.364 . S
C821 H800 0.952 . S
C821 C820 1.372 . S
C821 C822 1.389 . S
C822 H801 0.949 . S
C822 C821 1.389 . S
C822 C823 1.387 . S
C823 C822 1.387 . S
C823 C824 1.372 . S
C824 H802 0.950 . S
C824 C823 1.372 . S
C824 C825 1.379 . S
C825 H803 0.948 . S
C825 C820 1.364 . S
C825 C824 1.379 . S
C826 C795 1.383 . S
C826 C813 1.479 . S
C826 C827 1.398 . S
C827 C792 1.382 . S
C827 H804 0.951 . S
C827 C826 1.398 . S
C828 C829 1.384 . S
C828 H841 0.947 . S
C828 C863 1.382 . S
C829 C828 1.384 . S
C829 C830 1.378 . S
C830 C829 1.378 . S
C830 C831 1.378 . S
C830 H842 0.952 . S
C831 C830 1.378 . S
C831 H843 0.950 . S
C831 C862 1.383 . S
H832 C851 0.947 . S
H833 C852 0.946 . S
H834 C854 0.953 . S
H835 C855 0.945 . S
H836 C857 0.952 . S
H837 C858 0.949 . S
H838 C860 0.950 . S
H839 C861 0.948 . S
H840 C863 0.951 . S
H841 C828 0.947 . S
H842 C830 0.952 . S
H843 C831 0.950 . S
N844 C847 1.382 . S
N844 C849 1.363 . S
N845 C847 1.371 . S
N845 C848 1.372 . S
N846 C848 1.361 . S
N846 C849 1.377 . S
C847 N844 1.382 . S
C847 N845 1.371 . S
C847 C850 1.480 . S
C848 N845 1.372 . S
C848 N846 1.361 . S
C848 C856 1.457 . S
C849 N844 1.363 . S
C849 N846 1.377 . S
C849 C862 1.479 . S
C850 C847 1.480 . S
C850 C851 1.383 . S
C850 C855 1.385 . S
C851 H832 0.947 . S
C851 C850 1.383 . S
C851 C852 1.388 . S
C852 H833 0.946 . S
C852 C851 1.388 . S
C852 C853 1.384 . S
C853 C852 1.384 . S
C853 C854 1.377 . S
C854 H834 0.953 . S
C854 C853 1.377 . S
C854 C855 1.369 . S
C855 H835 0.945 . S
C855 C850 1.385 . S
C855 C854 1.369 . S
C856 C848 1.457 . S
C856 C857 1.372 . S
C856 C861 1.364 . S
C857 H836 0.952 . S
C857 C856 1.372 . S
C857 C858 1.389 . S
C858 H837 0.949 . S
C858 C857 1.389 . S
C858 C859 1.387 . S
C859 C858 1.387 . S
C859 C860 1.372 . S
C860 H838 0.950 . S
C860 C859 1.372 . S
C860 C861 1.379 . S
C861 H839 0.948 . S
C861 C856 1.364 . S
C861 C860 1.379 . S
C862 C831 1.383 . S
C862 C849 1.479 . S
C862 C863 1.398 . S
C863 C828 1.382 . S
C863 H840 0.951 . S
C863 C862 1.398 . S
C864 O890 1.283 . S
C864 O908 1.283 . S
C865 O891 1.283 . S
C865 O906 1.283 . S
C866 O892 1.283 . S
C866 O909 1.283 . S
C867 O893 1.283 . S
C867 O907 1.283 . S
C868 O894 1.283 . S
C868 O903 1.283 . S
C869 O895 1.283 . S
C869 O905 1.283 . S
C870 O896 1.283 . S
C870 O902 1.283 . S
C871 O897 1.283 . S
C871 O904 1.283 . S
C872 O898 1.283 . S
C872 O913 1.283 . S
C873 O899 1.283 . S
C873 O911 1.283 . S
C874 O900 1.283 . S
C874 O912 1.283 . S
C875 O901 1.283 . S
C875 O910 1.283 . S
Eu876 O877 2.366 1_455 S
Eu876 O878 2.374 . S
Eu876 O881 2.366 1_455 S
Eu876 O882 2.374 . S
Eu876 O890 2.363 . S
Eu876 O891 2.363 . S
Eu876 O904 2.370 . S
Eu876 O905 2.356 1_455 S
O877 Eu876 2.366 1_655 S
O877 Eu879 2.369 1_565 S
O877 Eu884 2.365 1_665 S
O878 Eu876 2.374 . S
O878 Eu880 2.369 1_565 S
O878 Eu883 2.373 1_565 S
Eu879 O877 2.369 1_545 S
Eu879 O881 2.369 1_545 S
Eu879 O885 2.371 . S
Eu879 O886 2.371 . S
Eu879 O894 2.364 . S
Eu879 O895 2.362 1_545 S
Eu879 O910 2.363 . S
Eu879 O911 2.363 . S
Eu880 O878 2.369 1_545 S
Eu880 O882 2.369 1_545 S
Eu880 O887 2.371 . S
Eu880 O888 2.371 . S
Eu880 O896 2.365 . S
Eu880 O897 2.361 1_545 S
Eu880 O912 2.363 . S
Eu880 O913 2.363 . S
O881 Eu876 2.366 1_655 S
O881 Eu879 2.369 1_565 S
O881 Eu883 2.365 1_665 S
O882 Eu876 2.374 . S
O882 Eu880 2.369 1_565 S
O882 Eu884 2.373 1_565 S
Eu883 O878 2.373 1_545 S
Eu883 O881 2.365 1_445 S
Eu883 O885 2.367 1_455 S
Eu883 O888 2.375 . S
Eu883 O900 2.369 . S
Eu883 O901 2.357 1_455 S
Eu883 O908 2.361 1_545 S
Eu883 O909 2.365 . S
Eu884 O877 2.365 1_445 S
Eu884 O882 2.373 1_545 S
Eu884 O886 2.367 1_455 S
Eu884 O887 2.375 . S
Eu884 O898 2.369 . S
Eu884 O899 2.357 1_455 S
Eu884 O906 2.361 1_545 S
Eu884 O907 2.365 . S
O885 Eu879 2.371 . S
O885 Eu883 2.367 1_655 S
O885 Eu889 2.367 1_655 S
O886 Eu879 2.371 . S
O886 Eu884 2.367 1_655 S
O886 Eu889 2.367 1_655 S
O887 Eu880 2.371 . S
O887 Eu884 2.375 . S
O887 Eu889 2.374 . S
O888 Eu880 2.371 . S
O888 Eu883 2.375 . S
O888 Eu889 2.374 . S
Eu889 O885 2.367 1_455 S
Eu889 O886 2.367 1_455 S
Eu889 O887 2.374 . S
Eu889 O888 2.374 . S
Eu889 O892 2.363 . S
Eu889 O893 2.363 . S
Eu889 O902 2.369 . S
Eu889 O903 2.357 1_455 S
O890 C864 1.283 . S
O890 Eu876 2.363 . S
O891 C865 1.283 . S
O891 Eu876 2.363 . S
O892 C866 1.283 . S
O892 Eu889 2.363 . S
O893 C867 1.283 . S
O893 Eu889 2.363 . S
O894 C868 1.283 . S
O894 Eu879 2.364 . S
O895 C869 1.283 . S
O895 Eu879 2.362 1_565 S
O896 C870 1.283 . S
O896 Eu880 2.365 . S
O897 C871 1.283 . S
O897 Eu880 2.361 1_565 S
O898 C872 1.283 . S
O898 Eu884 2.369 . S
O899 C873 1.283 . S
O899 Eu884 2.357 1_655 S
O900 C874 1.283 . S
O900 Eu883 2.369 . S
O901 C875 1.283 . S
O901 Eu883 2.357 1_655 S
O902 C870 1.283 . S
O902 Eu889 2.369 . S
O903 C868 1.283 . S
O903 Eu889 2.357 1_655 S
O904 C871 1.283 . S
O904 Eu876 2.370 . S
O905 C869 1.283 . S
O905 Eu876 2.356 1_655 S
O906 C865 1.283 . S
O906 Eu884 2.361 1_565 S
O907 C867 1.283 . S
O907 Eu884 2.365 . S
O908 C864 1.283 . S
O908 Eu883 2.361 1_565 S
O909 C866 1.283 . S
O909 Eu883 2.365 . S
O910 C875 1.283 . S
O910 Eu879 2.363 . S
O911 C873 1.283 . S
O911 Eu879 2.363 . S
O912 C874 1.283 . S
O912 Eu880 2.363 . S
O913 C872 1.283 . S
O913 Eu880 2.363 . S
C914 O940 1.283 . S
C914 O958 1.283 . S
C915 O941 1.283 . S
C915 O956 1.283 . S
C916 O942 1.283 . S
C916 O959 1.283 . S
C917 O943 1.283 . S
C917 O957 1.283 . S
C918 O944 1.283 . S
C918 O953 1.283 . S
C919 O945 1.283 . S
C919 O955 1.283 . S
C920 O946 1.283 . S
C920 O952 1.283 . S
C921 O947 1.283 . S
C921 O954 1.283 . S
C922 O948 1.283 . S
C922 O963 1.283 . S
C923 O949 1.283 . S
C923 O961 1.283 . S
C924 O950 1.283 . S
C924 O962 1.283 . S
C925 O951 1.283 . S
C925 O960 1.283 . S
Eu926 O927 2.370 . S
Eu926 O928 2.370 1_545 S
Eu926 O931 2.370 1_545 S
Eu926 O932 2.370 . S
Eu926 O940 2.363 1_545 S
Eu926 O941 2.363 . S
Eu926 O954 2.363 . S
Eu926 O955 2.363 . S
O927 Eu926 2.370 . S
O927 Eu929 2.383 . S
O927 Eu934 2.383 . S
O928 Eu926 2.370 1_565 S
O928 Eu930 2.383 1_565 S
O928 Eu933 2.383 . S
Eu929 O927 2.383 . S
Eu929 O931 2.383 1_545 S
Eu929 O935 2.358 1_544 S
Eu929 O936 2.357 1_554 S
Eu929 O944 2.341 1_554 S
Eu929 O945 2.384 . S
Eu929 O960 2.363 1_545 S
Eu929 O961 2.363 . S
Eu930 O928 2.383 1_545 S
Eu930 O932 2.383 . S
Eu930 O937 2.358 1_554 S
Eu930 O938 2.357 1_544 S
Eu930 O946 2.342 1_554 S
Eu930 O947 2.384 . S
Eu930 O962 2.363 1_545 S
Eu930 O963 2.363 . S
O931 Eu926 2.370 1_565 S
O931 Eu929 2.383 1_565 S
O931 Eu933 2.383 . S
O932 Eu926 2.370 . S
O932 Eu930 2.383 . S
O932 Eu934 2.383 . S
Eu933 O928 2.383 . S
Eu933 O931 2.383 . S
Eu933 O935 2.357 1_554 S
Eu933 O938 2.357 1_554 S
Eu933 O950 2.363 . S
Eu933 O951 2.363 . S
Eu933 O958 2.384 . S
Eu933 O959 2.341 1_554 S
Eu934 O927 2.383 . S
Eu934 O932 2.383 . S
Eu934 O936 2.357 1_554 S
Eu934 O937 2.357 1_554 S
Eu934 O948 2.363 . S
Eu934 O949 2.363 . S
Eu934 O956 2.384 . S
Eu934 O957 2.342 1_554 S
O935 Eu929 2.358 1_566 S
O935 Eu933 2.357 1_556 S
O935 Eu939 2.370 1_565 S
O936 Eu929 2.357 1_556 S
O936 Eu934 2.357 1_556 S
O936 Eu939 2.370 . S
O937 Eu930 2.358 1_556 S
O937 Eu934 2.357 1_556 S
O937 Eu939 2.370 . S
O938 Eu930 2.357 1_566 S
O938 Eu933 2.357 1_556 S
O938 Eu939 2.370 1_565 S
Eu939 O935 2.370 1_545 S
Eu939 O936 2.370 . S
Eu939 O937 2.370 . S
Eu939 O938 2.370 1_545 S
Eu939 O942 2.363 1_545 S
Eu939 O943 2.363 . S
Eu939 O952 2.363 . S
Eu939 O953 2.363 . S
O940 C914 1.283 . S
O940 Eu926 2.363 1_565 S
O941 C915 1.283 . S
O941 Eu926 2.363 . S
O942 C916 1.283 . S
O942 Eu939 2.363 1_565 S
O943 C917 1.283 . S
O943 Eu939 2.363 . S
O944 C918 1.283 . S
O944 Eu929 2.341 1_556 S
O945 C919 1.283 . S
O945 Eu929 2.384 . S
O946 C920 1.283 . S
O946 Eu930 2.342 1_556 S
O947 C921 1.283 . S
O947 Eu930 2.384 . S
O948 C922 1.283 . S
O948 Eu934 2.363 . S
O949 C923 1.283 . S
O949 Eu934 2.363 . S
O950 C924 1.283 . S
O950 Eu933 2.363 . S
O951 C925 1.283 . S
O951 Eu933 2.363 . S
O952 C920 1.283 . S
O952 Eu939 2.363 . S
O953 C918 1.283 . S
O953 Eu939 2.363 . S
O954 C921 1.283 . S
O954 Eu926 2.363 . S
O955 C919 1.283 . S
O955 Eu926 2.363 . S
O956 C915 1.283 . S
O956 Eu934 2.384 . S
O957 C917 1.283 . S
O957 Eu934 2.342 1_556 S
O958 C914 1.283 . S
O958 Eu933 2.384 . S
O959 C916 1.283 . S
O959 Eu933 2.341 1_556 S
O960 C925 1.283 . S
O960 Eu929 2.363 1_565 S
O961 C923 1.283 . S
O961 Eu929 2.363 . S
O962 C924 1.283 . S
O962 Eu930 2.363 1_565 S
O963 C922 1.283 . S
O963 Eu930 2.363 . S
C964 O990 1.283 . S
C964 O1008 1.283 . S
C965 O991 1.283 . S
C965 O1006 1.283 . S
C966 O992 1.283 . S
C966 O1009 1.283 . S
C967 O993 1.283 . S
C967 O1007 1.283 . S
C968 O994 1.283 . S
C968 O1003 1.283 . S
C969 O995 1.283 . S
C969 O1005 1.283 . S
C970 O996 1.283 . S
C970 O1002 1.283 . S
C971 O997 1.283 . S
C971 O1004 1.283 . S
C972 O998 1.283 . S
C972 O1013 1.283 . S
C973 O999 1.283 . S
C973 O1011 1.283 . S
C974 O1000 1.283 . S
C974 O1012 1.283 . S
C975 O1001 1.283 . S
C975 O1010 1.283 . S
Eu976 O977 2.355 1_454 S
Eu976 O978 2.385 . S
Eu976 O981 2.374 1_455 S
Eu976 O982 2.366 1_554 S
Eu976 O990 2.379 . S
Eu976 O991 2.347 1_554 S
Eu976 O1004 2.372 . S
Eu976 O1005 2.354 1_455 S
O977 Eu976 2.355 1_656 S
O977 Eu979 2.361 1_556 S
O977 Eu984 2.365 1_655 S
O978 Eu976 2.385 . S
O978 Eu980 2.379 . S
O978 Eu983 2.376 . S
Eu979 O977 2.361 1_554 S
Eu979 O981 2.379 . S
Eu979 O985 2.379 . S
Eu979 O986 2.361 1_554 S
Eu979 O994 2.363 . S
Eu979 O995 2.363 . S
Eu979 O1010 2.379 . S
Eu979 O1011 2.347 1_554 S
Eu980 O978 2.379 . S
Eu980 O982 2.361 1_554 S
Eu980 O987 2.361 1_554 S
Eu980 O988 2.379 . S
Eu980 O996 2.363 . S
Eu980 O997 2.363 . S
Eu980 O1012 2.379 . S
Eu980 O1013 2.347 1_554 S
O981 Eu976 2.374 1_655 S
O981 Eu979 2.379 . S
O981 Eu983 2.365 1_655 S
O982 Eu976 2.366 1_556 S
O982 Eu980 2.361 1_556 S
O982 Eu984 2.376 . S
Eu983 O978 2.376 . S
Eu983 O981 2.365 1_455 S
Eu983 O985 2.365 1_455 S
Eu983 O988 2.376 . S
Eu983 O1000 2.372 . S
Eu983 O1001 2.354 1_455 S
Eu983 O1008 2.363 . S
Eu983 O1009 2.363 . S
Eu984 O977 2.365 1_455 S
Eu984 O982 2.376 . S
Eu984 O986 2.365 1_455 S
Eu984 O987 2.376 . S
Eu984 O998 2.372 . S
Eu984 O999 2.354 1_455 S
Eu984 O1006 2.363 . S
Eu984 O1007 2.363 . S
O985 Eu979 2.379 . S
O985 Eu983 2.365 1_655 S
O985 Eu989 2.374 1_655 S
O986 Eu979 2.361 1_556 S
O986 Eu984 2.365 1_655 S
O986 Eu989 2.355 1_656 S
O987 Eu980 2.361 1_556 S
O987 Eu984 2.376 . S
O987 Eu989 2.366 1_556 S
O988 Eu980 2.379 . S
O988 Eu983 2.376 . S
O988 Eu989 2.385 . S
Eu989 O985 2.374 1_455 S
Eu989 O986 2.355 1_454 S
Eu989 O987 2.366 1_554 S
Eu989 O988 2.385 . S
Eu989 O992 2.379 . S
Eu989 O993 2.347 1_554 S
Eu989 O1002 2.372 . S
Eu989 O1003 2.354 1_455 S
O990 C964 1.283 . S
O990 Eu976 2.379 . S
O991 C965 1.283 . S
O991 Eu976 2.347 1_556 S
O992 C966 1.283 . S
O992 Eu989 2.379 . S
O993 C967 1.283 . S
O993 Eu989 2.347 1_556 S
O994 C968 1.283 . S
O994 Eu979 2.363 . S
O995 C969 1.283 . S
O995 Eu979 2.363 . S
O996 C970 1.283 . S
O996 Eu980 2.363 . S
O997 C971 1.283 . S
O997 Eu980 2.363 . S
O998 C972 1.283 . S
O998 Eu984 2.372 . S
O999 C973 1.283 . S
O999 Eu984 2.354 1_655 S
O1000 C974 1.283 . S
O1000 Eu983 2.372 . S
O1001 C975 1.283 . S
O1001 Eu983 2.354 1_655 S
O1002 C970 1.283 . S
O1002 Eu989 2.372 . S
O1003 C968 1.283 . S
O1003 Eu989 2.354 1_655 S
O1004 C971 1.283 . S
O1004 Eu976 2.372 . S
O1005 C969 1.283 . S
O1005 Eu976 2.354 1_655 S
O1006 C965 1.283 . S
O1006 Eu984 2.363 . S
O1007 C967 1.283 . S
O1007 Eu984 2.363 . S
O1008 C964 1.283 . S
O1008 Eu983 2.363 . S
O1009 C966 1.283 . S
O1009 Eu983 2.363 . S
O1010 C975 1.283 . S
O1010 Eu979 2.379 . S
O1011 C973 1.283 . S
O1011 Eu979 2.347 1_556 S
O1012 C974 1.283 . S
O1012 Eu980 2.379 . S
O1013 C972 1.283 . S
O1013 Eu980 2.347 1_556 S
C1014 O1040 1.283 . S
C1014 O1058 1.283 . S
C1015 O1041 1.283 . S
C1015 O1056 1.283 . S
C1016 O1042 1.283 . S
C1016 O1059 1.283 . S
C1017 O1043 1.283 . S
C1017 O1057 1.283 . S
C1018 O1044 1.283 . S
C1018 O1053 1.283 . S
C1019 O1045 1.283 . S
C1019 O1055 1.283 . S
C1020 O1046 1.283 . S
C1020 O1052 1.283 . S
C1021 O1047 1.283 . S
C1021 O1054 1.283 . S
C1022 O1048 1.283 . S
C1022 O1063 1.283 . S
C1023 O1049 1.283 . S
C1023 O1061 1.283 . S
C1024 O1050 1.283 . S
C1024 O1062 1.283 . S
C1025 O1051 1.283 . S
C1025 O1060 1.283 . S
Eu1026 O1027 2.370 . S
Eu1026 O1028 2.370 . S
Eu1026 O1031 2.370 . S
Eu1026 O1032 2.370 . S
Eu1026 O1040 2.363 . S
Eu1026 O1041 2.363 . S
Eu1026 O1054 2.363 . S
Eu1026 O1055 2.363 . S
O1027 Eu1026 2.370 . S
O1027 Eu1029 2.381 . S
O1027 Eu1034 2.381 . S
O1028 Eu1026 2.370 . S
O1028 Eu1030 2.381 . S
O1028 Eu1033 2.381 . S
Eu1029 O1027 2.381 . S
Eu1029 O1031 2.381 . S
Eu1029 O1035 2.359 1_554 S
Eu1029 O1036 2.359 1_554 S
Eu1029 O1044 2.344 1_554 S
Eu1029 O1045 2.382 . S
Eu1029 O1060 2.363 . S
Eu1029 O1061 2.363 . S
Eu1030 O1028 2.381 . S
Eu1030 O1032 2.381 . S
Eu1030 O1037 2.359 1_554 S
Eu1030 O1038 2.359 1_554 S
Eu1030 O1046 2.344 1_554 S
Eu1030 O1047 2.382 . S
Eu1030 O1062 2.363 . S
Eu1030 O1063 2.363 . S
O1031 Eu1026 2.370 . S
O1031 Eu1029 2.381 . S
O1031 Eu1033 2.381 . S
O1032 Eu1026 2.370 . S
O1032 Eu1030 2.381 . S
O1032 Eu1034 2.381 . S
Eu1033 O1028 2.381 . S
Eu1033 O1031 2.381 . S
Eu1033 O1035 2.359 1_554 S
Eu1033 O1038 2.359 1_554 S
Eu1033 O1050 2.363 . S
Eu1033 O1051 2.363 . S
Eu1033 O1058 2.382 . S
Eu1033 O1059 2.344 1_554 S
Eu1034 O1027 2.381 . S
Eu1034 O1032 2.381 . S
Eu1034 O1036 2.359 1_554 S
Eu1034 O1037 2.359 1_554 S
Eu1034 O1048 2.363 . S
Eu1034 O1049 2.363 . S
Eu1034 O1056 2.382 . S
Eu1034 O1057 2.344 1_554 S
O1035 Eu1029 2.359 1_556 S
O1035 Eu1033 2.359 1_556 S
O1035 Eu1039 2.370 . S
O1036 Eu1029 2.359 1_556 S
O1036 Eu1034 2.359 1_556 S
O1036 Eu1039 2.370 . S
O1037 Eu1030 2.359 1_556 S
O1037 Eu1034 2.359 1_556 S
O1037 Eu1039 2.370 . S
O1038 Eu1030 2.359 1_556 S
O1038 Eu1033 2.359 1_556 S
O1038 Eu1039 2.370 . S
Eu1039 O1035 2.370 . S
Eu1039 O1036 2.370 . S
Eu1039 O1037 2.370 . S
Eu1039 O1038 2.370 . S
Eu1039 O1042 2.363 . S
Eu1039 O1043 2.363 . S
Eu1039 O1052 2.363 . S
Eu1039 O1053 2.363 . S
O1040 C1014 1.283 . S
O1040 Eu1026 2.363 . S
O1041 C1015 1.283 . S
O1041 Eu1026 2.363 . S
O1042 C1016 1.283 . S
O1042 Eu1039 2.363 . S
O1043 C1017 1.283 . S
O1043 Eu1039 2.363 . S
O1044 C1018 1.283 . S
O1044 Eu1029 2.344 1_556 S
O1045 C1019 1.283 . S
O1045 Eu1029 2.382 . S
O1046 C1020 1.283 . S
O1046 Eu1030 2.344 1_556 S
O1047 C1021 1.283 . S
O1047 Eu1030 2.382 . S
O1048 C1022 1.283 . S
O1048 Eu1034 2.363 . S
O1049 C1023 1.283 . S
O1049 Eu1034 2.363 . S
O1050 C1024 1.283 . S
O1050 Eu1033 2.363 . S
O1051 C1025 1.283 . S
O1051 Eu1033 2.363 . S
O1052 C1020 1.283 . S
O1052 Eu1039 2.363 . S
O1053 C1018 1.283 . S
O1053 Eu1039 2.363 . S
O1054 C1021 1.283 . S
O1054 Eu1026 2.363 . S
O1055 C1019 1.283 . S
O1055 Eu1026 2.363 . S
O1056 C1015 1.283 . S
O1056 Eu1034 2.382 . S
O1057 C1017 1.283 . S
O1057 Eu1034 2.344 1_556 S
O1058 C1014 1.283 . S
O1058 Eu1033 2.382 . S
O1059 C1016 1.283 . S
O1059 Eu1033 2.344 1_556 S
O1060 C1025 1.283 . S
O1060 Eu1029 2.363 . S
O1061 C1023 1.283 . S
O1061 Eu1029 2.363 . S
O1062 C1024 1.283 . S
O1062 Eu1030 2.363 . S
O1063 C1022 1.283 . S
O1063 Eu1030 2.363 . S
C1064 O1090 1.283 . S
C1064 O1108 1.283 . S
C1065 O1091 1.283 . S
C1065 O1106 1.283 . S
C1066 O1092 1.283 . S
C1066 O1109 1.283 . S
C1067 O1093 1.283 . S
C1067 O1107 1.283 . S
C1068 O1094 1.283 . S
C1068 O1103 1.283 . S
C1069 O1095 1.283 . S
C1069 O1105 1.283 . S
C1070 O1096 1.283 . S
C1070 O1102 1.283 . S
C1071 O1097 1.283 . S
C1071 O1104 1.283 . S
C1072 O1098 1.283 . S
C1072 O1113 1.283 . S
C1073 O1099 1.283 . S
C1073 O1111 1.283 . S
C1074 O1100 1.283 . S
C1074 O1112 1.283 . S
C1075 O1101 1.283 . S
C1075 O1110 1.283 . S
Eu1076 O1077 2.365 1_455 S
Eu1076 O1078 2.375 . S
Eu1076 O1081 2.365 1_455 S
Eu1076 O1082 2.375 . S
Eu1076 O1090 2.363 . S
Eu1076 O1091 2.363 . S
Eu1076 O1104 2.371 . S
Eu1076 O1105 2.355 1_455 S
O1077 Eu1076 2.365 1_655 S
O1077 Eu1079 2.370 . S
O1077 Eu1084 2.365 1_655 S
O1078 Eu1076 2.375 . S
O1078 Eu1080 2.370 . S
O1078 Eu1083 2.375 . S
Eu1079 O1077 2.370 . S
Eu1079 O1081 2.370 . S
Eu1079 O1085 2.370 . S
Eu1079 O1086 2.370 . S
Eu1079 O1094 2.363 . S
Eu1079 O1095 2.363 . S
Eu1079 O1110 2.363 . S
Eu1079 O1111 2.363 . S
Eu1080 O1078 2.370 . S
Eu1080 O1082 2.370 . S
Eu1080 O1087 2.370 . S
Eu1080 O1088 2.370 . S
Eu1080 O1096 2.363 . S
Eu1080 O1097 2.363 . S
Eu1080 O1112 2.363 . S
Eu1080 O1113 2.363 . S
O1081 Eu1076 2.365 1_655 S
O1081 Eu1079 2.370 . S
O1081 Eu1083 2.365 1_655 S
O1082 Eu1076 2.375 . S
O1082 Eu1080 2.370 . S
O1082 Eu1084 2.375 . S
Eu1083 O1078 2.375 . S
Eu1083 O1081 2.365 1_455 S
Eu1083 O1085 2.365 1_455 S
Eu1083 O1088 2.375 . S
Eu1083 O1100 2.371 . S
Eu1083 O1101 2.355 1_455 S
Eu1083 O1108 2.363 . S
Eu1083 O1109 2.363 . S
Eu1084 O1077 2.365 1_455 S
Eu1084 O1082 2.375 . S
Eu1084 O1086 2.365 1_455 S
Eu1084 O1087 2.375 . S
Eu1084 O1098 2.371 . S
Eu1084 O1099 2.355 1_455 S
Eu1084 O1106 2.363 . S
Eu1084 O1107 2.363 . S
O1085 Eu1079 2.370 . S
O1085 Eu1083 2.365 1_655 S
O1085 Eu1089 2.365 1_655 S
O1086 Eu1079 2.370 . S
O1086 Eu1084 2.365 1_655 S
O1086 Eu1089 2.365 1_655 S
O1087 Eu1080 2.370 . S
O1087 Eu1084 2.375 . S
O1087 Eu1089 2.375 . S
O1088 Eu1080 2.370 . S
O1088 Eu1083 2.375 . S
O1088 Eu1089 2.375 . S
Eu1089 O1085 2.365 1_455 S
Eu1089 O1086 2.365 1_455 S
Eu1089 O1087 2.375 . S
Eu1089 O1088 2.375 . S
Eu1089 O1092 2.363 . S
Eu1089 O1093 2.363 . S
Eu1089 O1102 2.371 . S
Eu1089 O1103 2.355 1_455 S
O1090 C1064 1.283 . S
O1090 Eu1076 2.363 . S
O1091 C1065 1.283 . S
O1091 Eu1076 2.363 . S
O1092 C1066 1.283 . S
O1092 Eu1089 2.363 . S
O1093 C1067 1.283 . S
O1093 Eu1089 2.363 . S
O1094 C1068 1.283 . S
O1094 Eu1079 2.363 . S
O1095 C1069 1.283 . S
O1095 Eu1079 2.363 . S
O1096 C1070 1.283 . S
O1096 Eu1080 2.363 . S
O1097 C1071 1.283 . S
O1097 Eu1080 2.363 . S
O1098 C1072 1.283 . S
O1098 Eu1084 2.371 . S
O1099 C1073 1.283 . S
O1099 Eu1084 2.355 1_655 S
O1100 C1074 1.283 . S
O1100 Eu1083 2.371 . S
O1101 C1075 1.283 . S
O1101 Eu1083 2.355 1_655 S
O1102 C1070 1.283 . S
O1102 Eu1089 2.371 . S
O1103 C1068 1.283 . S
O1103 Eu1089 2.355 1_655 S
O1104 C1071 1.283 . S
O1104 Eu1076 2.371 . S
O1105 C1069 1.283 . S
O1105 Eu1076 2.355 1_655 S
O1106 C1065 1.283 . S
O1106 Eu1084 2.363 . S
O1107 C1067 1.283 . S
O1107 Eu1084 2.363 . S
O1108 C1064 1.283 . S
O1108 Eu1083 2.363 . S
O1109 C1066 1.283 . S
O1109 Eu1083 2.363 . S
O1110 C1075 1.283 . S
O1110 Eu1079 2.363 . S
O1111 C1073 1.283 . S
O1111 Eu1079 2.363 . S
O1112 C1074 1.283 . S
O1112 Eu1080 2.363 . S
O1113 C1072 1.283 . S
O1113 Eu1080 2.363 . S
C1114 O1140 1.283 . S
C1114 O1158 1.283 . S
C1115 O1141 1.283 . S
C1115 O1156 1.283 . S
C1116 O1142 1.283 . S
C1116 O1159 1.283 . S
C1117 O1143 1.283 . S
C1117 O1157 1.283 . S
C1118 O1144 1.283 . S
C1118 O1153 1.283 . S
C1119 O1145 1.283 . S
C1119 O1155 1.283 . S
C1120 O1146 1.283 . S
C1120 O1152 1.283 . S
C1121 O1147 1.283 . S
C1121 O1154 1.283 . S
C1122 O1148 1.283 . S
C1122 O1163 1.283 . S
C1123 O1149 1.283 . S
C1123 O1161 1.283 . S
C1124 O1150 1.283 . S
C1124 O1162 1.283 . S
C1125 O1151 1.283 . S
C1125 O1160 1.283 . S
Eu1126 O1127 2.370 . S
Eu1126 O1128 2.370 . S
Eu1126 O1131 2.370 . S
Eu1126 O1132 2.370 . S
Eu1126 O1140 2.363 . S
Eu1126 O1141 2.363 . S
Eu1126 O1154 2.363 . S
Eu1126 O1155 2.363 . S
O1127 Eu1126 2.370 . S
O1127 Eu1129 2.370 1_565 S
O1127 Eu1134 2.370 1_565 S
O1128 Eu1126 2.370 . S
O1128 Eu1130 2.370 1_565 S
O1128 Eu1133 2.370 1_565 S
Eu1129 O1127 2.370 1_545 S
Eu1129 O1131 2.370 1_545 S
Eu1129 O1135 2.370 . S
Eu1129 O1136 2.370 . S
Eu1129 O1144 2.363 . S
Eu1129 O1145 2.363 1_545 S
Eu1129 O1160 2.363 . S
Eu1129 O1161 2.363 . S
Eu1130 O1128 2.370 1_545 S
Eu1130 O1132 2.370 1_545 S
Eu1130 O1137 2.370 . S
Eu1130 O1138 2.370 . S
Eu1130 O1146 2.363 . S
Eu1130 O1147 2.363 1_545 S
Eu1130 O1162 2.363 . S
Eu1130 O1163 2.363 . S
O1131 Eu1126 2.370 . S
O1131 Eu1129 2.370 1_565 S
O1131 Eu1133 2.370 1_565 S
O1132 Eu1126 2.370 . S
O1132 Eu1130 2.370 1_565 S
O1132 Eu1134 2.370 1_565 S
Eu1133 O1128 2.370 1_545 S
Eu1133 O1131 2.370 1_545 S
Eu1133 O1135 2.370 . S
Eu1133 O1138 2.370 . S
Eu1133 O1150 2.363 . S
Eu1133 O1151 2.363 . S
Eu1133 O1158 2.363 1_545 S
Eu1133 O1159 2.363 . S
Eu1134 O1127 2.370 1_545 S
Eu1134 O1132 2.370 1_545 S
Eu1134 O1136 2.370 . S
Eu1134 O1137 2.370 . S
Eu1134 O1148 2.363 . S
Eu1134 O1149 2.363 . S
Eu1134 O1156 2.363 1_545 S
Eu1134 O1157 2.363 . S
O1135 Eu1129 2.370 . S
O1135 Eu1133 2.370 . S
O1135 Eu1139 2.370 . S
O1136 Eu1129 2.370 . S
O1136 Eu1134 2.370 . S
O1136 Eu1139 2.370 . S
O1137 Eu1130 2.370 . S
O1137 Eu1134 2.370 . S
O1137 Eu1139 2.370 . S
O1138 Eu1130 2.370 . S
O1138 Eu1133 2.370 . S
O1138 Eu1139 2.370 . S
Eu1139 O1135 2.370 . S
Eu1139 O1136 2.370 . S
Eu1139 O1137 2.370 . S
Eu1139 O1138 2.370 . S
Eu1139 O1142 2.363 . S
Eu1139 O1143 2.363 . S
Eu1139 O1152 2.363 . S
Eu1139 O1153 2.363 . S
O1140 C1114 1.283 . S
O1140 Eu1126 2.363 . S
O1141 C1115 1.283 . S
O1141 Eu1126 2.363 . S
O1142 C1116 1.283 . S
O1142 Eu1139 2.363 . S
O1143 C1117 1.283 . S
O1143 Eu1139 2.363 . S
O1144 C1118 1.283 . S
O1144 Eu1129 2.363 . S
O1145 C1119 1.283 . S
O1145 Eu1129 2.363 1_565 S
O1146 C1120 1.283 . S
O1146 Eu1130 2.363 . S
O1147 C1121 1.283 . S
O1147 Eu1130 2.363 1_565 S
O1148 C1122 1.283 . S
O1148 Eu1134 2.363 . S
O1149 C1123 1.283 . S
O1149 Eu1134 2.363 . S
O1150 C1124 1.283 . S
O1150 Eu1133 2.363 . S
O1151 C1125 1.283 . S
O1151 Eu1133 2.363 . S
O1152 C1120 1.283 . S
O1152 Eu1139 2.363 . S
O1153 C1118 1.283 . S
O1153 Eu1139 2.363 . S
O1154 C1121 1.283 . S
O1154 Eu1126 2.363 . S
O1155 C1119 1.283 . S
O1155 Eu1126 2.363 . S
O1156 C1115 1.283 . S
O1156 Eu1134 2.363 1_565 S
O1157 C1117 1.283 . S
O1157 Eu1134 2.363 . S
O1158 C1114 1.283 . S
O1158 Eu1133 2.363 1_565 S
O1159 C1116 1.283 . S
O1159 Eu1133 2.363 . S
O1160 C1125 1.283 . S
O1160 Eu1129 2.363 . S
O1161 C1123 1.283 . S
O1161 Eu1129 2.363 . S
O1162 C1124 1.283 . S
O1162 Eu1130 2.363 . S
O1163 C1122 1.283 . S
O1163 Eu1130 2.363 . S
C870 C859 0.975 . S
C787 C868 0.973 . S
C869 C751 0.975 . S
C823 C871 0.976 . S
C915 C607 0.972 . S
C975 C643 0.976 . S
C679 C914 0.972 . S
C974 C715 0.974 . S
C463 C916 0.976 . S
C972 C499 0.971 . S
C535 C917 0.976 . S
C571 C973 0.972 . S
C1023 C427 0.973 1_554 S
C355 C1022 0.971 1_556 S
C319 C1024 0.977 . S
C1025 C391 0.974 1_554 S
C175 C1066 0.972 1_655 S
C211 C1125 0.976 . S
C247 C1064 0.973 . S
C283 C1124 0.974 1_565 S
C1065 C31 0.974 1_455 S
C1122 C67 0.970 1_545 S
C103 C1067 0.977 . S
C1123 C139 0.972 . S
C867 C25 3.081 1_455 S
C61 C873 3.081 1_565 S
C97 C865 3.081 . S
C133 C872 3.081 . S
C169 C864 3.079 1_655 S
C874 C181 3.172 . S
C241 C866 3.081 . S
C875 C253 3.173 1_545 S
C921 C109 3.175 . S
C1 C964 3.173 1_655 S
C919 C37 3.174 1_545 S
C966 C73 3.175 . S
C205 C920 3.080 . S
C965 C217 3.176 . S
C918 C277 3.080 1_545 S
C967 C145 3.176 1_455 S
C971 C289 3.176 . S
C325 C970 3.175 1_556 S
C922 C313 3.081 . S
C969 C361 3.173 1_554 S
C397 C925 3.172 1_556 S
C421 C968 3.082 1_556 S
C924 C349 3.081 1_554 S
C923 C385 3.080 1_554 S
C1017 C457 3.081 . S
C1020 C493 3.082 . S
C529 C1016 3.081 . S
C1018 C565 3.081 . S
C1014 C601 3.079 . S
C613 C1019 3.171 . S
C673 C1015 3.080 . S
C1021 C685 3.173 . S
C1075 C541 3.175 . S
C433 C1114 3.174 . S
C1074 C469 3.174 . S
C1116 C505 3.174 . S
C1073 C637 3.080 . S
C649 C1115 3.176 . S
C1072 C709 3.080 . S
C1117 C577 3.176 . S
C1121 C721 3.176 . S
C757 C1120 3.175 . S
C1068 C745 3.080 . S
C793 C1119 3.174 . S
C1071 C829 3.173 . S
C1118 C853 3.083 . S
C1069 C781 3.082 . S
C817 C1070 3.080 . S
