# Generated by pormake.
# Topology ptr, (4,4)-cn, num edge types: 1
# Building blocks:
#     Node 0, Type 0, BuildingBlock: CEKHIL_clean_sbu_0, # of connection points: 4
#     Node 1, Type 0, BuildingBlock: CEKHIL_clean_sbu_0, # of connection points: 4
#     Node 2, Type 0, BuildingBlock: CEKHIL_clean_sbu_0, # of connection points: 4
#     Node 3, Type 0, BuildingBlock: CEKHIL_clean_sbu_0, # of connection points: 4
#     Node 4, Type 0, BuildingBlock: CEKHIL_clean_sbu_0, # of connection points: 4
#     Node 5, Type 0, BuildingBlock: CEKHIL_clean_sbu_0, # of connection points: 4
#     Node 6, Type 0, BuildingBlock: CEKHIL_clean_sbu_0, # of connection points: 4
#     Node 7, Type 0, BuildingBlock: CEKHIL_clean_sbu_0, # of connection points: 4
#     Node 8, Type 0, BuildingBlock: CEKHIL_clean_sbu_0, # of connection points: 4
#     Node 9, Type 0, BuildingBlock: CEKHIL_clean_sbu_0, # of connection points: 4
#     Node 10, Type 0, BuildingBlock: CEKHIL_clean_sbu_0, # of connection points: 4
#     Node 11, Type 0, BuildingBlock: CEKHIL_clean_sbu_0, # of connection points: 4
#     Node 12, Type 0, BuildingBlock: CEKHIL_clean_sbu_0, # of connection points: 4
#     Node 13, Type 0, BuildingBlock: CEKHIL_clean_sbu_0, # of connection points: 4
#     Node 14, Type 0, BuildingBlock: CEKHIL_clean_sbu_0, # of connection points: 4
#     Node 15, Type 0, BuildingBlock: CEKHIL_clean_sbu_0, # of connection points: 4
#     Node 16, Type 0, BuildingBlock: CEKHIL_clean_sbu_0, # of connection points: 4
#     Node 17, Type 0, BuildingBlock: CEKHIL_clean_sbu_0, # of connection points: 4
#     Node 18, Type 1, BuildingBlock: KUFVIS_clean_linker_0, # of connection points: 4
#     Node 19, Type 1, BuildingBlock: KUFVIS_clean_linker_0, # of connection points: 4
#     Node 20, Type 1, BuildingBlock: KUFVIS_clean_linker_0, # of connection points: 4
#     Node 21, Type 1, BuildingBlock: KUFVIS_clean_linker_0, # of connection points: 4
#     Node 22, Type 1, BuildingBlock: KUFVIS_clean_linker_0, # of connection points: 4
#     Node 23, Type 1, BuildingBlock: KUFVIS_clean_linker_0, # of connection points: 4
#     Node 24, Type 1, BuildingBlock: KUFVIS_clean_linker_0, # of connection points: 4
#     Node 25, Type 1, BuildingBlock: KUFVIS_clean_linker_0, # of connection points: 4
#     Node 26, Type 1, BuildingBlock: KUFVIS_clean_linker_0, # of connection points: 4
#     Node 27, Type 1, BuildingBlock: KUFVIS_clean_linker_0, # of connection points: 4
#     Node 28, Type 1, BuildingBlock: KUFVIS_clean_linker_0, # of connection points: 4
#     Node 29, Type 1, BuildingBlock: KUFVIS_clean_linker_0, # of connection points: 4
#     Node 30, Type 1, BuildingBlock: KUFVIS_clean_linker_0, # of connection points: 4
#     Node 31, Type 1, BuildingBlock: KUFVIS_clean_linker_0, # of connection points: 4
#     Node 32, Type 1, BuildingBlock: KUFVIS_clean_linker_0, # of connection points: 4
#     Node 33, Type 1, BuildingBlock: KUFVIS_clean_linker_0, # of connection points: 4
#     Node 34, Type 1, BuildingBlock: KUFVIS_clean_linker_0, # of connection points: 4
#     Node 35, Type 1, BuildingBlock: KUFVIS_clean_linker_0, # of connection points: 4
#     Edge 36, Type (0, 1), BuildingBlock: OJICUG_clean_linker_0, # of connection points: 2
#     Edge 37, Type (0, 1), BuildingBlock: OJICUG_clean_linker_0, # of connection points: 2
#     Edge 38, Type (0, 1), BuildingBlock: OJICUG_clean_linker_0, # of connection points: 2
#     Edge 39, Type (0, 1), BuildingBlock: OJICUG_clean_linker_0, # of connection points: 2
#     Edge 40, Type (0, 1), BuildingBlock: OJICUG_clean_linker_0, # of connection points: 2
#     Edge 41, Type (0, 1), BuildingBlock: OJICUG_clean_linker_0, # of connection points: 2
#     Edge 42, Type (0, 1), BuildingBlock: OJICUG_clean_linker_0, # of connection points: 2
#     Edge 43, Type (0, 1), BuildingBlock: OJICUG_clean_linker_0, # of connection points: 2
#     Edge 44, Type (0, 1), BuildingBlock: OJICUG_clean_linker_0, # of connection points: 2
#     Edge 45, Type (0, 1), BuildingBlock: OJICUG_clean_linker_0, # of connection points: 2
#     Edge 46, Type (0, 1), BuildingBlock: OJICUG_clean_linker_0, # of connection points: 2
#     Edge 47, Type (0, 1), BuildingBlock: OJICUG_clean_linker_0, # of connection points: 2
#     Edge 48, Type (0, 1), BuildingBlock: OJICUG_clean_linker_0, # of connection points: 2
#     Edge 49, Type (0, 1), BuildingBlock: OJICUG_clean_linker_0, # of connection points: 2
#     Edge 50, Type (0, 1), BuildingBlock: OJICUG_clean_linker_0, # of connection points: 2
#     Edge 51, Type (0, 1), BuildingBlock: OJICUG_clean_linker_0, # of connection points: 2
#     Edge 52, Type (0, 1), BuildingBlock: OJICUG_clean_linker_0, # of connection points: 2
#     Edge 53, Type (0, 1), BuildingBlock: OJICUG_clean_linker_0, # of connection points: 2
#     Edge 54, Type (0, 1), BuildingBlock: OJICUG_clean_linker_0, # of connection points: 2
#     Edge 55, Type (0, 1), BuildingBlock: OJICUG_clean_linker_0, # of connection points: 2
#     Edge 56, Type (0, 1), BuildingBlock: OJICUG_clean_linker_0, # of connection points: 2
#     Edge 57, Type (0, 1), BuildingBlock: OJICUG_clean_linker_0, # of connection points: 2
#     Edge 58, Type (0, 1), BuildingBlock: OJICUG_clean_linker_0, # of connection points: 2
#     Edge 59, Type (0, 1), BuildingBlock: OJICUG_clean_linker_0, # of connection points: 2
#     Edge 60, Type (0, 1), BuildingBlock: OJICUG_clean_linker_0, # of connection points: 2
#     Edge 61, Type (0, 1), BuildingBlock: OJICUG_clean_linker_0, # of connection points: 2
#     Edge 62, Type (0, 1), BuildingBlock: OJICUG_clean_linker_0, # of connection points: 2
#     Edge 63, Type (0, 1), BuildingBlock: OJICUG_clean_linker_0, # of connection points: 2
#     Edge 64, Type (0, 1), BuildingBlock: OJICUG_clean_linker_0, # of connection points: 2
#     Edge 65, Type (0, 1), BuildingBlock: OJICUG_clean_linker_0, # of connection points: 2
#     Edge 66, Type (0, 1), BuildingBlock: OJICUG_clean_linker_0, # of connection points: 2
#     Edge 67, Type (0, 1), BuildingBlock: OJICUG_clean_linker_0, # of connection points: 2
#     Edge 68, Type (0, 1), BuildingBlock: OJICUG_clean_linker_0, # of connection points: 2
#     Edge 69, Type (0, 1), BuildingBlock: OJICUG_clean_linker_0, # of connection points: 2
#     Edge 70, Type (0, 1), BuildingBlock: OJICUG_clean_linker_0, # of connection points: 2
#     Edge 71, Type (0, 1), BuildingBlock: OJICUG_clean_linker_0, # of connection points: 2
#     Edge 72, Type (0, 1), BuildingBlock: OJICUG_clean_linker_0, # of connection points: 2
#     Edge 73, Type (0, 1), BuildingBlock: OJICUG_clean_linker_0, # of connection points: 2
#     Edge 74, Type (0, 1), BuildingBlock: OJICUG_clean_linker_0, # of connection points: 2
#     Edge 75, Type (0, 1), BuildingBlock: OJICUG_clean_linker_0, # of connection points: 2
#     Edge 76, Type (0, 1), BuildingBlock: OJICUG_clean_linker_0, # of connection points: 2
#     Edge 77, Type (0, 1), BuildingBlock: OJICUG_clean_linker_0, # of connection points: 2
#     Edge 78, Type (0, 1), BuildingBlock: OJICUG_clean_linker_0, # of connection points: 2
#     Edge 79, Type (0, 1), BuildingBlock: OJICUG_clean_linker_0, # of connection points: 2
#     Edge 80, Type (0, 1), BuildingBlock: OJICUG_clean_linker_0, # of connection points: 2
#     Edge 81, Type (0, 1), BuildingBlock: OJICUG_clean_linker_0, # of connection points: 2
#     Edge 82, Type (0, 1), BuildingBlock: OJICUG_clean_linker_0, # of connection points: 2
#     Edge 83, Type (0, 1), BuildingBlock: OJICUG_clean_linker_0, # of connection points: 2
#     Edge 84, Type (0, 1), BuildingBlock: OJICUG_clean_linker_0, # of connection points: 2
#     Edge 85, Type (0, 1), BuildingBlock: OJICUG_clean_linker_0, # of connection points: 2
#     Edge 86, Type (0, 1), BuildingBlock: OJICUG_clean_linker_0, # of connection points: 2
#     Edge 87, Type (0, 1), BuildingBlock: OJICUG_clean_linker_0, # of connection points: 2
#     Edge 88, Type (0, 1), BuildingBlock: OJICUG_clean_linker_0, # of connection points: 2
#     Edge 89, Type (0, 1), BuildingBlock: OJICUG_clean_linker_0, # of connection points: 2
#     Edge 90, Type (0, 1), BuildingBlock: OJICUG_clean_linker_0, # of connection points: 2
#     Edge 91, Type (0, 1), BuildingBlock: OJICUG_clean_linker_0, # of connection points: 2
#     Edge 92, Type (0, 1), BuildingBlock: OJICUG_clean_linker_0, # of connection points: 2
#     Edge 93, Type (0, 1), BuildingBlock: OJICUG_clean_linker_0, # of connection points: 2
#     Edge 94, Type (0, 1), BuildingBlock: OJICUG_clean_linker_0, # of connection points: 2
#     Edge 95, Type (0, 1), BuildingBlock: OJICUG_clean_linker_0, # of connection points: 2
#     Edge 96, Type (0, 1), BuildingBlock: OJICUG_clean_linker_0, # of connection points: 2
#     Edge 97, Type (0, 1), BuildingBlock: OJICUG_clean_linker_0, # of connection points: 2
#     Edge 98, Type (0, 1), BuildingBlock: OJICUG_clean_linker_0, # of connection points: 2
#     Edge 99, Type (0, 1), BuildingBlock: OJICUG_clean_linker_0, # of connection points: 2
#     Edge 100, Type (0, 1), BuildingBlock: OJICUG_clean_linker_0, # of connection points: 2
#     Edge 101, Type (0, 1), BuildingBlock: OJICUG_clean_linker_0, # of connection points: 2
#     Edge 102, Type (0, 1), BuildingBlock: OJICUG_clean_linker_0, # of connection points: 2
#     Edge 103, Type (0, 1), BuildingBlock: OJICUG_clean_linker_0, # of connection points: 2
#     Edge 104, Type (0, 1), BuildingBlock: OJICUG_clean_linker_0, # of connection points: 2
#     Edge 105, Type (0, 1), BuildingBlock: OJICUG_clean_linker_0, # of connection points: 2
#     Edge 106, Type (0, 1), BuildingBlock: OJICUG_clean_linker_0, # of connection points: 2
#     Edge 107, Type (0, 1), BuildingBlock: OJICUG_clean_linker_0, # of connection points: 2
# Relax obj value: 0.047
# Max RMSD: 0.107
# Mean RMSD: 0.081
data_MOF--net-ptr--node1-CEKHIL_clean_sbu_0--node2-KUFVIS_clean_linker_0--edge1-OJICUG_clean_linker_0
_symmetry_space_group_name_H-M    P1
_symmetry_Int_Tables_number       1
_symmetry_cell_setting            triclinic
loop_
_symmetry_equiv_pos_as_xyz
'x, y, z'
_cell_length_a     57.55965
_cell_length_b     56.794835
_cell_length_c     36.842782
_cell_angle_alpha  90.299577
_cell_angle_beta   89.906817
_cell_angle_gamma 121.31186
loop_
_atom_site_label
_atom_site_type_symbol
_atom_site_fract_x
_atom_site_fract_y
_atom_site_fract_z
_atom_type_partial_charge
Co0 Co 0.02629 0.3656 -0.00172 0.0
O1 O 0.04286 0.35117 0.02964 0.0
O2 O 0.06579 0.38619 0.9924 0.0
C3 C 0.99239 0.32352 0.97889 0.0
O4 O 1.01662 0.38597 0.96073 0.0
Co5 Co 0.96674 0.35171 0.00929 0.0
O6 O 0.97259 0.37326 0.96468 0.0
C7 C 1.01136 0.39506 0.05421 0.0
C8 C 0.06619 0.36965 0.01634 0.0
C9 C 0.99598 0.38746 0.95021 0.0
O10 O 0.02926 0.39218 0.03708 0.0
O11 O 0.98574 0.3799 0.0485 0.0
O12 O 1.01638 0.33524 0.96411 0.0
O13 O 0.99007 0.33672 0.00583 0.0
Co14 Co 0.67155 0.67249 -0.0019 0.0
O15 O 0.70245 0.68763 0.96583 0.0
O16 O 0.69186 0.65411 0.00484 0.0
C17 C 0.67894 0.71403 0.01628 0.0
O18 O 0.64228 0.65189 0.03677 0.0
Co19 Co 0.6236 0.68233 0.98847 0.0
O20 O 0.60918 0.66167 0.03417 0.0
C21 C 0.62484 0.63853 0.94571 0.0
C22 C 0.70856 0.67076 0.9804 0.0
C23 C 0.61978 0.64903 0.04834 0.0
O24 O 0.64728 0.64405 0.96093 0.0
O25 O 0.6133 0.6523 0.95172 0.0
O26 O 0.69221 0.70369 0.03084 0.0
O27 O 0.66277 0.69988 0.98999 0.0
Co28 Co 0.36622 1.00687 -0.00112 0.0
O29 O 0.3512 0.023 0.96737 0.0
O30 O 0.38487 0.04674 0.00591 0.0
C31 C 0.32552 0.97081 0.01785 0.0
O32 O 0.38668 0.99818 0.03703 0.0
Co33 Co 0.35633 0.94806 0.98635 0.0
O34 O 0.37633 0.95425 0.0324 0.0
C35 C 0.39854 0.99489 0.9436 0.0
C36 C 0.36854 0.04677 0.98161 0.0
C37 C 0.38892 0.97781 0.04775 0.0
O38 O 0.3938 1.01179 0.96078 0.0
O39 O 0.38479 0.96878 0.9485 0.0
O40 O 0.33565 0.99515 0.03231 0.0
O41 O 0.339 0.96943 0.99074 0.0
Co42 Co 1.01109 0.6617 0.00973 0.0
O43 O 0.99451 0.67611 0.97837 0.0
O44 O 0.9716 0.64109 0.0156 0.0
C45 C 0.04499 0.70378 0.02913 0.0
O46 O 0.02078 0.64134 0.04728 0.0
Co47 Co 0.07066 0.67561 -0.00127 0.0
O48 O 0.06482 0.65407 0.04334 0.0
C49 C 0.02605 0.63226 0.95379 0.0
C50 C 0.97119 0.65763 0.99168 0.0
C51 C 0.04143 0.63986 0.05781 0.0
O52 O 1.00815 0.63512 0.97093 0.0
O53 O 0.05167 0.64743 0.95951 0.0
O54 O 0.021 0.69206 0.0439 0.0
O55 O 0.04731 0.69059 0.00219 0.0
Co56 Co 0.36571 0.35467 0.00999 0.0
O57 O 0.33482 0.33952 0.04227 0.0
O58 O 0.3454 0.37304 0.00326 0.0
C59 C 0.35833 0.31313 0.9918 0.0
O60 O 0.39498 0.37527 0.97132 0.0
Co61 Co 0.41367 0.34483 0.01961 0.0
O62 O 0.42809 0.36549 0.9739 0.0
C63 C 0.41242 0.38862 0.06238 0.0
C64 C 0.32871 0.35639 0.0277 0.0
C65 C 0.41749 0.37813 0.95974 0.0
O66 O 0.38999 0.3831 0.04716 0.0
O67 O 0.42397 0.37486 0.05637 0.0
O68 O 0.34505 0.32347 0.97725 0.0
O69 O 0.3745 0.32728 0.01809 0.0
Co70 Co 0.67114 0.02041 0.00925 0.0
O71 O 0.68616 1.00428 0.04075 0.0
O72 O 0.65249 0.98054 0.00222 0.0
C73 C 0.71184 0.05648 0.99027 0.0
O74 O 0.65068 0.0291 0.97111 0.0
Co75 Co 0.68102 0.07921 0.02179 0.0
O76 O 0.66102 0.07302 0.97573 0.0
C77 C 0.63882 0.03239 0.06454 0.0
C78 C 0.66883 0.98051 0.0265 0.0
C79 C 0.64844 0.04946 0.96038 0.0
O80 O 0.64357 0.01548 0.04735 0.0
O81 O 0.65256 0.05849 0.05963 0.0
O82 O 0.70171 0.03213 0.97582 0.0
O83 O 0.69836 0.05785 0.01738 0.0
Co84 Co 0.69274 0.69888 0.33166 0.0
O85 O 0.7093 0.68445 0.36302 0.0
O86 O 0.73223 0.71947 0.32579 0.0
C87 C 0.65884 0.65681 0.31224 0.0
O88 O 0.68307 0.71925 0.29411 0.0
Co89 Co 0.63318 0.68499 0.34264 0.0
O90 O 0.63904 0.70655 0.29804 0.0
C91 C 0.67779 0.72832 0.3876 0.0
C92 C 0.73263 0.70293 0.34972 0.0
C93 C 0.66244 0.72075 0.28357 0.0
O94 O 0.69569 0.72545 0.37047 0.0
O95 O 0.65217 0.71316 0.38187 0.0
O96 O 0.68284 0.66853 0.29748 0.0
O97 O 0.65651 0.66999 0.33919 0.0
Co98 Co 0.33824 1.00573 0.33142 0.0
O99 O 0.36915 0.02087 0.29915 0.0
O100 O 0.35854 0.98734 0.33815 0.0
C101 C 0.34564 0.04727 0.34961 0.0
O102 O 0.30897 0.98513 0.37008 0.0
Co103 Co 0.29031 0.01561 0.32178 0.0
O104 O 0.27589 0.99495 0.3675 0.0
C105 C 0.29154 0.9718 0.27901 0.0
C106 C 0.37525 1.00399 0.31372 0.0
C107 C 0.28647 0.98229 0.38166 0.0
O108 O 0.31397 0.9773 0.29424 0.0
O109 O 0.28 0.98558 0.28502 0.0
O110 O 0.35891 0.03692 0.36417 0.0
O111 O 0.32948 0.03313 0.32332 0.0
Co112 Co 0.03296 0.34032 0.33216 0.0
O113 O 1.01794 0.35644 0.30066 0.0
O114 O 0.05162 0.38019 0.33918 0.0
C115 C 0.99226 0.30425 0.35114 0.0
O116 O 0.05342 0.33162 0.3703 0.0
Co117 Co 0.02305 0.2815 0.31962 0.0
O118 O 0.04306 0.28769 0.36567 0.0
C119 C 0.06526 0.32832 0.27686 0.0
C120 C 0.03528 0.38021 0.3149 0.0
C121 C 0.05565 0.31125 0.38102 0.0
O122 O 0.06053 0.34523 0.29405 0.0
O123 O 0.05151 0.30222 0.28177 0.0
O124 O 1.00239 0.3286 0.36559 0.0
O125 O 1.00574 0.30287 0.32403 0.0
Co126 Co 0.67785 0.9951 0.34315 0.0
O127 O 0.66128 1.00953 0.31179 0.0
O128 O 0.63836 0.97451 0.34902 0.0
C129 C 0.71176 0.03717 0.36255 0.0
O130 O 0.68752 0.97473 0.3807 0.0
Co131 Co 0.7374 1.00898 0.33215 0.0
O132 O 0.73155 0.98743 0.37676 0.0
C133 C 0.69279 0.96564 0.28721 0.0
C134 C 0.63796 0.99105 0.32509 0.0
C135 C 0.70815 0.97323 0.39123 0.0
O136 O 0.67489 0.96852 0.30434 0.0
O137 O 0.7184 0.9808 0.29293 0.0
O138 O 0.68777 0.02546 0.37732 0.0
O139 O 0.71408 0.02398 0.3356 0.0
Co140 Co 0.03226 0.68805 0.34328 0.0
O141 O 1.00135 0.67291 0.37555 0.0
O142 O 1.01194 0.70642 0.33653 0.0
C143 C 0.02489 0.64651 0.32511 0.0
O144 O 0.06153 0.70865 0.30461 0.0
Co145 Co 0.08022 0.67822 0.35293 0.0
O146 O 0.09463 0.69887 0.30721 0.0
C147 C 0.07896 0.72202 0.39568 0.0
C148 C 0.99524 0.68977 0.36097 0.0
C149 C 0.08404 0.71151 0.29304 0.0
O150 O 0.05652 0.71649 0.38045 0.0
O151 O 0.09051 0.70825 0.38967 0.0
O152 O 1.01161 0.65685 0.31054 0.0
O153 O 0.04104 0.66067 0.35139 0.0
Co154 Co 0.33776 0.35354 0.34257 0.0
O155 O 0.35278 0.33741 0.37407 0.0
O156 O 0.31911 0.31367 0.33554 0.0
C157 C 0.37846 0.3896 0.32359 0.0
O158 O 0.3173 0.36223 0.30443 0.0
Co159 Co 0.34767 0.41236 0.35511 0.0
O160 O 0.32767 0.40617 0.30905 0.0
C161 C 0.30545 0.36553 0.39786 0.0
C162 C 0.33544 0.31364 0.35983 0.0
C163 C 0.31507 0.38261 0.29371 0.0
O164 O 0.31019 0.34862 0.38067 0.0
O165 O 0.3192 0.39163 0.39295 0.0
O166 O 0.36833 0.36526 0.30913 0.0
O167 O 0.36498 0.39098 0.3507 0.0
Co168 Co 0.35944 0.03205 0.66498 0.0
O169 O 0.37601 0.01762 0.69634 0.0
O170 O 0.39893 0.05264 0.6591 0.0
C171 C 0.32553 0.98998 0.64559 0.0
O172 O 0.34977 0.05242 0.62744 0.0
Co173 Co 0.29989 0.01817 0.676 0.0
O174 O 0.30574 0.03973 0.6314 0.0
C175 C 0.34452 0.06152 0.72092 0.0
C176 C 0.39934 0.0361 0.68304 0.0
C177 C 0.32913 0.05393 0.61692 0.0
O178 O 0.36241 0.05864 0.70379 0.0
O179 O 0.3189 0.04636 0.71521 0.0
O180 O 0.34952 1.00169 0.63082 0.0
O181 O 0.32321 1.00317 0.67253 0.0
Co182 Co 1.00502 0.3392 0.66473 0.0
O183 O 0.03592 0.35434 0.63246 0.0
O184 O 0.02533 0.32082 0.67147 0.0
C185 C 1.01242 0.38075 0.6829 0.0
O186 O 0.97576 0.31861 0.70341 0.0
Co187 Co 0.95707 0.34906 0.6551 0.0
O188 O 0.94266 0.3284 0.70082 0.0
C189 C 0.95831 0.30525 0.61234 0.0
C190 C 0.04203 0.33747 0.64703 0.0
C191 C 0.95326 0.31576 0.71499 0.0
O192 O 0.98075 0.31076 0.62757 0.0
O193 O 0.94677 0.31903 0.61835 0.0
O194 O 0.02569 0.3704 0.69747 0.0
O195 O 0.99625 0.36659 0.65662 0.0
Co196 Co 0.69951 0.67361 0.66554 0.0
O197 O 0.68449 0.68974 0.63405 0.0
O198 O 0.71817 0.71348 0.67257 0.0
C199 C 0.65881 0.63755 0.68452 0.0
O200 O 0.71997 0.66491 0.70368 0.0
Co201 Co 0.68961 0.61479 0.653 0.0
O202 O 0.70961 0.62097 0.69906 0.0
C203 C 0.73181 0.66161 0.61024 0.0
C204 C 0.70183 0.71351 0.64829 0.0
C205 C 0.7222 0.64454 0.7144 0.0
O206 O 0.72708 0.67852 0.62743 0.0
O207 O 0.71806 0.63551 0.61514 0.0
O208 O 0.66895 0.66189 0.69898 0.0
O209 O 0.67229 0.63616 0.65741 0.0
Co210 Co 0.34447 0.32832 0.67644 0.0
O211 O 0.3279 0.34274 0.64508 0.0
O212 O 0.30498 0.30772 0.68231 0.0
C213 C 0.37837 0.37039 0.69585 0.0
O214 O 0.35415 0.30795 0.71399 0.0
Co215 Co 0.40404 0.34222 0.66544 0.0
O216 O 0.39818 0.32066 0.71003 0.0
C217 C 0.35942 0.29887 0.62051 0.0
C218 C 0.30458 0.32426 0.65838 0.0
C219 C 0.37479 0.30645 0.7245 0.0
O220 O 0.34152 0.30174 0.63763 0.0
O221 O 0.38504 0.31403 0.62623 0.0
O222 O 0.35438 0.35867 0.71062 0.0
O223 O 0.3807 0.35721 0.6689 0.0
Co224 Co 0.69909 0.02151 0.6767 0.0
O225 O 0.66819 1.00637 0.70898 0.0
O226 O 0.67878 0.03989 0.66997 0.0
C227 C 0.6917 0.97997 0.65852 0.0
O228 O 0.72837 0.04211 0.63803 0.0
Co229 Co 0.74704 1.01165 0.68634 0.0
O230 O 0.76146 0.03231 0.64062 0.0
C231 C 0.7458 0.05545 0.72911 0.0
C232 C 0.66209 0.02324 0.69441 0.0
C233 C 0.75087 0.04495 0.62646 0.0
O234 O 0.72337 0.04994 0.71388 0.0
O235 O 0.75734 0.04168 0.7231 0.0
O236 O 0.67843 0.99031 0.64396 0.0
O237 O 0.70786 0.99412 0.68481 0.0
Co238 Co 1.0043 0.68691 0.67585 0.0
O239 O 0.01933 0.67079 0.70735 0.0
O240 O 0.98565 0.64704 0.66883 0.0
C241 C 0.04499 0.72297 0.65686 0.0
O242 O 0.98383 0.69559 0.63771 0.0
Co243 Co 1.01418 0.74572 0.68838 0.0
O244 O 0.99418 0.73952 0.64232 0.0
C245 C 0.97199 0.69889 0.73115 0.0
C246 C 1.002 0.64702 0.69311 0.0
C247 C 0.98159 0.71596 0.62698 0.0
O248 O 0.97673 0.68198 0.71396 0.0
O249 O 0.98573 0.72499 0.72624 0.0
O250 O 0.03486 0.69863 0.64241 0.0
O251 O 0.03151 0.72436 0.68397 0.0
H252 H 0.27729 0.36422 0.13887 0.0
H253 H 0.21385 0.36132 0.07465 0.0
H254 H 0.21931 0.37823 0.1907 0.0
H255 H 0.17569 0.35793 0.1883 0.0
H256 H 0.11852 0.37095 0.13269 0.0
H257 H 0.18563 0.37727 0.0733 0.0
C258 C 0.25918 0.36559 0.13713 0.0
C259 C 0.24877 0.37024 0.16856 0.0
C260 C 0.24719 0.36307 0.10338 0.0
C261 C 0.22347 0.36452 0.10087 0.0
C262 C 0.21214 0.36928 0.13249 0.0
C263 C 0.22604 0.37319 0.16607 0.0
C264 C 0.18578 0.36945 0.13142 0.0
C265 C 0.17012 0.36393 0.16357 0.0
C266 C 0.1465 0.36538 0.16431 0.0
C267 C 0.13748 0.37112 0.13246 0.0
C268 C 0.15083 0.37438 0.09955 0.0
C269 C 0.17528 0.37411 0.09893 0.0
H270 H 0.6599 0.91921 0.13875 0.0
H271 H 0.66479 0.85918 0.07381 0.0
H272 H 0.67274 0.86053 0.19122 0.0
H273 H 0.66085 0.81885 0.18991 0.0
H274 H 0.68228 0.76742 0.13365 0.0
H275 H 0.67705 0.82882 0.07369 0.0
C276 C 0.66112 0.90078 0.13698 0.0
C277 C 0.66486 0.88982 0.16849 0.0
C278 C 0.66214 0.89057 0.10292 0.0
C279 C 0.66445 0.86692 0.1005 0.0
C280 C 0.66688 0.8542 0.1326 0.0
C281 C 0.6682 0.86713 0.16623 0.0
C282 C 0.66976 0.82892 0.13204 0.0
C283 C 0.6672 0.8142 0.1647 0.0
C284 C 0.67295 0.79295 0.16555 0.0
C285 C 0.67917 0.78471 0.13333 0.0
C286 C 0.67993 0.79703 0.10036 0.0
C287 C 0.67554 0.81926 0.09954 0.0
H288 H 0.27396 0.91769 0.13667 0.0
H289 H 0.20896 0.85119 0.07684 0.0
H290 H 0.20348 0.85795 0.19367 0.0
H291 H 0.1788 0.81348 0.19369 0.0
H292 H 0.1026 0.75714 0.14475 0.0
H293 H 0.16394 0.82272 0.08033 0.0
C294 C 0.25447 0.89842 0.13643 0.0
C295 C 0.2404 0.88828 0.16881 0.0
C296 C 0.24284 0.88593 0.10329 0.0
C297 C 0.21733 0.86096 0.10274 0.0
C298 C 0.20286 0.84934 0.13571 0.0
C299 C 0.21452 0.8643 0.16834 0.0
C300 C 0.17536 0.8227 0.13695 0.0
C301 C 0.16591 0.8076 0.16996 0.0
C302 C 0.13936 0.78476 0.173 0.0
C303 C 0.12271 0.77551 0.14259 0.0
C304 C 0.13157 0.78864 0.10921 0.0
C305 C 0.15781 0.81235 0.1062 0.0
H306 H 0.37748 0.10804 0.86933 0.0
H307 H 0.37257 0.16807 0.93424 0.0
H308 H 0.36458 0.16667 0.81683 0.0
H309 H 0.37644 0.20836 0.81812 0.0
H310 H 0.35496 0.25975 0.87438 0.0
H311 H 0.36026 0.1984 0.93434 0.0
C312 C 0.37625 0.12646 0.87109 0.0
C313 C 0.37249 0.13741 0.83957 0.0
C314 C 0.37523 0.13668 0.90514 0.0
C315 C 0.37291 0.16033 0.90754 0.0
C316 C 0.37045 0.17302 0.87544 0.0
C317 C 0.36913 0.16009 0.84182 0.0
C318 C 0.36754 0.19829 0.876 0.0
C319 C 0.37008 0.213 0.84333 0.0
C320 C 0.36431 0.23423 0.84249 0.0
C321 C 0.35809 0.24247 0.87471 0.0
C322 C 0.35735 0.23015 0.90767 0.0
C323 C 0.36176 0.20795 0.90849 0.0
H324 H 0.76338 0.10959 0.87145 0.0
H325 H 0.82838 0.17611 0.93124 0.0
H326 H 0.83384 0.16932 0.81441 0.0
H327 H 0.85851 0.2138 0.81438 0.0
H328 H 0.93471 0.27017 0.86328 0.0
H329 H 0.87341 0.20458 0.92773 0.0
C330 C 0.78287 0.12886 0.87167 0.0
C331 C 0.79693 0.13899 0.83929 0.0
C332 C 0.7945 0.14136 0.90481 0.0
C333 C 0.82001 0.16633 0.90535 0.0
C334 C 0.83447 0.17794 0.87237 0.0
C335 C 0.82281 0.16298 0.83975 0.0
C336 C 0.86197 0.20459 0.87112 0.0
C337 C 0.8714 0.21969 0.83811 0.0
C338 C 0.89795 0.24253 0.83505 0.0
C339 C 0.9146 0.25179 0.86545 0.0
C340 C 0.90577 0.23866 0.89884 0.0
C341 C 0.87953 0.21495 0.90186 0.0
H342 H 0.75996 0.6629 0.86926 0.0
H343 H 0.82344 0.66585 0.93346 0.0
H344 H 0.81797 0.64893 0.81741 0.0
H345 H 0.86158 0.66925 0.81979 0.0
H346 H 0.9188 0.65628 0.87537 0.0
H347 H 0.85169 0.64994 0.9348 0.0
C348 C 0.77808 0.66155 0.87099 0.0
C349 C 0.78849 0.6569 0.83956 0.0
C350 C 0.79008 0.66407 0.90474 0.0
C351 C 0.81381 0.66264 0.90724 0.0
C352 C 0.82514 0.65789 0.87562 0.0
C353 C 0.81123 0.65396 0.84205 0.0
C354 C 0.85151 0.65774 0.87668 0.0
C355 C 0.86717 0.66326 0.84452 0.0
C356 C 0.89079 0.66183 0.84376 0.0
C357 C 0.89984 0.65611 0.87561 0.0
C358 C 0.8865 0.65284 0.90852 0.0
C359 C 0.86203 0.6531 0.90916 0.0
H360 H 0.94382 0.69759 0.47212 0.0
H361 H 0.88036 0.69465 0.40792 0.0
H362 H 0.88582 0.71155 0.52398 0.0
H363 H 0.84221 0.69124 0.52159 0.0
H364 H 0.785 0.70423 0.46602 0.0
H365 H 0.85211 0.71057 0.40659 0.0
C366 C 0.92571 0.69894 0.47039 0.0
C367 C 0.91529 0.70358 0.50183 0.0
C368 C 0.91371 0.69642 0.43664 0.0
C369 C 0.88998 0.69786 0.43414 0.0
C370 C 0.87865 0.70261 0.46577 0.0
C371 C 0.89256 0.70652 0.49934 0.0
C372 C 0.85228 0.70276 0.46471 0.0
C373 C 0.83662 0.69723 0.49686 0.0
C374 C 0.813 0.69867 0.49763 0.0
C375 C 0.80396 0.7044 0.46578 0.0
C376 C 0.8173 0.70767 0.43287 0.0
C377 C 0.84177 0.70741 0.43223 0.0
H378 H 0.32651 0.25236 0.4721 0.0
H379 H 0.33142 0.19234 0.40719 0.0
H380 H 0.33941 0.19373 0.5246 0.0
H381 H 0.32753 0.15204 0.5233 0.0
H382 H 0.349 0.10063 0.46704 0.0
H383 H 0.34374 0.16202 0.40708 0.0
C384 C 0.32774 0.23394 0.47033 0.0
C385 C 0.33149 0.22299 0.50185 0.0
C386 C 0.32876 0.22372 0.43629 0.0
C387 C 0.33108 0.20008 0.43388 0.0
C388 C 0.33354 0.18738 0.46598 0.0
C389 C 0.33485 0.20031 0.4996 0.0
C390 C 0.33644 0.16211 0.46542 0.0
C391 C 0.33389 0.14739 0.49809 0.0
C392 C 0.33965 0.12616 0.49894 0.0
C393 C 0.34588 0.11792 0.46672 0.0
C394 C 0.34663 0.13025 0.43375 0.0
C395 C 0.34223 0.15246 0.43293 0.0
H396 H 0.94074 0.25114 0.47 0.0
H397 H 0.87574 0.18462 0.4102 0.0
H398 H 0.87029 0.19138 0.52703 0.0
H399 H 0.84562 0.14691 0.52707 0.0
H400 H 0.76942 0.09053 0.47816 0.0
H401 H 0.83072 0.15612 0.41371 0.0
C402 C 0.92125 0.23186 0.46977 0.0
C403 C 0.90719 0.22172 0.50216 0.0
C404 C 0.90962 0.21937 0.43663 0.0
C405 C 0.88411 0.19439 0.43609 0.0
C406 C 0.86965 0.18277 0.46907 0.0
C407 C 0.88132 0.19773 0.50169 0.0
C408 C 0.84216 0.15612 0.47032 0.0
C409 C 0.83273 0.14102 0.50333 0.0
C410 C 0.80618 0.11818 0.5064 0.0
C411 C 0.78953 0.10892 0.47599 0.0
C412 C 0.79837 0.12204 0.4426 0.0
C413 C 0.8246 0.14575 0.43958 0.0
H414 H 0.04426 0.44154 0.20265 0.0
H415 H 0.03924 0.5015 0.26757 0.0
H416 H 0.03134 0.50016 0.15015 0.0
H417 H 0.04315 0.54182 0.15146 0.0
H418 H 0.02159 0.59316 0.20771 0.0
H419 H 0.02693 0.53183 0.26767 0.0
C420 C 0.04301 0.45995 0.20442 0.0
C421 C 0.03926 0.47091 0.1729 0.0
C422 C 0.04195 0.47015 0.23847 0.0
C423 C 0.03961 0.49378 0.24088 0.0
C424 C 0.03716 0.50648 0.20878 0.0
C425 C 0.03588 0.49357 0.17515 0.0
C426 C 0.03423 0.53174 0.20934 0.0
C427 C 0.03677 0.54645 0.17667 0.0
C428 C 0.03098 0.56766 0.17582 0.0
C429 C 0.02473 0.57588 0.20804 0.0
C430 C 0.02399 0.56357 0.241 0.0
C431 C 0.02843 0.54138 0.24182 0.0
H432 H 0.42999 0.44271 0.20472 0.0
H433 H 0.49493 0.50928 0.26453 0.0
H434 H 0.50041 0.50252 0.1477 0.0
H435 H 0.52505 0.547 0.14768 0.0
H436 H 0.6012 0.60345 0.19663 0.0
H437 H 0.53994 0.5378 0.26104 0.0
C438 C 0.44946 0.462 0.20495 0.0
C439 C 0.46352 0.47215 0.17257 0.0
C440 C 0.46108 0.4745 0.23809 0.0
C441 C 0.48657 0.4995 0.23864 0.0
C442 C 0.50103 0.51113 0.20566 0.0
C443 C 0.48938 0.49616 0.17304 0.0
C444 C 0.52851 0.5378 0.20442 0.0
C445 C 0.53793 0.5529 0.17142 0.0
C446 C 0.56447 0.57577 0.16837 0.0
C447 C 0.58111 0.58505 0.19878 0.0
C448 C 0.57227 0.57192 0.23216 0.0
C449 C 0.54605 0.54818 0.23517 0.0
H450 H 0.42667 0.99616 0.20259 0.0
H451 H 0.49018 0.99918 0.2668 0.0
H452 H 0.48475 0.98229 0.15074 0.0
H453 H 0.52836 1.00265 0.15314 0.0
H454 H 0.58562 0.98976 0.20874 0.0
H455 H 0.51845 0.98331 0.26814 0.0
C456 C 0.4448 0.99483 0.20433 0.0
C457 C 0.45523 0.99021 0.17289 0.0
C458 C 0.4568 0.99736 0.23808 0.0
C459 C 0.48055 0.99596 0.24057 0.0
C460 C 0.4919 0.99124 0.20895 0.0
C461 C 0.47799 0.98731 0.17538 0.0
C462 C 0.51829 0.99112 0.21002 0.0
C463 C 0.53396 0.99667 0.17787 0.0
C464 C 0.5576 0.99527 0.17712 0.0
C465 C 0.56665 0.98956 0.20897 0.0
C466 C 0.55329 0.98627 0.24188 0.0
C467 C 0.52881 0.98649 0.2425 0.0
H468 H 0.61068 0.03111 0.80553 0.0
H469 H 0.54716 0.02805 0.74133 0.0
H470 H 0.55261 0.04497 0.85738 0.0
H471 H 0.509 0.02462 0.855 0.0
H472 H 0.45171 0.03746 0.79939 0.0
H473 H 0.51887 0.0439 0.73998 0.0
C474 C 0.59256 0.03243 0.8038 0.0
C475 C 0.58212 0.03705 0.83524 0.0
C476 C 0.58054 0.02989 0.77005 0.0
C477 C 0.55679 0.03128 0.76756 0.0
C478 C 0.54545 0.03601 0.79917 0.0
C479 C 0.55936 0.03995 0.83275 0.0
C480 C 0.51905 0.03612 0.79811 0.0
C481 C 0.5034 0.03059 0.83026 0.0
C482 C 0.47975 0.03198 0.83101 0.0
C483 C 0.47069 0.03767 0.79916 0.0
C484 C 0.48403 0.04095 0.76625 0.0
C485 C 0.50852 0.04073 0.76562 0.0
H486 H 0.99313 0.58575 0.80536 0.0
H487 H 0.99811 0.52578 0.74044 0.0
H488 H 1.00611 0.52718 0.85785 0.0
H489 H 0.99428 0.48551 0.85655 0.0
H490 H 1.01582 0.43415 0.8003 0.0
H491 H 1.01045 0.49547 0.74033 0.0
C492 C 0.99438 0.56735 0.80359 0.0
C493 C 0.99816 0.55641 0.83511 0.0
C494 C 0.99541 0.55714 0.76954 0.0
C495 C 0.99776 0.53351 0.76713 0.0
C496 C 1.00024 0.52082 0.79924 0.0
C497 C 1.00154 0.53375 0.83286 0.0
C498 C 1.00317 0.49558 0.79868 0.0
C499 C 1.00065 0.48087 0.83135 0.0
C500 C 1.00645 0.45966 0.83219 0.0
C501 C 1.01268 0.45143 0.79997 0.0
C502 C 1.0134 0.46374 0.76701 0.0
C503 C 1.00897 0.48593 0.76618 0.0
H504 H 0.60728 0.58443 0.80338 0.0
H505 H 0.54232 0.51789 0.74356 0.0
H506 H 0.53683 0.52464 0.86039 0.0
H507 H 0.5122 0.48015 0.8604 0.0
H508 H 0.43603 0.42373 0.81146 0.0
H509 H 0.4973 0.48938 0.74705 0.0
C510 C 0.5878 0.56515 0.80315 0.0
C511 C 0.57373 0.555 0.83552 0.0
C512 C 0.57618 0.55265 0.77 0.0
C513 C 0.55068 0.52766 0.76945 0.0
C514 C 0.53622 0.51603 0.80243 0.0
C515 C 0.54787 0.531 0.83505 0.0
C516 C 0.50874 0.48937 0.80366 0.0
C517 C 0.49931 0.47426 0.83666 0.0
C518 C 0.47277 0.45139 0.83971 0.0
C519 C 0.45613 0.44213 0.8093 0.0
C520 C 0.46496 0.45527 0.77592 0.0
C521 C 0.49119 0.479 0.77291 0.0
H522 H 0.71071 0.77478 0.53606 0.0
H523 H 0.70586 0.83483 0.60099 0.0
H524 H 0.69781 0.83343 0.48359 0.0
H525 H 0.70974 0.87513 0.48489 0.0
H526 H 0.68833 0.92657 0.54115 0.0
H527 H 0.69356 0.86517 0.60111 0.0
C528 C 0.70949 0.79321 0.53783 0.0
C529 C 0.70573 0.80416 0.50632 0.0
C530 C 0.70848 0.80343 0.57188 0.0
C531 C 0.70618 0.82708 0.5743 0.0
C532 C 0.70372 0.83978 0.5422 0.0
C533 C 0.70238 0.82684 0.50857 0.0
C534 C 0.70084 0.86506 0.54276 0.0
C535 C 0.70339 0.87978 0.5101 0.0
C536 C 0.69764 0.90103 0.50925 0.0
C537 C 0.69143 0.90927 0.54147 0.0
C538 C 0.69068 0.89695 0.57444 0.0
C539 C 0.69506 0.87473 0.57526 0.0
H540 H 0.09651 0.77612 0.53801 0.0
H541 H 0.16152 0.84261 0.59785 0.0
H542 H 0.16698 0.83588 0.48101 0.0
H543 H 0.19168 0.88035 0.481 0.0
H544 H 0.26787 0.93667 0.52995 0.0
H545 H 0.20654 0.87108 0.59436 0.0
C546 C 0.116 0.7954 0.53825 0.0
C547 C 0.13007 0.80554 0.50587 0.0
C548 C 0.12763 0.80788 0.57139 0.0
C549 C 0.15315 0.83285 0.57195 0.0
C550 C 0.16761 0.84447 0.53898 0.0
C551 C 0.15595 0.82952 0.50635 0.0
C552 C 0.19512 0.87111 0.53774 0.0
C553 C 0.20456 0.88622 0.50474 0.0
C554 C 0.23112 0.90906 0.50169 0.0
C555 C 0.24776 0.9183 0.53211 0.0
C556 C 0.23891 0.90517 0.56548 0.0
C557 C 0.21267 0.88146 0.56849 0.0
H558 H 0.09343 0.32962 0.53586 0.0
H559 H 0.15687 0.33252 0.60008 0.0
H560 H 0.15141 0.31561 0.48403 0.0
H561 H 0.19502 0.3359 0.48642 0.0
H562 H 0.25221 0.32291 0.54204 0.0
H563 H 0.1851 0.3166 0.60144 0.0
C564 C 0.11154 0.32825 0.5376 0.0
C565 C 0.12195 0.3236 0.50616 0.0
C566 C 0.12353 0.33077 0.57135 0.0
C567 C 0.14725 0.32932 0.57385 0.0
C568 C 0.15858 0.32456 0.54224 0.0
C569 C 0.14468 0.32065 0.50866 0.0
C570 C 0.18494 0.32439 0.54331 0.0
C571 C 0.2006 0.32991 0.51116 0.0
C572 C 0.22422 0.32846 0.51041 0.0
C573 C 0.23325 0.32274 0.54227 0.0
C574 C 0.21991 0.31948 0.57518 0.0
C575 C 0.19545 0.31975 0.5758 0.0
C576 C 1.00329 0.42695 0.09134 0.0
C577 C 0.02043 0.41712 0.08172 0.0
H578 H 0.99623 0.45222 0.12736 0.0
C579 C 0.04558 0.42794 0.09938 0.0
H580 H 0.98396 0.41933 0.0778 0.0
C581 C 0.05261 0.44689 0.12779 0.0
C582 C 0.03478 0.4556 0.13851 0.0
H583 H 0.05926 0.42088 0.09237 0.0
H584 H 0.07148 0.45396 0.14232 0.0
C585 C 1.01046 0.44609 0.11934 0.0
C586 C 0.57892 0.62367 0.08925 0.0
C587 C 0.60463 0.62899 0.07781 0.0
H588 H 0.5456 0.602 0.12647 0.0
C589 C 0.61525 0.61419 0.09395 0.0
H590 H 0.56991 0.63441 0.07715 0.0
C591 C 0.6011 0.59545 0.12171 0.0
C592 C 0.57596 0.59094 0.13401 0.0
H593 H 0.63473 0.61738 0.08562 0.0
H594 H 0.61027 0.5851 0.13457 0.0
C595 C 0.56471 0.60479 0.11707 0.0
C596 C 0.41387 0.96158 0.08659 0.0
C597 C 0.40753 0.98188 0.07838 0.0
H598 H 0.43445 0.94856 0.12246 0.0
C599 C 0.41934 1.00603 0.09954 0.0
H600 H 0.40544 0.94283 0.07063 0.0
C601 C 0.43605 1.00925 0.12903 0.0
C602 C 0.44155 0.98854 0.13795 0.0
H603 H 0.41519 0.02219 0.0939 0.0
H604 H 0.44413 0.0277 0.14559 0.0
C605 C 0.43078 0.96494 0.11598 0.0
C606 C 0.43205 0.03208 0.90191 0.0
C607 C 0.42129 1.00582 0.91723 0.0
H608 H 0.45936 0.0611 0.86266 0.0
C609 C 0.43223 0.98966 0.90671 0.0
H610 H 0.42422 0.04511 0.90957 0.0
C611 C 0.45262 0.99901 0.8804 0.0
C612 C 0.46232 0.0246 0.86374 0.0
H613 H 0.4247 0.96949 0.91836 0.0
H614 H 0.4598 0.98562 0.87178 0.0
C615 C 0.45222 0.04127 0.87521 0.0
C616 C 0.02383 0.42205 0.90173 0.0
C617 C 0.99947 0.40742 0.92138 0.0
H618 H 0.04527 0.45052 0.8587 0.0
C619 C 0.9784 0.41249 0.91377 0.0
H620 H 0.04059 0.419 0.90699 0.0
C621 C 0.98125 0.4309 0.88643 0.0
C622 C 1.00516 0.44456 0.86584 0.0
H623 H 0.95942 0.40193 0.92863 0.0
H624 H 0.9643 0.43347 0.88028 0.0
C625 C 0.02658 0.44029 0.87424 0.0
C626 C 0.6253 0.60357 0.90414 0.0
C627 C 0.61107 0.61477 0.92048 0.0
H628 H 0.62427 0.57527 0.8645 0.0
C629 C 0.58335 0.60327 0.91213 0.0
H630 H 0.64657 0.61178 0.91024 0.0
C631 C 0.57052 0.58209 0.88654 0.0
C632 C 0.58521 0.57216 0.86855 0.0
H633 H 0.57164 0.61107 0.92474 0.0
H634 H 0.54958 0.57466 0.87925 0.0
C635 C 0.61252 0.58258 0.8782 0.0
C636 C 0.03415 0.60041 0.91664 0.0
C637 C 1.01699 0.61021 0.92628 0.0
H638 H 0.04122 0.57515 0.8806 0.0
C639 C 0.99183 0.59937 0.90864 0.0
H640 H 0.05349 0.60804 0.93016 0.0
C641 C 0.98481 0.58042 0.88023 0.0
C642 C 1.00265 0.57172 0.86949 0.0
H643 H 0.97814 0.60641 0.91567 0.0
H644 H 0.96593 0.57333 0.86572 0.0
C645 C 0.02698 0.58126 0.88863 0.0
C646 C 0.42201 0.41298 0.91414 0.0
C647 C 0.43262 0.39818 0.93027 0.0
H648 H 0.42697 0.44206 0.87353 0.0
C649 C 0.45833 0.40349 0.91882 0.0
H650 H 0.40252 0.40978 0.92248 0.0
C651 C 0.47253 0.42237 0.891 0.0
C652 C 0.46128 0.43622 0.87406 0.0
H653 H 0.46734 0.39275 0.93092 0.0
H654 H 0.49165 0.42516 0.88159 0.0
C655 C 0.43615 0.43172 0.88638 0.0
C656 C 0.61801 0.02124 0.9086 0.0
C657 C 0.62983 0.04539 0.92975 0.0
H658 H 0.59323 0.99957 0.86254 0.0
C659 C 0.62349 0.06569 0.92153 0.0
H660 H 0.62216 1.00508 0.91424 0.0
C661 C 0.60657 0.06233 0.89215 0.0
C662 C 0.59581 0.03873 0.87017 0.0
H663 H 0.63192 0.08444 0.9375 0.0
H664 H 0.6029 0.07871 0.88565 0.0
C665 C 0.60131 0.01802 0.87911 0.0
C666 C 0.60514 0.03761 0.10144 0.0
C667 C 0.61607 0.02144 0.09091 0.0
H668 H 0.57757 0.04164 0.13637 0.0
C669 C 0.60531 0.99518 0.10622 0.0
H670 H 0.61267 0.05779 0.0898 0.0
C671 C 0.58514 0.98599 0.13292 0.0
C672 C 0.57504 1.00266 0.1444 0.0
H673 H 0.61313 0.98216 0.09856 0.0
H674 H 0.57799 0.96616 0.14546 0.0
C675 C 0.58474 0.02825 0.12774 0.0
C676 C 0.05903 0.61485 0.09425 0.0
C677 C 0.03795 0.6199 0.08664 0.0
H678 H 0.07313 0.59388 0.12775 0.0
C679 C 1.01358 0.60525 0.10628 0.0
H680 H 0.07801 0.62542 0.07941 0.0
C681 C 1.01083 0.58702 0.13376 0.0
C682 C 0.03226 0.58277 0.14217 0.0
H683 H 0.99682 0.60829 0.101 0.0
H684 H 0.99214 0.57677 0.14929 0.0
C685 C 0.05618 0.59644 0.1216 0.0
C686 C 0.41196 0.42357 0.10395 0.0
C687 C 0.42619 0.41238 0.08761 0.0
H688 H 0.41298 0.45188 0.14359 0.0
C689 C 0.45392 0.42389 0.09597 0.0
H690 H 0.39069 0.41536 0.09785 0.0
C691 C 0.46674 0.44506 0.12156 0.0
C692 C 0.45204 0.45499 0.13955 0.0
H693 H 0.46563 0.41608 0.08336 0.0
H694 H 0.48768 0.4525 0.12885 0.0
C695 C 0.42474 0.44457 0.12989 0.0
C696 C 0.71202 0.7612 0.43276 0.0
C697 C 0.68685 0.75037 0.41512 0.0
H698 H 0.73793 0.78722 0.47568 0.0
C699 C 0.66971 0.76018 0.42478 0.0
H700 H 0.7257 0.75415 0.42572 0.0
C701 C 0.67688 0.77932 0.4528 0.0
C702 C 0.70122 0.78885 0.47193 0.0
H703 H 0.65037 0.75256 0.41127 0.0
H704 H 0.66265 0.78544 0.46084 0.0
C705 C 0.71905 0.78014 0.46118 0.0
C706 C 0.24562 0.95696 0.42257 0.0
C707 C 0.27132 0.96225 0.41113 0.0
H708 H 0.21229 0.93532 0.45979 0.0
C709 C 0.28191 0.94744 0.42727 0.0
H710 H 0.23662 0.96772 0.41047 0.0
C711 C 0.26775 0.9287 0.45504 0.0
C712 C 0.24263 0.92423 0.46734 0.0
H713 H 0.30139 0.95062 0.41894 0.0
H714 H 0.27691 0.91835 0.46789 0.0
C715 C 0.2314 0.93809 0.45039 0.0
C716 C 0.08057 0.29499 0.41987 0.0
C717 C 0.07426 0.31531 0.41165 0.0
H718 H 0.10113 0.28195 0.45575 0.0
C719 C 0.08609 0.33946 0.4328 0.0
H720 H 0.07213 0.27624 0.40391 0.0
C721 C 0.1028 0.34267 0.46229 0.0
C722 C 0.10827 0.32194 0.47123 0.0
H723 H 0.08196 0.35563 0.42716 0.0
H724 H 0.11089 0.36112 0.47885 0.0
C725 C 0.09748 0.29833 0.44925 0.0
C726 C 0.0988 0.36551 0.23519 0.0
C727 C 0.08801 0.33925 0.2505 0.0
H728 H 0.12613 0.39452 0.19595 0.0
C729 C 0.09894 0.32307 0.23998 0.0
H730 H 0.09099 0.37855 0.24285 0.0
C731 C 0.11933 0.33241 0.21368 0.0
C732 C 0.12905 0.358 0.19703 0.0
H733 H 0.09139 0.30289 0.25162 0.0
H734 H 0.12649 0.31901 0.20506 0.0
C735 C 0.11897 0.37469 0.20849 0.0
C736 C 0.6903 0.75533 0.23509 0.0
C737 C 0.66593 0.74071 0.25474 0.0
H738 H 0.71175 0.78379 0.19206 0.0
C739 C 0.64487 0.74579 0.24713 0.0
H740 H 0.70705 0.75227 0.24037 0.0
C741 C 0.64774 0.7642 0.21978 0.0
C742 C 0.67165 0.77785 0.19919 0.0
H743 H 0.6259 0.73524 0.26198 0.0
H744 H 0.6308 0.76678 0.21362 0.0
C745 C 0.69307 0.77357 0.2076 0.0
C746 C 0.25004 0.93656 0.24542 0.0
C747 C 0.27776 0.94804 0.25378 0.0
H748 H 0.21627 0.90797 0.21254 0.0
C749 C 0.29197 0.93684 0.23744 0.0
H750 H 0.23834 0.94437 0.25803 0.0
C751 C 0.27918 0.91585 0.21149 0.0
C752 C 0.25189 0.90545 0.20183 0.0
H753 H 0.31324 0.94503 0.24354 0.0
H754 H 0.29093 0.90853 0.19779 0.0
C755 C 0.2372 0.91539 0.21983 0.0
C756 C 0.70085 0.93376 0.25006 0.0
C757 C 0.68372 0.94359 0.2597 0.0
H758 H 0.7079 0.90849 0.21401 0.0
C759 C 0.65856 0.93278 0.24204 0.0
H760 H 0.72018 0.94137 0.26359 0.0
C761 C 0.65153 0.91384 0.21362 0.0
C762 C 0.66935 0.90512 0.20288 0.0
H763 H 0.64488 0.93984 0.24906 0.0
H764 H 0.63266 0.90677 0.1991 0.0
C765 C 0.69368 0.91462 0.22204 0.0
C766 C 0.08857 0.74635 0.24742 0.0
C767 C 0.09918 0.73155 0.26357 0.0
H768 H 0.09355 0.77543 0.2068 0.0
C769 C 0.12489 0.73686 0.25213 0.0
H770 H 0.06908 0.74316 0.25575 0.0
C771 C 0.1391 0.75574 0.22431 0.0
C772 C 0.12785 0.76959 0.20735 0.0
H773 H 0.1339 0.72612 0.26424 0.0
H774 H 0.15821 0.75852 0.21491 0.0
C775 C 0.10272 0.76509 0.21966 0.0
C776 C 0.29015 0.39886 0.25485 0.0
C777 C 0.29647 0.37855 0.26308 0.0
H778 H 0.26958 0.4119 0.21897 0.0
C779 C 0.28463 0.35439 0.24193 0.0
H780 H 0.29859 0.41761 0.27081 0.0
C781 C 0.26793 0.35118 0.21244 0.0
C782 C 0.26245 0.3719 0.2035 0.0
H783 H 0.28876 0.33822 0.24757 0.0
H784 H 0.25983 0.33272 0.19588 0.0
C785 C 0.27324 0.39551 0.22547 0.0
C786 C 0.27178 0.37078 0.43474 0.0
C787 C 0.2827 0.3546 0.42422 0.0
H788 H 0.24421 0.37483 0.46965 0.0
C789 C 0.27193 0.32834 0.43954 0.0
H790 H 0.27931 0.39095 0.42309 0.0
C791 C 0.25176 0.31916 0.46623 0.0
C792 C 0.24166 0.33584 0.47769 0.0
H793 H 0.27974 0.31531 0.43188 0.0
H794 H 0.2446 0.29933 0.47878 0.0
C795 C 0.25138 0.36143 0.46103 0.0
C796 C 0.6803 0.93865 0.43971 0.0
C797 C 0.70466 0.95327 0.42006 0.0
H798 H 0.65885 0.91019 0.48275 0.0
C799 C 0.72572 0.94818 0.42767 0.0
H800 H 0.66355 0.94172 0.43444 0.0
C801 C 0.72285 0.92977 0.45502 0.0
C802 C 0.69894 0.91613 0.47561 0.0
H803 H 0.74469 0.95873 0.41281 0.0
H804 H 0.73979 0.92719 0.46117 0.0
C805 C 0.67753 0.92041 0.4672 0.0
C806 C 0.0785 0.75697 0.43725 0.0
C807 C 0.09273 0.74578 0.4209 0.0
H808 H 0.07952 0.78526 0.4769 0.0
C809 C 0.12045 0.75729 0.42924 0.0
H810 H 0.05723 0.74875 0.43115 0.0
C811 C 0.13328 0.77846 0.45484 0.0
C812 C 0.11858 0.78838 0.47284 0.0
H813 H 0.13216 0.74949 0.41663 0.0
H814 H 0.15422 0.78589 0.46212 0.0
C815 C 0.09128 0.77796 0.4632 0.0
C816 C 0.33646 0.09341 0.75806 0.0
C817 C 0.35359 0.08358 0.74842 0.0
H818 H 0.32942 0.1187 0.79409 0.0
C819 C 0.37876 0.09441 0.76606 0.0
H820 H 0.31712 0.08579 0.74455 0.0
C821 C 0.3858 0.11337 0.79445 0.0
C822 C 0.36798 0.12209 0.80519 0.0
H823 H 0.39244 0.08735 0.75903 0.0
H824 H 0.40468 0.12045 0.80896 0.0
C825 C 0.34365 0.11256 0.78606 0.0
C826 C 0.94872 0.28092 0.7606 0.0
C827 C 0.93812 0.29572 0.74447 0.0
H828 H 0.94375 0.25183 0.80122 0.0
C829 C 0.91241 0.29042 0.75592 0.0
H830 H 0.9682 0.2841 0.75226 0.0
C831 C 0.8982 0.27155 0.78375 0.0
C832 C 0.90945 0.2577 0.80069 0.0
H833 H 0.90341 0.30117 0.74382 0.0
H834 H 0.8791 0.26877 0.79315 0.0
C835 C 0.93457 0.26218 0.78837 0.0
C836 C 0.75263 0.67275 0.76619 0.0
C837 C 0.7408 0.6486 0.74503 0.0
H838 H 0.77742 0.69441 0.81224 0.0
C839 C 0.74712 0.62828 0.75326 0.0
H840 H 0.7485 0.68892 0.76055 0.0
C841 C 0.76403 0.63163 0.78265 0.0
C842 C 0.77481 0.65524 0.80462 0.0
H843 H 0.73868 0.60953 0.7373 0.0
H844 H 0.76769 0.61525 0.78914 0.0
C845 C 0.76933 0.67596 0.79568 0.0
C846 C 0.76533 0.6988 0.56854 0.0
C847 C 0.75455 0.67254 0.58386 0.0
H848 H 0.79264 0.72781 0.52929 0.0
C849 C 0.76547 0.65636 0.57332 0.0
H850 H 0.75751 0.71184 0.57621 0.0
C851 C 0.78585 0.6657 0.54701 0.0
C852 C 0.79557 0.69129 0.53035 0.0
H853 H 0.75793 0.63618 0.58497 0.0
H854 H 0.79302 0.6523 0.53838 0.0
C855 C 0.78549 0.70798 0.54183 0.0
C856 C 0.357 0.08853 0.56847 0.0
C857 C 0.33263 0.07389 0.5881 0.0
H858 H 0.37846 0.11701 0.52546 0.0
C859 C 0.31156 0.07896 0.58048 0.0
H860 H 0.37375 0.08547 0.57374 0.0
C861 C 0.31443 0.09738 0.55315 0.0
C862 C 0.33835 0.11105 0.53258 0.0
H863 H 0.29258 0.0684 0.59532 0.0
H864 H 0.29749 0.09996 0.54699 0.0
C865 C 0.35977 0.10678 0.54099 0.0
C866 C 0.95876 0.2703 0.57077 0.0
C867 C 0.94454 0.28149 0.58712 0.0
H868 H 0.95774 0.242 0.53112 0.0
C869 C 0.91682 0.26999 0.57877 0.0
H870 H 0.98004 0.27851 0.57686 0.0
C871 C 0.90399 0.24882 0.55317 0.0
C872 C 0.91868 0.23889 0.53517 0.0
H873 H 0.90511 0.2778 0.59138 0.0
H874 H 0.88305 0.24139 0.54589 0.0
C875 C 0.94598 0.24931 0.54482 0.0
C876 C 0.3675 0.26699 0.58337 0.0
C877 C 0.35035 0.27681 0.59301 0.0
H878 H 0.37456 0.24171 0.54735 0.0
C879 C 0.32519 0.26597 0.57536 0.0
H880 H 0.38684 0.27462 0.59689 0.0
C881 C 0.31816 0.24701 0.54696 0.0
C882 C 0.33599 0.2383 0.53623 0.0
H883 H 0.31151 0.27302 0.58238 0.0
H884 H 0.29928 0.23993 0.53245 0.0
C885 C 0.36032 0.24784 0.55538 0.0
C886 C 0.79171 0.07029 0.58553 0.0
C887 C 0.76601 0.06499 0.59698 0.0
H888 H 0.82503 0.09193 0.5483 0.0
C889 C 0.75541 0.0798 0.58084 0.0
H890 H 0.80071 0.05954 0.59764 0.0
C891 C 0.76956 0.09853 0.55307 0.0
C892 C 0.79468 0.10302 0.54076 0.0
H893 H 0.73593 0.07662 0.58918 0.0
H894 H 0.76039 0.10888 0.54021 0.0
C895 C 0.80592 0.08916 0.5577 0.0
C896 C 0.95117 0.68775 0.57518 0.0
C897 C 0.96298 0.71189 0.59635 0.0
H898 H 0.92639 0.66608 0.52912 0.0
C899 C 0.95665 0.73219 0.58814 0.0
H900 H 0.95532 0.67158 0.58082 0.0
C901 C 0.93974 0.72884 0.55874 0.0
C902 C 0.92898 0.70524 0.53676 0.0
H903 H 0.96507 0.75094 0.60411 0.0
H904 H 0.93607 0.74522 0.55226 0.0
C905 C 0.93447 0.68453 0.54569 0.0
C906 C 0.93848 0.66171 0.77285 0.0
C907 C 0.94924 0.68796 0.75753 0.0
H908 H 0.91117 0.6327 0.81211 0.0
C909 C 0.93831 0.70413 0.76805 0.0
H910 H 0.9463 0.64867 0.76519 0.0
C911 C 0.91793 0.69479 0.79436 0.0
C912 C 0.90823 0.66921 0.81103 0.0
H913 H 0.94584 0.7243 0.7564 0.0
H914 H 0.91076 0.70818 0.80299 0.0
C915 C 0.91832 0.65252 0.79956 0.0
C916 C 0.34694 0.27185 0.77296 0.0
C917 C 0.3713 0.28649 0.75332 0.0
H918 H 0.32549 0.24336 0.81597 0.0
C919 C 0.39237 0.28142 0.76093 0.0
H920 H 0.33018 0.2749 0.76769 0.0
C921 C 0.38951 0.263 0.78826 0.0
C922 C 0.3656 0.24934 0.80884 0.0
H923 H 0.41135 0.29198 0.74608 0.0
H924 H 0.40646 0.26043 0.79442 0.0
C925 C 0.34418 0.2536 0.80044 0.0
C926 C 0.74535 0.09041 0.77068 0.0
C927 C 0.75957 0.07922 0.75433 0.0
H928 H 0.74638 0.11872 0.81033 0.0
C929 C 0.7873 0.09071 0.76268 0.0
H930 H 0.72408 0.08221 0.76458 0.0
C931 C 0.80013 0.11189 0.78827 0.0
C932 C 0.78544 0.12182 0.80627 0.0
H933 H 0.799 0.08291 0.75007 0.0
H934 H 0.82107 0.11931 0.79556 0.0
C935 C 0.75814 0.1114 0.79662 0.0
C936 C 0.09147 0.34744 0.03743 0.0
C937 C 0.09166 0.37161 0.02889 0.0
H938 H 0.1116 0.32968 0.06459 0.0
C939 C 0.1152 0.39722 0.03652 0.0
H940 H 0.07366 0.32743 0.03174 0.0
C941 C 0.13693 0.39849 0.05583 0.0
C942 C 0.13579 0.37419 0.06671 0.0
H943 H 0.11583 0.41618 0.03042 0.0
H944 H 0.15346 0.41835 0.06501 0.0
C945 C 0.11342 0.34873 0.05568 0.0
C946 C 0.70544 0.75927 0.04806 0.0
C947 C 0.68162 0.73984 0.02992 0.0
H948 H 0.72429 0.79466 0.08288 0.0
C949 C 0.65993 0.74446 0.02736 0.0
H950 H 0.72266 0.7565 0.04981 0.0
C951 C 0.66087 0.76639 0.04643 0.0
C952 C 0.68367 0.78413 0.0677 0.0
H953 H 0.64142 0.72991 0.0132 0.0
H954 H 0.64276 0.76769 0.04761 0.0
C955 C 0.70661 0.78145 0.06633 0.0
C956 C 0.27994 0.94921 0.04736 0.0
C957 C 0.30079 0.94632 0.03253 0.0
H958 H 0.24363 0.93091 0.0793 0.0
C959 C 0.29849 0.92043 0.0342 0.0
H960 H 0.28103 0.96881 0.04614 0.0
C961 C 0.27712 0.89869 0.05368 0.0
C962 C 0.25729 0.90228 0.07069 0.0
H963 H 0.31429 0.91764 0.02292 0.0
H964 H 0.27738 0.87998 0.05802 0.0
C965 C 0.25823 0.92732 0.06571 0.0
C966 C 0.39451 0.09789 0.9685 0.0
C967 C 0.36972 0.07246 0.96985 0.0
H968 H 0.41579 0.13913 0.94711 0.0
C969 C 0.34613 0.0712 0.95701 0.0
H970 H 0.41305 0.0995 0.97813 0.0
C971 C 0.34754 0.0942 0.94086 0.0
C972 C 0.37266 0.11889 0.93629 0.0
H973 H 0.3267 0.05201 0.95791 0.0
H974 H 0.32932 0.09181 0.9286 0.0
C975 C 0.39604 0.12077 0.95132 0.0
C976 C 0.94211 0.29042 0.97215 0.0
C977 C 0.96899 0.29743 0.96497 0.0
H978 H 0.90006 0.26491 0.9571 0.0
C979 C 0.97334 0.27985 0.94297 0.0
H980 H 0.93812 0.30341 0.98944 0.0
C981 C 0.95145 0.25718 0.92581 0.0
C982 C 0.92488 0.25208 0.92951 0.0
H983 H 0.99377 0.28438 0.93757 0.0
H984 H 0.95563 0.2454 0.90646 0.0
C985 C 0.92021 0.26802 0.9543 0.0
C986 C 0.73481 0.64683 0.9717 0.0
C987 C 0.73331 0.67071 0.96912 0.0
H988 H 0.75527 0.6262 0.95363 0.0
C989 C 0.75501 0.69429 0.95301 0.0
H990 H 0.71844 0.62838 0.98414 0.0
C991 C 0.7765 0.69333 0.93688 0.0
C992 C 0.77655 0.66862 0.9359 0.0
H993 H 0.75466 0.71314 0.95111 0.0
H994 H 0.79159 0.71107 0.92177 0.0
C995 C 0.75615 0.64571 0.95486 0.0
C996 C 0.92216 0.63004 0.97155 0.0
C997 C 0.94571 0.65566 0.97913 0.0
H998 H 0.88388 0.60889 0.94312 0.0
C999 C 0.9459 0.67982 0.97056 0.0
H1000 H 0.92154 0.61109 0.97768 0.0
C1001 C 0.92394 0.67852 0.95234 0.0
C1002 C 0.90155 0.65304 0.94136 0.0
H1003 H 0.96371 0.69984 0.97621 0.0
H1004 H 0.92575 0.69756 0.9434 0.0
C1005 C 0.90042 0.62875 0.95226 0.0
C1006 C 0.33183 0.2679 0.96001 0.0
C1007 C 0.35565 0.28733 0.97814 0.0
H1008 H 0.31298 0.23252 0.92516 0.0
C1009 C 0.37734 0.28271 0.9807 0.0
H1010 H 0.31461 0.27067 0.95826 0.0
C1011 C 0.37641 0.26079 0.96161 0.0
C1012 C 0.35361 0.24305 0.94034 0.0
H1013 H 0.39585 0.29726 -0.00514 0.0
H1014 H 0.39452 0.2595 0.96042 0.0
C1015 C 0.33067 0.24573 0.94172 0.0
C1016 C 0.73886 0.10686 0.97393 0.0
C1017 C 0.73657 0.08097 0.97559 0.0
H1018 H 0.75995 0.1473 0.9501 0.0
C1019 C 0.75741 0.07808 0.96074 0.0
H1020 H 0.72306 0.10964 0.98521 0.0
C1021 C 0.77911 0.09998 0.94239 0.0
C1022 C 0.78006 0.12501 0.93742 0.0
H1023 H 0.75633 0.05848 0.96196 0.0
H1024 H 0.79372 0.09639 0.92879 0.0
C1025 C 0.76023 0.1286 0.95444 0.0
C1026 C 0.69125 0.95608 0.05109 0.0
C1027 C 0.66765 0.95482 0.03825 0.0
H1028 H 0.70806 0.93547 0.07949 0.0
C1029 C 0.64287 0.92938 0.03959 0.0
H1030 H 0.71068 0.97528 0.0502 0.0
C1031 C 0.64135 0.9065 0.05676 0.0
C1032 C 0.66473 0.90839 0.07179 0.0
H1033 H 0.62433 0.92777 0.02995 0.0
H1034 H 0.62159 0.88813 0.06095 0.0
C1035 C 0.68984 0.93308 0.06722 0.0
C1036 C 0.06401 0.74746 0.06503 0.0
C1037 C 0.06837 0.72988 0.04305 0.0
H1038 H 0.08169 0.7819 0.10154 0.0
C1039 C 0.09526 0.73689 0.03589 0.0
H1040 H 0.04358 0.74292 0.07041 0.0
C1041 C 0.11715 0.75929 0.05375 0.0
C1042 C 0.11246 0.77523 0.07853 0.0
H1043 H 0.09926 0.72391 0.01862 0.0
H1044 H 0.1373 0.76241 0.05098 0.0
C1045 C 0.08589 0.77013 0.0822 0.0
C1046 C 0.30246 0.38032 0.03641 0.0
C1047 C 0.30396 0.35645 0.03898 0.0
H1048 H 0.282 0.40095 0.05449 0.0
C1049 C 0.28227 0.33286 0.0551 0.0
H1050 H 0.31882 0.39877 0.02397 0.0
C1051 C 0.26077 0.33382 0.07124 0.0
C1052 C 0.26073 0.35853 0.07222 0.0
H1053 H 0.28261 0.31401 0.05699 0.0
H1054 H 0.24568 0.31608 0.08636 0.0
C1055 C 0.28111 0.38144 0.05326 0.0
C1056 C 0.78166 0.7305 0.36985 0.0
C1057 C 0.75811 0.70489 0.36227 0.0
H1058 H 0.81994 0.75164 0.39828 0.0
C1059 C 0.75791 0.68072 0.37083 0.0
H1060 H 0.78229 0.74945 0.36372 0.0
C1061 C 0.77987 0.68201 0.38905 0.0
C1062 C 0.80226 0.70748 0.40004 0.0
H1063 H 0.74009 0.6607 0.36518 0.0
H1064 H 0.77804 0.66296 0.39798 0.0
C1065 C 0.8034 0.73177 0.38913 0.0
C1066 C 0.32665 0.07771 0.3607 0.0
C1067 C 0.34833 0.07307 0.36328 0.0
H1068 H 0.30948 0.10093 0.38095 0.0
C1069 C 0.37214 0.09249 0.38144 0.0
H1070 H 0.30815 0.06317 0.34651 0.0
C1071 C 0.37331 0.11466 0.39973 0.0
C1072 C 0.35038 0.11735 0.40109 0.0
H1073 H 0.38936 0.08971 0.38321 0.0
H1074 H 0.39098 0.12786 0.41631 0.0
C1075 C 0.32759 0.09963 0.37978 0.0
C1076 C 0.9467 0.28265 0.3807 0.0
C1077 C 0.96753 0.27976 0.36584 0.0
H1078 H 0.9104 0.26435 0.41267 0.0
C1079 C 0.96523 0.25387 0.36749 0.0
H1080 H 0.94778 0.30226 0.37949 0.0
C1081 C 0.94388 0.23214 0.387 0.0
C1082 C 0.92405 0.23573 0.40403 0.0
H1083 H 0.98103 0.25108 0.3562 0.0
H1084 H 0.94414 0.21343 0.39132 0.0
C1085 C 0.925 0.26076 0.39906 0.0
C1086 C 1.01286 0.40465 0.29031 0.0
C1087 C 0.03645 0.4059 0.30315 0.0
H1088 H 0.99604 0.42525 0.26191 0.0
C1089 C 0.06123 0.43134 0.3018 0.0
H1090 H 0.99343 0.38545 0.2912 0.0
C1091 C 0.06275 0.45422 0.28463 0.0
C1092 C 0.03937 0.45234 0.26961 0.0
H1093 H 0.07978 0.43296 0.31143 0.0
H1094 H 0.08251 0.47259 0.28043 0.0
C1095 C 1.01426 0.42765 0.27417 0.0
C1096 C 0.60857 0.62369 0.30548 0.0
C1097 C 0.63546 0.63071 0.29832 0.0
H1098 H 0.56653 0.59816 0.2904 0.0
C1099 C 0.63982 0.61314 0.27633 0.0
H1100 H 0.60457 0.63667 0.32276 0.0
C1101 C 0.61795 0.59045 0.25917 0.0
C1102 C 0.59137 0.58534 0.26285 0.0
H1103 H 0.66026 0.61768 0.27095 0.0
H1104 H 0.62215 0.57869 0.23983 0.0
C1105 C 0.58668 0.60128 0.28763 0.0
C1106 C 0.42171 0.02755 0.28639 0.0
C1107 C 0.4 1.00394 0.30245 0.0
H1108 H 0.45831 0.04436 0.25518 0.0
C1109 C 0.40149 0.98006 0.30498 0.0
H1110 H 0.42137 0.0464 0.28452 0.0
C1111 C 0.42284 0.97896 0.28814 0.0
C1112 C 0.44325 1.00189 0.26923 0.0
H1113 H 0.38512 0.9616 0.31738 0.0
H1114 H 0.42196 0.95945 0.28688 0.0
C1115 C 0.44321 0.0266 0.27026 0.0
C1116 C 0.61267 0.01324 0.30396 0.0
C1117 C 0.61248 0.98907 0.31253 0.0
H1118 H 0.59254 0.03099 0.2768 0.0
C1119 C 0.58894 0.96346 0.30493 0.0
H1120 H 0.63048 0.03326 0.30963 0.0
C1121 C 0.5672 0.96218 0.28562 0.0
C1122 C 0.56834 0.98647 0.27472 0.0
H1123 H 0.58831 0.94451 0.31105 0.0
H1124 H 0.55067 0.94232 0.27646 0.0
C1125 C 0.59072 1.01194 0.28572 0.0
C1126 C 0.04392 0.61611 0.31404 0.0
C1127 C 0.02223 0.62072 0.31145 0.0
H1128 H 0.06114 0.59292 0.2938 0.0
C1129 C 0.99842 0.60128 0.29329 0.0
H1130 H 0.06242 0.63067 0.32823 0.0
C1131 C 0.99729 0.57912 0.27501 0.0
C1132 C 0.02023 0.57646 0.27366 0.0
H1133 H 0.98119 0.60404 0.29152 0.0
H1134 H 0.97961 0.56591 0.25844 0.0
C1135 C 0.04301 0.5942 0.29497 0.0
C1136 C 0.40548 0.43999 0.30725 0.0
C1137 C 0.40318 0.41409 0.30889 0.0
H1138 H 0.42656 0.48043 0.28344 0.0
C1139 C 0.42401 0.41121 0.294 0.0
H1140 H 0.38969 0.44277 0.31857 0.0
C1141 C 0.44571 0.43311 0.27564 0.0
C1142 C 0.44665 0.45814 0.2707 0.0
H1143 H 0.42293 0.3916 0.2952 0.0
H1144 H 0.46031 0.42952 0.26201 0.0
C1145 C 0.42683 0.46173 0.28775 0.0
C1146 C 0.30948 0.26252 0.37293 0.0
C1147 C 0.33426 0.28795 0.37158 0.0
H1148 H 0.2882 0.22127 0.39431 0.0
C1149 C 0.35785 0.28921 0.38443 0.0
H1150 H 0.29094 0.2609 0.3633 0.0
C1151 C 0.35645 0.26621 0.40057 0.0
C1152 C 0.33133 0.24152 0.40513 0.0
H1153 H 0.37729 0.3084 0.38353 0.0
H1154 H 0.37466 0.26859 0.41283 0.0
C1155 C 0.30795 0.23964 0.39011 0.0
C1156 C 0.76203 0.07027 0.36929 0.0
C1157 C 0.73515 0.06327 0.37647 0.0
H1158 H 0.80408 0.09579 0.38435 0.0
C1159 C 0.7308 0.08084 0.39846 0.0
H1160 H 0.76602 0.05729 0.352 0.0
C1161 C 0.75268 0.10352 0.41563 0.0
C1162 C 0.77926 0.10862 0.41193 0.0
H1163 H 0.71037 0.07631 0.40386 0.0
H1164 H 0.7485 0.11529 0.43497 0.0
C1165 C 0.78393 0.09268 0.38714 0.0
C1166 C 0.96899 0.71369 0.36968 0.0
C1167 C 0.97049 0.68982 0.37224 0.0
H1168 H 0.94852 0.73432 0.38777 0.0
C1169 C 0.94879 0.66622 0.38834 0.0
H1170 H 0.98535 0.73215 0.35725 0.0
C1171 C 0.92729 0.66718 0.40448 0.0
C1172 C 0.92725 0.69189 0.40547 0.0
H1173 H 0.94914 0.64738 0.39023 0.0
H1174 H 0.9122 0.64943 0.41958 0.0
C1175 C 0.94764 0.7148 0.38653 0.0
C1176 C 0.42463 0.01392 0.7042 0.0
C1177 C 0.42482 0.03808 0.6956 0.0
H1178 H 0.44477 0.9962 0.73139 0.0
C1179 C 0.44837 0.0637 0.70316 0.0
H1180 H 0.40681 0.9939 0.69856 0.0
C1181 C 0.4701 0.065 0.72247 0.0
C1182 C 0.46897 0.04071 0.73341 0.0
H1183 H 0.44899 0.08265 0.69701 0.0
H1184 H 0.48664 0.08487 0.7316 0.0
C1185 C 0.44659 0.01523 0.72244 0.0
C1186 C 0.99341 0.41118 0.69398 0.0
C1187 C 1.0151 0.40655 0.69655 0.0
H1188 H 0.97623 0.43439 0.71424 0.0
C1189 C 0.03892 0.42598 0.71469 0.0
H1190 H 0.9749 0.39662 0.67981 0.0
C1191 C 0.04008 0.44816 0.73297 0.0
C1192 C 1.01714 0.45083 0.73434 0.0
H1193 H 0.05614 0.42321 0.71645 0.0
H1194 H 0.05776 0.46137 0.74952 0.0
C1195 C 0.99434 0.43309 0.71305 0.0
C1196 C 0.63179 0.58716 0.70085 0.0
C1197 C 0.63409 0.61306 0.69922 0.0
H1198 H 0.6107 0.54671 0.72466 0.0
C1199 C 0.61326 0.61594 0.7141 0.0
H1200 H 0.64758 0.58437 0.68955 0.0
C1201 C 0.59156 0.59405 0.73246 0.0
C1202 C 0.59061 0.56901 0.7374 0.0
H1203 H 0.61435 0.63555 0.7129 0.0
H1204 H 0.57696 0.59763 0.74608 0.0
C1205 C 0.61043 0.56542 0.72035 0.0
C1206 C 0.72779 0.76464 0.63519 0.0
C1207 C 0.70301 0.7392 0.63655 0.0
H1208 H 0.74907 0.80588 0.61381 0.0
C1209 C 0.67941 0.73795 0.62373 0.0
H1210 H 0.74634 0.76624 0.6448 0.0
C1211 C 0.68081 0.76095 0.60761 0.0
C1212 C 0.70593 0.78563 0.60303 0.0
H1213 H 0.65998 0.71875 0.62464 0.0
H1214 H 0.66259 0.75856 0.59537 0.0
C1215 C 0.72931 0.78751 0.61803 0.0
C1216 C 0.27525 0.95689 0.63884 0.0
C1217 C 0.30213 0.96389 0.63166 0.0
H1218 H 0.2332 0.9314 0.62375 0.0
C1219 C 0.30647 0.94631 0.60965 0.0
H1220 H 0.27127 0.96988 0.65613 0.0
C1221 C 0.28459 0.92365 0.59248 0.0
C1222 C 0.25802 0.91857 0.59617 0.0
H1223 H 0.3269 0.95084 0.60426 0.0
H1224 H 0.28876 0.91188 0.57312 0.0
C1225 C 0.25335 0.9345 0.62097 0.0
C1226 C 0.08847 0.361 0.61965 0.0
C1227 C 0.06677 0.33741 0.63575 0.0
H1228 H 0.12506 0.37778 0.5884 0.0
C1229 C 0.06826 0.31352 0.6383 0.0
H1230 H 0.08813 0.37985 0.61777 0.0
C1231 C 0.0896 0.31241 0.62145 0.0
C1232 C 0.11 0.33532 0.60251 0.0
H1233 H 0.05189 0.29507 0.65073 0.0
H1234 H 0.08871 0.29289 0.6202 0.0
C1235 C 0.10997 0.36003 0.60351 0.0
C1236 C 0.27929 0.34645 0.63727 0.0
C1237 C 0.2791 0.32229 0.64583 0.0
H1238 H 0.25915 0.3642 0.6101 0.0
C1239 C 0.25556 0.29668 0.63822 0.0
H1240 H 0.2971 0.36647 0.64294 0.0
C1241 C 0.23382 0.29539 0.61891 0.0
C1242 C 0.23495 0.31969 0.60802 0.0
H1243 H 0.25493 0.27772 0.64434 0.0
H1244 H 0.21729 0.27553 0.60975 0.0
C1245 C 0.25733 0.34516 0.61903 0.0
C1246 C 0.71069 0.94952 0.64745 0.0
C1247 C 0.68901 0.95416 0.64488 0.0
H1248 H 0.72786 0.92629 0.62721 0.0
C1249 C 0.66519 0.93473 0.62674 0.0
H1250 H 0.7292 0.96407 0.66162 0.0
C1251 C 0.66402 0.91255 0.60847 0.0
C1252 C 0.68695 0.90986 0.6071 0.0
H1253 H 0.64797 0.93751 0.62498 0.0
H1254 H 0.64633 0.89934 0.59191 0.0
C1255 C 0.70975 0.92759 0.62839 0.0
C1256 C 0.09055 0.74458 0.6273 0.0
C1257 C 0.06971 0.74747 0.64217 0.0
H1258 H 0.12685 0.76289 0.59533 0.0
C1259 C 0.07201 0.77336 0.64052 0.0
H1260 H 0.08947 0.72498 0.6285 0.0
C1261 C 0.09337 0.7951 0.62103 0.0
C1262 C 0.1132 0.79151 0.60399 0.0
H1263 H 0.05622 0.77615 0.65182 0.0
H1264 H 0.0931 0.81381 0.61671 0.0
C1265 C 0.11225 0.76648 0.60894 0.0
C1266 C 0.02445 0.62261 0.71766 0.0
C1267 C 1.00084 0.62134 0.70485 0.0
H1268 H 0.0413 0.60202 0.74602 0.0
C1269 C 0.97606 0.5959 0.70624 0.0
H1270 H 0.04388 0.64181 0.71673 0.0
C1271 C 0.97456 0.57303 0.72341 0.0
C1272 C 0.99796 0.57493 0.7384 0.0
H1273 H 0.95751 0.59427 0.69664 0.0
H1274 H 0.95482 0.55466 0.72764 0.0
C1275 C 0.02307 0.59962 0.73379 0.0
C1276 C 0.42864 0.40351 0.70259 0.0
C1277 C 0.40176 0.39649 0.70977 0.0
H1278 H 0.47069 0.42903 0.71766 0.0
C1279 C 0.3974 0.41406 0.73178 0.0
H1280 H 0.43264 0.39054 0.68531 0.0
C1281 C 0.41928 0.43674 0.74894 0.0
C1282 C 0.44586 0.44185 0.74524 0.0
H1283 H 0.37697 0.40952 0.73717 0.0
H1284 H 0.41509 0.4485 0.76829 0.0
C1285 C 0.45054 0.42592 0.72045 0.0
C1286 C 0.63583 0.04717 0.70312 0.0
C1287 C 0.63734 0.02329 0.70567 0.0
H1288 H 0.61537 0.06778 0.7212 0.0
C1289 C 0.61563 0.99969 0.72177 0.0
H1290 H 0.6522 0.06562 0.69069 0.0
C1291 C 0.59413 1.00065 0.7379 0.0
C1292 C 0.59409 0.02536 0.73889 0.0
H1293 H 0.61598 0.98085 0.72365 0.0
H1294 H 0.57904 0.9829 0.753 0.0
C1295 C 0.61449 0.04827 0.71996 0.0
loop_
_geom_bond_atom_site_label_1
_geom_bond_atom_site_label_2
_geom_bond_distance
_geom_bond_site_symmetry_2
_ccdc_geom_bond_type
Co0 O1 2.216 . S
Co0 O2 2.091 . S
Co0 O4 2.004 1_554 S
Co0 O10 2.021 . S
Co0 O12 2.137 1_454 S
Co0 O13 2.244 1_455 S
O1 Co0 2.216 . S
O1 C8 1.247 . S
O2 Co0 2.091 . S
O2 C8 1.261 . S
C3 O12 1.247 . S
C3 O13 1.272 1_556 S
O4 Co0 2.004 1_556 S
O4 C9 1.259 1_455 S
Co5 O6 2.061 1_554 S
Co5 O11 2.052 . S
Co5 O13 2.135 . S
O6 Co5 2.061 1_556 S
O6 C9 1.235 . S
C7 O10 1.238 1_655 S
C7 O11 1.241 . S
C8 O1 1.247 . S
C8 O2 1.261 . S
C9 O4 1.259 1_655 S
C9 O6 1.235 . S
O10 Co0 2.021 . S
O10 C7 1.238 1_455 S
O11 Co5 2.052 . S
O11 C7 1.241 . S
O12 Co0 2.137 1_656 S
O12 C3 1.247 . S
O13 Co0 2.244 1_655 S
O13 C3 1.272 1_554 S
O13 Co5 2.135 . S
Co14 O15 2.216 1_554 S
Co14 O16 2.091 . S
Co14 O18 2.004 . S
Co14 O24 2.021 1_554 S
Co14 O26 2.137 . S
Co14 O27 2.244 . S
O15 Co14 2.216 1_556 S
O15 C22 1.247 . S
O16 Co14 2.091 . S
O16 C22 1.261 1_554 S
C17 O26 1.247 . S
C17 O27 1.272 . S
O18 Co14 2.004 . S
O18 C23 1.259 . S
Co19 O20 2.061 . S
Co19 O25 2.052 1_554 S
Co19 O27 2.135 . S
O20 Co19 2.061 . S
O20 C23 1.235 . S
C21 O24 1.238 . S
C21 O25 1.241 . S
C22 O15 1.247 . S
C22 O16 1.261 1_556 S
C23 O18 1.259 . S
C23 O20 1.235 . S
O24 Co14 2.021 1_556 S
O24 C21 1.238 . S
O25 Co19 2.052 1_556 S
O25 C21 1.241 . S
O26 Co14 2.137 . S
O26 C17 1.247 . S
O27 Co14 2.244 . S
O27 C17 1.272 . S
O27 Co19 2.135 . S
Co28 O29 2.216 1_554 S
Co28 O30 2.091 . S
Co28 O32 2.004 . S
Co28 O38 2.021 1_554 S
Co28 O40 2.137 1_545 S
Co28 O41 2.244 1_545 S
O29 Co28 2.216 1_556 S
O29 C36 1.247 . S
O30 Co28 2.091 . S
O30 C36 1.261 1_554 S
C31 O40 1.247 . S
C31 O41 1.272 . S
O32 Co28 2.004 . S
O32 C37 1.294 . S
Co33 O34 2.061 . S
Co33 O39 2.052 1_554 S
Co33 O41 2.135 . S
O34 Co33 2.061 . S
O34 C37 1.202 1_565 S
C35 O38 1.238 1_565 S
C35 O39 1.241 . S
C36 O29 1.247 . S
C36 O30 1.261 1_556 S
C37 O32 1.294 . S
C37 O34 1.202 1_545 S
O38 Co28 2.021 1_556 S
O38 C35 1.238 1_545 S
O39 Co33 2.052 1_556 S
O39 C35 1.241 . S
O40 Co28 2.137 1_565 S
O40 C31 1.247 . S
O41 Co28 2.244 1_565 S
O41 C31 1.272 . S
O41 Co33 2.135 . S
Co42 O43 2.216 1_554 S
Co42 O44 2.091 . S
Co42 O46 2.004 . S
Co42 O52 2.021 1_554 S
Co42 O54 2.137 1_655 S
Co42 O55 2.244 1_655 S
O43 Co42 2.216 1_556 S
O43 C50 1.247 . S
O44 Co42 2.091 . S
O44 C50 1.261 1_554 S
C45 O54 1.247 . S
C45 O55 1.272 . S
O46 Co42 2.004 . S
O46 C51 1.259 1_655 S
Co47 O48 2.061 . S
Co47 O53 2.052 1_554 S
Co47 O55 2.135 . S
O48 Co47 2.061 . S
O48 C51 1.235 . S
C49 O52 1.238 1_455 S
C49 O53 1.241 . S
C50 O43 1.247 . S
C50 O44 1.261 1_556 S
C51 O46 1.259 1_455 S
C51 O48 1.235 . S
O52 Co42 2.021 1_556 S
O52 C49 1.238 1_655 S
O53 Co47 2.052 1_556 S
O53 C49 1.241 . S
O54 Co42 2.137 1_455 S
O54 C45 1.247 . S
O55 Co42 2.244 1_455 S
O55 C45 1.272 . S
O55 Co47 2.135 . S
Co56 O57 2.216 . S
Co56 O58 2.091 . S
Co56 O60 2.004 1_554 S
Co56 O66 2.021 . S
Co56 O68 2.137 1_554 S
Co56 O69 2.243 1_554 S
O57 Co56 2.216 . S
O57 C64 1.247 . S
O58 Co56 2.091 . S
O58 C64 1.261 . S
C59 O68 1.247 . S
C59 O69 1.276 . S
O60 Co56 2.004 1_556 S
O60 C65 1.259 . S
Co61 O62 2.062 . S
Co61 O67 2.051 1_556 S
Co61 O69 2.135 . S
O62 Co61 2.062 . S
O62 C65 1.235 . S
C63 O66 1.238 . S
C63 O67 1.241 . S
C64 O57 1.247 . S
C64 O58 1.261 . S
C65 O60 1.259 . S
C65 O62 1.235 . S
O66 Co56 2.021 . S
O66 C63 1.238 . S
O67 Co61 2.051 1_554 S
O67 C63 1.241 . S
O68 Co56 2.137 1_556 S
O68 C59 1.247 . S
O69 Co56 2.243 1_556 S
O69 C59 1.276 . S
O69 Co61 2.135 . S
Co70 O71 2.216 . S
Co70 O72 2.091 . S
Co70 O74 2.004 1_554 S
Co70 O80 2.021 . S
Co70 O82 2.137 1_564 S
Co70 O83 2.244 1_565 S
O71 Co70 2.216 . S
O71 C78 1.247 . S
O72 Co70 2.091 . S
O72 C78 1.261 . S
C73 O82 1.247 . S
C73 O83 1.272 1_556 S
O74 Co70 2.004 1_556 S
O74 C79 1.259 1_565 S
Co75 O76 2.061 1_554 S
Co75 O81 2.052 . S
Co75 O83 2.135 . S
O76 Co75 2.061 1_556 S
O76 C79 1.235 . S
C77 O80 1.238 1_545 S
C77 O81 1.241 . S
C78 O71 1.247 . S
C78 O72 1.261 . S
C79 O74 1.259 1_545 S
C79 O76 1.235 . S
O80 Co70 2.021 . S
O80 C77 1.238 1_565 S
O81 Co75 2.052 . S
O81 C77 1.241 . S
O82 Co70 2.137 1_546 S
O82 C73 1.247 . S
O83 Co70 2.244 1_545 S
O83 C73 1.272 1_554 S
O83 Co75 2.135 . S
Co84 O85 2.216 . S
Co84 O86 2.091 . S
Co84 O88 2.004 . S
Co84 O94 2.021 . S
Co84 O96 2.137 . S
Co84 O97 2.244 . S
O85 Co84 2.216 . S
O85 C92 1.247 . S
O86 Co84 2.091 . S
O86 C92 1.261 . S
C87 O96 1.247 . S
C87 O97 1.272 . S
O88 Co84 2.004 . S
O88 C93 1.259 . S
Co89 O90 2.061 . S
Co89 O95 2.052 . S
Co89 O97 2.135 . S
O90 Co89 2.061 . S
O90 C93 1.235 . S
C91 O94 1.238 . S
C91 O95 1.241 . S
C92 O85 1.247 . S
C92 O86 1.261 . S
C93 O88 1.259 . S
C93 O90 1.235 . S
O94 Co84 2.021 . S
O94 C91 1.238 . S
O95 Co89 2.052 . S
O95 C91 1.241 . S
O96 Co84 2.137 . S
O96 C87 1.247 . S
O97 Co84 2.244 . S
O97 C87 1.272 . S
O97 Co89 2.135 . S
Co98 O99 2.216 1_565 S
Co98 O100 2.091 . S
Co98 O102 2.004 . S
Co98 O108 2.021 . S
Co98 O110 2.137 1_565 S
Co98 O111 2.244 1_565 S
O99 Co98 2.216 1_545 S
O99 C106 1.247 1_545 S
O100 Co98 2.091 . S
O100 C106 1.261 . S
C101 O110 1.247 . S
C101 O111 1.272 . S
O102 Co98 2.004 . S
O102 C107 1.259 . S
Co103 O104 2.061 . S
Co103 O109 2.052 . S
Co103 O111 2.135 1_565 S
O104 Co103 2.061 . S
O104 C107 1.235 . S
C105 O108 1.238 . S
C105 O109 1.241 . S
C106 O99 1.247 1_565 S
C106 O100 1.261 . S
C107 O102 1.259 . S
C107 O104 1.235 . S
O108 Co98 2.021 . S
O108 C105 1.238 . S
O109 Co103 2.052 . S
O109 C105 1.241 . S
O110 Co98 2.137 1_545 S
O110 C101 1.247 . S
O111 Co98 2.244 1_545 S
O111 C101 1.272 . S
O111 Co103 2.135 1_545 S
Co112 O113 2.216 1_455 S
Co112 O114 2.091 . S
Co112 O116 2.004 . S
Co112 O122 2.021 . S
Co112 O124 2.137 1_455 S
Co112 O125 2.244 1_455 S
O113 Co112 2.216 1_655 S
O113 C120 1.247 1_655 S
O114 Co112 2.091 . S
O114 C120 1.261 . S
C115 O124 1.247 . S
C115 O125 1.272 . S
O116 Co112 2.004 . S
O116 C121 1.259 . S
Co117 O118 2.061 . S
Co117 O123 2.052 . S
Co117 O125 2.135 1_455 S
O118 Co117 2.061 . S
O118 C121 1.235 . S
C119 O122 1.238 . S
C119 O123 1.241 . S
C120 O113 1.247 1_455 S
C120 O114 1.261 . S
C121 O116 1.259 . S
C121 O118 1.235 . S
O122 Co112 2.021 . S
O122 C119 1.238 . S
O123 Co117 2.052 . S
O123 C119 1.241 . S
O124 Co112 2.137 1_655 S
O124 C115 1.247 . S
O125 Co112 2.244 1_655 S
O125 C115 1.272 . S
O125 Co117 2.135 1_655 S
Co126 O127 2.216 1_565 S
Co126 O128 2.091 . S
Co126 O130 2.004 . S
Co126 O136 2.021 . S
Co126 O138 2.137 1_565 S
Co126 O139 2.244 1_565 S
O127 Co126 2.216 1_545 S
O127 C134 1.247 1_545 S
O128 Co126 2.091 . S
O128 C134 1.261 . S
C129 O138 1.247 . S
C129 O139 1.272 . S
O130 Co126 2.004 . S
O130 C135 1.259 . S
Co131 O132 2.061 . S
Co131 O137 2.052 . S
Co131 O139 2.135 1_565 S
O132 Co131 2.061 . S
O132 C135 1.235 . S
C133 O136 1.238 . S
C133 O137 1.241 . S
C134 O127 1.247 1_565 S
C134 O128 1.261 . S
C135 O130 1.259 . S
C135 O132 1.235 . S
O136 Co126 2.021 . S
O136 C133 1.238 . S
O137 Co131 2.052 . S
O137 C133 1.241 . S
O138 Co126 2.137 1_545 S
O138 C129 1.247 . S
O139 Co126 2.244 1_545 S
O139 C129 1.272 . S
O139 Co131 2.135 1_545 S
Co140 O141 2.216 1_455 S
Co140 O142 2.091 1_455 S
Co140 O144 2.004 . S
Co140 O150 2.021 . S
Co140 O152 2.137 1_455 S
Co140 O153 2.244 . S
O141 Co140 2.216 1_655 S
O141 C148 1.247 . S
O142 Co140 2.091 1_655 S
O142 C148 1.261 . S
C143 O152 1.247 1_455 S
C143 O153 1.272 . S
O144 Co140 2.004 . S
O144 C149 1.259 . S
Co145 O146 2.061 . S
Co145 O151 2.052 . S
Co145 O153 2.135 . S
O146 Co145 2.061 . S
O146 C149 1.235 . S
C147 O150 1.238 . S
C147 O151 1.241 . S
C148 O141 1.247 . S
C148 O142 1.261 . S
C149 O144 1.259 . S
C149 O146 1.235 . S
O150 Co140 2.021 . S
O150 C147 1.238 . S
O151 Co145 2.052 . S
O151 C147 1.241 . S
O152 Co140 2.137 1_655 S
O152 C143 1.247 1_655 S
O153 Co140 2.244 . S
O153 C143 1.272 . S
O153 Co145 2.135 . S
Co154 O155 2.216 . S
Co154 O156 2.091 . S
Co154 O158 2.004 . S
Co154 O164 2.021 . S
Co154 O166 2.137 . S
Co154 O167 2.244 . S
O155 Co154 2.216 . S
O155 C162 1.247 . S
O156 Co154 2.091 . S
O156 C162 1.261 . S
C157 O166 1.247 . S
C157 O167 1.272 . S
O158 Co154 2.004 . S
O158 C163 1.259 . S
Co159 O160 2.061 . S
Co159 O165 2.052 . S
Co159 O167 2.135 . S
O160 Co159 2.061 . S
O160 C163 1.235 . S
C161 O164 1.238 . S
C161 O165 1.241 . S
C162 O155 1.247 . S
C162 O156 1.261 . S
C163 O158 1.259 . S
C163 O160 1.235 . S
O164 Co154 2.021 . S
O164 C161 1.238 . S
O165 Co159 2.052 . S
O165 C161 1.241 . S
O166 Co154 2.137 . S
O166 C157 1.247 . S
O167 Co154 2.244 . S
O167 C157 1.272 . S
O167 Co159 2.135 . S
Co168 O169 2.216 1_545 S
Co168 O170 2.091 . S
Co168 O172 2.004 . S
Co168 O178 2.021 . S
Co168 O180 2.137 1_545 S
Co168 O181 2.244 1_545 S
O169 Co168 2.216 1_565 S
O169 C176 1.247 1_565 S
O170 Co168 2.091 . S
O170 C176 1.261 . S
C171 O180 1.247 . S
C171 O181 1.272 . S
O172 Co168 2.004 . S
O172 C177 1.259 . S
Co173 O174 2.061 . S
Co173 O179 2.052 . S
Co173 O181 2.135 1_545 S
O174 Co173 2.061 . S
O174 C177 1.235 . S
C175 O178 1.238 . S
C175 O179 1.241 . S
C176 O169 1.247 1_545 S
C176 O170 1.261 . S
C177 O172 1.259 . S
C177 O174 1.235 . S
O178 Co168 2.021 . S
O178 C175 1.238 . S
O179 Co173 2.052 . S
O179 C175 1.241 . S
O180 Co168 2.137 1_565 S
O180 C171 1.247 . S
O181 Co168 2.244 1_565 S
O181 C171 1.272 . S
O181 Co173 2.135 1_565 S
Co182 O183 2.216 1_655 S
Co182 O184 2.091 1_655 S
Co182 O186 2.004 . S
Co182 O192 2.021 . S
Co182 O194 2.137 1_655 S
Co182 O195 2.244 . S
O183 Co182 2.216 1_455 S
O183 C190 1.247 . S
O184 Co182 2.091 1_455 S
O184 C190 1.261 . S
C185 O194 1.247 1_655 S
C185 O195 1.272 . S
O186 Co182 2.004 . S
O186 C191 1.259 . S
Co187 O188 2.061 . S
Co187 O193 2.052 . S
Co187 O195 2.135 . S
O188 Co187 2.061 . S
O188 C191 1.235 . S
C189 O192 1.238 . S
C189 O193 1.241 . S
C190 O183 1.247 . S
C190 O184 1.261 . S
C191 O186 1.259 . S
C191 O188 1.235 . S
O192 Co182 2.021 . S
O192 C189 1.238 . S
O193 Co187 2.052 . S
O193 C189 1.241 . S
O194 Co182 2.137 1_455 S
O194 C185 1.247 1_455 S
O195 Co182 2.244 . S
O195 C185 1.272 . S
O195 Co187 2.135 . S
Co196 O197 2.216 . S
Co196 O198 2.091 . S
Co196 O200 2.004 . S
Co196 O206 2.021 . S
Co196 O208 2.137 . S
Co196 O209 2.244 . S
O197 Co196 2.216 . S
O197 C204 1.247 . S
O198 Co196 2.091 . S
O198 C204 1.261 . S
C199 O208 1.247 . S
C199 O209 1.272 . S
O200 Co196 2.004 . S
O200 C205 1.259 . S
Co201 O202 2.061 . S
Co201 O207 2.052 . S
Co201 O209 2.135 . S
O202 Co201 2.061 . S
O202 C205 1.235 . S
C203 O206 1.238 . S
C203 O207 1.241 . S
C204 O197 1.247 . S
C204 O198 1.261 . S
C205 O200 1.259 . S
C205 O202 1.235 . S
O206 Co196 2.021 . S
O206 C203 1.238 . S
O207 Co201 2.052 . S
O207 C203 1.241 . S
O208 Co196 2.137 . S
O208 C199 1.247 . S
O209 Co196 2.244 . S
O209 C199 1.272 . S
O209 Co201 2.135 . S
Co210 O211 2.216 . S
Co210 O212 2.091 . S
Co210 O214 2.004 . S
Co210 O220 2.021 . S
Co210 O222 2.137 . S
Co210 O223 2.244 . S
O211 Co210 2.216 . S
O211 C218 1.247 . S
O212 Co210 2.091 . S
O212 C218 1.261 . S
C213 O222 1.247 . S
C213 O223 1.272 . S
O214 Co210 2.004 . S
O214 C219 1.259 . S
Co215 O216 2.061 . S
Co215 O221 2.052 . S
Co215 O223 2.135 . S
O216 Co215 2.061 . S
O216 C219 1.235 . S
C217 O220 1.238 . S
C217 O221 1.241 . S
C218 O211 1.247 . S
C218 O212 1.261 . S
C219 O214 1.259 . S
C219 O216 1.235 . S
O220 Co210 2.021 . S
O220 C217 1.238 . S
O221 Co215 2.052 . S
O221 C217 1.241 . S
O222 Co210 2.137 . S
O222 C213 1.247 . S
O223 Co210 2.244 . S
O223 C213 1.272 . S
O223 Co215 2.135 . S
Co224 O225 2.216 1_545 S
Co224 O226 2.091 . S
Co224 O228 2.004 . S
Co224 O234 2.021 . S
Co224 O236 2.137 1_545 S
Co224 O237 2.244 1_545 S
O225 Co224 2.216 1_565 S
O225 C232 1.247 1_565 S
O226 Co224 2.091 . S
O226 C232 1.261 . S
C227 O236 1.247 . S
C227 O237 1.272 . S
O228 Co224 2.004 . S
O228 C233 1.259 . S
Co229 O230 2.061 . S
Co229 O235 2.052 . S
Co229 O237 2.135 1_545 S
O230 Co229 2.061 . S
O230 C233 1.235 . S
C231 O234 1.238 . S
C231 O235 1.241 . S
C232 O225 1.247 1_545 S
C232 O226 1.261 . S
C233 O228 1.259 . S
C233 O230 1.235 . S
O234 Co224 2.021 . S
O234 C231 1.238 . S
O235 Co229 2.052 . S
O235 C231 1.241 . S
O236 Co224 2.137 1_565 S
O236 C227 1.247 . S
O237 Co224 2.244 1_565 S
O237 C227 1.272 . S
O237 Co229 2.135 1_565 S
Co238 O239 2.216 1_655 S
Co238 O240 2.091 . S
Co238 O242 2.004 . S
Co238 O248 2.021 . S
Co238 O250 2.137 1_655 S
Co238 O251 2.244 1_655 S
O239 Co238 2.216 1_455 S
O239 C246 1.247 1_455 S
O240 Co238 2.091 . S
O240 C246 1.261 . S
C241 O250 1.247 . S
C241 O251 1.272 . S
O242 Co238 2.004 . S
O242 C247 1.259 . S
Co243 O244 2.061 . S
Co243 O249 2.052 . S
Co243 O251 2.135 1_655 S
O244 Co243 2.061 . S
O244 C247 1.235 . S
C245 O248 1.238 . S
C245 O249 1.241 . S
C246 O239 1.247 1_655 S
C246 O240 1.261 . S
C247 O242 1.259 . S
C247 O244 1.235 . S
O248 Co238 2.021 . S
O248 C245 1.238 . S
O249 Co243 2.052 . S
O249 C245 1.241 . S
O250 Co238 2.137 1_455 S
O250 C241 1.247 . S
O251 Co238 2.244 1_455 S
O251 C241 1.272 . S
O251 Co243 2.135 1_455 S
H252 C258 0.930 . S
H253 C261 0.931 . S
H254 C263 0.931 . S
H255 C265 0.930 . S
H256 C267 0.930 . S
H257 C269 0.931 . S
C258 H252 0.930 . S
C258 C259 1.380 . S
C258 C260 1.394 . S
C259 C258 1.380 . S
C259 C263 1.382 . S
C260 C258 1.394 . S
C260 C261 1.400 . S
C261 H253 0.931 . S
C261 C260 1.400 . S
C261 C262 1.375 . S
C262 C261 1.375 . S
C262 C263 1.415 . S
C262 C264 1.501 . S
C263 H254 0.931 . S
C263 C259 1.382 . S
C263 C262 1.415 . S
C264 C262 1.501 . S
C264 C265 1.384 . S
C264 C269 1.408 . S
C265 H255 0.930 . S
C265 C264 1.384 . S
C265 C266 1.389 . S
C266 C265 1.389 . S
C266 C267 1.405 . S
C267 H256 0.930 . S
C267 C266 1.405 . S
C267 C268 1.364 . S
C268 C267 1.364 . S
C268 C269 1.400 . S
C269 H257 0.931 . S
C269 C264 1.408 . S
C269 C268 1.400 . S
H270 C276 0.930 . S
H271 C279 0.931 . S
H272 C281 0.931 . S
H273 C283 0.930 . S
H274 C285 0.930 . S
H275 C287 0.931 . S
C276 H270 0.930 . S
C276 C277 1.380 . S
C276 C278 1.394 . S
C277 C276 1.380 . S
C277 C281 1.382 . S
C278 C276 1.394 . S
C278 C279 1.400 . S
C279 H271 0.931 . S
C279 C278 1.400 . S
C279 C280 1.375 . S
C280 C279 1.375 . S
C280 C281 1.415 . S
C280 C282 1.501 . S
C281 H272 0.931 . S
C281 C277 1.382 . S
C281 C280 1.415 . S
C282 C280 1.501 . S
C282 C283 1.384 . S
C282 C287 1.408 . S
C283 H273 0.930 . S
C283 C282 1.384 . S
C283 C284 1.389 . S
C284 C283 1.389 . S
C284 C285 1.405 . S
C285 H274 0.930 . S
C285 C284 1.405 . S
C285 C286 1.364 . S
C286 C285 1.364 . S
C286 C287 1.400 . S
C287 H275 0.931 . S
C287 C282 1.408 . S
C287 C286 1.400 . S
H288 C294 0.930 . S
H289 C297 0.931 . S
H290 C299 0.931 . S
H291 C301 0.930 . S
H292 C303 0.930 . S
H293 C305 0.931 . S
C294 H288 0.930 . S
C294 C295 1.380 . S
C294 C296 1.394 . S
C295 C294 1.380 . S
C295 C299 1.382 . S
C296 C294 1.394 . S
C296 C297 1.400 . S
C297 H289 0.931 . S
C297 C296 1.400 . S
C297 C298 1.375 . S
C298 C297 1.375 . S
C298 C299 1.415 . S
C298 C300 1.501 . S
C299 H290 0.931 . S
C299 C295 1.382 . S
C299 C298 1.415 . S
C300 C298 1.501 . S
C300 C301 1.384 . S
C300 C305 1.408 . S
C301 H291 0.930 . S
C301 C300 1.384 . S
C301 C302 1.389 . S
C302 C301 1.389 . S
C302 C303 1.405 . S
C303 H292 0.930 . S
C303 C302 1.405 . S
C303 C304 1.364 . S
C304 C303 1.364 . S
C304 C305 1.400 . S
C305 H293 0.931 . S
C305 C300 1.408 . S
C305 C304 1.400 . S
H306 C312 0.930 . S
H307 C315 0.931 . S
H308 C317 0.931 . S
H309 C319 0.930 . S
H310 C321 0.930 . S
H311 C323 0.931 . S
C312 H306 0.930 . S
C312 C313 1.380 . S
C312 C314 1.394 . S
C313 C312 1.380 . S
C313 C317 1.382 . S
C314 C312 1.394 . S
C314 C315 1.400 . S
C315 H307 0.931 . S
C315 C314 1.400 . S
C315 C316 1.375 . S
C316 C315 1.375 . S
C316 C317 1.415 . S
C316 C318 1.501 . S
C317 H308 0.931 . S
C317 C313 1.382 . S
C317 C316 1.415 . S
C318 C316 1.501 . S
C318 C319 1.384 . S
C318 C323 1.408 . S
C319 H309 0.930 . S
C319 C318 1.384 . S
C319 C320 1.389 . S
C320 C319 1.389 . S
C320 C321 1.405 . S
C321 H310 0.930 . S
C321 C320 1.405 . S
C321 C322 1.364 . S
C322 C321 1.364 . S
C322 C323 1.400 . S
C323 H311 0.931 . S
C323 C318 1.408 . S
C323 C322 1.400 . S
H324 C330 0.930 . S
H325 C333 0.931 . S
H326 C335 0.931 . S
H327 C337 0.930 . S
H328 C339 0.930 . S
H329 C341 0.931 . S
C330 H324 0.930 . S
C330 C331 1.380 . S
C330 C332 1.394 . S
C331 C330 1.380 . S
C331 C335 1.382 . S
C332 C330 1.394 . S
C332 C333 1.400 . S
C333 H325 0.931 . S
C333 C332 1.400 . S
C333 C334 1.375 . S
C334 C333 1.375 . S
C334 C335 1.415 . S
C334 C336 1.501 . S
C335 H326 0.931 . S
C335 C331 1.382 . S
C335 C334 1.415 . S
C336 C334 1.501 . S
C336 C337 1.384 . S
C336 C341 1.408 . S
C337 H327 0.930 . S
C337 C336 1.384 . S
C337 C338 1.389 . S
C338 C337 1.389 . S
C338 C339 1.405 . S
C339 H328 0.930 . S
C339 C338 1.405 . S
C339 C340 1.364 . S
C340 C339 1.364 . S
C340 C341 1.400 . S
C341 H329 0.931 . S
C341 C336 1.408 . S
C341 C340 1.400 . S
H342 C348 0.930 . S
H343 C351 0.931 . S
H344 C353 0.931 . S
H345 C355 0.930 . S
H346 C357 0.930 . S
H347 C359 0.931 . S
C348 H342 0.930 . S
C348 C349 1.380 . S
C348 C350 1.394 . S
C349 C348 1.380 . S
C349 C353 1.382 . S
C350 C348 1.394 . S
C350 C351 1.400 . S
C351 H343 0.931 . S
C351 C350 1.400 . S
C351 C352 1.375 . S
C352 C351 1.375 . S
C352 C353 1.415 . S
C352 C354 1.501 . S
C353 H344 0.931 . S
C353 C349 1.382 . S
C353 C352 1.415 . S
C354 C352 1.501 . S
C354 C355 1.384 . S
C354 C359 1.408 . S
C355 H345 0.930 . S
C355 C354 1.384 . S
C355 C356 1.389 . S
C356 C355 1.389 . S
C356 C357 1.405 . S
C357 H346 0.930 . S
C357 C356 1.405 . S
C357 C358 1.364 . S
C358 C357 1.364 . S
C358 C359 1.400 . S
C359 H347 0.931 . S
C359 C354 1.408 . S
C359 C358 1.400 . S
H360 C366 0.930 . S
H361 C369 0.931 . S
H362 C371 0.931 . S
H363 C373 0.930 . S
H364 C375 0.930 . S
H365 C377 0.931 . S
C366 H360 0.930 . S
C366 C367 1.380 . S
C366 C368 1.394 . S
C367 C366 1.380 . S
C367 C371 1.382 . S
C368 C366 1.394 . S
C368 C369 1.400 . S
C369 H361 0.931 . S
C369 C368 1.400 . S
C369 C370 1.375 . S
C370 C369 1.375 . S
C370 C371 1.415 . S
C370 C372 1.501 . S
C371 H362 0.931 . S
C371 C367 1.382 . S
C371 C370 1.415 . S
C372 C370 1.501 . S
C372 C373 1.384 . S
C372 C377 1.408 . S
C373 H363 0.930 . S
C373 C372 1.384 . S
C373 C374 1.389 . S
C374 C373 1.389 . S
C374 C375 1.405 . S
C375 H364 0.930 . S
C375 C374 1.405 . S
C375 C376 1.364 . S
C376 C375 1.364 . S
C376 C377 1.400 . S
C377 H365 0.931 . S
C377 C372 1.408 . S
C377 C376 1.400 . S
H378 C384 0.930 . S
H379 C387 0.931 . S
H380 C389 0.931 . S
H381 C391 0.930 . S
H382 C393 0.930 . S
H383 C395 0.931 . S
C384 H378 0.930 . S
C384 C385 1.380 . S
C384 C386 1.394 . S
C385 C384 1.380 . S
C385 C389 1.382 . S
C386 C384 1.394 . S
C386 C387 1.400 . S
C387 H379 0.931 . S
C387 C386 1.400 . S
C387 C388 1.375 . S
C388 C387 1.375 . S
C388 C389 1.415 . S
C388 C390 1.501 . S
C389 H380 0.931 . S
C389 C385 1.382 . S
C389 C388 1.415 . S
C390 C388 1.501 . S
C390 C391 1.384 . S
C390 C395 1.408 . S
C391 H381 0.930 . S
C391 C390 1.384 . S
C391 C392 1.389 . S
C392 C391 1.389 . S
C392 C393 1.405 . S
C393 H382 0.930 . S
C393 C392 1.405 . S
C393 C394 1.364 . S
C394 C393 1.364 . S
C394 C395 1.400 . S
C395 H383 0.931 . S
C395 C390 1.408 . S
C395 C394 1.400 . S
H396 C402 0.930 . S
H397 C405 0.931 . S
H398 C407 0.931 . S
H399 C409 0.930 . S
H400 C411 0.930 . S
H401 C413 0.931 . S
C402 H396 0.930 . S
C402 C403 1.380 . S
C402 C404 1.394 . S
C403 C402 1.380 . S
C403 C407 1.382 . S
C404 C402 1.394 . S
C404 C405 1.400 . S
C405 H397 0.931 . S
C405 C404 1.400 . S
C405 C406 1.375 . S
C406 C405 1.375 . S
C406 C407 1.415 . S
C406 C408 1.501 . S
C407 H398 0.931 . S
C407 C403 1.382 . S
C407 C406 1.415 . S
C408 C406 1.501 . S
C408 C409 1.384 . S
C408 C413 1.408 . S
C409 H399 0.930 . S
C409 C408 1.384 . S
C409 C410 1.389 . S
C410 C409 1.389 . S
C410 C411 1.405 . S
C411 H400 0.930 . S
C411 C410 1.405 . S
C411 C412 1.364 . S
C412 C411 1.364 . S
C412 C413 1.400 . S
C413 H401 0.931 . S
C413 C408 1.408 . S
C413 C412 1.400 . S
H414 C420 0.926 . S
H415 C423 0.931 . S
H416 C425 0.931 . S
H417 C427 0.930 . S
H418 C429 0.930 . S
H419 C431 0.941 1_655 S
C420 H414 0.926 . S
C420 C421 1.383 . S
C420 C422 1.395 1_655 S
C421 C420 1.383 . S
C421 C425 1.382 . S
C422 C420 1.395 1_455 S
C422 C423 1.400 . S
C423 H415 0.931 . S
C423 C422 1.400 . S
C423 C424 1.375 . S
C424 C423 1.375 . S
C424 C425 1.415 1_455 S
C424 C426 1.501 . S
C425 H416 0.931 . S
C425 C421 1.382 . S
C425 C424 1.415 1_655 S
C426 C424 1.501 . S
C426 C427 1.384 . S
C426 C431 1.417 . S
C427 H417 0.930 . S
C427 C426 1.384 . S
C427 C428 1.389 . S
C428 C427 1.389 . S
C428 C429 1.405 . S
C429 H418 0.930 . S
C429 C428 1.405 . S
C429 C430 1.362 . S
C430 C429 1.362 . S
C430 C431 1.389 . S
C431 H419 0.941 1_455 S
C431 C426 1.417 . S
C431 C430 1.389 . S
H432 C438 0.930 . S
H433 C441 0.931 . S
H434 C443 0.931 . S
H435 C445 0.930 . S
H436 C447 0.930 . S
H437 C449 0.931 . S
C438 H432 0.930 . S
C438 C439 1.380 . S
C438 C440 1.394 . S
C439 C438 1.380 . S
C439 C443 1.382 . S
C440 C438 1.394 . S
C440 C441 1.400 . S
C441 H433 0.931 . S
C441 C440 1.400 . S
C441 C442 1.375 . S
C442 C441 1.375 . S
C442 C443 1.415 . S
C442 C444 1.501 . S
C443 H434 0.931 . S
C443 C439 1.382 . S
C443 C442 1.415 . S
C444 C442 1.501 . S
C444 C445 1.384 . S
C444 C449 1.408 . S
C445 H435 0.930 . S
C445 C444 1.384 . S
C445 C446 1.389 . S
C446 C445 1.389 . S
C446 C447 1.405 . S
C447 H436 0.930 . S
C447 C446 1.405 . S
C447 C448 1.364 . S
C448 C447 1.364 . S
C448 C449 1.400 . S
C449 H437 0.931 . S
C449 C444 1.408 . S
C449 C448 1.400 . S
H450 C456 0.957 . S
H451 C459 0.931 . S
H452 C461 0.931 . S
H453 C463 0.930 . S
H454 C465 0.930 . S
H455 C467 0.919 1_545 S
C456 H450 0.957 . S
C456 C457 1.375 . S
C456 C458 1.375 1_545 S
C457 C456 1.375 . S
C457 C461 1.382 . S
C458 C456 1.375 1_565 S
C458 C459 1.400 . S
C459 H451 0.931 . S
C459 C458 1.400 . S
C459 C460 1.375 . S
C460 C459 1.375 . S
C460 C461 1.415 1_565 S
C460 C462 1.501 . S
C461 H452 0.931 . S
C461 C457 1.382 . S
C461 C460 1.415 1_545 S
C462 C460 1.501 . S
C462 C463 1.384 . S
C462 C467 1.397 . S
C463 H453 0.930 . S
C463 C462 1.384 . S
C463 C464 1.389 . S
C464 C463 1.389 . S
C464 C465 1.405 . S
C465 H454 0.930 . S
C465 C464 1.405 . S
C465 C466 1.376 . S
C466 C465 1.376 . S
C466 C467 1.404 . S
C467 H455 0.919 1_565 S
C467 C462 1.397 . S
C467 C466 1.404 . S
H468 C474 0.918 . S
H469 C477 0.931 . S
H470 C479 0.925 1_545 S
H471 C481 0.930 . S
H472 C483 0.930 . S
H473 C485 0.931 . S
C474 H468 0.918 . S
C474 C475 1.381 . S
C474 C476 1.400 1_545 S
C475 C474 1.381 . S
C475 C479 1.402 1_545 S
C476 C474 1.400 1_565 S
C476 C477 1.400 . S
C477 H469 0.931 . S
C477 C476 1.400 . S
C477 C478 1.375 . S
C478 C477 1.375 . S
C478 C479 1.411 . S
C478 C480 1.501 . S
C479 H470 0.925 1_565 S
C479 C475 1.402 1_565 S
C479 C478 1.411 . S
C480 C478 1.501 . S
C480 C481 1.384 . S
C480 C485 1.408 1_565 S
C481 H471 0.930 . S
C481 C480 1.384 . S
C481 C482 1.389 . S
C482 C481 1.389 . S
C482 C483 1.405 . S
C483 H472 0.930 . S
C483 C482 1.405 . S
C483 C484 1.364 1_565 S
C484 C483 1.364 1_545 S
C484 C485 1.400 . S
C485 H473 0.931 . S
C485 C480 1.408 1_545 S
C485 C484 1.400 . S
H486 C492 0.930 . S
H487 C495 0.931 . S
H488 C497 0.934 1_655 S
H489 C499 0.930 . S
H490 C501 0.930 . S
H491 C503 0.931 . S
C492 H486 0.930 . S
C492 C493 1.393 . S
C492 C494 1.382 1_655 S
C493 C492 1.393 . S
C493 C497 1.354 1_655 S
C494 C492 1.382 1_455 S
C494 C495 1.425 . S
C495 H487 0.931 . S
C495 C494 1.425 . S
C495 C496 1.375 . S
C496 C495 1.375 . S
C496 C497 1.417 . S
C496 C498 1.501 . S
C497 H488 0.934 1_455 S
C497 C493 1.354 1_455 S
C497 C496 1.417 . S
C498 C496 1.501 . S
C498 C499 1.384 . S
C498 C503 1.408 1_455 S
C499 H489 0.930 . S
C499 C498 1.384 . S
C499 C500 1.389 . S
C500 C499 1.389 . S
C500 C501 1.405 . S
C501 H490 0.930 . S
C501 C500 1.405 . S
C501 C502 1.364 1_455 S
C502 C501 1.364 1_655 S
C502 C503 1.400 . S
C503 H491 0.931 . S
C503 C498 1.408 1_655 S
C503 C502 1.400 . S
H504 C510 0.930 . S
H505 C513 0.931 . S
H506 C515 0.931 . S
H507 C517 0.930 . S
H508 C519 0.930 . S
H509 C521 0.931 . S
C510 H504 0.930 . S
C510 C511 1.380 . S
C510 C512 1.394 . S
C511 C510 1.380 . S
C511 C515 1.382 . S
C512 C510 1.394 . S
C512 C513 1.400 . S
C513 H505 0.931 . S
C513 C512 1.400 . S
C513 C514 1.375 . S
C514 C513 1.375 . S
C514 C515 1.415 . S
C514 C516 1.501 . S
C515 H506 0.931 . S
C515 C511 1.382 . S
C515 C514 1.415 . S
C516 C514 1.501 . S
C516 C517 1.384 . S
C516 C521 1.408 . S
C517 H507 0.930 . S
C517 C516 1.384 . S
C517 C518 1.389 . S
C518 C517 1.389 . S
C518 C519 1.405 . S
C519 H508 0.930 . S
C519 C518 1.405 . S
C519 C520 1.364 . S
C520 C519 1.364 . S
C520 C521 1.400 . S
C521 H509 0.931 . S
C521 C516 1.408 . S
C521 C520 1.400 . S
H522 C528 0.930 . S
H523 C531 0.931 . S
H524 C533 0.931 . S
H525 C535 0.930 . S
H526 C537 0.930 . S
H527 C539 0.931 . S
C528 H522 0.930 . S
C528 C529 1.380 . S
C528 C530 1.394 . S
C529 C528 1.380 . S
C529 C533 1.382 . S
C530 C528 1.394 . S
C530 C531 1.400 . S
C531 H523 0.931 . S
C531 C530 1.400 . S
C531 C532 1.375 . S
C532 C531 1.375 . S
C532 C533 1.415 . S
C532 C534 1.501 . S
C533 H524 0.931 . S
C533 C529 1.382 . S
C533 C532 1.415 . S
C534 C532 1.501 . S
C534 C535 1.384 . S
C534 C539 1.408 . S
C535 H525 0.930 . S
C535 C534 1.384 . S
C535 C536 1.389 . S
C536 C535 1.389 . S
C536 C537 1.405 . S
C537 H526 0.930 . S
C537 C536 1.405 . S
C537 C538 1.364 . S
C538 C537 1.364 . S
C538 C539 1.400 . S
C539 H527 0.931 . S
C539 C534 1.408 . S
C539 C538 1.400 . S
H540 C546 0.930 . S
H541 C549 0.931 . S
H542 C551 0.931 . S
H543 C553 0.930 . S
H544 C555 0.930 . S
H545 C557 0.931 . S
C546 H540 0.930 . S
C546 C547 1.380 . S
C546 C548 1.394 . S
C547 C546 1.380 . S
C547 C551 1.382 . S
C548 C546 1.394 . S
C548 C549 1.400 . S
C549 H541 0.931 . S
C549 C548 1.400 . S
C549 C550 1.375 . S
C550 C549 1.375 . S
C550 C551 1.415 . S
C550 C552 1.501 . S
C551 H542 0.931 . S
C551 C547 1.382 . S
C551 C550 1.415 . S
C552 C550 1.501 . S
C552 C553 1.384 . S
C552 C557 1.408 . S
C553 H543 0.930 . S
C553 C552 1.384 . S
C553 C554 1.389 . S
C554 C553 1.389 . S
C554 C555 1.405 . S
C555 H544 0.930 . S
C555 C554 1.405 . S
C555 C556 1.364 . S
C556 C555 1.364 . S
C556 C557 1.400 . S
C557 H545 0.931 . S
C557 C552 1.408 . S
C557 C556 1.400 . S
H558 C564 0.930 . S
H559 C567 0.931 . S
H560 C569 0.931 . S
H561 C571 0.930 . S
H562 C573 0.930 . S
H563 C575 0.931 . S
C564 H558 0.930 . S
C564 C565 1.380 . S
C564 C566 1.394 . S
C565 C564 1.380 . S
C565 C569 1.382 . S
C566 C564 1.394 . S
C566 C567 1.400 . S
C567 H559 0.931 . S
C567 C566 1.400 . S
C567 C568 1.375 . S
C568 C567 1.375 . S
C568 C569 1.415 . S
C568 C570 1.501 . S
C569 H560 0.931 . S
C569 C565 1.382 . S
C569 C568 1.415 . S
C570 C568 1.501 . S
C570 C571 1.384 . S
C570 C575 1.408 . S
C571 H561 0.930 . S
C571 C570 1.384 . S
C571 C572 1.389 . S
C572 C571 1.389 . S
C572 C573 1.405 . S
C573 H562 0.930 . S
C573 C572 1.405 . S
C573 C574 1.364 . S
C574 C573 1.364 . S
C574 C575 1.400 . S
C575 H563 0.931 . S
C575 C570 1.408 . S
C575 C574 1.400 . S
C576 C577 1.387 . S
C576 H580 0.950 . S
C576 C585 1.390 . S
C577 C576 1.387 . S
C577 C579 1.387 1_655 S
H578 C585 0.950 . S
C579 C577 1.387 1_455 S
C579 C581 1.390 . S
C579 H583 0.950 . S
H580 C576 0.950 . S
C581 C579 1.390 . S
C581 C582 1.387 1_455 S
C581 H584 0.950 . S
C582 C581 1.387 1_655 S
C582 C585 1.387 . S
H583 C579 0.950 . S
H584 C581 0.950 . S
C585 C576 1.390 . S
C585 H578 0.950 . S
C585 C582 1.387 . S
C586 C587 1.387 . S
C586 H590 0.950 . S
C586 C595 1.390 . S
C587 C586 1.387 . S
C587 C589 1.387 . S
H588 C595 0.950 . S
C589 C587 1.387 . S
C589 C591 1.390 . S
C589 H593 0.950 . S
H590 C586 0.950 . S
C591 C589 1.390 . S
C591 C592 1.387 . S
C591 H594 0.950 . S
C592 C591 1.387 . S
C592 C595 1.387 . S
H593 C589 0.950 . S
H594 C591 0.950 . S
C595 C586 1.390 . S
C595 H588 0.950 . S
C595 C592 1.387 . S
C596 C597 1.387 1_565 S
C596 H600 0.950 . S
C596 C605 1.390 . S
C597 C596 1.387 1_545 S
C597 C599 1.387 . S
H598 C605 0.950 . S
C599 C597 1.387 . S
C599 C601 1.390 . S
C599 H603 0.950 . S
H600 C596 0.950 . S
C601 C599 1.390 . S
C601 C602 1.387 . S
C601 H604 0.950 . S
C602 C601 1.387 . S
C602 C605 1.387 1_545 S
H603 C599 0.950 . S
H604 C601 0.950 . S
C605 C596 1.390 . S
C605 H598 0.950 . S
C605 C602 1.387 1_565 S
C606 C607 1.387 1_545 S
C606 H610 0.950 . S
C606 C615 1.390 . S
C607 C606 1.387 1_565 S
C607 C609 1.387 . S
H608 C615 0.950 . S
C609 C607 1.387 . S
C609 C611 1.390 . S
C609 H613 0.950 . S
H610 C606 0.950 . S
C611 C609 1.390 . S
C611 C612 1.387 . S
C611 H614 0.950 . S
C612 C611 1.387 . S
C612 C615 1.387 1_565 S
H613 C609 0.950 . S
H614 C611 0.950 . S
C615 C606 1.390 . S
C615 H608 0.950 . S
C615 C612 1.387 1_545 S
C616 C617 1.387 . S
C616 H620 0.950 . S
C616 C625 1.390 . S
C617 C616 1.387 . S
C617 C619 1.387 1_455 S
H618 C625 0.950 . S
C619 C617 1.387 1_655 S
C619 C621 1.390 . S
C619 H623 0.950 . S
H620 C616 0.950 . S
C621 C619 1.390 . S
C621 C622 1.387 1_655 S
C621 H624 0.950 . S
C622 C621 1.387 1_455 S
C622 C625 1.387 . S
H623 C619 0.950 . S
H624 C621 0.950 . S
C625 C616 1.390 . S
C625 H618 0.950 . S
C625 C622 1.387 . S
C626 C627 1.387 . S
C626 H630 0.950 . S
C626 C635 1.390 . S
C627 C626 1.387 . S
C627 C629 1.387 . S
H628 C635 0.950 . S
C629 C627 1.387 . S
C629 C631 1.390 . S
C629 H633 0.950 . S
H630 C626 0.950 . S
C631 C629 1.390 . S
C631 C632 1.387 . S
C631 H634 0.950 . S
C632 C631 1.387 . S
C632 C635 1.387 . S
H633 C629 0.950 . S
H634 C631 0.950 . S
C635 C626 1.390 . S
C635 H628 0.950 . S
C635 C632 1.387 . S
C636 C637 1.387 . S
C636 H640 0.950 . S
C636 C645 1.390 . S
C637 C636 1.387 . S
C637 C639 1.368 . S
H638 C645 0.950 . S
C639 C637 1.368 . S
C639 C641 1.414 1_455 S
C639 H643 0.951 . S
H640 C636 0.950 . S
C641 C639 1.414 1_655 S
C641 C642 1.388 . S
C641 H644 0.943 . S
C642 C641 1.388 . S
C642 C645 1.391 1_655 S
H643 C639 0.951 . S
H644 C641 0.943 . S
C645 C636 1.390 . S
C645 H638 0.950 . S
C645 C642 1.391 1_455 S
C646 C647 1.387 . S
C646 H650 0.950 . S
C646 C655 1.390 . S
C647 C646 1.387 . S
C647 C649 1.387 . S
H648 C655 0.950 . S
C649 C647 1.387 . S
C649 C651 1.390 . S
C649 H653 0.950 . S
H650 C646 0.950 . S
C651 C649 1.390 . S
C651 C652 1.387 . S
C651 H654 0.950 . S
C652 C651 1.387 . S
C652 C655 1.387 . S
H653 C649 0.950 . S
H654 C651 0.950 . S
C655 C646 1.390 . S
C655 H648 0.950 . S
C655 C652 1.387 . S
C656 C657 1.387 . S
C656 H660 0.950 . S
C656 C665 1.390 . S
C657 C656 1.387 . S
C657 C659 1.387 1_565 S
H658 C665 0.950 . S
C659 C657 1.387 1_545 S
C659 C661 1.390 . S
C659 H663 0.950 . S
H660 C656 0.950 . S
C661 C659 1.390 . S
C661 C662 1.393 . S
C661 H664 0.950 . S
C662 C661 1.393 . S
C662 C665 1.376 1_545 S
H663 C659 0.950 . S
H664 C661 0.950 . S
C665 C656 1.390 . S
C665 H658 0.950 . S
C665 C662 1.376 1_565 S
C666 C667 1.387 . S
C666 H670 0.950 . S
C666 C675 1.390 . S
C667 C666 1.387 . S
C667 C669 1.387 1_545 S
H668 C675 0.950 . S
C669 C667 1.387 1_565 S
C669 C671 1.390 . S
C669 H673 0.950 . S
H670 C666 0.950 . S
C671 C669 1.390 . S
C671 C672 1.387 . S
C671 H674 0.950 . S
C672 C671 1.387 . S
C672 C675 1.388 1_565 S
H673 C669 0.950 . S
H674 C671 0.950 . S
C675 C666 1.390 . S
C675 H668 0.950 . S
C675 C672 1.388 1_545 S
C676 C677 1.387 1_455 S
C676 H680 0.950 . S
C676 C685 1.390 . S
C677 C676 1.387 1_655 S
C677 C679 1.387 . S
H678 C685 0.950 . S
C679 C677 1.387 . S
C679 C681 1.390 . S
C679 H683 0.950 . S
H680 C676 0.950 . S
C681 C679 1.390 . S
C681 C682 1.376 1_655 S
C681 H684 0.950 . S
C682 C681 1.376 1_455 S
C682 C685 1.394 . S
H683 C679 0.950 . S
H684 C681 0.950 . S
C685 C676 1.390 . S
C685 H678 0.950 . S
C685 C682 1.394 . S
C686 C687 1.387 . S
C686 H690 0.950 . S
C686 C695 1.390 . S
C687 C686 1.387 . S
C687 C689 1.387 . S
H688 C695 0.950 . S
C689 C687 1.387 . S
C689 C691 1.390 . S
C689 H693 0.950 . S
H690 C686 0.950 . S
C691 C689 1.390 . S
C691 C692 1.387 . S
C691 H694 0.950 . S
C692 C691 1.387 . S
C692 C695 1.387 . S
H693 C689 0.950 . S
H694 C691 0.950 . S
C695 C686 1.390 . S
C695 H688 0.950 . S
C695 C692 1.387 . S
C696 C697 1.387 . S
C696 H700 0.950 . S
C696 C705 1.390 . S
C697 C696 1.387 . S
C697 C699 1.387 . S
H698 C705 0.950 . S
C699 C697 1.387 . S
C699 C701 1.390 . S
C699 H703 0.950 . S
H700 C696 0.950 . S
C701 C699 1.390 . S
C701 C702 1.387 . S
C701 H704 0.950 . S
C702 C701 1.387 . S
C702 C705 1.387 . S
H703 C699 0.950 . S
H704 C701 0.950 . S
C705 C696 1.390 . S
C705 H698 0.950 . S
C705 C702 1.387 . S
C706 C707 1.387 . S
C706 H710 0.950 . S
C706 C715 1.390 . S
C707 C706 1.387 . S
C707 C709 1.387 . S
H708 C715 0.950 . S
C709 C707 1.387 . S
C709 C711 1.390 . S
C709 H713 0.950 . S
H710 C706 0.950 . S
C711 C709 1.390 . S
C711 C712 1.387 . S
C711 H714 0.950 . S
C712 C711 1.387 . S
C712 C715 1.387 . S
H713 C709 0.950 . S
H714 C711 0.950 . S
C715 C706 1.390 . S
C715 H708 0.950 . S
C715 C712 1.387 . S
C716 C717 1.387 . S
C716 H720 0.950 . S
C716 C725 1.390 . S
C717 C716 1.387 . S
C717 C719 1.387 . S
H718 C725 0.950 . S
C719 C717 1.387 . S
C719 C721 1.390 . S
C719 H723 0.950 . S
H720 C716 0.950 . S
C721 C719 1.390 . S
C721 C722 1.387 . S
C721 H724 0.950 . S
C722 C721 1.387 . S
C722 C725 1.387 . S
H723 C719 0.950 . S
H724 C721 0.950 . S
C725 C716 1.390 . S
C725 H718 0.950 . S
C725 C722 1.387 . S
C726 C727 1.387 . S
C726 H730 0.950 . S
C726 C735 1.390 . S
C727 C726 1.387 . S
C727 C729 1.387 . S
H728 C735 0.950 . S
C729 C727 1.387 . S
C729 C731 1.390 . S
C729 H733 0.950 . S
H730 C726 0.950 . S
C731 C729 1.390 . S
C731 C732 1.387 . S
C731 H734 0.950 . S
C732 C731 1.387 . S
C732 C735 1.387 . S
H733 C729 0.950 . S
H734 C731 0.950 . S
C735 C726 1.390 . S
C735 H728 0.950 . S
C735 C732 1.387 . S
C736 C737 1.387 . S
C736 H740 0.950 . S
C736 C745 1.390 . S
C737 C736 1.387 . S
C737 C739 1.387 . S
H738 C745 0.950 . S
C739 C737 1.387 . S
C739 C741 1.390 . S
C739 H743 0.950 . S
H740 C736 0.950 . S
C741 C739 1.390 . S
C741 C742 1.387 . S
C741 H744 0.950 . S
C742 C741 1.387 . S
C742 C745 1.387 . S
H743 C739 0.950 . S
H744 C741 0.950 . S
C745 C736 1.390 . S
C745 H738 0.950 . S
C745 C742 1.387 . S
C746 C747 1.387 . S
C746 H750 0.950 . S
C746 C755 1.390 . S
C747 C746 1.387 . S
C747 C749 1.387 . S
H748 C755 0.950 . S
C749 C747 1.387 . S
C749 C751 1.390 . S
C749 H753 0.950 . S
H750 C746 0.950 . S
C751 C749 1.390 . S
C751 C752 1.387 . S
C751 H754 0.950 . S
C752 C751 1.387 . S
C752 C755 1.387 . S
H753 C749 0.950 . S
H754 C751 0.950 . S
C755 C746 1.390 . S
C755 H748 0.950 . S
C755 C752 1.387 . S
C756 C757 1.387 . S
C756 H760 0.950 . S
C756 C765 1.390 . S
C757 C756 1.387 . S
C757 C759 1.387 . S
H758 C765 0.950 . S
C759 C757 1.387 . S
C759 C761 1.390 . S
C759 H763 0.950 . S
H760 C756 0.950 . S
C761 C759 1.390 . S
C761 C762 1.387 . S
C761 H764 0.950 . S
C762 C761 1.387 . S
C762 C765 1.387 . S
H763 C759 0.950 . S
H764 C761 0.950 . S
C765 C756 1.390 . S
C765 H758 0.950 . S
C765 C762 1.387 . S
C766 C767 1.387 . S
C766 H770 0.950 . S
C766 C775 1.390 . S
C767 C766 1.387 . S
C767 C769 1.387 . S
H768 C775 0.950 . S
C769 C767 1.387 . S
C769 C771 1.390 . S
C769 H773 0.950 . S
H770 C766 0.950 . S
C771 C769 1.390 . S
C771 C772 1.387 . S
C771 H774 0.950 . S
C772 C771 1.387 . S
C772 C775 1.387 . S
H773 C769 0.950 . S
H774 C771 0.950 . S
C775 C766 1.390 . S
C775 H768 0.950 . S
C775 C772 1.387 . S
C776 C777 1.387 . S
C776 H780 0.950 . S
C776 C785 1.390 . S
C777 C776 1.387 . S
C777 C779 1.387 . S
H778 C785 0.950 . S
C779 C777 1.387 . S
C779 C781 1.390 . S
C779 H783 0.950 . S
H780 C776 0.950 . S
C781 C779 1.390 . S
C781 C782 1.387 . S
C781 H784 0.950 . S
C782 C781 1.387 . S
C782 C785 1.387 . S
H783 C779 0.950 . S
H784 C781 0.950 . S
C785 C776 1.390 . S
C785 H778 0.950 . S
C785 C782 1.387 . S
C786 C787 1.387 . S
C786 H790 0.950 . S
C786 C795 1.390 . S
C787 C786 1.387 . S
C787 C789 1.387 . S
H788 C795 0.950 . S
C789 C787 1.387 . S
C789 C791 1.390 . S
C789 H793 0.950 . S
H790 C786 0.950 . S
C791 C789 1.390 . S
C791 C792 1.387 . S
C791 H794 0.950 . S
C792 C791 1.387 . S
C792 C795 1.387 . S
H793 C789 0.950 . S
H794 C791 0.950 . S
C795 C786 1.390 . S
C795 H788 0.950 . S
C795 C792 1.387 . S
C796 C797 1.387 . S
C796 H800 0.950 . S
C796 C805 1.390 . S
C797 C796 1.387 . S
C797 C799 1.387 . S
H798 C805 0.950 . S
C799 C797 1.387 . S
C799 C801 1.390 . S
C799 H803 0.950 . S
H800 C796 0.950 . S
C801 C799 1.390 . S
C801 C802 1.387 . S
C801 H804 0.950 . S
C802 C801 1.387 . S
C802 C805 1.387 . S
H803 C799 0.950 . S
H804 C801 0.950 . S
C805 C796 1.390 . S
C805 H798 0.950 . S
C805 C802 1.387 . S
C806 C807 1.387 . S
C806 H810 0.950 . S
C806 C815 1.390 . S
C807 C806 1.387 . S
C807 C809 1.387 . S
H808 C815 0.950 . S
C809 C807 1.387 . S
C809 C811 1.390 . S
C809 H813 0.950 . S
H810 C806 0.950 . S
C811 C809 1.390 . S
C811 C812 1.387 . S
C811 H814 0.950 . S
C812 C811 1.387 . S
C812 C815 1.387 . S
H813 C809 0.950 . S
H814 C811 0.950 . S
C815 C806 1.390 . S
C815 H808 0.950 . S
C815 C812 1.387 . S
C816 C817 1.387 . S
C816 H820 0.950 . S
C816 C825 1.390 . S
C817 C816 1.387 . S
C817 C819 1.387 . S
H818 C825 0.950 . S
C819 C817 1.387 . S
C819 C821 1.390 . S
C819 H823 0.950 . S
H820 C816 0.950 . S
C821 C819 1.390 . S
C821 C822 1.387 . S
C821 H824 0.950 . S
C822 C821 1.387 . S
C822 C825 1.387 . S
H823 C819 0.950 . S
H824 C821 0.950 . S
C825 C816 1.390 . S
C825 H818 0.950 . S
C825 C822 1.387 . S
C826 C827 1.387 . S
C826 H830 0.950 . S
C826 C835 1.390 . S
C827 C826 1.387 . S
C827 C829 1.387 . S
H828 C835 0.950 . S
C829 C827 1.387 . S
C829 C831 1.390 . S
C829 H833 0.950 . S
H830 C826 0.950 . S
C831 C829 1.390 . S
C831 C832 1.387 . S
C831 H834 0.950 . S
C832 C831 1.387 . S
C832 C835 1.387 . S
H833 C829 0.950 . S
H834 C831 0.950 . S
C835 C826 1.390 . S
C835 H828 0.950 . S
C835 C832 1.387 . S
C836 C837 1.387 . S
C836 H840 0.950 . S
C836 C845 1.390 . S
C837 C836 1.387 . S
C837 C839 1.387 . S
H838 C845 0.950 . S
C839 C837 1.387 . S
C839 C841 1.390 . S
C839 H843 0.950 . S
H840 C836 0.950 . S
C841 C839 1.390 . S
C841 C842 1.387 . S
C841 H844 0.950 . S
C842 C841 1.387 . S
C842 C845 1.387 . S
H843 C839 0.950 . S
H844 C841 0.950 . S
C845 C836 1.390 . S
C845 H838 0.950 . S
C845 C842 1.387 . S
C846 C847 1.387 . S
C846 H850 0.950 . S
C846 C855 1.390 . S
C847 C846 1.387 . S
C847 C849 1.387 . S
H848 C855 0.950 . S
C849 C847 1.387 . S
C849 C851 1.390 . S
C849 H853 0.950 . S
H850 C846 0.950 . S
C851 C849 1.390 . S
C851 C852 1.387 . S
C851 H854 0.950 . S
C852 C851 1.387 . S
C852 C855 1.387 . S
H853 C849 0.950 . S
H854 C851 0.950 . S
C855 C846 1.390 . S
C855 H848 0.950 . S
C855 C852 1.387 . S
C856 C857 1.387 . S
C856 H860 0.950 . S
C856 C865 1.390 . S
C857 C856 1.387 . S
C857 C859 1.387 . S
H858 C865 0.950 . S
C859 C857 1.387 . S
C859 C861 1.390 . S
C859 H863 0.950 . S
H860 C856 0.950 . S
C861 C859 1.390 . S
C861 C862 1.387 . S
C861 H864 0.950 . S
C862 C861 1.387 . S
C862 C865 1.387 . S
H863 C859 0.950 . S
H864 C861 0.950 . S
C865 C856 1.390 . S
C865 H858 0.950 . S
C865 C862 1.387 . S
C866 C867 1.387 . S
C866 H870 0.950 . S
C866 C875 1.390 . S
C867 C866 1.387 . S
C867 C869 1.387 . S
H868 C875 0.950 . S
C869 C867 1.387 . S
C869 C871 1.390 . S
C869 H873 0.950 . S
H870 C866 0.950 . S
C871 C869 1.390 . S
C871 C872 1.387 . S
C871 H874 0.950 . S
C872 C871 1.387 . S
C872 C875 1.387 . S
H873 C869 0.950 . S
H874 C871 0.950 . S
C875 C866 1.390 . S
C875 H868 0.950 . S
C875 C872 1.387 . S
C876 C877 1.387 . S
C876 H880 0.950 . S
C876 C885 1.390 . S
C877 C876 1.387 . S
C877 C879 1.387 . S
H878 C885 0.950 . S
C879 C877 1.387 . S
C879 C881 1.390 . S
C879 H883 0.950 . S
H880 C876 0.950 . S
C881 C879 1.390 . S
C881 C882 1.387 . S
C881 H884 0.950 . S
C882 C881 1.387 . S
C882 C885 1.387 . S
H883 C879 0.950 . S
H884 C881 0.950 . S
C885 C876 1.390 . S
C885 H878 0.950 . S
C885 C882 1.387 . S
C886 C887 1.387 . S
C886 H890 0.950 . S
C886 C895 1.390 . S
C887 C886 1.387 . S
C887 C889 1.387 . S
H888 C895 0.950 . S
C889 C887 1.387 . S
C889 C891 1.390 . S
C889 H893 0.950 . S
H890 C886 0.950 . S
C891 C889 1.390 . S
C891 C892 1.387 . S
C891 H894 0.950 . S
C892 C891 1.387 . S
C892 C895 1.387 . S
H893 C889 0.950 . S
H894 C891 0.950 . S
C895 C886 1.390 . S
C895 H888 0.950 . S
C895 C892 1.387 . S
C896 C897 1.387 . S
C896 H900 0.950 . S
C896 C905 1.390 . S
C897 C896 1.387 . S
C897 C899 1.387 . S
H898 C905 0.950 . S
C899 C897 1.387 . S
C899 C901 1.390 . S
C899 H903 0.950 . S
H900 C896 0.950 . S
C901 C899 1.390 . S
C901 C902 1.387 . S
C901 H904 0.950 . S
C902 C901 1.387 . S
C902 C905 1.387 . S
H903 C899 0.950 . S
H904 C901 0.950 . S
C905 C896 1.390 . S
C905 H898 0.950 . S
C905 C902 1.387 . S
C906 C907 1.387 . S
C906 H910 0.950 . S
C906 C915 1.390 . S
C907 C906 1.387 . S
C907 C909 1.387 . S
H908 C915 0.950 . S
C909 C907 1.387 . S
C909 C911 1.390 . S
C909 H913 0.950 . S
H910 C906 0.950 . S
C911 C909 1.390 . S
C911 C912 1.387 . S
C911 H914 0.950 . S
C912 C911 1.387 . S
C912 C915 1.387 . S
H913 C909 0.950 . S
H914 C911 0.950 . S
C915 C906 1.390 . S
C915 H908 0.950 . S
C915 C912 1.387 . S
C916 C917 1.387 . S
C916 H920 0.950 . S
C916 C925 1.390 . S
C917 C916 1.387 . S
C917 C919 1.387 . S
H918 C925 0.950 . S
C919 C917 1.387 . S
C919 C921 1.390 . S
C919 H923 0.950 . S
H920 C916 0.950 . S
C921 C919 1.390 . S
C921 C922 1.387 . S
C921 H924 0.950 . S
C922 C921 1.387 . S
C922 C925 1.387 . S
H923 C919 0.950 . S
H924 C921 0.950 . S
C925 C916 1.390 . S
C925 H918 0.950 . S
C925 C922 1.387 . S
C926 C927 1.387 . S
C926 H930 0.950 . S
C926 C935 1.390 . S
C927 C926 1.387 . S
C927 C929 1.387 . S
H928 C935 0.950 . S
C929 C927 1.387 . S
C929 C931 1.390 . S
C929 H933 0.950 . S
H930 C926 0.950 . S
C931 C929 1.390 . S
C931 C932 1.387 . S
C931 H934 0.950 . S
C932 C931 1.387 . S
C932 C935 1.387 . S
H933 C929 0.950 . S
H934 C931 0.950 . S
C935 C926 1.390 . S
C935 H928 0.950 . S
C935 C932 1.387 . S
C936 C937 1.387 . S
C936 H940 0.950 . S
C936 C945 1.390 . S
C937 C936 1.387 . S
C937 C939 1.387 . S
H938 C945 0.950 . S
C939 C937 1.387 . S
C939 C941 1.390 . S
C939 H943 0.950 . S
H940 C936 0.950 . S
C941 C939 1.390 . S
C941 C942 1.387 . S
C941 H944 0.950 . S
C942 C941 1.387 . S
C942 C945 1.387 . S
H943 C939 0.950 . S
H944 C941 0.950 . S
C945 C936 1.390 . S
C945 H938 0.950 . S
C945 C942 1.387 . S
C946 C947 1.387 . S
C946 H950 0.950 . S
C946 C955 1.390 . S
C947 C946 1.387 . S
C947 C949 1.387 . S
H948 C955 0.950 . S
C949 C947 1.387 . S
C949 C951 1.390 . S
C949 H953 0.950 . S
H950 C946 0.950 . S
C951 C949 1.390 . S
C951 C952 1.387 . S
C951 H954 0.950 . S
C952 C951 1.387 . S
C952 C955 1.387 . S
H953 C949 0.950 . S
H954 C951 0.950 . S
C955 C946 1.390 . S
C955 H948 0.950 . S
C955 C952 1.387 . S
C956 C957 1.387 . S
C956 H960 0.950 . S
C956 C965 1.390 . S
C957 C956 1.387 . S
C957 C959 1.387 . S
H958 C965 0.950 . S
C959 C957 1.387 . S
C959 C961 1.390 . S
C959 H963 0.950 . S
H960 C956 0.950 . S
C961 C959 1.390 . S
C961 C962 1.387 . S
C961 H964 0.950 . S
C962 C961 1.387 . S
C962 C965 1.387 . S
H963 C959 0.950 . S
H964 C961 0.950 . S
C965 C956 1.390 . S
C965 H958 0.950 . S
C965 C962 1.387 . S
C966 C967 1.387 . S
C966 H970 0.950 . S
C966 C975 1.390 . S
C967 C966 1.387 . S
C967 C969 1.387 . S
H968 C975 0.950 . S
C969 C967 1.387 . S
C969 C971 1.390 . S
C969 H973 0.950 1_556 S
H970 C966 0.950 . S
C971 C969 1.390 . S
C971 C972 1.387 . S
C971 H974 0.950 . S
C972 C971 1.387 . S
C972 C975 1.387 . S
H973 C969 0.950 1_554 S
H974 C971 0.950 . S
C975 C966 1.390 . S
C975 H968 0.950 . S
C975 C972 1.387 . S
C976 C977 1.387 . S
C976 H980 0.950 . S
C976 C985 1.390 . S
C977 C976 1.387 . S
C977 C979 1.387 . S
H978 C985 0.950 . S
C979 C977 1.387 . S
C979 C981 1.390 . S
C979 H983 0.950 1_556 S
H980 C976 0.950 . S
C981 C979 1.390 . S
C981 C982 1.387 . S
C981 H984 0.950 . S
C982 C981 1.387 . S
C982 C985 1.387 . S
H983 C979 0.950 1_554 S
H984 C981 0.950 . S
C985 C976 1.390 . S
C985 H978 0.950 . S
C985 C982 1.387 . S
C986 C987 1.387 . S
C986 H990 0.950 . S
C986 C995 1.390 . S
C987 C986 1.387 . S
C987 C989 1.387 . S
H988 C995 0.950 . S
C989 C987 1.387 . S
C989 C991 1.390 . S
C989 H993 0.950 . S
H990 C986 0.950 . S
C991 C989 1.390 . S
C991 C992 1.387 . S
C991 H994 0.950 . S
C992 C991 1.387 . S
C992 C995 1.387 . S
H993 C989 0.950 . S
H994 C991 0.950 . S
C995 C986 1.390 . S
C995 H988 0.950 . S
C995 C992 1.387 . S
C996 C997 1.387 . S
C996 H1000 0.950 . S
C996 C1005 1.390 . S
C997 C996 1.387 . S
C997 C999 1.387 . S
H998 C1005 0.950 . S
C999 C997 1.387 . S
C999 C1001 1.390 . S
C999 H1003 0.952 1_556 S
H1000 C996 0.950 . S
C1001 C999 1.390 . S
C1001 C1002 1.387 . S
C1001 H1004 0.950 . S
C1002 C1001 1.387 . S
C1002 C1005 1.387 . S
H1003 C999 0.952 1_554 S
H1004 C1001 0.950 . S
C1005 C996 1.390 . S
C1005 H998 0.950 . S
C1005 C1002 1.387 . S
C1006 C1007 1.387 . S
C1006 H1010 0.933 1_556 S
C1006 C1015 1.390 . S
C1007 C1006 1.387 . S
C1007 C1009 1.387 . S
H1008 C1015 0.950 . S
C1009 C1007 1.387 . S
C1009 C1011 1.390 . S
C1009 H1013 0.950 . S
H1010 C1006 0.933 1_554 S
C1011 C1009 1.390 . S
C1011 C1012 1.387 . S
C1011 H1014 0.950 . S
C1012 C1011 1.387 . S
C1012 C1015 1.387 . S
H1013 C1009 0.950 . S
H1014 C1011 0.950 . S
C1015 C1006 1.390 . S
C1015 H1008 0.950 . S
C1015 C1012 1.387 . S
C1016 C1017 1.387 . S
C1016 H1020 0.950 . S
C1016 C1025 1.390 . S
C1017 C1016 1.387 . S
C1017 C1019 1.387 . S
H1018 C1025 0.950 . S
C1019 C1017 1.387 . S
C1019 C1021 1.390 . S
C1019 H1023 0.950 . S
H1020 C1016 0.950 . S
C1021 C1019 1.390 . S
C1021 C1022 1.387 . S
C1021 H1024 0.950 . S
C1022 C1021 1.387 . S
C1022 C1025 1.387 . S
H1023 C1019 0.950 . S
H1024 C1021 0.950 . S
C1025 C1016 1.390 . S
C1025 H1018 0.950 . S
C1025 C1022 1.387 . S
C1026 C1027 1.387 . S
C1026 H1030 0.950 . S
C1026 C1035 1.390 . S
C1027 C1026 1.387 . S
C1027 C1029 1.387 . S
H1028 C1035 0.950 . S
C1029 C1027 1.387 . S
C1029 C1031 1.390 . S
C1029 H1033 0.950 . S
H1030 C1026 0.950 . S
C1031 C1029 1.390 . S
C1031 C1032 1.387 . S
C1031 H1034 0.950 . S
C1032 C1031 1.387 . S
C1032 C1035 1.387 . S
H1033 C1029 0.950 . S
H1034 C1031 0.950 . S
C1035 C1026 1.390 . S
C1035 H1028 0.950 . S
C1035 C1032 1.387 . S
C1036 C1037 1.387 . S
C1036 H1040 0.950 . S
C1036 C1045 1.390 . S
C1037 C1036 1.387 . S
C1037 C1039 1.387 . S
H1038 C1045 0.950 . S
C1039 C1037 1.387 . S
C1039 C1041 1.390 . S
C1039 H1043 0.950 . S
H1040 C1036 0.950 . S
C1041 C1039 1.390 . S
C1041 C1042 1.387 . S
C1041 H1044 0.950 . S
C1042 C1041 1.387 . S
C1042 C1045 1.387 . S
H1043 C1039 0.950 . S
H1044 C1041 0.950 . S
C1045 C1036 1.390 . S
C1045 H1038 0.950 . S
C1045 C1042 1.387 . S
C1046 C1047 1.387 . S
C1046 H1050 0.950 . S
C1046 C1055 1.390 . S
C1047 C1046 1.387 . S
C1047 C1049 1.387 . S
H1048 C1055 0.950 . S
C1049 C1047 1.387 . S
C1049 C1051 1.390 . S
C1049 H1053 0.950 . S
H1050 C1046 0.950 . S
C1051 C1049 1.390 . S
C1051 C1052 1.387 . S
C1051 H1054 0.950 . S
C1052 C1051 1.387 . S
C1052 C1055 1.387 . S
H1053 C1049 0.950 . S
H1054 C1051 0.950 . S
C1055 C1046 1.390 . S
C1055 H1048 0.950 . S
C1055 C1052 1.387 . S
C1056 C1057 1.387 . S
C1056 H1060 0.950 . S
C1056 C1065 1.390 . S
C1057 C1056 1.387 . S
C1057 C1059 1.387 . S
H1058 C1065 0.950 . S
C1059 C1057 1.387 . S
C1059 C1061 1.390 . S
C1059 H1063 0.950 . S
H1060 C1056 0.950 . S
C1061 C1059 1.390 . S
C1061 C1062 1.387 . S
C1061 H1064 0.950 . S
C1062 C1061 1.387 . S
C1062 C1065 1.387 . S
H1063 C1059 0.950 . S
H1064 C1061 0.950 . S
C1065 C1056 1.390 . S
C1065 H1058 0.950 . S
C1065 C1062 1.387 . S
C1066 C1067 1.387 . S
C1066 H1070 0.950 . S
C1066 C1075 1.390 . S
C1067 C1066 1.387 . S
C1067 C1069 1.387 . S
H1068 C1075 0.950 . S
C1069 C1067 1.387 . S
C1069 C1071 1.390 . S
C1069 H1073 0.950 . S
H1070 C1066 0.950 . S
C1071 C1069 1.390 . S
C1071 C1072 1.387 . S
C1071 H1074 0.950 . S
C1072 C1071 1.387 . S
C1072 C1075 1.387 . S
H1073 C1069 0.950 . S
H1074 C1071 0.950 . S
C1075 C1066 1.390 . S
C1075 H1068 0.950 . S
C1075 C1072 1.387 . S
C1076 C1077 1.387 . S
C1076 H1080 0.950 . S
C1076 C1085 1.390 . S
C1077 C1076 1.387 . S
C1077 C1079 1.387 . S
H1078 C1085 0.950 . S
C1079 C1077 1.387 . S
C1079 C1081 1.390 . S
C1079 H1083 0.950 . S
H1080 C1076 0.950 . S
C1081 C1079 1.390 . S
C1081 C1082 1.387 . S
C1081 H1084 0.950 . S
C1082 C1081 1.387 . S
C1082 C1085 1.387 . S
H1083 C1079 0.950 . S
H1084 C1081 0.950 . S
C1085 C1076 1.390 . S
C1085 H1078 0.950 . S
C1085 C1082 1.387 . S
C1086 C1087 1.387 1_655 S
C1086 H1090 0.950 . S
C1086 C1095 1.390 . S
C1087 C1086 1.387 1_455 S
C1087 C1089 1.387 . S
H1088 C1095 0.950 . S
C1089 C1087 1.387 . S
C1089 C1091 1.390 . S
C1089 H1093 0.950 . S
H1090 C1086 0.950 . S
C1091 C1089 1.390 . S
C1091 C1092 1.387 . S
C1091 H1094 0.950 . S
C1092 C1091 1.387 . S
C1092 C1095 1.387 1_455 S
H1093 C1089 0.950 . S
H1094 C1091 0.950 . S
C1095 C1086 1.390 . S
C1095 H1088 0.950 . S
C1095 C1092 1.387 1_655 S
C1096 C1097 1.387 . S
C1096 H1100 0.950 . S
C1096 C1105 1.390 . S
C1097 C1096 1.387 . S
C1097 C1099 1.387 . S
H1098 C1105 0.950 . S
C1099 C1097 1.387 . S
C1099 C1101 1.390 . S
C1099 H1103 0.950 . S
H1100 C1096 0.950 . S
C1101 C1099 1.390 . S
C1101 C1102 1.387 . S
C1101 H1104 0.950 . S
C1102 C1101 1.387 . S
C1102 C1105 1.387 . S
H1103 C1099 0.950 . S
H1104 C1101 0.950 . S
C1105 C1096 1.390 . S
C1105 H1098 0.950 . S
C1105 C1102 1.387 . S
C1106 C1107 1.387 1_545 S
C1106 H1110 0.950 . S
C1106 C1115 1.390 . S
C1107 C1106 1.387 1_565 S
C1107 C1109 1.387 . S
H1108 C1115 0.950 . S
C1109 C1107 1.387 . S
C1109 C1111 1.390 . S
C1109 H1113 0.950 . S
H1110 C1106 0.950 . S
C1111 C1109 1.390 . S
C1111 C1112 1.387 . S
C1111 H1114 0.950 . S
C1112 C1111 1.387 . S
C1112 C1115 1.387 1_565 S
H1113 C1109 0.950 . S
H1114 C1111 0.950 . S
C1115 C1106 1.390 . S
C1115 H1108 0.950 . S
C1115 C1112 1.387 1_545 S
C1116 C1117 1.387 1_545 S
C1116 H1120 0.950 . S
C1116 C1125 1.390 . S
C1117 C1116 1.387 1_565 S
C1117 C1119 1.387 . S
H1118 C1125 0.950 . S
C1119 C1117 1.387 . S
C1119 C1121 1.390 . S
C1119 H1123 0.950 . S
H1120 C1116 0.950 . S
C1121 C1119 1.390 . S
C1121 C1122 1.387 . S
C1121 H1124 0.950 . S
C1122 C1121 1.387 . S
C1122 C1125 1.388 1_565 S
H1123 C1119 0.950 . S
H1124 C1121 0.950 . S
C1125 C1116 1.390 . S
C1125 H1118 0.950 . S
C1125 C1122 1.388 1_545 S
C1126 C1127 1.387 . S
C1126 H1130 0.950 . S
C1126 C1135 1.390 . S
C1127 C1126 1.387 . S
C1127 C1129 1.387 . S
H1128 C1135 0.950 . S
C1129 C1127 1.387 . S
C1129 C1131 1.409 1_455 S
C1129 H1133 0.972 . S
H1130 C1126 0.950 . S
C1131 C1129 1.409 1_655 S
C1131 C1132 1.372 . S
C1131 H1134 0.952 . S
C1132 C1131 1.372 . S
C1132 C1135 1.387 1_655 S
H1133 C1129 0.972 . S
H1134 C1131 0.952 . S
C1135 C1126 1.390 . S
C1135 H1128 0.950 . S
C1135 C1132 1.387 1_455 S
C1136 C1137 1.387 . S
C1136 H1140 0.950 . S
C1136 C1145 1.390 . S
C1137 C1136 1.387 . S
C1137 C1139 1.387 . S
H1138 C1145 0.950 . S
C1139 C1137 1.387 . S
C1139 C1141 1.390 . S
C1139 H1143 0.950 . S
H1140 C1136 0.950 . S
C1141 C1139 1.390 . S
C1141 C1142 1.387 . S
C1141 H1144 0.950 . S
C1142 C1141 1.387 . S
C1142 C1145 1.387 . S
H1143 C1139 0.950 . S
H1144 C1141 0.950 . S
C1145 C1136 1.390 . S
C1145 H1138 0.950 . S
C1145 C1142 1.387 . S
C1146 C1147 1.387 . S
C1146 H1150 0.950 . S
C1146 C1155 1.390 . S
C1147 C1146 1.387 . S
C1147 C1149 1.387 . S
H1148 C1155 0.950 . S
C1149 C1147 1.387 . S
C1149 C1151 1.390 . S
C1149 H1153 0.950 . S
H1150 C1146 0.950 . S
C1151 C1149 1.390 . S
C1151 C1152 1.387 . S
C1151 H1154 0.950 . S
C1152 C1151 1.387 . S
C1152 C1155 1.387 . S
H1153 C1149 0.950 . S
H1154 C1151 0.950 . S
C1155 C1146 1.390 . S
C1155 H1148 0.950 . S
C1155 C1152 1.387 . S
C1156 C1157 1.387 . S
C1156 H1160 0.950 . S
C1156 C1165 1.390 . S
C1157 C1156 1.387 . S
C1157 C1159 1.387 . S
H1158 C1165 0.950 . S
C1159 C1157 1.387 . S
C1159 C1161 1.390 . S
C1159 H1163 0.950 . S
H1160 C1156 0.950 . S
C1161 C1159 1.390 . S
C1161 C1162 1.387 . S
C1161 H1164 0.950 . S
C1162 C1161 1.387 . S
C1162 C1165 1.387 . S
H1163 C1159 0.950 . S
H1164 C1161 0.950 . S
C1165 C1156 1.390 . S
C1165 H1158 0.950 . S
C1165 C1162 1.387 . S
C1166 C1167 1.387 . S
C1166 H1170 0.950 . S
C1166 C1175 1.390 . S
C1167 C1166 1.387 . S
C1167 C1169 1.387 . S
H1168 C1175 0.950 . S
C1169 C1167 1.387 . S
C1169 C1171 1.390 . S
C1169 H1173 0.950 . S
H1170 C1166 0.950 . S
C1171 C1169 1.390 . S
C1171 C1172 1.387 . S
C1171 H1174 0.950 . S
C1172 C1171 1.387 . S
C1172 C1175 1.387 . S
H1173 C1169 0.950 . S
H1174 C1171 0.950 . S
C1175 C1166 1.390 . S
C1175 H1168 0.950 . S
C1175 C1172 1.387 . S
C1176 C1177 1.387 1_565 S
C1176 H1180 0.950 . S
C1176 C1185 1.390 . S
C1177 C1176 1.387 1_545 S
C1177 C1179 1.387 . S
H1178 C1185 0.950 . S
C1179 C1177 1.387 . S
C1179 C1181 1.390 . S
C1179 H1183 0.950 . S
H1180 C1176 0.950 . S
C1181 C1179 1.390 . S
C1181 C1182 1.387 . S
C1181 H1184 0.950 . S
C1182 C1181 1.387 . S
C1182 C1185 1.387 1_545 S
H1183 C1179 0.950 . S
H1184 C1181 0.950 . S
C1185 C1176 1.390 . S
C1185 H1178 0.950 . S
C1185 C1182 1.387 1_565 S
C1186 C1187 1.387 . S
C1186 H1190 0.950 . S
C1186 C1195 1.390 . S
C1187 C1186 1.387 . S
C1187 C1189 1.387 . S
H1188 C1195 0.950 . S
C1189 C1187 1.387 . S
C1189 C1191 1.390 . S
C1189 H1193 0.950 . S
H1190 C1186 0.950 . S
C1191 C1189 1.390 . S
C1191 C1192 1.387 . S
C1191 H1194 0.950 . S
C1192 C1191 1.387 . S
C1192 C1195 1.387 . S
H1193 C1189 0.950 . S
H1194 C1191 0.950 . S
C1195 C1186 1.390 . S
C1195 H1188 0.950 . S
C1195 C1192 1.387 . S
C1196 C1197 1.387 . S
C1196 H1200 0.950 . S
C1196 C1205 1.390 . S
C1197 C1196 1.387 . S
C1197 C1199 1.387 . S
H1198 C1205 0.950 . S
C1199 C1197 1.387 . S
C1199 C1201 1.390 . S
C1199 H1203 0.950 . S
H1200 C1196 0.950 . S
C1201 C1199 1.390 . S
C1201 C1202 1.387 . S
C1201 H1204 0.950 . S
C1202 C1201 1.387 . S
C1202 C1205 1.387 . S
H1203 C1199 0.950 . S
H1204 C1201 0.950 . S
C1205 C1196 1.390 . S
C1205 H1198 0.950 . S
C1205 C1202 1.387 . S
C1206 C1207 1.387 . S
C1206 H1210 0.950 . S
C1206 C1215 1.390 . S
C1207 C1206 1.387 . S
C1207 C1209 1.387 . S
H1208 C1215 0.950 . S
C1209 C1207 1.387 . S
C1209 C1211 1.390 . S
C1209 H1213 0.950 . S
H1210 C1206 0.950 . S
C1211 C1209 1.390 . S
C1211 C1212 1.387 . S
C1211 H1214 0.950 . S
C1212 C1211 1.387 . S
C1212 C1215 1.387 . S
H1213 C1209 0.950 . S
H1214 C1211 0.950 . S
C1215 C1206 1.390 . S
C1215 H1208 0.950 . S
C1215 C1212 1.387 . S
C1216 C1217 1.387 . S
C1216 H1220 0.950 . S
C1216 C1225 1.390 . S
C1217 C1216 1.387 . S
C1217 C1219 1.387 . S
H1218 C1225 0.950 . S
C1219 C1217 1.387 . S
C1219 C1221 1.390 . S
C1219 H1223 0.950 . S
H1220 C1216 0.950 . S
C1221 C1219 1.390 . S
C1221 C1222 1.387 . S
C1221 H1224 0.950 . S
C1222 C1221 1.387 . S
C1222 C1225 1.387 . S
H1223 C1219 0.950 . S
H1224 C1221 0.950 . S
C1225 C1216 1.390 . S
C1225 H1218 0.950 . S
C1225 C1222 1.387 . S
C1226 C1227 1.387 . S
C1226 H1230 0.950 . S
C1226 C1235 1.390 . S
C1227 C1226 1.387 . S
C1227 C1229 1.387 . S
H1228 C1235 0.950 . S
C1229 C1227 1.387 . S
C1229 C1231 1.390 . S
C1229 H1233 0.950 . S
H1230 C1226 0.950 . S
C1231 C1229 1.390 . S
C1231 C1232 1.387 . S
C1231 H1234 0.950 . S
C1232 C1231 1.387 . S
C1232 C1235 1.387 . S
H1233 C1229 0.950 . S
H1234 C1231 0.950 . S
C1235 C1226 1.390 . S
C1235 H1228 0.950 . S
C1235 C1232 1.387 . S
C1236 C1237 1.387 . S
C1236 H1240 0.950 . S
C1236 C1245 1.390 . S
C1237 C1236 1.387 . S
C1237 C1239 1.387 . S
H1238 C1245 0.950 . S
C1239 C1237 1.387 . S
C1239 C1241 1.390 . S
C1239 H1243 0.950 . S
H1240 C1236 0.950 . S
C1241 C1239 1.390 . S
C1241 C1242 1.387 . S
C1241 H1244 0.950 . S
C1242 C1241 1.387 . S
C1242 C1245 1.387 . S
H1243 C1239 0.950 . S
H1244 C1241 0.950 . S
C1245 C1236 1.390 . S
C1245 H1238 0.950 . S
C1245 C1242 1.387 . S
C1246 C1247 1.387 . S
C1246 H1250 0.950 . S
C1246 C1255 1.390 . S
C1247 C1246 1.387 . S
C1247 C1249 1.387 . S
H1248 C1255 0.950 . S
C1249 C1247 1.387 . S
C1249 C1251 1.390 . S
C1249 H1253 0.950 . S
H1250 C1246 0.950 . S
C1251 C1249 1.390 . S
C1251 C1252 1.387 . S
C1251 H1254 0.950 . S
C1252 C1251 1.387 . S
C1252 C1255 1.387 . S
H1253 C1249 0.950 . S
H1254 C1251 0.950 . S
C1255 C1246 1.390 . S
C1255 H1248 0.950 . S
C1255 C1252 1.387 . S
C1256 C1257 1.387 . S
C1256 H1260 0.950 . S
C1256 C1265 1.390 . S
C1257 C1256 1.387 . S
C1257 C1259 1.387 . S
H1258 C1265 0.950 . S
C1259 C1257 1.387 . S
C1259 C1261 1.390 . S
C1259 H1263 0.950 . S
H1260 C1256 0.950 . S
C1261 C1259 1.390 . S
C1261 C1262 1.387 . S
C1261 H1264 0.950 . S
C1262 C1261 1.387 . S
C1262 C1265 1.387 . S
H1263 C1259 0.950 . S
H1264 C1261 0.950 . S
C1265 C1256 1.390 . S
C1265 H1258 0.950 . S
C1265 C1262 1.387 . S
C1266 C1267 1.387 1_455 S
C1266 H1270 0.950 . S
C1266 C1275 1.390 . S
C1267 C1266 1.387 1_655 S
C1267 C1269 1.387 . S
H1268 C1275 0.950 . S
C1269 C1267 1.387 . S
C1269 C1271 1.390 . S
C1269 H1273 0.950 . S
H1270 C1266 0.950 . S
C1271 C1269 1.390 . S
C1271 C1272 1.387 . S
C1271 H1274 0.950 . S
C1272 C1271 1.387 . S
C1272 C1275 1.387 1_655 S
H1273 C1269 0.950 . S
H1274 C1271 0.950 . S
C1275 C1266 1.390 . S
C1275 H1268 0.950 . S
C1275 C1272 1.387 1_455 S
C1276 C1277 1.387 . S
C1276 H1280 0.950 . S
C1276 C1285 1.390 . S
C1277 C1276 1.387 . S
C1277 C1279 1.387 . S
H1278 C1285 0.950 . S
C1279 C1277 1.387 . S
C1279 C1281 1.390 . S
C1279 H1283 0.950 . S
H1280 C1276 0.950 . S
C1281 C1279 1.390 . S
C1281 C1282 1.387 . S
C1281 H1284 0.950 . S
C1282 C1281 1.387 . S
C1282 C1285 1.387 . S
H1283 C1279 0.950 . S
H1284 C1281 0.950 . S
C1285 C1276 1.390 . S
C1285 H1278 0.950 . S
C1285 C1282 1.387 . S
C1286 C1287 1.387 . S
C1286 H1290 0.950 . S
C1286 C1295 1.390 . S
C1287 C1286 1.387 . S
C1287 C1289 1.387 1_545 S
H1288 C1295 0.950 . S
C1289 C1287 1.387 1_565 S
C1289 C1291 1.390 . S
C1289 H1293 0.950 . S
H1290 C1286 0.950 . S
C1291 C1289 1.390 . S
C1291 C1292 1.384 . S
C1291 H1294 0.950 . S
C1292 C1291 1.384 . S
C1292 C1295 1.390 1_565 S
H1293 C1289 0.950 . S
H1294 C1291 0.950 . S
C1295 C1286 1.390 . S
C1295 H1288 0.950 . S
C1295 C1292 1.390 1_545 S
C577 C7 1.509 . S
C582 C421 1.524 . S
C587 C23 1.588 . S
C592 C446 1.565 . S
C602 C457 1.523 . S
C597 C37 1.523 . S
C607 C35 1.513 . S
C612 C482 1.530 . S
C617 C9 1.540 1_455 S
C622 C500 1.538 . S
C627 C21 1.546 . S
C632 C511 1.561 . S
C637 C49 1.510 . S
C642 C493 1.530 . S
C652 C518 1.536 . S
C647 C65 1.546 . S
C662 C475 1.521 . S
C657 C79 1.521 1_565 S
C667 C77 1.510 . S
C672 C464 1.519 . S
C682 C428 1.532 . S
C677 C51 1.522 1_655 S
C687 C63 1.521 . S
C692 C439 1.544 . S
C697 C91 1.576 . S
C702 C529 1.590 . S
C707 C107 1.623 . S
C712 C554 1.597 . S
C722 C565 1.582 . S
C717 C121 1.634 . S
C727 C119 1.573 . S
C732 C266 1.594 . S
C737 C93 1.630 . S
C742 C284 1.599 . S
C747 C105 1.569 . S
C752 C295 1.580 . S
C757 C133 1.517 . S
C762 C277 1.539 . S
C767 C149 1.562 . S
C772 C302 1.553 . S
C782 C259 1.560 . S
C777 C163 1.574 . S
C792 C572 1.585 . S
C787 C161 1.564 . S
C802 C536 1.560 . S
C797 C135 1.580 . S
C812 C547 1.581 . S
C807 C147 1.552 . S
C817 C175 1.547 . S
C822 C313 1.558 . S
C827 C191 1.605 . S
C832 C338 1.581 . S
C837 C205 1.624 . S
C842 C349 1.577 . S
C847 C203 1.597 . S
C852 C374 1.622 . S
C862 C392 1.601 . S
C857 C177 1.634 . S
C872 C403 1.600 . S
C867 C189 1.582 . S
C882 C385 1.576 . S
C877 C217 1.551 . S
C892 C410 1.564 . S
C887 C233 1.579 . S
C897 C247 1.580 . S
C902 C367 1.563 . S
C912 C356 1.552 . S
C907 C245 1.535 . S
C917 C219 1.578 . S
C922 C320 1.563 . S
C932 C331 1.566 . S
C927 C231 1.544 . S
C942 C268 1.451 . S
C937 C8 1.513 . S
C947 C17 1.482 . S
C952 C286 1.404 . S
C962 C296 1.454 . S
C957 C31 1.523 . S
C972 C314 1.457 . S
C967 C36 1.529 . S
C982 C340 1.437 . S
C977 C3 1.512 . S
C992 C350 1.402 . S
C987 C22 1.482 . S
C997 C50 1.555 . S
C1002 C358 1.455 . S
C1007 C59 1.514 . S
C1012 C322 1.406 . S
C1017 C73 1.546 . S
C1022 C332 1.470 . S
C1027 C78 1.573 . S
C1032 C278 1.492 . S
C1042 C304 1.440 . S
C1037 C45 1.544 . S
C1047 C64 1.523 . S
C1052 C260 1.433 . S
C1062 C376 1.440 . S
C1057 C92 1.516 . S
C1067 C101 1.544 . S
C1072 C394 1.461 . S
C1077 C115 1.558 . S
C1082 C404 1.474 . S
C1092 C422 1.420 . S
C1087 C120 1.485 . S
C1097 C87 1.513 . S
C1102 C448 1.432 . S
C1107 C106 1.467 . S
C1112 C458 1.403 . S
C1117 C134 1.483 . S
C1122 C466 1.419 . S
C1127 C143 1.485 . S
C1132 C430 1.394 1_655 S
C1142 C440 1.467 . S
C1137 C157 1.551 . S
C1147 C162 1.556 . S
C1152 C386 1.464 . S
C1157 C129 1.582 . S
C1162 C412 1.469 . S
C1172 C368 1.479 . S
C1167 C148 1.571 . S
C1182 C484 1.411 . S
C1177 C176 1.481 . S
C1187 C185 1.482 . S
C1192 C502 1.399 . S
C1197 C199 1.524 . S
C1202 C512 1.444 . S
C1212 C530 1.438 . S
C1207 C204 1.516 . S
C1222 C556 1.465 . S
C1217 C171 1.553 . S
C1227 C190 1.535 . S
C1232 C566 1.455 . S
C1237 C218 1.554 . S
C1242 C574 1.446 . S
C1247 C227 1.573 . S
C1252 C538 1.465 . S
C1262 C548 1.487 . S
C1257 C241 1.580 . S
C1272 C494 1.398 1_655 S
C1267 C246 1.489 . S
C1282 C520 1.440 . S
C1277 C213 1.543 . S
C1287 C232 1.473 . S
C1292 C476 1.405 . S
