# Generated by pormake.
# Topology sqc, (4,8)-cn, num edge types: 1
# Building blocks:
#     Node 0, Type 0, BuildingBlock: MUDLON_clean_linker_0, # of connection points: 4
#     Node 1, Type 0, BuildingBlock: MUDLON_clean_linker_0, # of connection points: 4
#     Node 2, Type 0, BuildingBlock: MUDLON_clean_linker_0, # of connection points: 4
#     Node 3, Type 0, BuildingBlock: MUDLON_clean_linker_0, # of connection points: 4
#     Node 4, Type 0, BuildingBlock: MUDLON_clean_linker_0, # of connection points: 4
#     Node 5, Type 0, BuildingBlock: MUDLON_clean_linker_0, # of connection points: 4
#     Node 6, Type 0, BuildingBlock: MUDLON_clean_linker_0, # of connection points: 4
#     Node 7, Type 0, BuildingBlock: MUDLON_clean_linker_0, # of connection points: 4
#     Node 8, Type 1, BuildingBlock: TAGTUT_clean_sbu_3, # of connection points: 8
#     Node 9, Type 1, BuildingBlock: TAGTUT_clean_sbu_3, # of connection points: 8
#     Node 10, Type 1, BuildingBlock: TAGTUT_clean_sbu_3, # of connection points: 8
#     Node 11, Type 1, BuildingBlock: TAGTUT_clean_sbu_3, # of connection points: 8
#     Edge 12, Type (0, 1), BuildingBlock: XUDNAN_clean_linker_2, # of connection points: 2
#     Edge 13, Type (0, 1), BuildingBlock: XUDNAN_clean_linker_2, # of connection points: 2
#     Edge 14, Type (0, 1), BuildingBlock: XUDNAN_clean_linker_2, # of connection points: 2
#     Edge 15, Type (0, 1), BuildingBlock: XUDNAN_clean_linker_2, # of connection points: 2
#     Edge 16, Type (0, 1), BuildingBlock: XUDNAN_clean_linker_2, # of connection points: 2
#     Edge 17, Type (0, 1), BuildingBlock: XUDNAN_clean_linker_2, # of connection points: 2
#     Edge 18, Type (0, 1), BuildingBlock: XUDNAN_clean_linker_2, # of connection points: 2
#     Edge 19, Type (0, 1), BuildingBlock: XUDNAN_clean_linker_2, # of connection points: 2
#     Edge 20, Type (0, 1), BuildingBlock: XUDNAN_clean_linker_2, # of connection points: 2
#     Edge 21, Type (0, 1), BuildingBlock: XUDNAN_clean_linker_2, # of connection points: 2
#     Edge 22, Type (0, 1), BuildingBlock: XUDNAN_clean_linker_2, # of connection points: 2
#     Edge 23, Type (0, 1), BuildingBlock: XUDNAN_clean_linker_2, # of connection points: 2
#     Edge 24, Type (0, 1), BuildingBlock: XUDNAN_clean_linker_2, # of connection points: 2
#     Edge 25, Type (0, 1), BuildingBlock: XUDNAN_clean_linker_2, # of connection points: 2
#     Edge 26, Type (0, 1), BuildingBlock: XUDNAN_clean_linker_2, # of connection points: 2
#     Edge 27, Type (0, 1), BuildingBlock: XUDNAN_clean_linker_2, # of connection points: 2
#     Edge 28, Type (0, 1), BuildingBlock: XUDNAN_clean_linker_2, # of connection points: 2
#     Edge 29, Type (0, 1), BuildingBlock: XUDNAN_clean_linker_2, # of connection points: 2
#     Edge 30, Type (0, 1), BuildingBlock: XUDNAN_clean_linker_2, # of connection points: 2
#     Edge 31, Type (0, 1), BuildingBlock: XUDNAN_clean_linker_2, # of connection points: 2
#     Edge 32, Type (0, 1), BuildingBlock: XUDNAN_clean_linker_2, # of connection points: 2
#     Edge 33, Type (0, 1), BuildingBlock: XUDNAN_clean_linker_2, # of connection points: 2
#     Edge 34, Type (0, 1), BuildingBlock: XUDNAN_clean_linker_2, # of connection points: 2
#     Edge 35, Type (0, 1), BuildingBlock: XUDNAN_clean_linker_2, # of connection points: 2
#     Edge 36, Type (0, 1), BuildingBlock: XUDNAN_clean_linker_2, # of connection points: 2
#     Edge 37, Type (0, 1), BuildingBlock: XUDNAN_clean_linker_2, # of connection points: 2
#     Edge 38, Type (0, 1), BuildingBlock: XUDNAN_clean_linker_2, # of connection points: 2
#     Edge 39, Type (0, 1), BuildingBlock: XUDNAN_clean_linker_2, # of connection points: 2
#     Edge 40, Type (0, 1), BuildingBlock: XUDNAN_clean_linker_2, # of connection points: 2
#     Edge 41, Type (0, 1), BuildingBlock: XUDNAN_clean_linker_2, # of connection points: 2
#     Edge 42, Type (0, 1), BuildingBlock: XUDNAN_clean_linker_2, # of connection points: 2
#     Edge 43, Type (0, 1), BuildingBlock: XUDNAN_clean_linker_2, # of connection points: 2
# Relax obj value: 0.179
# Max RMSD: 0.279
# Mean RMSD: 0.216
data_MOF--net-sqc--node1-TAGTUT_clean_sbu_3--node2-MUDLON_clean_linker_0--edge1-XUDNAN_clean_linker_2
_symmetry_space_group_name_H-M    P1
_symmetry_Int_Tables_number       1
_symmetry_cell_setting            triclinic
loop_
_symmetry_equiv_pos_as_xyz
'x, y, z'
_cell_length_a     31.799609
_cell_length_b     31.793824
_cell_length_c     90.104777
_cell_angle_alpha  90.754225
_cell_angle_beta   89.970223
_cell_angle_gamma 89.932369
loop_
_atom_site_label
_atom_site_type_symbol
_atom_site_fract_x
_atom_site_fract_y
_atom_site_fract_z
_atom_type_partial_charge
H0 H 0.8277 0.89765 0.54753 0.0
N1 N 0.89208 0.93341 0.53397 0.0
H2 H 0.77739 0.93075 0.56448 0.0
H3 H 0.89983 0.01229 0.5467 0.0
H4 H 0.85164 0.04468 0.56433 0.0
H5 H 0.86752 0.00299 0.51864 0.0
H6 H 0.8246 0.00321 0.49607 0.0
H7 H 0.86973 0.86748 0.51753 0.0
H8 H 0.82671 0.86735 0.49498 0.0
H9 H 0.94622 0.87645 0.54344 0.0
H10 H 0.93985 1.0002 0.5247 0.0
H11 H 0.02287 0.88013 0.5435 0.0
H12 H 0.01626 0.00547 0.52551 0.0
H13 H 0.26599 0.93234 0.55593 0.0
H14 H 0.30464 0.98374 0.57095 0.0
H15 H 0.23229 0.08383 0.55113 0.0
H16 H 0.19196 0.03188 0.53715 0.0
H17 H 0.23744 0.0081 0.51681 0.0
H18 H 0.28124 0.99748 0.49546 0.0
H19 H 0.26675 0.86262 0.49938 0.0
H20 H 0.22614 0.87403 0.52216 0.0
H21 H 0.15702 0.91158 0.55507 0.0
H22 H 0.08031 0.91068 0.55528 0.0
H23 H 0.07908 0.98198 0.51472 0.0
N24 N 0.20765 0.94718 0.53554 0.0
H25 H 0.15568 0.98486 0.51519 0.0
C26 C 0.86771 0.95211 0.54586 0.0
C27 C 0.83334 0.92958 0.55137 0.0
C28 C 0.80465 0.9486 0.5611 0.0
C29 C 0.81001 0.99068 0.56573 0.0
C30 C 0.84572 0.01261 0.56074 0.0
C31 C 0.87394 0.99378 0.55077 0.0
C32 C 0.87208 0.93503 0.51966 0.0
C33 C 0.85965 0.97332 0.51333 0.0
C34 C 0.83492 0.97341 0.50049 0.0
C35 C 0.82188 0.9353 0.49389 0.0
C36 C 0.83567 0.8972 0.49997 0.0
C37 C 0.86058 0.89716 0.51272 0.0
C38 C 0.93721 0.93802 0.53426 0.0
C39 C 0.96146 0.90469 0.53955 0.0
C40 C 0.00533 0.90708 0.53966 0.0
C41 C 0.02615 0.94331 0.53463 0.0
C42 C 0.00162 0.97684 0.52931 0.0
C43 C 0.95766 0.97409 0.529 0.0
C44 C 0.22636 0.97813 0.54538 0.0
C45 C 0.25807 0.96537 0.55511 0.0
C46 C 0.28055 0.99498 0.5635 0.0
C47 C 0.27237 0.03833 0.56212 0.0
C48 C 0.23943 0.0509 0.5527 0.0
C49 C 0.21632 0.02113 0.54458 0.0
C50 C 0.2292 0.94172 0.52148 0.0
C51 C 0.24384 0.97614 0.51332 0.0
C52 C 0.26859 0.96987 0.50072 0.0
C53 C 0.27799 0.92902 0.49543 0.0
C54 C 0.26134 0.89458 0.50319 0.0
C55 C 0.23758 0.90096 0.51614 0.0
C56 C 0.16223 0.94757 0.53505 0.0
C57 C 0.14006 0.92706 0.54626 0.0
C58 C 0.09614 0.92634 0.54627 0.0
C59 C 0.07312 0.94576 0.5349 0.0
C60 C 0.09548 0.96696 0.52374 0.0
C61 C 0.13952 0.96822 0.52389 0.0
H62 H 0.41108 0.53351 0.80362 0.0
N63 N 0.38025 0.56811 0.77926 0.0
H64 H 0.37858 0.47874 0.81889 0.0
H65 H 0.30058 0.53529 0.77587 0.0
H66 H 0.26926 0.47965 0.79061 0.0
H67 H 0.3488 0.51542 0.75752 0.0
H68 H 0.38776 0.48333 0.73734 0.0
H69 H 0.45975 0.58235 0.77181 0.0
H70 H 0.49884 0.55253 0.75075 0.0
H71 H 0.39949 0.63913 0.79332 0.0
H72 H 0.31739 0.58779 0.7597 0.0
H73 H 0.37181 0.70941 0.78877 0.0
H74 H 0.28712 0.6571 0.7558 0.0
H75 H 0.32218 0.90069 0.77851 0.0
H76 H 0.29896 0.9564 0.7954 0.0
H77 H 0.17034 0.93499 0.78223 0.0
H78 H 0.19395 0.87972 0.76465 0.0
H79 H 0.25264 0.9009 0.73404 0.0
H80 H 0.29901 0.94552 0.71916 0.0
H81 H 0.40517 0.90648 0.74543 0.0
H82 H 0.35915 0.86101 0.75993 0.0
H83 H 0.2948 0.82677 0.78597 0.0
H84 H 0.31586 0.75571 0.79142 0.0
H85 H 0.30208 0.7212 0.74509 0.0
N86 N 0.27314 0.85801 0.7582 0.0
H87 H 0.27825 0.79224 0.7398 0.0
C88 C 0.35867 0.53841 0.78854 0.0
C89 C 0.3799 0.52222 0.80085 0.0
C90 C 0.36151 0.49095 0.80948 0.0
C91 C 0.32186 0.47478 0.8057 0.0
C92 C 0.3002 0.49133 0.79355 0.0
C93 C 0.31815 0.52328 0.78515 0.0
C94 C 0.40168 0.55066 0.76649 0.0
C95 C 0.38153 0.52358 0.7563 0.0
C96 C 0.40392 0.50564 0.7445 0.0
C97 C 0.4467 0.51515 0.74233 0.0
C98 C 0.46625 0.54369 0.75221 0.0
C99 C 0.44396 0.56101 0.76419 0.0
C100 C 0.36023 0.60819 0.77706 0.0
C101 C 0.37471 0.643 0.78521 0.0
C102 C 0.35855 0.68311 0.78264 0.0
C103 C 0.32696 0.68925 0.77193 0.0
C104 C 0.31181 0.65393 0.76398 0.0
C105 C 0.3286 0.61392 0.76638 0.0
C106 C 0.25977 0.88633 0.77002 0.0
C107 C 0.28899 0.90769 0.77914 0.0
C108 C 0.27572 0.93942 0.78889 0.0
C109 C 0.23303 0.94997 0.78996 0.0
C110 C 0.20346 0.92719 0.78156 0.0
C111 C 0.21686 0.89575 0.77157 0.0
C112 C 0.3022 0.87805 0.74817 0.0
C113 C 0.28609 0.90111 0.73629 0.0
C114 C 0.31254 0.92643 0.72782 0.0
C115 C 0.35548 0.92951 0.73127 0.0
C116 C 0.37208 0.90471 0.74263 0.0
C117 C 0.3458 0.8788 0.75091 0.0
C118 C 0.28502 0.8156 0.76228 0.0
C119 C 0.2959 0.80434 0.77688 0.0
C120 C 0.30839 0.76324 0.78004 0.0
C121 C 0.31113 0.73242 0.76872 0.0
C122 C 0.29978 0.74362 0.7542 0.0
C123 C 0.2865 0.78447 0.7511 0.0
H124 H 0.82256 0.00946 0.0279 0.0
N125 N 0.76524 0.97503 0.0086 0.0
H126 H 0.86387 0.97193 0.04629 0.0
H127 H 0.75962 0.89428 0.01557 0.0
H128 H 0.79884 0.8567 0.03459 0.0
H129 H 0.83051 0.95475 0.99148 0.0
H130 H 0.87523 0.00107 0.97716 0.0
H131 H 0.75561 0.06153 0.00552 0.0
H132 H 0.7977 0.1071 0.99033 0.0
H133 H 0.7433 0.02522 0.03229 0.0
H134 H 0.6938 0.95495 0.99501 0.0
H135 H 0.67203 0.04645 0.0394 0.0
H136 H 0.6223 0.97648 0.00192 0.0
H137 H 0.3873 0.05755 0.03735 0.0
H138 H 0.34985 0.01763 0.05568 0.0
H139 H 0.46639 0.9938 0.0787 0.0
H140 H 0.50454 0.03159 0.05982 0.0
H141 H 0.43496 0.00732 0.01736 0.0
H142 H 0.40099 0.01779 0.99357 0.0
H143 H 0.43353 0.14987 0.99571 0.0
H144 H 0.46536 0.13923 0.02008 0.0
H145 H 0.54283 0.11396 0.03558 0.0
H146 H 0.61485 0.09159 0.02972 0.0
H147 H 0.5706 0.96475 0.02199 0.0
N148 N 0.47326 0.06751 0.03474 0.0
H149 H 0.49901 0.98731 0.02787 0.0
C150 C 0.78853 0.95434 0.02017 0.0
C151 C 0.81741 0.97607 0.02926 0.0
C152 C 0.8407 0.95455 0.0399 0.0
C153 C 0.83501 0.91105 0.04192 0.0
C154 C 0.80493 0.88988 0.03314 0.0
C155 C 0.78219 0.9113 0.02235 0.0
C156 C 0.78963 0.00399 -0.00026 0.0
C157 C 0.82332 0.98805 0.99133 0.0
C158 C 0.84863 0.0147 0.98298 0.0
C159 C 0.84021 0.05815 0.98244 0.0
C160 C 0.80592 0.07408 0.99066 0.0
C161 C 0.78127 0.04756 -0.00067 0.0
C162 C 0.7237 0.98832 0.01311 0.0
C163 C 0.71704 0.01424 0.02568 0.0
C164 C 0.67634 0.02661 0.02966 0.0
C165 C 0.64157 0.01307 0.02123 0.0
C166 C 0.6484 0.98699 0.00873 0.0
C167 C 0.68911 0.97487 0.00472 0.0
C168 C 0.44992 0.04466 0.04608 0.0
C169 C 0.40552 0.04258 0.04593 0.0
C170 C 0.38364 0.02038 0.05675 0.0
C171 C 0.4051 0.00135 0.06853 0.0
C172 C 0.44892 0.0064 0.06946 0.0
C173 C 0.47089 0.02809 0.05852 0.0
C174 C 0.45212 0.07279 0.02066 0.0
C175 C 0.43468 0.03856 0.01275 0.0
C176 C 0.41553 0.04462 0.99901 0.0
C177 C 0.41447 0.08474 0.99258 0.0
C178 C 0.43286 0.1187 0.00039 0.0
C179 C 0.45126 0.11273 0.0143 0.0
C180 C 0.5156 0.05253 0.03212 0.0
C181 C 0.54887 0.08131 0.03273 0.0
C182 C 0.5899 0.06844 0.02943 0.0
C183 C 0.59832 0.02644 0.02533 0.0
C184 C 0.56498 0.99744 0.02489 0.0
C185 C 0.52403 0.0103 0.02826 0.0
H186 H 0.27353 0.52046 0.30299 0.0
N187 N 0.28777 0.46356 0.28193 0.0
H188 H 0.32454 0.55624 0.31872 0.0
H189 H 0.37248 0.44445 0.28384 0.0
H190 H 0.42319 0.47733 0.30036 0.0
H191 H 0.33902 0.49028 0.25954 0.0
H192 H 0.32085 0.54191 0.24052 0.0
H193 H 0.21473 0.50219 0.27822 0.0
H194 H 0.19718 0.55546 0.25969 0.0
H195 H 0.23468 0.40792 0.29309 0.0
H196 H 0.33859 0.41892 0.26271 0.0
H197 H 0.23131 0.33233 0.28793 0.0
H198 H 0.33788 0.34362 0.25834 0.0
H199 H 0.26766 0.11151 0.28826 0.0
H200 H 0.30404 0.07857 0.30897 0.0
H201 H 0.42333 0.11767 0.29084 0.0
H202 H 0.38656 0.15047 0.27005 0.0
H203 H 0.32317 0.10015 0.24296 0.0
H204 H 0.27641 0.05118 0.22995 0.0
H205 H 0.17215 0.09562 0.2567 0.0
H206 H 0.21939 0.14527 0.26947 0.0
H207 H 0.26983 0.19353 0.28915 0.0
H208 H 0.26375 0.26918 0.29257 0.0
H209 H 0.30558 0.28681 0.24735 0.0
N210 N 0.30431 0.15252 0.26502 0.0
H211 H 0.3149 0.21091 0.24455 0.0
C212 C 0.31867 0.47954 0.29228 0.0
C213 C 0.30614 0.51066 0.3025 0.0
C214 C 0.33552 0.53086 0.3116 0.0
C215 C 0.37839 0.51975 0.31097 0.0
C216 C 0.39073 0.48743 0.30104 0.0
C217 C 0.36137 0.46799 0.29163 0.0
C218 C 0.27766 0.4916 0.27004 0.0
C219 C 0.30762 0.50332 0.25937 0.0
C220 C 0.29746 0.53317 0.24866 0.0
C221 C 0.25778 0.55256 0.24879 0.0
C222 C 0.22804 0.54098 0.25948 0.0
C223 C 0.23785 0.51049 0.26994 0.0
C224 C 0.28718 0.41909 0.27853 0.0
C225 C 0.25707 0.39387 0.28543 0.0
C226 C 0.25546 0.35057 0.28252 0.0
C227 C 0.28452 0.33131 0.27277 0.0
C228 C 0.31441 0.35699 0.26572 0.0
C229 C 0.31533 0.40038 0.2684 0.0
C230 C 0.3246 0.13313 0.2775 0.0
C231 C 0.30161 0.11279 0.28866 0.0
C232 C 0.32244 0.09394 0.3005 0.0
C233 C 0.36651 0.0955 0.3015 0.0
C234 C 0.38932 0.1163 0.29043 0.0
C235 C 0.36848 0.13483 0.27854 0.0
C236 C 0.2748 0.1263 0.25708 0.0
C237 C 0.29016 0.09946 0.24591 0.0
C238 C 0.26346 0.07122 0.23863 0.0
C239 C 0.22062 0.06906 0.24243 0.0
C240 C 0.20496 0.0966 0.25349 0.0
C241 C 0.23186 0.12496 0.26079 0.0
C242 C 0.29395 0.19654 0.26666 0.0
C243 C 0.27777 0.2136 0.27997 0.0
C244 C 0.27384 0.25718 0.28185 0.0
C245 C 0.28485 0.28467 0.27033 0.0
C246 C 0.29815 0.26705 0.25668 0.0
C247 C 0.30299 0.22357 0.25495 0.0
H248 H 0.893 0.07514 0.30582 0.0
N249 N 0.88173 0.08622 0.2769 0.0
H250 H 0.8608 0.02161 0.32156 0.0
H251 H 0.82443 0.02628 0.26809 0.0
H252 H 0.79255 0.97283 0.28366 0.0
H253 H 0.8462 0.08615 0.24901 0.0
H254 H 0.87401 0.05119 0.2269 0.0
H255 H 0.95567 0.04819 0.27376 0.0
H256 H 0.98356 0.01254 0.25153 0.0
H257 H 0.91655 0.16164 0.28005 0.0
H258 H 0.79771 0.10077 0.27161 0.0
H259 H 0.88268 0.23044 0.27788 0.0
H260 H 0.76344 0.16911 0.26988 0.0
H261 H 0.80785 0.42107 0.27717 0.0
H262 H 0.78756 0.47947 0.29338 0.0
H263 H 0.6568 0.44654 0.2878 0.0
H264 H 0.67742 0.38769 0.27136 0.0
H265 H 0.72583 0.41049 0.23786 0.0
H266 H 0.76724 0.44485 0.21847 0.0
H267 H 0.88159 0.40294 0.2395 0.0
H268 H 0.84051 0.36915 0.25871 0.0
H269 H 0.80619 0.34799 0.28475 0.0
H270 H 0.83367 0.27819 0.28976 0.0
H271 H 0.7613 0.22746 0.25312 0.0
N272 N 0.75437 0.36956 0.26142 0.0
H273 H 0.73297 0.29751 0.24841 0.0
C274 C 0.86144 0.05473 0.28581 0.0
C275 C 0.87105 0.05288 0.30095 0.0
C276 C 0.85267 0.02236 0.30989 0.0
C277 C 0.82444 0.99286 0.30379 0.0
C278 C 0.81476 0.99469 0.2886 0.0
C279 C 0.83284 0.02545 0.27971 0.0
C280 C 0.89912 0.07015 0.26313 0.0
C281 C 0.87664 0.07114 0.24967 0.0
C282 C 0.89259 0.0511 0.23697 0.0
C283 C 0.93093 0.02917 0.23751 0.0
C284 C 0.95383 0.02905 0.25083 0.0
C285 C 0.9381 0.04952 0.26348 0.0
C286 C 0.85993 0.12604 0.27607 0.0
C287 C 0.88308 0.16317 0.2779 0.0
C288 C 0.86356 0.20241 0.27677 0.0
C289 C 0.82023 0.20536 0.27377 0.0
C290 C 0.7969 0.16803 0.27207 0.0
C291 C 0.8165 0.12879 0.27318 0.0
C292 C 0.74399 0.39998 0.27291 0.0
C293 C 0.77484 0.4258 0.27955 0.0
C294 C 0.76319 0.45944 0.28877 0.0
C295 C 0.72057 0.46792 0.29165 0.0
C296 C 0.68988 0.4407 0.28575 0.0
C297 C 0.70157 0.40713 0.2764 0.0
C298 C 0.77975 0.38677 0.24964 0.0
C299 C 0.75982 0.40839 0.23815 0.0
C300 C 0.78347 0.42816 0.22717 0.0
C301 C 0.82762 0.42639 0.22745 0.0
C302 C 0.8476 0.40426 0.23886 0.0
C303 C 0.82401 0.38486 0.24988 0.0
C304 C 0.76708 0.32816 0.26616 0.0
C305 C 0.79537 0.32194 0.27796 0.0
C306 C 0.81155 0.28187 0.28074 0.0
C307 C 0.80001 0.24719 0.27177 0.0
C308 C 0.77055 0.25327 0.26037 0.0
C309 C 0.75434 0.29329 0.25763 0.0
H310 H 0.80347 0.94847 0.80364 0.0
N311 N 0.81256 0.9479 0.77431 0.0
H312 H 0.85121 0.97884 0.82225 0.0
H313 H 0.88878 0.98439 0.76887 0.0
H314 H 0.9358 0.0159 0.78719 0.0
H315 H 0.8444 0.94968 0.74587 0.0
H316 H 0.82834 0.00214 0.72704 0.0
H317 H 0.75904 0.01159 0.77631 0.0
H318 H 0.74362 0.06468 0.7576 0.0
H319 H 0.75238 0.89018 0.77423 0.0
H320 H 0.8846 0.90657 0.76559 0.0
H321 H 0.75982 0.81431 0.77017 0.0
H322 H 0.89286 0.8309 0.76224 0.0
H323 H 0.79728 0.6124 0.78581 0.0
H324 H 0.81345 0.57366 0.80792 0.0
H325 H 0.9445 0.56905 0.79505 0.0
H326 H 0.92827 0.61208 0.77346 0.0
H327 H 0.87932 0.58407 0.74308 0.0
H328 H 0.8367 0.53899 0.72681 0.0
H329 H 0.72396 0.58825 0.74756 0.0
H330 H 0.76667 0.63432 0.76318 0.0
H331 H 0.79827 0.68158 0.78236 0.0
H332 H 0.78861 0.75686 0.7831 0.0
H333 H 0.87848 0.76996 0.74745 0.0
N334 N 0.85288 0.63671 0.7642 0.0
H335 H 0.88946 0.69366 0.74723 0.0
C336 C 0.84235 0.9644 0.78493 0.0
C337 C 0.83255 0.96285 0.80006 0.0
C338 C 0.85972 0.98041 0.81063 0.0
C339 C 0.89728 0.99993 0.80621 0.0
C340 C 0.90747 0.00061 0.79102 0.0
C341 C 0.88039 0.98289 0.78049 0.0
C342 C 0.80225 0.97633 0.76249 0.0
C343 C 0.82189 0.9742 0.74848 0.0
C344 C 0.81293 0.00435 0.73774 0.0
C345 C 0.78503 0.03759 0.74093 0.0
C346 C 0.76566 0.03969 0.75492 0.0
C347 C 0.77405 0.00923 0.76553 0.0
C348 C 0.8178 0.90401 0.77044 0.0
C349 C 0.78296 0.87736 0.7714 0.0
C350 C 0.78743 0.83399 0.76922 0.0
C351 C 0.82711 0.81627 0.76611 0.0
C352 C 0.86178 0.84333 0.76453 0.0
C353 C 0.85717 0.88677 0.76658 0.0
C354 C 0.86182 0.61615 0.77803 0.0
C355 C 0.82976 0.60467 0.78793 0.0
C356 C 0.83903 0.58145 0.80052 0.0
C357 C 0.88026 0.56739 0.80326 0.0
C358 C 0.91247 0.57964 0.79349 0.0
C359 C 0.90327 0.60402 0.78108 0.0
C360 C 0.82638 0.61267 0.75427 0.0
C361 C 0.84537 0.58534 0.74395 0.0
C362 C 0.82095 0.55924 0.73482 0.0
C363 C 0.77681 0.55971 0.73591 0.0
C364 C 0.75781 0.58735 0.74626 0.0
C365 C 0.78228 0.61369 0.75529 0.0
C366 C 0.84531 0.68154 0.76483 0.0
C367 C 0.81628 0.70013 0.77473 0.0
C368 C 0.81028 0.74364 0.77502 0.0
C369 C 0.83266 0.76973 0.76531 0.0
C370 C 0.86112 0.751 0.75524 0.0
C371 C 0.86732 0.70741 0.75504 0.0
H372 H 0.34616 0.58095 -0.0005 0.0
N373 N 0.39616 0.54127 0.01838 0.0
H374 H 0.29718 0.54953 0.98151 0.0
H375 H 0.38801 0.45735 0.01194 0.0
H376 H 0.33913 0.42569 0.99407 0.0
H377 H 0.36084 0.48213 0.03637 0.0
H378 H 0.31398 0.49569 0.05743 0.0
H379 H 0.37602 0.61548 0.03029 0.0
H380 H 0.32907 0.62937 0.05141 0.0
H381 H 0.45458 0.54271 0.99716 0.0
H382 H 0.43635 0.5053 0.04266 0.0
H383 H 0.52746 0.51888 0.99835 0.0
H384 H 0.50883 0.48344 0.04401 0.0
H385 H 0.74615 0.51149 0.01307 0.0
H386 H 0.79568 0.49686 0.99355 0.0
H387 H 0.75134 0.36802 0.99096 0.0
H388 H 0.70506 0.38242 0.01207 0.0
H389 H 0.77345 0.4351 0.03983 0.0
H390 H 0.81991 0.48126 0.05383 0.0
H391 H 0.7209 0.57451 0.05657 0.0
H392 H 0.67626 0.53021 0.04159 0.0
H393 H 0.6669 0.51805 0.01133 0.0
H394 H 0.59307 0.53724 0.00878 0.0
H395 H 0.55825 0.43234 0.03627 0.0
N396 N 0.69895 0.45386 0.02797 0.0
H397 H 0.63263 0.41443 0.03917 0.0
C398 C 0.37096 0.52163 0.00692 0.0
C399 C 0.34507 0.54706 0.99819 0.0
C400 C 0.31687 0.52908 0.98807 0.0
C401 C 0.31422 0.48517 0.98643 0.0
C402 C 0.34074 0.45965 0.99499 0.0
C403 C 0.36872 0.47767 0.0052 0.0
C404 C 0.37228 0.54799 0.03184 0.0
C405 C 0.35444 0.51433 0.03967 0.0
C406 C 0.32772 0.5221 0.05172 0.0
C407 C 0.3177 0.56356 0.05599 0.0
C408 C 0.33589 0.59708 0.04825 0.0
C409 C 0.36301 0.58928 0.03632 0.0
C410 C 0.43899 0.52555 0.01962 0.0
C411 C 0.46606 0.5293 0.00738 0.0
C412 C 0.50794 0.51599 0.00813 0.0
C413 C 0.52426 0.49911 0.02128 0.0
C414 C 0.49728 0.4954 0.03358 0.0
C415 C 0.45527 0.50828 0.03278 0.0
C416 C 0.72251 0.44768 0.01434 0.0
C417 C 0.74695 0.48006 0.0083 0.0
C418 C 0.7752 0.47153 0.99683 0.0
C419 C 0.77838 0.43088 0.99043 0.0
C420 C 0.75127 0.39936 0.99576 0.0
C421 C 0.7241 0.40762 0.0077 0.0
C422 C 0.72161 0.47903 0.03899 0.0
C423 C 0.76166 0.46546 0.04352 0.0
C424 C 0.78826 0.49204 0.05165 0.0
C425 C 0.77491 0.53252 0.0561 0.0
C426 C 0.73333 0.54453 0.05279 0.0
C427 C 0.70722 0.51853 0.04423 0.0
C428 C 0.65532 0.46466 0.02549 0.0
C429 C 0.64339 0.49892 0.01668 0.0
C430 C 0.60096 0.5098 0.0152 0.0
C431 C 0.56942 0.48645 0.02234 0.0
C432 C 0.58155 0.45158 0.03083 0.0
C433 C 0.62402 0.44101 0.03242 0.0
H434 H 0.36011 0.54658 0.53359 0.0
N435 N 0.27804 0.54396 0.52523 0.0
H436 H 0.39796 0.49704 0.54887 0.0
H437 H 0.24697 0.47237 0.53865 0.0
H438 H 0.28483 0.42386 0.55407 0.0
H439 H 0.3305 0.50923 0.5042 0.0
H440 H 0.37234 0.54742 0.48609 0.0
H441 H 0.27645 0.62576 0.51994 0.0
H442 H 0.31485 0.66404 0.50106 0.0
H443 H 0.2072 0.58295 0.53259 0.0
H444 H 0.25595 0.47978 0.50637 0.0
H445 H 0.1356 0.56329 0.52576 0.0
H446 H 0.18436 0.45763 0.50026 0.0
H447 H 0.93373 0.49846 0.52065 0.0
H448 H 0.89669 0.4721 0.54223 0.0
H449 H 0.94315 0.34693 0.53256 0.0
H450 H 0.98084 0.37385 0.51094 0.0
H451 H 0.93624 0.42955 0.47865 0.0
H452 H 0.89765 0.47512 0.46162 0.0
H453 H 0.94207 0.58443 0.48587 0.0
H454 H 0.98037 0.53889 0.50278 0.0
H455 H 0.01451 0.49199 0.52684 0.0
H456 H 0.08604 0.51351 0.53146 0.0
H457 H 0.12176 0.46937 0.48761 0.0
N458 N 0.98404 0.45268 0.50153 0.0
H459 H 0.04988 0.44465 0.48349 0.0
C460 C 0.30089 0.51254 0.53377 0.0
C461 C 0.34342 0.51926 0.53754 0.0
C462 C 0.36507 0.49114 0.54655 0.0
C463 C 0.34457 0.45607 0.55252 0.0
C464 C 0.30191 0.44981 0.54926 0.0
C465 C 0.28022 0.47786 0.54023 0.0
C466 C 0.30135 0.56498 0.51373 0.0
C467 C 0.32735 0.54308 0.50362 0.0
C468 C 0.35092 0.56507 0.49313 0.0
C469 C 0.34777 0.60922 0.49215 0.0
C470 C 0.31963 0.63042 0.50175 0.0
C471 C 0.29719 0.60859 0.51249 0.0
C472 C 0.23654 0.53249 0.5202 0.0
C473 C 0.20221 0.55588 0.52539 0.0
C474 C 0.16133 0.5442 0.52159 0.0
C475 C 0.15386 0.50819 0.51271 0.0
C476 C 0.18866 0.48566 0.50702 0.0
C477 C 0.22968 0.49807 0.51056 0.0
C478 C 0.95993 0.4379 0.51403 0.0
C479 C 0.93563 0.46526 0.52299 0.0
C480 C 0.91438 0.45012 0.53539 0.0
C481 C 0.91693 0.4074 0.53912 0.0
C482 C 0.94095 0.3801 0.53009 0.0
C483 C 0.96221 0.39529 0.51768 0.0
C484 C 0.96145 0.48063 0.49186 0.0
C485 C 0.93755 0.46334 0.48025 0.0
C486 C 0.91545 0.48936 0.47061 0.0
C487 C 0.91706 0.53332 0.47238 0.0
C488 C 0.94079 0.55069 0.4841 0.0
C489 C 0.96262 0.52465 0.4938 0.0
C490 C 0.02665 0.46573 0.50483 0.0
C491 C 0.03753 0.48611 0.51825 0.0
C492 C 0.07875 0.49922 0.52081 0.0
C493 C 0.11 0.49358 0.50988 0.0
C494 C 0.09891 0.47367 0.4964 0.0
C495 C 0.05778 0.45969 0.49398 0.0
C496 C 0.1231 0.69618 0.168 0.0
C497 C 0.97587 0.62664 0.16396 0.0
C498 C 0.97263 0.68197 0.12085 0.0
Mg499 Mg 0.16127 0.77828 0.15281 0.0
Mg500 Mg 0.10384 0.85279 0.13747 0.0
O501 O 0.1157 0.79511 0.13859 0.0
Mg502 Mg 0.07163 0.75525 0.14545 0.0
O503 O 0.03142 0.71209 0.15281 0.0
Mg504 Mg 0.05686 0.66113 0.14298 0.0
Mg505 Mg 0.97295 0.71853 0.15251 0.0
C506 C 0.02517 0.81531 0.12029 0.0
O507 O 0.03741 0.80389 0.1601 0.0
O508 O 0.20456 0.82312 0.13949 0.0
O509 O 0.97038 0.7814 0.1627 0.0
O510 O 0.14585 0.8331 0.16963 0.0
O511 O 0.16402 0.872 0.12869 0.0
O512 O 0.0981 0.87589 0.15969 0.0
O513 O 0.10334 0.70543 0.13095 0.0
O514 O 0.17027 0.72334 0.13625 0.0
C515 C 0.14319 0.69943 0.12975 0.0
C516 C 0.20009 0.85542 0.13119 0.0
O517 O 0.03023 0.77902 0.1262 0.0
O518 O 0.01041 0.62147 0.15677 0.0
O519 O 0.0476 0.84754 0.12379 0.0
O520 O 0.00664 0.66218 0.12399 0.0
O521 O 0.9564 0.66202 0.16438 0.0
O522 O 0.95607 0.70883 0.12975 0.0
O523 O 0.11457 0.73403 0.16418 0.0
O524 O 0.10459 0.66445 0.16195 0.0
C525 C 0.12084 0.86472 0.1706 0.0
C526 C 0.99965 0.80864 0.16485 0.0
C527 C 0.65596 0.8375 0.41207 0.0
C528 C 0.7176 0.68404 0.40897 0.0
C529 C 0.65021 0.6791 0.36704 0.0
Mg530 Mg 0.57199 0.87614 0.39726 0.0
Mg531 Mg 0.49014 0.81754 0.38717 0.0
O532 O 0.54848 0.82553 0.3866 0.0
Mg533 Mg 0.58901 0.78212 0.39349 0.0
O534 O 0.63299 0.74191 0.40023 0.0
Mg535 Mg 0.68107 0.76342 0.38799 0.0
Mg536 Mg 0.6232 0.68351 0.39961 0.0
C537 C 0.51936 0.72951 0.37321 0.0
O538 O 0.54568 0.75343 0.4112 0.0
O539 O 0.52688 0.91543 0.38285 0.0
O540 O 0.56383 0.68466 0.41197 0.0
O541 O 0.51978 0.87479 0.4153 0.0
O542 O 0.47397 0.87383 0.37496 0.0
O543 O 0.47056 0.82694 0.40981 0.0
O544 O 0.63494 0.80729 0.37626 0.0
O545 O 0.62226 0.87599 0.37925 0.0
C546 C 0.64285 0.84572 0.37317 0.0
C547 C 0.4931 0.9094 0.37529 0.0
O548 O 0.55782 0.73556 0.37707 0.0
O549 O 0.72279 0.71778 0.40147 0.0
O550 O 0.48932 0.75476 0.37688 0.0
O551 O 0.67197 0.71215 0.3698 0.0
O552 O 0.68178 0.66574 0.40999 0.0
O553 O 0.62562 0.66354 0.37673 0.0
O554 O 0.61671 0.83063 0.40972 0.0
O555 O 0.6849 0.81533 0.40582 0.0
C556 C 0.48605 0.85487 0.41849 0.0
C557 C 0.54034 0.71581 0.41595 0.0
C558 C 0.64196 0.19032 0.66401 0.0
C559 C 0.48816 0.14278 0.66927 0.0
C560 C 0.47333 0.19067 0.62464 0.0
Mg561 Mg 0.68409 0.26544 0.64551 0.0
Mg562 Mg 0.63266 0.34418 0.63051 0.0
O563 O 0.63521 0.28649 0.63368 0.0
Mg564 Mg 0.5894 0.25374 0.64335 0.0
O565 O 0.5475 0.21689 0.65311 0.0
Mg566 Mg 0.56206 0.16186 0.64321 0.0
Mg567 Mg 0.49087 0.23133 0.65515 0.0
C568 C 0.54095 0.31836 0.61987 0.0
O569 O 0.56845 0.30662 0.65945 0.0
O570 O 0.72727 0.30117 0.62907 0.0
O571 O 0.49962 0.29485 0.66399 0.0
O572 O 0.68341 0.32454 0.66178 0.0
O573 O 0.68928 0.35073 0.61764 0.0
O574 O 0.64123 0.37256 0.65163 0.0
O575 O 0.60821 0.19867 0.62819 0.0
O576 O 0.67823 0.20913 0.62948 0.0
C577 C 0.64618 0.18815 0.62484 0.0
C578 C 0.72369 0.3304 0.61943 0.0
O579 O 0.54264 0.28233 0.62623 0.0
O580 O 0.517 0.13022 0.66024 0.0
O581 O 0.57049 0.34574 0.62091 0.0
O582 O 0.50595 0.16751 0.62652 0.0
O583 O 0.47459 0.18073 0.66973 0.0
O584 O 0.46331 0.21979 0.63387 0.0
O585 O 0.63712 0.22862 0.65993 0.0
O586 O 0.61692 0.16107 0.6596 0.0
C587 C 0.66456 0.36034 0.66222 0.0
C588 C 0.53314 0.31708 0.66538 0.0
C589 C 0.16282 0.31269 0.91299 0.0
C590 C 0.22731 0.16037 0.91135 0.0
C591 C 0.16344 0.15126 0.86902 0.0
Mg592 Mg 0.07677 0.3482 0.8972 0.0
Mg593 Mg 0.99769 0.28278 0.89167 0.0
O594 O 0.05441 0.29505 0.88789 0.0
Mg595 Mg 0.09679 0.25404 0.89499 0.0
O596 O 0.14213 0.21542 0.90191 0.0
Mg597 Mg 0.18981 0.23748 0.88962 0.0
Mg598 Mg 0.13389 0.15675 0.90126 0.0
C599 C 0.0268 0.19675 0.87671 0.0
O600 O 0.0542 0.2256 0.91294 0.0
O601 O 0.02663 0.38272 0.88256 0.0
O602 O 0.07341 0.15704 0.91295 0.0
O603 O 0.02768 0.3482 0.91598 0.0
O604 O 0.97445 0.33538 0.87951 0.0
O605 O 0.98202 0.29531 0.9146 0.0
O606 O 0.14181 0.27863 0.87731 0.0
O607 O 0.12577 0.34705 0.87875 0.0
C608 C 0.14784 0.31675 0.87339 0.0
C609 C 0.99049 0.37177 0.8773 0.0
O610 O 0.0657 0.20505 0.8794 0.0
O611 O 0.2324 0.19429 0.90395 0.0
O612 O 0.99654 0.22002 0.88158 0.0
O613 O 0.18363 0.18525 0.87174 0.0
O614 O 0.1922 0.14072 0.91201 0.0
O615 O 0.13884 0.13525 0.8786 0.0
O616 O 0.1237 0.30577 0.91032 0.0
O617 O 0.19165 0.28992 0.90699 0.0
C618 C 0.99652 0.32786 0.92124 0.0
C619 C 0.04908 0.18739 0.91712 0.0
H620 H 0.33175 0.86201 0.4887 0.0
H621 H 0.28753 0.98156 0.47152 0.0
H622 H 0.33972 0.97686 0.45161 0.0
H623 H 0.4394 0.87177 0.48005 0.0
H624 H 0.44668 0.81831 0.4737 0.0
H625 H 0.40681 0.83045 0.48729 0.0
H626 H 0.34978 0.79661 0.47062 0.0
H627 H 0.38925 0.78339 0.457 0.0
H628 H 0.34389 0.81377 0.45174 0.0
H629 H 0.39997 0.963 0.43485 0.0
H630 H 0.45505 0.93306 0.41854 0.0
H631 H 0.45295 0.81754 0.44346 0.0
C632 C 0.33223 0.88698 0.48066 0.0
C633 C 0.30603 0.923 0.48221 0.0
C634 C 0.3083 0.9546 0.47123 0.0
C635 C 0.33769 0.9521 0.45971 0.0
C636 C 0.36379 0.91709 0.45889 0.0
C637 C 0.36045 0.88434 0.46871 0.0
C638 C 0.39082 0.84907 0.46465 0.0
C639 C 0.42281 0.842 0.47717 0.0
C640 C 0.36701 0.80831 0.46077 0.0
C641 C 0.41179 0.86747 0.45106 0.0
C642 C 0.39633 0.90721 0.44823 0.0
C643 C 0.41197 0.93169 0.4368 0.0
C644 C 0.44345 0.91462 0.42771 0.0
C645 C 0.45821 0.87319 0.42988 0.0
C646 C 0.44228 0.8493 0.4417 0.0
H647 H 0.36951 0.94202 0.70151 0.0
H648 H 0.39926 0.99105 0.74539 0.0
H649 H 0.43814 0.04988 0.73418 0.0
H650 H 0.47163 0.96922 0.68477 0.0
H651 H 0.44862 0.98238 0.66714 0.0
H652 H 0.42424 0.9433 0.67861 0.0
H653 H 0.35429 0.9851 0.67799 0.0
H654 H 0.3785 0.02442 0.66661 0.0
H655 H 0.35377 0.03951 0.68388 0.0
H656 H 0.46704 0.10668 0.71846 0.0
H657 H 0.49199 0.15455 0.69892 0.0
H658 H 0.4496 0.06636 0.66504 0.0
C659 C 0.3847 0.96496 0.70869 0.0
C660 C 0.38165 0.96215 0.72428 0.0
C661 C 0.40174 0.99257 0.73341 0.0
C662 C 0.42367 0.02612 0.72716 0.0
C663 C 0.42578 0.02834 0.71175 0.0
C664 C 0.40756 0.99825 0.70261 0.0
C665 C 0.41481 0.00819 0.68639 0.0
C666 C 0.44142 0.97372 0.67878 0.0
C667 C 0.37284 0.0147 0.67824 0.0
C668 C 0.4391 0.04904 0.68787 0.0
C669 C 0.44468 0.0602 0.70262 0.0
C670 C 0.46358 0.09797 0.70687 0.0
C671 C 0.47744 0.12497 0.69574 0.0
C672 C 0.47299 0.11369 0.6806 0.0
C673 C 0.45387 0.07517 0.67659 0.0
H674 H 0.36974 0.15396 0.98319 0.0
H675 H 0.41167 0.02992 0.96866 0.0
H676 H 0.37189 0.03777 0.94544 0.0
H677 H 0.26828 0.1494 0.96918 0.0
H678 H 0.26634 0.2032 0.96315 0.0
H679 H 0.29998 0.18894 0.97832 0.0
H680 H 0.36416 0.21999 0.96455 0.0
H681 H 0.33058 0.23447 0.94934 0.0
H682 H 0.37619 0.20198 0.94597 0.0
H683 H 0.32076 0.05539 0.92527 0.0
H684 H 0.26641 0.08466 0.90858 0.0
H685 H 0.26432 0.19987 0.93475 0.0
C686 C 0.37162 0.12879 0.97501 0.0
C687 C 0.39363 0.09107 0.97795 0.0
C688 C 0.39428 0.05872 0.96694 0.0
C689 C 0.37213 0.06303 0.9536 0.0
C690 C 0.35021 0.10026 0.95123 0.0
C691 C 0.3504 0.1329 0.96151 0.0
C692 C 0.3234 0.16924 0.9564 0.0
C693 C 0.28737 0.17818 0.96742 0.0
C694 C 0.35019 0.20876 0.95392 0.0
C695 C 0.30704 0.15139 0.94186 0.0
C696 C 0.32279 0.11148 0.9391 0.0
C697 C 0.30906 0.08701 0.92709 0.0
C698 C 0.27827 0.10374 0.9177 0.0
C699 C 0.26233 0.14467 0.92028 0.0
C700 C 0.27722 0.16896 0.93236 0.0
H701 H 0.23831 0.98721 0.23482 0.0
H702 H 0.14047 0.08199 0.23206 0.0
H703 H 0.09799 0.03364 0.21648 0.0
H704 H 0.23527 0.95626 0.19845 0.0
H705 H 0.24479 0.90116 0.20152 0.0
H706 H 0.26345 0.93963 0.21471 0.0
H707 H 0.22294 0.90212 0.23572 0.0
H708 H 0.2041 0.86341 0.22252 0.0
H709 H 0.16727 0.89286 0.23378 0.0
H710 H 0.07197 0.98026 0.19796 0.0
H711 H 0.06475 0.92674 0.17813 0.0
H712 H 0.17926 0.8662 0.193 0.0
C713 C 0.20761 0.99756 0.23115 0.0
C714 C 0.19273 0.03843 0.23465 0.0
C715 C 0.15232 0.05067 0.22969 0.0
C716 C 0.12798 0.02341 0.22082 0.0
C717 C 0.14426 0.98383 0.21718 0.0
C718 C 0.18301 0.97078 0.22232 0.0
C719 C 0.19536 0.92858 0.21563 0.0
C720 C 0.23716 0.93163 0.20707 0.0
C721 C 0.19753 0.89474 0.22763 0.0
C722 C 0.15861 0.92096 0.20528 0.0
C723 C 0.12906 0.95278 0.20655 0.0
C724 C 0.09449 0.95479 0.19709 0.0
C725 C 0.09062 0.92415 0.18585 0.0
C726 C 0.1212 0.89198 0.18407 0.0
C727 C 0.15488 0.8898 0.19424 0.0
H728 H 0.3567 0.03337 0.5694 0.0
H729 H 0.24787 0.11564 0.57348 0.0
H730 H 0.29135 0.16809 0.58661 0.0
H731 H 0.39281 0.05205 0.60585 0.0
H732 H 0.44778 0.04902 0.60104 0.0
H733 H 0.40963 0.02062 0.59013 0.0
H734 H 0.43641 0.0577 0.56648 0.0
H735 H 0.47435 0.08663 0.57739 0.0
H736 H 0.43733 0.11435 0.56595 0.0
H737 H 0.3452 0.20998 0.6006 0.0
H738 H 0.40245 0.23427 0.61695 0.0
H739 H 0.47485 0.12256 0.60543 0.0
C740 C 0.34171 0.06227 0.57305 0.0
C741 C 0.29863 0.07021 0.57017 0.0
C742 C 0.28089 0.10891 0.57511 0.0
C743 C 0.30536 0.139 0.58266 0.0
C744 C 0.34754 0.12997 0.5853 0.0
C745 C 0.36545 0.09234 0.58081 0.0
C746 C 0.41033 0.08862 0.5863 0.0
C747 C 0.41541 0.05032 0.59643 0.0
C748 C 0.44144 0.08672 0.57325 0.0
C749 C 0.41448 0.12959 0.59494 0.0
C750 C 0.37822 0.1534 0.59392 0.0
C751 C 0.3738 0.19167 0.60145 0.0
C752 C 0.40659 0.20519 0.61072 0.0
C753 C 0.44319 0.18024 0.61258 0.0
C754 C 0.44754 0.14258 0.60419 0.0
H755 H 0.18196 0.95188 0.81454 0.0
H756 H 0.25704 0.03052 0.78592 0.0
H757 H 0.24099 0.09243 0.80183 0.0
H758 H 0.10211 0.03157 0.8241 0.0
H759 H 0.09752 0.01574 0.84319 0.0
H760 H 0.11095 0.97752 0.82899 0.0
H761 H 0.1789 0.95743 0.84291 0.0
H762 H 0.1657 0.99444 0.85746 0.0
H763 H 0.21576 0.99801 0.84817 0.0
H764 H 0.22182 0.14404 0.82159 0.0
H765 H 0.20294 0.18228 0.84457 0.0
H766 H 0.14089 0.07044 0.86098 0.0
C767 C 0.19419 0.98239 0.81153 0.0
C768 C 0.22035 0.98687 0.799 0.0
C769 C 0.23676 0.02683 0.79548 0.0
C770 C 0.22771 0.06206 0.8044 0.0
C771 C 0.20236 0.05667 0.81684 0.0
C772 C 0.18589 0.01789 0.82046 0.0
C773 C 0.16224 0.02028 0.83507 0.0
C774 C 0.11538 0.01068 0.83271 0.0
C775 C 0.18184 0.9908 0.84658 0.0
C776 C 0.16898 0.06614 0.83925 0.0
C777 C 0.1917 0.0866 0.82845 0.0
C778 C 0.2037 0.1285 0.83007 0.0
C779 C 0.1929 0.14992 0.84321 0.0
C780 C 0.1705 0.12938 0.85462 0.0
C781 C 0.15772 0.08714 0.85243 0.0
H782 H 0.32557 0.01503 0.07999 0.0
H783 H 0.4317 0.92908 0.08208 0.0
H784 H 0.39261 0.88525 0.0997 0.0
H785 H 0.29142 0.00598 0.11827 0.0
H786 H 0.23636 0.0073 0.11354 0.0
H787 H 0.27409 0.03409 0.10213 0.0
H788 H 0.24789 0.99234 0.07903 0.0
H789 H 0.21008 0.96549 0.09036 0.0
H790 H 0.24732 0.93566 0.07939 0.0
H791 H 0.34082 0.84888 0.11623 0.0
H792 H 0.27938 0.82149 0.12973 0.0
H793 H 0.20589 0.92922 0.11576 0.0
C794 C 0.34073 0.987 0.08409 0.0
C795 C 0.382 0.97584 0.07965 0.0
C796 C 0.40056 0.93899 0.0855 0.0
C797 C 0.37849 0.91367 0.09547 0.0
C798 C 0.33778 0.92541 0.09945 0.0
C799 C 0.31902 0.96112 0.09392 0.0
C800 C 0.27412 0.96554 0.09933 0.0
C801 C 0.2687 0.0056 0.10889 0.0
C802 C 0.24303 0.96469 0.08625 0.0
C803 C 0.27037 0.92637 0.10861 0.0
C804 C 0.30758 0.90391 0.10868 0.0
C805 C 0.31156 0.86628 0.11631 0.0
C806 C 0.27644 0.85101 0.12396 0.0
C807 C 0.23769 0.87312 0.12381 0.0
C808 C 0.23496 0.91148 0.1161 0.0
H809 H 0.3527 0.01711 0.31284 0.0
H810 H 0.43074 0.12813 0.3182 0.0
H811 H 0.46936 0.09368 0.33851 0.0
H812 H 0.34618 0.99084 0.35208 0.0
H813 H 0.34885 0.93497 0.34853 0.0
H814 H 0.326 0.96916 0.33492 0.0
H815 H 0.37797 0.94033 0.31508 0.0
H816 H 0.40097 0.9061 0.32862 0.0
H817 H 0.43371 0.94242 0.31867 0.0
H818 H 0.50072 0.04662 0.35758 0.0
H819 H 0.52433 0.98949 0.37378 0.0
H820 H 0.42591 0.90865 0.35597 0.0
C821 C 0.3775 0.03438 0.31845 0.0
C822 C 0.38871 0.07532 0.314 0.0
C823 C 0.4219 0.09662 0.32138 0.0
C824 C 0.4438 0.07743 0.33297 0.0
C825 C 0.43214 0.03694 0.33702 0.0
C826 C 0.39983 0.01561 0.32998 0.0
C827 C 0.39476 0.9717 0.33606 0.0
C828 C 0.35137 0.96638 0.34333 0.0
C829 C 0.40232 0.93817 0.32388 0.0
C830 C 0.42955 0.97155 0.34753 0.0
C831 C 0.45051 0.0096 0.34796 0.0
C832 C 0.48444 0.01674 0.3574 0.0
C833 C 0.49762 0.984 0.36656 0.0
C834 C 0.47701 0.94444 0.36619 0.0
C835 C 0.44225 0.93848 0.35661 0.0
H836 H 0.78494 0.0734 0.56477 0.0
H837 H 0.76154 0.95709 0.58814 0.0
H838 H 0.70775 0.99324 0.60341 0.0
H839 H 0.78185 0.13809 0.59663 0.0
H840 H 0.75823 0.18199 0.58729 0.0
H841 H 0.79038 0.14524 0.57705 0.0
H842 H 0.72874 0.13223 0.5587 0.0
H843 H 0.69616 0.1685 0.56909 0.0
H844 H 0.67848 0.11539 0.56571 0.0
H845 H 0.65942 0.04391 0.61737 0.0
H846 H 0.628 0.10581 0.63038 0.0
H847 H 0.68733 0.18832 0.59882 0.0
C848 C 0.7688 0.05531 0.57311 0.0
C849 C 0.77762 0.01217 0.57513 0.0
C850 C 0.75497 0.98992 0.5861 0.0
C851 C 0.72432 0.01021 0.59487 0.0
C852 C 0.71665 0.05281 0.59258 0.0
C853 C 0.73866 0.07512 0.58206 0.0
C854 C 0.7277 0.12137 0.58265 0.0
C855 C 0.76686 0.14823 0.58612 0.0
C856 C 0.7065 0.13516 0.56818 0.0
C857 C 0.69689 0.12189 0.59543 0.0
C858 C 0.69001 0.08197 0.60082 0.0
C859 C 0.66417 0.07521 0.61312 0.0
C860 C 0.64618 0.11035 0.62036 0.0
C861 C 0.65484 0.15136 0.61535 0.0
C862 C 0.67965 0.15702 0.60259 0.0
H863 H 0.78791 0.00659 0.3308 0.0
H864 H 0.81322 0.90852 0.29811 0.0
H865 H 0.77482 0.85734 0.31355 0.0
H866 H 0.79529 0.94061 0.36396 0.0
H867 H 0.75279 0.96809 0.37312 0.0
H868 H 0.786 0.99541 0.36022 0.0
H869 H 0.72035 0.01698 0.34503 0.0
H870 H 0.68702 0.98981 0.35785 0.0
H871 H 0.68486 0.97682 0.33834 0.0
H872 H 0.72973 0.81789 0.33221 0.0
H873 H 0.67873 0.79556 0.3514 0.0
H874 H 0.68315 0.92068 0.37117 0.0
C875 C 0.78624 0.97412 0.32706 0.0
C876 C 0.8038 0.96138 0.31335 0.0
C877 C 0.79988 0.91889 0.3086 0.0
C878 C 0.77841 0.88958 0.31733 0.0
C879 C 0.76106 0.90334 0.33076 0.0
C880 C 0.76474 0.94469 0.33556 0.0
C881 C 0.74062 0.95255 0.34977 0.0
C882 C 0.77046 0.96488 0.36252 0.0
C883 C 0.70618 0.986 0.34761 0.0
C884 C 0.72198 0.90945 0.35208 0.0
C885 C 0.73454 0.88117 0.34118 0.0
C886 C 0.71992 0.83974 0.34085 0.0
C887 C 0.69108 0.82729 0.35179 0.0
C888 C 0.67683 0.85645 0.3627 0.0
C889 C 0.69326 0.89769 0.36293 0.0
H890 H 0.86396 0.93881 0.06922 0.0
H891 H 0.86607 0.83047 0.03931 0.0
H892 H 0.91051 0.79242 0.05704 0.0
H893 H 0.97149 0.93218 0.07941 0.0
H894 H 0.96294 0.94895 0.09836 0.0
H895 H 0.92786 0.96622 0.084 0.0
H896 H 0.86446 0.93628 0.09854 0.0
H897 H 0.89941 0.9188 0.11294 0.0
H898 H 0.86472 0.88181 0.10385 0.0
H899 H 0.95728 0.76702 0.07754 0.0
H900 H 0.00505 0.75742 0.0989 0.0
H901 H 0.97627 0.88384 0.11448 0.0
C902 C 0.87376 0.90715 0.06632 0.0
C903 C 0.86101 0.88768 0.05285 0.0
C904 C 0.87441 0.84592 0.04967 0.0
C905 C 0.89995 0.82405 0.05964 0.0
C906 C 0.91215 0.84438 0.07272 0.0
C907 C 0.89967 0.88505 0.07604 0.0
C908 C 0.91901 0.90057 0.09046 0.0
C909 C 0.94699 0.93926 0.08789 0.0
C910 C 0.88485 0.90991 0.10213 0.0
C911 C 0.94487 0.8625 0.09459 0.0
C912 C 0.94003 0.8302 0.08432 0.0
C913 C 0.96117 0.79202 0.08568 0.0
C914 C 0.98805 0.78678 0.09786 0.0
C915 C 0.99403 0.81981 0.10832 0.0
C916 C 0.97208 0.85806 0.10665 0.0
H917 H 0.87348 0.04799 0.83034 0.0
H918 H 0.98358 0.00096 0.80689 0.0
H919 H 0.02903 0.04241 0.82369 0.0
H920 H 0.90851 0.15005 0.8358 0.0
H921 H 0.88662 0.15697 0.85412 0.0
H922 H 0.86272 0.12059 0.84122 0.0
H923 H 0.87069 0.06054 0.8602 0.0
H924 H 0.89444 0.09686 0.87323 0.0
H925 H 0.92174 0.0493 0.8679 0.0
H926 H 0.06218 0.09397 0.84132 0.0
H927 H 0.08008 0.15142 0.85878 0.0
H928 H 0.9491 0.16164 0.87179 0.0
C929 C 0.90721 0.04533 0.829 0.0
C930 C 0.92491 0.02118 0.81727 0.0
C931 C 0.96922 0.01958 0.81568 0.0
C932 C 0.99538 0.04265 0.82527 0.0
C933 C 0.97689 0.06665 0.83654 0.0
C934 C 0.93383 0.06786 0.83855 0.0
C935 C 0.92176 0.09817 0.85094 0.0
C936 C 0.89323 0.13353 0.84517 0.0
C937 C 0.90093 0.07481 0.86383 0.0
C938 C 0.96469 0.1147 0.85529 0.0
C939 C 0.9961 0.09587 0.84693 0.0
C940 C 0.03799 0.10812 0.84822 0.0
C941 C 0.04796 0.1406 0.85826 0.0
C942 C 0.01633 0.16035 0.86697 0.0
C943 C 0.97419 0.14682 0.86548 0.0
H944 H 0.75219 0.88638 0.48983 0.0
H945 H 0.82693 0.98266 0.46873 0.0
H946 H 0.78212 0.97711 0.44634 0.0
H947 H 0.74226 0.82149 0.45938 0.0
H948 H 0.68911 0.80509 0.46315 0.0
H949 H 0.72253 0.82189 0.47815 0.0
H950 H 0.66704 0.87774 0.48602 0.0
H951 H 0.63355 0.86125 0.47088 0.0
H952 H 0.64907 0.91558 0.4727 0.0
H953 H 0.73783 0.95213 0.42502 0.0
H954 H 0.69761 0.90988 0.40663 0.0
H955 H 0.64933 0.83235 0.44184 0.0
C956 C 0.7587 0.90676 0.48057 0.0
C957 C 0.79304 0.93489 0.48096 0.0
C958 C 0.80052 0.96117 0.46868 0.0
C959 C 0.7752 0.95827 0.45595 0.0
C960 C 0.74208 0.92951 0.45581 0.0
C961 C 0.73355 0.9045 0.46787 0.0
C962 C 0.69875 0.8734 0.46448 0.0
C963 C 0.7141 0.8278 0.46639 0.0
C964 C 0.65979 0.88256 0.47409 0.0
C965 C 0.69045 0.88324 0.44836 0.0
C966 C 0.71531 0.91617 0.44361 0.0
C967 C 0.71719 0.92732 0.4287 0.0
C968 C 0.69418 0.90337 0.41835 0.0
C969 C 0.6694 0.86914 0.42301 0.0
C970 C 0.66654 0.85974 0.4382 0.0
H971 H 0.95834 0.94777 0.23728 0.0
H972 H 0.93429 0.05323 0.20843 0.0
H973 H 0.95212 0.00872 0.18656 0.0
H974 H 0.04584 0.90141 0.21605 0.0
H975 H 0.02917 0.84834 0.21952 0.0
H976 H 0.01829 0.88948 0.23293 0.0
H977 H 0.93904 0.87131 0.23194 0.0
H978 H 0.9494 0.83023 0.2185 0.0
H979 H 0.91209 0.87114 0.21434 0.0
H980 H 0.96898 0.95158 0.16781 0.0
H981 H 0.98408 0.88579 0.15362 0.0
H982 H 0.99462 0.8177 0.19476 0.0
C983 C 0.95784 0.96177 0.22638 0.0
C984 C 0.94529 0.00398 0.22451 0.0
C985 C 0.94382 0.0209 0.21006 0.0
C986 C 0.95402 0.99594 0.19761 0.0
C987 C 0.96545 0.95415 0.19983 0.0
C988 C 0.96756 0.93723 0.21386 0.0
C989 C 0.97813 0.89081 0.2132 0.0
C990 C 0.02036 0.88201 0.22087 0.0
C991 C 0.94253 0.86433 0.21989 0.0
C992 C 0.98116 0.88411 0.19658 0.0
C993 C 0.97403 0.92107 0.18905 0.0
C994 C 0.97462 0.9225 0.17359 0.0
C995 C 0.98303 0.88517 0.16564 0.0
C996 C 0.98989 0.84717 0.17321 0.0
C997 C 0.98904 0.84657 0.18882 0.0
H998 H 0.88201 0.03989 0.95625 0.0
H999 H 0.86104 0.14111 0.98833 0.0
H1000 H 0.90711 0.18719 0.9738 0.0
H1001 H 0.99094 0.05876 0.95245 0.0
H1002 H 0.99254 0.04489 0.933 0.0
H1003 H 0.95366 0.02163 0.94485 0.0
H1004 H 0.89453 0.04812 0.9275 0.0
H1005 H 0.93327 0.07161 0.9156 0.0
H1006 H 0.89133 0.1033 0.92327 0.0
H1007 H 0.95806 0.22165 0.95619 0.0
H1008 H 0.01354 0.23956 0.93806 0.0
H1009 H 0.00591 0.11356 0.91918 0.0
C1010 C 0.88707 0.0716 0.96036 0.0
C1011 C 0.86732 0.08662 0.97348 0.0
C1012 C 0.87472 0.12881 0.97817 0.0
C1013 C 0.90115 0.15529 0.97003 0.0
C1014 C 0.92044 0.13911 0.9573 0.0
C1015 C 0.91399 0.09812 0.95258 0.0
C1016 C 0.94084 0.08729 0.93919 0.0
C1017 C 0.9713 0.05101 0.94258 0.0
C1018 C 0.91334 0.07698 0.92559 0.0
C1019 C 0.96402 0.12836 0.93728 0.0
C1020 C 0.95122 0.15819 0.94763 0.0
C1021 C 0.9683 0.19856 0.94802 0.0
C1022 C 0.99967 0.20847 0.93767 0.0
C1023 C 0.01411 0.17784 0.92731 0.0
C1024 C 0.99572 0.13746 0.92708 0.0
H1025 H 0.76049 0.02331 0.71234 0.0
H1026 H 0.78491 0.12329 0.7443 0.0
H1027 H 0.76075 0.17587 0.72615 0.0
H1028 H 0.78706 0.08313 0.67809 0.0
H1029 H 0.74464 0.05892 0.66785 0.0
H1030 H 0.77083 0.03031 0.68232 0.0
H1031 H 0.69918 0.01808 0.69532 0.0
H1032 H 0.67291 0.0465 0.68093 0.0
H1033 H 0.66654 0.06269 0.70004 0.0
H1034 H 0.72663 0.21661 0.70541 0.0
H1035 H 0.68079 0.24062 0.68494 0.0
H1036 H 0.67743 0.11329 0.66712 0.0
C1037 C 0.762 0.05639 0.71532 0.0
C1038 C 0.77495 0.0694 0.72961 0.0
C1039 C 0.77517 0.11282 0.73335 0.0
C1040 C 0.76181 0.14286 0.72308 0.0
C1041 C 0.74832 0.12893 0.70914 0.0
C1042 C 0.74831 0.08665 0.70528 0.0
C1043 C 0.72763 0.0792 0.69037 0.0
C1044 C 0.75945 0.06187 0.67899 0.0
C1045 C 0.6893 0.04992 0.69176 0.0
C1046 C 0.71458 0.12362 0.6867 0.0
C1047 C 0.72762 0.15212 0.69745 0.0
C1048 C 0.71675 0.19465 0.69683 0.0
C1049 C 0.69083 0.20807 0.68516 0.0
C1050 C 0.67555 0.17878 0.67451 0.0
C1051 C 0.68871 0.1364 0.67511 0.0
H1052 H 0.81673 0.35396 0.9831 0.0
H1053 H 0.81428 0.48585 0.97051 0.0
H1054 H 0.87438 0.47352 0.9542 0.0
H1055 H 0.92668 0.33487 0.98094 0.0
H1056 H 0.92233 0.28418 0.97187 0.0
H1057 H 0.88074 0.30283 0.98386 0.0
H1058 H 0.8267 0.29323 0.96259 0.0
H1059 H 0.86807 0.27375 0.95069 0.0
H1060 H 0.83633 0.31768 0.94497 0.0
H1061 H 0.9376 0.44948 0.94084 0.0
H1062 H 0.98932 0.41164 0.92554 0.0
H1063 H 0.94393 0.29259 0.9424 0.0
C1064 C 0.82805 0.38037 0.97682 0.0
C1065 C 0.81117 0.42153 0.97884 0.0
C1066 C 0.82757 0.45455 0.97009 0.0
C1067 C 0.8617 0.44785 0.96058 0.0
C1068 C 0.87834 0.40755 0.95936 0.0
C1069 C 0.86116 0.37395 0.96673 0.0
C1070 C 0.88283 0.33307 0.96216 0.0
C1071 C 0.90443 0.31254 0.97551 0.0
C1072 C 0.85162 0.30264 0.95465 0.0
C1073 C 0.91498 0.34933 0.95117 0.0
C1074 C 0.91243 0.39259 0.95016 0.0
C1075 C 0.9396 0.41554 0.94133 0.0
C1076 C 0.9692 0.39366 0.93279 0.0
C1077 C 0.97073 0.34908 0.93276 0.0
C1078 C 0.94354 0.32661 0.94223 0.0
H1079 H 0.8166 0.50668 0.2174 0.0
H1080 H 0.89655 0.39668 0.21245 0.0
H1081 H 0.94186 0.43536 0.19503 0.0
H1082 H 0.82428 0.54166 0.17893 0.0
H1083 H 0.82512 0.59657 0.18416 0.0
H1084 H 0.79768 0.55937 0.19555 0.0
H1085 H 0.84154 0.5836 0.21834 0.0
H1086 H 0.86928 0.62065 0.20701 0.0
H1087 H 0.89815 0.58199 0.21734 0.0
H1088 H 0.97992 0.48664 0.17907 0.0
H1089 H 0.00835 0.54695 0.16546 0.0
H1090 H 0.90358 0.62394 0.18082 0.0
C1091 C 0.84319 0.4905 0.21243 0.0
C1092 C 0.85305 0.44865 0.21623 0.0
C1093 C 0.88863 0.42883 0.20975 0.0
C1094 C 0.9144 0.45045 0.1998 0.0
C1095 C 0.90414 0.49186 0.19646 0.0
C1096 C 0.86935 0.51169 0.20253 0.0
C1097 C 0.86629 0.5569 0.19754 0.0
C1098 C 0.82595 0.56403 0.18851 0.0
C1099 C 0.86899 0.58758 0.21085 0.0
C1100 C 0.90507 0.55952 0.18783 0.0
C1101 C 0.9263 0.5216 0.18731 0.0
C1102 C 0.96346 0.51645 0.17932 0.0
C1103 C 0.97938 0.55101 0.17164 0.0
C1104 C 0.95825 0.59033 0.17203 0.0
C1105 C 0.9205 0.59439 0.18024 0.0
H1106 H 0.8363 0.52428 0.46224 0.0
H1107 H 0.94588 0.60494 0.4593 0.0
H1108 H 0.90736 0.65151 0.44225 0.0
H1109 H 0.80344 0.53317 0.42398 0.0
H1110 H 0.7482 0.53364 0.42847 0.0
H1111 H 0.78474 0.50631 0.44019 0.0
H1112 H 0.75878 0.54988 0.46294 0.0
H1113 H 0.72216 0.57731 0.45129 0.0
H1114 H 0.75975 0.60652 0.46226 0.0
H1115 H 0.85677 0.68931 0.42565 0.0
H1116 H 0.79709 0.71701 0.41128 0.0
H1117 H 0.72049 0.61152 0.42522 0.0
C1118 C 0.85232 0.5515 0.45788 0.0
C1119 C 0.89408 0.56101 0.46205 0.0
C1120 C 0.91376 0.59732 0.45633 0.0
C1121 C 0.89224 0.62379 0.44659 0.0
C1122 C 0.85107 0.61352 0.44271 0.0
C1123 C 0.83126 0.57833 0.44821 0.0
C1124 C 0.78651 0.57495 0.44261 0.0
C1125 C 0.78038 0.53463 0.43326 0.0
C1126 C 0.75495 0.57732 0.45555 0.0
C1127 C 0.78421 0.61379 0.43312 0.0
C1128 C 0.82182 0.6355 0.43327 0.0
C1129 C 0.82717 0.67255 0.42542 0.0
C1130 C 0.79305 0.688 0.41728 0.0
C1131 C 0.75399 0.66649 0.41709 0.0
C1132 C 0.74983 0.62876 0.42509 0.0
H1133 H 0.79299 0.4781 0.72656 0.0
H1134 H 0.70184 0.5793 0.72269 0.0
H1135 H 0.65961 0.53527 0.70573 0.0
H1136 H 0.79163 0.44812 0.68888 0.0
H1137 H 0.79697 0.39251 0.69205 0.0
H1138 H 0.8177 0.42975 0.70534 0.0
H1139 H 0.77367 0.39531 0.72611 0.0
H1140 H 0.75269 0.35796 0.71284 0.0
H1141 H 0.71757 0.39014 0.72386 0.0
H1142 H 0.63092 0.48432 0.68755 0.0
H1143 H 0.61745 0.4296 0.66874 0.0
H1144 H 0.72686 0.36008 0.68375 0.0
C1145 C 0.76406 0.49099 0.72221 0.0
C1146 C 0.75067 0.53221 0.7261 0.0
C1147 C 0.71244 0.54763 0.72018 0.0
C1148 C 0.68824 0.52288 0.71048 0.0
C1149 C 0.70256 0.48268 0.70678 0.0
C1150 C 0.73951 0.46671 0.71244 0.0
C1151 C 0.74904 0.42353 0.70584 0.0
C1152 C 0.79133 0.4235 0.69753 0.0
C1153 C 0.74818 0.38974 0.71788 0.0
C1154 C 0.71235 0.41842 0.69523 0.0
C1155 C 0.68576 0.45281 0.69614 0.0
C1156 C 0.65121 0.45702 0.68685 0.0
C1157 C 0.64397 0.42569 0.67614 0.0
C1158 C 0.67092 0.39022 0.6748 0.0
C1159 C 0.70521 0.3863 0.68467 0.0
H1160 H 0.84224 0.5148 0.07465 0.0
H1161 H 0.77591 0.61919 0.05442 0.0
H1162 H 0.82297 0.66882 0.06725 0.0
H1163 H 0.86277 0.56132 0.10911 0.0
H1164 H 0.91501 0.53994 0.11091 0.0
H1165 H 0.87634 0.51241 0.09995 0.0
H1166 H 0.9266 0.51322 0.07729 0.0
H1167 H 0.96542 0.54098 0.0882 0.0
H1168 H 0.94728 0.5626 0.07095 0.0
H1169 H 0.87138 0.70723 0.0847 0.0
H1170 H 0.92114 0.73091 0.10409 0.0
H1171 H 0.96407 0.60267 0.10948 0.0
C1172 C 0.83787 0.54794 0.07258 0.0
C1173 C 0.80448 0.56262 0.0636 0.0
C1174 C 0.80005 0.60666 0.06158 0.0
C1175 C 0.82712 0.63531 0.06866 0.0
C1176 C 0.8594 0.61964 0.07742 0.0
C1177 C 0.86535 0.57699 0.0792 0.0
C1178 C 0.90232 0.56839 0.08933 0.0
C1179 C 0.88825 0.5441 0.10314 0.0
C1180 C 0.93749 0.54491 0.08094 0.0
C1181 C 0.9154 0.61294 0.09331 0.0
C1182 C 0.89005 0.64206 0.08638 0.0
C1183 C 0.89249 0.68488 0.08977 0.0
C1184 C 0.92111 0.69816 0.10069 0.0
C1185 C 0.94793 0.66898 0.10771 0.0
C1186 C 0.94544 0.62593 0.10375 0.0
H1187 H 0.66438 0.47576 0.31483 0.0
H1188 H 0.74999 0.54716 0.28741 0.0
H1189 H 0.73379 0.61132 0.30199 0.0
H1190 H 0.5865 0.56233 0.32098 0.0
H1191 H 0.5768 0.5479 0.33994 0.0
H1192 H 0.5906 0.50808 0.32635 0.0
H1193 H 0.65339 0.4844 0.34253 0.0
H1194 H 0.63961 0.52351 0.3563 0.0
H1195 H 0.69181 0.52272 0.34848 0.0
H1196 H 0.71389 0.66579 0.32063 0.0
H1197 H 0.69435 0.70657 0.34299 0.0
H1198 H 0.62149 0.60056 0.35872 0.0
C1199 C 0.67896 0.50514 0.31174 0.0
C1200 C 0.7085 0.50656 0.30002 0.0
C1201 C 0.72759 0.54535 0.29644 0.0
C1202 C 0.71828 0.58203 0.30456 0.0
C1203 C 0.68961 0.57951 0.31619 0.0
C1204 C 0.67014 0.54215 0.3198 0.0
C1205 C 0.64332 0.5475 0.33364 0.0
C1206 C 0.59652 0.54105 0.33001 0.0
C1207 C 0.65793 0.51778 0.34596 0.0
C1208 C 0.65235 0.59312 0.33757 0.0
C1209 C 0.67837 0.61118 0.32716 0.0
C1210 C 0.69312 0.6522 0.32878 0.0
C1211 C 0.68191 0.67507 0.34156 0.0
C1212 C 0.65649 0.65677 0.35267 0.0
C1213 C 0.64069 0.6156 0.3504 0.0
H1214 H 0.83758 0.42761 0.54891 0.0
H1215 H 0.94662 0.35151 0.55957 0.0
H1216 H 0.90998 0.32521 0.58177 0.0
H1217 H 0.81102 0.45691 0.58677 0.0
H1218 H 0.75515 0.45439 0.58353 0.0
H1219 H 0.79023 0.46759 0.5686 0.0
H1220 H 0.75993 0.40634 0.55264 0.0
H1221 H 0.72472 0.39302 0.5675 0.0
H1222 H 0.75996 0.3538 0.55993 0.0
H1223 H 0.86092 0.30643 0.60259 0.0
H1224 H 0.80257 0.29525 0.62016 0.0
H1225 H 0.72627 0.38482 0.59602 0.0
C1226 C 0.85397 0.40577 0.55599 0.0
C1227 C 0.89498 0.3916 0.55249 0.0
C1228 C 0.91501 0.36241 0.56192 0.0
C1229 C 0.89459 0.34755 0.57462 0.0
C1230 C 0.85421 0.36223 0.57774 0.0
C1231 C 0.83411 0.39067 0.56869 0.0
C1232 C 0.79039 0.40084 0.57435 0.0
C1233 C 0.78649 0.44772 0.57856 0.0
C1234 C 0.75678 0.3877 0.56292 0.0
C1235 C 0.7889 0.37344 0.58794 0.0
C1236 C 0.82606 0.35155 0.58975 0.0
C1237 C 0.83173 0.32355 0.60134 0.0
C1238 C 0.79836 0.31744 0.61126 0.0
C1239 C 0.75976 0.33921 0.60952 0.0
C1240 C 0.75536 0.36786 0.59775 0.0
H1241 H 0.95193 0.56021 0.82071 0.0
H1242 H 0.82836 0.50523 0.81333 0.0
H1243 H 0.8415 0.45492 0.83312 0.0
H1244 H 0.0038 0.4622 0.82553 0.0
H1245 H 0.03972 0.48122 0.83955 0.0
H1246 H 0.01928 0.51674 0.82592 0.0
H1247 H 0.9915 0.56579 0.84692 0.0
H1248 H 0.01175 0.5303 0.86063 0.0
H1249 H 0.95695 0.54486 0.86086 0.0
H1250 H 0.86794 0.4083 0.85243 0.0
H1251 H 0.90821 0.36443 0.8695 0.0
H1252 H 0.01717 0.4452 0.86393 0.0
C1253 C 0.92753 0.53774 0.82326 0.0
C1254 C 0.88864 0.53764 0.81557 0.0
C1255 C 0.85779 0.50735 0.81932 0.0
C1256 C 0.86504 0.47824 0.83051 0.0
C1257 C 0.9035 0.47927 0.83781 0.0
C1258 C 0.93446 0.50788 0.83432 0.0
C1259 C 0.97414 0.49984 0.84323 0.0
C1260 C 0.01143 0.48937 0.83294 0.0
C1261 C 0.98416 0.53744 0.85352 0.0
C1262 C 0.96068 0.46178 0.85205 0.0
C1263 C 0.91959 0.451 0.84883 0.0
C1264 C 0.90011 0.41643 0.8551 0.0
C1265 C 0.92343 0.39162 0.86477 0.0
C1266 C 0.96602 0.40118 0.86804 0.0
C1267 C 0.98464 0.43722 0.86175 0.0
H1268 H 0.25191 0.61908 0.05658 0.0
H1269 H 0.31715 0.52746 0.08339 0.0
H1270 H 0.27063 0.54494 0.1046 0.0
H1271 H 0.24171 0.69609 0.08373 0.0
H1272 H 0.19012 0.71347 0.07822 0.0
H1273 H 0.22469 0.68959 0.06476 0.0
H1274 H 0.16749 0.63415 0.05842 0.0
H1275 H 0.13279 0.65778 0.072 0.0
H1276 H 0.14561 0.60265 0.073 0.0
H1277 H 0.22481 0.57985 0.12371 0.0
H1278 H 0.18256 0.62918 0.13916 0.0
H1279 H 0.14455 0.6956 0.09975 0.0
C1280 C 0.25601 0.60235 0.06687 0.0
C1281 C 0.28808 0.57195 0.06839 0.0
C1282 C 0.29248 0.55057 0.08198 0.0
C1283 C 0.26618 0.56026 0.09406 0.0
C1284 C 0.23521 0.59085 0.09226 0.0
C1285 C 0.22975 0.61131 0.07896 0.0
C1286 C 0.19623 0.64503 0.08021 0.0
C1287 C 0.21429 0.6886 0.07652 0.0
C1288 C 0.15828 0.63424 0.07032 0.0
C1289 C 0.18509 0.64179 0.09648 0.0
C1290 C 0.20753 0.60995 0.10321 0.0
C1291 C 0.20611 0.60399 0.11851 0.0
C1292 C 0.18203 0.63195 0.12718 0.0
C1293 C 0.15948 0.66495 0.12048 0.0
C1294 C 0.16021 0.66936 0.10496 0.0
H1295 H 0.29889 0.4791 0.83472 0.0
H1296 H 0.29999 0.39593 0.79629 0.0
H1297 H 0.26347 0.34109 0.81079 0.0
H1298 H 0.30948 0.39807 0.8637 0.0
H1299 H 0.27323 0.42497 0.87595 0.0
H1300 H 0.30519 0.45459 0.86329 0.0
H1301 H 0.23815 0.48887 0.85235 0.0
H1302 H 0.20614 0.45955 0.86499 0.0
H1303 H 0.1966 0.45564 0.8453 0.0
H1304 H 0.22269 0.29715 0.82925 0.0
H1305 H 0.17431 0.27189 0.84885 0.0
H1306 H 0.19654 0.38643 0.87425 0.0
C1307 C 0.29228 0.4489 0.82952 0.0
C1308 C 0.30263 0.44116 0.81455 0.0
C1309 C 0.29247 0.40198 0.80785 0.0
C1310 C 0.27203 0.3707 0.81601 0.0
C1311 C 0.26172 0.37941 0.83078 0.0
C1312 C 0.27122 0.41776 0.83742 0.0
C1313 C 0.2525 0.42136 0.8528 0.0
C1314 C 0.28718 0.42495 0.86463 0.0
C1315 C 0.22151 0.45854 0.85391 0.0
C1316 C 0.23003 0.37959 0.85365 0.0
C1317 C 0.23654 0.35524 0.84104 0.0
C1318 C 0.21759 0.31587 0.83921 0.0
C1319 C 0.19034 0.30169 0.85038 0.0
C1320 C 0.18171 0.3274 0.86294 0.0
C1321 C 0.20261 0.36625 0.86471 0.0
H1322 H 0.40084 0.47701 0.57436 0.0
H1323 H 0.33961 0.36967 0.55348 0.0
H1324 H 0.3787 0.32195 0.57003 0.0
H1325 H 0.50109 0.43101 0.57717 0.0
H1326 H 0.51318 0.45563 0.59478 0.0
H1327 H 0.47753 0.4808 0.5822 0.0
H1328 H 0.42049 0.48348 0.60279 0.0
H1329 H 0.45598 0.45806 0.61543 0.0
H1330 H 0.40498 0.43557 0.61176 0.0
H1331 H 0.42831 0.28576 0.58824 0.0
H1332 H 0.48556 0.26526 0.60539 0.0
H1333 H 0.5137 0.39701 0.61351 0.0
C1334 C 0.39564 0.44348 0.57321 0.0
C1335 C 0.36722 0.42712 0.56259 0.0
C1336 C 0.36091 0.383 0.56164 0.0
C1337 C 0.38302 0.35564 0.57097 0.0
C1338 C 0.41112 0.37292 0.58123 0.0
C1339 C 0.41739 0.41588 0.58236 0.0
C1340 C 0.45067 0.42672 0.59372 0.0
C1341 C 0.48781 0.44988 0.58653 0.0
C1342 C 0.43189 0.45248 0.60669 0.0
C1343 C 0.46305 0.38313 0.59856 0.0
C1344 C 0.43959 0.35238 0.59145 0.0
C1345 C 0.44662 0.30967 0.59394 0.0
C1346 C 0.479 0.29827 0.60375 0.0
C1347 C 0.50403 0.3295 0.61077 0.0
C1348 C 0.49526 0.37235 0.60826 0.0
H1349 H 0.36779 0.5565 0.33868 0.0
H1350 H 0.46069 0.53847 0.30375 0.0
H1351 H 0.51028 0.58309 0.3177 0.0
H1352 H 0.38572 0.66363 0.34263 0.0
H1353 H 0.37687 0.66566 0.36239 0.0
H1354 H 0.35165 0.62577 0.35124 0.0
H1355 H 0.38411 0.56785 0.36769 0.0
H1356 H 0.40944 0.60767 0.37894 0.0
H1357 H 0.44024 0.56629 0.37042 0.0
H1358 H 0.54822 0.63461 0.33455 0.0
H1359 H 0.5679 0.69319 0.35152 0.0
H1360 H 0.44752 0.68285 0.37377 0.0
C1361 C 0.39858 0.56152 0.33391 0.0
C1362 C 0.41004 0.54339 0.32006 0.0
C1363 C 0.45111 0.5508 0.31447 0.0
C1364 C 0.47964 0.57637 0.32231 0.0
C1365 C 0.46673 0.59459 0.3357 0.0
C1366 C 0.42704 0.58767 0.3414 0.0
C1367 C 0.4189 0.61477 0.35504 0.0
C1368 C 0.38106 0.64419 0.35267 0.0
C1369 C 0.41283 0.58751 0.36884 0.0
C1370 C 0.45971 0.63903 0.35585 0.0
C1371 C 0.48742 0.62616 0.34486 0.0
C1372 C 0.52684 0.64475 0.34324 0.0
C1373 C 0.53782 0.67785 0.35294 0.0
C1374 C 0.50918 0.69241 0.3639 0.0
C1375 C 0.4699 0.67239 0.36543 0.0
H1376 H 0.32884 0.42062 0.96684 0.0
H1377 H 0.23133 0.50634 0.98207 0.0
H1378 H 0.18091 0.47295 0.96459 0.0
H1379 H 0.29883 0.41861 0.92846 0.0
H1380 H 0.31149 0.36369 0.92597 0.0
H1381 H 0.33932 0.39487 0.93958 0.0
H1382 H 0.3185 0.34202 0.96001 0.0
H1383 H 0.29063 0.31072 0.94646 0.0
H1384 H 0.26378 0.32972 0.96284 0.0
H1385 H 0.14039 0.42713 0.94567 0.0
H1386 H 0.11536 0.37531 0.92676 0.0
H1387 H 0.2412 0.32241 0.92437 0.0
C1388 C 0.29683 0.43226 0.96657 0.0
C1389 C 0.28394 0.46593 0.97583 0.0
C1390 C 0.24192 0.48072 0.97497 0.0
C1391 C 0.21304 0.46185 0.96513 0.0
C1392 C 0.22681 0.42846 0.95619 0.0
C1393 C 0.26784 0.41403 0.95681 0.0
C1394 C 0.27517 0.37793 0.94609 0.0
C1395 C 0.30815 0.38949 0.93433 0.0
C1396 C 0.28774 0.33774 0.95435 0.0
C1397 C 0.23185 0.37405 0.93937 0.0
C1398 C 0.20412 0.40319 0.94529 0.0
C1399 C 0.16198 0.40435 0.94089 0.0
C1400 C 0.14801 0.37485 0.93017 0.0
C1401 C 0.17628 0.34497 0.92398 0.0
C1402 C 0.21867 0.34501 0.9287 0.0
H1403 H 0.41901 0.49074 0.71453 0.0
H1404 H 0.52929 0.48914 0.74298 0.0
H1405 H 0.56698 0.44674 0.7242 0.0
H1406 H 0.42446 0.3857 0.70478 0.0
H1407 H 0.40621 0.39186 0.68599 0.0
H1408 H 0.39071 0.42918 0.70012 0.0
H1409 H 0.4205 0.49004 0.68441 0.0
H1410 H 0.43607 0.4528 0.67018 0.0
H1411 H 0.4744 0.48804 0.67822 0.0
H1412 H 0.5894 0.39656 0.70419 0.0
H1413 H 0.59437 0.34186 0.68455 0.0
H1414 H 0.4682 0.3722 0.66997 0.0
C1415 C 0.45122 0.48192 0.71681 0.0
C1416 C 0.47105 0.49363 0.7303 0.0
C1417 C 0.51347 0.48155 0.73266 0.0
C1418 C 0.53518 0.4572 0.72207 0.0
C1419 C 0.51411 0.44506 0.70917 0.0
C1420 C 0.47307 0.45706 0.70649 0.0
C1421 C 0.45596 0.43602 0.69258 0.0
C1422 C 0.41706 0.40909 0.69609 0.0
C1423 C 0.44617 0.46868 0.68064 0.0
C1424 C 0.49322 0.40899 0.68818 0.0
C1425 C 0.52677 0.41536 0.69771 0.0
C1426 C 0.5637 0.39198 0.69647 0.0
C1427 C 0.56633 0.36116 0.68525 0.0
C1428 C 0.532 0.35355 0.67561 0.0
C1429 C 0.49516 0.378 0.67704 0.0
H1430 H 0.37802 0.58413 0.46446 0.0
H1431 H 0.3799 0.6891 0.49594 0.0
H1432 H 0.4239 0.7291 0.47882 0.0
H1433 H 0.48651 0.59274 0.45476 0.0
H1434 H 0.47876 0.57788 0.43558 0.0
H1435 H 0.44349 0.5587 0.44959 0.0
H1436 H 0.38019 0.58941 0.4352 0.0
H1437 H 0.41532 0.6089 0.42119 0.0
H1438 H 0.37979 0.64444 0.43063 0.0
H1439 H 0.47015 0.7569 0.45905 0.0
H1440 H 0.51792 0.7702 0.43802 0.0
H1441 H 0.49219 0.64526 0.42037 0.0
C1442 C 0.38771 0.6154 0.46787 0.0
C1443 C 0.37451 0.63338 0.48159 0.0
C1444 C 0.38807 0.67472 0.48538 0.0
C1445 C 0.41353 0.69775 0.47576 0.0
C1446 C 0.42596 0.67895 0.46244 0.0
C1447 C 0.41389 0.63861 0.45853 0.0
C1448 C 0.43393 0.6249 0.44396 0.0
C1449 C 0.46236 0.58627 0.44611 0.0
C1450 C 0.40029 0.61642 0.43204 0.0
C1451 C 0.45946 0.66373 0.44042 0.0
C1452 C 0.45385 0.69469 0.45114 0.0
C1453 C 0.47437 0.73324 0.45045 0.0
C1454 C 0.50135 0.74049 0.43847 0.0
C1455 C 0.50843 0.70888 0.42755 0.0
C1456 C 0.48714 0.67002 0.42854 0.0
H1457 H 0.24962 0.54111 0.219 0.0
H1458 H 0.23911 0.63506 0.25401 0.0
H1459 H 0.21372 0.68707 0.2358 0.0
H1460 H 0.27789 0.61319 0.18804 0.0
H1461 H 0.24568 0.58432 0.17499 0.0
H1462 H 0.2705 0.55737 0.19014 0.0
H1463 H 0.19795 0.52908 0.19854 0.0
H1464 H 0.17306 0.55578 0.18344 0.0
H1465 H 0.15577 0.56571 0.20222 0.0
H1466 H 0.18289 0.72641 0.21417 0.0
H1467 H 0.1428 0.74707 0.19184 0.0
H1468 H 0.17021 0.62572 0.17151 0.0
C1469 C 0.24317 0.57306 0.22267 0.0
C1470 C 0.24691 0.58463 0.23775 0.0
C1471 C 0.23682 0.62608 0.2424 0.0
C1472 C 0.22263 0.65574 0.23214 0.0
C1473 C 0.21849 0.64323 0.21732 0.0
C1474 C 0.22829 0.60274 0.21262 0.0
C1475 C 0.21589 0.59544 0.19659 0.0
C1476 C 0.25482 0.5871 0.18687 0.0
C1477 C 0.18375 0.5594 0.19513 0.0
C1478 C 0.19625 0.63756 0.19315 0.0
C1479 C 0.19902 0.66517 0.20508 0.0
C1480 C 0.18096 0.70521 0.20471 0.0
C1481 C 0.15837 0.71675 0.19198 0.0
C1482 C 0.15338 0.68791 0.18002 0.0
C1483 C 0.1736 0.6484 0.18051 0.0
loop_
_geom_bond_atom_site_label_1
_geom_bond_atom_site_label_2
_geom_bond_distance
_geom_bond_site_symmetry_2
_ccdc_geom_bond_type
H0 C27 0.929 1_565 S
N1 C26 1.433 1_565 S
N1 C32 1.435 . S
N1 C38 1.423 . S
H2 C28 0.930 . S
H3 C31 0.931 . S
H4 C30 0.929 . S
H5 C33 0.930 1_545 S
H6 C34 0.941 . S
H7 C37 0.929 . S
H8 C36 0.931 . S
H9 C39 0.929 . S
H10 C43 0.932 . S
H11 C40 0.931 . S
H12 C42 0.929 . S
H13 C45 0.929 1_565 S
H14 C46 0.930 . S
H15 C48 0.929 . S
H16 C49 0.931 . S
H17 C51 0.930 1_545 S
H18 C52 0.944 . S
H19 C54 0.931 . S
H20 C55 0.929 . S
H21 C57 0.929 . S
H22 C58 0.931 . S
H23 C60 0.929 . S
N24 C44 1.433 1_565 S
N24 C50 1.435 . S
N24 C56 1.423 . S
H25 C61 0.932 . S
C26 N1 1.433 1_545 S
C26 C27 1.363 . S
C26 C31 1.370 . S
C27 H0 0.929 1_545 S
C27 C26 1.363 . S
C27 C28 1.385 . S
C28 H2 0.930 . S
C28 C27 1.385 . S
C28 C29 1.357 . S
C29 C28 1.357 . S
C29 C30 1.406 . S
C30 H4 0.929 . S
C30 C29 1.406 . S
C30 C31 1.391 . S
C31 H3 0.931 . S
C31 C26 1.370 . S
C31 C30 1.391 . S
C32 N1 1.435 . S
C32 C33 1.358 . S
C32 C37 1.371 . S
C33 H5 0.930 1_565 S
C33 C32 1.358 . S
C33 C34 1.405 . S
C34 H6 0.941 . S
C34 C33 1.405 . S
C34 C35 1.383 . S
C35 C34 1.383 . S
C35 C36 1.393 . S
C36 H8 0.931 . S
C36 C35 1.393 . S
C36 C37 1.382 . S
C37 H7 0.929 . S
C37 C32 1.371 . S
C37 C36 1.382 . S
C38 N1 1.423 . S
C38 C39 1.362 . S
C38 C43 1.388 . S
C39 H9 0.929 . S
C39 C38 1.362 . S
C39 C40 1.376 . S
C40 H11 0.931 . S
C40 C39 1.376 . S
C40 C41 1.396 1_655 S
C41 C40 1.396 1_455 S
C41 C42 1.348 1_455 S
C41 C59 1.472 . S
C42 H12 0.929 . S
C42 C41 1.348 1_655 S
C42 C43 1.443 . S
C43 H10 0.932 . S
C43 C38 1.388 . S
C43 C42 1.443 . S
C44 N24 1.433 1_545 S
C44 C45 1.363 . S
C44 C49 1.370 . S
C45 H13 0.929 1_545 S
C45 C44 1.363 . S
C45 C46 1.385 . S
C46 H14 0.930 . S
C46 C45 1.385 . S
C46 C47 1.357 . S
C47 C46 1.357 . S
C47 C48 1.406 . S
C48 H15 0.929 . S
C48 C47 1.406 . S
C48 C49 1.391 . S
C49 H16 0.931 . S
C49 C44 1.370 . S
C49 C48 1.391 . S
C50 N24 1.435 . S
C50 C51 1.358 . S
C50 C55 1.371 . S
C51 H17 0.930 1_565 S
C51 C50 1.358 . S
C51 C52 1.405 . S
C52 H18 0.944 . S
C52 C51 1.405 . S
C52 C53 1.383 . S
C53 C52 1.383 . S
C53 C54 1.393 . S
C54 H19 0.931 . S
C54 C53 1.393 . S
C54 C55 1.382 . S
C55 H20 0.929 . S
C55 C50 1.371 . S
C55 C54 1.382 . S
C56 N24 1.423 . S
C56 C57 1.362 . S
C56 C61 1.388 . S
C57 H21 0.929 . S
C57 C56 1.362 . S
C57 C58 1.376 . S
C58 H22 0.931 . S
C58 C57 1.376 . S
C58 C59 1.396 . S
C59 C41 1.472 . S
C59 C58 1.396 . S
C59 C60 1.348 . S
C60 H23 0.929 . S
C60 C59 1.348 . S
C60 C61 1.443 . S
C61 H25 0.932 . S
C61 C56 1.388 . S
C61 C60 1.443 . S
H62 C89 0.929 . S
N63 C88 1.433 . S
N63 C94 1.435 . S
N63 C100 1.423 . S
H64 C90 0.930 . S
H65 C93 0.931 . S
H66 C92 0.929 . S
H67 C95 0.930 . S
H68 C96 0.932 . S
H69 C99 0.929 . S
H70 C98 0.931 . S
H71 C101 0.929 . S
H72 C105 0.932 . S
H73 C102 0.931 . S
H74 C104 0.929 . S
H75 C107 0.929 . S
H76 C108 0.930 . S
H77 C110 0.929 . S
H78 C111 0.931 . S
H79 C113 0.930 . S
H80 C114 0.932 . S
H81 C116 0.931 . S
H82 C117 0.929 . S
H83 C119 0.929 . S
H84 C120 0.931 . S
H85 C122 0.929 . S
N86 C106 1.433 . S
N86 C112 1.435 . S
N86 C118 1.423 . S
H87 C123 0.932 . S
C88 N63 1.433 . S
C88 C89 1.363 . S
C88 C93 1.370 . S
C89 H62 0.929 . S
C89 C88 1.363 . S
C89 C90 1.385 . S
C90 H64 0.930 . S
C90 C89 1.385 . S
C90 C91 1.357 . S
C91 C90 1.357 . S
C91 C92 1.406 . S
C92 H66 0.929 . S
C92 C91 1.406 . S
C92 C93 1.391 . S
C93 H65 0.931 . S
C93 C88 1.370 . S
C93 C92 1.391 . S
C94 N63 1.435 . S
C94 C95 1.358 . S
C94 C99 1.371 . S
C95 H67 0.930 . S
C95 C94 1.358 . S
C95 C96 1.405 . S
C96 H68 0.932 . S
C96 C95 1.405 . S
C96 C97 1.383 . S
C97 C96 1.383 . S
C97 C98 1.393 . S
C98 H70 0.931 . S
C98 C97 1.393 . S
C98 C99 1.382 . S
C99 H69 0.929 . S
C99 C94 1.371 . S
C99 C98 1.382 . S
C100 N63 1.423 . S
C100 C101 1.362 . S
C100 C105 1.388 . S
C101 H71 0.929 . S
C101 C100 1.362 . S
C101 C102 1.376 . S
C102 H73 0.931 . S
C102 C101 1.376 . S
C102 C103 1.396 . S
C103 C102 1.396 . S
C103 C104 1.348 . S
C103 C121 1.472 . S
C104 H74 0.929 . S
C104 C103 1.348 . S
C104 C105 1.443 . S
C105 H72 0.932 . S
C105 C100 1.388 . S
C105 C104 1.443 . S
C106 N86 1.433 . S
C106 C107 1.363 . S
C106 C111 1.370 . S
C107 H75 0.929 . S
C107 C106 1.363 . S
C107 C108 1.385 . S
C108 H76 0.930 . S
C108 C107 1.385 . S
C108 C109 1.357 . S
C109 C108 1.357 . S
C109 C110 1.406 . S
C110 H77 0.929 . S
C110 C109 1.406 . S
C110 C111 1.391 . S
C111 H78 0.931 . S
C111 C106 1.370 . S
C111 C110 1.391 . S
C112 N86 1.435 . S
C112 C113 1.358 . S
C112 C117 1.371 . S
C113 H79 0.930 . S
C113 C112 1.358 . S
C113 C114 1.405 . S
C114 H80 0.932 . S
C114 C113 1.405 . S
C114 C115 1.383 . S
C115 C114 1.383 . S
C115 C116 1.393 . S
C116 H81 0.931 . S
C116 C115 1.393 . S
C116 C117 1.382 . S
C117 H82 0.929 . S
C117 C112 1.371 . S
C117 C116 1.382 . S
C118 N86 1.423 . S
C118 C119 1.362 . S
C118 C123 1.388 . S
C119 H83 0.929 . S
C119 C118 1.362 . S
C119 C120 1.376 . S
C120 H84 0.931 . S
C120 C119 1.376 . S
C120 C121 1.396 . S
C121 C103 1.472 . S
C121 C120 1.396 . S
C121 C122 1.348 . S
C122 H85 0.929 . S
C122 C121 1.348 . S
C122 C123 1.443 . S
C123 H87 0.932 . S
C123 C118 1.388 . S
C123 C122 1.443 . S
H124 C151 0.929 . S
N125 C150 1.433 1_545 S
N125 C156 1.435 . S
N125 C162 1.423 . S
H126 C152 0.930 . S
H127 C155 0.931 . S
H128 C154 0.929 . S
H129 C157 0.930 1_565 S
H130 C158 0.932 . S
H131 C161 0.929 . S
H132 C160 0.931 . S
H133 C163 0.929 . S
H134 C167 0.932 . S
H135 C164 0.931 . S
H136 C166 0.929 . S
H137 C169 0.929 . S
H138 C170 0.930 . S
H139 C172 0.929 . S
H140 C173 0.931 . S
H141 C175 0.930 1_565 S
H142 C176 0.932 . S
H143 C178 0.931 . S
H144 C179 0.929 . S
H145 C181 0.929 . S
H146 C182 0.931 . S
H147 C184 0.929 . S
N148 C168 1.433 1_545 S
N148 C174 1.435 . S
N148 C180 1.423 . S
H149 C185 0.932 . S
C150 N125 1.433 1_565 S
C150 C151 1.363 1_565 S
C150 C155 1.370 . S
C151 H124 0.929 . S
C151 C150 1.363 1_545 S
C151 C152 1.385 1_545 S
C152 H126 0.930 . S
C152 C151 1.385 1_565 S
C152 C153 1.357 . S
C153 C152 1.357 . S
C153 C154 1.406 . S
C154 H128 0.929 . S
C154 C153 1.406 . S
C154 C155 1.391 . S
C155 H127 0.931 . S
C155 C150 1.370 . S
C155 C154 1.391 . S
C156 N125 1.435 . S
C156 C157 1.358 . S
C156 C161 1.371 . S
C157 H129 0.930 1_545 S
C157 C156 1.358 . S
C157 C158 1.405 1_554 S
C158 H130 0.932 . S
C158 C157 1.405 1_556 S
C158 C159 1.383 . S
C159 C158 1.383 . S
C159 C160 1.393 . S
C160 H132 0.931 . S
C160 C159 1.393 . S
C160 C161 1.382 1_556 S
C161 H131 0.929 . S
C161 C156 1.371 . S
C161 C160 1.382 1_554 S
C162 N125 1.423 . S
C162 C163 1.362 . S
C162 C167 1.388 . S
C163 H133 0.929 . S
C163 C162 1.362 . S
C163 C164 1.376 . S
C164 H135 0.931 . S
C164 C163 1.376 . S
C164 C165 1.396 . S
C165 C164 1.396 . S
C165 C166 1.348 . S
C165 C183 1.472 . S
C166 H136 0.929 . S
C166 C165 1.348 . S
C166 C167 1.443 . S
C167 H134 0.932 . S
C167 C162 1.388 . S
C167 C166 1.443 . S
C168 N148 1.433 1_565 S
C168 C169 1.363 1_565 S
C168 C173 1.370 . S
C169 H137 0.929 . S
C169 C168 1.363 1_545 S
C169 C170 1.385 1_545 S
C170 H138 0.930 . S
C170 C169 1.385 1_565 S
C170 C171 1.357 . S
C171 C170 1.357 . S
C171 C172 1.406 . S
C172 H139 0.929 . S
C172 C171 1.406 . S
C172 C173 1.391 . S
C173 H140 0.931 . S
C173 C168 1.370 . S
C173 C172 1.391 . S
C174 N148 1.435 . S
C174 C175 1.358 . S
C174 C179 1.371 . S
C175 H141 0.930 1_545 S
C175 C174 1.358 . S
C175 C176 1.405 1_554 S
C176 H142 0.932 . S
C176 C175 1.405 1_556 S
C176 C177 1.383 . S
C177 C176 1.383 . S
C177 C178 1.393 . S
C178 H143 0.931 . S
C178 C177 1.393 . S
C178 C179 1.382 1_556 S
C179 H144 0.929 . S
C179 C174 1.371 . S
C179 C178 1.382 1_554 S
C180 N148 1.423 . S
C180 C181 1.362 . S
C180 C185 1.388 . S
C181 H145 0.929 . S
C181 C180 1.362 . S
C181 C182 1.376 . S
C182 H146 0.931 . S
C182 C181 1.376 . S
C182 C183 1.396 . S
C183 C165 1.472 . S
C183 C182 1.396 . S
C183 C184 1.348 . S
C184 H147 0.929 . S
C184 C183 1.348 . S
C184 C185 1.443 . S
C185 H149 0.932 . S
C185 C180 1.388 . S
C185 C184 1.443 . S
H186 C213 0.929 . S
N187 C212 1.433 . S
N187 C218 1.435 . S
N187 C224 1.423 . S
H188 C214 0.930 . S
H189 C217 0.931 . S
H190 C216 0.929 . S
H191 C219 0.930 . S
H192 C220 0.932 . S
H193 C223 0.929 . S
H194 C222 0.931 . S
H195 C225 0.929 . S
H196 C229 0.932 . S
H197 C226 0.931 . S
H198 C228 0.929 . S
H199 C231 0.929 . S
H200 C232 0.930 . S
H201 C234 0.929 . S
H202 C235 0.931 . S
H203 C237 0.930 . S
H204 C238 0.932 . S
H205 C240 0.931 . S
H206 C241 0.929 . S
H207 C243 0.929 . S
H208 C244 0.931 . S
H209 C246 0.929 . S
N210 C230 1.433 . S
N210 C236 1.435 . S
N210 C242 1.423 . S
H211 C247 0.932 . S
C212 N187 1.433 . S
C212 C213 1.363 . S
C212 C217 1.370 . S
C213 H186 0.929 . S
C213 C212 1.363 . S
C213 C214 1.385 . S
C214 H188 0.930 . S
C214 C213 1.385 . S
C214 C215 1.357 . S
C215 C214 1.357 . S
C215 C216 1.406 . S
C216 H190 0.929 . S
C216 C215 1.406 . S
C216 C217 1.391 . S
C217 H189 0.931 . S
C217 C212 1.370 . S
C217 C216 1.391 . S
C218 N187 1.435 . S
C218 C219 1.358 . S
C218 C223 1.371 . S
C219 H191 0.930 . S
C219 C218 1.358 . S
C219 C220 1.405 . S
C220 H192 0.932 . S
C220 C219 1.405 . S
C220 C221 1.383 . S
C221 C220 1.383 . S
C221 C222 1.393 . S
C222 H194 0.931 . S
C222 C221 1.393 . S
C222 C223 1.382 . S
C223 H193 0.929 . S
C223 C218 1.371 . S
C223 C222 1.382 . S
C224 N187 1.423 . S
C224 C225 1.362 . S
C224 C229 1.388 . S
C225 H195 0.929 . S
C225 C224 1.362 . S
C225 C226 1.376 . S
C226 H197 0.931 . S
C226 C225 1.376 . S
C226 C227 1.396 . S
C227 C226 1.396 . S
C227 C228 1.348 . S
C227 C245 1.472 . S
C228 H198 0.929 . S
C228 C227 1.348 . S
C228 C229 1.443 . S
C229 H196 0.932 . S
C229 C224 1.388 . S
C229 C228 1.443 . S
C230 N210 1.433 . S
C230 C231 1.363 . S
C230 C235 1.370 . S
C231 H199 0.929 . S
C231 C230 1.363 . S
C231 C232 1.385 . S
C232 H200 0.930 . S
C232 C231 1.385 . S
C232 C233 1.357 . S
C233 C232 1.357 . S
C233 C234 1.406 . S
C234 H201 0.929 . S
C234 C233 1.406 . S
C234 C235 1.391 . S
C235 H202 0.931 . S
C235 C230 1.370 . S
C235 C234 1.391 . S
C236 N210 1.435 . S
C236 C237 1.358 . S
C236 C241 1.371 . S
C237 H203 0.930 . S
C237 C236 1.358 . S
C237 C238 1.405 . S
C238 H204 0.932 . S
C238 C237 1.405 . S
C238 C239 1.383 . S
C239 C238 1.383 . S
C239 C240 1.393 . S
C240 H205 0.931 . S
C240 C239 1.393 . S
C240 C241 1.382 . S
C241 H206 0.929 . S
C241 C236 1.371 . S
C241 C240 1.382 . S
C242 N210 1.423 . S
C242 C243 1.362 . S
C242 C247 1.388 . S
C243 H207 0.929 . S
C243 C242 1.362 . S
C243 C244 1.376 . S
C244 H208 0.931 . S
C244 C243 1.376 . S
C244 C245 1.396 . S
C245 C227 1.472 . S
C245 C244 1.396 . S
C245 C246 1.348 . S
C246 H209 0.929 . S
C246 C245 1.348 . S
C246 C247 1.443 . S
C247 H211 0.932 . S
C247 C242 1.388 . S
C247 C246 1.443 . S
H248 C275 0.929 . S
N249 C274 1.433 . S
N249 C280 1.435 . S
N249 C286 1.423 . S
H250 C276 0.930 . S
H251 C279 0.931 . S
H252 C278 0.929 . S
H253 C281 0.930 . S
H254 C282 0.932 . S
H255 C285 0.929 . S
H256 C284 0.931 . S
H257 C287 0.929 . S
H258 C291 0.932 . S
H259 C288 0.931 . S
H260 C290 0.929 . S
H261 C293 0.929 . S
H262 C294 0.930 . S
H263 C296 0.929 . S
H264 C297 0.931 . S
H265 C299 0.930 . S
H266 C300 0.932 . S
H267 C302 0.931 . S
H268 C303 0.929 . S
H269 C305 0.929 . S
H270 C306 0.931 . S
H271 C308 0.929 . S
N272 C292 1.433 . S
N272 C298 1.435 . S
N272 C304 1.423 . S
H273 C309 0.932 . S
C274 N249 1.433 . S
C274 C275 1.363 1_545 S
C274 C279 1.370 . S
C275 H248 0.929 . S
C275 C274 1.363 1_565 S
C275 C276 1.385 . S
C276 H250 0.930 . S
C276 C275 1.385 . S
C276 C277 1.357 . S
C277 C276 1.357 . S
C277 C278 1.406 1_565 S
C278 H252 0.929 . S
C278 C277 1.406 1_545 S
C278 C279 1.391 . S
C279 H251 0.931 . S
C279 C274 1.370 . S
C279 C278 1.391 . S
C280 N249 1.435 . S
C280 C281 1.358 1_545 S
C280 C285 1.371 . S
C281 H253 0.930 . S
C281 C280 1.358 1_565 S
C281 C282 1.405 . S
C282 H254 0.932 . S
C282 C281 1.405 . S
C282 C283 1.383 . S
C283 C282 1.383 . S
C283 C284 1.393 . S
C284 H256 0.931 . S
C284 C283 1.393 . S
C284 C285 1.382 1_565 S
C285 H255 0.929 . S
C285 C280 1.371 . S
C285 C284 1.382 1_545 S
C286 N249 1.423 . S
C286 C287 1.362 . S
C286 C291 1.388 . S
C287 H257 0.929 . S
C287 C286 1.362 . S
C287 C288 1.376 . S
C288 H259 0.931 . S
C288 C287 1.376 . S
C288 C289 1.396 . S
C289 C288 1.396 . S
C289 C290 1.348 . S
C289 C307 1.472 . S
C290 H260 0.929 . S
C290 C289 1.348 . S
C290 C291 1.443 . S
C291 H258 0.932 . S
C291 C286 1.388 . S
C291 C290 1.443 . S
C292 N272 1.433 . S
C292 C293 1.363 . S
C292 C297 1.370 . S
C293 H261 0.929 . S
C293 C292 1.363 . S
C293 C294 1.385 . S
C294 H262 0.930 . S
C294 C293 1.385 . S
C294 C295 1.357 . S
C295 C294 1.357 . S
C295 C296 1.406 . S
C296 H263 0.929 . S
C296 C295 1.406 . S
C296 C297 1.391 . S
C297 H264 0.931 . S
C297 C292 1.370 . S
C297 C296 1.391 . S
C298 N272 1.435 . S
C298 C299 1.358 . S
C298 C303 1.371 . S
C299 H265 0.930 . S
C299 C298 1.358 . S
C299 C300 1.405 . S
C300 H266 0.932 . S
C300 C299 1.405 . S
C300 C301 1.383 . S
C301 C300 1.383 . S
C301 C302 1.393 . S
C302 H267 0.931 . S
C302 C301 1.393 . S
C302 C303 1.382 . S
C303 H268 0.929 . S
C303 C298 1.371 . S
C303 C302 1.382 . S
C304 N272 1.423 . S
C304 C305 1.362 . S
C304 C309 1.388 . S
C305 H269 0.929 . S
C305 C304 1.362 . S
C305 C306 1.376 . S
C306 H270 0.931 . S
C306 C305 1.376 . S
C306 C307 1.396 . S
C307 C289 1.472 . S
C307 C306 1.396 . S
C307 C308 1.348 . S
C308 H271 0.929 . S
C308 C307 1.348 . S
C308 C309 1.443 . S
C309 H273 0.932 . S
C309 C304 1.388 . S
C309 C308 1.443 . S
H310 C337 0.929 . S
N311 C336 1.433 . S
N311 C342 1.435 . S
N311 C348 1.423 . S
H312 C338 0.930 . S
H313 C341 0.931 . S
H314 C340 0.929 . S
H315 C343 0.930 . S
H316 C344 0.932 . S
H317 C347 0.929 . S
H318 C346 0.931 . S
H319 C349 0.929 . S
H320 C353 0.932 . S
H321 C350 0.931 . S
H322 C352 0.929 . S
H323 C355 0.929 . S
H324 C356 0.930 . S
H325 C358 0.929 . S
H326 C359 0.931 . S
H327 C361 0.930 . S
H328 C362 0.932 . S
H329 C364 0.931 . S
H330 C365 0.929 . S
H331 C367 0.929 . S
H332 C368 0.931 . S
H333 C370 0.929 . S
N334 C354 1.433 . S
N334 C360 1.435 . S
N334 C366 1.423 . S
H335 C371 0.932 . S
C336 N311 1.433 . S
C336 C337 1.363 1_565 S
C336 C341 1.370 . S
C337 H310 0.929 . S
C337 C336 1.363 1_545 S
C337 C338 1.385 . S
C338 H312 0.930 . S
C338 C337 1.385 . S
C338 C339 1.357 . S
C339 C338 1.357 . S
C339 C340 1.406 1_545 S
C340 H314 0.929 . S
C340 C339 1.406 1_565 S
C340 C341 1.391 . S
C341 H313 0.931 . S
C341 C336 1.370 . S
C341 C340 1.391 . S
C342 N311 1.435 . S
C342 C343 1.358 1_565 S
C342 C347 1.371 . S
C343 H315 0.930 . S
C343 C342 1.358 1_545 S
C343 C344 1.405 . S
C344 H316 0.932 . S
C344 C343 1.405 . S
C344 C345 1.383 . S
C345 C344 1.383 . S
C345 C346 1.393 . S
C346 H318 0.931 . S
C346 C345 1.393 . S
C346 C347 1.382 1_545 S
C347 H317 0.929 . S
C347 C342 1.371 . S
C347 C346 1.382 1_565 S
C348 N311 1.423 . S
C348 C349 1.362 . S
C348 C353 1.388 . S
C349 H319 0.929 . S
C349 C348 1.362 . S
C349 C350 1.376 . S
C350 H321 0.931 . S
C350 C349 1.376 . S
C350 C351 1.396 . S
C351 C350 1.396 . S
C351 C352 1.348 . S
C351 C369 1.472 . S
C352 H322 0.929 . S
C352 C351 1.348 . S
C352 C353 1.443 . S
C353 H320 0.932 . S
C353 C348 1.388 . S
C353 C352 1.443 . S
C354 N334 1.433 . S
C354 C355 1.363 . S
C354 C359 1.370 . S
C355 H323 0.929 . S
C355 C354 1.363 . S
C355 C356 1.385 . S
C356 H324 0.930 . S
C356 C355 1.385 . S
C356 C357 1.357 . S
C357 C356 1.357 . S
C357 C358 1.406 . S
C358 H325 0.929 . S
C358 C357 1.406 . S
C358 C359 1.391 . S
C359 H326 0.931 . S
C359 C354 1.370 . S
C359 C358 1.391 . S
C360 N334 1.435 . S
C360 C361 1.358 . S
C360 C365 1.371 . S
C361 H327 0.930 . S
C361 C360 1.358 . S
C361 C362 1.405 . S
C362 H328 0.932 . S
C362 C361 1.405 . S
C362 C363 1.383 . S
C363 C362 1.383 . S
C363 C364 1.393 . S
C364 H329 0.931 . S
C364 C363 1.393 . S
C364 C365 1.382 . S
C365 H330 0.929 . S
C365 C360 1.371 . S
C365 C364 1.382 . S
C366 N334 1.423 . S
C366 C367 1.362 . S
C366 C371 1.388 . S
C367 H331 0.929 . S
C367 C366 1.362 . S
C367 C368 1.376 . S
C368 H332 0.931 . S
C368 C367 1.376 . S
C368 C369 1.396 . S
C369 C351 1.472 . S
C369 C368 1.396 . S
C369 C370 1.348 . S
C370 H333 0.929 . S
C370 C369 1.348 . S
C370 C371 1.443 . S
C371 H335 0.932 . S
C371 C366 1.388 . S
C371 C370 1.443 . S
H372 C399 0.929 . S
N373 C398 1.433 . S
N373 C404 1.435 . S
N373 C410 1.423 . S
H374 C400 0.930 . S
H375 C403 0.923 1_554 S
H376 C402 0.929 . S
H377 C405 0.930 . S
H378 C406 0.932 . S
H379 C409 0.929 . S
H380 C408 0.931 . S
H381 C411 0.929 1_556 S
H382 C415 0.932 . S
H383 C412 0.931 1_556 S
H384 C414 0.929 . S
H385 C417 0.929 . S
H386 C418 0.930 . S
H387 C420 0.929 . S
H388 C421 0.921 1_554 S
H389 C423 0.930 . S
H390 C424 0.932 . S
H391 C426 0.931 . S
H392 C427 0.929 . S
H393 C429 0.929 1_556 S
H394 C430 0.931 1_556 S
H395 C432 0.929 . S
N396 C416 1.433 . S
N396 C422 1.435 . S
N396 C428 1.423 . S
H397 C433 0.932 . S
C398 N373 1.433 . S
C398 C399 1.363 1_554 S
C398 C403 1.366 1_554 S
C399 H372 0.929 . S
C399 C398 1.363 1_556 S
C399 C400 1.385 . S
C400 H374 0.930 . S
C400 C399 1.385 . S
C400 C401 1.357 . S
C401 C400 1.357 . S
C401 C402 1.406 . S
C402 H376 0.929 . S
C402 C401 1.406 . S
C402 C403 1.404 . S
C403 H375 0.923 1_556 S
C403 C398 1.366 1_556 S
C403 C402 1.404 . S
C404 N373 1.435 . S
C404 C405 1.358 . S
C404 C409 1.371 . S
C405 H377 0.930 . S
C405 C404 1.358 . S
C405 C406 1.405 . S
C406 H378 0.932 . S
C406 C405 1.405 . S
C406 C407 1.383 . S
C407 C406 1.383 . S
C407 C408 1.393 . S
C408 H380 0.931 . S
C408 C407 1.393 . S
C408 C409 1.382 . S
C409 H379 0.929 . S
C409 C404 1.371 . S
C409 C408 1.382 . S
C410 N373 1.423 . S
C410 C411 1.362 . S
C410 C415 1.388 . S
C411 H381 0.929 1_554 S
C411 C410 1.362 . S
C411 C412 1.376 . S
C412 H383 0.931 1_554 S
C412 C411 1.376 . S
C412 C413 1.396 . S
C413 C412 1.396 . S
C413 C414 1.348 . S
C413 C431 1.472 . S
C414 H384 0.929 . S
C414 C413 1.348 . S
C414 C415 1.443 . S
C415 H382 0.932 . S
C415 C410 1.388 . S
C415 C414 1.443 . S
C416 N396 1.433 . S
C416 C417 1.363 1_554 S
C416 C421 1.365 1_554 S
C417 H385 0.929 . S
C417 C416 1.363 1_556 S
C417 C418 1.385 . S
C418 H386 0.930 . S
C418 C417 1.385 . S
C418 C419 1.357 . S
C419 C418 1.357 . S
C419 C420 1.406 . S
C420 H387 0.929 . S
C420 C419 1.406 . S
C420 C421 1.406 . S
C421 H388 0.921 1_556 S
C421 C416 1.365 1_556 S
C421 C420 1.406 . S
C422 N396 1.435 . S
C422 C423 1.358 . S
C422 C427 1.371 . S
C423 H389 0.930 . S
C423 C422 1.358 . S
C423 C424 1.405 . S
C424 H390 0.932 . S
C424 C423 1.405 . S
C424 C425 1.383 . S
C425 C424 1.383 . S
C425 C426 1.393 . S
C426 H391 0.931 . S
C426 C425 1.393 . S
C426 C427 1.382 . S
C427 H392 0.929 . S
C427 C422 1.371 . S
C427 C426 1.382 . S
C428 N396 1.423 . S
C428 C429 1.362 . S
C428 C433 1.388 . S
C429 H393 0.929 1_554 S
C429 C428 1.362 . S
C429 C430 1.376 . S
C430 H394 0.931 1_554 S
C430 C429 1.376 . S
C430 C431 1.396 . S
C431 C413 1.472 . S
C431 C430 1.396 . S
C431 C432 1.348 . S
C432 H395 0.929 . S
C432 C431 1.348 . S
C432 C433 1.443 . S
C433 H397 0.932 . S
C433 C428 1.388 . S
C433 C432 1.443 . S
H434 C461 0.929 . S
N435 C460 1.433 . S
N435 C466 1.435 . S
N435 C472 1.423 . S
H436 C462 0.930 . S
H437 C465 0.931 . S
H438 C464 0.929 . S
H439 C467 0.930 . S
H440 C468 0.932 . S
H441 C471 0.929 . S
H442 C470 0.931 . S
H443 C473 0.929 . S
H444 C477 0.932 . S
H445 C474 0.931 . S
H446 C476 0.929 . S
H447 C479 0.929 . S
H448 C480 0.930 . S
H449 C482 0.929 . S
H450 C483 0.931 1_455 S
H451 C485 0.930 . S
H452 C486 0.932 . S
H453 C488 0.931 . S
H454 C489 0.929 . S
H455 C491 0.929 . S
H456 C492 0.931 . S
H457 C494 0.929 . S
N458 C478 1.433 . S
N458 C484 1.435 . S
N458 C490 1.423 1_655 S
H459 C495 0.932 . S
C460 N435 1.433 . S
C460 C461 1.363 . S
C460 C465 1.370 . S
C461 H434 0.929 . S
C461 C460 1.363 . S
C461 C462 1.385 . S
C462 H436 0.930 . S
C462 C461 1.385 . S
C462 C463 1.357 . S
C463 C462 1.357 . S
C463 C464 1.406 . S
C464 H438 0.929 . S
C464 C463 1.406 . S
C464 C465 1.391 . S
C465 H437 0.931 . S
C465 C460 1.370 . S
C465 C464 1.391 . S
C466 N435 1.435 . S
C466 C467 1.358 . S
C466 C471 1.371 . S
C467 H439 0.930 . S
C467 C466 1.358 . S
C467 C468 1.405 . S
C468 H440 0.932 . S
C468 C467 1.405 . S
C468 C469 1.383 . S
C469 C468 1.383 . S
C469 C470 1.393 . S
C470 H442 0.931 . S
C470 C469 1.393 . S
C470 C471 1.382 . S
C471 H441 0.929 . S
C471 C466 1.371 . S
C471 C470 1.382 . S
C472 N435 1.423 . S
C472 C473 1.362 . S
C472 C477 1.388 . S
C473 H443 0.929 . S
C473 C472 1.362 . S
C473 C474 1.376 . S
C474 H445 0.931 . S
C474 C473 1.376 . S
C474 C475 1.396 . S
C475 C474 1.396 . S
C475 C476 1.348 . S
C475 C493 1.472 . S
C476 H446 0.929 . S
C476 C475 1.348 . S
C476 C477 1.443 . S
C477 H444 0.932 . S
C477 C472 1.388 . S
C477 C476 1.443 . S
C478 N458 1.433 . S
C478 C479 1.363 . S
C478 C483 1.370 . S
C479 H447 0.929 . S
C479 C478 1.363 . S
C479 C480 1.385 . S
C480 H448 0.930 . S
C480 C479 1.385 . S
C480 C481 1.357 . S
C481 C480 1.357 . S
C481 C482 1.406 . S
C482 H449 0.929 . S
C482 C481 1.406 . S
C482 C483 1.391 . S
C483 H450 0.931 1_655 S
C483 C478 1.370 . S
C483 C482 1.391 . S
C484 N458 1.435 . S
C484 C485 1.358 . S
C484 C489 1.371 . S
C485 H451 0.930 . S
C485 C484 1.358 . S
C485 C486 1.405 . S
C486 H452 0.932 . S
C486 C485 1.405 . S
C486 C487 1.383 . S
C487 C486 1.383 . S
C487 C488 1.393 . S
C488 H453 0.931 . S
C488 C487 1.393 . S
C488 C489 1.382 . S
C489 H454 0.929 . S
C489 C484 1.371 . S
C489 C488 1.382 . S
C490 N458 1.423 1_455 S
C490 C491 1.362 . S
C490 C495 1.388 . S
C491 H455 0.929 . S
C491 C490 1.362 . S
C491 C492 1.376 . S
C492 H456 0.931 . S
C492 C491 1.376 . S
C492 C493 1.396 . S
C493 C475 1.472 . S
C493 C492 1.396 . S
C493 C494 1.348 . S
C494 H457 0.929 . S
C494 C493 1.348 . S
C494 C495 1.443 . S
C495 H459 0.932 . S
C495 C490 1.388 . S
C495 C494 1.443 . S
C496 O523 1.312 . S
C496 O524 1.208 . S
C497 O518 1.331 1_655 S
C497 O521 1.244 . S
C498 O520 1.264 1_655 S
C498 O522 1.273 . S
Mg499 O501 1.936 . S
Mg499 O508 2.081 . S
Mg499 O510 2.023 . S
Mg499 O514 2.031 . S
Mg499 O523 2.291 . S
Mg500 O501 1.963 . S
Mg500 O511 1.942 . S
Mg500 O512 1.955 . S
Mg500 O519 1.986 . S
O501 Mg499 1.936 . S
O501 Mg500 1.963 . S
O501 Mg502 1.915 . S
Mg502 O501 1.915 . S
Mg502 O503 1.915 . S
Mg502 O507 2.013 . S
Mg502 O513 2.114 . S
Mg502 O517 2.013 . S
Mg502 O523 2.114 . S
O503 Mg502 1.915 . S
O503 Mg504 1.936 . S
O503 Mg505 1.963 1_455 S
Mg504 O503 1.936 . S
Mg504 O513 2.291 . S
Mg504 O518 2.081 . S
Mg504 O520 2.023 . S
Mg504 O524 2.031 . S
Mg505 O503 1.963 1_655 S
Mg505 O509 1.986 . S
Mg505 O521 1.942 . S
Mg505 O522 1.955 . S
C506 O517 1.191 . S
C506 O519 1.307 . S
O507 Mg502 2.013 . S
O507 C526 1.191 . S
O508 Mg499 2.081 . S
O508 C516 1.331 . S
O509 Mg505 1.986 . S
O509 C526 1.307 1_655 S
O510 Mg499 2.023 . S
O510 C525 1.264 . S
O511 Mg500 1.942 . S
O511 C516 1.244 . S
O512 Mg500 1.955 . S
O512 C525 1.273 . S
O513 Mg502 2.114 . S
O513 Mg504 2.291 . S
O513 C515 1.312 . S
O514 Mg499 2.031 . S
O514 C515 1.208 . S
C515 O513 1.312 . S
C515 O514 1.208 . S
C516 O508 1.331 . S
C516 O511 1.244 . S
O517 Mg502 2.013 . S
O517 C506 1.191 . S
O518 C497 1.331 1_455 S
O518 Mg504 2.081 . S
O519 Mg500 1.986 . S
O519 C506 1.307 . S
O520 C498 1.264 1_455 S
O520 Mg504 2.023 . S
O521 C497 1.244 . S
O521 Mg505 1.942 . S
O522 C498 1.273 . S
O522 Mg505 1.955 . S
O523 C496 1.312 . S
O523 Mg499 2.291 . S
O523 Mg502 2.114 . S
O524 C496 1.208 . S
O524 Mg504 2.031 . S
C525 O510 1.264 . S
C525 O512 1.273 . S
C526 O507 1.191 . S
C526 O509 1.307 1_455 S
C527 O554 1.312 . S
C527 O555 1.208 . S
C528 O549 1.331 . S
C528 O552 1.244 . S
C529 O551 1.264 . S
C529 O553 1.273 . S
Mg530 O532 1.936 . S
Mg530 O539 2.081 . S
Mg530 O541 2.023 . S
Mg530 O545 2.031 . S
Mg530 O554 2.291 . S
Mg531 O532 1.963 . S
Mg531 O542 1.942 . S
Mg531 O543 1.955 . S
Mg531 O550 1.986 . S
O532 Mg530 1.936 . S
O532 Mg531 1.963 . S
O532 Mg533 1.915 . S
Mg533 O532 1.915 . S
Mg533 O534 1.915 . S
Mg533 O538 2.013 . S
Mg533 O544 2.114 . S
Mg533 O548 2.013 . S
Mg533 O554 2.114 . S
O534 Mg533 1.915 . S
O534 Mg535 1.936 . S
O534 Mg536 1.963 . S
Mg535 O534 1.936 . S
Mg535 O544 2.291 . S
Mg535 O549 2.081 . S
Mg535 O551 2.023 . S
Mg535 O555 2.031 . S
Mg536 O534 1.963 . S
Mg536 O540 1.986 . S
Mg536 O552 1.942 . S
Mg536 O553 1.955 . S
C537 O548 1.191 . S
C537 O550 1.307 . S
O538 Mg533 2.013 . S
O538 C557 1.191 . S
O539 Mg530 2.081 . S
O539 C547 1.331 . S
O540 Mg536 1.986 . S
O540 C557 1.307 . S
O541 Mg530 2.023 . S
O541 C556 1.264 . S
O542 Mg531 1.942 . S
O542 C547 1.244 . S
O543 Mg531 1.955 . S
O543 C556 1.273 . S
O544 Mg533 2.114 . S
O544 Mg535 2.291 . S
O544 C546 1.312 . S
O545 Mg530 2.031 . S
O545 C546 1.208 . S
C546 O544 1.312 . S
C546 O545 1.208 . S
C547 O539 1.331 . S
C547 O542 1.244 . S
O548 Mg533 2.013 . S
O548 C537 1.191 . S
O549 C528 1.331 . S
O549 Mg535 2.081 . S
O550 Mg531 1.986 . S
O550 C537 1.307 . S
O551 C529 1.264 . S
O551 Mg535 2.023 . S
O552 C528 1.244 . S
O552 Mg536 1.942 . S
O553 C529 1.273 . S
O553 Mg536 1.955 . S
O554 C527 1.312 . S
O554 Mg530 2.291 . S
O554 Mg533 2.114 . S
O555 C527 1.208 . S
O555 Mg535 2.031 . S
C556 O541 1.264 . S
C556 O543 1.273 . S
C557 O538 1.191 . S
C557 O540 1.307 . S
C558 O585 1.312 . S
C558 O586 1.208 . S
C559 O580 1.331 . S
C559 O583 1.244 . S
C560 O582 1.264 . S
C560 O584 1.273 . S
Mg561 O563 1.936 . S
Mg561 O570 2.081 . S
Mg561 O572 2.023 . S
Mg561 O576 2.031 . S
Mg561 O585 2.291 . S
Mg562 O563 1.963 . S
Mg562 O573 1.942 . S
Mg562 O574 1.955 . S
Mg562 O581 1.986 . S
O563 Mg561 1.936 . S
O563 Mg562 1.963 . S
O563 Mg564 1.915 . S
Mg564 O563 1.915 . S
Mg564 O565 1.915 . S
Mg564 O569 2.013 . S
Mg564 O575 2.114 . S
Mg564 O579 2.013 . S
Mg564 O585 2.114 . S
O565 Mg564 1.915 . S
O565 Mg566 1.936 . S
O565 Mg567 1.963 . S
Mg566 O565 1.936 . S
Mg566 O575 2.291 . S
Mg566 O580 2.081 . S
Mg566 O582 2.023 . S
Mg566 O586 2.031 . S
Mg567 O565 1.963 . S
Mg567 O571 1.986 . S
Mg567 O583 1.942 . S
Mg567 O584 1.955 . S
C568 O579 1.191 . S
C568 O581 1.307 . S
O569 Mg564 2.013 . S
O569 C588 1.191 . S
O570 Mg561 2.081 . S
O570 C578 1.331 . S
O571 Mg567 1.986 . S
O571 C588 1.307 . S
O572 Mg561 2.023 . S
O572 C587 1.264 . S
O573 Mg562 1.942 . S
O573 C578 1.244 . S
O574 Mg562 1.955 . S
O574 C587 1.273 . S
O575 Mg564 2.114 . S
O575 Mg566 2.291 . S
O575 C577 1.312 . S
O576 Mg561 2.031 . S
O576 C577 1.208 . S
C577 O575 1.312 . S
C577 O576 1.208 . S
C578 O570 1.331 . S
C578 O573 1.244 . S
O579 Mg564 2.013 . S
O579 C568 1.191 . S
O580 C559 1.331 . S
O580 Mg566 2.081 . S
O581 Mg562 1.986 . S
O581 C568 1.307 . S
O582 C560 1.264 . S
O582 Mg566 2.023 . S
O583 C559 1.244 . S
O583 Mg567 1.942 . S
O584 C560 1.273 . S
O584 Mg567 1.955 . S
O585 C558 1.312 . S
O585 Mg561 2.291 . S
O585 Mg564 2.114 . S
O586 C558 1.208 . S
O586 Mg566 2.031 . S
C587 O572 1.264 . S
C587 O574 1.273 . S
C588 O569 1.191 . S
C588 O571 1.307 . S
C589 O616 1.312 . S
C589 O617 1.208 . S
C590 O611 1.331 . S
C590 O614 1.244 . S
C591 O613 1.264 . S
C591 O615 1.273 . S
Mg592 O594 1.936 . S
Mg592 O601 2.081 . S
Mg592 O603 2.023 . S
Mg592 O607 2.031 . S
Mg592 O616 2.291 . S
Mg593 O594 1.963 1_655 S
Mg593 O604 1.942 . S
Mg593 O605 1.955 . S
Mg593 O612 1.986 . S
O594 Mg592 1.936 . S
O594 Mg593 1.963 1_455 S
O594 Mg595 1.915 . S
Mg595 O594 1.915 . S
Mg595 O596 1.915 . S
Mg595 O600 2.013 . S
Mg595 O606 2.114 . S
Mg595 O610 2.013 . S
Mg595 O616 2.114 . S
O596 Mg595 1.915 . S
O596 Mg597 1.936 . S
O596 Mg598 1.963 . S
Mg597 O596 1.936 . S
Mg597 O606 2.291 . S
Mg597 O611 2.081 . S
Mg597 O613 2.023 . S
Mg597 O617 2.031 . S
Mg598 O596 1.963 . S
Mg598 O602 1.986 . S
Mg598 O614 1.942 . S
Mg598 O615 1.955 . S
C599 O610 1.191 . S
C599 O612 1.307 1_455 S
O600 Mg595 2.013 . S
O600 C619 1.191 . S
O601 Mg592 2.081 . S
O601 C609 1.331 1_455 S
O602 Mg598 1.986 . S
O602 C619 1.307 . S
O603 Mg592 2.023 . S
O603 C618 1.264 1_455 S
O604 Mg593 1.942 . S
O604 C609 1.244 . S
O605 Mg593 1.955 . S
O605 C618 1.273 . S
O606 Mg595 2.114 . S
O606 Mg597 2.291 . S
O606 C608 1.312 . S
O607 Mg592 2.031 . S
O607 C608 1.208 . S
C608 O606 1.312 . S
C608 O607 1.208 . S
C609 O601 1.331 1_655 S
C609 O604 1.244 . S
O610 Mg595 2.013 . S
O610 C599 1.191 . S
O611 C590 1.331 . S
O611 Mg597 2.081 . S
O612 Mg593 1.986 . S
O612 C599 1.307 1_655 S
O613 C591 1.264 . S
O613 Mg597 2.023 . S
O614 C590 1.244 . S
O614 Mg598 1.942 . S
O615 C591 1.273 . S
O615 Mg598 1.955 . S
O616 C589 1.312 . S
O616 Mg592 2.291 . S
O616 Mg595 2.114 . S
O617 C589 1.208 . S
O617 Mg597 2.031 . S
C618 O603 1.264 1_655 S
C618 O605 1.273 . S
C619 O600 1.191 . S
C619 O602 1.307 . S
H620 C632 0.930 . S
H621 C634 0.930 . S
H622 C635 0.930 . S
H623 C639 0.959 . S
H624 C639 0.959 . S
H625 C639 0.961 . S
H626 C640 0.960 . S
H627 C640 0.961 . S
H628 C640 0.959 . S
H629 C643 0.929 . S
H630 C644 0.931 . S
H631 C646 0.930 . S
C632 H620 0.930 . S
C632 C633 1.399 . S
C632 C637 1.399 . S
C633 C632 1.399 . S
C633 C634 1.376 . S
C634 H621 0.930 . S
C634 C633 1.376 . S
C634 C635 1.388 . S
C635 H622 0.930 . S
C635 C634 1.388 . S
C635 C636 1.390 . S
C636 C635 1.390 . S
C636 C637 1.394 . S
C636 C642 1.465 . S
C637 C632 1.399 . S
C637 C636 1.394 . S
C637 C638 1.516 . S
C638 C637 1.516 . S
C638 C639 1.502 . S
C638 C640 1.561 . S
C638 C641 1.526 . S
C639 H623 0.959 . S
C639 H624 0.959 . S
C639 H625 0.961 . S
C639 C638 1.502 . S
C640 H626 0.960 . S
C640 H627 0.961 . S
C640 H628 0.959 . S
C640 C638 1.561 . S
C641 C638 1.526 . S
C641 C642 1.396 . S
C641 C646 1.390 . S
C642 C636 1.465 . S
C642 C641 1.396 . S
C642 C643 1.399 . S
C643 H629 0.929 . S
C643 C642 1.399 . S
C643 C644 1.385 . S
C644 H630 0.931 . S
C644 C643 1.385 . S
C644 C645 1.389 . S
C645 C644 1.389 . S
C645 C646 1.387 . S
C646 H631 0.930 . S
C646 C641 1.390 . S
C646 C645 1.387 . S
H647 C659 0.930 . S
H648 C661 0.930 . S
H649 C662 0.930 . S
H650 C666 0.959 . S
H651 C666 0.959 . S
H652 C666 0.961 . S
H653 C667 0.960 1_565 S
H654 C667 0.961 . S
H655 C667 0.959 . S
H656 C670 0.929 . S
H657 C671 0.931 . S
H658 C673 0.930 . S
C659 H647 0.930 . S
C659 C660 1.399 . S
C659 C664 1.399 1_565 S
C660 C659 1.399 . S
C660 C661 1.376 1_565 S
C661 H648 0.930 . S
C661 C660 1.376 1_545 S
C661 C662 1.388 . S
C662 H649 0.930 . S
C662 C661 1.388 . S
C662 C663 1.390 . S
C663 C662 1.390 . S
C663 C664 1.394 . S
C663 C669 1.465 . S
C664 C659 1.399 1_545 S
C664 C663 1.394 . S
C664 C665 1.516 . S
C665 C664 1.516 . S
C665 C666 1.502 1_545 S
C665 C667 1.561 . S
C665 C668 1.526 . S
C666 H650 0.959 . S
C666 H651 0.959 . S
C666 H652 0.961 . S
C666 C665 1.502 1_565 S
C667 H653 0.960 1_545 S
C667 H654 0.961 . S
C667 H655 0.959 . S
C667 C665 1.561 . S
C668 C665 1.526 . S
C668 C669 1.396 . S
C668 C673 1.390 . S
C669 C663 1.465 . S
C669 C668 1.396 . S
C669 C670 1.399 . S
C670 H656 0.929 . S
C670 C669 1.399 . S
C670 C671 1.385 . S
C671 H657 0.931 . S
C671 C670 1.385 . S
C671 C672 1.389 . S
C672 C671 1.389 . S
C672 C673 1.387 . S
C673 H658 0.930 . S
C673 C668 1.390 . S
C673 C672 1.387 . S
H674 C686 0.930 . S
H675 C688 0.930 . S
H676 C689 0.930 . S
H677 C693 0.959 . S
H678 C693 0.959 . S
H679 C693 0.961 . S
H680 C694 0.960 . S
H681 C694 0.961 . S
H682 C694 0.959 . S
H683 C697 0.929 . S
H684 C698 0.931 . S
H685 C700 0.930 . S
C686 H674 0.930 . S
C686 C687 1.399 . S
C686 C691 1.399 . S
C687 C686 1.399 . S
C687 C688 1.376 . S
C688 H675 0.930 . S
C688 C687 1.376 . S
C688 C689 1.388 . S
C689 H676 0.930 . S
C689 C688 1.388 . S
C689 C690 1.390 . S
C690 C689 1.390 . S
C690 C691 1.394 . S
C690 C696 1.465 . S
C691 C686 1.399 . S
C691 C690 1.394 . S
C691 C692 1.516 . S
C692 C691 1.516 . S
C692 C693 1.502 . S
C692 C694 1.561 . S
C692 C695 1.526 . S
C693 H677 0.959 . S
C693 H678 0.959 . S
C693 H679 0.961 . S
C693 C692 1.502 . S
C694 H680 0.960 . S
C694 H681 0.961 . S
C694 H682 0.959 . S
C694 C692 1.561 . S
C695 C692 1.526 . S
C695 C696 1.396 . S
C695 C700 1.390 . S
C696 C690 1.465 . S
C696 C695 1.396 . S
C696 C697 1.399 . S
C697 H683 0.929 . S
C697 C696 1.399 . S
C697 C698 1.385 . S
C698 H684 0.931 . S
C698 C697 1.385 . S
C698 C699 1.389 . S
C699 C698 1.389 . S
C699 C700 1.387 . S
C700 H685 0.930 . S
C700 C695 1.390 . S
C700 C699 1.387 . S
H701 C713 0.938 . S
H702 C715 0.930 . S
H703 C716 0.930 . S
H704 C720 0.959 . S
H705 C720 0.959 . S
H706 C720 0.961 . S
H707 C721 0.960 . S
H708 C721 0.961 . S
H709 C721 0.959 . S
H710 C724 0.929 . S
H711 C725 0.931 . S
H712 C727 0.930 . S
C713 H701 0.938 . S
C713 C714 1.378 1_565 S
C713 C718 1.411 . S
C714 C713 1.378 1_545 S
C714 C715 1.376 . S
C715 H702 0.930 . S
C715 C714 1.376 . S
C715 C716 1.388 . S
C716 H703 0.930 . S
C716 C715 1.388 . S
C716 C717 1.390 1_545 S
C717 C716 1.390 1_565 S
C717 C718 1.394 . S
C717 C723 1.465 . S
C718 C713 1.411 . S
C718 C717 1.394 . S
C718 C719 1.516 . S
C719 C718 1.516 . S
C719 C720 1.502 . S
C719 C721 1.561 . S
C719 C722 1.526 . S
C720 H704 0.959 . S
C720 H705 0.959 . S
C720 H706 0.961 . S
C720 C719 1.502 . S
C721 H707 0.960 . S
C721 H708 0.961 . S
C721 H709 0.959 . S
C721 C719 1.561 . S
C722 C719 1.526 . S
C722 C723 1.396 . S
C722 C727 1.390 . S
C723 C717 1.465 . S
C723 C722 1.396 . S
C723 C724 1.399 . S
C724 H710 0.929 . S
C724 C723 1.399 . S
C724 C725 1.385 . S
C725 H711 0.931 . S
C725 C724 1.385 . S
C725 C726 1.389 . S
C726 C725 1.389 . S
C726 C727 1.387 . S
C727 H712 0.930 . S
C727 C722 1.390 . S
C727 C726 1.387 . S
H728 C740 0.930 . S
H729 C742 0.930 . S
H730 C743 0.930 . S
H731 C747 0.959 . S
H732 C747 0.959 . S
H733 C747 0.961 . S
H734 C748 0.960 . S
H735 C748 0.961 . S
H736 C748 0.959 . S
H737 C751 0.929 . S
H738 C752 0.931 . S
H739 C754 0.930 . S
C740 H728 0.930 . S
C740 C741 1.399 . S
C740 C745 1.399 . S
C741 C740 1.399 . S
C741 C742 1.376 . S
C742 H729 0.930 . S
C742 C741 1.376 . S
C742 C743 1.388 . S
C743 H730 0.930 . S
C743 C742 1.388 . S
C743 C744 1.390 . S
C744 C743 1.390 . S
C744 C745 1.394 . S
C744 C750 1.465 . S
C745 C740 1.399 . S
C745 C744 1.394 . S
C745 C746 1.516 . S
C746 C745 1.516 . S
C746 C747 1.502 . S
C746 C748 1.561 . S
C746 C749 1.526 . S
C747 H731 0.959 . S
C747 H732 0.959 . S
C747 H733 0.961 . S
C747 C746 1.502 . S
C748 H734 0.960 . S
C748 H735 0.961 . S
C748 H736 0.959 . S
C748 C746 1.561 . S
C749 C746 1.526 . S
C749 C750 1.396 . S
C749 C754 1.390 . S
C750 C744 1.465 . S
C750 C749 1.396 . S
C750 C751 1.399 . S
C751 H737 0.929 . S
C751 C750 1.399 . S
C751 C752 1.385 . S
C752 H738 0.931 . S
C752 C751 1.385 . S
C752 C753 1.389 . S
C753 C752 1.389 . S
C753 C754 1.387 . S
C754 H739 0.930 . S
C754 C749 1.390 . S
C754 C753 1.387 . S
H755 C767 0.930 . S
H756 C769 0.930 . S
H757 C770 0.930 . S
H758 C774 0.959 1_545 S
H759 C774 0.953 1_545 S
H760 C774 0.961 . S
H761 C775 0.960 . S
H762 C775 0.961 . S
H763 C775 0.959 . S
H764 C778 0.929 . S
H765 C779 0.931 . S
H766 C781 0.930 . S
C767 H755 0.930 . S
C767 C768 1.399 . S
C767 C772 1.399 . S
C768 C767 1.399 . S
C768 C769 1.376 . S
C769 H756 0.930 . S
C769 C768 1.376 . S
C769 C770 1.388 1_565 S
C770 H757 0.930 . S
C770 C769 1.388 1_545 S
C770 C771 1.390 . S
C771 C770 1.390 . S
C771 C772 1.394 1_545 S
C771 C777 1.465 . S
C772 C767 1.399 . S
C772 C771 1.394 1_565 S
C772 C773 1.516 1_565 S
C773 C772 1.516 1_545 S
C773 C774 1.502 1_545 S
C773 C775 1.561 1_545 S
C773 C776 1.526 . S
C774 H758 0.959 1_565 S
C774 H759 0.953 1_565 S
C774 H760 0.961 . S
C774 C773 1.502 1_565 S
C775 H761 0.960 . S
C775 H762 0.961 . S
C775 H763 0.959 . S
C775 C773 1.561 1_565 S
C776 C773 1.526 . S
C776 C777 1.396 . S
C776 C781 1.390 . S
C777 C771 1.465 . S
C777 C776 1.396 . S
C777 C778 1.399 . S
C778 H764 0.929 . S
C778 C777 1.399 . S
C778 C779 1.385 . S
C779 H765 0.931 . S
C779 C778 1.385 . S
C779 C780 1.389 . S
C780 C779 1.389 . S
C780 C781 1.387 . S
C781 H766 0.930 . S
C781 C776 1.390 . S
C781 C780 1.387 . S
H782 C794 0.930 . S
H783 C796 0.930 . S
H784 C797 0.930 . S
H785 C801 0.959 . S
H786 C801 0.959 . S
H787 C801 0.961 . S
H788 C802 0.960 . S
H789 C802 0.961 . S
H790 C802 0.959 . S
H791 C805 0.929 . S
H792 C806 0.931 . S
H793 C808 0.930 . S
C794 H782 0.930 . S
C794 C795 1.399 . S
C794 C799 1.399 . S
C795 C794 1.399 . S
C795 C796 1.376 . S
C796 H783 0.930 . S
C796 C795 1.376 . S
C796 C797 1.388 . S
C797 H784 0.930 . S
C797 C796 1.388 . S
C797 C798 1.390 . S
C798 C797 1.390 . S
C798 C799 1.394 . S
C798 C804 1.465 . S
C799 C794 1.399 . S
C799 C798 1.394 . S
C799 C800 1.516 . S
C800 C799 1.516 . S
C800 C801 1.502 . S
C800 C802 1.561 . S
C800 C803 1.526 . S
C801 H785 0.959 . S
C801 H786 0.959 . S
C801 H787 0.961 . S
C801 C800 1.502 . S
C802 H788 0.960 . S
C802 H789 0.961 . S
C802 H790 0.959 . S
C802 C800 1.561 . S
C803 C800 1.526 . S
C803 C804 1.396 . S
C803 C808 1.390 . S
C804 C798 1.465 . S
C804 C803 1.396 . S
C804 C805 1.399 . S
C805 H791 0.929 . S
C805 C804 1.399 . S
C805 C806 1.385 . S
C806 H792 0.931 . S
C806 C805 1.385 . S
C806 C807 1.389 . S
C807 C806 1.389 . S
C807 C808 1.387 . S
C808 H793 0.930 . S
C808 C803 1.390 . S
C808 C807 1.387 . S
H809 C821 0.930 . S
H810 C823 0.930 . S
H811 C824 0.930 . S
H812 C828 0.959 . S
H813 C828 0.959 . S
H814 C828 0.961 . S
H815 C829 0.960 . S
H816 C829 0.961 . S
H817 C829 0.959 . S
H818 C832 0.913 1_545 S
H819 C833 0.931 . S
H820 C835 0.930 . S
C821 H809 0.930 . S
C821 C822 1.399 . S
C821 C826 1.399 . S
C822 C821 1.399 . S
C822 C823 1.376 . S
C823 H810 0.930 . S
C823 C822 1.376 . S
C823 C824 1.388 . S
C824 H811 0.930 . S
C824 C823 1.388 . S
C824 C825 1.390 . S
C825 C824 1.390 . S
C825 C826 1.394 . S
C825 C831 1.465 1_545 S
C826 C821 1.399 . S
C826 C825 1.394 . S
C826 C827 1.516 1_545 S
C827 C826 1.516 1_565 S
C827 C828 1.502 . S
C827 C829 1.561 . S
C827 C830 1.526 . S
C828 H812 0.959 . S
C828 H813 0.959 . S
C828 H814 0.961 . S
C828 C827 1.502 . S
C829 H815 0.960 . S
C829 H816 0.961 . S
C829 H817 0.959 . S
C829 C827 1.561 . S
C830 C827 1.526 . S
C830 C831 1.396 . S
C830 C835 1.390 . S
C831 C825 1.465 1_565 S
C831 C830 1.396 . S
C831 C832 1.399 . S
C832 H818 0.913 1_565 S
C832 C831 1.399 . S
C832 C833 1.385 . S
C833 H819 0.931 . S
C833 C832 1.385 . S
C833 C834 1.389 . S
C834 C833 1.389 . S
C834 C835 1.387 . S
C835 H820 0.930 . S
C835 C830 1.390 . S
C835 C834 1.387 . S
H836 C848 0.930 . S
H837 C850 0.930 . S
H838 C851 0.930 . S
H839 C855 0.959 . S
H840 C855 0.959 . S
H841 C855 0.961 . S
H842 C856 0.960 . S
H843 C856 0.961 . S
H844 C856 0.959 . S
H845 C859 0.929 . S
H846 C860 0.931 . S
H847 C862 0.930 . S
C848 H836 0.930 . S
C848 C849 1.399 . S
C848 C853 1.399 . S
C849 C848 1.399 . S
C849 C850 1.376 . S
C850 H837 0.930 . S
C850 C849 1.376 . S
C850 C851 1.388 . S
C851 H838 0.930 . S
C851 C850 1.388 . S
C851 C852 1.390 . S
C852 C851 1.390 . S
C852 C853 1.394 . S
C852 C858 1.465 . S
C853 C848 1.399 . S
C853 C852 1.394 . S
C853 C854 1.516 . S
C854 C853 1.516 . S
C854 C855 1.502 . S
C854 C856 1.561 . S
C854 C857 1.526 . S
C855 H839 0.959 . S
C855 H840 0.959 . S
C855 H841 0.961 . S
C855 C854 1.502 . S
C856 H842 0.960 . S
C856 H843 0.961 . S
C856 H844 0.959 . S
C856 C854 1.561 . S
C857 C854 1.526 . S
C857 C858 1.396 . S
C857 C862 1.390 . S
C858 C852 1.465 . S
C858 C857 1.396 . S
C858 C859 1.399 . S
C859 H845 0.929 . S
C859 C858 1.399 . S
C859 C860 1.385 . S
C860 H846 0.931 . S
C860 C859 1.385 . S
C860 C861 1.389 . S
C861 C860 1.389 . S
C861 C862 1.387 . S
C862 H847 0.930 . S
C862 C857 1.390 . S
C862 C861 1.387 . S
H863 C875 0.930 . S
H864 C877 0.930 . S
H865 C878 0.930 . S
H866 C882 0.959 . S
H867 C882 0.959 . S
H868 C882 0.961 . S
H869 C883 0.960 . S
H870 C883 0.961 . S
H871 C883 0.959 . S
H872 C886 0.929 . S
H873 C887 0.931 . S
H874 C889 0.930 . S
C875 H863 0.930 . S
C875 C876 1.399 . S
C875 C880 1.399 . S
C876 C875 1.399 . S
C876 C877 1.376 . S
C877 H864 0.930 . S
C877 C876 1.376 . S
C877 C878 1.388 . S
C878 H865 0.930 . S
C878 C877 1.388 . S
C878 C879 1.390 . S
C879 C878 1.390 . S
C879 C880 1.394 . S
C879 C885 1.465 . S
C880 C875 1.399 . S
C880 C879 1.394 . S
C880 C881 1.516 . S
C881 C880 1.516 . S
C881 C882 1.502 . S
C881 C883 1.561 . S
C881 C884 1.526 . S
C882 H866 0.959 . S
C882 H867 0.959 . S
C882 H868 0.961 . S
C882 C881 1.502 . S
C883 H869 0.960 . S
C883 H870 0.961 . S
C883 H871 0.959 . S
C883 C881 1.561 . S
C884 C881 1.526 . S
C884 C885 1.396 . S
C884 C889 1.390 . S
C885 C879 1.465 . S
C885 C884 1.396 . S
C885 C886 1.399 . S
C886 H872 0.929 . S
C886 C885 1.399 . S
C886 C887 1.385 . S
C887 H873 0.931 . S
C887 C886 1.385 . S
C887 C888 1.389 . S
C888 C887 1.389 . S
C888 C889 1.387 . S
C889 H874 0.930 . S
C889 C884 1.390 . S
C889 C888 1.387 . S
H890 C902 0.930 . S
H891 C904 0.930 . S
H892 C905 0.930 . S
H893 C909 0.959 . S
H894 C909 0.959 . S
H895 C909 0.961 . S
H896 C910 0.960 . S
H897 C910 0.961 . S
H898 C910 0.959 . S
H899 C913 0.929 . S
H900 C914 0.931 . S
H901 C916 0.930 . S
C902 H890 0.930 . S
C902 C903 1.399 . S
C902 C907 1.399 . S
C903 C902 1.399 . S
C903 C904 1.376 . S
C904 H891 0.930 . S
C904 C903 1.376 . S
C904 C905 1.388 . S
C905 H892 0.930 . S
C905 C904 1.388 . S
C905 C906 1.390 . S
C906 C905 1.390 . S
C906 C907 1.394 . S
C906 C912 1.465 . S
C907 C902 1.399 . S
C907 C906 1.394 . S
C907 C908 1.516 . S
C908 C907 1.516 . S
C908 C909 1.502 . S
C908 C910 1.561 . S
C908 C911 1.526 . S
C909 H893 0.959 . S
C909 H894 0.959 . S
C909 H895 0.961 . S
C909 C908 1.502 . S
C910 H896 0.960 . S
C910 H897 0.961 . S
C910 H898 0.959 . S
C910 C908 1.561 . S
C911 C908 1.526 . S
C911 C912 1.396 . S
C911 C916 1.390 . S
C912 C906 1.465 . S
C912 C911 1.396 . S
C912 C913 1.399 1_655 S
C913 H899 0.929 . S
C913 C912 1.399 1_455 S
C913 C914 1.385 . S
C914 H900 0.931 . S
C914 C913 1.385 . S
C914 C915 1.389 . S
C915 C914 1.389 . S
C915 C916 1.387 1_455 S
C916 H901 0.930 . S
C916 C911 1.390 . S
C916 C915 1.387 1_655 S
H917 C929 0.930 . S
H918 C931 0.930 1_565 S
H919 C932 0.930 . S
H920 C936 0.959 . S
H921 C936 0.959 . S
H922 C936 0.961 1_655 S
H923 C937 0.960 . S
H924 C937 0.961 . S
H925 C937 0.959 . S
H926 C940 0.929 . S
H927 C941 0.934 . S
H928 C943 0.930 . S
C929 H917 0.930 . S
C929 C930 1.399 . S
C929 C934 1.399 . S
C930 C929 1.399 . S
C930 C931 1.376 . S
C931 H918 0.930 1_545 S
C931 C930 1.376 . S
C931 C932 1.388 . S
C932 H919 0.930 . S
C932 C931 1.388 . S
C932 C933 1.390 . S
C933 C932 1.390 . S
C933 C934 1.394 . S
C933 C939 1.465 . S
C934 C929 1.399 . S
C934 C933 1.394 . S
C934 C935 1.516 . S
C935 C934 1.516 . S
C935 C936 1.502 1_655 S
C935 C937 1.561 . S
C935 C938 1.526 . S
C936 H920 0.959 . S
C936 H921 0.959 . S
C936 H922 0.961 1_455 S
C936 C935 1.502 1_455 S
C937 H923 0.960 . S
C937 H924 0.961 . S
C937 H925 0.959 . S
C937 C935 1.561 . S
C938 C935 1.526 . S
C938 C939 1.396 . S
C938 C943 1.390 1_655 S
C939 C933 1.465 . S
C939 C938 1.396 . S
C939 C940 1.399 . S
C940 H926 0.929 . S
C940 C939 1.399 . S
C940 C941 1.379 1_655 S
C941 H927 0.934 . S
C941 C940 1.379 1_455 S
C941 C942 1.393 . S
C942 C941 1.393 . S
C942 C943 1.387 . S
C943 H928 0.930 . S
C943 C938 1.390 1_455 S
C943 C942 1.387 . S
H944 C956 0.930 . S
H945 C958 0.930 . S
H946 C959 0.930 . S
H947 C963 0.959 . S
H948 C963 0.959 . S
H949 C963 0.961 . S
H950 C964 0.960 . S
H951 C964 0.961 . S
H952 C964 0.959 . S
H953 C967 0.929 . S
H954 C968 0.931 . S
H955 C970 0.930 . S
C956 H944 0.930 . S
C956 C957 1.399 . S
C956 C961 1.399 . S
C957 C956 1.399 . S
C957 C958 1.376 . S
C958 H945 0.930 . S
C958 C957 1.376 . S
C958 C959 1.388 . S
C959 H946 0.930 . S
C959 C958 1.388 . S
C959 C960 1.390 . S
C960 C959 1.390 . S
C960 C961 1.394 . S
C960 C966 1.465 . S
C961 C956 1.399 . S
C961 C960 1.394 . S
C961 C962 1.516 . S
C962 C961 1.516 . S
C962 C963 1.502 . S
C962 C964 1.561 . S
C962 C965 1.526 . S
C963 H947 0.959 . S
C963 H948 0.959 . S
C963 H949 0.961 . S
C963 C962 1.502 . S
C964 H950 0.960 . S
C964 H951 0.961 . S
C964 H952 0.959 . S
C964 C962 1.561 . S
C965 C962 1.526 . S
C965 C966 1.396 . S
C965 C970 1.390 . S
C966 C960 1.465 . S
C966 C965 1.396 . S
C966 C967 1.399 . S
C967 H953 0.929 . S
C967 C966 1.399 . S
C967 C968 1.385 . S
C968 H954 0.931 . S
C968 C967 1.385 . S
C968 C969 1.389 . S
C969 C968 1.389 . S
C969 C970 1.387 . S
C970 H955 0.930 . S
C970 C965 1.390 . S
C970 C969 1.387 . S
H971 C983 0.930 . S
H972 C985 0.930 . S
H973 C986 0.930 . S
H974 C990 0.959 1_455 S
H975 C990 0.959 1_455 S
H976 C990 0.961 . S
H977 C991 0.960 . S
H978 C991 0.961 . S
H979 C991 0.959 . S
H980 C994 0.929 . S
H981 C995 0.931 1_455 S
H982 C997 0.930 . S
C983 H971 0.930 . S
C983 C984 1.399 . S
C983 C988 1.399 . S
C984 C983 1.399 . S
C984 C985 1.376 . S
C985 H972 0.930 . S
C985 C984 1.376 . S
C985 C986 1.388 . S
C986 H973 0.930 . S
C986 C985 1.388 . S
C986 C987 1.390 . S
C987 C986 1.390 . S
C987 C988 1.394 . S
C987 C993 1.465 . S
C988 C983 1.399 . S
C988 C987 1.394 . S
C988 C989 1.516 . S
C989 C988 1.516 . S
C989 C990 1.502 . S
C989 C991 1.561 . S
C989 C992 1.526 . S
C990 H974 0.959 1_655 S
C990 H975 0.959 1_655 S
C990 H976 0.961 . S
C990 C989 1.502 . S
C991 H977 0.960 . S
C991 H978 0.961 . S
C991 H979 0.959 . S
C991 C989 1.561 . S
C992 C989 1.526 . S
C992 C993 1.396 . S
C992 C997 1.390 1_655 S
C993 C987 1.465 . S
C993 C992 1.396 . S
C993 C994 1.399 . S
C994 H980 0.929 . S
C994 C993 1.399 . S
C994 C995 1.385 . S
C995 H981 0.931 1_655 S
C995 C994 1.385 . S
C995 C996 1.389 1_655 S
C996 C995 1.389 1_455 S
C996 C997 1.387 . S
C997 H982 0.930 . S
C997 C992 1.390 1_455 S
C997 C996 1.387 . S
H998 C1010 0.930 . S
H999 C1012 0.930 . S
H1000 C1013 0.930 . S
H1001 C1017 0.959 . S
H1002 C1017 0.959 . S
H1003 C1017 0.961 1_655 S
H1004 C1018 0.960 . S
H1005 C1018 0.961 . S
H1006 C1018 0.959 . S
H1007 C1021 0.929 . S
H1008 C1022 0.931 1_455 S
H1009 C1024 0.930 . S
C1010 H998 0.930 . S
C1010 C1011 1.399 . S
C1010 C1015 1.399 . S
C1011 C1010 1.399 . S
C1011 C1012 1.376 . S
C1012 H999 0.930 . S
C1012 C1011 1.376 . S
C1012 C1013 1.388 . S
C1013 H1000 0.930 . S
C1013 C1012 1.388 . S
C1013 C1014 1.390 . S
C1014 C1013 1.390 . S
C1014 C1015 1.394 . S
C1014 C1020 1.465 . S
C1015 C1010 1.399 . S
C1015 C1014 1.394 . S
C1015 C1016 1.516 . S
C1016 C1015 1.516 . S
C1016 C1017 1.502 1_655 S
C1016 C1018 1.561 . S
C1016 C1019 1.526 . S
C1017 H1001 0.959 . S
C1017 H1002 0.959 . S
C1017 H1003 0.961 1_455 S
C1017 C1016 1.502 1_455 S
C1018 H1004 0.960 . S
C1018 H1005 0.961 . S
C1018 H1006 0.959 . S
C1018 C1016 1.561 . S
C1019 C1016 1.526 . S
C1019 C1020 1.396 . S
C1019 C1024 1.390 1_655 S
C1020 C1014 1.465 . S
C1020 C1019 1.396 . S
C1020 C1021 1.399 . S
C1021 H1007 0.929 . S
C1021 C1020 1.399 . S
C1021 C1022 1.385 . S
C1022 H1008 0.931 1_655 S
C1022 C1021 1.385 . S
C1022 C1023 1.389 1_655 S
C1023 C1022 1.389 1_455 S
C1023 C1024 1.387 . S
C1024 H1009 0.930 . S
C1024 C1019 1.390 1_455 S
C1024 C1023 1.387 . S
H1025 C1037 0.930 . S
H1026 C1039 0.930 . S
H1027 C1040 0.930 . S
H1028 C1044 0.959 . S
H1029 C1044 0.959 . S
H1030 C1044 0.961 . S
H1031 C1045 0.960 . S
H1032 C1045 0.961 . S
H1033 C1045 0.959 . S
H1034 C1048 0.929 . S
H1035 C1049 0.931 . S
H1036 C1051 0.930 . S
C1037 H1025 0.930 . S
C1037 C1038 1.399 . S
C1037 C1042 1.399 . S
C1038 C1037 1.399 . S
C1038 C1039 1.376 . S
C1039 H1026 0.930 . S
C1039 C1038 1.376 . S
C1039 C1040 1.388 . S
C1040 H1027 0.930 . S
C1040 C1039 1.388 . S
C1040 C1041 1.390 . S
C1041 C1040 1.390 . S
C1041 C1042 1.394 . S
C1041 C1047 1.465 . S
C1042 C1037 1.399 . S
C1042 C1041 1.394 . S
C1042 C1043 1.516 . S
C1043 C1042 1.516 . S
C1043 C1044 1.502 . S
C1043 C1045 1.561 . S
C1043 C1046 1.526 . S
C1044 H1028 0.959 . S
C1044 H1029 0.959 . S
C1044 H1030 0.961 . S
C1044 C1043 1.502 . S
C1045 H1031 0.960 . S
C1045 H1032 0.961 . S
C1045 H1033 0.959 . S
C1045 C1043 1.561 . S
C1046 C1043 1.526 . S
C1046 C1047 1.396 . S
C1046 C1051 1.390 . S
C1047 C1041 1.465 . S
C1047 C1046 1.396 . S
C1047 C1048 1.399 . S
C1048 H1034 0.929 . S
C1048 C1047 1.399 . S
C1048 C1049 1.385 . S
C1049 H1035 0.931 . S
C1049 C1048 1.385 . S
C1049 C1050 1.389 . S
C1050 C1049 1.389 . S
C1050 C1051 1.387 . S
C1051 H1036 0.930 . S
C1051 C1046 1.390 . S
C1051 C1050 1.387 . S
H1052 C1064 0.930 . S
H1053 C1066 0.930 . S
H1054 C1067 0.930 . S
H1055 C1071 0.959 . S
H1056 C1071 0.959 . S
H1057 C1071 0.961 . S
H1058 C1072 0.960 . S
H1059 C1072 0.961 . S
H1060 C1072 0.959 . S
H1061 C1075 0.929 . S
H1062 C1076 0.931 . S
H1063 C1078 0.930 . S
C1064 H1052 0.930 . S
C1064 C1065 1.399 . S
C1064 C1069 1.399 . S
C1065 C1064 1.399 . S
C1065 C1066 1.376 . S
C1066 H1053 0.930 . S
C1066 C1065 1.376 . S
C1066 C1067 1.388 . S
C1067 H1054 0.930 . S
C1067 C1066 1.388 . S
C1067 C1068 1.390 . S
C1068 C1067 1.390 . S
C1068 C1069 1.394 . S
C1068 C1074 1.465 . S
C1069 C1064 1.399 . S
C1069 C1068 1.394 . S
C1069 C1070 1.516 . S
C1070 C1069 1.516 . S
C1070 C1071 1.502 . S
C1070 C1072 1.561 . S
C1070 C1073 1.526 . S
C1071 H1055 0.959 . S
C1071 H1056 0.959 . S
C1071 H1057 0.961 . S
C1071 C1070 1.502 . S
C1072 H1058 0.960 . S
C1072 H1059 0.961 . S
C1072 H1060 0.959 . S
C1072 C1070 1.561 . S
C1073 C1070 1.526 . S
C1073 C1074 1.396 . S
C1073 C1078 1.390 . S
C1074 C1068 1.465 . S
C1074 C1073 1.396 . S
C1074 C1075 1.399 . S
C1075 H1061 0.929 . S
C1075 C1074 1.399 . S
C1075 C1076 1.385 . S
C1076 H1062 0.931 . S
C1076 C1075 1.385 . S
C1076 C1077 1.389 . S
C1077 C1076 1.389 . S
C1077 C1078 1.387 . S
C1078 H1063 0.930 . S
C1078 C1073 1.390 . S
C1078 C1077 1.387 . S
H1079 C1091 0.930 . S
H1080 C1093 0.930 . S
H1081 C1094 0.930 . S
H1082 C1098 0.959 . S
H1083 C1098 0.959 . S
H1084 C1098 0.961 . S
H1085 C1099 0.960 . S
H1086 C1099 0.961 . S
H1087 C1099 0.959 1_455 S
H1088 C1102 0.929 . S
H1089 C1103 0.931 . S
H1090 C1105 0.930 . S
C1091 H1079 0.930 . S
C1091 C1092 1.399 . S
C1091 C1096 1.399 . S
C1092 C1091 1.399 . S
C1092 C1093 1.376 . S
C1093 H1080 0.930 . S
C1093 C1092 1.376 . S
C1093 C1094 1.388 . S
C1094 H1081 0.930 . S
C1094 C1093 1.388 . S
C1094 C1095 1.390 . S
C1095 C1094 1.390 . S
C1095 C1096 1.394 . S
C1095 C1101 1.465 . S
C1096 C1091 1.399 . S
C1096 C1095 1.394 . S
C1096 C1097 1.516 . S
C1097 C1096 1.516 . S
C1097 C1098 1.502 . S
C1097 C1099 1.561 . S
C1097 C1100 1.526 . S
C1098 H1082 0.959 . S
C1098 H1083 0.959 . S
C1098 H1084 0.961 . S
C1098 C1097 1.502 . S
C1099 H1085 0.960 . S
C1099 H1086 0.961 . S
C1099 H1087 0.959 1_655 S
C1099 C1097 1.561 . S
C1100 C1097 1.526 . S
C1100 C1101 1.396 . S
C1100 C1105 1.390 . S
C1101 C1095 1.465 . S
C1101 C1100 1.396 . S
C1101 C1102 1.399 . S
C1102 H1088 0.929 . S
C1102 C1101 1.399 . S
C1102 C1103 1.385 . S
C1103 H1089 0.931 . S
C1103 C1102 1.385 . S
C1103 C1104 1.389 . S
C1104 C1103 1.389 . S
C1104 C1105 1.387 . S
C1105 H1090 0.930 . S
C1105 C1100 1.390 . S
C1105 C1104 1.387 . S
H1106 C1118 0.930 . S
H1107 C1120 0.930 . S
H1108 C1121 0.930 . S
H1109 C1125 0.959 . S
H1110 C1125 0.959 . S
H1111 C1125 0.961 . S
H1112 C1126 0.960 . S
H1113 C1126 0.961 . S
H1114 C1126 0.959 . S
H1115 C1129 0.929 . S
H1116 C1130 0.931 . S
H1117 C1132 0.930 . S
C1118 H1106 0.930 . S
C1118 C1119 1.399 . S
C1118 C1123 1.399 . S
C1119 C1118 1.399 . S
C1119 C1120 1.376 . S
C1120 H1107 0.930 . S
C1120 C1119 1.376 . S
C1120 C1121 1.388 . S
C1121 H1108 0.930 . S
C1121 C1120 1.388 . S
C1121 C1122 1.390 . S
C1122 C1121 1.390 . S
C1122 C1123 1.394 . S
C1122 C1128 1.465 . S
C1123 C1118 1.399 . S
C1123 C1122 1.394 . S
C1123 C1124 1.516 . S
C1124 C1123 1.516 . S
C1124 C1125 1.502 . S
C1124 C1126 1.561 . S
C1124 C1127 1.526 . S
C1125 H1109 0.959 . S
C1125 H1110 0.959 . S
C1125 H1111 0.961 . S
C1125 C1124 1.502 . S
C1126 H1112 0.960 . S
C1126 H1113 0.961 . S
C1126 H1114 0.959 . S
C1126 C1124 1.561 . S
C1127 C1124 1.526 . S
C1127 C1128 1.396 . S
C1127 C1132 1.390 . S
C1128 C1122 1.465 . S
C1128 C1127 1.396 . S
C1128 C1129 1.399 . S
C1129 H1115 0.929 . S
C1129 C1128 1.399 . S
C1129 C1130 1.385 . S
C1130 H1116 0.931 . S
C1130 C1129 1.385 . S
C1130 C1131 1.389 . S
C1131 C1130 1.389 . S
C1131 C1132 1.387 . S
C1132 H1117 0.930 . S
C1132 C1127 1.390 . S
C1132 C1131 1.387 . S
H1133 C1145 0.930 . S
H1134 C1147 0.930 . S
H1135 C1148 0.930 . S
H1136 C1152 0.959 . S
H1137 C1152 0.959 . S
H1138 C1152 0.961 . S
H1139 C1153 0.960 . S
H1140 C1153 0.961 . S
H1141 C1153 0.959 . S
H1142 C1156 0.929 . S
H1143 C1157 0.931 . S
H1144 C1159 0.930 . S
C1145 H1133 0.930 . S
C1145 C1146 1.399 . S
C1145 C1150 1.399 . S
C1146 C1145 1.399 . S
C1146 C1147 1.376 . S
C1147 H1134 0.930 . S
C1147 C1146 1.376 . S
C1147 C1148 1.388 . S
C1148 H1135 0.930 . S
C1148 C1147 1.388 . S
C1148 C1149 1.390 . S
C1149 C1148 1.390 . S
C1149 C1150 1.394 . S
C1149 C1155 1.465 . S
C1150 C1145 1.399 . S
C1150 C1149 1.394 . S
C1150 C1151 1.516 . S
C1151 C1150 1.516 . S
C1151 C1152 1.502 . S
C1151 C1153 1.561 . S
C1151 C1154 1.526 . S
C1152 H1136 0.959 . S
C1152 H1137 0.959 . S
C1152 H1138 0.961 . S
C1152 C1151 1.502 . S
C1153 H1139 0.960 . S
C1153 H1140 0.961 . S
C1153 H1141 0.959 . S
C1153 C1151 1.561 . S
C1154 C1151 1.526 . S
C1154 C1155 1.396 . S
C1154 C1159 1.390 . S
C1155 C1149 1.465 . S
C1155 C1154 1.396 . S
C1155 C1156 1.399 . S
C1156 H1142 0.929 . S
C1156 C1155 1.399 . S
C1156 C1157 1.385 . S
C1157 H1143 0.931 . S
C1157 C1156 1.385 . S
C1157 C1158 1.389 . S
C1158 C1157 1.389 . S
C1158 C1159 1.387 . S
C1159 H1144 0.930 . S
C1159 C1154 1.390 . S
C1159 C1158 1.387 . S
H1160 C1172 0.930 . S
H1161 C1174 0.930 . S
H1162 C1175 0.930 . S
H1163 C1179 0.959 . S
H1164 C1179 0.959 . S
H1165 C1179 0.961 . S
H1166 C1180 0.960 . S
H1167 C1180 0.961 . S
H1168 C1180 0.959 . S
H1169 C1183 0.929 . S
H1170 C1184 0.931 . S
H1171 C1186 0.930 . S
C1172 H1160 0.930 . S
C1172 C1173 1.399 . S
C1172 C1177 1.399 . S
C1173 C1172 1.399 . S
C1173 C1174 1.376 . S
C1174 H1161 0.930 . S
C1174 C1173 1.376 . S
C1174 C1175 1.388 . S
C1175 H1162 0.930 . S
C1175 C1174 1.388 . S
C1175 C1176 1.390 . S
C1176 C1175 1.390 . S
C1176 C1177 1.394 . S
C1176 C1182 1.465 . S
C1177 C1172 1.399 . S
C1177 C1176 1.394 . S
C1177 C1178 1.516 . S
C1178 C1177 1.516 . S
C1178 C1179 1.502 . S
C1178 C1180 1.561 . S
C1178 C1181 1.526 . S
C1179 H1163 0.959 . S
C1179 H1164 0.959 . S
C1179 H1165 0.961 . S
C1179 C1178 1.502 . S
C1180 H1166 0.960 . S
C1180 H1167 0.961 . S
C1180 H1168 0.959 . S
C1180 C1178 1.561 . S
C1181 C1178 1.526 . S
C1181 C1182 1.396 . S
C1181 C1186 1.390 . S
C1182 C1176 1.465 . S
C1182 C1181 1.396 . S
C1182 C1183 1.399 . S
C1183 H1169 0.929 . S
C1183 C1182 1.399 . S
C1183 C1184 1.385 . S
C1184 H1170 0.931 . S
C1184 C1183 1.385 . S
C1184 C1185 1.389 . S
C1185 C1184 1.389 . S
C1185 C1186 1.387 . S
C1186 H1171 0.930 . S
C1186 C1181 1.390 . S
C1186 C1185 1.387 . S
H1187 C1199 0.930 . S
H1188 C1201 0.930 . S
H1189 C1202 0.930 . S
H1190 C1206 0.959 . S
H1191 C1206 0.959 . S
H1192 C1206 0.961 . S
H1193 C1207 0.960 . S
H1194 C1207 0.961 . S
H1195 C1207 0.959 . S
H1196 C1210 0.929 . S
H1197 C1211 0.931 . S
H1198 C1213 0.930 . S
C1199 H1187 0.930 . S
C1199 C1200 1.399 . S
C1199 C1204 1.399 . S
C1200 C1199 1.399 . S
C1200 C1201 1.376 . S
C1201 H1188 0.930 . S
C1201 C1200 1.376 . S
C1201 C1202 1.388 . S
C1202 H1189 0.930 . S
C1202 C1201 1.388 . S
C1202 C1203 1.390 . S
C1203 C1202 1.390 . S
C1203 C1204 1.394 . S
C1203 C1209 1.465 . S
C1204 C1199 1.399 . S
C1204 C1203 1.394 . S
C1204 C1205 1.516 . S
C1205 C1204 1.516 . S
C1205 C1206 1.502 . S
C1205 C1207 1.561 . S
C1205 C1208 1.526 . S
C1206 H1190 0.959 . S
C1206 H1191 0.959 . S
C1206 H1192 0.961 . S
C1206 C1205 1.502 . S
C1207 H1193 0.960 . S
C1207 H1194 0.961 . S
C1207 H1195 0.959 . S
C1207 C1205 1.561 . S
C1208 C1205 1.526 . S
C1208 C1209 1.396 . S
C1208 C1213 1.390 . S
C1209 C1203 1.465 . S
C1209 C1208 1.396 . S
C1209 C1210 1.399 . S
C1210 H1196 0.929 . S
C1210 C1209 1.399 . S
C1210 C1211 1.385 . S
C1211 H1197 0.931 . S
C1211 C1210 1.385 . S
C1211 C1212 1.389 . S
C1212 C1211 1.389 . S
C1212 C1213 1.387 . S
C1213 H1198 0.930 . S
C1213 C1208 1.390 . S
C1213 C1212 1.387 . S
H1214 C1226 0.930 . S
H1215 C1228 0.930 . S
H1216 C1229 0.930 . S
H1217 C1233 0.959 . S
H1218 C1233 0.959 . S
H1219 C1233 0.961 . S
H1220 C1234 0.960 . S
H1221 C1234 0.961 . S
H1222 C1234 0.959 . S
H1223 C1237 0.929 . S
H1224 C1238 0.931 . S
H1225 C1240 0.930 . S
C1226 H1214 0.930 . S
C1226 C1227 1.399 . S
C1226 C1231 1.399 . S
C1227 C1226 1.399 . S
C1227 C1228 1.376 . S
C1228 H1215 0.930 . S
C1228 C1227 1.376 . S
C1228 C1229 1.388 . S
C1229 H1216 0.930 . S
C1229 C1228 1.388 . S
C1229 C1230 1.390 . S
C1230 C1229 1.390 . S
C1230 C1231 1.394 . S
C1230 C1236 1.465 . S
C1231 C1226 1.399 . S
C1231 C1230 1.394 . S
C1231 C1232 1.516 . S
C1232 C1231 1.516 . S
C1232 C1233 1.502 . S
C1232 C1234 1.561 . S
C1232 C1235 1.526 . S
C1233 H1217 0.959 . S
C1233 H1218 0.959 . S
C1233 H1219 0.961 . S
C1233 C1232 1.502 . S
C1234 H1220 0.960 . S
C1234 H1221 0.961 . S
C1234 H1222 0.959 . S
C1234 C1232 1.561 . S
C1235 C1232 1.526 . S
C1235 C1236 1.396 . S
C1235 C1240 1.390 . S
C1236 C1230 1.465 . S
C1236 C1235 1.396 . S
C1236 C1237 1.399 . S
C1237 H1223 0.929 . S
C1237 C1236 1.399 . S
C1237 C1238 1.385 . S
C1238 H1224 0.931 . S
C1238 C1237 1.385 . S
C1238 C1239 1.389 . S
C1239 C1238 1.389 . S
C1239 C1240 1.387 . S
C1240 H1225 0.930 . S
C1240 C1235 1.390 . S
C1240 C1239 1.387 . S
H1241 C1253 0.930 . S
H1242 C1255 0.930 . S
H1243 C1256 0.930 . S
H1244 C1260 0.959 . S
H1245 C1260 0.959 . S
H1246 C1260 0.961 . S
H1247 C1261 0.960 . S
H1248 C1261 0.961 . S
H1249 C1261 0.959 . S
H1250 C1264 0.929 . S
H1251 C1265 0.931 . S
H1252 C1267 0.928 1_455 S
C1253 H1241 0.930 . S
C1253 C1254 1.399 . S
C1253 C1258 1.399 . S
C1254 C1253 1.399 . S
C1254 C1255 1.376 . S
C1255 H1242 0.930 . S
C1255 C1254 1.376 . S
C1255 C1256 1.388 . S
C1256 H1243 0.930 . S
C1256 C1255 1.388 . S
C1256 C1257 1.390 . S
C1257 C1256 1.390 . S
C1257 C1258 1.394 . S
C1257 C1263 1.465 . S
C1258 C1253 1.399 . S
C1258 C1257 1.394 . S
C1258 C1259 1.516 . S
C1259 C1258 1.516 . S
C1259 C1260 1.502 1_655 S
C1259 C1261 1.561 . S
C1259 C1262 1.526 . S
C1260 H1244 0.959 . S
C1260 H1245 0.959 . S
C1260 H1246 0.961 . S
C1260 C1259 1.502 1_455 S
C1261 H1247 0.960 . S
C1261 H1248 0.961 . S
C1261 H1249 0.959 . S
C1261 C1259 1.561 . S
C1262 C1259 1.526 . S
C1262 C1263 1.396 . S
C1262 C1267 1.390 . S
C1263 C1257 1.465 . S
C1263 C1262 1.396 . S
C1263 C1264 1.399 . S
C1264 H1250 0.929 . S
C1264 C1263 1.399 . S
C1264 C1265 1.385 . S
C1265 H1251 0.931 . S
C1265 C1264 1.385 . S
C1265 C1266 1.389 . S
C1266 C1265 1.389 . S
C1266 C1267 1.387 . S
C1267 H1252 0.928 1_655 S
C1267 C1262 1.390 . S
C1267 C1266 1.387 . S
H1268 C1280 0.930 . S
H1269 C1282 0.930 . S
H1270 C1283 0.930 . S
H1271 C1287 0.959 . S
H1272 C1287 0.959 . S
H1273 C1287 0.961 . S
H1274 C1288 0.960 . S
H1275 C1288 0.961 . S
H1276 C1288 0.959 . S
H1277 C1291 0.929 . S
H1278 C1292 0.931 . S
H1279 C1294 0.930 . S
C1280 H1268 0.930 . S
C1280 C1281 1.399 . S
C1280 C1285 1.399 . S
C1281 C1280 1.399 . S
C1281 C1282 1.376 . S
C1282 H1269 0.930 . S
C1282 C1281 1.376 . S
C1282 C1283 1.388 . S
C1283 H1270 0.930 . S
C1283 C1282 1.388 . S
C1283 C1284 1.390 . S
C1284 C1283 1.390 . S
C1284 C1285 1.394 . S
C1284 C1290 1.465 . S
C1285 C1280 1.399 . S
C1285 C1284 1.394 . S
C1285 C1286 1.516 . S
C1286 C1285 1.516 . S
C1286 C1287 1.502 . S
C1286 C1288 1.561 . S
C1286 C1289 1.526 . S
C1287 H1271 0.959 . S
C1287 H1272 0.959 . S
C1287 H1273 0.961 . S
C1287 C1286 1.502 . S
C1288 H1274 0.960 . S
C1288 H1275 0.961 . S
C1288 H1276 0.959 . S
C1288 C1286 1.561 . S
C1289 C1286 1.526 . S
C1289 C1290 1.396 . S
C1289 C1294 1.390 . S
C1290 C1284 1.465 . S
C1290 C1289 1.396 . S
C1290 C1291 1.399 . S
C1291 H1277 0.929 . S
C1291 C1290 1.399 . S
C1291 C1292 1.385 . S
C1292 H1278 0.931 . S
C1292 C1291 1.385 . S
C1292 C1293 1.389 . S
C1293 C1292 1.389 . S
C1293 C1294 1.387 . S
C1294 H1279 0.930 . S
C1294 C1289 1.390 . S
C1294 C1293 1.387 . S
H1295 C1307 0.930 . S
H1296 C1309 0.930 . S
H1297 C1310 0.930 . S
H1298 C1314 0.959 . S
H1299 C1314 0.959 . S
H1300 C1314 0.961 . S
H1301 C1315 0.960 . S
H1302 C1315 0.961 . S
H1303 C1315 0.959 . S
H1304 C1318 0.929 . S
H1305 C1319 0.931 . S
H1306 C1321 0.930 . S
C1307 H1295 0.930 . S
C1307 C1308 1.399 . S
C1307 C1312 1.399 . S
C1308 C1307 1.399 . S
C1308 C1309 1.376 . S
C1309 H1296 0.930 . S
C1309 C1308 1.376 . S
C1309 C1310 1.388 . S
C1310 H1297 0.930 . S
C1310 C1309 1.388 . S
C1310 C1311 1.390 . S
C1311 C1310 1.390 . S
C1311 C1312 1.394 . S
C1311 C1317 1.465 . S
C1312 C1307 1.399 . S
C1312 C1311 1.394 . S
C1312 C1313 1.516 . S
C1313 C1312 1.516 . S
C1313 C1314 1.502 . S
C1313 C1315 1.561 . S
C1313 C1316 1.526 . S
C1314 H1298 0.959 . S
C1314 H1299 0.959 . S
C1314 H1300 0.961 . S
C1314 C1313 1.502 . S
C1315 H1301 0.960 . S
C1315 H1302 0.961 . S
C1315 H1303 0.959 . S
C1315 C1313 1.561 . S
C1316 C1313 1.526 . S
C1316 C1317 1.396 . S
C1316 C1321 1.390 . S
C1317 C1311 1.465 . S
C1317 C1316 1.396 . S
C1317 C1318 1.399 . S
C1318 H1304 0.929 . S
C1318 C1317 1.399 . S
C1318 C1319 1.385 . S
C1319 H1305 0.931 . S
C1319 C1318 1.385 . S
C1319 C1320 1.389 . S
C1320 C1319 1.389 . S
C1320 C1321 1.387 . S
C1321 H1306 0.930 . S
C1321 C1316 1.390 . S
C1321 C1320 1.387 . S
H1322 C1334 0.930 . S
H1323 C1336 0.930 . S
H1324 C1337 0.930 . S
H1325 C1341 0.959 . S
H1326 C1341 0.959 . S
H1327 C1341 0.961 . S
H1328 C1342 0.960 . S
H1329 C1342 0.961 . S
H1330 C1342 0.959 . S
H1331 C1345 0.929 . S
H1332 C1346 0.931 . S
H1333 C1348 0.930 . S
C1334 H1322 0.930 . S
C1334 C1335 1.399 . S
C1334 C1339 1.399 . S
C1335 C1334 1.399 . S
C1335 C1336 1.376 . S
C1336 H1323 0.930 . S
C1336 C1335 1.376 . S
C1336 C1337 1.388 . S
C1337 H1324 0.930 . S
C1337 C1336 1.388 . S
C1337 C1338 1.390 . S
C1338 C1337 1.390 . S
C1338 C1339 1.394 . S
C1338 C1344 1.465 . S
C1339 C1334 1.399 . S
C1339 C1338 1.394 . S
C1339 C1340 1.516 . S
C1340 C1339 1.516 . S
C1340 C1341 1.502 . S
C1340 C1342 1.561 . S
C1340 C1343 1.526 . S
C1341 H1325 0.959 . S
C1341 H1326 0.959 . S
C1341 H1327 0.961 . S
C1341 C1340 1.502 . S
C1342 H1328 0.960 . S
C1342 H1329 0.961 . S
C1342 H1330 0.959 . S
C1342 C1340 1.561 . S
C1343 C1340 1.526 . S
C1343 C1344 1.396 . S
C1343 C1348 1.390 . S
C1344 C1338 1.465 . S
C1344 C1343 1.396 . S
C1344 C1345 1.399 . S
C1345 H1331 0.929 . S
C1345 C1344 1.399 . S
C1345 C1346 1.385 . S
C1346 H1332 0.931 . S
C1346 C1345 1.385 . S
C1346 C1347 1.389 . S
C1347 C1346 1.389 . S
C1347 C1348 1.387 . S
C1348 H1333 0.930 . S
C1348 C1343 1.390 . S
C1348 C1347 1.387 . S
H1349 C1361 0.930 . S
H1350 C1363 0.930 . S
H1351 C1364 0.930 . S
H1352 C1368 0.959 . S
H1353 C1368 0.959 . S
H1354 C1368 0.961 . S
H1355 C1369 0.960 . S
H1356 C1369 0.961 . S
H1357 C1369 0.959 . S
H1358 C1372 0.929 . S
H1359 C1373 0.931 . S
H1360 C1375 0.930 . S
C1361 H1349 0.930 . S
C1361 C1362 1.399 . S
C1361 C1366 1.399 . S
C1362 C1361 1.399 . S
C1362 C1363 1.376 . S
C1363 H1350 0.930 . S
C1363 C1362 1.376 . S
C1363 C1364 1.388 . S
C1364 H1351 0.930 . S
C1364 C1363 1.388 . S
C1364 C1365 1.390 . S
C1365 C1364 1.390 . S
C1365 C1366 1.394 . S
C1365 C1371 1.465 . S
C1366 C1361 1.399 . S
C1366 C1365 1.394 . S
C1366 C1367 1.516 . S
C1367 C1366 1.516 . S
C1367 C1368 1.502 . S
C1367 C1369 1.561 . S
C1367 C1370 1.526 . S
C1368 H1352 0.959 . S
C1368 H1353 0.959 . S
C1368 H1354 0.961 . S
C1368 C1367 1.502 . S
C1369 H1355 0.960 . S
C1369 H1356 0.961 . S
C1369 H1357 0.959 . S
C1369 C1367 1.561 . S
C1370 C1367 1.526 . S
C1370 C1371 1.396 . S
C1370 C1375 1.390 . S
C1371 C1365 1.465 . S
C1371 C1370 1.396 . S
C1371 C1372 1.399 . S
C1372 H1358 0.929 . S
C1372 C1371 1.399 . S
C1372 C1373 1.385 . S
C1373 H1359 0.931 . S
C1373 C1372 1.385 . S
C1373 C1374 1.389 . S
C1374 C1373 1.389 . S
C1374 C1375 1.387 . S
C1375 H1360 0.930 . S
C1375 C1370 1.390 . S
C1375 C1374 1.387 . S
H1376 C1388 0.930 . S
H1377 C1390 0.930 . S
H1378 C1391 0.930 . S
H1379 C1395 0.959 . S
H1380 C1395 0.959 . S
H1381 C1395 0.961 . S
H1382 C1396 0.960 . S
H1383 C1396 0.961 . S
H1384 C1396 0.959 . S
H1385 C1399 0.929 . S
H1386 C1400 0.931 . S
H1387 C1402 0.930 . S
C1388 H1376 0.930 . S
C1388 C1389 1.399 . S
C1388 C1393 1.399 . S
C1389 C1388 1.399 . S
C1389 C1390 1.376 . S
C1390 H1377 0.930 . S
C1390 C1389 1.376 . S
C1390 C1391 1.388 . S
C1391 H1378 0.930 . S
C1391 C1390 1.388 . S
C1391 C1392 1.390 . S
C1392 C1391 1.390 . S
C1392 C1393 1.394 . S
C1392 C1398 1.465 . S
C1393 C1388 1.399 . S
C1393 C1392 1.394 . S
C1393 C1394 1.516 . S
C1394 C1393 1.516 . S
C1394 C1395 1.502 . S
C1394 C1396 1.561 . S
C1394 C1397 1.526 . S
C1395 H1379 0.959 . S
C1395 H1380 0.959 . S
C1395 H1381 0.961 . S
C1395 C1394 1.502 . S
C1396 H1382 0.960 . S
C1396 H1383 0.961 . S
C1396 H1384 0.959 . S
C1396 C1394 1.561 . S
C1397 C1394 1.526 . S
C1397 C1398 1.396 . S
C1397 C1402 1.390 . S
C1398 C1392 1.465 . S
C1398 C1397 1.396 . S
C1398 C1399 1.399 . S
C1399 H1385 0.929 . S
C1399 C1398 1.399 . S
C1399 C1400 1.385 . S
C1400 H1386 0.931 . S
C1400 C1399 1.385 . S
C1400 C1401 1.389 . S
C1401 C1400 1.389 . S
C1401 C1402 1.387 . S
C1402 H1387 0.930 . S
C1402 C1397 1.390 . S
C1402 C1401 1.387 . S
H1403 C1415 0.930 . S
H1404 C1417 0.930 . S
H1405 C1418 0.930 . S
H1406 C1422 0.959 . S
H1407 C1422 0.959 . S
H1408 C1422 0.961 . S
H1409 C1423 0.960 . S
H1410 C1423 0.961 . S
H1411 C1423 0.959 . S
H1412 C1426 0.929 . S
H1413 C1427 0.931 . S
H1414 C1429 0.930 . S
C1415 H1403 0.930 . S
C1415 C1416 1.399 . S
C1415 C1420 1.399 . S
C1416 C1415 1.399 . S
C1416 C1417 1.376 . S
C1417 H1404 0.930 . S
C1417 C1416 1.376 . S
C1417 C1418 1.388 . S
C1418 H1405 0.930 . S
C1418 C1417 1.388 . S
C1418 C1419 1.390 . S
C1419 C1418 1.390 . S
C1419 C1420 1.394 . S
C1419 C1425 1.465 . S
C1420 C1415 1.399 . S
C1420 C1419 1.394 . S
C1420 C1421 1.516 . S
C1421 C1420 1.516 . S
C1421 C1422 1.502 . S
C1421 C1423 1.561 . S
C1421 C1424 1.526 . S
C1422 H1406 0.959 . S
C1422 H1407 0.959 . S
C1422 H1408 0.961 . S
C1422 C1421 1.502 . S
C1423 H1409 0.960 . S
C1423 H1410 0.961 . S
C1423 H1411 0.959 . S
C1423 C1421 1.561 . S
C1424 C1421 1.526 . S
C1424 C1425 1.396 . S
C1424 C1429 1.390 . S
C1425 C1419 1.465 . S
C1425 C1424 1.396 . S
C1425 C1426 1.399 . S
C1426 H1412 0.929 . S
C1426 C1425 1.399 . S
C1426 C1427 1.385 . S
C1427 H1413 0.931 . S
C1427 C1426 1.385 . S
C1427 C1428 1.389 . S
C1428 C1427 1.389 . S
C1428 C1429 1.387 . S
C1429 H1414 0.930 . S
C1429 C1424 1.390 . S
C1429 C1428 1.387 . S
H1430 C1442 0.930 . S
H1431 C1444 0.930 . S
H1432 C1445 0.930 . S
H1433 C1449 0.959 . S
H1434 C1449 0.959 . S
H1435 C1449 0.961 . S
H1436 C1450 0.960 . S
H1437 C1450 0.961 . S
H1438 C1450 0.959 . S
H1439 C1453 0.929 . S
H1440 C1454 0.931 . S
H1441 C1456 0.930 . S
C1442 H1430 0.930 . S
C1442 C1443 1.399 . S
C1442 C1447 1.399 . S
C1443 C1442 1.399 . S
C1443 C1444 1.376 . S
C1444 H1431 0.930 . S
C1444 C1443 1.376 . S
C1444 C1445 1.388 . S
C1445 H1432 0.930 . S
C1445 C1444 1.388 . S
C1445 C1446 1.390 . S
C1446 C1445 1.390 . S
C1446 C1447 1.394 . S
C1446 C1452 1.465 . S
C1447 C1442 1.399 . S
C1447 C1446 1.394 . S
C1447 C1448 1.516 . S
C1448 C1447 1.516 . S
C1448 C1449 1.502 . S
C1448 C1450 1.561 . S
C1448 C1451 1.526 . S
C1449 H1433 0.959 . S
C1449 H1434 0.959 . S
C1449 H1435 0.961 . S
C1449 C1448 1.502 . S
C1450 H1436 0.960 . S
C1450 H1437 0.961 . S
C1450 H1438 0.959 . S
C1450 C1448 1.561 . S
C1451 C1448 1.526 . S
C1451 C1452 1.396 . S
C1451 C1456 1.390 . S
C1452 C1446 1.465 . S
C1452 C1451 1.396 . S
C1452 C1453 1.399 . S
C1453 H1439 0.929 . S
C1453 C1452 1.399 . S
C1453 C1454 1.385 . S
C1454 H1440 0.931 . S
C1454 C1453 1.385 . S
C1454 C1455 1.389 . S
C1455 C1454 1.389 . S
C1455 C1456 1.387 . S
C1456 H1441 0.930 . S
C1456 C1451 1.390 . S
C1456 C1455 1.387 . S
H1457 C1469 0.930 . S
H1458 C1471 0.930 . S
H1459 C1472 0.930 . S
H1460 C1476 0.959 . S
H1461 C1476 0.959 . S
H1462 C1476 0.961 . S
H1463 C1477 0.960 . S
H1464 C1477 0.961 . S
H1465 C1477 0.959 . S
H1466 C1480 0.929 . S
H1467 C1481 0.931 . S
H1468 C1483 0.930 . S
C1469 H1457 0.930 . S
C1469 C1470 1.399 . S
C1469 C1474 1.399 . S
C1470 C1469 1.399 . S
C1470 C1471 1.376 . S
C1471 H1458 0.930 . S
C1471 C1470 1.376 . S
C1471 C1472 1.388 . S
C1472 H1459 0.930 . S
C1472 C1471 1.388 . S
C1472 C1473 1.390 . S
C1473 C1472 1.390 . S
C1473 C1474 1.394 . S
C1473 C1479 1.465 . S
C1474 C1469 1.399 . S
C1474 C1473 1.394 . S
C1474 C1475 1.516 . S
C1475 C1474 1.516 . S
C1475 C1476 1.502 . S
C1475 C1477 1.561 . S
C1475 C1478 1.526 . S
C1476 H1460 0.959 . S
C1476 H1461 0.959 . S
C1476 H1462 0.961 . S
C1476 C1475 1.502 . S
C1477 H1463 0.960 . S
C1477 H1464 0.961 . S
C1477 H1465 0.959 . S
C1477 C1475 1.561 . S
C1478 C1475 1.526 . S
C1478 C1479 1.396 . S
C1478 C1483 1.390 . S
C1479 C1473 1.465 . S
C1479 C1478 1.396 . S
C1479 C1480 1.399 . S
C1480 H1466 0.929 . S
C1480 C1479 1.399 . S
C1480 C1481 1.385 . S
C1481 H1467 0.931 . S
C1481 C1480 1.385 . S
C1481 C1482 1.389 . S
C1482 C1481 1.389 . S
C1482 C1483 1.387 . S
C1483 H1468 0.930 . S
C1483 C1478 1.390 . S
C1483 C1482 1.387 . S
C645 C556 1.699 . S
C633 C53 1.755 . S
C660 C115 1.683 . S
C672 C559 1.699 . S
C687 C177 1.664 . S
C699 C590 1.639 . S
C726 C525 1.697 . S
C714 C239 1.761 . S
C753 C560 1.966 . S
C741 C47 1.946 . S
C780 C591 1.955 . S
C768 C109 1.844 . S
C807 C516 1.897 . S
C795 C171 1.821 . S
C834 C547 1.882 . S
C822 C233 1.880 . S
C849 C29 1.391 . S
C861 C577 1.396 . S
C876 C277 1.426 . S
C888 C546 1.395 . S
C903 C153 1.306 . S
C915 C506 1.345 . S
C942 C599 1.348 . S
C930 C339 1.360 . S
C969 C527 1.299 . S
C957 C35 1.343 . S
C984 C283 1.290 . S
C996 C526 1.252 . S
C1011 C159 1.264 . S
C1023 C619 1.284 . S
C1050 C558 1.288 . S
C1038 C345 1.306 . S
C1065 C419 1.893 . S
C1077 C618 1.907 . S
C1092 C301 1.702 . S
C1104 C497 1.655 . S
C1119 C487 1.657 . S
C1131 C528 1.614 . S
C1146 C363 1.727 . S
C1158 C587 1.680 . S
C1185 C498 1.793 . S
C1173 C425 1.807 . S
C1200 C295 1.872 . S
C1212 C529 1.988 . S
C1227 C481 1.864 . S
C1239 C578 1.888 . S
C1266 C609 1.928 . S
C1254 C357 1.805 . S
C1281 C407 1.393 . S
C1293 C515 1.302 . S
C1308 C91 1.415 . S
C1320 C608 1.382 . S
C1335 C463 1.384 . S
C1347 C568 1.384 . S
C1374 C537 1.387 . S
C1362 C215 1.348 . S
C1401 C589 1.372 . S
C1389 C401 1.340 . S
C1428 C588 1.302 . S
C1416 C97 1.284 . S
C1455 C557 1.268 . S
C1443 C469 1.247 . S
C1482 C496 1.325 . S
C1470 C221 1.329 . S
