# Generated by pormake.
# Topology ptr, (4,4)-cn, num edge types: 1
# Building blocks:
#     Node 0, Type 0, BuildingBlock: QUQFOY_clean_sbu_1, # of connection points: 4
#     Node 1, Type 0, BuildingBlock: QUQFOY_clean_sbu_1, # of connection points: 4
#     Node 2, Type 0, BuildingBlock: QUQFOY_clean_sbu_1, # of connection points: 4
#     Node 3, Type 0, BuildingBlock: QUQFOY_clean_sbu_1, # of connection points: 4
#     Node 4, Type 0, BuildingBlock: QUQFOY_clean_sbu_1, # of connection points: 4
#     Node 5, Type 0, BuildingBlock: QUQFOY_clean_sbu_1, # of connection points: 4
#     Node 6, Type 0, BuildingBlock: QUQFOY_clean_sbu_1, # of connection points: 4
#     Node 7, Type 0, BuildingBlock: QUQFOY_clean_sbu_1, # of connection points: 4
#     Node 8, Type 0, BuildingBlock: QUQFOY_clean_sbu_1, # of connection points: 4
#     Node 9, Type 0, BuildingBlock: QUQFOY_clean_sbu_1, # of connection points: 4
#     Node 10, Type 0, BuildingBlock: QUQFOY_clean_sbu_1, # of connection points: 4
#     Node 11, Type 0, BuildingBlock: QUQFOY_clean_sbu_1, # of connection points: 4
#     Node 12, Type 0, BuildingBlock: QUQFOY_clean_sbu_1, # of connection points: 4
#     Node 13, Type 0, BuildingBlock: QUQFOY_clean_sbu_1, # of connection points: 4
#     Node 14, Type 0, BuildingBlock: QUQFOY_clean_sbu_1, # of connection points: 4
#     Node 15, Type 0, BuildingBlock: QUQFOY_clean_sbu_1, # of connection points: 4
#     Node 16, Type 0, BuildingBlock: QUQFOY_clean_sbu_1, # of connection points: 4
#     Node 17, Type 0, BuildingBlock: QUQFOY_clean_sbu_1, # of connection points: 4
#     Node 18, Type 1, BuildingBlock: MUDLON_clean_linker_0, # of connection points: 4
#     Node 19, Type 1, BuildingBlock: MUDLON_clean_linker_0, # of connection points: 4
#     Node 20, Type 1, BuildingBlock: MUDLON_clean_linker_0, # of connection points: 4
#     Node 21, Type 1, BuildingBlock: MUDLON_clean_linker_0, # of connection points: 4
#     Node 22, Type 1, BuildingBlock: MUDLON_clean_linker_0, # of connection points: 4
#     Node 23, Type 1, BuildingBlock: MUDLON_clean_linker_0, # of connection points: 4
#     Node 24, Type 1, BuildingBlock: MUDLON_clean_linker_0, # of connection points: 4
#     Node 25, Type 1, BuildingBlock: MUDLON_clean_linker_0, # of connection points: 4
#     Node 26, Type 1, BuildingBlock: MUDLON_clean_linker_0, # of connection points: 4
#     Node 27, Type 1, BuildingBlock: MUDLON_clean_linker_0, # of connection points: 4
#     Node 28, Type 1, BuildingBlock: MUDLON_clean_linker_0, # of connection points: 4
#     Node 29, Type 1, BuildingBlock: MUDLON_clean_linker_0, # of connection points: 4
#     Node 30, Type 1, BuildingBlock: MUDLON_clean_linker_0, # of connection points: 4
#     Node 31, Type 1, BuildingBlock: MUDLON_clean_linker_0, # of connection points: 4
#     Node 32, Type 1, BuildingBlock: MUDLON_clean_linker_0, # of connection points: 4
#     Node 33, Type 1, BuildingBlock: MUDLON_clean_linker_0, # of connection points: 4
#     Node 34, Type 1, BuildingBlock: MUDLON_clean_linker_0, # of connection points: 4
#     Node 35, Type 1, BuildingBlock: MUDLON_clean_linker_0, # of connection points: 4
#     Edge 36, Type (0, 1), BuildingBlock: AJUNOK_clean_linker_0, # of connection points: 2
#     Edge 37, Type (0, 1), BuildingBlock: AJUNOK_clean_linker_0, # of connection points: 2
#     Edge 38, Type (0, 1), BuildingBlock: AJUNOK_clean_linker_0, # of connection points: 2
#     Edge 39, Type (0, 1), BuildingBlock: AJUNOK_clean_linker_0, # of connection points: 2
#     Edge 40, Type (0, 1), BuildingBlock: AJUNOK_clean_linker_0, # of connection points: 2
#     Edge 41, Type (0, 1), BuildingBlock: AJUNOK_clean_linker_0, # of connection points: 2
#     Edge 42, Type (0, 1), BuildingBlock: AJUNOK_clean_linker_0, # of connection points: 2
#     Edge 43, Type (0, 1), BuildingBlock: AJUNOK_clean_linker_0, # of connection points: 2
#     Edge 44, Type (0, 1), BuildingBlock: AJUNOK_clean_linker_0, # of connection points: 2
#     Edge 45, Type (0, 1), BuildingBlock: AJUNOK_clean_linker_0, # of connection points: 2
#     Edge 46, Type (0, 1), BuildingBlock: AJUNOK_clean_linker_0, # of connection points: 2
#     Edge 47, Type (0, 1), BuildingBlock: AJUNOK_clean_linker_0, # of connection points: 2
#     Edge 48, Type (0, 1), BuildingBlock: AJUNOK_clean_linker_0, # of connection points: 2
#     Edge 49, Type (0, 1), BuildingBlock: AJUNOK_clean_linker_0, # of connection points: 2
#     Edge 50, Type (0, 1), BuildingBlock: AJUNOK_clean_linker_0, # of connection points: 2
#     Edge 51, Type (0, 1), BuildingBlock: AJUNOK_clean_linker_0, # of connection points: 2
#     Edge 52, Type (0, 1), BuildingBlock: AJUNOK_clean_linker_0, # of connection points: 2
#     Edge 53, Type (0, 1), BuildingBlock: AJUNOK_clean_linker_0, # of connection points: 2
#     Edge 54, Type (0, 1), BuildingBlock: AJUNOK_clean_linker_0, # of connection points: 2
#     Edge 55, Type (0, 1), BuildingBlock: AJUNOK_clean_linker_0, # of connection points: 2
#     Edge 56, Type (0, 1), BuildingBlock: AJUNOK_clean_linker_0, # of connection points: 2
#     Edge 57, Type (0, 1), BuildingBlock: AJUNOK_clean_linker_0, # of connection points: 2
#     Edge 58, Type (0, 1), BuildingBlock: AJUNOK_clean_linker_0, # of connection points: 2
#     Edge 59, Type (0, 1), BuildingBlock: AJUNOK_clean_linker_0, # of connection points: 2
#     Edge 60, Type (0, 1), BuildingBlock: AJUNOK_clean_linker_0, # of connection points: 2
#     Edge 61, Type (0, 1), BuildingBlock: AJUNOK_clean_linker_0, # of connection points: 2
#     Edge 62, Type (0, 1), BuildingBlock: AJUNOK_clean_linker_0, # of connection points: 2
#     Edge 63, Type (0, 1), BuildingBlock: AJUNOK_clean_linker_0, # of connection points: 2
#     Edge 64, Type (0, 1), BuildingBlock: AJUNOK_clean_linker_0, # of connection points: 2
#     Edge 65, Type (0, 1), BuildingBlock: AJUNOK_clean_linker_0, # of connection points: 2
#     Edge 66, Type (0, 1), BuildingBlock: AJUNOK_clean_linker_0, # of connection points: 2
#     Edge 67, Type (0, 1), BuildingBlock: AJUNOK_clean_linker_0, # of connection points: 2
#     Edge 68, Type (0, 1), BuildingBlock: AJUNOK_clean_linker_0, # of connection points: 2
#     Edge 69, Type (0, 1), BuildingBlock: AJUNOK_clean_linker_0, # of connection points: 2
#     Edge 70, Type (0, 1), BuildingBlock: AJUNOK_clean_linker_0, # of connection points: 2
#     Edge 71, Type (0, 1), BuildingBlock: AJUNOK_clean_linker_0, # of connection points: 2
#     Edge 72, Type (0, 1), BuildingBlock: AJUNOK_clean_linker_0, # of connection points: 2
#     Edge 73, Type (0, 1), BuildingBlock: AJUNOK_clean_linker_0, # of connection points: 2
#     Edge 74, Type (0, 1), BuildingBlock: AJUNOK_clean_linker_0, # of connection points: 2
#     Edge 75, Type (0, 1), BuildingBlock: AJUNOK_clean_linker_0, # of connection points: 2
#     Edge 76, Type (0, 1), BuildingBlock: AJUNOK_clean_linker_0, # of connection points: 2
#     Edge 77, Type (0, 1), BuildingBlock: AJUNOK_clean_linker_0, # of connection points: 2
#     Edge 78, Type (0, 1), BuildingBlock: AJUNOK_clean_linker_0, # of connection points: 2
#     Edge 79, Type (0, 1), BuildingBlock: AJUNOK_clean_linker_0, # of connection points: 2
#     Edge 80, Type (0, 1), BuildingBlock: AJUNOK_clean_linker_0, # of connection points: 2
#     Edge 81, Type (0, 1), BuildingBlock: AJUNOK_clean_linker_0, # of connection points: 2
#     Edge 82, Type (0, 1), BuildingBlock: AJUNOK_clean_linker_0, # of connection points: 2
#     Edge 83, Type (0, 1), BuildingBlock: AJUNOK_clean_linker_0, # of connection points: 2
#     Edge 84, Type (0, 1), BuildingBlock: AJUNOK_clean_linker_0, # of connection points: 2
#     Edge 85, Type (0, 1), BuildingBlock: AJUNOK_clean_linker_0, # of connection points: 2
#     Edge 86, Type (0, 1), BuildingBlock: AJUNOK_clean_linker_0, # of connection points: 2
#     Edge 87, Type (0, 1), BuildingBlock: AJUNOK_clean_linker_0, # of connection points: 2
#     Edge 88, Type (0, 1), BuildingBlock: AJUNOK_clean_linker_0, # of connection points: 2
#     Edge 89, Type (0, 1), BuildingBlock: AJUNOK_clean_linker_0, # of connection points: 2
#     Edge 90, Type (0, 1), BuildingBlock: AJUNOK_clean_linker_0, # of connection points: 2
#     Edge 91, Type (0, 1), BuildingBlock: AJUNOK_clean_linker_0, # of connection points: 2
#     Edge 92, Type (0, 1), BuildingBlock: AJUNOK_clean_linker_0, # of connection points: 2
#     Edge 93, Type (0, 1), BuildingBlock: AJUNOK_clean_linker_0, # of connection points: 2
#     Edge 94, Type (0, 1), BuildingBlock: AJUNOK_clean_linker_0, # of connection points: 2
#     Edge 95, Type (0, 1), BuildingBlock: AJUNOK_clean_linker_0, # of connection points: 2
#     Edge 96, Type (0, 1), BuildingBlock: AJUNOK_clean_linker_0, # of connection points: 2
#     Edge 97, Type (0, 1), BuildingBlock: AJUNOK_clean_linker_0, # of connection points: 2
#     Edge 98, Type (0, 1), BuildingBlock: AJUNOK_clean_linker_0, # of connection points: 2
#     Edge 99, Type (0, 1), BuildingBlock: AJUNOK_clean_linker_0, # of connection points: 2
#     Edge 100, Type (0, 1), BuildingBlock: AJUNOK_clean_linker_0, # of connection points: 2
#     Edge 101, Type (0, 1), BuildingBlock: AJUNOK_clean_linker_0, # of connection points: 2
#     Edge 102, Type (0, 1), BuildingBlock: AJUNOK_clean_linker_0, # of connection points: 2
#     Edge 103, Type (0, 1), BuildingBlock: AJUNOK_clean_linker_0, # of connection points: 2
#     Edge 104, Type (0, 1), BuildingBlock: AJUNOK_clean_linker_0, # of connection points: 2
#     Edge 105, Type (0, 1), BuildingBlock: AJUNOK_clean_linker_0, # of connection points: 2
#     Edge 106, Type (0, 1), BuildingBlock: AJUNOK_clean_linker_0, # of connection points: 2
#     Edge 107, Type (0, 1), BuildingBlock: AJUNOK_clean_linker_0, # of connection points: 2
# Relax obj value: 0.011
# Max RMSD: 0.037
# Mean RMSD: 0.035
data_MOF--net-ptr--node1-QUQFOY_clean_sbu_1--node2-MUDLON_clean_linker_0--edge1-AJUNOK_clean_linker_0
_symmetry_space_group_name_H-M    P1
_symmetry_Int_Tables_number       1
_symmetry_cell_setting            triclinic
loop_
_symmetry_equiv_pos_as_xyz
'x, y, z'
_cell_length_a     86.465609
_cell_length_b     86.450904
_cell_length_c     51.616196
_cell_angle_alpha  90.022031
_cell_angle_beta   89.993588
_cell_angle_gamma 119.97232
loop_
_atom_site_label
_atom_site_type_symbol
_atom_site_fract_x
_atom_site_fract_y
_atom_site_fract_z
_atom_type_partial_charge
O0 O 0.02645 0.40078 0.05517 0.0
Cd1 Cd 0.03165 0.38878 0.02437 0.0
Cd2 Cd 0.99594 0.37072 0.02213 0.0
O3 O 0.99786 0.38096 0.05906 0.0
O4 O 0.05645 0.39307 0.02983 0.0
O5 O 0.03234 0.36636 0.03225 0.0
C6 C 0.04944 0.37624 0.03473 0.0
C7 C 0.97854 0.3404 0.01194 0.0
C8 C 0.01182 0.39466 0.06749 0.0
C9 C 0.01536 0.39649 0.97902 0.0
O10 O 1.00077 0.38783 0.99138 0.0
O11 O 0.02945 0.39699 0.98743 0.0
O12 O 0.97129 0.34998 0.01698 0.0
O13 O 0.9957 0.34788 0.01395 0.0
O14 O 0.62954 0.63506 0.06013 0.0
Cd15 Cd 0.63998 0.65171 0.02838 0.0
Cd16 Cd 0.65631 0.63211 0.02212 0.0
O17 O 0.64637 0.62257 0.05878 0.0
O18 O 0.63576 0.67206 0.0356 0.0
O19 O 0.66264 0.67502 0.03418 0.0
C20 C 0.65278 0.68209 0.03848 0.0
C21 C 0.68656 0.64461 0.01153 0.0
C22 C 0.63461 0.62488 0.0701 0.0
C23 C 0.62995 0.62836 0.98123 0.0
O24 O 0.63877 0.62176 0.99136 0.0
O25 O 0.62976 0.64154 0.99192 0.0
O26 O 0.67641 0.62761 0.01457 0.0
O27 O 0.67964 0.65464 0.01556 0.0
O28 O 0.40076 0.01685 0.98839 0.0
Cd29 Cd 0.38992 0.02369 0.01921 0.0
Cd30 Cd 0.37239 0.98796 0.02479 0.0
O31 O 0.38149 0.98793 0.98782 0.0
O32 O 0.39534 0.04868 0.01214 0.0
O33 O 0.36797 0.02548 0.0118 0.0
C34 C 0.3785 0.04241 0.00843 0.0
C35 C 0.34241 0.97048 0.0366 0.0
C36 C 0.39452 1.00163 0.9776 0.0
C37 C 0.39924 0.00975 0.06564 0.0
O38 O 0.39053 0.99464 0.05464 0.0
O39 O 0.39919 0.02332 0.05623 0.0
O40 O 0.35254 0.96359 0.03383 0.0
O41 O 0.34914 0.98728 0.03155 0.0
O42 O 1.00388 0.62175 0.99077 0.0
Cd43 Cd 0.99803 0.6334 0.02136 0.0
Cd44 Cd 0.03368 0.65171 0.02414 0.0
O45 O 0.03246 0.64174 0.98718 0.0
O46 O 0.97286 0.62785 0.01541 0.0
O47 O 0.99604 0.65517 0.01355 0.0
C48 C 0.97905 0.6446 0.01089 0.0
C49 C 0.04997 0.68202 0.03505 0.0
C50 C 0.01861 0.62795 0.97869 0.0
C51 C 0.01408 0.62571 0.06697 0.0
O52 O 0.02875 0.63449 0.05483 0.0
O53 O 1.0 0.62513 0.05834 0.0
O54 O 0.05785 0.67296 0.0304 0.0
O55 O 0.03286 0.67406 0.03197 0.0
O56 O 0.4082 0.38974 0.98914 0.0
Cd57 Cd 0.39812 0.37131 0.01874 0.0
Cd58 Cd 0.37969 0.38984 0.02755 0.0
O59 O 0.39065 0.40142 0.99193 0.0
O60 O 0.40488 0.35327 0.00796 0.0
O61 O 0.37686 0.34692 0.01185 0.0
C62 C 0.38812 0.34189 0.00544 0.0
C63 C 0.3498 0.38033 0.03774 0.0
C64 C 0.40308 0.40022 0.98056 0.0
C65 C 0.4064 0.39179 0.06813 0.0
O66 O 0.39635 0.39748 0.05958 0.0
O67 O 0.40824 0.3802 0.05543 0.0
O68 O 0.36178 0.39702 0.03751 0.0
O69 O 0.35461 0.36896 0.03097 0.0
O70 O 0.62351 0.99603 0.05453 0.0
Cd71 Cd 0.63483 0.98975 0.02407 0.0
Cd72 Cd 0.65483 0.02597 0.02117 0.0
O73 O 0.64356 0.02469 0.05727 0.0
O74 O 0.63157 0.96554 0.03112 0.0
O75 O 0.65792 0.99026 0.03106 0.0
C76 C 0.6486 0.97321 0.03482 0.0
C77 C 0.68466 0.04668 0.0113 0.0
C78 C 0.62973 0.01098 0.06602 0.0
C79 C 0.62864 1.00554 0.97746 0.0
O80 O 0.63871 0.02024 0.98892 0.0
O81 O 0.62597 0.99092 0.98727 0.0
O82 O 0.67294 0.05154 0.01466 0.0
O83 O 0.67978 0.03013 0.01555 0.0
O84 O 0.69282 0.73045 0.39177 0.0
Cd85 Cd 0.70006 0.72098 0.35994 0.0
Cd86 Cd 0.66385 0.70459 0.35077 0.0
O87 O 0.66356 0.71574 0.38622 0.0
O88 O 0.72431 0.7248 0.3684 0.0
O89 O 0.70043 0.69805 0.36461 0.0
C90 C 0.71721 0.70769 0.37006 0.0
C91 C 0.64469 0.67434 0.34135 0.0
C92 C 0.67726 0.72646 0.39929 0.0
C93 C 0.68835 0.73129 0.31111 0.0
O94 O 0.67246 0.72123 0.31901 0.0
O95 O 0.70148 0.73257 0.32404 0.0
O96 O 0.6389 0.68548 0.34252 0.0
O97 O 0.66134 0.68027 0.34663 0.0
O98 O 0.29309 0.96951 0.39195 0.0
Cd99 Cd 0.30361 0.98556 0.3596 0.0
Cd100 Cd 0.32079 0.96672 0.35527 0.0
O101 O 0.31075 0.95792 0.39208 0.0
O102 O 0.30026 1.0066 0.36561 0.0
O103 O 0.32672 0.00854 0.36463 0.0
C104 C 0.31734 0.01621 0.36839 0.0
C105 C 0.35093 0.97815 0.34472 0.0
C106 C 0.29855 0.95988 0.4027 0.0
C107 C 0.29382 0.96104 0.31406 0.0
O108 O 0.30321 0.95532 0.32486 0.0
O109 O 0.2933 0.97439 0.32353 0.0
O110 O 0.34046 0.96135 0.34894 0.0
O111 O 0.34443 0.98865 0.34758 0.0
O112 O 0.07297 0.3563 0.32084 0.0
Cd113 Cd 0.06229 0.36346 0.35143 0.0
Cd114 Cd 0.04374 0.32755 0.35636 0.0
O115 O 0.05271 0.32769 0.31912 0.0
O116 O 0.06862 0.3885 0.34304 0.0
O117 O 0.04077 0.36618 0.34484 0.0
C118 C 0.05182 0.38281 0.33998 0.0
C119 C 0.01379 0.30934 0.36815 0.0
C120 C 0.06621 0.34126 0.30949 0.0
C121 C 0.07089 0.34904 0.39757 0.0
O122 O 0.06187 0.33403 0.38634 0.0
O123 O 0.07135 0.36291 0.38836 0.0
O124 O 0.02428 0.30289 0.36506 0.0
O125 O 0.02013 0.32612 0.36345 0.0
O126 O 0.66991 0.95468 0.3213 0.0
Cd127 Cd 0.66445 0.96603 0.35271 0.0
Cd128 Cd 0.70034 0.98271 0.3578 0.0
O129 O 0.69912 0.97237 0.3212 0.0
O130 O 0.64 0.96241 0.34642 0.0
O131 O 0.66453 0.9889 0.34547 0.0
C132 C 0.64747 0.97934 0.34217 0.0
C133 C 0.71918 0.01289 0.36779 0.0
C134 C 0.68501 0.96007 0.31064 0.0
C135 C 0.6787 0.95714 0.3999 0.0
O136 O 0.69387 0.9656 0.38896 0.0
O137 O 0.66517 0.95686 0.38966 0.0
O138 O 0.72539 1.00227 0.36387 0.0
O139 O 0.70223 1.00653 0.36474 0.0
O140 O 0.07269 0.72315 0.32501 0.0
Cd141 Cd 0.06222 0.70501 0.3549 0.0
Cd142 Cd 0.04328 0.72192 0.36258 0.0
O143 O 0.05309 0.73242 0.32602 0.0
O144 O 0.0671 0.6855 0.34508 0.0
O145 O 0.03983 0.68144 0.34894 0.0
C146 C 0.05007 0.67503 0.34315 0.0
C147 C 0.013 0.7096 0.37313 0.0
C148 C 0.06631 0.73231 0.31539 0.0
C149 C 0.07058 0.72624 0.40326 0.0
O150 O 0.06044 0.73166 0.39413 0.0
O151 O 0.07231 0.7143 0.39138 0.0
O152 O 0.02336 0.72661 0.37084 0.0
O153 O 0.0197 0.69949 0.36817 0.0
O154 O 0.29307 0.33288 0.38949 0.0
Cd155 Cd 0.30283 0.32494 0.35905 0.0
Cd156 Cd 0.3236 0.36088 0.35198 0.0
O157 O 0.31322 0.36157 0.38815 0.0
O158 O 0.29882 0.30061 0.36762 0.0
O159 O 0.32559 0.32462 0.36505 0.0
C160 C 0.3159 0.3078 0.37019 0.0
C161 C 0.35418 0.37813 0.3426 0.0
C162 C 0.2999 0.34847 0.39908 0.0
C163 C 0.29605 0.33932 0.31073 0.0
O164 O 0.30727 0.3546 0.31967 0.0
O165 O 0.29284 0.32518 0.32276 0.0
O166 O 0.34423 0.38528 0.34467 0.0
O167 O 0.34689 0.36123 0.34721 0.0
O168 O 0.36305 0.06958 0.72015 0.0
Cd169 Cd 0.37034 0.05882 0.69007 0.0
Cd170 Cd 0.3345 0.04031 0.68182 0.0
O171 O 0.33413 0.05016 0.71842 0.0
O172 O 0.39385 0.06105 0.69905 0.0
O173 O 0.36861 0.03515 0.69682 0.0
C174 C 0.38551 0.04393 0.70189 0.0
C175 C 0.3142 0.01079 0.67036 0.0
C176 C 0.34745 0.06307 0.72963 0.0
C177 C 0.35824 0.06751 0.64139 0.0
O178 O 0.34264 0.05755 0.6504 0.0
O179 O 0.37174 0.06904 0.65347 0.0
O180 O 0.3094 0.02266 0.67202 0.0
O181 O 0.33039 0.01536 0.67664 0.0
O182 O 0.96044 0.29862 0.72428 0.0
Cd183 Cd 0.97082 0.31622 0.69356 0.0
Cd184 Cd 0.98902 0.29847 0.6869 0.0
O185 O 0.97949 0.28872 0.72371 0.0
O186 O 0.96511 0.33534 0.70227 0.0
O187 O 0.99272 0.34028 0.69935 0.0
C188 C 0.98202 0.34626 0.70444 0.0
C189 C 0.01922 0.31064 0.67621 0.0
C190 C 0.96662 0.28943 0.73443 0.0
C191 C 0.96216 0.29393 0.6459 0.0
O192 O 0.97153 0.28789 0.65594 0.0
O193 O 0.96114 0.30656 0.6569 0.0
O194 O 1.00893 0.29368 0.67936 0.0
O195 O 0.01249 0.32084 0.68011 0.0
O196 O 0.73527 0.68757 0.65454 0.0
Cd197 Cd 0.7257 0.6954 0.68577 0.0
Cd198 Cd 0.70999 0.65889 0.69386 0.0
O199 O 0.71939 0.65824 0.65734 0.0
O200 O 0.73309 0.72052 0.67589 0.0
O201 O 0.70486 0.69939 0.67953 0.0
C202 C 0.71645 0.71562 0.67337 0.0
C203 C 0.6801 0.64065 0.70576 0.0
C204 C 0.73063 0.67222 0.64531 0.0
C205 C 0.73651 0.68337 0.73346 0.0
O206 O 0.72822 0.66777 0.72381 0.0
O207 O 0.736 0.69631 0.72255 0.0
O208 O 0.69091 0.63446 0.70437 0.0
O209 O 0.68612 0.65715 0.69938 0.0
O210 O 0.33911 0.29201 0.65325 0.0
Cd211 Cd 0.33172 0.30097 0.68525 0.0
Cd212 Cd 0.36808 0.31937 0.6928 0.0
O213 O 0.36838 0.30884 0.65656 0.0
O214 O 0.30706 0.2964 0.67798 0.0
O215 O 0.33067 0.32352 0.68052 0.0
C216 C 0.3138 0.31344 0.676 0.0
C217 C 0.38643 0.34965 0.703 0.0
C218 C 0.35465 0.29729 0.64427 0.0
C219 C 0.34502 0.29176 0.73293 0.0
O220 O 0.36059 0.30267 0.72466 0.0
O221 O 0.33129 0.28947 0.72063 0.0
O222 O 0.39271 0.33891 0.70166 0.0
O223 O 0.36981 0.34338 0.69718 0.0
O224 O 0.73934 0.05689 0.65739 0.0
Cd225 Cd 0.72694 0.03936 0.68764 0.0
Cd226 Cd 0.70885 0.05686 0.68862 0.0
O227 O 0.71897 0.06475 0.65147 0.0
O228 O 0.73285 0.02009 0.68132 0.0
O229 O 0.7053 0.01547 0.67976 0.0
C230 C 0.71616 0.00944 0.67655 0.0
C231 C 0.67869 0.04557 0.69883 0.0
C232 C 0.73303 0.06481 0.64406 0.0
C233 C 0.73433 0.06317 0.73258 0.0
O234 O 0.72598 0.06919 0.71957 0.0
O235 O 0.73474 0.04944 0.72467 0.0
O236 O 0.6891 0.06222 0.69349 0.0
O237 O 0.68521 0.03503 0.69689 0.0
O238 O 0.96035 0.6682 0.7262 0.0
Cd239 Cd 0.9697 0.66076 0.6945 0.0
Cd240 Cd 0.98749 0.69698 0.68624 0.0
O241 O 0.97722 0.69744 0.72241 0.0
O242 O 0.96464 0.63594 0.70184 0.0
O243 O 0.99196 0.65927 0.70001 0.0
C244 C 0.98162 0.64239 0.70419 0.0
C245 C 0.01785 0.71448 0.67614 0.0
C246 C 0.96558 0.68384 0.73478 0.0
C247 C 0.96044 0.67375 0.64613 0.0
O248 O 0.9706 0.68945 0.65467 0.0
O249 O 0.95891 0.6603 0.65843 0.0
O250 O 1.00771 0.72142 0.67809 0.0
O251 O 0.01088 0.69766 0.68126 0.0
H252 H 0.25928 0.36656 0.16998 0.0
N253 N 0.23749 0.33737 0.1407 0.0
H254 H 0.27177 0.36649 0.21242 0.0
H255 H 0.23133 0.3091 0.16873 0.0
H256 H 0.24498 0.30882 0.21006 0.0
H257 H 0.25029 0.31829 0.11917 0.0
H258 H 0.27624 0.32882 0.09102 0.0
H259 H 0.25582 0.3706 0.11892 0.0
H260 H 0.28126 0.38114 0.08909 0.0
H261 H 0.2322 0.36427 0.15924 0.0
H262 H 0.20829 0.31598 0.11392 0.0
H263 H 0.20456 0.36526 0.15709 0.0
H264 H 0.18088 0.31741 0.11016 0.0
H265 H 0.13184 0.36672 0.17102 0.0
H266 H 0.11785 0.36678 0.21211 0.0
H267 H 0.08521 0.30929 0.20815 0.0
H268 H 0.09822 0.30966 0.16586 0.0
H269 H 0.09798 0.31701 0.10443 0.0
H270 H 0.08134 0.32512 0.07416 0.0
H271 H 0.11224 0.38004 0.09912 0.0
H272 H 0.12945 0.37199 0.12795 0.0
H273 H 0.15475 0.36827 0.13636 0.0
H274 H 0.18369 0.36958 0.13351 0.0
H275 H 0.1566 0.31186 0.13576 0.0
N276 N 0.12196 0.33801 0.13933 0.0
H277 H 0.12795 0.31087 0.13726 0.0
C278 C 0.24386 0.33777 0.16664 0.0
C279 C 0.25552 0.3539 0.17913 0.0
C280 C 0.26292 0.35382 0.20321 0.0
C281 C 0.25923 0.33763 0.21499 0.0
C282 C 0.24764 0.32152 0.20222 0.0
C283 C 0.2399 0.32163 0.17847 0.0
C284 C 0.251 0.34355 0.12085 0.0
C285 C 0.25679 0.33193 0.1122 0.0
C286 C 0.27156 0.33797 0.09586 0.0
C287 C 0.28073 0.35578 0.08723 0.0
C288 C 0.27454 0.36733 0.09533 0.0
C289 C 0.2599 0.36132 0.11218 0.0
C290 C 0.22222 0.33975 0.1372 0.0
C291 C 0.2211 0.35396 0.14854 0.0
C292 C 0.20522 0.35461 0.14704 0.0
C293 C 0.19021 0.34124 0.13381 0.0
C294 C 0.19186 0.32766 0.12122 0.0
C295 C 0.2076 0.32689 0.12307 0.0
C296 C 0.11568 0.3382 0.16509 0.0
C297 C 0.12151 0.35418 0.17882 0.0
C298 C 0.1136 0.35414 0.20251 0.0
C299 C 0.1 0.33807 0.21321 0.0
C300 C 0.09506 0.32199 0.20006 0.0
C301 C 0.10267 0.32211 0.1761 0.0
C302 C 0.11479 0.34378 0.11867 0.0
C303 C 0.10142 0.33085 0.10282 0.0
C304 C 0.09176 0.33548 0.08586 0.0
C305 C 0.09505 0.35315 0.08479 0.0
C306 C 0.10927 0.36629 0.09951 0.0
C307 C 0.1191 0.36168 0.11618 0.0
C308 C 0.13919 0.33942 0.13662 0.0
C309 C 0.1551 0.35595 0.13579 0.0
C310 C 0.17167 0.35664 0.13443 0.0
C311 C 0.17265 0.34082 0.13421 0.0
C312 C 0.15656 0.32436 0.13517 0.0
C313 C 0.1401 0.32371 0.13623 0.0
H314 H 0.72268 0.78738 0.16171 0.0
N315 N 0.69835 0.79427 0.14208 0.0
H316 H 0.7215 0.77291 0.20306 0.0
H317 H 0.67316 0.78549 0.18024 0.0
H318 H 0.67226 0.77178 0.22184 0.0
H319 H 0.66423 0.76614 0.13947 0.0
H320 H 0.65371 0.74039 0.11054 0.0
H321 H 0.71501 0.79181 0.10037 0.0
H322 H 0.70432 0.76649 0.07043 0.0
H323 H 0.72529 0.82695 0.13418 0.0
H324 H 0.66818 0.79726 0.14293 0.0
H325 H 0.72449 0.85466 0.13116 0.0
H326 H 0.66723 0.82505 0.14229 0.0
H327 H 0.71862 0.94178 0.16046 0.0
H328 H 0.71539 0.95346 0.20213 0.0
H329 H 0.66843 0.90269 0.21858 0.0
H330 H 0.67146 0.89136 0.17644 0.0
H331 H 0.66241 0.90229 0.1358 0.0
H332 H 0.65141 0.91679 0.10639 0.0
H333 H 0.70264 0.94334 0.06803 0.0
H334 H 0.7138 0.9294 0.09846 0.0
H335 H 0.72212 0.90311 0.15604 0.0
H336 H 0.72164 0.87477 0.15626 0.0
H337 H 0.66954 0.84945 0.12003 0.0
N338 N 0.69707 0.9099 0.13995 0.0
H339 H 0.66968 0.87774 0.12178 0.0
C340 C 0.69821 0.78777 0.16789 0.0
C341 C 0.71181 0.78427 0.175 0.0
C342 C 0.71115 0.77609 0.19868 0.0
C343 C 0.69687 0.77135 0.21589 0.0
C344 C 0.68342 0.77522 0.20898 0.0
C345 C 0.68402 0.78325 0.1852 0.0
C346 C 0.69053 0.78079 0.12226 0.0
C347 C 0.67296 0.76643 0.12424 0.0
C348 C 0.66696 0.75172 0.10762 0.0
C349 C 0.67835 0.75118 0.08859 0.0
C350 C 0.69542 0.76622 0.08541 0.0
C351 C 0.70147 0.7808 0.10222 0.0
C352 C 0.69693 0.81013 0.13937 0.0
C353 C 0.71258 0.82649 0.13575 0.0
C354 C 0.71206 0.84237 0.13435 0.0
C355 C 0.69583 0.84236 0.13714 0.0
C356 C 0.68 0.82575 0.14001 0.0
C357 C 0.68053 0.80978 0.14079 0.0
C358 C 0.69537 0.91576 0.16543 0.0
C359 C 0.7077 0.93319 0.17317 0.0
C360 C 0.70584 0.9398 0.19696 0.0
C361 C 0.69155 0.92907 0.21354 0.0
C362 C 0.67936 0.91142 0.20599 0.0
C363 C 0.68117 0.90485 0.18206 0.0
C364 C 0.68906 0.91497 0.11951 0.0
C365 C 0.6712 0.91101 0.12084 0.0
C366 C 0.66491 0.9193 0.10394 0.0
C367 C 0.67629 0.9316 0.08527 0.0
C368 C 0.69371 0.93439 0.08271 0.0
C369 C 0.70003 0.92624 0.0998 0.0
C370 C 0.69614 0.89274 0.13862 0.0
C371 C 0.7106 0.89143 0.14813 0.0
C372 C 0.71034 0.87515 0.14797 0.0
C373 C 0.69567 0.85965 0.13771 0.0
C374 C 0.68104 0.86095 0.12827 0.0
C375 C 0.68118 0.87727 0.12897 0.0
H376 H 0.12955 0.77528 0.17504 0.0
N377 N 0.11679 0.79189 0.14378 0.0
H378 H 0.11735 0.76131 0.21671 0.0
H379 H 0.09147 0.79348 0.17088 0.0
H380 H 0.08016 0.78094 0.21392 0.0
H381 H 0.09314 0.78844 0.10802 0.0
H382 H 0.07779 0.76401 0.0768 0.0
H383 H 0.12511 0.76579 0.13309 0.0
H384 H 0.10924 0.74093 0.10324 0.0
H385 H 0.14983 0.79491 0.13947 0.0
H386 H 0.12235 0.82486 0.14286 0.0
H387 H 0.17851 0.82276 0.13675 0.0
H388 H 0.1508 0.85273 0.14127 0.0
H389 H 0.25782 0.9046 0.1667 0.0
H390 H 0.27218 0.91661 0.2084 0.0
H391 H 0.23558 0.936 0.22265 0.0
H392 H 0.22176 0.92455 0.18019 0.0
H393 H 0.24784 0.94197 0.12684 0.0
H394 H 0.27333 0.95594 0.09758 0.0
H395 H 0.27035 0.90495 0.08656 0.0
H396 H 0.24557 0.89137 0.11743 0.0
H397 H 0.22662 0.87687 0.16335 0.0
H398 H 0.19915 0.84797 0.16129 0.0
H399 H 0.17476 0.87156 0.11465 0.0
N400 N 0.23143 0.90877 0.14451 0.0
H401 H 0.20198 0.90057 0.11813 0.0
C402 C 0.11117 0.78516 0.16964 0.0
C403 C 0.11868 0.77644 0.18323 0.0
C404 C 0.11188 0.76874 0.20742 0.0
C405 C 0.09787 0.77016 0.21898 0.0
C406 C 0.09081 0.77941 0.20557 0.0
C407 C 0.09733 0.78671 0.1811 0.0
C408 C 0.11011 0.7789 0.12314 0.0
C409 C 0.09695 0.77828 0.10662 0.0
C410 C 0.08804 0.76419 0.08907 0.0
C411 C 0.09192 0.75021 0.08803 0.0
C412 C 0.10586 0.75142 0.10357 0.0
C413 C 0.11492 0.76565 0.12085 0.0
C414 C 0.13391 0.80785 0.14101 0.0
C415 C 0.14995 0.80747 0.13948 0.0
C416 C 0.16639 0.82347 0.13817 0.0
C417 C 0.1671 0.84014 0.1386 0.0
C418 C 0.15091 0.84028 0.14021 0.0
C419 C 0.13458 0.82435 0.1413 0.0
C420 C 0.23871 0.91373 0.17033 0.0
C421 C 0.25276 0.91126 0.1789 0.0
C422 C 0.26088 0.91803 0.20287 0.0
C423 C 0.25494 0.92716 0.21898 0.0
C424 C 0.24054 0.92914 0.21064 0.0
C425 C 0.23254 0.9225 0.18655 0.0
C426 C 0.24463 0.91564 0.12411 0.0
C427 C 0.25249 0.93376 0.11769 0.0
C428 C 0.26698 0.94168 0.10072 0.0
C429 C 0.27377 0.93154 0.0892 0.0
C430 C 0.2655 0.91318 0.09506 0.0
C431 C 0.25119 0.90533 0.11253 0.0
C432 C 0.21622 0.89104 0.14132 0.0
C433 C 0.21537 0.87584 0.15271 0.0
C434 C 0.19963 0.85921 0.15128 0.0
C435 C 0.1845 0.85737 0.13815 0.0
C436 C 0.18587 0.87247 0.12559 0.0
C437 C 0.20149 0.88907 0.12731 0.0
H438 H 0.36879 0.25099 0.87224 0.0
N439 N 0.3391 0.22924 0.90073 0.0
H440 H 0.36948 0.26428 0.83025 0.0
H441 H 0.31135 0.22396 0.87211 0.0
H442 H 0.31186 0.23848 0.83123 0.0
H443 H 0.32227 0.2446 0.92196 0.0
H444 H 0.33482 0.27091 0.94983 0.0
H445 H 0.37233 0.24513 0.92299 0.0
H446 H 0.38472 0.27074 0.95255 0.0
H447 H 0.36515 0.22315 0.88046 0.0
H448 H 0.3181 0.20039 0.92844 0.0
H449 H 0.3659 0.19546 0.88279 0.0
H450 H 0.31935 0.17289 0.93233 0.0
H451 H 0.36895 0.12376 0.87206 0.0
H452 H 0.36998 0.11113 0.83029 0.0
H453 H 0.31237 0.07922 0.83034 0.0
H454 H 0.31169 0.09082 0.87335 0.0
H455 H 0.31832 0.08766 0.93478 0.0
H456 H 0.32702 0.07166 0.96539 0.0
H457 H 0.38228 0.10611 0.94431 0.0
H458 H 0.37359 0.12254 0.91522 0.0
H459 H 0.36961 0.14638 0.90368 0.0
H460 H 0.37088 0.17523 0.90655 0.0
H461 H 0.31315 0.14799 0.90762 0.0
N462 N 0.33933 0.11344 0.90211 0.0
H463 H 0.31222 0.11935 0.90616 0.0
C464 C 0.33994 0.23595 0.87488 0.0
C465 C 0.35629 0.24758 0.86287 0.0
C466 C 0.35666 0.25546 0.83904 0.0
C467 C 0.34071 0.25234 0.82704 0.0
C468 C 0.32438 0.24073 0.83925 0.0
C469 C 0.32404 0.23249 0.86274 0.0
C470 C 0.34628 0.24288 0.92045 0.0
C471 C 0.33585 0.25015 0.92885 0.0
C472 C 0.34307 0.26517 0.94486 0.0
C473 C 0.36092 0.27321 0.95319 0.0
C474 C 0.37111 0.26529 0.94588 0.0
C475 C 0.36396 0.25044 0.92931 0.0
C476 C 0.34124 0.21378 0.90383 0.0
C477 C 0.35504 0.2123 0.89174 0.0
C478 C 0.35558 0.19638 0.89336 0.0
C479 C 0.34254 0.18167 0.90747 0.0
C480 C 0.32935 0.18363 0.92065 0.0
C481 C 0.32868 0.19943 0.91869 0.0
C482 C 0.34023 0.1078 0.87617 0.0
C483 C 0.35657 0.11385 0.86333 0.0
C484 C 0.35711 0.10674 0.83921 0.0
C485 C 0.34128 0.09376 0.82714 0.0
C486 C 0.32488 0.08859 0.83945 0.0
C487 C 0.32441 0.09539 0.86385 0.0
C488 C 0.34521 0.10627 0.92265 0.0
C489 C 0.33234 0.09205 0.9374 0.0
C490 C 0.33733 0.08283 0.95468 0.0
C491 C 0.35537 0.08758 0.95743 0.0
C492 C 0.36831 0.1023 0.94325 0.0
C493 C 0.36331 0.11165 0.92626 0.0
C494 C 0.34076 0.13067 0.90514 0.0
C495 C 0.35727 0.14663 0.90507 0.0
C496 C 0.35794 0.16318 0.90639 0.0
C497 C 0.34211 0.16411 0.90743 0.0
C498 C 0.32566 0.14798 0.90751 0.0
C499 C 0.32505 0.13153 0.9065 0.0
H500 H 0.76865 0.11994 0.88134 0.0
N501 N 0.79479 0.11529 0.90322 0.0
H502 H 0.75424 0.10815 0.83944 0.0
H503 H 0.80459 0.09995 0.8672 0.0
H504 H 0.79082 0.08878 0.82472 0.0
H505 H 0.77891 0.08167 0.91913 0.0
H506 H 0.75354 0.06662 0.94856 0.0
H507 H 0.78069 0.13168 0.93316 0.0
H508 H 0.75619 0.11702 0.964 0.0
H509 H 0.79787 0.1481 0.89561 0.0
H510 H 0.82689 0.12162 0.91713 0.0
H511 H 0.82522 0.17713 0.89932 0.0
H512 H 0.85447 0.15025 0.91933 0.0
H513 H 0.90827 0.25577 0.87885 0.0
H514 H 0.92192 0.2693 0.83761 0.0
H515 H 0.94177 0.23249 0.83017 0.0
H516 H 0.92888 0.21968 0.87256 0.0
H517 H 0.94012 0.23795 0.93333 0.0
H518 H 0.95513 0.26258 0.96419 0.0
H519 H 0.91437 0.2768 0.95134 0.0
H520 H 0.89877 0.25122 0.92224 0.0
H521 H 0.88132 0.22336 0.8777 0.0
H522 H 0.85237 0.19615 0.87932 0.0
H523 H 0.87135 0.17646 0.94158 0.0
N524 N 0.91152 0.22987 0.90478 0.0
H525 H 0.90068 0.20317 0.93836 0.0
C526 C 0.78765 0.11071 0.87735 0.0
C527 C 0.77369 0.11336 0.86892 0.0
C528 C 0.76554 0.1067 0.84488 0.0
C529 C 0.77141 0.09755 0.82867 0.0
C530 C 0.78586 0.09559 0.83683 0.0
C531 C 0.79385 0.10208 0.86094 0.0
C532 C 0.78178 0.10777 0.92382 0.0
C533 C 0.77412 0.08948 0.92911 0.0
C534 C 0.75964 0.08092 0.94604 0.0
C535 C 0.75255 0.09051 0.95839 0.0
C536 C 0.7609 0.10908 0.95422 0.0
C537 C 0.77517 0.11758 0.93679 0.0
C538 C 0.81034 0.13271 0.90658 0.0
C539 C 0.81013 0.14857 0.90137 0.0
C540 C 0.82589 0.16517 0.90318 0.0
C541 C 0.84224 0.16625 0.90976 0.0
C542 C 0.84221 0.15022 0.91492 0.0
C543 C 0.82646 0.13374 0.9135 0.0
C544 C 0.91782 0.23686 0.8791 0.0
C545 C 0.91565 0.25066 0.86857 0.0
C546 C 0.92337 0.25831 0.84477 0.0
C547 C 0.93325 0.25223 0.83074 0.0
C548 C 0.93474 0.2379 0.84081 0.0
C549 C 0.9272 0.2304 0.86483 0.0
C550 C 0.91851 0.24291 0.92532 0.0
C551 C 0.93422 0.24614 0.93779 0.0
C552 C 0.94284 0.26031 0.95522 0.0
C553 C 0.93606 0.2718 0.96027 0.0
C554 C 0.91985 0.26808 0.94845 0.0
C555 C 0.91102 0.2536 0.93145 0.0
C556 C 0.89344 0.2152 0.90758 0.0
C557 C 0.87932 0.21323 0.89171 0.0
C558 C 0.86258 0.19761 0.89285 0.0
C559 C 0.85942 0.18376 0.91027 0.0
C560 C 0.87329 0.18643 0.92728 0.0
C561 C 0.89007 0.20183 0.92573 0.0
H562 H 0.79689 0.71847 0.87995 0.0
N563 N 0.79719 0.69144 0.90398 0.0
H564 H 0.78407 0.71818 0.83759 0.0
H565 H 0.78262 0.66348 0.86998 0.0
H566 H 0.76804 0.66239 0.82892 0.0
H567 H 0.77089 0.65662 0.91091 0.0
H568 H 0.74584 0.64595 0.94069 0.0
H569 H 0.79305 0.70971 0.94225 0.0
H570 H 0.76818 0.6989 0.97314 0.0
H571 H 0.82958 0.71624 0.88935 0.0
H572 H 0.80087 0.66321 0.9215 0.0
H573 H 0.8571 0.71512 0.8904 0.0
H574 H 0.82858 0.6624 0.9245 0.0
H575 H 0.94343 0.71519 0.88628 0.0
H576 H 0.95659 0.71474 0.84442 0.0
H577 H 0.90964 0.66433 0.82636 0.0
H578 H 0.89703 0.66451 0.86848 0.0
H579 H 0.90514 0.65545 0.9101 0.0
H580 H 0.91973 0.64431 0.9391 0.0
H581 H 0.94791 0.69598 0.97613 0.0
H582 H 0.93366 0.70716 0.9463 0.0
H583 H 0.90746 0.71726 0.91492 0.0
H584 H 0.87919 0.71704 0.91667 0.0
H585 H 0.85094 0.65996 0.90344 0.0
N586 N 0.91274 0.69007 0.90627 0.0
H587 H 0.87934 0.66028 0.90409 0.0
C588 C 0.7903 0.69093 0.87838 0.0
C589 C 0.79072 0.70626 0.8687 0.0
C590 C 0.78311 0.70596 0.84467 0.0
C591 C 0.77439 0.69008 0.83012 0.0
C592 C 0.77451 0.67484 0.83958 0.0
C593 C 0.78262 0.67533 0.86328 0.0
C594 C 0.78395 0.68406 0.9243 0.0
C595 C 0.77064 0.66594 0.92461 0.0
C596 C 0.75633 0.65978 0.94193 0.0
C597 C 0.75505 0.67153 0.95951 0.0
C598 C 0.76874 0.68951 0.95982 0.0
C599 C 0.78302 0.69568 0.94237 0.0
C600 C 0.81312 0.68999 0.90553 0.0
C601 C 0.82927 0.70442 0.89698 0.0
C602 C 0.84509 0.70379 0.89791 0.0
C603 C 0.84535 0.68878 0.908 0.0
C604 C 0.82904 0.67417 0.9164 0.0
C605 C 0.81307 0.67468 0.91493 0.0
C606 C 0.91918 0.69007 0.88048 0.0
C607 C 0.93592 0.70419 0.87308 0.0
C608 C 0.94335 0.70395 0.84911 0.0
C609 C 0.93406 0.6896 0.83189 0.0
C610 C 0.91715 0.67557 0.8392 0.0
C611 C 0.90983 0.67574 0.86328 0.0
C612 C 0.91834 0.68218 0.92608 0.0
C613 C 0.91412 0.66425 0.92483 0.0
C614 C 0.92244 0.65788 0.94156 0.0
C615 C 0.93498 0.66924 0.96004 0.0
C616 C 0.93843 0.68691 0.96203 0.0
C617 C 0.9302 0.69328 0.9452 0.0
C618 C 0.89559 0.68893 0.90883 0.0
C619 C 0.89511 0.7047 0.9127 0.0
C620 C 0.87887 0.70452 0.91333 0.0
C621 C 0.86257 0.68854 0.90951 0.0
C622 C 0.86308 0.67257 0.9065 0.0
C623 C 0.8794 0.67274 0.90648 0.0
H624 H 0.75073 0.63818 0.49621 0.0
N625 N 0.78211 0.66101 0.47536 0.0
H626 H 0.73858 0.64087 0.53782 0.0
H627 H 0.79982 0.68694 0.51179 0.0
H628 H 0.78796 0.68953 0.55373 0.0
H629 H 0.78834 0.69525 0.47183 0.0
H630 H 0.77343 0.70573 0.44238 0.0
H631 H 0.76297 0.6441 0.43364 0.0
H632 H 0.74864 0.65478 0.4031 0.0
H633 H 0.79046 0.63694 0.49094 0.0
H634 H 0.81359 0.68941 0.45711 0.0
H635 H 0.81943 0.63875 0.49021 0.0
H636 H 0.84248 0.69089 0.45445 0.0
H637 H 0.90689 0.64068 0.49519 0.0
H638 H 0.92073 0.64182 0.5371 0.0
H639 H 0.92199 0.69128 0.55479 0.0
H640 H 0.90894 0.69042 0.5126 0.0
H641 H 0.92829 0.69913 0.47212 0.0
H642 H 0.95429 0.70943 0.44377 0.0
H643 H 0.92831 0.65871 0.40389 0.0
H644 H 0.9028 0.6482 0.43339 0.0
H645 H 0.86807 0.63734 0.46644 0.0
H646 H 0.83974 0.63696 0.46408 0.0
H647 H 0.8676 0.69418 0.47588 0.0
N648 N 0.90024 0.66501 0.47489 0.0
H649 H 0.89602 0.69442 0.47584 0.0
C650 C 0.77611 0.6623 0.50094 0.0
C651 C 0.75894 0.64933 0.50882 0.0
C652 C 0.75206 0.65087 0.53256 0.0
C653 C 0.76223 0.66552 0.5489 0.0
C654 C 0.77967 0.67829 0.54131 0.0
C655 C 0.78652 0.67675 0.51748 0.0
C656 C 0.77655 0.66874 0.45515 0.0
C657 C 0.77988 0.68639 0.45672 0.0
C658 C 0.77137 0.69239 0.43976 0.0
C659 C 0.75948 0.68094 0.42075 0.0
C660 C 0.75726 0.66375 0.41803 0.0
C661 C 0.76563 0.65771 0.43519 0.0
C662 C 0.79965 0.66282 0.47381 0.0
C663 C 0.80179 0.64876 0.48296 0.0
C664 C 0.81842 0.64979 0.48224 0.0
C665 C 0.83346 0.66485 0.47178 0.0
C666 C 0.83135 0.6791 0.4628 0.0
C667 C 0.81468 0.67819 0.46405 0.0
C668 C 0.90661 0.66526 0.50081 0.0
C669 C 0.90992 0.6516 0.50833 0.0
C670 C 0.91772 0.65224 0.53233 0.0
C671 C 0.92226 0.66654 0.54945 0.0
C672 C 0.91868 0.6801 0.54203 0.0
C673 C 0.91102 0.67952 0.51792 0.0
C674 C 0.91373 0.67276 0.45508 0.0
C675 C 0.92809 0.69033 0.45706 0.0
C676 C 0.94295 0.6962 0.44077 0.0
C677 C 0.94362 0.6847 0.42201 0.0
C678 C 0.92853 0.66768 0.41871 0.0
C679 C 0.91382 0.66174 0.43525 0.0
C680 C 0.88406 0.66577 0.4719 0.0
C681 C 0.86801 0.6498 0.46822 0.0
C682 C 0.85178 0.64963 0.46723 0.0
C683 C 0.85112 0.66548 0.47051 0.0
C684 C 0.86741 0.68167 0.47327 0.0
C685 C 0.88374 0.68183 0.47364 0.0
H686 H 0.38954 0.11946 0.48952 0.0
N687 N 0.36676 0.12895 0.47121 0.0
H688 H 0.38814 0.10506 0.53098 0.0
H689 H 0.34218 0.12141 0.50953 0.0
H690 H 0.34099 0.10754 0.55151 0.0
H691 H 0.33229 0.10133 0.46908 0.0
H692 H 0.32094 0.07561 0.44001 0.0
H693 H 0.38253 0.12627 0.42849 0.0
H694 H 0.37098 0.10093 0.39843 0.0
H695 H 0.39127 0.16103 0.48735 0.0
H696 H 0.33855 0.13279 0.45412 0.0
H697 H 0.38985 0.1884 0.48818 0.0
H698 H 0.33747 0.16046 0.45294 0.0
H699 H 0.38852 0.27507 0.49546 0.0
H700 H 0.38691 0.28812 0.53694 0.0
H701 H 0.33755 0.23992 0.55454 0.0
H702 H 0.33894 0.22727 0.51304 0.0
H703 H 0.32985 0.23736 0.47292 0.0
H704 H 0.31869 0.25196 0.44397 0.0
H705 H 0.36899 0.27691 0.40302 0.0
H706 H 0.38037 0.26301 0.4331 0.0
H707 H 0.39175 0.23919 0.46685 0.0
H708 H 0.39183 0.21112 0.46357 0.0
H709 H 0.33461 0.18214 0.47531 0.0
N710 N 0.36426 0.24401 0.47517 0.0
H711 H 0.33467 0.21045 0.47616 0.0
C712 C 0.36614 0.12167 0.49659 0.0
C713 C 0.37904 0.11706 0.50314 0.0
C714 C 0.37828 0.10895 0.52688 0.0
C715 C 0.36461 0.10541 0.54472 0.0
C716 C 0.35168 0.1101 0.53817 0.0
C717 C 0.3524 0.11812 0.5143 0.0
C718 C 0.3584 0.11565 0.45113 0.0
C719 C 0.34073 0.10148 0.45349 0.0
C720 C 0.33424 0.08678 0.43678 0.0
C721 C 0.34522 0.086 0.41728 0.0
C722 C 0.36238 0.10085 0.41374 0.0
C723 C 0.36891 0.11545 0.43062 0.0
C724 C 0.36522 0.14486 0.47042 0.0
C725 C 0.37948 0.16084 0.47982 0.0
C726 C 0.37868 0.17657 0.48 0.0
C727 C 0.36366 0.17695 0.47017 0.0
C728 C 0.34923 0.16082 0.46087 0.0
C729 C 0.3499 0.14491 0.46125 0.0
C730 C 0.36395 0.2502 0.50104 0.0
C731 C 0.37749 0.26726 0.50847 0.0
C732 C 0.37656 0.27468 0.53213 0.0
C733 C 0.36195 0.26515 0.5488 0.0
C734 C 0.34876 0.24775 0.54184 0.0
C735 C 0.34967 0.24039 0.51814 0.0
C736 C 0.3561 0.24937 0.45541 0.0
C737 C 0.33841 0.24581 0.45757 0.0
C738 C 0.33203 0.25415 0.44091 0.0
C739 C 0.34312 0.26603 0.42159 0.0
C740 C 0.36031 0.26837 0.41824 0.0
C741 C 0.36676 0.26024 0.43514 0.0
C742 C 0.36335 0.22697 0.47235 0.0
C743 C 0.37924 0.22674 0.46851 0.0
C744 C 0.37922 0.21059 0.46697 0.0
C745 C 0.36327 0.19412 0.46984 0.0
C746 C 0.34719 0.19441 0.47296 0.0
C747 C 0.34721 0.21066 0.47387 0.0
H748 H 0.80488 0.09744 0.51376 0.0
N749 N 0.80003 0.11657 0.47777 0.0
H750 H 0.78817 0.08578 0.55408 0.0
H751 H 0.77497 0.12378 0.49683 0.0
H752 H 0.759 0.11328 0.53801 0.0
H753 H 0.77571 0.11841 0.44657 0.0
H754 H 0.75659 0.09592 0.4144 0.0
H755 H 0.80273 0.08892 0.46149 0.0
H756 H 0.78339 0.06607 0.43045 0.0
H757 H 0.83425 0.12612 0.47202 0.0
H758 H 0.79848 0.14716 0.47408 0.0
H759 H 0.85975 0.15636 0.46774 0.0
H760 H 0.8238 0.17752 0.47151 0.0
H761 H 0.93116 0.24197 0.49568 0.0
H762 H 0.94476 0.2543 0.53768 0.0
H763 H 0.90323 0.2669 0.55359 0.0
H764 H 0.8901 0.25518 0.51091 0.0
H765 H 0.91727 0.27566 0.45714 0.0
H766 H 0.94293 0.2911 0.42846 0.0
H767 H 0.94292 0.24163 0.41612 0.0
H768 H 0.91808 0.22663 0.44646 0.0
H769 H 0.90208 0.21244 0.49297 0.0
H770 H 0.87714 0.182 0.4918 0.0
H771 H 0.84667 0.19967 0.44673 0.0
N772 N 0.90237 0.24236 0.47427 0.0
H773 H 0.87148 0.2304 0.44948 0.0
C774 C 0.79134 0.11163 0.50257 0.0
C775 C 0.79496 0.10102 0.51912 0.0
C776 C 0.7854 0.09441 0.54214 0.0
C777 C 0.77209 0.09845 0.54927 0.0
C778 C 0.76882 0.10953 0.53289 0.0
C779 C 0.7782 0.11586 0.50956 0.0
C780 C 0.79063 0.10527 0.4562 0.0
C781 C 0.77766 0.10721 0.44258 0.0
C782 C 0.76662 0.09423 0.4245 0.0
C783 C 0.76824 0.079 0.42012 0.0
C784 C 0.78182 0.07764 0.43311 0.0
C785 C 0.79289 0.09065 0.45089 0.0
C786 C 0.81456 0.13443 0.47363 0.0
C787 C 0.83196 0.13734 0.47158 0.0
C788 C 0.84652 0.15468 0.46942 0.0
C789 C 0.84401 0.16958 0.4696 0.0
C790 C 0.82638 0.1665 0.47101 0.0
C791 C 0.81181 0.1491 0.47278 0.0
C792 C 0.90968 0.24788 0.5 0.0
C793 C 0.92495 0.24736 0.50818 0.0
C794 C 0.93269 0.25436 0.53227 0.0
C795 C 0.92528 0.26191 0.54878 0.0
C796 C 0.90957 0.26168 0.54102 0.0
C797 C 0.90193 0.25481 0.51681 0.0
C798 C 0.91554 0.24998 0.45382 0.0
C799 C 0.92259 0.26809 0.44781 0.0
C800 C 0.9372 0.27686 0.43116 0.0
C801 C 0.9449 0.2676 0.4195 0.0
C802 C 0.93738 0.24923 0.42478 0.0
C803 C 0.92299 0.24054 0.44197 0.0
C804 C 0.88856 0.22385 0.47165 0.0
C805 C 0.89005 0.20983 0.48288 0.0
C806 C 0.87573 0.19227 0.48192 0.0
C807 C 0.85967 0.1882 0.46931 0.0
C808 C 0.85857 0.20222 0.45717 0.0
C809 C 0.87282 0.21981 0.45846 0.0
H810 H 0.03475 0.58953 0.21509 0.0
N811 N 1.00373 0.56362 0.23674 0.0
H812 H 0.0377 0.60422 0.1734 0.0
H813 H 0.97874 0.55433 0.20058 0.0
H814 H 0.98169 0.5684 0.15824 0.0
H815 H 0.98606 0.5795 0.25296 0.0
H816 H 0.99661 0.60507 0.282 0.0
H817 H 0.03455 0.57804 0.26596 0.0
H818 H 0.04469 0.60283 0.29634 0.0
H819 H 0.03362 0.56074 0.22947 0.0
H820 H 0.978 0.53135 0.25011 0.0
H821 H 0.03555 0.53359 0.23344 0.0
H822 H 0.97926 0.50387 0.25228 0.0
H823 H 0.03362 0.45153 0.21496 0.0
H824 H 0.03574 0.43929 0.17334 0.0
H825 H 0.97964 0.41969 0.15985 0.0
H826 H 0.97749 0.43135 0.20226 0.0
H827 H 0.98657 0.41436 0.25555 0.0
H828 H 0.99876 0.40028 0.28348 0.0
H829 H 0.04679 0.45133 0.29367 0.0
H830 H 0.03494 0.465 0.26406 0.0
H831 H 0.02725 0.47837 0.21196 0.0
H832 H 0.02835 0.50694 0.21374 0.0
H833 H 0.98813 0.48655 0.27391 0.0
N834 N 1.00321 0.4475 0.23752 0.0
H835 H 0.98611 0.45747 0.27034 0.0
C836 C 1.00646 0.57086 0.21091 0.0
C837 C 0.02318 0.5847 0.20263 0.0
C838 C 0.02486 0.59301 0.17869 0.0
C839 C 1.00993 0.58744 0.16241 0.0
C840 C 0.9934 0.57312 0.17041 0.0
C841 C 0.99171 0.56497 0.19444 0.0
C842 C 1.00931 0.57664 0.25735 0.0
C843 C 0.99871 0.58431 0.26282 0.0
C844 C 1.00472 0.59886 0.27964 0.0
C845 C 0.02143 0.60592 0.29191 0.0
C846 C 0.03178 0.59779 0.28718 0.0
C847 C 0.02589 0.58342 0.2699 0.0
C848 C 1.00569 0.5481 0.24003 0.0
C849 C 0.02184 0.54844 0.23509 0.0
C850 C 0.02283 0.53276 0.23701 0.0
C851 C 1.00758 0.5163 0.24328 0.0
C852 C 0.99147 0.51618 0.24812 0.0
C853 C 0.99062 0.53189 0.24669 0.0
C854 C 1.00531 0.44227 0.21175 0.0
C855 C 0.0218 0.44472 0.20299 0.0
C856 C 0.02303 0.43785 0.17905 0.0
C857 C 1.00788 0.42863 0.16317 0.0
C858 C 0.99152 0.42663 0.1717 0.0
C859 C 0.99029 0.43339 0.19577 0.0
C860 C 1.00976 0.44068 0.25771 0.0
C861 C 0.99963 0.42254 0.26413 0.0
C862 C 1.00663 0.41453 0.28017 0.0
C863 C 0.02393 0.42456 0.29052 0.0
C864 C 0.03367 0.44305 0.28538 0.0
C865 C 0.02678 0.45099 0.2688 0.0
C866 C 1.00618 0.46545 0.24062 0.0
C867 C 0.0186 0.47994 0.22551 0.0
C868 C 0.01937 0.49651 0.22679 0.0
C869 C 1.0081 0.4992 0.24366 0.0
C870 C 0.99661 0.48498 0.25999 0.0
C871 C 0.99556 0.46833 0.25826 0.0
H872 H 0.61115 0.56911 0.21877 0.0
N873 N 0.5799 0.56197 0.2386 0.0
H874 H 0.62442 0.58404 0.17759 0.0
H875 H 0.56333 0.57076 0.20073 0.0
H876 H 0.57617 0.58501 0.15941 0.0
H877 H 0.57161 0.58854 0.24195 0.0
H878 H 0.58575 0.61437 0.27076 0.0
H879 H 0.60018 0.56587 0.2795 0.0
H880 H 0.61379 0.5913 0.30939 0.0
H881 H 0.57594 0.53002 0.2472 0.0
H882 H 0.54597 0.55703 0.23656 0.0
H883 H 0.54829 0.50145 0.24979 0.0
H884 H 0.51813 0.52838 0.23673 0.0
H885 H 0.4579 0.41092 0.2204 0.0
H886 H 0.44379 0.3983 0.17861 0.0
H887 H 0.44557 0.4478 0.15946 0.0
H888 H 0.45914 0.46009 0.20171 0.0
H889 H 0.43849 0.44871 0.24144 0.0
H890 H 0.41282 0.43394 0.27043 0.0
H891 H 0.4391 0.41031 0.31236 0.0
H892 H 0.4644 0.42447 0.28231 0.0
H893 H 0.49932 0.4513 0.22449 0.0
H894 H 0.52622 0.48045 0.22445 0.0
H895 H 0.49664 0.5035 0.2587 0.0
N896 N 0.46677 0.44282 0.23962 0.0
H897 H 0.46947 0.47439 0.25676 0.0
C898 C 0.58625 0.56871 0.21289 0.0
C899 C 0.6034 0.57238 0.20571 0.0
C900 C 0.61094 0.58089 0.18222 0.0
C901 C 0.60145 0.58596 0.16544 0.0
C902 C 0.58398 0.58166 0.17221 0.0
C903 C 0.57651 0.57326 0.19578 0.0
C904 C 0.58494 0.57531 0.25854 0.0
C905 C 0.58049 0.58884 0.25696 0.0
C906 C 0.58853 0.60359 0.27362 0.0
C907 C 0.60092 0.60492 0.29249 0.0
C908 C 0.60445 0.59078 0.29496 0.0
C909 C 0.59657 0.57617 0.2781 0.0
C910 C 0.56308 0.54558 0.24109 0.0
C911 C 0.56331 0.52971 0.24512 0.0
C912 C 0.54742 0.51333 0.24626 0.0
C913 C 0.53076 0.51233 0.24281 0.0
C914 C 0.53057 0.52844 0.23953 0.0
C915 C 0.54655 0.54492 0.239 0.0
C916 C 0.45973 0.43644 0.21403 0.0
C917 C 0.45542 0.41908 0.20701 0.0
C918 C 0.44747 0.41195 0.18309 0.0
C919 C 0.4438 0.42214 0.16555 0.0
C920 C 0.44824 0.43963 0.17256 0.0
C921 C 0.45609 0.44671 0.1966 0.0
C922 C 0.4533 0.43748 0.25951 0.0
C923 C 0.43885 0.44054 0.25704 0.0
C924 C 0.42417 0.43211 0.27373 0.0
C925 C 0.42369 0.42057 0.29334 0.0
C926 C 0.43878 0.41865 0.29696 0.0
C927 C 0.45336 0.42693 0.28007 0.0
C928 C 0.48239 0.46046 0.2409 0.0
C929 C 0.49866 0.46267 0.23199 0.0
C930 C 0.51412 0.47941 0.23226 0.0
C931 C 0.5139 0.49452 0.24204 0.0
C932 C 0.49746 0.49233 0.25084 0.0
C933 C 0.48183 0.47554 0.25002 0.0
H934 H 0.57012 0.98794 0.2101 0.0
N935 N 0.57601 0.01805 0.23603 0.0
H936 H 0.58273 0.98674 0.16857 0.0
H937 H 0.59506 0.04516 0.20391 0.0
H938 H 0.60714 0.044 0.16133 0.0
H939 H 0.60361 0.04019 0.26513 0.0
H940 H 0.62019 0.03239 0.29583 0.0
H941 H 0.56545 0.98449 0.25412 0.0
H942 H 0.58286 0.97641 0.28278 0.0
H943 H 0.54396 0.99064 0.21846 0.0
H944 H 0.5682 0.0399 0.2615 0.0
H945 H 0.5152 0.98957 0.22004 0.0
H946 H 0.53934 0.03846 0.26467 0.0
H947 H 0.44256 0.98795 0.20489 0.0
H948 H 0.42816 0.98631 0.16358 0.0
H949 H 0.44879 0.0433 0.16624 0.0
H950 H 0.46181 0.04444 0.20886 0.0
H951 H 0.45627 0.03805 0.27065 0.0
H952 H 0.43195 0.02929 0.302 0.0
H953 H 0.40929 0.97441 0.27747 0.0
H954 H 0.4339 0.98311 0.24737 0.0
H955 H 0.46247 0.98709 0.2405 0.0
H956 H 0.49008 0.98584 0.24359 0.0
H957 H 0.52066 0.04343 0.23789 0.0
N958 N 0.45987 0.01736 0.2359 0.0
H959 H 0.49301 0.04443 0.23613 0.0
C960 C 0.58167 0.01671 0.21023 0.0
C961 C 0.57807 1.00025 0.19966 0.0
C962 C 0.58517 0.99956 0.17565 0.0
C963 C 0.59578 0.01526 0.16143 0.0
C964 C 0.59908 0.03168 0.17183 0.0
C965 C 0.59209 0.03236 0.196 0.0
C966 C 0.58363 0.01295 0.25685 0.0
C967 C 0.59884 0.02626 0.26941 0.0
C968 C 0.60845 0.02175 0.28659 0.0
C969 C 0.60334 1.00375 0.29096 0.0
C970 C 0.58734 0.99041 0.27968 0.0
C971 C 0.57745 0.99498 0.26302 0.0
C972 C 0.55837 0.01562 0.23943 0.0
C973 C 0.54306 1.00111 0.22859 0.0
C974 C 0.52652 1.00045 0.22972 0.0
C975 C 0.52487 0.01411 0.24208 0.0
C976 C 0.54008 0.02798 0.25426 0.0
C977 C 0.55659 0.02875 0.25275 0.0
C978 C 0.45302 0.01631 0.21014 0.0
C979 C 0.44388 1.00005 0.1967 0.0
C980 C 0.43591 0.99922 0.17275 0.0
C981 C 0.43745 0.01472 0.16131 0.0
C982 C 0.44716 0.03107 0.17453 0.0
C983 C 0.45474 0.03179 0.19875 0.0
C984 C 0.447 0.01132 0.25667 0.0
C985 C 0.4463 0.02407 0.27264 0.0
C986 C 0.43232 0.01906 0.29035 0.0
C987 C 0.41867 1.00113 0.29236 0.0
C988 C 0.41976 0.98827 0.27694 0.0
C989 C 0.43384 0.99328 0.25944 0.0
C990 C 0.47571 0.01594 0.23851 0.0
C991 C 0.47511 0.99942 0.24034 0.0
C992 C 0.49098 0.99874 0.24184 0.0
C993 C 0.50776 0.01454 0.24123 0.0
C994 C 0.50813 0.03097 0.23916 0.0
C995 C 0.49232 0.03162 0.23794 0.0
H996 H 0.43387 0.97021 0.84068 0.0
N997 N 0.45044 0.99742 0.8078 0.0
H998 H 0.42077 0.97014 0.8829 0.0
H999 H 0.45227 0.02644 0.83281 0.0
H1000 H 0.43862 0.02626 0.87392 0.0
H1001 H 0.46291 0.03163 0.79022 0.0
H1002 H 0.44695 0.04131 0.76162 0.0
H1003 H 0.42237 0.97675 0.77837 0.0
H1004 H 0.40709 0.9862 0.74775 0.0
H1005 H 0.46247 0.97754 0.78626 0.0
H1006 H 0.48021 0.02764 0.82546 0.0
H1007 H 0.49331 0.98359 0.78432 0.0
H1008 H 0.51078 0.03348 0.82461 0.0
H1009 H 0.57801 0.99329 0.82436 0.0
H1010 H 0.58952 0.98726 0.86416 0.0
H1011 H 0.59667 0.03634 0.89722 0.0
H1012 H 0.58591 0.0426 0.85688 0.0
H1013 H 0.60687 0.05329 0.80092 0.0
H1014 H 0.6291 0.05674 0.76871 0.0
H1015 H 0.5953 1.00188 0.74508 0.0
H1016 H 0.57317 0.99854 0.77793 0.0
H1017 H 0.54707 0.99089 0.81415 0.0
H1018 H 0.51624 0.98477 0.8111 0.0
H1019 H 0.53574 0.04096 0.79808 0.0
N1020 N 0.57709 0.0237 0.81336 0.0
H1021 H 0.56639 0.04688 0.80234 0.0
C1022 C 0.44393 0.99819 0.8333 0.0
C1023 C 0.43507 0.9825 0.848 0.0
C1024 C 0.42742 0.98246 0.87195 0.0
C1025 C 0.42834 0.99813 0.88155 0.0
C1026 C 0.43767 0.01396 0.86712 0.0
C1027 C 0.44544 0.01403 0.84337 0.0
C1028 C 0.44353 1.00342 0.78702 0.0
C1029 C 0.45074 0.02161 0.78109 0.0
C1030 C 0.44163 0.02714 0.76448 0.0
C1031 C 0.42536 0.01458 0.75296 0.0
C1032 C 0.41911 0.99631 0.75715 0.0
C1033 C 0.42798 0.99084 0.77429 0.0
C1034 C 0.46893 1.002 0.80606 0.0
C1035 C 0.47304 0.98985 0.79443 0.0
C1036 C 0.49066 0.99328 0.79355 0.0
C1037 C 0.50464 0.009 0.80442 0.0
C1038 C 0.50049 0.02134 0.81569 0.0
C1039 C 0.48287 0.01795 0.81638 0.0
C1040 C 0.5813 0.01852 0.83767 0.0
C1041 C 0.58188 1.00263 0.84029 0.0
C1042 C 0.58833 0.99913 0.86315 0.0
C1043 C 0.59406 0.01135 0.88386 0.0
C1044 C 0.59258 0.02678 0.88152 0.0
C1045 C 0.58633 0.03033 0.85862 0.0
C1046 C 0.58847 0.02573 0.79176 0.0
C1047 C 0.60415 0.04213 0.78846 0.0
C1048 C 0.6168 0.04405 0.77004 0.0
C1049 C 0.61405 0.02953 0.75447 0.0
C1050 C 0.59794 0.01321 0.75709 0.0
C1051 C 0.58524 0.01132 0.77564 0.0
C1052 C 0.55896 0.01938 0.80868 0.0
C1053 C 0.54464 1.00181 0.81046 0.0
C1054 C 0.52701 0.99836 0.80857 0.0
C1055 C 0.52339 0.01239 0.8046 0.0
C1056 C 0.5379 0.02985 0.80174 0.0
C1057 C 0.55545 0.03327 0.80387 0.0
H1058 H 0.99364 0.56768 0.83491 0.0
N1059 N 0.02337 0.5729 0.80852 0.0
H1060 H 0.99301 0.5808 0.87627 0.0
H1061 H 0.05086 0.59206 0.84007 0.0
H1062 H 0.05025 0.60461 0.88254 0.0
H1063 H 0.04417 0.60112 0.77951 0.0
H1064 H 0.03488 0.61657 0.74898 0.0
H1065 H 0.98931 0.56074 0.79136 0.0
H1066 H 0.97967 0.57693 0.76298 0.0
H1067 H 1.00009 0.5422 0.83503 0.0
H1068 H 0.03987 0.56291 0.77471 0.0
H1069 H 0.9992 0.51369 0.83295 0.0
H1070 H 0.0381 0.53395 0.77103 0.0
H1071 H 0.99391 0.43158 0.83065 0.0
H1072 H 0.99123 0.41708 0.87243 0.0
H1073 H 0.04704 0.45381 0.88762 0.0
H1074 H 0.04972 0.46771 0.84521 0.0
H1075 H 0.04337 0.44304 0.79295 0.0
H1076 H 0.03361 0.41743 0.76425 0.0
H1077 H 0.98445 0.41757 0.74974 0.0
H1078 H 0.99386 0.44244 0.77986 0.0
H1079 H 0.99437 0.46 0.8163 0.0
H1080 H 0.99184 0.48686 0.81261 0.0
H1081 H 0.04795 0.51741 0.79304 0.0
N1082 N 0.02469 0.45788 0.80901 0.0
H1083 H 0.04987 0.49028 0.7952 0.0
C1084 C 0.02237 0.57895 0.83424 0.0
C1085 C 1.00608 0.57569 0.84504 0.0
C1086 C 1.00571 0.58304 0.86897 0.0
C1087 C 0.02156 0.59359 0.8829 0.0
C1088 C 0.03782 0.5966 0.87226 0.0
C1089 C 0.03818 0.58934 0.84815 0.0
C1090 C 0.01746 0.58001 0.78797 0.0
C1091 C 0.0301 0.59555 0.77532 0.0
C1092 C 0.02473 0.60443 0.7581 0.0
C1093 C 1.00649 0.59815 0.75354 0.0
C1094 C 0.99383 0.58206 0.76547 0.0
C1095 C 0.99929 0.5729 0.78214 0.0
C1096 C 0.02041 0.55499 0.80534 0.0
C1097 C 1.00844 0.5406 0.82098 0.0
C1098 C 1.00781 0.52409 0.81957 0.0
C1099 C 0.01882 0.52141 0.80212 0.0
C1100 C 0.02984 0.53553 0.78534 0.0
C1101 C 0.03073 0.55209 0.78715 0.0
C1102 C 0.02208 0.45071 0.83486 0.0
C1103 C 1.00549 0.43665 0.84314 0.0
C1104 C 1.00397 0.42845 0.86711 0.0
C1105 C 0.01892 0.43434 0.88343 0.0
C1106 C 0.03532 0.44885 0.87542 0.0
C1107 C 0.03686 0.45691 0.85136 0.0
C1108 C 0.01954 0.44487 0.78846 0.0
C1109 C 0.03066 0.43778 0.78311 0.0
C1110 C 0.02509 0.42319 0.76647 0.0
C1111 C 1.00832 0.41552 0.75425 0.0
C1112 C 0.99743 0.42309 0.75885 0.0
C1113 C 1.00289 0.4375 0.77596 0.0
C1114 C 0.0223 0.47311 0.80555 0.0
C1115 C 1.00598 0.47242 0.81061 0.0
C1116 C 1.00464 0.48791 0.80882 0.0
C1117 C 0.01967 0.5045 0.80242 0.0
C1118 C 0.03592 0.50496 0.79734 0.0
C1119 C 0.03713 0.48946 0.79873 0.0
H1120 H 0.45616 0.43508 0.83103 0.0
N1121 N 0.45162 0.4613 0.80919 0.0
H1122 H 0.44508 0.42119 0.87331 0.0
H1123 H 0.43642 0.47122 0.84539 0.0
H1124 H 0.42598 0.45795 0.88838 0.0
H1125 H 0.41808 0.44529 0.79293 0.0
H1126 H 0.40313 0.41969 0.76395 0.0
H1127 H 0.46803 0.4467 0.78022 0.0
H1128 H 0.45344 0.42185 0.74993 0.0
H1129 H 0.48408 0.4636 0.81731 0.0
H1130 H 0.45885 0.49372 0.79527 0.0
H1131 H 0.51339 0.49049 0.81408 0.0
H1132 H 0.48782 0.52094 0.79374 0.0
H1133 H 0.59439 0.57266 0.83413 0.0
H1134 H 0.60857 0.58517 0.8758 0.0
H1135 H 0.5712 0.60377 0.88881 0.0
H1136 H 0.55768 0.59196 0.84636 0.0
H1137 H 0.58359 0.60948 0.79276 0.0
H1138 H 0.60942 0.62397 0.76415 0.0
H1139 H 0.60862 0.57385 0.75523 0.0
H1140 H 0.58336 0.55976 0.78539 0.0
H1141 H 0.56039 0.54546 0.8369 0.0
H1142 H 0.53274 0.51703 0.83434 0.0
H1143 H 0.51442 0.53799 0.7729 0.0
N1144 N 0.56801 0.57645 0.8111 0.0
H1145 H 0.54161 0.56688 0.77718 0.0
C1146 C 0.44705 0.45418 0.83508 0.0
C1147 C 0.44976 0.44026 0.84354 0.0
C1148 C 0.44352 0.43242 0.86783 0.0
C1149 C 0.43476 0.43856 0.88437 0.0
C1150 C 0.43254 0.45283 0.87607 0.0
C1151 C 0.43861 0.46051 0.85166 0.0
C1152 C 0.4442 0.44814 0.7887 0.0
C1153 C 0.42594 0.44046 0.78317 0.0
C1154 C 0.41744 0.42588 0.76637 0.0
C1155 C 0.42709 0.41879 0.75417 0.0
C1156 C 0.44556 0.42691 0.75902 0.0
C1157 C 0.454 0.44131 0.77626 0.0
C1158 C 0.46925 0.47661 0.80599 0.0
C1159 C 0.48487 0.476 0.81151 0.0
C1160 C 0.50167 0.49153 0.81002 0.0
C1161 C 0.50322 0.50812 0.80358 0.0
C1162 C 0.48745 0.50851 0.79808 0.0
C1163 C 0.47076 0.49295 0.79911 0.0
C1164 C 0.57512 0.58164 0.83699 0.0
C1165 C 0.58925 0.57941 0.84594 0.0
C1166 C 0.59729 0.58651 0.86985 0.0
C1167 C 0.59128 0.59583 0.88541 0.0
C1168 C 0.57654 0.59719 0.87696 0.0
C1169 C 0.56863 0.59026 0.8529 0.0
C1170 C 0.58139 0.58355 0.79096 0.0
C1171 C 0.58878 0.60156 0.78417 0.0
C1172 C 0.60347 0.60977 0.76759 0.0
C1173 C 0.61098 0.60004 0.75688 0.0
C1174 C 0.6032 0.58177 0.7631 0.0
C1175 C 0.58864 0.57362 0.78013 0.0
C1176 C 0.55298 0.55859 0.80759 0.0
C1177 C 0.55047 0.54402 0.82288 0.0
C1178 C 0.53457 0.52756 0.82117 0.0
C1179 C 0.52097 0.52508 0.8037 0.0
C1180 C 0.52417 0.53939 0.78724 0.0
C1181 C 0.53985 0.55592 0.78939 0.0
H1182 H 0.69984 0.92339 0.54855 0.0
N1183 N 0.66954 0.89711 0.57137 0.0
H1184 H 0.70167 0.93732 0.50648 0.0
H1185 H 0.64399 0.8864 0.53577 0.0
H1186 H 0.64585 0.89969 0.49313 0.0
H1187 H 0.65306 0.91443 0.58664 0.0
H1188 H 0.66453 0.94048 0.61496 0.0
H1189 H 0.70015 0.91064 0.60116 0.0
H1190 H 0.71108 0.93579 0.63096 0.0
H1191 H 0.69942 0.8946 0.56205 0.0
H1192 H 0.64457 0.8649 0.58653 0.0
H1193 H 0.70171 0.86758 0.56479 0.0
H1194 H 0.64622 0.83758 0.5878 0.0
H1195 H 0.70029 0.78938 0.54038 0.0
H1196 H 0.70129 0.77694 0.49832 0.0
H1197 H 0.64363 0.74593 0.49771 0.0
H1198 H 0.64284 0.75963 0.53878 0.0
H1199 H 0.65279 0.74957 0.58945 0.0
H1200 H 0.66468 0.73526 0.61753 0.0
H1201 H 0.71538 0.78445 0.62005 0.0
H1202 H 0.70359 0.79824 0.5904 0.0
H1203 H 0.6926 0.81256 0.54062 0.0
H1204 H 0.69347 0.84088 0.54384 0.0
H1205 H 0.65634 0.82055 0.60793 0.0
N1206 N 0.67041 0.7817 0.56813 0.0
H1207 H 0.65458 0.79162 0.60329 0.0
C1208 C 0.67166 0.904 0.54537 0.0
C1209 C 0.68805 0.91809 0.53648 0.0
C1210 C 0.68907 0.92602 0.51241 0.0
C1211 C 0.67379 0.9199 0.49672 0.0
C1212 C 0.65771 0.90512 0.5051 0.0
C1213 C 0.65666 0.89735 0.52926 0.0
C1214 C 0.67563 0.9105 0.59158 0.0
C1215 C 0.66566 0.91893 0.5965 0.0
C1216 C 0.67224 0.9338 0.61278 0.0
C1217 C 0.68893 0.94053 0.62494 0.0
C1218 C 0.69847 0.9314 0.62124 0.0
C1219 C 0.69205 0.91674 0.60441 0.0
C1220 C 0.67185 0.88179 0.57451 0.0
C1221 C 0.6879 0.88226 0.56826 0.0
C1222 C 0.68909 0.86668 0.56952 0.0
C1223 C 0.67415 0.85018 0.57653 0.0
C1224 C 0.65818 0.84994 0.58293 0.0
C1225 C 0.65713 0.86556 0.58207 0.0
C1226 C 0.67143 0.77581 0.54233 0.0
C1227 C 0.68787 0.78036 0.53074 0.0
C1228 C 0.68841 0.77301 0.50684 0.0
C1229 C 0.67253 0.76054 0.49433 0.0
C1230 C 0.65611 0.75594 0.50616 0.0
C1231 C 0.65561 0.76365 0.52975 0.0
C1232 C 0.67724 0.77491 0.58789 0.0
C1233 C 0.66641 0.7573 0.59635 0.0
C1234 C 0.67324 0.74917 0.61248 0.0
C1235 C 0.69111 0.75857 0.62081 0.0
C1236 C 0.70173 0.77661 0.6134 0.0
C1237 C 0.69495 0.78463 0.59677 0.0
C1238 C 0.67317 0.79957 0.57147 0.0
C1239 C 0.6846 0.814 0.55542 0.0
C1240 C 0.68525 0.83048 0.55748 0.0
C1241 C 0.6748 0.83315 0.57595 0.0
C1242 C 0.6642 0.81899 0.59293 0.0
C1243 C 0.66331 0.80243 0.59053 0.0
H1244 H 0.27719 0.9043 0.55009 0.0
N1245 N 0.24626 0.89642 0.57171 0.0
H1246 H 0.2894 0.91959 0.5089 0.0
H1247 H 0.22873 0.90557 0.53632 0.0
H1248 H 0.24053 0.92032 0.49449 0.0
H1249 H 0.23374 0.91938 0.58108 0.0
H1250 H 0.24745 0.94544 0.60936 0.0
H1251 H 0.27259 0.90504 0.6052 0.0
H1252 H 0.28772 0.9322 0.63129 0.0
H1253 H 0.23815 0.86529 0.55066 0.0
H1254 H 0.21504 0.89043 0.59644 0.0
H1255 H 0.20983 0.83735 0.55159 0.0
H1256 H 0.187 0.86242 0.59832 0.0
H1257 H 0.12299 0.74784 0.55504 0.0
H1258 H 0.10902 0.73472 0.51337 0.0
H1259 H 0.10946 0.78344 0.49333 0.0
H1260 H 0.12274 0.79614 0.5353 0.0
H1261 H 0.10265 0.78567 0.57528 0.0
H1262 H 0.07676 0.77094 0.60395 0.0
H1263 H 0.1026 0.74708 0.64642 0.0
H1264 H 0.1281 0.7612 0.61674 0.0
H1265 H 0.16371 0.78522 0.57793 0.0
H1266 H 0.19153 0.81379 0.57909 0.0
H1267 H 0.16144 0.84138 0.57467 0.0
N1268 N 0.13074 0.77948 0.57397 0.0
H1269 H 0.13363 0.81258 0.57497 0.0
C1270 C 0.25212 0.90379 0.54617 0.0
C1271 C 0.26911 0.90766 0.5379 0.0
C1272 C 0.27602 0.91636 0.51438 0.0
C1273 C 0.26603 0.92137 0.49854 0.0
C1274 C 0.24874 0.91703 0.50653 0.0
C1275 C 0.24188 0.90843 0.53026 0.0
C1276 C 0.25188 0.90995 0.59155 0.0
C1277 C 0.24502 0.92163 0.5929 0.0
C1278 C 0.25324 0.93687 0.60857 0.0
C1279 C 0.26913 0.94137 0.62201 0.0
C1280 C 0.2755 0.92924 0.62139 0.0
C1281 C 0.26687 0.91366 0.60649 0.0
C1282 C 0.22901 0.8802 0.57323 0.0
C1283 C 0.22701 0.8648 0.56101 0.0
C1284 C 0.21079 0.84874 0.56179 0.0
C1285 C 0.19603 0.84746 0.57525 0.0
C1286 C 0.19796 0.86289 0.58749 0.0
C1287 C 0.21421 0.87908 0.58647 0.0
C1288 C 0.12416 0.77301 0.54823 0.0
C1289 C 0.12029 0.75574 0.54145 0.0
C1290 C 0.11241 0.74833 0.5176 0.0
C1291 C 0.10835 0.75814 0.49988 0.0
C1292 C 0.11242 0.77555 0.50657 0.0
C1293 C 0.12018 0.7829 0.53054 0.0
C1294 C 0.11722 0.77429 0.59368 0.0
C1295 C 0.10288 0.7775 0.59097 0.0
C1296 C 0.08807 0.76907 0.60745 0.0
C1297 C 0.08739 0.75743 0.62706 0.0
C1298 C 0.10243 0.75547 0.63099 0.0
C1299 C 0.11711 0.76372 0.61431 0.0
C1300 C 0.14666 0.79673 0.57612 0.0
C1301 C 0.16317 0.79746 0.57746 0.0
C1302 C 0.17907 0.81385 0.57784 0.0
C1303 C 0.17887 0.83003 0.57651 0.0
C1304 C 0.1622 0.82927 0.57584 0.0
C1305 C 0.14623 0.81278 0.57579 0.0
H1306 H 0.24185 0.32681 0.54295 0.0
N1307 N 0.24659 0.35654 0.56902 0.0
H1308 H 0.25504 0.32626 0.50165 0.0
H1309 H 0.26493 0.38387 0.53692 0.0
H1310 H 0.27748 0.38331 0.4945 0.0
H1311 H 0.27464 0.37715 0.59844 0.0
H1312 H 0.28955 0.36766 0.62965 0.0
H1313 H 0.23401 0.32241 0.58625 0.0
H1314 H 0.24966 0.31257 0.61535 0.0
H1315 H 0.2151 0.32962 0.54893 0.0
H1316 H 0.23782 0.37719 0.5958 0.0
H1317 H 0.18608 0.32799 0.55038 0.0
H1318 H 0.20869 0.37512 0.5988 0.0
H1319 H 0.11189 0.32455 0.53687 0.0
H1320 H 0.09804 0.32363 0.49538 0.0
H1321 H 0.11948 0.38073 0.49935 0.0
H1322 H 0.13193 0.38113 0.54216 0.0
H1323 H 0.12469 0.37348 0.60357 0.0
H1324 H 0.10005 0.36382 0.63459 0.0
H1325 H 0.07898 0.30933 0.60909 0.0
H1326 H 0.10394 0.31893 0.57941 0.0
H1327 H 0.13254 0.32357 0.57094 0.0
H1328 H 0.16043 0.32285 0.57383 0.0
H1329 H 0.1901 0.3806 0.57258 0.0
N1330 N 0.12929 0.35355 0.56862 0.0
H1331 H 0.16215 0.38103 0.57103 0.0
C1332 C 0.25261 0.35549 0.54332 0.0
C1333 C 0.24963 0.33925 0.53271 0.0
C1334 C 0.25712 0.33892 0.50887 0.0
C1335 C 0.2676 0.35478 0.49491 0.0
C1336 C 0.26995 0.37092 0.50507 0.0
C1337 C 0.2626 0.37125 0.52912 0.0
C1338 C 0.25344 0.35052 0.58977 0.0
C1339 C 0.2689 0.36307 0.60269 0.0
C1340 C 0.27747 0.35758 0.62031 0.0
C1341 C 0.27094 0.33931 0.62503 0.0
C1342 C 0.25496 0.32676 0.61277 0.0
C1343 C 0.24611 0.33233 0.59568 0.0
C1344 C 0.22879 0.35382 0.57183 0.0
C1345 C 0.21382 0.33961 0.55982 0.0
C1346 C 0.19712 0.3386 0.56089 0.0
C1347 C 0.19497 0.35161 0.57435 0.0
C1348 C 0.20983 0.36517 0.58756 0.0
C1349 C 0.2265 0.3663 0.58613 0.0
C1350 C 0.12269 0.3529 0.54281 0.0
C1351 C 0.11349 0.33683 0.52896 0.0
C1352 C 0.10584 0.33641 0.50489 0.0
C1353 C 0.10778 0.35216 0.49375 0.0
C1354 C 0.11754 0.36831 0.5074 0.0
C1355 C 0.1248 0.36862 0.53173 0.0
C1356 C 0.11624 0.34702 0.58916 0.0
C1357 C 0.115 0.3594 0.60528 0.0
C1358 C 0.10084 0.35387 0.6228 0.0
C1359 C 0.08753 0.33578 0.62445 0.0
C1360 C 0.08917 0.3233 0.60886 0.0
C1361 C 0.10344 0.32883 0.59157 0.0
C1362 C 0.14529 0.35242 0.57122 0.0
C1363 C 0.14503 0.33604 0.57174 0.0
C1364 C 0.16107 0.33568 0.57311 0.0
C1365 C 0.17767 0.35167 0.57366 0.0
C1366 C 0.1777 0.36798 0.57292 0.0
C1367 C 0.16173 0.3683 0.57184 0.0
C1368 C 0.99697 0.39455 0.10933 0.0
C1369 C 0.01101 0.40369 0.09156 0.0
C1370 C 0.99599 0.40275 0.13226 0.0
C1371 C 1.00894 0.42047 0.13829 0.0
H1372 H 0.98675 0.38084 0.10571 0.0
H1373 H 0.98514 0.39502 0.14559 0.0
S1374 S 0.04753 0.45085 0.09722 0.0
N1375 N 0.0377 0.43184 0.08103 0.0
N1376 N 0.0356 0.44728 0.1238 0.0
C1377 C 0.02283 0.4299 0.12044 0.0
C1378 C 0.02392 0.42152 0.09719 0.0
C1379 C 0.62725 0.6001 0.10181 0.0
C1380 C 0.62646 0.61543 0.09479 0.0
C1381 C 0.61914 0.59064 0.12462 0.0
C1382 C 0.60996 0.59617 0.14134 0.0
H1383 H 0.63395 0.59517 0.08941 0.0
H1384 H 0.61986 0.57877 0.129 0.0
S1385 S 0.60551 0.63643 0.13328 0.0
N1386 N 0.61659 0.63627 0.10734 0.0
N1387 N 0.60168 0.61869 0.15026 0.0
C1388 C 0.60943 0.61171 0.13488 0.0
C1389 C 0.61759 0.62128 0.11163 0.0
C1390 C 0.41037 0.02251 0.10981 0.0
C1391 C 0.4096 0.01143 0.08935 0.0
C1392 C 0.41945 0.02355 0.13288 0.0
C1393 C 0.42843 0.01382 0.1362 0.0
H1394 H 0.40349 0.03006 0.10826 0.0
H1395 H 0.41911 0.03179 0.14843 0.0
S1396 S 0.4323 0.98466 0.08681 0.0
N1397 N 0.41948 0.99144 0.07304 0.0
N1398 N 0.43727 0.99404 0.11576 0.0
C1399 C 0.4283 1.00322 0.11537 0.0
C1400 C 0.41874 1.00188 0.09213 0.0
C1401 C 0.42046 0.01311 0.94715 0.0
C1402 C 0.40283 1.00002 0.95331 0.0
C1403 C 0.42866 0.01217 0.92425 0.0
C1404 C 0.41955 0.99818 0.90638 0.0
H1405 H 0.42808 0.02418 0.9602 0.0
H1406 H 0.4423 0.02251 0.92053 0.0
S1407 S 0.37283 0.96097 0.91262 0.0
N1408 N 0.37638 0.97274 0.93939 0.0
N1409 N 0.39164 0.97124 0.89602 0.0
C1410 C 0.40189 0.98499 0.91225 0.0
C1411 C 0.39358 0.98585 0.93574 0.0
C1412 C 0.03011 0.41138 0.93724 0.0
C1413 C 0.01595 0.40617 0.95488 0.0
C1414 C 0.03096 0.42048 0.91431 0.0
C1415 C 0.01775 0.42489 0.90814 0.0
H1416 H 0.04056 0.40822 0.94097 0.0
H1417 H 0.04194 0.42389 0.90113 0.0
S1418 S 0.9786 0.41557 0.94869 0.0
N1419 N 0.98876 0.40679 0.96503 0.0
N1420 N 0.9906 0.4242 0.92225 0.0
C1421 C 1.00367 0.42003 0.92578 0.0
C1422 C 1.00272 0.41063 0.94905 0.0
C1423 C 0.61504 0.6028 0.95012 0.0
C1424 C 0.61973 0.62038 0.957 0.0
C1425 C 0.60565 0.59492 0.92723 0.0
C1426 C 0.60064 0.60431 0.91011 0.0
H1427 H 0.61856 0.59495 0.96261 0.0
H1428 H 0.60223 0.5813 0.92296 0.0
S1429 S 0.61061 0.6511 0.91823 0.0
N1430 N 0.61901 0.64712 0.94443 0.0
N1431 N 0.60179 0.63249 0.9011 0.0
C1432 C 0.60533 0.62195 0.91664 0.0
C1433 C 0.61477 0.62993 0.94012 0.0
C1434 C 0.03263 0.62833 0.93589 0.0
C1435 C 0.01956 0.61884 0.95484 0.0
C1436 C 0.03335 0.62003 0.91288 0.0
C1437 C 0.02115 0.60187 0.90803 0.0
H1438 H 0.04213 0.64239 0.93857 0.0
H1439 H 0.04331 0.62801 0.89852 0.0
S1440 S 0.98575 0.57053 0.95285 0.0
N1441 N 0.99493 0.58994 0.96799 0.0
N1442 N 0.99662 0.57431 0.92517 0.0
C1443 C 1.00843 0.59209 0.92724 0.0
C1444 C 1.00756 0.60056 0.95051 0.0
C1445 C 0.40226 0.41612 0.94032 0.0
C1446 C 0.4117 0.41088 0.95694 0.0
C1447 C 0.40988 0.42525 0.9171 0.0
C1448 C 0.42731 0.42966 0.90972 0.0
H1449 H 0.38869 0.41272 0.9449 0.0
H1450 H 0.40187 0.4285 0.90453 0.0
S1451 S 0.45847 0.42097 0.9481 0.0
N1452 N 0.43992 0.41196 0.96534 0.0
N1453 N 0.45434 0.42949 0.92218 0.0
C1454 C 0.43713 0.42509 0.92669 0.0
C1455 C 0.42931 0.41564 0.95015 0.0
C1456 C 0.62705 0.02202 0.93882 0.0
C1457 C 0.61995 1.00592 0.95281 0.0
C1458 C 0.6187 0.02345 0.91648 0.0
C1459 C 0.60278 0.0089 0.90716 0.0
H1460 H 0.6392 0.03373 0.94521 0.0
H1461 H 0.62481 0.03614 0.90642 0.0
S1462 S 0.57852 0.96373 0.93658 0.0
N1463 N 0.59607 0.97498 0.95552 0.0
N1464 N 0.58016 0.9778 0.91364 0.0
C1465 C 0.59562 0.99261 0.92065 0.0
C1466 C 0.60424 0.99109 0.94343 0.0
C1467 C 0.6303 0.02556 0.10838 0.0
C1468 C 0.62069 0.01233 0.08968 0.0
C1469 C 0.6221 0.02659 0.13131 0.0
C1470 C 0.60393 0.01453 0.13633 0.0
H1471 H 0.64437 0.03495 0.10559 0.0
H1472 H 0.63018 0.03666 0.14549 0.0
S1473 S 0.57232 0.97882 0.09211 0.0
N1474 N 0.59168 0.98772 0.0769 0.0
N1475 N 0.57624 0.98997 0.11956 0.0
C1476 C 0.59403 1.00166 0.11734 0.0
C1477 C 0.60241 1.00048 0.09416 0.0
C1478 C 0.99924 0.6109 0.10875 0.0
C1479 C 0.01336 0.61595 0.09109 0.0
C1480 C 0.99826 0.60171 0.13164 0.0
C1481 C 0.01127 0.59702 0.13775 0.0
H1482 H 0.98893 0.61427 0.10505 0.0
H1483 H 0.98731 0.59844 0.14483 0.0
S1484 S 0.05024 0.60584 0.0971 0.0
N1485 N 0.04031 0.6149 0.08084 0.0
N1486 N 0.0382 0.59729 0.12354 0.0
C1487 C 0.02532 0.60173 0.12008 0.0
C1488 C 0.02641 0.61124 0.09686 0.0
C1489 C 0.41098 0.40868 0.10954 0.0
C1490 C 0.4161 0.39905 0.09298 0.0
C1491 C 0.42004 0.41612 0.13279 0.0
C1492 C 0.43466 0.41431 0.14051 0.0
H1493 H 0.39978 0.41045 0.10461 0.0
H1494 H 0.41539 0.42317 0.145 0.0
S1495 S 0.45416 0.39129 0.10365 0.0
N1496 N 0.43716 0.38858 0.08574 0.0
N1497 N 0.45434 0.40282 0.12927 0.0
C1498 C 0.44005 0.40486 0.12411 0.0
C1499 C 0.43075 0.39718 0.10043 0.0
C1500 C 0.68717 0.7381 0.44411 0.0
C1501 C 0.6753 0.73462 0.42342 0.0
C1502 C 0.68605 0.74632 0.4669 0.0
C1503 C 0.67324 0.75174 0.46978 0.0
H1504 H 0.69732 0.73428 0.4428 0.0
H1505 H 0.69524 0.74829 0.48248 0.0
S1506 S 0.63993 0.74689 0.4202 0.0
N1507 N 0.65066 0.73761 0.40677 0.0
N1508 N 0.64903 0.75381 0.44907 0.0
C1509 C 0.66143 0.74853 0.44898 0.0
C1510 C 0.66235 0.73981 0.42596 0.0
C1511 C 0.29111 0.93517 0.43438 0.0
C1512 C 0.29026 0.95045 0.42731 0.0
C1513 C 0.28304 0.92575 0.45718 0.0
C1514 C 0.27389 0.93128 0.47398 0.0
H1515 H 0.29786 0.93027 0.42204 0.0
H1516 H 0.28389 0.91394 0.4616 0.0
S1517 S 0.26894 0.97122 0.46542 0.0
N1518 N 0.28006 0.97107 0.43951 0.0
N1519 N 0.2653 0.95361 0.48262 0.0
C1520 C 0.27313 0.94667 0.46733 0.0
C1521 C 0.28123 0.95619 0.44398 0.0
C1522 C 0.08169 0.36116 0.44207 0.0
C1523 C 0.08093 0.35022 0.42141 0.0
C1524 C 0.09045 0.36176 0.46526 0.0
C1525 C 0.09909 0.3517 0.46852 0.0
H1526 H 0.07505 0.36894 0.44057 0.0
H1527 H 0.09011 0.3699 0.48096 0.0
S1528 S 0.10281 0.32272 0.41867 0.0
N1529 N 0.09042 0.32999 0.40486 0.0
N1530 N 0.10764 0.33176 0.44784 0.0
C1531 C 0.09896 0.34123 0.4475 0.0
C1532 C 0.08972 0.34035 0.42412 0.0
C1533 C 0.09295 0.3503 0.28147 0.0
C1534 C 0.0744 0.33971 0.28513 0.0
C1535 C 0.1011 0.34945 0.25843 0.0
C1536 C 0.09101 0.33821 0.23787 0.0
H1537 H 0.1013 0.35923 0.29665 0.0
H1538 H 0.11547 0.35766 0.2568 0.0
S1539 S 0.04168 0.30879 0.23709 0.0
N1540 N 0.04606 0.31799 0.26616 0.0
N1541 N 0.06116 0.31695 0.22237 0.0
C1542 C 0.07236 0.32769 0.24122 0.0
C1543 C 0.06412 0.32831 0.26493 0.0
C1544 C 0.67692 0.73669 0.26953 0.0
C1545 C 0.69128 0.74159 0.28674 0.0
C1546 C 0.67892 0.74635 0.24679 0.0
C1547 C 0.69533 0.76144 0.24027 0.0
H1548 H 0.66396 0.72519 0.27354 0.0
H1549 H 0.66749 0.74184 0.23408 0.0
S1550 S 0.73698 0.78046 0.27913 0.0
N1551 N 0.7225 0.76282 0.29581 0.0
N1552 N 0.72613 0.78118 0.25325 0.0
C1553 C 0.70983 0.76656 0.25726 0.0
C1554 C 0.70784 0.75662 0.28042 0.0
C1555 C 0.27822 0.96108 0.27304 0.0
C1556 C 0.28343 0.95197 0.29039 0.0
C1557 C 0.26886 0.95291 0.25019 0.0
C1558 C 0.26421 0.93525 0.24388 0.0
H1559 H 0.28169 0.97477 0.27685 0.0
H1560 H 0.26556 0.96063 0.23712 0.0
S1561 S 0.27298 0.9049 0.28413 0.0
N1562 N 0.28222 0.92387 0.30041 0.0
N1563 N 0.26433 0.90847 0.25786 0.0
C1564 C 0.26887 0.92581 0.26143 0.0
C1565 C 0.27853 0.93417 0.28456 0.0
C1566 C 0.70268 0.95384 0.27795 0.0
C1567 C 0.68622 0.95189 0.28592 0.0
C1568 C 0.70422 0.94625 0.25475 0.0
C1569 C 0.68938 0.93647 0.23847 0.0
H1570 H 0.7145 0.96118 0.28982 0.0
H1571 H 0.71713 0.948 0.24958 0.0
S1572 S 0.64352 0.92842 0.24944 0.0
N1573 N 0.65487 0.93989 0.2751 0.0
N1574 N 0.65788 0.92596 0.23133 0.0
C1575 C 0.67288 0.93454 0.24604 0.0
C1576 C 0.67127 0.94217 0.26976 0.0
C1577 C 0.06386 0.7433 0.27155 0.0
C1578 C 0.07455 0.74288 0.29171 0.0
C1579 C 0.0715 0.75227 0.24825 0.0
C1580 C 0.09017 0.76146 0.24442 0.0
H1581 H 0.04945 0.73616 0.27347 0.0
H1582 H 0.06266 0.7516 0.23289 0.0
S1583 S 0.12402 0.76636 0.29303 0.0
N1584 N 0.10467 0.75338 0.3073 0.0
N1585 N 0.11913 0.771 0.26419 0.0
C1586 C 0.101 0.76176 0.26503 0.0
C1587 C 0.09317 0.7523 0.28849 0.0
C1588 C 0.29528 0.3507 0.26653 0.0
C1589 C 0.28648 0.33819 0.28638 0.0
C1590 C 0.28641 0.35033 0.24359 0.0
C1591 C 0.26824 0.33766 0.23974 0.0
H1592 H 0.30922 0.36076 0.26862 0.0
H1593 H 0.29395 0.35998 0.22865 0.0
S1594 S 0.23877 0.30295 0.28701 0.0
N1595 N 0.2585 0.31316 0.30125 0.0
N1596 N 0.24153 0.31294 0.25874 0.0
C1597 C 0.25921 0.32525 0.25973 0.0
C1598 C 0.26838 0.32541 0.28288 0.0
C1599 C 0.27399 0.33907 0.42898 0.0
C1600 C 0.29198 0.35114 0.42301 0.0
C1601 C 0.26617 0.34066 0.45186 0.0
C1602 C 0.27604 0.35426 0.46995 0.0
H1603 H 0.26581 0.32826 0.41583 0.0
H1604 H 0.25225 0.33106 0.45543 0.0
S1605 S 0.32387 0.38895 0.46404 0.0
N1606 N 0.31952 0.37715 0.43713 0.0
N1607 N 0.30499 0.37983 0.48056 0.0
C1608 C 0.29405 0.36651 0.46419 0.0
C1609 C 0.30197 0.36502 0.44066 0.0
C1610 C 0.69002 0.94306 0.43148 0.0
C1611 C 0.67693 0.94749 0.42455 0.0
C1612 C 0.68884 0.93406 0.45466 0.0
C1613 C 0.67457 0.92918 0.47199 0.0
H1614 H 0.70125 0.94645 0.41878 0.0
H1615 H 0.69913 0.93079 0.45893 0.0
S1616 S 0.6375 0.93879 0.46404 0.0
N1617 N 0.64957 0.94683 0.43748 0.0
N1618 N 0.64758 0.93033 0.48128 0.0
C1619 C 0.66151 0.93371 0.46549 0.0
C1620 C 0.66263 0.94275 0.44176 0.0
C1621 C 0.07522 0.74372 0.4441 0.0
C1622 C 0.08046 0.73408 0.42779 0.0
C1623 C 0.08434 0.75146 0.46721 0.0
C1624 C 0.09914 0.74998 0.47499 0.0
H1625 H 0.06386 0.7452 0.43912 0.0
H1626 H 0.07958 0.75848 0.47928 0.0
S1627 S 0.11908 0.7272 0.43857 0.0
N1628 N 0.10188 0.72403 0.42075 0.0
N1629 N 0.11917 0.73887 0.46396 0.0
C1630 C 0.10468 0.74058 0.45877 0.0
C1631 C 0.09533 0.73258 0.43527 0.0
C1632 C 0.35559 0.08894 0.75913 0.0
C1633 C 0.34498 0.07057 0.75405 0.0
C1634 C 0.35402 0.09634 0.78249 0.0
C1635 C 0.34202 0.08562 0.80196 0.0
H1636 H 0.36513 0.09772 0.74485 0.0
H1637 H 0.36231 0.11062 0.78527 0.0
S1638 S 0.31216 0.0364 0.79877 0.0
N1639 N 0.32238 0.0417 0.77044 0.0
N1640 N 0.31998 0.05537 0.81486 0.0
C1641 C 0.33144 0.06714 0.79714 0.0
C1642 C 0.3328 0.05968 0.77309 0.0
C1643 C 0.9407 0.27454 0.76478 0.0
C1644 C 0.95842 0.27938 0.75866 0.0
C1645 C 0.93261 0.26545 0.78775 0.0
C1646 C 0.94195 0.26098 0.8058 0.0
H1647 H 0.93292 0.27772 0.75163 0.0
H1648 H 0.9189 0.26192 0.7914 0.0
S1649 S 0.98898 0.27134 0.79961 0.0
N1650 N 0.98517 0.27919 0.77267 0.0
N1651 N 0.97018 0.26262 0.81628 0.0
C1652 C 0.9597 0.26573 0.79994 0.0
C1653 C 0.96788 0.27481 0.77632 0.0
C1654 C 0.75699 0.67781 0.76091 0.0
C1655 C 0.74679 0.68622 0.75762 0.0
C1656 C 0.76616 0.67949 0.78409 0.0
C1657 C 0.76516 0.68929 0.80522 0.0
H1658 H 0.75796 0.66993 0.74535 0.0
H1659 H 0.77408 0.67301 0.78541 0.0
S1660 S 0.73898 0.71276 0.80683 0.0
N1661 N 0.73585 0.70441 0.77727 0.0
N1662 N 0.75218 0.7068 0.82144 0.0
C1663 C 0.7548 0.69765 0.80215 0.0
C1664 C 0.74584 0.69629 0.77824 0.0
C1665 C 0.73769 0.65458 0.61354 0.0
C1666 C 0.73862 0.67077 0.62053 0.0
C1667 C 0.74544 0.65302 0.59049 0.0
C1668 C 0.75442 0.66758 0.57348 0.0
H1669 H 0.73108 0.64302 0.62608 0.0
H1670 H 0.74454 0.64034 0.58607 0.0
S1671 S 0.7594 0.71251 0.58155 0.0
N1672 N 0.74858 0.70146 0.60775 0.0
N1673 N 0.76288 0.6984 0.56444 0.0
C1674 C 0.75522 0.68376 0.57999 0.0
C1675 C 0.74739 0.68538 0.60347 0.0
C1676 C 0.34554 0.07251 0.6007 0.0
C1677 C 0.36044 0.07739 0.61681 0.0
C1678 C 0.347 0.08168 0.57761 0.0
C1679 C 0.36342 0.09618 0.56964 0.0
H1680 H 0.33258 0.06138 0.60582 0.0
H1681 H 0.3352 0.0772 0.56572 0.0
S1682 S 0.40631 0.11515 0.60544 0.0
N1683 N 0.3921 0.09816 0.62343 0.0
N1684 N 0.39475 0.11556 0.58025 0.0
C1685 C 0.37841 0.10137 0.58564 0.0
C1686 C 0.37695 0.09196 0.60913 0.0
C1687 C 0.94927 0.26912 0.61331 0.0
C1688 C 0.95238 0.28602 0.62134 0.0
C1689 C 0.94032 0.26136 0.59009 0.0
C1690 C 0.93416 0.27019 0.57381 0.0
H1691 H 0.95371 0.26172 0.62513 0.0
H1692 H 0.93815 0.24828 0.5849 0.0
S1693 S 0.93975 0.31513 0.58502 0.0
N1694 N 0.94892 0.31154 0.61068 0.0
N1695 N 0.93246 0.29712 0.5668 0.0
C1696 C 0.93724 0.28713 0.58148 0.0
C1697 C 0.94626 0.295 0.60525 0.0
C1698 C 0.37272 0.29031 0.61305 0.0
C1699 C 0.35655 0.28964 0.61943 0.0
C1700 C 0.37443 0.28244 0.59018 0.0
C1701 C 0.36005 0.27362 0.57281 0.0
H1702 H 0.38406 0.29669 0.62602 0.0
H1703 H 0.38702 0.28302 0.58626 0.0
S1704 S 0.31553 0.26985 0.5789 0.0
N1705 N 0.32627 0.28046 0.6054 0.0
N1706 N 0.32963 0.26597 0.5625 0.0
C1707 C 0.34401 0.27332 0.57858 0.0
C1708 C 0.34223 0.28124 0.60183 0.0
C1709 C 0.76117 0.08203 0.61885 0.0
C1710 C 0.7425 0.0743 0.62017 0.0
C1711 C 0.77058 0.09028 0.59618 0.0
C1712 C 0.76172 0.09087 0.57364 0.0
H1713 H 0.76861 0.08171 0.63553 0.0
H1714 H 0.78496 0.09611 0.5963 0.0
S1715 S 0.71276 0.07202 0.56678 0.0
N1716 N 0.71542 0.06779 0.59715 0.0
N1717 N 0.73298 0.08262 0.55407 0.0
C1718 C 0.74302 0.08331 0.57477 0.0
C1719 C 0.73345 0.07517 0.59811 0.0
C1720 C 0.9558 0.68587 0.60462 0.0
C1721 C 0.95043 0.67132 0.62161 0.0
C1722 C 0.94661 0.68417 0.58148 0.0
C1723 C 0.93156 0.66788 0.57436 0.0
H1724 H 0.96734 0.69871 0.60907 0.0
H1725 H 0.95149 0.6957 0.5689 0.0
S1726 S 0.91125 0.62596 0.61267 0.0
N1727 N 0.92868 0.64015 0.62999 0.0
N1728 N 0.9112 0.63709 0.58672 0.0
C1729 C 0.9259 0.65325 0.59125 0.0
C1730 C 0.93535 0.65494 0.61478 0.0
C1731 C 0.94926 0.67135 0.77646 0.0
C1732 C 0.95796 0.68598 0.75947 0.0
C1733 C 0.94165 0.6727 0.79971 0.0
C1734 C 0.94229 0.6887 0.80696 0.0
H1735 H 0.94841 0.65872 0.77191 0.0
H1736 H 0.93537 0.66112 0.81225 0.0
S1737 S 0.96261 0.7307 0.76881 0.0
N1738 N 0.96637 0.71693 0.75131 0.0
N1739 N 0.95173 0.71933 0.79479 0.0
C1740 C 0.95083 0.70343 0.79012 0.0
C1741 C 0.95872 0.7021 0.76647 0.0
C1742 C 0.35535 0.28966 0.77727 0.0
C1743 C 0.34311 0.28155 0.7569 0.0
C1744 C 0.35434 0.28017 0.79982 0.0
C1745 C 0.34129 0.26202 0.80274 0.0
H1746 H 0.36572 0.30354 0.77588 0.0
H1747 H 0.36383 0.2872 0.81518 0.0
S1748 S 0.30695 0.23426 0.75388 0.0
N1749 N 0.31783 0.25429 0.74058 0.0
N1750 N 0.31641 0.23612 0.78237 0.0
C1751 C 0.32909 0.25369 0.78225 0.0
C1752 C 0.3299 0.26352 0.7595 0.0
C1753 C 0.74877 0.06335 0.77482 0.0
C1754 C 0.74371 0.07229 0.7569 0.0
C1755 C 0.75767 0.07162 0.79786 0.0
C1756 C 0.76202 0.08923 0.80392 0.0
H1757 H 0.74568 0.04976 0.77118 0.0
H1758 H 0.76098 0.06405 0.8112 0.0
S1759 S 0.75288 0.11897 0.76284 0.0
N1760 N 0.74429 0.10005 0.74649 0.0
N1761 N 0.76133 0.11564 0.78952 0.0
C1762 C 0.75725 0.09842 0.78607 0.0
C1763 C 0.74805 0.08996 0.76266 0.0
C1764 C 0.07936 0.3791 0.04305 0.0
C1765 C 0.06062 0.36896 0.04493 0.0
C1766 C 0.09036 0.3736 0.05515 0.0
C1767 C 0.0831 0.35776 0.06982 0.0
H1768 H 0.08565 0.39162 0.03254 0.0
H1769 H 0.1047 0.38199 0.05335 0.0
S1770 S 0.03481 0.32642 0.08107 0.0
N1771 N 0.03528 0.34211 0.06234 0.0
N1772 N 0.05588 0.33205 0.08564 0.0
C1773 C 0.06436 0.34729 0.07142 0.0
C1774 C 0.05315 0.35281 0.05886 0.0
C1775 C 0.64947 0.7084 0.0506 0.0
C1776 C 0.6604 0.70065 0.04849 0.0
C1777 C 0.65554 0.72496 0.0628 0.0
C1778 C 0.6728 0.7345 0.07344 0.0
H1779 H 0.63591 0.70144 0.04329 0.0
H1780 H 0.64653 0.73022 0.06427 0.0
S1781 S 0.70681 0.72021 0.07305 0.0
N1782 N 0.68955 0.70407 0.05767 0.0
N1783 N 0.70079 0.73494 0.08103 0.0
C1784 C 0.68404 0.72713 0.07092 0.0
C1785 C 0.6779 0.7103 0.05835 0.0
C1786 C 0.32035 0.94541 0.06417 0.0
C1787 C 0.32417 0.95972 0.04742 0.0
C1788 C 0.30387 0.93607 0.07692 0.0
C1789 C 0.29037 0.94044 0.07314 0.0
H1790 H 0.33045 0.94184 0.06837 0.0
H1791 H 0.302 0.92578 0.09061 0.0
S1792 S 0.29278 0.97512 0.02813 0.0
N1793 N 0.31266 0.97689 0.02599 0.0
N1794 N 0.28135 0.95883 0.04897 0.0
C1795 C 0.29369 0.95411 0.05529 0.0
C1796 C 0.31064 0.96386 0.04268 0.0
C1797 C 0.35596 0.04666 0.98373 0.0
C1798 C 0.37175 0.05407 0.99845 0.0
C1799 C 0.3505 0.05757 0.97125 0.0
C1800 C 0.36049 0.07634 0.9732 0.0
H1801 H 0.34813 0.03236 0.98085 0.0
H1802 H 0.3387 0.05122 0.95913 0.0
S1803 S 0.40143 0.10221 0.01275 0.0
N1804 N 0.39645 0.08124 0.01628 0.0
N1805 N 0.38588 0.10167 0.99356 0.0
C1806 C 0.37578 0.08384 0.98909 0.0
C1807 C 0.38146 0.07274 1.00153 0.0
C1808 C 0.97561 0.31509 0.98492 0.0
C1809 C 0.9677 0.32199 1.00165 0.0
C1810 C 0.96533 0.29873 0.97217 0.0
C1811 C 0.94672 0.2884 0.97589 0.0
H1812 H 0.98977 0.32275 0.9807 0.0
H1813 H 0.972 0.2945 0.95854 0.0
S1814 S 0.91995 0.29938 0.02067 0.0
N1815 N 0.94039 0.31663 0.02295 0.0
N1816 N 0.92116 0.28553 0.99983 0.0
C1817 C 0.93879 0.29475 0.99365 0.0
C1818 C 0.94925 0.31158 0.00633 0.0
C1819 C 0.71359 0.66901 0.98947 0.0
C1820 C 0.70508 0.65215 1.00152 0.0
C1821 C 0.73006 0.67545 0.9768 0.0
C1822 C 0.73875 0.66535 0.97581 0.0
H1823 H 0.70716 0.67701 0.98881 0.0
H1824 H 0.73563 0.68812 0.96677 0.0
S1825 S 0.72345 0.62161 0.00773 0.0
N1826 N 0.70748 0.62627 0.01385 0.0
N1827 N 0.73854 0.63855 0.99055 0.0
C1828 C 0.73088 0.64894 0.98907 0.0
C1829 C 0.71405 0.64232 1.0018 0.0
C1830 C 0.97491 0.66832 0.98947 0.0
C1831 C 0.96729 0.65125 1.00079 0.0
C1832 C 0.96431 0.67417 0.97705 0.0
C1833 C 0.94562 0.66325 0.9755 0.0
H1834 H 0.98926 0.67704 0.98934 0.0
H1835 H 0.97092 0.68714 0.96776 0.0
S1836 S 0.91879 0.61831 0.00481 0.0
N1837 N 0.93967 0.62405 0.01146 0.0
N1838 N 0.91981 0.63521 0.98848 0.0
C1839 C 0.93774 0.64648 0.98775 0.0
C1840 C 0.94854 0.64047 1.00033 0.0
C1841 C 0.36523 0.30952 0.99977 0.0
C1842 C 0.3821 0.32408 0.99375 0.0
C1843 C 0.35883 0.29293 0.98742 0.0
C1844 C 0.36889 0.29033 0.96814 0.0
H1845 H 0.35684 0.31096 0.01402 0.0
H1846 H 0.34574 0.28213 0.99276 0.0
S1847 S 0.41366 0.32466 0.94447 0.0
N1848 N 0.40878 0.33493 0.96726 0.0
N1849 N 0.39648 0.30415 0.94323 0.0
C1850 C 0.38587 0.30483 0.96211 0.0
C1851 C 0.39252 0.32159 0.97507 0.0
C1852 C 0.71685 0.05606 1.00332 0.0
C1853 C 0.70251 0.05925 1.0003 0.0
C1854 C 0.73322 0.06671 0.99066 0.0
C1855 C 0.73584 0.0808 0.9741 0.0
H1856 H 0.71533 0.04508 0.01525 0.0
H1857 H 0.7438 0.06363 0.99349 0.0
S1858 S 0.7022 0.09426 0.95897 0.0
N1859 N 0.69202 0.07761 0.97966 0.0
N1860 N 0.72237 0.09704 0.95511 0.0
C1861 C 0.72164 0.08426 0.97124 0.0
C1862 C 0.7051 0.07363 0.98448 0.0
C1863 C 0.64654 0.94408 0.04665 0.0
C1864 C 0.65681 0.96283 0.04497 0.0
C1865 C 0.65314 0.93404 0.05886 0.0
C1866 C 0.6703 0.94231 0.06995 0.0
H1867 H 0.63308 0.93706 0.03898 0.0
H1868 H 0.6446 0.91968 0.06001 0.0
S1869 S 0.70273 0.99102 0.0707 0.0
N1870 N 0.68528 0.98923 0.05498 0.0
N1871 N 0.6975 0.97044 0.07835 0.0
C1872 C 0.68091 0.96101 0.06783 0.0
C1873 C 0.67423 0.97124 0.05526 0.0
C1874 C 0.079 0.70974 0.04491 0.0
C1875 C 0.06021 0.70044 0.04574 0.0
C1876 C 0.08912 0.72612 0.05774 0.0
C1877 C 0.08089 0.73389 0.07209 0.0
H1878 H 0.08602 0.70412 0.03474 0.0
H1879 H 0.10355 0.7326 0.0568 0.0
S1880 S 0.03204 0.71505 0.08035 0.0
N1881 N 0.03375 0.70051 0.06161 0.0
N1882 N 0.05271 0.73097 0.08624 0.0
C1883 C 0.06209 0.72497 0.07251 0.0
C1884 C 0.05177 0.70836 0.05923 0.0
C1885 C 0.32918 0.38504 0.06632 0.0
C1886 C 0.3316 0.3745 0.04777 0.0
C1887 C 0.31259 0.37916 0.07827 0.0
C1888 C 0.2976 0.36259 0.07191 0.0
H1889 H 0.34039 0.39765 0.07251 0.0
H1890 H 0.31174 0.3874 0.09338 0.0
S1891 S 0.29628 0.33122 0.02152 0.0
N1892 N 0.31733 0.34743 0.02192 0.0
N1893 N 0.28592 0.33669 0.04341 0.0
C1894 C 0.29963 0.35238 0.05226 0.0
C1895 C 0.31666 0.35824 0.04045 0.0
C1896 C 0.7465 0.71036 0.3823 0.0
C1897 C 0.72782 0.69969 0.37997 0.0
C1898 C 0.7567 0.70397 0.39457 0.0
C1899 C 0.74867 0.68666 0.40514 0.0
H1900 H 0.75332 0.72395 0.37512 0.0
H1901 H 0.77098 0.71281 0.39624 0.0
S1902 S 0.70023 0.65324 0.404 0.0
N1903 N 0.70176 0.67072 0.3887 0.0
N1904 N 0.72083 0.65889 0.41225 0.0
C1905 C 0.73005 0.67566 0.4023 0.0
C1906 C 0.71967 0.68213 0.38962 0.0
C1907 C 0.31504 0.04315 0.38021 0.0
C1908 C 0.32557 0.03498 0.37781 0.0
C1909 C 0.32168 0.0599 0.3921 0.0
C1910 C 0.33914 0.06922 0.40211 0.0
H1911 H 0.30135 0.03637 0.37345 0.0
H1912 H 0.31293 0.06545 0.39389 0.0
S1913 S 0.37236 0.05393 0.40047 0.0
N1914 N 0.35462 0.03785 0.38585 0.0
N1915 N 0.36693 0.06907 0.4086 0.0
C1916 C 0.35001 0.06146 0.39918 0.0
C1917 C 0.34328 0.04443 0.38694 0.0
C1918 C 0.99216 0.28367 0.39524 0.0
C1919 C 0.99558 0.29804 0.37886 0.0
C1920 C 0.97564 0.27367 0.40767 0.0
C1921 C 0.96168 0.2774 0.40394 0.0
H1922 H 1.00257 0.28053 0.39935 0.0
H1923 H 0.97406 0.26334 0.42105 0.0
S1924 S 0.96308 0.31211 0.35996 0.0
N1925 N 0.9833 0.3147 0.35795 0.0
N1926 N 0.95193 0.2954 0.38029 0.0
C1927 C 0.96467 0.2912 0.38653 0.0
C1928 C 0.98166 0.30163 0.37425 0.0
C1929 C 0.02814 0.39124 0.33429 0.0
C1930 C 0.04557 0.39469 0.32932 0.0
C1931 C 0.02153 0.40146 0.3226 0.0
C1932 C 0.03197 0.41534 0.30508 0.0
H1933 H 0.01946 0.38044 0.34713 0.0
H1934 H 1.008 0.39824 0.32702 0.0
S1935 S 0.07833 0.42919 0.28472 0.0
N1936 N 0.07319 0.41296 0.30576 0.0
N1937 N 0.06058 0.43157 0.28295 0.0
C1938 C 0.04952 0.419 0.30017 0.0
C1939 C 0.05634 0.40882 0.31246 0.0
C1940 C 0.64061 0.64598 0.32193 0.0
C1941 C 0.63297 0.65576 0.33199 0.0
C1942 C 0.63008 0.62934 0.30996 0.0
C1943 C 0.61142 0.6217 0.30772 0.0
H1944 H 0.65495 0.65151 0.32232 0.0
H1945 H 0.63673 0.62276 0.3015 0.0
S1946 S 0.58454 0.6407 0.33414 0.0
N1947 N 0.60538 0.65584 0.34096 0.0
N1948 N 0.58558 0.62441 0.31902 0.0
C1949 C 0.60351 0.63092 0.31889 0.0
C1950 C 0.61426 0.64795 0.33091 0.0
C1951 C 0.37783 1.00093 0.32049 0.0
C1952 C 0.3693 0.98487 0.33461 0.0
C1953 C 0.39408 1.00638 0.30769 0.0
C1954 C 0.40257 0.99608 0.30867 0.0
H1955 H 0.37154 0.009 0.3183 0.0
H1956 H 0.39964 0.0184 0.29604 0.0
S1957 S 0.38716 0.95435 0.34636 0.0
N1958 N 0.37144 0.95962 0.35092 0.0
N1959 N 0.40217 0.9701 0.32745 0.0
C1960 C 0.39469 0.98053 0.32398 0.0
C1961 C 0.37805 0.97489 0.33681 0.0
C1962 C 0.6183 0.97843 0.33551 0.0
C1963 C 0.63688 0.98711 0.33154 0.0
C1964 C 0.60765 0.98425 0.3231 0.0
C1965 C 0.61511 0.99884 0.30588 0.0
H1966 H 0.61186 0.96684 0.34803 0.0
H1967 H 0.59341 0.97707 0.32675 0.0
S1968 S 0.6631 0.02574 0.28807 0.0
N1969 N 0.66232 0.01107 0.30925 0.0
N1970 N 0.64235 0.02155 0.2851 0.0
C1971 C 0.63375 0.00777 0.30199 0.0
C1972 C 0.64461 1.00202 0.315 0.0
C1973 C 0.05348 0.65285 0.31636 0.0
C1974 C 0.04275 0.65672 0.33256 0.0
C1975 C 0.0466 0.63627 0.30397 0.0
C1976 C 0.02873 0.62271 0.3075 0.0
H1977 H 0.06717 0.66296 0.31238 0.0
H1978 H 0.05523 0.63435 0.29076 0.0
S1979 S 0.99576 0.62526 0.35084 0.0
N1980 N 0.01377 0.6452 0.3531 0.0
N1981 N 1.00098 0.61375 0.33065 0.0
C1982 C 0.01809 0.62611 0.32469 0.0
C1983 C 0.02506 0.64315 0.337 0.0
C1984 C 0.38072 0.40748 0.33027 0.0
C1985 C 0.37289 0.38884 0.33311 0.0
C1986 C 0.39741 0.41771 0.31832 0.0
C1987 C 0.40702 0.40976 0.30866 0.0
H1988 H 0.3737 0.41423 0.33672 0.0
H1989 H 0.40268 0.43194 0.3162 0.0
S1990 S 0.39273 0.36151 0.31171 0.0
N1991 N 0.37643 0.36295 0.32603 0.0
N1992 N 0.40754 0.38208 0.3031 0.0
C1993 C 0.39963 0.39122 0.31209 0.0
C1994 C 0.38266 0.3808 0.32442 0.0
C1995 C 0.31314 0.27862 0.3837 0.0
C1996 C 0.32384 0.29725 0.38066 0.0
C1997 C 0.31962 0.26856 0.39618 0.0
C1998 C 0.33708 0.27669 0.40622 0.0
H1999 H 0.29947 0.27174 0.37686 0.0
H2000 H 0.31078 0.25431 0.39829 0.0
S2001 S 0.37062 0.32508 0.40335 0.0
N2002 N 0.35299 0.32337 0.38832 0.0
N2003 N 0.36499 0.3046 0.41227 0.0
C2004 C 0.34808 0.29526 0.40281 0.0
C2005 C 0.34151 0.30549 0.38993 0.0
C2006 C 0.74968 0.03922 0.37436 0.0
C2007 C 0.73109 0.03126 0.37766 0.0
C2008 C 0.76152 0.05523 0.38689 0.0
C2009 C 0.75532 0.06388 0.40353 0.0
H2010 H 0.75517 0.03275 0.36263 0.0
H2011 H 0.77575 0.06058 0.38419 0.0
S2012 S 0.7078 0.04892 0.41791 0.0
N2013 N 0.70696 0.03374 0.39764 0.0
N2014 N 0.72921 0.06351 0.42185 0.0
C2015 C 0.73672 0.05649 0.40608 0.0
C2016 C 0.72462 0.04026 0.39301 0.0
C2017 C 0.98694 0.71336 0.38504 0.0
C2018 C 0.99444 0.70221 0.38297 0.0
C2019 C 0.97029 0.70744 0.39689 0.0
C2020 C 0.96043 0.69012 0.40726 0.0
H2021 H 0.99413 0.72695 0.3779 0.0
H2022 H 0.96522 0.71661 0.39826 0.0
S2023 S 0.97404 0.65558 0.40692 0.0
N2024 N 0.99047 0.67282 0.39191 0.0
N2025 N 0.95948 0.66185 0.4147 0.0
C2026 C 0.96759 0.67868 0.40483 0.0
C2027 C 0.98449 0.68467 0.39257 0.0
C2028 C 0.41345 0.04254 0.70892 0.0
C2029 C 0.39494 0.03496 0.71255 0.0
C2030 C 0.42304 0.03545 0.72117 0.0
C2031 C 0.41457 0.02067 0.73797 0.0
H2032 H 0.42066 0.05422 0.69675 0.0
H2033 H 0.43728 0.04182 0.71777 0.0
S2034 S 0.36628 0.99635 0.75471 0.0
N2035 N 0.36842 0.01182 0.73396 0.0
N2036 N 0.38645 0.99898 0.75793 0.0
C2037 C 0.39596 0.01284 0.7415 0.0
C2038 C 0.38616 0.01986 0.72859 0.0
C2039 C 0.97757 0.36806 0.73054 0.0
C2040 C 0.98869 0.36459 0.71459 0.0
C2041 C 0.98388 0.38468 0.74258 0.0
C2042 C 1.00153 0.39868 0.73892 0.0
H2043 H 0.96403 0.35761 0.73463 0.0
H2044 H 0.975 0.3863 0.75565 0.0
S2045 S 0.03528 0.39722 0.69598 0.0
N2046 N 0.01776 0.37691 0.69407 0.0
N2047 N 0.02945 0.40843 0.7158 0.0
C2048 C 0.01253 0.39566 0.72191 0.0
C2049 C 1.00616 0.37858 0.70998 0.0
C2050 C 0.65834 0.61553 0.73368 0.0
C2051 C 0.66181 0.62947 0.71635 0.0
C2052 C 0.64174 0.60576 0.74601 0.0
C2053 C 0.62778 0.60933 0.74128 0.0
H2054 H 0.66877 0.61257 0.73859 0.0
H2055 H 0.64011 0.59579 0.76012 0.0
S2056 S 0.62922 0.64274 0.69459 0.0
N2057 N 0.64949 0.64539 0.6934 0.0
N2058 N 0.61804 0.62657 0.71569 0.0
C2059 C 0.63079 0.62263 0.7229 0.0
C2060 C 0.64784 0.63279 0.71067 0.0
C2061 C 0.69433 0.72614 0.66778 0.0
C2062 C 0.71094 0.72781 0.66169 0.0
C2063 C 0.68838 0.73667 0.65532 0.0
C2064 C 0.69864 0.74906 0.63587 0.0
H2065 H 0.68579 0.71653 0.68216 0.0
H2066 H 0.67548 0.73488 0.66071 0.0
S2067 S 0.74277 0.75772 0.61181 0.0
N2068 N 0.73753 0.74266 0.63483 0.0
N2069 N 0.72607 0.76181 0.61065 0.0
C2070 C 0.71535 0.75088 0.62974 0.0
C2071 C 0.72154 0.74041 0.64279 0.0
C2072 C 0.29992 0.97739 0.67008 0.0
C2073 C 0.30204 0.99313 0.65889 0.0
C2074 C 0.2888 0.96066 0.65855 0.0
C2075 C 0.27978 0.95912 0.63503 0.0
H2076 H 0.30679 0.97799 0.68792 0.0
H2077 H 0.28736 0.94886 0.6681 0.0
S2078 S 0.28275 0.99698 0.59677 0.0
N2079 N 0.29494 1.00644 0.6228 0.0
N2080 N 0.27508 0.97537 0.60019 0.0
C2081 C 0.28218 0.97498 0.62351 0.0
C2082 C 0.29307 0.99187 0.63565 0.0
C2083 C 0.04596 0.33411 0.6525 0.0
C2084 C 0.03769 0.31789 0.66622 0.0
C2085 C 0.06235 0.34008 0.63983 0.0
C2086 C 0.07124 0.33015 0.64058 0.0
H2087 H 0.03936 0.3419 0.65051 0.0
H2088 H 0.06771 0.35221 0.62848 0.0
S2089 S 0.05657 0.28817 0.67729 0.0
N2090 N 0.04045 0.29286 0.68193 0.0
N2091 N 0.07146 0.30433 0.65877 0.0
C2092 C 0.0636 0.31443 0.65551 0.0
C2093 C 0.04681 0.30826 0.66817 0.0
C2094 C 0.31076 0.33627 0.6504 0.0
C2095 C 0.30285 0.32099 0.66618 0.0
C2096 C 0.30038 0.34228 0.63776 0.0
C2097 C 0.28167 0.33347 0.64075 0.0
H2098 H 0.325 0.34316 0.64674 0.0
H2099 H 0.30709 0.35355 0.62474 0.0
S2100 S 0.25486 0.29436 0.68328 0.0
N2101 N 0.27545 0.29801 0.68594 0.0
N2102 N 0.256 0.3098 0.66327 0.0
C2103 C 0.27374 0.31875 0.65772 0.0
C2104 C 0.2843 0.31241 0.67018 0.0
C2105 C 0.69211 0.97774 0.66856 0.0
C2106 C 0.70994 0.99139 0.66553 0.0
C2107 C 0.68563 0.96111 0.65628 0.0
C2108 C 0.69664 0.95756 0.64006 0.0
H2109 H 0.68302 0.97996 0.68032 0.0
H2110 H 0.67178 0.95105 0.65922 0.0
S2111 S 0.74425 0.9893 0.6248 0.0
N2112 N 0.73853 1.00033 0.64511 0.0
N2113 N 0.72623 0.96953 0.62117 0.0
C2114 C 0.71457 0.97112 0.63707 0.0
C2115 C 0.72123 0.98791 0.64997 0.0
C2116 C 0.04419 0.74395 0.66364 0.0
C2117 C 0.03648 0.72531 0.66637 0.0
C2118 C 0.06088 0.75431 0.65173 0.0
C2119 C 0.07058 0.74648 0.642 0.0
H2120 H 0.03711 0.7506 0.67026 0.0
H2121 H 0.0661 0.76854 0.64976 0.0
S2122 S 0.05644 0.69825 0.64424 0.0
N2123 N 0.04011 0.69953 0.65874 0.0
N2124 N 0.0712 0.71889 0.63591 0.0
C2125 C 0.06324 0.72792 0.64514 0.0
C2126 C 0.04628 0.71738 0.65742 0.0
C2127 C 1.00405 0.63861 0.72967 0.0
C2128 C 0.98881 0.63108 0.71382 0.0
C2129 C 1.00983 0.6279 0.74189 0.0
C2130 C 1.00081 0.60922 0.73838 0.0
H2131 H 0.01112 0.65282 0.73368 0.0
H2132 H 0.0211 0.63433 0.75496 0.0
S2133 S 0.96163 0.58333 0.69553 0.0
N2134 N 0.96559 0.60406 0.69349 0.0
N2135 N 0.97693 0.584 0.71537 0.0
C2136 C 0.98608 0.60166 0.72138 0.0
C2137 C 0.97999 0.61256 0.70936 0.0
C2138 C 0.41218 0.37186 0.72953 0.0
C2139 C 0.39761 0.36804 0.71332 0.0
C2140 C 0.4219 0.38843 0.74197 0.0
C2141 C 0.41765 0.40203 0.73848 0.0
H2142 H 0.41571 0.3617 0.73356 0.0
H2143 H 0.43241 0.39029 0.75521 0.0
S2144 S 0.38226 0.39967 0.69503 0.0
N2145 N 0.38027 0.3797 0.69275 0.0
N2146 N 0.39897 0.41111 0.71526 0.0
C2147 C 0.40367 0.3987 0.72122 0.0
C2148 C 0.39357 0.38167 0.70886 0.0
C2149 C 0.65325 0.0508 0.70792 0.0
C2150 C 0.66048 0.03939 0.70926 0.0
C2151 C 0.63764 0.04694 0.72135 0.0
C2152 C 0.62857 0.03154 0.73678 0.0
H2153 H 0.66007 0.0632 0.69717 0.0
H2154 H 0.63297 0.05646 0.72037 0.0
S2155 S 0.64114 0.99661 0.74547 0.0
N2156 N 0.65661 0.01135 0.72593 0.0
N2157 N 0.62744 1.00429 0.75153 0.0
C2158 C 0.63506 0.0195 0.73719 0.0
C2159 C 0.65096 0.02338 0.72336 0.0
loop_
_geom_bond_atom_site_label_1
_geom_bond_atom_site_label_2
_geom_bond_distance
_geom_bond_site_symmetry_2
_ccdc_geom_bond_type
O0 Cd1 2.223 . S
O0 C8 1.315 . S
Cd1 O0 2.223 . S
Cd1 O4 2.297 . S
Cd1 O5 2.439 . S
Cd1 O11 2.240 1_554 S
Cd2 O3 2.240 1_655 S
Cd2 O10 2.223 1_554 S
Cd2 O12 2.297 1_554 S
Cd2 O13 2.439 . S
O3 Cd2 2.240 1_455 S
O3 C8 1.279 . S
O4 Cd1 2.297 . S
O4 C6 1.247 . S
O5 Cd1 2.439 . S
O5 C6 1.208 . S
C6 O4 1.247 . S
C6 O5 1.208 . S
C7 O12 1.247 . S
C7 O13 1.208 1_556 S
C8 O0 1.315 . S
C8 O3 1.279 . S
C9 O10 1.310 1_455 S
C9 O11 1.284 . S
O10 Cd2 2.223 1_556 S
O10 C9 1.310 1_655 S
O11 Cd1 2.240 1_556 S
O11 C9 1.284 . S
O12 Cd2 2.297 1_556 S
O12 C7 1.247 . S
O13 Cd2 2.439 . S
O13 C7 1.208 1_554 S
O14 Cd15 2.223 . S
O14 C22 1.315 . S
Cd15 O14 2.223 . S
Cd15 O18 2.297 . S
Cd15 O19 2.439 . S
Cd15 O25 2.240 1_554 S
Cd16 O17 2.240 . S
Cd16 O24 2.223 1_554 S
Cd16 O26 2.297 1_554 S
Cd16 O27 2.439 . S
O17 Cd16 2.240 . S
O17 C22 1.279 . S
O18 Cd15 2.297 . S
O18 C20 1.247 . S
O19 Cd15 2.439 . S
O19 C20 1.208 . S
C20 O18 1.247 . S
C20 O19 1.208 . S
C21 O26 1.247 . S
C21 O27 1.208 1_556 S
C22 O14 1.315 . S
C22 O17 1.279 . S
C23 O24 1.315 . S
C23 O25 1.279 . S
O24 Cd16 2.223 1_556 S
O24 C23 1.315 . S
O25 Cd15 2.240 1_556 S
O25 C23 1.279 . S
O26 Cd16 2.297 1_556 S
O26 C21 1.247 . S
O27 Cd16 2.439 . S
O27 C21 1.208 1_554 S
O28 Cd29 2.223 1_556 S
O28 C36 1.315 . S
Cd29 O28 2.223 1_554 S
Cd29 O32 2.297 1_554 S
Cd29 O33 2.439 . S
Cd29 O39 2.240 . S
Cd30 O31 2.240 1_564 S
Cd30 O38 2.223 . S
Cd30 O40 2.297 . S
Cd30 O41 2.439 . S
O31 Cd30 2.240 1_546 S
O31 C36 1.279 . S
O32 Cd29 2.297 1_556 S
O32 C34 1.247 . S
O33 Cd29 2.439 . S
O33 C34 1.208 1_554 S
C34 O32 1.247 . S
C34 O33 1.208 1_556 S
C35 O40 1.247 . S
C35 O41 1.208 . S
C36 O28 1.315 . S
C36 O31 1.279 . S
C37 O38 1.321 1_545 S
C37 O39 1.274 . S
O38 Cd30 2.223 . S
O38 C37 1.321 1_565 S
O39 Cd29 2.240 . S
O39 C37 1.274 . S
O40 Cd30 2.297 . S
O40 C35 1.247 . S
O41 Cd30 2.439 . S
O41 C35 1.208 . S
O42 Cd43 2.223 1_556 S
O42 C50 1.311 1_655 S
Cd43 O42 2.223 1_554 S
Cd43 O46 2.297 1_554 S
Cd43 O47 2.439 . S
Cd43 O53 2.240 1_655 S
Cd44 O45 2.240 1_554 S
Cd44 O52 2.223 . S
Cd44 O54 2.297 . S
Cd44 O55 2.439 . S
O45 Cd44 2.240 1_556 S
O45 C50 1.279 . S
O46 Cd43 2.297 1_556 S
O46 C48 1.247 . S
O47 Cd43 2.439 . S
O47 C48 1.208 1_554 S
C48 O46 1.247 . S
C48 O47 1.208 1_556 S
C49 O54 1.247 . S
C49 O55 1.208 . S
C50 O42 1.311 1_455 S
C50 O45 1.279 . S
C51 O52 1.315 . S
C51 O53 1.279 . S
O52 Cd44 2.223 . S
O52 C51 1.315 . S
O53 Cd43 2.240 1_455 S
O53 C51 1.279 . S
O54 Cd44 2.297 . S
O54 C49 1.247 . S
O55 Cd44 2.439 . S
O55 C49 1.208 . S
O56 Cd57 2.223 1_556 S
O56 C64 1.315 . S
Cd57 O56 2.223 1_554 S
Cd57 O60 2.297 1_554 S
Cd57 O61 2.439 . S
Cd57 O67 2.240 . S
Cd58 O59 2.240 1_554 S
Cd58 O66 2.223 . S
Cd58 O68 2.297 . S
Cd58 O69 2.439 . S
O59 Cd58 2.240 1_556 S
O59 C64 1.279 . S
O60 Cd57 2.297 1_556 S
O60 C62 1.247 . S
O61 Cd57 2.439 . S
O61 C62 1.208 1_554 S
C62 O60 1.247 . S
C62 O61 1.208 1_556 S
C63 O68 1.247 . S
C63 O69 1.208 . S
C64 O56 1.315 . S
C64 O59 1.279 . S
C65 O66 1.315 . S
C65 O67 1.279 . S
O66 Cd58 2.223 . S
O66 C65 1.315 . S
O67 Cd57 2.240 . S
O67 C65 1.279 . S
O68 Cd58 2.297 . S
O68 C63 1.247 . S
O69 Cd58 2.439 . S
O69 C63 1.208 . S
O70 Cd71 2.223 . S
O70 C78 1.310 . S
Cd71 O70 2.223 . S
Cd71 O74 2.297 . S
Cd71 O75 2.439 . S
Cd71 O81 2.182 1_564 S
Cd72 O73 2.240 . S
Cd72 O80 2.223 1_554 S
Cd72 O82 2.297 1_554 S
Cd72 O83 2.439 . S
O73 Cd72 2.240 . S
O73 C78 1.279 1_545 S
O74 Cd71 2.297 . S
O74 C76 1.247 . S
O75 Cd71 2.439 . S
O75 C76 1.208 . S
C76 O74 1.247 . S
C76 O75 1.208 . S
C77 O82 1.247 . S
C77 O83 1.208 1_556 S
C78 O70 1.310 . S
C78 O73 1.279 1_565 S
C79 O80 1.315 . S
C79 O81 1.348 . S
O80 Cd72 2.223 1_556 S
O80 C79 1.315 . S
O81 Cd71 2.182 1_546 S
O81 C79 1.348 . S
O82 Cd72 2.297 1_556 S
O82 C77 1.247 . S
O83 Cd72 2.439 . S
O83 C77 1.208 1_554 S
O84 Cd85 2.223 . S
O84 C92 1.315 . S
Cd85 O84 2.223 . S
Cd85 O88 2.297 . S
Cd85 O89 2.439 . S
Cd85 O95 2.240 . S
Cd86 O87 2.240 . S
Cd86 O94 2.223 . S
Cd86 O96 2.297 . S
Cd86 O97 2.439 . S
O87 Cd86 2.240 . S
O87 C92 1.279 . S
O88 Cd85 2.297 . S
O88 C90 1.247 . S
O89 Cd85 2.439 . S
O89 C90 1.208 . S
C90 O88 1.247 . S
C90 O89 1.208 . S
C91 O96 1.247 . S
C91 O97 1.208 . S
C92 O84 1.315 . S
C92 O87 1.279 . S
C93 O94 1.315 . S
C93 O95 1.279 . S
O94 Cd86 2.223 . S
O94 C93 1.315 . S
O95 Cd85 2.240 . S
O95 C93 1.279 . S
O96 Cd86 2.297 . S
O96 C91 1.247 . S
O97 Cd86 2.439 . S
O97 C91 1.208 . S
O98 Cd99 2.223 . S
O98 C106 1.315 . S
Cd99 O98 2.223 . S
Cd99 O102 2.297 1_565 S
Cd99 O103 2.439 1_565 S
Cd99 O109 2.240 . S
Cd100 O101 2.240 . S
Cd100 O108 2.223 . S
Cd100 O110 2.297 . S
Cd100 O111 2.439 . S
O101 Cd100 2.240 . S
O101 C106 1.279 . S
O102 Cd99 2.297 1_545 S
O102 C104 1.247 . S
O103 Cd99 2.439 1_545 S
O103 C104 1.208 . S
C104 O102 1.247 . S
C104 O103 1.208 . S
C105 O110 1.247 . S
C105 O111 1.208 . S
C106 O98 1.315 . S
C106 O101 1.279 . S
C107 O108 1.315 . S
C107 O109 1.279 . S
O108 Cd100 2.223 . S
O108 C107 1.315 . S
O109 Cd99 2.240 . S
O109 C107 1.279 . S
O110 Cd100 2.297 . S
O110 C105 1.247 . S
O111 Cd100 2.439 . S
O111 C105 1.208 . S
O112 Cd113 2.223 . S
O112 C120 1.315 . S
Cd113 O112 2.223 . S
Cd113 O116 2.297 . S
Cd113 O117 2.439 . S
Cd113 O123 2.240 . S
Cd114 O115 2.240 . S
Cd114 O122 2.223 . S
Cd114 O124 2.297 . S
Cd114 O125 2.382 1_455 S
O115 Cd114 2.240 . S
O115 C120 1.279 . S
O116 Cd113 2.297 . S
O116 C118 1.247 . S
O117 Cd113 2.439 . S
O117 C118 1.208 . S
C118 O116 1.247 . S
C118 O117 1.208 . S
C119 O124 1.247 1_655 S
C119 O125 1.203 . S
C120 O112 1.315 . S
C120 O115 1.279 . S
C121 O122 1.315 . S
C121 O123 1.279 . S
O122 Cd114 2.223 . S
O122 C121 1.315 . S
O123 Cd113 2.240 . S
O123 C121 1.279 . S
O124 Cd114 2.297 . S
O124 C119 1.247 1_455 S
O125 Cd114 2.382 1_655 S
O125 C119 1.203 . S
O126 Cd127 2.223 . S
O126 C134 1.315 . S
Cd127 O126 2.223 . S
Cd127 O130 2.297 . S
Cd127 O131 2.439 . S
Cd127 O137 2.240 . S
Cd128 O129 2.240 . S
Cd128 O136 2.223 . S
Cd128 O138 2.297 1_565 S
Cd128 O139 2.439 1_565 S
O129 Cd128 2.240 . S
O129 C134 1.279 . S
O130 Cd127 2.297 . S
O130 C132 1.247 . S
O131 Cd127 2.439 . S
O131 C132 1.208 . S
C132 O130 1.247 . S
C132 O131 1.208 . S
C133 O138 1.247 . S
C133 O139 1.208 . S
C134 O126 1.315 . S
C134 O129 1.279 . S
C135 O136 1.315 . S
C135 O137 1.279 . S
O136 Cd128 2.223 . S
O136 C135 1.315 . S
O137 Cd127 2.240 . S
O137 C135 1.279 . S
O138 Cd128 2.297 1_545 S
O138 C133 1.247 . S
O139 Cd128 2.439 1_545 S
O139 C133 1.208 . S
O140 Cd141 2.223 . S
O140 C148 1.315 . S
Cd141 O140 2.223 . S
Cd141 O144 2.297 . S
Cd141 O145 2.439 . S
Cd141 O151 2.240 . S
Cd142 O143 2.240 . S
Cd142 O150 2.223 . S
Cd142 O152 2.297 . S
Cd142 O153 2.419 1_455 S
O143 Cd142 2.240 . S
O143 C148 1.279 . S
O144 Cd141 2.297 . S
O144 C146 1.247 . S
O145 Cd141 2.439 . S
O145 C146 1.208 . S
C146 O144 1.247 . S
C146 O145 1.208 . S
C147 O152 1.247 1_655 S
C147 O153 1.253 . S
C148 O140 1.315 . S
C148 O143 1.279 . S
C149 O150 1.315 . S
C149 O151 1.279 . S
O150 Cd142 2.223 . S
O150 C149 1.315 . S
O151 Cd141 2.240 . S
O151 C149 1.279 . S
O152 Cd142 2.297 . S
O152 C147 1.247 1_455 S
O153 Cd142 2.419 1_655 S
O153 C147 1.253 . S
O154 Cd155 2.223 . S
O154 C162 1.315 . S
Cd155 O154 2.223 . S
Cd155 O158 2.297 . S
Cd155 O159 2.439 . S
Cd155 O165 2.240 . S
Cd156 O157 2.240 . S
Cd156 O164 2.223 . S
Cd156 O166 2.297 . S
Cd156 O167 2.439 . S
O157 Cd156 2.240 . S
O157 C162 1.279 . S
O158 Cd155 2.297 . S
O158 C160 1.247 . S
O159 Cd155 2.439 . S
O159 C160 1.208 . S
C160 O158 1.247 . S
C160 O159 1.208 . S
C161 O166 1.247 . S
C161 O167 1.208 . S
C162 O154 1.315 . S
C162 O157 1.279 . S
C163 O164 1.315 . S
C163 O165 1.279 . S
O164 Cd156 2.223 . S
O164 C163 1.315 . S
O165 Cd155 2.240 . S
O165 C163 1.279 . S
O166 Cd156 2.297 . S
O166 C161 1.247 . S
O167 Cd156 2.439 . S
O167 C161 1.208 . S
O168 Cd169 2.223 . S
O168 C176 1.315 . S
Cd169 O168 2.223 . S
Cd169 O172 2.297 . S
Cd169 O173 2.439 . S
Cd169 O179 2.240 . S
Cd170 O171 2.240 . S
Cd170 O178 2.223 . S
Cd170 O180 2.297 . S
Cd170 O181 2.374 1_545 S
O171 Cd170 2.240 . S
O171 C176 1.279 . S
O172 Cd169 2.297 . S
O172 C174 1.247 . S
O173 Cd169 2.439 . S
O173 C174 1.208 . S
C174 O172 1.247 . S
C174 O173 1.208 . S
C175 O180 1.247 1_565 S
C175 O181 1.202 . S
C176 O168 1.315 . S
C176 O171 1.279 . S
C177 O178 1.315 . S
C177 O179 1.279 . S
O178 Cd170 2.223 . S
O178 C177 1.315 . S
O179 Cd169 2.240 . S
O179 C177 1.279 . S
O180 Cd170 2.297 . S
O180 C175 1.247 1_545 S
O181 Cd170 2.374 1_565 S
O181 C175 1.202 . S
O182 Cd183 2.223 . S
O182 C190 1.315 . S
Cd183 O182 2.223 . S
Cd183 O186 2.297 . S
Cd183 O187 2.439 . S
Cd183 O193 2.240 . S
Cd184 O185 2.240 . S
Cd184 O192 2.223 . S
Cd184 O194 2.297 1_655 S
Cd184 O195 2.439 1_655 S
O185 Cd184 2.240 . S
O185 C190 1.279 . S
O186 Cd183 2.297 . S
O186 C188 1.247 . S
O187 Cd183 2.439 . S
O187 C188 1.208 . S
C188 O186 1.247 . S
C188 O187 1.208 . S
C189 O194 1.247 . S
C189 O195 1.208 . S
C190 O182 1.315 . S
C190 O185 1.279 . S
C191 O192 1.315 . S
C191 O193 1.279 . S
O192 Cd184 2.223 . S
O192 C191 1.315 . S
O193 Cd183 2.240 . S
O193 C191 1.279 . S
O194 Cd184 2.297 1_455 S
O194 C189 1.247 . S
O195 Cd184 2.439 1_455 S
O195 C189 1.208 . S
O196 Cd197 2.223 . S
O196 C204 1.315 . S
Cd197 O196 2.223 . S
Cd197 O200 2.297 . S
Cd197 O201 2.439 . S
Cd197 O207 2.240 . S
Cd198 O199 2.240 . S
Cd198 O206 2.223 . S
Cd198 O208 2.297 . S
Cd198 O209 2.439 . S
O199 Cd198 2.240 . S
O199 C204 1.279 . S
O200 Cd197 2.297 . S
O200 C202 1.247 . S
O201 Cd197 2.439 . S
O201 C202 1.208 . S
C202 O200 1.247 . S
C202 O201 1.208 . S
C203 O208 1.247 . S
C203 O209 1.208 . S
C204 O196 1.315 . S
C204 O199 1.279 . S
C205 O206 1.315 . S
C205 O207 1.279 . S
O206 Cd198 2.223 . S
O206 C205 1.315 . S
O207 Cd197 2.240 . S
O207 C205 1.279 . S
O208 Cd198 2.297 . S
O208 C203 1.247 . S
O209 Cd198 2.439 . S
O209 C203 1.208 . S
O210 Cd211 2.223 . S
O210 C218 1.315 . S
Cd211 O210 2.223 . S
Cd211 O214 2.297 . S
Cd211 O215 2.439 . S
Cd211 O221 2.240 . S
Cd212 O213 2.240 . S
Cd212 O220 2.223 . S
Cd212 O222 2.297 . S
Cd212 O223 2.439 . S
O213 Cd212 2.240 . S
O213 C218 1.279 . S
O214 Cd211 2.297 . S
O214 C216 1.247 . S
O215 Cd211 2.439 . S
O215 C216 1.208 . S
C216 O214 1.247 . S
C216 O215 1.208 . S
C217 O222 1.247 . S
C217 O223 1.208 . S
C218 O210 1.315 . S
C218 O213 1.279 . S
C219 O220 1.315 . S
C219 O221 1.279 . S
O220 Cd212 2.223 . S
O220 C219 1.315 . S
O221 Cd211 2.240 . S
O221 C219 1.279 . S
O222 Cd212 2.297 . S
O222 C217 1.247 . S
O223 Cd212 2.439 . S
O223 C217 1.208 . S
O224 Cd225 2.223 . S
O224 C232 1.315 . S
Cd225 O224 2.223 . S
Cd225 O228 2.297 . S
Cd225 O229 2.416 1_545 S
Cd225 O235 2.240 . S
Cd226 O227 2.240 . S
Cd226 O234 2.223 . S
Cd226 O236 2.297 . S
Cd226 O237 2.439 . S
O227 Cd226 2.240 . S
O227 C232 1.279 . S
O228 Cd225 2.297 . S
O228 C230 1.247 1_545 S
O229 Cd225 2.416 1_565 S
O229 C230 1.261 . S
C230 O228 1.247 1_565 S
C230 O229 1.261 . S
C231 O236 1.247 . S
C231 O237 1.208 . S
C232 O224 1.315 . S
C232 O227 1.279 . S
C233 O234 1.315 . S
C233 O235 1.279 . S
O234 Cd226 2.223 . S
O234 C233 1.315 . S
O235 Cd225 2.240 . S
O235 C233 1.279 . S
O236 Cd226 2.297 . S
O236 C231 1.247 . S
O237 Cd226 2.439 . S
O237 C231 1.208 . S
O238 Cd239 2.223 . S
O238 C246 1.315 . S
Cd239 O238 2.223 . S
Cd239 O242 2.297 . S
Cd239 O243 2.439 . S
Cd239 O249 2.240 . S
Cd240 O241 2.240 . S
Cd240 O248 2.223 . S
Cd240 O250 2.297 1_655 S
Cd240 O251 2.439 1_655 S
O241 Cd240 2.240 . S
O241 C246 1.279 . S
O242 Cd239 2.297 . S
O242 C244 1.247 . S
O243 Cd239 2.439 . S
O243 C244 1.208 . S
C244 O242 1.247 . S
C244 O243 1.208 . S
C245 O250 1.247 . S
C245 O251 1.208 . S
C246 O238 1.315 . S
C246 O241 1.279 . S
C247 O248 1.315 . S
C247 O249 1.279 . S
O248 Cd240 2.223 . S
O248 C247 1.315 . S
O249 Cd239 2.240 . S
O249 C247 1.279 . S
O250 Cd240 2.297 1_455 S
O250 C245 1.247 . S
O251 Cd240 2.439 1_455 S
O251 C245 1.208 . S
H252 C279 0.929 . S
N253 C278 1.433 . S
N253 C284 1.435 . S
N253 C290 1.423 . S
H254 C280 0.930 . S
H255 C283 0.931 . S
H256 C282 0.929 . S
H257 C285 0.930 . S
H258 C286 0.932 . S
H259 C289 0.929 . S
H260 C288 0.931 . S
H261 C291 0.929 . S
H262 C295 0.932 . S
H263 C292 0.931 . S
H264 C294 0.929 . S
H265 C297 0.929 . S
H266 C298 0.930 . S
H267 C300 0.929 . S
H268 C301 0.931 . S
H269 C303 0.930 . S
H270 C304 0.932 . S
H271 C306 0.931 . S
H272 C307 0.929 . S
H273 C309 0.929 . S
H274 C310 0.931 . S
H275 C312 0.929 . S
N276 C296 1.433 . S
N276 C302 1.435 . S
N276 C308 1.423 . S
H277 C313 0.932 . S
C278 N253 1.433 . S
C278 C279 1.363 . S
C278 C283 1.370 . S
C279 H252 0.929 . S
C279 C278 1.363 . S
C279 C280 1.385 . S
C280 H254 0.930 . S
C280 C279 1.385 . S
C280 C281 1.357 . S
C281 C280 1.357 . S
C281 C282 1.406 . S
C282 H256 0.929 . S
C282 C281 1.406 . S
C282 C283 1.391 . S
C283 H255 0.931 . S
C283 C278 1.370 . S
C283 C282 1.391 . S
C284 N253 1.435 . S
C284 C285 1.358 . S
C284 C289 1.371 . S
C285 H257 0.930 . S
C285 C284 1.358 . S
C285 C286 1.405 . S
C286 H258 0.932 . S
C286 C285 1.405 . S
C286 C287 1.383 . S
C287 C286 1.383 . S
C287 C288 1.393 . S
C288 H260 0.931 . S
C288 C287 1.393 . S
C288 C289 1.382 . S
C289 H259 0.929 . S
C289 C284 1.371 . S
C289 C288 1.382 . S
C290 N253 1.423 . S
C290 C291 1.362 . S
C290 C295 1.388 . S
C291 H261 0.929 . S
C291 C290 1.362 . S
C291 C292 1.376 . S
C292 H263 0.931 . S
C292 C291 1.376 . S
C292 C293 1.396 . S
C293 C292 1.396 . S
C293 C294 1.348 . S
C293 C311 1.472 . S
C294 H264 0.929 . S
C294 C293 1.348 . S
C294 C295 1.443 . S
C295 H262 0.932 . S
C295 C290 1.388 . S
C295 C294 1.443 . S
C296 N276 1.433 . S
C296 C297 1.363 . S
C296 C301 1.370 . S
C297 H265 0.929 . S
C297 C296 1.363 . S
C297 C298 1.385 . S
C298 H266 0.930 . S
C298 C297 1.385 . S
C298 C299 1.357 . S
C299 C298 1.357 . S
C299 C300 1.406 . S
C300 H267 0.929 . S
C300 C299 1.406 . S
C300 C301 1.391 . S
C301 H268 0.931 . S
C301 C296 1.370 . S
C301 C300 1.391 . S
C302 N276 1.435 . S
C302 C303 1.358 . S
C302 C307 1.371 . S
C303 H269 0.930 . S
C303 C302 1.358 . S
C303 C304 1.405 . S
C304 H270 0.932 . S
C304 C303 1.405 . S
C304 C305 1.383 . S
C305 C304 1.383 . S
C305 C306 1.393 . S
C306 H271 0.931 . S
C306 C305 1.393 . S
C306 C307 1.382 . S
C307 H272 0.929 . S
C307 C302 1.371 . S
C307 C306 1.382 . S
C308 N276 1.423 . S
C308 C309 1.362 . S
C308 C313 1.388 . S
C309 H273 0.929 . S
C309 C308 1.362 . S
C309 C310 1.376 . S
C310 H274 0.931 . S
C310 C309 1.376 . S
C310 C311 1.396 . S
C311 C293 1.472 . S
C311 C310 1.396 . S
C311 C312 1.348 . S
C312 H275 0.929 . S
C312 C311 1.348 . S
C312 C313 1.443 . S
C313 H277 0.932 . S
C313 C308 1.388 . S
C313 C312 1.443 . S
H314 C341 0.929 . S
N315 C340 1.433 . S
N315 C346 1.435 . S
N315 C352 1.423 . S
H316 C342 0.930 . S
H317 C345 0.931 . S
H318 C344 0.929 . S
H319 C347 0.930 . S
H320 C348 0.932 . S
H321 C351 0.929 . S
H322 C350 0.931 . S
H323 C353 0.929 . S
H324 C357 0.932 . S
H325 C354 0.931 . S
H326 C356 0.929 . S
H327 C359 0.929 . S
H328 C360 0.930 . S
H329 C362 0.929 . S
H330 C363 0.931 . S
H331 C365 0.930 . S
H332 C366 0.932 . S
H333 C368 0.931 . S
H334 C369 0.929 . S
H335 C371 0.929 . S
H336 C372 0.931 . S
H337 C374 0.929 . S
N338 C358 1.433 . S
N338 C364 1.435 . S
N338 C370 1.423 . S
H339 C375 0.932 . S
C340 N315 1.433 . S
C340 C341 1.363 . S
C340 C345 1.370 . S
C341 H314 0.929 . S
C341 C340 1.363 . S
C341 C342 1.385 . S
C342 H316 0.930 . S
C342 C341 1.385 . S
C342 C343 1.357 . S
C343 C342 1.357 . S
C343 C344 1.406 . S
C344 H318 0.929 . S
C344 C343 1.406 . S
C344 C345 1.391 . S
C345 H317 0.931 . S
C345 C340 1.370 . S
C345 C344 1.391 . S
C346 N315 1.435 . S
C346 C347 1.358 . S
C346 C351 1.371 . S
C347 H319 0.930 . S
C347 C346 1.358 . S
C347 C348 1.405 . S
C348 H320 0.932 . S
C348 C347 1.405 . S
C348 C349 1.383 . S
C349 C348 1.383 . S
C349 C350 1.393 . S
C350 H322 0.931 . S
C350 C349 1.393 . S
C350 C351 1.382 . S
C351 H321 0.929 . S
C351 C346 1.371 . S
C351 C350 1.382 . S
C352 N315 1.423 . S
C352 C353 1.362 . S
C352 C357 1.388 . S
C353 H323 0.929 . S
C353 C352 1.362 . S
C353 C354 1.376 . S
C354 H325 0.931 . S
C354 C353 1.376 . S
C354 C355 1.396 . S
C355 C354 1.396 . S
C355 C356 1.348 . S
C355 C373 1.472 . S
C356 H326 0.929 . S
C356 C355 1.348 . S
C356 C357 1.443 . S
C357 H324 0.932 . S
C357 C352 1.388 . S
C357 C356 1.443 . S
C358 N338 1.433 . S
C358 C359 1.363 . S
C358 C363 1.370 . S
C359 H327 0.929 . S
C359 C358 1.363 . S
C359 C360 1.385 . S
C360 H328 0.930 . S
C360 C359 1.385 . S
C360 C361 1.357 . S
C361 C360 1.357 . S
C361 C362 1.406 . S
C362 H329 0.929 . S
C362 C361 1.406 . S
C362 C363 1.391 . S
C363 H330 0.931 . S
C363 C358 1.370 . S
C363 C362 1.391 . S
C364 N338 1.435 . S
C364 C365 1.358 . S
C364 C369 1.371 . S
C365 H331 0.930 . S
C365 C364 1.358 . S
C365 C366 1.405 . S
C366 H332 0.932 . S
C366 C365 1.405 . S
C366 C367 1.383 . S
C367 C366 1.383 . S
C367 C368 1.393 . S
C368 H333 0.931 . S
C368 C367 1.393 . S
C368 C369 1.382 . S
C369 H334 0.929 . S
C369 C364 1.371 . S
C369 C368 1.382 . S
C370 N338 1.423 . S
C370 C371 1.362 . S
C370 C375 1.388 . S
C371 H335 0.929 . S
C371 C370 1.362 . S
C371 C372 1.376 . S
C372 H336 0.931 . S
C372 C371 1.376 . S
C372 C373 1.396 . S
C373 C355 1.472 . S
C373 C372 1.396 . S
C373 C374 1.348 . S
C374 H337 0.929 . S
C374 C373 1.348 . S
C374 C375 1.443 . S
C375 H339 0.932 . S
C375 C370 1.388 . S
C375 C374 1.443 . S
H376 C403 0.929 . S
N377 C402 1.433 . S
N377 C408 1.435 . S
N377 C414 1.423 . S
H378 C404 0.930 . S
H379 C407 0.931 . S
H380 C406 0.929 . S
H381 C409 0.930 . S
H382 C410 0.932 . S
H383 C413 0.929 . S
H384 C412 0.931 . S
H385 C415 0.929 . S
H386 C419 0.932 . S
H387 C416 0.931 . S
H388 C418 0.929 . S
H389 C421 0.929 . S
H390 C422 0.930 . S
H391 C424 0.929 . S
H392 C425 0.931 . S
H393 C427 0.930 . S
H394 C428 0.932 . S
H395 C430 0.931 . S
H396 C431 0.929 . S
H397 C433 0.929 . S
H398 C434 0.931 . S
H399 C436 0.929 . S
N400 C420 1.433 . S
N400 C426 1.435 . S
N400 C432 1.423 . S
H401 C437 0.932 . S
C402 N377 1.433 . S
C402 C403 1.363 . S
C402 C407 1.370 . S
C403 H376 0.929 . S
C403 C402 1.363 . S
C403 C404 1.385 . S
C404 H378 0.930 . S
C404 C403 1.385 . S
C404 C405 1.357 . S
C405 C404 1.357 . S
C405 C406 1.406 . S
C406 H380 0.929 . S
C406 C405 1.406 . S
C406 C407 1.391 . S
C407 H379 0.931 . S
C407 C402 1.370 . S
C407 C406 1.391 . S
C408 N377 1.435 . S
C408 C409 1.358 . S
C408 C413 1.371 . S
C409 H381 0.930 . S
C409 C408 1.358 . S
C409 C410 1.405 . S
C410 H382 0.932 . S
C410 C409 1.405 . S
C410 C411 1.383 . S
C411 C410 1.383 . S
C411 C412 1.393 . S
C412 H384 0.931 . S
C412 C411 1.393 . S
C412 C413 1.382 . S
C413 H383 0.929 . S
C413 C408 1.371 . S
C413 C412 1.382 . S
C414 N377 1.423 . S
C414 C415 1.362 . S
C414 C419 1.388 . S
C415 H385 0.929 . S
C415 C414 1.362 . S
C415 C416 1.376 . S
C416 H387 0.931 . S
C416 C415 1.376 . S
C416 C417 1.396 . S
C417 C416 1.396 . S
C417 C418 1.348 . S
C417 C435 1.472 . S
C418 H388 0.929 . S
C418 C417 1.348 . S
C418 C419 1.443 . S
C419 H386 0.932 . S
C419 C414 1.388 . S
C419 C418 1.443 . S
C420 N400 1.433 . S
C420 C421 1.363 . S
C420 C425 1.370 . S
C421 H389 0.929 . S
C421 C420 1.363 . S
C421 C422 1.385 . S
C422 H390 0.930 . S
C422 C421 1.385 . S
C422 C423 1.357 . S
C423 C422 1.357 . S
C423 C424 1.406 . S
C424 H391 0.929 . S
C424 C423 1.406 . S
C424 C425 1.391 . S
C425 H392 0.931 . S
C425 C420 1.370 . S
C425 C424 1.391 . S
C426 N400 1.435 . S
C426 C427 1.358 . S
C426 C431 1.371 . S
C427 H393 0.930 . S
C427 C426 1.358 . S
C427 C428 1.405 . S
C428 H394 0.932 . S
C428 C427 1.405 . S
C428 C429 1.383 . S
C429 C428 1.383 . S
C429 C430 1.393 . S
C430 H395 0.931 . S
C430 C429 1.393 . S
C430 C431 1.382 . S
C431 H396 0.929 . S
C431 C426 1.371 . S
C431 C430 1.382 . S
C432 N400 1.423 . S
C432 C433 1.362 . S
C432 C437 1.388 . S
C433 H397 0.929 . S
C433 C432 1.362 . S
C433 C434 1.376 . S
C434 H398 0.931 . S
C434 C433 1.376 . S
C434 C435 1.396 . S
C435 C417 1.472 . S
C435 C434 1.396 . S
C435 C436 1.348 . S
C436 H399 0.929 . S
C436 C435 1.348 . S
C436 C437 1.443 . S
C437 H401 0.932 . S
C437 C432 1.388 . S
C437 C436 1.443 . S
H438 C465 0.929 . S
N439 C464 1.433 . S
N439 C470 1.435 . S
N439 C476 1.423 . S
H440 C466 0.930 . S
H441 C469 0.931 . S
H442 C468 0.929 . S
H443 C471 0.930 . S
H444 C472 0.932 . S
H445 C475 0.929 . S
H446 C474 0.931 . S
H447 C477 0.929 . S
H448 C481 0.932 . S
H449 C478 0.931 . S
H450 C480 0.929 . S
H451 C483 0.929 . S
H452 C484 0.930 . S
H453 C486 0.929 . S
H454 C487 0.931 . S
H455 C489 0.930 . S
H456 C490 0.932 . S
H457 C492 0.931 . S
H458 C493 0.929 . S
H459 C495 0.929 . S
H460 C496 0.931 . S
H461 C498 0.929 . S
N462 C482 1.433 . S
N462 C488 1.435 . S
N462 C494 1.423 . S
H463 C499 0.932 . S
C464 N439 1.433 . S
C464 C465 1.363 . S
C464 C469 1.370 . S
C465 H438 0.929 . S
C465 C464 1.363 . S
C465 C466 1.385 . S
C466 H440 0.930 . S
C466 C465 1.385 . S
C466 C467 1.357 . S
C467 C466 1.357 . S
C467 C468 1.406 . S
C468 H442 0.929 . S
C468 C467 1.406 . S
C468 C469 1.391 . S
C469 H441 0.931 . S
C469 C464 1.370 . S
C469 C468 1.391 . S
C470 N439 1.435 . S
C470 C471 1.358 . S
C470 C475 1.371 . S
C471 H443 0.930 . S
C471 C470 1.358 . S
C471 C472 1.405 . S
C472 H444 0.932 . S
C472 C471 1.405 . S
C472 C473 1.383 . S
C473 C472 1.383 . S
C473 C474 1.393 . S
C474 H446 0.931 . S
C474 C473 1.393 . S
C474 C475 1.382 . S
C475 H445 0.929 . S
C475 C470 1.371 . S
C475 C474 1.382 . S
C476 N439 1.423 . S
C476 C477 1.362 . S
C476 C481 1.388 . S
C477 H447 0.929 . S
C477 C476 1.362 . S
C477 C478 1.376 . S
C478 H449 0.931 . S
C478 C477 1.376 . S
C478 C479 1.396 . S
C479 C478 1.396 . S
C479 C480 1.348 . S
C479 C497 1.472 . S
C480 H450 0.929 . S
C480 C479 1.348 . S
C480 C481 1.443 . S
C481 H448 0.932 . S
C481 C476 1.388 . S
C481 C480 1.443 . S
C482 N462 1.433 . S
C482 C483 1.363 . S
C482 C487 1.370 . S
C483 H451 0.929 . S
C483 C482 1.363 . S
C483 C484 1.385 . S
C484 H452 0.930 . S
C484 C483 1.385 . S
C484 C485 1.357 . S
C485 C484 1.357 . S
C485 C486 1.406 . S
C486 H453 0.929 . S
C486 C485 1.406 . S
C486 C487 1.391 . S
C487 H454 0.931 . S
C487 C482 1.370 . S
C487 C486 1.391 . S
C488 N462 1.435 . S
C488 C489 1.358 . S
C488 C493 1.371 . S
C489 H455 0.930 . S
C489 C488 1.358 . S
C489 C490 1.405 . S
C490 H456 0.932 . S
C490 C489 1.405 . S
C490 C491 1.383 . S
C491 C490 1.383 . S
C491 C492 1.393 . S
C492 H457 0.931 . S
C492 C491 1.393 . S
C492 C493 1.382 . S
C493 H458 0.929 . S
C493 C488 1.371 . S
C493 C492 1.382 . S
C494 N462 1.423 . S
C494 C495 1.362 . S
C494 C499 1.388 . S
C495 H459 0.929 . S
C495 C494 1.362 . S
C495 C496 1.376 . S
C496 H460 0.931 . S
C496 C495 1.376 . S
C496 C497 1.396 . S
C497 C479 1.472 . S
C497 C496 1.396 . S
C497 C498 1.348 . S
C498 H461 0.929 . S
C498 C497 1.348 . S
C498 C499 1.443 . S
C499 H463 0.932 . S
C499 C494 1.388 . S
C499 C498 1.443 . S
H500 C527 0.929 . S
N501 C526 1.433 . S
N501 C532 1.435 . S
N501 C538 1.423 . S
H502 C528 0.930 . S
H503 C531 0.931 . S
H504 C530 0.929 . S
H505 C533 0.930 . S
H506 C534 0.932 . S
H507 C537 0.929 . S
H508 C536 0.931 . S
H509 C539 0.929 . S
H510 C543 0.932 . S
H511 C540 0.931 . S
H512 C542 0.929 . S
H513 C545 0.929 . S
H514 C546 0.930 . S
H515 C548 0.929 . S
H516 C549 0.931 . S
H517 C551 0.930 . S
H518 C552 0.932 . S
H519 C554 0.931 . S
H520 C555 0.929 . S
H521 C557 0.929 . S
H522 C558 0.931 . S
H523 C560 0.929 . S
N524 C544 1.433 . S
N524 C550 1.435 . S
N524 C556 1.423 . S
H525 C561 0.932 . S
C526 N501 1.433 . S
C526 C527 1.363 . S
C526 C531 1.370 . S
C527 H500 0.929 . S
C527 C526 1.363 . S
C527 C528 1.385 . S
C528 H502 0.930 . S
C528 C527 1.385 . S
C528 C529 1.357 . S
C529 C528 1.357 . S
C529 C530 1.406 . S
C530 H504 0.929 . S
C530 C529 1.406 . S
C530 C531 1.391 . S
C531 H503 0.931 . S
C531 C526 1.370 . S
C531 C530 1.391 . S
C532 N501 1.435 . S
C532 C533 1.358 . S
C532 C537 1.371 . S
C533 H505 0.930 . S
C533 C532 1.358 . S
C533 C534 1.405 . S
C534 H506 0.932 . S
C534 C533 1.405 . S
C534 C535 1.383 . S
C535 C534 1.383 . S
C535 C536 1.393 . S
C536 H508 0.931 . S
C536 C535 1.393 . S
C536 C537 1.382 . S
C537 H507 0.929 . S
C537 C532 1.371 . S
C537 C536 1.382 . S
C538 N501 1.423 . S
C538 C539 1.362 . S
C538 C543 1.388 . S
C539 H509 0.929 . S
C539 C538 1.362 . S
C539 C540 1.376 . S
C540 H511 0.931 . S
C540 C539 1.376 . S
C540 C541 1.396 . S
C541 C540 1.396 . S
C541 C542 1.348 . S
C541 C559 1.472 . S
C542 H512 0.929 . S
C542 C541 1.348 . S
C542 C543 1.443 . S
C543 H510 0.932 . S
C543 C538 1.388 . S
C543 C542 1.443 . S
C544 N524 1.433 . S
C544 C545 1.363 . S
C544 C549 1.370 . S
C545 H513 0.929 . S
C545 C544 1.363 . S
C545 C546 1.385 . S
C546 H514 0.930 . S
C546 C545 1.385 . S
C546 C547 1.357 . S
C547 C546 1.357 . S
C547 C548 1.406 . S
C548 H515 0.929 . S
C548 C547 1.406 . S
C548 C549 1.391 . S
C549 H516 0.931 . S
C549 C544 1.370 . S
C549 C548 1.391 . S
C550 N524 1.435 . S
C550 C551 1.358 . S
C550 C555 1.371 . S
C551 H517 0.930 . S
C551 C550 1.358 . S
C551 C552 1.405 . S
C552 H518 0.932 . S
C552 C551 1.405 . S
C552 C553 1.383 . S
C553 C552 1.383 . S
C553 C554 1.393 . S
C554 H519 0.931 . S
C554 C553 1.393 . S
C554 C555 1.382 . S
C555 H520 0.929 . S
C555 C550 1.371 . S
C555 C554 1.382 . S
C556 N524 1.423 . S
C556 C557 1.362 . S
C556 C561 1.388 . S
C557 H521 0.929 . S
C557 C556 1.362 . S
C557 C558 1.376 . S
C558 H522 0.931 . S
C558 C557 1.376 . S
C558 C559 1.396 . S
C559 C541 1.472 . S
C559 C558 1.396 . S
C559 C560 1.348 . S
C560 H523 0.929 . S
C560 C559 1.348 . S
C560 C561 1.443 . S
C561 H525 0.932 . S
C561 C556 1.388 . S
C561 C560 1.443 . S
H562 C589 0.929 . S
N563 C588 1.433 . S
N563 C594 1.435 . S
N563 C600 1.423 . S
H564 C590 0.930 . S
H565 C593 0.931 . S
H566 C592 0.929 . S
H567 C595 0.930 . S
H568 C596 0.932 . S
H569 C599 0.929 . S
H570 C598 0.931 . S
H571 C601 0.929 . S
H572 C605 0.932 . S
H573 C602 0.931 . S
H574 C604 0.929 . S
H575 C607 0.929 . S
H576 C608 0.930 . S
H577 C610 0.929 . S
H578 C611 0.931 . S
H579 C613 0.930 . S
H580 C614 0.932 . S
H581 C616 0.931 . S
H582 C617 0.929 . S
H583 C619 0.929 . S
H584 C620 0.931 . S
H585 C622 0.929 . S
N586 C606 1.433 . S
N586 C612 1.435 . S
N586 C618 1.423 . S
H587 C623 0.932 . S
C588 N563 1.433 . S
C588 C589 1.363 . S
C588 C593 1.370 . S
C589 H562 0.929 . S
C589 C588 1.363 . S
C589 C590 1.385 . S
C590 H564 0.930 . S
C590 C589 1.385 . S
C590 C591 1.357 . S
C591 C590 1.357 . S
C591 C592 1.406 . S
C592 H566 0.929 . S
C592 C591 1.406 . S
C592 C593 1.391 . S
C593 H565 0.931 . S
C593 C588 1.370 . S
C593 C592 1.391 . S
C594 N563 1.435 . S
C594 C595 1.358 . S
C594 C599 1.371 . S
C595 H567 0.930 . S
C595 C594 1.358 . S
C595 C596 1.405 . S
C596 H568 0.932 . S
C596 C595 1.405 . S
C596 C597 1.383 . S
C597 C596 1.383 . S
C597 C598 1.393 . S
C598 H570 0.931 . S
C598 C597 1.393 . S
C598 C599 1.382 . S
C599 H569 0.929 . S
C599 C594 1.371 . S
C599 C598 1.382 . S
C600 N563 1.423 . S
C600 C601 1.362 . S
C600 C605 1.388 . S
C601 H571 0.929 . S
C601 C600 1.362 . S
C601 C602 1.376 . S
C602 H573 0.931 . S
C602 C601 1.376 . S
C602 C603 1.396 . S
C603 C602 1.396 . S
C603 C604 1.348 . S
C603 C621 1.472 . S
C604 H574 0.929 . S
C604 C603 1.348 . S
C604 C605 1.443 . S
C605 H572 0.932 . S
C605 C600 1.388 . S
C605 C604 1.443 . S
C606 N586 1.433 . S
C606 C607 1.363 . S
C606 C611 1.370 . S
C607 H575 0.929 . S
C607 C606 1.363 . S
C607 C608 1.385 . S
C608 H576 0.930 . S
C608 C607 1.385 . S
C608 C609 1.357 . S
C609 C608 1.357 . S
C609 C610 1.406 . S
C610 H577 0.929 . S
C610 C609 1.406 . S
C610 C611 1.391 . S
C611 H578 0.931 . S
C611 C606 1.370 . S
C611 C610 1.391 . S
C612 N586 1.435 . S
C612 C613 1.358 . S
C612 C617 1.371 . S
C613 H579 0.930 . S
C613 C612 1.358 . S
C613 C614 1.405 . S
C614 H580 0.932 . S
C614 C613 1.405 . S
C614 C615 1.383 . S
C615 C614 1.383 . S
C615 C616 1.393 . S
C616 H581 0.931 . S
C616 C615 1.393 . S
C616 C617 1.382 . S
C617 H582 0.929 . S
C617 C612 1.371 . S
C617 C616 1.382 . S
C618 N586 1.423 . S
C618 C619 1.362 . S
C618 C623 1.388 . S
C619 H583 0.929 . S
C619 C618 1.362 . S
C619 C620 1.376 . S
C620 H584 0.931 . S
C620 C619 1.376 . S
C620 C621 1.396 . S
C621 C603 1.472 . S
C621 C620 1.396 . S
C621 C622 1.348 . S
C622 H585 0.929 . S
C622 C621 1.348 . S
C622 C623 1.443 . S
C623 H587 0.932 . S
C623 C618 1.388 . S
C623 C622 1.443 . S
H624 C651 0.929 . S
N625 C650 1.433 . S
N625 C656 1.435 . S
N625 C662 1.423 . S
H626 C652 0.930 . S
H627 C655 0.931 . S
H628 C654 0.929 . S
H629 C657 0.930 . S
H630 C658 0.932 . S
H631 C661 0.929 . S
H632 C660 0.931 . S
H633 C663 0.929 . S
H634 C667 0.932 . S
H635 C664 0.931 . S
H636 C666 0.929 . S
H637 C669 0.929 . S
H638 C670 0.930 . S
H639 C672 0.929 . S
H640 C673 0.931 . S
H641 C675 0.930 . S
H642 C676 0.932 . S
H643 C678 0.931 . S
H644 C679 0.929 . S
H645 C681 0.929 . S
H646 C682 0.931 . S
H647 C684 0.929 . S
N648 C668 1.433 . S
N648 C674 1.435 . S
N648 C680 1.423 . S
H649 C685 0.932 . S
C650 N625 1.433 . S
C650 C651 1.363 . S
C650 C655 1.370 . S
C651 H624 0.929 . S
C651 C650 1.363 . S
C651 C652 1.385 . S
C652 H626 0.930 . S
C652 C651 1.385 . S
C652 C653 1.357 . S
C653 C652 1.357 . S
C653 C654 1.406 . S
C654 H628 0.929 . S
C654 C653 1.406 . S
C654 C655 1.391 . S
C655 H627 0.931 . S
C655 C650 1.370 . S
C655 C654 1.391 . S
C656 N625 1.435 . S
C656 C657 1.358 . S
C656 C661 1.371 . S
C657 H629 0.930 . S
C657 C656 1.358 . S
C657 C658 1.405 . S
C658 H630 0.932 . S
C658 C657 1.405 . S
C658 C659 1.383 . S
C659 C658 1.383 . S
C659 C660 1.393 . S
C660 H632 0.931 . S
C660 C659 1.393 . S
C660 C661 1.382 . S
C661 H631 0.929 . S
C661 C656 1.371 . S
C661 C660 1.382 . S
C662 N625 1.423 . S
C662 C663 1.362 . S
C662 C667 1.388 . S
C663 H633 0.929 . S
C663 C662 1.362 . S
C663 C664 1.376 . S
C664 H635 0.931 . S
C664 C663 1.376 . S
C664 C665 1.396 . S
C665 C664 1.396 . S
C665 C666 1.348 . S
C665 C683 1.472 . S
C666 H636 0.929 . S
C666 C665 1.348 . S
C666 C667 1.443 . S
C667 H634 0.932 . S
C667 C662 1.388 . S
C667 C666 1.443 . S
C668 N648 1.433 . S
C668 C669 1.363 . S
C668 C673 1.370 . S
C669 H637 0.929 . S
C669 C668 1.363 . S
C669 C670 1.385 . S
C670 H638 0.930 . S
C670 C669 1.385 . S
C670 C671 1.357 . S
C671 C670 1.357 . S
C671 C672 1.406 . S
C672 H639 0.929 . S
C672 C671 1.406 . S
C672 C673 1.391 . S
C673 H640 0.931 . S
C673 C668 1.370 . S
C673 C672 1.391 . S
C674 N648 1.435 . S
C674 C675 1.358 . S
C674 C679 1.371 . S
C675 H641 0.930 . S
C675 C674 1.358 . S
C675 C676 1.405 . S
C676 H642 0.932 . S
C676 C675 1.405 . S
C676 C677 1.383 . S
C677 C676 1.383 . S
C677 C678 1.393 . S
C678 H643 0.931 . S
C678 C677 1.393 . S
C678 C679 1.382 . S
C679 H644 0.929 . S
C679 C674 1.371 . S
C679 C678 1.382 . S
C680 N648 1.423 . S
C680 C681 1.362 . S
C680 C685 1.388 . S
C681 H645 0.929 . S
C681 C680 1.362 . S
C681 C682 1.376 . S
C682 H646 0.931 . S
C682 C681 1.376 . S
C682 C683 1.396 . S
C683 C665 1.472 . S
C683 C682 1.396 . S
C683 C684 1.348 . S
C684 H647 0.929 . S
C684 C683 1.348 . S
C684 C685 1.443 . S
C685 H649 0.932 . S
C685 C680 1.388 . S
C685 C684 1.443 . S
H686 C713 0.929 . S
N687 C712 1.433 . S
N687 C718 1.435 . S
N687 C724 1.423 . S
H688 C714 0.930 . S
H689 C717 0.931 . S
H690 C716 0.929 . S
H691 C719 0.930 . S
H692 C720 0.932 . S
H693 C723 0.929 . S
H694 C722 0.931 . S
H695 C725 0.929 . S
H696 C729 0.932 . S
H697 C726 0.931 . S
H698 C728 0.929 . S
H699 C731 0.929 . S
H700 C732 0.930 . S
H701 C734 0.929 . S
H702 C735 0.931 . S
H703 C737 0.930 . S
H704 C738 0.932 . S
H705 C740 0.931 . S
H706 C741 0.929 . S
H707 C743 0.929 . S
H708 C744 0.931 . S
H709 C746 0.929 . S
N710 C730 1.433 . S
N710 C736 1.435 . S
N710 C742 1.423 . S
H711 C747 0.932 . S
C712 N687 1.433 . S
C712 C713 1.363 . S
C712 C717 1.370 . S
C713 H686 0.929 . S
C713 C712 1.363 . S
C713 C714 1.385 . S
C714 H688 0.930 . S
C714 C713 1.385 . S
C714 C715 1.357 . S
C715 C714 1.357 . S
C715 C716 1.406 . S
C716 H690 0.929 . S
C716 C715 1.406 . S
C716 C717 1.391 . S
C717 H689 0.931 . S
C717 C712 1.370 . S
C717 C716 1.391 . S
C718 N687 1.435 . S
C718 C719 1.358 . S
C718 C723 1.371 . S
C719 H691 0.930 . S
C719 C718 1.358 . S
C719 C720 1.405 . S
C720 H692 0.932 . S
C720 C719 1.405 . S
C720 C721 1.383 . S
C721 C720 1.383 . S
C721 C722 1.393 . S
C722 H694 0.931 . S
C722 C721 1.393 . S
C722 C723 1.382 . S
C723 H693 0.929 . S
C723 C718 1.371 . S
C723 C722 1.382 . S
C724 N687 1.423 . S
C724 C725 1.362 . S
C724 C729 1.388 . S
C725 H695 0.929 . S
C725 C724 1.362 . S
C725 C726 1.376 . S
C726 H697 0.931 . S
C726 C725 1.376 . S
C726 C727 1.396 . S
C727 C726 1.396 . S
C727 C728 1.348 . S
C727 C745 1.472 . S
C728 H698 0.929 . S
C728 C727 1.348 . S
C728 C729 1.443 . S
C729 H696 0.932 . S
C729 C724 1.388 . S
C729 C728 1.443 . S
C730 N710 1.433 . S
C730 C731 1.363 . S
C730 C735 1.370 . S
C731 H699 0.929 . S
C731 C730 1.363 . S
C731 C732 1.385 . S
C732 H700 0.930 . S
C732 C731 1.385 . S
C732 C733 1.357 . S
C733 C732 1.357 . S
C733 C734 1.406 . S
C734 H701 0.929 . S
C734 C733 1.406 . S
C734 C735 1.391 . S
C735 H702 0.931 . S
C735 C730 1.370 . S
C735 C734 1.391 . S
C736 N710 1.435 . S
C736 C737 1.358 . S
C736 C741 1.371 . S
C737 H703 0.930 . S
C737 C736 1.358 . S
C737 C738 1.405 . S
C738 H704 0.932 . S
C738 C737 1.405 . S
C738 C739 1.383 . S
C739 C738 1.383 . S
C739 C740 1.393 . S
C740 H705 0.931 . S
C740 C739 1.393 . S
C740 C741 1.382 . S
C741 H706 0.929 . S
C741 C736 1.371 . S
C741 C740 1.382 . S
C742 N710 1.423 . S
C742 C743 1.362 . S
C742 C747 1.388 . S
C743 H707 0.929 . S
C743 C742 1.362 . S
C743 C744 1.376 . S
C744 H708 0.931 . S
C744 C743 1.376 . S
C744 C745 1.396 . S
C745 C727 1.472 . S
C745 C744 1.396 . S
C745 C746 1.348 . S
C746 H709 0.929 . S
C746 C745 1.348 . S
C746 C747 1.443 . S
C747 H711 0.932 . S
C747 C742 1.388 . S
C747 C746 1.443 . S
H748 C775 0.929 . S
N749 C774 1.433 . S
N749 C780 1.435 . S
N749 C786 1.423 . S
H750 C776 0.930 . S
H751 C779 0.931 . S
H752 C778 0.929 . S
H753 C781 0.930 . S
H754 C782 0.932 . S
H755 C785 0.929 . S
H756 C784 0.931 . S
H757 C787 0.929 . S
H758 C791 0.932 . S
H759 C788 0.931 . S
H760 C790 0.929 . S
H761 C793 0.929 . S
H762 C794 0.930 . S
H763 C796 0.929 . S
H764 C797 0.931 . S
H765 C799 0.930 . S
H766 C800 0.932 . S
H767 C802 0.931 . S
H768 C803 0.929 . S
H769 C805 0.929 . S
H770 C806 0.931 . S
H771 C808 0.929 . S
N772 C792 1.433 . S
N772 C798 1.435 . S
N772 C804 1.423 . S
H773 C809 0.932 . S
C774 N749 1.433 . S
C774 C775 1.363 . S
C774 C779 1.370 . S
C775 H748 0.929 . S
C775 C774 1.363 . S
C775 C776 1.385 . S
C776 H750 0.930 . S
C776 C775 1.385 . S
C776 C777 1.357 . S
C777 C776 1.357 . S
C777 C778 1.406 . S
C778 H752 0.929 . S
C778 C777 1.406 . S
C778 C779 1.391 . S
C779 H751 0.931 . S
C779 C774 1.370 . S
C779 C778 1.391 . S
C780 N749 1.435 . S
C780 C781 1.358 . S
C780 C785 1.371 . S
C781 H753 0.930 . S
C781 C780 1.358 . S
C781 C782 1.405 . S
C782 H754 0.932 . S
C782 C781 1.405 . S
C782 C783 1.383 . S
C783 C782 1.383 . S
C783 C784 1.393 . S
C784 H756 0.931 . S
C784 C783 1.393 . S
C784 C785 1.382 . S
C785 H755 0.929 . S
C785 C780 1.371 . S
C785 C784 1.382 . S
C786 N749 1.423 . S
C786 C787 1.362 . S
C786 C791 1.388 . S
C787 H757 0.929 . S
C787 C786 1.362 . S
C787 C788 1.376 . S
C788 H759 0.931 . S
C788 C787 1.376 . S
C788 C789 1.396 . S
C789 C788 1.396 . S
C789 C790 1.348 . S
C789 C807 1.472 . S
C790 H760 0.929 . S
C790 C789 1.348 . S
C790 C791 1.443 . S
C791 H758 0.932 . S
C791 C786 1.388 . S
C791 C790 1.443 . S
C792 N772 1.433 . S
C792 C793 1.363 . S
C792 C797 1.370 . S
C793 H761 0.929 . S
C793 C792 1.363 . S
C793 C794 1.385 . S
C794 H762 0.930 . S
C794 C793 1.385 . S
C794 C795 1.357 . S
C795 C794 1.357 . S
C795 C796 1.406 . S
C796 H763 0.929 . S
C796 C795 1.406 . S
C796 C797 1.391 . S
C797 H764 0.931 . S
C797 C792 1.370 . S
C797 C796 1.391 . S
C798 N772 1.435 . S
C798 C799 1.358 . S
C798 C803 1.371 . S
C799 H765 0.930 . S
C799 C798 1.358 . S
C799 C800 1.405 . S
C800 H766 0.932 . S
C800 C799 1.405 . S
C800 C801 1.383 . S
C801 C800 1.383 . S
C801 C802 1.393 . S
C802 H767 0.931 . S
C802 C801 1.393 . S
C802 C803 1.382 . S
C803 H768 0.929 . S
C803 C798 1.371 . S
C803 C802 1.382 . S
C804 N772 1.423 . S
C804 C805 1.362 . S
C804 C809 1.388 . S
C805 H769 0.929 . S
C805 C804 1.362 . S
C805 C806 1.376 . S
C806 H770 0.931 . S
C806 C805 1.376 . S
C806 C807 1.396 . S
C807 C789 1.472 . S
C807 C806 1.396 . S
C807 C808 1.348 . S
C808 H771 0.929 . S
C808 C807 1.348 . S
C808 C809 1.443 . S
C809 H773 0.932 . S
C809 C804 1.388 . S
C809 C808 1.443 . S
H810 C837 0.929 . S
N811 C836 1.433 . S
N811 C842 1.435 . S
N811 C848 1.423 . S
H812 C838 0.930 . S
H813 C841 0.931 1_655 S
H814 C840 0.946 . S
H815 C843 0.930 1_655 S
H816 C844 0.932 1_655 S
H817 C847 0.929 . S
H818 C846 0.931 . S
H819 C849 0.929 . S
H820 C853 0.932 . S
H821 C850 0.931 . S
H822 C852 0.929 . S
H823 C855 0.929 . S
H824 C856 0.930 . S
H825 C858 0.972 . S
H826 C859 0.931 1_655 S
H827 C861 0.930 1_655 S
H828 C862 0.932 1_655 S
H829 C864 0.931 . S
H830 C865 0.929 . S
H831 C867 0.929 . S
H832 C868 0.931 . S
H833 C870 0.929 . S
N834 C854 1.433 . S
N834 C860 1.435 . S
N834 C866 1.423 . S
H835 C871 0.932 . S
C836 N811 1.433 . S
C836 C837 1.363 . S
C836 C841 1.370 . S
C837 H810 0.929 . S
C837 C836 1.363 . S
C837 C838 1.385 . S
C838 H812 0.930 . S
C838 C837 1.385 . S
C838 C839 1.357 . S
C839 C838 1.357 . S
C839 C840 1.413 1_455 S
C840 H814 0.946 . S
C840 C839 1.413 1_655 S
C840 C841 1.372 1_655 S
C841 H813 0.931 1_455 S
C841 C836 1.370 . S
C841 C840 1.372 1_455 S
C842 N811 1.435 . S
C842 C843 1.358 . S
C842 C847 1.371 . S
C843 H815 0.930 1_455 S
C843 C842 1.358 . S
C843 C844 1.405 . S
C844 H816 0.932 1_455 S
C844 C843 1.405 . S
C844 C845 1.383 . S
C845 C844 1.383 . S
C845 C846 1.393 . S
C846 H818 0.931 . S
C846 C845 1.393 . S
C846 C847 1.382 . S
C847 H817 0.929 . S
C847 C842 1.371 . S
C847 C846 1.382 . S
C848 N811 1.423 . S
C848 C849 1.362 . S
C848 C853 1.388 . S
C849 H819 0.929 . S
C849 C848 1.362 . S
C849 C850 1.376 . S
C850 H821 0.931 . S
C850 C849 1.376 . S
C850 C851 1.396 . S
C851 C850 1.396 . S
C851 C852 1.348 . S
C851 C869 1.472 . S
C852 H822 0.929 . S
C852 C851 1.348 . S
C852 C853 1.443 . S
C853 H820 0.932 . S
C853 C848 1.388 . S
C853 C852 1.443 . S
C854 N834 1.433 . S
C854 C855 1.363 . S
C854 C859 1.370 . S
C855 H823 0.929 . S
C855 C854 1.363 . S
C855 C856 1.385 . S
C856 H824 0.930 . S
C856 C855 1.385 . S
C856 C857 1.357 . S
C857 C856 1.357 . S
C857 C858 1.366 1_455 S
C858 H825 0.972 . S
C858 C857 1.366 1_655 S
C858 C859 1.391 1_655 S
C859 H826 0.931 1_455 S
C859 C854 1.370 . S
C859 C858 1.391 1_455 S
C860 N834 1.435 . S
C860 C861 1.358 . S
C860 C865 1.371 . S
C861 H827 0.930 1_455 S
C861 C860 1.358 . S
C861 C862 1.405 . S
C862 H828 0.932 1_455 S
C862 C861 1.405 . S
C862 C863 1.383 . S
C863 C862 1.383 . S
C863 C864 1.393 . S
C864 H829 0.931 . S
C864 C863 1.393 . S
C864 C865 1.382 . S
C865 H830 0.929 . S
C865 C860 1.371 . S
C865 C864 1.382 . S
C866 N834 1.423 . S
C866 C867 1.362 . S
C866 C871 1.388 . S
C867 H831 0.929 . S
C867 C866 1.362 . S
C867 C868 1.376 . S
C868 H832 0.931 . S
C868 C867 1.376 . S
C868 C869 1.396 . S
C869 C851 1.472 . S
C869 C868 1.396 . S
C869 C870 1.348 . S
C870 H833 0.929 . S
C870 C869 1.348 . S
C870 C871 1.443 . S
C871 H835 0.932 . S
C871 C866 1.388 . S
C871 C870 1.443 . S
H872 C899 0.929 . S
N873 C898 1.433 . S
N873 C904 1.435 . S
N873 C910 1.423 . S
H874 C900 0.930 . S
H875 C903 0.931 . S
H876 C902 0.929 . S
H877 C905 0.930 . S
H878 C906 0.932 . S
H879 C909 0.929 . S
H880 C908 0.931 . S
H881 C911 0.929 . S
H882 C915 0.932 . S
H883 C912 0.931 . S
H884 C914 0.929 . S
H885 C917 0.929 . S
H886 C918 0.930 . S
H887 C920 0.929 . S
H888 C921 0.931 . S
H889 C923 0.930 . S
H890 C924 0.932 . S
H891 C926 0.931 . S
H892 C927 0.929 . S
H893 C929 0.929 . S
H894 C930 0.931 . S
H895 C932 0.929 . S
N896 C916 1.433 . S
N896 C922 1.435 . S
N896 C928 1.423 . S
H897 C933 0.932 . S
C898 N873 1.433 . S
C898 C899 1.363 . S
C898 C903 1.370 . S
C899 H872 0.929 . S
C899 C898 1.363 . S
C899 C900 1.385 . S
C900 H874 0.930 . S
C900 C899 1.385 . S
C900 C901 1.357 . S
C901 C900 1.357 . S
C901 C902 1.406 . S
C902 H876 0.929 . S
C902 C901 1.406 . S
C902 C903 1.391 . S
C903 H875 0.931 . S
C903 C898 1.370 . S
C903 C902 1.391 . S
C904 N873 1.435 . S
C904 C905 1.358 . S
C904 C909 1.371 . S
C905 H877 0.930 . S
C905 C904 1.358 . S
C905 C906 1.405 . S
C906 H878 0.932 . S
C906 C905 1.405 . S
C906 C907 1.383 . S
C907 C906 1.383 . S
C907 C908 1.393 . S
C908 H880 0.931 . S
C908 C907 1.393 . S
C908 C909 1.382 . S
C909 H879 0.929 . S
C909 C904 1.371 . S
C909 C908 1.382 . S
C910 N873 1.423 . S
C910 C911 1.362 . S
C910 C915 1.388 . S
C911 H881 0.929 . S
C911 C910 1.362 . S
C911 C912 1.376 . S
C912 H883 0.931 . S
C912 C911 1.376 . S
C912 C913 1.396 . S
C913 C912 1.396 . S
C913 C914 1.348 . S
C913 C931 1.472 . S
C914 H884 0.929 . S
C914 C913 1.348 . S
C914 C915 1.443 . S
C915 H882 0.932 . S
C915 C910 1.388 . S
C915 C914 1.443 . S
C916 N896 1.433 . S
C916 C917 1.363 . S
C916 C921 1.370 . S
C917 H885 0.929 . S
C917 C916 1.363 . S
C917 C918 1.385 . S
C918 H886 0.930 . S
C918 C917 1.385 . S
C918 C919 1.357 . S
C919 C918 1.357 . S
C919 C920 1.406 . S
C920 H887 0.929 . S
C920 C919 1.406 . S
C920 C921 1.391 . S
C921 H888 0.931 . S
C921 C916 1.370 . S
C921 C920 1.391 . S
C922 N896 1.435 . S
C922 C923 1.358 . S
C922 C927 1.371 . S
C923 H889 0.930 . S
C923 C922 1.358 . S
C923 C924 1.405 . S
C924 H890 0.932 . S
C924 C923 1.405 . S
C924 C925 1.383 . S
C925 C924 1.383 . S
C925 C926 1.393 . S
C926 H891 0.931 . S
C926 C925 1.393 . S
C926 C927 1.382 . S
C927 H892 0.929 . S
C927 C922 1.371 . S
C927 C926 1.382 . S
C928 N896 1.423 . S
C928 C929 1.362 . S
C928 C933 1.388 . S
C929 H893 0.929 . S
C929 C928 1.362 . S
C929 C930 1.376 . S
C930 H894 0.931 . S
C930 C929 1.376 . S
C930 C931 1.396 . S
C931 C913 1.472 . S
C931 C930 1.396 . S
C931 C932 1.348 . S
C932 H895 0.929 . S
C932 C931 1.348 . S
C932 C933 1.443 . S
C933 H897 0.932 . S
C933 C928 1.388 . S
C933 C932 1.443 . S
H934 C961 0.929 . S
N935 C960 1.433 . S
N935 C966 1.435 . S
N935 C972 1.423 . S
H936 C962 0.930 . S
H937 C965 0.931 . S
H938 C964 0.929 . S
H939 C967 0.930 . S
H940 C968 0.932 . S
H941 C971 0.929 . S
H942 C970 0.931 . S
H943 C973 0.929 . S
H944 C977 0.932 1_545 S
H945 C974 0.931 . S
H946 C976 0.929 . S
H947 C979 0.929 . S
H948 C980 0.930 . S
H949 C982 0.929 . S
H950 C983 0.931 . S
H951 C985 0.930 . S
H952 C986 0.932 . S
H953 C988 0.931 . S
H954 C989 0.929 . S
H955 C991 0.929 . S
H956 C992 0.931 . S
H957 C994 0.929 . S
N958 C978 1.433 . S
N958 C984 1.435 . S
N958 C990 1.423 . S
H959 C995 0.932 1_545 S
C960 N935 1.433 . S
C960 C961 1.363 . S
C960 C965 1.370 1_565 S
C961 H934 0.929 . S
C961 C960 1.363 . S
C961 C962 1.385 . S
C962 H936 0.930 . S
C962 C961 1.385 . S
C962 C963 1.357 1_565 S
C963 C962 1.357 1_545 S
C963 C964 1.406 . S
C964 H938 0.929 . S
C964 C963 1.406 . S
C964 C965 1.391 . S
C965 H937 0.931 . S
C965 C960 1.370 1_545 S
C965 C964 1.391 . S
C966 N935 1.435 . S
C966 C967 1.358 1_565 S
C966 C971 1.371 . S
C967 H939 0.930 . S
C967 C966 1.358 1_545 S
C967 C968 1.405 . S
C968 H940 0.932 . S
C968 C967 1.405 . S
C968 C969 1.383 1_545 S
C969 C968 1.383 1_565 S
C969 C970 1.393 . S
C970 H942 0.931 . S
C970 C969 1.393 . S
C970 C971 1.382 . S
C971 H941 0.929 . S
C971 C966 1.371 . S
C971 C970 1.382 . S
C972 N935 1.423 . S
C972 C973 1.362 . S
C972 C977 1.388 . S
C973 H943 0.929 . S
C973 C972 1.362 . S
C973 C974 1.376 . S
C974 H945 0.931 . S
C974 C973 1.376 . S
C974 C975 1.396 . S
C975 C974 1.396 . S
C975 C976 1.348 . S
C975 C993 1.472 . S
C976 H946 0.929 . S
C976 C975 1.348 . S
C976 C977 1.443 . S
C977 H944 0.932 1_565 S
C977 C972 1.388 . S
C977 C976 1.443 . S
C978 N958 1.433 . S
C978 C979 1.363 . S
C978 C983 1.370 1_565 S
C979 H947 0.929 . S
C979 C978 1.363 . S
C979 C980 1.385 . S
C980 H948 0.930 . S
C980 C979 1.385 . S
C980 C981 1.357 1_565 S
C981 C980 1.357 1_545 S
C981 C982 1.406 . S
C982 H949 0.929 . S
C982 C981 1.406 . S
C982 C983 1.391 . S
C983 H950 0.931 . S
C983 C978 1.370 1_545 S
C983 C982 1.391 . S
C984 N958 1.435 . S
C984 C985 1.358 1_565 S
C984 C989 1.371 . S
C985 H951 0.930 . S
C985 C984 1.358 1_545 S
C985 C986 1.405 . S
C986 H952 0.932 . S
C986 C985 1.405 . S
C986 C987 1.383 1_545 S
C987 C986 1.383 1_565 S
C987 C988 1.393 . S
C988 H953 0.931 . S
C988 C987 1.393 . S
C988 C989 1.382 . S
C989 H954 0.929 . S
C989 C984 1.371 . S
C989 C988 1.382 . S
C990 N958 1.423 . S
C990 C991 1.362 . S
C990 C995 1.388 . S
C991 H955 0.929 . S
C991 C990 1.362 . S
C991 C992 1.376 . S
C992 H956 0.931 . S
C992 C991 1.376 . S
C992 C993 1.396 . S
C993 C975 1.472 . S
C993 C992 1.396 . S
C993 C994 1.348 . S
C994 H957 0.929 . S
C994 C993 1.348 . S
C994 C995 1.443 . S
C995 H959 0.932 1_565 S
C995 C990 1.388 . S
C995 C994 1.443 . S
H996 C1023 0.929 . S
N997 C1022 1.433 . S
N997 C1028 1.435 . S
N997 C1034 1.427 1_545 S
H998 C1024 0.930 . S
H999 C1027 0.931 . S
H1000 C1026 0.929 . S
H1001 C1029 0.930 . S
H1002 C1030 0.932 . S
H1003 C1033 0.929 . S
H1004 C1032 0.931 1_565 S
H1005 C1035 0.929 . S
H1006 C1039 0.932 . S
H1007 C1036 0.931 . S
H1008 C1038 0.929 . S
H1009 C1041 0.929 . S
H1010 C1042 0.930 . S
H1011 C1044 0.929 . S
H1012 C1045 0.931 . S
H1013 C1047 0.930 . S
H1014 C1048 0.932 . S
H1015 C1050 0.931 1_565 S
H1016 C1051 0.929 . S
H1017 C1053 0.929 . S
H1018 C1054 0.931 . S
H1019 C1056 0.929 . S
N1020 C1040 1.433 . S
N1020 C1046 1.435 . S
N1020 C1052 1.421 1_545 S
H1021 C1057 0.932 . S
C1022 N997 1.433 . S
C1022 C1023 1.363 1_545 S
C1022 C1027 1.370 . S
C1023 H996 0.929 . S
C1023 C1022 1.363 1_565 S
C1023 C1024 1.385 . S
C1024 H998 0.930 . S
C1024 C1023 1.385 . S
C1024 C1025 1.357 1_565 S
C1025 C1024 1.357 1_545 S
C1025 C1026 1.406 . S
C1026 H1000 0.929 . S
C1026 C1025 1.406 . S
C1026 C1027 1.391 . S
C1027 H999 0.931 . S
C1027 C1022 1.370 . S
C1027 C1026 1.391 . S
C1028 N997 1.435 . S
C1028 C1029 1.358 . S
C1028 C1033 1.371 1_545 S
C1029 H1001 0.930 . S
C1029 C1028 1.358 . S
C1029 C1030 1.405 . S
C1030 H1002 0.932 . S
C1030 C1029 1.405 . S
C1030 C1031 1.383 . S
C1031 C1030 1.383 . S
C1031 C1032 1.393 . S
C1032 H1004 0.931 1_545 S
C1032 C1031 1.393 . S
C1032 C1033 1.382 1_545 S
C1033 H1003 0.929 . S
C1033 C1028 1.371 1_565 S
C1033 C1032 1.382 1_565 S
C1034 N997 1.427 1_565 S
C1034 C1035 1.357 . S
C1034 C1039 1.390 1_565 S
C1035 H1005 0.929 . S
C1035 C1034 1.357 . S
C1035 C1036 1.376 . S
C1036 H1007 0.931 . S
C1036 C1035 1.376 . S
C1036 C1037 1.396 . S
C1037 C1036 1.396 . S
C1037 C1038 1.348 1_565 S
C1037 C1055 1.472 . S
C1038 H1008 0.929 . S
C1038 C1037 1.348 1_545 S
C1038 C1039 1.443 . S
C1039 H1006 0.932 . S
C1039 C1034 1.390 1_545 S
C1039 C1038 1.443 . S
C1040 N1020 1.433 . S
C1040 C1041 1.363 1_545 S
C1040 C1045 1.370 . S
C1041 H1009 0.929 . S
C1041 C1040 1.363 1_565 S
C1041 C1042 1.385 . S
C1042 H1010 0.930 . S
C1042 C1041 1.385 . S
C1042 C1043 1.357 1_565 S
C1043 C1042 1.357 1_545 S
C1043 C1044 1.406 . S
C1044 H1011 0.929 . S
C1044 C1043 1.406 . S
C1044 C1045 1.391 . S
C1045 H1012 0.931 . S
C1045 C1040 1.370 . S
C1045 C1044 1.391 . S
C1046 N1020 1.435 . S
C1046 C1047 1.358 . S
C1046 C1051 1.371 1_545 S
C1047 H1013 0.930 . S
C1047 C1046 1.358 . S
C1047 C1048 1.405 . S
C1048 H1014 0.932 . S
C1048 C1047 1.405 . S
C1048 C1049 1.383 . S
C1049 C1048 1.383 . S
C1049 C1050 1.393 . S
C1050 H1015 0.931 1_545 S
C1050 C1049 1.393 . S
C1050 C1051 1.382 1_545 S
C1051 H1016 0.929 . S
C1051 C1046 1.371 1_565 S
C1051 C1050 1.382 1_565 S
C1052 N1020 1.421 1_565 S
C1052 C1053 1.361 . S
C1052 C1057 1.393 1_565 S
C1053 H1017 0.929 . S
C1053 C1052 1.361 . S
C1053 C1054 1.376 . S
C1054 H1018 0.931 . S
C1054 C1053 1.376 . S
C1054 C1055 1.396 . S
C1055 C1037 1.472 . S
C1055 C1054 1.396 . S
C1055 C1056 1.348 1_565 S
C1056 H1019 0.929 . S
C1056 C1055 1.348 1_545 S
C1056 C1057 1.443 . S
C1057 H1021 0.932 . S
C1057 C1052 1.393 1_545 S
C1057 C1056 1.443 . S
H1058 C1085 0.929 . S
N1059 C1084 1.433 . S
N1059 C1090 1.435 . S
N1059 C1096 1.423 . S
H1060 C1086 0.930 . S
H1061 C1089 0.931 . S
H1062 C1088 0.929 . S
H1063 C1091 0.930 . S
H1064 C1092 0.932 . S
H1065 C1095 0.929 . S
H1066 C1094 0.931 . S
H1067 C1097 0.929 . S
H1068 C1101 0.932 1_455 S
H1069 C1098 0.931 . S
H1070 C1100 0.929 . S
H1071 C1103 0.929 . S
H1072 C1104 0.930 . S
H1073 C1106 0.929 . S
H1074 C1107 0.931 . S
H1075 C1109 0.930 . S
H1076 C1110 0.932 . S
H1077 C1112 0.931 . S
H1078 C1113 0.929 . S
H1079 C1115 0.929 . S
H1080 C1116 0.931 . S
H1081 C1118 0.929 . S
N1082 C1102 1.433 . S
N1082 C1108 1.435 . S
N1082 C1114 1.423 . S
H1083 C1119 0.932 1_455 S
C1084 N1059 1.433 . S
C1084 C1085 1.363 . S
C1084 C1089 1.370 1_655 S
C1085 H1058 0.929 . S
C1085 C1084 1.363 . S
C1085 C1086 1.385 . S
C1086 H1060 0.930 . S
C1086 C1085 1.385 . S
C1086 C1087 1.357 1_655 S
C1087 C1086 1.357 1_455 S
C1087 C1088 1.406 . S
C1088 H1062 0.929 . S
C1088 C1087 1.406 . S
C1088 C1089 1.391 . S
C1089 H1061 0.931 . S
C1089 C1084 1.370 1_455 S
C1089 C1088 1.391 . S
C1090 N1059 1.435 . S
C1090 C1091 1.358 1_655 S
C1090 C1095 1.371 . S
C1091 H1063 0.930 . S
C1091 C1090 1.358 1_455 S
C1091 C1092 1.405 . S
C1092 H1064 0.932 . S
C1092 C1091 1.405 . S
C1092 C1093 1.383 1_455 S
C1093 C1092 1.383 1_655 S
C1093 C1094 1.393 . S
C1094 H1066 0.931 . S
C1094 C1093 1.393 . S
C1094 C1095 1.382 . S
C1095 H1065 0.929 . S
C1095 C1090 1.371 . S
C1095 C1094 1.382 . S
C1096 N1059 1.423 . S
C1096 C1097 1.362 . S
C1096 C1101 1.388 . S
C1097 H1067 0.929 . S
C1097 C1096 1.362 . S
C1097 C1098 1.376 . S
C1098 H1069 0.931 . S
C1098 C1097 1.376 . S
C1098 C1099 1.396 . S
C1099 C1098 1.396 . S
C1099 C1100 1.348 . S
C1099 C1117 1.472 . S
C1100 H1070 0.929 . S
C1100 C1099 1.348 . S
C1100 C1101 1.443 . S
C1101 H1068 0.932 1_655 S
C1101 C1096 1.388 . S
C1101 C1100 1.443 . S
C1102 N1082 1.433 . S
C1102 C1103 1.363 . S
C1102 C1107 1.370 1_655 S
C1103 H1071 0.929 . S
C1103 C1102 1.363 . S
C1103 C1104 1.385 . S
C1104 H1072 0.930 . S
C1104 C1103 1.385 . S
C1104 C1105 1.357 1_655 S
C1105 C1104 1.357 1_455 S
C1105 C1106 1.406 . S
C1106 H1073 0.929 . S
C1106 C1105 1.406 . S
C1106 C1107 1.391 . S
C1107 H1074 0.931 . S
C1107 C1102 1.370 1_455 S
C1107 C1106 1.391 . S
C1108 N1082 1.435 . S
C1108 C1109 1.358 1_655 S
C1108 C1113 1.371 . S
C1109 H1075 0.930 . S
C1109 C1108 1.358 1_455 S
C1109 C1110 1.405 . S
C1110 H1076 0.932 . S
C1110 C1109 1.405 . S
C1110 C1111 1.383 1_455 S
C1111 C1110 1.383 1_655 S
C1111 C1112 1.393 . S
C1112 H1077 0.931 . S
C1112 C1111 1.393 . S
C1112 C1113 1.382 . S
C1113 H1078 0.929 . S
C1113 C1108 1.371 . S
C1113 C1112 1.382 . S
C1114 N1082 1.423 . S
C1114 C1115 1.362 . S
C1114 C1119 1.388 . S
C1115 H1079 0.929 . S
C1115 C1114 1.362 . S
C1115 C1116 1.376 . S
C1116 H1080 0.931 . S
C1116 C1115 1.376 . S
C1116 C1117 1.396 . S
C1117 C1099 1.472 . S
C1117 C1116 1.396 . S
C1117 C1118 1.348 . S
C1118 H1081 0.929 . S
C1118 C1117 1.348 . S
C1118 C1119 1.443 . S
C1119 H1083 0.932 1_655 S
C1119 C1114 1.388 . S
C1119 C1118 1.443 . S
H1120 C1147 0.929 . S
N1121 C1146 1.433 . S
N1121 C1152 1.435 . S
N1121 C1158 1.423 . S
H1122 C1148 0.930 . S
H1123 C1151 0.931 . S
H1124 C1150 0.929 . S
H1125 C1153 0.930 . S
H1126 C1154 0.932 . S
H1127 C1157 0.929 . S
H1128 C1156 0.931 . S
H1129 C1159 0.929 . S
H1130 C1163 0.932 . S
H1131 C1160 0.931 . S
H1132 C1162 0.929 . S
H1133 C1165 0.929 . S
H1134 C1166 0.930 . S
H1135 C1168 0.929 . S
H1136 C1169 0.931 . S
H1137 C1171 0.930 . S
H1138 C1172 0.932 . S
H1139 C1174 0.931 . S
H1140 C1175 0.929 . S
H1141 C1177 0.929 . S
H1142 C1178 0.931 . S
H1143 C1180 0.929 . S
N1144 C1164 1.433 . S
N1144 C1170 1.435 . S
N1144 C1176 1.423 . S
H1145 C1181 0.932 . S
C1146 N1121 1.433 . S
C1146 C1147 1.363 . S
C1146 C1151 1.370 . S
C1147 H1120 0.929 . S
C1147 C1146 1.363 . S
C1147 C1148 1.385 . S
C1148 H1122 0.930 . S
C1148 C1147 1.385 . S
C1148 C1149 1.357 . S
C1149 C1148 1.357 . S
C1149 C1150 1.406 . S
C1150 H1124 0.929 . S
C1150 C1149 1.406 . S
C1150 C1151 1.391 . S
C1151 H1123 0.931 . S
C1151 C1146 1.370 . S
C1151 C1150 1.391 . S
C1152 N1121 1.435 . S
C1152 C1153 1.358 . S
C1152 C1157 1.371 . S
C1153 H1125 0.930 . S
C1153 C1152 1.358 . S
C1153 C1154 1.405 . S
C1154 H1126 0.932 . S
C1154 C1153 1.405 . S
C1154 C1155 1.383 . S
C1155 C1154 1.383 . S
C1155 C1156 1.393 . S
C1156 H1128 0.931 . S
C1156 C1155 1.393 . S
C1156 C1157 1.382 . S
C1157 H1127 0.929 . S
C1157 C1152 1.371 . S
C1157 C1156 1.382 . S
C1158 N1121 1.423 . S
C1158 C1159 1.362 . S
C1158 C1163 1.388 . S
C1159 H1129 0.929 . S
C1159 C1158 1.362 . S
C1159 C1160 1.376 . S
C1160 H1131 0.931 . S
C1160 C1159 1.376 . S
C1160 C1161 1.396 . S
C1161 C1160 1.396 . S
C1161 C1162 1.348 . S
C1161 C1179 1.472 . S
C1162 H1132 0.929 . S
C1162 C1161 1.348 . S
C1162 C1163 1.443 . S
C1163 H1130 0.932 . S
C1163 C1158 1.388 . S
C1163 C1162 1.443 . S
C1164 N1144 1.433 . S
C1164 C1165 1.363 . S
C1164 C1169 1.370 . S
C1165 H1133 0.929 . S
C1165 C1164 1.363 . S
C1165 C1166 1.385 . S
C1166 H1134 0.930 . S
C1166 C1165 1.385 . S
C1166 C1167 1.357 . S
C1167 C1166 1.357 . S
C1167 C1168 1.406 . S
C1168 H1135 0.929 . S
C1168 C1167 1.406 . S
C1168 C1169 1.391 . S
C1169 H1136 0.931 . S
C1169 C1164 1.370 . S
C1169 C1168 1.391 . S
C1170 N1144 1.435 . S
C1170 C1171 1.358 . S
C1170 C1175 1.371 . S
C1171 H1137 0.930 . S
C1171 C1170 1.358 . S
C1171 C1172 1.405 . S
C1172 H1138 0.932 . S
C1172 C1171 1.405 . S
C1172 C1173 1.383 . S
C1173 C1172 1.383 . S
C1173 C1174 1.393 . S
C1174 H1139 0.931 . S
C1174 C1173 1.393 . S
C1174 C1175 1.382 . S
C1175 H1140 0.929 . S
C1175 C1170 1.371 . S
C1175 C1174 1.382 . S
C1176 N1144 1.423 . S
C1176 C1177 1.362 . S
C1176 C1181 1.388 . S
C1177 H1141 0.929 . S
C1177 C1176 1.362 . S
C1177 C1178 1.376 . S
C1178 H1142 0.931 . S
C1178 C1177 1.376 . S
C1178 C1179 1.396 . S
C1179 C1161 1.472 . S
C1179 C1178 1.396 . S
C1179 C1180 1.348 . S
C1180 H1143 0.929 . S
C1180 C1179 1.348 . S
C1180 C1181 1.443 . S
C1181 H1145 0.932 . S
C1181 C1176 1.388 . S
C1181 C1180 1.443 . S
H1182 C1209 0.929 . S
N1183 C1208 1.433 . S
N1183 C1214 1.435 . S
N1183 C1220 1.423 . S
H1184 C1210 0.930 . S
H1185 C1213 0.931 . S
H1186 C1212 0.929 . S
H1187 C1215 0.930 . S
H1188 C1216 0.932 . S
H1189 C1219 0.929 . S
H1190 C1218 0.931 . S
H1191 C1221 0.929 . S
H1192 C1225 0.932 . S
H1193 C1222 0.931 . S
H1194 C1224 0.929 . S
H1195 C1227 0.929 . S
H1196 C1228 0.930 . S
H1197 C1230 0.929 . S
H1198 C1231 0.931 . S
H1199 C1233 0.930 . S
H1200 C1234 0.932 . S
H1201 C1236 0.931 . S
H1202 C1237 0.929 . S
H1203 C1239 0.929 . S
H1204 C1240 0.931 . S
H1205 C1242 0.929 . S
N1206 C1226 1.433 . S
N1206 C1232 1.435 . S
N1206 C1238 1.423 . S
H1207 C1243 0.932 . S
C1208 N1183 1.433 . S
C1208 C1209 1.363 . S
C1208 C1213 1.370 . S
C1209 H1182 0.929 . S
C1209 C1208 1.363 . S
C1209 C1210 1.385 . S
C1210 H1184 0.930 . S
C1210 C1209 1.385 . S
C1210 C1211 1.357 . S
C1211 C1210 1.357 . S
C1211 C1212 1.406 . S
C1212 H1186 0.929 . S
C1212 C1211 1.406 . S
C1212 C1213 1.391 . S
C1213 H1185 0.931 . S
C1213 C1208 1.370 . S
C1213 C1212 1.391 . S
C1214 N1183 1.435 . S
C1214 C1215 1.358 . S
C1214 C1219 1.371 . S
C1215 H1187 0.930 . S
C1215 C1214 1.358 . S
C1215 C1216 1.405 . S
C1216 H1188 0.932 . S
C1216 C1215 1.405 . S
C1216 C1217 1.383 . S
C1217 C1216 1.383 . S
C1217 C1218 1.393 . S
C1218 H1190 0.931 . S
C1218 C1217 1.393 . S
C1218 C1219 1.382 . S
C1219 H1189 0.929 . S
C1219 C1214 1.371 . S
C1219 C1218 1.382 . S
C1220 N1183 1.423 . S
C1220 C1221 1.362 . S
C1220 C1225 1.388 . S
C1221 H1191 0.929 . S
C1221 C1220 1.362 . S
C1221 C1222 1.376 . S
C1222 H1193 0.931 . S
C1222 C1221 1.376 . S
C1222 C1223 1.396 . S
C1223 C1222 1.396 . S
C1223 C1224 1.348 . S
C1223 C1241 1.472 . S
C1224 H1194 0.929 . S
C1224 C1223 1.348 . S
C1224 C1225 1.443 . S
C1225 H1192 0.932 . S
C1225 C1220 1.388 . S
C1225 C1224 1.443 . S
C1226 N1206 1.433 . S
C1226 C1227 1.363 . S
C1226 C1231 1.370 . S
C1227 H1195 0.929 . S
C1227 C1226 1.363 . S
C1227 C1228 1.385 . S
C1228 H1196 0.930 . S
C1228 C1227 1.385 . S
C1228 C1229 1.357 . S
C1229 C1228 1.357 . S
C1229 C1230 1.406 . S
C1230 H1197 0.929 . S
C1230 C1229 1.406 . S
C1230 C1231 1.391 . S
C1231 H1198 0.931 . S
C1231 C1226 1.370 . S
C1231 C1230 1.391 . S
C1232 N1206 1.435 . S
C1232 C1233 1.358 . S
C1232 C1237 1.371 . S
C1233 H1199 0.930 . S
C1233 C1232 1.358 . S
C1233 C1234 1.405 . S
C1234 H1200 0.932 . S
C1234 C1233 1.405 . S
C1234 C1235 1.383 . S
C1235 C1234 1.383 . S
C1235 C1236 1.393 . S
C1236 H1201 0.931 . S
C1236 C1235 1.393 . S
C1236 C1237 1.382 . S
C1237 H1202 0.929 . S
C1237 C1232 1.371 . S
C1237 C1236 1.382 . S
C1238 N1206 1.423 . S
C1238 C1239 1.362 . S
C1238 C1243 1.388 . S
C1239 H1203 0.929 . S
C1239 C1238 1.362 . S
C1239 C1240 1.376 . S
C1240 H1204 0.931 . S
C1240 C1239 1.376 . S
C1240 C1241 1.396 . S
C1241 C1223 1.472 . S
C1241 C1240 1.396 . S
C1241 C1242 1.348 . S
C1242 H1205 0.929 . S
C1242 C1241 1.348 . S
C1242 C1243 1.443 . S
C1243 H1207 0.932 . S
C1243 C1238 1.388 . S
C1243 C1242 1.443 . S
H1244 C1271 0.929 . S
N1245 C1270 1.433 . S
N1245 C1276 1.435 . S
N1245 C1282 1.423 . S
H1246 C1272 0.930 . S
H1247 C1275 0.931 . S
H1248 C1274 0.929 . S
H1249 C1277 0.930 . S
H1250 C1278 0.932 . S
H1251 C1281 0.929 . S
H1252 C1280 0.931 . S
H1253 C1283 0.929 . S
H1254 C1287 0.932 . S
H1255 C1284 0.931 . S
H1256 C1286 0.929 . S
H1257 C1289 0.929 . S
H1258 C1290 0.930 . S
H1259 C1292 0.929 . S
H1260 C1293 0.931 . S
H1261 C1295 0.930 . S
H1262 C1296 0.932 . S
H1263 C1298 0.931 . S
H1264 C1299 0.929 . S
H1265 C1301 0.929 . S
H1266 C1302 0.931 . S
H1267 C1304 0.929 . S
N1268 C1288 1.433 . S
N1268 C1294 1.435 . S
N1268 C1300 1.423 . S
H1269 C1305 0.932 . S
C1270 N1245 1.433 . S
C1270 C1271 1.363 . S
C1270 C1275 1.370 . S
C1271 H1244 0.929 . S
C1271 C1270 1.363 . S
C1271 C1272 1.385 . S
C1272 H1246 0.930 . S
C1272 C1271 1.385 . S
C1272 C1273 1.357 . S
C1273 C1272 1.357 . S
C1273 C1274 1.406 . S
C1274 H1248 0.929 . S
C1274 C1273 1.406 . S
C1274 C1275 1.391 . S
C1275 H1247 0.931 . S
C1275 C1270 1.370 . S
C1275 C1274 1.391 . S
C1276 N1245 1.435 . S
C1276 C1277 1.358 . S
C1276 C1281 1.371 . S
C1277 H1249 0.930 . S
C1277 C1276 1.358 . S
C1277 C1278 1.405 . S
C1278 H1250 0.932 . S
C1278 C1277 1.405 . S
C1278 C1279 1.383 . S
C1279 C1278 1.383 . S
C1279 C1280 1.393 . S
C1280 H1252 0.931 . S
C1280 C1279 1.393 . S
C1280 C1281 1.382 . S
C1281 H1251 0.929 . S
C1281 C1276 1.371 . S
C1281 C1280 1.382 . S
C1282 N1245 1.423 . S
C1282 C1283 1.362 . S
C1282 C1287 1.388 . S
C1283 H1253 0.929 . S
C1283 C1282 1.362 . S
C1283 C1284 1.376 . S
C1284 H1255 0.931 . S
C1284 C1283 1.376 . S
C1284 C1285 1.396 . S
C1285 C1284 1.396 . S
C1285 C1286 1.348 . S
C1285 C1303 1.472 . S
C1286 H1256 0.929 . S
C1286 C1285 1.348 . S
C1286 C1287 1.443 . S
C1287 H1254 0.932 . S
C1287 C1282 1.388 . S
C1287 C1286 1.443 . S
C1288 N1268 1.433 . S
C1288 C1289 1.363 . S
C1288 C1293 1.370 . S
C1289 H1257 0.929 . S
C1289 C1288 1.363 . S
C1289 C1290 1.385 . S
C1290 H1258 0.930 . S
C1290 C1289 1.385 . S
C1290 C1291 1.357 . S
C1291 C1290 1.357 . S
C1291 C1292 1.406 . S
C1292 H1259 0.929 . S
C1292 C1291 1.406 . S
C1292 C1293 1.391 . S
C1293 H1260 0.931 . S
C1293 C1288 1.370 . S
C1293 C1292 1.391 . S
C1294 N1268 1.435 . S
C1294 C1295 1.358 . S
C1294 C1299 1.371 . S
C1295 H1261 0.930 . S
C1295 C1294 1.358 . S
C1295 C1296 1.405 . S
C1296 H1262 0.932 . S
C1296 C1295 1.405 . S
C1296 C1297 1.383 . S
C1297 C1296 1.383 . S
C1297 C1298 1.393 . S
C1298 H1263 0.931 . S
C1298 C1297 1.393 . S
C1298 C1299 1.382 . S
C1299 H1264 0.929 . S
C1299 C1294 1.371 . S
C1299 C1298 1.382 . S
C1300 N1268 1.423 . S
C1300 C1301 1.362 . S
C1300 C1305 1.388 . S
C1301 H1265 0.929 . S
C1301 C1300 1.362 . S
C1301 C1302 1.376 . S
C1302 H1266 0.931 . S
C1302 C1301 1.376 . S
C1302 C1303 1.396 . S
C1303 C1285 1.472 . S
C1303 C1302 1.396 . S
C1303 C1304 1.348 . S
C1304 H1267 0.929 . S
C1304 C1303 1.348 . S
C1304 C1305 1.443 . S
C1305 H1269 0.932 . S
C1305 C1300 1.388 . S
C1305 C1304 1.443 . S
H1306 C1333 0.929 . S
N1307 C1332 1.433 . S
N1307 C1338 1.435 . S
N1307 C1344 1.423 . S
H1308 C1334 0.930 . S
H1309 C1337 0.931 . S
H1310 C1336 0.929 . S
H1311 C1339 0.930 . S
H1312 C1340 0.932 . S
H1313 C1343 0.929 . S
H1314 C1342 0.931 . S
H1315 C1345 0.929 . S
H1316 C1349 0.932 . S
H1317 C1346 0.931 . S
H1318 C1348 0.929 . S
H1319 C1351 0.929 . S
H1320 C1352 0.930 . S
H1321 C1354 0.929 . S
H1322 C1355 0.931 . S
H1323 C1357 0.930 . S
H1324 C1358 0.932 . S
H1325 C1360 0.931 . S
H1326 C1361 0.929 . S
H1327 C1363 0.929 . S
H1328 C1364 0.931 . S
H1329 C1366 0.929 . S
N1330 C1350 1.433 . S
N1330 C1356 1.435 . S
N1330 C1362 1.423 . S
H1331 C1367 0.932 . S
C1332 N1307 1.433 . S
C1332 C1333 1.363 . S
C1332 C1337 1.370 . S
C1333 H1306 0.929 . S
C1333 C1332 1.363 . S
C1333 C1334 1.385 . S
C1334 H1308 0.930 . S
C1334 C1333 1.385 . S
C1334 C1335 1.357 . S
C1335 C1334 1.357 . S
C1335 C1336 1.406 . S
C1336 H1310 0.929 . S
C1336 C1335 1.406 . S
C1336 C1337 1.391 . S
C1337 H1309 0.931 . S
C1337 C1332 1.370 . S
C1337 C1336 1.391 . S
C1338 N1307 1.435 . S
C1338 C1339 1.358 . S
C1338 C1343 1.371 . S
C1339 H1311 0.930 . S
C1339 C1338 1.358 . S
C1339 C1340 1.405 . S
C1340 H1312 0.932 . S
C1340 C1339 1.405 . S
C1340 C1341 1.383 . S
C1341 C1340 1.383 . S
C1341 C1342 1.393 . S
C1342 H1314 0.931 . S
C1342 C1341 1.393 . S
C1342 C1343 1.382 . S
C1343 H1313 0.929 . S
C1343 C1338 1.371 . S
C1343 C1342 1.382 . S
C1344 N1307 1.423 . S
C1344 C1345 1.362 . S
C1344 C1349 1.388 . S
C1345 H1315 0.929 . S
C1345 C1344 1.362 . S
C1345 C1346 1.376 . S
C1346 H1317 0.931 . S
C1346 C1345 1.376 . S
C1346 C1347 1.396 . S
C1347 C1346 1.396 . S
C1347 C1348 1.348 . S
C1347 C1365 1.472 . S
C1348 H1318 0.929 . S
C1348 C1347 1.348 . S
C1348 C1349 1.443 . S
C1349 H1316 0.932 . S
C1349 C1344 1.388 . S
C1349 C1348 1.443 . S
C1350 N1330 1.433 . S
C1350 C1351 1.363 . S
C1350 C1355 1.370 . S
C1351 H1319 0.929 . S
C1351 C1350 1.363 . S
C1351 C1352 1.385 . S
C1352 H1320 0.930 . S
C1352 C1351 1.385 . S
C1352 C1353 1.357 . S
C1353 C1352 1.357 . S
C1353 C1354 1.406 . S
C1354 H1321 0.929 . S
C1354 C1353 1.406 . S
C1354 C1355 1.391 . S
C1355 H1322 0.931 . S
C1355 C1350 1.370 . S
C1355 C1354 1.391 . S
C1356 N1330 1.435 . S
C1356 C1357 1.358 . S
C1356 C1361 1.371 . S
C1357 H1323 0.930 . S
C1357 C1356 1.358 . S
C1357 C1358 1.405 . S
C1358 H1324 0.932 . S
C1358 C1357 1.405 . S
C1358 C1359 1.383 . S
C1359 C1358 1.383 . S
C1359 C1360 1.393 . S
C1360 H1325 0.931 . S
C1360 C1359 1.393 . S
C1360 C1361 1.382 . S
C1361 H1326 0.929 . S
C1361 C1356 1.371 . S
C1361 C1360 1.382 . S
C1362 N1330 1.423 . S
C1362 C1363 1.362 . S
C1362 C1367 1.388 . S
C1363 H1327 0.929 . S
C1363 C1362 1.362 . S
C1363 C1364 1.376 . S
C1364 H1328 0.931 . S
C1364 C1363 1.376 . S
C1364 C1365 1.396 . S
C1365 C1347 1.472 . S
C1365 C1364 1.396 . S
C1365 C1366 1.348 . S
C1366 H1329 0.929 . S
C1366 C1365 1.348 . S
C1366 C1367 1.443 . S
C1367 H1331 0.932 . S
C1367 C1362 1.388 . S
C1367 C1366 1.443 . S
C1368 C1369 1.369 1_655 S
C1368 C1370 1.419 . S
C1368 H1372 0.930 . S
C1369 C1368 1.369 1_455 S
C1369 C1378 1.429 . S
C1370 C1368 1.419 . S
C1370 C1371 1.363 1_655 S
C1370 H1373 0.929 . S
C1371 C1370 1.363 1_455 S
C1371 C1377 1.428 . S
H1372 C1368 0.930 . S
H1373 C1370 0.929 . S
S1374 N1375 1.613 . S
S1374 N1376 1.610 . S
N1375 S1374 1.613 . S
N1375 C1378 1.350 . S
N1376 S1374 1.610 . S
N1376 C1377 1.351 . S
C1377 C1371 1.428 . S
C1377 N1376 1.351 . S
C1377 C1378 1.434 . S
C1378 C1369 1.429 . S
C1378 N1375 1.350 . S
C1378 C1377 1.434 . S
C1379 C1380 1.369 . S
C1379 C1381 1.419 . S
C1379 H1383 0.930 . S
C1380 C1379 1.369 . S
C1380 C1389 1.429 . S
C1381 C1379 1.419 . S
C1381 C1382 1.363 . S
C1381 H1384 0.929 . S
C1382 C1381 1.363 . S
C1382 C1388 1.428 . S
H1383 C1379 0.930 . S
H1384 C1381 0.929 . S
S1385 N1386 1.613 . S
S1385 N1387 1.610 . S
N1386 S1385 1.613 . S
N1386 C1389 1.350 . S
N1387 S1385 1.610 . S
N1387 C1388 1.351 . S
C1388 C1382 1.428 . S
C1388 N1387 1.351 . S
C1388 C1389 1.434 . S
C1389 C1380 1.429 . S
C1389 N1386 1.350 . S
C1389 C1388 1.434 . S
C1390 C1391 1.369 . S
C1390 C1392 1.419 . S
C1390 H1394 0.930 . S
C1391 C1390 1.369 . S
C1391 C1400 1.429 1_545 S
C1392 C1390 1.419 . S
C1392 C1393 1.363 . S
C1392 H1395 0.929 . S
C1393 C1392 1.363 . S
C1393 C1399 1.428 1_545 S
H1394 C1390 0.930 . S
H1395 C1392 0.929 . S
S1396 N1397 1.613 . S
S1396 N1398 1.610 . S
N1397 S1396 1.613 . S
N1397 C1400 1.350 . S
N1398 S1396 1.610 . S
N1398 C1399 1.351 . S
C1399 C1393 1.428 1_565 S
C1399 N1398 1.351 . S
C1399 C1400 1.434 . S
C1400 C1391 1.429 1_565 S
C1400 N1397 1.350 . S
C1400 C1399 1.434 . S
C1401 C1402 1.369 . S
C1401 C1403 1.419 . S
C1401 H1405 0.930 . S
C1402 C1401 1.369 . S
C1402 C1411 1.429 . S
C1403 C1401 1.419 . S
C1403 C1404 1.363 . S
C1403 H1406 0.929 . S
C1404 C1403 1.363 . S
C1404 C1410 1.428 . S
H1405 C1401 0.930 . S
H1406 C1403 0.929 . S
S1407 N1408 1.604 1_565 S
S1407 N1409 1.649 1_565 S
N1408 S1407 1.604 1_545 S
N1408 C1411 1.350 . S
N1409 S1407 1.649 1_545 S
N1409 C1410 1.350 . S
C1410 C1404 1.428 . S
C1410 N1409 1.350 . S
C1410 C1411 1.434 . S
C1411 C1402 1.429 . S
C1411 N1408 1.350 . S
C1411 C1410 1.434 . S
C1412 C1413 1.369 . S
C1412 C1414 1.419 . S
C1412 H1416 0.930 . S
C1413 C1412 1.369 . S
C1413 C1422 1.429 1_455 S
C1414 C1412 1.419 . S
C1414 C1415 1.363 . S
C1414 H1417 0.929 . S
C1415 C1414 1.363 . S
C1415 C1421 1.428 1_455 S
H1416 C1412 0.930 . S
H1417 C1414 0.929 . S
S1418 N1419 1.613 . S
S1418 N1420 1.610 . S
N1419 S1418 1.613 . S
N1419 C1422 1.350 . S
N1420 S1418 1.610 . S
N1420 C1421 1.351 . S
C1421 C1415 1.428 1_655 S
C1421 N1420 1.351 . S
C1421 C1422 1.434 . S
C1422 C1413 1.429 1_655 S
C1422 N1419 1.350 . S
C1422 C1421 1.434 . S
C1423 C1424 1.369 . S
C1423 C1425 1.419 . S
C1423 H1427 0.930 . S
C1424 C1423 1.369 . S
C1424 C1433 1.429 . S
C1425 C1423 1.419 . S
C1425 C1426 1.363 . S
C1425 H1428 0.929 . S
C1426 C1425 1.363 . S
C1426 C1432 1.428 . S
H1427 C1423 0.930 . S
H1428 C1425 0.929 . S
S1429 N1430 1.613 . S
S1429 N1431 1.610 . S
N1430 S1429 1.613 . S
N1430 C1433 1.350 . S
N1431 S1429 1.610 . S
N1431 C1432 1.351 . S
C1432 C1426 1.428 . S
C1432 N1431 1.351 . S
C1432 C1433 1.434 . S
C1433 C1424 1.429 . S
C1433 N1430 1.350 . S
C1433 C1432 1.434 . S
C1434 C1435 1.369 . S
C1434 C1436 1.419 . S
C1434 H1438 0.930 . S
C1435 C1434 1.369 . S
C1435 C1444 1.429 1_455 S
C1436 C1434 1.419 . S
C1436 C1437 1.363 . S
C1436 H1439 0.929 . S
C1437 C1436 1.363 . S
C1437 C1443 1.428 1_455 S
H1438 C1434 0.930 . S
H1439 C1436 0.929 . S
S1440 N1441 1.613 . S
S1440 N1442 1.610 . S
N1441 S1440 1.613 . S
N1441 C1444 1.350 . S
N1442 S1440 1.610 . S
N1442 C1443 1.351 . S
C1443 C1437 1.428 1_655 S
C1443 N1442 1.351 . S
C1443 C1444 1.434 . S
C1444 C1435 1.429 1_655 S
C1444 N1441 1.350 . S
C1444 C1443 1.434 . S
C1445 C1446 1.369 . S
C1445 C1447 1.419 . S
C1445 H1449 0.930 . S
C1446 C1445 1.369 . S
C1446 C1455 1.429 . S
C1447 C1445 1.419 . S
C1447 C1448 1.363 . S
C1447 H1450 0.929 . S
C1448 C1447 1.363 . S
C1448 C1454 1.428 . S
H1449 C1445 0.930 . S
H1450 C1447 0.929 . S
S1451 N1452 1.613 . S
S1451 N1453 1.610 . S
N1452 S1451 1.613 . S
N1452 C1455 1.350 . S
N1453 S1451 1.610 . S
N1453 C1454 1.351 . S
C1454 C1448 1.428 . S
C1454 N1453 1.351 . S
C1454 C1455 1.434 . S
C1455 C1446 1.429 . S
C1455 N1452 1.350 . S
C1455 C1454 1.434 . S
C1456 C1457 1.369 . S
C1456 C1458 1.419 . S
C1456 H1460 0.930 . S
C1457 C1456 1.369 . S
C1457 C1466 1.429 1_545 S
C1458 C1456 1.419 . S
C1458 C1459 1.363 . S
C1458 H1461 0.929 . S
C1459 C1458 1.363 . S
C1459 C1465 1.428 1_545 S
H1460 C1456 0.930 . S
H1461 C1458 0.929 . S
S1462 N1463 1.613 . S
S1462 N1464 1.610 . S
N1463 S1462 1.613 . S
N1463 C1466 1.350 . S
N1464 S1462 1.610 . S
N1464 C1465 1.351 . S
C1465 C1459 1.428 1_565 S
C1465 N1464 1.351 . S
C1465 C1466 1.434 . S
C1466 C1457 1.429 1_565 S
C1466 N1463 1.350 . S
C1466 C1465 1.434 . S
C1467 C1468 1.369 . S
C1467 C1469 1.419 . S
C1467 H1471 0.959 . S
C1468 C1467 1.369 . S
C1468 C1477 1.429 . S
C1469 C1467 1.419 . S
C1469 C1470 1.363 . S
C1469 H1472 0.929 . S
C1470 C1469 1.363 . S
C1470 C1476 1.428 . S
H1471 C1467 0.959 . S
H1472 C1469 0.929 . S
S1473 N1474 1.613 . S
S1473 N1475 1.610 . S
N1474 S1473 1.613 . S
N1474 C1477 1.350 . S
N1475 S1473 1.610 . S
N1475 C1476 1.351 . S
C1476 C1470 1.428 . S
C1476 N1475 1.351 . S
C1476 C1477 1.434 . S
C1477 C1468 1.429 . S
C1477 N1474 1.350 . S
C1477 C1476 1.434 . S
C1478 C1479 1.369 1_655 S
C1478 C1480 1.419 . S
C1478 H1482 0.930 . S
C1479 C1478 1.369 1_455 S
C1479 C1488 1.429 . S
C1480 C1478 1.419 . S
C1480 C1481 1.363 1_655 S
C1480 H1483 0.929 . S
C1481 C1480 1.363 1_455 S
C1481 C1487 1.428 . S
H1482 C1478 0.930 . S
H1483 C1480 0.929 . S
S1484 N1485 1.613 . S
S1484 N1486 1.610 . S
N1485 S1484 1.613 . S
N1485 C1488 1.350 . S
N1486 S1484 1.610 . S
N1486 C1487 1.351 . S
C1487 C1481 1.428 . S
C1487 N1486 1.351 . S
C1487 C1488 1.434 . S
C1488 C1479 1.429 . S
C1488 N1485 1.350 . S
C1488 C1487 1.434 . S
C1489 C1490 1.369 . S
C1489 C1491 1.419 . S
C1489 H1493 0.930 . S
C1490 C1489 1.369 . S
C1490 C1499 1.429 . S
C1491 C1489 1.419 . S
C1491 C1492 1.363 . S
C1491 H1494 0.929 . S
C1492 C1491 1.363 . S
C1492 C1498 1.428 . S
H1493 C1489 0.930 . S
H1494 C1491 0.929 . S
S1495 N1496 1.613 . S
S1495 N1497 1.610 . S
N1496 S1495 1.613 . S
N1496 C1499 1.350 . S
N1497 S1495 1.610 . S
N1497 C1498 1.351 . S
C1498 C1492 1.428 . S
C1498 N1497 1.351 . S
C1498 C1499 1.434 . S
C1499 C1490 1.429 . S
C1499 N1496 1.350 . S
C1499 C1498 1.434 . S
C1500 C1501 1.369 . S
C1500 C1502 1.419 . S
C1500 H1504 0.930 . S
C1501 C1500 1.369 . S
C1501 C1510 1.429 . S
C1502 C1500 1.419 . S
C1502 C1503 1.363 . S
C1502 H1505 0.929 . S
C1503 C1502 1.363 . S
C1503 C1509 1.428 . S
H1504 C1500 0.930 . S
H1505 C1502 0.929 . S
S1506 N1507 1.613 . S
S1506 N1508 1.610 . S
N1507 S1506 1.613 . S
N1507 C1510 1.350 . S
N1508 S1506 1.610 . S
N1508 C1509 1.351 . S
C1509 C1503 1.428 . S
C1509 N1508 1.351 . S
C1509 C1510 1.434 . S
C1510 C1501 1.429 . S
C1510 N1507 1.350 . S
C1510 C1509 1.434 . S
C1511 C1512 1.369 . S
C1511 C1513 1.419 . S
C1511 H1515 0.930 . S
C1512 C1511 1.369 . S
C1512 C1521 1.429 . S
C1513 C1511 1.419 . S
C1513 C1514 1.363 . S
C1513 H1516 0.929 . S
C1514 C1513 1.363 . S
C1514 C1520 1.428 . S
H1515 C1511 0.930 . S
H1516 C1513 0.929 . S
S1517 N1518 1.613 . S
S1517 N1519 1.610 . S
N1518 S1517 1.613 . S
N1518 C1521 1.350 . S
N1519 S1517 1.610 . S
N1519 C1520 1.351 . S
C1520 C1514 1.428 . S
C1520 N1519 1.351 . S
C1520 C1521 1.434 . S
C1521 C1512 1.429 . S
C1521 N1518 1.350 . S
C1521 C1520 1.434 . S
C1522 C1523 1.369 . S
C1522 C1524 1.419 . S
C1522 H1526 0.930 . S
C1523 C1522 1.369 . S
C1523 C1532 1.429 . S
C1524 C1522 1.419 . S
C1524 C1525 1.363 . S
C1524 H1527 0.929 . S
C1525 C1524 1.363 . S
C1525 C1531 1.428 . S
H1526 C1522 0.930 . S
H1527 C1524 0.929 . S
S1528 N1529 1.613 . S
S1528 N1530 1.610 . S
N1529 S1528 1.613 . S
N1529 C1532 1.350 . S
N1530 S1528 1.610 . S
N1530 C1531 1.351 . S
C1531 C1525 1.428 . S
C1531 N1530 1.351 . S
C1531 C1532 1.434 . S
C1532 C1523 1.429 . S
C1532 N1529 1.350 . S
C1532 C1531 1.434 . S
C1533 C1534 1.369 . S
C1533 C1535 1.419 . S
C1533 H1537 0.930 . S
C1534 C1533 1.369 . S
C1534 C1543 1.429 . S
C1535 C1533 1.419 . S
C1535 C1536 1.363 . S
C1535 H1538 0.929 . S
C1536 C1535 1.363 . S
C1536 C1542 1.428 . S
H1537 C1533 0.930 . S
H1538 C1535 0.929 . S
S1539 N1540 1.613 . S
S1539 N1541 1.610 . S
N1540 S1539 1.613 . S
N1540 C1543 1.350 . S
N1541 S1539 1.610 . S
N1541 C1542 1.351 . S
C1542 C1536 1.428 . S
C1542 N1541 1.351 . S
C1542 C1543 1.434 . S
C1543 C1534 1.429 . S
C1543 N1540 1.350 . S
C1543 C1542 1.434 . S
C1544 C1545 1.369 . S
C1544 C1546 1.419 . S
C1544 H1548 0.930 . S
C1545 C1544 1.369 . S
C1545 C1554 1.429 . S
C1546 C1544 1.419 . S
C1546 C1547 1.363 . S
C1546 H1549 0.929 . S
C1547 C1546 1.363 . S
C1547 C1553 1.428 . S
H1548 C1544 0.930 . S
H1549 C1546 0.929 . S
S1550 N1551 1.613 . S
S1550 N1552 1.610 . S
N1551 S1550 1.613 . S
N1551 C1554 1.350 . S
N1552 S1550 1.610 . S
N1552 C1553 1.351 . S
C1553 C1547 1.428 . S
C1553 N1552 1.351 . S
C1553 C1554 1.434 . S
C1554 C1545 1.429 . S
C1554 N1551 1.350 . S
C1554 C1553 1.434 . S
C1555 C1556 1.369 . S
C1555 C1557 1.419 . S
C1555 H1559 0.930 . S
C1556 C1555 1.369 . S
C1556 C1565 1.429 . S
C1557 C1555 1.419 . S
C1557 C1558 1.363 . S
C1557 H1560 0.929 . S
C1558 C1557 1.363 . S
C1558 C1564 1.428 . S
H1559 C1555 0.930 . S
H1560 C1557 0.929 . S
S1561 N1562 1.613 . S
S1561 N1563 1.610 . S
N1562 S1561 1.613 . S
N1562 C1565 1.350 . S
N1563 S1561 1.610 . S
N1563 C1564 1.351 . S
C1564 C1558 1.428 . S
C1564 N1563 1.351 . S
C1564 C1565 1.434 . S
C1565 C1556 1.429 . S
C1565 N1562 1.350 . S
C1565 C1564 1.434 . S
C1566 C1567 1.369 . S
C1566 C1568 1.419 . S
C1566 H1570 0.930 . S
C1567 C1566 1.369 . S
C1567 C1576 1.429 . S
C1568 C1566 1.419 . S
C1568 C1569 1.363 . S
C1568 H1571 0.929 . S
C1569 C1568 1.363 . S
C1569 C1575 1.428 . S
H1570 C1566 0.930 . S
H1571 C1568 0.929 . S
S1572 N1573 1.613 . S
S1572 N1574 1.610 . S
N1573 S1572 1.613 . S
N1573 C1576 1.350 . S
N1574 S1572 1.610 . S
N1574 C1575 1.351 . S
C1575 C1569 1.428 . S
C1575 N1574 1.351 . S
C1575 C1576 1.434 . S
C1576 C1567 1.429 . S
C1576 N1573 1.350 . S
C1576 C1575 1.434 . S
C1577 C1578 1.369 . S
C1577 C1579 1.419 . S
C1577 H1581 0.930 . S
C1578 C1577 1.369 . S
C1578 C1587 1.429 . S
C1579 C1577 1.419 . S
C1579 C1580 1.363 . S
C1579 H1582 0.929 . S
C1580 C1579 1.363 . S
C1580 C1586 1.428 . S
H1581 C1577 0.930 . S
H1582 C1579 0.929 . S
S1583 N1584 1.613 . S
S1583 N1585 1.610 . S
N1584 S1583 1.613 . S
N1584 C1587 1.350 . S
N1585 S1583 1.610 . S
N1585 C1586 1.351 . S
C1586 C1580 1.428 . S
C1586 N1585 1.351 . S
C1586 C1587 1.434 . S
C1587 C1578 1.429 . S
C1587 N1584 1.350 . S
C1587 C1586 1.434 . S
C1588 C1589 1.369 . S
C1588 C1590 1.419 . S
C1588 H1592 0.930 . S
C1589 C1588 1.369 . S
C1589 C1598 1.429 . S
C1590 C1588 1.419 . S
C1590 C1591 1.363 . S
C1590 H1593 0.929 . S
C1591 C1590 1.363 . S
C1591 C1597 1.428 . S
H1592 C1588 0.930 . S
H1593 C1590 0.929 . S
S1594 N1595 1.613 . S
S1594 N1596 1.610 . S
N1595 S1594 1.613 . S
N1595 C1598 1.350 . S
N1596 S1594 1.610 . S
N1596 C1597 1.351 . S
C1597 C1591 1.428 . S
C1597 N1596 1.351 . S
C1597 C1598 1.434 . S
C1598 C1589 1.429 . S
C1598 N1595 1.350 . S
C1598 C1597 1.434 . S
C1599 C1600 1.369 . S
C1599 C1601 1.419 . S
C1599 H1603 0.930 . S
C1600 C1599 1.369 . S
C1600 C1609 1.429 . S
C1601 C1599 1.419 . S
C1601 C1602 1.363 . S
C1601 H1604 0.929 . S
C1602 C1601 1.363 . S
C1602 C1608 1.428 . S
H1603 C1599 0.930 . S
H1604 C1601 0.929 . S
S1605 N1606 1.613 . S
S1605 N1607 1.610 . S
N1606 S1605 1.613 . S
N1606 C1609 1.350 . S
N1607 S1605 1.610 . S
N1607 C1608 1.351 . S
C1608 C1602 1.428 . S
C1608 N1607 1.351 . S
C1608 C1609 1.434 . S
C1609 C1600 1.429 . S
C1609 N1606 1.350 . S
C1609 C1608 1.434 . S
C1610 C1611 1.369 . S
C1610 C1612 1.419 . S
C1610 H1614 0.930 . S
C1611 C1610 1.369 . S
C1611 C1620 1.429 . S
C1612 C1610 1.419 . S
C1612 C1613 1.363 . S
C1612 H1615 0.929 . S
C1613 C1612 1.363 . S
C1613 C1619 1.428 . S
H1614 C1610 0.930 . S
H1615 C1612 0.929 . S
S1616 N1617 1.613 . S
S1616 N1618 1.610 . S
N1617 S1616 1.613 . S
N1617 C1620 1.350 . S
N1618 S1616 1.610 . S
N1618 C1619 1.351 . S
C1619 C1613 1.428 . S
C1619 N1618 1.351 . S
C1619 C1620 1.434 . S
C1620 C1611 1.429 . S
C1620 N1617 1.350 . S
C1620 C1619 1.434 . S
C1621 C1622 1.369 . S
C1621 C1623 1.419 . S
C1621 H1625 0.930 . S
C1622 C1621 1.369 . S
C1622 C1631 1.429 . S
C1623 C1621 1.419 . S
C1623 C1624 1.363 . S
C1623 H1626 0.929 . S
C1624 C1623 1.363 . S
C1624 C1630 1.428 . S
H1625 C1621 0.930 . S
H1626 C1623 0.929 . S
S1627 N1628 1.613 . S
S1627 N1629 1.610 . S
N1628 S1627 1.613 . S
N1628 C1631 1.350 . S
N1629 S1627 1.610 . S
N1629 C1630 1.351 . S
C1630 C1624 1.428 . S
C1630 N1629 1.351 . S
C1630 C1631 1.434 . S
C1631 C1622 1.429 . S
C1631 N1628 1.350 . S
C1631 C1630 1.434 . S
C1632 C1633 1.369 . S
C1632 C1634 1.419 . S
C1632 H1636 0.930 . S
C1633 C1632 1.369 . S
C1633 C1642 1.429 . S
C1634 C1632 1.419 . S
C1634 C1635 1.363 . S
C1634 H1637 0.929 . S
C1635 C1634 1.363 . S
C1635 C1641 1.428 . S
H1636 C1632 0.930 . S
H1637 C1634 0.929 . S
S1638 N1639 1.613 . S
S1638 N1640 1.610 . S
N1639 S1638 1.613 . S
N1639 C1642 1.350 . S
N1640 S1638 1.610 . S
N1640 C1641 1.351 . S
C1641 C1635 1.428 . S
C1641 N1640 1.351 . S
C1641 C1642 1.434 . S
C1642 C1633 1.429 . S
C1642 N1639 1.350 . S
C1642 C1641 1.434 . S
C1643 C1644 1.369 . S
C1643 C1645 1.419 . S
C1643 H1647 0.930 . S
C1644 C1643 1.369 . S
C1644 C1653 1.429 . S
C1645 C1643 1.419 . S
C1645 C1646 1.363 . S
C1645 H1648 0.929 . S
C1646 C1645 1.363 . S
C1646 C1652 1.428 . S
H1647 C1643 0.930 . S
H1648 C1645 0.929 . S
S1649 N1650 1.613 . S
S1649 N1651 1.610 . S
N1650 S1649 1.613 . S
N1650 C1653 1.350 . S
N1651 S1649 1.610 . S
N1651 C1652 1.351 . S
C1652 C1646 1.428 . S
C1652 N1651 1.351 . S
C1652 C1653 1.434 . S
C1653 C1644 1.429 . S
C1653 N1650 1.350 . S
C1653 C1652 1.434 . S
C1654 C1655 1.369 . S
C1654 C1656 1.419 . S
C1654 H1658 0.930 . S
C1655 C1654 1.369 . S
C1655 C1664 1.429 . S
C1656 C1654 1.419 . S
C1656 C1657 1.363 . S
C1656 H1659 0.929 . S
C1657 C1656 1.363 . S
C1657 C1663 1.428 . S
H1658 C1654 0.930 . S
H1659 C1656 0.929 . S
S1660 N1661 1.613 . S
S1660 N1662 1.610 . S
N1661 S1660 1.613 . S
N1661 C1664 1.350 . S
N1662 S1660 1.610 . S
N1662 C1663 1.351 . S
C1663 C1657 1.428 . S
C1663 N1662 1.351 . S
C1663 C1664 1.434 . S
C1664 C1655 1.429 . S
C1664 N1661 1.350 . S
C1664 C1663 1.434 . S
C1665 C1666 1.369 . S
C1665 C1667 1.419 . S
C1665 H1669 0.930 . S
C1666 C1665 1.369 . S
C1666 C1675 1.429 . S
C1667 C1665 1.419 . S
C1667 C1668 1.363 . S
C1667 H1670 0.929 . S
C1668 C1667 1.363 . S
C1668 C1674 1.428 . S
H1669 C1665 0.930 . S
H1670 C1667 0.929 . S
S1671 N1672 1.613 . S
S1671 N1673 1.610 . S
N1672 S1671 1.613 . S
N1672 C1675 1.350 . S
N1673 S1671 1.610 . S
N1673 C1674 1.351 . S
C1674 C1668 1.428 . S
C1674 N1673 1.351 . S
C1674 C1675 1.434 . S
C1675 C1666 1.429 . S
C1675 N1672 1.350 . S
C1675 C1674 1.434 . S
C1676 C1677 1.369 . S
C1676 C1678 1.419 . S
C1676 H1680 0.930 . S
C1677 C1676 1.369 . S
C1677 C1686 1.429 . S
C1678 C1676 1.419 . S
C1678 C1679 1.363 . S
C1678 H1681 0.929 . S
C1679 C1678 1.363 . S
C1679 C1685 1.428 . S
H1680 C1676 0.930 . S
H1681 C1678 0.929 . S
S1682 N1683 1.613 . S
S1682 N1684 1.610 . S
N1683 S1682 1.613 . S
N1683 C1686 1.350 . S
N1684 S1682 1.610 . S
N1684 C1685 1.351 . S
C1685 C1679 1.428 . S
C1685 N1684 1.351 . S
C1685 C1686 1.434 . S
C1686 C1677 1.429 . S
C1686 N1683 1.350 . S
C1686 C1685 1.434 . S
C1687 C1688 1.369 . S
C1687 C1689 1.419 . S
C1687 H1691 0.930 . S
C1688 C1687 1.369 . S
C1688 C1697 1.429 . S
C1689 C1687 1.419 . S
C1689 C1690 1.363 . S
C1689 H1692 0.929 . S
C1690 C1689 1.363 . S
C1690 C1696 1.428 . S
H1691 C1687 0.930 . S
H1692 C1689 0.929 . S
S1693 N1694 1.613 . S
S1693 N1695 1.610 . S
N1694 S1693 1.613 . S
N1694 C1697 1.350 . S
N1695 S1693 1.610 . S
N1695 C1696 1.351 . S
C1696 C1690 1.428 . S
C1696 N1695 1.351 . S
C1696 C1697 1.434 . S
C1697 C1688 1.429 . S
C1697 N1694 1.350 . S
C1697 C1696 1.434 . S
C1698 C1699 1.369 . S
C1698 C1700 1.419 . S
C1698 H1702 0.930 . S
C1699 C1698 1.369 . S
C1699 C1708 1.429 . S
C1700 C1698 1.419 . S
C1700 C1701 1.363 . S
C1700 H1703 0.929 . S
C1701 C1700 1.363 . S
C1701 C1707 1.428 . S
H1702 C1698 0.930 . S
H1703 C1700 0.929 . S
S1704 N1705 1.613 . S
S1704 N1706 1.610 . S
N1705 S1704 1.613 . S
N1705 C1708 1.350 . S
N1706 S1704 1.610 . S
N1706 C1707 1.351 . S
C1707 C1701 1.428 . S
C1707 N1706 1.351 . S
C1707 C1708 1.434 . S
C1708 C1699 1.429 . S
C1708 N1705 1.350 . S
C1708 C1707 1.434 . S
C1709 C1710 1.369 . S
C1709 C1711 1.419 . S
C1709 H1713 0.930 . S
C1710 C1709 1.369 . S
C1710 C1719 1.429 . S
C1711 C1709 1.419 . S
C1711 C1712 1.363 . S
C1711 H1714 0.929 . S
C1712 C1711 1.363 . S
C1712 C1718 1.428 . S
H1713 C1709 0.930 . S
H1714 C1711 0.929 . S
S1715 N1716 1.613 . S
S1715 N1717 1.610 . S
N1716 S1715 1.613 . S
N1716 C1719 1.350 . S
N1717 S1715 1.610 . S
N1717 C1718 1.351 . S
C1718 C1712 1.428 . S
C1718 N1717 1.351 . S
C1718 C1719 1.434 . S
C1719 C1710 1.429 . S
C1719 N1716 1.350 . S
C1719 C1718 1.434 . S
C1720 C1721 1.369 . S
C1720 C1722 1.419 . S
C1720 H1724 0.930 . S
C1721 C1720 1.369 . S
C1721 C1730 1.429 . S
C1722 C1720 1.419 . S
C1722 C1723 1.363 . S
C1722 H1725 0.929 . S
C1723 C1722 1.363 . S
C1723 C1729 1.428 . S
H1724 C1720 0.930 . S
H1725 C1722 0.929 . S
S1726 N1727 1.613 . S
S1726 N1728 1.610 . S
N1727 S1726 1.613 . S
N1727 C1730 1.350 . S
N1728 S1726 1.610 . S
N1728 C1729 1.351 . S
C1729 C1723 1.428 . S
C1729 N1728 1.351 . S
C1729 C1730 1.434 . S
C1730 C1721 1.429 . S
C1730 N1727 1.350 . S
C1730 C1729 1.434 . S
C1731 C1732 1.369 . S
C1731 C1733 1.419 . S
C1731 H1735 0.930 . S
C1732 C1731 1.369 . S
C1732 C1741 1.429 . S
C1733 C1731 1.419 . S
C1733 C1734 1.363 . S
C1733 H1736 0.929 . S
C1734 C1733 1.363 . S
C1734 C1740 1.428 . S
H1735 C1731 0.930 . S
H1736 C1733 0.929 . S
S1737 N1738 1.613 . S
S1737 N1739 1.610 . S
N1738 S1737 1.613 . S
N1738 C1741 1.350 . S
N1739 S1737 1.610 . S
N1739 C1740 1.351 . S
C1740 C1734 1.428 . S
C1740 N1739 1.351 . S
C1740 C1741 1.434 . S
C1741 C1732 1.429 . S
C1741 N1738 1.350 . S
C1741 C1740 1.434 . S
C1742 C1743 1.369 . S
C1742 C1744 1.419 . S
C1742 H1746 0.930 . S
C1743 C1742 1.369 . S
C1743 C1752 1.429 . S
C1744 C1742 1.419 . S
C1744 C1745 1.363 . S
C1744 H1747 0.929 . S
C1745 C1744 1.363 . S
C1745 C1751 1.428 . S
H1746 C1742 0.930 . S
H1747 C1744 0.929 . S
S1748 N1749 1.613 . S
S1748 N1750 1.610 . S
N1749 S1748 1.613 . S
N1749 C1752 1.350 . S
N1750 S1748 1.610 . S
N1750 C1751 1.351 . S
C1751 C1745 1.428 . S
C1751 N1750 1.351 . S
C1751 C1752 1.434 . S
C1752 C1743 1.429 . S
C1752 N1749 1.350 . S
C1752 C1751 1.434 . S
C1753 C1754 1.369 . S
C1753 C1755 1.419 . S
C1753 H1757 0.930 . S
C1754 C1753 1.369 . S
C1754 C1763 1.429 . S
C1755 C1753 1.419 . S
C1755 C1756 1.363 . S
C1755 H1758 0.929 . S
C1756 C1755 1.363 . S
C1756 C1762 1.428 . S
H1757 C1753 0.930 . S
H1758 C1755 0.929 . S
S1759 N1760 1.613 . S
S1759 N1761 1.610 . S
N1760 S1759 1.613 . S
N1760 C1763 1.350 . S
N1761 S1759 1.610 . S
N1761 C1762 1.351 . S
C1762 C1756 1.428 . S
C1762 N1761 1.351 . S
C1762 C1763 1.434 . S
C1763 C1754 1.429 . S
C1763 N1760 1.350 . S
C1763 C1762 1.434 . S
C1764 C1765 1.369 . S
C1764 C1766 1.419 . S
C1764 H1768 0.930 . S
C1765 C1764 1.369 . S
C1765 C1774 1.429 . S
C1766 C1764 1.419 . S
C1766 C1767 1.363 . S
C1766 H1769 0.929 . S
C1767 C1766 1.363 . S
C1767 C1773 1.428 . S
H1768 C1764 0.930 . S
H1769 C1766 0.929 . S
S1770 N1771 1.613 . S
S1770 N1772 1.610 . S
N1771 S1770 1.613 . S
N1771 C1774 1.350 . S
N1772 S1770 1.610 . S
N1772 C1773 1.351 . S
C1773 C1767 1.428 . S
C1773 N1772 1.351 . S
C1773 C1774 1.434 . S
C1774 C1765 1.429 . S
C1774 N1771 1.350 . S
C1774 C1773 1.434 . S
C1775 C1776 1.369 . S
C1775 C1777 1.419 . S
C1775 H1779 0.930 . S
C1776 C1775 1.369 . S
C1776 C1785 1.429 . S
C1777 C1775 1.419 . S
C1777 C1778 1.363 . S
C1777 H1780 0.929 . S
C1778 C1777 1.363 . S
C1778 C1784 1.428 . S
H1779 C1775 0.930 . S
H1780 C1777 0.929 . S
S1781 N1782 1.613 . S
S1781 N1783 1.610 . S
N1782 S1781 1.613 . S
N1782 C1785 1.350 . S
N1783 S1781 1.610 . S
N1783 C1784 1.351 . S
C1784 C1778 1.428 . S
C1784 N1783 1.351 . S
C1784 C1785 1.434 . S
C1785 C1776 1.429 . S
C1785 N1782 1.350 . S
C1785 C1784 1.434 . S
C1786 C1787 1.369 . S
C1786 C1788 1.419 . S
C1786 H1790 0.930 . S
C1787 C1786 1.369 . S
C1787 C1796 1.429 . S
C1788 C1786 1.419 . S
C1788 C1789 1.363 . S
C1788 H1791 0.929 . S
C1789 C1788 1.363 . S
C1789 C1795 1.428 . S
H1790 C1786 0.930 . S
H1791 C1788 0.929 . S
S1792 N1793 1.613 . S
S1792 N1794 1.610 . S
N1793 S1792 1.613 . S
N1793 C1796 1.350 . S
N1794 S1792 1.610 . S
N1794 C1795 1.351 . S
C1795 C1789 1.428 . S
C1795 N1794 1.351 . S
C1795 C1796 1.434 . S
C1796 C1787 1.429 . S
C1796 N1793 1.350 . S
C1796 C1795 1.434 . S
C1797 C1798 1.369 . S
C1797 C1799 1.419 . S
C1797 H1801 0.930 . S
C1798 C1797 1.369 . S
C1798 C1807 1.429 . S
C1799 C1797 1.419 . S
C1799 C1800 1.363 . S
C1799 H1802 0.929 . S
C1800 C1799 1.363 . S
C1800 C1806 1.428 . S
H1801 C1797 0.930 . S
H1802 C1799 0.929 . S
S1803 N1804 1.613 . S
S1803 N1805 1.610 . S
N1804 S1803 1.613 . S
N1804 C1807 1.350 1_554 S
N1805 S1803 1.610 . S
N1805 C1806 1.351 1_554 S
C1806 C1800 1.428 . S
C1806 N1805 1.351 1_556 S
C1806 C1807 1.434 . S
C1807 C1798 1.429 . S
C1807 N1804 1.350 1_556 S
C1807 C1806 1.434 . S
C1808 C1809 1.369 . S
C1808 C1810 1.419 . S
C1808 H1812 0.930 . S
C1809 C1808 1.369 . S
C1809 C1818 1.429 . S
C1810 C1808 1.419 . S
C1810 C1811 1.363 . S
C1810 H1813 0.929 . S
C1811 C1810 1.363 . S
C1811 C1817 1.428 . S
H1812 C1808 0.930 . S
H1813 C1810 0.929 . S
S1814 N1815 1.613 . S
S1814 N1816 1.610 1_554 S
N1815 S1814 1.613 . S
N1815 C1818 1.350 1_554 S
N1816 S1814 1.610 1_556 S
N1816 C1817 1.351 . S
C1817 C1811 1.428 . S
C1817 N1816 1.351 . S
C1817 C1818 1.434 . S
C1818 C1809 1.429 . S
C1818 N1815 1.350 1_556 S
C1818 C1817 1.434 . S
C1819 C1820 1.369 . S
C1819 C1821 1.419 . S
C1819 H1823 0.930 . S
C1820 C1819 1.369 . S
C1820 C1829 1.429 . S
C1821 C1819 1.419 . S
C1821 C1822 1.363 . S
C1821 H1824 0.929 . S
C1822 C1821 1.363 . S
C1822 C1828 1.428 . S
H1823 C1819 0.930 . S
H1824 C1821 0.929 . S
S1825 N1826 1.613 . S
S1825 N1827 1.610 . S
N1826 S1825 1.613 . S
N1826 C1829 1.350 1_554 S
N1827 S1825 1.610 . S
N1827 C1828 1.351 1_554 S
C1828 C1822 1.428 . S
C1828 N1827 1.351 1_556 S
C1828 C1829 1.434 . S
C1829 C1820 1.429 . S
C1829 N1826 1.350 1_556 S
C1829 C1828 1.434 . S
C1830 C1831 1.369 . S
C1830 C1832 1.419 . S
C1830 H1834 0.930 . S
C1831 C1830 1.369 . S
C1831 C1840 1.429 . S
C1832 C1830 1.419 . S
C1832 C1833 1.363 . S
C1832 H1835 0.929 . S
C1833 C1832 1.363 . S
C1833 C1839 1.428 . S
H1834 C1830 0.930 . S
H1835 C1832 0.929 . S
S1836 N1837 1.613 . S
S1836 N1838 1.610 . S
N1837 S1836 1.613 . S
N1837 C1840 1.350 1_554 S
N1838 S1836 1.610 . S
N1838 C1839 1.351 1_554 S
C1839 C1833 1.428 . S
C1839 N1838 1.351 1_556 S
C1839 C1840 1.434 . S
C1840 C1831 1.429 . S
C1840 N1837 1.350 1_556 S
C1840 C1839 1.434 . S
C1841 C1842 1.369 . S
C1841 C1843 1.419 . S
C1841 H1845 0.930 . S
C1842 C1841 1.369 . S
C1842 C1851 1.429 . S
C1843 C1841 1.419 . S
C1843 C1844 1.363 . S
C1843 H1846 0.929 . S
C1844 C1843 1.363 . S
C1844 C1850 1.428 . S
H1845 C1841 0.930 . S
H1846 C1843 0.929 . S
S1847 N1848 1.613 . S
S1847 N1849 1.610 . S
N1848 S1847 1.613 . S
N1848 C1851 1.350 . S
N1849 S1847 1.610 . S
N1849 C1850 1.351 . S
C1850 C1844 1.428 . S
C1850 N1849 1.351 . S
C1850 C1851 1.434 . S
C1851 C1842 1.429 . S
C1851 N1848 1.350 . S
C1851 C1850 1.434 . S
C1852 C1853 1.369 . S
C1852 C1854 1.419 . S
C1852 H1856 0.930 . S
C1853 C1852 1.369 . S
C1853 C1862 1.429 . S
C1854 C1852 1.419 . S
C1854 C1855 1.363 . S
C1854 H1857 0.929 . S
C1855 C1854 1.363 . S
C1855 C1861 1.428 . S
H1856 C1852 0.930 . S
H1857 C1854 0.929 . S
S1858 N1859 1.613 . S
S1858 N1860 1.610 . S
N1859 S1858 1.613 . S
N1859 C1862 1.350 . S
N1860 S1858 1.610 . S
N1860 C1861 1.351 . S
C1861 C1855 1.428 . S
C1861 N1860 1.351 . S
C1861 C1862 1.434 . S
C1862 C1853 1.429 . S
C1862 N1859 1.350 . S
C1862 C1861 1.434 . S
C1863 C1864 1.369 . S
C1863 C1865 1.419 . S
C1863 H1867 0.930 . S
C1864 C1863 1.369 . S
C1864 C1873 1.429 . S
C1865 C1863 1.419 . S
C1865 C1866 1.363 . S
C1865 H1868 0.929 . S
C1866 C1865 1.363 . S
C1866 C1872 1.428 . S
H1867 C1863 0.930 . S
H1868 C1865 0.929 . S
S1869 N1870 1.613 . S
S1869 N1871 1.610 . S
N1870 S1869 1.613 . S
N1870 C1873 1.350 . S
N1871 S1869 1.610 . S
N1871 C1872 1.351 . S
C1872 C1866 1.428 . S
C1872 N1871 1.351 . S
C1872 C1873 1.434 . S
C1873 C1864 1.429 . S
C1873 N1870 1.350 . S
C1873 C1872 1.434 . S
C1874 C1875 1.369 . S
C1874 C1876 1.419 . S
C1874 H1878 0.930 . S
C1875 C1874 1.369 . S
C1875 C1884 1.429 . S
C1876 C1874 1.419 . S
C1876 C1877 1.363 . S
C1876 H1879 0.929 . S
C1877 C1876 1.363 . S
C1877 C1883 1.428 . S
H1878 C1874 0.930 . S
H1879 C1876 0.929 . S
S1880 N1881 1.613 . S
S1880 N1882 1.610 . S
N1881 S1880 1.613 . S
N1881 C1884 1.350 . S
N1882 S1880 1.610 . S
N1882 C1883 1.351 . S
C1883 C1877 1.428 . S
C1883 N1882 1.351 . S
C1883 C1884 1.434 . S
C1884 C1875 1.429 . S
C1884 N1881 1.350 . S
C1884 C1883 1.434 . S
C1885 C1886 1.369 . S
C1885 C1887 1.419 . S
C1885 H1889 0.930 . S
C1886 C1885 1.369 . S
C1886 C1895 1.429 . S
C1887 C1885 1.419 . S
C1887 C1888 1.363 . S
C1887 H1890 0.929 . S
C1888 C1887 1.363 . S
C1888 C1894 1.428 . S
H1889 C1885 0.930 . S
H1890 C1887 0.929 . S
S1891 N1892 1.613 . S
S1891 N1893 1.610 . S
N1892 S1891 1.613 . S
N1892 C1895 1.350 . S
N1893 S1891 1.610 . S
N1893 C1894 1.351 . S
C1894 C1888 1.428 . S
C1894 N1893 1.351 . S
C1894 C1895 1.434 . S
C1895 C1886 1.429 . S
C1895 N1892 1.350 . S
C1895 C1894 1.434 . S
C1896 C1897 1.369 . S
C1896 C1898 1.419 . S
C1896 H1900 0.930 . S
C1897 C1896 1.369 . S
C1897 C1906 1.429 . S
C1898 C1896 1.419 . S
C1898 C1899 1.363 . S
C1898 H1901 0.929 . S
C1899 C1898 1.363 . S
C1899 C1905 1.428 . S
H1900 C1896 0.930 . S
H1901 C1898 0.929 . S
S1902 N1903 1.613 . S
S1902 N1904 1.610 . S
N1903 S1902 1.613 . S
N1903 C1906 1.350 . S
N1904 S1902 1.610 . S
N1904 C1905 1.351 . S
C1905 C1899 1.428 . S
C1905 N1904 1.351 . S
C1905 C1906 1.434 . S
C1906 C1897 1.429 . S
C1906 N1903 1.350 . S
C1906 C1905 1.434 . S
C1907 C1908 1.369 . S
C1907 C1909 1.419 . S
C1907 H1911 0.930 . S
C1908 C1907 1.369 . S
C1908 C1917 1.429 . S
C1909 C1907 1.419 . S
C1909 C1910 1.363 . S
C1909 H1912 0.929 . S
C1910 C1909 1.363 . S
C1910 C1916 1.428 . S
H1911 C1907 0.930 . S
H1912 C1909 0.929 . S
S1913 N1914 1.613 . S
S1913 N1915 1.610 . S
N1914 S1913 1.613 . S
N1914 C1917 1.350 . S
N1915 S1913 1.610 . S
N1915 C1916 1.351 . S
C1916 C1910 1.428 . S
C1916 N1915 1.351 . S
C1916 C1917 1.434 . S
C1917 C1908 1.429 . S
C1917 N1914 1.350 . S
C1917 C1916 1.434 . S
C1918 C1919 1.369 . S
C1918 C1920 1.419 . S
C1918 H1922 0.930 . S
C1919 C1918 1.369 . S
C1919 C1928 1.429 . S
C1920 C1918 1.419 . S
C1920 C1921 1.363 . S
C1920 H1923 0.929 . S
C1921 C1920 1.363 . S
C1921 C1927 1.428 . S
H1922 C1918 0.930 . S
H1923 C1920 0.929 . S
S1924 N1925 1.613 . S
S1924 N1926 1.610 . S
N1925 S1924 1.613 . S
N1925 C1928 1.350 . S
N1926 S1924 1.610 . S
N1926 C1927 1.351 . S
C1927 C1921 1.428 . S
C1927 N1926 1.351 . S
C1927 C1928 1.434 . S
C1928 C1919 1.429 . S
C1928 N1925 1.350 . S
C1928 C1927 1.434 . S
C1929 C1930 1.369 . S
C1929 C1931 1.419 . S
C1929 H1933 0.930 1_455 S
C1930 C1929 1.369 . S
C1930 C1939 1.429 . S
C1931 C1929 1.419 . S
C1931 C1932 1.363 . S
C1931 H1934 0.929 1_455 S
C1932 C1931 1.363 . S
C1932 C1938 1.428 . S
H1933 C1929 0.930 1_655 S
H1934 C1931 0.929 1_655 S
S1935 N1936 1.613 . S
S1935 N1937 1.610 . S
N1936 S1935 1.613 . S
N1936 C1939 1.350 . S
N1937 S1935 1.610 . S
N1937 C1938 1.351 . S
C1938 C1932 1.428 . S
C1938 N1937 1.351 . S
C1938 C1939 1.434 . S
C1939 C1930 1.429 . S
C1939 N1936 1.350 . S
C1939 C1938 1.434 . S
C1940 C1941 1.369 . S
C1940 C1942 1.419 . S
C1940 H1944 0.930 . S
C1941 C1940 1.369 . S
C1941 C1950 1.429 . S
C1942 C1940 1.419 . S
C1942 C1943 1.363 . S
C1942 H1945 0.929 . S
C1943 C1942 1.363 . S
C1943 C1949 1.428 . S
H1944 C1940 0.930 . S
H1945 C1942 0.929 . S
S1946 N1947 1.613 . S
S1946 N1948 1.610 . S
N1947 S1946 1.613 . S
N1947 C1950 1.350 . S
N1948 S1946 1.610 . S
N1948 C1949 1.351 . S
C1949 C1943 1.428 . S
C1949 N1948 1.351 . S
C1949 C1950 1.434 . S
C1950 C1941 1.429 . S
C1950 N1947 1.350 . S
C1950 C1949 1.434 . S
C1951 C1952 1.369 . S
C1951 C1953 1.419 . S
C1951 H1955 0.930 . S
C1952 C1951 1.369 . S
C1952 C1961 1.429 . S
C1953 C1951 1.419 . S
C1953 C1954 1.363 . S
C1953 H1956 0.929 . S
C1954 C1953 1.363 . S
C1954 C1960 1.428 . S
H1955 C1951 0.930 . S
H1956 C1953 0.929 . S
S1957 N1958 1.613 . S
S1957 N1959 1.610 . S
N1958 S1957 1.613 . S
N1958 C1961 1.350 . S
N1959 S1957 1.610 . S
N1959 C1960 1.351 . S
C1960 C1954 1.428 . S
C1960 N1959 1.351 . S
C1960 C1961 1.434 . S
C1961 C1952 1.429 . S
C1961 N1958 1.350 . S
C1961 C1960 1.434 . S
C1962 C1963 1.369 . S
C1962 C1964 1.419 . S
C1962 H1966 0.930 . S
C1963 C1962 1.369 . S
C1963 C1972 1.429 . S
C1964 C1962 1.419 . S
C1964 C1965 1.363 . S
C1964 H1967 0.929 . S
C1965 C1964 1.363 . S
C1965 C1971 1.428 1_565 S
H1966 C1962 0.930 . S
H1967 C1964 0.929 . S
S1968 N1969 1.613 . S
S1968 N1970 1.610 . S
N1969 S1968 1.613 . S
N1969 C1972 1.350 1_545 S
N1970 S1968 1.610 . S
N1970 C1971 1.351 . S
C1971 C1965 1.428 1_545 S
C1971 N1970 1.351 . S
C1971 C1972 1.434 1_545 S
C1972 C1963 1.429 . S
C1972 N1969 1.350 1_565 S
C1972 C1971 1.434 1_565 S
C1973 C1974 1.369 . S
C1973 C1975 1.419 . S
C1973 H1977 0.930 . S
C1974 C1973 1.369 . S
C1974 C1983 1.429 . S
C1975 C1973 1.419 . S
C1975 C1976 1.363 . S
C1975 H1978 0.929 . S
C1976 C1975 1.363 . S
C1976 C1982 1.428 . S
H1977 C1973 0.930 . S
H1978 C1975 0.929 . S
S1979 N1980 1.613 1_655 S
S1979 N1981 1.610 1_655 S
N1980 S1979 1.613 1_455 S
N1980 C1983 1.350 . S
N1981 S1979 1.610 1_455 S
N1981 C1982 1.351 . S
C1982 C1976 1.428 . S
C1982 N1981 1.351 . S
C1982 C1983 1.434 . S
C1983 C1974 1.429 . S
C1983 N1980 1.350 . S
C1983 C1982 1.434 . S
C1984 C1985 1.369 . S
C1984 C1986 1.419 . S
C1984 H1988 0.930 . S
C1985 C1984 1.369 . S
C1985 C1994 1.429 . S
C1986 C1984 1.419 . S
C1986 C1987 1.363 . S
C1986 H1989 0.929 . S
C1987 C1986 1.363 . S
C1987 C1993 1.428 . S
H1988 C1984 0.930 . S
H1989 C1986 0.929 . S
S1990 N1991 1.613 . S
S1990 N1992 1.610 . S
N1991 S1990 1.613 . S
N1991 C1994 1.350 . S
N1992 S1990 1.610 . S
N1992 C1993 1.351 . S
C1993 C1987 1.428 . S
C1993 N1992 1.351 . S
C1993 C1994 1.434 . S
C1994 C1985 1.429 . S
C1994 N1991 1.350 . S
C1994 C1993 1.434 . S
C1995 C1996 1.369 . S
C1995 C1997 1.419 . S
C1995 H1999 0.930 . S
C1996 C1995 1.369 . S
C1996 C2005 1.429 . S
C1997 C1995 1.419 . S
C1997 C1998 1.363 . S
C1997 H2000 0.929 . S
C1998 C1997 1.363 . S
C1998 C2004 1.428 . S
H1999 C1995 0.930 . S
H2000 C1997 0.929 . S
S2001 N2002 1.613 . S
S2001 N2003 1.610 . S
N2002 S2001 1.613 . S
N2002 C2005 1.350 . S
N2003 S2001 1.610 . S
N2003 C2004 1.351 . S
C2004 C1998 1.428 . S
C2004 N2003 1.351 . S
C2004 C2005 1.434 . S
C2005 C1996 1.429 . S
C2005 N2002 1.350 . S
C2005 C2004 1.434 . S
C2006 C2007 1.369 . S
C2006 C2008 1.419 . S
C2006 H2010 0.930 . S
C2007 C2006 1.369 . S
C2007 C2016 1.429 . S
C2008 C2006 1.419 . S
C2008 C2009 1.363 . S
C2008 H2011 0.929 . S
C2009 C2008 1.363 . S
C2009 C2015 1.428 . S
H2010 C2006 0.930 . S
H2011 C2008 0.929 . S
S2012 N2013 1.613 . S
S2012 N2014 1.610 . S
N2013 S2012 1.613 . S
N2013 C2016 1.350 . S
N2014 S2012 1.610 . S
N2014 C2015 1.351 . S
C2015 C2009 1.428 . S
C2015 N2014 1.351 . S
C2015 C2016 1.434 . S
C2016 C2007 1.429 . S
C2016 N2013 1.350 . S
C2016 C2015 1.434 . S
C2017 C2018 1.369 . S
C2017 C2019 1.419 . S
C2017 H2021 0.930 . S
C2018 C2017 1.369 . S
C2018 C2027 1.429 . S
C2019 C2017 1.419 . S
C2019 C2020 1.363 . S
C2019 H2022 0.929 . S
C2020 C2019 1.363 . S
C2020 C2026 1.428 . S
H2021 C2017 0.930 . S
H2022 C2019 0.929 . S
S2023 N2024 1.613 . S
S2023 N2025 1.610 . S
N2024 S2023 1.613 . S
N2024 C2027 1.350 . S
N2025 S2023 1.610 . S
N2025 C2026 1.351 . S
C2026 C2020 1.428 . S
C2026 N2025 1.351 . S
C2026 C2027 1.434 . S
C2027 C2018 1.429 . S
C2027 N2024 1.350 . S
C2027 C2026 1.434 . S
C2028 C2029 1.369 . S
C2028 C2030 1.419 . S
C2028 H2032 0.930 . S
C2029 C2028 1.369 . S
C2029 C2038 1.429 . S
C2030 C2028 1.419 . S
C2030 C2031 1.363 . S
C2030 H2033 0.929 . S
C2031 C2030 1.363 . S
C2031 C2037 1.428 . S
H2032 C2028 0.930 . S
H2033 C2030 0.929 . S
S2034 N2035 1.613 . S
S2034 N2036 1.610 . S
N2035 S2034 1.613 . S
N2035 C2038 1.350 1_565 S
N2036 S2034 1.610 . S
N2036 C2037 1.351 1_565 S
C2037 C2031 1.428 . S
C2037 N2036 1.351 1_545 S
C2037 C2038 1.434 . S
C2038 C2029 1.429 . S
C2038 N2035 1.350 1_545 S
C2038 C2037 1.434 . S
C2039 C2040 1.369 . S
C2039 C2041 1.419 . S
C2039 H2043 0.930 . S
C2040 C2039 1.369 . S
C2040 C2049 1.429 1_655 S
C2041 C2039 1.419 . S
C2041 C2042 1.363 . S
C2041 H2044 0.929 . S
C2042 C2041 1.363 . S
C2042 C2048 1.428 1_655 S
H2043 C2039 0.930 . S
H2044 C2041 0.929 . S
S2045 N2046 1.613 . S
S2045 N2047 1.610 . S
N2046 S2045 1.613 . S
N2046 C2049 1.350 . S
N2047 S2045 1.610 . S
N2047 C2048 1.351 . S
C2048 C2042 1.428 1_455 S
C2048 N2047 1.351 . S
C2048 C2049 1.434 . S
C2049 C2040 1.429 1_455 S
C2049 N2046 1.350 . S
C2049 C2048 1.434 . S
C2050 C2051 1.369 . S
C2050 C2052 1.419 . S
C2050 H2054 0.930 . S
C2051 C2050 1.369 . S
C2051 C2060 1.429 . S
C2052 C2050 1.419 . S
C2052 C2053 1.363 . S
C2052 H2055 0.929 . S
C2053 C2052 1.363 . S
C2053 C2059 1.428 . S
H2054 C2050 0.930 . S
H2055 C2052 0.929 . S
S2056 N2057 1.613 . S
S2056 N2058 1.610 . S
N2057 S2056 1.613 . S
N2057 C2060 1.350 . S
N2058 S2056 1.610 . S
N2058 C2059 1.351 . S
C2059 C2053 1.428 . S
C2059 N2058 1.351 . S
C2059 C2060 1.434 . S
C2060 C2051 1.429 . S
C2060 N2057 1.350 . S
C2060 C2059 1.434 . S
C2061 C2062 1.369 . S
C2061 C2063 1.419 . S
C2061 H2065 0.930 . S
C2062 C2061 1.369 . S
C2062 C2071 1.429 . S
C2063 C2061 1.419 . S
C2063 C2064 1.363 . S
C2063 H2066 0.929 . S
C2064 C2063 1.363 . S
C2064 C2070 1.428 . S
H2065 C2061 0.930 . S
H2066 C2063 0.929 . S
S2067 N2068 1.613 . S
S2067 N2069 1.610 . S
N2068 S2067 1.613 . S
N2068 C2071 1.350 . S
N2069 S2067 1.610 . S
N2069 C2070 1.351 . S
C2070 C2064 1.428 . S
C2070 N2069 1.351 . S
C2070 C2071 1.434 . S
C2071 C2062 1.429 . S
C2071 N2068 1.350 . S
C2071 C2070 1.434 . S
C2072 C2073 1.369 . S
C2072 C2074 1.419 . S
C2072 H2076 0.930 . S
C2073 C2072 1.369 . S
C2073 C2082 1.429 . S
C2074 C2072 1.419 . S
C2074 C2075 1.363 . S
C2074 H2077 0.929 . S
C2075 C2074 1.363 . S
C2075 C2081 1.428 . S
H2076 C2072 0.930 . S
H2077 C2074 0.929 . S
S2078 N2079 1.613 . S
S2078 N2080 1.610 . S
N2079 S2078 1.613 . S
N2079 C2082 1.350 . S
N2080 S2078 1.610 . S
N2080 C2081 1.351 . S
C2081 C2075 1.428 . S
C2081 N2080 1.351 . S
C2081 C2082 1.434 . S
C2082 C2073 1.429 . S
C2082 N2079 1.350 . S
C2082 C2081 1.434 . S
C2083 C2084 1.369 . S
C2083 C2085 1.419 . S
C2083 H2087 0.930 . S
C2084 C2083 1.369 . S
C2084 C2093 1.429 . S
C2085 C2083 1.419 . S
C2085 C2086 1.363 . S
C2085 H2088 0.929 . S
C2086 C2085 1.363 . S
C2086 C2092 1.428 . S
H2087 C2083 0.930 . S
H2088 C2085 0.929 . S
S2089 N2090 1.613 . S
S2089 N2091 1.610 . S
N2090 S2089 1.613 . S
N2090 C2093 1.350 . S
N2091 S2089 1.610 . S
N2091 C2092 1.351 . S
C2092 C2086 1.428 . S
C2092 N2091 1.351 . S
C2092 C2093 1.434 . S
C2093 C2084 1.429 . S
C2093 N2090 1.350 . S
C2093 C2092 1.434 . S
C2094 C2095 1.369 . S
C2094 C2096 1.419 . S
C2094 H2098 0.930 . S
C2095 C2094 1.369 . S
C2095 C2104 1.429 . S
C2096 C2094 1.419 . S
C2096 C2097 1.363 . S
C2096 H2099 0.929 . S
C2097 C2096 1.363 . S
C2097 C2103 1.428 . S
H2098 C2094 0.930 . S
H2099 C2096 0.929 . S
S2100 N2101 1.613 . S
S2100 N2102 1.610 . S
N2101 S2100 1.613 . S
N2101 C2104 1.350 . S
N2102 S2100 1.610 . S
N2102 C2103 1.351 . S
C2103 C2097 1.428 . S
C2103 N2102 1.351 . S
C2103 C2104 1.434 . S
C2104 C2095 1.429 . S
C2104 N2101 1.350 . S
C2104 C2103 1.434 . S
C2105 C2106 1.369 . S
C2105 C2107 1.419 . S
C2105 H2109 0.930 . S
C2106 C2105 1.369 . S
C2106 C2115 1.429 . S
C2107 C2105 1.419 . S
C2107 C2108 1.363 . S
C2107 H2110 0.929 . S
C2108 C2107 1.363 . S
C2108 C2114 1.428 . S
H2109 C2105 0.930 . S
H2110 C2107 0.929 . S
S2111 N2112 1.613 . S
S2111 N2113 1.610 . S
N2112 S2111 1.613 . S
N2112 C2115 1.350 . S
N2113 S2111 1.610 . S
N2113 C2114 1.351 . S
C2114 C2108 1.428 . S
C2114 N2113 1.351 . S
C2114 C2115 1.434 . S
C2115 C2106 1.429 . S
C2115 N2112 1.350 . S
C2115 C2114 1.434 . S
C2116 C2117 1.369 . S
C2116 C2118 1.419 . S
C2116 H2120 0.930 . S
C2117 C2116 1.369 . S
C2117 C2126 1.429 . S
C2118 C2116 1.419 . S
C2118 C2119 1.363 . S
C2118 H2121 0.929 . S
C2119 C2118 1.363 . S
C2119 C2125 1.428 . S
H2120 C2116 0.930 . S
H2121 C2118 0.929 . S
S2122 N2123 1.613 . S
S2122 N2124 1.610 . S
N2123 S2122 1.613 . S
N2123 C2126 1.350 . S
N2124 S2122 1.610 . S
N2124 C2125 1.351 . S
C2125 C2119 1.428 . S
C2125 N2124 1.351 . S
C2125 C2126 1.434 . S
C2126 C2117 1.429 . S
C2126 N2123 1.350 . S
C2126 C2125 1.434 . S
C2127 C2128 1.369 . S
C2127 C2129 1.455 . S
C2127 H2131 0.930 1_655 S
C2128 C2127 1.369 . S
C2128 C2137 1.429 . S
C2129 C2127 1.455 . S
C2129 C2130 1.361 . S
C2129 H2132 0.898 1_655 S
C2130 C2129 1.361 . S
C2130 C2136 1.428 . S
H2131 C2127 0.930 1_455 S
H2132 C2129 0.898 1_455 S
S2133 N2134 1.613 . S
S2133 N2135 1.610 . S
N2134 S2133 1.613 . S
N2134 C2137 1.350 . S
N2135 S2133 1.610 . S
N2135 C2136 1.351 . S
C2136 C2130 1.428 . S
C2136 N2135 1.351 . S
C2136 C2137 1.434 . S
C2137 C2128 1.429 . S
C2137 N2134 1.350 . S
C2137 C2136 1.434 . S
C2138 C2139 1.369 . S
C2138 C2140 1.419 . S
C2138 H2142 0.930 . S
C2139 C2138 1.369 . S
C2139 C2148 1.429 . S
C2140 C2138 1.419 . S
C2140 C2141 1.363 . S
C2140 H2143 0.929 . S
C2141 C2140 1.363 . S
C2141 C2147 1.428 . S
H2142 C2138 0.930 . S
H2143 C2140 0.929 . S
S2144 N2145 1.613 . S
S2144 N2146 1.610 . S
N2145 S2144 1.613 . S
N2145 C2148 1.350 . S
N2146 S2144 1.610 . S
N2146 C2147 1.351 . S
C2147 C2141 1.428 . S
C2147 N2146 1.351 . S
C2147 C2148 1.434 . S
C2148 C2139 1.429 . S
C2148 N2145 1.350 . S
C2148 C2147 1.434 . S
C2149 C2150 1.369 . S
C2149 C2151 1.419 . S
C2149 H2153 0.930 . S
C2150 C2149 1.369 . S
C2150 C2159 1.429 . S
C2151 C2149 1.419 . S
C2151 C2152 1.363 . S
C2151 H2154 0.929 . S
C2152 C2151 1.363 . S
C2152 C2158 1.428 . S
H2153 C2149 0.930 . S
H2154 C2151 0.929 . S
S2155 N2156 1.613 . S
S2155 N2157 1.610 . S
N2156 S2155 1.613 . S
N2156 C2159 1.350 1_565 S
N2157 S2155 1.610 . S
N2157 C2158 1.351 1_565 S
C2158 C2152 1.428 . S
C2158 N2157 1.351 1_545 S
C2158 C2159 1.434 . S
C2159 C2150 1.429 . S
C2159 N2156 1.350 1_545 S
C2159 C2158 1.434 . S
C1369 C8 1.562 . S
C1371 C857 1.509 . S
C1380 C22 1.562 . S
C1382 C901 1.528 . S
C1393 C981 1.509 . S
C1391 C37 1.563 . S
C1402 C36 1.566 . S
C1404 C1025 1.528 . S
C1413 C9 1.562 . S
C1415 C1105 1.510 . S
C1424 C23 1.566 . S
C1426 C1167 1.516 . S
C1435 C50 1.565 . S
C1437 C1087 1.511 . S
C1448 C1149 1.510 . S
C1446 C64 1.562 . S
C1459 C1043 1.528 . S
C1457 C79 1.565 . S
C1468 C78 1.570 1_545 S
C1470 C963 1.516 . S
C1481 C839 1.515 . S
C1479 C51 1.565 . S
C1490 C65 1.566 . S
C1492 C919 1.528 . S
C1501 C92 1.565 . S
C1503 C1229 1.515 . S
C1512 C106 1.562 . S
C1514 C1273 1.528 . S
C1525 C1353 1.512 . S
C1523 C121 1.562 . S
C1534 C120 1.566 . S
C1536 C299 1.512 . S
C1545 C93 1.566 . S
C1547 C343 1.532 . S
C1556 C107 1.562 . S
C1558 C423 1.509 . S
C1567 C134 1.564 . S
C1569 C361 1.533 . S
C1578 C148 1.565 . S
C1580 C405 1.515 . S
C1591 C281 1.516 . S
C1589 C163 1.567 . S
C1602 C1335 1.510 . S
C1600 C162 1.565 . S
C1613 C1211 1.511 . S
C1611 C135 1.566 . S
C1624 C1291 1.529 . S
C1622 C149 1.566 . S
C1633 C176 1.567 . S
C1635 C485 1.512 . S
C1644 C190 1.567 . S
C1646 C547 1.515 . S
C1655 C205 1.566 . S
C1657 C591 1.528 . S
C1666 C204 1.562 . S
C1668 C653 1.530 . S
C1679 C715 1.532 . S
C1677 C177 1.567 . S
C1690 C795 1.515 . S
C1688 C191 1.567 . S
C1701 C733 1.533 . S
C1699 C218 1.564 . S
C1712 C777 1.509 . S
C1710 C232 1.565 . S
C1721 C247 1.566 . S
C1723 C671 1.533 . S
C1734 C609 1.530 . S
C1732 C246 1.567 . S
C1743 C219 1.566 . S
C1745 C467 1.515 . S
C1756 C529 1.514 . S
C1754 C233 1.564 . S
C1767 C305 1.455 . S
C1765 C6 1.488 . S
C1776 C20 1.489 . S
C1778 C349 1.462 . S
C1789 C429 1.462 . S
C1787 C35 1.489 . S
C1800 C491 1.463 . S
C1798 C34 1.487 . S
C1811 C553 1.462 . S
C1809 C7 1.485 . S
C1822 C597 1.468 . S
C1820 C21 1.487 . S
C1831 C48 1.485 . S
C1833 C615 1.469 . S
C1842 C62 1.486 . S
C1844 C473 1.455 . S
C1853 C77 1.486 . S
C1855 C535 1.456 . S
C1864 C76 1.490 . S
C1866 C367 1.465 . S
C1877 C411 1.456 . S
C1875 C49 1.490 . S
C1886 C63 1.486 . S
C1888 C287 1.462 . S
C1899 C659 1.465 . S
C1897 C90 1.490 . S
C1908 C104 1.490 . S
C1910 C721 1.462 . S
C1919 C119 1.491 . S
C1921 C801 1.459 . S
C1932 C863 1.458 . S
C1930 C118 1.484 . S
C1941 C91 1.484 . S
C1943 C907 1.466 . S
C1952 C105 1.486 . S
C1954 C987 1.462 . S
C1963 C132 1.491 . S
C1965 C969 1.458 . S
C1974 C146 1.486 . S
C1976 C845 1.462 . S
C1987 C925 1.461 . S
C1985 C161 1.489 . S
C1996 C160 1.488 . S
C1998 C739 1.466 . S
C2007 C133 1.491 . S
C2009 C783 1.458 . S
C2020 C677 1.467 . S
C2018 C147 1.488 . S
C2031 C1031 1.465 . S
C2029 C174 1.490 . S
C2040 C188 1.491 . S
C2042 C1111 1.461 . S
C2051 C203 1.491 . S
C2053 C1173 1.458 . S
C2064 C1235 1.455 . S
C2062 C202 1.486 . S
C2075 C1279 1.462 . S
C2073 C175 1.486 . S
C2084 C189 1.486 . S
C2086 C1359 1.462 . S
C2095 C216 1.485 . S
C2097 C1341 1.462 . S
C2106 C230 1.484 . S
C2108 C1217 1.459 . S
C2119 C1297 1.467 . S
C2117 C245 1.488 . S
C2130 C1093 1.460 . S
C2128 C244 1.484 . S
C2141 C1155 1.462 . S
C2139 C217 1.487 . S
C2150 C231 1.491 . S
C2152 C1049 1.464 . S
