# Generated by pormake.
# Topology rtl, (3,6)-cn, num edge types: 1
# Building blocks:
#     Node 0, Type 0, BuildingBlock: PAMTOO_clean_linker_0, # of connection points: 3
#     Node 1, Type 0, BuildingBlock: PAMTOO_clean_linker_0, # of connection points: 3
#     Node 2, Type 0, BuildingBlock: PAMTOO_clean_linker_0, # of connection points: 3
#     Node 3, Type 0, BuildingBlock: PAMTOO_clean_linker_0, # of connection points: 3
#     Node 4, Type 1, BuildingBlock: VOLQOD_clean_sbu_1, # of connection points: 6
#     Node 5, Type 1, BuildingBlock: VOLQOD_clean_sbu_1, # of connection points: 6
#     Edge 6, Type (0, 1), BuildingBlock: XIVTED_clean_linker_0, # of connection points: 2
#     Edge 7, Type (0, 1), BuildingBlock: XIVTED_clean_linker_0, # of connection points: 2
#     Edge 8, Type (0, 1), BuildingBlock: XIVTED_clean_linker_0, # of connection points: 2
#     Edge 9, Type (0, 1), BuildingBlock: XIVTED_clean_linker_0, # of connection points: 2
#     Edge 10, Type (0, 1), BuildingBlock: XIVTED_clean_linker_0, # of connection points: 2
#     Edge 11, Type (0, 1), BuildingBlock: XIVTED_clean_linker_0, # of connection points: 2
#     Edge 12, Type (0, 1), BuildingBlock: XIVTED_clean_linker_0, # of connection points: 2
#     Edge 13, Type (0, 1), BuildingBlock: XIVTED_clean_linker_0, # of connection points: 2
#     Edge 14, Type (0, 1), BuildingBlock: XIVTED_clean_linker_0, # of connection points: 2
#     Edge 15, Type (0, 1), BuildingBlock: XIVTED_clean_linker_0, # of connection points: 2
#     Edge 16, Type (0, 1), BuildingBlock: XIVTED_clean_linker_0, # of connection points: 2
#     Edge 17, Type (0, 1), BuildingBlock: XIVTED_clean_linker_0, # of connection points: 2
# Relax obj value: 0.042
# Max RMSD: 0.144
# Mean RMSD: 0.095
data_MOF--net-rtl--node1-VOLQOD_clean_sbu_1--node2-PAMTOO_clean_linker_0--edge1-XIVTED_clean_linker_0
_symmetry_space_group_name_H-M    P1
_symmetry_Int_Tables_number       1
_symmetry_cell_setting            triclinic
loop_
_symmetry_equiv_pos_as_xyz
'x, y, z'
_cell_length_a     38.119134
_cell_length_b     38.117601
_cell_length_c     22.271453
_cell_angle_alpha  92.99479
_cell_angle_beta   90.569174
_cell_angle_gamma 89.634822
loop_
_atom_site_label
_atom_site_type_symbol
_atom_site_fract_x
_atom_site_fract_y
_atom_site_fract_z
_atom_type_partial_charge
H0 H 0.14312 0.85925 -0.00885 0.0
H1 H 0.1897 0.7732 0.08213 0.0
H2 H 0.21606 0.7896 0.89877 0.0
H3 H 0.20526 0.71681 0.92837 0.0
C4 C 0.21745 0.71754 0.97407 0.0
O5 O 0.22791 0.75118 -0.0092 0.0
H6 H 0.1976 0.70858 0.00615 0.0
C7 C 0.16056 0.83667 -0.00871 0.0
C8 C 0.17908 0.82683 0.93901 0.0
C9 C 0.16361 0.81735 0.04308 0.0
C10 C 0.18674 0.78852 0.04275 0.0
C11 C 0.20562 0.77874 -0.00922 0.0
C12 C 0.20161 0.79766 0.93888 0.0
H13 H 0.63782 0.64272 0.48762 0.0
H14 H 0.70409 0.71924 0.41178 0.0
H15 H 0.71432 0.69863 0.5989 0.0
H16 H 0.71175 0.77422 0.56896 0.0
C17 C 0.72657 0.77207 0.52607 0.0
O18 O 0.73584 0.73743 0.51353 0.0
H19 H 0.70958 0.78152 0.48929 0.0
C20 C 0.65877 0.66176 0.49308 0.0
C21 C 0.67518 0.66757 0.54938 0.0
C22 C 0.66909 0.67995 0.44323 0.0
C23 C 0.69589 0.70485 0.44987 0.0
C24 C 0.71142 0.71208 0.50646 0.0
C25 C 0.7014 0.69327 0.55589 0.0
H26 H 0.88632 0.15515 0.01579 0.0
H27 H 0.82239 0.23225 0.93162 0.0
H28 H 0.80168 0.20637 0.11308 0.0
H29 H 0.73978 0.21296 0.03437 0.0
C30 C 0.74924 0.23355 0.00487 0.0
O31 O 0.78198 0.24458 0.02451 0.0
H32 H 0.75072 0.22215 0.95793 0.0
C33 C 0.86513 0.17425 0.01815 0.0
C34 C 0.84524 0.17838 0.07079 0.0
C35 C 0.85708 0.19324 0.96752 0.0
C36 C 0.82936 0.21762 0.97048 0.0
C37 C 0.80971 0.22243 0.02313 0.0
C38 C 0.81772 0.20304 0.07328 0.0
H39 H 0.35383 0.36705 0.47529 0.0
H40 H 0.29082 0.28951 0.55632 0.0
H41 H 0.29363 0.29365 0.36387 0.0
H42 H 0.22465 0.2825 0.40671 0.0
C43 C 0.23053 0.27046 0.45019 0.0
O44 O 0.26583 0.26272 0.45386 0.0
H45 H 0.22295 0.28977 0.48714 0.0
C46 C 0.33566 0.34526 0.47083 0.0
C47 C 0.32514 0.33243 0.41345 0.0
C48 C 0.32361 0.32999 0.52256 0.0
C49 C 0.30084 0.30126 0.51673 0.0
C50 C 0.28986 0.2885 0.45942 0.0
C51 C 0.30249 0.3036 0.40787 0.0
O52 O 0.92547 0.96782 0.52764 0.0
Zn53 Zn 0.95484 0.01074 0.5174 0.0
O54 O 0.0043 -0.00208 0.50768 0.0
Zn55 Zn 0.03183 0.02121 0.57255 0.0
Zn56 Zn 0.01014 0.94704 0.51028 0.0
Zn57 Zn 0.02038 0.01269 0.43014 0.0
O58 O 0.06687 0.05382 0.53929 0.0
O59 O 0.05863 0.04877 0.44043 0.0
O60 O 0.94796 0.04412 0.58871 0.0
O61 O 0.00122 0.05103 0.62851 0.0
O62 O 0.05844 0.98611 0.62031 0.0
O63 O 0.04213 0.93471 0.57791 0.0
O64 O 0.03244 0.92607 0.43519 0.0
O65 O 0.93582 0.03517 0.44587 0.0
O66 O 0.03867 0.97199 0.37893 0.0
O67 O 0.98118 0.03411 0.38397 0.0
C68 C 0.93236 0.93505 0.52686 0.0
C69 C 0.07444 0.06238 0.48651 0.0
C70 C 0.05988 0.95267 0.61705 0.0
C71 C 0.96849 0.05796 0.62849 0.0
C72 C 0.04204 0.93933 0.38683 0.0
C73 C 0.94943 0.04194 0.39589 0.0
O74 O 0.96357 0.92347 0.52001 0.0
O75 O 0.58128 0.46065 -0.00828 0.0
Zn76 Zn 0.55445 0.50647 -0.01156 0.0
O77 O 0.50383 0.49847 0.98275 0.0
Zn78 Zn 0.48493 0.51837 0.91018 0.0
Zn79 Zn 0.49452 0.44806 0.97971 0.0
Zn80 Zn 0.48106 0.52096 0.05281 0.0
O81 O 0.44838 0.55559 0.92934 0.0
O82 O 0.44335 0.55425 0.0283 0.0
O83 O 0.57129 0.53167 0.91738 0.0
O84 O 0.52326 0.53877 0.86168 0.0
O85 O 0.46018 0.4816 0.85858 0.0
O86 O 0.46715 0.43213 0.90561 0.0
O87 O 0.46583 0.43508 0.04984 0.0
O88 O 0.56687 0.53759 0.06109 0.0
O89 O 0.45776 0.48546 0.1025 0.0
O90 O 0.51553 0.54888 0.10432 0.0
C91 C 0.57152 0.42867 -0.01153 0.0
C92 C 0.43374 0.566 0.97828 0.0
C93 C 0.45493 0.44884 0.86199 0.0
C94 C 0.55609 0.54255 0.87071 0.0
C95 C 0.45326 0.45244 0.09503 0.0
C96 C 0.54861 0.55298 0.10224 0.0
O97 O 0.53928 0.42051 0.98294 0.0
H98 H 0.21537 0.23694 0.55197 0.0
H99 H 0.09636 0.08995 0.3819 0.0
H100 H 0.20005 0.229 0.35981 0.0
H101 H 0.11281 0.09793 0.57432 0.0
H102 H 0.13707 0.13849 0.37198 0.0
H103 H 0.18049 0.18369 0.56043 0.0
C104 C 0.20451 0.22387 0.51166 0.0
C105 C 0.2098 0.23752 0.45534 0.0
C106 C 0.1319 0.12947 0.41632 0.0
C107 C 0.17031 0.17669 0.46422 0.0
C108 C 0.10868 0.10171 0.42204 0.0
C109 C 0.10093 0.08996 0.47909 0.0
C110 C 0.14743 0.14564 0.46802 0.0
C111 C 0.1178 0.10619 0.52945 0.0
C112 C 0.18473 0.19352 0.51636 0.0
C113 C 0.19594 0.21947 0.40413 0.0
N114 N 0.14008 0.1333 0.52273 0.0
N115 N 0.17657 0.19006 0.40981 0.0
H116 H 0.24683 0.68584 0.06973 0.0
H117 H 0.40422 0.59627 0.88045 0.0
H118 H 0.2604 0.69771 0.88005 0.0
H119 H 0.394 0.59128 0.07282 0.0
H120 H 0.35172 0.63335 0.87886 0.0
H121 H 0.30054 0.65028 0.07128 0.0
C122 C 0.26104 0.68051 0.02832 0.0
C123 C 0.24898 0.69387 0.97445 0.0
C124 C 0.36109 0.62425 0.92143 0.0
C125 C 0.31061 0.65401 0.97581 0.0
C126 C 0.39111 0.60313 0.9224 0.0
C127 C 0.40354 0.59053 0.97683 0.0
C128 C 0.34328 0.63273 0.97522 0.0
C129 C 0.38542 0.6003 0.02976 0.0
C130 C 0.29173 0.66046 0.02918 0.0
C131 C 0.26862 0.68717 0.92219 0.0
N132 N 0.35616 0.62067 0.02756 0.0
N133 N 0.29846 0.66755 0.92408 0.0
H134 H 0.73256 0.83596 0.58575 0.0
H135 H 0.93365 0.86386 0.50269 0.0
H136 H 0.79228 0.76138 0.47532 0.0
H137 H 0.86478 0.9489 0.56195 0.0
H138 H 0.88441 0.82327 0.50608 0.0
H139 H 0.78321 0.87535 0.59035 0.0
C140 C 0.75652 0.82775 0.56318 0.0
C141 C 0.75852 0.79507 0.53144 0.0
C142 C 0.88015 0.85081 0.51846 0.0
C143 C 0.81627 0.83995 0.53578 0.0
C144 C 0.90825 0.87398 0.51681 0.0
C145 C 0.9033 0.90989 0.53178 0.0
C146 C 0.84694 0.86354 0.53582 0.0
C147 C 0.86976 0.92149 0.54963 0.0
C148 C 0.78528 0.85022 0.56556 0.0
C149 C 0.78982 0.78596 0.50155 0.0
N150 N 0.84286 0.89837 0.55119 0.0
N151 N 0.81755 0.80822 0.50477 0.0
H152 H 0.76075 0.30121 0.9722 0.0
H153 H 0.55982 0.35894 0.00223 0.0
H154 H 0.67996 0.2341 0.03568 0.0
H155 H 0.64333 0.43343 0.98263 0.0
H156 H 0.60333 0.31213 0.00781 0.0
H157 H 0.71797 0.34941 0.96937 0.0
C158 C 0.73409 0.29684 0.98629 0.0
C159 C 0.72397 0.264 0.00576 0.0
C160 C 0.61217 0.33872 0.00243 0.0
C161 C 0.67484 0.31848 0.00099 0.0
C162 C 0.58732 0.36549 -0.001 0.0
C163 C 0.59792 0.40022 -0.00811 0.0
C164 C 0.64794 0.34656 -0.0018 0.0
C165 C 0.63397 0.40706 -0.01175 0.0
C166 C 0.70971 0.32425 0.9845 0.0
C167 C 0.68891 0.25927 0.02164 0.0
N168 N 0.65772 0.38041 -0.0088 0.0
N169 N 0.66559 0.28621 0.01891 0.0
H170 H 0.09521 0.8392 0.04541 0.0
H171 H 0.08202 0.88004 0.39784 0.0
H172 H 0.18312 0.8189 0.16272 0.0
H173 H 0.03706 0.94695 0.2665 0.0
H174 H 0.10974 0.84435 0.31579 0.0
H175 H 0.06326 0.8649 0.13137 0.0
C176 C 0.10779 0.84002 0.08928 0.0
C177 C 0.14233 0.82779 0.09658 0.0
C178 C 0.09359 0.86673 0.3053 0.0
C179 C 0.10538 0.85625 0.19517 0.0
C180 C 0.07774 0.88695 0.35176 0.0
C181 C 0.05748 0.91651 0.33864 0.0
C182 C 0.08819 0.87574 0.24566 0.0
C183 C 0.05276 0.92453 0.27842 0.0
C184 C 0.08944 0.85452 0.13822 0.0
C185 C 0.15667 0.82823 0.15498 0.0
N186 N 0.06788 0.90413 0.23407 0.0
N187 N 0.13818 0.84258 0.20222 0.0
H188 H 0.65726 0.59808 0.54699 0.0
H189 H 0.61325 0.58458 0.89073 0.0
H190 H 0.66802 0.68952 0.66874 0.0
H191 H 0.54636 0.54008 0.74944 0.0
H192 H 0.64692 0.6144 0.81478 0.0
H193 H 0.63056 0.56674 0.62736 0.0
C194 C 0.65411 0.61162 0.59059 0.0
C195 C 0.66403 0.64691 0.60055 0.0
C196 C 0.62492 0.59798 0.80078 0.0
C197 C 0.63468 0.61055 0.69302 0.0
C198 C 0.60587 0.58093 0.84373 0.0
C199 C 0.57701 0.56002 0.82603 0.0
C200 C 0.61556 0.59307 0.73994 0.0
C201 C 0.5683 0.55619 0.7648 0.0
C202 C 0.63905 0.59359 0.63637 0.0
C203 C 0.66066 0.66245 0.65888 0.0
N204 N 0.58772 0.57234 0.72378 0.0
N205 N 0.64606 0.64416 0.70307 0.0
H206 H 0.86039 0.10824 0.06477 0.0
H207 H 0.89576 0.08935 0.41443 0.0
H208 H 0.8468 0.19647 0.19224 0.0
H209 H 0.95541 0.03466 0.27456 0.0
H210 H 0.86405 0.12122 0.33704 0.0
H211 H 0.88084 0.0728 0.1462 0.0
C212 C 0.86165 0.12018 0.10995 0.0
C213 C 0.85286 0.1557 0.12148 0.0
C214 C 0.88392 0.10202 0.32363 0.0
C215 C 0.87541 0.1149 0.21495 0.0
C216 C 0.90184 0.08379 0.36747 0.0
C217 C 0.92832 0.05958 0.35062 0.0
C218 C 0.89206 0.09517 0.26285 0.0
C219 C 0.9354 0.05337 0.28938 0.0
C220 C 0.87314 0.09985 0.15634 0.0
C221 C 0.85362 0.16929 0.18133 0.0
N222 N 0.91729 0.07097 0.24767 0.0
N223 N 0.86509 0.1489 0.22601 0.0
H224 H 0.35438 0.29616 0.61539 0.0
H225 H 0.41606 0.47808 0.77398 0.0
H226 H 0.31978 0.39815 0.56309 0.0
H227 H 0.44247 0.37792 0.84525 0.0
H228 H 0.37866 0.44823 0.69905 0.0
H229 H 0.38339 0.32431 0.70435 0.0
C230 C 0.35228 0.32437 0.62348 0.0
C231 C 0.33514 0.34502 0.58184 0.0
C232 C 0.39249 0.43267 0.73111 0.0
C233 C 0.36845 0.37727 0.68204 0.0
C234 C 0.41411 0.44973 0.77379 0.0
C235 C 0.43269 0.43047 0.81575 0.0
C236 C 0.38953 0.39594 0.72975 0.0
C237 C 0.42873 0.39379 0.81355 0.0
C238 C 0.36899 0.34043 0.67384 0.0
C239 C 0.33321 0.38142 0.59386 0.0
N240 N 0.40772 0.37764 0.77093 0.0
N241 N 0.35 0.3964 0.64247 0.0
H242 H 0.70009 0.66029 0.33642 0.0
H243 H 0.51802 0.59293 0.19324 0.0
H244 H 0.59919 0.67921 0.418 0.0
H245 H 0.6188 0.56779 0.11452 0.0
H246 H 0.54709 0.63133 0.26878 0.0
H247 H 0.67052 0.6343 0.24648 0.0
C248 C 0.67169 0.65973 0.33465 0.0
C249 C 0.65196 0.67147 0.38458 0.0
C250 C 0.56287 0.61755 0.23485 0.0
C251 C 0.6181 0.64141 0.28306 0.0
C252 C 0.54628 0.59546 0.19177 0.0
C253 C 0.56601 0.57673 0.14781 0.0
C254 C 0.59953 0.62092 0.23429 0.0
C255 C 0.60254 0.58145 0.14788 0.0
C256 C 0.65483 0.64464 0.2837 0.0
C257 C 0.61527 0.67 0.38052 0.0
N258 N 0.61816 0.6029 0.19073 0.0
N259 N 0.59954 0.65485 0.33093 0.0
H260 H 0.82781 0.18075 0.85608 0.0
H261 H 0.00289 0.09163 0.72367 0.0
H262 H 0.92754 0.18374 0.94947 0.0
H263 H 0.90099 0.08233 0.63791 0.0
H264 H 0.9777 0.13245 0.80003 0.0
H265 H 0.85654 0.15342 0.76776 0.0
C266 C 0.85592 0.17646 0.85746 0.0
C267 C 0.87528 0.1841 0.91034 0.0
C268 C 0.96092 0.1216 0.76428 0.0
C269 C 0.90816 0.15205 0.81014 0.0
C270 C 0.97526 0.09819 0.72077 0.0
C271 C 0.95396 0.08317 0.67465 0.0
C272 C 0.92504 0.13008 0.76165 0.0
C273 C 0.91838 0.09293 0.67295 0.0
C274 C 0.87226 0.1605 0.80727 0.0
C275 C 0.91158 0.17767 0.90984 0.0
N276 N 0.90503 0.1156 0.71597 0.0
N277 N 0.92679 0.1616 0.86079 0.0
H278 H 0.32607 0.40247 0.39595 0.0
H279 H 0.4399 0.38189 0.09666 0.0
H280 H 0.3537 0.302 0.31077 0.0
H281 H 0.41813 0.48096 0.19259 0.0
H282 H 0.40435 0.35219 0.16898 0.0
H283 H 0.35456 0.43169 0.31495 0.0
C284 C 0.33799 0.38659 0.35979 0.0
C285 C 0.33801 0.34982 0.36027 0.0
C286 C 0.40732 0.38042 0.17406 0.0
C287 C 0.37081 0.38302 0.26754 0.0
C288 C 0.42768 0.39743 0.1329 0.0
C289 C 0.43219 0.434 0.13874 0.0
C290 C 0.3913 0.40013 0.2213 0.0
C291 C 0.41559 0.45273 0.18645 0.0
C292 C 0.35426 0.40325 0.31359 0.0
C293 C 0.3532 0.33042 0.31193 0.0
N294 N 0.39594 0.43557 0.22589 0.0
N295 N 0.36937 0.34729 0.26767 0.0
H296 H 0.18012 0.89765 0.92705 0.0
H297 H 0.0741 0.88218 0.61728 0.0
H298 H 0.16155 0.79948 0.82713 0.0
H299 H 0.0988 0.98096 0.71168 0.0
H300 H 0.11102 0.8519 0.6883 0.0
H301 H 0.15678 0.92916 0.8425 0.0
C302 C 0.17167 0.88282 0.88672 0.0
C303 C 0.17235 0.84599 0.88407 0.0
C304 C 0.10857 0.88022 0.69325 0.0
C305 C 0.1451 0.88167 0.78771 0.0
C306 C 0.08732 0.89756 0.65288 0.0
C307 C 0.08297 0.93418 0.65892 0.0
C308 C 0.12546 0.89957 0.74033 0.0
C309 C 0.10112 0.95269 0.70555 0.0
C310 C 0.15828 0.90075 0.83856 0.0
C311 C 0.16146 0.82791 0.8308 0.0
N312 N 0.12134 0.93514 0.74474 0.0
N313 N 0.14773 0.84594 0.78496 0.0
loop_
_geom_bond_atom_site_label_1
_geom_bond_atom_site_label_2
_geom_bond_distance
_geom_bond_site_symmetry_2
_ccdc_geom_bond_type
H0 C7 0.929 . S
H1 C10 0.930 . S
H2 C12 0.929 . S
H3 C4 0.969 . S
C4 H3 0.969 . S
C4 O5 1.550 1_554 S
C4 H6 0.973 . S
O5 C4 1.550 1_556 S
O5 C11 1.412 . S
H6 C4 0.973 . S
C7 H0 0.929 . S
C7 C8 1.400 1_554 S
C7 C9 1.364 . S
C8 C7 1.400 1_556 S
C8 C12 1.377 . S
C9 C7 1.364 . S
C9 C10 1.374 . S
C10 H1 0.930 . S
C10 C9 1.374 . S
C10 C11 1.383 1_554 S
C11 O5 1.412 . S
C11 C10 1.383 1_556 S
C11 C12 1.394 . S
C12 H2 0.929 . S
C12 C8 1.377 . S
C12 C11 1.394 . S
H13 C20 0.929 . S
H14 C23 0.930 . S
H15 C25 0.929 . S
H16 C17 0.969 . S
C17 H16 0.969 . S
C17 O18 1.550 . S
C17 H19 0.973 . S
O18 C17 1.550 . S
O18 C24 1.412 . S
H19 C17 0.973 . S
C20 H13 0.929 . S
C20 C21 1.400 . S
C20 C22 1.364 . S
C21 C20 1.400 . S
C21 C25 1.377 . S
C22 C20 1.364 . S
C22 C23 1.374 . S
C23 H14 0.930 . S
C23 C22 1.374 . S
C23 C24 1.383 . S
C24 O18 1.412 . S
C24 C23 1.383 . S
C24 C25 1.394 . S
C25 H15 0.929 . S
C25 C21 1.377 . S
C25 C24 1.394 . S
H26 C33 0.929 . S
H27 C36 0.930 . S
H28 C38 0.929 . S
H29 C30 0.969 . S
C30 H29 0.969 . S
C30 O31 1.550 1_556 S
C30 H32 0.973 . S
O31 C30 1.550 1_554 S
O31 C37 1.412 . S
H32 C30 0.973 . S
C33 H26 0.929 . S
C33 C34 1.400 . S
C33 C35 1.364 1_554 S
C34 C33 1.400 . S
C34 C38 1.377 . S
C35 C33 1.364 1_556 S
C35 C36 1.374 . S
C36 H27 0.930 . S
C36 C35 1.374 . S
C36 C37 1.383 1_556 S
C37 O31 1.412 . S
C37 C36 1.383 1_554 S
C37 C38 1.394 . S
C38 H28 0.929 . S
C38 C34 1.377 . S
C38 C37 1.394 . S
H39 C46 0.929 . S
H40 C49 0.930 . S
H41 C51 0.929 . S
H42 C43 0.969 . S
C43 H42 0.969 . S
C43 O44 1.550 . S
C43 H45 0.973 . S
O44 C43 1.550 . S
O44 C50 1.412 . S
H45 C43 0.973 . S
C46 H39 0.929 . S
C46 C47 1.400 . S
C46 C48 1.364 . S
C47 C46 1.400 . S
C47 C51 1.377 . S
C48 C46 1.364 . S
C48 C49 1.374 . S
C49 H40 0.930 . S
C49 C48 1.374 . S
C49 C50 1.383 . S
C50 O44 1.412 . S
C50 C49 1.383 . S
C50 C51 1.394 . S
C51 H41 0.929 . S
C51 C47 1.377 . S
C51 C50 1.394 . S
O52 Zn53 1.953 1_565 S
O52 C68 1.225 . S
Zn53 O52 1.953 1_545 S
Zn53 O54 1.949 1_655 S
Zn53 O60 1.919 . S
Zn53 O65 1.924 . S
O54 Zn53 1.949 1_455 S
O54 Zn55 1.923 . S
O54 Zn56 1.950 1_545 S
O54 Zn57 1.945 . S
Zn55 O54 1.923 . S
Zn55 O58 1.933 . S
Zn55 O61 1.941 . S
Zn55 O62 1.965 1_545 S
Zn56 O54 1.950 1_565 S
Zn56 O63 1.938 . S
Zn56 O64 1.906 . S
Zn56 O74 1.953 1_455 S
Zn57 O54 1.945 . S
Zn57 O59 1.932 . S
Zn57 O66 1.977 1_545 S
Zn57 O67 1.910 1_455 S
O58 Zn55 1.933 . S
O58 C69 1.226 . S
O59 Zn57 1.932 . S
O59 C69 1.307 . S
O60 Zn53 1.919 . S
O60 C71 1.253 . S
O61 Zn55 1.941 . S
O61 C71 1.283 1_455 S
O62 Zn55 1.965 1_565 S
O62 C70 1.303 . S
O63 Zn56 1.938 . S
O63 C70 1.247 . S
O64 Zn56 1.906 . S
O64 C72 1.304 . S
O65 Zn53 1.924 . S
O65 C73 1.311 . S
O66 Zn57 1.977 1_565 S
O66 C72 1.272 . S
O67 Zn57 1.910 1_655 S
O67 C73 1.231 . S
C68 O52 1.225 . S
C68 O74 1.298 . S
C69 O58 1.226 . S
C69 O59 1.307 . S
C70 O62 1.303 . S
C70 O63 1.247 . S
C71 O60 1.253 . S
C71 O61 1.283 1_655 S
C72 O64 1.304 . S
C72 O66 1.272 . S
C73 O65 1.311 . S
C73 O67 1.231 . S
O74 Zn56 1.953 1_655 S
O74 C68 1.298 . S
O75 Zn76 1.953 . S
O75 C91 1.225 1_556 S
Zn76 O75 1.953 . S
Zn76 O77 1.949 1_556 S
Zn76 O83 1.919 . S
Zn76 O88 1.924 1_556 S
O77 Zn76 1.949 1_554 S
O77 Zn78 1.923 1_554 S
O77 Zn79 1.950 . S
O77 Zn80 1.945 . S
Zn78 O77 1.923 1_556 S
Zn78 O81 1.933 . S
Zn78 O84 1.941 . S
Zn78 O85 1.965 . S
Zn79 O77 1.950 . S
Zn79 O86 1.938 1_554 S
Zn79 O87 1.906 . S
Zn79 O97 1.953 . S
Zn80 O77 1.945 . S
Zn80 O82 1.932 . S
Zn80 O89 1.977 . S
Zn80 O90 1.910 . S
O81 Zn78 1.933 . S
O81 C92 1.226 1_556 S
O82 Zn80 1.932 . S
O82 C92 1.307 . S
O83 Zn76 1.919 . S
O83 C94 1.253 . S
O84 Zn78 1.941 . S
O84 C94 1.283 . S
O85 Zn78 1.965 . S
O85 C93 1.303 . S
O86 Zn79 1.938 1_556 S
O86 C93 1.247 . S
O87 Zn79 1.906 . S
O87 C95 1.304 . S
O88 Zn76 1.924 1_554 S
O88 C96 1.311 . S
O89 Zn80 1.977 . S
O89 C95 1.272 . S
O90 Zn80 1.910 . S
O90 C96 1.231 . S
C91 O75 1.225 1_554 S
C91 O97 1.298 . S
C92 O81 1.226 1_554 S
C92 O82 1.307 . S
C93 O85 1.303 . S
C93 O86 1.247 . S
C94 O83 1.253 . S
C94 O84 1.283 . S
C95 O87 1.304 . S
C95 O89 1.272 . S
C96 O88 1.311 . S
C96 O90 1.231 . S
O97 Zn79 1.953 . S
O97 C91 1.298 . S
H98 C104 0.930 . S
H99 C108 0.930 . S
H100 C113 0.929 . S
H101 C111 0.929 . S
H102 C106 0.929 . S
H103 C112 0.929 . S
C104 H98 0.930 . S
C104 C105 1.367 . S
C104 C112 1.378 . S
C105 C104 1.367 . S
C105 C113 1.433 . S
C106 H102 0.929 . S
C106 C108 1.378 . S
C106 C110 1.350 . S
C107 C110 1.463 . S
C107 C112 1.350 . S
C107 N115 1.427 . S
C108 H99 0.930 . S
C108 C106 1.378 . S
C108 C109 1.367 . S
C109 C108 1.367 . S
C109 C111 1.433 . S
C110 C106 1.350 . S
C110 C107 1.463 . S
C110 N114 1.427 . S
C111 H101 0.929 . S
C111 C109 1.433 . S
C111 N114 1.384 . S
C112 H103 0.929 . S
C112 C104 1.378 . S
C112 C107 1.350 . S
C113 H100 0.929 . S
C113 C105 1.433 . S
C113 N115 1.384 . S
N114 C110 1.427 . S
N114 C111 1.384 . S
N115 C107 1.427 . S
N115 C113 1.384 . S
H116 C122 0.930 . S
H117 C126 0.930 . S
H118 C131 0.929 . S
H119 C129 0.929 . S
H120 C124 0.929 . S
H121 C130 0.929 . S
C122 H116 0.930 . S
C122 C123 1.367 . S
C122 C130 1.378 . S
C123 C122 1.367 . S
C123 C131 1.433 1_554 S
C124 H120 0.929 . S
C124 C126 1.378 . S
C124 C128 1.350 1_556 S
C125 C128 1.463 . S
C125 C130 1.350 . S
C125 N133 1.427 1_554 S
C126 H117 0.930 . S
C126 C124 1.378 . S
C126 C127 1.367 1_556 S
C127 C126 1.367 1_554 S
C127 C129 1.433 . S
C128 C124 1.350 1_554 S
C128 C125 1.463 . S
C128 N132 1.427 . S
C129 H119 0.929 . S
C129 C127 1.433 . S
C129 N132 1.384 . S
C130 H121 0.929 . S
C130 C122 1.378 . S
C130 C125 1.350 . S
C131 H118 0.929 . S
C131 C123 1.433 1_556 S
C131 N133 1.384 . S
N132 C128 1.427 . S
N132 C129 1.384 . S
N133 C125 1.427 1_556 S
N133 C131 1.384 . S
H134 C140 0.930 . S
H135 C144 0.930 . S
H136 C149 0.929 . S
H137 C147 0.929 . S
H138 C142 0.929 . S
H139 C148 0.929 . S
C140 H134 0.930 . S
C140 C141 1.367 . S
C140 C148 1.378 . S
C141 C140 1.367 . S
C141 C149 1.433 . S
C142 H138 0.929 . S
C142 C144 1.378 . S
C142 C146 1.350 . S
C143 C146 1.463 . S
C143 C148 1.350 . S
C143 N151 1.427 . S
C144 H135 0.930 . S
C144 C142 1.378 . S
C144 C145 1.367 . S
C145 C144 1.367 . S
C145 C147 1.433 . S
C146 C142 1.350 . S
C146 C143 1.463 . S
C146 N150 1.427 . S
C147 H137 0.929 . S
C147 C145 1.433 . S
C147 N150 1.384 . S
C148 H139 0.929 . S
C148 C140 1.378 . S
C148 C143 1.350 . S
C149 H136 0.929 . S
C149 C141 1.433 . S
C149 N151 1.384 . S
N150 C146 1.427 . S
N150 C147 1.384 . S
N151 C143 1.427 . S
N151 C149 1.384 . S
H152 C158 0.930 . S
H153 C162 0.930 . S
H154 C167 0.929 . S
H155 C165 0.931 . S
H156 C160 0.929 . S
H157 C166 0.929 . S
C158 H152 0.930 . S
C158 C159 1.367 . S
C158 C166 1.378 . S
C159 C158 1.367 . S
C159 C167 1.433 1_556 S
C160 H156 0.929 . S
C160 C162 1.378 . S
C160 C164 1.350 . S
C161 C164 1.462 . S
C161 C166 1.349 1_554 S
C161 N169 1.428 . S
C162 H153 0.930 . S
C162 C160 1.378 . S
C162 C163 1.367 . S
C163 C162 1.367 . S
C163 C165 1.432 1_554 S
C164 C160 1.350 . S
C164 C161 1.462 . S
C164 N168 1.427 1_554 S
C165 H155 0.931 . S
C165 C163 1.432 1_556 S
C165 N168 1.383 . S
C166 H157 0.929 . S
C166 C158 1.378 . S
C166 C161 1.349 1_556 S
C167 H154 0.929 . S
C167 C159 1.433 1_554 S
C167 N169 1.384 . S
N168 C164 1.427 1_556 S
N168 C165 1.383 . S
N169 C161 1.428 . S
N169 C167 1.384 . S
H170 C176 0.930 . S
H171 C180 0.930 . S
H172 C185 0.929 . S
H173 C183 0.929 . S
H174 C178 0.929 . S
H175 C184 0.929 . S
C176 H170 0.930 . S
C176 C177 1.367 . S
C176 C184 1.378 . S
C177 C176 1.367 . S
C177 C185 1.433 . S
C178 H174 0.929 . S
C178 C180 1.378 . S
C178 C182 1.350 . S
C179 C182 1.463 . S
C179 C184 1.350 . S
C179 N187 1.427 . S
C180 H171 0.930 . S
C180 C178 1.378 . S
C180 C181 1.367 . S
C181 C180 1.367 . S
C181 C183 1.433 . S
C182 C178 1.350 . S
C182 C179 1.463 . S
C182 N186 1.427 . S
C183 H173 0.929 . S
C183 C181 1.433 . S
C183 N186 1.384 . S
C184 H175 0.929 . S
C184 C176 1.378 . S
C184 C179 1.350 . S
C185 H172 0.929 . S
C185 C177 1.433 . S
C185 N187 1.384 . S
N186 C182 1.427 . S
N186 C183 1.384 . S
N187 C179 1.427 . S
N187 C185 1.384 . S
H188 C194 0.930 . S
H189 C198 0.930 . S
H190 C203 0.929 . S
H191 C201 0.929 . S
H192 C196 0.929 . S
H193 C202 0.929 . S
C194 H188 0.930 . S
C194 C195 1.367 . S
C194 C202 1.378 . S
C195 C194 1.367 . S
C195 C203 1.433 . S
C196 H192 0.929 . S
C196 C198 1.378 . S
C196 C200 1.350 . S
C197 C200 1.463 . S
C197 C202 1.350 . S
C197 N205 1.427 . S
C198 H189 0.930 . S
C198 C196 1.378 . S
C198 C199 1.367 . S
C199 C198 1.367 . S
C199 C201 1.433 . S
C200 C196 1.350 . S
C200 C197 1.463 . S
C200 N204 1.427 . S
C201 H191 0.929 . S
C201 C199 1.433 . S
C201 N204 1.384 . S
C202 H193 0.929 . S
C202 C194 1.378 . S
C202 C197 1.350 . S
C203 H190 0.929 . S
C203 C195 1.433 . S
C203 N205 1.384 . S
N204 C200 1.427 . S
N204 C201 1.384 . S
N205 C197 1.427 . S
N205 C203 1.384 . S
H206 C212 0.930 . S
H207 C216 0.930 . S
H208 C221 0.929 . S
H209 C219 0.929 . S
H210 C214 0.929 . S
H211 C220 0.929 . S
C212 H206 0.930 . S
C212 C213 1.367 . S
C212 C220 1.378 . S
C213 C212 1.367 . S
C213 C221 1.433 . S
C214 H210 0.929 . S
C214 C216 1.378 . S
C214 C218 1.350 . S
C215 C218 1.463 . S
C215 C220 1.350 . S
C215 N223 1.427 . S
C216 H207 0.930 . S
C216 C214 1.378 . S
C216 C217 1.367 . S
C217 C216 1.367 . S
C217 C219 1.433 . S
C218 C214 1.350 . S
C218 C215 1.463 . S
C218 N222 1.427 . S
C219 H209 0.929 . S
C219 C217 1.433 . S
C219 N222 1.384 . S
C220 H211 0.929 . S
C220 C212 1.378 . S
C220 C215 1.350 . S
C221 H208 0.929 . S
C221 C213 1.433 . S
C221 N223 1.384 . S
N222 C218 1.427 . S
N222 C219 1.384 . S
N223 C215 1.427 . S
N223 C221 1.384 . S
H224 C230 0.930 . S
H225 C234 0.930 . S
H226 C239 0.929 . S
H227 C237 0.929 . S
H228 C232 0.929 . S
H229 C238 0.929 . S
C230 H224 0.930 . S
C230 C231 1.367 . S
C230 C238 1.378 . S
C231 C230 1.367 . S
C231 C239 1.433 . S
C232 H228 0.929 . S
C232 C234 1.378 . S
C232 C236 1.350 . S
C233 C236 1.463 . S
C233 C238 1.350 . S
C233 N241 1.427 . S
C234 H225 0.930 . S
C234 C232 1.378 . S
C234 C235 1.367 . S
C235 C234 1.367 . S
C235 C237 1.433 . S
C236 C232 1.350 . S
C236 C233 1.463 . S
C236 N240 1.427 . S
C237 H227 0.929 . S
C237 C235 1.433 . S
C237 N240 1.384 . S
C238 H229 0.929 . S
C238 C230 1.378 . S
C238 C233 1.350 . S
C239 H226 0.929 . S
C239 C231 1.433 . S
C239 N241 1.384 . S
N240 C236 1.427 . S
N240 C237 1.384 . S
N241 C233 1.427 . S
N241 C239 1.384 . S
H242 C248 0.930 . S
H243 C252 0.930 . S
H244 C257 0.929 . S
H245 C255 0.929 . S
H246 C250 0.929 . S
H247 C256 0.929 . S
C248 H242 0.930 . S
C248 C249 1.367 . S
C248 C256 1.378 . S
C249 C248 1.367 . S
C249 C257 1.433 . S
C250 H246 0.929 . S
C250 C252 1.378 . S
C250 C254 1.350 . S
C251 C254 1.463 . S
C251 C256 1.350 . S
C251 N259 1.427 . S
C252 H243 0.930 . S
C252 C250 1.378 . S
C252 C253 1.367 . S
C253 C252 1.367 . S
C253 C255 1.433 . S
C254 C250 1.350 . S
C254 C251 1.463 . S
C254 N258 1.427 . S
C255 H245 0.929 . S
C255 C253 1.433 . S
C255 N258 1.384 . S
C256 H247 0.929 . S
C256 C248 1.378 . S
C256 C251 1.350 . S
C257 H244 0.929 . S
C257 C249 1.433 . S
C257 N259 1.384 . S
N258 C254 1.427 . S
N258 C255 1.384 . S
N259 C251 1.427 . S
N259 C257 1.384 . S
H260 C266 0.930 . S
H261 C270 0.930 . S
H262 C275 0.929 . S
H263 C273 0.929 . S
H264 C268 0.929 . S
H265 C274 0.929 . S
C266 H260 0.930 . S
C266 C267 1.367 . S
C266 C274 1.378 . S
C267 C266 1.367 . S
C267 C275 1.433 . S
C268 H264 0.929 . S
C268 C270 1.378 . S
C268 C272 1.350 . S
C269 C272 1.463 . S
C269 C274 1.350 . S
C269 N277 1.427 . S
C270 H261 0.930 . S
C270 C268 1.378 . S
C270 C271 1.367 . S
C271 C270 1.367 . S
C271 C273 1.433 . S
C272 C268 1.350 . S
C272 C269 1.463 . S
C272 N276 1.427 . S
C273 H263 0.929 . S
C273 C271 1.433 . S
C273 N276 1.384 . S
C274 H265 0.929 . S
C274 C266 1.378 . S
C274 C269 1.350 . S
C275 H262 0.929 . S
C275 C267 1.433 . S
C275 N277 1.384 . S
N276 C272 1.427 . S
N276 C273 1.384 . S
N277 C269 1.427 . S
N277 C275 1.384 . S
H278 C284 0.930 . S
H279 C288 0.930 . S
H280 C293 0.929 . S
H281 C291 0.929 . S
H282 C286 0.929 . S
H283 C292 0.929 . S
C284 H278 0.930 . S
C284 C285 1.367 . S
C284 C292 1.378 . S
C285 C284 1.367 . S
C285 C293 1.433 . S
C286 H282 0.929 . S
C286 C288 1.378 . S
C286 C290 1.350 . S
C287 C290 1.463 . S
C287 C292 1.350 . S
C287 N295 1.427 . S
C288 H279 0.930 . S
C288 C286 1.378 . S
C288 C289 1.367 . S
C289 C288 1.367 . S
C289 C291 1.433 . S
C290 C286 1.350 . S
C290 C287 1.463 . S
C290 N294 1.427 . S
C291 H281 0.929 . S
C291 C289 1.433 . S
C291 N294 1.384 . S
C292 H283 0.929 . S
C292 C284 1.378 . S
C292 C287 1.350 . S
C293 H280 0.929 . S
C293 C285 1.433 . S
C293 N295 1.384 . S
N294 C290 1.427 . S
N294 C291 1.384 . S
N295 C287 1.427 . S
N295 C293 1.384 . S
H296 C302 0.930 . S
H297 C306 0.930 . S
H298 C311 0.929 . S
H299 C309 0.929 . S
H300 C304 0.929 . S
H301 C310 0.929 . S
C302 H296 0.930 . S
C302 C303 1.367 . S
C302 C310 1.378 . S
C303 C302 1.367 . S
C303 C311 1.433 . S
C304 H300 0.929 . S
C304 C306 1.378 . S
C304 C308 1.350 . S
C305 C308 1.463 . S
C305 C310 1.350 . S
C305 N313 1.427 . S
C306 H297 0.930 . S
C306 C304 1.378 . S
C306 C307 1.367 . S
C307 C306 1.367 . S
C307 C309 1.433 . S
C308 C304 1.350 . S
C308 C305 1.463 . S
C308 N312 1.427 . S
C309 H299 0.929 . S
C309 C307 1.433 . S
C309 N312 1.384 . S
C310 H301 0.929 . S
C310 C302 1.378 . S
C310 C305 1.350 . S
C311 H298 0.929 . S
C311 C303 1.433 . S
C311 N313 1.384 . S
N312 C308 1.427 . S
N312 C309 1.384 . S
N313 C305 1.427 . S
N313 C311 1.384 . S
C109 C69 1.483 . S
C105 C43 1.426 . S
C123 C4 1.438 . S
C127 C92 1.489 . S
C141 C17 1.480 . S
C145 C68 1.521 . S
C159 C30 1.471 . S
C163 C91 1.518 . S
C181 C72 1.438 . S
C177 C9 1.450 . S
C199 C94 1.471 . S
C195 C21 1.512 . S
C213 C34 1.487 . S
C217 C73 1.438 . S
C231 C48 1.503 . S
C235 C93 1.457 . S
C253 C96 1.434 . S
C249 C22 1.469 . S
C271 C71 1.478 . S
C267 C35 1.506 . S
C289 C95 1.431 . S
C285 C47 1.474 . S
C303 C8 1.503 . S
C307 C70 1.457 . S
