# Generated by pormake.
# Topology dag, (6,3)-cn, num edge types: 1
# Building blocks:
#     Node 0, Type 0, BuildingBlock: IZENUY_clean_sbu_0, # of connection points: 6
#     Node 1, Type 0, BuildingBlock: IZENUY_clean_sbu_0, # of connection points: 6
#     Node 2, Type 0, BuildingBlock: IZENUY_clean_sbu_0, # of connection points: 6
#     Node 3, Type 0, BuildingBlock: IZENUY_clean_sbu_0, # of connection points: 6
#     Node 4, Type 1, BuildingBlock: INOVEN_clean_linker_0, # of connection points: 3
#     Node 5, Type 1, BuildingBlock: INOVEN_clean_linker_0, # of connection points: 3
#     Node 6, Type 1, BuildingBlock: INOVEN_clean_linker_0, # of connection points: 3
#     Node 7, Type 1, BuildingBlock: INOVEN_clean_linker_0, # of connection points: 3
#     Node 8, Type 1, BuildingBlock: INOVEN_clean_linker_0, # of connection points: 3
#     Node 9, Type 1, BuildingBlock: INOVEN_clean_linker_0, # of connection points: 3
#     Node 10, Type 1, BuildingBlock: INOVEN_clean_linker_0, # of connection points: 3
#     Node 11, Type 1, BuildingBlock: INOVEN_clean_linker_0, # of connection points: 3
#     Edge 12, Type (0, 1), BuildingBlock: KIFKEQ_clean_linker_1, # of connection points: 2
#     Edge 13, Type (0, 1), BuildingBlock: KIFKEQ_clean_linker_1, # of connection points: 2
#     Edge 14, Type (0, 1), BuildingBlock: KIFKEQ_clean_linker_1, # of connection points: 2
#     Edge 15, Type (0, 1), BuildingBlock: KIFKEQ_clean_linker_1, # of connection points: 2
#     Edge 16, Type (0, 1), BuildingBlock: KIFKEQ_clean_linker_1, # of connection points: 2
#     Edge 17, Type (0, 1), BuildingBlock: KIFKEQ_clean_linker_1, # of connection points: 2
#     Edge 18, Type (0, 1), BuildingBlock: KIFKEQ_clean_linker_1, # of connection points: 2
#     Edge 19, Type (0, 1), BuildingBlock: KIFKEQ_clean_linker_1, # of connection points: 2
#     Edge 20, Type (0, 1), BuildingBlock: KIFKEQ_clean_linker_1, # of connection points: 2
#     Edge 21, Type (0, 1), BuildingBlock: KIFKEQ_clean_linker_1, # of connection points: 2
#     Edge 22, Type (0, 1), BuildingBlock: KIFKEQ_clean_linker_1, # of connection points: 2
#     Edge 23, Type (0, 1), BuildingBlock: KIFKEQ_clean_linker_1, # of connection points: 2
#     Edge 24, Type (0, 1), BuildingBlock: KIFKEQ_clean_linker_1, # of connection points: 2
#     Edge 25, Type (0, 1), BuildingBlock: KIFKEQ_clean_linker_1, # of connection points: 2
#     Edge 26, Type (0, 1), BuildingBlock: KIFKEQ_clean_linker_1, # of connection points: 2
#     Edge 27, Type (0, 1), BuildingBlock: KIFKEQ_clean_linker_1, # of connection points: 2
#     Edge 28, Type (0, 1), BuildingBlock: KIFKEQ_clean_linker_1, # of connection points: 2
#     Edge 29, Type (0, 1), BuildingBlock: KIFKEQ_clean_linker_1, # of connection points: 2
#     Edge 30, Type (0, 1), BuildingBlock: KIFKEQ_clean_linker_1, # of connection points: 2
#     Edge 31, Type (0, 1), BuildingBlock: KIFKEQ_clean_linker_1, # of connection points: 2
#     Edge 32, Type (0, 1), BuildingBlock: KIFKEQ_clean_linker_1, # of connection points: 2
#     Edge 33, Type (0, 1), BuildingBlock: KIFKEQ_clean_linker_1, # of connection points: 2
#     Edge 34, Type (0, 1), BuildingBlock: KIFKEQ_clean_linker_1, # of connection points: 2
#     Edge 35, Type (0, 1), BuildingBlock: KIFKEQ_clean_linker_1, # of connection points: 2
# Relax obj value: 0.098
# Max RMSD: 0.107
# Mean RMSD: 0.091
data_MOF--net-dag--node1-IZENUY_clean_sbu_0--node2-INOVEN_clean_linker_0--edge1-KIFKEQ_clean_linker_1
_symmetry_space_group_name_H-M    P1
_symmetry_Int_Tables_number       1
_symmetry_cell_setting            triclinic
loop_
_symmetry_equiv_pos_as_xyz
'x, y, z'
_cell_length_a     39.031463
_cell_length_b     41.73024
_cell_length_c     35.957894
_cell_angle_alpha  93.73897
_cell_angle_beta   90.0922
_cell_angle_gamma 89.967899
loop_
_atom_site_label
_atom_site_type_symbol
_atom_site_fract_x
_atom_site_fract_y
_atom_site_fract_z
_atom_type_partial_charge
Fe0 Fe 0.18466 0.86242 0.06632 0.0
Fe1 Fe 0.11175 0.88014 0.04444 0.0
O2 O 0.14287 0.85056 0.05197 0.0
Fe3 Fe 0.13215 0.80934 0.0451 0.0
O4 O 0.14266 0.80222 0.09308 0.0
O5 O 0.192 0.82763 0.09397 0.0
O6 O 0.16857 0.8835 0.10867 0.0
C7 C 0.14602 0.90519 0.1089 0.0
C8 C 0.19917 0.81285 0.01532 0.0
O9 O 0.12853 0.9094 0.07998 0.0
C10 C 0.09836 0.83274 0.98636 0.0
O11 O 0.18486 0.89929 0.04098 0.0
O12 O 0.13738 0.89643 0.00809 0.0
O13 O 0.17506 0.79685 0.02873 0.0
O14 O 0.20325 0.84219 0.02507 0.0
C15 C 0.07292 0.83742 0.07978 0.0
O16 O 0.08882 0.85626 0.00778 0.0
O17 O 0.12094 0.81353 0.99648 0.0
C18 C 0.16749 0.9069 0.01307 0.0
O19 O 0.08454 0.86561 0.08029 0.0
O20 O 0.08717 0.81474 0.06027 0.0
C21 C 0.17135 0.80842 0.10809 0.0
Fe22 Fe 0.68725 0.63734 0.48531 0.0
Fe23 Fe 0.63446 0.69008 0.50831 0.0
O24 O 0.64589 0.64886 0.50155 0.0
Fe25 Fe 0.6159 0.61888 0.51116 0.0
O26 O 0.64349 0.60367 0.54649 0.0
O27 O 0.68961 0.60104 0.51159 0.0
O28 O 0.70731 0.65864 0.52514 0.0
C29 C 0.70282 0.68793 0.5349 0.0
C30 C 0.6477 0.59319 0.44555 0.0
O31 O 0.67766 0.70338 0.52266 0.0
C32 C 0.57487 0.6606 0.4764 0.0
O33 O 0.69238 0.67153 0.45643 0.0
O34 O 0.64296 0.69698 0.45986 0.0
O35 O 0.6316 0.58935 0.4754 0.0
O36 O 0.66978 0.61516 0.44419 0.0
C37 C 0.60466 0.66621 0.5695 0.0
O38 O 0.58917 0.68375 0.49507 0.0
O39 O 0.58671 0.63249 0.47644 0.0
C40 C 0.67081 0.69045 0.44328 0.0
O41 O 0.62511 0.68648 0.55748 0.0
O42 O 0.59441 0.6426 0.54867 0.0
C43 C 0.67371 0.59394 0.54062 0.0
Fe44 Fe 0.86527 0.19013 0.01684 0.0
Fe45 Fe 0.87943 0.11849 0.02042 0.0
O46 O 0.8517 0.14972 0.00897 0.0
Fe47 Fe 0.81066 0.14044 0.98984 0.0
O48 O 0.8202 0.16099 0.94857 0.0
O49 O 0.84168 0.20479 0.97682 0.0
O50 O 0.90183 0.18393 0.98596 0.0
C51 C 0.92475 0.16332 0.99083 0.0
C52 C 0.79881 0.19454 0.04029 0.0
O53 O 0.91896 0.14014 0.01094 0.0
C54 C 0.81475 0.09608 0.04213 0.0
O55 O 0.89119 0.18285 0.05857 0.0
O56 O 0.87966 0.13273 0.06882 0.0
O57 O 0.7896 0.17625 0.01248 0.0
O58 O 0.82999 0.1988 0.04818 0.0
C59 C 0.85461 0.0938 0.95373 0.0
O60 O 0.8454 0.09089 0.03227 0.0
O61 O 0.7979 0.11889 0.02986 0.0
C62 C 0.88986 0.1602 0.08046 0.0
O63 O 0.88058 0.10255 0.97264 0.0
O64 O 0.82482 0.10319 0.96363 0.0
C65 C 0.82909 0.18994 0.94808 0.0
Fe66 Fe 0.38674 0.37459 0.53731 0.0
Fe67 Fe 0.31521 0.35707 0.56417 0.0
O68 O 0.35747 0.34537 0.55111 0.0
Fe69 Fe 0.37031 0.3046 0.55167 0.0
O70 O 0.41497 0.31363 0.56513 0.0
O71 O 0.41609 0.36623 0.5744 0.0
O72 O 0.36936 0.40692 0.56832 0.0
C73 C 0.35234 0.4062 0.59815 0.0
C74 C 0.4009 0.32133 0.48745 0.0
O75 O 0.33082 0.38412 0.60236 0.0
C76 C 0.30324 0.30121 0.52192 0.0
O77 O 0.35929 0.38496 0.4991 0.0
O78 O 0.31246 0.38989 0.53261 0.0
O79 O 0.3807 0.30239 0.50223 0.0
O80 O 0.4097 0.34759 0.50406 0.0
C81 C 0.33183 0.31039 0.61518 0.0
O82 O 0.29708 0.33089 0.52692 0.0
O83 O 0.32811 0.2885 0.53821 0.0
C84 C 0.32903 0.39517 0.50338 0.0
O85 O 0.31012 0.32645 0.59795 0.0
O86 O 0.36071 0.30367 0.60101 0.0
C87 C 0.42895 0.33907 0.57911 0.0
H88 H 0.07346 0.18119 0.3065 0.0
H89 H 0.05259 0.08901 0.25123 0.0
H90 H 0.14279 0.10233 0.31945 0.0
N91 N 0.13006 0.16501 0.34014 0.0
N92 N 0.15337 0.15505 0.36013 0.0
C93 C 0.08018 0.15614 0.30087 0.0
C94 C 0.05916 0.13616 0.27797 0.0
C95 C 0.10983 0.14394 0.31673 0.0
C96 C 0.11928 0.11165 0.3083 0.0
C97 C 0.09865 0.09159 0.28469 0.0
C98 C 0.06826 0.10394 0.27033 0.0
H99 H 0.34539 0.61853 0.78567 0.0
H100 H 0.43927 0.61217 0.72321 0.0
H101 H 0.41999 0.69474 0.79776 0.0
N102 N 0.35764 0.67429 0.82102 0.0
N103 N 0.36534 0.69994 0.83881 0.0
C104 C 0.37014 0.62829 0.77878 0.0
C105 C 0.39103 0.61175 0.75231 0.0
C106 C 0.38039 0.65807 0.7955 0.0
C107 C 0.41206 0.67145 0.78569 0.0
C108 C 0.43341 0.65463 0.75985 0.0
C109 C 0.42285 0.62486 0.74356 0.0
H110 H 0.73984 0.88828 0.19161 0.0
H111 H 0.82913 0.89444 0.12233 0.0
H112 H 0.82147 0.8192 0.19762 0.0
N113 N 0.75923 0.83633 0.22511 0.0
N114 N 0.7729 0.81517 0.24311 0.0
C115 C 0.76431 0.87877 0.18187 0.0
C116 C 0.78257 0.89414 0.15449 0.0
C117 C 0.77796 0.8515 0.19731 0.0
C118 C 0.8104 0.83997 0.18556 0.0
C119 C 0.82882 0.85516 0.15831 0.0
C120 C 0.81447 0.88189 0.14246 0.0
H121 H 0.75427 0.39454 0.70669 0.0
H122 H 0.66757 0.39637 0.63338 0.0
H123 H 0.68178 0.31645 0.7015 0.0
N124 N 0.74046 0.33841 0.7337 0.0
N125 N 0.7399 0.30871 0.73572 0.0
C126 C 0.7313 0.38328 0.69498 0.0
C127 C 0.71263 0.39818 0.66766 0.0
C128 C 0.72081 0.35338 0.70654 0.0
C129 C 0.69049 0.33912 0.69186 0.0
C130 C 0.671 0.3545 0.66541 0.0
C131 C 0.68268 0.38378 0.65316 0.0
H132 H 0.56975 0.31416 0.25298 0.0
H133 H 0.55222 0.40495 0.31334 0.0
H134 H 0.63606 0.39413 0.23598 0.0
N135 N 0.6238 0.33107 0.21659 0.0
N136 N 0.6438 0.34084 0.19282 0.0
C137 C 0.57631 0.33921 0.25895 0.0
C138 C 0.55694 0.35823 0.28466 0.0
C139 C 0.60433 0.35205 0.24085 0.0
C140 C 0.61369 0.38436 0.24898 0.0
C141 C 0.59468 0.40372 0.27496 0.0
C142 C 0.56611 0.39052 0.2922 0.0
H143 H 0.24546 0.11334 0.85676 0.0
H144 H 0.15908 0.11343 0.93071 0.0
H145 H 0.17562 0.19374 0.86422 0.0
N146 N 0.23428 0.171 0.83204 0.0
N147 N 0.2312 0.20026 0.8276 0.0
C148 C 0.22296 0.12516 0.8688 0.0
C149 C 0.20361 0.11018 0.89554 0.0
C150 C 0.21365 0.15576 0.85815 0.0
C151 C 0.18375 0.17061 0.87311 0.0
C152 C 0.16409 0.15546 0.8994 0.0
C153 C 0.17454 0.12556 0.91087 0.0
H154 H 0.25285 0.60013 0.34415 0.0
H155 H 0.34117 0.59864 0.41577 0.0
H156 H 0.32473 0.67881 0.34909 0.0
N157 N 0.26498 0.65756 0.31858 0.0
N158 N 0.26883 0.68678 0.31438 0.0
C159 C 0.27588 0.6115 0.35553 0.0
C160 C 0.29561 0.59619 0.38185 0.0
C161 C 0.28562 0.64183 0.34441 0.0
C162 C 0.31622 0.65597 0.35846 0.0
C163 C 0.33627 0.6405 0.38419 0.0
C164 C 0.32543 0.61098 0.39631 0.0
H165 H 0.85259 0.89235 0.74907 0.0
H166 H 0.94498 0.90084 0.81403 0.0
H167 H 0.92199 0.81222 0.75126 0.0
N168 N 0.86222 0.83315 0.72206 0.0
N169 N 0.86936 0.80621 0.707 0.0
C170 C 0.87648 0.88222 0.7583 0.0
C171 C 0.8982 0.90061 0.78227 0.0
C172 C 0.88523 0.85068 0.74622 0.0
C173 C 0.91564 0.837 0.75925 0.0
C174 C 0.93748 0.85518 0.7835 0.0
C175 C 0.92888 0.88711 0.7942 0.0
H176 H 0.19122 0.92145 0.16613 0.0
H177 H 0.08903 0.93968 0.12627 0.0
H178 H 0.18252 0.96209 0.21793 0.0
H179 H 0.08047 0.97973 0.17729 0.0
H180 H 0.06087 0.03651 0.28098 0.0
H181 H 0.07463 0.98622 0.24571 0.0
H182 H 0.17522 0.02274 0.22202 0.0
H183 H 0.16148 0.07302 0.2576 0.0
C184 C 0.16686 0.93383 0.16867 0.0
C185 C 0.14094 0.92766 0.14196 0.0
C186 C 0.16192 0.95708 0.19819 0.0
C187 C 0.13074 0.97397 0.2018 0.0
C188 C 0.10458 0.96684 0.17571 0.0
C189 C 0.10964 0.9441 0.14617 0.0
C190 C 0.0862 0.03346 0.26899 0.0
C191 C 0.10991 0.05882 0.27153 0.0
C192 C 0.09407 0.00473 0.24876 0.0
C193 C 0.12577 0.00079 0.23051 0.0
C194 C 0.15063 0.02502 0.23588 0.0
C195 C 0.14276 0.05382 0.25625 0.0
H196 H 0.58729 0.72282 0.60865 0.0
H197 H 0.58674 0.61983 0.61421 0.0
H198 H 0.55265 0.7283 0.66583 0.0
H199 H 0.55256 0.62505 0.67044 0.0
H200 H 0.49762 0.6334 0.77281 0.0
H201 H 0.54834 0.64344 0.73558 0.0
H202 H 0.49175 0.71396 0.67754 0.0
H203 H 0.4415 0.7045 0.71585 0.0
C204 C 0.58051 0.7015 0.62262 0.0
C205 C 0.58932 0.67089 0.60694 0.0
C206 C 0.56059 0.70459 0.65515 0.0
C207 C 0.54984 0.67713 0.67275 0.0
C208 C 0.56074 0.64677 0.65811 0.0
C209 C 0.58008 0.64371 0.62559 0.0
C210 C 0.49668 0.65208 0.75327 0.0
C211 C 0.46587 0.66818 0.74701 0.0
C212 C 0.52553 0.65767 0.73172 0.0
C213 C 0.52384 0.67898 0.70302 0.0
C214 C 0.494 0.69751 0.6995 0.0
C215 C 0.46519 0.69213 0.7214 0.0
H216 H 0.75398 0.06488 0.02871 0.0
H217 H 0.83919 0.07332 0.10526 0.0
H218 H 0.73355 0.01751 0.05949 0.0
H219 H 0.81844 0.02696 0.13656 0.0
H220 H 0.76996 0.94963 0.19588 0.0
H221 H 0.76669 0.00354 0.17278 0.0
H222 H 0.76735 0.96211 0.05961 0.0
H223 H 0.77123 0.90837 0.08275 0.0
C224 C 0.76755 0.05726 0.05291 0.0
C225 C 0.79809 0.0725 0.06475 0.0
C226 C 0.75598 0.03022 0.07037 0.0
C227 C 0.77436 0.01873 0.10044 0.0
C228 C 0.80351 0.03555 0.1138 0.0
C229 C 0.81549 0.06193 0.09582 0.0
C230 C 0.76806 0.95208 0.16614 0.0
C231 C 0.77094 0.92504 0.141 0.0
C232 C 0.76634 0.98284 0.15295 0.0
C233 C 0.76689 0.9869 0.11446 0.0
C234 C 0.76653 0.95963 0.08941 0.0
C235 C 0.76887 0.92894 0.10258 0.0
H236 H 0.46208 0.28629 0.60359 0.0
H237 H 0.47439 0.38813 0.59174 0.0
H238 H 0.52163 0.28338 0.62552 0.0
H239 H 0.53358 0.38478 0.61272 0.0
H240 H 0.64558 0.35178 0.59453 0.0
H241 H 0.58585 0.34405 0.57583 0.0
H242 H 0.55978 0.321 0.68744 0.0
H243 H 0.61951 0.32989 0.70686 0.0
C244 C 0.47732 0.30802 0.60591 0.0
C245 C 0.46355 0.33742 0.59577 0.0
C246 C 0.51124 0.30629 0.61845 0.0
C247 C 0.53193 0.3338 0.62035 0.0
C248 C 0.518 0.36324 0.61117 0.0
C249 C 0.48409 0.36512 0.59933 0.0
C250 C 0.62727 0.34461 0.61501 0.0
C251 C 0.63713 0.34204 0.65234 0.0
C252 C 0.59321 0.34008 0.60424 0.0
C253 C 0.56848 0.33228 0.63037 0.0
C254 C 0.57861 0.32694 0.6669 0.0
C255 C 0.61276 0.33188 0.67788 0.0
H256 H 0.69013 0.57647 0.38591 0.0
H257 H 0.59078 0.55746 0.43241 0.0
H258 H 0.67951 0.53475 0.33563 0.0
H259 H 0.58038 0.51636 0.38302 0.0
H260 H 0.55574 0.45797 0.28175 0.0
H261 H 0.57043 0.50864 0.3157 0.0
H262 H 0.67335 0.47415 0.33202 0.0
H263 H 0.65866 0.4235 0.29752 0.0
C264 C 0.66598 0.56367 0.38517 0.0
C265 C 0.64143 0.57001 0.4133 0.0
C266 C 0.65995 0.53978 0.35653 0.0
C267 C 0.62902 0.52238 0.35521 0.0
C268 C 0.60423 0.5296 0.38277 0.0
C269 C 0.61038 0.55298 0.4114 0.0
C270 C 0.58173 0.46155 0.29181 0.0
C271 C 0.60592 0.43667 0.28745 0.0
C272 C 0.59013 0.49049 0.31134 0.0
C273 C 0.62286 0.49515 0.3272 0.0
C274 C 0.64796 0.47135 0.32006 0.0
C275 C 0.63956 0.44234 0.3003 0.0
H276 H 0.98137 0.12932 0.00769 0.0
H277 H 0.94827 0.2077 0.94329 0.0
H278 H 0.03952 0.1361 0.98659 0.0
H279 H 0.00746 0.21457 0.92206 0.0
H280 H 0.10921 0.17381 0.8588 0.0
H281 H 0.05061 0.18233 0.88176 0.0
H282 H 0.08658 0.17546 0.99462 0.0
H283 H 0.14477 0.16639 0.97158 0.0
C284 C 0.98648 0.14816 0.9891 0.0
C285 C 0.96007 0.16801 0.97724 0.0
C286 C 0.02001 0.15224 0.97729 0.0
C287 C 0.02818 0.17621 0.95314 0.0
C288 C 0.00186 0.19599 0.94082 0.0
C289 C 0.96807 0.19207 0.95299 0.0
C290 C 0.10463 0.17522 0.88857 0.0
C291 C 0.13125 0.16905 0.91347 0.0
C292 C 0.07115 0.18007 0.90171 0.0
C293 C 0.06397 0.17887 0.9399 0.0
C294 C 0.09127 0.1758 0.96496 0.0
C295 C 0.12455 0.17078 0.95186 0.0
H296 H 0.26848 0.42812 0.50923 0.0
H297 H 0.35869 0.4159 0.44012 0.0
H298 H 0.25073 0.47334 0.47417 0.0
H299 H 0.34093 0.46131 0.40532 0.0
H300 H 0.29731 0.53946 0.3401 0.0
H301 H 0.29767 0.48561 0.36385 0.0
H302 H 0.27716 0.52747 0.47467 0.0
H303 H 0.27698 0.58087 0.45083 0.0
C304 C 0.28425 0.43467 0.48616 0.0
C305 C 0.31539 0.41873 0.47796 0.0
C306 C 0.27405 0.46063 0.46613 0.0
C307 C 0.29459 0.4711 0.43727 0.0
C308 C 0.32441 0.4537 0.42725 0.0
C309 C 0.33473 0.4278 0.4474 0.0
C310 C 0.29167 0.53683 0.36923 0.0
C311 C 0.2869 0.56404 0.39372 0.0
C312 C 0.29221 0.50616 0.38289 0.0
C313 C 0.28763 0.50233 0.42115 0.0
C314 C 0.28037 0.52953 0.445 0.0
C315 C 0.28027 0.5601 0.43145 0.0
H316 H 0.02977 0.82869 0.98118 0.0
H317 H 0.12193 0.82054 0.91519 0.0
H318 H 0.99507 0.82377 0.92469 0.0
H319 H 0.08696 0.81644 0.85791 0.0
H320 H 0.00335 0.87689 0.78828 0.0
H321 H 0.04678 0.86139 0.83281 0.0
H322 H 0.98059 0.7858 0.86668 0.0
H323 H 0.93724 0.80119 0.82193 0.0
C324 C 0.0425 0.82526 0.95445 0.0
C325 C 0.07836 0.82507 0.95229 0.0
C326 C 0.02269 0.8222 0.92215 0.0
C327 C 0.03835 0.81958 0.88695 0.0
C328 C 0.07433 0.81827 0.88477 0.0
C329 C 0.09425 0.82055 0.91735 0.0
C330 C 0.99869 0.85622 0.80429 0.0
C331 C 0.96693 0.84037 0.80194 0.0
C332 C 0.02356 0.84725 0.82962 0.0
C333 C 0.01685 0.8226 0.85337 0.0
C334 C 0.98629 0.80497 0.84873 0.0
C335 C 0.96161 0.81365 0.82302 0.0
H336 H 0.80551 0.06672 0.90651 0.0
H337 H 0.91414 0.06519 0.93003 0.0
H338 H 0.81343 0.02379 0.85766 0.0
H339 H 0.92177 0.022 0.88268 0.0
H340 H 0.93516 0.95599 0.78369 0.0
H341 H 0.92215 0.00669 0.81848 0.0
H342 H 0.82568 0.96747 0.85319 0.0
H343 H 0.83829 0.91736 0.81704 0.0
C344 C 0.83104 0.05735 0.9012 0.0
C345 C 0.85912 0.06927 0.9224 0.0
C346 C 0.83557 0.03266 0.87332 0.0
C347 C 0.86825 0.01936 0.86613 0.0
C348 C 0.89633 0.03196 0.88678 0.0
C349 C 0.89186 0.05663 0.91435 0.0
C350 C 0.91089 0.95859 0.79817 0.0
C351 C 0.88782 0.93281 0.79796 0.0
C352 C 0.90349 0.98749 0.81831 0.0
C353 C 0.87314 0.99102 0.83929 0.0
C354 C 0.84915 0.96579 0.83718 0.0
C355 C 0.85638 0.93701 0.81655 0.0
H356 H 0.37546 0.3227 0.4174 0.0
H357 H 0.46626 0.30186 0.47975 0.0
H358 H 0.40968 0.32324 0.36024 0.0
H359 H 0.50055 0.30248 0.42322 0.0
H360 H 0.55718 0.30081 0.31719 0.0
H361 H 0.51467 0.28107 0.35983 0.0
H362 H 0.45175 0.36438 0.34439 0.0
H363 H 0.49376 0.38361 0.301 0.0
C364 C 0.40249 0.31687 0.41841 0.0
C365 C 0.41838 0.31183 0.45251 0.0
C366 C 0.42212 0.31753 0.38593 0.0
C367 C 0.45785 0.31315 0.38727 0.0
C368 C 0.47308 0.30553 0.42106 0.0
C369 C 0.45352 0.30513 0.45345 0.0
C370 C 0.53381 0.31442 0.32207 0.0
C371 C 0.52896 0.34396 0.30607 0.0
C372 C 0.50957 0.30321 0.34667 0.0
C373 C 0.47996 0.32124 0.35567 0.0
C374 C 0.47411 0.34973 0.33778 0.0
C375 C 0.49837 0.36098 0.3133 0.0
H376 H 0.13722 0.9305 0.95168 0.0
H377 H 0.22758 0.94035 0.02119 0.0
H378 H 0.15545 0.97648 0.91823 0.0
H379 H 0.24586 0.98614 0.98743 0.0
H380 H 0.22259 0.09428 0.96424 0.0
H381 H 0.22117 0.04085 0.98791 0.0
H382 H 0.19918 0.99976 0.87702 0.0
H383 H 0.20069 0.05366 0.85347 0.0
C384 C 0.16123 0.94212 0.95946 0.0
C385 C 0.1806 0.93208 0.98958 0.0
C386 C 0.17185 0.9683 0.94003 0.0
C387 C 0.20201 0.98504 0.95036 0.0
C388 C 0.22232 0.97391 0.97911 0.0
C389 C 0.21181 0.94765 0.99843 0.0
C390 C 0.21872 0.07365 0.9448 0.0
C391 C 0.21193 0.07784 0.90713 0.0
C392 C 0.2179 0.04306 0.95826 0.0
C393 C 0.20979 0.01612 0.93435 0.0
C394 C 0.20522 0.02014 0.89611 0.0
C395 C 0.20643 0.05082 0.88256 0.0
H396 H 0.54765 0.62579 0.41711 0.0
H397 H 0.52601 0.70537 0.49652 0.0
H398 H 0.4895 0.62894 0.39248 0.0
H399 H 0.46741 0.70805 0.47221 0.0
H400 H 0.38924 0.65675 0.34026 0.0
H401 H 0.44832 0.66857 0.35988 0.0
H402 H 0.41834 0.66431 0.47496 0.0
H403 H 0.35944 0.65203 0.45529 0.0
C404 C 0.53057 0.64422 0.42893 0.0
C405 C 0.54123 0.66524 0.4588 0.0
C406 C 0.49742 0.64615 0.41469 0.0
C407 C 0.4741 0.66875 0.43049 0.0
C408 C 0.48501 0.69045 0.4596 0.0
C409 C 0.51848 0.68896 0.47337 0.0
C410 C 0.39519 0.65919 0.36975 0.0
C411 C 0.37 0.65343 0.39633 0.0
C412 C 0.4289 0.66577 0.38092 0.0
C413 C 0.43776 0.66726 0.41887 0.0
C414 C 0.41207 0.66355 0.44555 0.0
C415 C 0.3785 0.6564 0.43435 0.0
H416 H 0.40636 0.44631 0.60569 0.0
H417 H 0.30739 0.42801 0.6537 0.0
H418 H 0.41172 0.49513 0.64545 0.0
H419 H 0.31285 0.47786 0.69394 0.0
H420 H 0.36353 0.55789 0.78096 0.0
H421 H 0.35107 0.50619 0.74672 0.0
H422 H 0.37956 0.54698 0.64387 0.0
H423 H 0.39202 0.59799 0.67772 0.0
C424 C 0.38569 0.45271 0.62484 0.0
C425 C 0.35612 0.43363 0.62601 0.0
C426 C 0.38877 0.48077 0.64759 0.0
C427 C 0.36235 0.49067 0.67212 0.0
C428 C 0.33349 0.47079 0.67505 0.0
C429 C 0.33038 0.44237 0.65208 0.0
C430 C 0.36659 0.55577 0.75097 0.0
C431 C 0.37943 0.58164 0.73202 0.0
C432 C 0.35943 0.5263 0.73144 0.0
C433 C 0.36502 0.52247 0.6928 0.0
C434 C 0.37582 0.54902 0.67378 0.0
C435 C 0.38298 0.5782 0.69314 0.0
H436 H 0.02428 0.79311 0.05741 0.0
H437 H 0.04428 0.87187 0.13852 0.0
H438 H 0.96468 0.79141 0.07849 0.0
H439 H 0.985 0.86989 0.15975 0.0
H440 H 0.88134 0.84405 0.20578 0.0
H441 H 0.94141 0.83346 0.1899 0.0
H442 H 0.91627 0.83337 0.07293 0.0
H443 H 0.8562 0.84404 0.08881 0.0
C444 C 0.01617 0.8095 0.08033 0.0
C445 C 0.03883 0.8327 0.09628 0.0
C446 C 0.98206 0.80866 0.09217 0.0
C447 C 0.97028 0.83057 0.12063 0.0
C448 C 0.99347 0.85254 0.13796 0.0
C449 C 0.02733 0.85377 0.12571 0.0
C450 C 0.88857 0.8411 0.17668 0.0
C451 C 0.86421 0.84494 0.14848 0.0
C452 C 0.92291 0.83523 0.16764 0.0
C453 C 0.93342 0.83263 0.13023 0.0
C454 C 0.90878 0.83497 0.10199 0.0
C455 C 0.87452 0.84131 0.11104 0.0
H456 H 0.73399 0.56084 0.5311 0.0
H457 H 0.64753 0.57383 0.60561 0.0
H458 H 0.75498 0.51738 0.56725 0.0
H459 H 0.66831 0.53022 0.64128 0.0
H460 H 0.71369 0.45587 0.70748 0.0
H461 H 0.71346 0.50872 0.68134 0.0
H462 H 0.73107 0.46313 0.57164 0.0
H463 H 0.73141 0.41078 0.59791 0.0
C464 C 0.71969 0.55474 0.55544 0.0
C465 C 0.6887 0.57037 0.56503 0.0
C466 C 0.73176 0.52987 0.57613 0.0
C467 C 0.71322 0.52026 0.60696 0.0
C468 C 0.68341 0.53726 0.61792 0.0
C469 C 0.67127 0.56203 0.59718 0.0
C470 C 0.71889 0.45748 0.67808 0.0
C471 C 0.72258 0.42955 0.65456 0.0
C472 C 0.71843 0.48757 0.66306 0.0
C473 C 0.72186 0.49003 0.62439 0.0
C474 C 0.72866 0.46214 0.60155 0.0
C475 C 0.72883 0.43215 0.6165 0.0
H476 H 0.89453 0.11507 0.13158 0.0
H477 H 0.92333 0.21278 0.11318 0.0
H478 H 0.93058 0.11618 0.18613 0.0
H479 H 0.95855 0.21451 0.16948 0.0
H480 H 0.99241 0.12004 0.28655 0.0
H481 H 0.94438 0.13362 0.24687 0.0
H482 H 0.01196 0.19252 0.18472 0.0
H483 H 0.05907 0.18033 0.22607 0.0
C484 C 0.90795 0.13715 0.1397 0.0
C485 C 0.90661 0.1636 0.11747 0.0
C486 C 0.92846 0.13794 0.17145 0.0
C487 C 0.9479 0.16537 0.18224 0.0
C488 C 0.94453 0.19274 0.16159 0.0
C489 C 0.92415 0.19184 0.12944 0.0
C490 C 0.99648 0.13665 0.26505 0.0
C491 C 0.02918 0.1491 0.25904 0.0
C492 C 0.96916 0.14424 0.24209 0.0
C493 C 0.97434 0.16364 0.21197 0.0
C494 C 0.00675 0.17778 0.20773 0.0
C495 C 0.03387 0.1707 0.23125 0.0
H496 H 0.13642 0.76254 0.14455 0.0
H497 H 0.23237 0.81429 0.14474 0.0
H498 H 0.15667 0.73304 0.19697 0.0
H499 H 0.25263 0.78454 0.19608 0.0
H500 H 0.27013 0.74928 0.30905 0.0
H501 H 0.24293 0.77982 0.26137 0.0
H502 H 0.19936 0.69212 0.21107 0.0
H503 H 0.22593 0.66189 0.2597 0.0
C504 C 0.16176 0.76765 0.15573 0.0
C505 C 0.18275 0.79081 0.1404 0.0
C506 C 0.17341 0.75063 0.18561 0.0
C507 C 0.2062 0.75653 0.20083 0.0
C508 C 0.227 0.77978 0.18554 0.0
C509 C 0.21542 0.79672 0.15583 0.0
C510 C 0.25433 0.73678 0.28798 0.0
C511 C 0.25017 0.70351 0.28788 0.0
C512 C 0.23897 0.7541 0.26057 0.0
C513 C 0.21932 0.73836 0.23211 0.0
C514 C 0.21413 0.705 0.23274 0.0
C515 C 0.22944 0.68766 0.26044 0.0
H516 H 0.71009 0.75268 0.54874 0.0
H517 H 0.7531 0.66187 0.5767 0.0
H518 H 0.75116 0.78092 0.58981 0.0
H519 H 0.7935 0.69012 0.61894 0.0
H520 H 0.8024 0.82085 0.69566 0.0
H521 H 0.76272 0.79127 0.65409 0.0
H522 H 0.84308 0.72376 0.62172 0.0
H523 H 0.8825 0.75308 0.66478 0.0
C524 C 0.72821 0.73872 0.56382 0.0
C525 C 0.72829 0.70502 0.55945 0.0
C526 C 0.75166 0.75492 0.58759 0.0
C527 C 0.77555 0.73783 0.60797 0.0
C528 C 0.77579 0.70409 0.60336 0.0
C529 C 0.75251 0.68787 0.57927 0.0
C530 C 0.81158 0.79969 0.67968 0.0
C531 C 0.84562 0.7892 0.68314 0.0
C532 C 0.78888 0.78281 0.65563 0.0
C533 C 0.79971 0.75525 0.63421 0.0
C534 C 0.83373 0.74467 0.63803 0.0
C535 C 0.85637 0.76146 0.66242 0.0
H536 H 0.80253 0.21396 0.1135 0.0
H537 H 0.73811 0.21893 0.01624 0.0
H538 H 0.76261 0.24868 0.14959 0.0
H539 H 0.69848 0.25457 0.05242 0.0
H540 H 0.67364 0.35263 0.12862 0.0
H541 H 0.70904 0.31521 0.08921 0.0
H542 H 0.6951 0.24248 0.1678 0.0
H543 H 0.6593 0.27933 0.20642 0.0
C544 C 0.77976 0.22243 0.09991 0.0
C545 C 0.7733 0.21376 0.06215 0.0
C546 C 0.75697 0.2422 0.12055 0.0
C547 C 0.7277 0.25425 0.10362 0.0
C548 C 0.72104 0.24558 0.06591 0.0
C549 C 0.7435 0.22509 0.04539 0.0
C550 C 0.67803 0.32853 0.13707 0.0
C551 C 0.66372 0.3188 0.17021 0.0
C552 C 0.69798 0.30718 0.11461 0.0
C553 C 0.70452 0.27607 0.12558 0.0
C554 C 0.69028 0.26636 0.15881 0.0
C555 C 0.66981 0.28741 0.1808 0.0
H556 H 0.27239 0.32133 0.65333 0.0
H557 H 0.36662 0.26697 0.65568 0.0
H558 H 0.25183 0.29514 0.70711 0.0
H559 H 0.34611 0.24109 0.7106 0.0
H560 H 0.27402 0.17345 0.77424 0.0
H561 H 0.30222 0.20196 0.72548 0.0
H562 H 0.26054 0.29159 0.77269 0.0
H563 H 0.23161 0.26269 0.82062 0.0
C564 C 0.28895 0.30402 0.66558 0.0
C565 C 0.3211 0.29611 0.64997 0.0
C566 C 0.27722 0.28915 0.69671 0.0
C567 C 0.29733 0.26603 0.71325 0.0
C568 C 0.32986 0.25858 0.69825 0.0
C569 C 0.34169 0.27354 0.66695 0.0
C570 C 0.27124 0.19927 0.77431 0.0
C571 C 0.25049 0.2161 0.80092 0.0
C572 C 0.28754 0.21564 0.74655 0.0
C573 C 0.28342 0.24904 0.74501 0.0
C574 C 0.26376 0.26581 0.77266 0.0
C575 C 0.24736 0.24942 0.80017 0.0
H576 H 0.71575 0.67061 0.38924 0.0
H577 H 0.64828 0.7492 0.42309 0.0
H578 H 0.73725 0.70069 0.33859 0.0
H579 H 0.67086 0.78008 0.37301 0.0
H580 H 0.70462 0.81729 0.26025 0.0
H581 H 0.6763 0.78585 0.30662 0.0
H582 H 0.77424 0.74523 0.33471 0.0
H583 H 0.80182 0.77573 0.28758 0.0
C584 C 0.7055 0.69438 0.38579 0.0
C585 C 0.68067 0.70773 0.41038 0.0
C586 C 0.71797 0.71173 0.35689 0.0
C587 C 0.70636 0.74311 0.35219 0.0
C588 C 0.6803 0.75595 0.37575 0.0
C589 C 0.66743 0.73832 0.4045 0.0
C590 C 0.7199 0.80161 0.27646 0.0
C591 C 0.75542 0.79866 0.27058 0.0
C592 C 0.70377 0.7837 0.30306 0.0
C593 C 0.72291 0.76271 0.32414 0.0
C594 C 0.75851 0.76048 0.31841 0.0
C595 C 0.77443 0.7781 0.29176 0.0
H596 H 0.85239 0.24887 0.92939 0.0
H597 H 0.78552 0.17079 0.8919 0.0
H598 H 0.83559 0.27812 0.87551 0.0
H599 H 0.76756 0.2003 0.83966 0.0
H600 H 0.75577 0.24713 0.73337 0.0
H601 H 0.78295 0.21816 0.78236 0.0
H602 H 0.78912 0.30668 0.85178 0.0
H603 H 0.76386 0.33557 0.80164 0.0
C604 C 0.8341 0.238 0.9097 0.0
C605 C 0.82034 0.20751 0.91492 0.0
C606 C 0.8243 0.25481 0.87893 0.0
C607 C 0.80022 0.24163 0.85303 0.0
C608 C 0.78676 0.21101 0.85833 0.0
C609 C 0.7969 0.1941 0.88861 0.0
C610 C 0.76353 0.26024 0.759 0.0
C611 C 0.75787 0.2933 0.76382 0.0
C612 C 0.77879 0.24374 0.78721 0.0
C613 C 0.78787 0.25994 0.8214 0.0
C614 C 0.78294 0.29341 0.82577 0.0
C615 C 0.76827 0.30999 0.79714 0.0
H616 H 0.2381 0.31403 0.4982 0.0
H617 H 0.31693 0.24115 0.49195 0.0
H618 H 0.20063 0.27858 0.45985 0.0
H619 H 0.28031 0.2064 0.45252 0.0
H620 H 0.19586 0.13838 0.4129 0.0
H621 H 0.2311 0.17403 0.45379 0.0
H622 H 0.19285 0.25578 0.39831 0.0
H623 H 0.15669 0.22012 0.35891 0.0
C624 C 0.24748 0.29054 0.48844 0.0
C625 C 0.28034 0.28029 0.49833 0.0
C626 C 0.22611 0.27026 0.46628 0.0
C627 C 0.23735 0.2395 0.45316 0.0
C628 C 0.27043 0.22956 0.46277 0.0
C629 C 0.29155 0.2496 0.48525 0.0
C630 C 0.19508 0.16401 0.40979 0.0
C631 C 0.17365 0.17648 0.3831 0.0
C632 C 0.21533 0.18445 0.43291 0.0
C633 C 0.21493 0.21786 0.42933 0.0
C634 C 0.19341 0.23029 0.40235 0.0
C635 C 0.17284 0.20985 0.37957 0.0
H636 H 0.24903 0.84001 0.97417 0.0
H637 H 0.20617 0.74833 0.99892 0.0
H638 H 0.28945 0.81279 0.93124 0.0
H639 H 0.24721 0.72112 0.95699 0.0
H640 H 0.29841 0.6848 0.84925 0.0
H641 H 0.25874 0.7129 0.89206 0.0
H642 H 0.33927 0.77885 0.92853 0.0
H643 H 0.37875 0.75101 0.88437 0.0
C644 C 0.24842 0.81404 0.97071 0.0
C645 C 0.2243 0.79636 0.98991 0.0
C646 C 0.27173 0.79841 0.94623 0.0
C647 C 0.27157 0.76475 0.94056 0.0
C648 C 0.24768 0.7471 0.96015 0.0
C649 C 0.22424 0.76271 0.98438 0.0
C650 C 0.30765 0.70528 0.86642 0.0
C651 C 0.34174 0.71581 0.86376 0.0
C652 C 0.28496 0.72129 0.89116 0.0
C653 C 0.29582 0.74803 0.91397 0.0
C654 C 0.32992 0.75857 0.9111 0.0
C655 C 0.35259 0.74262 0.8861 0.0
loop_
_geom_bond_atom_site_label_1
_geom_bond_atom_site_label_2
_geom_bond_distance
_geom_bond_site_symmetry_2
_ccdc_geom_bond_type
Fe0 O2 1.918 . S
Fe0 O5 1.997 . S
Fe0 O6 2.002 . S
Fe0 O11 1.976 . S
Fe0 O14 1.996 . S
Fe1 O2 1.918 . S
Fe1 O9 1.997 . S
Fe1 O12 1.996 . S
Fe1 O16 1.976 1_554 S
Fe1 O19 2.002 . S
O2 Fe0 1.918 . S
O2 Fe1 1.918 . S
O2 Fe3 1.918 . S
Fe3 O2 1.918 . S
Fe3 O4 2.002 . S
Fe3 O13 1.976 . S
Fe3 O17 1.996 1_554 S
Fe3 O20 1.997 . S
O4 Fe3 2.002 . S
O4 C21 1.295 . S
O5 Fe0 1.997 . S
O5 C21 1.235 . S
O6 Fe0 2.002 . S
O6 C7 1.295 . S
C7 O6 1.295 . S
C7 O9 1.235 . S
C8 O13 1.287 . S
C8 O14 1.255 . S
O9 Fe1 1.997 . S
O9 C7 1.235 . S
C10 O16 1.287 . S
C10 O17 1.255 . S
O11 Fe0 1.976 . S
O11 C18 1.287 . S
O12 Fe1 1.996 . S
O12 C18 1.255 . S
O13 Fe3 1.976 . S
O13 C8 1.287 . S
O14 Fe0 1.996 . S
O14 C8 1.255 . S
C15 O19 1.295 . S
C15 O20 1.235 . S
O16 Fe1 1.976 1_556 S
O16 C10 1.287 . S
O17 Fe3 1.996 1_556 S
O17 C10 1.255 . S
C18 O11 1.287 . S
C18 O12 1.255 . S
O19 Fe1 2.002 . S
O19 C15 1.295 . S
O20 Fe3 1.997 . S
O20 C15 1.235 . S
C21 O4 1.295 . S
C21 O5 1.235 . S
Fe22 O24 1.918 . S
Fe22 O27 1.997 . S
Fe22 O28 2.002 . S
Fe22 O33 1.976 . S
Fe22 O36 1.996 . S
Fe23 O24 1.918 . S
Fe23 O31 1.997 . S
Fe23 O34 1.996 . S
Fe23 O38 1.976 . S
Fe23 O41 2.002 . S
O24 Fe22 1.918 . S
O24 Fe23 1.918 . S
O24 Fe25 1.918 . S
Fe25 O24 1.918 . S
Fe25 O26 2.002 . S
Fe25 O35 1.976 . S
Fe25 O39 1.996 . S
Fe25 O42 1.997 . S
O26 Fe25 2.002 . S
O26 C43 1.295 . S
O27 Fe22 1.997 . S
O27 C43 1.235 . S
O28 Fe22 2.002 . S
O28 C29 1.295 . S
C29 O28 1.295 . S
C29 O31 1.235 . S
C30 O35 1.287 . S
C30 O36 1.255 . S
O31 Fe23 1.997 . S
O31 C29 1.235 . S
C32 O38 1.287 . S
C32 O39 1.255 . S
O33 Fe22 1.976 . S
O33 C40 1.287 . S
O34 Fe23 1.996 . S
O34 C40 1.255 . S
O35 Fe25 1.976 . S
O35 C30 1.287 . S
O36 Fe22 1.996 . S
O36 C30 1.255 . S
C37 O41 1.295 . S
C37 O42 1.235 . S
O38 Fe23 1.976 . S
O38 C32 1.287 . S
O39 Fe25 1.996 . S
O39 C32 1.255 . S
C40 O33 1.287 . S
C40 O34 1.255 . S
O41 Fe23 2.002 . S
O41 C37 1.295 . S
O42 Fe25 1.997 . S
O42 C37 1.235 . S
C43 O26 1.295 . S
C43 O27 1.235 . S
Fe44 O46 1.918 . S
Fe44 O49 1.997 1_554 S
Fe44 O50 2.002 1_554 S
Fe44 O55 1.976 . S
Fe44 O58 1.996 . S
Fe45 O46 1.918 . S
Fe45 O53 1.997 1_554 S
Fe45 O56 1.996 . S
Fe45 O60 1.976 . S
Fe45 O63 2.002 1_554 S
O46 Fe44 1.918 . S
O46 Fe45 1.918 . S
O46 Fe47 1.918 1_554 S
Fe47 O46 1.918 1_556 S
Fe47 O48 2.002 . S
Fe47 O57 1.976 1_556 S
Fe47 O61 1.996 1_556 S
Fe47 O64 1.997 . S
O48 Fe47 2.002 . S
O48 C65 1.295 . S
O49 Fe44 1.997 1_556 S
O49 C65 1.235 . S
O50 Fe44 2.002 1_556 S
O50 C51 1.295 . S
C51 O50 1.295 . S
C51 O53 1.235 . S
C52 O57 1.287 . S
C52 O58 1.255 . S
O53 Fe45 1.997 1_556 S
O53 C51 1.235 . S
C54 O60 1.287 . S
C54 O61 1.255 . S
O55 Fe44 1.976 . S
O55 C62 1.287 . S
O56 Fe45 1.996 . S
O56 C62 1.255 . S
O57 Fe47 1.976 1_554 S
O57 C52 1.287 . S
O58 Fe44 1.996 . S
O58 C52 1.255 . S
C59 O63 1.295 . S
C59 O64 1.235 . S
O60 Fe45 1.976 . S
O60 C54 1.287 . S
O61 Fe47 1.996 1_554 S
O61 C54 1.255 . S
C62 O55 1.287 . S
C62 O56 1.255 . S
O63 Fe45 2.002 1_556 S
O63 C59 1.295 . S
O64 Fe47 1.997 . S
O64 C59 1.235 . S
C65 O48 1.295 . S
C65 O49 1.235 . S
Fe66 O68 1.918 . S
Fe66 O71 1.997 . S
Fe66 O72 2.002 . S
Fe66 O77 1.976 . S
Fe66 O80 1.996 . S
Fe67 O68 1.918 . S
Fe67 O75 1.997 . S
Fe67 O78 1.996 . S
Fe67 O82 1.976 . S
Fe67 O85 2.002 . S
O68 Fe66 1.918 . S
O68 Fe67 1.918 . S
O68 Fe69 1.918 . S
Fe69 O68 1.918 . S
Fe69 O70 2.002 . S
Fe69 O79 1.976 . S
Fe69 O83 1.996 . S
Fe69 O86 1.997 . S
O70 Fe69 2.002 . S
O70 C87 1.295 . S
O71 Fe66 1.997 . S
O71 C87 1.235 . S
O72 Fe66 2.002 . S
O72 C73 1.295 . S
C73 O72 1.295 . S
C73 O75 1.235 . S
C74 O79 1.287 . S
C74 O80 1.255 . S
O75 Fe67 1.997 . S
O75 C73 1.235 . S
C76 O82 1.287 . S
C76 O83 1.255 . S
O77 Fe66 1.976 . S
O77 C84 1.287 . S
O78 Fe67 1.996 . S
O78 C84 1.255 . S
O79 Fe69 1.976 . S
O79 C74 1.287 . S
O80 Fe66 1.996 . S
O80 C74 1.255 . S
C81 O85 1.295 . S
C81 O86 1.235 . S
O82 Fe67 1.976 . S
O82 C76 1.287 . S
O83 Fe69 1.996 . S
O83 C76 1.255 . S
C84 O77 1.287 . S
C84 O78 1.255 . S
O85 Fe67 2.002 . S
O85 C81 1.295 . S
O86 Fe69 1.997 . S
O86 C81 1.235 . S
C87 O70 1.295 . S
C87 O71 1.235 . S
H88 C93 0.929 . S
H89 C98 0.931 . S
H90 C96 0.930 . S
N91 N92 1.234 . S
N91 C95 1.453 . S
N92 N91 1.234 . S
C93 H88 0.929 . S
C93 C94 1.373 . S
C93 C95 1.368 . S
C94 C93 1.373 . S
C94 C98 1.397 . S
C95 N91 1.453 . S
C95 C93 1.368 . S
C95 C96 1.373 . S
C96 H90 0.930 . S
C96 C95 1.373 . S
C96 C97 1.371 . S
C97 C96 1.371 . S
C97 C98 1.383 . S
C98 H89 0.931 . S
C98 C94 1.397 . S
C98 C97 1.383 . S
H99 C104 0.929 . S
H100 C109 0.931 . S
H101 C107 0.930 . S
N102 N103 1.234 . S
N102 C106 1.453 . S
N103 N102 1.234 . S
C104 H99 0.929 . S
C104 C105 1.373 . S
C104 C106 1.368 . S
C105 C104 1.373 . S
C105 C109 1.397 . S
C106 N102 1.453 . S
C106 C104 1.368 . S
C106 C107 1.373 . S
C107 H101 0.930 . S
C107 C106 1.373 . S
C107 C108 1.371 . S
C108 C107 1.371 . S
C108 C109 1.383 . S
C109 H100 0.931 . S
C109 C105 1.397 . S
C109 C108 1.383 . S
H110 C115 0.929 . S
H111 C120 0.931 . S
H112 C118 0.930 . S
N113 N114 1.234 . S
N113 C117 1.453 . S
N114 N113 1.234 . S
C115 H110 0.929 . S
C115 C116 1.373 . S
C115 C117 1.368 . S
C116 C115 1.373 . S
C116 C120 1.397 . S
C117 N113 1.453 . S
C117 C115 1.368 . S
C117 C118 1.373 . S
C118 H112 0.930 . S
C118 C117 1.373 . S
C118 C119 1.371 . S
C119 C118 1.371 . S
C119 C120 1.383 . S
C120 H111 0.931 . S
C120 C116 1.397 . S
C120 C119 1.383 . S
H121 C126 0.929 . S
H122 C131 0.931 . S
H123 C129 0.930 . S
N124 N125 1.234 . S
N124 C128 1.453 . S
N125 N124 1.234 . S
C126 H121 0.929 . S
C126 C127 1.373 . S
C126 C128 1.368 . S
C127 C126 1.373 . S
C127 C131 1.397 . S
C128 N124 1.453 . S
C128 C126 1.368 . S
C128 C129 1.373 . S
C129 H123 0.930 . S
C129 C128 1.373 . S
C129 C130 1.371 . S
C130 C129 1.371 . S
C130 C131 1.383 . S
C131 H122 0.931 . S
C131 C127 1.397 . S
C131 C130 1.383 . S
H132 C137 0.929 . S
H133 C142 0.931 . S
H134 C140 0.930 . S
N135 N136 1.234 . S
N135 C139 1.453 . S
N136 N135 1.234 . S
C137 H132 0.929 . S
C137 C138 1.373 . S
C137 C139 1.368 . S
C138 C137 1.373 . S
C138 C142 1.397 . S
C139 N135 1.453 . S
C139 C137 1.368 . S
C139 C140 1.373 . S
C140 H134 0.930 . S
C140 C139 1.373 . S
C140 C141 1.371 . S
C141 C140 1.371 . S
C141 C142 1.383 . S
C142 H133 0.931 . S
C142 C138 1.397 . S
C142 C141 1.383 . S
H143 C148 0.929 . S
H144 C153 0.931 . S
H145 C151 0.930 . S
N146 N147 1.234 . S
N146 C150 1.453 . S
N147 N146 1.234 . S
C148 H143 0.929 . S
C148 C149 1.373 . S
C148 C150 1.368 . S
C149 C148 1.373 . S
C149 C153 1.397 . S
C150 N146 1.453 . S
C150 C148 1.368 . S
C150 C151 1.373 . S
C151 H145 0.930 . S
C151 C150 1.373 . S
C151 C152 1.371 . S
C152 C151 1.371 . S
C152 C153 1.383 . S
C153 H144 0.931 . S
C153 C149 1.397 . S
C153 C152 1.383 . S
H154 C159 0.929 . S
H155 C164 0.931 . S
H156 C162 0.930 . S
N157 N158 1.234 . S
N157 C161 1.453 . S
N158 N157 1.234 . S
C159 H154 0.929 . S
C159 C160 1.373 . S
C159 C161 1.368 . S
C160 C159 1.373 . S
C160 C164 1.397 . S
C161 N157 1.453 . S
C161 C159 1.368 . S
C161 C162 1.373 . S
C162 H156 0.930 . S
C162 C161 1.373 . S
C162 C163 1.371 . S
C163 C162 1.371 . S
C163 C164 1.383 . S
C164 H155 0.931 . S
C164 C160 1.397 . S
C164 C163 1.383 . S
H165 C170 0.929 . S
H166 C175 0.931 . S
H167 C173 0.930 . S
N168 N169 1.234 . S
N168 C172 1.453 . S
N169 N168 1.234 . S
C170 H165 0.929 . S
C170 C171 1.373 . S
C170 C172 1.368 . S
C171 C170 1.373 . S
C171 C175 1.397 . S
C172 N168 1.453 . S
C172 C170 1.368 . S
C172 C173 1.373 . S
C173 H167 0.930 . S
C173 C172 1.373 . S
C173 C174 1.371 . S
C174 C173 1.371 . S
C174 C175 1.383 . S
C175 H166 0.931 . S
C175 C171 1.397 . S
C175 C174 1.383 . S
H176 C184 0.950 . S
H177 C189 0.950 . S
H178 C186 0.958 . S
H179 C188 0.950 . S
H180 C190 0.950 . S
H181 C192 0.950 . S
H182 C194 0.950 . S
H183 C195 0.950 . S
C184 H176 0.950 . S
C184 C185 1.386 . S
C184 C186 1.391 . S
C185 C184 1.386 . S
C185 C189 1.393 . S
C186 H178 0.958 . S
C186 C184 1.391 . S
C186 C187 1.400 . S
C187 C186 1.400 . S
C187 C188 1.398 . S
C187 C193 1.491 1_565 S
C188 H179 0.950 . S
C188 C187 1.398 . S
C188 C189 1.391 . S
C189 H177 0.950 . S
C189 C185 1.393 . S
C189 C188 1.391 . S
C190 H180 0.950 . S
C190 C191 1.386 . S
C190 C192 1.391 . S
C191 C190 1.386 . S
C191 C195 1.393 . S
C192 H181 0.950 . S
C192 C190 1.391 . S
C192 C193 1.400 . S
C193 C187 1.491 1_545 S
C193 C192 1.400 . S
C193 C194 1.398 . S
C194 H182 0.950 . S
C194 C193 1.398 . S
C194 C195 1.391 . S
C195 H183 0.950 . S
C195 C191 1.393 . S
C195 C194 1.391 . S
H196 C204 0.950 . S
H197 C209 0.950 . S
H198 C206 0.950 . S
H199 C208 0.950 . S
H200 C210 0.950 . S
H201 C212 0.950 . S
H202 C214 0.950 . S
H203 C215 0.950 . S
C204 H196 0.950 . S
C204 C205 1.386 . S
C204 C206 1.391 . S
C205 C204 1.386 . S
C205 C209 1.393 . S
C206 H198 0.950 . S
C206 C204 1.391 . S
C206 C207 1.400 . S
C207 C206 1.400 . S
C207 C208 1.398 . S
C207 C213 1.491 . S
C208 H199 0.950 . S
C208 C207 1.398 . S
C208 C209 1.391 . S
C209 H197 0.950 . S
C209 C205 1.393 . S
C209 C208 1.391 . S
C210 H200 0.950 . S
C210 C211 1.386 . S
C210 C212 1.391 . S
C211 C210 1.386 . S
C211 C215 1.393 . S
C212 H201 0.950 . S
C212 C210 1.391 . S
C212 C213 1.400 . S
C213 C207 1.491 . S
C213 C212 1.400 . S
C213 C214 1.398 . S
C214 H202 0.950 . S
C214 C213 1.398 . S
C214 C215 1.391 . S
C215 H203 0.950 . S
C215 C211 1.393 . S
C215 C214 1.391 . S
H216 C224 0.950 . S
H217 C229 0.950 . S
H218 C226 0.950 . S
H219 C228 0.953 . S
H220 C230 0.950 . S
H221 C232 0.950 . S
H222 C234 0.950 . S
H223 C235 0.950 . S
C224 H216 0.950 . S
C224 C225 1.386 . S
C224 C226 1.391 . S
C225 C224 1.386 . S
C225 C229 1.393 . S
C226 H218 0.950 . S
C226 C224 1.391 . S
C226 C227 1.400 1_545 S
C227 C226 1.400 1_565 S
C227 C228 1.398 1_565 S
C227 C233 1.491 . S
C228 H219 0.953 . S
C228 C227 1.398 1_545 S
C228 C229 1.391 . S
C229 H217 0.950 . S
C229 C225 1.393 . S
C229 C228 1.391 . S
C230 H220 0.950 . S
C230 C231 1.386 . S
C230 C232 1.391 . S
C231 C230 1.386 . S
C231 C235 1.393 . S
C232 H221 0.950 . S
C232 C230 1.391 . S
C232 C233 1.400 . S
C233 C227 1.491 . S
C233 C232 1.400 . S
C233 C234 1.398 . S
C234 H222 0.950 . S
C234 C233 1.398 . S
C234 C235 1.391 . S
C235 H223 0.950 . S
C235 C231 1.393 . S
C235 C234 1.391 . S
H236 C244 0.950 . S
H237 C249 0.950 . S
H238 C246 0.950 . S
H239 C248 0.950 . S
H240 C250 0.950 . S
H241 C252 0.950 . S
H242 C254 0.950 . S
H243 C255 0.950 . S
C244 H236 0.950 . S
C244 C245 1.386 . S
C244 C246 1.391 . S
C245 C244 1.386 . S
C245 C249 1.393 . S
C246 H238 0.950 . S
C246 C244 1.391 . S
C246 C247 1.400 . S
C247 C246 1.400 . S
C247 C248 1.398 . S
C247 C253 1.491 . S
C248 H239 0.950 . S
C248 C247 1.398 . S
C248 C249 1.391 . S
C249 H237 0.950 . S
C249 C245 1.393 . S
C249 C248 1.391 . S
C250 H240 0.950 . S
C250 C251 1.386 . S
C250 C252 1.391 . S
C251 C250 1.386 . S
C251 C255 1.393 . S
C252 H241 0.950 . S
C252 C250 1.391 . S
C252 C253 1.400 . S
C253 C247 1.491 . S
C253 C252 1.400 . S
C253 C254 1.398 . S
C254 H242 0.950 . S
C254 C253 1.398 . S
C254 C255 1.391 . S
C255 H243 0.950 . S
C255 C251 1.393 . S
C255 C254 1.391 . S
H256 C264 0.950 . S
H257 C269 0.950 . S
H258 C266 0.950 . S
H259 C268 0.950 . S
H260 C270 0.950 . S
H261 C272 0.950 . S
H262 C274 0.950 . S
H263 C275 0.950 . S
C264 H256 0.950 . S
C264 C265 1.386 . S
C264 C266 1.391 . S
C265 C264 1.386 . S
C265 C269 1.393 . S
C266 H258 0.950 . S
C266 C264 1.391 . S
C266 C267 1.400 . S
C267 C266 1.400 . S
C267 C268 1.398 . S
C267 C273 1.491 . S
C268 H259 0.950 . S
C268 C267 1.398 . S
C268 C269 1.391 . S
C269 H257 0.950 . S
C269 C265 1.393 . S
C269 C268 1.391 . S
C270 H260 0.950 . S
C270 C271 1.386 . S
C270 C272 1.391 . S
C271 C270 1.386 . S
C271 C275 1.393 . S
C272 H261 0.950 . S
C272 C270 1.391 . S
C272 C273 1.400 . S
C273 C267 1.491 . S
C273 C272 1.400 . S
C273 C274 1.398 . S
C274 H262 0.950 . S
C274 C273 1.398 . S
C274 C275 1.391 . S
C275 H263 0.950 . S
C275 C271 1.393 . S
C275 C274 1.391 . S
H276 C284 0.950 1_655 S
H277 C289 0.950 . S
H278 C286 0.950 . S
H279 C288 0.950 . S
H280 C290 0.950 . S
H281 C292 0.950 . S
H282 C294 0.950 . S
H283 C295 0.950 . S
C284 H276 0.950 1_455 S
C284 C285 1.386 1_455 S
C284 C286 1.391 . S
C285 C284 1.386 1_655 S
C285 C289 1.393 . S
C286 H278 0.950 . S
C286 C284 1.391 . S
C286 C287 1.400 . S
C287 C286 1.400 . S
C287 C288 1.398 . S
C287 C293 1.491 . S
C288 H279 0.950 . S
C288 C287 1.398 . S
C288 C289 1.391 1_455 S
C289 H277 0.950 . S
C289 C285 1.393 . S
C289 C288 1.391 1_655 S
C290 H280 0.950 . S
C290 C291 1.386 . S
C290 C292 1.391 . S
C291 C290 1.386 . S
C291 C295 1.393 . S
C292 H281 0.950 . S
C292 C290 1.391 . S
C292 C293 1.400 . S
C293 C287 1.491 . S
C293 C292 1.400 . S
C293 C294 1.398 . S
C294 H282 0.950 . S
C294 C293 1.398 . S
C294 C295 1.391 . S
C295 H283 0.950 . S
C295 C291 1.393 . S
C295 C294 1.391 . S
H296 C304 0.950 . S
H297 C309 0.950 . S
H298 C306 0.950 . S
H299 C308 0.950 . S
H300 C310 0.950 . S
H301 C312 0.950 . S
H302 C314 0.950 . S
H303 C315 0.950 . S
C304 H296 0.950 . S
C304 C305 1.386 . S
C304 C306 1.391 . S
C305 C304 1.386 . S
C305 C309 1.393 . S
C306 H298 0.950 . S
C306 C304 1.391 . S
C306 C307 1.400 . S
C307 C306 1.400 . S
C307 C308 1.398 . S
C307 C313 1.491 . S
C308 H299 0.950 . S
C308 C307 1.398 . S
C308 C309 1.391 . S
C309 H297 0.950 . S
C309 C305 1.393 . S
C309 C308 1.391 . S
C310 H300 0.950 . S
C310 C311 1.386 . S
C310 C312 1.391 . S
C311 C310 1.386 . S
C311 C315 1.393 . S
C312 H301 0.950 . S
C312 C310 1.391 . S
C312 C313 1.400 . S
C313 C307 1.491 . S
C313 C312 1.400 . S
C313 C314 1.398 . S
C314 H302 0.950 . S
C314 C313 1.398 . S
C314 C315 1.391 . S
C315 H303 0.950 . S
C315 C311 1.393 . S
C315 C314 1.391 . S
H316 C324 0.950 . S
H317 C329 0.950 . S
H318 C326 0.950 1_655 S
H319 C328 0.950 . S
H320 C330 0.950 . S
H321 C332 0.950 . S
H322 C334 0.950 . S
H323 C335 0.950 . S
C324 H316 0.950 . S
C324 C325 1.386 . S
C324 C326 1.391 . S
C325 C324 1.386 . S
C325 C329 1.393 . S
C326 H318 0.950 1_455 S
C326 C324 1.391 . S
C326 C327 1.400 . S
C327 C326 1.400 . S
C327 C328 1.398 . S
C327 C333 1.491 1_455 S
C328 H319 0.950 . S
C328 C327 1.398 . S
C328 C329 1.391 . S
C329 H317 0.950 . S
C329 C325 1.393 . S
C329 C328 1.391 . S
C330 H320 0.950 . S
C330 C331 1.386 . S
C330 C332 1.391 1_655 S
C331 C330 1.386 . S
C331 C335 1.393 . S
C332 H321 0.950 . S
C332 C330 1.391 1_455 S
C332 C333 1.400 1_455 S
C333 C327 1.491 1_655 S
C333 C332 1.400 1_655 S
C333 C334 1.398 . S
C334 H322 0.950 . S
C334 C333 1.398 . S
C334 C335 1.391 . S
C335 H323 0.950 . S
C335 C331 1.393 . S
C335 C334 1.391 . S
H336 C344 0.950 . S
H337 C349 0.950 . S
H338 C346 0.950 . S
H339 C348 0.950 . S
H340 C350 0.950 . S
H341 C352 0.950 . S
H342 C354 0.950 . S
H343 C355 0.950 . S
C344 H336 0.950 . S
C344 C345 1.386 . S
C344 C346 1.391 . S
C345 C344 1.386 . S
C345 C349 1.393 . S
C346 H338 0.950 . S
C346 C344 1.391 . S
C346 C347 1.400 . S
C347 C346 1.400 . S
C347 C348 1.398 . S
C347 C353 1.491 1_545 S
C348 H339 0.950 . S
C348 C347 1.398 . S
C348 C349 1.391 . S
C349 H337 0.950 . S
C349 C345 1.393 . S
C349 C348 1.391 . S
C350 H340 0.950 . S
C350 C351 1.386 . S
C350 C352 1.391 . S
C351 C350 1.386 . S
C351 C355 1.393 . S
C352 H341 0.950 . S
C352 C350 1.391 . S
C352 C353 1.400 . S
C353 C347 1.491 1_565 S
C353 C352 1.400 . S
C353 C354 1.398 . S
C354 H342 0.950 . S
C354 C353 1.398 . S
C354 C355 1.391 . S
C355 H343 0.950 . S
C355 C351 1.393 . S
C355 C354 1.391 . S
H356 C364 0.950 . S
H357 C369 0.950 . S
H358 C366 0.950 . S
H359 C368 0.950 . S
H360 C370 0.950 . S
H361 C372 0.950 . S
H362 C374 0.950 . S
H363 C375 0.950 . S
C364 H356 0.950 . S
C364 C365 1.386 . S
C364 C366 1.391 . S
C365 C364 1.386 . S
C365 C369 1.393 . S
C366 H358 0.950 . S
C366 C364 1.391 . S
C366 C367 1.400 . S
C367 C366 1.400 . S
C367 C368 1.398 . S
C367 C373 1.491 . S
C368 H359 0.950 . S
C368 C367 1.398 . S
C368 C369 1.391 . S
C369 H357 0.950 . S
C369 C365 1.393 . S
C369 C368 1.391 . S
C370 H360 0.950 . S
C370 C371 1.386 . S
C370 C372 1.391 . S
C371 C370 1.386 . S
C371 C375 1.393 . S
C372 H361 0.950 . S
C372 C370 1.391 . S
C372 C373 1.400 . S
C373 C367 1.491 . S
C373 C372 1.400 . S
C373 C374 1.398 . S
C374 H362 0.950 . S
C374 C373 1.398 . S
C374 C375 1.391 . S
C375 H363 0.950 . S
C375 C371 1.393 . S
C375 C374 1.391 . S
H376 C384 0.950 . S
H377 C389 0.950 . S
H378 C386 0.950 . S
H379 C388 0.954 1_554 S
H380 C390 0.950 . S
H381 C392 0.950 . S
H382 C394 0.950 . S
H383 C395 0.950 . S
C384 H376 0.950 . S
C384 C385 1.386 . S
C384 C386 1.391 . S
C385 C384 1.386 . S
C385 C389 1.393 1_556 S
C386 H378 0.950 . S
C386 C384 1.391 . S
C386 C387 1.400 1_565 S
C387 C386 1.400 1_545 S
C387 C388 1.407 . S
C387 C393 1.491 . S
C388 H379 0.954 1_556 S
C388 C387 1.407 . S
C388 C389 1.379 1_546 S
C389 H377 0.950 . S
C389 C385 1.393 1_554 S
C389 C388 1.379 1_564 S
C390 H380 0.950 . S
C390 C391 1.386 . S
C390 C392 1.391 . S
C391 C390 1.386 . S
C391 C395 1.393 . S
C392 H381 0.950 . S
C392 C390 1.391 . S
C392 C393 1.400 . S
C393 C387 1.491 . S
C393 C392 1.400 . S
C393 C394 1.398 . S
C394 H382 0.950 . S
C394 C393 1.398 . S
C394 C395 1.391 . S
C395 H383 0.950 . S
C395 C391 1.393 . S
C395 C394 1.391 . S
H396 C404 0.950 . S
H397 C409 0.950 . S
H398 C406 0.950 . S
H399 C408 0.950 . S
H400 C410 0.950 . S
H401 C412 0.950 . S
H402 C414 0.950 . S
H403 C415 0.950 . S
C404 H396 0.950 . S
C404 C405 1.386 . S
C404 C406 1.391 . S
C405 C404 1.386 . S
C405 C409 1.393 . S
C406 H398 0.950 . S
C406 C404 1.391 . S
C406 C407 1.400 . S
C407 C406 1.400 . S
C407 C408 1.398 . S
C407 C413 1.491 . S
C408 H399 0.950 . S
C408 C407 1.398 . S
C408 C409 1.391 . S
C409 H397 0.950 . S
C409 C405 1.393 . S
C409 C408 1.391 . S
C410 H400 0.950 . S
C410 C411 1.386 . S
C410 C412 1.391 . S
C411 C410 1.386 . S
C411 C415 1.393 . S
C412 H401 0.950 . S
C412 C410 1.391 . S
C412 C413 1.400 . S
C413 C407 1.491 . S
C413 C412 1.400 . S
C413 C414 1.398 . S
C414 H402 0.950 . S
C414 C413 1.398 . S
C414 C415 1.391 . S
C415 H403 0.950 . S
C415 C411 1.393 . S
C415 C414 1.391 . S
H416 C424 0.950 . S
H417 C429 0.950 . S
H418 C426 0.950 . S
H419 C428 0.950 . S
H420 C430 0.950 . S
H421 C432 0.950 . S
H422 C434 0.950 . S
H423 C435 0.950 . S
C424 H416 0.950 . S
C424 C425 1.386 . S
C424 C426 1.391 . S
C425 C424 1.386 . S
C425 C429 1.393 . S
C426 H418 0.950 . S
C426 C424 1.391 . S
C426 C427 1.400 . S
C427 C426 1.400 . S
C427 C428 1.398 . S
C427 C433 1.491 . S
C428 H419 0.950 . S
C428 C427 1.398 . S
C428 C429 1.391 . S
C429 H417 0.950 . S
C429 C425 1.393 . S
C429 C428 1.391 . S
C430 H420 0.950 . S
C430 C431 1.386 . S
C430 C432 1.391 . S
C431 C430 1.386 . S
C431 C435 1.393 . S
C432 H421 0.950 . S
C432 C430 1.391 . S
C432 C433 1.400 . S
C433 C427 1.491 . S
C433 C432 1.400 . S
C433 C434 1.398 . S
C434 H422 0.950 . S
C434 C433 1.398 . S
C434 C435 1.391 . S
C435 H423 0.950 . S
C435 C431 1.393 . S
C435 C434 1.391 . S
H436 C444 0.950 . S
H437 C449 0.950 . S
H438 C446 0.950 . S
H439 C448 0.950 . S
H440 C450 0.950 . S
H441 C452 0.950 . S
H442 C454 0.950 . S
H443 C455 0.950 . S
C444 H436 0.950 . S
C444 C445 1.386 . S
C444 C446 1.391 1_455 S
C445 C444 1.386 . S
C445 C449 1.393 . S
C446 H438 0.950 . S
C446 C444 1.391 1_655 S
C446 C447 1.400 . S
C447 C446 1.400 . S
C447 C448 1.398 . S
C447 C453 1.491 . S
C448 H439 0.950 . S
C448 C447 1.398 . S
C448 C449 1.391 1_655 S
C449 H437 0.950 . S
C449 C445 1.393 . S
C449 C448 1.391 1_455 S
C450 H440 0.950 . S
C450 C451 1.386 . S
C450 C452 1.391 . S
C451 C450 1.386 . S
C451 C455 1.393 . S
C452 H441 0.950 . S
C452 C450 1.391 . S
C452 C453 1.400 . S
C453 C447 1.491 . S
C453 C452 1.400 . S
C453 C454 1.398 . S
C454 H442 0.950 . S
C454 C453 1.398 . S
C454 C455 1.391 . S
C455 H443 0.950 . S
C455 C451 1.393 . S
C455 C454 1.391 . S
H456 C464 0.950 . S
H457 C469 0.950 . S
H458 C466 0.950 . S
H459 C468 0.950 . S
H460 C470 0.950 . S
H461 C472 0.950 . S
H462 C474 0.950 . S
H463 C475 0.950 . S
C464 H456 0.950 . S
C464 C465 1.386 . S
C464 C466 1.391 . S
C465 C464 1.386 . S
C465 C469 1.393 . S
C466 H458 0.950 . S
C466 C464 1.391 . S
C466 C467 1.400 . S
C467 C466 1.400 . S
C467 C468 1.398 . S
C467 C473 1.491 . S
C468 H459 0.950 . S
C468 C467 1.398 . S
C468 C469 1.391 . S
C469 H457 0.950 . S
C469 C465 1.393 . S
C469 C468 1.391 . S
C470 H460 0.950 . S
C470 C471 1.386 . S
C470 C472 1.391 . S
C471 C470 1.386 . S
C471 C475 1.393 . S
C472 H461 0.950 . S
C472 C470 1.391 . S
C472 C473 1.400 . S
C473 C467 1.491 . S
C473 C472 1.400 . S
C473 C474 1.398 . S
C474 H462 0.950 . S
C474 C473 1.398 . S
C474 C475 1.391 . S
C475 H463 0.950 . S
C475 C471 1.393 . S
C475 C474 1.391 . S
H476 C484 0.950 . S
H477 C489 0.950 . S
H478 C486 0.950 1_455 S
H479 C488 0.950 . S
H480 C490 0.950 . S
H481 C492 0.950 . S
H482 C494 0.950 . S
H483 C495 0.950 . S
C484 H476 0.950 . S
C484 C485 1.386 . S
C484 C486 1.391 . S
C485 C484 1.386 . S
C485 C489 1.393 . S
C486 H478 0.950 1_655 S
C486 C484 1.391 . S
C486 C487 1.400 . S
C487 C486 1.400 . S
C487 C488 1.398 . S
C487 C493 1.491 1_655 S
C488 H479 0.950 . S
C488 C487 1.398 . S
C488 C489 1.391 . S
C489 H477 0.950 . S
C489 C485 1.393 . S
C489 C488 1.391 . S
C490 H480 0.950 . S
C490 C491 1.386 . S
C490 C492 1.391 1_455 S
C491 C490 1.386 . S
C491 C495 1.393 . S
C492 H481 0.950 . S
C492 C490 1.391 1_655 S
C492 C493 1.400 1_655 S
C493 C487 1.491 1_455 S
C493 C492 1.400 1_455 S
C493 C494 1.398 . S
C494 H482 0.950 . S
C494 C493 1.398 . S
C494 C495 1.391 . S
C495 H483 0.950 . S
C495 C491 1.393 . S
C495 C494 1.391 . S
H496 C504 0.950 . S
H497 C509 0.950 . S
H498 C506 0.950 . S
H499 C508 0.950 . S
H500 C510 0.950 . S
H501 C512 0.950 . S
H502 C514 0.950 . S
H503 C515 0.950 . S
C504 H496 0.950 . S
C504 C505 1.386 . S
C504 C506 1.391 . S
C505 C504 1.386 . S
C505 C509 1.393 . S
C506 H498 0.950 . S
C506 C504 1.391 . S
C506 C507 1.400 . S
C507 C506 1.400 . S
C507 C508 1.398 . S
C507 C513 1.491 . S
C508 H499 0.950 . S
C508 C507 1.398 . S
C508 C509 1.391 . S
C509 H497 0.950 . S
C509 C505 1.393 . S
C509 C508 1.391 . S
C510 H500 0.950 . S
C510 C511 1.386 . S
C510 C512 1.391 . S
C511 C510 1.386 . S
C511 C515 1.393 . S
C512 H501 0.950 . S
C512 C510 1.391 . S
C512 C513 1.400 . S
C513 C507 1.491 . S
C513 C512 1.400 . S
C513 C514 1.398 . S
C514 H502 0.950 . S
C514 C513 1.398 . S
C514 C515 1.391 . S
C515 H503 0.950 . S
C515 C511 1.393 . S
C515 C514 1.391 . S
H516 C524 0.950 . S
H517 C529 0.950 . S
H518 C526 0.950 . S
H519 C528 0.950 . S
H520 C530 0.950 . S
H521 C532 0.950 . S
H522 C534 0.950 . S
H523 C535 0.950 . S
C524 H516 0.950 . S
C524 C525 1.386 . S
C524 C526 1.391 . S
C525 C524 1.386 . S
C525 C529 1.393 . S
C526 H518 0.950 . S
C526 C524 1.391 . S
C526 C527 1.400 . S
C527 C526 1.400 . S
C527 C528 1.398 . S
C527 C533 1.491 . S
C528 H519 0.950 . S
C528 C527 1.398 . S
C528 C529 1.391 . S
C529 H517 0.950 . S
C529 C525 1.393 . S
C529 C528 1.391 . S
C530 H520 0.950 . S
C530 C531 1.386 . S
C530 C532 1.391 . S
C531 C530 1.386 . S
C531 C535 1.393 . S
C532 H521 0.950 . S
C532 C530 1.391 . S
C532 C533 1.400 . S
C533 C527 1.491 . S
C533 C532 1.400 . S
C533 C534 1.398 . S
C534 H522 0.950 . S
C534 C533 1.398 . S
C534 C535 1.391 . S
C535 H523 0.950 . S
C535 C531 1.393 . S
C535 C534 1.391 . S
H536 C544 0.950 . S
H537 C549 0.950 . S
H538 C546 0.950 . S
H539 C548 0.950 . S
H540 C550 0.950 . S
H541 C552 0.950 . S
H542 C554 0.950 . S
H543 C555 0.950 . S
C544 H536 0.950 . S
C544 C545 1.386 . S
C544 C546 1.391 . S
C545 C544 1.386 . S
C545 C549 1.393 . S
C546 H538 0.950 . S
C546 C544 1.391 . S
C546 C547 1.400 . S
C547 C546 1.400 . S
C547 C548 1.398 . S
C547 C553 1.491 . S
C548 H539 0.950 . S
C548 C547 1.398 . S
C548 C549 1.391 . S
C549 H537 0.950 . S
C549 C545 1.393 . S
C549 C548 1.391 . S
C550 H540 0.950 . S
C550 C551 1.386 . S
C550 C552 1.391 . S
C551 C550 1.386 . S
C551 C555 1.393 . S
C552 H541 0.950 . S
C552 C550 1.391 . S
C552 C553 1.400 . S
C553 C547 1.491 . S
C553 C552 1.400 . S
C553 C554 1.398 . S
C554 H542 0.950 . S
C554 C553 1.398 . S
C554 C555 1.391 . S
C555 H543 0.950 . S
C555 C551 1.393 . S
C555 C554 1.391 . S
H556 C564 0.950 . S
H557 C569 0.950 . S
H558 C566 0.950 . S
H559 C568 0.950 . S
H560 C570 0.950 . S
H561 C572 0.950 . S
H562 C574 0.950 . S
H563 C575 0.950 . S
C564 H556 0.950 . S
C564 C565 1.386 . S
C564 C566 1.391 . S
C565 C564 1.386 . S
C565 C569 1.393 . S
C566 H558 0.950 . S
C566 C564 1.391 . S
C566 C567 1.400 . S
C567 C566 1.400 . S
C567 C568 1.398 . S
C567 C573 1.491 . S
C568 H559 0.950 . S
C568 C567 1.398 . S
C568 C569 1.391 . S
C569 H557 0.950 . S
C569 C565 1.393 . S
C569 C568 1.391 . S
C570 H560 0.950 . S
C570 C571 1.386 . S
C570 C572 1.391 . S
C571 C570 1.386 . S
C571 C575 1.393 . S
C572 H561 0.950 . S
C572 C570 1.391 . S
C572 C573 1.400 . S
C573 C567 1.491 . S
C573 C572 1.400 . S
C573 C574 1.398 . S
C574 H562 0.950 . S
C574 C573 1.398 . S
C574 C575 1.391 . S
C575 H563 0.950 . S
C575 C571 1.393 . S
C575 C574 1.391 . S
H576 C584 0.950 . S
H577 C589 0.950 . S
H578 C586 0.950 . S
H579 C588 0.950 . S
H580 C590 0.950 . S
H581 C592 0.950 . S
H582 C594 0.950 . S
H583 C595 0.950 . S
C584 H576 0.950 . S
C584 C585 1.386 . S
C584 C586 1.391 . S
C585 C584 1.386 . S
C585 C589 1.393 . S
C586 H578 0.950 . S
C586 C584 1.391 . S
C586 C587 1.400 . S
C587 C586 1.400 . S
C587 C588 1.398 . S
C587 C593 1.491 . S
C588 H579 0.950 . S
C588 C587 1.398 . S
C588 C589 1.391 . S
C589 H577 0.950 . S
C589 C585 1.393 . S
C589 C588 1.391 . S
C590 H580 0.950 . S
C590 C591 1.386 . S
C590 C592 1.391 . S
C591 C590 1.386 . S
C591 C595 1.393 . S
C592 H581 0.950 . S
C592 C590 1.391 . S
C592 C593 1.400 . S
C593 C587 1.491 . S
C593 C592 1.400 . S
C593 C594 1.398 . S
C594 H582 0.950 . S
C594 C593 1.398 . S
C594 C595 1.391 . S
C595 H583 0.950 . S
C595 C591 1.393 . S
C595 C594 1.391 . S
H596 C604 0.950 . S
H597 C609 0.950 . S
H598 C606 0.950 . S
H599 C608 0.950 . S
H600 C610 0.950 . S
H601 C612 0.950 . S
H602 C614 0.950 . S
H603 C615 0.950 . S
C604 H596 0.950 . S
C604 C605 1.386 . S
C604 C606 1.391 . S
C605 C604 1.386 . S
C605 C609 1.393 . S
C606 H598 0.950 . S
C606 C604 1.391 . S
C606 C607 1.400 . S
C607 C606 1.400 . S
C607 C608 1.398 . S
C607 C613 1.491 . S
C608 H599 0.950 . S
C608 C607 1.398 . S
C608 C609 1.391 . S
C609 H597 0.950 . S
C609 C605 1.393 . S
C609 C608 1.391 . S
C610 H600 0.950 . S
C610 C611 1.386 . S
C610 C612 1.391 . S
C611 C610 1.386 . S
C611 C615 1.393 . S
C612 H601 0.950 . S
C612 C610 1.391 . S
C612 C613 1.400 . S
C613 C607 1.491 . S
C613 C612 1.400 . S
C613 C614 1.398 . S
C614 H602 0.950 . S
C614 C613 1.398 . S
C614 C615 1.391 . S
C615 H603 0.950 . S
C615 C611 1.393 . S
C615 C614 1.391 . S
H616 C624 0.950 . S
H617 C629 0.950 . S
H618 C626 0.950 . S
H619 C628 0.950 . S
H620 C630 0.950 . S
H621 C632 0.950 . S
H622 C634 0.950 . S
H623 C635 0.950 . S
C624 H616 0.950 . S
C624 C625 1.386 . S
C624 C626 1.391 . S
C625 C624 1.386 . S
C625 C629 1.393 . S
C626 H618 0.950 . S
C626 C624 1.391 . S
C626 C627 1.400 . S
C627 C626 1.400 . S
C627 C628 1.398 . S
C627 C633 1.491 . S
C628 H619 0.950 . S
C628 C627 1.398 . S
C628 C629 1.391 . S
C629 H617 0.950 . S
C629 C625 1.393 . S
C629 C628 1.391 . S
C630 H620 0.950 . S
C630 C631 1.386 . S
C630 C632 1.391 . S
C631 C630 1.386 . S
C631 C635 1.393 . S
C632 H621 0.950 . S
C632 C630 1.391 . S
C632 C633 1.400 . S
C633 C627 1.491 . S
C633 C632 1.400 . S
C633 C634 1.398 . S
C634 H622 0.950 . S
C634 C633 1.398 . S
C634 C635 1.391 . S
C635 H623 0.950 . S
C635 C631 1.393 . S
C635 C634 1.391 . S
H636 C644 0.950 . S
H637 C649 0.950 . S
H638 C646 0.950 . S
H639 C648 0.950 . S
H640 C650 0.950 . S
H641 C652 0.950 . S
H642 C654 0.950 . S
H643 C655 0.950 . S
C644 H636 0.950 . S
C644 C645 1.386 . S
C644 C646 1.391 . S
C645 C644 1.386 . S
C645 C649 1.393 . S
C646 H638 0.950 . S
C646 C644 1.391 . S
C646 C647 1.400 . S
C647 C646 1.400 . S
C647 C648 1.398 . S
C647 C653 1.491 . S
C648 H639 0.950 . S
C648 C647 1.398 . S
C648 C649 1.391 . S
C649 H637 0.950 . S
C649 C645 1.393 . S
C649 C648 1.391 . S
C650 H640 0.950 . S
C650 C651 1.386 . S
C650 C652 1.391 . S
C651 C650 1.386 . S
C651 C655 1.393 . S
C652 H641 0.950 . S
C652 C650 1.391 . S
C652 C653 1.400 . S
C653 C647 1.491 . S
C653 C652 1.400 . S
C653 C654 1.398 . S
C654 H642 0.950 . S
C654 C653 1.398 . S
C654 C655 1.391 . S
C655 H643 0.950 . S
C655 C651 1.393 . S
C655 C654 1.391 . S
C185 C7 1.451 . S
C191 C97 1.411 . S
C205 C37 1.397 . S
C211 C108 1.338 . S
C225 C54 1.339 . S
C231 C116 1.299 . S
C251 C130 1.371 . S
C245 C87 1.389 . S
C271 C141 1.372 . S
C265 C30 1.425 . S
C285 C51 1.415 . S
C291 C152 1.388 . S
C305 C84 1.380 . S
C311 C160 1.338 . S
C325 C10 1.368 . S
C331 C174 1.302 . S
C345 C59 1.331 . S
C351 C171 1.293 . S
C371 C138 1.156 . S
C365 C74 1.170 . S
C391 C149 1.310 . S
C385 C18 1.332 1_556 S
C405 C32 1.411 . S
C411 C163 1.353 . S
C431 C105 1.301 . S
C425 C73 1.313 . S
C445 C15 1.421 . S
C451 C119 1.382 . S
C471 C127 1.317 . S
C465 C43 1.366 . S
C491 C94 1.147 . S
C485 C62 1.183 . S
C511 N158 1.451 . S
C505 C21 1.476 . S
C531 N169 1.436 . S
C525 C29 1.433 . S
C545 C52 1.350 . S
C551 N136 1.347 . S
C571 N147 1.391 . S
C565 C81 1.418 . S
C591 N114 1.422 . S
C585 C40 1.447 . S
C605 C65 1.423 . S
C611 N125 1.378 . S
C631 N92 1.352 . S
C625 C76 1.363 . S
C651 N103 1.431 . S
C645 C8 1.440 1_556 S
