# Generated by pormake.
# Topology apo, (3,6)-cn, num edge types: 1
# Building blocks:
#     Node 0, Type 0, BuildingBlock: BETDAH_clean_linker_0, # of connection points: 3
#     Node 1, Type 0, BuildingBlock: BETDAH_clean_linker_0, # of connection points: 3
#     Node 2, Type 0, BuildingBlock: BETDAH_clean_linker_0, # of connection points: 3
#     Node 3, Type 0, BuildingBlock: BETDAH_clean_linker_0, # of connection points: 3
#     Node 4, Type 0, BuildingBlock: BETDAH_clean_linker_0, # of connection points: 3
#     Node 5, Type 0, BuildingBlock: BETDAH_clean_linker_0, # of connection points: 3
#     Node 6, Type 0, BuildingBlock: BETDAH_clean_linker_0, # of connection points: 3
#     Node 7, Type 0, BuildingBlock: BETDAH_clean_linker_0, # of connection points: 3
#     Node 8, Type 1, BuildingBlock: MIDCAF_clean_sbu_0, # of connection points: 6
#     Node 9, Type 1, BuildingBlock: MIDCAF_clean_sbu_0, # of connection points: 6
#     Node 10, Type 1, BuildingBlock: MIDCAF_clean_sbu_0, # of connection points: 6
#     Node 11, Type 1, BuildingBlock: MIDCAF_clean_sbu_0, # of connection points: 6
#     Edge 12, Type (0, 1), BuildingBlock: KIFKEQ_clean_linker_1, # of connection points: 2
#     Edge 13, Type (0, 1), BuildingBlock: KIFKEQ_clean_linker_1, # of connection points: 2
#     Edge 14, Type (0, 1), BuildingBlock: KIFKEQ_clean_linker_1, # of connection points: 2
#     Edge 15, Type (0, 1), BuildingBlock: KIFKEQ_clean_linker_1, # of connection points: 2
#     Edge 16, Type (0, 1), BuildingBlock: KIFKEQ_clean_linker_1, # of connection points: 2
#     Edge 17, Type (0, 1), BuildingBlock: KIFKEQ_clean_linker_1, # of connection points: 2
#     Edge 18, Type (0, 1), BuildingBlock: KIFKEQ_clean_linker_1, # of connection points: 2
#     Edge 19, Type (0, 1), BuildingBlock: KIFKEQ_clean_linker_1, # of connection points: 2
#     Edge 20, Type (0, 1), BuildingBlock: KIFKEQ_clean_linker_1, # of connection points: 2
#     Edge 21, Type (0, 1), BuildingBlock: KIFKEQ_clean_linker_1, # of connection points: 2
#     Edge 22, Type (0, 1), BuildingBlock: KIFKEQ_clean_linker_1, # of connection points: 2
#     Edge 23, Type (0, 1), BuildingBlock: KIFKEQ_clean_linker_1, # of connection points: 2
#     Edge 24, Type (0, 1), BuildingBlock: KIFKEQ_clean_linker_1, # of connection points: 2
#     Edge 25, Type (0, 1), BuildingBlock: KIFKEQ_clean_linker_1, # of connection points: 2
#     Edge 26, Type (0, 1), BuildingBlock: KIFKEQ_clean_linker_1, # of connection points: 2
#     Edge 27, Type (0, 1), BuildingBlock: KIFKEQ_clean_linker_1, # of connection points: 2
#     Edge 28, Type (0, 1), BuildingBlock: KIFKEQ_clean_linker_1, # of connection points: 2
#     Edge 29, Type (0, 1), BuildingBlock: KIFKEQ_clean_linker_1, # of connection points: 2
#     Edge 30, Type (0, 1), BuildingBlock: KIFKEQ_clean_linker_1, # of connection points: 2
#     Edge 31, Type (0, 1), BuildingBlock: KIFKEQ_clean_linker_1, # of connection points: 2
#     Edge 32, Type (0, 1), BuildingBlock: KIFKEQ_clean_linker_1, # of connection points: 2
#     Edge 33, Type (0, 1), BuildingBlock: KIFKEQ_clean_linker_1, # of connection points: 2
#     Edge 34, Type (0, 1), BuildingBlock: KIFKEQ_clean_linker_1, # of connection points: 2
#     Edge 35, Type (0, 1), BuildingBlock: KIFKEQ_clean_linker_1, # of connection points: 2
# Relax obj value: 0.013
# Max RMSD: 0.063
# Mean RMSD: 0.053
data_MOF--net-apo--node1-MIDCAF_clean_sbu_0--node2-BETDAH_clean_linker_0--edge1-KIFKEQ_clean_linker_1
_symmetry_space_group_name_H-M    P1
_symmetry_Int_Tables_number       1
_symmetry_cell_setting            triclinic
loop_
_symmetry_equiv_pos_as_xyz
'x, y, z'
_cell_length_a     36.839804
_cell_length_b     41.896629
_cell_length_c     35.042662
_cell_angle_alpha  89.123794
_cell_angle_beta   89.472157
_cell_angle_gamma 89.425187
loop_
_atom_site_label
_atom_site_type_symbol
_atom_site_fract_x
_atom_site_fract_y
_atom_site_fract_z
_atom_type_partial_charge
H0 H 0.39062 0.3791 0.44036 0.0
H1 H 0.34783 0.32838 0.34536 0.0
H2 H 0.35513 0.28224 0.45579 0.0
C3 C 0.37915 0.35754 0.42895 0.0
C4 C 0.37414 0.33081 0.453 0.0
C5 C 0.37006 0.35683 0.39018 0.0
C6 C 0.35483 0.32909 0.37529 0.0
C7 C 0.34892 0.30229 0.39926 0.0
C8 C 0.35897 0.30323 0.43779 0.0
N9 N 0.33399 0.27361 0.38553 0.0
C10 C 0.31243 0.27136 0.35333 0.0
H11 H 0.13421 0.13497 0.93954 0.0
H12 H 0.14952 0.16459 0.82266 0.0
H13 H 0.19861 0.2177 0.91223 0.0
C14 C 0.14626 0.15103 0.91857 0.0
C15 C 0.16721 0.17679 0.93084 0.0
C16 C 0.13982 0.14621 0.87968 0.0
C17 C 0.15483 0.16748 0.85278 0.0
C18 C 0.17661 0.19273 0.86416 0.0
C19 C 0.18276 0.19754 0.9033 0.0
N20 N 0.18983 0.21392 0.83544 0.0
C21 C 0.22391 0.22777 0.83561 0.0
H22 H 0.91401 0.14345 0.60011 0.0
H23 H 0.83557 0.1751 0.68358 0.0
H24 H 0.83404 0.21446 0.56948 0.0
C25 C 0.89142 0.15887 0.60792 0.0
C26 C 0.87603 0.17928 0.58016 0.0
C27 C 0.87705 0.15709 0.64526 0.0
C28 C 0.84687 0.17636 0.65496 0.0
C29 C 0.83152 0.19721 0.62746 0.0
C30 C 0.84599 0.19822 0.59033 0.0
N31 N 0.80138 0.21751 0.63536 0.0
C32 C 0.78541 0.22289 0.67085 0.0
H33 H 0.66062 0.38096 0.10383 0.0
H34 H 0.6822 0.32585 0.20593 0.0
H35 H 0.69669 0.28339 0.09576 0.0
C36 C 0.67028 0.3591 0.11745 0.0
C37 C 0.67966 0.33287 0.09483 0.0
C38 C 0.67056 0.35675 0.15746 0.0
C39 C 0.6821 0.32807 0.17508 0.0
C40 C 0.6922 0.3018 0.15269 0.0
C41 C 0.69001 0.30406 0.11278 0.0
N42 N 0.70142 0.27199 0.16974 0.0
C43 C 0.72977 0.26787 0.19535 0.0
H44 H 0.62913 0.6415 0.57217 0.0
H45 H 0.71308 0.64001 0.65751 0.0
H46 H 0.73473 0.67869 0.54598 0.0
C47 C 0.65634 0.64699 0.58126 0.0
C48 C 0.68038 0.66109 0.55475 0.0
C49 C 0.66777 0.63821 0.61833 0.0
C50 C 0.70301 0.64681 0.62961 0.0
C51 C 0.72679 0.66192 0.60366 0.0
C52 C 0.71573 0.66809 0.56617 0.0
N53 N 0.76309 0.66865 0.61353 0.0
C54 C 0.77281 0.68251 0.64768 0.0
H55 H 0.9027 0.86481 0.08109 0.0
H56 H 0.82383 0.79412 0.11345 0.0
H57 H 0.87247 0.85205 0.19916 0.0
C58 C 0.88662 0.85302 0.10311 0.0
C59 C 0.89027 0.8619 0.14134 0.0
C60 C 0.86281 0.82871 0.09286 0.0
C61 C 0.84199 0.81308 0.12124 0.0
C62 C 0.84595 0.82144 0.15984 0.0
C63 C 0.87017 0.84553 0.16947 0.0
N64 N 0.82706 0.80589 0.19021 0.0
C65 C 0.79567 0.78809 0.18689 0.0
H66 H 0.13902 0.87156 0.4372 0.0
H67 H 0.16995 0.82163 0.33519 0.0
H68 H 0.17056 0.77274 0.44414 0.0
C69 C 0.14922 0.85022 0.42344 0.0
C70 C 0.15531 0.82257 0.44566 0.0
C71 C 0.1539 0.85017 0.38355 0.0
C72 C 0.16624 0.82208 0.36588 0.0
C73 C 0.17264 0.79422 0.3879 0.0
C74 C 0.16626 0.79443 0.42747 0.0
N75 N 0.18331 0.76509 0.37081 0.0
C76 C 0.21028 0.76256 0.34293 0.0
H77 H 0.3751 0.63311 0.91272 0.0
H78 H 0.34428 0.73187 0.92327 0.0
H79 H 0.34286 0.68733 0.81333 0.0
C80 C 0.36547 0.65535 0.89999 0.0
C81 C 0.35971 0.657 0.86051 0.0
C82 C 0.36027 0.68214 0.92302 0.0
C83 C 0.34791 0.71077 0.90609 0.0
C84 C 0.34077 0.71256 0.86678 0.0
C85 C 0.34702 0.68569 0.84387 0.0
N86 N 0.33 0.74237 0.85065 0.0
C87 C 0.30179 0.74606 0.82481 0.0
Zn88 Zn 0.06869 0.12376 0.31591 0.0
Zn89 Zn 0.99875 0.12919 0.19213 0.0
Zn90 Zn 0.03366 0.12588 0.25476 0.0
C91 C 0.06011 0.16382 0.17735 0.0
C92 C 0.01234 0.06488 0.20437 0.0
O93 O 0.99982 0.14899 0.30043 0.0
O94 O 0.03898 0.15271 0.34744 0.0
C95 C 0.11498 0.15313 0.26583 0.0
O96 O 0.06716 0.15234 0.21091 0.0
O97 O 0.02937 0.15939 0.1629 0.0
O98 O 1.00185 0.0837 0.17818 0.0
O99 O 0.02414 0.07607 0.23597 0.0
O100 O 0.11605 0.13949 0.2981 0.0
O101 O 0.08586 0.15207 0.24573 0.0
O102 O 0.04446 0.07431 0.26973 0.0
O103 O 0.06593 0.07787 0.32807 0.0
C104 C 0.05619 0.06087 0.30069 0.0
O105 O 0.98049 0.15064 0.26613 0.0
O106 O 0.9516 0.14483 0.21167 0.0
C107 C 1.00779 0.15829 0.33426 0.0
C108 C 0.95179 0.15434 0.24562 0.0
Zn109 Zn 0.54928 0.39025 0.7195 0.0
Zn110 Zn 0.49068 0.39474 0.83645 0.0
Zn111 Zn 0.51864 0.39052 0.77702 0.0
C112 C 0.47291 0.45054 0.80127 0.0
C113 C 0.45701 0.34493 0.80468 0.0
O114 O 0.56944 0.36143 0.78482 0.0
O115 O 0.57285 0.34764 0.72459 0.0
C116 C 0.55998 0.44966 0.7416 0.0
O117 O 0.50196 0.44151 0.78355 0.0
O118 O 0.45782 0.43159 0.82463 0.0
O119 O 0.46831 0.35174 0.83744 0.0
O120 O 0.46931 0.36049 0.7754 0.0
O121 O 0.57967 0.42908 0.7253 0.0
O122 O 0.53077 0.44069 0.75907 0.0
O123 O 0.48124 0.36699 0.73739 0.0
O124 O 0.50437 0.39357 0.68845 0.0
C125 C 0.47924 0.37664 0.70243 0.0
O126 O 0.55801 0.3726 0.82027 0.0
O127 O 0.53521 0.40129 0.86697 0.0
C128 C 0.58279 0.34337 0.75864 0.0
C129 C 0.56064 0.38404 0.85405 0.0
Zn130 Zn 0.02289 0.8721 0.83493 0.0
Zn131 Zn 0.96082 0.89314 0.70508 0.0
Zn132 Zn 0.99366 0.88137 0.76873 0.0
C133 C 0.96617 0.95168 0.73669 0.0
C134 C 0.91763 0.84954 0.74412 0.0
O135 O 0.04501 0.8535 0.75881 0.0
O136 O 0.06057 0.84152 0.81818 0.0
C137 C 0.02477 0.93752 0.82148 0.0
O138 O 0.98438 0.93438 0.76078 0.0
O139 O 0.95082 0.93899 0.70886 0.0
O140 O 0.91982 0.86372 0.71216 0.0
O141 O 0.94199 0.85405 0.76966 0.0
O142 O 0.0363 0.91689 0.84517 0.0
O143 O 1.0069 0.92878 0.79198 0.0
O144 O 0.95402 0.85549 0.80732 0.0
O145 O 0.98151 0.85443 0.86324 0.0
C146 C 0.95416 0.84848 0.84334 0.0
O147 O 0.03056 0.86247 0.72338 0.0
O148 O 1.00225 0.88071 0.67196 0.0
C149 C 0.06581 0.83866 0.78277 0.0
C150 C 0.02922 0.86673 0.6869 0.0
Zn151 Zn 0.52733 0.61187 0.18611 0.0
Zn152 Zn 0.47959 0.62432 0.30935 0.0
Zn153 Zn 0.50375 0.61935 0.24753 0.0
C154 C 0.55045 0.63723 0.31818 0.0
C155 C 0.46245 0.56376 0.28977 0.0
O156 O 0.46325 0.63893 0.20647 0.0
O157 O 0.48032 0.60783 0.15941 0.0
C158 C 0.56726 0.66037 0.21257 0.0
O159 O 0.54585 0.64255 0.28225 0.0
O160 O 0.52598 0.62354 0.33756 0.0
O161 O 0.44853 0.58563 0.30965 0.0
O162 O 0.48938 0.57028 0.26733 0.0
O163 O 0.55405 0.65272 0.1809 0.0
O164 O 0.55491 0.64709 0.24341 0.0
O165 O 0.51727 0.56732 0.24216 0.0
O166 O 0.5576 0.57329 0.19586 0.0
C167 C 0.54369 0.55611 0.22181 0.0
O168 O 0.4529 0.64894 0.24362 0.0
O169 O 0.45455 0.66614 0.30255 0.0
C170 C 0.45751 0.62718 0.17335 0.0
C171 C 0.44118 0.66807 0.26957 0.0
H172 H 0.11089 0.85448 0.31987 0.0
H173 H 0.17224 0.91157 0.39745 0.0
H174 H 0.08327 0.90338 0.29257 0.0
H175 H 0.14444 0.95988 0.37074 0.0
H176 H 0.04801 0.0256 0.365 0.0
H177 H 0.07253 0.97243 0.37772 0.0
H178 H 0.10291 0.96378 0.25912 0.0
H179 H 0.07832 0.01781 0.2462 0.0
C180 C 0.11923 0.87744 0.33032 0.0
C181 C 0.14334 0.87921 0.36117 0.0
C182 C 0.10332 0.90532 0.31481 0.0
C183 C 0.11127 0.93522 0.33011 0.0
C184 C 0.13741 0.93703 0.35889 0.0
C185 C 0.15334 0.90941 0.37414 0.0
C186 C 0.05904 0.01211 0.34136 0.0
C187 C 0.06157 0.02595 0.3047 0.0
C188 C 0.07323 0.98175 0.3487 0.0
C189 C 0.0903 0.96439 0.31958 0.0
C190 C 0.09001 0.97684 0.28207 0.0
C191 C 0.07576 0.00758 0.27465 0.0
H192 H 0.40959 0.65318 0.80245 0.0
H193 H 0.33395 0.59704 0.86901 0.0
H194 H 0.43629 0.60411 0.77632 0.0
H195 H 0.36059 0.54836 0.84399 0.0
H196 H 0.40202 0.46295 0.78998 0.0
H197 H 0.37113 0.51453 0.79151 0.0
H198 H 0.4746 0.56119 0.80224 0.0
H199 H 0.50556 0.50917 0.79899 0.0
C200 C 0.39797 0.63037 0.81049 0.0
C201 C 0.36965 0.62877 0.83756 0.0
C202 C 0.41354 0.60229 0.79599 0.0
C203 C 0.40081 0.57219 0.80815 0.0
C204 C 0.37088 0.57097 0.83341 0.0
C205 C 0.35556 0.59888 0.84791 0.0
C206 C 0.41817 0.48435 0.79172 0.0
C207 C 0.45607 0.4822 0.79474 0.0
C208 C 0.40049 0.5139 0.79282 0.0
C209 C 0.42023 0.54203 0.79793 0.0
C210 C 0.45849 0.54006 0.79813 0.0
C211 C 0.4763 0.51032 0.79636 0.0
H212 H 0.61907 0.59277 0.59609 0.0
H213 H 0.66418 0.63431 0.69749 0.0
H214 H 0.58639 0.55472 0.63541 0.0
H215 H 0.63324 0.59382 0.73651 0.0
H216 H 0.62574 0.47582 0.75259 0.0
H217 H 0.64587 0.52845 0.73049 0.0
H218 H 0.53677 0.55146 0.69488 0.0
H219 H 0.51635 0.49895 0.71829 0.0
C220 C 0.62145 0.59463 0.62671 0.0
C221 C 0.64459 0.6171 0.64325 0.0
C222 C 0.60268 0.57246 0.64927 0.0
C223 C 0.60717 0.57148 0.68892 0.0
C224 C 0.6293 0.59424 0.70591 0.0
C225 C 0.64737 0.61714 0.68339 0.0
C226 C 0.60584 0.49264 0.7414 0.0
C227 C 0.56956 0.48354 0.73715 0.0
C228 C 0.61731 0.52273 0.72891 0.0
C229 C 0.59285 0.54389 0.711 0.0
C230 C 0.55604 0.53555 0.70882 0.0
C231 C 0.54437 0.50567 0.72227 0.0
H232 H 0.89807 0.91881 0.10353 0.0
H233 H 0.93594 0.86643 0.20283 0.0
H234 H 0.93518 0.96379 0.12065 0.0
H235 H 0.97327 0.91192 0.22021 0.0
H236 H 0.99003 0.02001 0.25699 0.0
H237 H 0.96556 0.96739 0.24272 0.0
H238 H 0.9978 0.97993 0.12462 0.0
H239 H 0.02121 0.03251 0.13877 0.0
C240 C 0.91481 0.91666 0.1287 0.0
C241 C 0.91413 0.88889 0.15164 0.0
C242 C 0.93619 0.94251 0.13855 0.0
C243 C 0.95757 0.94137 0.17162 0.0
C244 C 0.95701 0.91361 0.19465 0.0
C245 C 0.93556 0.8876 0.18472 0.0
C246 C 0.99289 0.01097 0.22831 0.0
C247 C 1.00714 0.03037 0.19889 0.0
C248 C 0.97879 0.98089 0.22007 0.0
C249 C 0.97888 0.96983 0.1823 0.0
C250 C 0.99634 0.98812 0.15377 0.0
C251 C 0.01006 0.01812 0.16192 0.0
H252 H 0.84186 0.11218 0.68882 0.0
H253 H 0.94846 0.14881 0.66314 0.0
H254 H 0.86919 0.06686 0.72293 0.0
H255 H 0.97596 0.10405 0.69808 0.0
H256 H 1.00043 0.9944 0.69176 0.0
H257 H 0.98197 0.04954 0.68037 0.0
H258 H 0.90477 0.04255 0.77373 0.0
H259 H 0.92346 0.98674 0.78461 0.0
C260 C 0.87111 0.11107 0.6916 0.0
C261 C 0.89305 0.13372 0.67285 0.0
C262 C 0.88686 0.08513 0.71127 0.0
C263 C 0.92489 0.08146 0.71283 0.0
C264 C 0.94664 0.1057 0.69678 0.0
C265 C 0.93091 0.1314 0.67685 0.0
C266 C 0.98064 0.00514 0.71084 0.0
C267 C 0.96362 0.98662 0.73927 0.0
C268 C 0.96993 0.0368 0.70436 0.0
C269 C 0.94152 0.05055 0.72587 0.0
C270 C 0.92641 0.03261 0.75633 0.0
C271 C 0.9374 1.00085 0.76296 0.0
H272 H 0.69135 0.41865 0.15327 0.0
H273 H 0.61546 0.35594 0.2103 0.0
H274 H 0.66006 0.46476 0.17992 0.0
H275 H 0.58383 0.40236 0.23746 0.0
H276 H 0.51247 0.49747 0.21445 0.0
H277 H 0.54535 0.44642 0.2091 0.0
H278 H 0.64509 0.49325 0.23821 0.0
H279 H 0.61234 0.54396 0.24265 0.0
C280 C 0.66845 0.41478 0.17236 0.0
C281 C 0.65589 0.3838 0.17984 0.0
C282 C 0.65053 0.44117 0.18779 0.0
C283 C 0.61936 0.43727 0.21086 0.0
C284 C 0.60764 0.40614 0.21966 0.0
C285 C 0.62593 0.3796 0.20448 0.0
C286 C 0.54114 0.49642 0.22103 0.0
C287 C 0.55998 0.52442 0.22904 0.0
C288 C 0.56002 0.46728 0.21793 0.0
C289 C 0.59799 0.4659 0.22262 0.0
C290 C 0.61603 0.4936 0.23374 0.0
C291 C 0.59727 0.52256 0.23661 0.0
H292 H 0.41027 0.3603 0.32407 0.0
H293 H 0.34816 0.41763 0.40285 0.0
H294 H 0.43098 0.40903 0.2909 0.0
H295 H 0.36897 0.46592 0.37064 0.0
H296 H 0.39175 0.54904 0.29782 0.0
H297 H 0.3656 0.49723 0.3129 0.0
H298 H 0.47225 0.45367 0.30604 0.0
H299 H 0.49829 0.50592 0.28992 0.0
C300 C 0.40044 0.3833 0.33368 0.0
C301 C 0.37762 0.38532 0.36594 0.0
C302 C 0.41258 0.41114 0.31503 0.0
C303 C 0.4017 0.4414 0.32811 0.0
C304 C 0.37752 0.4431 0.35936 0.0
C305 C 0.36568 0.41544 0.378 0.0
C306 C 0.40952 0.52828 0.29888 0.0
C307 C 0.44705 0.53143 0.29298 0.0
C308 C 0.39457 0.49861 0.30764 0.0
C309 C 0.41687 0.47137 0.31139 0.0
C310 C 0.45425 0.47415 0.30315 0.0
C311 C 0.46922 0.504 0.2939 0.0
H312 H 0.07629 0.12462 0.91154 0.0
H313 H 0.15241 0.10624 0.81977 0.0
H314 H 0.04234 0.07726 0.89465 0.0
H315 H 0.11828 0.05902 0.80274 0.0
H316 H 0.03767 0.98423 0.76762 0.0
H317 H 0.0598 0.03825 0.77862 0.0
H318 H 0.05622 0.01994 0.90027 0.0
H319 H 0.0334 0.96662 0.88923 0.0
C320 C 0.08575 0.11051 0.88772 0.0
C321 C 0.11736 0.11897 0.86733 0.0
C322 C 0.0662 0.08347 0.87795 0.0
C323 C 0.07772 0.0643 0.84749 0.0
C324 C 0.10843 0.0735 0.82606 0.0
C325 C 0.12805 0.10053 0.83589 0.0
C326 C 0.04053 0.99221 0.79665 0.0
C327 C 0.03352 0.97138 0.82757 0.0
C328 C 0.05367 0.02293 0.80296 0.0
C329 C 0.05985 0.03334 0.84032 0.0
C330 C 0.05137 0.01286 0.87117 0.0
C331 C 0.03851 0.98221 0.86485 0.0
H332 H 0.18237 0.13393 0.98818 0.0
H333 H 0.15558 0.23317 0.96782 0.0
H334 H 0.16782 0.13973 0.05548 0.0
H335 H 0.14229 0.23949 0.03576 0.0
H336 H 0.05062 0.2102 0.12373 0.0
H337 H 0.08989 0.22083 0.06931 0.0
H338 H 0.17295 0.16003 0.11897 0.0
H339 H 0.13275 0.14888 0.17352 0.0
C340 C 0.17452 0.15731 0.9984 0.0
C341 C 0.16929 0.18289 0.97253 0.0
C342 C 0.16649 0.16076 0.03719 0.0
C343 C 0.15312 0.18996 0.05114 0.0
C344 C 0.15179 0.21647 0.02591 0.0
C345 C 0.15976 0.21297 0.98698 0.0
C346 C 0.07778 0.20002 0.12372 0.0
C347 C 0.08841 0.17837 0.1526 0.0
C348 C 0.10052 0.20624 0.09248 0.0
C349 C 0.13447 0.19081 0.08919 0.0
C350 C 0.1467 0.17186 0.12021 0.0
C351 C 0.12387 0.16576 0.15174 0.0
H352 H 0.43615 0.35612 0.48067 0.0
H353 H 0.33819 0.30824 0.51732 0.0
H354 H 0.45208 0.36458 0.5469 0.0
H355 H 0.35512 0.31605 0.58437 0.0
H356 H 0.45237 0.31689 0.68964 0.0
H357 H 0.42053 0.30139 0.63125 0.0
H358 H 0.41042 0.40062 0.59808 0.0
H359 H 0.44207 0.41593 0.65562 0.0
C360 C 0.41803 0.3473 0.50285 0.0
C361 C 0.38549 0.33212 0.49363 0.0
C362 C 0.42728 0.35201 0.54077 0.0
C363 C 0.40453 0.34134 0.57054 0.0
C364 C 0.37298 0.32453 0.56177 0.0
C365 C 0.36344 0.32003 0.5235 0.0
C366 C 0.44176 0.33532 0.67067 0.0
C367 C 0.44978 0.36755 0.67678 0.0
C368 C 0.42376 0.32648 0.63729 0.0
C369 C 0.41365 0.34987 0.6101 0.0
C370 C 0.41825 0.38219 0.61851 0.0
C371 C 0.43619 0.39093 0.65147 0.0
H372 H 0.70542 0.37955 0.0471 0.0
H373 H 0.64403 0.29238 0.04788 0.0
H374 H 0.68838 0.38977 0.98085 0.0
H375 H 0.62617 0.30289 0.98189 0.0
H376 H 0.59846 0.32737 0.86056 0.0
H377 H 0.63881 0.31153 0.91318 0.0
H378 H 0.62983 0.40679 0.95821 0.0
H379 H 0.59036 0.4223 0.90608 0.0
C380 C 0.6888 0.36229 0.03281 0.0
C381 C 0.67558 0.33544 0.05277 0.0
C382 C 0.679 0.36814 0.9949 0.0
C383 C 0.65536 0.34746 0.97623 0.0
C384 C 0.6446 0.31921 0.99524 0.0
C385 C 0.65471 0.31322 0.03314 0.0
C386 C 0.60624 0.34506 0.8811 0.0
C387 C 0.5912 0.37598 0.8795 0.0
C388 C 0.629 0.33595 0.91139 0.0
C389 C 0.63739 0.35781 0.94012 0.0
C390 C 0.62442 0.38937 0.93652 0.0
C391 C 0.60153 0.39827 0.90672 0.0
H392 H 0.94756 0.18058 0.55941 0.0
H393 H 0.83987 0.18177 0.51173 0.0
H394 H 0.97367 0.18167 0.49555 0.0
H395 H 0.86618 0.18391 0.44727 0.0
H396 H 0.01759 0.20598 0.38398 0.0
H397 H 0.98119 0.21645 0.44081 0.0
H398 H 0.90111 0.14947 0.4032 0.0
H399 H 0.9373 0.13992 0.34534 0.0
C400 C 0.92942 0.18116 0.53525 0.0
C401 C 0.89163 0.18096 0.54077 0.0
C402 C 0.94439 0.18227 0.49852 0.0
C403 C 0.92204 0.18328 0.46613 0.0
C404 C 0.88417 0.18316 0.47154 0.0
C405 C 0.86912 0.18217 0.50848 0.0
C406 C 0.99154 0.19441 0.38719 0.0
C407 C 0.98039 0.17193 0.36052 0.0
C408 C 0.97088 0.20007 0.41999 0.0
C409 C 0.93885 0.18298 0.42724 0.0
C410 C 0.92576 0.16292 0.39862 0.0
C411 C 0.94635 0.15754 0.36536 0.0
H412 H 0.91179 0.79212 0.05573 0.0
H413 H 0.81359 0.84688 0.0387 0.0
H414 H 0.92097 0.78916 0.98714 0.0
H415 H 0.8219 0.84342 0.96931 0.0
H416 H 0.89689 0.88273 0.86891 0.0
H417 H 0.86281 0.86954 0.9267 0.0
H418 H 0.9071 0.77363 0.92468 0.0
H419 H 0.94244 0.78774 0.86767 0.0
C420 C 0.89133 0.80234 0.03704 0.0
C421 C 0.86191 0.81948 0.0523 0.0
C422 C 0.89643 0.80062 0.99757 0.0
C423 C 0.87228 0.81621 0.97229 0.0
C424 C 0.84129 0.83143 0.98777 0.0
C425 C 0.83624 0.83315 0.02746 0.0
C426 C 0.89771 0.85835 0.87969 0.0
C427 C 0.9221 0.83621 0.86385 0.0
C428 C 0.8783 0.85073 0.91311 0.0
C429 C 0.8829 0.8207 0.93121 0.0
C430 C 0.90364 0.79726 0.91222 0.0
C431 C 0.9234 0.80509 0.87911 0.0
H432 H 0.71763 0.64386 0.49037 0.0
H433 H 0.61774 0.68847 0.52811 0.0
H434 H 0.69569 0.64484 0.42467 0.0
H435 H 0.59568 0.68922 0.46264 0.0
H436 H 0.56439 0.69693 0.34212 0.0
H437 H 0.60401 0.70981 0.39548 0.0
H438 H 0.64572 0.61308 0.39617 0.0
H439 H 0.60601 0.60048 0.34322 0.0
C440 C 0.69135 0.65456 0.48448 0.0
C441 C 0.66925 0.66589 0.5144 0.0
C442 C 0.67874 0.65498 0.44692 0.0
C443 C 0.64397 0.66708 0.43845 0.0
C444 C 0.62278 0.68009 0.4681 0.0
C445 C 0.63521 0.67936 0.50567 0.0
C446 C 0.58338 0.679 0.35259 0.0
C447 C 0.58265 0.64787 0.33852 0.0
C448 C 0.60568 0.6862 0.38337 0.0
C449 C 0.62764 0.66235 0.40033 0.0
C450 C 0.62938 0.63206 0.3836 0.0
C451 C 0.60679 0.62482 0.35318 0.0
H452 H 0.42019 0.65443 0.95422 0.0
H453 H 0.32162 0.70493 0.98502 0.0
H454 H 0.4327 0.64425 0.02132 0.0
H455 H 0.33505 0.69525 0.05312 0.0
H456 H 0.43394 0.68853 0.16011 0.0
H457 H 0.40261 0.70679 0.10186 0.0
H458 H 0.38479 0.60888 0.07145 0.0
H459 H 0.41612 0.59076 0.12889 0.0
C460 C 0.40121 0.66346 0.97534 0.0
C461 C 0.3695 0.67988 0.96424 0.0
C462 C 0.4085 0.65775 0.01374 0.0
C463 C 0.38454 0.6686 0.04214 0.0
C464 C 0.35378 0.68659 0.03156 0.0
C465 C 0.34624 0.69216 0.99274 0.0
C466 C 0.42168 0.67106 0.1419 0.0
C467 C 0.42769 0.63827 0.14859 0.0
C468 C 0.40389 0.68149 0.1086 0.0
C469 C 0.39182 0.65914 0.08217 0.0
C470 C 0.39403 0.6265 0.09141 0.0
C471 C 0.41186 0.61616 0.12428 0.0
H472 H 0.18 0.86587 0.4962 0.0
H473 H 0.1145 0.78141 0.48943 0.0
H474 H 0.1601 0.87321 0.5621 0.0
H475 H 0.09373 0.78912 0.55522 0.0
H476 H 0.06371 0.80848 0.67857 0.0
H477 H 0.10411 0.79347 0.62513 0.0
H478 H 0.10138 0.89119 0.58375 0.0
H479 H 0.06176 0.90567 0.63638 0.0
C480 C 0.16173 0.84861 0.50907 0.0
C481 C 0.14833 0.82338 0.48751 0.0
C482 C 0.15029 0.85279 0.54681 0.0
C483 C 0.12479 0.83208 0.56381 0.0
C484 C 0.11354 0.80541 0.54317 0.0
C485 C 0.1253 0.80105 0.5054 0.0
C486 C 0.07284 0.82672 0.65856 0.0
C487 C 0.05973 0.85818 0.66138 0.0
C488 C 0.09562 0.81816 0.62784 0.0
C489 C 0.10592 0.84109 0.59999 0.0
C490 C 0.09457 0.87293 0.60474 0.0
C491 C 0.07166 0.88127 0.63487 0.0
H492 H 0.32564 0.23475 0.2921 0.0
H493 H 0.24211 0.28879 0.34975 0.0
H494 H 0.27972 0.21045 0.25191 0.0
H495 H 0.196 0.26429 0.31037 0.0
H496 H 0.11513 0.21563 0.24277 0.0
H497 H 0.16676 0.25167 0.24933 0.0
H498 H 0.23657 0.17043 0.27321 0.0
H499 H 0.18532 0.13504 0.26684 0.0
C500 C 0.29751 0.24217 0.29519 0.0
C501 C 0.28714 0.26349 0.32379 0.0
C502 C 0.27121 0.22819 0.27239 0.0
C503 C 0.23409 0.23514 0.27813 0.0
C504 C 0.22428 0.25863 0.30476 0.0
C505 C 0.25062 0.27258 0.32751 0.0
C506 C 0.14194 0.20556 0.24757 0.0
C507 C 0.14639 0.17269 0.25455 0.0
C508 C 0.1714 0.22616 0.25177 0.0
C509 C 0.20571 0.21402 0.26247 0.0
C510 C 0.21073 0.18072 0.26478 0.0
C511 C 0.18132 0.16033 0.26114 0.0
H512 H 0.25823 0.23505 0.76833 0.0
H513 H 0.26799 0.2524 0.88869 0.0
H514 H 0.31744 0.25962 0.75646 0.0
H515 H 0.32686 0.27759 0.87714 0.0
H516 H 0.44347 0.29559 0.85321 0.0
H517 H 0.38832 0.26443 0.85849 0.0
H518 H 0.34671 0.31165 0.75726 0.0
H519 H 0.40271 0.34253 0.75155 0.0
C520 C 0.27324 0.2442 0.7922 0.0
C521 C 0.25901 0.24194 0.82937 0.0
C522 C 0.30696 0.25838 0.78542 0.0
C523 C 0.32703 0.27047 0.81581 0.0
C524 C 0.31248 0.26802 0.85313 0.0
C525 C 0.27874 0.25384 0.85983 0.0
C526 C 0.42284 0.29889 0.83162 0.0
C527 C 0.42722 0.32171 0.80216 0.0
C528 C 0.39107 0.28124 0.83487 0.0
C529 C 0.36268 0.2861 0.80891 0.0
C530 C 0.36805 0.30734 0.7778 0.0
C531 C 0.40016 0.32495 0.77439 0.0
H532 H 0.73299 0.19062 0.70915 0.0
H533 H 0.78611 0.28158 0.70011 0.0
H534 H 0.68469 0.21469 0.74806 0.0
H535 H 0.73768 0.30607 0.73784 0.0
H536 H 0.64549 0.3489 0.79965 0.0
H537 H 0.6993 0.31413 0.79372 0.0
H538 H 0.63752 0.24937 0.72542 0.0
H539 H 0.58457 0.28368 0.73179 0.0
C540 C 0.73489 0.21553 0.71668 0.0
C541 C 0.76304 0.23435 0.7019 0.0
C542 C 0.70715 0.22943 0.73866 0.0
C543 C 0.70689 0.26249 0.74566 0.0
C544 C 0.737 0.28055 0.73348 0.0
C545 C 0.76476 0.26658 0.71171 0.0
C546 C 0.64325 0.32651 0.78484 0.0
C547 C 0.61106 0.31894 0.76602 0.0
C548 C 0.67409 0.30676 0.78104 0.0
C549 C 0.67299 0.27908 0.75864 0.0
C550 C 0.63956 0.27019 0.74317 0.0
C551 C 0.60909 0.28996 0.74666 0.0
H552 H 0.79863 0.28852 0.18817 0.0
H553 H 0.73011 0.22388 0.25206 0.0
H554 H 0.85252 0.26319 0.2162 0.0
H555 H 0.78384 0.19857 0.2806 0.0
H556 H 0.88357 0.13204 0.24678 0.0
H557 H 0.82814 0.16403 0.24781 0.0
H558 H 0.8906 0.24779 0.27274 0.0
H559 H 0.94642 0.21515 0.27212 0.0
C560 C 0.79519 0.2696 0.20928 0.0
C561 C 0.76052 0.25805 0.21812 0.0
C562 C 0.82598 0.25515 0.22549 0.0
C563 C 0.82252 0.2287 0.25052 0.0
C564 C 0.78745 0.21872 0.26124 0.0
C565 C 0.75672 0.23325 0.24509 0.0
C566 C 0.88521 0.157 0.25422 0.0
C567 C 0.91908 0.17116 0.25952 0.0
C568 C 0.85345 0.17542 0.25477 0.0
C569 C 0.85493 0.2086 0.25993 0.0
C570 C 0.88863 0.22234 0.26838 0.0
C571 C 0.92049 0.20365 0.26849 0.0
H572 H 0.84042 0.67841 0.67517 0.0
H573 H 0.73847 0.72865 0.68747 0.0
H574 H 0.86996 0.71775 0.71471 0.0
H575 H 0.76759 0.76791 0.728 0.0
H576 H 0.84963 0.85303 0.71618 0.0
H577 H 0.80878 0.8089 0.70705 0.0
H578 H 0.87949 0.74721 0.77352 0.0
H579 H 0.92087 0.79198 0.7824 0.0
C580 C 0.82411 0.69729 0.68768 0.0
C581 C 0.78738 0.70078 0.67843 0.0
C582 C 0.84093 0.71977 0.71053 0.0
C583 C 0.82125 0.74625 0.7243 0.0
C584 C 0.78363 0.74805 0.71748 0.0
C585 C 0.76688 0.72555 0.69451 0.0
C586 C 0.85584 0.83032 0.72997 0.0
C587 C 0.88863 0.82577 0.7495 0.0
C588 C 0.83227 0.80495 0.72493 0.0
C589 C 0.84106 0.77428 0.73904 0.0
C590 C 0.8722 0.77045 0.76182 0.0
C591 C 0.89573 0.79611 0.76723 0.0
H592 H 0.76115 0.75449 0.13284 0.0
H593 H 0.75564 0.78244 0.25061 0.0
H594 H 0.70465 0.72464 0.14126 0.0
H595 H 0.69883 0.7533 0.2592 0.0
H596 H 0.61916 0.66798 0.26764 0.0
H597 H 0.67456 0.69953 0.26217 0.0
H598 H 0.64066 0.73426 0.15123 0.0
H599 H 0.58598 0.70255 0.15646 0.0
C600 C 0.74762 0.75427 0.16043 0.0
C601 C 0.76232 0.77061 0.19108 0.0
C602 C 0.71524 0.7374 0.16531 0.0
C603 C 0.69707 0.73667 0.20094 0.0
C604 C 0.71223 0.75305 0.23156 0.0
C605 C 0.74456 0.76988 0.22662 0.0
C606 C 0.62329 0.68278 0.2425 0.0
C607 C 0.59827 0.68261 0.21248 0.0
C608 C 0.65508 0.70082 0.23921 0.0
C609 C 0.66236 0.71905 0.20592 0.0
C610 C 0.63644 0.71988 0.17678 0.0
C611 C 0.60492 0.70186 0.18 0.0
H612 H 0.2656 0.8009 0.32068 0.0
H613 H 0.22335 0.70589 0.31093 0.0
H614 H 0.32187 0.78398 0.28861 0.0
H615 H 0.27959 0.68846 0.28003 0.0
H616 H 0.38209 0.66036 0.22324 0.0
H617 H 0.3238 0.68883 0.2288 0.0
H618 H 0.37085 0.75179 0.31106 0.0
H619 H 0.42848 0.72403 0.30478 0.0
C620 C 0.26817 0.77658 0.31083 0.0
C621 C 0.24046 0.75461 0.31809 0.0
C622 C 0.30039 0.76677 0.2927 0.0
C623 C 0.30556 0.73471 0.28196 0.0
C624 C 0.27659 0.71338 0.28731 0.0
C625 C 0.2444 0.72326 0.30525 0.0
C626 C 0.38018 0.68106 0.24132 0.0
C627 C 0.40966 0.68976 0.2639 0.0
C628 C 0.3467 0.69716 0.2449 0.0
C629 C 0.34231 0.72234 0.2709 0.0
C630 C 0.37298 0.73276 0.29059 0.0
C631 C 0.40613 0.71666 0.28716 0.0
H632 H 0.285 0.80457 0.79824 0.0
H633 H 0.24738 0.70755 0.80302 0.0
H634 H 0.22658 0.82239 0.77307 0.0
H635 H 0.18889 0.72497 0.77665 0.0
H636 H 0.08243 0.78029 0.81039 0.0
H637 H 0.14088 0.75347 0.8072 0.0
H638 H 0.17873 0.82477 0.72609 0.0
H639 H 0.11945 0.85203 0.72999 0.0
C640 C 0.26446 0.78694 0.7926 0.0
C641 C 0.27032 0.75482 0.80257 0.0
C642 C 0.23103 0.79707 0.77791 0.0
C643 C 0.20274 0.7752 0.77305 0.0
C644 C 0.20984 0.74255 0.7805 0.0
C645 C 0.24331 0.73248 0.79539 0.0
C646 C 0.10283 0.78961 0.79083 0.0
C647 C 0.09661 0.81831 0.77068 0.0
C648 C 0.13643 0.77413 0.78882 0.0
C649 C 0.16489 0.78713 0.76679 0.0
C650 C 0.15757 0.81437 0.7438 0.0
C651 C 0.12356 0.82981 0.74564 0.0
loop_
_geom_bond_atom_site_label_1
_geom_bond_atom_site_label_2
_geom_bond_distance
_geom_bond_site_symmetry_2
_ccdc_geom_bond_type
H0 C3 0.929 . S
H1 C6 0.929 . S
H2 C8 0.930 . S
C3 H0 0.929 . S
C3 C4 1.398 . S
C3 C5 1.396 . S
C4 C3 1.398 . S
C4 C8 1.407 . S
C5 C3 1.396 . S
C5 C6 1.394 . S
C6 H1 0.929 . S
C6 C5 1.394 . S
C6 C7 1.382 . S
C7 C6 1.382 . S
C7 C8 1.392 . S
C7 N9 1.420 . S
C8 H2 0.930 . S
C8 C4 1.407 . S
C8 C7 1.392 . S
N9 C7 1.420 . S
N9 C10 1.244 . S
C10 N9 1.244 . S
H11 C14 0.929 . S
H12 C17 0.929 . S
H13 C19 0.930 . S
C14 H11 0.929 . S
C14 C15 1.398 . S
C14 C16 1.396 . S
C15 C14 1.398 . S
C15 C19 1.407 . S
C16 C14 1.396 . S
C16 C17 1.394 . S
C17 H12 0.929 . S
C17 C16 1.394 . S
C17 C18 1.382 . S
C18 C17 1.382 . S
C18 C19 1.392 . S
C18 N20 1.420 . S
C19 H13 0.930 . S
C19 C15 1.407 . S
C19 C18 1.392 . S
N20 C18 1.420 . S
N20 C21 1.244 . S
C21 N20 1.244 . S
H22 C25 0.929 . S
H23 C28 0.929 . S
H24 C30 0.930 . S
C25 H22 0.929 . S
C25 C26 1.398 . S
C25 C27 1.396 . S
C26 C25 1.398 . S
C26 C30 1.407 . S
C27 C25 1.396 . S
C27 C28 1.394 . S
C28 H23 0.929 . S
C28 C27 1.394 . S
C28 C29 1.382 . S
C29 C28 1.382 . S
C29 C30 1.392 . S
C29 N31 1.420 . S
C30 H24 0.930 . S
C30 C26 1.407 . S
C30 C29 1.392 . S
N31 C29 1.420 . S
N31 C32 1.244 . S
C32 N31 1.244 . S
H33 C36 0.929 . S
H34 C39 0.929 . S
H35 C41 0.930 . S
C36 H33 0.929 . S
C36 C37 1.398 . S
C36 C38 1.396 . S
C37 C36 1.398 . S
C37 C41 1.407 . S
C38 C36 1.396 . S
C38 C39 1.394 . S
C39 H34 0.929 . S
C39 C38 1.394 . S
C39 C40 1.382 . S
C40 C39 1.382 . S
C40 C41 1.392 . S
C40 N42 1.420 . S
C41 H35 0.930 . S
C41 C37 1.407 . S
C41 C40 1.392 . S
N42 C40 1.420 . S
N42 C43 1.244 . S
C43 N42 1.244 . S
H44 C47 0.929 . S
H45 C50 0.929 . S
H46 C52 0.930 . S
C47 H44 0.929 . S
C47 C48 1.398 . S
C47 C49 1.396 . S
C48 C47 1.398 . S
C48 C52 1.407 . S
C49 C47 1.396 . S
C49 C50 1.394 . S
C50 H45 0.929 . S
C50 C49 1.394 . S
C50 C51 1.382 . S
C51 C50 1.382 . S
C51 C52 1.392 . S
C51 N53 1.420 . S
C52 H46 0.930 . S
C52 C48 1.407 . S
C52 C51 1.392 . S
N53 C51 1.420 . S
N53 C54 1.244 . S
C54 N53 1.244 . S
H55 C58 0.929 . S
H56 C61 0.929 . S
H57 C63 0.930 . S
C58 H55 0.929 . S
C58 C59 1.398 . S
C58 C60 1.396 . S
C59 C58 1.398 . S
C59 C63 1.407 . S
C60 C58 1.396 . S
C60 C61 1.394 . S
C61 H56 0.929 . S
C61 C60 1.394 . S
C61 C62 1.382 . S
C62 C61 1.382 . S
C62 C63 1.392 . S
C62 N64 1.420 . S
C63 H57 0.930 . S
C63 C59 1.407 . S
C63 C62 1.392 . S
N64 C62 1.420 . S
N64 C65 1.244 . S
C65 N64 1.244 . S
H66 C69 0.929 . S
H67 C72 0.929 . S
H68 C74 0.930 . S
C69 H66 0.929 . S
C69 C70 1.398 . S
C69 C71 1.396 . S
C70 C69 1.398 . S
C70 C74 1.407 . S
C71 C69 1.396 . S
C71 C72 1.394 . S
C72 H67 0.929 . S
C72 C71 1.394 . S
C72 C73 1.382 . S
C73 C72 1.382 . S
C73 C74 1.392 . S
C73 N75 1.420 . S
C74 H68 0.930 . S
C74 C70 1.407 . S
C74 C73 1.392 . S
N75 C73 1.420 . S
N75 C76 1.244 . S
C76 N75 1.244 . S
H77 C80 0.929 . S
H78 C83 0.929 . S
H79 C85 0.930 . S
C80 H77 0.929 . S
C80 C81 1.398 . S
C80 C82 1.396 . S
C81 C80 1.398 . S
C81 C85 1.407 . S
C82 C80 1.396 . S
C82 C83 1.394 . S
C83 H78 0.929 . S
C83 C82 1.394 . S
C83 C84 1.382 . S
C84 C83 1.382 . S
C84 C85 1.392 . S
C84 N86 1.420 . S
C85 H79 0.930 . S
C85 C81 1.407 . S
C85 C84 1.392 . S
N86 C84 1.420 . S
N86 C87 1.244 . S
C87 N86 1.244 . S
Zn88 O94 1.920 . S
Zn88 O100 1.898 . S
Zn88 O103 1.905 . S
Zn89 O97 1.905 1_655 S
Zn89 O98 1.898 . S
Zn89 O106 1.920 . S
Zn90 O93 2.080 1_455 S
Zn90 O96 2.114 . S
Zn90 O99 2.120 1_455 S
Zn90 O101 2.120 . S
Zn90 O102 2.114 . S
Zn90 O105 2.080 1_455 S
C91 O96 1.166 . S
C91 O97 1.182 . S
C92 O98 1.167 . S
C92 O99 1.299 . S
O93 Zn90 2.080 1_655 S
O93 C107 1.305 . S
O94 Zn88 1.920 . S
O94 C107 1.234 1_455 S
C95 O100 1.167 . S
C95 O101 1.299 . S
O96 Zn90 2.114 . S
O96 C91 1.166 . S
O97 Zn89 1.905 1_455 S
O97 C91 1.182 . S
O98 Zn89 1.898 . S
O98 C92 1.167 . S
O99 Zn90 2.120 1_655 S
O99 C92 1.299 . S
O100 Zn88 1.898 . S
O100 C95 1.167 . S
O101 Zn90 2.120 . S
O101 C95 1.299 . S
O102 Zn90 2.114 . S
O102 C104 1.166 . S
O103 Zn88 1.905 . S
O103 C104 1.182 . S
C104 O102 1.166 . S
C104 O103 1.182 . S
O105 Zn90 2.080 1_655 S
O105 C108 1.305 . S
O106 Zn89 1.920 . S
O106 C108 1.234 . S
C107 O93 1.305 . S
C107 O94 1.234 1_655 S
C108 O105 1.305 . S
C108 O106 1.234 . S
Zn109 O115 1.920 . S
Zn109 O121 1.898 . S
Zn109 O124 1.905 . S
Zn110 O118 1.905 . S
Zn110 O119 1.898 . S
Zn110 O127 1.920 . S
Zn111 O114 2.080 . S
Zn111 O117 2.114 . S
Zn111 O120 2.120 . S
Zn111 O122 2.120 . S
Zn111 O123 2.114 . S
Zn111 O126 2.080 . S
C112 O117 1.166 . S
C112 O118 1.182 . S
C113 O119 1.167 . S
C113 O120 1.299 . S
O114 Zn111 2.080 . S
O114 C128 1.305 . S
O115 Zn109 1.920 . S
O115 C128 1.234 . S
C116 O121 1.167 . S
C116 O122 1.299 . S
O117 Zn111 2.114 . S
O117 C112 1.166 . S
O118 Zn110 1.905 . S
O118 C112 1.182 . S
O119 Zn110 1.898 . S
O119 C113 1.167 . S
O120 Zn111 2.120 . S
O120 C113 1.299 . S
O121 Zn109 1.898 . S
O121 C116 1.167 . S
O122 Zn111 2.120 . S
O122 C116 1.299 . S
O123 Zn111 2.114 . S
O123 C125 1.166 . S
O124 Zn109 1.905 . S
O124 C125 1.182 . S
C125 O123 1.166 . S
C125 O124 1.182 . S
O126 Zn111 2.080 . S
O126 C129 1.305 . S
O127 Zn110 1.920 . S
O127 C129 1.234 . S
C128 O114 1.305 . S
C128 O115 1.234 . S
C129 O126 1.305 . S
C129 O127 1.234 . S
Zn130 O136 1.920 . S
Zn130 O142 1.898 . S
Zn130 O145 1.905 1_455 S
Zn131 O139 1.905 . S
Zn131 O140 1.898 . S
Zn131 O148 1.920 1_655 S
Zn132 O135 2.080 . S
Zn132 O138 2.114 1_455 S
Zn132 O141 2.120 1_455 S
Zn132 O143 2.120 . S
Zn132 O144 2.114 1_455 S
Zn132 O147 2.080 . S
C133 O138 1.166 . S
C133 O139 1.182 . S
C134 O140 1.167 . S
C134 O141 1.299 . S
O135 Zn132 2.080 . S
O135 C149 1.305 . S
O136 Zn130 1.920 . S
O136 C149 1.234 . S
C137 O142 1.167 . S
C137 O143 1.299 . S
O138 Zn132 2.114 1_655 S
O138 C133 1.166 . S
O139 Zn131 1.905 . S
O139 C133 1.182 . S
O140 Zn131 1.898 . S
O140 C134 1.167 . S
O141 Zn132 2.120 1_655 S
O141 C134 1.299 . S
O142 Zn130 1.898 . S
O142 C137 1.167 . S
O143 Zn132 2.120 . S
O143 C137 1.299 . S
O144 Zn132 2.114 1_655 S
O144 C146 1.166 . S
O145 Zn130 1.905 1_655 S
O145 C146 1.182 . S
C146 O144 1.166 . S
C146 O145 1.182 . S
O147 Zn132 2.080 . S
O147 C150 1.305 . S
O148 Zn131 1.920 1_455 S
O148 C150 1.234 . S
C149 O135 1.305 . S
C149 O136 1.234 . S
C150 O147 1.305 . S
C150 O148 1.234 . S
Zn151 O157 1.920 . S
Zn151 O163 1.898 . S
Zn151 O166 1.905 . S
Zn152 O160 1.905 . S
Zn152 O161 1.898 . S
Zn152 O169 1.920 . S
Zn153 O156 2.080 . S
Zn153 O159 2.114 . S
Zn153 O162 2.120 . S
Zn153 O164 2.120 . S
Zn153 O165 2.114 . S
Zn153 O168 2.080 . S
C154 O159 1.166 . S
C154 O160 1.182 . S
C155 O161 1.167 . S
C155 O162 1.299 . S
O156 Zn153 2.080 . S
O156 C170 1.305 . S
O157 Zn151 1.920 . S
O157 C170 1.234 . S
C158 O163 1.167 . S
C158 O164 1.299 . S
O159 Zn153 2.114 . S
O159 C154 1.166 . S
O160 Zn152 1.905 . S
O160 C154 1.182 . S
O161 Zn152 1.898 . S
O161 C155 1.167 . S
O162 Zn153 2.120 . S
O162 C155 1.299 . S
O163 Zn151 1.898 . S
O163 C158 1.167 . S
O164 Zn153 2.120 . S
O164 C158 1.299 . S
O165 Zn153 2.114 . S
O165 C167 1.166 . S
O166 Zn151 1.905 . S
O166 C167 1.182 . S
C167 O165 1.166 . S
C167 O166 1.182 . S
O168 Zn153 2.080 . S
O168 C171 1.305 . S
O169 Zn152 1.920 . S
O169 C171 1.234 . S
C170 O156 1.305 . S
C170 O157 1.234 . S
C171 O168 1.305 . S
C171 O169 1.234 . S
H172 C180 0.950 . S
H173 C185 0.950 . S
H174 C182 0.950 . S
H175 C184 0.950 . S
H176 C186 0.950 . S
H177 C188 0.950 . S
H178 C190 0.950 . S
H179 C191 0.950 . S
C180 H172 0.950 . S
C180 C181 1.386 . S
C180 C182 1.391 . S
C181 C180 1.386 . S
C181 C185 1.393 . S
C182 H174 0.950 . S
C182 C180 1.391 . S
C182 C183 1.400 . S
C183 C182 1.400 . S
C183 C184 1.398 . S
C183 C189 1.491 . S
C184 H175 0.950 . S
C184 C183 1.398 . S
C184 C185 1.391 . S
C185 H173 0.950 . S
C185 C181 1.393 . S
C185 C184 1.391 . S
C186 H176 0.950 . S
C186 C187 1.386 . S
C186 C188 1.391 . S
C187 C186 1.386 . S
C187 C191 1.393 . S
C188 H177 0.950 . S
C188 C186 1.391 . S
C188 C189 1.400 1_545 S
C189 C183 1.491 . S
C189 C188 1.400 1_565 S
C189 C190 1.398 . S
C190 H178 0.950 . S
C190 C189 1.398 . S
C190 C191 1.391 1_565 S
C191 H179 0.950 . S
C191 C187 1.393 . S
C191 C190 1.391 1_545 S
H192 C200 0.950 . S
H193 C205 0.950 . S
H194 C202 0.950 . S
H195 C204 0.950 . S
H196 C206 0.950 . S
H197 C208 0.950 . S
H198 C210 0.950 . S
H199 C211 0.950 . S
C200 H192 0.950 . S
C200 C201 1.386 . S
C200 C202 1.391 . S
C201 C200 1.386 . S
C201 C205 1.393 . S
C202 H194 0.950 . S
C202 C200 1.391 . S
C202 C203 1.400 . S
C203 C202 1.400 . S
C203 C204 1.398 . S
C203 C209 1.491 . S
C204 H195 0.950 . S
C204 C203 1.398 . S
C204 C205 1.391 . S
C205 H193 0.950 . S
C205 C201 1.393 . S
C205 C204 1.391 . S
C206 H196 0.950 . S
C206 C207 1.386 . S
C206 C208 1.391 . S
C207 C206 1.386 . S
C207 C211 1.393 . S
C208 H197 0.950 . S
C208 C206 1.391 . S
C208 C209 1.400 . S
C209 C203 1.491 . S
C209 C208 1.400 . S
C209 C210 1.398 . S
C210 H198 0.950 . S
C210 C209 1.398 . S
C210 C211 1.391 . S
C211 H199 0.950 . S
C211 C207 1.393 . S
C211 C210 1.391 . S
H212 C220 0.950 . S
H213 C225 0.950 . S
H214 C222 0.950 . S
H215 C224 0.950 . S
H216 C226 0.950 . S
H217 C228 0.950 . S
H218 C230 0.950 . S
H219 C231 0.950 . S
C220 H212 0.950 . S
C220 C221 1.386 . S
C220 C222 1.391 . S
C221 C220 1.386 . S
C221 C225 1.393 . S
C222 H214 0.950 . S
C222 C220 1.391 . S
C222 C223 1.400 . S
C223 C222 1.400 . S
C223 C224 1.398 . S
C223 C229 1.491 . S
C224 H215 0.950 . S
C224 C223 1.398 . S
C224 C225 1.391 . S
C225 H213 0.950 . S
C225 C221 1.393 . S
C225 C224 1.391 . S
C226 H216 0.950 . S
C226 C227 1.386 . S
C226 C228 1.391 . S
C227 C226 1.386 . S
C227 C231 1.393 . S
C228 H217 0.950 . S
C228 C226 1.391 . S
C228 C229 1.400 . S
C229 C223 1.491 . S
C229 C228 1.400 . S
C229 C230 1.398 . S
C230 H218 0.950 . S
C230 C229 1.398 . S
C230 C231 1.391 . S
C231 H219 0.950 . S
C231 C227 1.393 . S
C231 C230 1.391 . S
H232 C240 0.950 . S
H233 C245 0.950 . S
H234 C242 0.950 . S
H235 C244 0.950 . S
H236 C246 0.950 . S
H237 C248 0.950 . S
H238 C250 0.950 . S
H239 C251 0.950 . S
C240 H232 0.950 . S
C240 C241 1.386 . S
C240 C242 1.391 . S
C241 C240 1.386 . S
C241 C245 1.393 . S
C242 H234 0.950 . S
C242 C240 1.391 . S
C242 C243 1.400 . S
C243 C242 1.400 . S
C243 C244 1.398 . S
C243 C249 1.491 . S
C244 H235 0.950 . S
C244 C243 1.398 . S
C244 C245 1.391 . S
C245 H233 0.950 . S
C245 C241 1.393 . S
C245 C244 1.391 . S
C246 H236 0.950 . S
C246 C247 1.386 . S
C246 C248 1.391 1_545 S
C247 C246 1.386 . S
C247 C251 1.393 . S
C248 H237 0.950 . S
C248 C246 1.391 1_565 S
C248 C249 1.400 . S
C249 C243 1.491 . S
C249 C248 1.400 . S
C249 C250 1.398 1_565 S
C250 H238 0.950 . S
C250 C249 1.398 1_545 S
C250 C251 1.391 . S
C251 H239 0.950 . S
C251 C247 1.393 . S
C251 C250 1.391 . S
H252 C260 0.950 . S
H253 C265 0.950 . S
H254 C262 0.950 . S
H255 C264 0.950 . S
H256 C266 0.950 . S
H257 C268 0.950 . S
H258 C270 0.950 . S
H259 C271 0.950 . S
C260 H252 0.950 . S
C260 C261 1.386 . S
C260 C262 1.391 . S
C261 C260 1.386 . S
C261 C265 1.393 . S
C262 H254 0.950 . S
C262 C260 1.391 . S
C262 C263 1.400 . S
C263 C262 1.400 . S
C263 C264 1.398 . S
C263 C269 1.491 . S
C264 H255 0.950 . S
C264 C263 1.398 . S
C264 C265 1.391 . S
C265 H253 0.950 . S
C265 C261 1.393 . S
C265 C264 1.391 . S
C266 H256 0.950 . S
C266 C267 1.385 1_545 S
C266 C268 1.392 . S
C267 C266 1.385 1_565 S
C267 C271 1.393 . S
C268 H257 0.950 . S
C268 C266 1.392 . S
C268 C269 1.400 . S
C269 C263 1.491 . S
C269 C268 1.400 . S
C269 C270 1.398 1_545 S
C270 H258 0.950 . S
C270 C269 1.398 1_565 S
C270 C271 1.391 . S
C271 H259 0.950 . S
C271 C267 1.393 . S
C271 C270 1.391 . S
H272 C280 0.950 . S
H273 C285 0.950 . S
H274 C282 0.950 . S
H275 C284 0.950 . S
H276 C286 0.950 . S
H277 C288 0.950 . S
H278 C290 0.950 . S
H279 C291 0.950 . S
C280 H272 0.950 . S
C280 C281 1.386 . S
C280 C282 1.391 . S
C281 C280 1.386 . S
C281 C285 1.393 . S
C282 H274 0.950 . S
C282 C280 1.391 . S
C282 C283 1.400 . S
C283 C282 1.400 . S
C283 C284 1.398 . S
C283 C289 1.491 . S
C284 H275 0.950 . S
C284 C283 1.398 . S
C284 C285 1.391 . S
C285 H273 0.950 . S
C285 C281 1.393 . S
C285 C284 1.391 . S
C286 H276 0.950 . S
C286 C287 1.386 . S
C286 C288 1.391 . S
C287 C286 1.386 . S
C287 C291 1.393 . S
C288 H277 0.950 . S
C288 C286 1.391 . S
C288 C289 1.400 . S
C289 C283 1.491 . S
C289 C288 1.400 . S
C289 C290 1.398 . S
C290 H278 0.950 . S
C290 C289 1.398 . S
C290 C291 1.391 . S
C291 H279 0.950 . S
C291 C287 1.393 . S
C291 C290 1.391 . S
H292 C300 0.950 . S
H293 C305 0.950 . S
H294 C302 0.950 . S
H295 C304 0.950 . S
H296 C306 0.950 . S
H297 C308 0.950 . S
H298 C310 0.950 . S
H299 C311 0.950 . S
C300 H292 0.950 . S
C300 C301 1.386 . S
C300 C302 1.391 . S
C301 C300 1.386 . S
C301 C305 1.393 . S
C302 H294 0.950 . S
C302 C300 1.391 . S
C302 C303 1.400 . S
C303 C302 1.400 . S
C303 C304 1.398 . S
C303 C309 1.491 . S
C304 H295 0.950 . S
C304 C303 1.398 . S
C304 C305 1.391 . S
C305 H293 0.950 . S
C305 C301 1.393 . S
C305 C304 1.391 . S
C306 H296 0.950 . S
C306 C307 1.386 . S
C306 C308 1.391 . S
C307 C306 1.386 . S
C307 C311 1.393 . S
C308 H297 0.950 . S
C308 C306 1.391 . S
C308 C309 1.400 . S
C309 C303 1.491 . S
C309 C308 1.400 . S
C309 C310 1.398 . S
C310 H298 0.950 . S
C310 C309 1.398 . S
C310 C311 1.391 . S
C311 H299 0.950 . S
C311 C307 1.393 . S
C311 C310 1.391 . S
H312 C320 0.950 . S
H313 C325 0.950 . S
H314 C322 0.950 . S
H315 C324 0.950 . S
H316 C326 0.950 . S
H317 C328 0.950 . S
H318 C330 0.950 . S
H319 C331 0.950 . S
C320 H312 0.950 . S
C320 C321 1.386 . S
C320 C322 1.391 . S
C321 C320 1.386 . S
C321 C325 1.393 . S
C322 H314 0.950 . S
C322 C320 1.391 . S
C322 C323 1.400 . S
C323 C322 1.400 . S
C323 C324 1.398 . S
C323 C329 1.491 . S
C324 H315 0.950 . S
C324 C323 1.398 . S
C324 C325 1.391 . S
C325 H313 0.950 . S
C325 C321 1.393 . S
C325 C324 1.391 . S
C326 H316 0.950 . S
C326 C327 1.386 . S
C326 C328 1.391 1_565 S
C327 C326 1.386 . S
C327 C331 1.393 . S
C328 H317 0.950 . S
C328 C326 1.391 1_545 S
C328 C329 1.400 . S
C329 C323 1.491 . S
C329 C328 1.400 . S
C329 C330 1.398 . S
C330 H318 0.950 . S
C330 C329 1.398 . S
C330 C331 1.391 1_545 S
C331 H319 0.950 . S
C331 C327 1.393 . S
C331 C330 1.391 1_565 S
H332 C340 0.950 . S
H333 C345 0.950 . S
H334 C342 0.950 . S
H335 C344 0.950 . S
H336 C346 0.950 . S
H337 C348 0.950 . S
H338 C350 0.950 . S
H339 C351 0.950 . S
C340 H332 0.950 . S
C340 C341 1.386 1_554 S
C340 C342 1.391 . S
C341 C340 1.386 1_556 S
C341 C345 1.393 . S
C342 H334 0.950 . S
C342 C340 1.391 . S
C342 C343 1.400 . S
C343 C342 1.400 . S
C343 C344 1.398 . S
C343 C349 1.491 . S
C344 H335 0.950 . S
C344 C343 1.398 . S
C344 C345 1.391 1_554 S
C345 H333 0.950 . S
C345 C341 1.393 . S
C345 C344 1.391 1_556 S
C346 H336 0.950 . S
C346 C347 1.386 . S
C346 C348 1.391 . S
C347 C346 1.386 . S
C347 C351 1.393 . S
C348 H337 0.950 . S
C348 C346 1.391 . S
C348 C349 1.400 . S
C349 C343 1.491 . S
C349 C348 1.400 . S
C349 C350 1.398 . S
C350 H338 0.950 . S
C350 C349 1.398 . S
C350 C351 1.391 . S
C351 H339 0.950 . S
C351 C347 1.393 . S
C351 C350 1.391 . S
H352 C360 0.950 . S
H353 C365 0.950 . S
H354 C362 0.950 . S
H355 C364 0.950 . S
H356 C366 0.950 . S
H357 C368 0.950 . S
H358 C370 0.950 . S
H359 C371 0.950 . S
C360 H352 0.950 . S
C360 C361 1.386 . S
C360 C362 1.391 . S
C361 C360 1.386 . S
C361 C365 1.393 . S
C362 H354 0.950 . S
C362 C360 1.391 . S
C362 C363 1.400 . S
C363 C362 1.400 . S
C363 C364 1.398 . S
C363 C369 1.491 . S
C364 H355 0.950 . S
C364 C363 1.398 . S
C364 C365 1.391 . S
C365 H353 0.950 . S
C365 C361 1.393 . S
C365 C364 1.391 . S
C366 H356 0.950 . S
C366 C367 1.386 . S
C366 C368 1.391 . S
C367 C366 1.386 . S
C367 C371 1.393 . S
C368 H357 0.950 . S
C368 C366 1.391 . S
C368 C369 1.400 . S
C369 C363 1.491 . S
C369 C368 1.400 . S
C369 C370 1.398 . S
C370 H358 0.950 . S
C370 C369 1.398 . S
C370 C371 1.391 . S
C371 H359 0.950 . S
C371 C367 1.393 . S
C371 C370 1.391 . S
H372 C380 0.950 . S
H373 C385 0.950 . S
H374 C382 0.950 . S
H375 C384 0.950 . S
H376 C386 0.950 . S
H377 C388 0.950 . S
H378 C390 0.950 . S
H379 C391 0.950 . S
C380 H372 0.950 . S
C380 C381 1.386 . S
C380 C382 1.391 1_554 S
C381 C380 1.386 . S
C381 C385 1.393 . S
C382 H374 0.950 . S
C382 C380 1.391 1_556 S
C382 C383 1.400 . S
C383 C382 1.400 . S
C383 C384 1.398 . S
C383 C389 1.491 . S
C384 H375 0.950 . S
C384 C383 1.398 . S
C384 C385 1.391 1_556 S
C385 H373 0.950 . S
C385 C381 1.393 . S
C385 C384 1.391 1_554 S
C386 H376 0.950 . S
C386 C387 1.386 . S
C386 C388 1.391 . S
C387 C386 1.386 . S
C387 C391 1.393 . S
C388 H377 0.950 . S
C388 C386 1.391 . S
C388 C389 1.400 . S
C389 C383 1.491 . S
C389 C388 1.400 . S
C389 C390 1.398 . S
C390 H378 0.950 . S
C390 C389 1.398 . S
C390 C391 1.391 . S
C391 H379 0.950 . S
C391 C387 1.393 . S
C391 C390 1.391 . S
H392 C400 0.950 . S
H393 C405 0.950 . S
H394 C402 0.950 . S
H395 C404 0.950 . S
H396 C406 0.950 . S
H397 C408 0.950 . S
H398 C410 0.950 . S
H399 C411 0.950 . S
C400 H392 0.950 . S
C400 C401 1.386 . S
C400 C402 1.391 . S
C401 C400 1.386 . S
C401 C405 1.393 . S
C402 H394 0.950 . S
C402 C400 1.391 . S
C402 C403 1.400 . S
C403 C402 1.400 . S
C403 C404 1.398 . S
C403 C409 1.491 . S
C404 H395 0.950 . S
C404 C403 1.398 . S
C404 C405 1.391 . S
C405 H393 0.950 . S
C405 C401 1.393 . S
C405 C404 1.391 . S
C406 H396 0.950 . S
C406 C407 1.386 . S
C406 C408 1.391 . S
C407 C406 1.386 . S
C407 C411 1.393 . S
C408 H397 0.950 . S
C408 C406 1.391 . S
C408 C409 1.400 . S
C409 C403 1.491 . S
C409 C408 1.400 . S
C409 C410 1.398 . S
C410 H398 0.950 . S
C410 C409 1.398 . S
C410 C411 1.391 . S
C411 H399 0.950 . S
C411 C407 1.393 . S
C411 C410 1.391 . S
H412 C420 0.950 . S
H413 C425 0.950 . S
H414 C422 0.950 . S
H415 C424 0.950 . S
H416 C426 0.950 . S
H417 C428 0.950 . S
H418 C430 0.950 . S
H419 C431 0.950 . S
C420 H412 0.950 . S
C420 C421 1.386 . S
C420 C422 1.391 1_554 S
C421 C420 1.386 . S
C421 C425 1.393 . S
C422 H414 0.950 . S
C422 C420 1.391 1_556 S
C422 C423 1.400 . S
C423 C422 1.400 . S
C423 C424 1.398 . S
C423 C429 1.491 . S
C424 H415 0.950 . S
C424 C423 1.398 . S
C424 C425 1.391 1_556 S
C425 H413 0.950 . S
C425 C421 1.393 . S
C425 C424 1.391 1_554 S
C426 H416 0.950 . S
C426 C427 1.386 . S
C426 C428 1.391 . S
C427 C426 1.386 . S
C427 C431 1.393 . S
C428 H417 0.950 . S
C428 C426 1.391 . S
C428 C429 1.400 . S
C429 C423 1.491 . S
C429 C428 1.400 . S
C429 C430 1.398 . S
C430 H418 0.950 . S
C430 C429 1.398 . S
C430 C431 1.391 . S
C431 H419 0.950 . S
C431 C427 1.393 . S
C431 C430 1.391 . S
H432 C440 0.950 . S
H433 C445 0.950 . S
H434 C442 0.950 . S
H435 C444 0.950 . S
H436 C446 0.950 . S
H437 C448 0.950 . S
H438 C450 0.950 . S
H439 C451 0.950 . S
C440 H432 0.950 . S
C440 C441 1.386 . S
C440 C442 1.391 . S
C441 C440 1.386 . S
C441 C445 1.393 . S
C442 H434 0.950 . S
C442 C440 1.391 . S
C442 C443 1.400 . S
C443 C442 1.400 . S
C443 C444 1.398 . S
C443 C449 1.491 . S
C444 H435 0.950 . S
C444 C443 1.398 . S
C444 C445 1.391 . S
C445 H433 0.950 . S
C445 C441 1.393 . S
C445 C444 1.391 . S
C446 H436 0.950 . S
C446 C447 1.386 . S
C446 C448 1.391 . S
C447 C446 1.386 . S
C447 C451 1.393 . S
C448 H437 0.950 . S
C448 C446 1.391 . S
C448 C449 1.400 . S
C449 C443 1.491 . S
C449 C448 1.400 . S
C449 C450 1.398 . S
C450 H438 0.950 . S
C450 C449 1.398 . S
C450 C451 1.391 . S
C451 H439 0.950 . S
C451 C447 1.393 . S
C451 C450 1.391 . S
H452 C460 0.950 . S
H453 C465 0.950 . S
H454 C462 0.950 . S
H455 C464 0.950 . S
H456 C466 0.950 . S
H457 C468 0.950 . S
H458 C470 0.950 . S
H459 C471 0.950 . S
C460 H452 0.950 . S
C460 C461 1.386 . S
C460 C462 1.391 1_556 S
C461 C460 1.386 . S
C461 C465 1.393 . S
C462 H454 0.950 . S
C462 C460 1.391 1_554 S
C462 C463 1.400 . S
C463 C462 1.400 . S
C463 C464 1.398 . S
C463 C469 1.491 . S
C464 H455 0.950 . S
C464 C463 1.398 . S
C464 C465 1.391 1_554 S
C465 H453 0.950 . S
C465 C461 1.393 . S
C465 C464 1.391 1_556 S
C466 H456 0.950 . S
C466 C467 1.386 . S
C466 C468 1.391 . S
C467 C466 1.386 . S
C467 C471 1.393 . S
C468 H457 0.950 . S
C468 C466 1.391 . S
C468 C469 1.400 . S
C469 C463 1.491 . S
C469 C468 1.400 . S
C469 C470 1.398 . S
C470 H458 0.950 . S
C470 C469 1.398 . S
C470 C471 1.391 . S
C471 H459 0.950 . S
C471 C467 1.393 . S
C471 C470 1.391 . S
H472 C480 0.950 . S
H473 C485 0.950 . S
H474 C482 0.950 . S
H475 C484 0.950 . S
H476 C486 0.950 . S
H477 C488 0.950 . S
H478 C490 0.950 . S
H479 C491 0.950 . S
C480 H472 0.950 . S
C480 C481 1.386 . S
C480 C482 1.391 . S
C481 C480 1.386 . S
C481 C485 1.393 . S
C482 H474 0.950 . S
C482 C480 1.391 . S
C482 C483 1.400 . S
C483 C482 1.400 . S
C483 C484 1.398 . S
C483 C489 1.491 . S
C484 H475 0.950 . S
C484 C483 1.398 . S
C484 C485 1.391 . S
C485 H473 0.950 . S
C485 C481 1.393 . S
C485 C484 1.391 . S
C486 H476 0.950 . S
C486 C487 1.386 . S
C486 C488 1.391 . S
C487 C486 1.386 . S
C487 C491 1.393 . S
C488 H477 0.950 . S
C488 C486 1.391 . S
C488 C489 1.400 . S
C489 C483 1.491 . S
C489 C488 1.400 . S
C489 C490 1.398 . S
C490 H478 0.950 . S
C490 C489 1.398 . S
C490 C491 1.391 . S
C491 H479 0.950 . S
C491 C487 1.393 . S
C491 C490 1.391 . S
H492 C500 0.950 . S
H493 C505 0.950 . S
H494 C502 0.950 . S
H495 C504 0.950 . S
H496 C506 0.950 . S
H497 C508 0.950 . S
H498 C510 0.950 . S
H499 C511 0.950 . S
C500 H492 0.950 . S
C500 C501 1.386 . S
C500 C502 1.391 . S
C501 C500 1.386 . S
C501 C505 1.393 . S
C502 H494 0.950 . S
C502 C500 1.391 . S
C502 C503 1.400 . S
C503 C502 1.400 . S
C503 C504 1.398 . S
C503 C509 1.491 . S
C504 H495 0.950 . S
C504 C503 1.398 . S
C504 C505 1.391 . S
C505 H493 0.950 . S
C505 C501 1.393 . S
C505 C504 1.391 . S
C506 H496 0.950 . S
C506 C507 1.386 . S
C506 C508 1.391 . S
C507 C506 1.386 . S
C507 C511 1.393 . S
C508 H497 0.950 . S
C508 C506 1.391 . S
C508 C509 1.400 . S
C509 C503 1.491 . S
C509 C508 1.400 . S
C509 C510 1.398 . S
C510 H498 0.950 . S
C510 C509 1.398 . S
C510 C511 1.391 . S
C511 H499 0.950 . S
C511 C507 1.393 . S
C511 C510 1.391 . S
H512 C520 0.950 . S
H513 C525 0.950 . S
H514 C522 0.950 . S
H515 C524 0.950 . S
H516 C526 0.950 . S
H517 C528 0.950 . S
H518 C530 0.950 . S
H519 C531 0.950 . S
C520 H512 0.950 . S
C520 C521 1.386 . S
C520 C522 1.391 . S
C521 C520 1.386 . S
C521 C525 1.393 . S
C522 H514 0.950 . S
C522 C520 1.391 . S
C522 C523 1.400 . S
C523 C522 1.400 . S
C523 C524 1.398 . S
C523 C529 1.491 . S
C524 H515 0.950 . S
C524 C523 1.398 . S
C524 C525 1.391 . S
C525 H513 0.950 . S
C525 C521 1.393 . S
C525 C524 1.391 . S
C526 H516 0.950 . S
C526 C527 1.386 . S
C526 C528 1.391 . S
C527 C526 1.386 . S
C527 C531 1.393 . S
C528 H517 0.950 . S
C528 C526 1.391 . S
C528 C529 1.400 . S
C529 C523 1.491 . S
C529 C528 1.400 . S
C529 C530 1.398 . S
C530 H518 0.950 . S
C530 C529 1.398 . S
C530 C531 1.391 . S
C531 H519 0.950 . S
C531 C527 1.393 . S
C531 C530 1.391 . S
H532 C540 0.950 . S
H533 C545 0.950 . S
H534 C542 0.950 . S
H535 C544 0.950 . S
H536 C546 0.950 . S
H537 C548 0.950 . S
H538 C550 0.950 . S
H539 C551 0.950 . S
C540 H532 0.950 . S
C540 C541 1.386 . S
C540 C542 1.391 . S
C541 C540 1.386 . S
C541 C545 1.393 . S
C542 H534 0.950 . S
C542 C540 1.391 . S
C542 C543 1.400 . S
C543 C542 1.400 . S
C543 C544 1.398 . S
C543 C549 1.491 . S
C544 H535 0.950 . S
C544 C543 1.398 . S
C544 C545 1.391 . S
C545 H533 0.950 . S
C545 C541 1.393 . S
C545 C544 1.391 . S
C546 H536 0.950 . S
C546 C547 1.386 . S
C546 C548 1.391 . S
C547 C546 1.386 . S
C547 C551 1.393 . S
C548 H537 0.950 . S
C548 C546 1.391 . S
C548 C549 1.400 . S
C549 C543 1.491 . S
C549 C548 1.400 . S
C549 C550 1.398 . S
C550 H538 0.950 . S
C550 C549 1.398 . S
C550 C551 1.391 . S
C551 H539 0.950 . S
C551 C547 1.393 . S
C551 C550 1.391 . S
H552 C560 0.950 . S
H553 C565 0.950 . S
H554 C562 0.950 . S
H555 C564 0.950 . S
H556 C566 0.950 . S
H557 C568 0.950 . S
H558 C570 0.950 . S
H559 C571 0.950 . S
C560 H552 0.950 . S
C560 C561 1.386 . S
C560 C562 1.391 . S
C561 C560 1.386 . S
C561 C565 1.393 . S
C562 H554 0.950 . S
C562 C560 1.391 . S
C562 C563 1.400 . S
C563 C562 1.400 . S
C563 C564 1.398 . S
C563 C569 1.491 . S
C564 H555 0.950 . S
C564 C563 1.398 . S
C564 C565 1.391 . S
C565 H553 0.950 . S
C565 C561 1.393 . S
C565 C564 1.391 . S
C566 H556 0.950 . S
C566 C567 1.386 . S
C566 C568 1.391 . S
C567 C566 1.386 . S
C567 C571 1.393 . S
C568 H557 0.950 . S
C568 C566 1.391 . S
C568 C569 1.400 . S
C569 C563 1.491 . S
C569 C568 1.400 . S
C569 C570 1.398 . S
C570 H558 0.950 . S
C570 C569 1.398 . S
C570 C571 1.391 . S
C571 H559 0.950 . S
C571 C567 1.393 . S
C571 C570 1.391 . S
H572 C580 0.950 . S
H573 C585 0.950 . S
H574 C582 0.950 . S
H575 C584 0.950 . S
H576 C586 0.950 . S
H577 C588 0.950 . S
H578 C590 0.950 . S
H579 C591 0.950 . S
C580 H572 0.950 . S
C580 C581 1.386 . S
C580 C582 1.391 . S
C581 C580 1.386 . S
C581 C585 1.393 . S
C582 H574 0.950 . S
C582 C580 1.391 . S
C582 C583 1.400 . S
C583 C582 1.400 . S
C583 C584 1.398 . S
C583 C589 1.491 . S
C584 H575 0.950 . S
C584 C583 1.398 . S
C584 C585 1.391 . S
C585 H573 0.950 . S
C585 C581 1.393 . S
C585 C584 1.391 . S
C586 H576 0.950 . S
C586 C587 1.386 . S
C586 C588 1.391 . S
C587 C586 1.386 . S
C587 C591 1.393 . S
C588 H577 0.950 . S
C588 C586 1.391 . S
C588 C589 1.400 . S
C589 C583 1.491 . S
C589 C588 1.400 . S
C589 C590 1.398 . S
C590 H578 0.950 . S
C590 C589 1.398 . S
C590 C591 1.391 . S
C591 H579 0.950 . S
C591 C587 1.393 . S
C591 C590 1.391 . S
H592 C600 0.950 . S
H593 C605 0.950 . S
H594 C602 0.950 . S
H595 C604 0.950 . S
H596 C606 0.950 . S
H597 C608 0.950 . S
H598 C610 0.950 . S
H599 C611 0.950 . S
C600 H592 0.950 . S
C600 C601 1.386 . S
C600 C602 1.391 . S
C601 C600 1.386 . S
C601 C605 1.393 . S
C602 H594 0.950 . S
C602 C600 1.391 . S
C602 C603 1.400 . S
C603 C602 1.400 . S
C603 C604 1.398 . S
C603 C609 1.491 . S
C604 H595 0.950 . S
C604 C603 1.398 . S
C604 C605 1.391 . S
C605 H593 0.950 . S
C605 C601 1.393 . S
C605 C604 1.391 . S
C606 H596 0.950 . S
C606 C607 1.386 . S
C606 C608 1.391 . S
C607 C606 1.386 . S
C607 C611 1.393 . S
C608 H597 0.950 . S
C608 C606 1.391 . S
C608 C609 1.400 . S
C609 C603 1.491 . S
C609 C608 1.400 . S
C609 C610 1.398 . S
C610 H598 0.950 . S
C610 C609 1.398 . S
C610 C611 1.391 . S
C611 H599 0.950 . S
C611 C607 1.393 . S
C611 C610 1.391 . S
H612 C620 0.950 . S
H613 C625 0.950 . S
H614 C622 0.950 . S
H615 C624 0.950 . S
H616 C626 0.950 . S
H617 C628 0.950 . S
H618 C630 0.950 . S
H619 C631 0.950 . S
C620 H612 0.950 . S
C620 C621 1.386 . S
C620 C622 1.391 . S
C621 C620 1.386 . S
C621 C625 1.393 . S
C622 H614 0.950 . S
C622 C620 1.391 . S
C622 C623 1.400 . S
C623 C622 1.400 . S
C623 C624 1.398 . S
C623 C629 1.491 . S
C624 H615 0.950 . S
C624 C623 1.398 . S
C624 C625 1.391 . S
C625 H613 0.950 . S
C625 C621 1.393 . S
C625 C624 1.391 . S
C626 H616 0.950 . S
C626 C627 1.386 . S
C626 C628 1.391 . S
C627 C626 1.386 . S
C627 C631 1.393 . S
C628 H617 0.950 . S
C628 C626 1.391 . S
C628 C629 1.400 . S
C629 C623 1.491 . S
C629 C628 1.400 . S
C629 C630 1.398 . S
C630 H618 0.950 . S
C630 C629 1.398 . S
C630 C631 1.391 . S
C631 H619 0.950 . S
C631 C627 1.393 . S
C631 C630 1.391 . S
H632 C640 0.950 . S
H633 C645 0.950 . S
H634 C642 0.950 . S
H635 C644 0.950 . S
H636 C646 0.950 . S
H637 C648 0.950 . S
H638 C650 0.950 . S
H639 C651 0.950 . S
C640 H632 0.950 . S
C640 C641 1.386 . S
C640 C642 1.391 . S
C641 C640 1.386 . S
C641 C645 1.393 . S
C642 H634 0.950 . S
C642 C640 1.391 . S
C642 C643 1.400 . S
C643 C642 1.400 . S
C643 C644 1.398 . S
C643 C649 1.491 . S
C644 H635 0.950 . S
C644 C643 1.398 . S
C644 C645 1.391 . S
C645 H633 0.950 . S
C645 C641 1.393 . S
C645 C644 1.391 . S
C646 H636 0.950 . S
C646 C647 1.386 . S
C646 C648 1.391 . S
C647 C646 1.386 . S
C647 C651 1.393 . S
C648 H637 0.950 . S
C648 C646 1.391 . S
C648 C649 1.400 . S
C649 C643 1.491 . S
C649 C648 1.400 . S
C649 C650 1.398 . S
C650 H638 0.950 . S
C650 C649 1.398 . S
C650 C651 1.391 . S
C651 H639 0.950 . S
C651 C647 1.393 . S
C651 C650 1.391 . S
C181 C71 1.424 . S
C187 C104 1.377 . S
C207 C112 1.299 . S
C201 C81 1.360 . S
C227 C116 1.380 . S
C221 C49 1.429 . S
C241 C59 1.368 . S
C247 C92 1.264 . S
C267 C133 1.354 . S
C261 C27 1.400 . S
C287 C167 1.400 . S
C281 C38 1.436 . S
C301 C5 1.421 . S
C307 C155 1.330 . S
C321 C16 1.449 . S
C327 C137 1.360 . S
C347 C91 1.294 . S
C341 C15 1.428 . S
C367 C125 1.300 . S
C361 C4 1.450 . S
C387 C129 1.269 . S
C381 C37 1.429 . S
C407 C107 1.309 . S
C401 C26 1.447 . S
C427 C146 1.370 . S
C421 C60 1.493 . S
C441 C48 1.500 . S
C447 C154 1.390 . S
C467 C170 1.394 . S
C461 C82 1.496 . S
C481 C70 1.501 . S
C487 C150 1.385 . S
C507 C95 1.349 . S
C501 C10 1.489 . S
C527 C113 1.383 . S
C521 C21 1.541 . S
C541 C32 1.480 . S
C547 C128 1.320 . S
C567 C108 1.370 . S
C561 C43 1.531 . S
C587 C134 1.414 . S
C581 C54 1.574 . S
C601 C65 1.517 . S
C607 C158 1.365 . S
C621 C76 1.568 . S
C627 C171 1.419 . S
C641 C87 1.512 . S
C647 C149 1.330 . S
