# Generated by pormake.
# Topology pyr, (3,6)-cn, num edge types: 1
# Building blocks:
#     Node 0, Type 0, BuildingBlock: BETDAH_clean_linker_0, # of connection points: 3
#     Node 1, Type 0, BuildingBlock: BETDAH_clean_linker_0, # of connection points: 3
#     Node 2, Type 0, BuildingBlock: BETDAH_clean_linker_0, # of connection points: 3
#     Node 3, Type 0, BuildingBlock: BETDAH_clean_linker_0, # of connection points: 3
#     Node 4, Type 0, BuildingBlock: BETDAH_clean_linker_0, # of connection points: 3
#     Node 5, Type 0, BuildingBlock: BETDAH_clean_linker_0, # of connection points: 3
#     Node 6, Type 0, BuildingBlock: BETDAH_clean_linker_0, # of connection points: 3
#     Node 7, Type 0, BuildingBlock: BETDAH_clean_linker_0, # of connection points: 3
#     Node 8, Type 1, BuildingBlock: PAMTUU_clean_sbu_0, # of connection points: 6
#     Node 9, Type 1, BuildingBlock: PAMTUU_clean_sbu_0, # of connection points: 6
#     Node 10, Type 1, BuildingBlock: PAMTUU_clean_sbu_0, # of connection points: 6
#     Node 11, Type 1, BuildingBlock: PAMTUU_clean_sbu_0, # of connection points: 6
#     Edge 12, Type (0, 1), BuildingBlock: UVAHIK_clean_linker_0, # of connection points: 2
#     Edge 13, Type (0, 1), BuildingBlock: UVAHIK_clean_linker_0, # of connection points: 2
#     Edge 14, Type (0, 1), BuildingBlock: UVAHIK_clean_linker_0, # of connection points: 2
#     Edge 15, Type (0, 1), BuildingBlock: UVAHIK_clean_linker_0, # of connection points: 2
#     Edge 16, Type (0, 1), BuildingBlock: UVAHIK_clean_linker_0, # of connection points: 2
#     Edge 17, Type (0, 1), BuildingBlock: UVAHIK_clean_linker_0, # of connection points: 2
#     Edge 18, Type (0, 1), BuildingBlock: UVAHIK_clean_linker_0, # of connection points: 2
#     Edge 19, Type (0, 1), BuildingBlock: UVAHIK_clean_linker_0, # of connection points: 2
#     Edge 20, Type (0, 1), BuildingBlock: UVAHIK_clean_linker_0, # of connection points: 2
#     Edge 21, Type (0, 1), BuildingBlock: UVAHIK_clean_linker_0, # of connection points: 2
#     Edge 22, Type (0, 1), BuildingBlock: UVAHIK_clean_linker_0, # of connection points: 2
#     Edge 23, Type (0, 1), BuildingBlock: UVAHIK_clean_linker_0, # of connection points: 2
#     Edge 24, Type (0, 1), BuildingBlock: UVAHIK_clean_linker_0, # of connection points: 2
#     Edge 25, Type (0, 1), BuildingBlock: UVAHIK_clean_linker_0, # of connection points: 2
#     Edge 26, Type (0, 1), BuildingBlock: UVAHIK_clean_linker_0, # of connection points: 2
#     Edge 27, Type (0, 1), BuildingBlock: UVAHIK_clean_linker_0, # of connection points: 2
#     Edge 28, Type (0, 1), BuildingBlock: UVAHIK_clean_linker_0, # of connection points: 2
#     Edge 29, Type (0, 1), BuildingBlock: UVAHIK_clean_linker_0, # of connection points: 2
#     Edge 30, Type (0, 1), BuildingBlock: UVAHIK_clean_linker_0, # of connection points: 2
#     Edge 31, Type (0, 1), BuildingBlock: UVAHIK_clean_linker_0, # of connection points: 2
#     Edge 32, Type (0, 1), BuildingBlock: UVAHIK_clean_linker_0, # of connection points: 2
#     Edge 33, Type (0, 1), BuildingBlock: UVAHIK_clean_linker_0, # of connection points: 2
#     Edge 34, Type (0, 1), BuildingBlock: UVAHIK_clean_linker_0, # of connection points: 2
#     Edge 35, Type (0, 1), BuildingBlock: UVAHIK_clean_linker_0, # of connection points: 2
# Relax obj value: 0.100
# Max RMSD: 0.172
# Mean RMSD: 0.133
data_MOF--net-pyr--node1-PAMTUU_clean_sbu_0--node2-BETDAH_clean_linker_0--edge1-UVAHIK_clean_linker_0
_symmetry_space_group_name_H-M    P1
_symmetry_Int_Tables_number       1
_symmetry_cell_setting            triclinic
loop_
_symmetry_equiv_pos_as_xyz
'x, y, z'
_cell_length_a     48.381975
_cell_length_b     50.468623
_cell_length_c     50.325331
_cell_angle_alpha  90.4491
_cell_angle_beta   89.878133
_cell_angle_gamma 105.08742
loop_
_atom_site_label
_atom_site_type_symbol
_atom_site_fract_x
_atom_site_fract_y
_atom_site_fract_z
_atom_type_partial_charge
H0 H 0.31167 0.22944 0.21097 0.0
H1 H 0.36836 0.29777 0.17157 0.0
H2 H 0.29781 0.30996 0.2178 0.0
C3 C 0.31761 0.25103 0.20591 0.0
C4 C 0.3018 0.26843 0.21628 0.0
C5 C 0.34163 0.26135 0.1898 0.0
C6 C 0.3501 0.28954 0.18431 0.0
C7 C 0.33413 0.30702 0.19388 0.0
C8 C 0.31008 0.29644 0.21007 0.0
N9 N 0.34195 0.33493 0.18615 0.0
C10 C 0.32134 0.34919 0.18256 0.0
H11 H 0.26584 0.79613 0.7529 0.0
H12 H 0.19134 0.82687 0.7453 0.0
H13 H 0.20717 0.76901 0.68799 0.0
C14 C 0.24619 0.79609 0.74258 0.0
C15 C 0.23889 0.78062 0.71911 0.0
C16 C 0.22903 0.81258 0.75231 0.0
C17 C 0.2046 0.81408 0.738 0.0
C18 C 0.19671 0.79818 0.71484 0.0
C19 C 0.21357 0.78124 0.70582 0.0
N20 N 0.17182 0.79862 0.70025 0.0
C21 C 0.16204 0.822 0.69774 0.0
H22 H 0.70585 0.37151 0.91158 0.0
H23 H 0.69673 0.43031 0.85263 0.0
H24 H 0.63031 0.35578 0.863 0.0
C25 C 0.69383 0.37733 0.8955 0.0
C26 C 0.66695 0.35998 0.88872 0.0
C27 C 0.70507 0.40261 0.88262 0.0
C28 C 0.68861 0.41086 0.86254 0.0
C29 C 0.66144 0.39384 0.85562 0.0
C30 C 0.65103 0.36872 0.86879 0.0
N31 N 0.64284 0.40124 0.83668 0.0
C32 C 0.64941 0.4204 0.81616 0.0
H33 H 0.83587 0.73482 0.40846 0.0
H34 H 0.91248 0.73954 0.36333 0.0
H35 H 0.84217 0.66761 0.35731 0.0
C36 C 0.84743 0.72625 0.39368 0.0
C37 C 0.835 0.69977 0.38327 0.0
C38 C 0.87528 0.74107 0.3866 0.0
C39 C 0.89083 0.7288 0.36884 0.0
C40 C 0.87898 0.70264 0.35797 0.0
C41 C 0.85097 0.68814 0.3651 0.0
N42 N 0.89741 0.69012 0.34326 0.0
C43 C 0.89157 0.67684 0.31871 0.0
H44 H 0.77744 0.78955 0.84841 0.0
H45 H 0.73099 0.80648 0.91706 0.0
H46 H 0.74285 0.85979 0.84996 0.0
C47 C 0.76457 0.80143 0.85812 0.0
C48 C 0.76084 0.82502 0.84567 0.0
C49 C 0.75396 0.7945 0.88397 0.0
C50 C 0.73866 0.81107 0.89695 0.0
C51 C 0.73497 0.83467 0.8845 0.0
C52 C 0.74589 0.84137 0.8591 0.0
N53 N 0.72352 0.85402 0.898 0.0
C54 C 0.69956 0.84754 0.91417 0.0
H55 H 0.83935 0.23882 0.35456 0.0
H56 H 0.87954 0.29969 0.41256 0.0
H57 H 0.81059 0.31212 0.36484 0.0
C58 C 0.84121 0.25845 0.36426 0.0
C59 C 0.82282 0.27461 0.3569 0.0
C60 C 0.86153 0.26713 0.38453 0.0
C61 C 0.86389 0.29263 0.39695 0.0
C62 C 0.84547 0.30875 0.39017 0.0
C63 C 0.82496 0.29973 0.37008 0.0
N64 N 0.84769 0.33363 0.40431 0.0
C65 C 0.8245 0.34459 0.40846 0.0
H66 H 0.33407 0.73768 0.18119 0.0
H67 H 0.33844 0.67576 0.23875 0.0
H68 H 0.40904 0.74722 0.22934 0.0
C69 C 0.34536 0.7302 0.19681 0.0
C70 C 0.37277 0.74593 0.20407 0.0
C71 C 0.33243 0.70489 0.20905 0.0
C72 C 0.34771 0.69526 0.2293 0.0
C73 C 0.3754 0.71085 0.23678 0.0
C74 C 0.38752 0.73583 0.22396 0.0
N75 N 0.39323 0.70181 0.25535 0.0
C76 C 0.38569 0.68361 0.27656 0.0
H77 H 0.20333 0.37168 0.67191 0.0
H78 H 0.19755 0.42987 0.73362 0.0
H79 H 0.13371 0.35275 0.72747 0.0
C80 C 0.19206 0.37756 0.68866 0.0
C81 C 0.16703 0.35906 0.69784 0.0
C82 C 0.20316 0.40335 0.70094 0.0
C83 C 0.18932 0.41019 0.72387 0.0
C84 C 0.16422 0.39162 0.73352 0.0
C85 C 0.15336 0.36647 0.72027 0.0
N86 N 0.1483 0.397 0.75588 0.0
C87 C 0.15456 0.41915 0.77362 0.0
Tb88 Tb 0.05438 0.05626 0.51684 0.0
Tb89 Tb 0.99987 0.04746 0.55708 0.0
C90 C 1.00269 1.00424 0.5127 0.0
C91 C 0.1102 0.08247 0.46533 0.0
C92 C 0.13706 0.11967 0.42598 0.0
C93 C 0.14315 0.09401 0.4284 0.0
C94 C 0.12986 0.07562 0.44794 0.0
C95 C 0.10384 0.10794 0.46308 0.0
C96 C 0.11722 0.12646 0.44353 0.0
C97 C 0.09599 0.06238 0.4851 0.0
O98 O 0.02204 0.07141 0.49603 0.0
O99 O 0.99883 0.08212 0.53261 0.0
O100 O 0.03418 0.07998 0.5743 0.0
O101 O 0.05945 0.09586 0.53654 0.0
O102 O 0.95559 0.04203 0.56193 0.0
O103 O 0.98369 0.0453 0.59583 0.0
O104 O 0.02176 0.01695 0.56849 0.0
O105 O 0.06638 0.03951 0.55356 0.0
O106 O 0.03068 0.01339 0.5129 0.0
O107 O 0.98653 0.01803 0.52454 0.0
C108 C 1.00475 0.08445 0.50719 0.0
O109 O 0.09853 0.07051 0.50983 0.0
O110 O 0.06989 0.04878 0.47936 0.0
C111 C 0.05283 0.09927 0.56146 0.0
C112 C 0.93715 0.0165 0.5998 0.0
C113 C 0.89935 0.97337 0.62688 0.0
C114 C 0.89093 0.99709 0.61998 0.0
C115 C 0.90974 0.01851 0.60664 0.0
C116 C 0.94525 0.99237 0.60542 0.0
C117 C 0.9265 0.97097 0.61895 0.0
C118 C 0.95726 0.0401 0.58764 0.0
C119 C 0.04965 0.02097 0.56874 0.0
H120 H 0.15785 0.08789 0.41488 0.0
H121 H 0.13475 0.0559 0.4493 0.0
H122 H 0.08851 0.11341 0.47637 0.0
H123 H 0.11221 0.14612 0.44228 0.0
H124 H 0.86995 0.99932 0.62534 0.0
H125 H 0.90309 0.03689 0.60216 0.0
H126 H 0.96632 0.9904 0.60002 0.0
H127 H 0.9337 0.95308 0.62412 0.0
Tb128 Tb 0.54921 0.05952 0.07028 0.0
Tb129 Tb 0.49899 0.04571 0.02437 0.0
C130 C 0.55087 0.02007 0.02316 0.0
C131 C 0.60557 0.09464 0.11944 0.0
C132 C 0.63961 0.13802 0.14991 0.0
C133 C 0.64891 0.11434 0.14448 0.0
C134 C 0.632 0.09287 0.12942 0.0
C135 C 0.59656 0.1186 0.12396 0.0
C136 C 0.61343 0.1401 0.13917 0.0
C137 C 0.58716 0.0706 0.10591 0.0
O138 O 0.56546 0.08834 0.03796 0.0
O139 O 0.52288 0.08801 0.01769 0.0
O140 O 0.48165 0.05917 0.06041 0.0
O141 O 0.52314 0.08799 0.07548 0.0
O142 O 0.48471 0.0293 0.98698 0.0
O143 O 0.45978 0.05081 1.01011 0.0
O144 O 0.49008 0.00808 0.04736 0.0
O145 O 0.51562 0.02482 0.08535 0.0
O146 O 0.55424 0.02402 0.04878 0.0
O147 O 0.53594 0.0333 1.00919 0.0
C148 C 0.55021 0.0994 0.02184 0.0
O149 O 0.55975 0.06561 0.11056 0.0
O150 O 0.59264 0.06714 0.08092 0.0
C151 C 0.49516 0.08068 0.07436 0.0
C152 C 0.43435 0.0161 0.98066 0.0
C153 C 0.3858 0.97982 0.95753 0.0
C154 C 0.38595 0.00716 0.9633 0.0
C155 C 0.41004 0.02513 0.97464 0.0
C156 C 0.43372 0.98841 0.97633 0.0
C157 C 0.40968 0.97046 0.96484 0.0
C158 C 0.46081 0.0365 0.9887 0.0
C159 C 0.49683 1.00536 0.07236 0.0
H160 H 0.66874 0.11191 0.15275 0.0
H161 H 0.63923 0.07449 0.12618 0.0
H162 H 0.57623 0.12041 0.11627 0.0
H163 H 0.60586 0.1582 0.14281 0.0
H164 H 0.36773 0.01492 0.95838 0.0
H165 H 0.41005 0.04639 0.97785 0.0
H166 H 0.45218 0.98086 0.98082 0.0
H167 H 0.41045 0.94962 0.96047 0.0
Tb168 Tb 0.51803 0.52641 0.53066 0.0
Tb169 Tb 0.52355 0.58428 0.56236 0.0
C170 C 0.49178 0.5727 0.50752 0.0
C171 C 0.53917 0.46839 0.49982 0.0
C172 C 0.58364 0.44449 0.48538 0.0
C173 C 0.55634 0.43528 0.47375 0.0
C174 C 0.5343 0.44718 0.48091 0.0
C175 C 0.56617 0.47735 0.51182 0.0
C176 C 0.5882 0.4655 0.50469 0.0
C177 C 0.51692 0.4826 0.50549 0.0
O178 O 0.56285 0.54907 0.52715 0.0
O179 O 0.55757 0.59257 0.53265 0.0
O180 O 0.55346 0.56527 0.58256 0.0
O181 O 0.53299 0.52054 0.5706 0.0
O182 O 0.52819 0.62681 0.56142 0.0
O183 O 0.52518 0.60549 0.59866 0.0
O184 O 0.48785 0.55439 0.58038 0.0
O185 O 0.47508 0.52345 0.54609 0.0
O186 O 0.50573 0.55408 0.50256 0.0
O187 O 0.49109 0.58267 0.53168 0.0
C188 C 0.57228 0.57572 0.52398 0.0
O189 O 0.50933 0.48333 0.53029 0.0
O190 O 0.52103 0.50652 0.49444 0.0
C191 C 0.5497 0.53878 0.58632 0.0
C192 C 0.50238 0.64098 0.59602 0.0
C193 C 0.45827 0.66302 0.61519 0.0
C194 C 0.48545 0.67016 0.62721 0.0
C195 C 0.50735 0.65924 0.61765 0.0
C196 C 0.47529 0.63379 0.58395 0.0
C197 C 0.45346 0.64484 0.59336 0.0
C198 C 0.52495 0.62838 0.58705 0.0
C199 C 0.46934 0.5338 0.5689 0.0
H200 H 0.55205 0.41894 0.45904 0.0
H201 H 0.5136 0.44016 0.47136 0.0
H202 H 0.57039 0.49395 0.52628 0.0
H203 H 0.60905 0.47336 0.51375 0.0
H204 H 0.48982 0.68429 0.64392 0.0
H205 H 0.52809 0.66483 0.62729 0.0
H206 H 0.47091 0.61939 0.56745 0.0
H207 H 0.43264 0.63868 0.58393 0.0
Tb208 Tb 0.02392 0.58568 0.02509 0.0
Tb209 Tb 0.01787 0.52704 0.05448 0.0
C210 C 0.05097 0.5401 1.00068 0.0
C211 C 1.00163 0.64312 0.99595 0.0
C212 C 0.9538 0.66211 0.98236 0.0
C213 C 0.97608 0.6636 0.964 0.0
C214 C 0.99985 0.65425 0.9708 0.0
C215 C 0.9797 0.64218 0.01457 0.0
C216 C 0.95607 0.65183 1.00788 0.0
C217 C 0.02451 0.62962 1.0013 0.0
O218 O 0.97903 0.56298 0.0207 0.0
O219 O 0.98486 0.5196 0.02387 0.0
O220 O 0.98807 0.54595 0.07536 0.0
O221 O 0.00888 0.59084 0.06508 0.0
O222 O 0.01313 0.48456 0.05172 0.0
O223 O 0.01431 0.50461 0.08982 0.0
O224 O 0.05498 0.55515 0.07291 0.0
O225 O 0.06644 0.58963 0.04191 0.0
O226 O 0.03733 0.55898 0.99629 0.0
O227 O 0.05096 0.52931 0.02435 0.0
C228 C 0.96988 0.53645 0.01618 0.0
O229 O 0.03217 0.6287 0.02601 0.0
O230 O 0.02138 0.60608 0.98936 0.0
C231 C 0.99192 0.57234 0.08006 0.0
C232 C 0.03837 0.47033 0.08602 0.0
C233 C 0.08335 0.44983 0.10489 0.0
C234 C 0.05477 0.43681 0.11151 0.0
C235 C 0.03242 0.44705 0.10215 0.0
C236 C 0.06676 0.48316 0.0791 0.0
C237 C 0.08904 0.47296 0.08839 0.0
C238 C 0.01538 0.4822 0.07733 0.0
C239 C 0.0727 0.57729 0.0632 0.0
H240 H 0.97491 0.67167 0.94427 0.0
H241 H 0.01642 0.65487 0.95611 0.0
H242 H 0.98036 0.63319 0.03397 0.0
H243 H 0.93907 0.65027 0.02229 0.0
H244 H 0.04976 0.4191 0.12439 0.0
H245 H 0.01059 0.43708 0.10779 0.0
H246 H 0.0717 0.50125 0.06671 0.0
H247 H 0.11075 0.48319 0.08259 0.0
C248 C 0.25808 0.23177 0.22867 0.0
C249 C 0.27742 0.25719 0.23436 0.0
C250 C 0.23789 0.21901 0.24751 0.0
C251 C 0.20336 0.22806 0.31151 0.0
H252 H 0.20684 0.15311 0.32321 0.0
C253 C 0.13572 0.15363 0.38995 0.0
C254 C 0.1512 0.13889 0.40489 0.0
C255 C 0.14867 0.16988 0.36864 0.0
C256 C 0.20563 0.17401 0.32017 0.0
H257 H 0.28955 0.29004 0.26347 0.0
H258 H 0.25426 0.26767 0.29649 0.0
H259 H 0.23196 0.17838 0.28557 0.0
H260 H 0.19286 0.13106 0.41021 0.0
H261 H 0.21517 0.15894 0.37286 0.0
H262 H 0.17743 0.2236 0.34671 0.0
C263 C 0.25461 0.2577 0.2774 0.0
C264 C 0.21972 0.18838 0.29844 0.0
C265 C 0.27484 0.27049 0.25851 0.0
C266 C 0.18013 0.14158 0.39871 0.0
C267 C 0.19294 0.15759 0.37737 0.0
C268 C 0.18897 0.21351 0.33322 0.0
C269 C 0.23663 0.23141 0.27241 0.0
C270 C 0.2191 0.21568 0.29406 0.0
C271 C 0.17721 0.17147 0.36183 0.0
C272 C 0.19049 0.18653 0.33798 0.0
H273 H 0.25919 0.22131 0.20997 0.0
H274 H 0.22392 0.19897 0.24294 0.0
H275 H 0.20245 0.24905 0.30853 0.0
H276 H 0.11334 0.15184 0.3941 0.0
H277 H 0.13608 0.18035 0.35689 0.0
C278 C 0.24441 0.81525 0.79978 0.0
C279 C 0.23723 0.82833 0.77728 0.0
C280 C 0.25492 0.83034 0.82261 0.0
C281 C 0.26521 0.89863 0.85557 0.0
H282 H 0.3301 0.87937 0.88765 0.0
C283 C 0.35028 0.97262 0.92018 0.0
C284 C 0.36209 0.96186 0.94183 0.0
C285 C 0.33042 0.95538 0.90341 0.0
C286 C 0.31169 0.88474 0.87928 0.0
H287 H 0.2344 0.8672 0.76122 0.0
H288 H 0.25352 0.89387 0.80093 0.0
H289 H 0.30401 0.85111 0.85194 0.0
H290 H 0.36089 0.9247 0.96368 0.0
H291 H 0.32639 0.89453 0.93414 0.0
H292 H 0.27385 0.93299 0.88245 0.0
C293 C 0.25053 0.87185 0.80117 0.0
C294 C 0.29666 0.86851 0.85877 0.0
C295 C 0.23968 0.85664 0.77838 0.0
C296 C 0.35261 0.93359 0.94693 0.0
C297 C 0.33282 0.91632 0.93006 0.0
C298 C 0.28041 0.91501 0.87604 0.0
C299 C 0.25886 0.85895 0.82337 0.0
C300 C 0.2734 0.87537 0.84644 0.0
C301 C 0.322 0.92696 0.90779 0.0
C302 C 0.30401 0.90838 0.8879 0.0
H303 H 0.24229 0.79334 0.79954 0.0
H304 H 0.26044 0.81961 0.83953 0.0
H305 H 0.24716 0.90429 0.8468 0.0
H306 H 0.3574 0.9942 0.91537 0.0
H307 H 0.32277 0.96416 0.88624 0.0
C308 C 0.64089 0.42166 0.76788 0.0
C309 C 0.64729 0.43578 0.79214 0.0
C310 C 0.63367 0.43471 0.74538 0.0
C311 C 0.60666 0.49506 0.72578 0.0
H312 H 0.62272 0.47286 0.65474 0.0
C313 C 0.57637 0.54663 0.63023 0.0
C314 C 0.56402 0.5289 0.60923 0.0
C315 C 0.58846 0.53681 0.6523 0.0
C316 C 0.61785 0.47921 0.67442 0.0
H317 H 0.65144 0.47477 0.81194 0.0
H318 H 0.63989 0.49809 0.77249 0.0
H319 H 0.64135 0.45389 0.69304 0.0
H320 H 0.55532 0.48683 0.59506 0.0
H321 H 0.57652 0.46991 0.63315 0.0
H322 H 0.58332 0.52059 0.70693 0.0
C323 C 0.63996 0.47671 0.77075 0.0
C324 C 0.62852 0.46823 0.69655 0.0
C325 C 0.64703 0.46351 0.79334 0.0
C326 C 0.56457 0.50118 0.61077 0.0
C327 C 0.57693 0.49145 0.63263 0.0
C328 C 0.5962 0.50625 0.70361 0.0
C329 C 0.63263 0.46239 0.74645 0.0
C330 C 0.62282 0.47565 0.72268 0.0
C331 C 0.5889 0.50904 0.65386 0.0
C332 C 0.60132 0.49824 0.67757 0.0
H333 H 0.6403 0.40007 0.76656 0.0
H334 H 0.62774 0.42262 0.72744 0.0
H335 H 0.60127 0.50112 0.7454 0.0
H336 H 0.57631 0.56807 0.62986 0.0
H337 H 0.59766 0.55106 0.66809 0.0
C338 C 0.90359 0.6822 0.27104 0.0
C339 C 0.89373 0.66493 0.29264 0.0
C340 C 0.91106 0.67152 0.24706 0.0
C341 C 0.90527 0.60694 0.20817 0.0
H342 H 0.97591 0.64901 0.17625 0.0
C343 C 0.96309 0.56348 0.12265 0.0
C344 C 0.97744 0.58186 0.10315 0.0
C345 C 0.95106 0.57301 0.14507 0.0
C346 C 0.9559 0.6371 0.18455 0.0
H347 H 0.88344 0.62296 0.30621 0.0
H348 H 0.89618 0.60406 0.26422 0.0
H349 H 0.95743 0.66657 0.21569 0.0
H350 H 0.98939 0.62471 0.09174 0.0
H351 H 0.96812 0.6411 0.13021 0.0
H352 H 0.90383 0.57742 0.17694 0.0
C353 C 0.89788 0.62585 0.26557 0.0
C354 C 0.94526 0.64724 0.2073 0.0
C355 C 0.89051 0.63662 0.28963 0.0
C356 C 0.9788 0.6099 0.10639 0.0
C357 C 0.9667 0.61938 0.12867 0.0
C358 C 0.91588 0.59682 0.18527 0.0
C359 C 0.90895 0.64326 0.24414 0.0
C360 C 0.91977 0.63237 0.21948 0.0
C361 C 0.95296 0.60118 0.14859 0.0
C362 C 0.94137 0.61177 0.17306 0.0
H363 H 0.90661 0.70417 0.27302 0.0
H364 H 0.91905 0.68553 0.23094 0.0
H365 H 0.88547 0.59499 0.21682 0.0
H366 H 0.96167 0.54176 0.12091 0.0
H367 H 0.94092 0.55832 0.16 0.0
C368 C 0.34231 0.2173 0.16705 0.0
C369 C 0.35737 0.24246 0.17833 0.0
C370 C 0.35699 0.19933 0.15633 0.0
C371 C 0.42758 0.19717 0.13018 0.0
H372 H 0.3994 0.11885 0.1418 0.0
C373 C 0.49334 0.1216 0.1018 0.0
C374 C 0.47883 0.09768 0.08807 0.0
C375 C 0.47819 0.13861 0.11354 0.0
C376 C 0.40735 0.14065 0.13822 0.0
H377 H 0.39952 0.26846 0.18749 0.0
H378 H 0.42527 0.23693 0.16895 0.0
H379 H 0.3737 0.15014 0.16094 0.0
H380 H 0.43697 0.07249 0.07644 0.0
H381 H 0.41049 0.10236 0.09703 0.0
H382 H 0.4613 0.18769 0.10761 0.0
C383 C 0.4021 0.2313 0.168 0.0
C384 C 0.39265 0.15856 0.14913 0.0
C385 C 0.3874 0.24934 0.17864 0.0
C386 C 0.44878 0.09079 0.08687 0.0
C387 C 0.43359 0.10781 0.09873 0.0
C388 C 0.44232 0.17929 0.11939 0.0
C389 C 0.38704 0.2061 0.15672 0.0
C390 C 0.40263 0.18703 0.14523 0.0
C391 C 0.44821 0.13205 0.11189 0.0
C392 C 0.43238 0.15087 0.12334 0.0
H393 H 0.31913 0.21168 0.16619 0.0
H394 H 0.34478 0.1803 0.14737 0.0
H395 H 0.43552 0.21893 0.1264 0.0
H396 H 0.51647 0.12744 0.10322 0.0
H397 H 0.48996 0.15697 0.12391 0.0
C398 C 0.17198 0.86988 0.68324 0.0
C399 C 0.15232 0.8459 0.69172 0.0
C400 C 0.16233 0.89188 0.67384 0.0
C401 C 0.09919 0.92057 0.67048 0.0
H402 H 0.13272 0.95011 0.60343 0.0
C403 C 0.04502 0.98191 0.60036 0.0
C404 C 0.06251 1.00374 0.58599 0.0
C405 C 0.05715 0.96503 0.61588 0.0
C406 C 0.12343 0.94249 0.62237 0.0
H407 H 0.10758 0.82583 0.69803 0.0
H408 H 0.09048 0.86427 0.68156 0.0
H409 H 0.15207 0.91694 0.62677 0.0
H410 H 0.10652 0.02542 0.57732 0.0
H411 H 0.12762 0.99621 0.60467 0.0
H412 H 0.07025 0.9459 0.66582 0.0
C413 C 0.11332 0.86638 0.68239 0.0
C414 C 0.13454 0.92345 0.63577 0.0
C415 C 0.12303 0.84438 0.69173 0.0
C416 C 0.0924 0.00865 0.58795 0.0
C417 C 0.10452 0.99183 0.60355 0.0
C418 C 0.08811 0.93972 0.65709 0.0
C419 C 0.13284 0.89014 0.67276 0.0
C420 C 0.12236 0.91203 0.65982 0.0
C421 C 0.08704 0.96963 0.61749 0.0
C422 C 0.09988 0.95065 0.6327 0.0
H423 H 0.19471 0.87127 0.68306 0.0
H424 H 0.1779 0.91002 0.66688 0.0
H425 H 0.08955 0.91237 0.68912 0.0
H426 H 0.02192 0.97752 0.5993 0.0
H427 H 0.04304 0.94791 0.62605 0.0
C428 C 0.7562 0.40764 0.89619 0.0
C429 C 0.73383 0.41999 0.89108 0.0
C430 C 0.78206 0.42267 0.90733 0.0
C431 C 0.8138 0.48561 0.9473 0.0
H432 H 0.88467 0.46719 0.92984 0.0
C433 C 0.92476 0.54194 0.99389 0.0
C434 C 0.94246 0.52511 1.00148 0.0
C435 C 0.89946 0.53108 0.97938 0.0
C436 C 0.86506 0.47249 0.93513 0.0
H437 H 0.72179 0.45839 0.89292 0.0
H438 H 0.76735 0.48498 0.91189 0.0
H439 H 0.84128 0.44572 0.90526 0.0
H440 H 0.94697 0.48345 0.99976 0.0
H441 H 0.90324 0.46474 0.97466 0.0
H442 H 0.8379 0.5125 0.97722 0.0
C443 C 0.7646 0.46338 0.90768 0.0
C444 C 0.84004 0.46011 0.921 0.0
C445 C 0.73857 0.44823 0.89646 0.0
C446 C 0.93403 0.49715 0.9943 0.0
C447 C 0.90896 0.48639 0.97967 0.0
C448 C 0.83896 0.49817 0.96135 0.0
C449 C 0.78662 0.4507 0.91364 0.0
C450 C 0.81385 0.46604 0.92716 0.0
C451 C 0.89136 0.50317 0.97184 0.0
C452 C 0.86484 0.49139 0.95579 0.0
H453 H 0.75348 0.386 0.89209 0.0
H454 H 0.79814 0.41193 0.91182 0.0
H455 H 0.79411 0.49058 0.95289 0.0
H456 H 0.93051 0.56356 0.999 0.0
H457 H 0.88655 0.54467 0.9736 0.0
C458 C 0.80069 0.65628 0.40012 0.0
C459 C 0.80617 0.68412 0.39316 0.0
C460 C 0.77483 0.64274 0.41244 0.0
C461 C 0.70079 0.64932 0.42724 0.0
H462 H 0.70361 0.59908 0.48445 0.0
C463 C 0.60814 0.61497 0.50253 0.0
C464 C 0.59966 0.58705 0.50943 0.0
C465 C 0.63305 0.62549 0.48766 0.0
C466 C 0.70237 0.61285 0.46835 0.0
H467 H 0.78784 0.71902 0.39257 0.0
H468 H 0.74349 0.6959 0.41448 0.0
H469 H 0.74682 0.61926 0.45891 0.0
H470 H 0.61131 0.54844 0.50633 0.0
H471 H 0.65494 0.5669 0.48061 0.0
H472 H 0.65651 0.64338 0.43714 0.0
C473 C 0.7589 0.68425 0.4103 0.0
C474 C 0.72718 0.62438 0.45358 0.0
C475 C 0.78461 0.69769 0.39793 0.0
C476 C 0.61713 0.57004 0.50144 0.0
C477 C 0.64223 0.58065 0.48674 0.0
C478 C 0.6761 0.63799 0.44214 0.0
C479 C 0.75372 0.65667 0.41813 0.0
C480 C 0.72685 0.64301 0.43292 0.0
C481 C 0.65036 0.60847 0.47942 0.0
C482 C 0.67658 0.61977 0.46305 0.0
H483 H 0.81681 0.64518 0.39696 0.0
H484 H 0.77154 0.62139 0.41773 0.0
H485 H 0.69936 0.66305 0.41118 0.0
H486 H 0.59531 0.62876 0.50829 0.0
H487 H 0.63884 0.64709 0.48273 0.0
C488 C 0.27088 0.34221 0.17135 0.0
C489 C 0.29738 0.36021 0.17751 0.0
C490 C 0.24749 0.35243 0.16541 0.0
C491 C 0.22961 0.41466 0.14171 0.0
H492 H 0.1534 0.37763 0.16634 0.0
C493 C 0.13255 0.45829 0.12422 0.0
C494 C 0.10728 0.43966 0.11534 0.0
C495 C 0.15552 0.44892 0.13324 0.0
C496 C 0.17453 0.38804 0.15916 0.0
H497 H 0.32086 0.40263 0.1828 0.0
H498 H 0.27973 0.42083 0.17268 0.0
H499 H 0.19421 0.36103 0.18007 0.0
H500 H 0.08621 0.39656 0.10915 0.0
H501 H 0.1264 0.38015 0.12507 0.0
H502 H 0.2099 0.4416 0.12072 0.0
C503 C 0.27699 0.39884 0.1721 0.0
C504 C 0.19789 0.37856 0.16701 0.0
C505 C 0.30042 0.38853 0.17802 0.0
C506 C 0.10528 0.4114 0.11614 0.0
C507 C 0.12828 0.40201 0.12524 0.0
C508 C 0.20627 0.42418 0.13392 0.0
C509 C 0.25031 0.38088 0.16558 0.0
C510 C 0.22566 0.39167 0.15824 0.0
C511 C 0.1537 0.42071 0.13368 0.0
C512 C 0.17848 0.41088 0.14246 0.0
H513 H 0.26834 0.32022 0.1708 0.0
H514 H 0.2274 0.33809 0.16009 0.0
H515 H 0.25065 0.42492 0.13424 0.0
H516 H 0.13453 0.48017 0.12434 0.0
H517 H 0.17466 0.46378 0.14005 0.0
C518 C 0.62607 0.32271 0.90779 0.0
C519 C 0.65554 0.333 0.90263 0.0
C520 C 0.6155 0.29762 0.92086 0.0
C521 C 0.63559 0.23336 0.94074 0.0
H522 H 0.56925 0.22406 0.98647 0.0
C523 C 0.5934 0.13759 1.00865 0.0
C524 C 0.56358 0.12609 1.00856 0.0
C525 C 0.60547 0.16279 0.99611 0.0
C526 C 0.5877 0.22623 0.97365 0.0
H527 H 0.69681 0.32406 0.90717 0.0
H528 H 0.67869 0.28132 0.93088 0.0
H529 H 0.58847 0.26768 0.96431 0.0
H530 H 0.52318 0.1325 0.9952 0.0
H531 H 0.5441 0.17618 0.97378 0.0
H532 H 0.63495 0.19188 0.95068 0.0
C533 C 0.66352 0.29233 0.92436 0.0
C534 C 0.59871 0.25131 0.96074 0.0
C535 C 0.67405 0.31727 0.91104 0.0
C536 C 0.54622 0.14055 0.99571 0.0
C537 C 0.55822 0.1658 0.98352 0.0
C538 C 0.62474 0.20836 0.95393 0.0
C539 C 0.63404 0.28202 0.92952 0.0
C540 C 0.6227 0.25528 0.94384 0.0
C541 C 0.58799 0.17732 0.98351 0.0
C542 C 0.60048 0.20435 0.97037 0.0
H543 H 0.61101 0.33417 0.90205 0.0
H544 H 0.59263 0.2904 0.92394 0.0
H545 H 0.65376 0.23522 0.92765 0.0
H546 H 0.60746 0.1271 0.01833 0.0
H547 H 0.62847 0.17113 0.99663 0.0
C548 C 0.91766 0.77669 0.40556 0.0
C549 C 0.88844 0.76875 0.39868 0.0
C550 C 0.92981 0.80231 0.41737 0.0
C551 C 0.91695 0.87141 0.42965 0.0
H552 H 0.97605 0.87699 0.48287 0.0
C553 C 0.95941 0.9686 0.49581 0.0
C554 C 0.98925 0.97748 0.49947 0.0
C555 C 0.94692 0.9434 0.48329 0.0
C556 C 0.95974 0.87585 0.46788 0.0
H557 H 0.84935 0.78222 0.39864 0.0
H558 H 0.87017 0.82624 0.42009 0.0
H559 H 0.9547 0.83288 0.46167 0.0
H560 H 0.02925 0.96656 0.49283 0.0
H561 H 0.00744 0.92268 0.47127 0.0
H562 H 0.92175 0.91441 0.43638 0.0
C563 C 0.88392 0.81287 0.41592 0.0
C564 C 0.94751 0.85051 0.45559 0.0
C565 C 0.87182 0.78733 0.40391 0.0
C566 C 1.00621 0.96045 0.49038 0.0
C567 C 0.99369 0.93517 0.47812 0.0
C568 C 0.92901 0.89671 0.44214 0.0
C569 C 0.9131 0.82075 0.42293 0.0
C570 C 0.926 0.84788 0.43618 0.0
C571 C 0.96389 0.9263 0.47439 0.0
C572 C 0.95066 0.89929 0.46134 0.0
H573 H 0.93119 0.76294 0.40226 0.0
H574 H 0.95243 0.80766 0.42201 0.0
H575 H 0.90083 0.87046 0.41453 0.0
H576 H 0.94567 0.98114 0.50254 0.0
H577 H 0.92387 0.9371 0.48095 0.0
C578 C 0.27337 0.75133 0.72451 0.0
C579 C 0.25855 0.76515 0.70783 0.0
C580 C 0.29361 0.73878 0.71404 0.0
C581 C 0.34046 0.74136 0.65546 0.0
H582 H 0.35061 0.67322 0.68365 0.0
C583 C 0.41721 0.68393 0.60804 0.0
C584 C 0.43484 0.67419 0.62556 0.0
C585 C 0.39503 0.69428 0.61778 0.0
C586 C 0.34814 0.69237 0.67573 0.0
H587 H 0.25306 0.77609 0.66692 0.0
H588 H 0.28754 0.7534 0.6486 0.0
H589 H 0.31227 0.69181 0.70087 0.0
H590 H 0.44282 0.66731 0.66698 0.0
H591 H 0.4041 0.68553 0.68403 0.0
H592 H 0.37624 0.74179 0.63022 0.0
C593 C 0.28395 0.75272 0.66986 0.0
C594 C 0.32621 0.70305 0.6856 0.0
C595 C 0.26384 0.7654 0.68033 0.0
C596 C 0.42975 0.67492 0.65302 0.0
C597 C 0.40742 0.68507 0.66276 0.0
C598 C 0.36225 0.73059 0.64548 0.0
C599 C 0.29942 0.73963 0.68662 0.0
C600 C 0.32217 0.72773 0.67565 0.0
C601 C 0.38986 0.69492 0.64524 0.0
C602 C 0.3664 0.70605 0.65558 0.0
H603 H 0.26956 0.75044 0.74573 0.0
H604 H 0.30526 0.72907 0.72757 0.0
H605 H 0.33836 0.76068 0.64768 0.0
H606 H 0.42075 0.68379 0.58678 0.0
H607 H 0.38171 0.70154 0.6038 0.0
C608 C 0.77365 0.81504 0.79868 0.0
C609 C 0.77412 0.83394 0.81952 0.0
C610 C 0.78464 0.82423 0.77363 0.0
C611 C 0.79283 0.88191 0.73086 0.0
H612 H 0.86274 0.86983 0.70147 0.0
C613 C 0.86644 0.96061 0.66561 0.0
C614 C 0.88076 0.95233 0.64406 0.0
C615 C 0.84998 0.9413 0.68275 0.0
C616 C 0.8428 0.87286 0.70902 0.0
H617 H 0.78839 0.87696 0.83091 0.0
H618 H 0.80643 0.89283 0.78718 0.0
H619 H 0.84033 0.8434 0.74015 0.0
H620 H 0.88876 0.91715 0.62342 0.0
H621 H 0.85994 0.88316 0.6538 0.0
H622 H 0.79555 0.91192 0.70062 0.0
C623 C 0.7973 0.87106 0.79016 0.0
C624 C 0.83007 0.85778 0.7311 0.0
C625 C 0.78678 0.86195 0.8151 0.0
C626 C 0.8781 0.92416 0.63997 0.0
C627 C 0.86161 0.90473 0.65728 0.0
C628 C 0.80533 0.89674 0.70877 0.0
C629 C 0.7959 0.85237 0.76917 0.0
C630 C 0.80566 0.86307 0.74272 0.0
C631 C 0.84741 0.91317 0.67885 0.0
C632 C 0.83114 0.89327 0.69836 0.0
H633 H 0.76406 0.79334 0.8015 0.0
H634 H 0.78355 0.80954 0.7576 0.0
H635 H 0.77386 0.88611 0.73951 0.0
H636 H 0.86862 0.98214 0.66977 0.0
H637 H 0.83995 0.94853 0.6996 0.0
C638 C 0.78486 0.23735 0.33521 0.0
C639 C 0.80101 0.26487 0.33586 0.0
C640 C 0.76511 0.2278 0.3149 0.0
C641 C 0.74922 0.24201 0.24606 0.0
H642 H 0.67747 0.18832 0.26039 0.0
C643 C 0.68645 0.16732 0.16688 0.0
C644 C 0.65641 0.15942 0.16819 0.0
C645 C 0.70243 0.18471 0.1862 0.0
C646 C 0.69719 0.20362 0.25603 0.0
H647 H 0.80877 0.30405 0.31594 0.0
H648 H 0.77397 0.28736 0.28046 0.0
H649 H 0.70769 0.21008 0.29726 0.0
H650 H 0.61953 0.16457 0.19018 0.0
H651 H 0.64743 0.19532 0.2237 0.0
H652 H 0.73881 0.23532 0.20478 0.0
C653 C 0.77682 0.27317 0.2956 0.0
C654 C 0.71468 0.21583 0.27717 0.0
C655 C 0.79655 0.28277 0.31602 0.0
C656 C 0.64264 0.17039 0.18852 0.0
C657 C 0.65863 0.18776 0.20788 0.0
C658 C 0.73174 0.22974 0.22489 0.0
C659 C 0.76102 0.24552 0.29474 0.0
C660 C 0.74115 0.23475 0.27241 0.0
C661 C 0.68871 0.19459 0.20729 0.0
C662 C 0.70578 0.21002 0.22963 0.0
H663 H 0.78754 0.22315 0.35041 0.0
H664 H 0.75353 0.20632 0.31466 0.0
H665 H 0.76957 0.25639 0.24173 0.0
H666 H 0.69766 0.15946 0.15127 0.0
H667 H 0.72556 0.18939 0.18525 0.0
C668 C 0.39766 0.64465 0.29942 0.0
C669 C 0.38771 0.66838 0.30071 0.0
C670 C 0.40548 0.63307 0.32264 0.0
C671 C 0.42906 0.65199 0.39259 0.0
H672 H 0.41987 0.57379 0.39964 0.0
C673 C 0.46398 0.6045 0.48848 0.0
C674 C 0.47714 0.58288 0.485 0.0
C675 C 0.45114 0.6144 0.46692 0.0
C676 C 0.42291 0.59573 0.39797 0.0
H677 H 0.3779 0.69855 0.32727 0.0
H678 H 0.39071 0.67808 0.36789 0.0
H679 H 0.40024 0.59122 0.36094 0.0
H680 H 0.48676 0.55474 0.45573 0.0
H681 H 0.46471 0.57194 0.41852 0.0
H682 H 0.4519 0.65648 0.42956 0.0
C683 C 0.39281 0.66838 0.349 0.0
C684 C 0.41158 0.60579 0.37565 0.0
C685 C 0.385 0.67993 0.32574 0.0
C686 C 0.47681 0.57135 0.45938 0.0
C687 C 0.46393 0.58114 0.43792 0.0
C688 C 0.44035 0.64192 0.41495 0.0
C689 C 0.40379 0.64508 0.34782 0.0
C690 C 0.41464 0.63413 0.37242 0.0
C691 C 0.45093 0.60289 0.44124 0.0
C692 C 0.43771 0.61363 0.41792 0.0
H693 H 0.40064 0.63572 0.28032 0.0
H694 H 0.41414 0.61542 0.32065 0.0
H695 H 0.4324 0.67396 0.3908 0.0
H696 H 0.46374 0.61395 0.50783 0.0
H697 H 0.44114 0.63097 0.47047 0.0
C698 C 0.15735 0.4289 0.82184 0.0
C699 C 0.15271 0.43703 0.796 0.0
C700 C 0.14963 0.44242 0.84404 0.0
C701 C 0.09996 0.48476 0.86289 0.0
H702 H 0.14061 0.49295 0.93 0.0
C703 C 0.06504 0.54124 0.95238 0.0
C704 C 0.06558 0.53013 0.9779 0.0
C705 C 0.07742 0.53123 0.93056 0.0
C706 C 0.12881 0.49059 0.91149 0.0
H707 H 0.13693 0.46592 0.77291 0.0
H708 H 0.12424 0.49022 0.81151 0.0
H709 H 0.16008 0.47445 0.89134 0.0
H710 H 0.08018 0.49982 1.00029 0.0
H711 H 0.10168 0.48226 0.96219 0.0
H712 H 0.06864 0.50073 0.88299 0.0
C713 C 0.13348 0.47316 0.81485 0.0
C714 C 0.14002 0.47997 0.88922 0.0
C715 C 0.14116 0.45955 0.79266 0.0
C716 C 0.07935 0.50896 0.981 0.0
C717 C 0.09182 0.49895 0.95911 0.0
C718 C 0.08881 0.49542 0.88509 0.0
C719 C 0.1369 0.46436 0.84091 0.0
C720 C 0.12574 0.47682 0.86454 0.0
C721 C 0.09079 0.50976 0.93348 0.0
C722 C 0.10301 0.49848 0.90978 0.0
H723 H 0.16563 0.41117 0.82492 0.0
H724 H 0.15234 0.43471 0.86361 0.0
H725 H 0.08787 0.48213 0.84454 0.0
H726 H 0.0548 0.55763 0.94909 0.0
H727 H 0.07657 0.54047 0.91134 0.0
C728 C 0.64912 0.84744 0.91473 0.0
C729 C 0.67443 0.84883 0.92873 0.0
C730 C 0.62779 0.85796 0.92606 0.0
C731 C 0.60551 0.88854 0.9873 0.0
H732 H 0.59259 0.94337 0.93863 0.0
C733 C 0.58168 0.98754 0.02453 0.0
C734 C 0.56204 0.99841 1.01065 0.0
C735 C 0.5903 0.96523 0.01431 0.0
C736 C 0.59539 0.92786 0.95237 0.0
H737 H 0.69692 0.86003 0.96588 0.0
H738 H 0.65962 0.87825 0.98595 0.0
H739 H 0.61408 0.90786 0.92237 0.0
H740 H 0.53625 0.99464 0.97494 0.0
H741 H 0.55128 0.95542 0.95702 0.0
H742 H 0.58757 0.9091 0.01748 0.0
C743 C 0.65588 0.86887 0.96641 0.0
C744 C 0.60765 0.90741 0.94303 0.0
C745 C 0.67723 0.85841 0.955 0.0
C746 C 0.55163 0.98686 0.98598 0.0
C747 C 0.56017 0.96435 0.97577 0.0
C748 C 0.59309 0.90891 0.99662 0.0
C749 C 0.63169 0.8701 0.95148 0.0
C750 C 0.61361 0.88803 0.96055 0.0
C751 C 0.57935 0.9531 0.99001 0.0
C752 C 0.58876 0.92933 0.97942 0.0
H753 H 0.64686 0.84039 0.89425 0.0
H754 H 0.60921 0.85835 0.91425 0.0
H755 H 0.60961 0.87371 1.00118 0.0
H756 H 0.59027 0.99609 0.04352 0.0
H757 H 0.60571 0.9576 0.02544 0.0
C758 C 0.88064 0.24434 0.42152 0.0
C759 C 0.87862 0.24861 0.39414 0.0
C760 C 0.89485 0.22552 0.43083 0.0
C761 C 0.94868 0.18877 0.41478 0.0
H762 H 0.90953 0.13926 0.46951 0.0
C763 C 0.99497 0.10459 0.46355 0.0
C764 C 0.99164 0.10257 0.4913 0.0
C765 C 0.98141 0.12119 0.44897 0.0
C766 C 0.92085 0.15304 0.45435 0.0
H767 H 0.8906 0.23709 0.35503 0.0
H768 H 0.91577 0.20408 0.37146 0.0
H769 H 0.88584 0.17104 0.4492 0.0
H770 H 0.97218 0.11713 0.52549 0.0
H771 H 0.94914 0.14598 0.50036 0.0
H772 H 0.98406 0.17112 0.42055 0.0
C773 C 0.90622 0.21535 0.38562 0.0
C774 C 0.90725 0.17121 0.44272 0.0
C775 C 0.89171 0.23408 0.37625 0.0
C776 C 0.97501 0.11787 0.50415 0.0
C777 C 0.96159 0.13435 0.48968 0.0
C778 C 0.96244 0.17061 0.42659 0.0
C779 C 0.9075 0.2106 0.413 0.0
C780 C 0.92125 0.1897 0.42327 0.0
C781 C 0.96425 0.13595 0.46192 0.0
C782 C 0.94889 0.15304 0.44699 0.0
H783 H 0.87052 0.255 0.43578 0.0
H784 H 0.89581 0.2225 0.45207 0.0
H785 H 0.95993 0.20284 0.3998 0.0
H786 H 0.00772 0.09311 0.45307 0.0
H787 H 0.98385 0.12203 0.42758 0.0
C788 C 0.28297 0.70265 0.19168 0.0
C789 C 0.30354 0.68881 0.19922 0.0
C790 C 0.25812 0.68904 0.17798 0.0
C791 C 0.20744 0.62326 0.16324 0.0
H792 H 0.19605 0.65693 0.09659 0.0
C793 C 0.11243 0.57209 0.09337 0.0
C794 C 0.10031 0.58891 0.07742 0.0
C795 C 0.13766 0.5831 0.10783 0.0
C796 C 0.19835 0.64736 0.11532 0.0
H797 H 0.31256 0.64894 0.19972 0.0
H798 H 0.26826 0.62481 0.17667 0.0
H799 H 0.23752 0.6777 0.12394 0.0
H800 H 0.10528 0.63065 0.06442 0.0
H801 H 0.14823 0.65012 0.0904 0.0
H802 H 0.16773 0.59362 0.15549 0.0
C803 C 0.272 0.64651 0.18099 0.0
C804 C 0.22243 0.65925 0.13094 0.0
C805 C 0.29729 0.66032 0.19437 0.0
C806 C 0.11418 0.61703 0.07624 0.0
C807 C 0.13907 0.62817 0.09115 0.0
C808 C 0.18295 0.61163 0.14789 0.0
C809 C 0.25259 0.66096 0.1719 0.0
C810 C 0.22727 0.64744 0.15513 0.0
C811 C 0.15132 0.61144 0.1073 0.0
C812 C 0.17787 0.62351 0.12363 0.0
H813 H 0.28648 0.7244 0.19567 0.0
H814 H 0.24334 0.70064 0.17178 0.0
H815 H 0.21045 0.61376 0.18187 0.0
H816 H 0.10247 0.55026 0.0946 0.0
H817 H 0.14644 0.56918 0.11931 0.0
C818 C 0.2313 0.4246 0.66103 0.0
C819 C 0.22904 0.42243 0.68889 0.0
C820 C 0.25692 0.43849 0.64893 0.0
C821 C 0.32574 0.48968 0.65784 0.0
H822 H 0.35156 0.44814 0.60224 0.0
C823 C 0.438 0.5282 0.60947 0.0
C824 C 0.44157 0.52188 0.5826 0.0
C825 C 0.41219 0.5169 0.62275 0.0
C826 C 0.34459 0.46036 0.61734 0.0
H827 H 0.25168 0.43503 0.72585 0.0
H828 H 0.29659 0.46015 0.70453 0.0
H829 H 0.30656 0.42843 0.62493 0.0
H830 H 0.42033 0.49897 0.54853 0.0
H831 H 0.375 0.48001 0.57127 0.0
H832 H 0.36328 0.52196 0.64982 0.0
C833 C 0.27839 0.45057 0.69217 0.0
C834 C 0.31876 0.44891 0.63051 0.0
C835 C 0.25264 0.43631 0.70438 0.0
C836 C 0.41845 0.50413 0.56927 0.0
C837 C 0.39244 0.49309 0.58246 0.0
C838 C 0.35144 0.50135 0.64438 0.0
C839 C 0.28103 0.45106 0.66426 0.0
C840 C 0.30895 0.46341 0.65088 0.0
C841 C 0.38891 0.49916 0.6095 0.0
C842 C 0.36131 0.48688 0.62386 0.0
H843 H 0.21337 0.41477 0.64844 0.0
H844 H 0.25801 0.43902 0.62742 0.0
H845 H 0.31866 0.50147 0.67329 0.0
H846 H 0.45536 0.54163 0.62051 0.0
H847 H 0.41077 0.52176 0.64361 0.0
C848 C 0.76344 0.74801 0.88506 0.0
C849 C 0.76262 0.7724 0.89833 0.0
C850 C 0.77755 0.73001 0.89637 0.0
C851 C 0.81246 0.71355 0.9574 0.0
H852 H 0.86875 0.70035 0.9076 0.0
C853 C 0.91644 0.68751 0.99073 0.0
C854 C 0.92773 0.67018 0.97444 0.0
C855 C 0.89232 0.69572 0.98269 0.0
C856 C 0.85286 0.70325 0.92171 0.0
H857 H 0.77401 0.79593 0.93477 0.0
H858 H 0.79844 0.76443 0.95456 0.0
H859 H 0.83145 0.72046 0.89201 0.0
H860 H 0.92195 0.64668 0.93774 0.0
H861 H 0.87954 0.66046 0.92391 0.0
H862 H 0.83429 0.69669 0.98723 0.0
C863 C 0.78809 0.75916 0.93546 0.0
C864 C 0.83141 0.7148 0.91274 0.0
C865 C 0.77404 0.77721 0.92412 0.0
C866 C 0.91399 0.66051 0.9504 0.0
C867 C 0.88971 0.66844 0.94251 0.0
C868 C 0.83385 0.70175 0.96639 0.0
C869 C 0.79105 0.73601 0.9212 0.0
C870 C 0.81126 0.72049 0.93052 0.0
C871 C 0.87884 0.68651 0.95832 0.0
C872 C 0.8546 0.69689 0.9487 0.0
H873 H 0.75439 0.74354 0.86534 0.0
H874 H 0.77907 0.71203 0.88514 0.0
H875 H 0.79709 0.71759 0.97151 0.0
H876 H 0.92674 0.69529 1.00934 0.0
H877 H 0.88481 0.70996 0.99519 0.0
C878 C 0.40236 0.79538 0.20509 0.0
C879 C 0.38606 0.77268 0.19061 0.0
C880 C 0.41433 0.82051 0.19257 0.0
C881 C 0.40705 0.86057 0.13246 0.0
H882 H 0.48356 0.90325 0.15073 0.0
C883 C 0.46548 0.95679 0.0725 0.0
C884 C 0.48329 0.97914 0.0863 0.0
C885 C 0.45351 0.93187 0.08537 0.0
C886 C 0.462 0.89184 0.14559 0.0
H887 H 0.37045 0.75881 0.15116 0.0
H888 H 0.39101 0.80252 0.12951 0.0
H889 H 0.46323 0.85967 0.17279 0.0
H890 H 0.50206 0.9926 0.12479 0.0
H891 H 0.48086 0.94951 0.14728 0.0
H892 H 0.40567 0.89276 0.10542 0.0
C893 C 0.39417 0.80102 0.15069 0.0
C894 C 0.45034 0.86674 0.15827 0.0
C895 C 0.38231 0.77587 0.16317 0.0
C896 C 0.48857 0.9759 0.11343 0.0
C897 C 0.47652 0.95101 0.12632 0.0
C898 C 0.41866 0.88572 0.11986 0.0
C899 C 0.41029 0.82375 0.1652 0.0
C900 C 0.42271 0.85068 0.15184 0.0
C901 C 0.4589 0.92854 0.11248 0.0
C902 C 0.44636 0.90175 0.12617 0.0
H903 H 0.40544 0.79392 0.22628 0.0
H904 H 0.4263 0.83761 0.20449 0.0
H905 H 0.38554 0.84905 0.12726 0.0
H906 H 0.46101 0.95836 0.05156 0.0
H907 H 0.44045 0.91503 0.07386 0.0
C908 C 0.14246 0.30822 0.69798 0.0
C909 C 0.15514 0.33223 0.68376 0.0
C910 C 0.13162 0.28313 0.68472 0.0
C911 C 0.10875 0.2532 0.61758 0.0
H912 H 0.11626 0.18597 0.64995 0.0
C913 C 0.08172 0.14868 0.56124 0.0
C914 C 0.06582 0.12575 0.57532 0.0
C915 C 0.09302 0.17383 0.57428 0.0
C916 C 0.11379 0.20453 0.64071 0.0
H917 H 0.16568 0.34841 0.64411 0.0
H918 H 0.1479 0.30474 0.62123 0.0
H919 H 0.13491 0.22965 0.67293 0.0
H920 H 0.04974 0.11137 0.61434 0.0
H921 H 0.06956 0.15503 0.63697 0.0
H922 H 0.08796 0.22797 0.58519 0.0
C923 C 0.14587 0.30528 0.64264 0.0
C924 C 0.12441 0.22965 0.65395 0.0
C925 C 0.15652 0.33038 0.65587 0.0
C926 C 0.06185 0.12854 0.60281 0.0
C927 C 0.07336 0.15358 0.61586 0.0
C928 C 0.09835 0.2281 0.60425 0.0
C929 C 0.13325 0.28124 0.65684 0.0
C930 C 0.12197 0.25438 0.64264 0.0
C931 C 0.08896 0.1766 0.60176 0.0
C932 C 0.10063 0.20342 0.61569 0.0
H933 H 0.1412 0.30867 0.71945 0.0
H934 H 0.12172 0.26524 0.6964 0.0
H935 H 0.10596 0.27164 0.60837 0.0
H936 H 0.08519 0.14733 0.54006 0.0
H937 H 0.10516 0.19108 0.56285 0.0
C938 C 0.78164 0.35915 0.39527 0.0
C939 C 0.80044 0.35517 0.41504 0.0
C940 C 0.75801 0.36898 0.40206 0.0
C941 C 0.73052 0.40595 0.45563 0.0
H942 H 0.65666 0.37409 0.42304 0.0
C943 C 0.62704 0.42785 0.4956 0.0
C944 C 0.60757 0.43293 0.47687 0.0
C945 C 0.65029 0.41817 0.48749 0.0
C946 C 0.67721 0.38339 0.43211 0.0
H947 H 0.80981 0.35781 0.4571 0.0
H948 H 0.76846 0.37472 0.46917 0.0
H949 H 0.69808 0.35801 0.40961 0.0
H950 H 0.59728 0.43174 0.43487 0.0
H951 H 0.6378 0.41471 0.42072 0.0
H952 H 0.70969 0.43121 0.47822 0.0
C953 C 0.77198 0.37079 0.44841 0.0
C954 C 0.70095 0.37421 0.42439 0.0
C955 C 0.79553 0.361 0.44159 0.0
C956 C 0.61164 0.42767 0.44985 0.0
C957 C 0.63489 0.41795 0.44173 0.0
C958 C 0.70681 0.41508 0.46336 0.0
C959 C 0.75294 0.37494 0.42874 0.0
C960 C 0.72785 0.38527 0.4362 0.0
C961 C 0.65461 0.4133 0.46044 0.0
C962 C 0.67984 0.4038 0.45182 0.0
H963 H 0.78519 0.35466 0.37464 0.0
H964 H 0.74392 0.37219 0.38642 0.0
H965 H 0.75103 0.41526 0.46477 0.0
H966 H 0.62427 0.43126 0.5166 0.0
H967 H 0.6648 0.41432 0.50245 0.0
loop_
_geom_bond_atom_site_label_1
_geom_bond_atom_site_label_2
_geom_bond_distance
_geom_bond_site_symmetry_2
_ccdc_geom_bond_type
H0 C3 0.929 . S
H1 C6 0.929 . S
H2 C8 0.930 . S
C3 H0 0.929 . S
C3 C4 1.398 . S
C3 C5 1.396 . S
C4 C3 1.398 . S
C4 C8 1.407 . S
C5 C3 1.396 . S
C5 C6 1.394 . S
C6 H1 0.929 . S
C6 C5 1.394 . S
C6 C7 1.382 . S
C7 C6 1.382 . S
C7 C8 1.392 . S
C7 N9 1.420 . S
C8 H2 0.930 . S
C8 C4 1.407 . S
C8 C7 1.392 . S
N9 C7 1.420 . S
N9 C10 1.244 . S
C10 N9 1.244 . S
H11 C14 0.929 . S
H12 C17 0.929 . S
H13 C19 0.930 . S
C14 H11 0.929 . S
C14 C15 1.398 . S
C14 C16 1.396 . S
C15 C14 1.398 . S
C15 C19 1.407 . S
C16 C14 1.396 . S
C16 C17 1.394 . S
C17 H12 0.929 . S
C17 C16 1.394 . S
C17 C18 1.382 . S
C18 C17 1.382 . S
C18 C19 1.392 . S
C18 N20 1.420 . S
C19 H13 0.930 . S
C19 C15 1.407 . S
C19 C18 1.392 . S
N20 C18 1.420 . S
N20 C21 1.244 . S
C21 N20 1.244 . S
H22 C25 0.929 . S
H23 C28 0.929 . S
H24 C30 0.930 . S
C25 H22 0.929 . S
C25 C26 1.398 . S
C25 C27 1.396 . S
C26 C25 1.398 . S
C26 C30 1.407 . S
C27 C25 1.396 . S
C27 C28 1.394 . S
C28 H23 0.929 . S
C28 C27 1.394 . S
C28 C29 1.382 . S
C29 C28 1.382 . S
C29 C30 1.392 . S
C29 N31 1.420 . S
C30 H24 0.930 . S
C30 C26 1.407 . S
C30 C29 1.392 . S
N31 C29 1.420 . S
N31 C32 1.244 . S
C32 N31 1.244 . S
H33 C36 0.929 . S
H34 C39 0.929 . S
H35 C41 0.930 . S
C36 H33 0.929 . S
C36 C37 1.398 . S
C36 C38 1.396 . S
C37 C36 1.398 . S
C37 C41 1.407 . S
C38 C36 1.396 . S
C38 C39 1.394 . S
C39 H34 0.929 . S
C39 C38 1.394 . S
C39 C40 1.382 . S
C40 C39 1.382 . S
C40 C41 1.392 . S
C40 N42 1.420 . S
C41 H35 0.930 . S
C41 C37 1.407 . S
C41 C40 1.392 . S
N42 C40 1.420 . S
N42 C43 1.244 . S
C43 N42 1.244 . S
H44 C47 0.929 . S
H45 C50 0.929 . S
H46 C52 0.930 . S
C47 H44 0.929 . S
C47 C48 1.398 . S
C47 C49 1.396 . S
C48 C47 1.398 . S
C48 C52 1.407 . S
C49 C47 1.396 . S
C49 C50 1.394 . S
C50 H45 0.929 . S
C50 C49 1.394 . S
C50 C51 1.382 . S
C51 C50 1.382 . S
C51 C52 1.392 . S
C51 N53 1.420 . S
C52 H46 0.930 . S
C52 C48 1.407 . S
C52 C51 1.392 . S
N53 C51 1.420 . S
N53 C54 1.244 . S
C54 N53 1.244 . S
H55 C58 0.929 . S
H56 C61 0.929 . S
H57 C63 0.930 . S
C58 H55 0.929 . S
C58 C59 1.398 . S
C58 C60 1.396 . S
C59 C58 1.398 . S
C59 C63 1.407 . S
C60 C58 1.396 . S
C60 C61 1.394 . S
C61 H56 0.929 . S
C61 C60 1.394 . S
C61 C62 1.382 . S
C62 C61 1.382 . S
C62 C63 1.392 . S
C62 N64 1.420 . S
C63 H57 0.930 . S
C63 C59 1.407 . S
C63 C62 1.392 . S
N64 C62 1.420 . S
N64 C65 1.244 . S
C65 N64 1.244 . S
H66 C69 0.929 . S
H67 C72 0.929 . S
H68 C74 0.930 . S
C69 H66 0.929 . S
C69 C70 1.398 . S
C69 C71 1.396 . S
C70 C69 1.398 . S
C70 C74 1.407 . S
C71 C69 1.396 . S
C71 C72 1.394 . S
C72 H67 0.929 . S
C72 C71 1.394 . S
C72 C73 1.382 . S
C73 C72 1.382 . S
C73 C74 1.392 . S
C73 N75 1.420 . S
C74 H68 0.930 . S
C74 C70 1.407 . S
C74 C73 1.392 . S
N75 C73 1.420 . S
N75 C76 1.244 . S
C76 N75 1.244 . S
H77 C80 0.929 . S
H78 C83 0.929 . S
H79 C85 0.930 . S
C80 H77 0.929 . S
C80 C81 1.398 . S
C80 C82 1.396 . S
C81 C80 1.398 . S
C81 C85 1.407 . S
C82 C80 1.396 . S
C82 C83 1.394 . S
C83 H78 0.929 . S
C83 C82 1.394 . S
C83 C84 1.382 . S
C84 C83 1.382 . S
C84 C85 1.392 . S
C84 N86 1.420 . S
C85 H79 0.930 . S
C85 C81 1.407 . S
C85 C84 1.392 . S
N86 C84 1.420 . S
N86 C87 1.244 . S
C87 N86 1.244 . S
Tb88 C97 2.764 . S
Tb88 O98 2.325 . S
Tb88 O101 2.303 . S
Tb88 O105 2.322 . S
Tb88 O106 2.349 1_545 S
Tb88 O109 2.415 . S
Tb88 O110 2.399 . S
Tb89 O99 2.322 . S
Tb89 O100 2.349 1_655 S
Tb89 O102 2.415 1_545 S
Tb89 O103 2.399 . S
Tb89 O104 2.325 1_655 S
Tb89 O107 2.322 . S
Tb89 C118 2.764 1_545 S
C90 O106 1.261 1_655 S
C90 O107 1.237 1_565 S
C91 C94 1.358 . S
C91 C95 1.332 . S
C91 C97 1.504 . S
C92 C93 1.373 . S
C92 C96 1.308 . S
C93 C92 1.373 . S
C93 C94 1.429 . S
C93 H120 0.932 . S
C94 C91 1.358 . S
C94 C93 1.429 . S
C94 H121 0.930 . S
C95 C91 1.332 . S
C95 C96 1.394 . S
C95 H122 0.932 . S
C96 C92 1.308 . S
C96 C95 1.394 . S
C96 H123 0.929 . S
C97 Tb88 2.764 . S
C97 C91 1.504 . S
C97 O109 1.239 . S
C97 O110 1.263 . S
O98 Tb88 2.325 . S
O98 C108 1.236 1_455 S
O99 Tb89 2.322 . S
O99 C108 1.257 . S
O100 Tb89 2.349 1_455 S
O100 C111 1.261 . S
O101 Tb88 2.303 . S
O101 C111 1.257 . S
O102 Tb89 2.415 1_565 S
O102 C118 1.239 . S
O103 Tb89 2.399 . S
O103 C118 1.263 1_545 S
O104 Tb89 2.325 1_455 S
O104 C119 1.236 1_545 S
O105 Tb88 2.322 . S
O105 C119 1.257 1_545 S
O106 Tb88 2.349 1_565 S
O106 C90 1.261 1_455 S
O107 Tb89 2.322 . S
O107 C90 1.237 1_545 S
C108 O98 1.236 1_655 S
C108 O99 1.257 . S
O109 Tb88 2.415 . S
O109 C97 1.239 . S
O110 Tb88 2.399 . S
O110 C97 1.263 . S
C111 O100 1.261 . S
C111 O101 1.257 . S
C112 C115 1.358 . S
C112 C116 1.332 . S
C112 C118 1.504 . S
C113 C114 1.373 . S
C113 C117 1.308 . S
C114 C113 1.373 . S
C114 C115 1.429 . S
C114 H124 0.932 . S
C115 C112 1.358 . S
C115 C114 1.429 . S
C115 H125 0.930 1_565 S
C116 C112 1.332 . S
C116 C117 1.394 . S
C116 H126 0.932 . S
C117 C113 1.308 . S
C117 C116 1.394 . S
C117 H127 0.929 . S
C118 Tb89 2.764 1_565 S
C118 O102 1.239 . S
C118 O103 1.263 1_565 S
C118 C112 1.504 . S
C119 O104 1.236 1_565 S
C119 O105 1.257 1_565 S
H120 C93 0.932 . S
H121 C94 0.930 . S
H122 C95 0.932 . S
H123 C96 0.929 . S
H124 C114 0.932 . S
H125 C115 0.930 1_545 S
H126 C116 0.932 . S
H127 C117 0.929 . S
Tb128 C137 2.764 . S
Tb128 O138 2.325 . S
Tb128 O141 2.303 . S
Tb128 O145 2.322 1_545 S
Tb128 O146 2.349 . S
Tb128 O149 2.415 . S
Tb128 O150 2.399 . S
Tb129 O139 2.322 . S
Tb129 O140 2.349 . S
Tb129 O142 2.415 1_544 S
Tb129 O143 2.406 . S
Tb129 O144 2.325 1_545 S
Tb129 O147 2.303 . S
Tb129 C158 2.764 1_544 S
C130 O146 1.261 . S
C130 O147 1.257 . S
C131 C134 1.358 . S
C131 C135 1.332 . S
C131 C137 1.504 . S
C132 C133 1.373 . S
C132 C136 1.308 . S
C133 C132 1.373 . S
C133 C134 1.429 . S
C133 H160 0.932 . S
C134 C131 1.358 . S
C134 C133 1.429 . S
C134 H161 0.930 . S
C135 C131 1.332 . S
C135 C136 1.394 . S
C135 H162 0.932 . S
C136 C132 1.308 . S
C136 C135 1.394 . S
C136 H163 0.929 . S
C137 Tb128 2.764 . S
C137 C131 1.504 . S
C137 O149 1.239 . S
C137 O150 1.263 . S
O138 Tb128 2.325 . S
O138 C148 1.236 . S
O139 Tb129 2.322 . S
O139 C148 1.257 . S
O140 Tb129 2.349 . S
O140 C151 1.261 . S
O141 Tb128 2.303 . S
O141 C151 1.257 . S
O142 Tb129 2.415 1_566 S
O142 C158 1.239 . S
O143 Tb129 2.406 . S
O143 C158 1.253 1_544 S
O144 Tb129 2.325 1_565 S
O144 C159 1.236 . S
O145 Tb128 2.322 1_565 S
O145 C159 1.257 . S
O146 Tb128 2.349 . S
O146 C130 1.261 . S
O147 Tb129 2.303 . S
O147 C130 1.257 . S
C148 O138 1.236 . S
C148 O139 1.257 . S
O149 Tb128 2.415 . S
O149 C137 1.239 . S
O150 Tb128 2.399 . S
O150 C137 1.263 . S
C151 O140 1.261 . S
C151 O141 1.257 . S
C152 C155 1.358 . S
C152 C156 1.332 . S
C152 C158 1.504 . S
C153 C154 1.373 . S
C153 C157 1.308 . S
C154 C153 1.373 . S
C154 C155 1.429 . S
C154 H164 0.932 . S
C155 C152 1.358 . S
C155 C154 1.429 . S
C155 H165 0.930 . S
C156 C152 1.332 . S
C156 C157 1.394 . S
C156 H166 0.932 . S
C157 C153 1.308 . S
C157 C156 1.394 . S
C157 H167 0.929 . S
C158 Tb129 2.764 1_566 S
C158 O142 1.239 . S
C158 O143 1.253 1_566 S
C158 C152 1.504 . S
C159 O144 1.236 . S
C159 O145 1.257 . S
H160 C133 0.932 . S
H161 C134 0.930 . S
H162 C135 0.932 . S
H163 C136 0.929 . S
H164 C154 0.932 . S
H165 C155 0.930 . S
H166 C156 0.932 . S
H167 C157 0.929 . S
Tb168 C177 2.764 . S
Tb168 O178 2.325 . S
Tb168 O181 2.303 . S
Tb168 O185 2.322 . S
Tb168 O186 2.349 . S
Tb168 O189 2.415 . S
Tb168 O190 2.399 . S
Tb169 O179 2.322 . S
Tb169 O180 2.349 . S
Tb169 O182 2.415 . S
Tb169 O183 2.399 . S
Tb169 O184 2.325 . S
Tb169 O187 2.303 . S
Tb169 C198 2.764 . S
C170 O186 1.261 . S
C170 O187 1.257 . S
C171 C174 1.358 . S
C171 C175 1.332 . S
C171 C177 1.504 . S
C172 C173 1.373 . S
C172 C176 1.308 . S
C173 C172 1.373 . S
C173 C174 1.429 . S
C173 H200 0.932 . S
C174 C171 1.358 . S
C174 C173 1.429 . S
C174 H201 0.930 . S
C175 C171 1.332 . S
C175 C176 1.394 . S
C175 H202 0.932 . S
C176 C172 1.308 . S
C176 C175 1.394 . S
C176 H203 0.929 . S
C177 Tb168 2.764 . S
C177 C171 1.504 . S
C177 O189 1.239 . S
C177 O190 1.263 . S
O178 Tb168 2.325 . S
O178 C188 1.236 . S
O179 Tb169 2.322 . S
O179 C188 1.257 . S
O180 Tb169 2.349 . S
O180 C191 1.261 . S
O181 Tb168 2.303 . S
O181 C191 1.257 . S
O182 Tb169 2.415 . S
O182 C198 1.239 . S
O183 Tb169 2.399 . S
O183 C198 1.263 . S
O184 Tb169 2.325 . S
O184 C199 1.236 . S
O185 Tb168 2.322 . S
O185 C199 1.257 . S
O186 Tb168 2.349 . S
O186 C170 1.261 . S
O187 Tb169 2.303 . S
O187 C170 1.257 . S
C188 O178 1.236 . S
C188 O179 1.257 . S
O189 Tb168 2.415 . S
O189 C177 1.239 . S
O190 Tb168 2.399 . S
O190 C177 1.263 . S
C191 O180 1.261 . S
C191 O181 1.257 . S
C192 C195 1.358 . S
C192 C196 1.332 . S
C192 C198 1.504 . S
C193 C194 1.373 . S
C193 C197 1.308 . S
C194 C193 1.373 . S
C194 C195 1.429 . S
C194 H204 0.932 . S
C195 C192 1.358 . S
C195 C194 1.429 . S
C195 H205 0.930 . S
C196 C192 1.332 . S
C196 C197 1.394 . S
C196 H206 0.932 . S
C197 C193 1.308 . S
C197 C196 1.394 . S
C197 H207 0.929 . S
C198 Tb169 2.764 . S
C198 O182 1.239 . S
C198 O183 1.263 . S
C198 C192 1.504 . S
C199 O184 1.236 . S
C199 O185 1.257 . S
H200 C173 0.932 . S
H201 C174 0.930 . S
H202 C175 0.932 . S
H203 C176 0.929 . S
H204 C194 0.932 . S
H205 C195 0.930 . S
H206 C196 0.932 . S
H207 C197 0.929 . S
Tb208 C217 2.764 1_455 S
Tb208 O218 2.325 1_455 S
Tb208 O221 2.303 1_556 S
Tb208 O225 2.322 1_556 S
Tb208 O226 2.349 . S
Tb208 O229 2.415 1_455 S
Tb208 O230 2.399 . S
Tb209 O219 2.322 1_455 S
Tb209 O220 2.349 . S
Tb209 O222 2.415 . S
Tb209 O223 2.399 . S
Tb209 O224 2.325 . S
Tb209 O227 2.303 1_554 S
Tb209 C238 2.764 . S
C210 O226 1.261 . S
C210 O227 1.257 . S
C211 C214 1.358 . S
C211 C215 1.332 . S
C211 C217 1.504 . S
C212 C213 1.373 . S
C212 C216 1.308 . S
C213 C212 1.373 . S
C213 C214 1.429 . S
C213 H240 0.932 . S
C214 C211 1.358 . S
C214 C213 1.429 . S
C214 H241 0.930 . S
C215 C211 1.332 . S
C215 C216 1.394 . S
C215 H242 0.932 . S
C216 C212 1.308 . S
C216 C215 1.394 . S
C216 H243 0.929 . S
C217 Tb208 2.764 1_655 S
C217 C211 1.504 . S
C217 O229 1.239 . S
C217 O230 1.263 1_655 S
O218 Tb208 2.325 1_655 S
O218 C228 1.236 . S
O219 Tb209 2.322 1_655 S
O219 C228 1.257 1_554 S
O220 Tb209 2.349 . S
O220 C231 1.261 . S
O221 Tb208 2.303 1_554 S
O221 C231 1.257 . S
O222 Tb209 2.415 . S
O222 C238 1.239 . S
O223 Tb209 2.399 . S
O223 C238 1.263 . S
O224 Tb209 2.325 . S
O224 C239 1.236 . S
O225 Tb208 2.322 1_554 S
O225 C239 1.257 . S
O226 Tb208 2.349 . S
O226 C210 1.261 . S
O227 Tb209 2.303 1_556 S
O227 C210 1.257 . S
C228 O218 1.236 . S
C228 O219 1.257 1_556 S
O229 Tb208 2.415 1_655 S
O229 C217 1.239 . S
O230 Tb208 2.399 . S
O230 C217 1.263 1_455 S
C231 O220 1.261 . S
C231 O221 1.257 . S
C232 C235 1.358 . S
C232 C236 1.332 . S
C232 C238 1.504 . S
C233 C234 1.373 . S
C233 C237 1.308 . S
C234 C233 1.373 . S
C234 C235 1.429 . S
C234 H244 0.932 . S
C235 C232 1.358 . S
C235 C234 1.429 . S
C235 H245 0.930 . S
C236 C232 1.332 . S
C236 C237 1.394 . S
C236 H246 0.932 . S
C237 C233 1.308 . S
C237 C236 1.394 . S
C237 H247 0.929 . S
C238 Tb209 2.764 . S
C238 O222 1.239 . S
C238 O223 1.263 . S
C238 C232 1.504 . S
C239 O224 1.236 . S
C239 O225 1.257 . S
H240 C213 0.932 . S
H241 C214 0.930 . S
H242 C215 0.932 . S
H243 C216 0.929 . S
H244 C234 0.932 . S
H245 C235 0.930 . S
H246 C236 0.932 . S
H247 C237 0.929 . S
C248 C249 1.349 . S
C248 C250 1.327 . S
C248 H273 0.950 . S
C249 C248 1.349 . S
C249 C265 1.349 . S
C250 C248 1.327 . S
C250 C269 1.429 . S
C250 H274 0.950 . S
C251 C268 1.574 . S
C251 C270 1.368 . S
C251 H275 0.949 . S
H252 C256 0.949 . S
C253 C254 1.349 . S
C253 C255 1.327 . S
C253 H276 0.950 . S
C254 C253 1.349 . S
C254 C266 1.349 . S
C255 C253 1.327 . S
C255 C271 1.429 . S
C255 H277 0.950 . S
C256 H252 0.949 . S
C256 C264 1.574 . S
C256 C272 1.368 . S
H257 C265 0.950 . S
H258 C263 0.950 . S
H259 C264 0.949 . S
H260 C266 0.950 . S
H261 C267 0.950 . S
H262 C268 0.949 . S
C263 H258 0.950 . S
C263 C265 1.327 . S
C263 C269 1.429 . S
C264 C256 1.574 . S
C264 H259 0.949 . S
C264 C270 1.368 . S
C265 C249 1.349 . S
C265 H257 0.950 . S
C265 C263 1.327 . S
C266 C254 1.349 . S
C266 H260 0.950 . S
C266 C267 1.327 . S
C267 H261 0.950 . S
C267 C266 1.327 . S
C267 C271 1.429 . S
C268 C251 1.574 . S
C268 H262 0.949 . S
C268 C272 1.368 . S
C269 C250 1.429 . S
C269 C263 1.429 . S
C269 C270 1.523 . S
C270 C251 1.368 . S
C270 C264 1.368 . S
C270 C269 1.523 . S
C271 C255 1.429 . S
C271 C267 1.429 . S
C271 C272 1.523 . S
C272 C256 1.368 . S
C272 C268 1.368 . S
C272 C271 1.523 . S
H273 C248 0.950 . S
H274 C250 0.950 . S
H275 C251 0.949 . S
H276 C253 0.950 . S
H277 C255 0.950 . S
C278 C279 1.349 . S
C278 C280 1.327 . S
C278 H303 0.950 . S
C279 C278 1.349 . S
C279 C295 1.349 . S
C280 C278 1.327 . S
C280 C299 1.429 . S
C280 H304 0.950 . S
C281 C298 1.574 . S
C281 C300 1.368 . S
C281 H305 0.949 . S
H282 C286 0.949 . S
C283 C284 1.349 . S
C283 C285 1.327 . S
C283 H306 0.950 . S
C284 C283 1.349 . S
C284 C296 1.349 . S
C285 C283 1.327 . S
C285 C301 1.429 . S
C285 H307 0.950 . S
C286 H282 0.949 . S
C286 C294 1.574 . S
C286 C302 1.368 . S
H287 C295 0.950 . S
H288 C293 0.950 . S
H289 C294 0.949 . S
H290 C296 0.950 . S
H291 C297 0.950 . S
H292 C298 0.949 . S
C293 H288 0.950 . S
C293 C295 1.327 . S
C293 C299 1.429 . S
C294 C286 1.574 . S
C294 H289 0.949 . S
C294 C300 1.368 . S
C295 C279 1.349 . S
C295 H287 0.950 . S
C295 C293 1.327 . S
C296 C284 1.349 . S
C296 H290 0.950 . S
C296 C297 1.327 . S
C297 H291 0.950 . S
C297 C296 1.327 . S
C297 C301 1.429 . S
C298 C281 1.574 . S
C298 H292 0.949 . S
C298 C302 1.368 . S
C299 C280 1.429 . S
C299 C293 1.429 . S
C299 C300 1.523 . S
C300 C281 1.368 . S
C300 C294 1.368 . S
C300 C299 1.523 . S
C301 C285 1.429 . S
C301 C297 1.429 . S
C301 C302 1.523 . S
C302 C286 1.368 . S
C302 C298 1.368 . S
C302 C301 1.523 . S
H303 C278 0.950 . S
H304 C280 0.950 . S
H305 C281 0.949 . S
H306 C283 0.950 . S
H307 C285 0.950 . S
C308 C309 1.349 . S
C308 C310 1.327 . S
C308 H333 0.950 . S
C309 C308 1.349 . S
C309 C325 1.349 . S
C310 C308 1.327 . S
C310 C329 1.429 . S
C310 H334 0.950 . S
C311 C328 1.574 . S
C311 C330 1.368 . S
C311 H335 0.949 . S
H312 C316 0.949 . S
C313 C314 1.349 . S
C313 C315 1.327 . S
C313 H336 0.950 . S
C314 C313 1.349 . S
C314 C326 1.349 . S
C315 C313 1.327 . S
C315 C331 1.429 . S
C315 H337 0.950 . S
C316 H312 0.949 . S
C316 C324 1.574 . S
C316 C332 1.368 . S
H317 C325 0.950 . S
H318 C323 0.950 . S
H319 C324 0.949 . S
H320 C326 0.950 . S
H321 C327 0.950 . S
H322 C328 0.949 . S
C323 H318 0.950 . S
C323 C325 1.327 . S
C323 C329 1.429 . S
C324 C316 1.574 . S
C324 H319 0.949 . S
C324 C330 1.368 . S
C325 C309 1.349 . S
C325 H317 0.950 . S
C325 C323 1.327 . S
C326 C314 1.349 . S
C326 H320 0.950 . S
C326 C327 1.327 . S
C327 H321 0.950 . S
C327 C326 1.327 . S
C327 C331 1.429 . S
C328 C311 1.574 . S
C328 H322 0.949 . S
C328 C332 1.368 . S
C329 C310 1.429 . S
C329 C323 1.429 . S
C329 C330 1.523 . S
C330 C311 1.368 . S
C330 C324 1.368 . S
C330 C329 1.523 . S
C331 C315 1.429 . S
C331 C327 1.429 . S
C331 C332 1.523 . S
C332 C316 1.368 . S
C332 C328 1.368 . S
C332 C331 1.523 . S
H333 C308 0.950 . S
H334 C310 0.950 . S
H335 C311 0.949 . S
H336 C313 0.950 . S
H337 C315 0.950 . S
C338 C339 1.349 . S
C338 C340 1.327 . S
C338 H363 0.950 . S
C339 C338 1.349 . S
C339 C355 1.349 . S
C340 C338 1.327 . S
C340 C359 1.429 . S
C340 H364 0.950 . S
C341 C358 1.574 . S
C341 C360 1.368 . S
C341 H365 0.949 . S
H342 C346 0.949 . S
C343 C344 1.349 . S
C343 C345 1.327 . S
C343 H366 0.950 . S
C344 C343 1.349 . S
C344 C356 1.349 . S
C345 C343 1.327 . S
C345 C361 1.429 . S
C345 H367 0.950 . S
C346 H342 0.949 . S
C346 C354 1.574 . S
C346 C362 1.368 . S
H347 C355 0.950 . S
H348 C353 0.950 . S
H349 C354 0.949 . S
H350 C356 0.950 1_455 S
H351 C357 0.956 . S
H352 C358 0.949 . S
C353 H348 0.950 . S
C353 C355 1.327 . S
C353 C359 1.429 . S
C354 C346 1.574 . S
C354 H349 0.949 . S
C354 C360 1.368 . S
C355 C339 1.349 . S
C355 H347 0.950 . S
C355 C353 1.327 . S
C356 C344 1.349 . S
C356 H350 0.950 1_655 S
C356 C357 1.327 . S
C357 H351 0.956 . S
C357 C356 1.327 . S
C357 C361 1.429 . S
C358 C341 1.574 . S
C358 H352 0.949 . S
C358 C362 1.368 . S
C359 C340 1.429 . S
C359 C353 1.429 . S
C359 C360 1.523 . S
C360 C341 1.368 . S
C360 C354 1.368 . S
C360 C359 1.523 . S
C361 C345 1.429 . S
C361 C357 1.429 . S
C361 C362 1.523 . S
C362 C346 1.368 . S
C362 C358 1.368 . S
C362 C361 1.523 . S
H363 C338 0.950 . S
H364 C340 0.950 . S
H365 C341 0.949 . S
H366 C343 0.950 . S
H367 C345 0.950 . S
C368 C369 1.349 . S
C368 C370 1.327 . S
C368 H393 0.950 . S
C369 C368 1.349 . S
C369 C385 1.349 . S
C370 C368 1.327 . S
C370 C389 1.429 . S
C370 H394 0.950 . S
C371 C388 1.574 . S
C371 C390 1.368 . S
C371 H395 0.949 . S
H372 C376 0.949 . S
C373 C374 1.349 . S
C373 C375 1.327 . S
C373 H396 0.950 . S
C374 C373 1.349 . S
C374 C386 1.349 . S
C375 C373 1.327 . S
C375 C391 1.429 . S
C375 H397 0.950 . S
C376 H372 0.949 . S
C376 C384 1.574 . S
C376 C392 1.368 . S
H377 C385 0.950 . S
H378 C383 0.950 . S
H379 C384 0.949 . S
H380 C386 0.950 . S
H381 C387 0.950 . S
H382 C388 0.949 . S
C383 H378 0.950 . S
C383 C385 1.327 . S
C383 C389 1.429 . S
C384 C376 1.574 . S
C384 H379 0.949 . S
C384 C390 1.368 . S
C385 C369 1.349 . S
C385 H377 0.950 . S
C385 C383 1.327 . S
C386 C374 1.349 . S
C386 H380 0.950 . S
C386 C387 1.327 . S
C387 H381 0.950 . S
C387 C386 1.327 . S
C387 C391 1.429 . S
C388 C371 1.574 . S
C388 H382 0.949 . S
C388 C392 1.368 . S
C389 C370 1.429 . S
C389 C383 1.429 . S
C389 C390 1.523 . S
C390 C371 1.368 . S
C390 C384 1.368 . S
C390 C389 1.523 . S
C391 C375 1.429 . S
C391 C387 1.429 . S
C391 C392 1.523 . S
C392 C376 1.368 . S
C392 C388 1.368 . S
C392 C391 1.523 . S
H393 C368 0.950 . S
H394 C370 0.950 . S
H395 C371 0.949 . S
H396 C373 0.950 . S
H397 C375 0.950 . S
C398 C399 1.349 . S
C398 C400 1.327 . S
C398 H423 0.950 . S
C399 C398 1.349 . S
C399 C415 1.349 . S
C400 C398 1.327 . S
C400 C419 1.429 . S
C400 H424 0.950 . S
C401 C418 1.574 . S
C401 C420 1.368 . S
C401 H425 0.949 . S
H402 C406 0.949 . S
C403 C404 1.349 . S
C403 C405 1.327 . S
C403 H426 0.950 . S
C404 C403 1.349 . S
C404 C416 1.349 . S
C405 C403 1.327 . S
C405 C421 1.429 . S
C405 H427 0.950 . S
C406 H402 0.949 . S
C406 C414 1.574 . S
C406 C422 1.368 . S
H407 C415 0.950 . S
H408 C413 0.950 . S
H409 C414 0.949 . S
H410 C416 0.950 1_545 S
H411 C417 0.950 . S
H412 C418 0.949 . S
C413 H408 0.950 . S
C413 C415 1.327 . S
C413 C419 1.429 . S
C414 C406 1.574 . S
C414 H409 0.949 . S
C414 C420 1.368 . S
C415 C399 1.349 . S
C415 H407 0.950 . S
C415 C413 1.327 . S
C416 C404 1.349 . S
C416 H410 0.950 1_565 S
C416 C417 1.327 . S
C417 H411 0.950 . S
C417 C416 1.327 . S
C417 C421 1.429 . S
C418 C401 1.574 . S
C418 H412 0.949 . S
C418 C422 1.368 . S
C419 C400 1.429 . S
C419 C413 1.429 . S
C419 C420 1.523 . S
C420 C401 1.368 . S
C420 C414 1.368 . S
C420 C419 1.523 . S
C421 C405 1.429 . S
C421 C417 1.429 . S
C421 C422 1.523 . S
C422 C406 1.368 . S
C422 C418 1.368 . S
C422 C421 1.523 . S
H423 C398 0.950 . S
H424 C400 0.950 . S
H425 C401 0.949 . S
H426 C403 0.950 . S
H427 C405 0.950 . S
C428 C429 1.349 . S
C428 C430 1.327 . S
C428 H453 0.950 . S
C429 C428 1.349 . S
C429 C445 1.349 . S
C430 C428 1.327 . S
C430 C449 1.429 . S
C430 H454 0.950 . S
C431 C448 1.574 . S
C431 C450 1.368 . S
C431 H455 0.949 . S
H432 C436 0.949 . S
C433 C434 1.349 . S
C433 C435 1.327 . S
C433 H456 0.950 . S
C434 C433 1.349 . S
C434 C446 1.349 . S
C435 C433 1.327 . S
C435 C451 1.429 . S
C435 H457 0.950 . S
C436 H432 0.949 . S
C436 C444 1.574 . S
C436 C452 1.368 . S
H437 C445 0.950 . S
H438 C443 0.950 . S
H439 C444 0.949 . S
H440 C446 0.950 . S
H441 C447 0.950 . S
H442 C448 0.949 . S
C443 H438 0.950 . S
C443 C445 1.327 . S
C443 C449 1.429 . S
C444 C436 1.574 . S
C444 H439 0.949 . S
C444 C450 1.368 . S
C445 C429 1.349 . S
C445 H437 0.950 . S
C445 C443 1.327 . S
C446 C434 1.349 . S
C446 H440 0.950 . S
C446 C447 1.327 . S
C447 H441 0.950 . S
C447 C446 1.327 . S
C447 C451 1.429 . S
C448 C431 1.574 . S
C448 H442 0.949 . S
C448 C452 1.368 . S
C449 C430 1.429 . S
C449 C443 1.429 . S
C449 C450 1.523 . S
C450 C431 1.368 . S
C450 C444 1.368 . S
C450 C449 1.523 . S
C451 C435 1.429 . S
C451 C447 1.429 . S
C451 C452 1.523 . S
C452 C436 1.368 . S
C452 C448 1.368 . S
C452 C451 1.523 . S
H453 C428 0.950 . S
H454 C430 0.950 . S
H455 C431 0.949 . S
H456 C433 0.950 . S
H457 C435 0.950 . S
C458 C459 1.349 . S
C458 C460 1.327 . S
C458 H483 0.950 . S
C459 C458 1.349 . S
C459 C475 1.349 . S
C460 C458 1.327 . S
C460 C479 1.429 . S
C460 H484 0.950 . S
C461 C478 1.574 . S
C461 C480 1.368 . S
C461 H485 0.949 . S
H462 C466 0.949 . S
C463 C464 1.349 . S
C463 C465 1.327 . S
C463 H486 0.950 . S
C464 C463 1.349 . S
C464 C476 1.349 . S
C465 C463 1.327 . S
C465 C481 1.429 . S
C465 H487 0.950 . S
C466 H462 0.949 . S
C466 C474 1.574 . S
C466 C482 1.368 . S
H467 C475 0.950 . S
H468 C473 0.950 . S
H469 C474 0.949 . S
H470 C476 0.950 . S
H471 C477 0.950 . S
H472 C478 0.949 . S
C473 H468 0.950 . S
C473 C475 1.327 . S
C473 C479 1.429 . S
C474 C466 1.574 . S
C474 H469 0.949 . S
C474 C480 1.368 . S
C475 C459 1.349 . S
C475 H467 0.950 . S
C475 C473 1.327 . S
C476 C464 1.349 . S
C476 H470 0.950 . S
C476 C477 1.327 . S
C477 H471 0.950 . S
C477 C476 1.327 . S
C477 C481 1.429 . S
C478 C461 1.574 . S
C478 H472 0.949 . S
C478 C482 1.368 . S
C479 C460 1.429 . S
C479 C473 1.429 . S
C479 C480 1.523 . S
C480 C461 1.368 . S
C480 C474 1.368 . S
C480 C479 1.523 . S
C481 C465 1.429 . S
C481 C477 1.429 . S
C481 C482 1.523 . S
C482 C466 1.368 . S
C482 C478 1.368 . S
C482 C481 1.523 . S
H483 C458 0.950 . S
H484 C460 0.950 . S
H485 C461 0.949 . S
H486 C463 0.950 . S
H487 C465 0.950 . S
C488 C489 1.349 . S
C488 C490 1.327 . S
C488 H513 0.950 . S
C489 C488 1.349 . S
C489 C505 1.349 . S
C490 C488 1.327 . S
C490 C509 1.429 . S
C490 H514 0.950 . S
C491 C508 1.574 . S
C491 C510 1.368 . S
C491 H515 0.949 . S
H492 C496 0.949 . S
C493 C494 1.349 . S
C493 C495 1.327 . S
C493 H516 0.950 . S
C494 C493 1.349 . S
C494 C506 1.349 . S
C495 C493 1.327 . S
C495 C511 1.429 . S
C495 H517 0.950 . S
C496 H492 0.949 . S
C496 C504 1.574 . S
C496 C512 1.368 . S
H497 C505 0.950 . S
H498 C503 0.950 . S
H499 C504 0.949 . S
H500 C506 0.950 . S
H501 C507 0.950 . S
H502 C508 0.949 . S
C503 H498 0.950 . S
C503 C505 1.327 . S
C503 C509 1.429 . S
C504 C496 1.574 . S
C504 H499 0.949 . S
C504 C510 1.368 . S
C505 C489 1.349 . S
C505 H497 0.950 . S
C505 C503 1.327 . S
C506 C494 1.349 . S
C506 H500 0.950 . S
C506 C507 1.327 . S
C507 H501 0.950 . S
C507 C506 1.327 . S
C507 C511 1.429 . S
C508 C491 1.574 . S
C508 H502 0.949 . S
C508 C512 1.368 . S
C509 C490 1.429 . S
C509 C503 1.429 . S
C509 C510 1.523 . S
C510 C491 1.368 . S
C510 C504 1.368 . S
C510 C509 1.523 . S
C511 C495 1.429 . S
C511 C507 1.429 . S
C511 C512 1.523 . S
C512 C496 1.368 . S
C512 C508 1.368 . S
C512 C511 1.523 . S
H513 C488 0.950 . S
H514 C490 0.950 . S
H515 C491 0.949 . S
H516 C493 0.950 . S
H517 C495 0.950 . S
C518 C519 1.349 . S
C518 C520 1.327 . S
C518 H543 0.950 . S
C519 C518 1.349 . S
C519 C535 1.349 . S
C520 C518 1.327 . S
C520 C539 1.429 . S
C520 H544 0.950 . S
C521 C538 1.574 . S
C521 C540 1.368 . S
C521 H545 0.949 . S
H522 C526 0.949 . S
C523 C524 1.349 . S
C523 C525 1.327 1_554 S
C523 H546 0.950 . S
C524 C523 1.349 . S
C524 C536 1.349 . S
C525 C523 1.327 1_556 S
C525 C541 1.429 . S
C525 H547 0.950 . S
C526 H522 0.949 . S
C526 C534 1.574 . S
C526 C542 1.368 . S
H527 C535 0.950 . S
H528 C533 0.950 . S
H529 C534 0.949 . S
H530 C536 0.950 . S
H531 C537 0.950 . S
H532 C538 0.949 . S
C533 H528 0.950 . S
C533 C535 1.327 . S
C533 C539 1.429 . S
C534 C526 1.574 . S
C534 H529 0.949 . S
C534 C540 1.368 . S
C535 C519 1.349 . S
C535 H527 0.950 . S
C535 C533 1.327 . S
C536 C524 1.349 . S
C536 H530 0.950 . S
C536 C537 1.327 1_554 S
C537 H531 0.950 . S
C537 C536 1.327 1_556 S
C537 C541 1.429 . S
C538 C521 1.574 . S
C538 H532 0.949 . S
C538 C542 1.368 . S
C539 C520 1.429 . S
C539 C533 1.429 . S
C539 C540 1.523 . S
C540 C521 1.368 . S
C540 C534 1.368 . S
C540 C539 1.523 . S
C541 C525 1.429 . S
C541 C537 1.429 . S
C541 C542 1.523 . S
C542 C526 1.368 . S
C542 C538 1.368 . S
C542 C541 1.523 . S
H543 C518 0.950 . S
H544 C520 0.950 . S
H545 C521 0.949 . S
H546 C523 0.950 . S
H547 C525 0.950 . S
C548 C549 1.349 . S
C548 C550 1.327 . S
C548 H573 0.950 . S
C549 C548 1.349 . S
C549 C565 1.349 . S
C550 C548 1.327 . S
C550 C569 1.429 . S
C550 H574 0.950 . S
C551 C568 1.574 . S
C551 C570 1.368 . S
C551 H575 0.949 . S
H552 C556 0.949 . S
C553 C554 1.349 . S
C553 C555 1.327 . S
C553 H576 0.950 . S
C554 C553 1.349 . S
C554 C566 1.349 . S
C555 C553 1.327 . S
C555 C571 1.429 . S
C555 H577 0.950 . S
C556 H552 0.949 . S
C556 C564 1.574 . S
C556 C572 1.368 . S
H557 C565 0.950 . S
H558 C563 0.950 . S
H559 C564 0.949 . S
H560 C566 0.950 1_455 S
H561 C567 0.950 . S
H562 C568 0.949 . S
C563 H558 0.950 . S
C563 C565 1.327 . S
C563 C569 1.429 . S
C564 C556 1.574 . S
C564 H559 0.949 . S
C564 C570 1.368 . S
C565 C549 1.349 . S
C565 H557 0.950 . S
C565 C563 1.327 . S
C566 C554 1.349 . S
C566 H560 0.950 1_655 S
C566 C567 1.327 . S
C567 H561 0.950 . S
C567 C566 1.327 . S
C567 C571 1.429 . S
C568 C551 1.574 . S
C568 H562 0.949 . S
C568 C572 1.368 . S
C569 C550 1.429 . S
C569 C563 1.429 . S
C569 C570 1.523 . S
C570 C551 1.368 . S
C570 C564 1.368 . S
C570 C569 1.523 . S
C571 C555 1.429 . S
C571 C567 1.429 . S
C571 C572 1.523 . S
C572 C556 1.368 . S
C572 C568 1.368 . S
C572 C571 1.523 . S
H573 C548 0.950 . S
H574 C550 0.950 . S
H575 C551 0.949 . S
H576 C553 0.950 . S
H577 C555 0.950 . S
C578 C579 1.349 . S
C578 C580 1.327 . S
C578 H603 0.950 . S
C579 C578 1.349 . S
C579 C595 1.349 . S
C580 C578 1.327 . S
C580 C599 1.429 . S
C580 H604 0.950 . S
C581 C598 1.574 . S
C581 C600 1.368 . S
C581 H605 0.949 . S
H582 C586 0.949 . S
C583 C584 1.349 . S
C583 C585 1.327 . S
C583 H606 0.950 . S
C584 C583 1.349 . S
C584 C596 1.349 . S
C585 C583 1.327 . S
C585 C601 1.429 . S
C585 H607 0.950 . S
C586 H582 0.949 . S
C586 C594 1.574 . S
C586 C602 1.368 . S
H587 C595 0.950 . S
H588 C593 0.950 . S
H589 C594 0.949 . S
H590 C596 0.950 . S
H591 C597 0.950 . S
H592 C598 0.949 . S
C593 H588 0.950 . S
C593 C595 1.327 . S
C593 C599 1.429 . S
C594 C586 1.574 . S
C594 H589 0.949 . S
C594 C600 1.368 . S
C595 C579 1.349 . S
C595 H587 0.950 . S
C595 C593 1.327 . S
C596 C584 1.349 . S
C596 H590 0.950 . S
C596 C597 1.327 . S
C597 H591 0.950 . S
C597 C596 1.327 . S
C597 C601 1.429 . S
C598 C581 1.574 . S
C598 H592 0.949 . S
C598 C602 1.368 . S
C599 C580 1.429 . S
C599 C593 1.429 . S
C599 C600 1.523 . S
C600 C581 1.368 . S
C600 C594 1.368 . S
C600 C599 1.523 . S
C601 C585 1.429 . S
C601 C597 1.429 . S
C601 C602 1.523 . S
C602 C586 1.368 . S
C602 C598 1.368 . S
C602 C601 1.523 . S
H603 C578 0.950 . S
H604 C580 0.950 . S
H605 C581 0.949 . S
H606 C583 0.950 . S
H607 C585 0.950 . S
C608 C609 1.349 . S
C608 C610 1.327 . S
C608 H633 0.950 . S
C609 C608 1.349 . S
C609 C625 1.349 . S
C610 C608 1.327 . S
C610 C629 1.429 . S
C610 H634 0.950 . S
C611 C628 1.574 . S
C611 C630 1.368 . S
C611 H635 0.949 . S
H612 C616 0.949 . S
C613 C614 1.349 . S
C613 C615 1.327 . S
C613 H636 0.950 . S
C614 C613 1.349 . S
C614 C626 1.349 . S
C615 C613 1.327 . S
C615 C631 1.429 . S
C615 H637 0.950 . S
C616 H612 0.949 . S
C616 C624 1.574 . S
C616 C632 1.368 . S
H617 C625 0.950 . S
H618 C623 0.950 . S
H619 C624 0.949 . S
H620 C626 0.950 . S
H621 C627 0.950 . S
H622 C628 0.949 . S
C623 H618 0.950 . S
C623 C625 1.327 . S
C623 C629 1.429 . S
C624 C616 1.574 . S
C624 H619 0.949 . S
C624 C630 1.368 . S
C625 C609 1.349 . S
C625 H617 0.950 . S
C625 C623 1.327 . S
C626 C614 1.349 . S
C626 H620 0.950 . S
C626 C627 1.327 . S
C627 H621 0.950 . S
C627 C626 1.327 . S
C627 C631 1.429 . S
C628 C611 1.574 . S
C628 H622 0.949 . S
C628 C632 1.368 . S
C629 C610 1.429 . S
C629 C623 1.429 . S
C629 C630 1.523 . S
C630 C611 1.368 . S
C630 C624 1.368 . S
C630 C629 1.523 . S
C631 C615 1.429 . S
C631 C627 1.429 . S
C631 C632 1.523 . S
C632 C616 1.368 . S
C632 C628 1.368 . S
C632 C631 1.523 . S
H633 C608 0.950 . S
H634 C610 0.950 . S
H635 C611 0.949 . S
H636 C613 0.950 . S
H637 C615 0.950 . S
C638 C639 1.349 . S
C638 C640 1.327 . S
C638 H663 0.950 . S
C639 C638 1.349 . S
C639 C655 1.349 . S
C640 C638 1.327 . S
C640 C659 1.429 . S
C640 H664 0.950 . S
C641 C658 1.574 . S
C641 C660 1.368 . S
C641 H665 0.949 . S
H642 C646 0.949 . S
C643 C644 1.349 . S
C643 C645 1.327 . S
C643 H666 0.950 . S
C644 C643 1.349 . S
C644 C656 1.349 . S
C645 C643 1.327 . S
C645 C661 1.429 . S
C645 H667 0.950 . S
C646 H642 0.949 . S
C646 C654 1.574 . S
C646 C662 1.368 . S
H647 C655 0.950 . S
H648 C653 0.950 . S
H649 C654 0.949 . S
H650 C656 0.950 . S
H651 C657 0.950 . S
H652 C658 0.949 . S
C653 H648 0.950 . S
C653 C655 1.327 . S
C653 C659 1.429 . S
C654 C646 1.574 . S
C654 H649 0.949 . S
C654 C660 1.368 . S
C655 C639 1.349 . S
C655 H647 0.950 . S
C655 C653 1.327 . S
C656 C644 1.349 . S
C656 H650 0.950 . S
C656 C657 1.327 . S
C657 H651 0.950 . S
C657 C656 1.327 . S
C657 C661 1.429 . S
C658 C641 1.574 . S
C658 H652 0.949 . S
C658 C662 1.368 . S
C659 C640 1.429 . S
C659 C653 1.429 . S
C659 C660 1.523 . S
C660 C641 1.368 . S
C660 C654 1.368 . S
C660 C659 1.523 . S
C661 C645 1.429 . S
C661 C657 1.429 . S
C661 C662 1.523 . S
C662 C646 1.368 . S
C662 C658 1.368 . S
C662 C661 1.523 . S
H663 C638 0.950 . S
H664 C640 0.950 . S
H665 C641 0.949 . S
H666 C643 0.950 . S
H667 C645 0.950 . S
C668 C669 1.349 . S
C668 C670 1.327 . S
C668 H693 0.950 . S
C669 C668 1.349 . S
C669 C685 1.349 . S
C670 C668 1.327 . S
C670 C689 1.429 . S
C670 H694 0.950 . S
C671 C688 1.574 . S
C671 C690 1.368 . S
C671 H695 0.949 . S
H672 C676 0.949 . S
C673 C674 1.349 . S
C673 C675 1.327 . S
C673 H696 0.950 . S
C674 C673 1.349 . S
C674 C686 1.349 . S
C675 C673 1.327 . S
C675 C691 1.429 . S
C675 H697 0.950 . S
C676 H672 0.949 . S
C676 C684 1.574 . S
C676 C692 1.368 . S
H677 C685 0.950 . S
H678 C683 0.950 . S
H679 C684 0.949 . S
H680 C686 0.950 . S
H681 C687 0.950 . S
H682 C688 0.949 . S
C683 H678 0.950 . S
C683 C685 1.327 . S
C683 C689 1.429 . S
C684 C676 1.574 . S
C684 H679 0.949 . S
C684 C690 1.368 . S
C685 C669 1.349 . S
C685 H677 0.950 . S
C685 C683 1.327 . S
C686 C674 1.349 . S
C686 H680 0.950 . S
C686 C687 1.327 . S
C687 H681 0.950 . S
C687 C686 1.327 . S
C687 C691 1.429 . S
C688 C671 1.574 . S
C688 H682 0.949 . S
C688 C692 1.368 . S
C689 C670 1.429 . S
C689 C683 1.429 . S
C689 C690 1.523 . S
C690 C671 1.368 . S
C690 C684 1.368 . S
C690 C689 1.523 . S
C691 C675 1.429 . S
C691 C687 1.429 . S
C691 C692 1.523 . S
C692 C676 1.368 . S
C692 C688 1.368 . S
C692 C691 1.523 . S
H693 C668 0.950 . S
H694 C670 0.950 . S
H695 C671 0.949 . S
H696 C673 0.950 . S
H697 C675 0.950 . S
C698 C699 1.349 . S
C698 C700 1.327 . S
C698 H723 0.950 . S
C699 C698 1.349 . S
C699 C715 1.349 . S
C700 C698 1.327 . S
C700 C719 1.429 . S
C700 H724 0.950 . S
C701 C718 1.574 . S
C701 C720 1.368 . S
C701 H725 0.949 . S
H702 C706 0.949 . S
C703 C704 1.349 . S
C703 C705 1.327 . S
C703 H726 0.950 . S
C704 C703 1.349 . S
C704 C716 1.349 . S
C705 C703 1.327 . S
C705 C721 1.429 . S
C705 H727 0.950 . S
C706 H702 0.949 . S
C706 C714 1.574 . S
C706 C722 1.368 . S
H707 C715 0.950 . S
H708 C713 0.950 . S
H709 C714 0.949 . S
H710 C716 0.950 . S
H711 C717 0.950 . S
H712 C718 0.949 . S
C713 H708 0.950 . S
C713 C715 1.327 . S
C713 C719 1.429 . S
C714 C706 1.574 . S
C714 H709 0.949 . S
C714 C720 1.368 . S
C715 C699 1.349 . S
C715 H707 0.950 . S
C715 C713 1.327 . S
C716 C704 1.349 . S
C716 H710 0.950 . S
C716 C717 1.327 . S
C717 H711 0.950 . S
C717 C716 1.327 . S
C717 C721 1.429 . S
C718 C701 1.574 . S
C718 H712 0.949 . S
C718 C722 1.368 . S
C719 C700 1.429 . S
C719 C713 1.429 . S
C719 C720 1.523 . S
C720 C701 1.368 . S
C720 C714 1.368 . S
C720 C719 1.523 . S
C721 C705 1.429 . S
C721 C717 1.429 . S
C721 C722 1.523 . S
C722 C706 1.368 . S
C722 C718 1.368 . S
C722 C721 1.523 . S
H723 C698 0.950 . S
H724 C700 0.950 . S
H725 C701 0.949 . S
H726 C703 0.950 . S
H727 C705 0.950 . S
C728 C729 1.349 . S
C728 C730 1.327 . S
C728 H753 0.950 . S
C729 C728 1.349 . S
C729 C745 1.349 . S
C730 C728 1.327 . S
C730 C749 1.429 . S
C730 H754 0.950 . S
C731 C748 1.574 . S
C731 C750 1.368 . S
C731 H755 0.949 . S
H732 C736 0.949 . S
C733 C734 1.349 . S
C733 C735 1.327 . S
C733 H756 0.950 . S
C734 C733 1.349 . S
C734 C746 1.349 1_554 S
C735 C733 1.327 . S
C735 C751 1.429 1_554 S
C735 H757 0.950 . S
C736 H732 0.949 . S
C736 C744 1.574 . S
C736 C752 1.368 . S
H737 C745 0.950 . S
H738 C743 0.950 . S
H739 C744 0.949 . S
H740 C746 0.950 1_545 S
H741 C747 0.950 . S
H742 C748 0.949 1_554 S
C743 H738 0.950 . S
C743 C745 1.327 . S
C743 C749 1.429 . S
C744 C736 1.574 . S
C744 H739 0.949 . S
C744 C750 1.368 . S
C745 C729 1.349 . S
C745 H737 0.950 . S
C745 C743 1.327 . S
C746 C734 1.349 1_556 S
C746 H740 0.950 1_565 S
C746 C747 1.327 . S
C747 H741 0.950 . S
C747 C746 1.327 . S
C747 C751 1.429 . S
C748 C731 1.574 . S
C748 H742 0.949 1_556 S
C748 C752 1.368 . S
C749 C730 1.429 . S
C749 C743 1.429 . S
C749 C750 1.523 . S
C750 C731 1.368 . S
C750 C744 1.368 . S
C750 C749 1.523 . S
C751 C735 1.429 1_556 S
C751 C747 1.429 . S
C751 C752 1.523 . S
C752 C736 1.368 . S
C752 C748 1.368 . S
C752 C751 1.523 . S
H753 C728 0.950 . S
H754 C730 0.950 . S
H755 C731 0.949 . S
H756 C733 0.950 . S
H757 C735 0.950 . S
C758 C759 1.349 . S
C758 C760 1.327 . S
C758 H783 0.950 . S
C759 C758 1.349 . S
C759 C775 1.349 . S
C760 C758 1.327 . S
C760 C779 1.429 . S
C760 H784 0.950 . S
C761 C778 1.574 . S
C761 C780 1.368 . S
C761 H785 0.949 . S
H762 C766 0.949 . S
C763 C764 1.349 . S
C763 C765 1.327 . S
C763 H786 0.950 . S
C764 C763 1.349 . S
C764 C776 1.349 . S
C765 C763 1.327 . S
C765 C781 1.429 . S
C765 H787 0.950 . S
C766 H762 0.949 . S
C766 C774 1.574 . S
C766 C782 1.368 . S
H767 C775 0.950 . S
H768 C773 0.950 . S
H769 C774 0.949 . S
H770 C776 0.950 . S
H771 C777 0.950 . S
H772 C778 0.949 . S
C773 H768 0.950 . S
C773 C775 1.327 . S
C773 C779 1.429 . S
C774 C766 1.574 . S
C774 H769 0.949 . S
C774 C780 1.368 . S
C775 C759 1.349 . S
C775 H767 0.950 . S
C775 C773 1.327 . S
C776 C764 1.349 . S
C776 H770 0.950 . S
C776 C777 1.327 . S
C777 H771 0.950 . S
C777 C776 1.327 . S
C777 C781 1.429 . S
C778 C761 1.574 . S
C778 H772 0.949 . S
C778 C782 1.368 . S
C779 C760 1.429 . S
C779 C773 1.429 . S
C779 C780 1.523 . S
C780 C761 1.368 . S
C780 C774 1.368 . S
C780 C779 1.523 . S
C781 C765 1.429 . S
C781 C777 1.429 . S
C781 C782 1.523 . S
C782 C766 1.368 . S
C782 C778 1.368 . S
C782 C781 1.523 . S
H783 C758 0.950 . S
H784 C760 0.950 . S
H785 C761 0.949 . S
H786 C763 0.950 . S
H787 C765 0.950 . S
C788 C789 1.349 . S
C788 C790 1.327 . S
C788 H813 0.950 . S
C789 C788 1.349 . S
C789 C805 1.349 . S
C790 C788 1.327 . S
C790 C809 1.429 . S
C790 H814 0.950 . S
C791 C808 1.574 . S
C791 C810 1.368 . S
C791 H815 0.949 . S
H792 C796 0.949 . S
C793 C794 1.349 . S
C793 C795 1.327 . S
C793 H816 0.950 . S
C794 C793 1.349 . S
C794 C806 1.349 . S
C795 C793 1.327 . S
C795 C811 1.429 . S
C795 H817 0.950 . S
C796 H792 0.949 . S
C796 C804 1.574 . S
C796 C812 1.368 . S
H797 C805 0.950 . S
H798 C803 0.950 . S
H799 C804 0.949 . S
H800 C806 0.950 . S
H801 C807 0.950 . S
H802 C808 0.949 . S
C803 H798 0.950 . S
C803 C805 1.327 . S
C803 C809 1.429 . S
C804 C796 1.574 . S
C804 H799 0.949 . S
C804 C810 1.368 . S
C805 C789 1.349 . S
C805 H797 0.950 . S
C805 C803 1.327 . S
C806 C794 1.349 . S
C806 H800 0.950 . S
C806 C807 1.327 . S
C807 H801 0.950 . S
C807 C806 1.327 . S
C807 C811 1.429 . S
C808 C791 1.574 . S
C808 H802 0.949 . S
C808 C812 1.368 . S
C809 C790 1.429 . S
C809 C803 1.429 . S
C809 C810 1.523 . S
C810 C791 1.368 . S
C810 C804 1.368 . S
C810 C809 1.523 . S
C811 C795 1.429 . S
C811 C807 1.429 . S
C811 C812 1.523 . S
C812 C796 1.368 . S
C812 C808 1.368 . S
C812 C811 1.523 . S
H813 C788 0.950 . S
H814 C790 0.950 . S
H815 C791 0.949 . S
H816 C793 0.950 . S
H817 C795 0.950 . S
C818 C819 1.349 . S
C818 C820 1.327 . S
C818 H843 0.950 . S
C819 C818 1.349 . S
C819 C835 1.349 . S
C820 C818 1.327 . S
C820 C839 1.429 . S
C820 H844 0.950 . S
C821 C838 1.574 . S
C821 C840 1.368 . S
C821 H845 0.949 . S
H822 C826 0.949 . S
C823 C824 1.349 . S
C823 C825 1.327 . S
C823 H846 0.950 . S
C824 C823 1.349 . S
C824 C836 1.349 . S
C825 C823 1.327 . S
C825 C841 1.429 . S
C825 H847 0.950 . S
C826 H822 0.949 . S
C826 C834 1.574 . S
C826 C842 1.368 . S
H827 C835 0.950 . S
H828 C833 0.950 . S
H829 C834 0.949 . S
H830 C836 0.950 . S
H831 C837 0.950 . S
H832 C838 0.949 . S
C833 H828 0.950 . S
C833 C835 1.327 . S
C833 C839 1.429 . S
C834 C826 1.574 . S
C834 H829 0.949 . S
C834 C840 1.368 . S
C835 C819 1.349 . S
C835 H827 0.950 . S
C835 C833 1.327 . S
C836 C824 1.349 . S
C836 H830 0.950 . S
C836 C837 1.327 . S
C837 H831 0.950 . S
C837 C836 1.327 . S
C837 C841 1.429 . S
C838 C821 1.574 . S
C838 H832 0.949 . S
C838 C842 1.368 . S
C839 C820 1.429 . S
C839 C833 1.429 . S
C839 C840 1.523 . S
C840 C821 1.368 . S
C840 C834 1.368 . S
C840 C839 1.523 . S
C841 C825 1.429 . S
C841 C837 1.429 . S
C841 C842 1.523 . S
C842 C826 1.368 . S
C842 C838 1.368 . S
C842 C841 1.523 . S
H843 C818 0.950 . S
H844 C820 0.950 . S
H845 C821 0.949 . S
H846 C823 0.950 . S
H847 C825 0.950 . S
C848 C849 1.349 . S
C848 C850 1.327 . S
C848 H873 0.950 . S
C849 C848 1.349 . S
C849 C865 1.349 . S
C850 C848 1.327 . S
C850 C869 1.429 . S
C850 H874 0.950 . S
C851 C868 1.574 . S
C851 C870 1.368 . S
C851 H875 0.949 . S
H852 C856 0.949 . S
C853 C854 1.349 . S
C853 C855 1.327 . S
C853 H876 0.950 . S
C854 C853 1.349 . S
C854 C866 1.349 . S
C855 C853 1.327 . S
C855 C871 1.429 . S
C855 H877 0.950 . S
C856 H852 0.949 . S
C856 C864 1.574 . S
C856 C872 1.368 . S
H857 C865 0.950 . S
H858 C863 0.950 . S
H859 C864 0.949 . S
H860 C866 0.950 . S
H861 C867 0.950 . S
H862 C868 0.949 . S
C863 H858 0.950 . S
C863 C865 1.327 . S
C863 C869 1.429 . S
C864 C856 1.574 . S
C864 H859 0.949 . S
C864 C870 1.368 . S
C865 C849 1.349 . S
C865 H857 0.950 . S
C865 C863 1.327 . S
C866 C854 1.349 . S
C866 H860 0.950 . S
C866 C867 1.327 . S
C867 H861 0.950 . S
C867 C866 1.327 . S
C867 C871 1.429 . S
C868 C851 1.574 . S
C868 H862 0.949 . S
C868 C872 1.368 . S
C869 C850 1.429 . S
C869 C863 1.429 . S
C869 C870 1.523 . S
C870 C851 1.368 . S
C870 C864 1.368 . S
C870 C869 1.523 . S
C871 C855 1.429 . S
C871 C867 1.429 . S
C871 C872 1.523 . S
C872 C856 1.368 . S
C872 C868 1.368 . S
C872 C871 1.523 . S
H873 C848 0.950 . S
H874 C850 0.950 . S
H875 C851 0.949 . S
H876 C853 0.950 . S
H877 C855 0.950 . S
C878 C879 1.349 . S
C878 C880 1.327 . S
C878 H903 0.950 . S
C879 C878 1.349 . S
C879 C895 1.349 . S
C880 C878 1.327 . S
C880 C899 1.429 . S
C880 H904 0.950 . S
C881 C898 1.574 . S
C881 C900 1.368 . S
C881 H905 0.949 . S
H882 C886 0.949 . S
C883 C884 1.349 . S
C883 C885 1.327 . S
C883 H906 0.950 . S
C884 C883 1.349 . S
C884 C896 1.349 . S
C885 C883 1.327 . S
C885 C901 1.429 . S
C885 H907 0.950 . S
C886 H882 0.949 . S
C886 C894 1.574 . S
C886 C902 1.368 . S
H887 C895 0.950 . S
H888 C893 0.950 . S
H889 C894 0.949 . S
H890 C896 0.950 . S
H891 C897 0.950 . S
H892 C898 0.949 . S
C893 H888 0.950 . S
C893 C895 1.327 . S
C893 C899 1.429 . S
C894 C886 1.574 . S
C894 H889 0.949 . S
C894 C900 1.368 . S
C895 C879 1.349 . S
C895 H887 0.950 . S
C895 C893 1.327 . S
C896 C884 1.349 . S
C896 H890 0.950 . S
C896 C897 1.327 . S
C897 H891 0.950 . S
C897 C896 1.327 . S
C897 C901 1.429 . S
C898 C881 1.574 . S
C898 H892 0.949 . S
C898 C902 1.368 . S
C899 C880 1.429 . S
C899 C893 1.429 . S
C899 C900 1.523 . S
C900 C881 1.368 . S
C900 C894 1.368 . S
C900 C899 1.523 . S
C901 C885 1.429 . S
C901 C897 1.429 . S
C901 C902 1.523 . S
C902 C886 1.368 . S
C902 C898 1.368 . S
C902 C901 1.523 . S
H903 C878 0.950 . S
H904 C880 0.950 . S
H905 C881 0.949 . S
H906 C883 0.950 . S
H907 C885 0.950 . S
C908 C909 1.349 . S
C908 C910 1.327 . S
C908 H933 0.950 . S
C909 C908 1.349 . S
C909 C925 1.349 . S
C910 C908 1.327 . S
C910 C929 1.429 . S
C910 H934 0.950 . S
C911 C928 1.574 . S
C911 C930 1.368 . S
C911 H935 0.949 . S
H912 C916 0.949 . S
C913 C914 1.349 . S
C913 C915 1.327 . S
C913 H936 0.950 . S
C914 C913 1.349 . S
C914 C926 1.349 . S
C915 C913 1.327 . S
C915 C931 1.429 . S
C915 H937 0.950 . S
C916 H912 0.949 . S
C916 C924 1.574 . S
C916 C932 1.368 . S
H917 C925 0.950 . S
H918 C923 0.950 . S
H919 C924 0.949 . S
H920 C926 0.950 . S
H921 C927 0.950 . S
H922 C928 0.949 . S
C923 H918 0.950 . S
C923 C925 1.327 . S
C923 C929 1.429 . S
C924 C916 1.574 . S
C924 H919 0.949 . S
C924 C930 1.368 . S
C925 C909 1.349 . S
C925 H917 0.950 . S
C925 C923 1.327 . S
C926 C914 1.349 . S
C926 H920 0.950 . S
C926 C927 1.327 . S
C927 H921 0.950 . S
C927 C926 1.327 . S
C927 C931 1.429 . S
C928 C911 1.574 . S
C928 H922 0.949 . S
C928 C932 1.368 . S
C929 C910 1.429 . S
C929 C923 1.429 . S
C929 C930 1.523 . S
C930 C911 1.368 . S
C930 C924 1.368 . S
C930 C929 1.523 . S
C931 C915 1.429 . S
C931 C927 1.429 . S
C931 C932 1.523 . S
C932 C916 1.368 . S
C932 C928 1.368 . S
C932 C931 1.523 . S
H933 C908 0.950 . S
H934 C910 0.950 . S
H935 C911 0.949 . S
H936 C913 0.950 . S
H937 C915 0.950 . S
C938 C939 1.349 . S
C938 C940 1.327 . S
C938 H963 0.950 . S
C939 C938 1.349 . S
C939 C955 1.349 . S
C940 C938 1.327 . S
C940 C959 1.429 . S
C940 H964 0.950 . S
C941 C958 1.574 . S
C941 C960 1.368 . S
C941 H965 0.949 . S
H942 C946 0.949 . S
C943 C944 1.349 . S
C943 C945 1.327 . S
C943 H966 0.950 . S
C944 C943 1.349 . S
C944 C956 1.349 . S
C945 C943 1.327 . S
C945 C961 1.429 . S
C945 H967 0.950 . S
C946 H942 0.949 . S
C946 C954 1.574 . S
C946 C962 1.368 . S
H947 C955 0.950 . S
H948 C953 0.950 . S
H949 C954 0.949 . S
H950 C956 0.950 . S
H951 C957 0.950 . S
H952 C958 0.949 . S
C953 H948 0.950 . S
C953 C955 1.327 . S
C953 C959 1.429 . S
C954 C946 1.574 . S
C954 H949 0.949 . S
C954 C960 1.368 . S
C955 C939 1.349 . S
C955 H947 0.950 . S
C955 C953 1.327 . S
C956 C944 1.349 . S
C956 H950 0.950 . S
C956 C957 1.327 . S
C957 H951 0.950 . S
C957 C956 1.327 . S
C957 C961 1.429 . S
C958 C941 1.574 . S
C958 H952 0.949 . S
C958 C962 1.368 . S
C959 C940 1.429 . S
C959 C953 1.429 . S
C959 C960 1.523 . S
C960 C941 1.368 . S
C960 C954 1.368 . S
C960 C959 1.523 . S
C961 C945 1.429 . S
C961 C957 1.429 . S
C961 C962 1.523 . S
C962 C946 1.368 . S
C962 C958 1.368 . S
C962 C961 1.523 . S
H963 C938 0.950 . S
H964 C940 0.950 . S
H965 C941 0.949 . S
H966 C943 0.950 . S
H967 C945 0.950 . S
C249 C4 0.883 . S
C254 C92 0.888 . S
C279 C16 1.369 . S
C284 C153 1.403 . S
C314 C191 2.035 . S
C309 C32 2.072 . S
C339 C43 2.196 . S
C344 C231 2.152 1_655 S
C374 C151 1.840 . S
C369 C5 1.840 . S
C404 C119 1.662 . S
C399 C21 1.611 . S
C434 C228 1.586 . S
C429 C27 1.589 . S
C464 C188 1.613 . S
C459 C37 1.639 . S
C489 C10 0.924 . S
C494 C233 0.925 . S
C524 C148 2.631 . S
C519 C26 2.629 . S
C549 C38 1.822 . S
C554 C90 1.796 . S
C579 C15 1.522 . S
C584 C193 1.558 . S
C614 C113 1.081 . S
C609 C48 1.071 . S
C639 C59 1.095 . S
C644 C132 1.105 . S
C669 C76 2.428 . S
C674 C170 2.366 . S
C699 C87 1.911 . S
C704 C210 1.894 . S
C729 C54 0.954 . S
C734 C130 0.956 1_565 S
C764 C108 2.477 . S
C759 C60 2.422 . S
C794 C239 1.463 . S
C789 C71 1.462 . S
C824 C199 1.722 . S
C819 C82 1.727 . S
C849 C49 1.249 . S
C854 C212 1.278 . S
C884 C159 2.015 . S
C879 C70 2.020 . S
C914 C111 2.324 . S
C909 C81 2.369 . S
C939 C65 1.273 . S
C944 C172 1.298 . S
