# Generated by pormake.
# Topology rtl, (3,6)-cn, num edge types: 1
# Building blocks:
#     Node 0, Type 0, BuildingBlock: CUQRIR_clean_linker_1, # of connection points: 3
#     Node 1, Type 0, BuildingBlock: CUQRIR_clean_linker_1, # of connection points: 3
#     Node 2, Type 0, BuildingBlock: CUQRIR_clean_linker_1, # of connection points: 3
#     Node 3, Type 0, BuildingBlock: CUQRIR_clean_linker_1, # of connection points: 3
#     Node 4, Type 1, BuildingBlock: LEVNOQ01_clean_sbu_1, # of connection points: 6
#     Node 5, Type 1, BuildingBlock: LEVNOQ01_clean_sbu_1, # of connection points: 6
#     Edge 6, Type (0, 1), BuildingBlock: ZUJKAS_clean_linker_0, # of connection points: 2
#     Edge 7, Type (0, 1), BuildingBlock: ZUJKAS_clean_linker_0, # of connection points: 2
#     Edge 8, Type (0, 1), BuildingBlock: ZUJKAS_clean_linker_0, # of connection points: 2
#     Edge 9, Type (0, 1), BuildingBlock: ZUJKAS_clean_linker_0, # of connection points: 2
#     Edge 10, Type (0, 1), BuildingBlock: ZUJKAS_clean_linker_0, # of connection points: 2
#     Edge 11, Type (0, 1), BuildingBlock: ZUJKAS_clean_linker_0, # of connection points: 2
#     Edge 12, Type (0, 1), BuildingBlock: ZUJKAS_clean_linker_0, # of connection points: 2
#     Edge 13, Type (0, 1), BuildingBlock: ZUJKAS_clean_linker_0, # of connection points: 2
#     Edge 14, Type (0, 1), BuildingBlock: ZUJKAS_clean_linker_0, # of connection points: 2
#     Edge 15, Type (0, 1), BuildingBlock: ZUJKAS_clean_linker_0, # of connection points: 2
#     Edge 16, Type (0, 1), BuildingBlock: ZUJKAS_clean_linker_0, # of connection points: 2
#     Edge 17, Type (0, 1), BuildingBlock: ZUJKAS_clean_linker_0, # of connection points: 2
# Relax obj value: 0.023
# Max RMSD: 0.126
# Mean RMSD: 0.104
data_MOF--net-rtl--node1-LEVNOQ01_clean_sbu_1--node2-CUQRIR_clean_linker_1--edge1-ZUJKAS_clean_linker_0
_symmetry_space_group_name_H-M    P1
_symmetry_Int_Tables_number       1
_symmetry_cell_setting            triclinic
loop_
_symmetry_equiv_pos_as_xyz
'x, y, z'
_cell_length_a     43.719598
_cell_length_b     43.897255
_cell_length_c     27.191165
_cell_angle_alpha  90.000955
_cell_angle_beta   97.401982
_cell_angle_gamma 89.867925
loop_
_atom_site_label
_atom_site_type_symbol
_atom_site_fract_x
_atom_site_fract_y
_atom_site_fract_z
_atom_type_partial_charge
C0 C 0.23256 0.80897 0.04633 0.0
N1 N 0.21115 0.82866 0.05937 0.0
N2 N 0.24701 0.79458 0.08683 0.0
C3 C 0.23816 0.80263 0.99387 0.0
C4 C 0.2335 0.80604 0.12492 0.0
N5 N 0.2114 0.82655 0.10812 0.0
C6 C 0.24148 0.79637 0.17813 0.0
H7 H 0.21921 0.78813 0.97574 0.0
H8 H 0.26045 0.7907 0.99268 0.0
H9 H 0.23807 0.82413 0.97246 0.0
H10 H 0.2668 0.79724 0.18881 0.0
H11 H 0.23415 0.77241 0.18207 0.0
H12 H 0.23039 0.81102 0.20395 0.0
C13 C 0.71352 0.71531 0.62049 0.0
N14 N 0.69277 0.69455 0.60033 0.0
N15 N 0.72313 0.73293 0.58486 0.0
C16 C 0.72451 0.71826 0.67502 0.0
C17 C 0.70775 0.72208 0.54217 0.0
N18 N 0.68941 0.69834 0.55137 0.0
C19 C 0.71003 0.73566 0.49194 0.0
H20 H 0.70823 0.73316 0.69205 0.0
H21 H 0.74774 0.72869 0.68165 0.0
H22 H 0.72497 0.69567 0.69344 0.0
H23 H 0.73001 0.72542 0.47662 0.0
H24 H 0.71397 0.76058 0.49493 0.0
H25 H 0.68875 0.73144 0.46597 0.0
C26 C 0.8022 0.2117 0.03976 0.0
N27 N 0.82358 0.19209 0.02644 0.0
N28 N 0.78738 0.22587 0.99936 0.0
C29 C 0.7972 0.21838 0.09239 0.0
C30 C 0.80048 0.21425 0.96103 0.0
N31 N 0.82257 0.1937 0.97748 0.0
C32 C 0.79103 0.2224 0.90753 0.0
H33 H 0.8031 0.19826 0.11652 0.0
H34 H 0.77301 0.22526 0.09465 0.0
H35 H 0.81244 0.23748 0.10648 0.0
H36 H 0.80616 0.24094 0.89711 0.0
H37 H 0.7668 0.23055 0.90144 0.0
H38 H 0.79366 0.20252 0.88319 0.0
C39 C 0.28546 0.30916 0.45135 0.0
N40 N 0.30861 0.32827 0.46886 0.0
N41 N 0.27593 0.2929 0.48894 0.0
C42 C 0.27255 0.3059 0.39759 0.0
C43 C 0.29421 0.30278 0.52981 0.0
N44 N 0.31421 0.32401 0.51747 0.0
C45 C 0.29283 0.29153 0.58176 0.0
H46 H 0.24808 0.2986 0.39372 0.0
H47 H 0.28608 0.28835 0.38041 0.0
H48 H 0.27416 0.32747 0.377 0.0
H49 H 0.28484 0.26756 0.58155 0.0
H50 H 0.27635 0.3059 0.59929 0.0
H51 H 0.3157 0.29324 0.60459 0.0
O52 O 0.0085 0.02783 0.65657 0.0
Mg53 Mg 0.04429 0.02511 0.61045 0.0
O54 O 0.97702 0.03081 0.58772 0.0
Mg55 Mg 0.01015 0.00451 0.54232 0.0
O56 O 0.04583 0.04627 0.54414 0.0
O57 O 0.06555 0.06563 0.61796 0.0
O58 O 0.04194 0.97831 0.49357 0.0
O59 O 0.99184 0.03625 0.47408 0.0
Mg60 Mg 0.97044 0.98334 0.46993 0.0
O61 O 0.97221 0.9653 0.53946 0.0
O62 O 0.00713 0.97479 0.42764 0.0
O63 O 0.94394 0.02288 0.45461 0.0
O64 O 0.9427 0.94713 0.47168 0.0
C65 C 0.05884 0.96966 0.63177 0.0
C66 C 0.98192 0.03348 0.63452 0.0
C67 C 0.06133 0.06733 0.5703 0.0
C68 C 0.03477 0.97201 0.44774 0.0
C69 C 0.96505 0.04191 0.45171 0.0
C70 C 0.95131 0.94654 0.51881 0.0
O71 O 0.07698 0.99098 0.62501 0.0
O72 O 0.03086 0.97177 0.61132 0.0
O73 O 0.57323 0.52358 0.12027 0.0
Mg74 Mg 0.54598 0.48482 0.10277 0.0
O75 O 0.52587 0.53893 0.10123 0.0
Mg76 Mg 0.5054 0.50799 0.03336 0.0
O77 O 0.5428 0.46797 0.03252 0.0
O78 O 0.57382 0.44909 0.09833 0.0
O79 O 0.4802 0.48086 0.9652 0.0
O80 O 0.53768 0.53297 0.98379 0.0
Mg81 Mg 0.46952 0.5529 0.95559 0.0
O82 O 0.46922 0.54634 0.02958 0.0
O83 O 0.45159 0.51405 0.91756 0.0
O84 O 0.51224 0.56981 0.94029 0.0
O85 O 0.43994 0.58114 0.98574 0.0
C86 C 0.483 0.47127 0.12722 0.0
C87 C 0.55286 0.54342 0.12357 0.0
C88 C 0.56394 0.44885 0.05163 0.0
C89 C 0.4604 0.48697 0.92759 0.0
C90 C 0.53707 0.55558 0.95418 0.0
C91 C 0.44884 0.56794 0.02753 0.0
O92 O 0.51109 0.47209 0.14568 0.0
O93 O 0.47472 0.48194 0.08389 0.0
H94 H 0.22774 0.29231 0.54132 0.0
H95 H 0.18778 0.25316 0.53949 0.0
H96 H 0.22866 0.20493 0.42579 0.0
H97 H 0.26986 0.24306 0.43041 0.0
H98 H 0.14452 0.23502 0.46898 0.0
H99 H 0.22319 0.13753 0.52217 0.0
H100 H 0.2364 0.17642 0.52504 0.0
H101 H 0.23072 0.15656 0.46666 0.0
C102 C 0.22833 0.27307 0.51655 0.0
C103 C 0.25186 0.27044 0.48631 0.0
C104 C 0.2054 0.25089 0.51511 0.0
C105 C 0.20543 0.2258 0.48301 0.0
C106 C 0.22853 0.22363 0.45171 0.0
H107 H 0.07669 0.07037 0.47557 0.0
H108 H 0.10816 0.10998 0.44233 0.0
C109 C 0.25178 0.24558 0.45382 0.0
C110 C 0.18128 0.20208 0.4829 0.0
H111 H 0.17026 0.12657 0.50537 0.0
C112 C 0.15018 0.21127 0.47649 0.0
C113 C 0.18863 0.171 0.49261 0.0
C114 C 0.22153 0.15977 0.50248 0.0
C115 C 0.12642 0.1905 0.48138 0.0
C116 C 0.13391 0.15977 0.49233 0.0
C117 C 0.16472 0.15018 0.49628 0.0
C118 C 0.11104 0.13833 0.50784 0.0
C119 C 0.09353 0.20166 0.47665 0.0
C120 C 0.10203 0.14157 0.55513 0.0
C121 C 0.08462 0.11902 0.57429 0.0
C122 C 0.07572 0.0928 0.54639 0.0
C123 C 0.08325 0.09035 0.49782 0.0
C124 C 0.10117 0.11287 0.47885 0.0
H125 H 0.09076 0.22414 0.45781 0.0
H126 H 0.07779 0.18499 0.45573 0.0
H127 H 0.08645 0.20407 0.51422 0.0
H128 H 0.10974 0.16092 0.57819 0.0
H129 H 0.07897 0.12168 0.61171 0.0
H130 H 0.3057 0.79556 0.13057 0.0
H131 H 0.34262 0.75287 0.13719 0.0
H132 H 0.27441 0.69604 0.05333 0.0
H133 H 0.23742 0.73881 0.04713 0.0
H134 H 0.31444 0.6754 0.16121 0.0
H135 H 0.37538 0.71121 1.00275 0.0
H136 H 0.36266 0.73993 0.04309 0.0
H137 H 0.33474 0.71846 0.0034 0.0
C138 C 0.29874 0.77386 0.11387 0.0
C139 C 0.26893 0.77009 0.08874 0.0
C140 C 0.31967 0.74963 0.11758 0.0
C141 C 0.311 0.72139 0.09614 0.0
C142 C 0.28131 0.71767 0.07044 0.0
H143 H 0.39489 0.55153 0.05707 0.0
H144 H 0.36156 0.58847 0.09108 0.0
C145 C 0.26039 0.74196 0.06666 0.0
C146 C 0.33331 0.69599 0.09991 0.0
H147 H 0.39453 0.6683 0.04807 0.0
C148 C 0.33207 0.67375 0.1367 0.0
C149 C 0.35608 0.69412 0.06775 0.0
C150 C 0.35749 0.71705 0.02677 0.0
C151 C 0.3534 0.64957 0.14229 0.0
C152 C 0.37628 0.64775 0.11016 0.0
C153 C 0.37737 0.6701 0.07341 0.0
C154 C 0.39774 0.62162 0.11005 0.0
C155 C 0.35149 0.6263 0.18253 0.0
C156 C 0.42958 0.62699 0.11291 0.0
C157 C 0.44865 0.60575 0.09356 0.0
C158 C 0.43594 0.57911 0.07107 0.0
C159 C 0.40519 0.57175 0.07507 0.0
C160 C 0.38608 0.59298 0.09433 0.0
H161 H 0.33761 0.63474 0.21121 0.0
H162 H 0.34034 0.60536 0.16594 0.0
H163 H 0.3749 0.62004 0.20061 0.0
H164 H 0.439 0.64899 0.1248 0.0
H165 H 0.47223 0.61206 0.09003 0.0
H166 H 0.78334 0.72001 0.60007 0.0
H167 H 0.82625 0.7565 0.60545 0.0
H168 H 0.76091 0.83073 0.58517 0.0
H169 H 0.71812 0.79397 0.58045 0.0
H170 H 0.83626 0.79698 0.53023 0.0
H171 H 0.82235 0.8591 0.7038 0.0
H172 H 0.80451 0.82263 0.68859 0.0
H173 H 0.78796 0.85681 0.66001 0.0
C174 C 0.77843 0.74419 0.59747 0.0
C175 C 0.74786 0.75452 0.59011 0.0
C176 C 0.80274 0.76494 0.60053 0.0
C177 C 0.79675 0.79633 0.59651 0.0
C178 C 0.76604 0.80666 0.58952 0.0
H179 H 0.89412 0.95673 0.54016 0.0
H180 H 0.85918 0.91912 0.5688 0.0
C181 C 0.74171 0.78582 0.58645 0.0
C182 C 0.82261 0.81796 0.59554 0.0
H183 H 0.85701 0.88073 0.65243 0.0
C184 C 0.84111 0.81504 0.55734 0.0
C185 C 0.82866 0.84157 0.63081 0.0
C186 C 0.81001 0.84516 0.67342 0.0
C187 C 0.8649 0.83572 0.55235 0.0
C188 C 0.87085 0.85954 0.58735 0.0
C189 C 0.85265 0.8622 0.62608 0.0
C190 C 0.89371 0.88359 0.58085 0.0
C191 C 0.88246 0.83276 0.50826 0.0
C192 C 0.92509 0.87652 0.58057 0.0
C193 C 0.94512 0.8981 0.56432 0.0
C194 C 0.93393 0.92694 0.54878 0.0
C195 C 0.9032 0.93467 0.55268 0.0
C196 C 0.88326 0.91321 0.56889 0.0
H197 H 0.87098 0.81694 0.47979 0.0
H198 H 0.88492 0.85529 0.49064 0.0
H199 H 0.90592 0.82379 0.52078 0.0
H200 H 0.93363 0.85383 0.59021 0.0
H201 H 0.96868 0.89165 0.56083 0.0
H202 H 0.72924 0.21805 0.01822 0.0
H203 H 0.68865 0.25718 0.01465 0.0
H204 H 0.7527 0.3243 0.97332 0.0
H205 H 0.79298 0.28481 0.97611 0.0
H206 H 0.69031 0.31042 0.0704 0.0
H207 H 0.67771 0.33716 0.86892 0.0
H208 H 0.69719 0.3033 0.89463 0.0
H209 H 0.71625 0.33957 0.90082 0.0
C210 C 0.73436 0.2412 0.0083 0.0
C211 C 0.76387 0.24878 0.99755 0.0
C212 C 0.71134 0.26344 0.00612 0.0
C213 C 0.71755 0.29353 0.99297 0.0
C214 C 0.74722 0.3011 0.98239 0.0
H215 H 0.61216 0.46009 1.00182 0.0
H216 H 0.64879 0.42147 0.98003 0.0
C217 C 0.77018 0.27876 0.98433 0.0
C218 C 0.69329 0.31714 0.99277 0.0
H219 H 0.64924 0.36784 0.91882 0.0
C220 C 0.68121 0.32284 0.0372 0.0
C221 C 0.6818 0.33359 0.94951 0.0
C222 C 0.69368 0.32802 0.90061 0.0
C223 C 0.65795 0.34458 0.03968 0.0
C224 C 0.64585 0.36049 0.99616 0.0
C225 C 0.65827 0.35524 0.95185 0.0
C226 C 0.62085 0.38321 0.99703 0.0
C227 C 0.64703 0.3508 0.08921 0.0
C228 C 0.59226 0.37439 0.01066 0.0
C229 C 0.57143 0.39638 0.02309 0.0
C230 C 0.57868 0.42738 0.02091 0.0
C231 C 0.60586 0.43624 1.00253 0.0
C232 C 0.62686 0.41424 0.99052 0.0
H233 H 0.66376 0.34244 0.12056 0.0
H234 H 0.64326 0.37556 0.09439 0.0
H235 H 0.62481 0.33892 0.09084 0.0
H236 H 0.58707 0.35051 0.01526 0.0
H237 H 0.55087 0.38914 0.03822 0.0
H238 H 0.2085 0.88721 0.12041 0.0
H239 H 0.17932 0.91436 0.1787 0.0
H240 H 0.14091 0.829 0.21975 0.0
H241 H 0.1699 0.80214 0.16118 0.0
H242 H 0.09779 0.87746 0.20541 0.0
H243 H 0.20312 0.90916 0.33162 0.0
H244 H 0.20316 0.91965 0.2677 0.0
H245 H 0.20305 0.88011 0.28458 0.0
C246 C 0.19342 0.87453 0.14151 0.0
C247 C 0.19145 0.84277 0.13712 0.0
C248 C 0.17708 0.88988 0.175 0.0
C249 C 0.15852 0.87357 0.20431 0.0
C250 C 0.15534 0.84195 0.19786 0.0
H251 H 0.0825 0.9316 0.47163 0.0
H252 H 0.11439 0.90805 0.41346 0.0
C253 C 0.17174 0.82667 0.16454 0.0
C254 C 0.14271 0.88924 0.24226 0.0
H255 H 0.15566 0.92929 0.35076 0.0
C256 C 0.11041 0.88883 0.23716 0.0
C257 C 0.1593 0.90345 0.28418 0.0
C258 C 0.19408 0.90299 0.29284 0.0
C259 C 0.09416 0.90277 0.27237 0.0
C260 C 0.11067 0.91807 0.31335 0.0
C261 C 0.14304 0.91789 0.31906 0.0
C262 C 0.09447 0.93458 0.35011 0.0
C263 C 0.05941 0.9005 0.2657 0.0
C264 C 0.07381 0.95814 0.33429 0.0
C265 C 0.05545 0.97114 0.36701 0.0
C266 C 0.05792 0.96141 0.41658 0.0
C267 C 0.08025 0.93949 0.43358 0.0
C268 C 0.09835 0.92602 0.4004 0.0
H269 H 0.05114 0.88109 0.24134 0.0
H270 H 0.05056 0.89769 0.30191 0.0
H271 H 0.04941 0.92169 0.24803 0.0
H272 H 0.07112 0.96578 0.29609 0.0
H273 H 0.0387 0.98834 0.3532 0.0
H274 H 0.69628 0.63302 0.60297 0.0
H275 H 0.67225 0.59933 0.65989 0.0
H276 H 0.62895 0.67762 0.71801 0.0
H277 H 0.65232 0.71064 0.66085 0.0
H278 H 0.68123 0.60222 0.76315 0.0
H279 H 0.55785 0.61871 0.69457 0.0
H280 H 0.58797 0.6291 0.65816 0.0
H281 H 0.57703 0.65459 0.70489 0.0
C282 C 0.68096 0.6426 0.62721 0.0
C283 C 0.67578 0.67414 0.62782 0.0
C284 C 0.66747 0.62355 0.65976 0.0
C285 C 0.64851 0.63595 0.69274 0.0
C286 C 0.64289 0.66744 0.69219 0.0
H287 H 0.55945 0.61196 0.94199 0.0
H288 H 0.59328 0.62676 0.88122 0.0
C289 C 0.65628 0.6863 0.65985 0.0
C290 C 0.63605 0.61686 0.73043 0.0
H291 H 0.56974 0.60409 0.78069 0.0
C292 C 0.65678 0.60197 0.76651 0.0
C293 C 0.60415 0.61641 0.73453 0.0
C294 C 0.58049 0.63031 0.69561 0.0
C295 C 0.64656 0.58857 0.80848 0.0
C296 C 0.61496 0.59022 0.81412 0.0
C297 C 0.59409 0.60336 0.77654 0.0
C298 C 0.60271 0.58056 0.85984 0.0
C299 C 0.66958 0.57421 0.84775 0.0
C300 C 0.59829 0.54961 0.8698 0.0
C301 C 0.57935 0.54111 0.90531 0.0
C302 C 0.56428 0.56353 0.93027 0.0
C303 C 0.57088 0.59434 0.92317 0.0
C304 C 0.59012 0.60277 0.88847 0.0
H305 H 0.69365 0.57641 0.83917 0.0
H306 H 0.66786 0.58497 0.88426 0.0
H307 H 0.6642 0.54966 0.85104 0.0
H308 H 0.60749 0.53217 0.84759 0.0
H309 H 0.5742 0.51721 0.90976 0.0
H310 H 0.82255 0.13285 0.05111 0.0
H311 H 0.85553 0.10789 0.11925 0.0
H312 H 0.90537 0.19191 0.15002 0.0
H313 H 0.87334 0.21621 0.07981 0.0
H314 H 0.94334 0.14012 0.16518 0.0
H315 H 0.838 0.13004 0.25832 0.0
H316 H 0.83505 0.11159 0.19902 0.0
H317 H 0.839 0.15234 0.20285 0.0
C318 C 0.8415 0.14541 0.07101 0.0
C319 C 0.8461 0.17607 0.05989 0.0
C320 C 0.85995 0.1314 0.11038 0.0
C321 C 0.88253 0.14823 0.14014 0.0
C322 C 0.88813 0.17851 0.12745 0.0
H323 H 0.93641 0.09717 0.44702 0.0
H324 H 0.92131 0.12725 0.37155 0.0
C325 C 0.86997 0.19234 0.08754 0.0
C326 C 0.89802 0.13534 0.18719 0.0
H327 H 0.88325 0.10685 0.29829 0.0
C328 C 0.93031 0.13292 0.19447 0.0
C329 C 0.88095 0.12663 0.22568 0.0
C330 C 0.84637 0.13052 0.22143 0.0
C331 C 0.94597 0.12136 0.23899 0.0
C332 C 0.92875 0.11155 0.27674 0.0
C333 C 0.8965 0.11444 0.26951 0.0
C334 C 0.94313 0.09703 0.32338 0.0
C335 C 0.98075 0.12023 0.24526 0.0
C336 C 0.96119 0.07066 0.32168 0.0
C337 C 0.97045 0.05411 0.36486 0.0
C338 C 0.96121 0.06327 0.41011 0.0
C339 C 0.94408 0.09008 0.41245 0.0
C340 C 0.93537 0.10706 0.36939 0.0
H341 H 0.99035 0.13759 0.22179 0.0
H342 H 0.99065 0.12394 0.28448 0.0
H343 H 0.9883 0.09753 0.23342 0.0
H344 H 0.96663 0.06183 0.28665 0.0
H345 H 0.98311 0.03302 0.36236 0.0
H346 H 0.37227 0.30883 0.5536 0.0
H347 H 0.40313 0.33212 0.62617 0.0
H348 H 0.33228 0.40008 0.63232 0.0
H349 H 0.30166 0.37663 0.55997 0.0
H350 H 0.42414 0.39587 0.64974 0.0
H351 H 0.33915 0.35119 0.76656 0.0
H352 H 0.34152 0.33749 0.70452 0.0
H353 H 0.32263 0.37304 0.7138 0.0
C354 C 0.364 0.32932 0.56977 0.0
C355 C 0.335 0.34131 0.55163 0.0
C356 C 0.3814 0.34244 0.61113 0.0
C357 C 0.36968 0.36747 0.63486 0.0
C358 C 0.3415 0.38056 0.61471 0.0
H359 H 0.40357 0.48611 0.87536 0.0
H360 H 0.38422 0.45158 0.80851 0.0
C361 C 0.32422 0.36747 0.57337 0.0
C362 C 0.38555 0.3786 0.68275 0.0
H363 H 0.37546 0.38736 0.80431 0.0
C364 C 0.41385 0.39366 0.68378 0.0
C365 C 0.37206 0.37531 0.727 0.0
C366 C 0.3423 0.35814 0.72825 0.0
C367 C 0.42817 0.40722 0.72759 0.0
C368 C 0.41396 0.40507 0.77139 0.0
C369 C 0.38635 0.3888 0.77071 0.0
C370 C 0.42499 0.42309 0.81609 0.0
C371 C 0.45742 0.42519 0.72612 0.0
C372 C 0.45392 0.41776 0.84382 0.0
C373 C 0.46506 0.43749 0.88258 0.0
C374 C 0.44742 0.46283 0.89347 0.0
C375 C 0.41781 0.46696 0.86735 0.0
C376 C 0.40668 0.44722 0.82922 0.0
H377 H 0.46305 0.42816 0.68772 0.0
H378 H 0.45535 0.44804 0.74293 0.0
H379 H 0.47692 0.41312 0.74808 0.0
H380 H 0.46818 0.39894 0.83456 0.0
H381 H 0.48795 0.43386 0.90218 0.0
H382 H 0.70979 0.67369 0.47113 0.0
H383 H 0.67945 0.64776 0.40271 0.0
H384 H 0.601 0.64769 0.48441 0.0
H385 H 0.63027 0.67816 0.54968 0.0
H386 H 0.65479 0.59797 0.38871 0.0
H387 H 0.55691 0.68017 0.36313 0.0
H388 H 0.59097 0.6874 0.40613 0.0
H389 H 0.56186 0.66147 0.42211 0.0
C390 C 0.68581 0.6689 0.47386 0.0
C391 C 0.67215 0.67897 0.51489 0.0
C392 C 0.66851 0.65357 0.43503 0.0
C393 C 0.63738 0.64651 0.4372 0.0
C394 C 0.62441 0.65411 0.48038 0.0
H395 H 0.51957 0.55151 0.19981 0.0
H396 H 0.53696 0.57794 0.27794 0.0
C397 C 0.64142 0.67088 0.51838 0.0
C398 C 0.61923 0.63158 0.39357 0.0
H399 H 0.55501 0.63893 0.30781 0.0
C400 C 0.633 0.60711 0.37121 0.0
C401 C 0.59038 0.64296 0.37075 0.0
C402 C 0.57426 0.66958 0.3915 0.0
C403 C 0.61983 0.59487 0.32585 0.0
C404 C 0.59176 0.60706 0.30229 0.0
C405 C 0.57681 0.63008 0.32581 0.0
C406 C 0.57815 0.59624 0.25275 0.0
C407 C 0.63637 0.56921 0.30319 0.0
C408 C 0.59472 0.59921 0.21208 0.0
C409 C 0.58516 0.58374 0.16795 0.0
C410 C 0.55835 0.566 0.16345 0.0
C411 C 0.54013 0.56547 0.20238 0.0
C412 C 0.55009 0.58039 0.247 0.0
H413 H 0.65311 0.5575 0.33118 0.0
H414 H 0.61976 0.55213 0.28548 0.0
H415 H 0.6494 0.57861 0.27423 0.0
H416 H 0.61605 0.61199 0.21552 0.0
H417 H 0.59948 0.58438 0.13827 0.0
H418 H 0.82313 0.1329 0.96565 0.0
H419 H 0.84991 0.10424 0.90668 0.0
H420 H 0.88699 0.18827 0.85714 0.0
H421 H 0.86183 0.21645 0.91875 0.0
H422 H 0.84031 0.10802 0.80899 0.0
H423 H 0.9627 0.13686 0.87045 0.0
H424 H 0.9325 0.14523 0.90779 0.0
H425 H 0.93898 0.16995 0.8573 0.0
C426 C 0.83818 0.14492 0.94377 0.0
C427 C 0.84125 0.17662 0.94746 0.0
C428 C 0.853 0.12869 0.90945 0.0
C429 C 0.87083 0.14402 0.87782 0.0
C430 C 0.8741 0.17578 0.88193 0.0
H431 H 0.94036 0.07918 0.60897 0.0
H432 H 0.90879 0.10538 0.66478 0.0
C433 C 0.85964 0.1919 0.91681 0.0
C434 C 0.88435 0.12696 0.83865 0.0
H435 H 0.95182 0.11236 0.7922 0.0
C436 C 0.86472 0.10894 0.80543 0.0
C437 C 0.91621 0.12814 0.83397 0.0
C438 C 0.93885 0.14585 0.86957 0.0
C439 C 0.87613 0.0921 0.76779 0.0
C440 C 0.90782 0.09353 0.76314 0.0
C441 C 0.92742 0.11162 0.7959 0.0
C442 C 0.9218 0.07499 0.72662 0.0
C443 C 0.85459 0.07231 0.73388 0.0
C444 C 0.93881 0.049 0.74282 0.0
C445 C 0.95699 0.03435 0.71147 0.0
C446 C 0.9582 0.04534 0.66329 0.0
C447 C 0.93951 0.07015 0.64585 0.0
C448 C 0.92158 0.08511 0.67761 0.0
H449 H 0.83043 0.07367 0.74234 0.0
H450 H 0.85516 0.0793 0.69477 0.0
H451 H 0.86245 0.04824 0.73739 0.0
H452 H 0.93917 0.04092 0.78055 0.0
H453 H 0.97106 0.01512 0.72553 0.0
H454 H 0.367 0.31962 0.45195 0.0
H455 H 0.39407 0.34744 0.39202 0.0
H456 H 0.31525 0.4068 0.35907 0.0
H457 H 0.28869 0.37921 0.41985 0.0
H458 H 0.37268 0.35078 0.29183 0.0
H459 H 0.38685 0.46688 0.37272 0.0
H460 H 0.37816 0.43413 0.40857 0.0
H461 H 0.34819 0.45235 0.36735 0.0
C462 C 0.35601 0.33915 0.43272 0.0
C463 C 0.32599 0.34747 0.43999 0.0
C464 C 0.37126 0.35487 0.3984 0.0
C465 C 0.35672 0.37928 0.37117 0.0
C466 C 0.32712 0.38838 0.38014 0.0
H467 H 0.42052 0.48194 0.12382 0.0
H468 H 0.38563 0.45919 0.17813 0.0
C469 C 0.31194 0.37266 0.41457 0.0
C470 C 0.3715 0.39345 0.33071 0.0
H471 H 0.39967 0.46048 0.29134 0.0
C472 C 0.37851 0.37478 0.29171 0.0
C473 C 0.37884 0.42483 0.33036 0.0
C474 C 0.3729 0.44572 0.37216 0.0
C475 C 0.3931 0.38654 0.25279 0.0
C476 C 0.40096 0.41773 0.25296 0.0
C477 C 0.39322 0.43663 0.29112 0.0
C478 C 0.4207 0.43023 0.21757 0.0
C479 C 0.40044 0.36546 0.21207 0.0
C480 C 0.45172 0.42142 0.22196 0.0
C481 C 0.47153 0.43452 0.19182 0.0
C482 C 0.46074 0.45661 0.15628 0.0
C483 C 0.42939 0.4649 0.1508 0.0
C484 C 0.40954 0.45201 0.18175 0.0
H485 H 0.38648 0.34428 0.21067 0.0
H486 H 0.39629 0.37695 0.17542 0.0
H487 H 0.42517 0.35895 0.21889 0.0
H488 H 0.4608 0.40485 0.24964 0.0
H489 H 0.49549 0.42745 0.19667 0.0
H490 H 0.15133 0.81515 0.0344 0.0
H491 H 0.11689 0.83691 0.96412 0.0
H492 H 0.18813 0.90041 0.93776 0.0
H493 H 0.22236 0.87852 0.00782 0.0
H494 H 0.10091 0.90719 0.93259 0.0
H495 H 0.16812 0.83662 0.81416 0.0
H496 H 0.16608 0.82762 0.87851 0.0
H497 H 0.1896 0.85863 0.86266 0.0
C498 C 0.15903 0.83439 0.01434 0.0
C499 C 0.18921 0.84531 0.02582 0.0
C500 C 0.13952 0.84672 0.97441 0.0
C501 C 0.15013 0.87009 0.9458 0.0
C502 C 0.17961 0.88238 0.95952 0.0
H503 H 0.11765 0.95716 0.67035 0.0
H504 H 0.13518 0.92961 0.74605 0.0
C505 C 0.19905 0.87 0.9993 0.0
C506 C 0.13232 0.87902 0.89809 0.0
H507 H 0.13265 0.87178 0.77335 0.0
C508 C 0.10744 0.89927 0.89762 0.0
C509 C 0.14104 0.86845 0.85286 0.0
C510 C 0.16754 0.84647 0.85167 0.0
C511 C 0.092 0.91054 0.85265 0.0
C512 C 0.10132 0.90058 0.80723 0.0
C513 C 0.12537 0.87926 0.80807 0.0
C514 C 0.08966 0.91492 0.75894 0.0
C515 C 0.06709 0.93424 0.85428 0.0
C516 C 0.0582 0.91497 0.7397 0.0
C517 C 0.04792 0.93109 0.69603 0.0
C518 C 0.06907 0.94714 0.67102 0.0
C519 C 0.10068 0.94522 0.6888 0.0
C520 C 0.11079 0.92946 0.73224 0.0
H521 H 0.06674 0.94352 0.89222 0.0
H522 H 0.07029 0.9534 0.8288 0.0
H523 H 0.04428 0.9238 0.84215 0.0
H524 H 0.04156 0.9032 0.75901 0.0
H525 H 0.02343 0.93218 0.68328 0.0
loop_
_geom_bond_atom_site_label_1
_geom_bond_atom_site_label_2
_geom_bond_distance
_geom_bond_site_symmetry_2
_ccdc_geom_bond_type
C0 N1 1.317 . S
C0 N2 1.348 . S
C0 C3 1.485 1_554 S
N1 C0 1.317 . S
N1 N5 1.370 . S
N2 C0 1.348 . S
N2 C4 1.346 . S
C3 C0 1.485 1_556 S
C3 H7 0.960 . S
C3 H8 0.961 . S
C3 H9 0.960 . S
C4 N2 1.346 . S
C4 N5 1.307 . S
C4 C6 1.486 . S
N5 N1 1.370 . S
N5 C4 1.307 . S
C6 C4 1.486 . S
C6 H10 0.960 . S
C6 H11 0.960 . S
C6 H12 0.959 . S
H7 C3 0.960 . S
H8 C3 0.961 . S
H9 C3 0.960 . S
H10 C6 0.960 . S
H11 C6 0.960 . S
H12 C6 0.959 . S
C13 N14 1.317 . S
C13 N15 1.348 . S
C13 C16 1.485 . S
N14 C13 1.317 . S
N14 N18 1.370 . S
N15 C13 1.348 . S
N15 C17 1.346 . S
C16 C13 1.485 . S
C16 H20 0.960 . S
C16 H21 0.961 . S
C16 H22 0.960 . S
C17 N15 1.346 . S
C17 N18 1.307 . S
C17 C19 1.486 . S
N18 N14 1.370 . S
N18 C17 1.307 . S
C19 C17 1.486 . S
C19 H23 0.960 . S
C19 H24 0.960 . S
C19 H25 0.959 . S
H20 C16 0.960 . S
H21 C16 0.961 . S
H22 C16 0.960 . S
H23 C19 0.960 . S
H24 C19 0.960 . S
H25 C19 0.959 . S
C26 N27 1.317 . S
C26 N28 1.366 . S
C26 C29 1.485 . S
N27 C26 1.317 . S
N27 N31 1.370 1_554 S
N28 C26 1.366 . S
N28 C30 1.327 1_554 S
C29 C26 1.485 . S
C29 H33 0.960 . S
C29 H34 0.961 . S
C29 H35 0.960 . S
C30 N28 1.327 1_556 S
C30 N31 1.307 . S
C30 C32 1.486 . S
N31 N27 1.370 1_556 S
N31 C30 1.307 . S
C32 C30 1.486 . S
C32 H36 0.960 . S
C32 H37 0.960 . S
C32 H38 0.959 . S
H33 C29 0.960 . S
H34 C29 0.961 . S
H35 C29 0.960 . S
H36 C32 0.960 . S
H37 C32 0.960 . S
H38 C32 0.959 . S
C39 N40 1.317 . S
C39 N41 1.348 . S
C39 C42 1.485 . S
N40 C39 1.317 . S
N40 N44 1.370 . S
N41 C39 1.348 . S
N41 C43 1.346 . S
C42 C39 1.485 . S
C42 H46 0.960 . S
C42 H47 0.961 . S
C42 H48 0.960 . S
C43 N41 1.346 . S
C43 N44 1.307 . S
C43 C45 1.486 . S
N44 N40 1.370 . S
N44 C43 1.307 . S
C45 C43 1.486 . S
C45 H49 0.960 . S
C45 H50 0.960 . S
C45 H51 0.959 . S
H46 C42 0.960 . S
H47 C42 0.961 . S
H48 C42 0.960 . S
H49 C45 0.960 . S
H50 C45 0.960 . S
H51 C45 0.959 . S
O52 Mg53 1.990 . S
O52 C66 1.253 1_455 S
Mg53 O52 1.990 . S
Mg53 O56 2.180 . S
Mg53 O57 2.117 . S
Mg53 O71 2.030 . S
O54 Mg55 2.072 1_655 S
O54 C66 1.260 . S
Mg55 O54 2.072 1_455 S
Mg55 O56 2.099 . S
Mg55 O58 2.079 1_545 S
Mg55 O59 2.072 1_455 S
Mg55 O61 2.099 1_445 S
Mg55 O72 2.079 1_545 S
O56 Mg53 2.180 . S
O56 Mg55 2.099 . S
O56 C67 1.279 . S
O57 Mg53 2.117 . S
O57 C67 1.250 . S
O58 Mg55 2.079 1_565 S
O58 C68 1.264 . S
O59 Mg55 2.072 1_655 S
O59 C69 1.260 . S
Mg60 O61 2.180 . S
Mg60 O62 2.030 1_655 S
Mg60 O63 1.990 1_565 S
Mg60 O64 2.117 . S
O61 Mg55 2.099 1_665 S
O61 Mg60 2.180 . S
O61 C70 1.279 . S
O62 Mg60 2.030 1_455 S
O62 C68 1.248 . S
O63 Mg60 1.990 1_545 S
O63 C69 1.253 . S
O64 Mg60 2.117 . S
O64 C70 1.250 . S
C65 O71 1.248 1_565 S
C65 O72 1.264 . S
C66 O52 1.253 1_655 S
C66 O54 1.260 . S
C67 O56 1.279 . S
C67 O57 1.250 . S
C68 O58 1.264 . S
C68 O62 1.248 . S
C69 O59 1.260 . S
C69 O63 1.253 . S
C70 O61 1.279 . S
C70 O64 1.250 . S
O71 Mg53 2.030 . S
O71 C65 1.248 1_545 S
O72 Mg55 2.079 1_565 S
O72 C65 1.264 . S
O73 Mg74 1.990 . S
O73 C87 1.253 . S
Mg74 O73 1.990 . S
Mg74 O77 2.180 . S
Mg74 O78 2.117 . S
Mg74 O92 2.030 . S
O75 Mg76 2.072 . S
O75 C87 1.260 . S
Mg76 O75 2.072 . S
Mg76 O77 2.099 . S
Mg76 O79 2.079 1_554 S
Mg76 O80 2.072 1_554 S
Mg76 O82 2.099 . S
Mg76 O93 2.079 . S
O77 Mg74 2.180 . S
O77 Mg76 2.099 . S
O77 C88 1.279 . S
O78 Mg74 2.117 . S
O78 C88 1.250 . S
O79 Mg76 2.079 1_556 S
O79 C89 1.264 . S
O80 Mg76 2.072 1_556 S
O80 C90 1.260 . S
Mg81 O82 2.180 1_556 S
Mg81 O83 2.030 . S
Mg81 O84 1.990 . S
Mg81 O85 2.117 . S
O82 Mg76 2.099 . S
O82 Mg81 2.180 1_554 S
O82 C91 1.279 . S
O83 Mg81 2.030 . S
O83 C89 1.248 . S
O84 Mg81 1.990 . S
O84 C90 1.253 . S
O85 Mg81 2.117 . S
O85 C91 1.250 1_556 S
C86 O92 1.248 . S
C86 O93 1.264 . S
C87 O73 1.253 . S
C87 O75 1.260 . S
C88 O77 1.279 . S
C88 O78 1.250 . S
C89 O79 1.264 . S
C89 O83 1.248 . S
C90 O80 1.260 . S
C90 O84 1.253 . S
C91 O82 1.279 . S
C91 O85 1.250 1_554 S
O92 Mg74 2.030 . S
O92 C86 1.248 . S
O93 Mg76 2.079 . S
O93 C86 1.264 . S
H94 C102 0.929 . S
H95 C104 0.930 . S
H96 C106 0.930 . S
H97 C109 0.929 . S
H98 C112 0.930 . S
H99 C114 0.960 . S
H100 C114 0.960 . S
H101 C114 0.960 . S
C102 H94 0.929 . S
C102 C103 1.377 . S
C102 C104 1.384 . S
C103 C102 1.377 . S
C103 C109 1.390 . S
C104 H95 0.930 . S
C104 C102 1.384 . S
C104 C105 1.372 . S
C105 C104 1.372 . S
C105 C106 1.400 . S
C105 C110 1.490 . S
C106 H96 0.930 . S
C106 C105 1.400 . S
C106 C109 1.386 . S
H107 C123 0.930 . S
H108 C124 0.931 . S
C109 H97 0.929 . S
C109 C103 1.390 . S
C109 C106 1.386 . S
C110 C105 1.490 . S
C110 C112 1.395 . S
C110 C113 1.403 . S
H111 C117 0.930 . S
C112 H98 0.930 . S
C112 C110 1.395 . S
C112 C115 1.403 . S
C113 C110 1.403 . S
C113 C114 1.524 . S
C113 C117 1.400 . S
C114 H99 0.960 . S
C114 H100 0.960 . S
C114 H101 0.960 . S
C114 C113 1.524 . S
C115 C112 1.403 . S
C115 C116 1.392 . S
C115 C119 1.495 . S
C116 C115 1.392 . S
C116 C117 1.385 . S
C116 C118 1.478 . S
C117 H111 0.930 . S
C117 C113 1.400 . S
C117 C116 1.385 . S
C118 C116 1.478 . S
C118 C120 1.381 . S
C118 C124 1.383 . S
C119 C115 1.495 . S
C119 H125 0.959 . S
C119 H126 0.961 . S
C119 H127 0.960 . S
C120 C118 1.381 . S
C120 C121 1.394 . S
C120 H128 0.930 . S
C121 C120 1.394 . S
C121 C122 1.383 . S
C121 H129 0.929 . S
C122 C121 1.383 . S
C122 C123 1.377 . S
C123 H107 0.930 . S
C123 C122 1.377 . S
C123 C124 1.379 . S
C124 H108 0.931 . S
C124 C118 1.383 . S
C124 C123 1.379 . S
H125 C119 0.959 . S
H126 C119 0.961 . S
H127 C119 0.960 . S
H128 C120 0.930 . S
H129 C121 0.929 . S
H130 C138 0.929 . S
H131 C140 0.930 . S
H132 C142 0.930 . S
H133 C145 0.929 . S
H134 C148 0.930 . S
H135 C150 0.960 . S
H136 C150 0.960 1_554 S
H137 C150 0.960 . S
C138 H130 0.929 . S
C138 C139 1.377 . S
C138 C140 1.384 . S
C139 C138 1.377 . S
C139 C145 1.390 . S
C140 H131 0.930 . S
C140 C138 1.384 . S
C140 C141 1.372 . S
C141 C140 1.372 . S
C141 C142 1.400 . S
C141 C146 1.490 . S
C142 H132 0.930 . S
C142 C141 1.400 . S
C142 C145 1.386 . S
H143 C159 0.930 1_556 S
H144 C160 0.931 . S
C145 H133 0.929 . S
C145 C139 1.390 . S
C145 C142 1.386 . S
C146 C141 1.490 . S
C146 C148 1.395 . S
C146 C149 1.403 . S
H147 C153 0.930 . S
C148 H134 0.930 . S
C148 C146 1.395 . S
C148 C151 1.403 . S
C149 C146 1.403 . S
C149 C150 1.524 1_554 S
C149 C153 1.400 . S
C150 H135 0.960 . S
C150 H136 0.960 1_556 S
C150 H137 0.960 . S
C150 C149 1.524 1_556 S
C151 C148 1.403 . S
C151 C152 1.392 . S
C151 C155 1.495 . S
C152 C151 1.392 . S
C152 C153 1.385 . S
C152 C154 1.478 . S
C153 H147 0.930 . S
C153 C149 1.400 . S
C153 C152 1.385 . S
C154 C152 1.478 . S
C154 C156 1.381 . S
C154 C160 1.383 . S
C155 C151 1.495 . S
C155 H161 0.959 . S
C155 H162 0.961 . S
C155 H163 0.960 . S
C156 C154 1.381 . S
C156 C157 1.394 . S
C156 H164 0.930 . S
C157 C156 1.394 . S
C157 C158 1.383 . S
C157 H165 0.929 . S
C158 C157 1.383 . S
C158 C159 1.377 . S
C159 H143 0.930 1_554 S
C159 C158 1.377 . S
C159 C160 1.379 . S
C160 H144 0.931 . S
C160 C154 1.383 . S
C160 C159 1.379 . S
H161 C155 0.959 . S
H162 C155 0.961 . S
H163 C155 0.960 . S
H164 C156 0.930 . S
H165 C157 0.929 . S
H166 C174 0.929 . S
H167 C176 0.930 . S
H168 C178 0.930 . S
H169 C181 0.929 . S
H170 C184 0.930 . S
H171 C186 0.960 . S
H172 C186 0.960 . S
H173 C186 0.960 . S
C174 H166 0.929 . S
C174 C175 1.377 . S
C174 C176 1.384 . S
C175 C174 1.377 . S
C175 C181 1.390 . S
C176 H167 0.930 . S
C176 C174 1.384 . S
C176 C177 1.372 . S
C177 C176 1.372 . S
C177 C178 1.400 . S
C177 C182 1.490 . S
C178 H168 0.930 . S
C178 C177 1.400 . S
C178 C181 1.386 . S
H179 C195 0.930 . S
H180 C196 0.931 . S
C181 H169 0.929 . S
C181 C175 1.390 . S
C181 C178 1.386 . S
C182 C177 1.490 . S
C182 C184 1.395 . S
C182 C185 1.403 . S
H183 C189 0.930 . S
C184 H170 0.930 . S
C184 C182 1.395 . S
C184 C187 1.403 . S
C185 C182 1.403 . S
C185 C186 1.524 . S
C185 C189 1.400 . S
C186 H171 0.960 . S
C186 H172 0.960 . S
C186 H173 0.960 . S
C186 C185 1.524 . S
C187 C184 1.403 . S
C187 C188 1.392 . S
C187 C191 1.495 . S
C188 C187 1.392 . S
C188 C189 1.385 . S
C188 C190 1.478 . S
C189 H183 0.930 . S
C189 C185 1.400 . S
C189 C188 1.385 . S
C190 C188 1.478 . S
C190 C192 1.381 . S
C190 C196 1.383 . S
C191 C187 1.495 . S
C191 H197 0.959 . S
C191 H198 0.961 . S
C191 H199 0.960 . S
C192 C190 1.381 . S
C192 C193 1.394 . S
C192 H200 0.930 . S
C193 C192 1.394 . S
C193 C194 1.383 . S
C193 H201 0.929 . S
C194 C193 1.383 . S
C194 C195 1.377 . S
C195 H179 0.930 . S
C195 C194 1.377 . S
C195 C196 1.379 . S
C196 H180 0.931 . S
C196 C190 1.383 . S
C196 C195 1.379 . S
H197 C191 0.959 . S
H198 C191 0.961 . S
H199 C191 0.960 . S
H200 C192 0.930 . S
H201 C193 0.929 . S
H202 C210 0.929 . S
H203 C212 0.930 . S
H204 C214 0.930 . S
H205 C217 0.929 . S
H206 C220 0.930 . S
H207 C222 0.960 . S
H208 C222 0.960 . S
H209 C222 0.960 . S
C210 H202 0.929 . S
C210 C211 1.379 . S
C210 C212 1.384 . S
C211 C210 1.379 . S
C211 C217 1.389 1_554 S
C212 H203 0.930 . S
C212 C210 1.384 . S
C212 C213 1.372 . S
C213 C212 1.372 . S
C213 C214 1.400 1_554 S
C213 C218 1.490 . S
C214 H204 0.930 . S
C214 C213 1.400 1_556 S
C214 C217 1.386 . S
H215 C231 0.930 . S
H216 C232 0.931 . S
C217 H205 0.929 . S
C217 C211 1.389 1_556 S
C217 C214 1.386 . S
C218 C213 1.490 . S
C218 C220 1.395 . S
C218 C221 1.403 1_554 S
H219 C225 0.930 . S
C220 H206 0.930 . S
C220 C218 1.395 . S
C220 C223 1.403 . S
C221 C218 1.403 1_556 S
C221 C222 1.524 . S
C221 C225 1.400 . S
C222 H207 0.960 . S
C222 H208 0.960 . S
C222 H209 0.960 . S
C222 C221 1.524 . S
C223 C220 1.403 . S
C223 C224 1.392 . S
C223 C227 1.495 . S
C224 C223 1.392 . S
C224 C225 1.385 1_554 S
C224 C226 1.478 . S
C225 H219 0.930 . S
C225 C221 1.400 . S
C225 C224 1.385 1_556 S
C226 C224 1.478 . S
C226 C228 1.381 . S
C226 C232 1.383 . S
C227 C223 1.495 . S
C227 H233 0.959 . S
C227 H234 0.961 . S
C227 H235 0.960 . S
C228 C226 1.381 . S
C228 C229 1.394 . S
C228 H236 0.930 . S
C229 C228 1.394 . S
C229 C230 1.383 . S
C229 H237 0.929 . S
C230 C229 1.383 . S
C230 C231 1.377 . S
C231 H215 0.930 . S
C231 C230 1.377 . S
C231 C232 1.379 . S
C232 H216 0.931 . S
C232 C226 1.383 . S
C232 C231 1.379 . S
H233 C227 0.959 . S
H234 C227 0.961 . S
H235 C227 0.960 . S
H236 C228 0.930 . S
H237 C229 0.929 . S
H238 C246 0.929 . S
H239 C248 0.930 . S
H240 C250 0.930 . S
H241 C253 0.929 . S
H242 C256 0.930 . S
H243 C258 0.960 . S
H244 C258 0.960 . S
H245 C258 0.960 . S
C246 H238 0.929 . S
C246 C247 1.377 . S
C246 C248 1.384 . S
C247 C246 1.377 . S
C247 C253 1.390 . S
C248 H239 0.930 . S
C248 C246 1.384 . S
C248 C249 1.372 . S
C249 C248 1.372 . S
C249 C250 1.400 . S
C249 C254 1.490 . S
C250 H240 0.930 . S
C250 C249 1.400 . S
C250 C253 1.386 . S
H251 C267 0.930 . S
H252 C268 0.931 . S
C253 H241 0.929 . S
C253 C247 1.390 . S
C253 C250 1.386 . S
C254 C249 1.490 . S
C254 C256 1.395 . S
C254 C257 1.403 . S
H255 C261 0.930 . S
C256 H242 0.930 . S
C256 C254 1.395 . S
C256 C259 1.403 . S
C257 C254 1.403 . S
C257 C258 1.524 . S
C257 C261 1.400 . S
C258 H243 0.960 . S
C258 H244 0.960 . S
C258 H245 0.960 . S
C258 C257 1.524 . S
C259 C256 1.403 . S
C259 C260 1.392 . S
C259 C263 1.495 . S
C260 C259 1.392 . S
C260 C261 1.385 . S
C260 C262 1.478 . S
C261 H255 0.930 . S
C261 C257 1.400 . S
C261 C260 1.385 . S
C262 C260 1.478 . S
C262 C264 1.381 . S
C262 C268 1.383 . S
C263 C259 1.495 . S
C263 H269 0.959 . S
C263 H270 0.961 . S
C263 H271 0.960 . S
C264 C262 1.381 . S
C264 C265 1.394 . S
C264 H272 0.930 . S
C265 C264 1.394 . S
C265 C266 1.383 . S
C265 H273 0.929 . S
C266 C265 1.383 . S
C266 C267 1.377 . S
C267 H251 0.930 . S
C267 C266 1.377 . S
C267 C268 1.379 . S
C268 H252 0.931 . S
C268 C262 1.383 . S
C268 C267 1.379 . S
H269 C263 0.959 . S
H270 C263 0.961 . S
H271 C263 0.960 . S
H272 C264 0.930 . S
H273 C265 0.929 . S
H274 C282 0.929 . S
H275 C284 0.930 . S
H276 C286 0.930 . S
H277 C289 0.929 . S
H278 C292 0.930 . S
H279 C294 0.960 . S
H280 C294 0.960 . S
H281 C294 0.960 . S
C282 H274 0.929 . S
C282 C283 1.377 . S
C282 C284 1.384 . S
C283 C282 1.377 . S
C283 C289 1.390 . S
C284 H275 0.930 . S
C284 C282 1.384 . S
C284 C285 1.372 . S
C285 C284 1.372 . S
C285 C286 1.400 . S
C285 C290 1.490 . S
C286 H276 0.930 . S
C286 C285 1.400 . S
C286 C289 1.386 . S
H287 C303 0.930 . S
H288 C304 0.931 . S
C289 H277 0.929 . S
C289 C283 1.390 . S
C289 C286 1.386 . S
C290 C285 1.490 . S
C290 C292 1.395 . S
C290 C293 1.403 . S
H291 C297 0.930 . S
C292 H278 0.930 . S
C292 C290 1.395 . S
C292 C295 1.403 . S
C293 C290 1.403 . S
C293 C294 1.524 . S
C293 C297 1.400 . S
C294 H279 0.960 . S
C294 H280 0.960 . S
C294 H281 0.960 . S
C294 C293 1.524 . S
C295 C292 1.403 . S
C295 C296 1.392 . S
C295 C299 1.495 . S
C296 C295 1.392 . S
C296 C297 1.385 . S
C296 C298 1.478 . S
C297 H291 0.930 . S
C297 C293 1.400 . S
C297 C296 1.385 . S
C298 C296 1.478 . S
C298 C300 1.381 . S
C298 C304 1.383 . S
C299 C295 1.495 . S
C299 H305 0.959 . S
C299 H306 0.961 . S
C299 H307 0.960 . S
C300 C298 1.381 . S
C300 C301 1.394 . S
C300 H308 0.930 . S
C301 C300 1.394 . S
C301 C302 1.383 . S
C301 H309 0.929 . S
C302 C301 1.383 . S
C302 C303 1.377 . S
C303 H287 0.930 . S
C303 C302 1.377 . S
C303 C304 1.379 . S
C304 H288 0.931 . S
C304 C298 1.383 . S
C304 C303 1.379 . S
H305 C299 0.959 . S
H306 C299 0.961 . S
H307 C299 0.960 . S
H308 C300 0.930 . S
H309 C301 0.929 . S
H310 C318 0.929 . S
H311 C320 0.930 . S
H312 C322 0.930 . S
H313 C325 0.929 . S
H314 C328 0.930 . S
H315 C330 0.960 . S
H316 C330 0.960 . S
H317 C330 0.960 . S
C318 H310 0.929 . S
C318 C319 1.377 . S
C318 C320 1.384 . S
C319 C318 1.377 . S
C319 C325 1.390 . S
C320 H311 0.930 . S
C320 C318 1.384 . S
C320 C321 1.372 . S
C321 C320 1.372 . S
C321 C322 1.400 . S
C321 C326 1.490 . S
C322 H312 0.930 . S
C322 C321 1.400 . S
C322 C325 1.386 . S
H323 C339 0.930 . S
H324 C340 0.931 . S
C325 H313 0.929 . S
C325 C319 1.390 . S
C325 C322 1.386 . S
C326 C321 1.490 . S
C326 C328 1.395 . S
C326 C329 1.403 . S
H327 C333 0.930 . S
C328 H314 0.930 . S
C328 C326 1.395 . S
C328 C331 1.403 . S
C329 C326 1.403 . S
C329 C330 1.524 . S
C329 C333 1.400 . S
C330 H315 0.960 . S
C330 H316 0.960 . S
C330 H317 0.960 . S
C330 C329 1.524 . S
C331 C328 1.403 . S
C331 C332 1.392 . S
C331 C335 1.495 . S
C332 C331 1.392 . S
C332 C333 1.385 . S
C332 C334 1.478 . S
C333 H327 0.930 . S
C333 C329 1.400 . S
C333 C332 1.385 . S
C334 C332 1.478 . S
C334 C336 1.381 . S
C334 C340 1.383 . S
C335 C331 1.495 . S
C335 H341 0.959 . S
C335 H342 0.961 . S
C335 H343 0.960 . S
C336 C334 1.381 . S
C336 C337 1.394 . S
C336 H344 0.930 . S
C337 C336 1.394 . S
C337 C338 1.383 . S
C337 H345 0.929 . S
C338 C337 1.383 . S
C338 C339 1.377 . S
C339 H323 0.930 . S
C339 C338 1.377 . S
C339 C340 1.379 . S
C340 H324 0.931 . S
C340 C334 1.383 . S
C340 C339 1.379 . S
H341 C335 0.959 . S
H342 C335 0.961 . S
H343 C335 0.960 . S
H344 C336 0.930 . S
H345 C337 0.929 . S
H346 C354 0.929 . S
H347 C356 0.930 . S
H348 C358 0.930 . S
H349 C361 0.929 . S
H350 C364 0.930 . S
H351 C366 0.960 . S
H352 C366 0.960 . S
H353 C366 0.960 . S
C354 H346 0.929 . S
C354 C355 1.377 . S
C354 C356 1.384 . S
C355 C354 1.377 . S
C355 C361 1.390 . S
C356 H347 0.930 . S
C356 C354 1.384 . S
C356 C357 1.372 . S
C357 C356 1.372 . S
C357 C358 1.400 . S
C357 C362 1.490 . S
C358 H348 0.930 . S
C358 C357 1.400 . S
C358 C361 1.386 . S
H359 C375 0.930 . S
H360 C376 0.931 . S
C361 H349 0.929 . S
C361 C355 1.390 . S
C361 C358 1.386 . S
C362 C357 1.490 . S
C362 C364 1.395 . S
C362 C365 1.403 . S
H363 C369 0.930 . S
C364 H350 0.930 . S
C364 C362 1.395 . S
C364 C367 1.403 . S
C365 C362 1.403 . S
C365 C366 1.524 . S
C365 C369 1.400 . S
C366 H351 0.960 . S
C366 H352 0.960 . S
C366 H353 0.960 . S
C366 C365 1.524 . S
C367 C364 1.403 . S
C367 C368 1.392 . S
C367 C371 1.495 . S
C368 C367 1.392 . S
C368 C369 1.385 . S
C368 C370 1.478 . S
C369 H363 0.930 . S
C369 C365 1.400 . S
C369 C368 1.385 . S
C370 C368 1.478 . S
C370 C372 1.381 . S
C370 C376 1.383 . S
C371 C367 1.495 . S
C371 H377 0.959 . S
C371 H378 0.961 . S
C371 H379 0.960 . S
C372 C370 1.381 . S
C372 C373 1.394 . S
C372 H380 0.930 . S
C373 C372 1.394 . S
C373 C374 1.383 . S
C373 H381 0.929 . S
C374 C373 1.383 . S
C374 C375 1.377 . S
C375 H359 0.930 . S
C375 C374 1.377 . S
C375 C376 1.379 . S
C376 H360 0.931 . S
C376 C370 1.383 . S
C376 C375 1.379 . S
H377 C371 0.959 . S
H378 C371 0.961 . S
H379 C371 0.960 . S
H380 C372 0.930 . S
H381 C373 0.929 . S
H382 C390 0.929 . S
H383 C392 0.930 . S
H384 C394 0.930 . S
H385 C397 0.929 . S
H386 C400 0.930 . S
H387 C402 0.960 . S
H388 C402 0.960 . S
H389 C402 0.960 . S
C390 H382 0.929 . S
C390 C391 1.377 . S
C390 C392 1.384 . S
C391 C390 1.377 . S
C391 C397 1.390 . S
C392 H383 0.930 . S
C392 C390 1.384 . S
C392 C393 1.372 . S
C393 C392 1.372 . S
C393 C394 1.400 . S
C393 C398 1.490 . S
C394 H384 0.930 . S
C394 C393 1.400 . S
C394 C397 1.386 . S
H395 C411 0.930 . S
H396 C412 0.931 . S
C397 H385 0.929 . S
C397 C391 1.390 . S
C397 C394 1.386 . S
C398 C393 1.490 . S
C398 C400 1.395 . S
C398 C401 1.403 . S
H399 C405 0.930 . S
C400 H386 0.930 . S
C400 C398 1.395 . S
C400 C403 1.403 . S
C401 C398 1.403 . S
C401 C402 1.524 . S
C401 C405 1.400 . S
C402 H387 0.960 . S
C402 H388 0.960 . S
C402 H389 0.960 . S
C402 C401 1.524 . S
C403 C400 1.403 . S
C403 C404 1.392 . S
C403 C407 1.495 . S
C404 C403 1.392 . S
C404 C405 1.385 . S
C404 C406 1.478 . S
C405 H399 0.930 . S
C405 C401 1.400 . S
C405 C404 1.385 . S
C406 C404 1.478 . S
C406 C408 1.381 . S
C406 C412 1.383 . S
C407 C403 1.495 . S
C407 H413 0.959 . S
C407 H414 0.961 . S
C407 H415 0.960 . S
C408 C406 1.381 . S
C408 C409 1.394 . S
C408 H416 0.930 . S
C409 C408 1.394 . S
C409 C410 1.383 . S
C409 H417 0.929 . S
C410 C409 1.383 . S
C410 C411 1.377 . S
C411 H395 0.930 . S
C411 C410 1.377 . S
C411 C412 1.379 . S
C412 H396 0.931 . S
C412 C406 1.383 . S
C412 C411 1.379 . S
H413 C407 0.959 . S
H414 C407 0.961 . S
H415 C407 0.960 . S
H416 C408 0.930 . S
H417 C409 0.929 . S
H418 C426 0.929 . S
H419 C428 0.930 . S
H420 C430 0.930 . S
H421 C433 0.929 . S
H422 C436 0.930 . S
H423 C438 0.960 . S
H424 C438 0.960 . S
H425 C438 0.960 . S
C426 H418 0.929 . S
C426 C427 1.377 . S
C426 C428 1.384 . S
C427 C426 1.377 . S
C427 C433 1.390 . S
C428 H419 0.930 . S
C428 C426 1.384 . S
C428 C429 1.372 . S
C429 C428 1.372 . S
C429 C430 1.400 . S
C429 C434 1.490 . S
C430 H420 0.930 . S
C430 C429 1.400 . S
C430 C433 1.386 . S
H431 C447 0.930 . S
H432 C448 0.931 . S
C433 H421 0.929 . S
C433 C427 1.390 . S
C433 C430 1.386 . S
C434 C429 1.490 . S
C434 C436 1.395 . S
C434 C437 1.403 . S
H435 C441 0.930 . S
C436 H422 0.930 . S
C436 C434 1.395 . S
C436 C439 1.403 . S
C437 C434 1.403 . S
C437 C438 1.524 . S
C437 C441 1.400 . S
C438 H423 0.960 . S
C438 H424 0.960 . S
C438 H425 0.960 . S
C438 C437 1.524 . S
C439 C436 1.403 . S
C439 C440 1.392 . S
C439 C443 1.495 . S
C440 C439 1.392 . S
C440 C441 1.385 . S
C440 C442 1.478 . S
C441 H435 0.930 . S
C441 C437 1.400 . S
C441 C440 1.385 . S
C442 C440 1.478 . S
C442 C444 1.381 . S
C442 C448 1.383 . S
C443 C439 1.495 . S
C443 H449 0.959 . S
C443 H450 0.961 . S
C443 H451 0.960 . S
C444 C442 1.381 . S
C444 C445 1.394 . S
C444 H452 0.930 . S
C445 C444 1.394 . S
C445 C446 1.383 . S
C445 H453 0.929 . S
C446 C445 1.383 . S
C446 C447 1.377 . S
C447 H431 0.930 . S
C447 C446 1.377 . S
C447 C448 1.379 . S
C448 H432 0.931 . S
C448 C442 1.383 . S
C448 C447 1.379 . S
H449 C443 0.959 . S
H450 C443 0.961 . S
H451 C443 0.960 . S
H452 C444 0.930 . S
H453 C445 0.929 . S
H454 C462 0.929 . S
H455 C464 0.930 . S
H456 C466 0.930 . S
H457 C469 0.929 . S
H458 C472 0.930 . S
H459 C474 0.960 . S
H460 C474 0.960 . S
H461 C474 0.960 . S
C462 H454 0.929 . S
C462 C463 1.377 . S
C462 C464 1.384 . S
C463 C462 1.377 . S
C463 C469 1.390 . S
C464 H455 0.930 . S
C464 C462 1.384 . S
C464 C465 1.372 . S
C465 C464 1.372 . S
C465 C466 1.400 . S
C465 C470 1.490 . S
C466 H456 0.930 . S
C466 C465 1.400 . S
C466 C469 1.386 . S
H467 C483 0.930 . S
H468 C484 0.931 . S
C469 H457 0.929 . S
C469 C463 1.390 . S
C469 C466 1.386 . S
C470 C465 1.490 . S
C470 C472 1.395 . S
C470 C473 1.403 . S
H471 C477 0.930 . S
C472 H458 0.930 . S
C472 C470 1.395 . S
C472 C475 1.403 . S
C473 C470 1.403 . S
C473 C474 1.524 . S
C473 C477 1.400 . S
C474 H459 0.960 . S
C474 H460 0.960 . S
C474 H461 0.960 . S
C474 C473 1.524 . S
C475 C472 1.403 . S
C475 C476 1.392 . S
C475 C479 1.495 . S
C476 C475 1.392 . S
C476 C477 1.385 . S
C476 C478 1.478 . S
C477 H471 0.930 . S
C477 C473 1.400 . S
C477 C476 1.385 . S
C478 C476 1.478 . S
C478 C480 1.381 . S
C478 C484 1.383 . S
C479 C475 1.495 . S
C479 H485 0.959 . S
C479 H486 0.961 . S
C479 H487 0.960 . S
C480 C478 1.381 . S
C480 C481 1.394 . S
C480 H488 0.930 . S
C481 C480 1.394 . S
C481 C482 1.383 . S
C481 H489 0.929 . S
C482 C481 1.383 . S
C482 C483 1.377 . S
C483 H467 0.930 . S
C483 C482 1.377 . S
C483 C484 1.379 . S
C484 H468 0.931 . S
C484 C478 1.383 . S
C484 C483 1.379 . S
H485 C479 0.959 . S
H486 C479 0.961 . S
H487 C479 0.960 . S
H488 C480 0.930 . S
H489 C481 0.929 . S
H490 C498 0.944 . S
H491 C500 0.930 . S
H492 C502 0.930 . S
H493 C505 0.929 . S
H494 C508 0.930 . S
H495 C510 0.960 . S
H496 C510 0.960 . S
H497 C510 0.960 . S
C498 H490 0.944 . S
C498 C499 1.380 . S
C498 C500 1.367 1_554 S
C499 C498 1.380 . S
C499 C505 1.390 1_554 S
C500 H491 0.930 . S
C500 C498 1.367 1_556 S
C500 C501 1.372 . S
C501 C500 1.372 . S
C501 C502 1.400 . S
C501 C506 1.490 . S
C502 H492 0.930 . S
C502 C501 1.400 . S
C502 C505 1.386 . S
H503 C519 0.930 . S
H504 C520 0.931 . S
C505 H493 0.929 . S
C505 C499 1.390 1_556 S
C505 C502 1.386 . S
C506 C501 1.490 . S
C506 C508 1.395 . S
C506 C509 1.403 . S
H507 C513 0.930 . S
C508 H494 0.930 . S
C508 C506 1.395 . S
C508 C511 1.403 . S
C509 C506 1.403 . S
C509 C510 1.524 . S
C509 C513 1.400 . S
C510 H495 0.960 . S
C510 H496 0.960 . S
C510 H497 0.960 . S
C510 C509 1.524 . S
C511 C508 1.403 . S
C511 C512 1.392 . S
C511 C515 1.495 . S
C512 C511 1.392 . S
C512 C513 1.385 . S
C512 C514 1.478 . S
C513 H507 0.930 . S
C513 C509 1.400 . S
C513 C512 1.385 . S
C514 C512 1.478 . S
C514 C516 1.381 . S
C514 C520 1.383 . S
C515 C511 1.495 . S
C515 H521 0.959 . S
C515 H522 0.961 . S
C515 H523 0.960 . S
C516 C514 1.381 . S
C516 C517 1.394 . S
C516 H524 0.930 . S
C517 C516 1.394 . S
C517 C518 1.383 . S
C517 H525 0.929 . S
C518 C517 1.383 . S
C518 C519 1.377 . S
C519 H503 0.930 . S
C519 C518 1.377 . S
C519 C520 1.379 . S
C520 H504 0.931 . S
C520 C514 1.383 . S
C520 C519 1.379 . S
H521 C515 0.959 . S
H522 C515 0.961 . S
H523 C515 0.960 . S
H524 C516 0.930 . S
H525 C517 0.929 . S
C122 C67 1.268 . S
C103 N41 1.469 . S
C139 N2 1.469 . S
C158 C91 1.312 . S
C175 N15 1.639 . S
C194 C70 1.370 . S
C211 N28 1.639 . S
C230 C88 1.364 . S
C266 C68 1.433 . S
C247 N5 1.499 . S
C302 C90 1.553 . S
C283 N14 1.595 . S
C319 N27 1.560 . S
C338 C69 1.530 . S
C355 N44 1.488 . S
C374 C89 1.440 . S
C410 C87 1.493 . S
C391 N18 1.558 . S
C446 C66 1.555 . S
C427 N31 1.598 . S
C482 C86 1.456 . S
C463 N40 1.495 . S
C499 N1 1.490 . S
C518 C65 1.434 . S
