# Generated by pormake.
# Topology zzz, (3,6)-cn, num edge types: 1
# Building blocks:
#     Node 0, Type 0, BuildingBlock: VETTIZ_charged_linker_0, # of connection points: 3
#     Node 1, Type 0, BuildingBlock: VETTIZ_charged_linker_0, # of connection points: 3
#     Node 2, Type 0, BuildingBlock: VETTIZ_charged_linker_0, # of connection points: 3
#     Node 3, Type 0, BuildingBlock: VETTIZ_charged_linker_0, # of connection points: 3
#     Node 4, Type 0, BuildingBlock: VETTIZ_charged_linker_0, # of connection points: 3
#     Node 5, Type 0, BuildingBlock: VETTIZ_charged_linker_0, # of connection points: 3
#     Node 6, Type 0, BuildingBlock: VETTIZ_charged_linker_0, # of connection points: 3
#     Node 7, Type 0, BuildingBlock: VETTIZ_charged_linker_0, # of connection points: 3
#     Node 8, Type 1, BuildingBlock: BETDEL_clean_sbu_0, # of connection points: 6
#     Node 9, Type 1, BuildingBlock: BETDEL_clean_sbu_0, # of connection points: 6
#     Node 10, Type 1, BuildingBlock: BETDEL_clean_sbu_0, # of connection points: 6
#     Node 11, Type 1, BuildingBlock: BETDEL_clean_sbu_0, # of connection points: 6
#     Edge 12, Type (0, 1), BuildingBlock: AJUNOK_clean_linker_0, # of connection points: 2
#     Edge 13, Type (0, 1), BuildingBlock: AJUNOK_clean_linker_0, # of connection points: 2
#     Edge 14, Type (0, 1), BuildingBlock: AJUNOK_clean_linker_0, # of connection points: 2
#     Edge 15, Type (0, 1), BuildingBlock: AJUNOK_clean_linker_0, # of connection points: 2
#     Edge 16, Type (0, 1), BuildingBlock: AJUNOK_clean_linker_0, # of connection points: 2
#     Edge 17, Type (0, 1), BuildingBlock: AJUNOK_clean_linker_0, # of connection points: 2
#     Edge 18, Type (0, 1), BuildingBlock: AJUNOK_clean_linker_0, # of connection points: 2
#     Edge 19, Type (0, 1), BuildingBlock: AJUNOK_clean_linker_0, # of connection points: 2
#     Edge 20, Type (0, 1), BuildingBlock: AJUNOK_clean_linker_0, # of connection points: 2
#     Edge 21, Type (0, 1), BuildingBlock: AJUNOK_clean_linker_0, # of connection points: 2
#     Edge 22, Type (0, 1), BuildingBlock: AJUNOK_clean_linker_0, # of connection points: 2
#     Edge 23, Type (0, 1), BuildingBlock: AJUNOK_clean_linker_0, # of connection points: 2
#     Edge 24, Type (0, 1), BuildingBlock: AJUNOK_clean_linker_0, # of connection points: 2
#     Edge 25, Type (0, 1), BuildingBlock: AJUNOK_clean_linker_0, # of connection points: 2
#     Edge 26, Type (0, 1), BuildingBlock: AJUNOK_clean_linker_0, # of connection points: 2
#     Edge 27, Type (0, 1), BuildingBlock: AJUNOK_clean_linker_0, # of connection points: 2
#     Edge 28, Type (0, 1), BuildingBlock: AJUNOK_clean_linker_0, # of connection points: 2
#     Edge 29, Type (0, 1), BuildingBlock: AJUNOK_clean_linker_0, # of connection points: 2
#     Edge 30, Type (0, 1), BuildingBlock: AJUNOK_clean_linker_0, # of connection points: 2
#     Edge 31, Type (0, 1), BuildingBlock: AJUNOK_clean_linker_0, # of connection points: 2
#     Edge 32, Type (0, 1), BuildingBlock: AJUNOK_clean_linker_0, # of connection points: 2
#     Edge 33, Type (0, 1), BuildingBlock: AJUNOK_clean_linker_0, # of connection points: 2
#     Edge 34, Type (0, 1), BuildingBlock: AJUNOK_clean_linker_0, # of connection points: 2
#     Edge 35, Type (0, 1), BuildingBlock: AJUNOK_clean_linker_0, # of connection points: 2
# Relax obj value: 0.357
# Max RMSD: 0.232
# Mean RMSD: 0.215
data_MOF--net-zzz--node1-BETDEL_clean_sbu_0--node2-VETTIZ_charged_linker_0--edge1-AJUNOK_clean_linker_0
_symmetry_space_group_name_H-M    P1
_symmetry_Int_Tables_number       1
_symmetry_cell_setting            triclinic
loop_
_symmetry_equiv_pos_as_xyz
'x, y, z'
_cell_length_a     42.875879
_cell_length_b     43.076571
_cell_length_c     15.351234
_cell_angle_alpha  90.828817
_cell_angle_beta   89.269772
_cell_angle_gamma 95.414151
loop_
_atom_site_label
_atom_site_type_symbol
_atom_site_fract_x
_atom_site_fract_y
_atom_site_fract_z
_atom_type_partial_charge
C0 C 0.83095 0.52037 0.2175 0.0
C1 C 0.84923 0.50457 0.27671 0.0
C2 C 0.84254 0.47208 0.28639 0.0
C3 C 0.80846 0.47049 0.16364 0.0
C4 C 0.80928 0.50234 0.16331 0.0
C5 C 0.78433 0.51181 0.10088 0.0
H6 H 0.68767 0.45864 0.7588 0.0
C7 C 0.79118 0.45751 0.08908 0.0
C8 C 0.77426 0.48059 0.05386 0.0
H9 H 0.68494 0.54702 0.89234 0.0
H10 H 0.72838 0.53489 0.98521 0.0
H11 H 0.75388 0.46474 0.73024 0.0
H12 H 0.6989 0.41278 0.91652 0.0
H13 H 0.7277 0.38963 0.87325 0.0
H14 H 0.7016 0.40656 0.80061 0.0
H15 H 0.74948 0.42349 0.72024 0.0
H16 H 0.78272 0.44355 0.77541 0.0
C17 C 0.79874 0.53667 0.03754 0.0
C18 C 0.75746 0.52331 0.15661 0.0
C19 C 0.85135 0.38678 0.90755 0.0
C20 C 0.8487 0.38179 0.81752 0.0
C21 C 0.81853 0.37827 0.78117 0.0
C22 C 0.79286 0.38747 0.82935 0.0
C23 C 0.79808 0.40095 0.91235 0.0
C24 C 0.82618 0.39804 0.95326 0.0
C25 C 0.8285 0.41525 0.03918 0.0
C26 C 0.79814 0.43143 0.03819 0.0
C27 C 0.78137 0.42409 0.96183 0.0
C28 C 0.85814 0.43898 0.03834 0.0
C29 C 0.82954 0.39113 0.11253 0.0
C30 C 0.69591 0.47516 0.80923 0.0
C31 C 0.68233 0.50333 0.81972 0.0
C32 C 0.69469 0.52487 0.88384 0.0
C33 C 0.71944 0.51766 0.93849 0.0
C34 C 0.732 0.48871 0.92867 0.0
C35 C 0.72057 0.46851 0.86293 0.0
C36 C 0.7385 0.44041 0.8537 0.0
C37 C 0.75956 0.44451 0.93257 0.0
C38 C 0.75636 0.47317 0.97647 0.0
C39 C 0.75708 0.44294 0.76573 0.0
C40 C 0.71551 0.41063 0.86096 0.0
H41 H 0.81617 0.43044 0.2403 0.0
H42 H 0.8338 0.54553 0.21313 0.0
H43 H 0.74983 0.50604 0.20761 0.0
H44 H 0.7366 0.5266 0.11805 0.0
H45 H 0.76525 0.54578 0.1897 0.0
H46 H 0.81911 0.52811 1.00219 0.0
H47 H 0.80691 0.55848 0.07326 0.0
H48 H 0.78154 0.54239 0.98852 0.0
H49 H 0.8742 0.38799 0.93718 0.0
H50 H 0.8157 0.37303 0.71233 0.0
H51 H 0.77064 0.38648 0.79783 0.0
H52 H 0.85765 0.45506 0.98244 0.0
H53 H 0.87989 0.42699 0.03369 0.0
H54 H 0.86057 0.45323 0.09853 0.0
H55 H 0.83979 0.3697 0.08913 0.0
H56 H 0.80569 0.38392 0.13859 0.0
H57 H 0.84487 0.40023 0.16651 0.0
H58 H 0.85466 0.45958 0.33425 0.0
C59 C 0.82164 0.45506 0.23096 0.0
C60 C 0.97628 0.82533 0.80491 0.0
C61 C 0.97219 0.85687 0.82284 0.0
C62 C 0.94439 0.86419 0.86571 0.0
C63 C 0.93577 0.81103 0.90998 0.0
C64 C 0.95671 0.80236 0.84778 0.0
C65 C 0.95996 0.76799 0.85179 0.0
H66 H 1.00205 0.65354 0.04001 0.0
C67 C 0.93261 0.78704 0.97681 0.0
C68 C 0.94225 0.76008 0.93739 0.0
H69 H 0.9416 0.64633 0.81435 0.0
H70 H 0.92245 0.69657 0.85423 0.0
H71 H 0.02322 0.73309 0.03895 0.0
H72 H 0.94109 0.68934 0.17479 0.0
H73 H 0.96821 0.71374 0.23923 0.0
H74 H 0.97936 0.67736 0.19612 0.0
H75 H 0.02754 0.70413 0.12025 0.0
H76 H 0.01974 0.74298 0.1515 0.0
C77 C 0.99487 0.7617 0.85557 0.0
C78 C 0.9441 0.75194 0.77136 0.0
C79 C 0.95387 0.83487 0.27453 0.0
C80 C 0.97719 0.83087 0.33479 0.0
C81 C 0.99168 0.80268 0.33223 0.0
C82 C 0.98378 0.77967 0.26684 0.0
C83 C 0.96258 0.78582 0.20114 0.0
C84 C 0.94873 0.81364 0.20535 0.0
C85 C 0.9344 0.82152 0.12106 0.0
C86 C 0.93871 0.79223 0.06737 0.0
C87 C 0.95465 0.77066 0.11505 0.0
C88 C 0.95322 0.85148 0.085 0.0
C89 C 0.89941 0.82561 0.13609 0.0
C90 C 0.98479 0.66275 0.99923 0.0
C91 C 0.97403 0.64651 0.92199 0.0
C92 C 0.95074 0.65864 0.87205 0.0
C93 C 0.94046 0.68756 0.89256 0.0
C94 C 0.9539 0.70444 0.96258 0.0
C95 C 0.97301 0.69169 0.02039 0.0
C96 C 0.97898 0.71397 0.09878 0.0
C97 C 0.96008 0.74132 0.07441 0.0
C98 C 0.94851 0.73545 0.99076 0.0
C99 C 1.01434 0.72414 0.10309 0.0
C100 C 0.96626 0.69775 0.1822 0.0
H101 H 0.90628 0.84693 0.94952 0.0
H102 H 0.99626 0.81899 0.76726 0.0
H103 H 0.95139 0.76492 0.71124 0.0
H104 H 0.91815 0.75089 0.77732 0.0
H105 H 0.9512 0.72807 0.76133 0.0
H106 H 1.00658 0.77438 0.91163 0.0
H107 H 1.00753 0.76909 0.79469 0.0
H108 H 0.99739 0.73647 0.86241 0.0
H109 H 0.94316 0.8567 0.27368 0.0
H110 H 1.01011 0.79921 0.37765 0.0
H111 H 0.9958 0.7589 0.26597 0.0
H112 H 0.96649 0.86578 0.13521 0.0
H113 H 0.93762 0.86785 0.05766 0.0
H114 H 0.97114 0.84561 0.03612 0.0
H115 H 0.88762 0.8054 0.17179 0.0
H116 H 0.88705 0.82712 0.07366 0.0
H117 H 0.89648 0.84714 0.17487 0.0
H118 H 0.93911 0.88819 0.8734 0.0
C119 C 0.92575 0.84087 0.90974 0.0
C120 C 0.86156 0.99541 0.98203 0.0
C121 C 0.88199 0.01688 0.93346 0.0
C122 C 0.87612 0.04861 0.93456 0.0
C123 C 0.82655 0.03552 1.00633 0.0
C124 C 0.83429 1.00586 0.02167 0.0
C125 C 0.80793 0.98787 0.07262 0.0
H126 H 0.6505 0.99062 0.17781 0.0
C127 C 0.79318 0.03693 0.02437 0.0
C128 C 0.78278 1.0111 0.07622 0.0
H129 H 0.7189 0.99251 0.38124 0.0
H130 H 0.76176 0.99589 0.26967 0.0
H131 H 0.65185 0.02347 0.0676 0.0
H132 H 0.69844 0.95213 1.00417 0.0
H133 H 0.67932 0.97362 0.92547 0.0
H134 H 0.65929 0.9625 0.02411 0.0
H135 H 0.66702 0.03042 0.96328 0.0
H136 H 0.68608 0.0505 0.0549 0.0
C137 C 0.81894 0.98072 0.16434 0.0
C138 C 0.79641 0.95753 0.0235 0.0
C139 C 0.73217 0.09386 0.80243 0.0
C140 C 0.70416 0.0837 0.75987 0.0
C141 C 0.69052 0.05288 0.77093 0.0
C142 C 0.70244 0.03366 0.83164 0.0
C143 C 0.72715 0.0459 0.88325 0.0
C144 C 0.74408 0.07356 0.86179 0.0
C145 C 0.77576 0.07639 0.90443 0.0
C146 C 0.77204 0.04796 0.96416 0.0
C147 C 0.7425 0.03164 0.95365 0.0
C148 C 0.78032 0.10709 0.95732 0.0
C149 C 0.80105 0.07424 0.83186 0.0
C150 C 0.67463 0.99138 0.19839 0.0
C151 C 0.68135 0.99146 0.28747 0.0
C152 C 0.71309 0.99201 0.31278 0.0
C153 C 0.73761 0.99364 0.24928 0.0
C154 C 0.73009 0.99442 0.1605 0.0
C155 C 0.69904 0.99426 0.13662 0.0
C156 C 0.69575 1.00125 0.04165 0.0
C157 C 0.73008 1.01036 0.01721 0.0
C158 C 0.75001 1.00222 0.08282 0.0
C159 C 0.67426 0.02794 0.03117 0.0
C160 C 0.68253 0.97081 0.99585 0.0
H161 H 0.84423 0.08222 0.97071 0.0
H162 H 0.86609 0.97117 0.98569 0.0
H163 H 0.78883 0.96275 0.95669 0.0
H164 H 0.77623 0.94504 0.05846 0.0
H165 H 0.81529 0.94161 0.01815 0.0
H166 H 0.82584 1.00264 0.20124 0.0
H167 H 0.83947 0.96679 0.16046 0.0
H168 H 0.79999 0.96705 0.20106 0.0
H169 H 0.74407 0.11672 0.79041 0.0
H170 H 0.66961 0.04431 0.73577 0.0
H171 H 0.69195 1.01024 0.83861 0.0
H172 H 0.76009 0.10933 1.0023 0.0
H173 H 0.78247 0.12746 0.91331 0.0
H174 H 0.8017 0.10803 0.99736 0.0
H175 H 0.80677 0.04981 0.82153 0.0
H176 H 0.82275 0.08938 0.8458 0.0
H177 H 0.79323 0.08254 0.76822 0.0
H178 H 0.89181 0.06585 0.90126 0.0
C179 C 0.8485 0.05801 0.9716 0.0
C180 C 0.54901 0.72397 0.32058 0.0
C181 C 0.56732 0.7035 0.36556 0.0
C182 C 0.60017 0.71025 0.36668 0.0
C183 C 0.59617 0.74766 0.25415 0.0
C184 C 0.56463 0.74782 0.26885 0.0
C185 C 0.55196 0.77182 0.20978 0.0
H186 H 0.57037 0.85359 0.83483 0.0
C187 C 0.60404 0.76214 0.17066 0.0
C188 C 0.58126 0.78274 0.15477 0.0
H189 H 0.54564 0.8989 0.07527 0.0
H190 H 0.55869 0.85264 0.15763 0.0
H191 H 0.63315 0.82951 0.90651 0.0
H192 H 0.54059 0.78945 0.86241 0.0
H193 H 0.56004 0.75586 0.8799 0.0
H194 H 0.57122 0.78089 0.7891 0.0
H195 H 0.61425 0.82115 0.80377 0.0
H196 H 0.63483 0.79233 0.85663 0.0
C197 C 0.54019 0.7984 0.26511 0.0
C198 C 0.5256 0.75621 0.15221 0.0
C199 C 0.62277 0.6763 0.95909 0.0
C200 C 0.60997 0.67249 0.87601 0.0
C201 C 0.60772 0.69885 0.82446 0.0
C202 C 0.61291 0.72873 0.86126 0.0
C203 C 0.61853 0.73182 0.951 0.0
C204 C 0.62486 0.70605 0.99806 0.0
C205 C 0.62662 0.71295 0.09436 0.0
C206 C 0.61677 0.74637 0.09787 0.0
C207 C 0.61218 0.75692 0.01298 0.0
C208 C 0.66084 0.71175 0.12226 0.0
C209 C 0.60379 0.68895 0.14436 0.0
C210 C 0.56687 0.8535 0.90486 0.0
C211 C 0.55629 0.87955 0.94812 0.0
C212 C 0.55312 0.87886 0.04018 0.0
C213 C 0.55969 0.85214 0.08734 0.0
C214 C 0.56897 0.82598 0.04164 0.0
C215 C 0.57379 0.82758 0.95254 0.0
C216 C 0.58866 0.79977 0.91665 0.0
C217 C 0.59539 0.7833 1.00042 0.0
C218 C 0.58138 0.79714 0.07196 0.0
C219 C 0.61934 0.81114 0.86776 0.0
C220 C 0.56408 0.78047 0.85891 0.0
H221 H 0.64007 0.7355 0.30516 0.0
H222 H 0.52369 0.72024 0.32163 0.0
H223 H 0.534 0.73645 0.11394 0.0
H224 H 0.51752 0.77324 0.1058 0.0
H225 H 0.50516 0.74717 0.19268 0.0
H226 H 0.55997 0.81206 0.29848 0.0
H227 H 0.5232 0.78888 0.31551 0.0
H228 H 0.52787 0.81423 0.22413 0.0
H229 H 0.62624 0.65591 0.99679 0.0
H230 H 0.5991 0.69628 0.75859 0.0
H231 H 0.60978 0.74808 0.82041 0.0
H232 H 0.66822 0.68792 0.11152 0.0
H233 H 0.66405 0.71776 0.19185 0.0
H234 H 0.67681 0.72839 0.08401 0.0
H235 H 0.57956 0.6961 0.14596 0.0
H236 H 0.61191 0.68527 0.21086 0.0
H237 H 0.60211 0.66512 0.11619 0.0
H238 H 0.61457 0.69585 0.40336 0.0
C239 C 0.61487 0.73243 0.31005 0.0
C240 C 0.34403 0.52179 0.24335 0.0
C241 C 0.36645 0.53978 0.29593 0.0
C242 C 0.36578 0.57243 0.29955 0.0
C243 C 0.31864 0.56848 0.21553 0.0
C244 C 0.32054 0.53716 0.20104 0.0
C245 C 0.29604 0.52489 0.13384 0.0
H246 H 0.17577 0.56566 0.87059 0.0
C247 C 0.29218 0.57854 0.16913 0.0
C248 C 0.27951 0.55434 0.11454 0.0
H249 H 0.20587 0.47351 0.88996 0.0
H250 H 0.24644 0.49315 0.99443 0.0
H251 H 0.16448 0.57694 0.02757 0.0
H252 H 0.24329 0.60963 0.88739 0.0
H253 H 0.23255 0.63955 0.95918 0.0
H254 H 0.20354 0.61988 0.88867 0.0
H255 H 0.17352 0.61753 0.02941 0.0
H256 H 0.18474 0.59365 0.11807 0.0
C257 C 0.27351 0.49939 0.17629 0.0
C258 C 0.31294 0.51301 0.0527 0.0
C259 C 0.21957 0.64426 0.31777 0.0
C260 C 0.19 0.6501 0.28631 0.0
C261 C 0.18764 0.6587 0.19875 0.0
C262 C 0.21136 0.65235 0.13938 0.0
C263 C 0.23611 0.63658 0.16934 0.0
C264 C 0.24259 0.63683 0.25709 0.0
C265 C 0.27168 0.62089 0.27443 0.0
C266 C 0.2764 0.60532 0.18515 0.0
C267 C 0.25349 0.61261 0.12676 0.0
C268 C 0.26586 0.59667 0.34782 0.0
C269 C 0.29807 0.64634 0.29876 0.0
C270 C 0.19147 0.54973 0.8959 0.0
C271 C 0.18795 0.51831 0.87118 0.0
C272 C 0.20823 0.49803 0.90778 0.0
C273 C 0.23168 0.50941 0.96813 0.0
C274 C 0.23426 0.54117 0.99374 0.0
C275 C 0.21366 0.56035 0.95828 0.0
C276 C 0.21532 0.59192 1.00045 0.0
C277 C 0.24215 0.58988 0.06341 0.0
C278 C 0.25382 0.56014 0.05933 0.0
C279 C 0.18312 0.59541 0.04637 0.0
C280 C 0.224 0.61672 0.93026 0.0
H281 H 0.34408 0.61182 0.25515 0.0
H282 H 0.34513 0.49694 0.23466 0.0
H283 H 0.33091 0.53128 0.0286 0.0
H284 H 0.29665 0.50694 0.99871 0.0
H285 H 0.32491 0.49202 0.06833 0.0
H286 H 0.2639 0.50814 0.23867 0.0
H287 H 0.28589 0.47854 0.19048 0.0
H288 H 0.25337 0.49204 0.13433 0.0
H289 H 0.22205 0.63924 0.38603 0.0
H290 H 0.16559 0.66497 0.17378 0.0
H291 H 0.20812 0.65644 0.07141 0.0
H292 H 0.2461 0.5791 0.33134 0.0
H293 H 0.2606 0.60811 0.41085 0.0
H294 H 0.28686 0.58417 0.35872 0.0
H295 H 0.30995 0.6566 0.23963 0.0
H296 H 0.31558 0.63726 0.34174 0.0
H297 H 0.28869 0.66561 0.33699 0.0
H298 H 0.38355 0.58692 0.33484 0.0
C299 C 0.34247 0.58682 0.25769 0.0
C300 C 0.05874 0.20547 0.34256 0.0
C301 C 0.0632 0.17367 0.33098 0.0
C302 C 0.09162 0.1656 0.29304 0.0
C303 C 0.10143 0.21788 0.24278 0.0
C304 C 0.07939 0.22761 0.30017 0.0
C305 C 0.07674 0.26193 0.29141 0.0
H306 H 0.04246 0.37564 0.08573 0.0
C307 C 0.10631 0.24088 0.17381 0.0
C308 C 0.09656 0.26851 0.20856 0.0
H309 H 0.0982 0.38318 0.3209 0.0
H310 H 0.11647 0.33211 0.28841 0.0
H311 H 0.10502 0.33665 0.9655 0.0
H312 H 0.0189 0.29604 0.08878 0.0
H313 H 0.02475 0.28558 0.97731 0.0
H314 H 1.01734 0.32482 1.0054 0.0
H315 H 0.06786 0.34948 0.93571 0.0
H316 H 0.07886 0.31232 0.89814 0.0
C317 C 0.09076 0.27886 0.37303 0.0
C318 C 0.04217 0.26853 0.27976 0.0
C319 C 0.08974 0.18963 0.87829 0.0
C320 C 0.06989 0.19451 0.80954 0.0
C321 C 0.05618 0.22315 0.8069 0.0
C322 C 0.06217 0.2462 0.87336 0.0
C323 C 0.08072 0.2398 0.94492 0.0
C324 C 0.09334 0.21133 0.94679 0.0
C325 C 0.10583 0.20428 0.03405 0.0
C326 C 0.10161 0.23455 0.08315 0.0
C327 C 0.08739 0.25596 0.03037 0.0
C328 C 0.14079 0.19896 0.02456 0.0
C329 C 0.08548 0.17536 0.07092 0.0
C330 C 0.05842 0.36628 0.13032 0.0
C331 C 0.06807 0.38302 0.20795 0.0
C332 C 0.08984 0.37065 0.26272 0.0
C333 C 0.0996 0.34126 0.24637 0.0
C334 C 0.08711 0.32406 0.17579 0.0
C335 C 0.06963 0.33672 0.11375 0.0
C336 C 0.0648 0.31377 0.0363 0.0
C337 C 0.08218 0.28606 0.06667 0.0
C338 C 0.09214 0.29263 0.15154 0.0
C339 C 0.07993 0.32883 0.95399 0.0
C340 C 0.02948 0.3045 0.02594 0.0
H341 H 0.13105 0.18115 0.21208 0.0
H342 H 0.03793 0.21261 0.37437 0.0
H343 H 0.03169 0.25516 0.22309 0.0
H344 H 0.04023 0.29368 0.2691 0.0
H345 H 0.02797 0.26216 0.33892 0.0
H346 H 0.0818 0.26674 0.43309 0.0
H347 H 0.08378 0.30292 0.37878 0.0
H348 H 0.11674 0.27954 0.37229 0.0
H349 H 0.09962 0.16748 0.8837 0.0
H350 H 0.04045 0.22737 0.75465 0.0
H351 H 0.05114 0.26749 0.8693 0.0
H352 H 0.15368 0.21809 0.98694 0.0
H353 H 0.14366 0.17653 0.99006 0.0
H354 H 0.15217 0.19851 0.08873 0.0
H355 H 0.07266 0.16084 0.02018 0.0
H356 H 0.06707 0.18239 0.11669 0.0
H357 H 0.1 0.15891 0.10259 0.0
H358 H 0.09675 0.14147 0.28888 0.0
C359 C 0.1111 0.18803 0.24838 0.0
C360 C 0.33483 0.03691 0.85186 0.0
C361 C 0.36825 0.03936 0.85046 0.0
C362 C 0.38419 0.03853 0.92963 0.0
C363 C 0.3355 0.02542 1.00577 0.0
C364 C 0.31874 0.03092 0.9326 0.0
C365 C 0.28361 0.02763 0.9546 0.0
H366 H 0.17252 0.97678 0.26409 0.0
C367 C 0.31405 1.01267 0.07368 0.0
C368 C 0.28337 0.01758 0.05085 0.0
H369 H 0.17493 0.06766 0.15038 0.0
H370 H 0.22472 0.05908 0.07554 0.0
H371 H 0.21324 0.93516 0.10525 0.0
H372 H 0.23345 0.99449 0.33044 0.0
H373 H 0.25899 0.96531 0.33264 0.0
H374 H 0.21751 0.95462 0.34065 0.0
H375 H 0.20202 0.92387 0.21425 0.0
H376 H 0.24047 0.91836 0.17093 0.0
C377 C 0.26659 1.002 0.89705 0.0
C378 C 0.27005 0.05901 0.94204 0.0
C379 C 0.35801 0.93221 0.25928 0.0
C380 C 0.34487 0.9103 0.31911 0.0
C381 C 0.31204 0.90504 0.32661 0.0
C382 C 0.29276 0.92265 0.27725 0.0
C383 C 0.30668 0.94641 0.22306 0.0
C384 C 0.3388 0.95005 0.21306 0.0
C385 C 0.35033 0.97748 0.15883 0.0
C386 C 0.31942 0.98914 0.13368 0.0
C387 C 0.29409 0.97142 0.1729 0.0
C388 C 0.36943 0.96578 0.08001 0.0
C389 C 0.36947 1.00153 0.21833 0.0
C390 C 0.18233 0.99384 0.21758 0.0
C391 C 0.16892 0.02202 0.20914 0.0
C392 C 0.18396 0.04509 0.15425 0.0
C393 C 0.21221 0.03996 0.10944 0.0
C394 C 0.22541 1.01155 0.11941 0.0
C395 C 0.21108 0.98972 0.17651 0.0
C396 C 0.23339 0.96729 0.20687 0.0
C397 C 0.26332 0.97977 0.16101 0.0
C398 C 0.25806 1.00382 0.10356 0.0
C399 C 0.22173 0.93429 0.17329 0.0
C400 C 0.23601 0.9702 0.30774 0.0
H401 H 0.38126 0.03179 0.06567 0.0
H402 H 0.32192 0.039 0.79245 0.0
H403 H 0.27832 0.07606 0.99372 0.0
H404 H 0.2441 0.05599 0.94254 0.0
H405 H 0.27738 0.06898 0.87777 0.0
H406 H 0.27713 0.97957 0.90424 0.0
H407 H 0.26814 1.00862 0.82732 0.0
H408 H 0.24142 0.99824 0.91599 0.0
H409 H 0.38318 0.93767 0.2544 0.0
H410 H 0.30148 0.88856 0.37348 0.0
H411 H 0.26789 0.91835 0.28683 0.0
H412 H 0.37842 0.94289 0.09221 0.0
H413 H 0.39064 0.98164 0.06553 0.0
H414 H 0.3549 0.96268 0.02051 0.0
H415 H 0.36021 1.00082 0.28642 0.0
H416 H 0.36799 0.02586 0.19795 0.0
H417 H 0.39448 0.99677 0.22032 0.0
H418 H 0.40957 0.04189 0.93097 0.0
C419 C 0.36797 0.03205 1.00717 0.0
C420 C 0.49559 0.30277 0.77803 0.0
C421 C 0.47725 0.32322 0.73275 0.0
C422 C 0.44433 0.31647 0.73267 0.0
C423 C 0.44868 0.27993 0.84732 0.0
C424 C 0.48008 0.27938 0.83146 0.0
C425 C 0.4928 0.25555 0.8911 0.0
H426 H 0.47324 0.1744 0.26862 0.0
C427 C 0.44109 0.26595 0.93158 0.0
C428 C 0.46366 0.24513 0.94744 0.0
H429 H 0.49948 0.12921 0.02962 0.0
H430 H 0.48656 0.17528 0.94616 0.0
H431 H 0.50369 0.23778 0.24224 0.0
H432 H 0.41085 0.19941 0.19489 0.0
H433 H 0.40968 0.23664 0.24497 0.0
H434 H 0.42954 0.20734 0.29813 0.0
H435 H 0.47295 0.24723 0.31394 0.0
H436 H 0.4852 0.27183 0.22305 0.0
C437 C 0.51951 0.27125 0.9473 0.0
C438 C 0.50415 0.22861 0.83635 0.0
C439 C 0.42542 0.35289 0.14242 0.0
C440 C 0.43738 0.35645 0.22672 0.0
C441 C 0.43873 0.32987 0.27817 0.0
C442 C 0.43301 0.30007 0.24101 0.0
C443 C 0.42781 0.29715 0.15102 0.0
C444 C 0.42256 0.32314 0.10364 0.0
C445 C 0.42084 0.31629 1.00734 0.0
C446 C 0.42904 0.2823 1.00425 0.0
C447 C 0.43337 0.27173 0.08925 0.0
C448 C 0.44507 0.33917 0.95829 0.0
C449 C 0.38707 0.31936 0.9782 0.0
C450 C 0.47688 0.17446 0.19863 0.0
C451 C 0.48778 0.14853 0.1559 0.0
C452 C 0.49162 0.1492 0.06409 0.0
C453 C 0.48514 0.17582 0.01638 0.0
C454 C 0.47555 0.20196 0.06151 0.0
C455 C 0.47031 0.20039 0.15051 0.0
C456 C 0.45581 0.22845 0.18599 0.0
C457 C 0.44965 0.24504 0.10202 0.0
C458 C 0.4636 0.23098 0.03067 0.0
C459 C 0.48046 0.24733 0.24442 0.0
C460 C 0.42483 0.21753 0.23408 0.0
H461 H 0.4046 0.29177 0.79678 0.0
H462 H 0.52091 0.30629 0.77609 0.0
H463 H 0.48412 0.21473 0.80474 0.0
H464 H 0.51683 0.21307 0.87731 0.0
H465 H 0.52075 0.23779 0.78459 0.0
H466 H 0.51143 0.29127 0.98509 0.0
H467 H 0.53982 0.27994 0.90589 0.0
H468 H 0.52764 0.25439 0.99411 0.0
H469 H 0.42291 0.37326 0.10377 0.0
H470 H 0.44686 0.33218 0.34471 0.0
H471 H 0.43526 0.28054 0.282 0.0
H472 H 0.46902 0.33144 0.9616 0.0
H473 H 0.44652 0.36336 0.98388 0.0
H474 H 0.43854 0.34201 0.89004 0.0
H475 H 0.38068 0.34344 0.99104 0.0
H476 H 0.3702 0.30284 0.01408 0.0
H477 H 0.38413 0.31455 0.90792 0.0
H478 H 0.42975 0.33067 0.69599 0.0
C479 C 0.4298 0.29482 0.79111 0.0
Dy480 Dy 0.04405 1.00128 0.63096 0.0
C481 C 0.98201 0.06557 0.39126 0.0
C482 C 0.06093 0.96028 0.75166 0.0
Dy483 Dy 1.00318 0.02517 0.50789 0.0
O484 O 0.07197 0.96287 0.67276 0.0
O485 O 0.04501 0.98397 0.76724 0.0
O486 O 0.08721 0.02525 0.56969 0.0
O487 O 0.04972 1.00849 0.48978 0.0
C488 C 0.0766 0.02371 0.49049 0.0
C489 C 0.97193 1.00335 0.65177 0.0
O490 O 1.00057 0.97734 0.44887 0.0
O491 O 1.01813 0.95721 0.57486 0.0
O492 O 0.97117 0.06069 0.4695 0.0
O493 O 1.00103 0.04453 0.37395 0.0
O494 O 0.96103 0.99987 0.5731 0.0
O495 O 0.99837 0.01909 0.64895 0.0
O496 O 0.04954 0.04977 0.68607 0.0
O497 O 0.02809 0.06957 0.5642 0.0
C498 C 1.00631 0.95314 0.49595 0.0
C499 C 0.04237 0.07371 0.63991 0.0
Dy500 Dy 0.49992 0.98742 0.51099 0.0
C501 C 0.59314 0.0865 0.62962 0.0
C502 C 0.45173 0.94282 0.48312 0.0
Dy503 Dy 0.54213 0.0449 0.60535 0.0
O504 O 0.47296 0.95194 0.42521 0.0
O505 O 0.45632 0.95885 0.55467 0.0
O506 O 0.5411 0.96689 0.44181 0.0
O507 O 0.5481 1.00491 0.52372 0.0
C508 C 0.56231 0.98731 0.47415 0.0
C509 C 0.48012 0.0465 0.64302 0.0
O510 O 0.53089 0.06474 0.47643 0.0
O511 O 0.4929 0.02741 0.41994 0.0
O512 O 0.57311 0.07713 0.69058 0.0
O513 O 0.58529 0.07269 0.55643 0.0
O514 O 0.502 0.06691 0.6725 0.0
O515 O 0.49339 0.02744 0.59497 0.0
O516 O 0.51146 0.96716 0.63916 0.0
O517 O 0.54938 1.00461 0.69515 0.0
C518 C 0.51011 0.05498 0.41604 0.0
C519 C 0.53272 0.97677 0.69849 0.0
Dy520 Dy 0.51453 0.52571 0.64413 0.0
C521 C 0.515 0.46844 0.31692 0.0
C522 C 0.53412 0.55936 0.78752 0.0
Dy523 Dy 0.53215 0.50176 0.46303 0.0
O524 O 0.5067 0.56014 0.75195 0.0
O525 O 0.54874 0.53787 0.74955 0.0
O526 O 0.46273 0.514 0.61756 0.0
O527 O 0.49463 0.52659 0.5164 0.0
C528 C 0.46655 0.51663 0.53296 0.0
C529 C 0.57985 0.51155 0.57441 0.0
O530 O 0.53885 0.55247 0.42909 0.0
O531 O 0.53243 0.56988 0.57151 0.0
O532 O 0.54105 0.46642 0.35863 0.0
O533 O 0.50073 0.49096 0.35054 0.0
O534 O 0.58374 0.51468 0.49006 0.0
O535 O 0.552 0.50082 0.59058 0.0
O536 O 0.50795 0.47507 0.67783 0.0
O537 O 0.51261 0.45775 0.53449 0.0
C538 C 0.53867 0.57551 0.48761 0.0
C539 C 0.50721 0.45214 0.61884 0.0
Dy540 Dy 1.00506 0.49 0.60602 0.0
C541 C 0.0802 0.57721 0.42269 0.0
C542 C 0.95954 0.45231 0.68858 0.0
Dy543 Dy 0.03608 0.54118 0.51515 0.0
O544 O 0.98501 0.44288 0.65531 0.0
O545 O 0.96015 0.48226 0.68134 0.0
O546 O 0.03096 0.45595 0.52963 0.0
O547 O 1.01771 0.49514 0.46632 0.0
C548 C 0.03256 0.47125 0.45751 0.0
C549 C 1.00847 0.56029 0.66285 0.0
O550 O 0.99226 0.53874 0.43519 0.0
O551 O 0.9645 0.50944 0.53846 0.0
O552 O 0.05772 0.58793 0.46794 0.0
O553 O 0.07767 0.54706 0.42588 0.0
O554 O 1.01028 0.57546 0.59035 0.0
O555 O 0.02314 0.53618 0.65495 0.0
O556 O 0.04867 0.49321 0.68766 0.0
O557 O 0.0766 0.52266 0.58491 0.0
C558 C 0.96515 0.52622 0.46671 0.0
C559 C 0.07589 0.50592 0.65676 0.0
C560 C 0.15191 0.03968 0.35656 0.0
C561 C 0.14356 0.02867 0.27254 0.0
C562 C 0.12972 0.03938 0.42501 0.0
C563 C 0.09816 0.02781 0.41284 0.0
H564 H 0.17619 0.04711 0.37063 0.0
H565 H 0.13776 0.04712 0.48903 0.0
S566 S 0.06365 0.99949 0.20223 0.0
N567 N 0.1012 1.00801 0.17904 0.0
N568 N 0.05931 1.00779 0.30689 0.0
C569 C 0.08915 0.01839 0.32766 0.0
C570 C 0.11189 0.01862 0.25791 0.0
C571 C 0.47484 0.09524 0.22244 0.0
C572 C 0.49598 0.12198 0.21018 0.0
C573 C 0.47993 0.07303 0.28672 0.0
C574 C 0.50615 0.07691 0.34203 0.0
H575 H 0.45362 0.09211 0.18452 0.0
H576 H 0.46256 0.05333 0.29514 0.0
S577 S 0.56944 0.14241 0.33092 0.0
N578 N 0.54465 0.15033 0.25484 0.0
N579 N 0.55452 0.1094 0.37446 0.0
C580 C 0.52795 0.10321 0.32743 0.0
C581 C 0.52276 0.1255 0.2621 0.0
C582 C 0.42318 0.53728 0.32903 0.0
C583 C 0.3917 0.52652 0.34628 0.0
C584 C 0.44709 0.53289 0.38825 0.0
C585 C 0.44075 0.51762 0.46808 0.0
H586 H 0.42916 0.55075 0.2711 0.0
H587 H 0.47058 0.54293 0.37278 0.0
S588 S 0.36253 0.48303 0.54223 0.0
N589 N 0.35569 0.49843 0.44715 0.0
N590 N 0.40062 0.48992 0.55832 0.0
C591 C 0.40959 0.50542 0.48443 0.0
C592 C 0.38515 0.50984 0.42359 0.0
C593 C 0.07444 0.43803 0.26431 0.0
C594 C 0.05422 0.4114 0.24173 0.0
C595 C 0.06608 0.45936 0.32901 0.0
C596 C 0.03717 0.45487 0.37328 0.0
H597 H 0.09809 0.44069 0.23792 0.0
H598 H 0.08333 0.47797 0.34938 0.0
S599 S 0.97427 0.39156 0.33123 0.0
N600 N 1.00272 0.38388 0.26292 0.0
N601 N 0.98701 0.42393 0.38387 0.0
C602 C 1.01568 0.43009 0.34589 0.0
C603 C 0.02413 0.40846 0.27989 0.0
C604 C 0.93726 0.02369 0.87345 0.0
C605 C 0.90725 1.00713 0.8732 0.0
C606 C 0.95882 0.02082 0.80435 0.0
C607 C 0.95111 1.00169 0.731 0.0
H608 H 0.94356 0.04023 0.92558 0.0
H609 H 0.98099 0.03511 0.80628 0.0
S610 S 0.87703 0.95087 0.70204 0.0
N611 N 0.87217 0.96883 0.79635 0.0
N612 N 0.9124 0.96365 0.66656 0.0
C613 C 0.92199 0.98356 0.73242 0.0
C614 C 0.90019 0.98619 0.80339 0.0
C615 C 0.52635 0.90104 0.82764 0.0
C616 C 0.54839 0.9065 0.89441 0.0
C617 C 0.52116 0.9241 0.76723 0.0
C618 C 0.53801 0.95395 0.76932 0.0
H619 H 0.51339 0.8783 0.82077 0.0
H620 H 0.5041 0.91793 0.71699 0.0
S621 S 0.59802 0.98057 0.9337 0.0
N622 N 0.58674 0.94425 0.96133 0.0
N623 N 0.57726 0.98775 0.84752 0.0
C624 C 0.55968 0.96005 0.8375 0.0
C625 C 0.56477 0.93638 0.89993 0.0
C626 C 0.62763 0.48842 0.76724 0.0
C627 C 0.65517 0.509 0.76341 0.0
C628 C 0.60323 0.49008 0.70744 0.0
C629 C 0.60561 0.51182 0.63937 0.0
H630 H 0.62521 0.47041 0.81606 0.0
H631 H 0.58273 0.47344 0.71295 0.0
S632 S 0.67191 0.57215 0.60313 0.0
N633 N 0.68255 0.55297 0.68869 0.0
N634 N 0.63714 0.5555 0.57473 0.0
C635 C 0.63268 0.53299 0.63581 0.0
C636 C 0.65729 0.53175 0.69816 0.0
C637 C 1.01601 0.62515 0.83289 0.0
C638 C 0.98845 0.61931 0.88309 0.0
C639 C 0.02365 0.60455 0.76559 0.0
C640 C 1.00428 0.57708 0.74679 0.0
H641 H 0.0301 0.64727 0.83982 0.0
H642 H 0.0438 0.61116 0.72429 0.0
S643 S 0.93155 0.54914 0.86552 0.0
N644 N 0.94321 0.58269 0.91396 0.0
N645 N 0.95805 0.54368 0.78907 0.0
C646 C 0.9782 0.5696 0.80123 0.0
C647 C 0.97021 0.59075 0.86911 0.0
C648 C 0.03139 0.12645 0.27476 0.0
C649 C 0.03667 0.14927 0.34105 0.0
C650 C 1.00896 0.10105 0.28489 0.0
C651 C 0.99094 0.09758 0.3616 0.0
H652 H 0.04571 0.12739 0.21602 0.0
H653 H 1.00805 0.08246 0.23638 0.0
S654 S 0.98916 0.15545 0.54287 0.0
N655 N 1.01781 0.16985 0.47823 0.0
N656 N 0.97451 0.12272 0.49557 0.0
C657 C 0.99264 0.12256 0.4223 0.0
C658 C 1.01601 0.14819 0.41285 0.0
C659 C 0.39488 0.89006 0.35388 0.0
C660 C 0.36636 0.90004 0.38488 0.0
C661 C 0.42322 0.90176 0.39159 0.0
C662 C 0.42343 0.92191 0.46428 0.0
H663 H 0.39574 0.8782 0.29127 0.0
H664 H 0.44495 0.89753 0.35863 0.0
S665 S 0.35432 0.94331 0.59085 0.0
N666 N 0.33951 0.92314 0.50627 0.0
N667 N 0.39272 0.94335 0.58098 0.0
C668 C 0.3949 0.92596 0.50695 0.0
C669 C 0.36612 0.91481 0.46697 0.0
C670 C 0.48816 0.38457 0.26954 0.0
C671 C 0.45636 0.38579 0.24943 0.0
C672 C 0.50806 0.41178 0.28304 0.0
C673 C 0.49686 0.44126 0.27708 0.0
H674 H 0.49787 0.36234 0.27437 0.0
H675 H 0.53197 0.4096 0.30225 0.0
S676 S 0.41597 0.45719 0.22018 0.0
N677 N 0.41492 0.41876 0.21988 0.0
N678 N 0.45234 0.47017 0.24444 0.0
C679 C 0.46542 0.44286 0.25318 0.0
C680 C 0.44513 0.41508 0.23984 0.0
C681 C 0.13628 0.64687 0.35644 0.0
C682 C 0.16228 0.63235 0.32537 0.0
C683 C 0.10934 0.62892 0.38714 0.0
C684 C 0.10751 0.59606 0.38548 0.0
H685 H 0.13684 0.67206 0.3571 0.0
H686 H 0.08989 0.6408 0.4123 0.0
S687 S 0.16873 0.54717 0.3037 0.0
N688 N 0.18403 0.58341 0.29104 0.0
N689 N 0.13367 0.54996 0.34685 0.0
C690 C 0.13317 0.58146 0.35248 0.0
C691 C 0.16049 0.59956 0.32279 0.0
C692 C 1.01711 0.88171 0.7342 0.0
C693 C 0.99873 0.88117 0.81065 0.0
C694 C 0.04128 0.9054 0.7206 0.0
C695 C 0.04755 0.92964 0.78248 0.0
H696 H 1.0118 0.86469 0.68259 0.0
H697 H 0.05299 0.90622 0.6576 0.0
S698 S 1.01128 0.93482 1.00156 0.0
N699 N 0.9927 0.9035 0.95618 0.0
N700 N 0.03716 0.94881 0.92816 0.0
C701 C 0.03158 0.92754 0.86257 0.0
C702 C 1.00722 0.90328 0.87699 0.0
C703 C 0.66145 0.11661 0.76258 0.0
C704 C 0.68559 0.1048 0.71308 0.0
C705 C 0.63094 0.11471 0.73035 0.0
C706 C 0.62446 0.10223 0.64683 0.0
H707 H 0.66477 0.12169 0.8314 0.0
H708 H 0.612 0.1193 0.77467 0.0
S709 S 0.6827 0.08135 0.48079 0.0
N710 N 0.7033 0.08957 0.56974 0.0
N711 N 0.64628 0.08763 0.50647 0.0
C712 C 0.64977 0.09747 0.59055 0.0
C713 C 0.68063 0.09878 0.62427 0.0
C714 C 0.60374 0.6149 0.84846 0.0
C715 C 0.59044 0.64329 0.85668 0.0
C716 C 0.58477 0.58706 0.83385 0.0
C717 C 0.5519 0.58675 0.82757 0.0
H718 H 0.62891 0.61434 0.85152 0.0
H719 H 0.59615 0.56588 0.82319 0.0
S720 S 0.50571 0.65456 0.86012 0.0
N721 N 0.54254 0.66915 0.86956 0.0
N722 N 0.50689 0.61689 0.84059 0.0
C723 C 0.53831 0.61477 0.84174 0.0
C724 C 0.5576 0.64305 0.85649 0.0
C725 C 0.90557 0.38412 0.77413 0.0
C726 C 0.87577 0.39484 0.7645 0.0
C727 C 0.93286 0.40227 0.7467 0.0
C728 C 0.93112 0.43206 0.7119 0.0
H729 H 0.90784 0.3624 0.80707 0.0
H730 H 0.95545 0.39364 0.75678 0.0
S731 S 0.85883 0.46998 0.66801 0.0
N732 N 0.84634 0.43636 0.71227 0.0
N733 N 0.89731 0.47044 0.66328 0.0
C734 C 0.90147 0.44237 0.69859 0.0
C735 C 0.87386 0.42372 0.72412 0.0
C736 C 0.08467 0.15201 0.70726 0.0
C737 C 0.06102 0.16723 0.75059 0.0
C738 C 0.07848 0.12197 0.67012 0.0
C739 C 0.04846 0.10591 0.67542 0.0
H740 H 0.10849 0.16291 0.70551 0.0
H741 H 0.09747 0.11095 0.63895 0.0
S742 S 0.97845 0.13476 0.78152 0.0
N743 N 1.00632 0.16354 0.79573 0.0
N744 N 0.99479 0.1073 0.72588 0.0
C745 C 0.02446 0.12102 0.71628 0.0
C746 C 0.03069 0.15163 0.7537 0.0
C747 C 0.4004 0.01496 0.73589 0.0
C748 C 0.38848 0.04206 0.77046 0.0
C749 C 0.42885 0.01646 0.68788 0.0
C750 C 0.44663 0.0451 0.67302 0.0
H751 H 0.38921 0.99223 0.75311 0.0
H752 H 0.43829 0.99491 0.66968 0.0
S753 S 0.42421 0.12302 0.74203 0.0
N754 N 0.39557 0.09843 0.78024 0.0
N755 N 0.44853 0.10142 0.69011 0.0
C756 C 0.43373 0.07244 0.70174 0.0
C757 C 0.40481 0.07089 0.75016 0.0
C758 C 0.4837 0.36387 0.61492 0.0
C759 C 0.49028 0.35449 0.69985 0.0
C760 C 0.48977 0.39519 0.5889 0.0
C761 C 0.50178 0.41881 0.64748 0.0
H762 H 0.47291 0.34696 0.56887 0.0
H763 H 0.48402 0.40109 0.52302 0.0
S764 S 0.52366 0.40642 0.87703 0.0
N765 N 0.51039 0.37133 0.84157 0.0
N766 N 0.52118 0.42996 0.79394 0.0
C767 C 0.509 0.40957 0.73213 0.0
C768 C 0.50344 0.37757 0.75788 0.0
C769 C 0.1329 0.49446 0.84274 0.0
C770 C 0.16184 0.50804 0.81028 0.0
C771 C 0.10552 0.49243 0.79164 0.0
C772 C 0.10587 0.50415 0.70608 0.0
H773 H 0.131 0.48701 0.90985 0.0
H774 H 0.08366 0.48293 0.82107 0.0
S775 S 0.17671 0.53956 0.58863 0.0
N776 N 0.18963 0.53164 0.68595 0.0
N777 N 0.13898 0.52761 0.58964 0.0
C778 C 0.13522 0.51628 0.67169 0.0
C779 C 0.1629 0.51833 0.72378 0.0
C780 C 0.98105 0.8657 0.46962 0.0
C781 C 0.99013 0.85947 0.38308 0.0
C782 C 0.98706 0.89586 0.50708 0.0
C783 C 1.00132 0.92098 0.4582 0.0
H784 H 0.96815 0.84756 0.50722 0.0
H785 H 0.97928 0.89987 0.57336 0.0
S786 S 0.03184 0.91602 0.2319 0.0
N787 N 1.01639 0.8803 0.25267 0.0
N788 N 0.02641 0.93674 0.32123 0.0
C789 C 1.01135 0.91464 0.37292 0.0
C790 C 1.00608 0.88399 0.33594 0.0
C791 C 0.64404 0.9681 0.40334 0.0
C792 C 0.65467 0.99354 0.35078 0.0
C793 C 0.6148 0.96704 0.44744 0.0
C794 C 0.59544 0.99167 0.44241 0.0
H795 H 0.65745 0.94805 0.40596 0.0
H796 H 0.60672 0.94624 0.48311 0.0
S797 S 0.61246 0.06346 0.31349 0.0
N798 N 0.64345 0.04401 0.29703 0.0
N799 N 0.58917 0.04211 0.38049 0.0
C800 C 0.60641 0.01772 0.39302 0.0
C801 C 0.63583 0.01862 0.34722 0.0
C802 C 0.55057 0.64689 0.33933 0.0
C803 C 0.55435 0.67234 0.39813 0.0
C804 C 0.54542 0.6159 0.3686 0.0
C805 C 0.54384 0.60887 0.45822 0.0
H806 H 0.55294 0.6509 0.26994 0.0
H807 H 0.54312 0.59731 0.32024 0.0
S808 S 0.55098 0.66769 0.63854 0.0
N809 N 0.55553 0.68872 0.54948 0.0
N810 N 0.5453 0.63098 0.60542 0.0
C811 C 0.54673 0.63441 0.5176 0.0
C812 C 0.55219 0.66591 0.48742 0.0
C813 C 0.8778 0.51561 0.41687 0.0
C814 C 0.87659 0.51974 0.32616 0.0
C815 C 0.90625 0.51975 0.46209 0.0
C816 C 0.93501 0.52804 0.41888 0.0
H817 H 0.8568 0.50704 0.45235 0.0
H818 H 0.9058 0.51495 0.53112 0.0
S819 S 0.9443 0.54471 0.18265 0.0
N820 N 0.90633 0.53502 0.19572 0.0
N821 N 0.95979 0.54303 0.28031 0.0
C822 C 0.93383 0.53453 0.32916 0.0
C823 C 0.90469 0.53032 0.28303 0.0
loop_
_geom_bond_atom_site_label_1
_geom_bond_atom_site_label_2
_geom_bond_distance
_geom_bond_site_symmetry_2
_ccdc_geom_bond_type
C0 C1 1.391 . S
C0 C4 1.391 . S
C0 H42 0.948 . S
C1 C0 1.391 . S
C1 C2 1.391 . S
C2 C1 1.391 . S
C2 H58 0.947 . S
C2 C59 1.392 . S
C3 C4 1.391 . S
C3 C7 1.397 . S
C3 C59 1.419 . S
C4 C0 1.391 . S
C4 C3 1.391 . S
C4 C5 1.399 . S
C5 C4 1.399 . S
C5 C8 1.396 . S
C5 C17 1.453 . S
C5 C18 1.684 . S
H6 C30 0.948 . S
C7 C3 1.397 . S
C7 C8 1.394 . S
C7 C26 1.723 . S
C8 C5 1.396 . S
C8 C7 1.394 . S
C8 C38 1.723 . S
H9 C32 0.947 . S
H10 C33 0.948 . S
H11 C39 0.982 . S
H12 C40 0.979 . S
H13 C40 0.980 . S
H14 C40 0.983 . S
H15 C39 0.979 . S
H16 C39 0.977 . S
C17 C5 1.453 . S
C17 H46 0.982 . S
C17 H47 0.979 . S
C17 H48 0.977 . S
C18 C5 1.684 . S
C18 H43 0.979 . S
C18 H44 0.980 . S
C18 H45 0.983 . S
C19 C20 1.391 . S
C19 C24 1.391 . S
C19 H49 0.948 . S
C20 C19 1.391 . S
C20 C21 1.391 . S
C21 C20 1.391 . S
C21 C22 1.392 . S
C21 H50 0.947 . S
C22 C21 1.392 . S
C22 C23 1.419 . S
C22 H51 0.948 . S
C23 C22 1.419 . S
C23 C24 1.391 . S
C23 C27 1.397 . S
C24 C19 1.391 . S
C24 C23 1.391 . S
C24 C25 1.398 1_556 S
C25 C24 1.398 1_554 S
C25 C26 1.397 . S
C25 C28 1.454 . S
C25 C29 1.684 . S
C26 C7 1.723 . S
C26 C25 1.397 . S
C26 C27 1.394 1_554 S
C27 C23 1.397 . S
C27 C26 1.394 1_556 S
C27 C37 1.723 . S
C28 C25 1.454 . S
C28 H52 0.982 . S
C28 H53 0.979 . S
C28 H54 0.977 . S
C29 C25 1.684 . S
C29 H55 0.979 . S
C29 H56 0.980 . S
C29 H57 0.983 . S
C30 H6 0.948 . S
C30 C31 1.391 . S
C30 C35 1.391 . S
C31 C30 1.391 . S
C31 C32 1.391 1_556 S
C32 H9 0.947 . S
C32 C31 1.391 1_554 S
C32 C33 1.392 . S
C33 H10 0.948 . S
C33 C32 1.392 . S
C33 C34 1.419 . S
C34 C33 1.419 . S
C34 C35 1.391 1_554 S
C34 C38 1.397 . S
C35 C30 1.391 . S
C35 C34 1.391 1_556 S
C35 C36 1.399 . S
C36 C35 1.399 . S
C36 C37 1.396 . S
C36 C39 1.453 . S
C36 C40 1.684 . S
C37 C27 1.723 . S
C37 C36 1.396 . S
C37 C38 1.394 1_556 S
C38 C8 1.723 . S
C38 C34 1.397 . S
C38 C37 1.394 1_554 S
C39 H11 0.982 . S
C39 H15 0.979 . S
C39 H16 0.977 . S
C39 C36 1.453 . S
C40 H12 0.979 . S
C40 H13 0.980 . S
C40 H14 0.983 . S
C40 C36 1.684 . S
H41 C59 0.948 . S
H42 C0 0.948 . S
H43 C18 0.979 . S
H44 C18 0.980 . S
H45 C18 0.983 . S
H46 C17 0.982 . S
H47 C17 0.979 . S
H48 C17 0.977 . S
H49 C19 0.948 . S
H50 C21 0.947 . S
H51 C22 0.948 . S
H52 C28 0.982 . S
H53 C28 0.979 . S
H54 C28 0.977 . S
H55 C29 0.979 . S
H56 C29 0.980 . S
H57 C29 0.983 . S
H58 C2 0.947 . S
C59 C2 1.392 . S
C59 C3 1.419 . S
C59 H41 0.948 . S
C60 C61 1.391 . S
C60 C64 1.391 . S
C60 H102 0.948 . S
C61 C60 1.391 . S
C61 C62 1.391 . S
C62 C61 1.391 . S
C62 H118 0.947 . S
C62 C119 1.392 . S
C63 C64 1.391 . S
C63 C67 1.397 . S
C63 C119 1.419 . S
C64 C60 1.391 . S
C64 C63 1.391 . S
C64 C65 1.399 . S
C65 C64 1.399 . S
C65 C68 1.396 . S
C65 C77 1.453 . S
C65 C78 1.684 . S
H66 C90 0.948 . S
C67 C63 1.397 . S
C67 C68 1.394 . S
C67 C86 1.723 1_556 S
C68 C65 1.396 . S
C68 C67 1.394 . S
C68 C98 1.723 . S
H69 C92 0.947 . S
H70 C93 0.948 . S
H71 C99 0.982 . S
H72 C100 0.979 . S
H73 C100 0.980 . S
H74 C100 0.983 . S
H75 C99 0.979 . S
H76 C99 0.977 . S
C77 C65 1.453 . S
C77 H106 0.982 . S
C77 H107 0.979 . S
C77 H108 0.977 . S
C78 C65 1.684 . S
C78 H103 0.979 . S
C78 H104 0.980 . S
C78 H105 0.983 . S
C79 C80 1.391 . S
C79 C84 1.391 . S
C79 H109 0.948 . S
C80 C79 1.391 . S
C80 C81 1.391 . S
C81 C80 1.391 . S
C81 C82 1.392 . S
C81 H110 0.947 . S
C82 C81 1.392 . S
C82 C83 1.419 . S
C82 H111 0.948 . S
C83 C82 1.419 . S
C83 C84 1.391 . S
C83 C87 1.397 . S
C84 C79 1.391 . S
C84 C83 1.391 . S
C84 C85 1.399 . S
C85 C84 1.399 . S
C85 C86 1.396 . S
C85 C88 1.453 . S
C85 C89 1.684 . S
C86 C67 1.723 1_554 S
C86 C85 1.396 . S
C86 C87 1.394 . S
C87 C83 1.397 . S
C87 C86 1.394 . S
C87 C97 1.723 . S
C88 C85 1.453 . S
C88 H112 0.982 . S
C88 H113 0.979 . S
C88 H114 0.977 . S
C89 C85 1.684 . S
C89 H115 0.979 . S
C89 H116 0.980 . S
C89 H117 0.983 . S
C90 H66 0.948 . S
C90 C91 1.391 1_554 S
C90 C95 1.391 . S
C91 C90 1.391 1_556 S
C91 C92 1.391 . S
C92 H69 0.947 . S
C92 C91 1.391 . S
C92 C93 1.392 . S
C93 H70 0.948 . S
C93 C92 1.392 . S
C93 C94 1.419 . S
C94 C93 1.419 . S
C94 C95 1.391 1_556 S
C94 C98 1.397 . S
C95 C90 1.391 . S
C95 C94 1.391 1_554 S
C95 C96 1.399 . S
C96 C95 1.399 . S
C96 C97 1.396 . S
C96 C99 1.453 . S
C96 C100 1.684 . S
C97 C87 1.723 . S
C97 C96 1.396 . S
C97 C98 1.394 1_554 S
C98 C68 1.723 . S
C98 C94 1.397 . S
C98 C97 1.394 1_556 S
C99 H71 0.982 . S
C99 H75 0.979 . S
C99 H76 0.977 . S
C99 C96 1.453 . S
C100 H72 0.979 . S
C100 H73 0.980 . S
C100 H74 0.983 . S
C100 C96 1.684 . S
H101 C119 0.948 . S
H102 C60 0.948 . S
H103 C78 0.979 . S
H104 C78 0.980 . S
H105 C78 0.983 . S
H106 C77 0.982 . S
H107 C77 0.979 . S
H108 C77 0.977 . S
H109 C79 0.948 . S
H110 C81 0.947 . S
H111 C82 0.948 . S
H112 C88 0.982 . S
H113 C88 0.979 . S
H114 C88 0.977 . S
H115 C89 0.979 . S
H116 C89 0.980 . S
H117 C89 0.983 . S
H118 C62 0.947 . S
C119 C62 1.392 . S
C119 C63 1.419 . S
C119 H101 0.948 . S
C120 C121 1.391 1_554 S
C120 C124 1.391 . S
C120 H162 0.948 . S
C121 C120 1.391 1_556 S
C121 C122 1.391 . S
C122 C121 1.391 . S
C122 H178 0.947 . S
C122 C179 1.392 . S
C123 C124 1.391 1_556 S
C123 C127 1.397 1_566 S
C123 C179 1.419 . S
C124 C120 1.391 . S
C124 C123 1.391 1_554 S
C124 C125 1.399 . S
C125 C124 1.399 . S
C125 C128 1.396 1_565 S
C125 C137 1.453 1_565 S
C125 C138 1.684 . S
H126 C150 0.948 . S
C127 C123 1.397 1_544 S
C127 C128 1.394 . S
C127 C146 1.723 1_554 S
C128 C125 1.396 1_545 S
C128 C127 1.394 . S
C128 C158 1.723 . S
H129 C152 0.947 . S
H130 C153 0.948 . S
H131 C159 0.982 . S
H132 C160 0.979 . S
H133 C160 0.980 . S
H134 C160 0.983 . S
H135 C159 0.979 . S
H136 C159 0.977 . S
C137 C125 1.453 1_545 S
C137 H166 0.982 . S
C137 H167 0.979 . S
C137 H168 0.977 . S
C138 C125 1.684 . S
C138 H163 0.979 . S
C138 H164 0.980 . S
C138 H165 0.983 . S
C139 C140 1.391 . S
C139 C144 1.391 . S
C139 H169 0.948 . S
C140 C139 1.391 . S
C140 C141 1.391 . S
C141 C140 1.391 . S
C141 C142 1.392 . S
C141 H170 0.947 . S
C142 C141 1.392 . S
C142 C143 1.419 . S
C142 H171 0.948 1_556 S
C143 C142 1.419 . S
C143 C144 1.391 . S
C143 C147 1.397 1_565 S
C144 C139 1.391 . S
C144 C143 1.391 . S
C144 C145 1.399 . S
C145 C144 1.399 . S
C145 C146 1.396 1_565 S
C145 C148 1.453 1_565 S
C145 C149 1.684 . S
C146 C127 1.723 1_556 S
C146 C145 1.396 1_545 S
C146 C147 1.394 . S
C147 C143 1.397 1_545 S
C147 C146 1.394 . S
C147 C157 1.723 1_556 S
C148 C145 1.453 1_545 S
C148 H172 0.982 . S
C148 H173 0.979 . S
C148 H174 0.977 . S
C149 C145 1.684 . S
C149 H175 0.979 . S
C149 H176 0.980 . S
C149 H177 0.983 . S
C150 H126 0.948 . S
C150 C151 1.391 . S
C150 C155 1.391 . S
C151 C150 1.391 . S
C151 C152 1.391 . S
C152 H129 0.947 . S
C152 C151 1.391 . S
C152 C153 1.392 . S
C153 H130 0.948 . S
C153 C152 1.392 . S
C153 C154 1.419 . S
C154 C153 1.419 . S
C154 C155 1.391 . S
C154 C158 1.397 1_565 S
C155 C150 1.391 . S
C155 C154 1.391 . S
C155 C156 1.399 . S
C156 C155 1.399 . S
C156 C157 1.396 1_565 S
C156 C159 1.453 1_565 S
C156 C160 1.684 . S
C157 C147 1.723 1_554 S
C157 C156 1.396 1_545 S
C157 C158 1.394 . S
C158 C128 1.723 . S
C158 C154 1.397 1_545 S
C158 C157 1.394 . S
C159 H131 0.982 . S
C159 H135 0.979 . S
C159 H136 0.977 . S
C159 C156 1.453 1_545 S
C160 H132 0.979 . S
C160 H133 0.980 . S
C160 H134 0.983 . S
C160 C156 1.684 . S
H161 C179 0.948 . S
H162 C120 0.948 . S
H163 C138 0.979 . S
H164 C138 0.980 . S
H165 C138 0.983 . S
H166 C137 0.982 . S
H167 C137 0.979 . S
H168 C137 0.977 . S
H169 C139 0.948 . S
H170 C141 0.947 . S
H171 C142 0.948 1_554 S
H172 C148 0.982 . S
H173 C148 0.979 . S
H174 C148 0.977 . S
H175 C149 0.979 . S
H176 C149 0.980 . S
H177 C149 0.983 . S
H178 C122 0.947 . S
C179 C122 1.392 . S
C179 C123 1.419 . S
C179 H161 0.948 . S
C180 C181 1.391 . S
C180 C184 1.391 . S
C180 H222 0.948 . S
C181 C180 1.391 . S
C181 C182 1.391 . S
C182 C181 1.391 . S
C182 H238 0.947 . S
C182 C239 1.392 . S
C183 C184 1.391 . S
C183 C187 1.397 . S
C183 C239 1.419 . S
C184 C180 1.391 . S
C184 C183 1.391 . S
C184 C185 1.399 . S
C185 C184 1.399 . S
C185 C188 1.396 . S
C185 C197 1.453 . S
C185 C198 1.684 . S
H186 C210 0.948 . S
C187 C183 1.397 . S
C187 C188 1.394 . S
C187 C206 1.723 . S
C188 C185 1.396 . S
C188 C187 1.394 . S
C188 C218 1.723 . S
H189 C212 0.947 . S
H190 C213 0.948 . S
H191 C219 0.982 . S
H192 C220 0.979 . S
H193 C220 0.980 . S
H194 C220 0.983 . S
H195 C219 0.979 . S
H196 C219 0.977 . S
C197 C185 1.453 . S
C197 H226 0.982 . S
C197 H227 0.979 . S
C197 H228 0.977 . S
C198 C185 1.684 . S
C198 H223 0.979 . S
C198 H224 0.980 . S
C198 H225 0.983 . S
C199 C200 1.391 . S
C199 C204 1.391 . S
C199 H229 0.948 . S
C200 C199 1.391 . S
C200 C201 1.391 . S
C201 C200 1.391 . S
C201 C202 1.392 . S
C201 H230 0.947 . S
C202 C201 1.392 . S
C202 C203 1.419 . S
C202 H231 0.948 . S
C203 C202 1.419 . S
C203 C204 1.391 . S
C203 C207 1.397 . S
C204 C199 1.391 . S
C204 C203 1.391 . S
C204 C205 1.399 1_556 S
C205 C204 1.399 1_554 S
C205 C206 1.396 . S
C205 C208 1.453 . S
C205 C209 1.684 . S
C206 C187 1.723 . S
C206 C205 1.396 . S
C206 C207 1.394 1_554 S
C207 C203 1.397 . S
C207 C206 1.394 1_556 S
C207 C217 1.723 . S
C208 C205 1.453 . S
C208 H232 0.982 . S
C208 H233 0.979 . S
C208 H234 0.977 . S
C209 C205 1.684 . S
C209 H235 0.979 . S
C209 H236 0.980 . S
C209 H237 0.983 . S
C210 H186 0.948 . S
C210 C211 1.391 1_556 S
C210 C215 1.391 . S
C211 C210 1.391 1_554 S
C211 C212 1.391 . S
C212 H189 0.947 . S
C212 C211 1.391 . S
C212 C213 1.392 . S
C213 H190 0.948 . S
C213 C212 1.392 . S
C213 C214 1.419 . S
C214 C213 1.419 . S
C214 C215 1.391 1_554 S
C214 C218 1.397 . S
C215 C210 1.391 . S
C215 C214 1.391 1_556 S
C215 C216 1.399 . S
C216 C215 1.399 . S
C216 C217 1.396 . S
C216 C219 1.453 . S
C216 C220 1.684 . S
C217 C207 1.723 . S
C217 C216 1.396 . S
C217 C218 1.394 1_556 S
C218 C188 1.723 . S
C218 C214 1.397 . S
C218 C217 1.394 1_554 S
C219 H191 0.982 . S
C219 H195 0.979 . S
C219 H196 0.977 . S
C219 C216 1.453 . S
C220 H192 0.979 . S
C220 H193 0.980 . S
C220 H194 0.983 . S
C220 C216 1.684 . S
H221 C239 0.948 . S
H222 C180 0.948 . S
H223 C198 0.979 . S
H224 C198 0.980 . S
H225 C198 0.983 . S
H226 C197 0.982 . S
H227 C197 0.979 . S
H228 C197 0.977 . S
H229 C199 0.948 . S
H230 C201 0.947 . S
H231 C202 0.948 . S
H232 C208 0.982 . S
H233 C208 0.979 . S
H234 C208 0.977 . S
H235 C209 0.979 . S
H236 C209 0.980 . S
H237 C209 0.983 . S
H238 C182 0.947 . S
C239 C182 1.392 . S
C239 C183 1.419 . S
C239 H221 0.948 . S
C240 C241 1.391 . S
C240 C244 1.391 . S
C240 H282 0.948 . S
C241 C240 1.391 . S
C241 C242 1.391 . S
C242 C241 1.391 . S
C242 H298 0.947 . S
C242 C299 1.392 . S
C243 C244 1.391 . S
C243 C247 1.397 . S
C243 C299 1.419 . S
C244 C240 1.391 . S
C244 C243 1.391 . S
C244 C245 1.399 1_554 S
C245 C244 1.399 1_556 S
C245 C248 1.396 1_556 S
C245 C257 1.453 . S
C245 C258 1.684 . S
H246 C270 0.948 . S
C247 C243 1.397 . S
C247 C248 1.394 . S
C247 C266 1.723 . S
C248 C245 1.396 1_554 S
C248 C247 1.394 . S
C248 C278 1.723 1_554 S
H249 C272 0.947 . S
H250 C273 0.948 . S
H251 C279 0.982 . S
H252 C280 0.979 . S
H253 C280 0.980 1_554 S
H254 C280 0.983 . S
H255 C279 0.979 . S
H256 C279 0.977 1_554 S
C257 C245 1.453 . S
C257 H286 0.982 . S
C257 H287 0.979 . S
C257 H288 0.977 . S
C258 C245 1.684 . S
C258 H283 0.979 . S
C258 H284 0.980 . S
C258 H285 0.983 . S
C259 C260 1.391 . S
C259 C264 1.391 . S
C259 H289 0.948 . S
C260 C259 1.391 . S
C260 C261 1.391 . S
C261 C260 1.391 . S
C261 C262 1.392 . S
C261 H290 0.947 . S
C262 C261 1.392 . S
C262 C263 1.419 . S
C262 H291 0.948 . S
C263 C262 1.419 . S
C263 C264 1.391 . S
C263 C267 1.397 . S
C264 C259 1.391 . S
C264 C263 1.391 . S
C264 C265 1.399 . S
C265 C264 1.399 . S
C265 C266 1.396 . S
C265 C268 1.453 . S
C265 C269 1.684 . S
C266 C247 1.723 . S
C266 C265 1.396 . S
C266 C267 1.394 . S
C267 C263 1.397 . S
C267 C266 1.394 . S
C267 C277 1.723 . S
C268 C265 1.453 . S
C268 H292 0.982 . S
C268 H293 0.979 . S
C268 H294 0.977 . S
C269 C265 1.684 . S
C269 H295 0.979 . S
C269 H296 0.980 . S
C269 H297 0.983 . S
C270 H246 0.948 . S
C270 C271 1.391 . S
C270 C275 1.391 . S
C271 C270 1.391 . S
C271 C272 1.391 . S
C272 H249 0.947 . S
C272 C271 1.391 . S
C272 C273 1.392 . S
C273 H250 0.948 . S
C273 C272 1.392 . S
C273 C274 1.419 . S
C274 C273 1.419 . S
C274 C275 1.391 . S
C274 C278 1.397 . S
C275 C270 1.391 . S
C275 C274 1.391 . S
C275 C276 1.399 . S
C276 C275 1.399 . S
C276 C277 1.396 1_556 S
C276 C279 1.453 . S
C276 C280 1.684 . S
C277 C267 1.723 . S
C277 C276 1.396 1_554 S
C277 C278 1.394 1_554 S
C278 C248 1.723 1_556 S
C278 C274 1.397 . S
C278 C277 1.394 1_556 S
C279 H251 0.982 . S
C279 H255 0.979 . S
C279 H256 0.977 1_556 S
C279 C276 1.453 . S
C280 H252 0.979 . S
C280 H253 0.980 1_556 S
C280 H254 0.983 . S
C280 C276 1.684 . S
H281 C299 0.948 . S
H282 C240 0.948 . S
H283 C258 0.979 . S
H284 C258 0.980 . S
H285 C258 0.983 . S
H286 C257 0.982 . S
H287 C257 0.979 . S
H288 C257 0.977 . S
H289 C259 0.948 . S
H290 C261 0.947 . S
H291 C262 0.948 . S
H292 C268 0.982 . S
H293 C268 0.979 . S
H294 C268 0.977 . S
H295 C269 0.979 . S
H296 C269 0.980 . S
H297 C269 0.983 . S
H298 C242 0.947 . S
C299 C242 1.392 . S
C299 C243 1.419 . S
C299 H281 0.948 . S
C300 C301 1.391 . S
C300 C304 1.391 . S
C300 H342 0.948 . S
C301 C300 1.391 . S
C301 C302 1.391 . S
C302 C301 1.391 . S
C302 H358 0.947 . S
C302 C359 1.392 . S
C303 C304 1.391 . S
C303 C307 1.397 . S
C303 C359 1.419 . S
C304 C300 1.391 . S
C304 C303 1.391 . S
C304 C305 1.399 . S
C305 C304 1.399 . S
C305 C308 1.396 . S
C305 C317 1.453 . S
C305 C318 1.684 . S
H306 C330 0.948 . S
C307 C303 1.397 . S
C307 C308 1.394 . S
C307 C326 1.723 . S
C308 C305 1.396 . S
C308 C307 1.394 . S
C308 C338 1.723 . S
H309 C332 0.947 . S
H310 C333 0.948 . S
H311 C339 0.982 . S
H312 C340 0.979 . S
H313 C340 0.980 . S
H314 C340 0.983 . S
H315 C339 0.979 . S
H316 C339 0.977 . S
C317 C305 1.453 . S
C317 H346 0.982 . S
C317 H347 0.979 . S
C317 H348 0.977 . S
C318 C305 1.684 . S
C318 H343 0.979 . S
C318 H344 0.980 . S
C318 H345 0.983 . S
C319 C320 1.391 . S
C319 C324 1.391 . S
C319 H349 0.948 . S
C320 C319 1.391 . S
C320 C321 1.391 . S
C321 C320 1.391 . S
C321 C322 1.392 . S
C321 H350 0.947 . S
C322 C321 1.392 . S
C322 C323 1.419 . S
C322 H351 0.948 . S
C323 C322 1.419 . S
C323 C324 1.391 . S
C323 C327 1.397 . S
C324 C319 1.391 . S
C324 C323 1.391 . S
C324 C325 1.399 . S
C325 C324 1.399 . S
C325 C326 1.396 1_556 S
C325 C328 1.453 . S
C325 C329 1.684 . S
C326 C307 1.723 . S
C326 C325 1.396 1_554 S
C326 C327 1.394 1_554 S
C327 C323 1.397 . S
C327 C326 1.394 1_556 S
C327 C337 1.723 1_556 S
C328 C325 1.453 . S
C328 H352 0.982 . S
C328 H353 0.979 . S
C328 H354 0.977 1_556 S
C329 C325 1.684 . S
C329 H355 0.979 . S
C329 H356 0.980 1_556 S
C329 H357 0.983 . S
C330 H306 0.948 . S
C330 C331 1.391 . S
C330 C335 1.391 . S
C331 C330 1.391 . S
C331 C332 1.391 . S
C332 H309 0.947 . S
C332 C331 1.391 . S
C332 C333 1.392 . S
C333 H310 0.948 . S
C333 C332 1.392 . S
C333 C334 1.419 . S
C334 C333 1.419 . S
C334 C335 1.391 . S
C334 C338 1.397 . S
C335 C330 1.391 . S
C335 C334 1.391 . S
C335 C336 1.399 . S
C336 C335 1.399 . S
C336 C337 1.396 . S
C336 C339 1.453 1_554 S
C336 C340 1.684 1_554 S
C337 C327 1.723 1_554 S
C337 C336 1.396 . S
C337 C338 1.394 . S
C338 C308 1.723 . S
C338 C334 1.397 . S
C338 C337 1.394 . S
C339 H311 0.982 . S
C339 H315 0.979 . S
C339 H316 0.977 . S
C339 C336 1.453 1_556 S
C340 H312 0.979 . S
C340 H313 0.980 . S
C340 H314 0.983 . S
C340 C336 1.684 1_556 S
H341 C359 0.948 . S
H342 C300 0.948 . S
H343 C318 0.979 . S
H344 C318 0.980 . S
H345 C318 0.983 . S
H346 C317 0.982 . S
H347 C317 0.979 . S
H348 C317 0.977 . S
H349 C319 0.948 . S
H350 C321 0.947 . S
H351 C322 0.948 . S
H352 C328 0.982 . S
H353 C328 0.979 . S
H354 C328 0.977 1_554 S
H355 C329 0.979 . S
H356 C329 0.980 1_554 S
H357 C329 0.983 . S
H358 C302 0.947 . S
C359 C302 1.392 . S
C359 C303 1.419 . S
C359 H341 0.948 . S
C360 C361 1.391 . S
C360 C364 1.391 . S
C360 H402 0.948 . S
C361 C360 1.391 . S
C361 C362 1.391 . S
C362 C361 1.391 . S
C362 H418 0.947 . S
C362 C419 1.392 . S
C363 C364 1.391 . S
C363 C367 1.397 1_545 S
C363 C419 1.419 . S
C364 C360 1.391 . S
C364 C363 1.391 . S
C364 C365 1.399 . S
C365 C364 1.399 . S
C365 C368 1.396 1_545 S
C365 C377 1.453 1_545 S
C365 C378 1.684 . S
H366 C390 0.948 . S
C367 C363 1.397 1_565 S
C367 C368 1.394 . S
C367 C386 1.723 1_556 S
C368 C365 1.396 1_565 S
C368 C367 1.394 . S
C368 C398 1.723 1_556 S
H369 C392 0.947 1_556 S
H370 C393 0.948 1_556 S
H371 C399 0.982 . S
H372 C400 0.979 . S
H373 C400 0.980 . S
H374 C400 0.983 . S
H375 C399 0.979 . S
H376 C399 0.977 . S
C377 C365 1.453 1_565 S
C377 H406 0.982 . S
C377 H407 0.979 . S
C377 H408 0.977 . S
C378 C365 1.684 . S
C378 H403 0.979 . S
C378 H404 0.980 . S
C378 H405 0.983 . S
C379 C380 1.391 . S
C379 C384 1.391 . S
C379 H409 0.948 . S
C380 C379 1.391 . S
C380 C381 1.391 . S
C381 C380 1.391 . S
C381 C382 1.392 . S
C381 H410 0.947 . S
C382 C381 1.392 . S
C382 C383 1.419 . S
C382 H411 0.948 . S
C383 C382 1.419 . S
C383 C384 1.391 . S
C383 C387 1.397 1_545 S
C384 C379 1.391 . S
C384 C383 1.391 . S
C384 C385 1.399 . S
C385 C384 1.399 . S
C385 C386 1.396 1_545 S
C385 C388 1.453 1_545 S
C385 C389 1.684 . S
C386 C367 1.723 1_554 S
C386 C385 1.396 1_565 S
C386 C387 1.394 . S
C387 C383 1.397 1_565 S
C387 C386 1.394 . S
C387 C397 1.723 . S
C388 C385 1.453 1_565 S
C388 H412 0.982 . S
C388 H413 0.979 . S
C388 H414 0.977 1_554 S
C389 C385 1.684 . S
C389 H415 0.979 . S
C389 H416 0.980 1_554 S
C389 H417 0.983 . S
C390 H366 0.948 . S
C390 C391 1.391 . S
C390 C395 1.391 . S
C391 C390 1.391 . S
C391 C392 1.391 . S
C392 H369 0.947 1_554 S
C392 C391 1.391 . S
C392 C393 1.392 . S
C393 H370 0.948 1_554 S
C393 C392 1.392 . S
C393 C394 1.419 . S
C394 C393 1.419 . S
C394 C395 1.391 . S
C394 C398 1.397 1_545 S
C395 C390 1.391 . S
C395 C394 1.391 . S
C395 C396 1.399 . S
C396 C395 1.399 . S
C396 C397 1.396 1_545 S
C396 C399 1.453 1_545 S
C396 C400 1.684 . S
C397 C387 1.723 . S
C397 C396 1.396 1_565 S
C397 C398 1.394 . S
C398 C368 1.723 1_554 S
C398 C394 1.397 1_565 S
C398 C397 1.394 . S
C399 H371 0.982 . S
C399 H375 0.979 . S
C399 H376 0.977 . S
C399 C396 1.453 1_565 S
C400 H372 0.979 . S
C400 H373 0.980 . S
C400 H374 0.983 . S
C400 C396 1.684 . S
H401 C419 0.948 . S
H402 C360 0.948 . S
H403 C378 0.979 . S
H404 C378 0.980 . S
H405 C378 0.983 . S
H406 C377 0.982 . S
H407 C377 0.979 . S
H408 C377 0.977 . S
H409 C379 0.948 . S
H410 C381 0.947 . S
H411 C382 0.948 . S
H412 C388 0.982 . S
H413 C388 0.979 . S
H414 C388 0.977 1_556 S
H415 C389 0.979 . S
H416 C389 0.980 1_556 S
H417 C389 0.983 . S
H418 C362 0.947 . S
C419 C362 1.392 . S
C419 C363 1.419 . S
C419 H401 0.948 . S
C420 C421 1.391 . S
C420 C424 1.391 . S
C420 H462 0.948 . S
C421 C420 1.391 . S
C421 C422 1.391 . S
C422 C421 1.391 . S
C422 H478 0.947 . S
C422 C479 1.392 . S
C423 C424 1.391 . S
C423 C427 1.397 . S
C423 C479 1.419 . S
C424 C420 1.391 . S
C424 C423 1.391 . S
C424 C425 1.399 . S
C425 C424 1.399 . S
C425 C428 1.396 . S
C425 C437 1.453 . S
C425 C438 1.684 . S
H426 C450 0.948 . S
C427 C423 1.397 . S
C427 C428 1.394 . S
C427 C446 1.723 1_556 S
C428 C425 1.396 . S
C428 C427 1.394 . S
C428 C458 1.723 1_556 S
H429 C452 0.947 1_556 S
H430 C453 0.948 . S
H431 C459 0.982 . S
H432 C460 0.979 . S
H433 C460 0.980 . S
H434 C460 0.983 . S
H435 C459 0.979 . S
H436 C459 0.977 . S
C437 C425 1.453 . S
C437 H466 0.982 . S
C437 H467 0.979 . S
C437 H468 0.977 . S
C438 C425 1.684 . S
C438 H463 0.979 . S
C438 H464 0.980 . S
C438 H465 0.983 . S
C439 C440 1.391 . S
C439 C444 1.391 . S
C439 H469 0.948 . S
C440 C439 1.391 . S
C440 C441 1.391 . S
C441 C440 1.391 . S
C441 C442 1.392 . S
C441 H470 0.947 . S
C442 C441 1.392 . S
C442 C443 1.419 . S
C442 H471 0.948 . S
C443 C442 1.419 . S
C443 C444 1.391 . S
C443 C447 1.397 . S
C444 C439 1.391 . S
C444 C443 1.391 . S
C444 C445 1.399 . S
C445 C444 1.399 . S
C445 C446 1.396 . S
C445 C448 1.453 . S
C445 C449 1.684 . S
C446 C427 1.723 1_554 S
C446 C445 1.396 . S
C446 C447 1.394 . S
C447 C443 1.397 . S
C447 C446 1.394 . S
C447 C457 1.723 . S
C448 C445 1.453 . S
C448 H472 0.982 . S
C448 H473 0.979 . S
C448 H474 0.977 1_554 S
C449 C445 1.684 . S
C449 H475 0.979 . S
C449 H476 0.980 1_554 S
C449 H477 0.983 . S
C450 H426 0.948 . S
C450 C451 1.391 . S
C450 C455 1.391 . S
C451 C450 1.391 . S
C451 C452 1.391 . S
C452 H429 0.947 1_554 S
C452 C451 1.391 . S
C452 C453 1.392 1_554 S
C453 H430 0.948 . S
C453 C452 1.392 1_556 S
C453 C454 1.419 1_556 S
C454 C453 1.419 1_554 S
C454 C455 1.391 . S
C454 C458 1.397 . S
C455 C450 1.391 . S
C455 C454 1.391 . S
C455 C456 1.399 . S
C456 C455 1.399 . S
C456 C457 1.396 . S
C456 C459 1.453 . S
C456 C460 1.684 . S
C457 C447 1.723 . S
C457 C456 1.396 . S
C457 C458 1.394 . S
C458 C428 1.723 1_554 S
C458 C454 1.397 . S
C458 C457 1.394 . S
C459 H431 0.982 . S
C459 H435 0.979 . S
C459 H436 0.977 . S
C459 C456 1.453 . S
C460 H432 0.979 . S
C460 H433 0.980 . S
C460 H434 0.983 . S
C460 C456 1.684 . S
H461 C479 0.948 . S
H462 C420 0.948 . S
H463 C438 0.979 . S
H464 C438 0.980 . S
H465 C438 0.983 . S
H466 C437 0.982 . S
H467 C437 0.979 . S
H468 C437 0.977 . S
H469 C439 0.948 . S
H470 C441 0.947 . S
H471 C442 0.948 . S
H472 C448 0.982 . S
H473 C448 0.979 . S
H474 C448 0.977 1_556 S
H475 C449 0.979 . S
H476 C449 0.980 1_556 S
H477 C449 0.983 . S
H478 C422 0.947 . S
C479 C422 1.392 . S
C479 C423 1.419 . S
C479 H461 0.948 . S
Dy480 O484 2.398 . S
Dy480 O485 2.491 1_455 S
Dy480 O486 2.403 . S
Dy480 O487 2.664 1_565 S
Dy480 O491 2.326 . S
Dy480 O495 2.310 1_455 S
Dy480 O496 2.351 1_565 S
C481 O492 1.185 1_455 S
C481 O493 1.355 . S
C482 O484 1.185 . S
C482 O485 1.355 1_455 S
Dy483 O487 2.310 1_655 S
Dy483 O490 2.351 1_545 S
Dy483 O492 2.398 . S
Dy483 O493 2.491 1_655 S
Dy483 O494 2.403 . S
Dy483 O495 2.664 1_545 S
Dy483 O497 2.326 1_655 S
O484 Dy480 2.398 . S
O484 C482 1.185 . S
O485 Dy480 2.491 1_655 S
O485 C482 1.355 1_655 S
O486 Dy480 2.403 . S
O486 C488 1.254 . S
O487 Dy480 2.664 1_545 S
O487 Dy483 2.310 1_455 S
O487 C488 1.268 1_545 S
C488 O486 1.254 . S
C488 O487 1.268 1_565 S
C489 O494 1.254 . S
C489 O495 1.268 1_545 S
O490 Dy483 2.351 1_565 S
O490 C498 1.249 . S
O491 Dy480 2.326 . S
O491 C498 1.267 1_455 S
O492 C481 1.185 1_655 S
O492 Dy483 2.398 . S
O493 C481 1.355 . S
O493 Dy483 2.491 1_455 S
O494 Dy483 2.403 . S
O494 C489 1.254 . S
O495 Dy480 2.310 1_655 S
O495 Dy483 2.664 1_565 S
O495 C489 1.268 1_565 S
O496 Dy480 2.351 1_545 S
O496 C499 1.249 . S
O497 Dy483 2.326 1_455 S
O497 C499 1.267 . S
C498 O490 1.249 . S
C498 O491 1.267 1_655 S
C499 O496 1.249 . S
C499 O497 1.267 . S
Dy500 O504 2.398 . S
Dy500 O505 2.491 . S
Dy500 O506 2.403 . S
Dy500 O507 2.664 . S
Dy500 O511 2.326 1_565 S
Dy500 O515 2.310 1_565 S
Dy500 O516 2.351 . S
C501 O512 1.185 . S
C501 O513 1.355 . S
C502 O504 1.185 . S
C502 O505 1.355 . S
Dy503 O507 2.310 1_545 S
Dy503 O510 2.351 . S
Dy503 O512 2.398 . S
Dy503 O513 2.491 . S
Dy503 O514 2.403 . S
Dy503 O515 2.664 . S
Dy503 O517 2.326 1_545 S
O504 Dy500 2.398 . S
O504 C502 1.185 . S
O505 Dy500 2.491 . S
O505 C502 1.355 . S
O506 Dy500 2.403 . S
O506 C508 1.254 . S
O507 Dy500 2.664 . S
O507 Dy503 2.310 1_565 S
O507 C508 1.268 . S
C508 O506 1.254 . S
C508 O507 1.268 . S
C509 O514 1.254 . S
C509 O515 1.268 . S
O510 Dy503 2.351 . S
O510 C518 1.249 . S
O511 Dy500 2.326 1_545 S
O511 C518 1.267 . S
O512 C501 1.185 . S
O512 Dy503 2.398 . S
O513 C501 1.355 . S
O513 Dy503 2.491 . S
O514 Dy503 2.403 . S
O514 C509 1.254 . S
O515 Dy500 2.310 1_545 S
O515 Dy503 2.664 . S
O515 C509 1.268 . S
O516 Dy500 2.351 . S
O516 C519 1.249 . S
O517 Dy503 2.326 1_565 S
O517 C519 1.267 . S
C518 O510 1.249 . S
C518 O511 1.267 . S
C519 O516 1.249 . S
C519 O517 1.267 . S
Dy520 O524 2.398 . S
Dy520 O525 2.491 . S
Dy520 O526 2.403 . S
Dy520 O527 2.664 . S
Dy520 O531 2.326 . S
Dy520 O535 2.310 . S
Dy520 O536 2.351 . S
C521 O532 1.185 . S
C521 O533 1.355 . S
C522 O524 1.185 . S
C522 O525 1.355 . S
Dy523 O527 2.310 . S
Dy523 O530 2.351 . S
Dy523 O532 2.398 . S
Dy523 O533 2.491 . S
Dy523 O534 2.403 . S
Dy523 O535 2.664 . S
Dy523 O537 2.326 . S
O524 Dy520 2.398 . S
O524 C522 1.185 . S
O525 Dy520 2.491 . S
O525 C522 1.355 . S
O526 Dy520 2.403 . S
O526 C528 1.254 . S
O527 Dy520 2.664 . S
O527 Dy523 2.310 . S
O527 C528 1.268 . S
C528 O526 1.254 . S
C528 O527 1.268 . S
C529 O534 1.254 . S
C529 O535 1.268 . S
O530 Dy523 2.351 . S
O530 C538 1.249 . S
O531 Dy520 2.326 . S
O531 C538 1.267 . S
O532 C521 1.185 . S
O532 Dy523 2.398 . S
O533 C521 1.355 . S
O533 Dy523 2.491 . S
O534 Dy523 2.403 . S
O534 C529 1.254 . S
O535 Dy520 2.310 . S
O535 Dy523 2.664 . S
O535 C529 1.268 . S
O536 Dy520 2.351 . S
O536 C539 1.249 . S
O537 Dy523 2.326 . S
O537 C539 1.267 . S
C538 O530 1.249 . S
C538 O531 1.267 . S
C539 O536 1.249 . S
C539 O537 1.267 . S
Dy540 O544 2.398 . S
Dy540 O545 2.491 . S
Dy540 O546 2.403 . S
Dy540 O547 2.664 1_655 S
Dy540 O551 2.326 . S
Dy540 O555 2.310 . S
Dy540 O556 2.351 1_655 S
C541 O552 1.185 . S
C541 O553 1.355 . S
C542 O544 1.185 . S
C542 O545 1.355 . S
Dy543 O547 2.310 . S
Dy543 O550 2.351 1_455 S
Dy543 O552 2.398 . S
Dy543 O553 2.491 . S
Dy543 O554 2.403 . S
Dy543 O555 2.664 1_455 S
Dy543 O557 2.326 . S
O544 Dy540 2.398 . S
O544 C542 1.185 . S
O545 Dy540 2.491 . S
O545 C542 1.355 . S
O546 Dy540 2.403 . S
O546 C548 1.254 1_655 S
O547 Dy540 2.664 1_455 S
O547 Dy543 2.310 . S
O547 C548 1.268 . S
C548 O546 1.254 1_455 S
C548 O547 1.268 . S
C549 O554 1.254 1_655 S
C549 O555 1.268 . S
O550 Dy543 2.351 1_655 S
O550 C558 1.249 . S
O551 Dy540 2.326 . S
O551 C558 1.267 . S
O552 C541 1.185 . S
O552 Dy543 2.398 . S
O553 C541 1.355 . S
O553 Dy543 2.491 . S
O554 Dy543 2.403 . S
O554 C549 1.254 1_455 S
O555 Dy540 2.310 . S
O555 Dy543 2.664 1_655 S
O555 C549 1.268 . S
O556 Dy540 2.351 1_455 S
O556 C559 1.249 . S
O557 Dy543 2.326 . S
O557 C559 1.267 . S
C558 O550 1.249 . S
C558 O551 1.267 . S
C559 O556 1.249 . S
C559 O557 1.267 . S
C560 C561 1.361 1_545 S
C560 C562 1.419 . S
C560 H564 0.930 . S
C561 C560 1.361 1_565 S
C561 C570 1.438 . S
C562 C560 1.419 . S
C562 C563 1.363 1_545 S
C562 H565 0.929 . S
C563 C562 1.363 1_565 S
C563 C569 1.428 . S
H564 C560 0.930 . S
H565 C562 0.929 . S
S566 N567 1.613 . S
S566 N568 1.610 . S
N567 S566 1.613 . S
N567 C570 1.350 . S
N568 S566 1.610 . S
N568 C569 1.351 . S
C569 C563 1.428 . S
C569 N568 1.351 . S
C569 C570 1.434 . S
C570 C561 1.438 . S
C570 N567 1.350 . S
C570 C569 1.434 . S
C571 C572 1.369 . S
C571 C573 1.419 . S
C571 H575 0.930 . S
C572 C571 1.369 . S
C572 C581 1.429 . S
C573 C571 1.419 . S
C573 C574 1.363 . S
C573 H576 0.929 . S
C574 C573 1.363 . S
C574 C580 1.428 . S
H575 C571 0.930 . S
H576 C573 0.929 . S
S577 N578 1.613 . S
S577 N579 1.610 . S
N578 S577 1.613 . S
N578 C581 1.350 . S
N579 S577 1.610 . S
N579 C580 1.351 . S
C580 C574 1.428 . S
C580 N579 1.351 . S
C580 C581 1.434 . S
C581 C572 1.429 . S
C581 N578 1.350 . S
C581 C580 1.434 . S
C582 C583 1.369 . S
C582 C584 1.419 . S
C582 H586 0.930 . S
C583 C582 1.369 . S
C583 C592 1.429 . S
C584 C582 1.419 . S
C584 C585 1.363 . S
C584 H587 0.929 . S
C585 C584 1.363 . S
C585 C591 1.428 . S
H586 C582 0.930 . S
H587 C584 0.929 . S
S588 N589 1.613 . S
S588 N590 1.610 . S
N589 S588 1.613 . S
N589 C592 1.350 . S
N590 S588 1.610 . S
N590 C591 1.351 . S
C591 C585 1.428 . S
C591 N590 1.351 . S
C591 C592 1.434 . S
C592 C583 1.429 . S
C592 N589 1.350 . S
C592 C591 1.434 . S
C593 C594 1.369 . S
C593 C595 1.419 . S
C593 H597 0.930 . S
C594 C593 1.369 . S
C594 C603 1.429 . S
C595 C593 1.419 . S
C595 C596 1.363 . S
C595 H598 0.929 . S
C596 C595 1.363 . S
C596 C602 1.428 . S
H597 C593 0.930 . S
H598 C595 0.929 . S
S599 N600 1.613 1_655 S
S599 N601 1.610 . S
N600 S599 1.613 1_455 S
N600 C603 1.350 . S
N601 S599 1.610 . S
N601 C602 1.351 1_655 S
C602 C596 1.428 . S
C602 N601 1.351 1_455 S
C602 C603 1.434 . S
C603 C594 1.429 . S
C603 N600 1.350 . S
C603 C602 1.434 . S
C604 C605 1.386 . S
C604 C606 1.419 . S
C604 H608 0.930 . S
C605 C604 1.386 . S
C605 C614 1.412 1_545 S
C606 C604 1.419 . S
C606 C607 1.363 . S
C606 H609 0.929 . S
C607 C606 1.363 . S
C607 C613 1.428 1_545 S
H608 C604 0.930 . S
H609 C606 0.929 . S
S610 N611 1.613 . S
S610 N612 1.610 . S
N611 S610 1.613 . S
N611 C614 1.350 . S
N612 S610 1.610 . S
N612 C613 1.351 . S
C613 C607 1.428 1_565 S
C613 N612 1.351 . S
C613 C614 1.434 . S
C614 C605 1.412 1_565 S
C614 N611 1.350 . S
C614 C613 1.434 . S
C615 C616 1.369 . S
C615 C617 1.419 . S
C615 H619 0.930 . S
C616 C615 1.369 . S
C616 C625 1.429 . S
C617 C615 1.419 . S
C617 C618 1.363 . S
C617 H620 0.929 . S
C618 C617 1.363 . S
C618 C624 1.428 . S
H619 C615 0.930 . S
H620 C617 0.929 . S
S621 N622 1.613 . S
S621 N623 1.610 . S
N622 S621 1.613 . S
N622 C625 1.350 . S
N623 S621 1.610 . S
N623 C624 1.351 . S
C624 C618 1.428 . S
C624 N623 1.351 . S
C624 C625 1.434 . S
C625 C616 1.429 . S
C625 N622 1.350 . S
C625 C624 1.434 . S
C626 C627 1.369 . S
C626 C628 1.419 . S
C626 H630 0.930 . S
C627 C626 1.369 . S
C627 C636 1.429 . S
C628 C626 1.419 . S
C628 C629 1.363 . S
C628 H631 0.929 . S
C629 C628 1.363 . S
C629 C635 1.428 . S
H630 C626 0.930 . S
H631 C628 0.929 . S
S632 N633 1.613 . S
S632 N634 1.610 . S
N633 S632 1.613 . S
N633 C636 1.350 . S
N634 S632 1.610 . S
N634 C635 1.351 . S
C635 C629 1.428 . S
C635 N634 1.351 . S
C635 C636 1.434 . S
C636 C627 1.429 . S
C636 N633 1.350 . S
C636 C635 1.434 . S
C637 C638 1.369 . S
C637 C639 1.419 . S
C637 H641 0.930 . S
C638 C637 1.369 . S
C638 C647 1.429 . S
C639 C637 1.419 . S
C639 C640 1.363 . S
C639 H642 0.929 . S
C640 C639 1.363 . S
C640 C646 1.428 . S
H641 C637 0.930 . S
H642 C639 0.929 . S
S643 N644 1.613 . S
S643 N645 1.610 . S
N644 S643 1.613 . S
N644 C647 1.350 . S
N645 S643 1.610 . S
N645 C646 1.351 . S
C646 C640 1.428 . S
C646 N645 1.351 . S
C646 C647 1.434 . S
C647 C638 1.429 . S
C647 N644 1.350 . S
C647 C646 1.434 . S
C648 C649 1.369 . S
C648 C650 1.419 . S
C648 H652 0.930 . S
C649 C648 1.369 . S
C649 C658 1.429 . S
C650 C648 1.419 . S
C650 C651 1.363 . S
C650 H653 0.929 . S
C651 C650 1.363 . S
C651 C657 1.428 . S
H652 C648 0.930 . S
H653 C650 0.929 . S
S654 N655 1.613 . S
S654 N656 1.610 . S
N655 S654 1.613 . S
N655 C658 1.350 . S
N656 S654 1.610 . S
N656 C657 1.351 . S
C657 C651 1.428 . S
C657 N656 1.351 . S
C657 C658 1.434 . S
C658 C649 1.429 . S
C658 N655 1.350 . S
C658 C657 1.434 . S
C659 C660 1.348 1_565 S
C659 C661 1.419 . S
C659 H663 0.930 . S
C660 C659 1.348 1_545 S
C660 C669 1.441 . S
C661 C659 1.419 . S
C661 C662 1.363 . S
C661 H664 0.929 . S
C662 C661 1.363 . S
C662 C668 1.428 1_565 S
H663 C659 0.930 . S
H664 C661 0.929 . S
S665 N666 1.613 . S
S665 N667 1.610 . S
N666 S665 1.613 . S
N666 C669 1.350 . S
N667 S665 1.610 . S
N667 C668 1.351 . S
C668 C662 1.428 1_545 S
C668 N667 1.351 . S
C668 C669 1.434 . S
C669 C660 1.441 . S
C669 N666 1.350 . S
C669 C668 1.434 . S
C670 C671 1.369 . S
C670 C672 1.419 . S
C670 H674 0.930 . S
C671 C670 1.369 . S
C671 C680 1.429 . S
C672 C670 1.419 . S
C672 C673 1.363 . S
C672 H675 0.929 . S
C673 C672 1.363 . S
C673 C679 1.428 . S
H674 C670 0.930 . S
H675 C672 0.929 . S
S676 N677 1.613 . S
S676 N678 1.610 . S
N677 S676 1.613 . S
N677 C680 1.350 . S
N678 S676 1.610 . S
N678 C679 1.351 . S
C679 C673 1.428 . S
C679 N678 1.351 . S
C679 C680 1.434 . S
C680 C671 1.429 . S
C680 N677 1.350 . S
C680 C679 1.434 . S
C681 C682 1.369 . S
C681 C683 1.419 . S
C681 H685 0.930 . S
C682 C681 1.369 . S
C682 C691 1.429 . S
C683 C681 1.419 . S
C683 C684 1.363 . S
C683 H686 0.929 . S
C684 C683 1.363 . S
C684 C690 1.428 . S
H685 C681 0.930 . S
H686 C683 0.929 . S
S687 N688 1.613 . S
S687 N689 1.610 . S
N688 S687 1.613 . S
N688 C691 1.350 . S
N689 S687 1.610 . S
N689 C690 1.351 . S
C690 C684 1.428 . S
C690 N689 1.351 . S
C690 C691 1.434 . S
C691 C682 1.429 . S
C691 N688 1.350 . S
C691 C690 1.434 . S
C692 C693 1.369 . S
C692 C694 1.419 . S
C692 H696 0.930 . S
C693 C692 1.369 . S
C693 C702 1.429 . S
C694 C692 1.419 . S
C694 C695 1.363 . S
C694 H697 0.929 . S
C695 C694 1.363 . S
C695 C701 1.428 . S
H696 C692 0.930 . S
H697 C694 0.929 . S
S698 N699 1.613 . S
S698 N700 1.610 . S
N699 S698 1.613 . S
N699 C702 1.350 . S
N700 S698 1.610 . S
N700 C701 1.351 . S
C701 C695 1.428 . S
C701 N700 1.351 . S
C701 C702 1.434 . S
C702 C693 1.429 . S
C702 N699 1.350 . S
C702 C701 1.434 . S
C703 C704 1.359 1_545 S
C703 C705 1.419 . S
C703 H707 0.930 . S
C704 C703 1.359 1_565 S
C704 C713 1.435 . S
C705 C703 1.419 . S
C705 C706 1.363 . S
C705 H708 0.929 . S
C706 C705 1.363 . S
C706 C712 1.428 1_545 S
H707 C703 0.930 . S
H708 C705 0.929 . S
S709 N710 1.613 . S
S709 N711 1.610 . S
N710 S709 1.613 . S
N710 C713 1.350 . S
N711 S709 1.610 . S
N711 C712 1.351 . S
C712 C706 1.428 1_565 S
C712 N711 1.351 . S
C712 C713 1.434 . S
C713 C704 1.435 . S
C713 N710 1.350 . S
C713 C712 1.434 . S
C714 C715 1.369 . S
C714 C716 1.419 . S
C714 H718 0.930 . S
C715 C714 1.369 . S
C715 C724 1.429 . S
C716 C714 1.419 . S
C716 C717 1.363 . S
C716 H719 0.929 . S
C717 C716 1.363 . S
C717 C723 1.428 . S
H718 C714 0.930 . S
H719 C716 0.929 . S
S720 N721 1.613 . S
S720 N722 1.610 . S
N721 S720 1.613 . S
N721 C724 1.350 . S
N722 S720 1.610 . S
N722 C723 1.351 . S
C723 C717 1.428 . S
C723 N722 1.351 . S
C723 C724 1.434 . S
C724 C715 1.429 . S
C724 N721 1.350 . S
C724 C723 1.434 . S
C725 C726 1.369 . S
C725 C727 1.419 . S
C725 H729 0.930 . S
C726 C725 1.369 . S
C726 C735 1.429 . S
C727 C725 1.419 . S
C727 C728 1.363 . S
C727 H730 0.929 . S
C728 C727 1.363 . S
C728 C734 1.428 . S
H729 C725 0.930 . S
H730 C727 0.929 . S
S731 N732 1.613 . S
S731 N733 1.610 . S
N732 S731 1.613 . S
N732 C735 1.350 . S
N733 S731 1.610 . S
N733 C734 1.351 . S
C734 C728 1.428 . S
C734 N733 1.351 . S
C734 C735 1.434 . S
C735 C726 1.429 . S
C735 N732 1.350 . S
C735 C734 1.434 . S
C736 C737 1.369 . S
C736 C738 1.419 . S
C736 H740 0.930 . S
C737 C736 1.369 . S
C737 C746 1.429 . S
C738 C736 1.419 . S
C738 C739 1.363 . S
C738 H741 0.929 . S
C739 C738 1.363 . S
C739 C745 1.428 . S
H740 C736 0.930 . S
H741 C738 0.929 . S
S742 N743 1.613 . S
S742 N744 1.610 . S
N743 S742 1.613 . S
N743 C746 1.350 . S
N744 S742 1.610 . S
N744 C745 1.351 . S
C745 C739 1.428 . S
C745 N744 1.351 . S
C745 C746 1.434 . S
C746 C737 1.429 . S
C746 N743 1.350 . S
C746 C745 1.434 . S
C747 C748 1.369 1_565 S
C747 C749 1.419 . S
C747 H751 0.930 . S
C748 C747 1.369 1_545 S
C748 C757 1.429 . S
C749 C747 1.419 . S
C749 C750 1.363 1_565 S
C749 H752 0.929 . S
C750 C749 1.363 1_545 S
C750 C756 1.428 . S
H751 C747 0.930 . S
H752 C749 0.929 . S
S753 N754 1.613 . S
S753 N755 1.610 . S
N754 S753 1.613 . S
N754 C757 1.350 . S
N755 S753 1.610 . S
N755 C756 1.351 . S
C756 C750 1.428 . S
C756 N755 1.351 . S
C756 C757 1.434 . S
C757 C748 1.429 . S
C757 N754 1.350 . S
C757 C756 1.434 . S
C758 C759 1.369 . S
C758 C760 1.419 . S
C758 H762 0.930 . S
C759 C758 1.369 . S
C759 C768 1.429 . S
C760 C758 1.419 . S
C760 C761 1.363 . S
C760 H763 0.929 . S
C761 C760 1.363 . S
C761 C767 1.428 . S
H762 C758 0.930 . S
H763 C760 0.929 . S
S764 N765 1.613 . S
S764 N766 1.610 . S
N765 S764 1.613 . S
N765 C768 1.350 . S
N766 S764 1.610 . S
N766 C767 1.351 . S
C767 C761 1.428 . S
C767 N766 1.351 . S
C767 C768 1.434 . S
C768 C759 1.429 . S
C768 N765 1.350 . S
C768 C767 1.434 . S
C769 C770 1.369 . S
C769 C771 1.419 . S
C769 H773 0.930 . S
C770 C769 1.369 . S
C770 C779 1.429 . S
C771 C769 1.419 . S
C771 C772 1.363 . S
C771 H774 0.929 . S
C772 C771 1.363 . S
C772 C778 1.428 . S
H773 C769 0.930 . S
H774 C771 0.929 . S
S775 N776 1.613 . S
S775 N777 1.610 . S
N776 S775 1.613 . S
N776 C779 1.350 . S
N777 S775 1.610 . S
N777 C778 1.351 . S
C778 C772 1.428 . S
C778 N777 1.351 . S
C778 C779 1.434 . S
C779 C770 1.429 . S
C779 N776 1.350 . S
C779 C778 1.434 . S
C780 C781 1.369 . S
C780 C782 1.419 . S
C780 H784 0.930 . S
C781 C780 1.369 . S
C781 C790 1.429 . S
C782 C780 1.419 . S
C782 C783 1.363 . S
C782 H785 0.929 . S
C783 C782 1.363 . S
C783 C789 1.428 . S
H784 C780 0.930 . S
H785 C782 0.929 . S
S786 N787 1.613 . S
S786 N788 1.610 . S
N787 S786 1.613 . S
N787 C790 1.350 . S
N788 S786 1.610 . S
N788 C789 1.351 . S
C789 C783 1.428 . S
C789 N788 1.351 . S
C789 C790 1.434 . S
C790 C781 1.429 . S
C790 N787 1.350 . S
C790 C789 1.434 . S
C791 C792 1.369 . S
C791 C793 1.419 . S
C791 H795 0.930 . S
C792 C791 1.369 . S
C792 C801 1.429 1_565 S
C793 C791 1.419 . S
C793 C794 1.363 . S
C793 H796 0.929 . S
C794 C793 1.363 . S
C794 C800 1.428 1_565 S
H795 C791 0.930 . S
H796 C793 0.929 . S
S797 N798 1.613 . S
S797 N799 1.610 . S
N798 S797 1.613 . S
N798 C801 1.350 . S
N799 S797 1.610 . S
N799 C800 1.351 . S
C800 C794 1.428 1_545 S
C800 N799 1.351 . S
C800 C801 1.434 . S
C801 C792 1.429 1_545 S
C801 N798 1.350 . S
C801 C800 1.434 . S
C802 C803 1.369 . S
C802 C804 1.419 . S
C802 H806 0.930 . S
C803 C802 1.369 . S
C803 C812 1.429 . S
C804 C802 1.419 . S
C804 C805 1.363 . S
C804 H807 0.929 . S
C805 C804 1.363 . S
C805 C811 1.428 . S
H806 C802 0.930 . S
H807 C804 0.929 . S
S808 N809 1.613 . S
S808 N810 1.610 . S
N809 S808 1.613 . S
N809 C812 1.350 . S
N810 S808 1.610 . S
N810 C811 1.351 . S
C811 C805 1.428 . S
C811 N810 1.351 . S
C811 C812 1.434 . S
C812 C803 1.429 . S
C812 N809 1.350 . S
C812 C811 1.434 . S
C813 C814 1.369 . S
C813 C815 1.419 . S
C813 H817 0.930 . S
C814 C813 1.369 . S
C814 C823 1.429 . S
C815 C813 1.419 . S
C815 C816 1.363 . S
C815 H818 0.929 . S
C816 C815 1.363 . S
C816 C822 1.428 . S
H817 C813 0.930 . S
H818 C815 0.929 . S
S819 N820 1.613 . S
S819 N821 1.610 . S
N820 S819 1.613 . S
N820 C823 1.350 . S
N821 S819 1.610 . S
N821 C822 1.351 . S
C822 C816 1.428 . S
C822 N821 1.351 . S
C822 C823 1.434 . S
C823 C814 1.429 . S
C823 N820 1.350 . S
C823 C822 1.434 . S
C561 C391 1.977 1_565 S
C563 C488 2.032 . S
C574 C518 2.502 . S
C572 C451 2.485 . S
C585 C528 2.136 . S
C583 C241 1.845 . S
C596 C548 2.060 . S
C594 C331 1.639 . S
C607 C489 2.034 . S
C605 C121 1.718 1_545 S
C616 C211 2.383 1_556 S
C618 C519 2.500 . S
C627 C31 2.109 . S
C629 C529 2.137 . S
C638 C91 1.726 . S
C640 C549 2.061 . S
C651 C481 1.171 . S
C649 C301 0.998 . S
C662 C502 0.711 . S
C660 C380 0.718 . S
C673 C521 1.399 . S
C671 C440 1.355 . S
C682 C260 0.802 . S
C684 C541 0.814 . S
C693 C61 1.080 . S
C695 C482 1.175 1_655 S
C706 C501 0.707 . S
C704 C140 0.752 . S
C717 C522 1.404 . S
C715 C200 1.219 . S
C726 C20 0.815 . S
C728 C542 0.814 . S
C737 C320 2.469 . S
C739 C499 2.685 . S
C748 C361 1.850 . S
C750 C509 2.434 . S
C761 C539 2.912 . S
C759 C421 2.379 . S
C772 C559 2.782 . S
C770 C271 2.649 . S
C781 C80 2.531 . S
C783 C498 2.693 . S
C794 C508 2.435 . S
C792 C151 2.221 . S
C805 C538 2.909 . S
C803 C181 2.294 . S
C814 C1 2.313 . S
C816 C558 2.783 . S
