# Generated by pormake.
# Topology ptr, (4,4)-cn, num edge types: 1
# Building blocks:
#     Node 0, Type 0, BuildingBlock: QUQFOY_clean_sbu_3, # of connection points: 4
#     Node 1, Type 0, BuildingBlock: QUQFOY_clean_sbu_3, # of connection points: 4
#     Node 2, Type 0, BuildingBlock: QUQFOY_clean_sbu_3, # of connection points: 4
#     Node 3, Type 0, BuildingBlock: QUQFOY_clean_sbu_3, # of connection points: 4
#     Node 4, Type 0, BuildingBlock: QUQFOY_clean_sbu_3, # of connection points: 4
#     Node 5, Type 0, BuildingBlock: QUQFOY_clean_sbu_3, # of connection points: 4
#     Node 6, Type 0, BuildingBlock: QUQFOY_clean_sbu_3, # of connection points: 4
#     Node 7, Type 0, BuildingBlock: QUQFOY_clean_sbu_3, # of connection points: 4
#     Node 8, Type 0, BuildingBlock: QUQFOY_clean_sbu_3, # of connection points: 4
#     Node 9, Type 0, BuildingBlock: QUQFOY_clean_sbu_3, # of connection points: 4
#     Node 10, Type 0, BuildingBlock: QUQFOY_clean_sbu_3, # of connection points: 4
#     Node 11, Type 0, BuildingBlock: QUQFOY_clean_sbu_3, # of connection points: 4
#     Node 12, Type 0, BuildingBlock: QUQFOY_clean_sbu_3, # of connection points: 4
#     Node 13, Type 0, BuildingBlock: QUQFOY_clean_sbu_3, # of connection points: 4
#     Node 14, Type 0, BuildingBlock: QUQFOY_clean_sbu_3, # of connection points: 4
#     Node 15, Type 0, BuildingBlock: QUQFOY_clean_sbu_3, # of connection points: 4
#     Node 16, Type 0, BuildingBlock: QUQFOY_clean_sbu_3, # of connection points: 4
#     Node 17, Type 0, BuildingBlock: QUQFOY_clean_sbu_3, # of connection points: 4
#     Node 18, Type 1, BuildingBlock: NAWXER_clean_linker_0, # of connection points: 4
#     Node 19, Type 1, BuildingBlock: NAWXER_clean_linker_0, # of connection points: 4
#     Node 20, Type 1, BuildingBlock: NAWXER_clean_linker_0, # of connection points: 4
#     Node 21, Type 1, BuildingBlock: NAWXER_clean_linker_0, # of connection points: 4
#     Node 22, Type 1, BuildingBlock: NAWXER_clean_linker_0, # of connection points: 4
#     Node 23, Type 1, BuildingBlock: NAWXER_clean_linker_0, # of connection points: 4
#     Node 24, Type 1, BuildingBlock: NAWXER_clean_linker_0, # of connection points: 4
#     Node 25, Type 1, BuildingBlock: NAWXER_clean_linker_0, # of connection points: 4
#     Node 26, Type 1, BuildingBlock: NAWXER_clean_linker_0, # of connection points: 4
#     Node 27, Type 1, BuildingBlock: NAWXER_clean_linker_0, # of connection points: 4
#     Node 28, Type 1, BuildingBlock: NAWXER_clean_linker_0, # of connection points: 4
#     Node 29, Type 1, BuildingBlock: NAWXER_clean_linker_0, # of connection points: 4
#     Node 30, Type 1, BuildingBlock: NAWXER_clean_linker_0, # of connection points: 4
#     Node 31, Type 1, BuildingBlock: NAWXER_clean_linker_0, # of connection points: 4
#     Node 32, Type 1, BuildingBlock: NAWXER_clean_linker_0, # of connection points: 4
#     Node 33, Type 1, BuildingBlock: NAWXER_clean_linker_0, # of connection points: 4
#     Node 34, Type 1, BuildingBlock: NAWXER_clean_linker_0, # of connection points: 4
#     Node 35, Type 1, BuildingBlock: NAWXER_clean_linker_0, # of connection points: 4
#     Edge 36, Type (0, 1), BuildingBlock: AJUNOK_clean_linker_0, # of connection points: 2
#     Edge 37, Type (0, 1), BuildingBlock: AJUNOK_clean_linker_0, # of connection points: 2
#     Edge 38, Type (0, 1), BuildingBlock: AJUNOK_clean_linker_0, # of connection points: 2
#     Edge 39, Type (0, 1), BuildingBlock: AJUNOK_clean_linker_0, # of connection points: 2
#     Edge 40, Type (0, 1), BuildingBlock: AJUNOK_clean_linker_0, # of connection points: 2
#     Edge 41, Type (0, 1), BuildingBlock: AJUNOK_clean_linker_0, # of connection points: 2
#     Edge 42, Type (0, 1), BuildingBlock: AJUNOK_clean_linker_0, # of connection points: 2
#     Edge 43, Type (0, 1), BuildingBlock: AJUNOK_clean_linker_0, # of connection points: 2
#     Edge 44, Type (0, 1), BuildingBlock: AJUNOK_clean_linker_0, # of connection points: 2
#     Edge 45, Type (0, 1), BuildingBlock: AJUNOK_clean_linker_0, # of connection points: 2
#     Edge 46, Type (0, 1), BuildingBlock: AJUNOK_clean_linker_0, # of connection points: 2
#     Edge 47, Type (0, 1), BuildingBlock: AJUNOK_clean_linker_0, # of connection points: 2
#     Edge 48, Type (0, 1), BuildingBlock: AJUNOK_clean_linker_0, # of connection points: 2
#     Edge 49, Type (0, 1), BuildingBlock: AJUNOK_clean_linker_0, # of connection points: 2
#     Edge 50, Type (0, 1), BuildingBlock: AJUNOK_clean_linker_0, # of connection points: 2
#     Edge 51, Type (0, 1), BuildingBlock: AJUNOK_clean_linker_0, # of connection points: 2
#     Edge 52, Type (0, 1), BuildingBlock: AJUNOK_clean_linker_0, # of connection points: 2
#     Edge 53, Type (0, 1), BuildingBlock: AJUNOK_clean_linker_0, # of connection points: 2
#     Edge 54, Type (0, 1), BuildingBlock: AJUNOK_clean_linker_0, # of connection points: 2
#     Edge 55, Type (0, 1), BuildingBlock: AJUNOK_clean_linker_0, # of connection points: 2
#     Edge 56, Type (0, 1), BuildingBlock: AJUNOK_clean_linker_0, # of connection points: 2
#     Edge 57, Type (0, 1), BuildingBlock: AJUNOK_clean_linker_0, # of connection points: 2
#     Edge 58, Type (0, 1), BuildingBlock: AJUNOK_clean_linker_0, # of connection points: 2
#     Edge 59, Type (0, 1), BuildingBlock: AJUNOK_clean_linker_0, # of connection points: 2
#     Edge 60, Type (0, 1), BuildingBlock: AJUNOK_clean_linker_0, # of connection points: 2
#     Edge 61, Type (0, 1), BuildingBlock: AJUNOK_clean_linker_0, # of connection points: 2
#     Edge 62, Type (0, 1), BuildingBlock: AJUNOK_clean_linker_0, # of connection points: 2
#     Edge 63, Type (0, 1), BuildingBlock: AJUNOK_clean_linker_0, # of connection points: 2
#     Edge 64, Type (0, 1), BuildingBlock: AJUNOK_clean_linker_0, # of connection points: 2
#     Edge 65, Type (0, 1), BuildingBlock: AJUNOK_clean_linker_0, # of connection points: 2
#     Edge 66, Type (0, 1), BuildingBlock: AJUNOK_clean_linker_0, # of connection points: 2
#     Edge 67, Type (0, 1), BuildingBlock: AJUNOK_clean_linker_0, # of connection points: 2
#     Edge 68, Type (0, 1), BuildingBlock: AJUNOK_clean_linker_0, # of connection points: 2
#     Edge 69, Type (0, 1), BuildingBlock: AJUNOK_clean_linker_0, # of connection points: 2
#     Edge 70, Type (0, 1), BuildingBlock: AJUNOK_clean_linker_0, # of connection points: 2
#     Edge 71, Type (0, 1), BuildingBlock: AJUNOK_clean_linker_0, # of connection points: 2
#     Edge 72, Type (0, 1), BuildingBlock: AJUNOK_clean_linker_0, # of connection points: 2
#     Edge 73, Type (0, 1), BuildingBlock: AJUNOK_clean_linker_0, # of connection points: 2
#     Edge 74, Type (0, 1), BuildingBlock: AJUNOK_clean_linker_0, # of connection points: 2
#     Edge 75, Type (0, 1), BuildingBlock: AJUNOK_clean_linker_0, # of connection points: 2
#     Edge 76, Type (0, 1), BuildingBlock: AJUNOK_clean_linker_0, # of connection points: 2
#     Edge 77, Type (0, 1), BuildingBlock: AJUNOK_clean_linker_0, # of connection points: 2
#     Edge 78, Type (0, 1), BuildingBlock: AJUNOK_clean_linker_0, # of connection points: 2
#     Edge 79, Type (0, 1), BuildingBlock: AJUNOK_clean_linker_0, # of connection points: 2
#     Edge 80, Type (0, 1), BuildingBlock: AJUNOK_clean_linker_0, # of connection points: 2
#     Edge 81, Type (0, 1), BuildingBlock: AJUNOK_clean_linker_0, # of connection points: 2
#     Edge 82, Type (0, 1), BuildingBlock: AJUNOK_clean_linker_0, # of connection points: 2
#     Edge 83, Type (0, 1), BuildingBlock: AJUNOK_clean_linker_0, # of connection points: 2
#     Edge 84, Type (0, 1), BuildingBlock: AJUNOK_clean_linker_0, # of connection points: 2
#     Edge 85, Type (0, 1), BuildingBlock: AJUNOK_clean_linker_0, # of connection points: 2
#     Edge 86, Type (0, 1), BuildingBlock: AJUNOK_clean_linker_0, # of connection points: 2
#     Edge 87, Type (0, 1), BuildingBlock: AJUNOK_clean_linker_0, # of connection points: 2
#     Edge 88, Type (0, 1), BuildingBlock: AJUNOK_clean_linker_0, # of connection points: 2
#     Edge 89, Type (0, 1), BuildingBlock: AJUNOK_clean_linker_0, # of connection points: 2
#     Edge 90, Type (0, 1), BuildingBlock: AJUNOK_clean_linker_0, # of connection points: 2
#     Edge 91, Type (0, 1), BuildingBlock: AJUNOK_clean_linker_0, # of connection points: 2
#     Edge 92, Type (0, 1), BuildingBlock: AJUNOK_clean_linker_0, # of connection points: 2
#     Edge 93, Type (0, 1), BuildingBlock: AJUNOK_clean_linker_0, # of connection points: 2
#     Edge 94, Type (0, 1), BuildingBlock: AJUNOK_clean_linker_0, # of connection points: 2
#     Edge 95, Type (0, 1), BuildingBlock: AJUNOK_clean_linker_0, # of connection points: 2
#     Edge 96, Type (0, 1), BuildingBlock: AJUNOK_clean_linker_0, # of connection points: 2
#     Edge 97, Type (0, 1), BuildingBlock: AJUNOK_clean_linker_0, # of connection points: 2
#     Edge 98, Type (0, 1), BuildingBlock: AJUNOK_clean_linker_0, # of connection points: 2
#     Edge 99, Type (0, 1), BuildingBlock: AJUNOK_clean_linker_0, # of connection points: 2
#     Edge 100, Type (0, 1), BuildingBlock: AJUNOK_clean_linker_0, # of connection points: 2
#     Edge 101, Type (0, 1), BuildingBlock: AJUNOK_clean_linker_0, # of connection points: 2
#     Edge 102, Type (0, 1), BuildingBlock: AJUNOK_clean_linker_0, # of connection points: 2
#     Edge 103, Type (0, 1), BuildingBlock: AJUNOK_clean_linker_0, # of connection points: 2
#     Edge 104, Type (0, 1), BuildingBlock: AJUNOK_clean_linker_0, # of connection points: 2
#     Edge 105, Type (0, 1), BuildingBlock: AJUNOK_clean_linker_0, # of connection points: 2
#     Edge 106, Type (0, 1), BuildingBlock: AJUNOK_clean_linker_0, # of connection points: 2
#     Edge 107, Type (0, 1), BuildingBlock: AJUNOK_clean_linker_0, # of connection points: 2
# Relax obj value: 0.029
# Max RMSD: 0.136
# Mean RMSD: 0.051
data_MOF--net-ptr--node1-QUQFOY_clean_sbu_3--node2-NAWXER_clean_linker_0--edge1-AJUNOK_clean_linker_0
_symmetry_space_group_name_H-M    P1
_symmetry_Int_Tables_number       1
_symmetry_cell_setting            triclinic
loop_
_symmetry_equiv_pos_as_xyz
'x, y, z'
_cell_length_a     69.027339
_cell_length_b     69.419171
_cell_length_c     50.913694
_cell_angle_alpha  90.344299
_cell_angle_beta   89.455451
_cell_angle_gamma 120.64601
loop_
_atom_site_label
_atom_site_type_symbol
_atom_site_fract_x
_atom_site_fract_y
_atom_site_fract_z
_atom_type_partial_charge
C0 C 0.9623 0.30469 0.98819 0.0
O1 O 0.95043 0.3116 -0.00069 0.0
Cd2 Cd 0.96699 0.34866 0.01681 0.0
O3 O 0.9837 0.31583 0.98968 0.0
Cd4 Cd 0.01371 0.34916 0.01316 0.0
C5 C 0.0056 0.3783 0.96652 0.0
O6 O 0.99238 0.35221 0.05011 0.0
O7 O 0.02515 0.38106 0.04214 0.0
O8 O 0.02254 0.32319 0.03361 0.0
C9 C 0.00774 0.37175 0.05668 0.0
O10 O 0.98738 0.37221 0.97922 0.0
C11 C 0.04363 0.33454 0.02959 0.0
O12 O 0.01941 0.37237 0.97394 0.0
O13 O 0.05099 0.35257 0.01654 0.0
C14 C 0.6442 0.7016 0.03075 0.0
O15 O 0.62332 0.69224 0.02595 0.0
Cd16 Cd 0.60223 0.65566 0.00735 0.0
O17 O 0.65528 0.69236 0.02355 0.0
Cd18 Cd 0.64945 0.65898 -0.00122 0.0
C19 C 0.61815 0.62723 0.04957 0.0
O20 O 0.62065 0.65467 0.96789 0.0
O21 O 0.62546 0.62644 0.97155 0.0
O22 O 0.68121 0.68185 0.96993 0.0
C23 C 0.61583 0.63539 0.95993 0.0
O24 O 0.60357 0.63179 0.04137 0.0
C25 C 0.6929 0.67342 0.97686 0.0
O26 O 0.63715 0.63509 0.03804 0.0
O27 O 0.68443 0.65816 0.99422 0.0
C28 C 0.30444 0.94382 0.02567 0.0
O29 O 0.31346 0.93286 0.01755 0.0
Cd30 Cd 0.3488 0.9498 0.99448 0.0
O31 O 0.31351 0.96459 0.02055 0.0
Cd32 Cd 0.34587 0.9944 0.99645 0.0
C33 C 0.38122 0.99141 0.03936 0.0
O34 O 0.34643 0.9716 0.95997 0.0
O35 O 0.37455 0.00541 0.96282 0.0
O36 O 0.31867 0.00379 0.98088 0.0
C37 C 0.3646 0.9872 0.9501 0.0
O38 O 0.37615 0.9732 0.02758 0.0
C39 C 0.33126 0.02475 0.984 0.0
O40 O 0.37192 0.00252 0.03298 0.0
O41 O 0.35052 0.03161 0.99397 0.0
C42 C 0.95078 0.64811 0.98386 0.0
O43 O 0.93914 0.62779 0.99088 0.0
Cd44 Cd 0.95601 0.60796 0.00794 0.0
O45 O 0.97182 0.65931 0.98822 0.0
Cd46 Cd 0.00076 0.65462 0.01038 0.0
C47 C -0.00265 0.6223 0.95999 0.0
O48 O 0.97923 0.62727 0.04459 0.0
O49 O 0.01108 0.63063 0.03309 0.0
O50 O 0.00811 0.68523 0.03885 0.0
C51 C 0.99437 0.62245 0.04874 0.0
O52 O 0.97883 0.60832 0.97109 0.0
C53 C 0.02893 0.69727 0.03364 0.0
O54 O 0.00967 0.64193 0.96936 0.0
O55 O 0.03694 0.68988 0.01633 0.0
C56 C 0.30273 0.35405 0.03016 0.0
O57 O 0.31185 0.37465 0.02446 0.0
Cd58 Cd 0.34827 0.39537 0.00455 0.0
O59 O 0.31206 0.34302 0.0233 0.0
Cd60 Cd 0.34497 0.34777 -0.00143 0.0
C61 C 0.37755 0.38075 0.04733 0.0
O62 O 0.34902 0.37551 0.96661 0.0
O63 O 0.3773 0.37056 0.97048 0.0
O64 O 0.32159 0.31539 0.97157 0.0
C65 C 0.36841 0.38015 0.95869 0.0
O66 O 0.37283 0.39495 0.03832 0.0
C67 C 0.3302 0.30404 0.97916 0.0
O68 O 0.36923 0.36135 0.03713 0.0
O69 O 0.34582 0.31304 0.99604 0.0
C70 C 0.69111 0.03783 0.97981 0.0
O71 O 0.67977 0.04717 0.98493 0.0
Cd72 Cd 0.64467 0.03009 0.00867 0.0
O73 O 0.68444 0.01812 0.98805 0.0
Cd74 Cd 0.65265 0.98906 0.0145 0.0
C75 C 0.61454 0.98351 0.96976 0.0
O76 O 0.64709 0.01224 0.04721 0.0
O77 O 0.62053 0.97784 0.04348 0.0
O78 O 0.68018 0.98408 0.03835 0.0
C79 C 0.62824 0.99637 0.05537 0.0
O80 O 0.61715 0.00152 0.97975 0.0
C81 C 0.67024 0.96299 0.03567 0.0
O82 O 0.62673 0.97548 0.97663 0.0
O83 O 0.65223 0.95388 0.02232 0.0
C84 C 0.6136 0.63258 0.32205 0.0
O85 O 0.60146 0.64076 0.32851 0.0
Cd86 Cd 0.6166 0.6765 0.34942 0.0
O87 O 0.63419 0.64242 0.3288 0.0
Cd88 Cd 0.66161 0.67517 0.35506 0.0
C89 C 0.66139 0.70814 0.30696 0.0
O90 O 0.63639 0.67725 0.38803 0.0
O91 O 0.66983 0.70602 0.3846 0.0
O92 O 0.66976 0.64875 0.37642 0.0
C93 C 0.65101 0.69645 0.39649 0.0
O94 O 0.64203 0.70258 0.31628 0.0
C95 C 0.69101 0.66093 0.37458 0.0
O96 O 0.67277 0.70008 0.31653 0.0
O97 O 0.69869 0.67964 0.36301 0.0
C98 C 0.31237 0.03288 0.36769 0.0
O99 O 0.29152 0.0232 0.36245 0.0
Cd100 Cd 0.27086 0.98809 0.3397 0.0
O101 O 0.32401 0.02439 0.36004 0.0
Cd102 Cd 0.31845 0.99155 0.33486 0.0
C103 C 0.28213 0.95516 0.37976 0.0
O104 O 0.29179 0.9893 0.3018 0.0
O105 O 0.29637 0.96087 0.30488 0.0
O106 O 0.35156 0.01455 0.3082 0.0
C107 C 0.28757 0.97045 0.29288 0.0
O108 O 0.26802 0.95954 0.3696 0.0
C109 C 0.36199 0.00462 0.31448 0.0
O110 O 0.30275 0.96563 0.37258 0.0
O111 O 0.35253 0.98895 0.33126 0.0
C112 C 0.97002 0.28535 0.35526 0.0
O113 O 0.97805 0.27356 0.34697 0.0
Cd114 Cd 0.01573 0.28988 0.33087 0.0
O115 O 0.98098 0.30657 0.35299 0.0
Cd116 Cd 0.01579 0.33615 0.33209 0.0
C117 C 0.0449 0.32937 0.37969 0.0
O118 O 0.01766 0.31371 0.29631 0.0
O119 O 0.04688 0.34656 0.30149 0.0
O120 O 0.9915 0.34746 0.31253 0.0
C121 C 0.0369 0.32867 0.28815 0.0
O122 O 0.03933 0.31092 0.36818 0.0
C123 C 0.00395 0.36815 0.31755 0.0
O124 O 0.03827 0.34223 0.37118 0.0
O125 O 0.02177 0.37396 0.33046 0.0
C126 C 0.61281 0.97277 0.32415 0.0
O127 O 0.60076 0.95293 0.33261 0.0
Cd128 Cd 0.61857 0.93337 0.34786 0.0
O129 O 0.63395 0.98377 0.32807 0.0
Cd130 Cd 0.66238 0.98003 0.35322 0.0
C131 C 0.66188 0.95036 0.30173 0.0
O132 O 0.63991 0.95153 0.38605 0.0
O133 O 0.67309 0.95704 0.37774 0.0
O134 O 0.66906 0.01082 0.38142 0.0
C135 C 0.65533 0.94743 0.3917 0.0
O136 O 0.64277 0.93578 0.31107 0.0
C137 C 0.68984 0.02299 0.37599 0.0
O138 O 0.67381 0.96917 0.31307 0.0
O139 O 0.69797 0.01546 0.35903 0.0
C140 C 0.97193 0.68418 0.36678 0.0
O141 O 0.98058 0.70466 0.36064 0.0
Cd142 Cd 0.0157 0.72583 0.3384 0.0
O143 O 0.98094 0.673 0.35925 0.0
Cd144 Cd 0.0134 0.67816 0.33287 0.0
C145 C 0.04602 0.7124 0.38102 0.0
O146 O 0.01377 0.70434 0.30091 0.0
O147 O 0.04254 0.69999 0.30049 0.0
O148 O 0.98697 0.6431 0.31198 0.0
C149 C 0.03228 0.70886 0.29027 0.0
O150 O 0.04074 0.7261 0.3718 0.0
C151 C -0.00089 0.63432 0.31402 0.0
O152 O 0.03847 0.69305 0.37091 0.0
O153 O 0.01779 0.64577 0.32578 0.0
C154 C 0.36464 0.38134 0.31575 0.0
O155 O 0.35302 0.39036 0.32096 0.0
Cd156 Cd 0.31798 0.37283 0.34499 0.0
O157 O 0.35823 0.36167 0.32399 0.0
Cd158 Cd 0.32667 0.33257 0.35066 0.0
C159 C 0.28688 0.32571 0.30738 0.0
O160 O 0.32155 0.35585 0.38366 0.0
O161 O 0.2953 0.32118 0.3809 0.0
O162 O 0.35241 0.32672 0.37699 0.0
C163 C 0.3033 0.33976 0.39281 0.0
O164 O 0.2896 0.34386 0.31706 0.0
C165 C 0.34379 0.30608 0.37169 0.0
O166 O 0.29945 0.31805 0.31399 0.0
O167 O 0.32756 0.29774 0.35555 0.0
C168 C 0.28477 0.96774 0.659 0.0
O169 O 0.27312 0.97616 0.6667 0.0
Cd170 Cd 0.28882 0.01258 0.68552 0.0
O171 O 0.30589 0.97796 0.66327 0.0
Cd172 Cd 0.33534 0.01222 0.68633 0.0
C173 C 0.33022 0.04262 0.63841 0.0
O174 O 0.31183 0.0145 0.72105 0.0
O175 O 0.34471 0.0437 0.71587 0.0
O176 O 0.34542 0.98732 0.70748 0.0
C177 C 0.32635 0.03399 0.72873 0.0
O178 O 0.31151 0.03702 0.64964 0.0
C179 C 0.36644 -0.00087 0.70318 0.0
O180 O 0.34293 0.03573 0.64702 0.0
O181 O 0.37322 0.01716 0.69037 0.0
C182 C 0.97227 0.35826 0.69288 0.0
O183 O 0.95199 0.34864 0.68525 0.0
Cd184 Cd 0.93322 0.31396 0.66212 0.0
O185 O 0.98463 0.35007 0.68703 0.0
Cd186 Cd 0.98146 0.31787 0.6613 0.0
C187 C 0.94365 0.28214 0.70573 0.0
O188 O 0.95713 0.31732 0.62643 0.0
O189 O 0.96062 0.28831 0.62886 0.0
O190 O 0.01776 0.34429 0.64181 0.0
C191 C 0.95291 0.29878 0.61661 0.0
O192 O 0.93017 0.28685 0.69451 0.0
C193 C 0.02654 0.33224 0.64471 0.0
O194 O 0.96428 0.2918 0.69862 0.0
O195 O 0.01459 0.31365 0.65645 0.0
C196 C 0.6398 0.61604 0.69882 0.0
O197 O 0.64732 0.60355 0.69156 0.0
Cd198 Cd 0.68396 0.61861 0.67216 0.0
O199 O 0.65019 0.63674 0.69313 0.0
Cd200 Cd 0.68281 0.66357 0.66687 0.0
C201 C 0.7161 0.66344 0.71392 0.0
O202 O 0.68535 0.63914 0.63433 0.0
O203 O 0.71456 0.67221 0.63846 0.0
O204 O 0.65877 0.67094 0.64024 0.0
C205 C 0.70488 0.65367 0.6263 0.0
O206 O 0.71042 0.64412 0.70485 0.0
C207 C 0.66803 0.69155 0.64593 0.0
O208 O 0.70779 0.6746 0.70449 0.0
O209 O 0.68417 0.69936 0.66221 0.0
C210 C 0.27476 0.30475 0.6598 0.0
O211 O 0.26482 0.28417 0.66591 0.0
Cd212 Cd 0.28258 0.2669 0.68827 0.0
O213 O 0.29512 0.3178 0.66648 0.0
Cd214 Cd 0.32456 0.31569 0.69099 0.0
C215 C 0.32744 0.28204 0.64611 0.0
O216 O 0.30231 0.2884 0.7257 0.0
O217 O 0.33616 0.29545 0.71903 0.0
O218 O 0.33327 0.35071 0.71236 0.0
C219 C 0.31827 0.28551 0.73264 0.0
O220 O 0.30979 0.26683 0.65757 0.0
C221 C 0.35436 0.36012 0.70854 0.0
O222 O 0.33588 0.30259 0.65219 0.0
O223 O 0.36143 0.34914 0.69571 0.0
C224 C 0.64533 0.0268 0.70151 0.0
O225 O 0.6556 0.04755 0.6961 0.0
Cd226 Cd 0.68896 0.06715 0.66971 0.0
O227 O 0.65249 0.01437 0.69255 0.0
Cd228 Cd 0.68373 0.01841 0.66472 0.0
C229 C 0.72309 0.05545 0.70657 0.0
O230 O 0.68252 0.04372 0.63266 0.0
O231 O 0.71079 0.03883 0.62953 0.0
O232 O 0.65725 0.98149 0.64685 0.0
C233 C 0.70018 0.04772 0.62036 0.0
O234 O 0.71927 0.06999 0.69669 0.0
C235 C 0.67084 0.97429 0.64778 0.0
O236 O 0.71126 0.03483 0.70036 0.0
O237 O 0.69003 0.98728 0.65772 0.0
C238 C 0.02609 0.70903 0.64939 0.0
O239 O 0.01832 0.72142 0.65615 0.0
Cd240 Cd 0.98134 0.7071 0.67421 0.0
O241 O 0.01512 0.68808 0.65421 0.0
Cd242 Cd 0.98022 0.6612 0.67928 0.0
C243 C 0.94813 0.66377 0.63121 0.0
O244 O 0.97906 0.68653 0.7125 0.0
O245 O 0.94884 0.6544 0.70835 0.0
O246 O 0.00383 0.65035 0.70277 0.0
C247 C 0.9593 0.67282 0.72064 0.0
O248 O 0.95436 0.68306 0.6408 0.0
C249 C 0.99108 0.62939 0.69977 0.0
O250 O 0.95582 0.65196 0.64047 0.0
O251 O 0.97335 0.62303 0.68641 0.0
C252 C 0.22843 0.32284 0.12573 0.0
C253 C 0.22663 0.31186 0.10188 0.0
C254 C 0.20986 0.31513 0.14241 0.0
C255 C 0.18929 0.29605 0.13573 0.0
C256 C 0.20655 0.29203 0.09589 0.0
C257 C 0.18791 0.28426 0.11264 0.0
C258 C 0.16851 0.29159 0.14939 0.0
C259 C 0.21014 0.28211 0.21066 0.0
C260 C 0.21572 0.29655 0.23239 0.0
C261 C 0.19408 0.28025 0.19248 0.0
C262 C 0.18369 0.2931 0.19559 0.0
C263 C 0.20538 0.30939 0.23527 0.0
C264 C 0.18952 0.30759 0.21723 0.0
C265 C 0.16654 0.29177 0.17703 0.0
C266 C 0.08017 0.29349 0.19369 0.0
C267 C 0.08856 0.30985 0.21356 0.0
C268 C 0.09465 0.28831 0.18006 0.0
C269 C 0.11768 0.29947 0.18619 0.0
C270 C 0.1115 0.32065 0.21985 0.0
C271 C 0.12588 0.31554 0.2063 0.0
C272 C 0.13366 0.29462 0.17248 0.0
C273 C 0.11081 0.32499 0.11103 0.0
C274 C 0.09861 0.31022 0.09053 0.0
C275 C 0.12245 0.31952 0.12894 0.0
C276 C 0.12194 0.29909 0.12686 0.0
C277 C 0.09816 0.2898 0.08838 0.0
C278 C 0.10997 0.2844 0.10624 0.0
C279 C 0.13538 0.29398 0.14491 0.0
H280 H 0.24388 0.33807 0.13078 0.0
H281 H 0.21122 0.32504 0.15956 0.0
H282 H 0.20488 0.28334 0.07754 0.0
H283 H 0.17208 0.26976 0.1069 0.0
H284 H 0.21796 0.2721 0.20796 0.0
H285 H 0.18968 0.26867 0.1762 0.0
H286 H 0.20979 0.32111 0.2514 0.0
H287 H 0.18202 0.31788 0.22006 0.0
H288 H 0.06246 0.28474 0.18876 0.0
H289 H 0.08785 0.27549 0.165 0.0
H290 H 0.11828 0.33283 0.23563 0.0
H291 H 0.14354 0.32429 0.21152 0.0
H292 H 0.11116 0.34068 0.11338 0.0
H293 H 0.13205 0.33139 0.14428 0.0
H294 H 0.08886 0.27814 0.07274 0.0
H295 H 0.10968 0.26872 0.10405 0.0
N296 N 0.15267 0.29237 0.13448 0.0
N297 N 0.14916 0.29328 0.18733 0.0
C298 C 0.68069 0.89797 0.11918 0.0
C299 C 0.69596 0.91032 0.09899 0.0
C300 C 0.68516 0.88509 0.13627 0.0
C301 C 0.70509 0.88443 0.13366 0.0
C302 C 0.71585 0.90956 0.09623 0.0
C303 C 0.72028 0.89655 0.11333 0.0
C304 C 0.70876 0.86924 0.15036 0.0
C305 C 0.71013 0.92209 0.20449 0.0
C306 C 0.69199 0.91257 0.22237 0.0
C307 C 0.71554 0.90828 0.18978 0.0
C308 C 0.70299 0.88491 0.19313 0.0
C309 C 0.67982 0.8893 0.22589 0.0
C310 C 0.68528 0.87566 0.2115 0.0
C311 C 0.70762 0.86943 0.17803 0.0
C312 C 0.7085 0.78499 0.20919 0.0
C313 C 0.69256 0.77895 0.22959 0.0
C314 C 0.71369 0.80329 0.19289 0.0
C315 C 0.70291 0.8157 0.19676 0.0
C316 C 0.68234 0.79176 0.23374 0.0
C317 C 0.68746 0.80987 0.21761 0.0
C318 C 0.70713 0.83477 0.1797 0.0
C319 C 0.67361 0.77616 0.12438 0.0
C320 C 0.68585 0.77775 0.10152 0.0
C321 C 0.68152 0.79416 0.14171 0.0
C322 C 0.70203 0.81398 0.13674 0.0
C323 C 0.7068 0.79716 0.09702 0.0
C324 C 0.71473 0.81527 0.1144 0.0
C325 C 0.70785 0.83437 0.15195 0.0
H326 H 0.66523 0.89824 0.12171 0.0
H327 H 0.67279 0.87526 0.15121 0.0
H328 H 0.72772 0.91864 0.08055 0.0
H329 H 0.73549 0.89583 0.1106 0.0
H330 H 0.71986 0.94006 0.20174 0.0
H331 H 0.72948 0.91579 0.17596 0.0
H332 H 0.66607 0.88163 0.23997 0.0
H333 H 0.67536 0.85771 0.21449 0.0
H334 H 0.71659 0.77533 0.20555 0.0
H335 H 0.726 0.80767 0.17728 0.0
H336 H 0.6702 0.78767 0.2495 0.0
H337 H 0.67888 0.81907 0.22119 0.0
H338 H 0.65749 0.76125 0.12832 0.0
H339 H 0.67096 0.79298 0.15822 0.0
H340 H 0.71646 0.79871 0.07944 0.0
H341 H 0.73035 0.83058 0.10993 0.0
N342 N 0.709 0.85179 0.13844 0.0
N343 N 0.70709 0.85235 0.19145 0.0
C344 C 0.09687 0.77502 0.11545 0.0
C345 C 0.08726 0.77773 0.09269 0.0
C346 C 0.11092 0.7935 0.13094 0.0
C347 C 0.11496 0.81488 0.12437 0.0
C348 C 0.09194 0.79914 0.08544 0.0
C349 C 0.10573 0.81763 0.10122 0.0
C350 C 0.13045 0.83465 0.14017 0.0
C351 C 0.07427 0.78706 0.19444 0.0
C352 C 0.08234 0.78011 0.21545 0.0
C353 C 0.08926 0.80541 0.17898 0.0
C354 C 0.11247 0.8168 0.18425 0.0
C355 C 0.10542 0.792 0.22105 0.0
C356 C 0.12028 0.81012 0.20567 0.0
C357 C 0.12925 0.8355 0.16785 0.0
C358 C 0.21267 0.92493 0.19432 0.0
C359 C 0.21846 0.9174 0.21684 0.0
C360 C 0.1949 0.90974 0.1784 0.0
C361 C 0.18288 0.88683 0.1847 0.0
C362 C 0.20608 0.89459 0.22332 0.0
C363 C 0.18849 0.87951 0.20748 0.0
C364 C 0.16439 0.87002 0.16814 0.0
C365 C 0.22564 0.89415 0.11665 0.0
C366 C 0.22493 0.90378 0.0928 0.0
C367 C 0.20663 0.88366 0.13278 0.0
C368 C 0.1867 0.88298 0.12556 0.0
C369 C 0.20522 0.90362 0.08585 0.0
C370 C 0.18613 0.89307 0.10203 0.0
C371 C 0.16578 0.86895 0.14055 0.0
H372 H 0.09362 0.7586 0.12111 0.0
H373 H 0.11875 0.79107 0.14794 0.0
H374 H 0.08467 0.80147 0.06784 0.0
H375 H 0.10911 0.83407 0.09543 0.0
H376 H 0.05652 0.77809 0.18971 0.0
H377 H 0.08279 0.81052 0.16284 0.0
H378 H 0.11203 0.78721 0.23737 0.0
H379 H 0.13806 0.81865 0.21024 0.0
H380 H 0.22205 0.94244 0.18884 0.0
H381 H 0.19062 0.91589 0.16122 0.0
H382 H 0.21001 0.88839 0.24074 0.0
H383 H 0.17948 0.86196 0.21287 0.0
H384 H 0.24076 0.8943 0.12253 0.0
H385 H 0.20727 0.87534 0.1504 0.0
H386 H 0.20434 0.91092 0.06748 0.0
H387 H 0.17077 0.89233 0.0959 0.0
N388 N 0.14859 0.85152 0.12763 0.0
N389 N 0.1462 0.85323 0.18057 0.0
C390 C 0.32292 0.09666 0.82611 0.0
C391 C 0.30763 0.08479 0.80591 0.0
C392 C 0.31946 0.11071 0.84276 0.0
C393 C 0.30052 0.113 0.83971 0.0
C394 C 0.28876 0.08721 0.80277 0.0
C395 C 0.28531 0.10128 0.81945 0.0
C396 C 0.2976 0.12903 0.85608 0.0
C397 C 0.29343 0.07619 0.91062 0.0
C398 C 0.30874 0.08454 0.93158 0.0
C399 C 0.28986 0.09068 0.8952 0.0
C400 C 0.30212 0.11386 0.89992 0.0
C401 C 0.32032 0.10761 0.93682 0.0
C402 C 0.31709 0.12209 0.92114 0.0
C403 C 0.29922 0.12989 0.8838 0.0
C404 C 0.2875 0.20779 0.91326 0.0
C405 C 0.30639 0.21943 0.92958 0.0
C406 C 0.28441 0.18937 0.89855 0.0
C407 C 0.30013 0.18231 0.90005 0.0
C408 C 0.32194 0.21211 0.9311 0.0
C409 C 0.31865 0.19354 0.91677 0.0
C410 C 0.29789 0.16352 0.88408 0.0
C411 C 0.31839 0.22072 0.82868 0.0
C412 C 0.30352 0.21641 0.80786 0.0
C413 C 0.31581 0.20334 0.8447 0.0
C414 C 0.29789 0.18137 0.84075 0.0
C415 C 0.28543 0.1945 0.80405 0.0
C416 C 0.28273 0.17708 0.82027 0.0
C417 C 0.29619 0.1627 0.85647 0.0
H418 H 0.33767 0.09522 0.82884 0.0
H419 H 0.33184 0.12013 0.85771 0.0
H420 H 0.27701 0.07871 0.78695 0.0
H421 H 0.27084 0.10315 0.81642 0.0
H422 H 0.28452 0.05854 0.90578 0.0
H423 H 0.27763 0.08375 0.87957 0.0
H424 H 0.33204 0.11452 0.95297 0.0
H425 H 0.32658 0.13986 0.92546 0.0
H426 H 0.27521 0.21302 0.91176 0.0
H427 H 0.26987 0.18072 0.88594 0.0
H428 H 0.33704 0.22111 0.94276 0.0
H429 H 0.33104 0.18841 0.91804 0.0
H430 H 0.33233 0.2375 0.83225 0.0
H431 H 0.32823 0.20704 0.85972 0.0
H432 H 0.27382 0.19073 0.788 0.0
H433 H 0.26899 0.16021 0.81664 0.0
N434 N 0.29592 0.14537 0.84353 0.0
N435 N 0.29936 0.14716 0.89658 0.0
C436 C 0.92086 0.21472 0.90848 0.0
C437 C 0.91185 0.22549 0.92343 0.0
C438 C 0.90692 0.19644 0.89243 0.0
C439 C 0.88372 0.1884 0.89153 0.0
C440 C 0.88859 0.21735 0.92223 0.0
C441 C 0.87467 0.19887 0.90673 0.0
C442 C 0.8684 0.16874 0.87554 0.0
C443 C 0.90178 0.22389 0.81557 0.0
C444 C 0.91138 0.21949 0.79362 0.0
C445 C 0.88995 0.20737 0.83441 0.0
C446 C 0.88788 0.18621 0.83202 0.0
C447 C 0.91048 0.19887 0.79189 0.0
C448 C 0.89868 0.18229 0.81086 0.0
C449 C 0.87114 0.1672 0.84826 0.0
C450 C 0.78112 0.09784 0.81179 0.0
C451 C 0.78769 0.08925 0.79077 0.0
C452 C 0.79664 0.11093 0.83104 0.0
C453 C 0.81881 0.11506 0.83001 0.0
C454 C 0.80962 0.09292 0.78992 0.0
C455 C 0.82504 0.10566 0.80945 0.0
C456 C 0.83645 0.13204 0.84734 0.0
C457 C 0.78298 0.08056 0.90145 0.0
C458 C 0.77374 0.0896 0.9189 0.0
C459 C 0.80268 0.09468 0.8872 0.0
C460 C 0.81317 0.11807 0.88985 0.0
C461 C 0.7847 0.11292 0.92204 0.0
C462 C 0.80414 0.12695 0.90774 0.0
C463 C 0.83361 0.1338 0.87465 0.0
H464 H 0.93859 0.22016 0.90947 0.0
H465 H 0.91415 0.18833 0.88113 0.0
H466 H 0.88111 0.22539 0.93318 0.0
H467 H 0.8568 0.19293 0.90626 0.0
H468 H 0.9023 0.23972 0.81734 0.0
H469 H 0.88111 0.21073 0.84975 0.0
H470 H 0.91765 0.19506 0.77504 0.0
H471 H 0.89703 0.16602 0.80832 0.0
H472 H 0.76439 0.09559 0.8124 0.0
H473 H 0.79157 0.11879 0.84583 0.0
H474 H 0.81504 0.08665 0.77361 0.0
H475 H 0.84214 0.10897 0.8079 0.0
H476 H 0.77479 0.06264 0.89846 0.0
H477 H 0.80957 0.08735 0.87402 0.0
H478 H 0.77816 0.12037 0.93558 0.0
H479 H 0.81194 0.14489 0.91036 0.0
N480 N 0.84979 0.15207 0.88753 0.0
N481 N 0.85517 0.14877 0.83539 0.0
C482 C 0.78822 0.71597 0.90672 0.0
C483 C 0.77707 0.69738 0.92361 0.0
C484 C 0.80687 0.7194 0.8918 0.0
C485 C 0.81469 0.70435 0.89368 0.0
C486 C 0.785 0.68238 0.92526 0.0
C487 C 0.80377 0.68602 0.91076 0.0
C488 C 0.83398 0.70704 0.87789 0.0
C489 C 0.7776 0.68315 0.82026 0.0
C490 C 0.78194 0.69653 0.79792 0.0
C491 C 0.79469 0.68789 0.83799 0.0
C492 C 0.81641 0.70645 0.83413 0.0
C493 C 0.80345 0.71549 0.79437 0.0
C494 C 0.82059 0.72035 0.81231 0.0
C495 C 0.83528 0.70905 0.85028 0.0
C496 C 0.89861 0.67925 0.81905 0.0
C497 C 0.91155 0.69474 0.79936 0.0
C498 C 0.88511 0.68338 0.83603 0.0
C499 C 0.8845 0.70323 0.83392 0.0
C500 C 0.91085 0.71457 0.7972 0.0
C501 C 0.89737 0.71871 0.81426 0.0
C502 C 0.86869 0.70675 0.85026 0.0
C503 C 0.91708 0.70229 0.90533 0.0
C504 C 0.90623 0.68533 0.92429 0.0
C505 C 0.90471 0.70911 0.89041 0.0
C506 C 0.88126 0.69868 0.89388 0.0
C507 C 0.88299 0.67568 0.9284 0.0
C508 C 0.87067 0.68223 0.91336 0.0
C509 C 0.86711 0.70439 0.8779 0.0
H510 H 0.78251 0.72783 0.90505 0.0
H511 H 0.81518 0.73376 0.87887 0.0
H512 H 0.77637 0.66748 0.93727 0.0
H513 H 0.80938 0.67405 0.91228 0.0
H514 H 0.76119 0.66837 0.82334 0.0
H515 H 0.79115 0.67624 0.85389 0.0
H516 H 0.80735 0.72581 0.77701 0.0
H517 H 0.83734 0.73445 0.80863 0.0
H518 H 0.8987 0.66377 0.82106 0.0
H519 H 0.87474 0.67078 0.85041 0.0
H520 H 0.92017 0.72654 0.7818 0.0
H521 H 0.89674 0.73388 0.81188 0.0
H522 H 0.93498 0.70988 0.90163 0.0
H523 H 0.9134 0.72229 0.87604 0.0
H524 H 0.87425 0.66281 0.94312 0.0
H525 H 0.85265 0.67401 0.91665 0.0
N526 N 0.8499 0.70478 0.89047 0.0
N527 N 0.85278 0.70915 0.8376 0.0
C528 C 0.73833 0.61532 0.44408 0.0
C529 C 0.74735 0.63147 0.42399 0.0
C530 C 0.75211 0.60943 0.4577 0.0
C531 C 0.77528 0.62005 0.45194 0.0
C532 C 0.77004 0.64057 0.4168 0.0
C533 C 0.78385 0.63508 0.43072 0.0
C534 C 0.79121 0.61666 0.46804 0.0
C535 C 0.76151 0.6441 0.52557 0.0
C536 C 0.75009 0.63001 0.5469 0.0
C537 C 0.77413 0.63903 0.50842 0.0
C538 C 0.77503 0.61945 0.51189 0.0
C539 C 0.75064 0.6102 0.55011 0.0
C540 C 0.76319 0.60505 0.53281 0.0
C541 C 0.79058 0.61562 0.49578 0.0
C542 C 0.8836 0.64705 0.52718 0.0
C543 C 0.8807 0.63277 0.54823 0.0
C544 C 0.86611 0.64156 0.5096 0.0
C545 C 0.84541 0.62144 0.51235 0.0
C546 C 0.86007 0.61253 0.55084 0.0
C547 C 0.84256 0.60698 0.53312 0.0
C548 C 0.82591 0.61702 0.49595 0.0
C549 C 0.88095 0.62319 0.44275 0.0
C550 C 0.88803 0.64106 0.4251 0.0
C551 C 0.86047 0.61487 0.45633 0.0
C552 C 0.8471 0.62453 0.45242 0.0
C553 C 0.87391 0.64956 0.41998 0.0
C554 C 0.85371 0.64144 0.43352 0.0
C555 C 0.82672 0.6184 0.46822 0.0
H556 H 0.7208 0.60772 0.44981 0.0
H557 H 0.74474 0.59706 0.47317 0.0
H558 H 0.77729 0.65231 0.40068 0.0
H559 H 0.80152 0.64326 0.42535 0.0
H560 H 0.76112 0.65933 0.52253 0.0
H561 H 0.7837 0.65075 0.4929 0.0
H562 H 0.74206 0.59917 0.56655 0.0
H563 H 0.76406 0.5901 0.53607 0.0
H564 H 0.89925 0.66281 0.52474 0.0
H565 H 0.86853 0.65345 0.49441 0.0
H566 H 0.85709 0.60145 0.56722 0.0
H567 H 0.82657 0.59166 0.53603 0.0
H568 H 0.89155 0.61623 0.44666 0.0
H569 H 0.85542 0.60139 0.47029 0.0
H570 H 0.87881 0.66298 0.40594 0.0
H571 H 0.84366 0.64908 0.4299 0.0
N572 N 0.80925 0.6179 0.45556 0.0
N573 N 0.80772 0.61545 0.50854 0.0
C574 C 0.35005 0.24048 0.45648 0.0
C575 C 0.36439 0.24973 0.4347 0.0
C576 C 0.35211 0.2257 0.47307 0.0
C577 C 0.36908 0.22049 0.46868 0.0
C578 C 0.38106 0.24429 0.42984 0.0
C579 C 0.3834 0.22978 0.44675 0.0
C580 C 0.37035 0.2035 0.48493 0.0
C581 C 0.37634 0.25407 0.54899 0.0
C582 C 0.35672 0.24422 0.56468 0.0
C583 C 0.38018 0.24097 0.53093 0.0
C584 C 0.36446 0.21798 0.52864 0.0
C585 C 0.34066 0.22148 0.5612 0.0
C586 C 0.3446 0.20849 0.5436 0.0
C587 C 0.3687 0.20277 0.51261 0.0
C588 C 0.37184 0.11922 0.54072 0.0
C589 C 0.35524 0.11167 0.56051 0.0
C590 C 0.37622 0.1376 0.52503 0.0
C591 C 0.36411 0.14867 0.52912 0.0
C592 C 0.34368 0.12316 0.56494 0.0
C593 C 0.34808 0.14144 0.54949 0.0
C594 C 0.36777 0.16793 0.51284 0.0
C595 C 0.33653 0.1095 0.45787 0.0
C596 C 0.34939 0.11123 0.43554 0.0
C597 C 0.34324 0.12781 0.47445 0.0
C598 C 0.36318 0.14816 0.46933 0.0
C599 C 0.36941 0.13152 0.4304 0.0
C600 C 0.37619 0.14991 0.44712 0.0
C601 C 0.36864 0.16819 0.48511 0.0
H602 H 0.33682 0.24422 0.46022 0.0
H603 H 0.33988 0.21783 0.48873 0.0
H604 H 0.39216 0.25119 0.41296 0.0
H605 H 0.39626 0.22562 0.44256 0.0
H606 H 0.38903 0.27156 0.55142 0.0
H607 H 0.39568 0.24851 0.51957 0.0
H608 H 0.32521 0.21354 0.57266 0.0
H609 H 0.3322 0.19081 0.54195 0.0
H610 H 0.38111 0.11071 0.53715 0.0
H611 H 0.389 0.14315 0.5098 0.0
H612 H 0.33112 0.11793 0.58042 0.0
H613 H 0.33859 0.14971 0.55321 0.0
H614 H 0.321 0.09406 0.46221 0.0
H615 H 0.33238 0.12625 0.49079 0.0
H616 H 0.37939 0.13339 0.41302 0.0
H617 H 0.39132 0.16561 0.44246 0.0
N618 N 0.37035 0.18616 0.47229 0.0
N619 N 0.36768 0.18517 0.52532 0.0
C620 C 0.75781 0.1065 0.45282 0.0
C621 C 0.74757 0.10692 0.42935 0.0
C622 C 0.77258 0.12643 0.46565 0.0
C623 C 0.77672 0.14704 0.45566 0.0
C624 C 0.75216 0.12748 0.41891 0.0
C625 C 0.76662 0.14741 0.43202 0.0
C626 C 0.79341 0.16835 0.46807 0.0
C627 C 0.73984 0.12713 0.52658 0.0
C628 C 0.74863 0.12127 0.54784 0.0
C629 C 0.75425 0.14481 0.51001 0.0
C630 C 0.77761 0.15652 0.51431 0.0
C631 C 0.77177 0.13398 0.55301 0.0
C632 C 0.7861 0.15145 0.53646 0.0
C633 C 0.79382 0.1729 0.49524 0.0
C634 C 0.86531 0.25204 0.53792 0.0
C635 C 0.88611 0.2531 0.53519 0.0
C636 C 0.84715 0.23771 0.52204 0.0
C637 C 0.8495 0.22429 0.50306 0.0
C638 C 0.8886 0.24006 0.51575 0.0
C639 C 0.87043 0.22568 0.49997 0.0
C640 C 0.82933 0.20652 0.48961 0.0
C641 C 0.8758 0.21632 0.41492 0.0
C642 C 0.88524 0.23948 0.41152 0.0
C643 C 0.857 0.20431 0.43095 0.0
C644 C 0.84771 0.21529 0.44463 0.0
C645 C 0.87567 0.25045 0.42494 0.0
C646 C 0.85705 0.23843 0.44152 0.0
C647 C 0.82861 0.20213 0.46247 0.0
H648 H 0.75474 0.09076 0.46088 0.0
H649 H 0.78102 0.12574 0.48313 0.0
H650 H 0.74447 0.12807 0.40071 0.0
H651 H 0.77002 0.16316 0.42364 0.0
H652 H 0.72203 0.11754 0.52221 0.0
H653 H 0.74728 0.14876 0.49333 0.0
H654 H 0.77888 0.13001 0.56956 0.0
H655 H 0.80401 0.16033 0.54034 0.0
H656 H 0.86273 0.26147 0.55318 0.0
H657 H 0.83103 0.23652 0.52517 0.0
H658 H 0.9044 0.24044 0.51337 0.0
H659 H 0.87251 0.21485 0.48631 0.0
H660 H 0.88326 0.2075 0.40575 0.0
H661 H 0.85015 0.18648 0.43342 0.0
H662 H 0.88263 0.2683 0.4227 0.0
H663 H 0.84998 0.24712 0.45191 0.0
N664 N 0.81073 0.18326 0.45278 0.0
N665 N 0.8118 0.19181 0.50488 0.0
C666 C 0.96546 0.5438 0.14047 0.0
C667 C 0.98529 0.55696 0.12577 0.0
C668 C 0.96381 0.52729 0.1575 0.0
C669 C 0.98175 0.52336 0.15955 0.0
C670 C 0.00337 0.55323 0.12851 0.0
C671 C 0.00148 0.53638 0.14494 0.0
C672 C 0.97985 0.50513 0.17598 0.0
C673 C -0.00286 0.56139 0.23237 0.0
C674 C 0.98098 0.55679 0.25203 0.0
C675 C -0.0049 0.54439 0.21585 0.0
C676 C 0.97673 0.5225 0.21852 0.0
C677 C 0.96249 0.53495 0.25464 0.0
C678 C 0.96047 0.51787 0.23809 0.0
C679 C 0.97618 0.50407 0.20332 0.0
C680 C 0.0039 0.4413 0.23949 0.0
C681 C 0.98746 0.42903 0.25868 0.0
C682 C 0.0007 0.45453 0.22163 0.0
C683 C 0.98088 0.45548 0.22248 0.0
C684 C 0.96762 0.42995 0.25952 0.0
C685 C 0.96447 0.4433 0.24169 0.0
C686 C 0.97835 0.47095 0.20518 0.0
C687 C 0.97704 0.41805 0.15203 0.0
C688 C 0.99385 0.42636 0.13243 0.0
C689 C 0.9731 0.43271 0.16702 0.0
C690 C 0.98608 0.45595 0.16282 0.0
C691 C 0.00644 0.44955 0.12795 0.0
C692 C 0.00264 0.46415 0.14301 0.0
C693 C 0.982 0.47197 0.17773 0.0
H694 H 0.95098 0.54577 0.13829 0.0
H695 H 0.94833 0.51714 0.16843 0.0
H696 H 0.01897 0.56322 0.11774 0.0
H697 H 0.01551 0.53357 0.14639 0.0
H698 H 0.01156 0.57811 0.23002 0.0
H699 H 0.00837 0.54824 0.20167 0.0
H700 H 0.94999 0.53096 0.26992 0.0
H701 H 0.94644 0.50098 0.24084 0.0
H702 H 0.01918 0.44055 0.23823 0.0
H703 H 0.01388 0.46431 0.20745 0.0
H704 H 0.95472 0.42056 0.27414 0.0
H705 H 0.94924 0.44416 0.2429 0.0
H706 H 0.96691 0.40022 0.15569 0.0
H707 H 0.95971 0.42583 0.18156 0.0
H708 H 0.01897 0.45643 0.11242 0.0
H709 H 0.01269 0.48195 0.13909 0.0
N710 N 0.98265 0.48911 0.16425 0.0
N711 N 0.97544 0.48694 0.21687 0.0
C712 C 0.45414 0.41091 0.14481 0.0
C713 C 0.44801 0.42017 0.12429 0.0
C714 C 0.47278 0.42478 0.16055 0.0
C715 C 0.48536 0.44799 0.15587 0.0
C716 C 0.46111 0.44317 0.1192 0.0
C717 C 0.47954 0.45688 0.13473 0.0
C718 C 0.50432 0.46377 0.17268 0.0
C719 C 0.44325 0.43676 0.22531 0.0
C720 C 0.44422 0.42618 0.24826 0.0
C721 C 0.46223 0.44844 0.20929 0.0
C722 C 0.48247 0.44934 0.21552 0.0
C723 C 0.46432 0.42672 0.25431 0.0
C724 C 0.48337 0.43841 0.23817 0.0
C725 C 0.50322 0.46411 0.20039 0.0
C726 C 0.56444 0.55754 0.22878 0.0
C727 C 0.57496 0.55583 0.25139 0.0
C728 C 0.55321 0.53936 0.21182 0.0
C729 C 0.55256 0.51917 0.21688 0.0
C730 C 0.5745 0.53571 0.25638 0.0
C731 C 0.56326 0.51747 0.23931 0.0
C732 C 0.53806 0.49908 0.20098 0.0
C733 C 0.59136 0.5504 0.14602 0.0
C734 C 0.58159 0.55694 0.12655 0.0
C735 C 0.57781 0.53129 0.16134 0.0
C736 C 0.55443 0.51857 0.15709 0.0
C737 C 0.55843 0.54381 0.12192 0.0
C738 C 0.54504 0.52487 0.13694 0.0
C739 C 0.53895 0.49887 0.17326 0.0
H740 H 0.44425 0.39316 0.14902 0.0
H741 H 0.47718 0.41746 0.17645 0.0
H742 H 0.45691 0.45065 0.10327 0.0
H743 H 0.48889 0.47467 0.13059 0.0
H744 H 0.42789 0.43637 0.22001 0.0
H745 H 0.46126 0.45738 0.19247 0.0
H746 H 0.4655 0.41876 0.27196 0.0
H747 H 0.49893 0.43928 0.24363 0.0
H748 H 0.56448 0.57284 0.22454 0.0
H749 H 0.54432 0.54084 0.19527 0.0
H750 H 0.58208 0.53381 0.27396 0.0
H751 H 0.56245 0.50186 0.24393 0.0
H752 H 0.60927 0.56029 0.14973 0.0
H753 H 0.58548 0.52658 0.17652 0.0
H754 H 0.5506 0.54841 0.10678 0.0
H755 H 0.52711 0.51542 0.13318 0.0
N756 N 0.52218 0.4811 0.16043 0.0
N757 N 0.52034 0.48157 0.21343 0.0
C758 C 0.45219 0.03597 0.23774 0.0
C759 C 0.43972 0.01759 0.25458 0.0
C760 C 0.4692 0.03697 0.22159 0.0
C761 C 0.47408 0.01968 0.2222 0.0
C762 C 0.4444 0.00011 0.25458 0.0
C763 C 0.46162 0.00133 0.23887 0.0
C764 C 0.49291 0.02097 0.2068 0.0
C765 C 0.43915 0.00284 0.14675 0.0
C766 C 0.44505 0.01727 0.12513 0.0
C767 C 0.45529 0.00586 0.16517 0.0
C768 C 0.47764 0.02359 0.16257 0.0
C769 C 0.46719 0.03545 0.12292 0.0
C770 C 0.4834 0.0385 0.14144 0.0
C771 C 0.49545 0.0244 0.17937 0.0
C772 C 0.56218 -0.00265 0.1512 0.0
C773 C 0.57451 0.01284 0.1313 0.0
C774 C 0.54769 0.0005 0.16756 0.0
C775 C 0.54568 0.01955 0.16487 0.0
C776 C 0.57282 0.03209 0.12884 0.0
C777 C 0.5584 0.03532 0.14538 0.0
C778 C 0.52867 0.02181 0.18042 0.0
C779 C 0.57614 0.02338 0.24334 0.0
C780 C 0.56621 0.0029 0.257 0.0
C781 C 0.56321 0.02826 0.22665 0.0
C782 C 0.54013 0.01292 0.22388 0.0
C783 C 0.5431 0.98757 0.25379 0.0
C784 C 0.53016 0.99267 0.23769 0.0
C785 C 0.52577 0.01804 0.20775 0.0
H786 H 0.44898 0.04969 0.23728 0.0
H787 H 0.47884 0.05141 0.20908 0.0
H788 H 0.43458 0.98533 0.26652 0.0
H789 H 0.46507 0.98775 0.23949 0.0
H790 H 0.42223 0.98861 0.14878 0.0
H791 H 0.45048 0.99353 0.18057 0.0
H792 H 0.47225 0.04657 0.10616 0.0
H793 H 0.50062 0.05203 0.13874 0.0
H794 H 0.56334 0.98249 0.15374 0.0
H795 H 0.53747 0.98757 0.18166 0.0
H796 H 0.58206 0.04423 0.11355 0.0
H797 H 0.55688 0.04997 0.14266 0.0
H798 H 0.59375 0.03581 0.2459 0.0
H799 H 0.57106 0.04414 0.21642 0.0
H800 H 0.53498 0.97153 0.26371 0.0
H801 H 0.51233 0.98066 0.23576 0.0
N802 N 0.50807 0.01778 0.21982 0.0
N803 N 0.51339 0.02491 0.16727 0.0
C804 C 0.56533 0.9955 0.79253 0.0
C805 C 0.5653 0.98628 0.76793 0.0
C806 C 0.54539 0.9874 0.80685 0.0
C807 C 0.52515 0.96956 0.79711 0.0
C808 C 0.54528 0.96791 0.75859 0.0
C809 C 0.52529 0.95971 0.77301 0.0
C810 C 0.50356 0.96375 0.80983 0.0
C811 C 0.54166 0.94781 0.86936 0.0
C812 C 0.54611 0.95996 0.89293 0.0
C813 C 0.52659 0.94786 0.85109 0.0
C814 C 0.51611 0.96042 0.85594 0.0
C815 C 0.5356 0.97245 0.89764 0.0
C816 C 0.52071 0.97257 0.87948 0.0
C817 C 0.50001 0.96102 0.83728 0.0
C818 C 0.41072 0.95664 0.8536 0.0
C819 C 0.41778 0.97245 0.87403 0.0
C820 C 0.42646 0.95328 0.83994 0.0
C821 C 0.44934 0.96561 0.84675 0.0
C822 C 0.44058 0.98441 0.88099 0.0
C823 C 0.45618 0.981 0.86752 0.0
C824 C 0.46662 0.96288 0.83281 0.0
C825 C 0.44071 0.99353 0.77631 0.0
C826 C 0.42836 0.97887 0.7558 0.0
C827 C 0.45434 0.98909 0.79222 0.0
C828 C 0.45581 0.96986 0.788 0.0
C829 C 0.43047 0.96004 0.751 0.0
C830 C 0.44421 0.95565 0.7669 0.0
C831 C 0.46975 0.96489 0.80535 0.0
H832 H 0.58065 0.00954 0.80023 0.0
H833 H 0.54566 0.99585 0.82491 0.0
H834 H 0.54488 0.9606 0.7396 0.0
H835 H 0.50978 0.9462 0.76494 0.0
H836 H 0.54964 0.93813 0.86524 0.0
H837 H 0.52303 0.938 0.83332 0.0
H838 H 0.53917 0.98248 0.91529 0.0
H839 H 0.51304 0.98253 0.88371 0.0
H840 H 0.39314 0.94704 0.84819 0.0
H841 H 0.42079 0.94103 0.82426 0.0
H842 H 0.44632 0.99626 0.89713 0.0
H843 H 0.47372 0.9906 0.87319 0.0
H844 H 0.43941 0.00816 0.78041 0.0
H845 H 0.4636 0.00059 0.80801 0.0
H846 H 0.42142 0.94868 0.73502 0.0
H847 H 0.44544 0.94094 0.76307 0.0
N848 N 0.4881 0.96521 0.79489 0.0
N849 N 0.48175 0.96088 0.84759 0.0
C850 C -0.00251 0.55793 0.77881 0.0
C851 C 0.01173 0.57002 0.75771 0.0
C852 C 0.00252 0.5448 0.7948 0.0
C853 C 0.02198 0.54362 0.79015 0.0
C854 C 0.03118 0.5688 0.75302 0.0
C855 C 0.03612 0.55548 0.76893 0.0
C856 C 0.0267 0.52889 0.80641 0.0
C857 C 0.03483 0.58518 0.85942 0.0
C858 C 0.01914 0.57737 0.88022 0.0
C859 C 0.03787 0.57003 0.84412 0.0
C860 C 0.02525 0.54695 0.84954 0.0
C861 C 0.00685 0.55435 0.8857 0.0
C862 C 0.00992 0.53936 0.87062 0.0
C863 C 0.02776 0.53024 0.83408 0.0
C864 C 0.03763 0.45096 0.86503 0.0
C865 C 0.02246 0.44385 0.88633 0.0
C866 C 0.03992 0.46811 0.84843 0.0
C867 C 0.02713 0.4784 0.85308 0.0
C868 C 0.01026 0.45464 0.89131 0.0
C869 C 0.01261 0.47172 0.87495 0.0
C870 C 0.02851 0.49623 0.83581 0.0
C871 C -0.00349 0.43472 0.78486 0.0
C872 C 0.00801 0.43631 0.76135 0.0
C873 C 0.00336 0.45353 0.80067 0.0
C874 C 0.02213 0.47422 0.79353 0.0
C875 C 0.02719 0.45678 0.75456 0.0
C876 C 0.03407 0.47568 0.77044 0.0
C877 C 0.02721 0.49473 0.80811 0.0
H878 H 0.98254 0.5588 0.78306 0.0
H879 H 0.99107 0.53538 0.81069 0.0
H880 H 0.04241 0.57794 0.73686 0.0
H881 H 0.05104 0.55454 0.7648 0.0
H882 H 0.04449 0.60288 0.85485 0.0
H883 H 0.05009 0.57632 0.82822 0.0
H884 H -0.00515 0.54793 0.90184 0.0
H885 H 5e-05 0.52168 0.87528 0.0
H886 H 0.04735 0.443 0.86096 0.0
H887 H 0.0516 0.47328 0.83203 0.0
H888 H -0.00124 0.44975 0.9079 0.0
H889 H 0.00267 0.47943 0.87914 0.0
H890 H 0.98176 0.41905 0.79058 0.0
H891 H 0.99336 0.45208 0.81788 0.0
H892 H 0.03625 0.45839 0.73644 0.0
H893 H 0.04836 0.49156 0.76435 0.0
N894 N 0.02661 0.51125 0.7945 0.0
N895 N 0.02868 0.51391 0.84756 0.0
C896 C 0.54624 0.58571 0.76993 0.0
C897 C 0.55681 0.57455 0.75932 0.0
C898 C 0.52641 0.57394 0.78479 0.0
C899 C 0.51674 0.55085 0.78859 0.0
C900 C 0.54705 0.55146 0.76367 0.0
C901 C 0.52707 0.53971 0.77781 0.0
C902 C 0.49562 0.53755 0.80328 0.0
C903 C 0.55073 0.57142 0.86332 0.0
C904 C 0.5471 0.58435 0.88182 0.0
C905 C 0.53364 0.5572 0.84623 0.0
C906 C 0.51266 0.55591 0.84695 0.0
C907 C 0.52608 0.58302 0.88261 0.0
C908 C 0.50898 0.56885 0.86536 0.0
C909 C 0.49385 0.5393 0.83066 0.0
C910 C 0.42777 0.44734 0.86 0.0
C911 C 0.4166 0.45037 0.88137 0.0
C912 C 0.44081 0.465 0.84295 0.0
C913 C 0.44242 0.48585 0.8465 0.0
C914 C 0.41789 0.4711 0.88472 0.0
C915 C 0.43087 0.48878 0.86751 0.0
C916 C 0.45836 0.50516 0.83033 0.0
C917 C 0.40539 0.45375 0.77803 0.0
C918 C 0.41373 0.4461 0.7577 0.0
C919 C 0.41992 0.47321 0.792 0.0
C920 C 0.44315 0.48494 0.78641 0.0
C921 C 0.43655 0.45902 0.75061 0.0
C922 C 0.45111 0.47804 0.76495 0.0
C923 C 0.45964 0.50411 0.80263 0.0
H924 H 0.55304 0.60338 0.7664 0.0
H925 H 0.51844 0.58269 0.79285 0.0
H926 H 0.55491 0.54242 0.75619 0.0
H927 H 0.51983 0.52187 0.78073 0.0
H928 H 0.56671 0.57199 0.86239 0.0
H929 H 0.53663 0.54665 0.8331 0.0
H930 H 0.5226 0.59236 0.89712 0.0
H931 H 0.49274 0.56769 0.86668 0.0
H932 H 0.42681 0.43143 0.85681 0.0
H933 H 0.45015 0.46251 0.82742 0.0
H934 H 0.40951 0.47384 0.90117 0.0
H935 H 0.43227 0.50487 0.87087 0.0
H936 H 0.38778 0.44434 0.78367 0.0
H937 H 0.41305 0.4787 0.80757 0.0
H938 H 0.4433 0.45414 0.73428 0.0
H939 H 0.46882 0.48696 0.75965 0.0
N940 N 0.4784 0.52029 0.79038 0.0
N941 N 0.47524 0.523 0.84316 0.0
C942 C 0.64945 0.75809 0.49584 0.0
C943 C 0.63375 0.74686 0.47581 0.0
C944 C 0.64736 0.773 0.51247 0.0
C945 C 0.62929 0.77672 0.50974 0.0
C946 C 0.61557 0.75046 0.47316 0.0
C947 C 0.61343 0.76533 0.48993 0.0
C948 C 0.62836 0.79426 0.5255 0.0
C949 C 0.6221 0.74227 0.58225 0.0
C950 C 0.64208 0.75007 0.59658 0.0
C951 C 0.61824 0.75724 0.56829 0.0
C952 C 0.63414 0.78022 0.56885 0.0
C953 C 0.6575 0.7732 0.59784 0.0
C954 C 0.65346 0.78815 0.58428 0.0
C955 C 0.63131 0.79623 0.55296 0.0
C956 C 0.62999 0.88165 0.57708 0.0
C957 C 0.64658 0.88985 0.59664 0.0
C958 C 0.62488 0.86229 0.56297 0.0
C959 C 0.6367 0.85111 0.56774 0.0
C960 C 0.65725 0.87778 0.60254 0.0
C961 C 0.65249 0.85876 0.58814 0.0
C962 C 0.63279 0.8313 0.55221 0.0
C963 C 0.6556 0.88599 0.49177 0.0
C964 C 0.64 0.88161 0.47177 0.0
C965 C 0.6521 0.8692 0.50944 0.0
C966 C 0.63268 0.84788 0.50776 0.0
C967 C 0.62043 0.86037 0.47033 0.0
C968 C 0.6169 0.84359 0.48807 0.0
C969 C 0.62998 0.82944 0.52463 0.0
H970 H 0.6637 0.75576 0.49823 0.0
H971 H 0.66037 0.7822 0.52684 0.0
H972 H 0.60352 0.74246 0.45749 0.0
H973 H 0.59962 0.7683 0.48709 0.0
H974 H 0.60957 0.7246 0.58161 0.0
H975 H 0.60301 0.7509 0.55688 0.0
H976 H 0.67307 0.7797 0.60863 0.0
H977 H 0.66588 0.80587 0.58499 0.0
H978 H 0.62128 0.89045 0.5723 0.0
H979 H 0.61189 0.85625 0.5482 0.0
H980 H 0.66947 0.88316 0.61818 0.0
H981 H 0.66154 0.85024 0.59268 0.0
H982 H 0.67069 0.90231 0.49349 0.0
H983 H 0.66484 0.87274 0.524 0.0
H984 H 0.60823 0.85656 0.45497 0.0
H985 H 0.60199 0.82715 0.4862 0.0
N986 N 0.62764 0.81089 0.51244 0.0
N987 N 0.63342 0.8146 0.56518 0.0
C988 C 0.1207 0.74449 0.48051 0.0
C989 C 0.11292 0.75336 0.46135 0.0
C990 C 0.13841 0.75891 0.4971 0.0
C991 C 0.14845 0.78226 0.4945 0.0
C992 C 0.12351 0.77662 0.45831 0.0
C993 C 0.14107 0.79088 0.47464 0.0
C994 C 0.16663 0.79836 0.51189 0.0
C995 C 0.10501 0.7622 0.56331 0.0
C996 C 0.10766 0.75324 0.58666 0.0
C997 C 0.1237 0.77622 0.54776 0.0
C998 C 0.14537 0.78089 0.55471 0.0
C999 C 0.12923 0.75799 0.59391 0.0
C1000 C 0.14794 0.77167 0.578 0.0
C1001 C 0.16555 0.79754 0.53969 0.0
C1002 C 0.22685 0.89059 0.57188 0.0
C1003 C 0.23963 0.88894 0.59207 0.0
C1004 C 0.21442 0.8726 0.55504 0.0
C1005 C 0.21469 0.85264 0.5578 0.0
C1006 C 0.24002 0.869 0.59485 0.0
C1007 C 0.22747 0.8509 0.57792 0.0
C1008 C 0.19979 0.83306 0.54141 0.0
C1009 C 0.25122 0.87739 0.4754 0.0
C1010 C 0.24186 0.8886 0.46243 0.0
C1011 C 0.23828 0.86032 0.49355 0.0
C1012 C 0.21585 0.85422 0.49866 0.0
C1013 C 0.21976 0.88307 0.46882 0.0
C1014 C 0.20683 0.86587 0.48641 0.0
C1015 C 0.20046 0.83397 0.51378 0.0
H1016 H 0.1128 0.72654 0.48297 0.0
H1017 H 0.14412 0.7519 0.512 0.0
H1018 H 0.11798 0.78379 0.44339 0.0
H1019 H 0.14857 0.80879 0.4721 0.0
H1020 H 0.08857 0.75917 0.55773 0.0
H1021 H 0.1212 0.78405 0.53085 0.0
H1022 H 0.13163 0.75145 0.61207 0.0
H1023 H 0.16449 0.77542 0.58417 0.0
H1024 H 0.22619 0.90573 0.56937 0.0
H1025 H 0.20397 0.87406 0.54041 0.0
H1026 H 0.24944 0.86719 0.61057 0.0
H1027 H 0.22751 0.83545 0.58072 0.0
H1028 H 0.26809 0.88106 0.47065 0.0
H1029 H 0.24537 0.85122 0.50257 0.0
H1030 H 0.21216 0.8916 0.45953 0.0
H1031 H 0.18949 0.86129 0.49004 0.0
N1032 N 0.18398 0.8166 0.50022 0.0
N1033 N 0.18243 0.81483 0.55334 0.0
C1034 C 0.25425 0.36839 0.48788 0.0
C1035 C 0.24677 0.35339 0.46658 0.0
C1036 C 0.23882 0.37116 0.50314 0.0
C1037 C 0.21572 0.35896 0.49724 0.0
C1038 C 0.2238 0.34174 0.46035 0.0
C1039 C 0.20847 0.34451 0.47548 0.0
C1040 C 0.19873 0.36107 0.51306 0.0
C1041 C 0.22326 0.32799 0.56792 0.0
C1042 C 0.23293 0.33965 0.59128 0.0
C1043 C 0.2126 0.33531 0.551 0.0
C1044 C 0.2118 0.3547 0.55684 0.0
C1045 C 0.23259 0.35931 0.59692 0.0
C1046 C 0.22189 0.36666 0.57991 0.0
C1047 C 0.19783 0.36054 0.54078 0.0
C1048 C 0.10469 0.33674 0.56722 0.0
C1049 C 0.10779 0.35191 0.58742 0.0
C1050 C 0.1228 0.34013 0.5514 0.0
C1051 C 0.14432 0.35886 0.55536 0.0
C1052 C 0.1294 0.3705 0.59159 0.0
C1053 C 0.14755 0.37385 0.57578 0.0
C1054 C 0.16381 0.36164 0.53989 0.0
C1055 C 0.11696 0.3669 0.4822 0.0
C1056 C 0.11006 0.35093 0.46191 0.0
C1057 C 0.13467 0.37062 0.49877 0.0
C1058 C 0.14549 0.35823 0.49537 0.0
C1059 C 0.12119 0.33891 0.45844 0.0
C1060 C 0.13865 0.34251 0.47493 0.0
C1061 C 0.16428 0.36136 0.51215 0.0
H1062 H 0.27194 0.37774 0.49287 0.0
H1063 H 0.24492 0.38282 0.51945 0.0
H1064 H 0.21766 0.3305 0.44365 0.0
H1065 H 0.19081 0.33503 0.47033 0.0
H1066 H 0.22355 0.31294 0.56299 0.0
H1067 H 0.20427 0.32531 0.53381 0.0
H1068 H 0.23993 0.36853 0.61488 0.0
H1069 H 0.22109 0.38141 0.58502 0.0
H1070 H 0.08822 0.32226 0.56364 0.0
H1071 H 0.12004 0.32792 0.53634 0.0
H1072 H 0.13231 0.38222 0.60733 0.0
H1073 H 0.16413 0.38812 0.57952 0.0
H1074 H 0.10857 0.37634 0.48535 0.0
H1075 H 0.13993 0.38317 0.51407 0.0
H1076 H 0.11649 0.32674 0.44275 0.0
H1077 H 0.14673 0.33278 0.47178 0.0
N1078 N 0.18185 0.36133 0.49998 0.0
N1079 N 0.18064 0.36126 0.5531 0.0
C1080 C 0.98262 0.37912 0.08541 0.0
C1081 C 0.00445 0.38424 0.07816 0.0
C1082 C 0.97926 0.39234 0.10374 0.0
C1083 C -0.00238 0.411 0.11562 0.0
H1084 H 0.96803 0.36538 0.07608 0.0
H1085 H 0.9622 0.38843 0.10783 0.0
S1086 S 0.05797 0.42922 0.10646 0.0
N1087 N 0.04458 0.40782 0.0862 0.0
N1088 N 0.03825 0.43225 0.12115 0.0
C1089 C 0.01946 0.41544 0.10968 0.0
C1090 C 0.02288 0.40217 0.09083 0.0
C1091 C 0.61969 0.59653 0.07356 0.0
C1092 C 0.61224 0.612 0.0723 0.0
C1093 C 0.61098 0.57947 0.0926 0.0
C1094 C 0.5948 0.57761 0.111 0.0
H1095 H 0.63121 0.59675 0.05881 0.0
H1096 H 0.61587 0.56692 0.09191 0.0
S1097 S 0.57302 0.61628 0.11904 0.0
N1098 N 0.59004 0.62603 0.0933 0.0
N1099 N 0.57393 0.59417 0.129 0.0
C1100 C 0.58869 0.59404 0.11124 0.0
C1101 C 0.59735 0.6112 0.09189 0.0
C1102 C 0.40326 0.98379 0.07192 0.0
C1103 C 0.39759 -0.00106 0.06126 0.0
C1104 C 0.41845 0.98994 0.09261 0.0
C1105 C 0.42878 0.01155 0.10349 0.0
H1106 H 0.39583 0.96689 0.06435 0.0
H1107 H 0.42234 0.97769 0.09997 0.0
S1108 S 0.42 0.05768 0.08307 0.0
N1109 N 0.40366 0.0367 0.06335 0.0
N1110 N 0.43241 0.04821 0.10237 0.0
C1111 C 0.42347 0.02698 0.0931 0.0
C1112 C 0.40778 0.02067 0.07204 0.0
C1113 C 0.37054 0.96152 0.92098 0.0
C1114 C 0.37561 0.98336 0.92735 0.0
C1115 C 0.38338 0.95789 0.90227 0.0
C1116 C 0.40156 0.97598 0.88931 0.0
H1117 H 0.35742 0.94724 0.93153 0.0
H1118 H 0.37991 0.94098 0.89906 0.0
S1119 S 0.41893 0.03589 0.8953 0.0
N1120 N 0.39808 0.02299 0.91668 0.0
N1121 N 0.42202 0.01607 0.88136 0.0
C1122 C 0.40561 -0.00233 0.89398 0.0
C1123 C 0.39267 0.00139 0.91306 0.0
C1124 C 0.03252 0.41 0.9372 0.0
C1125 C 0.01043 0.39279 0.9432 0.0
C1126 C 0.03661 0.42596 0.91767 0.0
C1127 C 0.01875 0.42506 0.90352 0.0
H1128 H 0.04655 0.41186 0.94858 0.0
H1129 H 0.05367 0.43967 0.91456 0.0
S1130 S 0.95848 0.38103 0.9084 0.0
N1131 N 0.97093 0.37424 0.93101 0.0
N1132 N 0.9787 0.40401 0.8944 0.0
C1133 C -0.00312 0.40702 0.90804 0.0
C1134 C 0.9927 0.39094 0.92786 0.0
C1135 C 0.59191 0.60072 0.93378 0.0
C1136 C 0.59853 0.62309 0.93959 0.0
C1137 C 0.57538 0.58845 0.91504 0.0
C1138 C 0.56478 0.59802 0.90129 0.0
H1139 H 0.59942 0.59248 0.94393 0.0
H1140 H 0.57063 0.57118 0.91156 0.0
S1141 S 0.57663 0.65626 0.90807 0.0
N1142 N 0.59352 0.65452 0.92944 0.0
N1143 N 0.56258 0.6314 0.89397 0.0
C1144 C 0.57133 0.62041 0.90664 0.0
C1145 C 0.58818 0.63295 0.9258 0.0
C1146 C 0.98746 0.59822 0.9204 0.0
C1147 C 0.00428 0.61478 0.93638 0.0
C1148 C 0.99274 0.58741 0.90086 0.0
C1149 C 0.01504 0.59262 0.89663 0.0
H1150 H 0.9699 0.59288 0.92372 0.0
H1151 H 0.97911 0.57406 0.88982 0.0
S1152 S 0.06557 0.63618 0.93136 0.0
N1153 N 0.04439 0.63728 0.94519 0.0
N1154 N 0.05432 0.61658 0.90849 0.0
C1155 C 0.03224 0.61021 0.91115 0.0
C1156 C 0.02686 0.62139 0.93106 0.0
C1157 C 0.37066 0.40843 0.92668 0.0
C1158 C 0.3809 0.39761 0.93858 0.0
C1159 C 0.38229 0.42548 0.90819 0.0
C1160 C 0.40451 0.43224 0.90081 0.0
H1161 H 0.35354 0.40379 0.93175 0.0
H1162 H 0.37378 0.43333 0.89946 0.0
S1163 S 0.43934 0.41001 0.92666 0.0
N1164 N 0.41484 0.39528 0.94184 0.0
N1165 N 0.43666 0.42748 0.9073 0.0
C1166 C 0.415 0.42167 0.91255 0.0
C1167 C 0.4032 0.40432 0.93137 0.0
C1168 C 0.60144 0.97311 0.92358 0.0
C1169 C 0.59642 0.9719 0.95053 0.0
C1170 C 0.58461 0.96755 0.90473 0.0
C1171 C 0.56236 0.96072 0.9124 0.0
H1172 H 0.6187 0.97987 0.91705 0.0
H1173 H 0.58937 0.9701 0.88415 0.0
S1174 S 0.5403 0.95165 0.98071 0.0
N1175 N 0.5675 0.96123 0.984 0.0
N1176 N 0.53579 0.95029 0.94877 0.0
C1177 C 0.55693 0.95776 0.93933 0.0
C1178 C 0.57402 0.96353 0.95837 0.0
C1179 C 0.62351 0.02071 0.0884 0.0
C1180 C 0.61451 3e-05 0.07522 0.0
C1181 C 0.61054 0.02477 0.10655 0.0
C1182 C 0.58813 0.00828 0.11227 0.0
H1183 H 0.64068 0.03393 0.08463 0.0
H1184 H 0.61815 0.04089 0.1163 0.0
S1185 S 0.55611 0.95176 0.08223 0.0
N1186 N 0.58143 0.96305 0.0688 0.0
N1187 N 0.55716 0.97087 0.10255 0.0
C1188 C 0.57888 0.9876 0.09915 0.0
C1189 C 0.59203 0.98343 0.08074 0.0
C1190 C -0.00072 0.59115 0.06328 0.0
C1191 C 0.99142 0.60586 0.06863 0.0
C1192 C -0.00314 0.57525 0.08173 0.0
C1193 C 0.98696 0.57376 0.10652 0.0
H1194 H 0.00707 0.59171 0.0445 0.0
H1195 H 0.00272 0.56393 0.07641 0.0
S1196 S 0.965 0.60965 0.13062 0.0
N1197 N 0.9737 0.61842 0.10034 0.0
N1198 N 0.97013 0.5892 0.13576 0.0
C1199 C 0.97923 0.5886 0.1122 0.0
C1200 C 0.98126 0.6045 0.09309 0.0
C1201 C 0.39552 0.40475 0.08637 0.0
C1202 C 0.39327 0.38753 0.06966 0.0
C1203 C 0.41236 0.41405 0.10532 0.0
C1204 C 0.42771 0.40661 0.10824 0.0
H1205 H 0.38465 0.41166 0.08424 0.0
H1206 H 0.41402 0.42789 0.11703 0.0
S1207 S 0.42794 0.36066 0.07115 0.0
N1208 N 0.40671 0.36214 0.0587 0.0
N1209 N 0.43875 0.38003 0.09432 0.0
C1210 C 0.42486 0.38849 0.0929 0.0
C1211 C 0.40753 0.37885 0.07357 0.0
C1212 C 0.66302 0.72974 0.42546 0.0
C1213 C 0.64602 0.70825 0.41752 0.0
C1214 C 0.65889 0.74186 0.44449 0.0
C1215 C 0.63758 0.73306 0.4564 0.0
H1216 H 0.67969 0.73746 0.41674 0.0
H1217 H 0.67244 0.75849 0.44954 0.0
S1218 S 0.58752 0.67717 0.44375 0.0
N1219 N 0.60711 0.67838 0.42377 0.0
N1220 N 0.59946 0.70124 0.45975 0.0
C1221 C 0.62047 0.7115 0.44901 0.0
C1222 C 0.62467 0.69906 0.42958 0.0
C1223 C 0.25177 0.91906 0.39778 0.0
C1224 C 0.27381 0.93739 0.39994 0.0
C1225 C 0.24213 0.903 0.41761 0.0
C1226 C 0.25393 0.90476 0.44075 0.0
H1227 H 0.24172 0.91723 0.3807 0.0
H1228 H 0.22503 0.88927 0.41498 0.0
S1229 S 0.31249 0.94927 0.45571 0.0
N1230 N 0.30767 0.95597 0.42639 0.0
N1231 N 0.28922 0.926 0.4643 0.0
C1232 C 0.27631 0.92259 0.44283 0.0
C1233 C 0.28631 0.93887 0.42229 0.0
C1234 C 0.05955 0.31888 0.41811 0.0
C1235 C 0.05965 0.33577 0.40292 0.0
C1236 C 0.07504 0.3241 0.43828 0.0
C1237 C 0.09145 0.34643 0.4439 0.0
H1238 H 0.04772 0.30139 0.41399 0.0
H1239 H 0.07467 0.31048 0.44899 0.0
S1240 S 0.09813 0.39697 0.41093 0.0
N1241 N 0.07663 0.37585 0.3959 0.0
N1242 N 0.10624 0.38566 0.43356 0.0
C1243 C 0.09109 0.36358 0.42977 0.0
C1244 C 0.07509 0.35825 0.40931 0.0
C1245 C 0.0418 0.30208 0.25959 0.0
C1246 C 0.04842 0.32426 0.26643 0.0
C1247 C 0.05419 0.29748 0.24129 0.0
C1248 C 0.07349 0.31492 0.22911 0.0
H1249 H 0.02757 0.28814 0.26933 0.0
H1250 H 0.04928 0.28018 0.23765 0.0
S1251 S 0.09552 0.37577 0.23675 0.0
N1252 N 0.07393 0.36378 0.25732 0.0
N1253 N 0.09696 0.35509 0.22253 0.0
C1254 C 0.07934 0.33713 0.23439 0.0
C1255 C 0.06687 0.34181 0.25317 0.0
C1256 C 0.65508 0.72695 0.2693 0.0
C1257 C 0.67033 0.72439 0.28493 0.0
C1258 C 0.66258 0.74386 0.25046 0.0
C1259 C 0.68565 0.75907 0.24647 0.0
H1260 H 0.63709 0.71612 0.27207 0.0
H1261 H 0.65013 0.74551 0.23945 0.0
S1262 S 0.73266 0.75886 0.28083 0.0
N1263 N 0.70974 0.73769 0.29395 0.0
N1264 N 0.72384 0.76983 0.25858 0.0
C1265 C 0.70119 0.75609 0.26091 0.0
C1266 C 0.69353 0.73868 0.28014 0.0
C1267 C 0.26978 0.93968 0.26002 0.0
C1268 C 0.27124 0.95884 0.27153 0.0
C1269 C 0.25325 0.92699 0.24151 0.0
C1270 C 0.23744 0.93288 0.23382 0.0
H1271 H 0.28125 0.93414 0.2657 0.0
H1272 H 0.25252 0.91212 0.23355 0.0
S1273 S 0.23437 0.98194 0.25723 0.0
N1274 N 0.25597 0.98365 0.27306 0.0
N1275 N 0.22459 0.95945 0.23844 0.0
C1276 C 0.23914 0.95242 0.24439 0.0
C1277 C 0.2561 0.96547 0.26323 0.0
C1278 C 0.69335 0.95107 0.27603 0.0
C1279 C 0.67045 0.94455 0.27816 0.0
C1280 C 0.70081 0.942 0.25639 0.0
C1281 C 0.68559 0.92636 0.23827 0.0
H1282 H 0.70525 0.96203 0.29063 0.0
H1283 H 0.71819 0.94607 0.25648 0.0
S1284 S 0.62502 0.90751 0.23227 0.0
N1285 N 0.63342 0.92411 0.25824 0.0
N1286 N 0.64752 0.90737 0.22123 0.0
C1287 C 0.66317 0.92138 0.23878 0.0
C1288 C 0.65556 0.93039 0.25879 0.0
C1289 C 0.06141 0.72733 0.2553 0.0
C1290 C 0.04284 0.72561 0.26905 0.0
C1291 C 0.07332 0.74436 0.23698 0.0
C1292 C 0.06721 0.76043 0.23177 0.0
H1293 H 0.06716 0.71572 0.25912 0.0
H1294 H 0.08785 0.74534 0.22732 0.0
S1295 S 0.01922 0.7628 0.2614 0.0
N1296 N 0.01813 0.74078 0.27516 0.0
N1297 N 0.04091 0.77312 0.24091 0.0
C1298 C 0.04812 0.7584 0.24447 0.0
C1299 C 0.03585 0.74093 0.26311 0.0
C1300 C 0.27213 0.31209 0.2622 0.0
C1301 C 0.26808 0.31334 0.28909 0.0
C1302 C 0.25466 0.30506 0.24384 0.0
C1303 C 0.23272 0.2991 0.25193 0.0
H1304 H 0.2891 0.31795 0.25518 0.0
H1305 H 0.25866 0.30569 0.22312 0.0
S1306 S 0.21308 0.29613 0.32067 0.0
N1307 N 0.24036 0.30581 0.32321 0.0
N1308 N 0.20748 0.29207 0.28898 0.0
C1309 C 0.22827 0.29861 0.27901 0.0
C1310 C 0.246 0.30592 0.29753 0.0
C1311 C 0.29523 0.36481 0.42074 0.0
C1312 C 0.29031 0.34309 0.41388 0.0
C1313 C 0.28163 0.36814 0.4387 0.0
C1314 C 0.26268 0.34987 0.45039 0.0
H1315 H 0.30919 0.37933 0.41149 0.0
H1316 H 0.28543 0.38507 0.44263 0.0
S1317 S 0.24441 0.28987 0.44206 0.0
N1318 N 0.26642 0.30316 0.42231 0.0
N1319 N 0.24109 0.30951 0.45609 0.0
C1320 C 0.25832 0.32817 0.44481 0.0
C1321 C 0.27207 0.32476 0.42655 0.0
C1322 C 0.63165 0.92001 0.42657 0.0
C1323 C 0.65209 0.93111 0.41241 0.0
C1324 C 0.6279 0.90412 0.44584 0.0
C1325 C 0.6445 0.89884 0.45178 0.0
H1326 H 0.61833 0.9235 0.42269 0.0
H1327 H 0.61192 0.89596 0.45625 0.0
S1328 S 0.70067 0.92256 0.42008 0.0
N1329 N 0.68909 0.93541 0.40561 0.0
N1330 N 0.68186 0.9054 0.44165 0.0
C1331 C 0.665 0.90977 0.43785 0.0
C1332 C 0.66884 0.92593 0.41821 0.0
C1333 C 0.0783 0.71469 0.40605 0.0
C1334 C 0.06075 0.71934 0.4042 0.0
C1335 C 0.09454 0.7245 0.42592 0.0
C1336 C 0.09344 0.73898 0.44454 0.0
H1337 H 0.08024 0.70455 0.3912 0.0
H1338 H 0.1087 0.72184 0.42579 0.0
S1339 S 0.04851 0.75298 0.45105 0.0
N1340 N 0.04164 0.73691 0.42468 0.0
N1341 N 0.07191 0.75502 0.46203 0.0
C1342 C 0.07496 0.74218 0.44411 0.0
C1343 C 0.05866 0.73244 0.4239 0.0
C1344 C 0.33786 0.0679 0.75655 0.0
C1345 C 0.32128 0.04598 0.74944 0.0
C1346 C 0.33338 0.08014 0.7751 0.0
C1347 C 0.31211 0.07099 0.78724 0.0
H1348 H 0.35442 0.07587 0.7475 0.0
H1349 H 0.34654 0.0971 0.77955 0.0
S1350 S 0.26325 0.01386 0.77692 0.0
N1351 N 0.28292 0.0153 0.75694 0.0
N1352 N 0.27463 0.03837 0.79191 0.0
C1353 C 0.2955 0.04896 0.78077 0.0
C1354 C 0.30006 0.03643 0.7619 0.0
C1355 C 0.94919 0.25914 0.73979 0.0
C1356 C 0.93514 0.26574 0.72779 0.0
C1357 C 0.94148 0.24402 0.76097 0.0
C1358 C 0.91956 0.23522 0.7711 0.0
H1359 H 0.9663 0.26571 0.73285 0.0
H1360 H 0.95281 0.23943 0.76971 0.0
S1361 S 0.87554 0.24582 0.74623 0.0
N1362 N 0.89771 0.26129 0.72741 0.0
N1363 N 0.88354 0.2331 0.76697 0.0
C1364 C 0.90525 0.24134 0.75914 0.0
C1365 C 0.91295 0.25653 0.73757 0.0
C1366 C 0.73937 0.65881 0.74761 0.0
C1367 C 0.73259 0.67265 0.73566 0.0
C1368 C 0.75514 0.66674 0.76779 0.0
C1369 C 0.76488 0.68887 0.77693 0.0
H1370 H 0.73253 0.64162 0.74133 0.0
H1371 H 0.76001 0.65549 0.77605 0.0
S1372 S 0.75286 0.732 0.753 0.0
N1373 N 0.73681 0.70972 0.73485 0.0
N1374 N 0.76655 0.72453 0.77306 0.0
C1375 C 0.75833 0.70297 0.76539 0.0
C1376 C 0.74212 0.69487 0.74477 0.0
C1377 C 0.70545 0.62721 0.59325 0.0
C1378 C 0.71655 0.64836 0.60551 0.0
C1379 C 0.71635 0.6214 0.57419 0.0
C1380 C 0.73867 0.63658 0.56661 0.0
H1381 H 0.68825 0.61493 0.59851 0.0
H1382 H 0.70723 0.60495 0.56525 0.0
S1383 S 0.77552 0.69378 0.59306 0.0
N1384 N 0.75133 0.68444 0.60876 0.0
N1385 N 0.77178 0.67334 0.57315 0.0
C1386 C 0.74998 0.65776 0.57862 0.0
C1387 C 0.73893 0.6637 0.59802 0.0
C1388 C 0.35985 0.07444 0.61145 0.0
C1389 C 0.33713 0.05787 0.61553 0.0
C1390 C 0.36596 0.09123 0.59241 0.0
C1391 C 0.34953 0.09183 0.57685 0.0
H1392 H 0.37281 0.07516 0.62397 0.0
H1393 H 0.38342 0.10447 0.59084 0.0
S1394 S 0.28844 0.04996 0.5765 0.0
N1395 N 0.29866 0.0415 0.60005 0.0
N1396 N 0.3102 0.07283 0.5643 0.0
C1397 C 0.32708 0.0744 0.57941 0.0
C1398 C 0.32086 0.05747 0.59875 0.0
C1399 C 0.93051 0.26632 0.58669 0.0
C1400 C 0.9371 0.28831 0.59444 0.0
C1401 C 0.91448 0.25535 0.56704 0.0
C1402 C 0.9044 0.26592 0.55431 0.0
H1403 H 0.9374 0.25725 0.59626 0.0
H1404 H 0.90944 0.23818 0.56236 0.0
S1405 S 0.91716 0.32406 0.56543 0.0
N1406 N 0.93323 0.32077 0.58658 0.0
N1407 N 0.90318 0.30007 0.54946 0.0
C1408 C 0.91131 0.28813 0.56119 0.0
C1409 C 0.92767 0.29935 0.58125 0.0
C1410 C 0.33876 0.25541 0.63043 0.0
C1411 C 0.33828 0.27512 0.62614 0.0
C1412 C 0.34617 0.24647 0.61088 0.0
C1413 C 0.353 0.25662 0.58604 0.0
H1414 H 0.33286 0.24652 0.64889 0.0
H1415 H 0.34577 0.23096 0.61494 0.0
S1416 S 0.35622 0.30931 0.56545 0.0
N1417 N 0.34668 0.30548 0.59601 0.0
N1418 N 0.36005 0.28816 0.55867 0.0
C1419 C 0.35372 0.27697 0.58187 0.0
C1420 C 0.34644 0.28633 0.60207 0.0
C1421 C 0.72951 0.06803 0.5861 0.0
C1422 C 0.71036 0.06505 0.59971 0.0
C1423 C 0.74122 0.08581 0.56864 0.0
C1424 C 0.73427 0.10133 0.56411 0.0
H1425 H 0.73588 0.05689 0.5894 0.0
H1426 H 0.75616 0.08771 0.55898 0.0
S1427 S 0.68451 0.10041 0.59351 0.0
N1428 N 0.68423 0.07849 0.60638 0.0
N1429 N 0.70657 0.11216 0.5736 0.0
C1430 C 0.71464 0.09808 0.57665 0.0
C1431 C 0.7026 0.07988 0.59447 0.0
C1432 C 0.92395 0.66915 0.59924 0.0
C1433 C 0.93147 0.65526 0.60941 0.0
C1434 C 0.90783 0.66177 0.57936 0.0
C1435 C 0.8984 0.64013 0.56868 0.0
H1436 H 0.9304 0.68593 0.6068 0.0
H1437 H 0.90239 0.67302 0.57265 0.0
S1438 S 0.91272 0.59729 0.58723 0.0
N1439 N 0.92848 0.6188 0.60655 0.0
N1440 N 0.89822 0.60504 0.56898 0.0
C1441 C 0.90585 0.62607 0.57831 0.0
C1442 C 0.92238 0.63361 0.59864 0.0
C1443 C 0.92558 0.66324 0.74863 0.0
C1444 C 0.94803 0.67874 0.74152 0.0
C1445 C 0.9141 0.66849 0.76754 0.0
C1446 C 0.92454 0.68947 0.78012 0.0
H1447 H 0.91664 0.64694 0.73933 0.0
H1448 H 0.89672 0.65614 0.77196 0.0
S1449 S 0.98343 0.7356 0.76991 0.0
N1450 N 0.98054 0.71578 0.74941 0.0
N1451 N 0.95891 0.7255 0.78509 0.0
C1452 C 0.94707 0.70502 0.77359 0.0
C1453 C 0.95882 0.69968 0.75432 0.0
C1454 C 0.29395 0.25538 0.76489 0.0
C1455 C 0.31511 0.26875 0.75275 0.0
C1456 C 0.29028 0.23851 0.78277 0.0
C1457 C 0.30768 0.23452 0.78929 0.0
H1458 H 0.28 0.25773 0.76032 0.0
H1459 H 0.27374 0.22855 0.79161 0.0
S1460 S 0.36604 0.26443 0.7628 0.0
N1461 N 0.35371 0.27669 0.74867 0.0
N1462 N 0.34663 0.24484 0.78188 0.0
C1463 C 0.32891 0.24778 0.77743 0.0
C1464 C 0.33267 0.26493 0.75928 0.0
C1465 C 0.73699 0.05025 0.74961 0.0
C1466 C 0.74087 0.06278 0.7265 0.0
C1467 C 0.75252 0.05857 0.77028 0.0
C1468 C 0.77262 0.07933 0.76808 0.0
H1469 H 0.72141 0.03446 0.75222 0.0
H1470 H 0.74862 0.04899 0.78827 0.0
S1471 S 0.79146 0.11765 0.71097 0.0
N1472 N 0.7667 0.09643 0.70223 0.0
N1473 N 0.79611 0.11167 0.74076 0.0
C1474 C 0.77713 0.09148 0.74467 0.0
C1475 C 0.76118 0.08329 0.72393 0.0
C1476 C 0.04931 0.30664 0.05392 0.0
C1477 C 0.05873 0.32777 0.04177 0.0
C1478 C 0.06252 0.30075 0.06872 0.0
C1479 C 0.08564 0.31582 0.07217 0.0
H1480 H 0.03142 0.29473 0.05266 0.0
H1481 H 0.05439 0.28463 0.07846 0.0
S1482 S 0.1191 0.37225 0.04243 0.0
N1483 N 0.0931 0.36313 0.03261 0.0
N1484 N 0.11786 0.35199 0.06054 0.0
C1485 C 0.09552 0.33657 0.0592 0.0
C1486 C 0.0821 0.34254 0.04393 0.0
C1487 C 0.67733 0.73055 0.05623 0.0
C1488 C 0.6554 0.72247 0.04659 0.0
C1489 C 0.68742 0.74887 0.07345 0.0
C1490 C 0.6759 0.75967 0.08173 0.0
H1491 H 0.68658 0.7223 0.05107 0.0
H1492 H 0.70403 0.75417 0.08099 0.0
S1493 S 0.61957 0.74722 0.05994 0.0
N1494 N 0.62344 0.72827 0.04498 0.0
N1495 N 0.64251 0.7626 0.07734 0.0
C1496 C 0.65449 0.75251 0.0714 0.0
C1497 C 0.64422 0.73395 0.05383 0.0
C1498 C 0.27316 0.9449 0.04955 0.0
C1499 C 0.28354 0.93274 0.04179 0.0
C1500 C 0.25398 0.93532 0.0657 0.0
C1501 C 0.24456 0.91328 0.07484 0.0
H1502 H 0.27998 0.96209 0.04335 0.0
H1503 H 0.24674 0.94536 0.07152 0.0
S1504 S 0.26398 0.87361 0.05902 0.0
N1505 N 0.28206 0.89693 0.04367 0.0
N1506 N 0.24596 0.87903 0.07397 0.0
C1507 C 0.25433 0.90072 0.06683 0.0
C1508 C 0.27381 0.9104 0.0503 0.0
C1509 C 0.34166 0.06195 0.96566 0.0
C1510 C 0.3248 0.04049 0.9737 0.0
C1511 C 0.33623 0.07616 0.95245 0.0
C1512 C 0.31371 0.06957 0.94711 0.0
H1513 H 0.35928 0.06748 0.96852 0.0
H1514 H 0.34988 0.09216 0.94562 0.0
S1515 S 0.26315 0.01621 0.96739 0.0
N1516 N 0.28459 0.01394 0.97738 0.0
N1517 N 0.27431 0.04103 0.95331 0.0
C1518 C 0.29661 0.04857 0.95623 0.0
C1519 C 0.30217 0.03396 0.96939 0.0
C1520 C 0.93037 0.26588 0.98108 0.0
C1521 C 0.95103 0.28394 0.97248 0.0
C1522 C 0.91835 0.24672 0.96553 0.0
C1523 C 0.92626 0.24508 0.94048 0.0
H1524 H 0.92334 0.26663 -8e-05 0.0
H1525 H 0.90252 0.23321 0.97308 0.0
S1526 S 0.97939 0.2883 0.90874 0.0
N1527 N 0.97919 0.2991 0.93766 0.0
N1528 N 0.95611 0.26351 0.90777 0.0
C1529 C 0.94714 0.26298 0.93182 0.0
C1530 C 0.95962 0.28231 0.94796 0.0
C1531 C 0.71922 0.68889 0.9386 0.0
C1532 C 0.71497 0.68057 0.96443 0.0
C1533 C 0.73954 0.69477 0.92577 0.0
C1534 C 0.75651 0.69287 0.93843 0.0
H1535 H 0.70648 0.69025 0.92789 0.0
H1536 H 0.74166 0.70023 0.90552 0.0
S1537 S 0.75481 0.67484 0.00737 0.0
N1538 N 0.72993 0.67228 0.00294 0.0
N1539 N 0.76853 0.6842 0.97926 0.0
C1540 C 0.75284 0.68551 0.96472 0.0
C1541 C 0.73198 0.67915 0.9776 0.0
C1542 C 0.91963 0.64441 0.95604 0.0
C1543 C 0.93996 0.65835 0.96912 0.0
C1544 C 0.90919 0.65339 0.94125 0.0
C1545 C 0.91851 0.67667 0.93914 0.0
H1546 H 0.9118 0.62636 0.95688 0.0
H1547 H 0.89367 0.64195 0.93128 0.0
S1548 S 0.97102 0.72051 0.97046 0.0
N1549 N 0.96895 0.69668 0.97935 0.0
N1550 N 0.9489 0.71355 0.95189 0.0
C1551 C 0.93881 0.69087 0.95213 0.0
C1552 C 0.9496 0.68171 0.96708 0.0
C1553 C 0.3142 0.27683 0.94225 0.0
C1554 C 0.32295 0.28181 0.96782 0.0
C1555 C 0.30836 0.25639 0.93029 0.0
C1556 C 0.31076 0.24004 0.94362 0.0
H1557 H 0.3125 0.28909 0.93102 0.0
H1558 H 0.3026 0.25369 0.91016 0.0
S1559 S 0.33005 0.2438 0.01228 0.0
N1560 N 0.33217 0.26823 0.00687 0.0
N1561 N 0.32036 0.22937 0.9848 0.0
C1562 C 0.31853 0.24444 0.96968 0.0
C1563 C 0.32484 0.26543 0.98168 0.0
C1564 C 0.71593 0.06873 0.949 0.0
C1565 C 0.71203 0.05 0.96379 0.0
C1566 C 0.73564 0.08097 0.93412 0.0
C1567 C 0.7524 0.07515 0.93348 0.0
H1568 H 0.70366 0.07404 0.94885 0.0
H1569 H 0.73781 0.09524 0.92306 0.0
S1570 S 0.75074 0.0278 0.96893 0.0
N1571 N 0.72666 0.02614 0.97676 0.0
N1572 N 0.76395 0.04952 0.94907 0.0
C1573 C 0.74869 0.05633 0.94789 0.0
C1574 C 0.72848 0.04371 0.96299 0.0
C1575 C 0.6636 0.9264 0.05288 0.0
C1576 C 0.67826 0.94955 0.04936 0.0
C1577 C 0.66969 0.91375 0.06844 0.0
C1578 C 0.69077 0.9237 0.08083 0.0
H1579 H 0.64696 0.91807 0.04431 0.0
H1580 H 0.65767 0.89609 0.07113 0.0
S1581 S 0.7359 0.98334 0.07657 0.0
N1582 N 0.71533 0.98167 0.05854 0.0
N1583 N 0.72668 0.9578 0.08773 0.0
C1584 C 0.70594 0.9466 0.07666 0.0
C1585 C 0.6997 0.95955 0.06097 0.0
C1586 C 0.06422 0.73471 0.03796 0.0
C1587 C 0.0432 0.71831 0.0482 0.0
C1588 C 0.07824 0.75436 0.05211 0.0
C1589 C 0.07181 0.75795 0.07707 0.0
H1590 H 0.0699 0.73234 0.01896 0.0
H1591 H 0.09441 0.76656 0.0438 0.0
S1592 S 0.01873 0.72054 0.11272 0.0
N1593 N 0.01666 0.70734 0.08486 0.0
N1594 N 0.04332 0.74406 0.11139 0.0
C1595 C 0.05089 0.74188 0.08744 0.0
C1596 C 0.03648 0.7221 0.073 0.0
C1597 C 0.27314 0.32067 0.05471 0.0
C1598 C 0.28204 0.34305 0.04659 0.0
C1599 C 0.25489 0.31045 0.07223 0.0
C1600 C 0.24503 0.3223 0.08236 0.0
H1601 H 0.2806 0.31105 0.04797 0.0
H1602 H 0.24884 0.29339 0.07842 0.0
S1603 S 0.26002 0.38018 0.06547 0.0
N1604 N 0.27817 0.37604 0.04871 0.0
N1605 N 0.2439 0.35669 0.08162 0.0
C1606 C 0.25306 0.34429 0.07373 0.0
C1607 C 0.27155 0.3547 0.05583 0.0
C1608 C 0.69781 0.63096 0.39093 0.0
C1609 C 0.70595 0.65382 0.38625 0.0
C1610 C 0.71129 0.62384 0.40294 0.0
C1611 C 0.73336 0.63931 0.41098 0.0
H1612 H 0.68089 0.61844 0.38517 0.0
H1613 H 0.70441 0.60606 0.40583 0.0
S1614 S 0.76193 0.70121 0.4052 0.0
N1615 N 0.73715 0.69194 0.39146 0.0
N1616 N 0.7622 0.67868 0.41481 0.0
C1617 C 0.74157 0.66225 0.40674 0.0
C1618 C 0.72795 0.66947 0.39418 0.0
C1619 C 0.30978 0.06289 0.39197 0.0
C1620 C 0.32288 0.05369 0.38368 0.0
C1621 C 0.31866 0.08169 0.40835 0.0
C1622 C 0.34102 0.09212 0.41708 0.0
H1623 H 0.29236 0.05539 0.38607 0.0
H1624 H 0.30787 0.08806 0.41433 0.0
S1625 S 0.38272 0.07518 0.40097 0.0
N1626 N 0.35975 0.05694 0.38521 0.0
N1627 N 0.37626 0.09224 0.41621 0.0
C1628 C 0.35453 0.0835 0.40863 0.0
C1629 C 0.3455 0.06429 0.39191 0.0
C1630 C 0.94461 0.28338 0.39135 0.0
C1631 C 0.94782 0.2744 0.36806 0.0
C1632 C 0.92403 0.27234 0.40491 0.0
C1633 C 0.90589 0.2522 0.3953 0.0
H1634 H 0.95835 0.29858 0.39967 0.0
H1635 H 0.92263 0.27923 0.4235 0.0
S1636 S 0.90493 0.22401 0.3327 0.0
N1637 N 0.9309 0.24553 0.33462 0.0
N1638 N 0.89175 0.2253 0.3593 0.0
C1639 C 0.90858 0.24383 0.37113 0.0
C1640 C 0.92968 0.2548 0.35771 0.0
C1641 C 0.97843 0.37699 0.29294 0.0
C1642 C -0.00118 0.38465 0.30639 0.0
C1643 C 0.97443 0.39169 0.27855 0.0
C1644 C 0.99072 0.41454 0.27699 0.0
H1645 H 0.96574 0.35935 0.29267 0.0
H1646 H 0.95893 0.38495 0.26756 0.0
S1647 S 0.04554 0.44368 0.31126 0.0
N1648 N 0.03457 0.41708 0.31925 0.0
N1649 N 0.02692 0.44469 0.29209 0.0
C1650 C 0.01059 0.4227 0.29153 0.0
C1651 C 0.01465 0.40776 0.30633 0.0
C1652 C 0.58174 0.60265 0.29615 0.0
C1653 C 0.60393 0.61212 0.3054 0.0
C1654 C 0.57253 0.58435 0.27898 0.0
C1655 C 0.58505 0.57464 0.27041 0.0
H1656 H 0.5714 0.60961 0.30184 0.0
H1657 H 0.55542 0.57775 0.2723 0.0
S1658 S 0.64361 0.59242 0.28905 0.0
N1659 N 0.63804 0.60984 0.30501 0.0
N1660 N 0.62057 0.57543 0.27256 0.0
C1661 C 0.60704 0.5835 0.27983 0.0
C1662 C 0.61652 0.60224 0.29732 0.0
C1663 C 0.3872 0.01847 0.27523 0.0
C1664 C 0.38309 0.00976 0.30088 0.0
C1665 C 0.40583 0.02145 0.26066 0.0
C1666 C 0.42125 0.01612 0.27131 0.0
H1667 H 0.37546 0.02221 0.26589 0.0
H1668 H 0.40771 0.02725 0.24058 0.0
S1669 S 0.4198 0.9959 0.3391 0.0
N1670 N 0.39685 -0.00241 0.33717 0.0
N1671 N 0.43246 0.00406 0.31022 0.0
C1672 C 0.41795 0.0085 0.29748 0.0
C1673 C 0.39874 0.00512 0.31216 0.0
C1674 C 0.58123 0.97924 0.3152 0.0
C1675 C 0.60239 0.98255 0.30809 0.0
C1676 C 0.57013 0.98673 0.29904 0.0
C1677 C 0.57952 -0.00274 0.27482 0.0
H1678 H 0.57314 0.97069 0.33331 0.0
H1679 H 0.55387 0.98391 0.30541 0.0
S1680 S 0.63439 0.00899 0.24697 0.0
N1681 N 0.63253 -0.00292 0.27559 0.0
N1682 N 0.61119 0.01018 0.24444 0.0
C1683 C 0.60086 0.00085 0.26765 0.0
C1684 C 0.61238 0.99367 0.28446 0.0
C1685 C 0.00901 0.60628 0.29833 0.0
C1686 C 0.99284 0.61278 0.30107 0.0
C1687 C 0.00473 0.58772 0.28304 0.0
C1688 C 0.98407 0.57485 0.27014 0.0
H1689 H 0.02544 0.61605 0.30721 0.0
H1690 H 0.01788 0.58365 0.28087 0.0
S1691 S 0.93542 0.58359 0.27256 0.0
N1692 N 0.95473 0.60393 0.29086 0.0
N1693 N 0.94684 0.56903 0.26208 0.0
C1694 C 0.96735 0.58046 0.27366 0.0
C1695 C 0.97171 0.59945 0.28913 0.0
C1696 C 0.39686 0.38248 0.29098 0.0
C1697 C 0.38545 0.39347 0.29942 0.0
C1698 C 0.41604 0.39323 0.27477 0.0
C1699 C 0.42448 0.41534 0.26627 0.0
H1700 H 0.39081 0.3653 0.29662 0.0
H1701 H 0.42404 0.38401 0.2684 0.0
S1702 S 0.40231 0.45236 0.2844 0.0
N1703 N 0.38504 0.42837 0.29905 0.0
N1704 N 0.42107 0.44844 0.26878 0.0
C1705 C 0.41367 0.42674 0.27503 0.0
C1706 C 0.39418 0.41586 0.29155 0.0
C1707 C 0.36247 0.29988 0.40977 0.0
C1708 C 0.35102 0.29218 0.38574 0.0
C1709 C 0.36732 0.28624 0.42518 0.0
C1710 C 0.36133 0.26462 0.41686 0.0
H1711 H 0.36695 0.31626 0.41729 0.0
H1712 H 0.3754 0.29245 0.444 0.0
S1713 S 0.33265 0.23695 0.35497 0.0
N1714 N 0.33474 0.26173 0.35394 0.0
N1715 N 0.34439 0.23632 0.38284 0.0
C1716 C 0.35074 0.25698 0.39252 0.0
C1717 C 0.34545 0.27071 0.37695 0.0
C1718 C 0.72413 0.06122 0.37775 0.0
C1719 C 0.70398 0.04458 0.38949 0.0
C1720 C 0.73797 0.08165 0.39053 0.0
C1721 C 0.73231 0.08584 0.41564 0.0
H1722 H 0.7292 0.05849 0.35855 0.0
H1723 H 0.7534 0.09407 0.38097 0.0
S1724 S 0.68167 0.04795 0.45496 0.0
N1725 N 0.67908 0.03388 0.42767 0.0
N1726 N 0.70544 0.07212 0.45174 0.0
C1727 C 0.7123 0.06945 0.42758 0.0
C1728 C 0.69802 0.04884 0.41447 0.0
C1729 C 0.93702 0.6498 0.38239 0.0
C1730 C 0.95129 0.67324 0.38309 0.0
C1731 C 0.91685 0.63922 0.39686 0.0
C1732 C 0.91044 0.65177 0.41252 0.0
H1733 H 0.94113 0.6396 0.37002 0.0
H1734 H 0.90586 0.62125 0.3951 0.0
S1735 S 0.94324 0.71304 0.42414 0.0
N1736 N 0.95852 0.70833 0.4028 0.0
N1737 N 0.92075 0.68836 0.43011 0.0
C1738 C 0.92504 0.67502 0.41442 0.0
C1739 C 0.94543 0.68579 0.39965 0.0
C1740 C 0.40538 0.00895 0.71611 0.0
C1741 C 0.38231 0.99285 0.71421 0.0
C1742 C 0.42029 0.00414 0.72903 0.0
C1743 C 0.41276 0.98297 0.7402 0.0
H1744 H 0.41188 0.02565 0.70834 0.0
H1745 H 0.43782 0.0172 0.73062 0.0
S1746 S 0.35431 0.93458 0.73953 0.0
N1747 N 0.35287 0.95451 0.72373 0.0
N1748 N 0.38094 0.9456 0.74795 0.0
C1749 C 0.38993 0.96649 0.73768 0.0
C1750 C 0.3747 0.97141 0.72472 0.0
C1751 C 0.00394 0.38976 0.71781 0.0
C1752 C 0.98136 0.37875 0.70943 0.0
C1753 C 0.01263 0.4086 0.73429 0.0
C1754 C -0.001 0.41696 0.74318 0.0
H1755 H 0.015 0.38371 0.71181 0.0
H1756 H 0.02999 0.41641 0.74054 0.0
S1757 S 0.93939 0.39558 0.7258 0.0
N1758 N 0.94593 0.37859 0.71053 0.0
N1759 N 0.9624 0.41389 0.74139 0.0
C1760 C 0.97663 0.40652 0.73457 0.0
C1761 C 0.96778 0.38747 0.71773 0.0
C1762 C 0.60029 0.58573 0.7064 0.0
C1763 C 0.61865 0.60645 0.71387 0.0
C1764 C 0.58011 0.57605 0.72067 0.0
C1765 C 0.57776 0.58644 0.74337 0.0
H1766 H 0.60148 0.57703 0.68929 0.0
H1767 H 0.56628 0.56015 0.71396 0.0
S1768 S 0.62159 0.64064 0.77153 0.0
N1769 N 0.63354 0.63727 0.74503 0.0
N1770 N 0.59594 0.61849 0.77287 0.0
C1771 C 0.59609 0.60728 0.75096 0.0
C1772 C 0.61648 0.6174 0.73599 0.0
C1773 C 0.66318 0.7248 0.64662 0.0
C1774 C 0.66065 0.70582 0.63347 0.0
C1775 C 0.65654 0.73869 0.63484 0.0
C1776 C 0.64747 0.73426 0.60936 0.0
H1777 H 0.67019 0.72887 0.66619 0.0
H1778 H 0.65862 0.75307 0.64574 0.0
S1779 S 0.63905 0.6875 0.56595 0.0
N1780 N 0.64908 0.68358 0.59341 0.0
N1781 N 0.63744 0.71017 0.57089 0.0
C1782 C 0.64506 0.71541 0.59595 0.0
C1783 C 0.65148 0.70108 0.60809 0.0
C1784 C 0.25036 0.93589 0.63886 0.0
C1785 C 0.27364 0.94648 0.64374 0.0
C1786 C 0.23952 0.91699 0.62272 0.0
C1787 C 0.25142 0.90777 0.61083 0.0
H1788 H 0.24038 0.94247 0.64711 0.0
H1789 H 0.22166 0.90968 0.61925 0.0
S1790 S 0.31226 0.92816 0.61795 0.0
N1791 N 0.30808 0.94558 0.63601 0.0
N1792 N 0.28749 0.90998 0.60552 0.0
C1793 C 0.27449 0.91758 0.61613 0.0
C1794 C 0.28564 0.93696 0.63258 0.0
C1795 C 0.05512 0.3224 0.62995 0.0
C1796 C 0.0487 0.33858 0.63276 0.0
C1797 C 0.07452 0.32702 0.61575 0.0
C1798 C 0.08839 0.34807 0.60408 0.0
H1799 H 0.04468 0.30576 0.63798 0.0
H1800 H 0.07854 0.31391 0.61358 0.0
S1801 S 0.07998 0.3967 0.60687 0.0
N1802 N 0.05852 0.37694 0.62367 0.0
N1803 N 0.09494 0.3855 0.597 0.0
C1804 C 0.08271 0.36468 0.60755 0.0
C1805 C 0.06287 0.35996 0.62187 0.0
C1806 C 0.27491 0.33608 0.63542 0.0
C1807 C 0.26312 0.31356 0.64376 0.0
C1808 C 0.26489 0.34456 0.61891 0.0
C1809 C 0.24277 0.33083 0.61001 0.0
H1810 H 0.29219 0.34723 0.64128 0.0
H1811 H 0.27472 0.36183 0.61253 0.0
S1812 S 0.20378 0.27144 0.62777 0.0
N1813 N 0.22742 0.27814 0.64298 0.0
N1814 N 0.20873 0.29425 0.61204 0.0
C1815 C 0.23052 0.30856 0.61877 0.0
C1816 C 0.24065 0.29989 0.63562 0.0
C1817 C 0.64235 0.93586 0.63238 0.0
C1818 C 0.66504 0.95241 0.63624 0.0
C1819 C 0.63649 0.91558 0.61986 0.0
C1820 C 0.6531 0.91118 0.61051 0.0
H1821 H 0.629 0.93862 0.63901 0.0
H1822 H 0.61881 0.90325 0.6175 0.0
S1823 S 0.71498 0.94967 0.61415 0.0
N1824 N 0.70421 0.96329 0.62913 0.0
N1825 N 0.69323 0.92554 0.60487 0.0
C1826 C 0.67587 0.92766 0.61412 0.0
C1827 C 0.68182 0.94817 0.62717 0.0
C1828 C 0.04996 0.70922 0.612 0.0
C1829 C 0.04784 0.71912 0.6352 0.0
C1830 C 0.06968 0.72004 0.59661 0.0
C1831 C 0.08809 0.74073 0.60441 0.0
H1832 H 0.03593 0.69353 0.6051 0.0
H1833 H 0.0704 0.71243 0.57827 0.0
S1834 S 0.09164 0.77265 0.66453 0.0
N1835 N 0.06614 0.75025 0.66579 0.0
N1836 N 0.10343 0.77014 0.63734 0.0
C1837 C 0.08654 0.75026 0.62813 0.0
C1838 C 0.06633 0.73956 0.64343 0.0
C1839 C 0.01768 0.62136 0.72381 0.0
C1840 C -0.00365 0.61338 0.71248 0.0
C1841 C 0.02271 0.6071 0.73772 0.0
C1842 C 0.00655 0.58433 0.74113 0.0
H1843 H 0.03055 0.63888 0.72228 0.0
H1844 H 0.03918 0.61409 0.74655 0.0
S1845 S 0.94871 0.5546 0.71417 0.0
N1846 N 0.9593 0.5808 0.70464 0.0
N1847 N 0.96881 0.5541 0.73096 0.0
C1848 C 0.98538 0.57595 0.7294 0.0
C1849 C 0.98029 0.59043 0.715 0.0
C1850 C 0.36284 0.39768 0.7247 0.0
C1851 C 0.37001 0.3823 0.71988 0.0
C1852 C 0.37712 0.41839 0.73666 0.0
C1853 C 0.39895 0.42431 0.74455 0.0
H1854 H 0.34609 0.39371 0.71911 0.0
H1855 H 0.37103 0.42987 0.7397 0.0
S1856 S 0.42489 0.38891 0.73855 0.0
N1857 N 0.39994 0.37393 0.72483 0.0
N1858 N 0.42643 0.41238 0.74824 0.0
C1859 C 0.40614 0.40886 0.7402 0.0
C1860 C 0.39176 0.38798 0.72763 0.0
C1861 C 0.61346 0.99382 0.72428 0.0
C1862 C 0.62493 0.0169 0.71848 0.0
C1863 C 0.59417 0.98398 0.74028 0.0
C1864 C 0.58575 -0.00313 0.75122 0.0
H1865 H 0.61939 0.98318 0.71643 0.0
H1866 H 0.5859 0.9662 0.74431 0.0
S1867 S 0.60854 0.05761 0.74139 0.0
N1868 N 0.6258 0.0522 0.7246 0.0
N1869 N 0.58949 0.03355 0.75448 0.0
C1870 C 0.59681 0.01985 0.74548 0.0
C1871 C 0.6164 0.0299 0.72916 0.0
loop_
_geom_bond_atom_site_label_1
_geom_bond_atom_site_label_2
_geom_bond_distance
_geom_bond_site_symmetry_2
_ccdc_geom_bond_type
C0 O1 1.306 . S
C0 O3 1.160 . S
O1 C0 1.306 . S
O1 Cd2 2.228 1_556 S
Cd2 O1 2.228 1_554 S
Cd2 O6 2.273 . S
Cd2 O10 2.277 1_554 S
O3 C0 1.160 . S
O3 Cd4 2.203 1_656 S
Cd4 O3 2.203 1_454 S
Cd4 O6 2.411 1_455 S
Cd4 O7 2.333 . S
Cd4 O8 2.352 . S
Cd4 O12 2.277 1_554 S
Cd4 O13 2.356 . S
C5 O10 1.209 1_455 S
C5 O12 1.226 . S
O6 Cd2 2.273 . S
O6 Cd4 2.411 1_655 S
O6 C9 1.334 . S
O7 Cd4 2.333 . S
O7 C9 1.180 1_455 S
O8 Cd4 2.352 . S
O8 C11 1.258 . S
C9 O6 1.334 . S
C9 O7 1.180 1_655 S
O10 Cd2 2.277 1_556 S
O10 C5 1.209 1_655 S
C11 O8 1.258 . S
C11 O13 1.282 . S
O12 Cd4 2.277 1_556 S
O12 C5 1.226 . S
O13 Cd4 2.356 . S
O13 C11 1.282 . S
C14 O15 1.306 . S
C14 O17 1.160 . S
O15 C14 1.306 . S
O15 Cd16 2.228 . S
Cd16 O15 2.228 . S
Cd16 O20 2.273 1_554 S
Cd16 O24 2.277 . S
O17 C14 1.160 . S
O17 Cd18 2.203 . S
Cd18 O17 2.203 . S
Cd18 O20 2.411 1_554 S
Cd18 O21 2.333 1_554 S
Cd18 O22 2.352 1_554 S
Cd18 O26 2.277 . S
Cd18 O27 2.356 1_554 S
C19 O24 1.209 . S
C19 O26 1.226 . S
O20 Cd16 2.273 1_556 S
O20 Cd18 2.411 1_556 S
O20 C23 1.320 . S
O21 Cd18 2.333 1_556 S
O21 C23 1.214 . S
O22 Cd18 2.352 1_556 S
O22 C25 1.258 . S
C23 O20 1.320 . S
C23 O21 1.214 . S
O24 Cd16 2.277 . S
O24 C19 1.209 . S
C25 O22 1.258 . S
C25 O27 1.282 . S
O26 Cd18 2.277 . S
O26 C19 1.226 . S
O27 Cd18 2.356 1_556 S
O27 C25 1.282 . S
C28 O29 1.306 . S
C28 O31 1.160 . S
O29 C28 1.306 . S
O29 Cd30 2.228 . S
Cd30 O29 2.228 . S
Cd30 O34 2.273 1_554 S
Cd30 O38 2.277 . S
O31 C28 1.160 . S
O31 Cd32 2.203 1_565 S
Cd32 O31 2.203 1_545 S
Cd32 O34 2.411 1_544 S
Cd32 O35 2.333 1_554 S
Cd32 O36 2.352 1_554 S
Cd32 O40 2.277 . S
Cd32 O41 2.356 . S
C33 O38 1.209 1_545 S
C33 O40 1.226 . S
O34 Cd30 2.273 1_556 S
O34 Cd32 2.411 1_566 S
O34 C37 1.314 1_565 S
O35 Cd32 2.333 1_556 S
O35 C37 1.228 . S
O36 Cd32 2.352 1_556 S
O36 C39 1.258 . S
C37 O34 1.314 1_545 S
C37 O35 1.228 . S
O38 Cd30 2.277 . S
O38 C33 1.209 1_565 S
C39 O36 1.258 . S
C39 O41 1.282 1_556 S
O40 Cd32 2.277 . S
O40 C33 1.226 . S
O41 Cd32 2.356 . S
O41 C39 1.282 1_554 S
C42 O43 1.306 . S
C42 O45 1.160 . S
O43 C42 1.306 . S
O43 Cd44 2.228 1_556 S
Cd44 O43 2.228 1_554 S
Cd44 O48 2.273 . S
Cd44 O52 2.277 1_554 S
O45 C42 1.160 . S
O45 Cd46 2.203 1_656 S
Cd46 O45 2.203 1_454 S
Cd46 O48 2.411 1_455 S
Cd46 O49 2.333 . S
Cd46 O50 2.352 . S
Cd46 O54 2.277 1_554 S
Cd46 O55 2.356 . S
C47 O52 1.209 1_455 S
C47 O54 1.226 . S
O48 Cd44 2.273 . S
O48 Cd46 2.411 1_655 S
O48 C51 1.320 . S
O49 Cd46 2.333 . S
O49 C51 1.214 1_455 S
O50 Cd46 2.352 . S
O50 C53 1.258 . S
C51 O48 1.320 . S
C51 O49 1.214 1_655 S
O52 Cd44 2.277 1_556 S
O52 C47 1.209 1_655 S
C53 O50 1.258 . S
C53 O55 1.282 . S
O54 Cd46 2.277 1_556 S
O54 C47 1.226 . S
O55 Cd46 2.356 . S
O55 C53 1.282 . S
C56 O57 1.306 . S
C56 O59 1.160 . S
O57 C56 1.306 . S
O57 Cd58 2.228 . S
Cd58 O57 2.228 . S
Cd58 O62 2.273 1_554 S
Cd58 O66 2.277 . S
O59 C56 1.160 . S
O59 Cd60 2.203 . S
Cd60 O59 2.203 . S
Cd60 O62 2.411 1_554 S
Cd60 O63 2.333 1_554 S
Cd60 O64 2.352 1_554 S
Cd60 O68 2.277 . S
Cd60 O69 2.356 1_554 S
C61 O66 1.209 . S
C61 O68 1.226 . S
O62 Cd58 2.273 1_556 S
O62 Cd60 2.411 1_556 S
O62 C65 1.320 . S
O63 Cd60 2.333 1_556 S
O63 C65 1.214 . S
O64 Cd60 2.352 1_556 S
O64 C67 1.258 . S
C65 O62 1.320 . S
C65 O63 1.214 . S
O66 Cd58 2.277 . S
O66 C61 1.209 . S
C67 O64 1.258 . S
C67 O69 1.282 . S
O68 Cd60 2.277 . S
O68 C61 1.226 . S
O69 Cd60 2.356 1_556 S
O69 C67 1.282 . S
C70 O71 1.306 . S
C70 O73 1.160 . S
O71 C70 1.306 . S
O71 Cd72 2.228 1_556 S
Cd72 O71 2.228 1_554 S
Cd72 O76 2.273 . S
Cd72 O80 2.277 1_554 S
O73 C70 1.160 . S
O73 Cd74 2.203 1_546 S
Cd74 O73 2.203 1_564 S
Cd74 O76 2.411 1_565 S
Cd74 O77 2.333 . S
Cd74 O78 2.352 . S
Cd74 O82 2.277 1_554 S
Cd74 O83 2.356 . S
C75 O80 1.209 1_565 S
C75 O82 1.226 . S
O76 Cd72 2.273 . S
O76 Cd74 2.411 1_545 S
O76 C79 1.320 . S
O77 Cd74 2.333 . S
O77 C79 1.214 1_565 S
O78 Cd74 2.352 . S
O78 C81 1.258 . S
C79 O76 1.320 . S
C79 O77 1.214 1_545 S
O80 Cd72 2.277 1_556 S
O80 C75 1.209 1_545 S
C81 O78 1.258 . S
C81 O83 1.282 . S
O82 Cd74 2.277 1_556 S
O82 C75 1.226 . S
O83 Cd74 2.356 . S
O83 C81 1.282 . S
C84 O85 1.306 . S
C84 O87 1.160 . S
O85 C84 1.306 . S
O85 Cd86 2.228 . S
Cd86 O85 2.228 . S
Cd86 O90 2.273 . S
Cd86 O94 2.277 . S
O87 C84 1.160 . S
O87 Cd88 2.203 . S
Cd88 O87 2.203 . S
Cd88 O90 2.411 . S
Cd88 O91 2.333 . S
Cd88 O92 2.352 . S
Cd88 O96 2.277 . S
Cd88 O97 2.356 . S
C89 O94 1.209 . S
C89 O96 1.226 . S
O90 Cd86 2.273 . S
O90 Cd88 2.411 . S
O90 C93 1.320 . S
O91 Cd88 2.333 . S
O91 C93 1.214 . S
O92 Cd88 2.352 . S
O92 C95 1.258 . S
C93 O90 1.320 . S
C93 O91 1.214 . S
O94 Cd86 2.277 . S
O94 C89 1.209 . S
C95 O92 1.258 . S
C95 O97 1.282 . S
O96 Cd88 2.277 . S
O96 C89 1.226 . S
O97 Cd88 2.356 . S
O97 C95 1.282 . S
C98 O99 1.306 . S
C98 O101 1.160 . S
O99 C98 1.306 . S
O99 Cd100 2.228 1_545 S
Cd100 O99 2.228 1_565 S
Cd100 O104 2.273 . S
Cd100 O108 2.277 . S
O101 C98 1.160 . S
O101 Cd102 2.203 1_545 S
Cd102 O101 2.203 1_565 S
Cd102 O104 2.411 . S
Cd102 O105 2.333 . S
Cd102 O106 2.352 1_565 S
Cd102 O110 2.277 . S
Cd102 O111 2.356 . S
C103 O108 1.209 . S
C103 O110 1.226 . S
O104 Cd100 2.273 . S
O104 Cd102 2.411 . S
O104 C107 1.320 . S
O105 Cd102 2.333 . S
O105 C107 1.214 . S
O106 Cd102 2.352 1_545 S
O106 C109 1.258 1_545 S
C107 O104 1.320 . S
C107 O105 1.214 . S
O108 Cd100 2.277 . S
O108 C103 1.209 . S
C109 O106 1.258 1_565 S
C109 O111 1.282 . S
O110 Cd102 2.277 . S
O110 C103 1.226 . S
O111 Cd102 2.356 . S
O111 C109 1.282 . S
C112 O113 1.306 . S
C112 O115 1.160 . S
O113 C112 1.306 . S
O113 Cd114 2.228 1_655 S
Cd114 O113 2.228 1_455 S
Cd114 O118 2.273 . S
Cd114 O122 2.277 . S
O115 C112 1.160 . S
O115 Cd116 2.203 1_655 S
Cd116 O115 2.203 1_455 S
Cd116 O118 2.411 . S
Cd116 O119 2.333 . S
Cd116 O120 2.352 . S
Cd116 O124 2.277 . S
Cd116 O125 2.356 . S
C117 O122 1.209 . S
C117 O124 1.226 . S
O118 Cd114 2.273 . S
O118 Cd116 2.411 . S
O118 C121 1.320 . S
O119 Cd116 2.333 . S
O119 C121 1.214 . S
O120 Cd116 2.352 . S
O120 C123 1.258 . S
C121 O118 1.320 . S
C121 O119 1.214 . S
O122 Cd114 2.277 . S
O122 C117 1.209 . S
C123 O120 1.258 . S
C123 O125 1.282 . S
O124 Cd116 2.277 . S
O124 C117 1.226 . S
O125 Cd116 2.356 . S
O125 C123 1.282 . S
C126 O127 1.306 . S
C126 O129 1.164 . S
O127 C126 1.306 . S
O127 Cd128 2.228 . S
Cd128 O127 2.228 . S
Cd128 O132 2.273 . S
Cd128 O136 2.277 . S
O129 C126 1.164 . S
O129 Cd130 2.236 . S
Cd130 O129 2.236 . S
Cd130 O132 2.411 . S
Cd130 O133 2.333 . S
Cd130 O134 2.352 1_565 S
Cd130 O138 2.277 . S
Cd130 O139 2.356 1_565 S
C131 O136 1.209 . S
C131 O138 1.226 . S
O132 Cd128 2.273 . S
O132 Cd130 2.411 . S
O132 C135 1.320 . S
O133 Cd130 2.333 . S
O133 C135 1.214 . S
O134 Cd130 2.352 1_545 S
O134 C137 1.258 . S
C135 O132 1.320 . S
C135 O133 1.214 . S
O136 Cd128 2.277 . S
O136 C131 1.209 . S
C137 O134 1.258 . S
C137 O139 1.282 . S
O138 Cd130 2.277 . S
O138 C131 1.226 . S
O139 Cd130 2.356 1_545 S
O139 C137 1.282 . S
C140 O141 1.306 . S
C140 O143 1.160 . S
O141 C140 1.306 . S
O141 Cd142 2.228 1_655 S
Cd142 O141 2.228 1_455 S
Cd142 O146 2.273 . S
Cd142 O150 2.277 . S
O143 C140 1.160 . S
O143 Cd144 2.203 1_655 S
Cd144 O143 2.203 1_455 S
Cd144 O146 2.411 . S
Cd144 O147 2.333 . S
Cd144 O148 2.352 . S
Cd144 O152 2.277 . S
Cd144 O153 2.356 . S
C145 O150 1.209 . S
C145 O152 1.226 . S
O146 Cd142 2.273 . S
O146 Cd144 2.411 . S
O146 C149 1.320 . S
O147 Cd144 2.333 . S
O147 C149 1.214 . S
O148 Cd144 2.352 . S
O148 C151 1.259 . S
C149 O146 1.320 . S
C149 O147 1.214 . S
O150 Cd142 2.277 . S
O150 C145 1.209 . S
C151 O148 1.259 . S
C151 O153 1.282 . S
O152 Cd144 2.277 . S
O152 C145 1.226 . S
O153 Cd144 2.356 . S
O153 C151 1.282 . S
C154 O155 1.306 . S
C154 O157 1.160 . S
O155 C154 1.306 . S
O155 Cd156 2.228 . S
Cd156 O155 2.228 . S
Cd156 O160 2.273 . S
Cd156 O164 2.277 . S
O157 C154 1.160 . S
O157 Cd158 2.203 . S
Cd158 O157 2.203 . S
Cd158 O160 2.411 . S
Cd158 O161 2.333 . S
Cd158 O162 2.352 . S
Cd158 O166 2.277 . S
Cd158 O167 2.356 . S
C159 O164 1.209 . S
C159 O166 1.226 . S
O160 Cd156 2.273 . S
O160 Cd158 2.411 . S
O160 C163 1.320 . S
O161 Cd158 2.333 . S
O161 C163 1.214 . S
O162 Cd158 2.352 . S
O162 C165 1.258 . S
C163 O160 1.320 . S
C163 O161 1.214 . S
O164 Cd156 2.277 . S
O164 C159 1.209 . S
C165 O162 1.258 . S
C165 O167 1.282 . S
O166 Cd158 2.277 . S
O166 C159 1.226 . S
O167 Cd158 2.356 . S
O167 C165 1.282 . S
C168 O169 1.306 . S
C168 O171 1.160 . S
O169 C168 1.306 . S
O169 Cd170 2.228 1_565 S
Cd170 O169 2.228 1_545 S
Cd170 O174 2.273 . S
Cd170 O178 2.277 . S
O171 C168 1.160 . S
O171 Cd172 2.203 1_565 S
Cd172 O171 2.203 1_545 S
Cd172 O174 2.411 . S
Cd172 O175 2.333 . S
Cd172 O176 2.340 1_545 S
Cd172 O180 2.277 . S
Cd172 O181 2.356 . S
C173 O178 1.209 . S
C173 O180 1.226 . S
O174 Cd170 2.273 . S
O174 Cd172 2.411 . S
O174 C177 1.320 . S
O175 Cd172 2.333 . S
O175 C177 1.214 . S
O176 Cd172 2.340 1_565 S
O176 C179 1.258 1_565 S
C177 O174 1.320 . S
C177 O175 1.214 . S
O178 Cd170 2.277 . S
O178 C173 1.209 . S
C179 O176 1.258 1_545 S
C179 O181 1.282 . S
O180 Cd172 2.277 . S
O180 C173 1.226 . S
O181 Cd172 2.356 . S
O181 C179 1.282 . S
C182 O183 1.306 . S
C182 O185 1.160 1_655 S
O183 C182 1.306 . S
O183 Cd184 2.228 . S
Cd184 O183 2.228 . S
Cd184 O188 2.273 . S
Cd184 O192 2.277 . S
O185 C182 1.160 1_455 S
O185 Cd186 2.203 1_455 S
Cd186 O185 2.203 1_655 S
Cd186 O188 2.411 . S
Cd186 O189 2.333 . S
Cd186 O190 2.352 1_655 S
Cd186 O194 2.277 . S
Cd186 O195 2.356 1_655 S
C187 O192 1.209 . S
C187 O194 1.226 . S
O188 Cd184 2.273 . S
O188 Cd186 2.411 . S
O188 C191 1.320 . S
O189 Cd186 2.333 . S
O189 C191 1.214 . S
O190 Cd186 2.352 1_455 S
O190 C193 1.258 . S
C191 O188 1.320 . S
C191 O189 1.214 . S
O192 Cd184 2.277 . S
O192 C187 1.209 . S
C193 O190 1.258 . S
C193 O195 1.282 . S
O194 Cd186 2.277 . S
O194 C187 1.226 . S
O195 Cd186 2.356 1_455 S
O195 C193 1.282 . S
C196 O197 1.306 . S
C196 O199 1.160 . S
O197 C196 1.306 . S
O197 Cd198 2.228 . S
Cd198 O197 2.228 . S
Cd198 O202 2.273 . S
Cd198 O206 2.277 . S
O199 C196 1.160 . S
O199 Cd200 2.203 . S
Cd200 O199 2.203 . S
Cd200 O202 2.411 . S
Cd200 O203 2.333 . S
Cd200 O204 2.352 . S
Cd200 O208 2.277 . S
Cd200 O209 2.356 . S
C201 O206 1.209 . S
C201 O208 1.226 . S
O202 Cd198 2.273 . S
O202 Cd200 2.411 . S
O202 C205 1.320 . S
O203 Cd200 2.333 . S
O203 C205 1.214 . S
O204 Cd200 2.352 . S
O204 C207 1.258 . S
C205 O202 1.320 . S
C205 O203 1.214 . S
O206 Cd198 2.277 . S
O206 C201 1.209 . S
C207 O204 1.258 . S
C207 O209 1.282 . S
O208 Cd200 2.277 . S
O208 C201 1.226 . S
O209 Cd200 2.356 . S
O209 C207 1.282 . S
C210 O211 1.306 . S
C210 O213 1.160 . S
O211 C210 1.306 . S
O211 Cd212 2.228 . S
Cd212 O211 2.228 . S
Cd212 O216 2.273 . S
Cd212 O220 2.277 . S
O213 C210 1.160 . S
O213 Cd214 2.203 . S
Cd214 O213 2.203 . S
Cd214 O216 2.411 . S
Cd214 O217 2.333 . S
Cd214 O218 2.352 . S
Cd214 O222 2.277 . S
Cd214 O223 2.356 . S
C215 O220 1.209 . S
C215 O222 1.226 . S
O216 Cd212 2.273 . S
O216 Cd214 2.411 . S
O216 C219 1.320 . S
O217 Cd214 2.333 . S
O217 C219 1.214 . S
O218 Cd214 2.352 . S
O218 C221 1.258 . S
C219 O216 1.320 . S
C219 O217 1.214 . S
O220 Cd212 2.277 . S
O220 C215 1.209 . S
C221 O218 1.258 . S
C221 O223 1.282 . S
O222 Cd214 2.277 . S
O222 C215 1.226 . S
O223 Cd214 2.356 . S
O223 C221 1.282 . S
C224 O225 1.306 . S
C224 O227 1.160 . S
O225 C224 1.306 . S
O225 Cd226 2.228 . S
Cd226 O225 2.228 . S
Cd226 O230 2.273 . S
Cd226 O234 2.277 . S
O227 C224 1.160 . S
O227 Cd228 2.203 . S
Cd228 O227 2.203 . S
Cd228 O230 2.411 . S
Cd228 O231 2.333 . S
Cd228 O232 2.352 1_545 S
Cd228 O236 2.277 . S
Cd228 O237 2.356 1_545 S
C229 O234 1.209 . S
C229 O236 1.226 . S
O230 Cd226 2.273 . S
O230 Cd228 2.411 . S
O230 C233 1.320 . S
O231 Cd228 2.333 . S
O231 C233 1.214 . S
O232 Cd228 2.352 1_565 S
O232 C235 1.258 . S
C233 O230 1.320 . S
C233 O231 1.214 . S
O234 Cd226 2.277 . S
O234 C229 1.209 . S
C235 O232 1.258 . S
C235 O237 1.282 . S
O236 Cd228 2.277 . S
O236 C229 1.226 . S
O237 Cd228 2.356 1_565 S
O237 C235 1.282 . S
C238 O239 1.306 . S
C238 O241 1.160 . S
O239 C238 1.306 . S
O239 Cd240 2.228 1_455 S
Cd240 O239 2.228 1_655 S
Cd240 O244 2.273 . S
Cd240 O248 2.277 . S
O241 C238 1.160 . S
O241 Cd242 2.203 1_455 S
Cd242 O241 2.203 1_655 S
Cd242 O244 2.411 . S
Cd242 O245 2.333 . S
Cd242 O246 2.352 1_655 S
Cd242 O250 2.277 . S
Cd242 O251 2.356 . S
C243 O248 1.209 . S
C243 O250 1.226 . S
O244 Cd240 2.273 . S
O244 Cd242 2.411 . S
O244 C247 1.320 . S
O245 Cd242 2.333 . S
O245 C247 1.214 . S
O246 Cd242 2.352 1_455 S
O246 C249 1.258 1_455 S
C247 O244 1.320 . S
C247 O245 1.214 . S
O248 Cd240 2.277 . S
O248 C243 1.209 . S
C249 O246 1.258 1_655 S
C249 O251 1.282 . S
O250 Cd242 2.277 . S
O250 C243 1.226 . S
O251 Cd242 2.356 . S
O251 C249 1.282 . S
C252 C253 1.384 . S
C252 C254 1.384 . S
C252 H280 0.931 . S
C253 C252 1.384 . S
C253 C256 1.382 . S
C254 C252 1.384 . S
C254 C255 1.381 . S
C254 H281 0.930 . S
C255 C254 1.381 . S
C255 C257 1.381 . S
C255 C258 1.487 . S
C256 C253 1.382 . S
C256 C257 1.387 . S
C256 H282 0.930 . S
C257 C255 1.381 . S
C257 C256 1.387 . S
C257 H283 0.931 . S
C258 C255 1.487 . S
C258 C265 1.399 . S
C258 N296 1.343 . S
C259 C260 1.384 . S
C259 C261 1.384 . S
C259 H284 0.931 . S
C260 C259 1.384 . S
C260 C263 1.382 . S
C261 C259 1.384 . S
C261 C262 1.381 . S
C261 H285 0.930 . S
C262 C261 1.381 . S
C262 C264 1.381 . S
C262 C265 1.487 . S
C263 C260 1.382 . S
C263 C264 1.387 . S
C263 H286 0.930 . S
C264 C262 1.381 . S
C264 C263 1.387 . S
C264 H287 0.931 . S
C265 C258 1.399 . S
C265 C262 1.487 . S
C265 N297 1.343 . S
C266 C267 1.384 . S
C266 C268 1.384 . S
C266 H288 0.931 . S
C267 C266 1.384 . S
C267 C270 1.382 . S
C268 C266 1.384 . S
C268 C269 1.381 . S
C268 H289 0.930 . S
C269 C268 1.381 . S
C269 C271 1.381 . S
C269 C272 1.487 . S
C270 C267 1.382 . S
C270 C271 1.387 . S
C270 H290 0.930 . S
C271 C269 1.381 . S
C271 C270 1.387 . S
C271 H291 0.931 . S
C272 C269 1.487 . S
C272 C279 1.399 . S
C272 N297 1.343 . S
C273 C274 1.384 . S
C273 C275 1.384 . S
C273 H292 0.931 . S
C274 C273 1.384 . S
C274 C277 1.382 . S
C275 C273 1.384 . S
C275 C276 1.381 . S
C275 H293 0.930 . S
C276 C275 1.381 . S
C276 C278 1.381 . S
C276 C279 1.487 . S
C277 C274 1.382 . S
C277 C278 1.387 . S
C277 H294 0.930 . S
C278 C276 1.381 . S
C278 C277 1.387 . S
C278 H295 0.931 . S
C279 C272 1.399 . S
C279 C276 1.487 . S
C279 N296 1.343 . S
H280 C252 0.931 . S
H281 C254 0.930 . S
H282 C256 0.930 . S
H283 C257 0.931 . S
H284 C259 0.931 . S
H285 C261 0.930 . S
H286 C263 0.930 . S
H287 C264 0.931 . S
H288 C266 0.931 . S
H289 C268 0.930 . S
H290 C270 0.930 . S
H291 C271 0.931 . S
H292 C273 0.931 . S
H293 C275 0.930 . S
H294 C277 0.930 . S
H295 C278 0.931 . S
N296 C258 1.343 . S
N296 C279 1.343 . S
N297 C265 1.343 . S
N297 C272 1.343 . S
C298 C299 1.384 . S
C298 C300 1.384 . S
C298 H326 0.931 . S
C299 C298 1.384 . S
C299 C302 1.382 . S
C300 C298 1.384 . S
C300 C301 1.381 . S
C300 H327 0.930 . S
C301 C300 1.381 . S
C301 C303 1.381 . S
C301 C304 1.487 . S
C302 C299 1.382 . S
C302 C303 1.387 . S
C302 H328 0.930 . S
C303 C301 1.381 . S
C303 C302 1.387 . S
C303 H329 0.931 . S
C304 C301 1.487 . S
C304 C311 1.399 . S
C304 N342 1.343 . S
C305 C306 1.384 . S
C305 C307 1.384 . S
C305 H330 0.931 . S
C306 C305 1.384 . S
C306 C309 1.382 . S
C307 C305 1.384 . S
C307 C308 1.381 . S
C307 H331 0.930 . S
C308 C307 1.381 . S
C308 C310 1.381 . S
C308 C311 1.487 . S
C309 C306 1.382 . S
C309 C310 1.387 . S
C309 H332 0.930 . S
C310 C308 1.381 . S
C310 C309 1.387 . S
C310 H333 0.931 . S
C311 C304 1.399 . S
C311 C308 1.487 . S
C311 N343 1.343 . S
C312 C313 1.384 . S
C312 C314 1.384 . S
C312 H334 0.931 . S
C313 C312 1.384 . S
C313 C316 1.382 . S
C314 C312 1.384 . S
C314 C315 1.381 . S
C314 H335 0.930 . S
C315 C314 1.381 . S
C315 C317 1.381 . S
C315 C318 1.487 . S
C316 C313 1.382 . S
C316 C317 1.387 . S
C316 H336 0.930 . S
C317 C315 1.381 . S
C317 C316 1.387 . S
C317 H337 0.931 . S
C318 C315 1.487 . S
C318 C325 1.399 . S
C318 N343 1.343 . S
C319 C320 1.384 . S
C319 C321 1.384 . S
C319 H338 0.931 . S
C320 C319 1.384 . S
C320 C323 1.382 . S
C321 C319 1.384 . S
C321 C322 1.381 . S
C321 H339 0.930 . S
C322 C321 1.381 . S
C322 C324 1.381 . S
C322 C325 1.487 . S
C323 C320 1.382 . S
C323 C324 1.387 . S
C323 H340 0.930 . S
C324 C322 1.381 . S
C324 C323 1.387 . S
C324 H341 0.931 . S
C325 C318 1.399 . S
C325 C322 1.487 . S
C325 N342 1.343 . S
H326 C298 0.931 . S
H327 C300 0.930 . S
H328 C302 0.930 . S
H329 C303 0.931 . S
H330 C305 0.931 . S
H331 C307 0.930 . S
H332 C309 0.930 . S
H333 C310 0.931 . S
H334 C312 0.931 . S
H335 C314 0.930 . S
H336 C316 0.930 . S
H337 C317 0.931 . S
H338 C319 0.931 . S
H339 C321 0.930 . S
H340 C323 0.930 . S
H341 C324 0.931 . S
N342 C304 1.343 . S
N342 C325 1.343 . S
N343 C311 1.343 . S
N343 C318 1.343 . S
C344 C345 1.384 . S
C344 C346 1.384 . S
C344 H372 0.931 . S
C345 C344 1.384 . S
C345 C348 1.382 . S
C346 C344 1.384 . S
C346 C347 1.381 . S
C346 H373 0.930 . S
C347 C346 1.381 . S
C347 C349 1.381 . S
C347 C350 1.487 . S
C348 C345 1.382 . S
C348 C349 1.387 . S
C348 H374 0.930 . S
C349 C347 1.381 . S
C349 C348 1.387 . S
C349 H375 0.931 . S
C350 C347 1.487 . S
C350 C357 1.399 . S
C350 N388 1.343 . S
C351 C352 1.384 . S
C351 C353 1.384 . S
C351 H376 0.931 . S
C352 C351 1.384 . S
C352 C355 1.382 . S
C353 C351 1.384 . S
C353 C354 1.381 . S
C353 H377 0.930 . S
C354 C353 1.381 . S
C354 C356 1.381 . S
C354 C357 1.487 . S
C355 C352 1.382 . S
C355 C356 1.387 . S
C355 H378 0.930 . S
C356 C354 1.381 . S
C356 C355 1.387 . S
C356 H379 0.931 . S
C357 C350 1.399 . S
C357 C354 1.487 . S
C357 N389 1.343 . S
C358 C359 1.384 . S
C358 C360 1.384 . S
C358 H380 0.931 . S
C359 C358 1.384 . S
C359 C362 1.382 . S
C360 C358 1.384 . S
C360 C361 1.381 . S
C360 H381 0.930 . S
C361 C360 1.381 . S
C361 C363 1.381 . S
C361 C364 1.487 . S
C362 C359 1.382 . S
C362 C363 1.387 . S
C362 H382 0.930 . S
C363 C361 1.381 . S
C363 C362 1.387 . S
C363 H383 0.931 . S
C364 C361 1.487 . S
C364 C371 1.399 . S
C364 N389 1.343 . S
C365 C366 1.384 . S
C365 C367 1.384 . S
C365 H384 0.931 . S
C366 C365 1.384 . S
C366 C369 1.382 . S
C367 C365 1.384 . S
C367 C368 1.381 . S
C367 H385 0.930 . S
C368 C367 1.381 . S
C368 C370 1.381 . S
C368 C371 1.487 . S
C369 C366 1.382 . S
C369 C370 1.387 . S
C369 H386 0.930 . S
C370 C368 1.381 . S
C370 C369 1.387 . S
C370 H387 0.931 . S
C371 C364 1.399 . S
C371 C368 1.487 . S
C371 N388 1.343 . S
H372 C344 0.931 . S
H373 C346 0.930 . S
H374 C348 0.930 . S
H375 C349 0.931 . S
H376 C351 0.931 . S
H377 C353 0.930 . S
H378 C355 0.930 . S
H379 C356 0.931 . S
H380 C358 0.931 . S
H381 C360 0.930 . S
H382 C362 0.930 . S
H383 C363 0.931 . S
H384 C365 0.931 . S
H385 C367 0.930 . S
H386 C369 0.930 . S
H387 C370 0.931 . S
N388 C350 1.343 . S
N388 C371 1.343 . S
N389 C357 1.343 . S
N389 C364 1.343 . S
C390 C391 1.384 . S
C390 C392 1.384 . S
C390 H418 0.931 . S
C391 C390 1.384 . S
C391 C394 1.382 . S
C392 C390 1.384 . S
C392 C393 1.381 . S
C392 H419 0.930 . S
C393 C392 1.381 . S
C393 C395 1.381 . S
C393 C396 1.487 . S
C394 C391 1.382 . S
C394 C395 1.387 . S
C394 H420 0.930 . S
C395 C393 1.381 . S
C395 C394 1.387 . S
C395 H421 0.931 . S
C396 C393 1.487 . S
C396 C403 1.399 . S
C396 N434 1.343 . S
C397 C398 1.384 . S
C397 C399 1.384 . S
C397 H422 0.931 . S
C398 C397 1.384 . S
C398 C401 1.382 . S
C399 C397 1.384 . S
C399 C400 1.381 . S
C399 H423 0.930 . S
C400 C399 1.381 . S
C400 C402 1.381 . S
C400 C403 1.487 . S
C401 C398 1.382 . S
C401 C402 1.387 . S
C401 H424 0.930 . S
C402 C400 1.381 . S
C402 C401 1.387 . S
C402 H425 0.931 . S
C403 C396 1.399 . S
C403 C400 1.487 . S
C403 N435 1.343 . S
C404 C405 1.384 . S
C404 C406 1.384 . S
C404 H426 0.931 . S
C405 C404 1.384 . S
C405 C408 1.382 . S
C406 C404 1.384 . S
C406 C407 1.381 . S
C406 H427 0.930 . S
C407 C406 1.381 . S
C407 C409 1.381 . S
C407 C410 1.487 . S
C408 C405 1.382 . S
C408 C409 1.387 . S
C408 H428 0.930 . S
C409 C407 1.381 . S
C409 C408 1.387 . S
C409 H429 0.931 . S
C410 C407 1.487 . S
C410 C417 1.399 . S
C410 N435 1.343 . S
C411 C412 1.384 . S
C411 C413 1.384 . S
C411 H430 0.931 . S
C412 C411 1.384 . S
C412 C415 1.382 . S
C413 C411 1.384 . S
C413 C414 1.381 . S
C413 H431 0.930 . S
C414 C413 1.381 . S
C414 C416 1.381 . S
C414 C417 1.487 . S
C415 C412 1.382 . S
C415 C416 1.387 . S
C415 H432 0.930 . S
C416 C414 1.381 . S
C416 C415 1.387 . S
C416 H433 0.931 . S
C417 C410 1.399 . S
C417 C414 1.487 . S
C417 N434 1.343 . S
H418 C390 0.931 . S
H419 C392 0.930 . S
H420 C394 0.930 . S
H421 C395 0.931 . S
H422 C397 0.931 . S
H423 C399 0.930 . S
H424 C401 0.930 . S
H425 C402 0.931 . S
H426 C404 0.931 . S
H427 C406 0.930 . S
H428 C408 0.930 . S
H429 C409 0.931 . S
H430 C411 0.931 . S
H431 C413 0.930 . S
H432 C415 0.930 . S
H433 C416 0.931 . S
N434 C396 1.343 . S
N434 C417 1.343 . S
N435 C403 1.343 . S
N435 C410 1.343 . S
C436 C437 1.384 . S
C436 C438 1.384 . S
C436 H464 0.931 . S
C437 C436 1.384 . S
C437 C440 1.382 . S
C438 C436 1.384 . S
C438 C439 1.381 . S
C438 H465 0.930 . S
C439 C438 1.381 . S
C439 C441 1.381 . S
C439 C442 1.487 . S
C440 C437 1.382 . S
C440 C441 1.387 . S
C440 H466 0.930 . S
C441 C439 1.381 . S
C441 C440 1.387 . S
C441 H467 0.931 . S
C442 C439 1.487 . S
C442 C449 1.399 . S
C442 N480 1.343 . S
C443 C444 1.384 . S
C443 C445 1.384 . S
C443 H468 0.931 . S
C444 C443 1.384 . S
C444 C447 1.382 . S
C445 C443 1.384 . S
C445 C446 1.381 . S
C445 H469 0.930 . S
C446 C445 1.381 . S
C446 C448 1.381 . S
C446 C449 1.487 . S
C447 C444 1.382 . S
C447 C448 1.387 . S
C447 H470 0.930 . S
C448 C446 1.381 . S
C448 C447 1.387 . S
C448 H471 0.931 . S
C449 C442 1.399 . S
C449 C446 1.487 . S
C449 N481 1.343 . S
C450 C451 1.384 . S
C450 C452 1.384 . S
C450 H472 0.931 . S
C451 C450 1.384 . S
C451 C454 1.382 . S
C452 C450 1.384 . S
C452 C453 1.381 . S
C452 H473 0.930 . S
C453 C452 1.381 . S
C453 C455 1.381 . S
C453 C456 1.487 . S
C454 C451 1.382 . S
C454 C455 1.387 . S
C454 H474 0.930 . S
C455 C453 1.381 . S
C455 C454 1.387 . S
C455 H475 0.931 . S
C456 C453 1.487 . S
C456 C463 1.399 . S
C456 N481 1.343 . S
C457 C458 1.384 . S
C457 C459 1.384 . S
C457 H476 0.931 . S
C458 C457 1.384 . S
C458 C461 1.382 . S
C459 C457 1.384 . S
C459 C460 1.381 . S
C459 H477 0.930 . S
C460 C459 1.381 . S
C460 C462 1.381 . S
C460 C463 1.487 . S
C461 C458 1.382 . S
C461 C462 1.387 . S
C461 H478 0.930 . S
C462 C460 1.381 . S
C462 C461 1.387 . S
C462 H479 0.931 . S
C463 C456 1.399 . S
C463 C460 1.487 . S
C463 N480 1.343 . S
H464 C436 0.931 . S
H465 C438 0.930 . S
H466 C440 0.930 . S
H467 C441 0.931 . S
H468 C443 0.931 . S
H469 C445 0.930 . S
H470 C447 0.930 . S
H471 C448 0.931 . S
H472 C450 0.931 . S
H473 C452 0.930 . S
H474 C454 0.930 . S
H475 C455 0.931 . S
H476 C457 0.931 . S
H477 C459 0.930 . S
H478 C461 0.930 . S
H479 C462 0.931 . S
N480 C442 1.343 . S
N480 C463 1.343 . S
N481 C449 1.343 . S
N481 C456 1.343 . S
C482 C483 1.384 . S
C482 C484 1.384 . S
C482 H510 0.931 . S
C483 C482 1.384 . S
C483 C486 1.382 . S
C484 C482 1.384 . S
C484 C485 1.381 . S
C484 H511 0.930 . S
C485 C484 1.381 . S
C485 C487 1.381 . S
C485 C488 1.487 . S
C486 C483 1.382 . S
C486 C487 1.387 . S
C486 H512 0.930 . S
C487 C485 1.381 . S
C487 C486 1.387 . S
C487 H513 0.931 . S
C488 C485 1.487 . S
C488 C495 1.399 . S
C488 N526 1.343 . S
C489 C490 1.384 . S
C489 C491 1.384 . S
C489 H514 0.931 . S
C490 C489 1.384 . S
C490 C493 1.382 . S
C491 C489 1.384 . S
C491 C492 1.381 . S
C491 H515 0.930 . S
C492 C491 1.381 . S
C492 C494 1.381 . S
C492 C495 1.487 . S
C493 C490 1.382 . S
C493 C494 1.387 . S
C493 H516 0.930 . S
C494 C492 1.381 . S
C494 C493 1.387 . S
C494 H517 0.931 . S
C495 C488 1.399 . S
C495 C492 1.487 . S
C495 N527 1.343 . S
C496 C497 1.384 . S
C496 C498 1.384 . S
C496 H518 0.931 . S
C497 C496 1.384 . S
C497 C500 1.382 . S
C498 C496 1.384 . S
C498 C499 1.381 . S
C498 H519 0.930 . S
C499 C498 1.381 . S
C499 C501 1.381 . S
C499 C502 1.487 . S
C500 C497 1.382 . S
C500 C501 1.387 . S
C500 H520 0.930 . S
C501 C499 1.381 . S
C501 C500 1.387 . S
C501 H521 0.931 . S
C502 C499 1.487 . S
C502 C509 1.399 . S
C502 N527 1.343 . S
C503 C504 1.384 . S
C503 C505 1.384 . S
C503 H522 0.931 . S
C504 C503 1.384 . S
C504 C507 1.382 . S
C505 C503 1.384 . S
C505 C506 1.381 . S
C505 H523 0.930 . S
C506 C505 1.381 . S
C506 C508 1.381 . S
C506 C509 1.487 . S
C507 C504 1.382 . S
C507 C508 1.387 . S
C507 H524 0.930 . S
C508 C506 1.381 . S
C508 C507 1.387 . S
C508 H525 0.931 . S
C509 C502 1.399 . S
C509 C506 1.487 . S
C509 N526 1.343 . S
H510 C482 0.931 . S
H511 C484 0.930 . S
H512 C486 0.930 . S
H513 C487 0.931 . S
H514 C489 0.931 . S
H515 C491 0.930 . S
H516 C493 0.930 . S
H517 C494 0.931 . S
H518 C496 0.931 . S
H519 C498 0.930 . S
H520 C500 0.930 . S
H521 C501 0.931 . S
H522 C503 0.931 . S
H523 C505 0.930 . S
H524 C507 0.930 . S
H525 C508 0.931 . S
N526 C488 1.343 . S
N526 C509 1.343 . S
N527 C495 1.343 . S
N527 C502 1.343 . S
C528 C529 1.384 . S
C528 C530 1.384 . S
C528 H556 0.931 . S
C529 C528 1.384 . S
C529 C532 1.382 . S
C530 C528 1.384 . S
C530 C531 1.381 . S
C530 H557 0.930 . S
C531 C530 1.381 . S
C531 C533 1.381 . S
C531 C534 1.487 . S
C532 C529 1.382 . S
C532 C533 1.387 . S
C532 H558 0.930 . S
C533 C531 1.381 . S
C533 C532 1.387 . S
C533 H559 0.931 . S
C534 C531 1.487 . S
C534 C541 1.399 . S
C534 N572 1.343 . S
C535 C536 1.384 . S
C535 C537 1.384 . S
C535 H560 0.931 . S
C536 C535 1.384 . S
C536 C539 1.382 . S
C537 C535 1.384 . S
C537 C538 1.381 . S
C537 H561 0.930 . S
C538 C537 1.381 . S
C538 C540 1.381 . S
C538 C541 1.487 . S
C539 C536 1.382 . S
C539 C540 1.387 . S
C539 H562 0.930 . S
C540 C538 1.381 . S
C540 C539 1.387 . S
C540 H563 0.931 . S
C541 C534 1.399 . S
C541 C538 1.487 . S
C541 N573 1.343 . S
C542 C543 1.384 . S
C542 C544 1.384 . S
C542 H564 0.931 . S
C543 C542 1.384 . S
C543 C546 1.382 . S
C544 C542 1.384 . S
C544 C545 1.381 . S
C544 H565 0.930 . S
C545 C544 1.381 . S
C545 C547 1.381 . S
C545 C548 1.487 . S
C546 C543 1.382 . S
C546 C547 1.387 . S
C546 H566 0.930 . S
C547 C545 1.381 . S
C547 C546 1.387 . S
C547 H567 0.931 . S
C548 C545 1.487 . S
C548 C555 1.399 . S
C548 N573 1.343 . S
C549 C550 1.384 . S
C549 C551 1.384 . S
C549 H568 0.931 . S
C550 C549 1.384 . S
C550 C553 1.382 . S
C551 C549 1.384 . S
C551 C552 1.381 . S
C551 H569 0.930 . S
C552 C551 1.381 . S
C552 C554 1.381 . S
C552 C555 1.487 . S
C553 C550 1.382 . S
C553 C554 1.387 . S
C553 H570 0.930 . S
C554 C552 1.381 . S
C554 C553 1.387 . S
C554 H571 0.931 . S
C555 C548 1.399 . S
C555 C552 1.487 . S
C555 N572 1.343 . S
H556 C528 0.931 . S
H557 C530 0.930 . S
H558 C532 0.930 . S
H559 C533 0.931 . S
H560 C535 0.931 . S
H561 C537 0.930 . S
H562 C539 0.930 . S
H563 C540 0.931 . S
H564 C542 0.931 . S
H565 C544 0.930 . S
H566 C546 0.930 . S
H567 C547 0.931 . S
H568 C549 0.931 . S
H569 C551 0.930 . S
H570 C553 0.930 . S
H571 C554 0.931 . S
N572 C534 1.343 . S
N572 C555 1.343 . S
N573 C541 1.343 . S
N573 C548 1.343 . S
C574 C575 1.384 . S
C574 C576 1.384 . S
C574 H602 0.931 . S
C575 C574 1.384 . S
C575 C578 1.382 . S
C576 C574 1.384 . S
C576 C577 1.381 . S
C576 H603 0.930 . S
C577 C576 1.381 . S
C577 C579 1.381 . S
C577 C580 1.487 . S
C578 C575 1.382 . S
C578 C579 1.387 . S
C578 H604 0.930 . S
C579 C577 1.381 . S
C579 C578 1.387 . S
C579 H605 0.931 . S
C580 C577 1.487 . S
C580 C587 1.399 . S
C580 N618 1.343 . S
C581 C582 1.384 . S
C581 C583 1.384 . S
C581 H606 0.931 . S
C582 C581 1.384 . S
C582 C585 1.382 . S
C583 C581 1.384 . S
C583 C584 1.381 . S
C583 H607 0.930 . S
C584 C583 1.381 . S
C584 C586 1.381 . S
C584 C587 1.487 . S
C585 C582 1.382 . S
C585 C586 1.387 . S
C585 H608 0.930 . S
C586 C584 1.381 . S
C586 C585 1.387 . S
C586 H609 0.931 . S
C587 C580 1.399 . S
C587 C584 1.487 . S
C587 N619 1.343 . S
C588 C589 1.384 . S
C588 C590 1.384 . S
C588 H610 0.931 . S
C589 C588 1.384 . S
C589 C592 1.382 . S
C590 C588 1.384 . S
C590 C591 1.381 . S
C590 H611 0.930 . S
C591 C590 1.381 . S
C591 C593 1.381 . S
C591 C594 1.487 . S
C592 C589 1.382 . S
C592 C593 1.387 . S
C592 H612 0.930 . S
C593 C591 1.381 . S
C593 C592 1.387 . S
C593 H613 0.931 . S
C594 C591 1.487 . S
C594 C601 1.399 . S
C594 N619 1.343 . S
C595 C596 1.384 . S
C595 C597 1.384 . S
C595 H614 0.931 . S
C596 C595 1.384 . S
C596 C599 1.382 . S
C597 C595 1.384 . S
C597 C598 1.381 . S
C597 H615 0.930 . S
C598 C597 1.381 . S
C598 C600 1.381 . S
C598 C601 1.487 . S
C599 C596 1.382 . S
C599 C600 1.387 . S
C599 H616 0.930 . S
C600 C598 1.381 . S
C600 C599 1.387 . S
C600 H617 0.931 . S
C601 C594 1.399 . S
C601 C598 1.487 . S
C601 N618 1.343 . S
H602 C574 0.931 . S
H603 C576 0.930 . S
H604 C578 0.930 . S
H605 C579 0.931 . S
H606 C581 0.931 . S
H607 C583 0.930 . S
H608 C585 0.930 . S
H609 C586 0.931 . S
H610 C588 0.931 . S
H611 C590 0.930 . S
H612 C592 0.930 . S
H613 C593 0.931 . S
H614 C595 0.931 . S
H615 C597 0.930 . S
H616 C599 0.930 . S
H617 C600 0.931 . S
N618 C580 1.343 . S
N618 C601 1.343 . S
N619 C587 1.343 . S
N619 C594 1.343 . S
C620 C621 1.384 . S
C620 C622 1.384 . S
C620 H648 0.931 . S
C621 C620 1.384 . S
C621 C624 1.382 . S
C622 C620 1.384 . S
C622 C623 1.381 . S
C622 H649 0.930 . S
C623 C622 1.381 . S
C623 C625 1.381 . S
C623 C626 1.487 . S
C624 C621 1.382 . S
C624 C625 1.387 . S
C624 H650 0.930 . S
C625 C623 1.381 . S
C625 C624 1.387 . S
C625 H651 0.931 . S
C626 C623 1.487 . S
C626 C633 1.399 . S
C626 N664 1.343 . S
C627 C628 1.384 . S
C627 C629 1.384 . S
C627 H652 0.931 . S
C628 C627 1.384 . S
C628 C631 1.382 . S
C629 C627 1.384 . S
C629 C630 1.381 . S
C629 H653 0.930 . S
C630 C629 1.381 . S
C630 C632 1.381 . S
C630 C633 1.487 . S
C631 C628 1.382 . S
C631 C632 1.387 . S
C631 H654 0.930 . S
C632 C630 1.381 . S
C632 C631 1.387 . S
C632 H655 0.931 . S
C633 C626 1.399 . S
C633 C630 1.487 . S
C633 N665 1.343 . S
C634 C635 1.384 . S
C634 C636 1.384 . S
C634 H656 0.931 . S
C635 C634 1.384 . S
C635 C638 1.382 . S
C636 C634 1.384 . S
C636 C637 1.381 . S
C636 H657 0.930 . S
C637 C636 1.381 . S
C637 C639 1.381 . S
C637 C640 1.487 . S
C638 C635 1.382 . S
C638 C639 1.387 . S
C638 H658 0.930 . S
C639 C637 1.381 . S
C639 C638 1.387 . S
C639 H659 0.931 . S
C640 C637 1.487 . S
C640 C647 1.399 . S
C640 N665 1.343 . S
C641 C642 1.384 . S
C641 C643 1.384 . S
C641 H660 0.931 . S
C642 C641 1.384 . S
C642 C645 1.382 . S
C643 C641 1.384 . S
C643 C644 1.381 . S
C643 H661 0.930 . S
C644 C643 1.381 . S
C644 C646 1.381 . S
C644 C647 1.487 . S
C645 C642 1.382 . S
C645 C646 1.387 . S
C645 H662 0.930 . S
C646 C644 1.381 . S
C646 C645 1.387 . S
C646 H663 0.931 . S
C647 C640 1.399 . S
C647 C644 1.487 . S
C647 N664 1.343 . S
H648 C620 0.931 . S
H649 C622 0.930 . S
H650 C624 0.930 . S
H651 C625 0.931 . S
H652 C627 0.931 . S
H653 C629 0.930 . S
H654 C631 0.930 . S
H655 C632 0.931 . S
H656 C634 0.931 . S
H657 C636 0.930 . S
H658 C638 0.930 . S
H659 C639 0.931 . S
H660 C641 0.931 . S
H661 C643 0.930 . S
H662 C645 0.930 . S
H663 C646 0.931 . S
N664 C626 1.343 . S
N664 C647 1.343 . S
N665 C633 1.343 . S
N665 C640 1.343 . S
C666 C667 1.384 . S
C666 C668 1.384 . S
C666 H694 0.931 . S
C667 C666 1.384 . S
C667 C670 1.382 1_655 S
C668 C666 1.384 . S
C668 C669 1.411 . S
C668 H695 0.930 . S
C669 C668 1.411 . S
C669 C671 1.367 1_655 S
C669 C672 1.470 1_655 S
C670 C667 1.382 1_455 S
C670 C671 1.387 . S
C670 H696 0.930 . S
C671 C669 1.367 1_455 S
C671 C670 1.387 . S
C671 H697 0.931 . S
C672 C669 1.470 1_455 S
C672 C679 1.399 1_455 S
C672 N710 1.346 . S
C673 C674 1.384 . S
C673 C675 1.384 . S
C673 H698 0.931 . S
C674 C673 1.384 . S
C674 C677 1.382 1_455 S
C675 C673 1.384 . S
C675 C676 1.383 . S
C675 H699 0.930 . S
C676 C675 1.383 . S
C676 C678 1.377 1_455 S
C676 C679 1.494 1_455 S
C677 C674 1.382 1_655 S
C677 C678 1.387 . S
C677 H700 0.930 . S
C678 C676 1.377 1_655 S
C678 C677 1.387 . S
C678 H701 0.931 . S
C679 C672 1.399 1_655 S
C679 C676 1.494 1_655 S
C679 N711 1.361 . S
C680 C681 1.384 . S
C680 C682 1.384 . S
C680 H702 0.931 . S
C681 C680 1.384 . S
C681 C684 1.382 1_455 S
C682 C680 1.384 . S
C682 C683 1.424 . S
C682 H703 0.930 . S
C683 C682 1.424 . S
C683 C685 1.360 1_455 S
C683 C686 1.465 . S
C684 C681 1.382 1_655 S
C684 C685 1.387 . S
C684 H704 0.930 . S
C685 C683 1.360 1_655 S
C685 C684 1.387 . S
C685 H705 0.931 . S
C686 C683 1.465 . S
C686 C693 1.399 . S
C686 N711 1.322 1_455 S
C687 C688 1.384 . S
C687 C689 1.384 . S
C687 H706 0.931 . S
C688 C687 1.384 . S
C688 C691 1.382 1_655 S
C689 C687 1.384 . S
C689 C690 1.380 . S
C689 H707 0.930 . S
C690 C689 1.380 . S
C690 C692 1.385 1_655 S
C690 C693 1.494 1_655 S
C691 C688 1.382 1_455 S
C691 C692 1.387 . S
C691 H708 0.930 . S
C692 C690 1.385 1_455 S
C692 C691 1.387 . S
C692 H709 0.931 . S
C693 C686 1.399 . S
C693 C690 1.494 1_455 S
C693 N710 1.333 . S
H694 C666 0.931 . S
H695 C668 0.930 . S
H696 C670 0.930 . S
H697 C671 0.931 . S
H698 C673 0.931 . S
H699 C675 0.930 . S
H700 C677 0.930 . S
H701 C678 0.931 . S
H702 C680 0.931 . S
H703 C682 0.930 . S
H704 C684 0.930 . S
H705 C685 0.931 . S
H706 C687 0.931 . S
H707 C689 0.930 . S
H708 C691 0.930 . S
H709 C692 0.931 . S
N710 C672 1.346 . S
N710 C693 1.333 . S
N711 C679 1.361 . S
N711 C686 1.322 1_655 S
C712 C713 1.384 . S
C712 C714 1.384 . S
C712 H740 0.931 . S
C713 C712 1.384 . S
C713 C716 1.382 . S
C714 C712 1.384 . S
C714 C715 1.381 . S
C714 H741 0.930 . S
C715 C714 1.381 . S
C715 C717 1.381 . S
C715 C718 1.487 . S
C716 C713 1.382 . S
C716 C717 1.387 . S
C716 H742 0.930 . S
C717 C715 1.381 . S
C717 C716 1.387 . S
C717 H743 0.931 . S
C718 C715 1.487 . S
C718 C725 1.399 . S
C718 N756 1.343 . S
C719 C720 1.384 . S
C719 C721 1.384 . S
C719 H744 0.931 . S
C720 C719 1.384 . S
C720 C723 1.382 . S
C721 C719 1.384 . S
C721 C722 1.381 . S
C721 H745 0.930 . S
C722 C721 1.381 . S
C722 C724 1.381 . S
C722 C725 1.487 . S
C723 C720 1.382 . S
C723 C724 1.387 . S
C723 H746 0.930 . S
C724 C722 1.381 . S
C724 C723 1.387 . S
C724 H747 0.931 . S
C725 C718 1.399 . S
C725 C722 1.487 . S
C725 N757 1.343 . S
C726 C727 1.384 . S
C726 C728 1.384 . S
C726 H748 0.931 . S
C727 C726 1.384 . S
C727 C730 1.382 . S
C728 C726 1.384 . S
C728 C729 1.381 . S
C728 H749 0.930 . S
C729 C728 1.381 . S
C729 C731 1.381 . S
C729 C732 1.487 . S
C730 C727 1.382 . S
C730 C731 1.387 . S
C730 H750 0.930 . S
C731 C729 1.381 . S
C731 C730 1.387 . S
C731 H751 0.931 . S
C732 C729 1.487 . S
C732 C739 1.399 . S
C732 N757 1.343 . S
C733 C734 1.384 . S
C733 C735 1.384 . S
C733 H752 0.931 . S
C734 C733 1.384 . S
C734 C737 1.382 . S
C735 C733 1.384 . S
C735 C736 1.381 . S
C735 H753 0.930 . S
C736 C735 1.381 . S
C736 C738 1.381 . S
C736 C739 1.487 . S
C737 C734 1.382 . S
C737 C738 1.387 . S
C737 H754 0.930 . S
C738 C736 1.381 . S
C738 C737 1.387 . S
C738 H755 0.931 . S
C739 C732 1.399 . S
C739 C736 1.487 . S
C739 N756 1.343 . S
H740 C712 0.931 . S
H741 C714 0.930 . S
H742 C716 0.930 . S
H743 C717 0.931 . S
H744 C719 0.931 . S
H745 C721 0.930 . S
H746 C723 0.930 . S
H747 C724 0.931 . S
H748 C726 0.931 . S
H749 C728 0.930 . S
H750 C730 0.930 . S
H751 C731 0.931 . S
H752 C733 0.931 . S
H753 C735 0.930 . S
H754 C737 0.930 . S
H755 C738 0.931 . S
N756 C718 1.343 . S
N756 C739 1.343 . S
N757 C725 1.343 . S
N757 C732 1.343 . S
C758 C759 1.384 1_545 S
C758 C760 1.384 . S
C758 H786 0.931 . S
C759 C758 1.384 1_565 S
C759 C762 1.382 . S
C760 C758 1.384 . S
C760 C761 1.381 1_545 S
C760 H787 0.930 . S
C761 C760 1.381 1_565 S
C761 C763 1.381 . S
C761 C764 1.487 . S
C762 C759 1.382 . S
C762 C763 1.387 . S
C762 H788 0.930 . S
C763 C761 1.381 . S
C763 C762 1.387 . S
C763 H789 0.931 . S
C764 C761 1.487 . S
C764 C771 1.399 1_565 S
C764 N802 1.343 . S
C765 C766 1.384 1_565 S
C765 C767 1.384 . S
C765 H790 0.931 . S
C766 C765 1.384 1_545 S
C766 C769 1.382 . S
C767 C765 1.384 . S
C767 C768 1.381 1_565 S
C767 H791 0.930 . S
C768 C767 1.381 1_545 S
C768 C770 1.381 . S
C768 C771 1.487 . S
C769 C766 1.382 . S
C769 C770 1.387 . S
C769 H792 0.930 . S
C770 C768 1.381 . S
C770 C769 1.387 . S
C770 H793 0.931 . S
C771 C764 1.399 1_545 S
C771 C768 1.487 . S
C771 N803 1.343 . S
C772 C773 1.384 1_565 S
C772 C774 1.384 . S
C772 H794 0.931 . S
C773 C772 1.384 1_545 S
C773 C776 1.382 . S
C774 C772 1.384 . S
C774 C775 1.381 1_565 S
C774 H795 0.930 . S
C775 C774 1.381 1_545 S
C775 C777 1.381 . S
C775 C778 1.487 . S
C776 C773 1.382 . S
C776 C777 1.387 . S
C776 H796 0.930 . S
C777 C775 1.381 . S
C777 C776 1.387 . S
C777 H797 0.931 . S
C778 C775 1.487 . S
C778 C785 1.399 1_545 S
C778 N803 1.343 . S
C779 C780 1.384 1_545 S
C779 C781 1.384 . S
C779 H798 0.931 . S
C780 C779 1.384 1_565 S
C780 C783 1.382 . S
C781 C779 1.384 . S
C781 C782 1.381 1_545 S
C781 H799 0.930 . S
C782 C781 1.381 1_565 S
C782 C784 1.381 . S
C782 C785 1.487 . S
C783 C780 1.382 . S
C783 C784 1.387 . S
C783 H800 0.930 . S
C784 C782 1.381 . S
C784 C783 1.387 . S
C784 H801 0.931 . S
C785 C778 1.399 1_565 S
C785 C782 1.487 . S
C785 N802 1.343 . S
H786 C758 0.931 . S
H787 C760 0.930 . S
H788 C762 0.930 . S
H789 C763 0.931 . S
H790 C765 0.931 . S
H791 C767 0.930 . S
H792 C769 0.930 . S
H793 C770 0.931 . S
H794 C772 0.931 . S
H795 C774 0.930 . S
H796 C776 0.930 . S
H797 C777 0.931 . S
H798 C779 0.931 . S
H799 C781 0.930 . S
H800 C783 0.930 . S
H801 C784 0.931 . S
N802 C764 1.343 . S
N802 C785 1.343 . S
N803 C771 1.343 . S
N803 C778 1.343 . S
C804 C805 1.384 . S
C804 C806 1.384 . S
C804 H832 0.931 . S
C805 C804 1.384 . S
C805 C808 1.382 1_545 S
C806 C804 1.384 . S
C806 C807 1.382 . S
C806 H833 0.930 . S
C807 C806 1.382 . S
C807 C809 1.381 1_545 S
C807 C810 1.493 1_545 S
C808 C805 1.382 1_565 S
C808 C809 1.387 . S
C808 H834 0.930 . S
C809 C807 1.381 1_565 S
C809 C808 1.387 . S
C809 H835 0.931 . S
C810 C807 1.493 1_565 S
C810 C817 1.399 1_565 S
C810 N848 1.364 . S
C811 C812 1.384 . S
C811 C813 1.384 . S
C811 H836 0.931 . S
C812 C811 1.384 . S
C812 C815 1.382 1_565 S
C813 C811 1.384 . S
C813 C814 1.397 . S
C813 H837 0.930 . S
C814 C813 1.397 . S
C814 C816 1.373 1_565 S
C814 C817 1.474 1_565 S
C815 C812 1.382 1_545 S
C815 C816 1.387 . S
C815 H838 0.930 . S
C816 C814 1.373 1_545 S
C816 C815 1.387 . S
C816 H839 0.931 . S
C817 C810 1.399 1_545 S
C817 C814 1.474 1_545 S
C817 N849 1.349 . S
C818 C819 1.384 . S
C818 C820 1.384 . S
C818 H840 0.931 . S
C819 C818 1.384 . S
C819 C822 1.382 1_565 S
C820 C818 1.384 . S
C820 C821 1.382 1_565 S
C820 H841 0.930 . S
C821 C820 1.382 1_545 S
C821 C823 1.381 . S
C821 C824 1.499 . S
C822 C819 1.382 1_545 S
C822 C823 1.387 . S
C822 H842 0.930 . S
C823 C821 1.381 . S
C823 C822 1.387 . S
C823 H843 0.931 . S
C824 C821 1.499 . S
C824 C831 1.399 1_545 S
C824 N849 1.332 . S
C825 C826 1.384 . S
C825 C827 1.384 . S
C825 H844 0.931 . S
C826 C825 1.384 . S
C826 C829 1.382 1_545 S
C827 C825 1.384 . S
C827 C828 1.410 . S
C827 H845 0.930 . S
C828 C827 1.410 . S
C828 C830 1.367 1_545 S
C828 C831 1.474 1_545 S
C829 C826 1.382 1_565 S
C829 C830 1.387 . S
C829 H846 0.930 . S
C830 C828 1.367 1_565 S
C830 C829 1.387 . S
C830 H847 0.931 . S
C831 C824 1.399 1_565 S
C831 C828 1.474 1_565 S
C831 N848 1.315 . S
H832 C804 0.931 . S
H833 C806 0.930 . S
H834 C808 0.930 . S
H835 C809 0.931 . S
H836 C811 0.931 . S
H837 C813 0.930 . S
H838 C815 0.930 . S
H839 C816 0.931 . S
H840 C818 0.931 . S
H841 C820 0.930 . S
H842 C822 0.930 . S
H843 C823 0.931 . S
H844 C825 0.931 . S
H845 C827 0.930 . S
H846 C829 0.930 . S
H847 C830 0.931 . S
N848 C810 1.364 . S
N848 C831 1.315 . S
N849 C817 1.349 . S
N849 C824 1.332 . S
C850 C851 1.384 . S
C850 C852 1.384 . S
C850 H878 0.931 . S
C851 C850 1.384 . S
C851 C854 1.382 1_655 S
C852 C850 1.384 . S
C852 C853 1.409 . S
C852 H879 0.930 . S
C853 C852 1.409 . S
C853 C855 1.367 1_655 S
C853 C856 1.474 1_655 S
C854 C851 1.382 1_455 S
C854 C855 1.387 . S
C854 H880 0.930 . S
C855 C853 1.367 1_455 S
C855 C854 1.387 . S
C855 H881 0.931 . S
C856 C853 1.474 1_455 S
C856 C863 1.399 1_455 S
C856 N894 1.343 . S
C857 C858 1.384 . S
C857 C859 1.384 . S
C857 H882 0.931 . S
C858 C857 1.384 . S
C858 C861 1.382 1_455 S
C859 C857 1.384 . S
C859 C860 1.382 1_455 S
C859 H883 0.930 . S
C860 C859 1.382 1_655 S
C860 C862 1.380 . S
C860 C863 1.499 . S
C861 C858 1.382 1_655 S
C861 C862 1.387 . S
C861 H884 0.930 . S
C862 C860 1.380 . S
C862 C861 1.387 . S
C862 H885 0.931 . S
C863 C856 1.399 1_655 S
C863 C860 1.499 . S
C863 N895 1.332 . S
C864 C865 1.384 . S
C864 C866 1.384 . S
C864 H886 0.931 . S
C865 C864 1.384 . S
C865 C868 1.382 1_455 S
C866 C864 1.384 . S
C866 C867 1.396 . S
C866 H887 0.930 . S
C867 C866 1.396 . S
C867 C869 1.374 1_455 S
C867 C870 1.474 1_455 S
C868 C865 1.382 1_655 S
C868 C869 1.387 . S
C868 H888 0.930 . S
C869 C867 1.374 1_655 S
C869 C868 1.387 . S
C869 H889 0.931 . S
C870 C867 1.474 1_655 S
C870 C877 1.399 1_655 S
C870 N895 1.350 . S
C871 C872 1.384 . S
C871 C873 1.384 . S
C871 H890 0.931 . S
C872 C871 1.384 . S
C872 C875 1.382 1_655 S
C873 C871 1.384 . S
C873 C874 1.382 . S
C873 H891 0.930 . S
C874 C873 1.382 . S
C874 C876 1.380 1_655 S
C874 C877 1.493 1_655 S
C875 C872 1.382 1_455 S
C875 C876 1.387 . S
C875 H892 0.930 . S
C876 C874 1.380 1_455 S
C876 C875 1.387 . S
C876 H893 0.931 . S
C877 C870 1.399 1_455 S
C877 C874 1.493 1_455 S
C877 N894 1.337 . S
H878 C850 0.931 . S
H879 C852 0.930 . S
H880 C854 0.930 . S
H881 C855 0.931 . S
H882 C857 0.931 . S
H883 C859 0.930 . S
H884 C861 0.930 . S
H885 C862 0.931 . S
H886 C864 0.931 . S
H887 C866 0.930 . S
H888 C868 0.930 . S
H889 C869 0.931 . S
H890 C871 0.931 . S
H891 C873 0.930 . S
H892 C875 0.930 . S
H893 C876 0.931 . S
N894 C856 1.343 . S
N894 C877 1.337 . S
N895 C863 1.332 . S
N895 C870 1.350 . S
C896 C897 1.384 . S
C896 C898 1.384 . S
C896 H924 0.931 . S
C897 C896 1.384 . S
C897 C900 1.382 . S
C898 C896 1.384 . S
C898 C899 1.381 . S
C898 H925 0.930 . S
C899 C898 1.381 . S
C899 C901 1.381 . S
C899 C902 1.487 . S
C900 C897 1.382 . S
C900 C901 1.387 . S
C900 H926 0.930 . S
C901 C899 1.381 . S
C901 C900 1.387 . S
C901 H927 0.931 . S
C902 C899 1.487 . S
C902 C909 1.399 . S
C902 N940 1.343 . S
C903 C904 1.384 . S
C903 C905 1.384 . S
C903 H928 0.931 . S
C904 C903 1.384 . S
C904 C907 1.382 . S
C905 C903 1.384 . S
C905 C906 1.381 . S
C905 H929 0.930 . S
C906 C905 1.381 . S
C906 C908 1.381 . S
C906 C909 1.487 . S
C907 C904 1.382 . S
C907 C908 1.387 . S
C907 H930 0.930 . S
C908 C906 1.381 . S
C908 C907 1.387 . S
C908 H931 0.931 . S
C909 C902 1.399 . S
C909 C906 1.487 . S
C909 N941 1.343 . S
C910 C911 1.384 . S
C910 C912 1.384 . S
C910 H932 0.931 . S
C911 C910 1.384 . S
C911 C914 1.382 . S
C912 C910 1.384 . S
C912 C913 1.381 . S
C912 H933 0.930 . S
C913 C912 1.381 . S
C913 C915 1.381 . S
C913 C916 1.487 . S
C914 C911 1.382 . S
C914 C915 1.387 . S
C914 H934 0.930 . S
C915 C913 1.381 . S
C915 C914 1.387 . S
C915 H935 0.931 . S
C916 C913 1.487 . S
C916 C923 1.399 . S
C916 N941 1.343 . S
C917 C918 1.384 . S
C917 C919 1.384 . S
C917 H936 0.931 . S
C918 C917 1.384 . S
C918 C921 1.382 . S
C919 C917 1.384 . S
C919 C920 1.381 . S
C919 H937 0.930 . S
C920 C919 1.381 . S
C920 C922 1.381 . S
C920 C923 1.487 . S
C921 C918 1.382 . S
C921 C922 1.387 . S
C921 H938 0.930 . S
C922 C920 1.381 . S
C922 C921 1.387 . S
C922 H939 0.931 . S
C923 C916 1.399 . S
C923 C920 1.487 . S
C923 N940 1.343 . S
H924 C896 0.931 . S
H925 C898 0.930 . S
H926 C900 0.930 . S
H927 C901 0.931 . S
H928 C903 0.931 . S
H929 C905 0.930 . S
H930 C907 0.930 . S
H931 C908 0.931 . S
H932 C910 0.931 . S
H933 C912 0.930 . S
H934 C914 0.930 . S
H935 C915 0.931 . S
H936 C917 0.931 . S
H937 C919 0.930 . S
H938 C921 0.930 . S
H939 C922 0.931 . S
N940 C902 1.343 . S
N940 C923 1.343 . S
N941 C909 1.343 . S
N941 C916 1.343 . S
C942 C943 1.384 . S
C942 C944 1.384 . S
C942 H970 0.931 . S
C943 C942 1.384 . S
C943 C946 1.382 . S
C944 C942 1.384 . S
C944 C945 1.381 . S
C944 H971 0.930 . S
C945 C944 1.381 . S
C945 C947 1.381 . S
C945 C948 1.487 . S
C946 C943 1.382 . S
C946 C947 1.387 . S
C946 H972 0.930 . S
C947 C945 1.381 . S
C947 C946 1.387 . S
C947 H973 0.931 . S
C948 C945 1.487 . S
C948 C955 1.399 . S
C948 N986 1.343 . S
C949 C950 1.384 . S
C949 C951 1.384 . S
C949 H974 0.931 . S
C950 C949 1.384 . S
C950 C953 1.382 . S
C951 C949 1.384 . S
C951 C952 1.381 . S
C951 H975 0.930 . S
C952 C951 1.381 . S
C952 C954 1.381 . S
C952 C955 1.487 . S
C953 C950 1.382 . S
C953 C954 1.387 . S
C953 H976 0.930 . S
C954 C952 1.381 . S
C954 C953 1.387 . S
C954 H977 0.931 . S
C955 C948 1.399 . S
C955 C952 1.487 . S
C955 N987 1.343 . S
C956 C957 1.384 . S
C956 C958 1.384 . S
C956 H978 0.931 . S
C957 C956 1.384 . S
C957 C960 1.382 . S
C958 C956 1.384 . S
C958 C959 1.381 . S
C958 H979 0.930 . S
C959 C958 1.381 . S
C959 C961 1.381 . S
C959 C962 1.487 . S
C960 C957 1.382 . S
C960 C961 1.387 . S
C960 H980 0.930 . S
C961 C959 1.381 . S
C961 C960 1.387 . S
C961 H981 0.931 . S
C962 C959 1.487 . S
C962 C969 1.399 . S
C962 N987 1.343 . S
C963 C964 1.384 . S
C963 C965 1.384 . S
C963 H982 0.931 . S
C964 C963 1.384 . S
C964 C967 1.382 . S
C965 C963 1.384 . S
C965 C966 1.381 . S
C965 H983 0.930 . S
C966 C965 1.381 . S
C966 C968 1.381 . S
C966 C969 1.487 . S
C967 C964 1.382 . S
C967 C968 1.387 . S
C967 H984 0.930 . S
C968 C966 1.381 . S
C968 C967 1.387 . S
C968 H985 0.931 . S
C969 C962 1.399 . S
C969 C966 1.487 . S
C969 N986 1.343 . S
H970 C942 0.931 . S
H971 C944 0.930 . S
H972 C946 0.930 . S
H973 C947 0.931 . S
H974 C949 0.931 . S
H975 C951 0.930 . S
H976 C953 0.930 . S
H977 C954 0.931 . S
H978 C956 0.931 . S
H979 C958 0.930 . S
H980 C960 0.930 . S
H981 C961 0.931 . S
H982 C963 0.931 . S
H983 C965 0.930 . S
H984 C967 0.930 . S
H985 C968 0.931 . S
N986 C948 1.343 . S
N986 C969 1.343 . S
N987 C955 1.343 . S
N987 C962 1.343 . S
C988 C989 1.384 . S
C988 C990 1.384 . S
C988 H1016 0.931 . S
C989 C988 1.384 . S
C989 C992 1.382 . S
C990 C988 1.384 . S
C990 C991 1.381 . S
C990 H1017 0.930 . S
C991 C990 1.381 . S
C991 C993 1.381 . S
C991 C994 1.487 . S
C992 C989 1.382 . S
C992 C993 1.387 . S
C992 H1018 0.930 . S
C993 C991 1.381 . S
C993 C992 1.387 . S
C993 H1019 0.931 . S
C994 C991 1.487 . S
C994 C1001 1.399 . S
C994 N1032 1.343 . S
C995 C996 1.384 . S
C995 C997 1.384 . S
C995 H1020 0.931 . S
C996 C995 1.384 . S
C996 C999 1.382 . S
C997 C995 1.384 . S
C997 C998 1.381 . S
C997 H1021 0.930 . S
C998 C997 1.381 . S
C998 C1000 1.381 . S
C998 C1001 1.487 . S
C999 C996 1.382 . S
C999 C1000 1.387 . S
C999 H1022 0.930 . S
C1000 C998 1.381 . S
C1000 C999 1.387 . S
C1000 H1023 0.931 . S
C1001 C994 1.399 . S
C1001 C998 1.487 . S
C1001 N1033 1.343 . S
C1002 C1003 1.384 . S
C1002 C1004 1.384 . S
C1002 H1024 0.931 . S
C1003 C1002 1.384 . S
C1003 C1006 1.382 . S
C1004 C1002 1.384 . S
C1004 C1005 1.381 . S
C1004 H1025 0.930 . S
C1005 C1004 1.381 . S
C1005 C1007 1.381 . S
C1005 C1008 1.487 . S
C1006 C1003 1.382 . S
C1006 C1007 1.387 . S
C1006 H1026 0.930 . S
C1007 C1005 1.381 . S
C1007 C1006 1.387 . S
C1007 H1027 0.931 . S
C1008 C1005 1.487 . S
C1008 C1015 1.399 . S
C1008 N1033 1.343 . S
C1009 C1010 1.384 . S
C1009 C1011 1.384 . S
C1009 H1028 0.931 . S
C1010 C1009 1.384 . S
C1010 C1013 1.382 . S
C1011 C1009 1.384 . S
C1011 C1012 1.381 . S
C1011 H1029 0.930 . S
C1012 C1011 1.381 . S
C1012 C1014 1.381 . S
C1012 C1015 1.487 . S
C1013 C1010 1.382 . S
C1013 C1014 1.387 . S
C1013 H1030 0.930 . S
C1014 C1012 1.381 . S
C1014 C1013 1.387 . S
C1014 H1031 0.931 . S
C1015 C1008 1.399 . S
C1015 C1012 1.487 . S
C1015 N1032 1.343 . S
H1016 C988 0.931 . S
H1017 C990 0.930 . S
H1018 C992 0.930 . S
H1019 C993 0.931 . S
H1020 C995 0.931 . S
H1021 C997 0.930 . S
H1022 C999 0.930 . S
H1023 C1000 0.931 . S
H1024 C1002 0.931 . S
H1025 C1004 0.930 . S
H1026 C1006 0.930 . S
H1027 C1007 0.931 . S
H1028 C1009 0.931 . S
H1029 C1011 0.930 . S
H1030 C1013 0.930 . S
H1031 C1014 0.931 . S
N1032 C994 1.343 . S
N1032 C1015 1.343 . S
N1033 C1001 1.343 . S
N1033 C1008 1.343 . S
C1034 C1035 1.384 . S
C1034 C1036 1.384 . S
C1034 H1062 0.931 . S
C1035 C1034 1.384 . S
C1035 C1038 1.382 . S
C1036 C1034 1.384 . S
C1036 C1037 1.381 . S
C1036 H1063 0.930 . S
C1037 C1036 1.381 . S
C1037 C1039 1.381 . S
C1037 C1040 1.487 . S
C1038 C1035 1.382 . S
C1038 C1039 1.387 . S
C1038 H1064 0.930 . S
C1039 C1037 1.381 . S
C1039 C1038 1.387 . S
C1039 H1065 0.931 . S
C1040 C1037 1.487 . S
C1040 C1047 1.399 . S
C1040 N1078 1.343 . S
C1041 C1042 1.384 . S
C1041 C1043 1.384 . S
C1041 H1066 0.931 . S
C1042 C1041 1.384 . S
C1042 C1045 1.382 . S
C1043 C1041 1.384 . S
C1043 C1044 1.381 . S
C1043 H1067 0.930 . S
C1044 C1043 1.381 . S
C1044 C1046 1.381 . S
C1044 C1047 1.487 . S
C1045 C1042 1.382 . S
C1045 C1046 1.387 . S
C1045 H1068 0.930 . S
C1046 C1044 1.381 . S
C1046 C1045 1.387 . S
C1046 H1069 0.931 . S
C1047 C1040 1.399 . S
C1047 C1044 1.487 . S
C1047 N1079 1.343 . S
C1048 C1049 1.384 . S
C1048 C1050 1.384 . S
C1048 H1070 0.931 . S
C1049 C1048 1.384 . S
C1049 C1052 1.382 . S
C1050 C1048 1.384 . S
C1050 C1051 1.381 . S
C1050 H1071 0.930 . S
C1051 C1050 1.381 . S
C1051 C1053 1.381 . S
C1051 C1054 1.487 . S
C1052 C1049 1.382 . S
C1052 C1053 1.387 . S
C1052 H1072 0.930 . S
C1053 C1051 1.381 . S
C1053 C1052 1.387 . S
C1053 H1073 0.931 . S
C1054 C1051 1.487 . S
C1054 C1061 1.399 . S
C1054 N1079 1.343 . S
C1055 C1056 1.384 . S
C1055 C1057 1.384 . S
C1055 H1074 0.931 . S
C1056 C1055 1.384 . S
C1056 C1059 1.382 . S
C1057 C1055 1.384 . S
C1057 C1058 1.381 . S
C1057 H1075 0.930 . S
C1058 C1057 1.381 . S
C1058 C1060 1.381 . S
C1058 C1061 1.487 . S
C1059 C1056 1.382 . S
C1059 C1060 1.387 . S
C1059 H1076 0.930 . S
C1060 C1058 1.381 . S
C1060 C1059 1.387 . S
C1060 H1077 0.931 . S
C1061 C1054 1.399 . S
C1061 C1058 1.487 . S
C1061 N1078 1.343 . S
H1062 C1034 0.931 . S
H1063 C1036 0.930 . S
H1064 C1038 0.930 . S
H1065 C1039 0.931 . S
H1066 C1041 0.931 . S
H1067 C1043 0.930 . S
H1068 C1045 0.930 . S
H1069 C1046 0.931 . S
H1070 C1048 0.931 . S
H1071 C1050 0.930 . S
H1072 C1052 0.930 . S
H1073 C1053 0.931 . S
H1074 C1055 0.931 . S
H1075 C1057 0.930 . S
H1076 C1059 0.930 . S
H1077 C1060 0.931 . S
N1078 C1040 1.343 . S
N1078 C1061 1.343 . S
N1079 C1047 1.343 . S
N1079 C1054 1.343 . S
C1080 C1081 1.369 . S
C1080 C1082 1.419 . S
C1080 H1084 0.930 . S
C1081 C1080 1.369 . S
C1081 C1090 1.429 1_655 S
C1082 C1080 1.419 . S
C1082 C1083 1.363 . S
C1082 H1085 0.929 . S
C1083 C1082 1.363 . S
C1083 C1089 1.428 1_655 S
H1084 C1080 0.930 . S
H1085 C1082 0.929 . S
S1086 N1087 1.613 . S
S1086 N1088 1.610 . S
N1087 S1086 1.613 . S
N1087 C1090 1.350 . S
N1088 S1086 1.610 . S
N1088 C1089 1.351 . S
C1089 C1083 1.428 1_455 S
C1089 N1088 1.351 . S
C1089 C1090 1.434 . S
C1090 C1081 1.429 1_455 S
C1090 N1087 1.350 . S
C1090 C1089 1.434 . S
C1091 C1092 1.369 . S
C1091 C1093 1.419 . S
C1091 H1095 0.930 . S
C1092 C1091 1.369 . S
C1092 C1101 1.429 . S
C1093 C1091 1.419 . S
C1093 C1094 1.363 . S
C1093 H1096 0.929 . S
C1094 C1093 1.363 . S
C1094 C1100 1.428 . S
H1095 C1091 0.930 . S
H1096 C1093 0.929 . S
S1097 N1098 1.613 . S
S1097 N1099 1.610 . S
N1098 S1097 1.613 . S
N1098 C1101 1.350 . S
N1099 S1097 1.610 . S
N1099 C1100 1.351 . S
C1100 C1094 1.428 . S
C1100 N1099 1.351 . S
C1100 C1101 1.434 . S
C1101 C1092 1.429 . S
C1101 N1098 1.350 . S
C1101 C1100 1.434 . S
C1102 C1103 1.369 1_565 S
C1102 C1104 1.419 . S
C1102 H1106 0.930 . S
C1103 C1102 1.369 1_545 S
C1103 C1112 1.429 . S
C1104 C1102 1.419 . S
C1104 C1105 1.363 1_565 S
C1104 H1107 0.929 . S
C1105 C1104 1.363 1_545 S
C1105 C1111 1.428 . S
H1106 C1102 0.930 . S
H1107 C1104 0.929 . S
S1108 N1109 1.613 . S
S1108 N1110 1.610 . S
N1109 S1108 1.613 . S
N1109 C1112 1.350 . S
N1110 S1108 1.610 . S
N1110 C1111 1.351 . S
C1111 C1105 1.428 . S
C1111 N1110 1.351 . S
C1111 C1112 1.434 . S
C1112 C1103 1.429 . S
C1112 N1109 1.350 . S
C1112 C1111 1.434 . S
C1113 C1114 1.369 . S
C1113 C1115 1.419 . S
C1113 H1117 0.930 . S
C1114 C1113 1.369 . S
C1114 C1123 1.429 1_565 S
C1115 C1113 1.419 . S
C1115 C1116 1.363 . S
C1115 H1118 0.929 . S
C1116 C1115 1.363 . S
C1116 C1122 1.428 1_565 S
H1117 C1113 0.930 . S
H1118 C1115 0.929 . S
S1119 N1120 1.613 . S
S1119 N1121 1.610 . S
N1120 S1119 1.613 . S
N1120 C1123 1.350 . S
N1121 S1119 1.610 . S
N1121 C1122 1.351 . S
C1122 C1116 1.428 1_545 S
C1122 N1121 1.351 . S
C1122 C1123 1.434 . S
C1123 C1114 1.429 1_545 S
C1123 N1120 1.350 . S
C1123 C1122 1.434 . S
C1124 C1125 1.369 . S
C1124 C1126 1.419 . S
C1124 H1128 0.930 . S
C1125 C1124 1.369 . S
C1125 C1134 1.429 1_455 S
C1126 C1124 1.419 . S
C1126 C1127 1.363 . S
C1126 H1129 0.929 . S
C1127 C1126 1.363 . S
C1127 C1133 1.428 1_455 S
H1128 C1124 0.930 . S
H1129 C1126 0.929 . S
S1130 N1131 1.613 . S
S1130 N1132 1.610 . S
N1131 S1130 1.613 . S
N1131 C1134 1.350 . S
N1132 S1130 1.610 . S
N1132 C1133 1.351 . S
C1133 C1127 1.428 1_655 S
C1133 N1132 1.351 . S
C1133 C1134 1.434 . S
C1134 C1125 1.429 1_655 S
C1134 N1131 1.350 . S
C1134 C1133 1.434 . S
C1135 C1136 1.369 . S
C1135 C1137 1.419 . S
C1135 H1139 0.930 . S
C1136 C1135 1.369 . S
C1136 C1145 1.429 . S
C1137 C1135 1.419 . S
C1137 C1138 1.363 . S
C1137 H1140 0.929 . S
C1138 C1137 1.363 . S
C1138 C1144 1.428 . S
H1139 C1135 0.930 . S
H1140 C1137 0.929 . S
S1141 N1142 1.613 . S
S1141 N1143 1.610 . S
N1142 S1141 1.613 . S
N1142 C1145 1.350 . S
N1143 S1141 1.610 . S
N1143 C1144 1.351 . S
C1144 C1138 1.428 . S
C1144 N1143 1.351 . S
C1144 C1145 1.434 . S
C1145 C1136 1.429 . S
C1145 N1142 1.350 . S
C1145 C1144 1.434 . S
C1146 C1147 1.369 1_655 S
C1146 C1148 1.419 . S
C1146 H1150 0.930 . S
C1147 C1146 1.369 1_455 S
C1147 C1156 1.429 . S
C1148 C1146 1.419 . S
C1148 C1149 1.363 1_655 S
C1148 H1151 0.929 . S
C1149 C1148 1.363 1_455 S
C1149 C1155 1.428 . S
H1150 C1146 0.930 . S
H1151 C1148 0.929 . S
S1152 N1153 1.613 . S
S1152 N1154 1.610 . S
N1153 S1152 1.613 . S
N1153 C1156 1.350 . S
N1154 S1152 1.610 . S
N1154 C1155 1.351 . S
C1155 C1149 1.428 . S
C1155 N1154 1.351 . S
C1155 C1156 1.434 . S
C1156 C1147 1.429 . S
C1156 N1153 1.350 . S
C1156 C1155 1.434 . S
C1157 C1158 1.369 . S
C1157 C1159 1.419 . S
C1157 H1161 0.930 . S
C1158 C1157 1.369 . S
C1158 C1167 1.429 . S
C1159 C1157 1.419 . S
C1159 C1160 1.363 . S
C1159 H1162 0.929 . S
C1160 C1159 1.363 . S
C1160 C1166 1.428 . S
H1161 C1157 0.930 . S
H1162 C1159 0.929 . S
S1163 N1164 1.613 . S
S1163 N1165 1.610 . S
N1164 S1163 1.613 . S
N1164 C1167 1.350 . S
N1165 S1163 1.610 . S
N1165 C1166 1.351 . S
C1166 C1160 1.428 . S
C1166 N1165 1.351 . S
C1166 C1167 1.434 . S
C1167 C1158 1.429 . S
C1167 N1164 1.350 . S
C1167 C1166 1.434 . S
C1168 C1169 1.376 . S
C1168 C1170 1.411 . S
C1168 H1172 0.950 1_565 S
C1169 C1168 1.376 . S
C1169 C1178 1.429 . S
C1170 C1168 1.411 . S
C1170 C1171 1.350 . S
C1170 H1173 0.928 1_565 S
C1171 C1170 1.350 . S
C1171 C1177 1.428 . S
H1172 C1168 0.950 1_545 S
H1173 C1170 0.928 1_545 S
S1174 N1175 1.613 . S
S1174 N1176 1.610 . S
N1175 S1174 1.613 . S
N1175 C1178 1.350 . S
N1176 S1174 1.610 . S
N1176 C1177 1.351 . S
C1177 C1171 1.428 . S
C1177 N1176 1.351 . S
C1177 C1178 1.434 . S
C1178 C1169 1.429 . S
C1178 N1175 1.350 . S
C1178 C1177 1.434 . S
C1179 C1180 1.369 . S
C1179 C1181 1.419 . S
C1179 H1183 0.930 . S
C1180 C1179 1.369 . S
C1180 C1189 1.429 1_545 S
C1181 C1179 1.419 . S
C1181 C1182 1.363 . S
C1181 H1184 0.929 . S
C1182 C1181 1.363 . S
C1182 C1188 1.428 1_545 S
H1183 C1179 0.930 . S
H1184 C1181 0.929 . S
S1185 N1186 1.613 . S
S1185 N1187 1.610 . S
N1186 S1185 1.613 . S
N1186 C1189 1.350 . S
N1187 S1185 1.610 . S
N1187 C1188 1.351 . S
C1188 C1182 1.428 1_565 S
C1188 N1187 1.351 . S
C1188 C1189 1.434 . S
C1189 C1180 1.429 1_565 S
C1189 N1186 1.350 . S
C1189 C1188 1.434 . S
C1190 C1191 1.369 1_455 S
C1190 C1192 1.419 . S
C1190 H1194 0.930 . S
C1191 C1190 1.369 1_655 S
C1191 C1200 1.429 . S
C1192 C1190 1.419 . S
C1192 C1193 1.363 1_455 S
C1192 H1195 0.929 . S
C1193 C1192 1.363 1_655 S
C1193 C1199 1.428 . S
H1194 C1190 0.930 . S
H1195 C1192 0.929 . S
S1196 N1197 1.613 . S
S1196 N1198 1.610 . S
N1197 S1196 1.613 . S
N1197 C1200 1.350 . S
N1198 S1196 1.610 . S
N1198 C1199 1.351 . S
C1199 C1193 1.428 . S
C1199 N1198 1.351 . S
C1199 C1200 1.434 . S
C1200 C1191 1.429 . S
C1200 N1197 1.350 . S
C1200 C1199 1.434 . S
C1201 C1202 1.369 . S
C1201 C1203 1.419 . S
C1201 H1205 0.930 . S
C1202 C1201 1.369 . S
C1202 C1211 1.429 . S
C1203 C1201 1.419 . S
C1203 C1204 1.363 . S
C1203 H1206 0.929 . S
C1204 C1203 1.363 . S
C1204 C1210 1.428 . S
H1205 C1201 0.930 . S
H1206 C1203 0.929 . S
S1207 N1208 1.613 . S
S1207 N1209 1.610 . S
N1208 S1207 1.613 . S
N1208 C1211 1.350 . S
N1209 S1207 1.610 . S
N1209 C1210 1.351 . S
C1210 C1204 1.428 . S
C1210 N1209 1.351 . S
C1210 C1211 1.434 . S
C1211 C1202 1.429 . S
C1211 N1208 1.350 . S
C1211 C1210 1.434 . S
C1212 C1213 1.369 . S
C1212 C1214 1.419 . S
C1212 H1216 0.930 . S
C1213 C1212 1.369 . S
C1213 C1222 1.429 . S
C1214 C1212 1.419 . S
C1214 C1215 1.363 . S
C1214 H1217 0.929 . S
C1215 C1214 1.363 . S
C1215 C1221 1.428 . S
H1216 C1212 0.930 . S
H1217 C1214 0.929 . S
S1218 N1219 1.613 . S
S1218 N1220 1.610 . S
N1219 S1218 1.613 . S
N1219 C1222 1.350 . S
N1220 S1218 1.610 . S
N1220 C1221 1.351 . S
C1221 C1215 1.428 . S
C1221 N1220 1.351 . S
C1221 C1222 1.434 . S
C1222 C1213 1.429 . S
C1222 N1219 1.350 . S
C1222 C1221 1.434 . S
C1223 C1224 1.369 . S
C1223 C1225 1.419 . S
C1223 H1227 0.930 . S
C1224 C1223 1.369 . S
C1224 C1233 1.429 . S
C1225 C1223 1.419 . S
C1225 C1226 1.363 . S
C1225 H1228 0.929 . S
C1226 C1225 1.363 . S
C1226 C1232 1.428 . S
H1227 C1223 0.930 . S
H1228 C1225 0.929 . S
S1229 N1230 1.613 . S
S1229 N1231 1.610 . S
N1230 S1229 1.613 . S
N1230 C1233 1.350 . S
N1231 S1229 1.610 . S
N1231 C1232 1.351 . S
C1232 C1226 1.428 . S
C1232 N1231 1.351 . S
C1232 C1233 1.434 . S
C1233 C1224 1.429 . S
C1233 N1230 1.350 . S
C1233 C1232 1.434 . S
C1234 C1235 1.369 . S
C1234 C1236 1.419 . S
C1234 H1238 0.930 . S
C1235 C1234 1.369 . S
C1235 C1244 1.429 . S
C1236 C1234 1.419 . S
C1236 C1237 1.363 . S
C1236 H1239 0.929 . S
C1237 C1236 1.363 . S
C1237 C1243 1.428 . S
H1238 C1234 0.930 . S
H1239 C1236 0.929 . S
S1240 N1241 1.613 . S
S1240 N1242 1.610 . S
N1241 S1240 1.613 . S
N1241 C1244 1.350 . S
N1242 S1240 1.610 . S
N1242 C1243 1.351 . S
C1243 C1237 1.428 . S
C1243 N1242 1.351 . S
C1243 C1244 1.434 . S
C1244 C1235 1.429 . S
C1244 N1241 1.350 . S
C1244 C1243 1.434 . S
C1245 C1246 1.369 . S
C1245 C1247 1.419 . S
C1245 H1249 0.930 . S
C1246 C1245 1.369 . S
C1246 C1255 1.429 . S
C1247 C1245 1.419 . S
C1247 C1248 1.363 . S
C1247 H1250 0.929 . S
C1248 C1247 1.363 . S
C1248 C1254 1.428 . S
H1249 C1245 0.930 . S
H1250 C1247 0.929 . S
S1251 N1252 1.613 . S
S1251 N1253 1.610 . S
N1252 S1251 1.613 . S
N1252 C1255 1.350 . S
N1253 S1251 1.610 . S
N1253 C1254 1.351 . S
C1254 C1248 1.428 . S
C1254 N1253 1.351 . S
C1254 C1255 1.434 . S
C1255 C1246 1.429 . S
C1255 N1252 1.350 . S
C1255 C1254 1.434 . S
C1256 C1257 1.369 . S
C1256 C1258 1.419 . S
C1256 H1260 0.930 . S
C1257 C1256 1.369 . S
C1257 C1266 1.429 . S
C1258 C1256 1.419 . S
C1258 C1259 1.363 . S
C1258 H1261 0.929 . S
C1259 C1258 1.363 . S
C1259 C1265 1.428 . S
H1260 C1256 0.930 . S
H1261 C1258 0.929 . S
S1262 N1263 1.613 . S
S1262 N1264 1.610 . S
N1263 S1262 1.613 . S
N1263 C1266 1.350 . S
N1264 S1262 1.610 . S
N1264 C1265 1.351 . S
C1265 C1259 1.428 . S
C1265 N1264 1.351 . S
C1265 C1266 1.434 . S
C1266 C1257 1.429 . S
C1266 N1263 1.350 . S
C1266 C1265 1.434 . S
C1267 C1268 1.369 . S
C1267 C1269 1.419 . S
C1267 H1271 0.930 . S
C1268 C1267 1.369 . S
C1268 C1277 1.429 . S
C1269 C1267 1.419 . S
C1269 C1270 1.363 . S
C1269 H1272 0.929 . S
C1270 C1269 1.363 . S
C1270 C1276 1.428 . S
H1271 C1267 0.930 . S
H1272 C1269 0.929 . S
S1273 N1274 1.613 . S
S1273 N1275 1.610 . S
N1274 S1273 1.613 . S
N1274 C1277 1.350 . S
N1275 S1273 1.610 . S
N1275 C1276 1.351 . S
C1276 C1270 1.428 . S
C1276 N1275 1.351 . S
C1276 C1277 1.434 . S
C1277 C1268 1.429 . S
C1277 N1274 1.350 . S
C1277 C1276 1.434 . S
C1278 C1279 1.369 . S
C1278 C1280 1.419 . S
C1278 H1282 0.930 . S
C1279 C1278 1.369 . S
C1279 C1288 1.429 . S
C1280 C1278 1.419 . S
C1280 C1281 1.363 . S
C1280 H1283 0.929 . S
C1281 C1280 1.363 . S
C1281 C1287 1.428 . S
H1282 C1278 0.930 . S
H1283 C1280 0.929 . S
S1284 N1285 1.613 . S
S1284 N1286 1.610 . S
N1285 S1284 1.613 . S
N1285 C1288 1.350 . S
N1286 S1284 1.610 . S
N1286 C1287 1.351 . S
C1287 C1281 1.428 . S
C1287 N1286 1.351 . S
C1287 C1288 1.434 . S
C1288 C1279 1.429 . S
C1288 N1285 1.350 . S
C1288 C1287 1.434 . S
C1289 C1290 1.369 . S
C1289 C1291 1.419 . S
C1289 H1293 0.930 . S
C1290 C1289 1.369 . S
C1290 C1299 1.429 . S
C1291 C1289 1.419 . S
C1291 C1292 1.363 . S
C1291 H1294 0.929 . S
C1292 C1291 1.363 . S
C1292 C1298 1.428 . S
H1293 C1289 0.930 . S
H1294 C1291 0.929 . S
S1295 N1296 1.613 . S
S1295 N1297 1.610 . S
N1296 S1295 1.613 . S
N1296 C1299 1.350 . S
N1297 S1295 1.610 . S
N1297 C1298 1.351 . S
C1298 C1292 1.428 . S
C1298 N1297 1.351 . S
C1298 C1299 1.434 . S
C1299 C1290 1.429 . S
C1299 N1296 1.350 . S
C1299 C1298 1.434 . S
C1300 C1301 1.369 . S
C1300 C1302 1.419 . S
C1300 H1304 0.930 . S
C1301 C1300 1.369 . S
C1301 C1310 1.429 . S
C1302 C1300 1.419 . S
C1302 C1303 1.363 . S
C1302 H1305 0.929 . S
C1303 C1302 1.363 . S
C1303 C1309 1.428 . S
H1304 C1300 0.930 . S
H1305 C1302 0.929 . S
S1306 N1307 1.613 . S
S1306 N1308 1.610 . S
N1307 S1306 1.613 . S
N1307 C1310 1.350 . S
N1308 S1306 1.610 . S
N1308 C1309 1.351 . S
C1309 C1303 1.428 . S
C1309 N1308 1.351 . S
C1309 C1310 1.434 . S
C1310 C1301 1.429 . S
C1310 N1307 1.350 . S
C1310 C1309 1.434 . S
C1311 C1312 1.369 . S
C1311 C1313 1.419 . S
C1311 H1315 0.930 . S
C1312 C1311 1.369 . S
C1312 C1321 1.429 . S
C1313 C1311 1.419 . S
C1313 C1314 1.363 . S
C1313 H1316 0.929 . S
C1314 C1313 1.363 . S
C1314 C1320 1.428 . S
H1315 C1311 0.930 . S
H1316 C1313 0.929 . S
S1317 N1318 1.613 . S
S1317 N1319 1.610 . S
N1318 S1317 1.613 . S
N1318 C1321 1.350 . S
N1319 S1317 1.610 . S
N1319 C1320 1.351 . S
C1320 C1314 1.428 . S
C1320 N1319 1.351 . S
C1320 C1321 1.434 . S
C1321 C1312 1.429 . S
C1321 N1318 1.350 . S
C1321 C1320 1.434 . S
C1322 C1323 1.369 . S
C1322 C1324 1.419 . S
C1322 H1326 0.930 . S
C1323 C1322 1.369 . S
C1323 C1332 1.429 . S
C1324 C1322 1.419 . S
C1324 C1325 1.363 . S
C1324 H1327 0.929 . S
C1325 C1324 1.363 . S
C1325 C1331 1.428 . S
H1326 C1322 0.930 . S
H1327 C1324 0.929 . S
S1328 N1329 1.613 . S
S1328 N1330 1.610 . S
N1329 S1328 1.613 . S
N1329 C1332 1.350 . S
N1330 S1328 1.610 . S
N1330 C1331 1.351 . S
C1331 C1325 1.428 . S
C1331 N1330 1.351 . S
C1331 C1332 1.434 . S
C1332 C1323 1.429 . S
C1332 N1329 1.350 . S
C1332 C1331 1.434 . S
C1333 C1334 1.369 . S
C1333 C1335 1.419 . S
C1333 H1337 0.930 . S
C1334 C1333 1.369 . S
C1334 C1343 1.429 . S
C1335 C1333 1.419 . S
C1335 C1336 1.363 . S
C1335 H1338 0.929 . S
C1336 C1335 1.363 . S
C1336 C1342 1.428 . S
H1337 C1333 0.930 . S
H1338 C1335 0.929 . S
S1339 N1340 1.613 . S
S1339 N1341 1.610 . S
N1340 S1339 1.613 . S
N1340 C1343 1.350 . S
N1341 S1339 1.610 . S
N1341 C1342 1.351 . S
C1342 C1336 1.428 . S
C1342 N1341 1.351 . S
C1342 C1343 1.434 . S
C1343 C1334 1.429 . S
C1343 N1340 1.350 . S
C1343 C1342 1.434 . S
C1344 C1345 1.369 . S
C1344 C1346 1.419 . S
C1344 H1348 0.930 . S
C1345 C1344 1.369 . S
C1345 C1354 1.429 . S
C1346 C1344 1.419 . S
C1346 C1347 1.363 . S
C1346 H1349 0.929 . S
C1347 C1346 1.363 . S
C1347 C1353 1.428 . S
H1348 C1344 0.930 . S
H1349 C1346 0.929 . S
S1350 N1351 1.613 . S
S1350 N1352 1.610 . S
N1351 S1350 1.613 . S
N1351 C1354 1.350 . S
N1352 S1350 1.610 . S
N1352 C1353 1.351 . S
C1353 C1347 1.428 . S
C1353 N1352 1.351 . S
C1353 C1354 1.434 . S
C1354 C1345 1.429 . S
C1354 N1351 1.350 . S
C1354 C1353 1.434 . S
C1355 C1356 1.369 . S
C1355 C1357 1.419 . S
C1355 H1359 0.930 . S
C1356 C1355 1.369 . S
C1356 C1365 1.429 . S
C1357 C1355 1.419 . S
C1357 C1358 1.363 . S
C1357 H1360 0.929 . S
C1358 C1357 1.363 . S
C1358 C1364 1.428 . S
H1359 C1355 0.930 . S
H1360 C1357 0.929 . S
S1361 N1362 1.613 . S
S1361 N1363 1.610 . S
N1362 S1361 1.613 . S
N1362 C1365 1.350 . S
N1363 S1361 1.610 . S
N1363 C1364 1.351 . S
C1364 C1358 1.428 . S
C1364 N1363 1.351 . S
C1364 C1365 1.434 . S
C1365 C1356 1.429 . S
C1365 N1362 1.350 . S
C1365 C1364 1.434 . S
C1366 C1367 1.369 . S
C1366 C1368 1.419 . S
C1366 H1370 0.930 . S
C1367 C1366 1.369 . S
C1367 C1376 1.429 . S
C1368 C1366 1.419 . S
C1368 C1369 1.363 . S
C1368 H1371 0.929 . S
C1369 C1368 1.363 . S
C1369 C1375 1.428 . S
H1370 C1366 0.930 . S
H1371 C1368 0.929 . S
S1372 N1373 1.613 . S
S1372 N1374 1.610 . S
N1373 S1372 1.613 . S
N1373 C1376 1.350 . S
N1374 S1372 1.610 . S
N1374 C1375 1.351 . S
C1375 C1369 1.428 . S
C1375 N1374 1.351 . S
C1375 C1376 1.434 . S
C1376 C1367 1.429 . S
C1376 N1373 1.350 . S
C1376 C1375 1.434 . S
C1377 C1378 1.369 . S
C1377 C1379 1.419 . S
C1377 H1381 0.930 . S
C1378 C1377 1.369 . S
C1378 C1387 1.429 . S
C1379 C1377 1.419 . S
C1379 C1380 1.363 . S
C1379 H1382 0.929 . S
C1380 C1379 1.363 . S
C1380 C1386 1.428 . S
H1381 C1377 0.930 . S
H1382 C1379 0.929 . S
S1383 N1384 1.613 . S
S1383 N1385 1.610 . S
N1384 S1383 1.613 . S
N1384 C1387 1.350 . S
N1385 S1383 1.610 . S
N1385 C1386 1.351 . S
C1386 C1380 1.428 . S
C1386 N1385 1.351 . S
C1386 C1387 1.434 . S
C1387 C1378 1.429 . S
C1387 N1384 1.350 . S
C1387 C1386 1.434 . S
C1388 C1389 1.369 . S
C1388 C1390 1.419 . S
C1388 H1392 0.930 . S
C1389 C1388 1.369 . S
C1389 C1398 1.429 . S
C1390 C1388 1.419 . S
C1390 C1391 1.363 . S
C1390 H1393 0.929 . S
C1391 C1390 1.363 . S
C1391 C1397 1.428 . S
H1392 C1388 0.930 . S
H1393 C1390 0.929 . S
S1394 N1395 1.613 . S
S1394 N1396 1.610 . S
N1395 S1394 1.613 . S
N1395 C1398 1.350 . S
N1396 S1394 1.610 . S
N1396 C1397 1.351 . S
C1397 C1391 1.428 . S
C1397 N1396 1.351 . S
C1397 C1398 1.434 . S
C1398 C1389 1.429 . S
C1398 N1395 1.350 . S
C1398 C1397 1.434 . S
C1399 C1400 1.369 . S
C1399 C1401 1.419 . S
C1399 H1403 0.930 . S
C1400 C1399 1.369 . S
C1400 C1409 1.429 . S
C1401 C1399 1.419 . S
C1401 C1402 1.363 . S
C1401 H1404 0.929 . S
C1402 C1401 1.363 . S
C1402 C1408 1.428 . S
H1403 C1399 0.930 . S
H1404 C1401 0.929 . S
S1405 N1406 1.613 . S
S1405 N1407 1.610 . S
N1406 S1405 1.613 . S
N1406 C1409 1.350 . S
N1407 S1405 1.610 . S
N1407 C1408 1.351 . S
C1408 C1402 1.428 . S
C1408 N1407 1.351 . S
C1408 C1409 1.434 . S
C1409 C1400 1.429 . S
C1409 N1406 1.350 . S
C1409 C1408 1.434 . S
C1410 C1411 1.369 . S
C1410 C1412 1.419 . S
C1410 H1414 0.930 . S
C1411 C1410 1.369 . S
C1411 C1420 1.429 . S
C1412 C1410 1.419 . S
C1412 C1413 1.363 . S
C1412 H1415 0.929 . S
C1413 C1412 1.363 . S
C1413 C1419 1.428 . S
H1414 C1410 0.930 . S
H1415 C1412 0.929 . S
S1416 N1417 1.613 . S
S1416 N1418 1.610 . S
N1417 S1416 1.613 . S
N1417 C1420 1.350 . S
N1418 S1416 1.610 . S
N1418 C1419 1.351 . S
C1419 C1413 1.428 . S
C1419 N1418 1.351 . S
C1419 C1420 1.434 . S
C1420 C1411 1.429 . S
C1420 N1417 1.350 . S
C1420 C1419 1.434 . S
C1421 C1422 1.369 . S
C1421 C1423 1.419 . S
C1421 H1425 0.930 . S
C1422 C1421 1.369 . S
C1422 C1431 1.429 . S
C1423 C1421 1.419 . S
C1423 C1424 1.363 . S
C1423 H1426 0.929 . S
C1424 C1423 1.363 . S
C1424 C1430 1.428 . S
H1425 C1421 0.930 . S
H1426 C1423 0.929 . S
S1427 N1428 1.613 . S
S1427 N1429 1.610 . S
N1428 S1427 1.613 . S
N1428 C1431 1.350 . S
N1429 S1427 1.610 . S
N1429 C1430 1.351 . S
C1430 C1424 1.428 . S
C1430 N1429 1.351 . S
C1430 C1431 1.434 . S
C1431 C1422 1.429 . S
C1431 N1428 1.350 . S
C1431 C1430 1.434 . S
C1432 C1433 1.369 . S
C1432 C1434 1.419 . S
C1432 H1436 0.930 . S
C1433 C1432 1.369 . S
C1433 C1442 1.429 . S
C1434 C1432 1.419 . S
C1434 C1435 1.363 . S
C1434 H1437 0.929 . S
C1435 C1434 1.363 . S
C1435 C1441 1.428 . S
H1436 C1432 0.930 . S
H1437 C1434 0.929 . S
S1438 N1439 1.613 . S
S1438 N1440 1.610 . S
N1439 S1438 1.613 . S
N1439 C1442 1.350 . S
N1440 S1438 1.610 . S
N1440 C1441 1.351 . S
C1441 C1435 1.428 . S
C1441 N1440 1.351 . S
C1441 C1442 1.434 . S
C1442 C1433 1.429 . S
C1442 N1439 1.350 . S
C1442 C1441 1.434 . S
C1443 C1444 1.369 . S
C1443 C1445 1.419 . S
C1443 H1447 0.930 . S
C1444 C1443 1.369 . S
C1444 C1453 1.429 . S
C1445 C1443 1.419 . S
C1445 C1446 1.363 . S
C1445 H1448 0.929 . S
C1446 C1445 1.363 . S
C1446 C1452 1.428 . S
H1447 C1443 0.930 . S
H1448 C1445 0.929 . S
S1449 N1450 1.613 . S
S1449 N1451 1.610 . S
N1450 S1449 1.613 . S
N1450 C1453 1.350 . S
N1451 S1449 1.610 . S
N1451 C1452 1.351 . S
C1452 C1446 1.428 . S
C1452 N1451 1.351 . S
C1452 C1453 1.434 . S
C1453 C1444 1.429 . S
C1453 N1450 1.350 . S
C1453 C1452 1.434 . S
C1454 C1455 1.369 . S
C1454 C1456 1.419 . S
C1454 H1458 0.930 . S
C1455 C1454 1.369 . S
C1455 C1464 1.429 . S
C1456 C1454 1.419 . S
C1456 C1457 1.363 . S
C1456 H1459 0.929 . S
C1457 C1456 1.363 . S
C1457 C1463 1.428 . S
H1458 C1454 0.930 . S
H1459 C1456 0.929 . S
S1460 N1461 1.613 . S
S1460 N1462 1.610 . S
N1461 S1460 1.613 . S
N1461 C1464 1.350 . S
N1462 S1460 1.610 . S
N1462 C1463 1.351 . S
C1463 C1457 1.428 . S
C1463 N1462 1.351 . S
C1463 C1464 1.434 . S
C1464 C1455 1.429 . S
C1464 N1461 1.350 . S
C1464 C1463 1.434 . S
C1465 C1466 1.369 . S
C1465 C1467 1.419 . S
C1465 H1469 0.930 . S
C1466 C1465 1.369 . S
C1466 C1475 1.429 . S
C1467 C1465 1.419 . S
C1467 C1468 1.363 . S
C1467 H1470 0.929 . S
C1468 C1467 1.363 . S
C1468 C1474 1.428 . S
H1469 C1465 0.930 . S
H1470 C1467 0.929 . S
S1471 N1472 1.613 . S
S1471 N1473 1.610 . S
N1472 S1471 1.613 . S
N1472 C1475 1.350 . S
N1473 S1471 1.610 . S
N1473 C1474 1.351 . S
C1474 C1468 1.428 . S
C1474 N1473 1.351 . S
C1474 C1475 1.434 . S
C1475 C1466 1.429 . S
C1475 N1472 1.350 . S
C1475 C1474 1.434 . S
C1476 C1477 1.369 . S
C1476 C1478 1.419 . S
C1476 H1480 0.930 . S
C1477 C1476 1.369 . S
C1477 C1486 1.429 . S
C1478 C1476 1.419 . S
C1478 C1479 1.363 . S
C1478 H1481 0.929 . S
C1479 C1478 1.363 . S
C1479 C1485 1.428 . S
H1480 C1476 0.930 . S
H1481 C1478 0.929 . S
S1482 N1483 1.613 . S
S1482 N1484 1.610 . S
N1483 S1482 1.613 . S
N1483 C1486 1.350 . S
N1484 S1482 1.610 . S
N1484 C1485 1.351 . S
C1485 C1479 1.428 . S
C1485 N1484 1.351 . S
C1485 C1486 1.434 . S
C1486 C1477 1.429 . S
C1486 N1483 1.350 . S
C1486 C1485 1.434 . S
C1487 C1488 1.369 . S
C1487 C1489 1.419 . S
C1487 H1491 0.930 . S
C1488 C1487 1.369 . S
C1488 C1497 1.429 . S
C1489 C1487 1.419 . S
C1489 C1490 1.363 . S
C1489 H1492 0.929 . S
C1490 C1489 1.363 . S
C1490 C1496 1.428 . S
H1491 C1487 0.930 . S
H1492 C1489 0.929 . S
S1493 N1494 1.613 . S
S1493 N1495 1.610 . S
N1494 S1493 1.613 . S
N1494 C1497 1.350 . S
N1495 S1493 1.610 . S
N1495 C1496 1.351 . S
C1496 C1490 1.428 . S
C1496 N1495 1.351 . S
C1496 C1497 1.434 . S
C1497 C1488 1.429 . S
C1497 N1494 1.350 . S
C1497 C1496 1.434 . S
C1498 C1499 1.369 . S
C1498 C1500 1.419 . S
C1498 H1502 0.930 . S
C1499 C1498 1.369 . S
C1499 C1508 1.429 . S
C1500 C1498 1.419 . S
C1500 C1501 1.363 . S
C1500 H1503 0.929 . S
C1501 C1500 1.363 . S
C1501 C1507 1.428 . S
H1502 C1498 0.930 . S
H1503 C1500 0.929 . S
S1504 N1505 1.613 . S
S1504 N1506 1.610 . S
N1505 S1504 1.613 . S
N1505 C1508 1.350 . S
N1506 S1504 1.610 . S
N1506 C1507 1.351 . S
C1507 C1501 1.428 . S
C1507 N1506 1.351 . S
C1507 C1508 1.434 . S
C1508 C1499 1.429 . S
C1508 N1505 1.350 . S
C1508 C1507 1.434 . S
C1509 C1510 1.369 . S
C1509 C1511 1.419 . S
C1509 H1513 0.930 . S
C1510 C1509 1.369 . S
C1510 C1519 1.429 . S
C1511 C1509 1.419 . S
C1511 C1512 1.363 . S
C1511 H1514 0.929 . S
C1512 C1511 1.363 . S
C1512 C1518 1.428 . S
H1513 C1509 0.930 . S
H1514 C1511 0.929 . S
S1515 N1516 1.613 . S
S1515 N1517 1.610 . S
N1516 S1515 1.613 . S
N1516 C1519 1.350 . S
N1517 S1515 1.610 . S
N1517 C1518 1.351 . S
C1518 C1512 1.428 . S
C1518 N1517 1.351 . S
C1518 C1519 1.434 . S
C1519 C1510 1.429 . S
C1519 N1516 1.350 . S
C1519 C1518 1.434 . S
C1520 C1521 1.369 . S
C1520 C1522 1.419 . S
C1520 H1524 0.950 . S
C1521 C1520 1.369 . S
C1521 C1530 1.429 . S
C1522 C1520 1.419 . S
C1522 C1523 1.363 . S
C1522 H1525 0.929 . S
C1523 C1522 1.363 . S
C1523 C1529 1.428 . S
H1524 C1520 0.950 . S
H1525 C1522 0.929 . S
S1526 N1527 1.613 . S
S1526 N1528 1.610 . S
N1527 S1526 1.613 . S
N1527 C1530 1.350 . S
N1528 S1526 1.610 . S
N1528 C1529 1.351 . S
C1529 C1523 1.428 . S
C1529 N1528 1.351 . S
C1529 C1530 1.434 . S
C1530 C1521 1.429 . S
C1530 N1527 1.350 . S
C1530 C1529 1.434 . S
C1531 C1532 1.369 . S
C1531 C1533 1.419 . S
C1531 H1535 0.930 . S
C1532 C1531 1.369 . S
C1532 C1541 1.429 . S
C1533 C1531 1.419 . S
C1533 C1534 1.363 . S
C1533 H1536 0.929 . S
C1534 C1533 1.363 . S
C1534 C1540 1.428 . S
H1535 C1531 0.930 . S
H1536 C1533 0.929 . S
S1537 N1538 1.613 . S
S1537 N1539 1.610 1_554 S
N1538 S1537 1.613 . S
N1538 C1541 1.350 1_554 S
N1539 S1537 1.610 1_556 S
N1539 C1540 1.351 . S
C1540 C1534 1.428 . S
C1540 N1539 1.351 . S
C1540 C1541 1.434 . S
C1541 C1532 1.429 . S
C1541 N1538 1.350 1_556 S
C1541 C1540 1.434 . S
C1542 C1543 1.369 . S
C1542 C1544 1.419 . S
C1542 H1546 0.930 . S
C1543 C1542 1.369 . S
C1543 C1552 1.429 . S
C1544 C1542 1.419 . S
C1544 C1545 1.363 . S
C1544 H1547 0.929 . S
C1545 C1544 1.363 . S
C1545 C1551 1.428 . S
H1546 C1542 0.930 . S
H1547 C1544 0.929 . S
S1548 N1549 1.613 . S
S1548 N1550 1.610 . S
N1549 S1548 1.613 . S
N1549 C1552 1.350 . S
N1550 S1548 1.610 . S
N1550 C1551 1.351 . S
C1551 C1545 1.428 . S
C1551 N1550 1.351 . S
C1551 C1552 1.434 . S
C1552 C1543 1.429 . S
C1552 N1549 1.350 . S
C1552 C1551 1.434 . S
C1553 C1554 1.369 . S
C1553 C1555 1.419 . S
C1553 H1557 0.930 . S
C1554 C1553 1.369 . S
C1554 C1563 1.429 . S
C1555 C1553 1.419 . S
C1555 C1556 1.363 . S
C1555 H1558 0.929 . S
C1556 C1555 1.363 . S
C1556 C1562 1.428 . S
H1557 C1553 0.930 . S
H1558 C1555 0.929 . S
S1559 N1560 1.613 . S
S1559 N1561 1.610 1_554 S
N1560 S1559 1.613 . S
N1560 C1563 1.350 1_554 S
N1561 S1559 1.610 1_556 S
N1561 C1562 1.351 . S
C1562 C1556 1.428 . S
C1562 N1561 1.351 . S
C1562 C1563 1.434 . S
C1563 C1554 1.429 . S
C1563 N1560 1.350 1_556 S
C1563 C1562 1.434 . S
C1564 C1565 1.369 . S
C1564 C1566 1.419 . S
C1564 H1568 0.930 . S
C1565 C1564 1.369 . S
C1565 C1574 1.429 . S
C1566 C1564 1.419 . S
C1566 C1567 1.363 . S
C1566 H1569 0.929 . S
C1567 C1566 1.363 . S
C1567 C1573 1.428 . S
H1568 C1564 0.930 . S
H1569 C1566 0.929 . S
S1570 N1571 1.613 1_554 S
S1570 N1572 1.611 1_554 S
N1571 S1570 1.613 1_556 S
N1571 C1574 1.364 . S
N1572 S1570 1.611 1_556 S
N1572 C1573 1.351 . S
C1573 C1567 1.428 . S
C1573 N1572 1.351 . S
C1573 C1574 1.434 . S
C1574 C1565 1.429 . S
C1574 N1571 1.364 . S
C1574 C1573 1.434 . S
C1575 C1576 1.369 . S
C1575 C1577 1.419 . S
C1575 H1579 0.930 . S
C1576 C1575 1.369 . S
C1576 C1585 1.429 . S
C1577 C1575 1.419 . S
C1577 C1578 1.363 . S
C1577 H1580 0.929 . S
C1578 C1577 1.363 . S
C1578 C1584 1.428 . S
H1579 C1575 0.930 . S
H1580 C1577 0.929 . S
S1581 N1582 1.613 . S
S1581 N1583 1.610 . S
N1582 S1581 1.613 . S
N1582 C1585 1.350 . S
N1583 S1581 1.610 . S
N1583 C1584 1.351 . S
C1584 C1578 1.428 . S
C1584 N1583 1.351 . S
C1584 C1585 1.434 . S
C1585 C1576 1.429 . S
C1585 N1582 1.350 . S
C1585 C1584 1.434 . S
C1586 C1587 1.369 . S
C1586 C1588 1.419 . S
C1586 H1590 0.930 . S
C1587 C1586 1.369 . S
C1587 C1596 1.429 . S
C1588 C1586 1.419 . S
C1588 C1589 1.363 . S
C1588 H1591 0.929 . S
C1589 C1588 1.363 . S
C1589 C1595 1.428 . S
H1590 C1586 0.930 . S
H1591 C1588 0.929 . S
S1592 N1593 1.613 . S
S1592 N1594 1.610 . S
N1593 S1592 1.613 . S
N1593 C1596 1.350 . S
N1594 S1592 1.610 . S
N1594 C1595 1.351 . S
C1595 C1589 1.428 . S
C1595 N1594 1.351 . S
C1595 C1596 1.434 . S
C1596 C1587 1.429 . S
C1596 N1593 1.350 . S
C1596 C1595 1.434 . S
C1597 C1598 1.369 . S
C1597 C1599 1.419 . S
C1597 H1601 0.930 . S
C1598 C1597 1.369 . S
C1598 C1607 1.429 . S
C1599 C1597 1.419 . S
C1599 C1600 1.363 . S
C1599 H1602 0.929 . S
C1600 C1599 1.363 . S
C1600 C1606 1.428 . S
H1601 C1597 0.930 . S
H1602 C1599 0.929 . S
S1603 N1604 1.613 . S
S1603 N1605 1.610 . S
N1604 S1603 1.613 . S
N1604 C1607 1.350 . S
N1605 S1603 1.610 . S
N1605 C1606 1.351 . S
C1606 C1600 1.428 . S
C1606 N1605 1.351 . S
C1606 C1607 1.434 . S
C1607 C1598 1.429 . S
C1607 N1604 1.350 . S
C1607 C1606 1.434 . S
C1608 C1609 1.369 . S
C1608 C1610 1.419 . S
C1608 H1612 0.930 . S
C1609 C1608 1.369 . S
C1609 C1618 1.429 . S
C1610 C1608 1.419 . S
C1610 C1611 1.363 . S
C1610 H1613 0.929 . S
C1611 C1610 1.363 . S
C1611 C1617 1.428 . S
H1612 C1608 0.930 . S
H1613 C1610 0.929 . S
S1614 N1615 1.613 . S
S1614 N1616 1.610 . S
N1615 S1614 1.613 . S
N1615 C1618 1.350 . S
N1616 S1614 1.610 . S
N1616 C1617 1.351 . S
C1617 C1611 1.428 . S
C1617 N1616 1.351 . S
C1617 C1618 1.434 . S
C1618 C1609 1.429 . S
C1618 N1615 1.350 . S
C1618 C1617 1.434 . S
C1619 C1620 1.369 . S
C1619 C1621 1.419 . S
C1619 H1623 0.930 . S
C1620 C1619 1.369 . S
C1620 C1629 1.429 . S
C1621 C1619 1.419 . S
C1621 C1622 1.363 . S
C1621 H1624 0.929 . S
C1622 C1621 1.363 . S
C1622 C1628 1.428 . S
H1623 C1619 0.930 . S
H1624 C1621 0.929 . S
S1625 N1626 1.613 . S
S1625 N1627 1.610 . S
N1626 S1625 1.613 . S
N1626 C1629 1.350 . S
N1627 S1625 1.610 . S
N1627 C1628 1.351 . S
C1628 C1622 1.428 . S
C1628 N1627 1.351 . S
C1628 C1629 1.434 . S
C1629 C1620 1.429 . S
C1629 N1626 1.350 . S
C1629 C1628 1.434 . S
C1630 C1631 1.369 . S
C1630 C1632 1.419 . S
C1630 H1634 0.930 . S
C1631 C1630 1.369 . S
C1631 C1640 1.429 . S
C1632 C1630 1.419 . S
C1632 C1633 1.363 . S
C1632 H1635 0.929 . S
C1633 C1632 1.363 . S
C1633 C1639 1.428 . S
H1634 C1630 0.930 . S
H1635 C1632 0.929 . S
S1636 N1637 1.613 . S
S1636 N1638 1.610 . S
N1637 S1636 1.613 . S
N1637 C1640 1.350 . S
N1638 S1636 1.610 . S
N1638 C1639 1.351 . S
C1639 C1633 1.428 . S
C1639 N1638 1.351 . S
C1639 C1640 1.434 . S
C1640 C1631 1.429 . S
C1640 N1637 1.350 . S
C1640 C1639 1.434 . S
C1641 C1642 1.369 1_655 S
C1641 C1643 1.419 . S
C1641 H1645 0.930 . S
C1642 C1641 1.369 1_455 S
C1642 C1651 1.429 . S
C1643 C1641 1.419 . S
C1643 C1644 1.363 1_655 S
C1643 H1646 0.929 . S
C1644 C1643 1.363 1_455 S
C1644 C1650 1.428 . S
H1645 C1641 0.930 . S
H1646 C1643 0.929 . S
S1647 N1648 1.613 . S
S1647 N1649 1.610 . S
N1648 S1647 1.613 . S
N1648 C1651 1.350 . S
N1649 S1647 1.610 . S
N1649 C1650 1.351 . S
C1650 C1644 1.428 . S
C1650 N1649 1.351 . S
C1650 C1651 1.434 . S
C1651 C1642 1.429 . S
C1651 N1648 1.350 . S
C1651 C1650 1.434 . S
C1652 C1653 1.369 . S
C1652 C1654 1.419 . S
C1652 H1656 0.930 . S
C1653 C1652 1.369 . S
C1653 C1662 1.429 . S
C1654 C1652 1.419 . S
C1654 C1655 1.363 . S
C1654 H1657 0.929 . S
C1655 C1654 1.363 . S
C1655 C1661 1.428 . S
H1656 C1652 0.930 . S
H1657 C1654 0.929 . S
S1658 N1659 1.613 . S
S1658 N1660 1.610 . S
N1659 S1658 1.613 . S
N1659 C1662 1.350 . S
N1660 S1658 1.610 . S
N1660 C1661 1.351 . S
C1661 C1655 1.428 . S
C1661 N1660 1.351 . S
C1661 C1662 1.434 . S
C1662 C1653 1.429 . S
C1662 N1659 1.350 . S
C1662 C1661 1.434 . S
C1663 C1664 1.369 . S
C1663 C1665 1.419 . S
C1663 H1667 0.930 . S
C1664 C1663 1.369 . S
C1664 C1673 1.422 . S
C1665 C1663 1.419 . S
C1665 C1666 1.363 . S
C1665 H1668 0.929 . S
C1666 C1665 1.363 . S
C1666 C1672 1.431 . S
H1667 C1663 0.930 . S
H1668 C1665 0.929 . S
S1669 N1670 1.613 . S
S1669 N1671 1.610 . S
N1670 S1669 1.613 . S
N1670 C1673 1.348 1_545 S
N1671 S1669 1.610 . S
N1671 C1672 1.358 1_545 S
C1672 C1666 1.431 . S
C1672 N1671 1.358 1_565 S
C1672 C1673 1.431 . S
C1673 C1664 1.422 . S
C1673 N1670 1.348 1_565 S
C1673 C1672 1.431 . S
C1674 C1675 1.369 . S
C1674 C1676 1.419 . S
C1674 H1678 0.930 . S
C1675 C1674 1.369 . S
C1675 C1684 1.429 1_565 S
C1676 C1674 1.419 . S
C1676 C1677 1.363 . S
C1676 H1679 0.929 . S
C1677 C1676 1.363 . S
C1677 C1683 1.428 1_565 S
H1678 C1674 0.930 . S
H1679 C1676 0.929 . S
S1680 N1681 1.613 . S
S1680 N1682 1.610 . S
N1681 S1680 1.613 . S
N1681 C1684 1.350 . S
N1682 S1680 1.610 . S
N1682 C1683 1.351 . S
C1683 C1677 1.428 1_545 S
C1683 N1682 1.351 . S
C1683 C1684 1.434 . S
C1684 C1675 1.429 1_545 S
C1684 N1681 1.350 . S
C1684 C1683 1.434 . S
C1685 C1686 1.369 . S
C1685 C1687 1.419 . S
C1685 H1689 0.930 . S
C1686 C1685 1.369 . S
C1686 C1695 1.429 1_455 S
C1687 C1685 1.419 . S
C1687 C1688 1.363 . S
C1687 H1690 0.929 . S
C1688 C1687 1.363 . S
C1688 C1694 1.428 1_455 S
H1689 C1685 0.930 . S
H1690 C1687 0.929 . S
S1691 N1692 1.613 . S
S1691 N1693 1.610 . S
N1692 S1691 1.613 . S
N1692 C1695 1.350 . S
N1693 S1691 1.610 . S
N1693 C1694 1.351 . S
C1694 C1688 1.428 1_655 S
C1694 N1693 1.351 . S
C1694 C1695 1.434 . S
C1695 C1686 1.429 1_655 S
C1695 N1692 1.350 . S
C1695 C1694 1.434 . S
C1696 C1697 1.369 . S
C1696 C1698 1.419 . S
C1696 H1700 0.930 . S
C1697 C1696 1.369 . S
C1697 C1706 1.429 . S
C1698 C1696 1.419 . S
C1698 C1699 1.363 . S
C1698 H1701 0.929 . S
C1699 C1698 1.363 . S
C1699 C1705 1.428 . S
H1700 C1696 0.930 . S
H1701 C1698 0.929 . S
S1702 N1703 1.613 . S
S1702 N1704 1.610 . S
N1703 S1702 1.613 . S
N1703 C1706 1.350 . S
N1704 S1702 1.610 . S
N1704 C1705 1.351 . S
C1705 C1699 1.428 . S
C1705 N1704 1.351 . S
C1705 C1706 1.434 . S
C1706 C1697 1.429 . S
C1706 N1703 1.350 . S
C1706 C1705 1.434 . S
C1707 C1708 1.369 . S
C1707 C1709 1.419 . S
C1707 H1711 0.930 . S
C1708 C1707 1.369 . S
C1708 C1717 1.429 . S
C1709 C1707 1.419 . S
C1709 C1710 1.363 . S
C1709 H1712 0.929 . S
C1710 C1709 1.363 . S
C1710 C1716 1.428 . S
H1711 C1707 0.930 . S
H1712 C1709 0.929 . S
S1713 N1714 1.613 . S
S1713 N1715 1.610 . S
N1714 S1713 1.613 . S
N1714 C1717 1.350 . S
N1715 S1713 1.610 . S
N1715 C1716 1.351 . S
C1716 C1710 1.428 . S
C1716 N1715 1.351 . S
C1716 C1717 1.434 . S
C1717 C1708 1.429 . S
C1717 N1714 1.350 . S
C1717 C1716 1.434 . S
C1718 C1719 1.369 . S
C1718 C1720 1.419 . S
C1718 H1722 0.930 . S
C1719 C1718 1.369 . S
C1719 C1728 1.429 . S
C1720 C1718 1.419 . S
C1720 C1721 1.363 . S
C1720 H1723 0.929 . S
C1721 C1720 1.363 . S
C1721 C1727 1.428 . S
H1722 C1718 0.930 . S
H1723 C1720 0.929 . S
S1724 N1725 1.613 . S
S1724 N1726 1.610 . S
N1725 S1724 1.613 . S
N1725 C1728 1.350 . S
N1726 S1724 1.610 . S
N1726 C1727 1.351 . S
C1727 C1721 1.428 . S
C1727 N1726 1.351 . S
C1727 C1728 1.434 . S
C1728 C1719 1.429 . S
C1728 N1725 1.350 . S
C1728 C1727 1.434 . S
C1729 C1730 1.369 . S
C1729 C1731 1.419 . S
C1729 H1733 0.930 . S
C1730 C1729 1.369 . S
C1730 C1739 1.429 . S
C1731 C1729 1.419 . S
C1731 C1732 1.363 . S
C1731 H1734 0.929 . S
C1732 C1731 1.363 . S
C1732 C1738 1.428 . S
H1733 C1729 0.930 . S
H1734 C1731 0.929 . S
S1735 N1736 1.613 . S
S1735 N1737 1.610 . S
N1736 S1735 1.613 . S
N1736 C1739 1.350 . S
N1737 S1735 1.610 . S
N1737 C1738 1.351 . S
C1738 C1732 1.428 . S
C1738 N1737 1.351 . S
C1738 C1739 1.434 . S
C1739 C1730 1.429 . S
C1739 N1736 1.350 . S
C1739 C1738 1.434 . S
C1740 C1741 1.369 . S
C1740 C1742 1.419 . S
C1740 H1744 0.930 . S
C1741 C1740 1.369 . S
C1741 C1750 1.429 1_545 S
C1742 C1740 1.419 . S
C1742 C1743 1.363 . S
C1742 H1745 0.929 . S
C1743 C1742 1.363 . S
C1743 C1749 1.428 1_545 S
H1744 C1740 0.930 . S
H1745 C1742 0.929 . S
S1746 N1747 1.613 . S
S1746 N1748 1.610 . S
N1747 S1746 1.613 . S
N1747 C1750 1.350 . S
N1748 S1746 1.610 . S
N1748 C1749 1.351 . S
C1749 C1743 1.428 1_565 S
C1749 N1748 1.351 . S
C1749 C1750 1.434 . S
C1750 C1741 1.429 1_565 S
C1750 N1747 1.350 . S
C1750 C1749 1.434 . S
C1751 C1752 1.369 1_455 S
C1751 C1753 1.419 . S
C1751 H1755 0.930 . S
C1752 C1751 1.369 1_655 S
C1752 C1761 1.429 . S
C1753 C1751 1.419 . S
C1753 C1754 1.363 1_455 S
C1753 H1756 0.929 . S
C1754 C1753 1.363 1_655 S
C1754 C1760 1.428 . S
H1755 C1751 0.930 . S
H1756 C1753 0.929 . S
S1757 N1758 1.613 . S
S1757 N1759 1.610 . S
N1758 S1757 1.613 . S
N1758 C1761 1.350 . S
N1759 S1757 1.610 . S
N1759 C1760 1.351 . S
C1760 C1754 1.428 . S
C1760 N1759 1.351 . S
C1760 C1761 1.434 . S
C1761 C1752 1.429 . S
C1761 N1758 1.350 . S
C1761 C1760 1.434 . S
C1762 C1763 1.369 . S
C1762 C1764 1.419 . S
C1762 H1766 0.930 . S
C1763 C1762 1.369 . S
C1763 C1772 1.429 . S
C1764 C1762 1.419 . S
C1764 C1765 1.363 . S
C1764 H1767 0.929 . S
C1765 C1764 1.363 . S
C1765 C1771 1.428 . S
H1766 C1762 0.930 . S
H1767 C1764 0.929 . S
S1768 N1769 1.613 . S
S1768 N1770 1.610 . S
N1769 S1768 1.613 . S
N1769 C1772 1.350 . S
N1770 S1768 1.610 . S
N1770 C1771 1.351 . S
C1771 C1765 1.428 . S
C1771 N1770 1.351 . S
C1771 C1772 1.434 . S
C1772 C1763 1.429 . S
C1772 N1769 1.350 . S
C1772 C1771 1.434 . S
C1773 C1774 1.369 . S
C1773 C1775 1.419 . S
C1773 H1777 0.930 . S
C1774 C1773 1.369 . S
C1774 C1783 1.429 . S
C1775 C1773 1.419 . S
C1775 C1776 1.363 . S
C1775 H1778 0.929 . S
C1776 C1775 1.363 . S
C1776 C1782 1.428 . S
H1777 C1773 0.930 . S
H1778 C1775 0.929 . S
S1779 N1780 1.613 . S
S1779 N1781 1.610 . S
N1780 S1779 1.613 . S
N1780 C1783 1.350 . S
N1781 S1779 1.610 . S
N1781 C1782 1.351 . S
C1782 C1776 1.428 . S
C1782 N1781 1.351 . S
C1782 C1783 1.434 . S
C1783 C1774 1.429 . S
C1783 N1780 1.350 . S
C1783 C1782 1.434 . S
C1784 C1785 1.369 . S
C1784 C1786 1.419 . S
C1784 H1788 0.930 . S
C1785 C1784 1.369 . S
C1785 C1794 1.429 . S
C1786 C1784 1.419 . S
C1786 C1787 1.363 . S
C1786 H1789 0.929 . S
C1787 C1786 1.363 . S
C1787 C1793 1.428 . S
H1788 C1784 0.930 . S
H1789 C1786 0.929 . S
S1790 N1791 1.613 . S
S1790 N1792 1.610 . S
N1791 S1790 1.613 . S
N1791 C1794 1.350 . S
N1792 S1790 1.610 . S
N1792 C1793 1.351 . S
C1793 C1787 1.428 . S
C1793 N1792 1.351 . S
C1793 C1794 1.434 . S
C1794 C1785 1.429 . S
C1794 N1791 1.350 . S
C1794 C1793 1.434 . S
C1795 C1796 1.369 . S
C1795 C1797 1.419 . S
C1795 H1799 0.930 . S
C1796 C1795 1.369 . S
C1796 C1805 1.429 . S
C1797 C1795 1.419 . S
C1797 C1798 1.363 . S
C1797 H1800 0.929 . S
C1798 C1797 1.363 . S
C1798 C1804 1.428 . S
H1799 C1795 0.930 . S
H1800 C1797 0.929 . S
S1801 N1802 1.613 . S
S1801 N1803 1.610 . S
N1802 S1801 1.613 . S
N1802 C1805 1.350 . S
N1803 S1801 1.610 . S
N1803 C1804 1.351 . S
C1804 C1798 1.428 . S
C1804 N1803 1.351 . S
C1804 C1805 1.434 . S
C1805 C1796 1.429 . S
C1805 N1802 1.350 . S
C1805 C1804 1.434 . S
C1806 C1807 1.369 . S
C1806 C1808 1.419 . S
C1806 H1810 0.930 . S
C1807 C1806 1.369 . S
C1807 C1816 1.429 . S
C1808 C1806 1.419 . S
C1808 C1809 1.363 . S
C1808 H1811 0.929 . S
C1809 C1808 1.363 . S
C1809 C1815 1.428 . S
H1810 C1806 0.930 . S
H1811 C1808 0.929 . S
S1812 N1813 1.613 . S
S1812 N1814 1.610 . S
N1813 S1812 1.613 . S
N1813 C1816 1.350 . S
N1814 S1812 1.610 . S
N1814 C1815 1.351 . S
C1815 C1809 1.428 . S
C1815 N1814 1.351 . S
C1815 C1816 1.434 . S
C1816 C1807 1.429 . S
C1816 N1813 1.350 . S
C1816 C1815 1.434 . S
C1817 C1818 1.369 . S
C1817 C1819 1.419 . S
C1817 H1821 0.930 . S
C1818 C1817 1.369 . S
C1818 C1827 1.429 . S
C1819 C1817 1.419 . S
C1819 C1820 1.363 . S
C1819 H1822 0.929 . S
C1820 C1819 1.363 . S
C1820 C1826 1.428 . S
H1821 C1817 0.930 . S
H1822 C1819 0.929 . S
S1823 N1824 1.613 . S
S1823 N1825 1.610 . S
N1824 S1823 1.613 . S
N1824 C1827 1.350 . S
N1825 S1823 1.610 . S
N1825 C1826 1.351 . S
C1826 C1820 1.428 . S
C1826 N1825 1.351 . S
C1826 C1827 1.434 . S
C1827 C1818 1.429 . S
C1827 N1824 1.350 . S
C1827 C1826 1.434 . S
C1828 C1829 1.369 . S
C1828 C1830 1.419 . S
C1828 H1832 0.930 . S
C1829 C1828 1.369 . S
C1829 C1838 1.429 . S
C1830 C1828 1.419 . S
C1830 C1831 1.363 . S
C1830 H1833 0.929 . S
C1831 C1830 1.363 . S
C1831 C1837 1.428 . S
H1832 C1828 0.930 . S
H1833 C1830 0.929 . S
S1834 N1835 1.613 . S
S1834 N1836 1.610 . S
N1835 S1834 1.613 . S
N1835 C1838 1.350 . S
N1836 S1834 1.610 . S
N1836 C1837 1.351 . S
C1837 C1831 1.428 . S
C1837 N1836 1.351 . S
C1837 C1838 1.434 . S
C1838 C1829 1.429 . S
C1838 N1835 1.350 . S
C1838 C1837 1.434 . S
C1839 C1840 1.369 1_455 S
C1839 C1841 1.419 . S
C1839 H1843 0.930 . S
C1840 C1839 1.369 1_655 S
C1840 C1849 1.429 . S
C1841 C1839 1.419 . S
C1841 C1842 1.363 1_455 S
C1841 H1844 0.929 . S
C1842 C1841 1.363 1_655 S
C1842 C1848 1.428 . S
H1843 C1839 0.930 . S
H1844 C1841 0.929 . S
S1845 N1846 1.613 . S
S1845 N1847 1.610 . S
N1846 S1845 1.613 . S
N1846 C1849 1.350 . S
N1847 S1845 1.610 . S
N1847 C1848 1.351 . S
C1848 C1842 1.428 . S
C1848 N1847 1.351 . S
C1848 C1849 1.434 . S
C1849 C1840 1.429 . S
C1849 N1846 1.350 . S
C1849 C1848 1.434 . S
C1850 C1851 1.369 . S
C1850 C1852 1.419 . S
C1850 H1854 0.930 . S
C1851 C1850 1.369 . S
C1851 C1860 1.429 . S
C1852 C1850 1.419 . S
C1852 C1853 1.363 . S
C1852 H1855 0.929 . S
C1853 C1852 1.363 . S
C1853 C1859 1.428 . S
H1854 C1850 0.930 . S
H1855 C1852 0.929 . S
S1856 N1857 1.613 . S
S1856 N1858 1.610 . S
N1857 S1856 1.613 . S
N1857 C1860 1.350 . S
N1858 S1856 1.610 . S
N1858 C1859 1.351 . S
C1859 C1853 1.428 . S
C1859 N1858 1.351 . S
C1859 C1860 1.434 . S
C1860 C1851 1.429 . S
C1860 N1857 1.350 . S
C1860 C1859 1.434 . S
C1861 C1862 1.369 . S
C1861 C1863 1.419 . S
C1861 H1865 0.930 . S
C1862 C1861 1.369 . S
C1862 C1871 1.429 . S
C1863 C1861 1.419 . S
C1863 C1864 1.363 . S
C1863 H1866 0.929 1_545 S
C1864 C1863 1.363 . S
C1864 C1870 1.428 . S
H1865 C1861 0.930 . S
H1866 C1863 0.929 1_565 S
S1867 N1868 1.613 . S
S1867 N1869 1.610 . S
N1868 S1867 1.613 . S
N1868 C1871 1.350 . S
N1869 S1867 1.610 . S
N1869 C1870 1.351 . S
C1870 C1864 1.428 . S
C1870 N1869 1.351 . S
C1870 C1871 1.434 . S
C1871 C1862 1.429 . S
C1871 N1868 1.350 . S
C1871 C1870 1.434 . S
C1081 C9 1.481 . S
C1083 C688 1.477 . S
C1092 C19 1.600 . S
C1094 C734 1.567 . S
C1105 C766 1.514 . S
C1103 C33 1.506 . S
C1114 C37 1.470 1_565 S
C1116 C819 1.492 . S
C1125 C5 1.458 . S
C1127 C865 1.473 . S
C1136 C23 1.647 . S
C1138 C904 1.621 . S
C1147 C47 1.475 . S
C1149 C858 1.483 . S
C1160 C911 1.630 . S
C1158 C65 1.655 . S
C1171 C812 1.482 . S
C1169 C75 1.475 . S
C1180 C79 1.424 . S
C1182 C773 1.441 . S
C1193 C667 1.509 . S
C1191 C51 1.494 . S
C1202 C61 1.622 . S
C1204 C713 1.590 . S
C1213 C93 1.734 . S
C1215 C943 1.702 . S
C1224 C103 1.667 . S
C1226 C1010 1.632 . S
C1237 C1056 1.646 . S
C1235 C117 1.681 . S
C1246 C121 1.655 . S
C1248 C267 1.606 . S
C1257 C89 1.664 . S
C1259 C313 1.625 . S
C1268 C107 1.698 . S
C1270 C359 1.646 . S
C1279 C131 1.630 . S
C1281 C306 1.586 . S
C1290 C149 1.699 . S
C1292 C352 1.653 . S
C1303 C260 1.615 . S
C1301 C159 1.653 . S
C1314 C1035 1.654 . S
C1312 C163 1.707 . S
C1325 C964 1.682 . S
C1323 C135 1.721 . S
C1336 C989 1.647 . S
C1334 C145 1.693 . S
C1345 C177 1.656 . S
C1347 C391 1.625 . S
C1356 C187 1.641 . S
C1358 C444 1.612 . S
C1367 C201 1.684 . S
C1369 C490 1.665 . S
C1378 C205 1.734 . S
C1380 C536 1.702 . S
C1391 C589 1.624 . S
C1389 C173 1.667 . S
C1402 C635 1.677 . S
C1400 C191 1.727 . S
C1413 C582 1.672 . S
C1411 C215 1.714 . S
C1424 C628 1.682 . S
C1422 C233 1.731 . S
C1433 C243 1.648 . S
C1435 C543 1.630 . S
C1446 C497 1.590 . S
C1444 C247 1.621 . S
C1455 C219 1.720 . S
C1457 C412 1.686 . S
C1468 C451 1.645 . S
C1466 C229 1.672 . S
C1479 C274 1.603 . S
C1477 C11 1.628 . S
C1488 C14 1.590 . S
C1490 C320 1.554 . S
C1501 C366 1.683 . S
C1499 C28 1.722 . S
C1512 C398 1.655 . S
C1510 C39 1.702 . S
C1523 C437 1.607 . S
C1521 C0 1.659 . S
C1534 C483 1.500 . S
C1532 C25 1.547 . S
C1543 C42 1.705 . S
C1545 C504 1.660 . S
C1554 C67 1.600 . S
C1556 C405 1.547 . S
C1565 C70 1.612 . S
C1567 C458 1.564 . S
C1576 C81 1.620 . S
C1578 C299 1.598 . S
C1589 C345 1.649 . S
C1587 C53 1.684 . S
C1598 C56 1.630 . S
C1600 C253 1.585 . S
C1611 C529 1.539 . S
C1609 C95 1.588 . S
C1620 C98 1.679 . S
C1622 C596 1.645 . S
C1631 C112 1.740 . S
C1633 C642 1.703 . S
C1644 C681 1.450 . S
C1642 C123 1.441 . S
C1653 C84 1.618 . S
C1655 C727 1.586 . S
C1664 C109 1.388 . S
C1666 C759 1.400 . S
C1675 C126 1.463 . S
C1677 C780 1.467 . S
C1686 C151 1.425 . S
C1688 C674 1.432 . S
C1699 C720 1.553 . S
C1697 C154 1.585 . S
C1708 C165 1.579 . S
C1710 C575 1.550 . S
C1719 C137 1.692 . S
C1721 C621 1.655 . S
C1732 C550 1.658 . S
C1730 C140 1.715 . S
C1743 C826 1.422 . S
C1741 C179 1.416 . S
C1752 C182 1.411 . S
C1754 C872 1.430 . S
C1763 C196 1.674 . S
C1765 C897 1.621 . S
C1776 C950 1.603 . S
C1774 C207 1.662 . S
C1787 C1003 1.637 . S
C1785 C168 1.675 . S
C1796 C193 1.642 . S
C1798 C1049 1.613 . S
C1807 C210 1.674 . S
C1809 C1042 1.634 . S
C1818 C235 1.690 . S
C1820 C957 1.637 . S
C1831 C996 1.610 . S
C1829 C238 1.638 . S
C1842 C851 1.393 . S
C1840 C249 1.381 . S
C1853 C918 1.584 . S
C1851 C221 1.634 . S
C1862 C224 1.441 . S
C1864 C805 1.453 . S
