# Generated by pormake.
# Topology ptr, (4,4)-cn, num edge types: 1
# Building blocks:
#     Node 0, Type 0, BuildingBlock: QUQFOY_clean_sbu_3, # of connection points: 4
#     Node 1, Type 0, BuildingBlock: QUQFOY_clean_sbu_3, # of connection points: 4
#     Node 2, Type 0, BuildingBlock: QUQFOY_clean_sbu_3, # of connection points: 4
#     Node 3, Type 0, BuildingBlock: QUQFOY_clean_sbu_3, # of connection points: 4
#     Node 4, Type 0, BuildingBlock: QUQFOY_clean_sbu_3, # of connection points: 4
#     Node 5, Type 0, BuildingBlock: QUQFOY_clean_sbu_3, # of connection points: 4
#     Node 6, Type 0, BuildingBlock: QUQFOY_clean_sbu_3, # of connection points: 4
#     Node 7, Type 0, BuildingBlock: QUQFOY_clean_sbu_3, # of connection points: 4
#     Node 8, Type 0, BuildingBlock: QUQFOY_clean_sbu_3, # of connection points: 4
#     Node 9, Type 0, BuildingBlock: QUQFOY_clean_sbu_3, # of connection points: 4
#     Node 10, Type 0, BuildingBlock: QUQFOY_clean_sbu_3, # of connection points: 4
#     Node 11, Type 0, BuildingBlock: QUQFOY_clean_sbu_3, # of connection points: 4
#     Node 12, Type 0, BuildingBlock: QUQFOY_clean_sbu_3, # of connection points: 4
#     Node 13, Type 0, BuildingBlock: QUQFOY_clean_sbu_3, # of connection points: 4
#     Node 14, Type 0, BuildingBlock: QUQFOY_clean_sbu_3, # of connection points: 4
#     Node 15, Type 0, BuildingBlock: QUQFOY_clean_sbu_3, # of connection points: 4
#     Node 16, Type 0, BuildingBlock: QUQFOY_clean_sbu_3, # of connection points: 4
#     Node 17, Type 0, BuildingBlock: QUQFOY_clean_sbu_3, # of connection points: 4
#     Node 18, Type 1, BuildingBlock: NAHDIM_clean_linker_0, # of connection points: 4
#     Node 19, Type 1, BuildingBlock: NAHDIM_clean_linker_0, # of connection points: 4
#     Node 20, Type 1, BuildingBlock: NAHDIM_clean_linker_0, # of connection points: 4
#     Node 21, Type 1, BuildingBlock: NAHDIM_clean_linker_0, # of connection points: 4
#     Node 22, Type 1, BuildingBlock: NAHDIM_clean_linker_0, # of connection points: 4
#     Node 23, Type 1, BuildingBlock: NAHDIM_clean_linker_0, # of connection points: 4
#     Node 24, Type 1, BuildingBlock: NAHDIM_clean_linker_0, # of connection points: 4
#     Node 25, Type 1, BuildingBlock: NAHDIM_clean_linker_0, # of connection points: 4
#     Node 26, Type 1, BuildingBlock: NAHDIM_clean_linker_0, # of connection points: 4
#     Node 27, Type 1, BuildingBlock: NAHDIM_clean_linker_0, # of connection points: 4
#     Node 28, Type 1, BuildingBlock: NAHDIM_clean_linker_0, # of connection points: 4
#     Node 29, Type 1, BuildingBlock: NAHDIM_clean_linker_0, # of connection points: 4
#     Node 30, Type 1, BuildingBlock: NAHDIM_clean_linker_0, # of connection points: 4
#     Node 31, Type 1, BuildingBlock: NAHDIM_clean_linker_0, # of connection points: 4
#     Node 32, Type 1, BuildingBlock: NAHDIM_clean_linker_0, # of connection points: 4
#     Node 33, Type 1, BuildingBlock: NAHDIM_clean_linker_0, # of connection points: 4
#     Node 34, Type 1, BuildingBlock: NAHDIM_clean_linker_0, # of connection points: 4
#     Node 35, Type 1, BuildingBlock: NAHDIM_clean_linker_0, # of connection points: 4
#     Edge 36, Type (0, 1), BuildingBlock: MIFKUJ_clean_linker_0, # of connection points: 2
#     Edge 37, Type (0, 1), BuildingBlock: MIFKUJ_clean_linker_0, # of connection points: 2
#     Edge 38, Type (0, 1), BuildingBlock: MIFKUJ_clean_linker_0, # of connection points: 2
#     Edge 39, Type (0, 1), BuildingBlock: MIFKUJ_clean_linker_0, # of connection points: 2
#     Edge 40, Type (0, 1), BuildingBlock: MIFKUJ_clean_linker_0, # of connection points: 2
#     Edge 41, Type (0, 1), BuildingBlock: MIFKUJ_clean_linker_0, # of connection points: 2
#     Edge 42, Type (0, 1), BuildingBlock: MIFKUJ_clean_linker_0, # of connection points: 2
#     Edge 43, Type (0, 1), BuildingBlock: MIFKUJ_clean_linker_0, # of connection points: 2
#     Edge 44, Type (0, 1), BuildingBlock: MIFKUJ_clean_linker_0, # of connection points: 2
#     Edge 45, Type (0, 1), BuildingBlock: MIFKUJ_clean_linker_0, # of connection points: 2
#     Edge 46, Type (0, 1), BuildingBlock: MIFKUJ_clean_linker_0, # of connection points: 2
#     Edge 47, Type (0, 1), BuildingBlock: MIFKUJ_clean_linker_0, # of connection points: 2
#     Edge 48, Type (0, 1), BuildingBlock: MIFKUJ_clean_linker_0, # of connection points: 2
#     Edge 49, Type (0, 1), BuildingBlock: MIFKUJ_clean_linker_0, # of connection points: 2
#     Edge 50, Type (0, 1), BuildingBlock: MIFKUJ_clean_linker_0, # of connection points: 2
#     Edge 51, Type (0, 1), BuildingBlock: MIFKUJ_clean_linker_0, # of connection points: 2
#     Edge 52, Type (0, 1), BuildingBlock: MIFKUJ_clean_linker_0, # of connection points: 2
#     Edge 53, Type (0, 1), BuildingBlock: MIFKUJ_clean_linker_0, # of connection points: 2
#     Edge 54, Type (0, 1), BuildingBlock: MIFKUJ_clean_linker_0, # of connection points: 2
#     Edge 55, Type (0, 1), BuildingBlock: MIFKUJ_clean_linker_0, # of connection points: 2
#     Edge 56, Type (0, 1), BuildingBlock: MIFKUJ_clean_linker_0, # of connection points: 2
#     Edge 57, Type (0, 1), BuildingBlock: MIFKUJ_clean_linker_0, # of connection points: 2
#     Edge 58, Type (0, 1), BuildingBlock: MIFKUJ_clean_linker_0, # of connection points: 2
#     Edge 59, Type (0, 1), BuildingBlock: MIFKUJ_clean_linker_0, # of connection points: 2
#     Edge 60, Type (0, 1), BuildingBlock: MIFKUJ_clean_linker_0, # of connection points: 2
#     Edge 61, Type (0, 1), BuildingBlock: MIFKUJ_clean_linker_0, # of connection points: 2
#     Edge 62, Type (0, 1), BuildingBlock: MIFKUJ_clean_linker_0, # of connection points: 2
#     Edge 63, Type (0, 1), BuildingBlock: MIFKUJ_clean_linker_0, # of connection points: 2
#     Edge 64, Type (0, 1), BuildingBlock: MIFKUJ_clean_linker_0, # of connection points: 2
#     Edge 65, Type (0, 1), BuildingBlock: MIFKUJ_clean_linker_0, # of connection points: 2
#     Edge 66, Type (0, 1), BuildingBlock: MIFKUJ_clean_linker_0, # of connection points: 2
#     Edge 67, Type (0, 1), BuildingBlock: MIFKUJ_clean_linker_0, # of connection points: 2
#     Edge 68, Type (0, 1), BuildingBlock: MIFKUJ_clean_linker_0, # of connection points: 2
#     Edge 69, Type (0, 1), BuildingBlock: MIFKUJ_clean_linker_0, # of connection points: 2
#     Edge 70, Type (0, 1), BuildingBlock: MIFKUJ_clean_linker_0, # of connection points: 2
#     Edge 71, Type (0, 1), BuildingBlock: MIFKUJ_clean_linker_0, # of connection points: 2
#     Edge 72, Type (0, 1), BuildingBlock: MIFKUJ_clean_linker_0, # of connection points: 2
#     Edge 73, Type (0, 1), BuildingBlock: MIFKUJ_clean_linker_0, # of connection points: 2
#     Edge 74, Type (0, 1), BuildingBlock: MIFKUJ_clean_linker_0, # of connection points: 2
#     Edge 75, Type (0, 1), BuildingBlock: MIFKUJ_clean_linker_0, # of connection points: 2
#     Edge 76, Type (0, 1), BuildingBlock: MIFKUJ_clean_linker_0, # of connection points: 2
#     Edge 77, Type (0, 1), BuildingBlock: MIFKUJ_clean_linker_0, # of connection points: 2
#     Edge 78, Type (0, 1), BuildingBlock: MIFKUJ_clean_linker_0, # of connection points: 2
#     Edge 79, Type (0, 1), BuildingBlock: MIFKUJ_clean_linker_0, # of connection points: 2
#     Edge 80, Type (0, 1), BuildingBlock: MIFKUJ_clean_linker_0, # of connection points: 2
#     Edge 81, Type (0, 1), BuildingBlock: MIFKUJ_clean_linker_0, # of connection points: 2
#     Edge 82, Type (0, 1), BuildingBlock: MIFKUJ_clean_linker_0, # of connection points: 2
#     Edge 83, Type (0, 1), BuildingBlock: MIFKUJ_clean_linker_0, # of connection points: 2
#     Edge 84, Type (0, 1), BuildingBlock: MIFKUJ_clean_linker_0, # of connection points: 2
#     Edge 85, Type (0, 1), BuildingBlock: MIFKUJ_clean_linker_0, # of connection points: 2
#     Edge 86, Type (0, 1), BuildingBlock: MIFKUJ_clean_linker_0, # of connection points: 2
#     Edge 87, Type (0, 1), BuildingBlock: MIFKUJ_clean_linker_0, # of connection points: 2
#     Edge 88, Type (0, 1), BuildingBlock: MIFKUJ_clean_linker_0, # of connection points: 2
#     Edge 89, Type (0, 1), BuildingBlock: MIFKUJ_clean_linker_0, # of connection points: 2
#     Edge 90, Type (0, 1), BuildingBlock: MIFKUJ_clean_linker_0, # of connection points: 2
#     Edge 91, Type (0, 1), BuildingBlock: MIFKUJ_clean_linker_0, # of connection points: 2
#     Edge 92, Type (0, 1), BuildingBlock: MIFKUJ_clean_linker_0, # of connection points: 2
#     Edge 93, Type (0, 1), BuildingBlock: MIFKUJ_clean_linker_0, # of connection points: 2
#     Edge 94, Type (0, 1), BuildingBlock: MIFKUJ_clean_linker_0, # of connection points: 2
#     Edge 95, Type (0, 1), BuildingBlock: MIFKUJ_clean_linker_0, # of connection points: 2
#     Edge 96, Type (0, 1), BuildingBlock: MIFKUJ_clean_linker_0, # of connection points: 2
#     Edge 97, Type (0, 1), BuildingBlock: MIFKUJ_clean_linker_0, # of connection points: 2
#     Edge 98, Type (0, 1), BuildingBlock: MIFKUJ_clean_linker_0, # of connection points: 2
#     Edge 99, Type (0, 1), BuildingBlock: MIFKUJ_clean_linker_0, # of connection points: 2
#     Edge 100, Type (0, 1), BuildingBlock: MIFKUJ_clean_linker_0, # of connection points: 2
#     Edge 101, Type (0, 1), BuildingBlock: MIFKUJ_clean_linker_0, # of connection points: 2
#     Edge 102, Type (0, 1), BuildingBlock: MIFKUJ_clean_linker_0, # of connection points: 2
#     Edge 103, Type (0, 1), BuildingBlock: MIFKUJ_clean_linker_0, # of connection points: 2
#     Edge 104, Type (0, 1), BuildingBlock: MIFKUJ_clean_linker_0, # of connection points: 2
#     Edge 105, Type (0, 1), BuildingBlock: MIFKUJ_clean_linker_0, # of connection points: 2
#     Edge 106, Type (0, 1), BuildingBlock: MIFKUJ_clean_linker_0, # of connection points: 2
#     Edge 107, Type (0, 1), BuildingBlock: MIFKUJ_clean_linker_0, # of connection points: 2
# Relax obj value: 0.029
# Max RMSD: 0.171
# Mean RMSD: 0.059
data_MOF--net-ptr--node1-QUQFOY_clean_sbu_3--node2-NAHDIM_clean_linker_0--edge1-MIFKUJ_clean_linker_0
_symmetry_space_group_name_H-M    P1
_symmetry_Int_Tables_number       1
_symmetry_cell_setting            triclinic
loop_
_symmetry_equiv_pos_as_xyz
'x, y, z'
_cell_length_a     115.20806
_cell_length_b     115.35935
_cell_length_c     98.41642
_cell_angle_alpha  91.029697
_cell_angle_beta   89.865938
_cell_angle_gamma 120.65288
loop_
_atom_site_label
_atom_site_type_symbol
_atom_site_fract_x
_atom_site_fract_y
_atom_site_fract_z
_atom_type_partial_charge
C0 C 0.97397 0.30958 0.99775 0.0
O1 O 0.96664 0.31451 0.00081 0.0
Cd2 Cd 0.97642 0.33766 0.00758 0.0
O3 O 0.98665 0.3164 -0.0001 0.0
Cd4 Cd 0.00404 0.3382 0.01015 0.0
C5 C 0.00057 0.35255 0.98244 0.0
O6 O 0.99134 0.34351 0.0266 0.0
O7 O 0.01046 0.36005 0.01981 0.0
O8 O 0.01096 0.32809 0.02727 0.0
C9 C 0.0004 0.3559 0.02765 0.0
O10 O 0.98926 0.34953 0.98767 0.0
C11 C 0.0227 0.33223 0.02267 0.0
O12 O 0.00853 0.34953 0.98826 0.0
O13 O 0.02591 0.33915 0.01194 0.0
C14 C 0.65559 0.67983 0.03316 0.0
O15 O 0.64286 0.67383 0.03175 0.0
Cd16 Cd 0.63053 0.65394 0.01769 0.0
O17 O 0.66234 0.67541 0.02707 0.0
Cd18 Cd 0.6583 0.65661 0.01166 0.0
C19 C 0.63875 0.63313 0.03409 0.0
O20 O 0.64176 0.65681 0.99642 0.0
O21 O 0.64289 0.63867 0.99588 0.0
O22 O 0.67788 0.67251 -0.00103 0.0
C23 C 0.63831 0.64555 0.99074 0.0
O24 O 0.62962 0.63547 0.03021 0.0
C25 C 0.68422 0.66624 -0.00015 0.0
O26 O 0.65086 0.64029 0.03002 0.0
O27 O 0.67853 0.65532 0.00639 0.0
C28 C 0.3185 0.97587 0.01821 0.0
O29 O 0.32287 0.96842 0.01378 0.0
Cd30 Cd 0.34452 0.97784 0.00309 0.0
O31 O 0.32498 0.98846 0.01598 0.0
Cd32 Cd 0.34505 0.00564 0.00384 0.0
C33 C 0.36382 0.00231 0.02752 0.0
O34 O 0.3464 0.99211 0.98492 0.0
O35 O 0.36398 0.01163 0.98932 0.0
O36 O 0.3291 0.01096 0.9942 0.0
C37 C 0.35826 0.0012 0.98171 0.0
O38 O 0.36021 0.99124 0.02119 0.0
C39 C 0.33652 0.02366 0.99536 0.0
O40 O 0.35933 0.00989 0.02398 0.0
O41 O 0.34803 0.02823 0.00093 0.0
C42 C 0.97181 0.66006 -0.0013 0.0
O43 O 0.96386 0.64791 0.00196 0.0
Cd44 Cd 0.97219 0.6346 0.01192 0.0
O45 O 0.98426 0.66594 0.00194 0.0
Cd46 Cd 0.00079 0.66265 0.01465 0.0
C47 C 0.99797 0.64155 0.98916 0.0
O48 O 0.98626 0.64599 0.03118 0.0
O49 O 0.00657 0.6496 0.02899 0.0
O50 O 0.0048 0.68204 0.02792 0.0
C51 C 0.99526 0.6434 0.03489 0.0
O52 O 0.98632 0.63382 0.99407 0.0
C53 C 0.0174 0.68908 0.02589 0.0
O54 O 0.00583 0.65325 0.99432 0.0
O55 O 0.02257 0.68389 0.01827 0.0
C56 C 0.32709 0.35349 0.02258 0.0
O57 O 0.33224 0.36616 0.02189 0.0
Cd58 Cd 0.35289 0.37993 0.00973 0.0
O59 O 0.33255 0.3477 0.01644 0.0
Cd60 Cd 0.35142 0.35206 0.00133 0.0
C61 C 0.37404 0.37133 0.02571 0.0
O62 O 0.35031 0.36911 0.98799 0.0
O63 O 0.36663 0.36564 0.98332 0.0
O64 O 0.33358 0.33092 0.99214 0.0
C65 C 0.36053 0.37191 0.98079 0.0
O66 O 0.37058 0.37998 0.02337 0.0
C67 C 0.34069 0.32552 0.99031 0.0
O68 O 0.36825 0.35991 0.01956 0.0
O69 O 0.35311 0.33253 0.99355 0.0
C70 C 0.68715 0.02714 -0.00023 0.0
O71 O 0.68257 0.03457 0.00371 0.0
Cd72 Cd 0.66043 0.02499 0.01371 0.0
O73 O 0.68062 0.01458 0.0021 0.0
Cd74 Cd 0.66016 0.99753 0.01364 0.0
C75 C 0.64155 0.00059 0.9894 0.0
O76 O 0.65729 0.01036 0.03201 0.0
O77 O 0.63987 0.99105 0.02642 0.0
O78 O 0.674 0.99269 0.02773 0.0
C79 C 0.64519 0.00124 0.03441 0.0
O80 O 0.64448 0.01146 0.9958 0.0
C81 C 0.66888 0.98039 0.02427 0.0
O82 O 0.64671 0.99355 0.99284 0.0
O83 O 0.65957 0.97576 0.01527 0.0
C84 C 0.64658 0.66007 0.32059 0.0
O85 O 0.64083 0.66698 0.32079 0.0
Cd86 Cd 0.64751 0.68634 0.33541 0.0
O87 O 0.65694 0.66348 0.32798 0.0
Cd88 Cd 0.67179 0.68192 0.34395 0.0
C89 C 0.67841 0.70698 0.32189 0.0
O90 O 0.65347 0.68135 0.35678 0.0
O91 O 0.6734 0.69733 0.36253 0.0
O92 O 0.67496 0.66546 0.35611 0.0
C93 C 0.66079 0.69125 0.36462 0.0
O94 O 0.6668 0.70506 0.3248 0.0
C95 C 0.68775 0.67202 0.35559 0.0
O96 O 0.68239 0.69927 0.32635 0.0
O97 O 0.69319 0.68322 0.34955 0.0
C98 C 0.31972 0.00725 0.37001 0.0
O99 O 0.30694 0.00142 0.37017 0.0
Cd100 Cd 0.29194 0.98168 0.35694 0.0
O101 O 0.32562 0.00243 0.36294 0.0
Cd102 Cd 0.31828 0.98183 0.34862 0.0
C103 C 0.29846 0.95965 0.37262 0.0
O104 O 0.3017 0.98391 0.33491 0.0
O105 O 0.30243 0.96575 0.33176 0.0
O106 O 0.33905 0.99449 0.33552 0.0
C107 C 0.29777 0.97308 0.32814 0.0
O108 O 0.28971 0.9628 0.36956 0.0
C109 C 0.34229 0.98551 0.33611 0.0
O110 O 0.31017 0.96581 0.36737 0.0
O111 O 0.33459 0.97509 0.34286 0.0
C112 C 0.99797 0.3118 0.35942 0.0
O113 O 0.00389 0.30506 0.35965 0.0
Cd114 Cd 0.02378 0.31052 0.34682 0.0
O115 O 0.00285 0.32261 0.3527 0.0
Cd116 Cd 0.02362 0.33619 0.33934 0.0
C117 C 0.04591 0.33926 0.3635 0.0
O118 O 0.02161 0.31768 0.32472 0.0
O119 O 0.04 0.33689 0.32316 0.0
O120 O 0.01051 0.344 0.32701 0.0
C121 C 0.03262 0.32497 0.3186 0.0
O122 O 0.0432 0.32756 0.35963 0.0
C123 C 0.01989 0.35627 0.32699 0.0
O124 O 0.03923 0.34438 0.3589 0.0
O125 O 0.03078 0.35921 0.33309 0.0
C126 C 0.64144 0.97242 0.32862 0.0
O127 O 0.63565 0.95981 0.3304 0.0
Cd128 Cd 0.64505 0.94967 0.3442 0.0
O129 O 0.65273 0.98043 0.33437 0.0
Cd130 Cd 0.66927 0.9798 0.34994 0.0
C131 C 0.67483 0.96076 0.32719 0.0
O132 O 0.65237 0.96305 0.36463 0.0
O133 O 0.67269 0.96752 0.36831 0.0
O134 O 0.67152 0.00055 0.35927 0.0
C135 C 0.66042 0.96134 0.37188 0.0
O136 O 0.66362 0.95087 0.33102 0.0
C137 C 0.68431 0.00707 0.3599 0.0
O138 O 0.67894 0.97268 0.33168 0.0
O139 O 0.69026 0.00093 0.35577 0.0
C140 C 0.99351 0.68784 0.35554 0.0
O141 O 0.99823 0.70046 0.35593 0.0
Cd142 Cd 0.01984 0.71609 0.34688 0.0
O143 O 0.00015 0.68303 0.34985 0.0
Cd144 Cd 0.02182 0.69164 0.3373 0.0
C145 C 0.04062 0.70872 0.36484 0.0
O146 O 0.02096 0.70888 0.324 0.0
O147 O 0.04002 0.7095 0.32412 0.0
O148 O 0.00941 0.67286 0.32143 0.0
C149 C 0.03272 0.71371 0.31917 0.0
O150 O 0.03647 0.71687 0.36279 0.0
C151 C 0.01726 0.66822 0.32227 0.0
O152 O 0.03651 0.69819 0.35737 0.0
O153 O 0.02732 0.67442 0.33027 0.0
C154 C 0.34501 0.35921 0.32978 0.0
O155 O 0.34036 0.36693 0.33206 0.0
Cd156 Cd 0.31863 0.3589 0.34216 0.0
O157 O 0.33892 0.34715 0.33395 0.0
Cd158 Cd 0.31933 0.33189 0.34813 0.0
C159 C 0.29822 0.32987 0.32309 0.0
O160 O 0.31928 0.34893 0.36285 0.0
O161 O 0.30184 0.32897 0.36449 0.0
O162 O 0.33441 0.32834 0.36215 0.0
C163 C 0.30819 0.34116 0.36861 0.0
O164 O 0.30177 0.34193 0.32656 0.0
C165 C 0.32869 0.3157 0.36015 0.0
O166 O 0.30344 0.32375 0.32883 0.0
O167 O 0.31844 0.31032 0.35229 0.0
C168 C 0.30902 0.98807 0.65668 0.0
O169 O 0.30191 0.99357 0.65779 0.0
Cd170 Cd 0.30877 0.01475 0.6688 0.0
O171 O 0.32088 0.99375 0.66181 0.0
Cd172 Cd 0.33612 0.01492 0.67494 0.0
C173 C 0.33679 0.03524 0.64995 0.0
O174 O 0.31902 0.01462 0.68977 0.0
O175 O 0.3385 0.03286 0.69048 0.0
O176 O 0.34392 0.00337 0.68966 0.0
C177 C 0.32668 0.0261 0.6952 0.0
O178 O 0.32484 0.03176 0.65352 0.0
C179 C 0.35633 0.01078 0.68685 0.0
O180 O 0.34307 0.0301 0.65553 0.0
O181 O 0.35931 0.01987 0.67815 0.0
C182 C 0.98105 0.33132 0.69805 0.0
O183 O 0.96863 0.3224 0.69692 0.0
Cd184 Cd 0.95853 0.30477 0.68 0.0
O185 O 0.98982 0.33107 0.69032 0.0
Cd186 Cd 0.98917 0.31484 0.67291 0.0
C187 C 0.97187 0.28733 0.69287 0.0
O188 O 0.97099 0.3143 0.65992 0.0
O189 O 0.97725 0.30062 0.65271 0.0
O190 O 0.00966 0.33388 0.66378 0.0
C191 C 0.96994 0.30579 0.65101 0.0
O192 O 0.96112 0.28679 0.6889 0.0
C193 C 0.01593 0.32753 0.66236 0.0
O194 O 0.98345 0.29717 0.68983 0.0
O195 O 0.00987 0.31538 0.66619 0.0
C196 C 0.65743 0.64487 0.691 0.0
O197 O 0.66168 0.63681 0.68872 0.0
Cd198 Cd 0.6828 0.64409 0.67782 0.0
O199 O 0.66385 0.65684 0.68658 0.0
Cd200 Cd 0.68355 0.67117 0.67212 0.0
C201 C 0.70414 0.67266 0.69702 0.0
O202 O 0.68177 0.65342 0.65662 0.0
O203 O 0.7003 0.67262 0.65594 0.0
O204 O 0.66709 0.67634 0.66332 0.0
C205 C 0.69305 0.66083 0.65099 0.0
O206 O 0.70023 0.66054 0.69342 0.0
C207 C 0.67541 0.68861 0.66095 0.0
O208 O 0.69922 0.67909 0.69138 0.0
O209 O 0.68772 0.69303 0.66389 0.0
C210 C 0.30751 0.31676 0.65704 0.0
O211 O 0.29963 0.30434 0.65933 0.0
Cd212 Cd 0.30744 0.29152 0.67118 0.0
O213 O 0.31943 0.32294 0.66197 0.0
Cd214 Cd 0.33405 0.31903 0.6774 0.0
C215 C 0.3363 0.29924 0.6533 0.0
O216 O 0.31683 0.30272 0.69254 0.0
O217 O 0.33644 0.30463 0.69382 0.0
O218 O 0.33757 0.33941 0.68844 0.0
C219 C 0.32458 0.29957 0.69845 0.0
O220 O 0.32426 0.29061 0.65663 0.0
C221 C 0.35035 0.34547 0.68891 0.0
O222 O 0.34234 0.31101 0.65872 0.0
O223 O 0.35586 0.33922 0.68389 0.0
C224 C 0.66813 0.02986 0.68081 0.0
O225 O 0.67536 0.04259 0.67992 0.0
Cd226 Cd 0.69689 0.05439 0.66915 0.0
O227 O 0.67195 0.02219 0.67547 0.0
Cd228 Cd 0.69077 0.02322 0.66197 0.0
C229 C 0.71355 0.04159 0.68717 0.0
O230 O 0.69367 0.04171 0.64884 0.0
O231 O 0.70793 0.03535 0.64425 0.0
O232 O 0.67544 0.00495 0.64682 0.0
C233 C 0.70367 0.04334 0.64197 0.0
O234 O 0.71142 0.05112 0.68453 0.0
C235 C 0.6786 0.99649 0.65071 0.0
O236 O 0.70741 0.03035 0.68066 0.0
O237 O 0.68753 0.00037 0.66 0.0
C238 C 0.00637 0.69292 0.66141 0.0
O239 O 0.00131 0.70043 0.66239 0.0
Cd240 Cd 0.97946 0.6935 0.67181 0.0
O241 O 0.00034 0.6811 0.66627 0.0
Cd242 Cd 0.97962 0.66651 0.67951 0.0
C243 C 0.95908 0.66429 0.65357 0.0
O244 O 0.97948 0.68423 0.69323 0.0
O245 O 0.96221 0.66419 0.69546 0.0
O246 O 0.99172 0.65987 0.69481 0.0
C247 C 0.96841 0.67652 0.69906 0.0
O248 O 0.96246 0.67644 0.6564 0.0
C249 C 0.98479 0.64738 0.69182 0.0
O250 O 0.96429 0.65853 0.65995 0.0
O251 O 0.97565 0.64379 0.68281 0.0
C252 C 0.18569 0.26695 0.06635 0.0
C253 C 0.19419 0.27778 0.07709 0.0
C254 C 0.18599 0.27511 0.10012 0.0
C255 C 0.19064 0.28855 0.10396 0.0
C256 C 0.1838 0.29172 0.11379 0.0
C257 C 0.17199 0.28122 0.11974 0.0
C258 C 0.16763 0.26761 0.11628 0.0
C259 C 0.17488 0.26474 0.10666 0.0
C260 C 0.18893 0.3063 0.11748 0.0
C261 C 0.15498 0.25613 0.12225 0.0
C262 C 0.09768 0.30063 0.07909 0.0
C263 C 0.10536 0.295 0.0856 0.0
C264 C 0.11984 0.2987 0.10518 0.0
C265 C 0.11766 0.28556 0.10551 0.0
C266 C 0.12574 0.28257 0.11364 0.0
C267 C 0.13654 0.29301 0.12127 0.0
C268 C 0.13882 0.30629 0.12088 0.0
C269 C 0.13021 0.30887 0.11308 0.0
C270 C 0.12279 0.26823 0.11395 0.0
C271 C 0.15048 0.31781 0.12849 0.0
C272 C 0.11148 0.28672 0.20772 0.0
C273 C 0.10874 0.27453 0.20144 0.0
C274 C 0.11897 0.27345 0.19484 0.0
C275 C 0.13217 0.28482 0.19438 0.0
C276 C 0.13504 0.297 0.20098 0.0
C277 C 0.12465 0.29775 0.20764 0.0
C278 C 0.1156 0.26024 0.18807 0.0
C279 C 0.149 0.3093 0.20068 0.0
C280 C 0.20616 0.25278 0.20799 0.0
C281 C 0.20527 0.26537 0.21092 0.0
C282 C 0.18471 0.2661 0.20689 0.0
C283 C 0.17111 0.2571 0.20402 0.0
C284 C 0.16328 0.26124 0.19706 0.0
C285 C 0.16913 0.27488 0.19331 0.0
C286 C 0.18276 0.28421 0.19679 0.0
C287 C 0.19047 0.27968 0.20343 0.0
C288 C 0.14876 0.25098 0.19366 0.0
C289 C 0.18917 0.29894 0.1935 0.0
C290 C 0.16344 0.28446 0.12845 0.0
C291 C 0.15493 0.28795 0.1219 0.0
C292 C 0.14572 0.29007 0.12916 0.0
C293 C 0.145 0.28877 0.14345 0.0
C294 C 0.13556 0.29037 0.15106 0.0
C295 C 0.13492 0.28905 0.16509 0.0
C296 C 0.14357 0.28589 0.17207 0.0
C297 C 0.14271 0.28416 0.18629 0.0
C298 C 0.15145 0.28104 0.19294 0.0
C299 C 0.16093 0.27927 0.18571 0.0
C300 C 0.16184 0.28081 0.17142 0.0
C301 C 0.17103 0.27884 0.16375 0.0
C302 C 0.17171 0.28022 0.1497 0.0
C303 C 0.16312 0.28345 0.14275 0.0
C304 C 0.15383 0.28557 0.15027 0.0
C305 C 0.15315 0.2842 0.16461 0.0
C306 C 0.08224 0.27996 0.19944 0.0
C307 C 0.08796 0.27968 0.21342 0.0
O308 O 0.19173 0.27196 0.08976 0.0
O309 O 0.19187 0.26137 0.21323 0.0
O310 O 0.10182 0.28841 0.2138 0.0
O311 O 0.11223 0.30193 0.09734 0.0
H312 H 0.19075 0.28523 0.07668 0.0
H313 H 0.17481 0.26303 0.06825 0.0
H314 H 0.18743 0.25834 0.06673 0.0
H315 H 0.1881 0.27127 0.05602 0.0
H316 H 0.19949 0.29654 0.09911 0.0
H317 H 0.17148 0.2544 0.10368 0.0
H318 H 0.18207 0.30938 0.11309 0.0
H319 H 0.19927 0.31307 0.11359 0.0
H320 H 0.189 0.30765 0.12869 0.0
H321 H 0.1525 0.2462 0.11781 0.0
H322 H 0.14631 0.25762 0.1205 0.0
H323 H 0.15627 0.25594 0.13339 0.0
H324 H 0.11177 0.29296 0.07859 0.0
H325 H 0.07759 0.28502 0.08048 0.0
H326 H 0.1028 0.30461 0.06908 0.0
H327 H 0.10149 0.31088 0.08389 0.0
H328 H 0.10959 0.27756 0.09954 0.0
H329 H 0.13182 0.31897 0.11278 0.0
H330 H 0.13061 0.26743 0.10809 0.0
H331 H 0.11276 0.26098 0.10943 0.0
H332 H 0.12312 0.26526 0.12455 0.0
H333 H 0.1521 0.32775 0.12544 0.0
H334 H 0.15991 0.31765 0.12669 0.0
H335 H 0.14846 0.31673 0.13955 0.0
H336 H 0.08559 0.26926 0.21553 0.0
H337 H 0.09866 0.26583 0.20149 0.0
H338 H 0.1267 0.30709 0.21257 0.0
H339 H 0.11635 0.26143 0.17688 0.0
H340 H 0.10526 0.25198 0.19052 0.0
H341 H 0.12295 0.25727 0.19125 0.0
H342 H 0.1496 0.31802 0.20632 0.0
H343 H 0.15202 0.3122 0.18998 0.0
H344 H 0.15637 0.30694 0.2052 0.0
H345 H 0.20905 0.27174 0.20173 0.0
H346 H 0.21671 0.25559 0.20563 0.0
H347 H 0.1997 0.24716 0.19908 0.0
H348 H 0.20266 0.24604 0.21688 0.0
H349 H 0.16674 0.24668 0.20695 0.0
H350 H 0.20091 0.28677 0.20609 0.0
H351 H 0.14659 0.2516 0.18279 0.0
H352 H 0.14203 0.25317 0.19987 0.0
H353 H 0.14628 0.24052 0.1957 0.0
H354 H 0.19923 0.30515 0.19842 0.0
H355 H 0.18255 0.30283 0.19683 0.0
H356 H 0.19041 0.30017 0.18234 0.0
H357 H 0.15525 0.28871 0.11091 0.0
H358 H 0.12852 0.29263 0.14624 0.0
H359 H 0.12748 0.29047 0.1704 0.0
H360 H 0.15063 0.27961 0.20384 0.0
H361 H 0.17778 0.27617 0.16851 0.0
H362 H 0.17901 0.27863 0.14432 0.0
H363 H 0.0711 0.27314 0.19923 0.0
H364 H 0.08657 0.27649 0.19137 0.0
H365 H 0.08466 0.29034 0.1971 0.0
C366 C 0.74797 0.92441 0.07744 0.0
C367 C 0.73465 0.91672 0.08507 0.0
C368 C 0.73319 0.90913 0.10806 0.0
C369 C 0.71957 0.89919 0.10917 0.0
C370 C 0.71554 0.88847 0.11809 0.0
C371 C 0.72543 0.88751 0.12573 0.0
C372 C 0.7392 0.89773 0.12475 0.0
C373 C 0.74283 0.90863 0.11616 0.0
C374 C 0.70076 0.87795 0.119 0.0
C375 C 0.75018 0.89692 0.13225 0.0
C376 C 0.70925 0.7896 0.08918 0.0
C377 C 0.71597 0.80345 0.09512 0.0
C378 C 0.70948 0.8183 0.10657 0.0
C379 C 0.72246 0.82756 0.11157 0.0
C380 C 0.72465 0.83849 0.1199 0.0
C381 C 0.71364 0.84015 0.12332 0.0
C382 C 0.70059 0.83089 0.11825 0.0
C383 C 0.69869 0.82008 0.1099 0.0
C384 C 0.73872 0.84828 0.12506 0.0
C385 C 0.68866 0.83241 0.12171 0.0
C386 C 0.71693 0.81615 0.20751 0.0
C387 C 0.72901 0.82647 0.20198 0.0
C388 C 0.72966 0.83791 0.19643 0.0
C389 C 0.71801 0.83907 0.19635 0.0
C390 C 0.70593 0.82887 0.20215 0.0
C391 C 0.70557 0.81754 0.20767 0.0
C392 C 0.74273 0.84858 0.1903 0.0
C393 C 0.69332 0.82977 0.20216 0.0
C394 C 0.75502 0.94596 0.21625 0.0
C395 C 0.74145 0.933 0.21826 0.0
C396 C 0.73869 0.9108 0.21413 0.0
C397 C 0.74703 0.9056 0.21132 0.0
C398 C 0.74226 0.89356 0.2038 0.0
C399 C 0.72859 0.88629 0.19947 0.0
C400 C 0.71987 0.89114 0.20301 0.0
C401 C 0.72507 0.90348 0.21015 0.0
C402 C 0.75191 0.88875 0.20039 0.0
C403 C 0.70511 0.88336 0.19915 0.0
C404 C 0.72158 0.87509 0.1334 0.0
C405 C 0.71874 0.86358 0.1258 0.0
C406 C 0.71584 0.85168 0.1321 0.0
C407 C 0.71575 0.85111 0.14642 0.0
C408 C 0.71301 0.83929 0.15305 0.0
C409 C 0.7136 0.83902 0.16714 0.0
C410 C 0.71693 0.85055 0.17514 0.0
C411 C 0.71835 0.85058 0.18941 0.0
C412 C 0.72148 0.86213 0.1971 0.0
C413 C 0.72368 0.8739 0.19088 0.0
C414 C 0.72255 0.87413 0.17656 0.0
C415 C 0.725 0.88586 0.16988 0.0
C416 C 0.72429 0.88609 0.15578 0.0
C417 C 0.72148 0.87473 0.14777 0.0
C418 C 0.7187 0.86272 0.15429 0.0
C419 C 0.71922 0.86242 0.16869 0.0
C420 C 0.72682 0.79573 0.19923 0.0
C421 C 0.7255 0.80109 0.21322 0.0
O422 O 0.73728 0.91905 0.0989 0.0
O423 O 0.74404 0.92277 0.22094 0.0
O424 O 0.71568 0.80464 0.21253 0.0
O425 O 0.7069 0.80752 0.09859 0.0
H426 H 0.73027 0.90579 0.08254 0.0
H427 H 0.75496 0.92102 0.08075 0.0
H428 H 0.75283 0.93543 0.07952 0.0
H429 H 0.74624 0.92248 0.06631 0.0
H430 H 0.71215 0.8998 0.10296 0.0
H431 H 0.75333 0.91645 0.1152 0.0
H432 H 0.69877 0.86881 0.11311 0.0
H433 H 0.69425 0.88157 0.11481 0.0
H434 H 0.69788 0.875 0.12972 0.0
H435 H 0.76039 0.90434 0.12853 0.0
H436 H 0.74874 0.88667 0.13118 0.0
H437 H 0.74976 0.899 0.14323 0.0
H438 H 0.72483 0.81119 0.08938 0.0
H439 H 0.71295 0.79087 0.0784 0.0
H440 H 0.69875 0.78701 0.08629 0.0
H441 H 0.71307 0.77863 0.10345 0.0
H442 H 0.73091 0.82632 0.109 0.0
H443 H 0.68873 0.81288 0.10598 0.0
H444 H 0.73887 0.84826 0.13634 0.0
H445 H 0.74177 0.85866 0.12195 0.0
H446 H 0.74627 0.84578 0.1212 0.0
H447 H 0.67909 0.82417 0.1172 0.0
H448 H 0.69041 0.84219 0.11794 0.0
H449 H 0.68755 0.83252 0.13291 0.0
H450 H 0.73543 0.81002 0.21605 0.0
H451 H 0.73794 0.82565 0.20171 0.0
H452 H 0.6963 0.80958 0.21197 0.0
H453 H 0.74148 0.84859 0.17913 0.0
H454 H 0.75122 0.84689 0.19241 0.0
H455 H 0.74542 0.8587 0.19433 0.0
H456 H 0.68475 0.82106 0.20719 0.0
H457 H 0.69035 0.83021 0.19154 0.0
H458 H 0.69535 0.8392 0.20749 0.0
H459 H 0.73558 0.93083 0.20861 0.0
H460 H 0.75357 0.95433 0.21309 0.0
H461 H 0.76078 0.94431 0.20814 0.0
H462 H 0.76109 0.94897 0.2258 0.0
H463 H 0.75747 0.91125 0.21468 0.0
H464 H 0.7185 0.90733 0.21276 0.0
H465 H 0.75105 0.88577 0.18948 0.0
H466 H 0.74931 0.87974 0.20648 0.0
H467 H 0.76256 0.89655 0.20267 0.0
H468 H 0.69929 0.8873 0.20452 0.0
H469 H 0.70065 0.87253 0.20151 0.0
H470 H 0.70401 0.88407 0.18805 0.0
H471 H 0.71907 0.86397 0.11479 0.0
H472 H 0.71053 0.83016 0.14742 0.0
H473 H 0.71153 0.82968 0.17166 0.0
H474 H 0.72279 0.86215 0.20802 0.0
H475 H 0.72757 0.89503 0.17546 0.0
H476 H 0.72621 0.89536 0.1512 0.0
H477 H 0.71722 0.78647 0.19627 0.0
H478 H 0.73518 0.79359 0.19935 0.0
H479 H 0.72918 0.80335 0.19133 0.0
C480 C 0.18369 0.91366 0.08195 0.0
C481 C 0.19438 0.91847 0.09329 0.0
C482 C 0.18189 0.90026 0.10958 0.0
C483 C 0.17274 0.90421 0.11385 0.0
C484 C 0.16165 0.89575 0.12195 0.0
C485 C 0.15974 0.88317 0.12588 0.0
C486 C 0.16918 0.87938 0.12199 0.0
C487 C 0.18018 0.88803 0.11393 0.0
C488 C 0.15184 0.90015 0.12611 0.0
C489 C 0.16748 0.86606 0.1261 0.0
C490 C 0.08272 0.83101 0.06947 0.0
C491 C 0.08712 0.82438 0.08 0.0
C492 C 0.09249 0.83251 0.10334 0.0
C493 C 0.10199 0.82876 0.10636 0.0
C494 C 0.11184 0.83569 0.11646 0.0
C495 C 0.11229 0.84673 0.1235 0.0
C496 C 0.10232 0.85014 0.12085 0.0
C497 C 0.09236 0.84276 0.11096 0.0
C498 C 0.12208 0.83155 0.11924 0.0
C499 C 0.10258 0.86197 0.12797 0.0
C500 C 0.08499 0.82958 0.21081 0.0
C501 C 0.09265 0.82409 0.20592 0.0
C502 C 0.10502 0.83225 0.19942 0.0
C503 C 0.10957 0.84606 0.1975 0.0
C504 C 0.10193 0.85162 0.20268 0.0
C505 C 0.08985 0.84332 0.2095 0.0
C506 C 0.11319 0.82612 0.19459 0.0
C507 C 0.10646 0.8663 0.20095 0.0
C508 C 0.20315 0.93272 0.209 0.0
C509 C 0.19692 0.92532 0.22224 0.0
C510 C 0.18028 0.90246 0.21385 0.0
C511 C 0.17794 0.8894 0.21191 0.0
C512 C 0.16655 0.87955 0.20472 0.0
C513 C 0.15722 0.88285 0.19945 0.0
C514 C 0.15928 0.89592 0.20171 0.0
C515 C 0.17082 0.90562 0.20883 0.0
C516 C 0.16465 0.86571 0.20247 0.0
C517 C 0.14943 0.89973 0.19635 0.0
C518 C 0.14751 0.87368 0.13351 0.0
C519 C 0.13598 0.86485 0.126 0.0
C520 C 0.12403 0.8556 0.13239 0.0
C521 C 0.1235 0.85512 0.14674 0.0
C522 C 0.11165 0.84599 0.15354 0.0
C523 C 0.11116 0.84589 0.16768 0.0
C524 C 0.12259 0.8547 0.17557 0.0
C525 C 0.12219 0.85473 0.18995 0.0
C526 C 0.13372 0.86375 0.19743 0.0
C527 C 0.14566 0.87289 0.19096 0.0
C528 C 0.1463 0.87293 0.17661 0.0
C529 C 0.15821 0.88194 0.1698 0.0
C530 C 0.15865 0.88218 0.15568 0.0
C531 C 0.14721 0.87339 0.14784 0.0
C532 C 0.13514 0.86409 0.15449 0.0
C533 C 0.1347 0.86384 0.1689 0.0
C534 C 0.0498 0.80817 0.21261 0.0
C535 C 0.06338 0.80879 0.21385 0.0
O536 O 0.19235 0.90773 0.10114 0.0
O537 O 0.19181 0.9116 0.22044 0.0
O538 O 0.07303 0.82201 0.21714 0.0
O539 O 0.08365 0.82671 0.09285 0.0
H540 H 0.1939 0.92617 0.09984 0.0
H541 H 0.17344 0.90946 0.08625 0.0
H542 H 0.18385 0.90573 0.07552 0.0
H543 H 0.18561 0.92223 0.07544 0.0
H544 H 0.17408 0.91378 0.11082 0.0
H545 H 0.18737 0.88514 0.11069 0.0
H546 H 0.14174 0.89306 0.12166 0.0
H547 H 0.15506 0.9105 0.12276 0.0
H548 H 0.15077 0.89981 0.13734 0.0
H549 H 0.17588 0.86473 0.12249 0.0
H550 H 0.15784 0.85768 0.12188 0.0
H551 H 0.16694 0.86531 0.13734 0.0
H552 H 0.09829 0.82926 0.07913 0.0
H553 H 0.08542 0.82929 0.05908 0.0
H554 H 0.08795 0.84205 0.07152 0.0
H555 H 0.07166 0.82689 0.06991 0.0
H556 H 0.10182 0.82054 0.10066 0.0
H557 H 0.08485 0.84545 0.1086 0.0
H558 H 0.12363 0.83138 0.13035 0.0
H559 H 0.1319 0.83902 0.11478 0.0
H560 H 0.11898 0.82146 0.11475 0.0
H561 H 0.09458 0.86378 0.12414 0.0
H562 H 0.11255 0.87124 0.12656 0.0
H563 H 0.10115 0.86015 0.13904 0.0
H564 H 0.06551 0.80577 0.20376 0.0
H565 H 0.08909 0.81351 0.20735 0.0
H566 H 0.08393 0.84745 0.21353 0.0
H567 H 0.11293 0.82549 0.18332 0.0
H568 H 0.10926 0.81583 0.19855 0.0
H569 H 0.1239 0.83258 0.1978 0.0
H570 H 0.09855 0.86861 0.204 0.0
H571 H 0.10921 0.86922 0.19021 0.0
H572 H 0.11557 0.87259 0.20732 0.0
H573 H 0.18871 0.92714 0.22543 0.0
H574 H 0.20743 0.94373 0.21052 0.0
H575 H 0.19539 0.92917 0.20084 0.0
H576 H 0.2113 0.9309 0.20558 0.0
H577 H 0.18524 0.88703 0.21586 0.0
H578 H 0.17237 0.91562 0.21028 0.0
H579 H 0.16435 0.86353 0.1914 0.0
H580 H 0.15484 0.858 0.20676 0.0
H581 H 0.17285 0.86474 0.20722 0.0
H582 H 0.15182 0.90989 0.19998 0.0
H583 H 0.13902 0.89223 0.19949 0.0
H584 H 0.14961 0.89964 0.18507 0.0
H585 H 0.1363 0.8652 0.11499 0.0
H586 H 0.10259 0.83893 0.14799 0.0
H587 H 0.10168 0.83879 0.17233 0.0
H588 H 0.13329 0.86389 0.20845 0.0
H589 H 0.16733 0.88897 0.17529 0.0
H590 H 0.16806 0.88938 0.15099 0.0
H591 H 0.04657 0.80998 0.22268 0.0
H592 H 0.04185 0.79828 0.2084 0.0
H593 H 0.05078 0.81604 0.20557 0.0
C594 C 0.28035 0.10343 0.93898 0.0
C595 C 0.28223 0.09533 0.92754 0.0
C596 C 0.28634 0.11043 0.90843 0.0
C597 C 0.27289 0.10712 0.90648 0.0
C598 C 0.26973 0.11464 0.89776 0.0
C599 C 0.28021 0.12573 0.89092 0.0
C600 C 0.29372 0.12892 0.89264 0.0
C601 C 0.29657 0.1211 0.90126 0.0
C602 C 0.2552 0.11088 0.89603 0.0
C603 C 0.30518 0.14078 0.88563 0.0
C604 C 0.25571 0.20034 0.91006 0.0
C605 C 0.26735 0.19994 0.91708 0.0
C606 C 0.27468 0.18742 0.90229 0.0
C607 C 0.28583 0.18887 0.89522 0.0
C608 C 0.28572 0.17776 0.88916 0.0
C609 C 0.27393 0.16489 0.88988 0.0
C610 C 0.26261 0.16326 0.89717 0.0
C611 C 0.26311 0.17457 0.9034 0.0
C612 C 0.29813 0.17985 0.88176 0.0
C613 C 0.2499 0.14966 0.89806 0.0
C614 C 0.26158 0.17702 0.80316 0.0
C615 C 0.2745 0.18124 0.80834 0.0
C616 C 0.27712 0.17218 0.81509 0.0
C617 C 0.26652 0.15871 0.81688 0.0
C618 C 0.25361 0.15437 0.81125 0.0
C619 C 0.25139 0.16356 0.80426 0.0
C620 C 0.29117 0.17704 0.82041 0.0
C621 C 0.2421 0.14009 0.81285 0.0
C622 C 0.27472 0.07304 0.81021 0.0
C623 C 0.27501 0.07934 0.79654 0.0
C624 C 0.27995 0.10201 0.80373 0.0
C625 C 0.29037 0.11536 0.80541 0.0
C626 C 0.28826 0.1249 0.8122 0.0
C627 C 0.27528 0.12097 0.81723 0.0
C628 C 0.26454 0.10758 0.81517 0.0
C629 C 0.26699 0.09818 0.80854 0.0
C630 C 0.29994 0.13911 0.81424 0.0
C631 C 0.25052 0.10316 0.8202 0.0
C632 C 0.27711 0.13446 0.88263 0.0
C633 C 0.276 0.14459 0.88943 0.0
C634 C 0.27333 0.15336 0.88234 0.0
C635 C 0.27141 0.15189 0.86811 0.0
C636 C 0.26823 0.16026 0.86076 0.0
C637 C 0.26711 0.15926 0.84667 0.0
C638 C 0.26924 0.14993 0.83938 0.0
C639 C 0.26881 0.1493 0.825 0.0
C640 C 0.27073 0.13972 0.8181 0.0
C641 C 0.27311 0.13073 0.82517 0.0
C642 C 0.27375 0.13131 0.83954 0.0
C643 C 0.2763 0.12251 0.84696 0.0
C644 C 0.27715 0.12333 0.86109 0.0
C645 C 0.2757 0.13313 0.86832 0.0
C646 C 0.27291 0.14194 0.86104 0.0
C647 C 0.2719 0.14101 0.84664 0.0
C648 C 0.25092 0.20025 0.80367 0.0
C649 C 0.2632 0.19885 0.80082 0.0
O650 O 0.28995 0.1038 0.91721 0.0
O651 O 0.28295 0.09325 0.79753 0.0
O652 O 0.25868 0.18561 0.79685 0.0
O653 O 0.2755 0.19877 0.90749 0.0
H654 H 0.2722 0.08754 0.92343 0.0
H655 H 0.27485 0.10832 0.93518 0.0
H656 H 0.29029 0.11139 0.94308 0.0
H657 H 0.27435 0.09669 0.94736 0.0
H658 H 0.26479 0.09878 0.91178 0.0
H659 H 0.3069 0.12354 0.90275 0.0
H660 H 0.25379 0.11897 0.90052 0.0
H661 H 0.2481 0.10124 0.901 0.0
H662 H 0.25258 0.10997 0.88506 0.0
H663 H 0.31518 0.14224 0.88846 0.0
H664 H 0.30508 0.15012 0.88829 0.0
H665 H 0.30387 0.13926 0.87445 0.0
H666 H 0.2632 0.19127 0.92409 0.0
H667 H 0.24917 0.20132 0.91775 0.0
H668 H 0.24943 0.19091 0.90407 0.0
H669 H 0.25965 0.20898 0.90307 0.0
H670 H 0.29469 0.19884 0.89446 0.0
H671 H 0.25437 0.17333 0.90879 0.0
H672 H 0.29616 0.17883 0.87065 0.0
H673 H 0.30058 0.17208 0.88466 0.0
H674 H 0.30704 0.18998 0.88394 0.0
H675 H 0.24179 0.15014 0.90371 0.0
H676 H 0.25216 0.14255 0.90324 0.0
H677 H 0.24614 0.14551 0.88768 0.0
H678 H 0.26915 0.20147 0.81046 0.0
H679 H 0.28254 0.19156 0.80702 0.0
H680 H 0.24152 0.16039 0.79999 0.0
H681 H 0.29126 0.178 0.83166 0.0
H682 H 0.29868 0.187 0.8163 0.0
H683 H 0.29433 0.16965 0.81779 0.0
H684 H 0.23243 0.1386 0.80879 0.0
H685 H 0.24078 0.1374 0.82375 0.0
H686 H 0.24446 0.13305 0.80739 0.0
H687 H 0.26457 0.07639 0.79343 0.0
H688 H 0.26848 0.06187 0.8094 0.0
H689 H 0.27025 0.0765 0.81815 0.0
H690 H 0.28511 0.07595 0.81347 0.0
H691 H 0.3003 0.11823 0.8016 0.0
H692 H 0.25876 0.08791 0.80725 0.0
H693 H 0.3014 0.14178 0.82525 0.0
H694 H 0.29766 0.14627 0.80921 0.0
H695 H 0.3095 0.14044 0.81006 0.0
H696 H 0.24299 0.09279 0.81664 0.0
H697 H 0.24732 0.11021 0.81671 0.0
H698 H 0.25057 0.10343 0.83148 0.0
H699 H 0.27756 0.14587 0.90036 0.0
H700 H 0.26663 0.16775 0.86581 0.0
H701 H 0.2647 0.16603 0.84157 0.0
H702 H 0.27043 0.1393 0.80707 0.0
H703 H 0.27774 0.11491 0.84194 0.0
H704 H 0.27916 0.11632 0.86626 0.0
H705 H 0.24465 0.19797 0.79433 0.0
H706 H 0.25412 0.21063 0.80734 0.0
H707 H 0.24464 0.19311 0.81167 0.0
C708 C 0.82335 0.07815 0.94316 0.0
C709 C 0.81589 0.08318 0.93443 0.0
C710 C 0.8222 0.08947 0.91113 0.0
C711 C 0.81854 0.09924 0.90957 0.0
C712 C 0.82541 0.10977 0.90043 0.0
C713 C 0.83633 0.11066 0.89293 0.0
C714 C 0.83964 0.10044 0.89409 0.0
C715 C 0.8323 0.08979 0.90301 0.0
C716 C 0.82135 0.12025 0.89922 0.0
C717 C 0.85135 0.10112 0.88646 0.0
C718 C 0.9229 0.20832 0.9275 0.0
C719 C 0.91618 0.19565 0.91923 0.0
C720 C 0.89336 0.1785 0.9121 0.0
C721 C 0.8971 0.17081 0.90399 0.0
C722 C 0.88756 0.16017 0.89574 0.0
C723 C 0.87412 0.1575 0.8952 0.0
C724 C 0.87038 0.16532 0.9033 0.0
C725 C 0.88002 0.17558 0.91181 0.0
C726 C 0.89187 0.15173 0.8877 0.0
C727 C 0.85618 0.16282 0.90301 0.0
C728 C 0.899 0.18247 0.81067 0.0
C729 C 0.90061 0.17218 0.81614 0.0
C730 C 0.88965 0.16072 0.82173 0.0
C731 C 0.8768 0.15953 0.82203 0.0
C732 C 0.87506 0.16971 0.81635 0.0
C733 C 0.88619 0.18104 0.81072 0.0
C734 C 0.89189 0.15002 0.82764 0.0
C735 C 0.86151 0.16877 0.81655 0.0
C736 C 0.79598 0.05341 0.80895 0.0
C737 C 0.79927 0.06699 0.80319 0.0
C738 C 0.82128 0.08744 0.80647 0.0
C739 C 0.83455 0.09125 0.80977 0.0
C740 C 0.84317 0.10367 0.81627 0.0
C741 C 0.83842 0.11257 0.81929 0.0
C742 C 0.8253 0.10917 0.81512 0.0
C743 C 0.81684 0.09662 0.80872 0.0
C744 C 0.85721 0.10708 0.82032 0.0
C745 C 0.8201 0.11862 0.81782 0.0
C746 C 0.84529 0.12305 0.88528 0.0
C747 C 0.85473 0.13433 0.89282 0.0
C748 C 0.86392 0.14628 0.8865 0.0
C749 C 0.86373 0.14711 0.8722 0.0
C750 C 0.87269 0.15905 0.86552 0.0
C751 C 0.87311 0.15946 0.85141 0.0
C752 C 0.86448 0.14799 0.84344 0.0
C753 C 0.8655 0.14804 0.82912 0.0
C754 C 0.8566 0.13654 0.82147 0.0
C755 C 0.84679 0.12484 0.8278 0.0
C756 C 0.84579 0.12454 0.84215 0.0
C757 C 0.83622 0.11286 0.84888 0.0
C758 C 0.83579 0.11244 0.86301 0.0
C759 C 0.84504 0.12361 0.87095 0.0
C760 C 0.85444 0.13564 0.86439 0.0
C761 C 0.85479 0.13611 0.84998 0.0
C762 C 0.93013 0.20305 0.81812 0.0
C763 C 0.92281 0.19738 0.80443 0.0
O764 O 0.81659 0.08008 0.92089 0.0
O765 O 0.81307 0.07484 0.80126 0.0
O766 O 0.90942 0.19393 0.80545 0.0
O767 O 0.90225 0.18872 0.92039 0.0
H768 H 0.82128 0.09432 0.93613 0.0
H769 H 0.83418 0.08342 0.94033 0.0
H770 H 0.8191 0.06715 0.94162 0.0
H771 H 0.82267 0.08029 0.9541 0.0
H772 H 0.81048 0.09874 0.9157 0.0
H773 H 0.83494 0.0821 0.90427 0.0
H774 H 0.82882 0.12958 0.90475 0.0
H775 H 0.81123 0.1168 0.9036 0.0
H776 H 0.82129 0.12281 0.8884 0.0
H777 H 0.85322 0.09293 0.8893 0.0
H778 H 0.86067 0.11097 0.8885 0.0
H779 H 0.84929 0.1003 0.87537 0.0
H780 H 0.92066 0.18912 0.92025 0.0
H781 H 0.9292 0.20677 0.93517 0.0
H782 H 0.9153 0.20761 0.93519 0.0
H783 H 0.93138 0.22352 0.91295 0.0
H784 H 0.90738 0.1729 0.90425 0.0
H785 H 0.87725 0.18156 0.91814 0.0
H786 H 0.89274 0.15437 0.87682 0.0
H787 H 0.88426 0.14084 0.8885 0.0
H788 H 0.90179 0.15343 0.8912 0.0
H789 H 0.85547 0.17109 0.90814 0.0
H790 H 0.84939 0.15329 0.90827 0.0
H791 H 0.85252 0.1617 0.89237 0.0
H792 H 0.92351 0.18833 0.80181 0.0
H793 H 0.91038 0.17301 0.81628 0.0
H794 H 0.88499 0.18898 0.80647 0.0
H795 H 0.89098 0.15012 0.83887 0.0
H796 H 0.90201 0.1516 0.82516 0.0
H797 H 0.88408 0.13988 0.8238 0.0
H798 H 0.86179 0.17752 0.81169 0.0
H799 H 0.85812 0.16821 0.82722 0.0
H800 H 0.85392 0.15939 0.81118 0.0
H801 H 0.79582 0.07166 0.811 0.0
H802 H 0.7849 0.04682 0.81024 0.0
H803 H 0.80091 0.05503 0.81905 0.0
H804 H 0.79969 0.04821 0.80218 0.0
H805 H 0.83796 0.08421 0.80771 0.0
H806 H 0.80677 0.09399 0.80559 0.0
H807 H 0.85852 0.10868 0.8315 0.0
H808 H 0.86475 0.11662 0.81551 0.0
H809 H 0.85935 0.09904 0.81727 0.0
H810 H 0.81016 0.11508 0.81285 0.0
H811 H 0.82744 0.12883 0.81412 0.0
H812 H 0.81902 0.11953 0.82894 0.0
H813 H 0.85509 0.13371 0.90379 0.0
H814 H 0.87965 0.16815 0.87112 0.0
H815 H 0.8804 0.16887 0.84682 0.0
H816 H 0.85761 0.13654 0.81051 0.0
H817 H 0.82902 0.10385 0.84331 0.0
H818 H 0.82828 0.10318 0.86765 0.0
H819 H 0.92832 0.21104 0.82216 0.0
H820 H 0.94115 0.20718 0.81699 0.0
H821 H 0.92633 0.19495 0.82572 0.0
C822 C 0.78941 0.68682 0.90601 0.0
C823 C 0.7978 0.69462 0.91861 0.0
C824 C 0.81955 0.71123 0.9087 0.0
C825 C 0.82804 0.72485 0.90582 0.0
C826 C 0.8402 0.72932 0.89886 0.0
C827 C 0.84385 0.71985 0.89454 0.0
C828 C 0.83539 0.70607 0.89751 0.0
C829 C 0.82341 0.70191 0.90467 0.0
C830 C 0.84909 0.74411 0.89598 0.0
C831 C 0.83898 0.6957 0.89305 0.0
C832 C 0.92029 0.74381 0.949 0.0
C833 C 0.91646 0.73305 0.93781 0.0
C834 C 0.91152 0.73686 0.91503 0.0
C835 C 0.9019 0.72369 0.91092 0.0
C836 C 0.89199 0.72132 0.90122 0.0
C837 C 0.89159 0.73237 0.89573 0.0
C838 C 0.90171 0.7457 0.8994 0.0
C839 C 0.91172 0.74776 0.90887 0.0
C840 C 0.88165 0.70698 0.89729 0.0
C841 C 0.90158 0.75773 0.89382 0.0
C842 C 0.91886 0.74273 0.81061 0.0
C843 C 0.90941 0.72925 0.81351 0.0
C844 C 0.89686 0.72575 0.81916 0.0
C845 C 0.89379 0.73596 0.82205 0.0
C846 C 0.90303 0.74943 0.81847 0.0
C847 C 0.9154 0.7526 0.81264 0.0
C848 C 0.88704 0.71122 0.82241 0.0
C849 C 0.90001 0.76053 0.8212 0.0
C850 C 0.80614 0.73867 0.80987 0.0
C851 C 0.81031 0.73307 0.79775 0.0
C852 C 0.82424 0.72483 0.80793 0.0
C853 C 0.82483 0.7133 0.81072 0.0
C854 C 0.83607 0.7142 0.81731 0.0
C855 C 0.84691 0.72699 0.82139 0.0
C856 C 0.84652 0.73873 0.81841 0.0
C857 C 0.83525 0.73755 0.81162 0.0
C858 C 0.83623 0.70148 0.82018 0.0
C859 C 0.85791 0.75254 0.82263 0.0
C860 C 0.85644 0.72425 0.88679 0.0
C861 C 0.86795 0.72676 0.89397 0.0
C862 C 0.87989 0.72996 0.88725 0.0
C863 C 0.88039 0.73064 0.87291 0.0
C864 C 0.8921 0.73347 0.86577 0.0
C865 C 0.8925 0.7342 0.85167 0.0
C866 C 0.88116 0.73202 0.84413 0.0
C867 C 0.88147 0.73276 0.82978 0.0
C868 C 0.87011 0.73082 0.82263 0.0
C869 C 0.85834 0.7281 0.82944 0.0
C870 C 0.85775 0.72705 0.84376 0.0
C871 C 0.846 0.7241 0.85091 0.0
C872 C 0.8455 0.72306 0.86498 0.0
C873 C 0.85683 0.72523 0.87249 0.0
C874 C 0.86883 0.72835 0.86551 0.0
C875 C 0.86924 0.72911 0.85112 0.0
C876 C 0.95333 0.75081 0.81116 0.0
C877 C 0.93858 0.74018 0.80828 0.0
O878 O 0.80775 0.70755 0.9152 0.0
O879 O 0.81284 0.72314 0.8019 0.0
O880 O 0.93141 0.74663 0.80599 0.0
O881 O 0.9203 0.73924 0.92532 0.0
H882 H 0.80255 0.68917 0.92295 0.0
H883 H 0.79576 0.68558 0.89831 0.0
H884 H 0.78484 0.69223 0.90123 0.0
H885 H 0.78123 0.6766 0.90888 0.0
H886 H 0.82505 0.73198 0.90902 0.0
H887 H 0.81713 0.69135 0.90691 0.0
H888 H 0.85946 0.7478 0.89989 0.0
H889 H 0.8452 0.75029 0.90067 0.0
H890 H 0.8498 0.74561 0.88484 0.0
H891 H 0.83092 0.68526 0.89538 0.0
H892 H 0.8484 0.6978 0.89827 0.0
H893 H 0.84089 0.69635 0.88195 0.0
H894 H 0.90527 0.72644 0.93828 0.0
H895 H 0.91755 0.73906 0.95913 0.0
H896 H 0.91473 0.74921 0.9474 0.0
H897 H 0.93127 0.75131 0.9489 0.0
H898 H 0.90202 0.71528 0.9155 0.0
H899 H 0.91931 0.75789 0.91205 0.0
H900 H 0.87956 0.70601 0.88619 0.0
H901 H 0.87209 0.70406 0.90264 0.0
H902 H 0.88497 0.69983 0.90012 0.0
H903 H 0.90986 0.76741 0.89812 0.0
H904 H 0.89179 0.757 0.8961 0.0
H905 H 0.90263 0.75784 0.8826 0.0
H906 H 0.93479 0.73393 0.81755 0.0
H907 H 0.91182 0.72146 0.81147 0.0
H908 H 0.92267 0.76292 0.81011 0.0
H909 H 0.88639 0.71003 0.8336 0.0
H910 H 0.89014 0.7043 0.81796 0.0
H911 H 0.87681 0.70819 0.81857 0.0
H912 H 0.90852 0.77059 0.81838 0.0
H913 H 0.89774 0.76082 0.83213 0.0
H914 H 0.89094 0.75846 0.81528 0.0
H915 H 0.81957 0.7415 0.79321 0.0
H916 H 0.80342 0.74609 0.80636 0.0
H917 H 0.79738 0.73046 0.81523 0.0
H918 H 0.81455 0.74388 0.8173 0.0
H919 H 0.81635 0.70352 0.80779 0.0
H920 H 0.83511 0.74663 0.80947 0.0
H921 H 0.83583 0.69999 0.83132 0.0
H922 H 0.84578 0.70241 0.81647 0.0
H923 H 0.82758 0.69244 0.81533 0.0
H924 H 0.85589 0.76067 0.81997 0.0
H925 H 0.86735 0.75451 0.81757 0.0
H926 H 0.85962 0.75295 0.83377 0.0
H927 H 0.86755 0.72603 0.90496 0.0
H928 H 0.9011 0.73518 0.87103 0.0
H929 H 0.90184 0.73652 0.84676 0.0
H930 H 0.8705 0.73161 0.81165 0.0
H931 H 0.837 0.72247 0.84572 0.0
H932 H 0.83614 0.72065 0.86991 0.0
H933 H 0.9593 0.7459 0.81317 0.0
H934 H 0.95402 0.75697 0.82027 0.0
H935 H 0.9578 0.75762 0.8024 0.0
C936 C 0.86476 0.5962 0.43002 0.0
C937 C 0.86614 0.60846 0.42266 0.0
C938 C 0.85549 0.61757 0.43789 0.0
C939 C 0.85809 0.62874 0.44595 0.0
C940 C 0.84768 0.62929 0.45279 0.0
C941 C 0.83434 0.61816 0.45184 0.0
C942 C 0.83156 0.60687 0.44353 0.0
C943 C 0.84214 0.60675 0.43651 0.0
C944 C 0.85101 0.6417 0.46119 0.0
C945 C 0.81746 0.59484 0.44229 0.0
C946 C 0.76217 0.64057 0.41149 0.0
C947 C 0.7721 0.63732 0.41721 0.0
C948 C 0.7779 0.63044 0.4378 0.0
C949 C 0.77339 0.61755 0.44266 0.0
C950 C 0.78209 0.61472 0.44994 0.0
C951 C 0.79544 0.62524 0.45289 0.0
C952 C 0.7999 0.63843 0.44832 0.0
C953 C 0.79109 0.64085 0.4407 0.0
C954 C 0.77703 0.60046 0.45434 0.0
C955 C 0.81394 0.64995 0.4515 0.0
C956 C 0.77161 0.61907 0.54086 0.0
C957 C 0.76758 0.60708 0.5334 0.0
C958 C 0.77702 0.60529 0.52603 0.0
C959 C 0.79069 0.61579 0.5259 0.0
C960 C 0.79481 0.62776 0.53359 0.0
C961 C 0.78521 0.62916 0.54109 0.0
C962 C 0.77235 0.59222 0.51828 0.0
C963 C 0.8093 0.63917 0.53371 0.0
C964 C 0.8714 0.59402 0.53049 0.0
C965 C 0.86922 0.60389 0.53921 0.0
C966 C 0.84682 0.60112 0.53669 0.0
C967 C 0.83362 0.59074 0.53397 0.0
C968 C 0.82429 0.59333 0.52763 0.0
C969 C 0.82823 0.60671 0.52425 0.0
C970 C 0.84134 0.61736 0.52769 0.0
C971 C 0.85052 0.61445 0.53383 0.0
C972 C 0.81033 0.58176 0.52426 0.0
C973 C 0.84573 0.63182 0.5247 0.0
C974 C 0.82345 0.6182 0.45992 0.0
C975 C 0.81465 0.62131 0.45338 0.0
C976 C 0.80476 0.6224 0.46061 0.0
C977 C 0.80379 0.62063 0.47485 0.0
C978 C 0.79452 0.62242 0.48258 0.0
C979 C 0.79351 0.62046 0.49654 0.0
C980 C 0.8017 0.61658 0.50332 0.0
C981 C 0.80063 0.61438 0.51749 0.0
C982 C 0.80923 0.61095 0.52396 0.0
C983 C 0.81887 0.60956 0.51666 0.0
C984 C 0.81986 0.61138 0.50243 0.0
C985 C 0.82924 0.60974 0.49473 0.0
C986 C 0.83037 0.61187 0.48081 0.0
C987 C 0.82214 0.61569 0.47402 0.0
C988 C 0.81239 0.61707 0.48153 0.0
C989 C 0.81129 0.61497 0.49577 0.0
C990 C 0.74508 0.61814 0.53279 0.0
C991 C 0.7489 0.61476 0.54648 0.0
O992 O 0.8662 0.61769 0.43191 0.0
O993 O 0.85561 0.59793 0.54222 0.0
O994 O 0.76282 0.6214 0.54791 0.0
O995 O 0.76938 0.63269 0.4304 0.0
H996 H 0.85755 0.60501 0.41541 0.0
H997 H 0.85497 0.59076 0.43536 0.0
H998 H 0.87295 0.59934 0.43767 0.0
H999 H 0.86519 0.58907 0.42258 0.0
H1000 H 0.86838 0.63709 0.44687 0.0
H1001 H 0.8399 0.59808 0.4302 0.0
H1002 H 0.84368 0.64499 0.45904 0.0
H1003 H 0.86136 0.6502 0.45921 0.0
H1004 H 0.85029 0.63931 0.47214 0.0
H1005 H 0.8171 0.58646 0.4362 0.0
H1006 H 0.81078 0.59789 0.43737 0.0
H1007 H 0.81335 0.59111 0.45254 0.0
H1008 H 0.78291 0.645 0.41546 0.0
H1009 H 0.75271 0.62617 0.39584 0.0
H1010 H 0.76812 0.65171 0.40959 0.0
H1011 H 0.75652 0.64143 0.42041 0.0
H1012 H 0.76313 0.60963 0.4404 0.0
H1013 H 0.79441 0.6509 0.43714 0.0
H1014 H 0.78447 0.59738 0.45174 0.0
H1015 H 0.76718 0.59317 0.44952 0.0
H1016 H 0.77574 0.5999 0.46553 0.0
H1017 H 0.81527 0.65984 0.44872 0.0
H1018 H 0.8214 0.64844 0.44578 0.0
H1019 H 0.81622 0.65021 0.4625 0.0
H1020 H 0.7446 0.6037 0.54709 0.0
H1021 H 0.75713 0.59908 0.53327 0.0
H1022 H 0.78824 0.63832 0.54696 0.0
H1023 H 0.77284 0.59406 0.5072 0.0
H1024 H 0.76183 0.58444 0.52081 0.0
H1025 H 0.7791 0.58823 0.52048 0.0
H1026 H 0.81065 0.64822 0.53933 0.0
H1027 H 0.81289 0.64203 0.52314 0.0
H1028 H 0.81575 0.63582 0.53857 0.0
H1029 H 0.87269 0.6129 0.5328 0.0
H1030 H 0.88233 0.59814 0.52868 0.0
H1031 H 0.86631 0.59242 0.52048 0.0
H1032 H 0.86698 0.58407 0.5354 0.0
H1033 H 0.83077 0.58051 0.53645 0.0
H1034 H 0.86051 0.62265 0.53643 0.0
H1035 H 0.80835 0.5815 0.51318 0.0
H1036 H 0.8027 0.58327 0.52964 0.0
H1037 H 0.80896 0.57188 0.52717 0.0
H1038 H 0.85565 0.63904 0.52942 0.0
H1039 H 0.8381 0.63424 0.52845 0.0
H1040 H 0.84654 0.63325 0.51354 0.0
H1041 H 0.81556 0.62299 0.44252 0.0
H1042 H 0.78796 0.6254 0.47792 0.0
H1043 H 0.78621 0.62201 0.50195 0.0
H1044 H 0.8085 0.60949 0.53486 0.0
H1045 H 0.83585 0.60681 0.49938 0.0
H1046 H 0.83778 0.61046 0.47542 0.0
H1047 H 0.73394 0.61292 0.53161 0.0
H1048 H 0.74904 0.61477 0.52425 0.0
H1049 H 0.74933 0.62918 0.53206 0.0
C1050 C 0.40852 0.25756 0.40773 0.0
C1051 C 0.39566 0.25072 0.4162 0.0
C1052 C 0.39625 0.24328 0.43889 0.0
C1053 C 0.38297 0.23274 0.44067 0.0
C1054 C 0.38009 0.22232 0.44967 0.0
C1055 C 0.39079 0.22233 0.45676 0.0
C1056 C 0.40422 0.23309 0.45502 0.0
C1057 C 0.40671 0.24362 0.44635 0.0
C1058 C 0.36564 0.21118 0.45139 0.0
C1059 C 0.416 0.23328 0.46195 0.0
C1060 C 0.39151 0.15172 0.41266 0.0
C1061 C 0.38625 0.14223 0.42485 0.0
C1062 C 0.37877 0.15436 0.44009 0.0
C1063 C 0.39172 0.16475 0.44409 0.0
C1064 C 0.39337 0.17546 0.45249 0.0
C1065 C 0.38188 0.17583 0.45694 0.0
C1066 C 0.36884 0.16531 0.45312 0.0
C1067 C 0.36747 0.15467 0.44479 0.0
C1068 C 0.40742 0.18652 0.45644 0.0
C1069 C 0.35639 0.16543 0.45767 0.0
C1070 C 0.38311 0.1557 0.54408 0.0
C1071 C 0.39544 0.16515 0.53822 0.0
C1072 C 0.39675 0.1764 0.53152 0.0
C1073 C 0.38549 0.17816 0.53052 0.0
C1074 C 0.37317 0.16884 0.53666 0.0
C1075 C 0.37219 0.15778 0.54345 0.0
C1076 C 0.41013 0.18629 0.52529 0.0
C1077 C 0.36098 0.17041 0.53579 0.0
C1078 C 0.41892 0.28574 0.54614 0.0
C1079 C 0.40624 0.27188 0.54766 0.0
C1080 C 0.40516 0.25034 0.54405 0.0
C1081 C 0.41395 0.2456 0.54155 0.0
C1082 C 0.40956 0.23331 0.53463 0.0
C1083 C 0.39587 0.22535 0.53055 0.0
C1084 C 0.38672 0.22976 0.53377 0.0
C1085 C 0.39151 0.24232 0.54034 0.0
C1086 C 0.41963 0.22895 0.53152 0.0
C1087 C 0.37194 0.22127 0.53015 0.0
C1088 C 0.38807 0.21058 0.46507 0.0
C1089 C 0.38566 0.19887 0.45813 0.0
C1090 C 0.38358 0.18754 0.46511 0.0
C1091 C 0.38382 0.18777 0.47947 0.0
C1092 C 0.38176 0.17654 0.48679 0.0
C1093 C 0.38237 0.17698 0.50092 0.0
C1094 C 0.38524 0.18874 0.50826 0.0
C1095 C 0.38648 0.18947 0.52259 0.0
C1096 C 0.3894 0.20133 0.52958 0.0
C1097 C 0.39132 0.21264 0.52262 0.0
C1098 C 0.39006 0.21208 0.50828 0.0
C1099 C 0.39193 0.22324 0.50092 0.0
C1100 C 0.39091 0.22266 0.4868 0.0
C1101 C 0.38841 0.21104 0.47945 0.0
C1102 C 0.38635 0.19961 0.48667 0.0
C1103 C 0.38709 0.2001 0.50109 0.0
C1104 C 0.38902 0.13285 0.5359 0.0
C1105 C 0.38955 0.13901 0.55 0.0
O1106 O 0.39921 0.25311 0.42985 0.0
O1107 O 0.41019 0.2626 0.55021 0.0
O1108 O 0.38122 0.14444 0.55032 0.0
O1109 O 0.37666 0.14404 0.43156 0.0
H1110 H 0.39046 0.2397 0.41375 0.0
H1111 H 0.41514 0.25354 0.41042 0.0
H1112 H 0.41415 0.26863 0.40969 0.0
H1113 H 0.40602 0.25557 0.39672 0.0
H1114 H 0.37491 0.2327 0.43498 0.0
H1115 H 0.41692 0.25189 0.44488 0.0
H1116 H 0.36409 0.2019 0.44613 0.0
H1117 H 0.3584 0.21382 0.44708 0.0
H1118 H 0.36336 0.20888 0.46232 0.0
H1119 H 0.42583 0.2411 0.45777 0.0
H1120 H 0.41523 0.22332 0.46083 0.0
H1121 H 0.41592 0.23544 0.47296 0.0
H1122 H 0.39477 0.14456 0.43183 0.0
H1123 H 0.38373 0.1481 0.40448 0.0
H1124 H 0.3941 0.16207 0.41574 0.0
H1125 H 0.40087 0.15249 0.4086 0.0
H1126 H 0.4006 0.16472 0.44059 0.0
H1127 H 0.35753 0.14661 0.44169 0.0
H1128 H 0.40944 0.19618 0.4521 0.0
H1129 H 0.4153 0.18438 0.45281 0.0
H1130 H 0.40826 0.18786 0.46767 0.0
H1131 H 0.34695 0.15648 0.45382 0.0
H1132 H 0.35677 0.17467 0.45404 0.0
H1133 H 0.35609 0.16568 0.46894 0.0
H1134 H 0.40009 0.14701 0.55247 0.0
H1135 H 0.40406 0.16383 0.53875 0.0
H1136 H 0.36275 0.1505 0.54807 0.0
H1137 H 0.40912 0.18563 0.51405 0.0
H1138 H 0.41827 0.18431 0.52819 0.0
H1139 H 0.41316 0.19674 0.52849 0.0
H1140 H 0.35203 0.16211 0.54085 0.0
H1141 H 0.35841 0.17066 0.52497 0.0
H1142 H 0.36331 0.18014 0.54064 0.0
H1143 H 0.40058 0.26937 0.53784 0.0
H1144 H 0.4162 0.2934 0.54357 0.0
H1145 H 0.42525 0.28534 0.53783 0.0
H1146 H 0.42495 0.2889 0.55572 0.0
H1147 H 0.42442 0.25179 0.54468 0.0
H1148 H 0.38459 0.24581 0.54269 0.0
H1149 H 0.41904 0.22604 0.52062 0.0
H1150 H 0.4172 0.21998 0.5376 0.0
H1151 H 0.43015 0.23699 0.53396 0.0
H1152 H 0.36586 0.22514 0.53508 0.0
H1153 H 0.36793 0.21068 0.53323 0.0
H1154 H 0.37063 0.2212 0.51898 0.0
H1155 H 0.38565 0.19865 0.4471 0.0
H1156 H 0.37969 0.16728 0.48168 0.0
H1157 H 0.38071 0.16802 0.506 0.0
H1158 H 0.39059 0.20189 0.54055 0.0
H1159 H 0.39421 0.23259 0.50597 0.0
H1160 H 0.39232 0.23152 0.4817 0.0
H1161 H 0.39554 0.12834 0.53569 0.0
H1162 H 0.39269 0.14069 0.52803 0.0
H1163 H 0.3785 0.1249 0.53326 0.0
C1164 C 0.85692 0.23623 0.4054 0.0
C1165 C 0.86517 0.24575 0.41724 0.0
C1166 C 0.85291 0.23048 0.43598 0.0
C1167 C 0.84186 0.23248 0.43641 0.0
C1168 C 0.83039 0.22402 0.44405 0.0
C1169 C 0.82988 0.21323 0.4512 0.0
C1170 C 0.84101 0.21122 0.45077 0.0
C1171 C 0.85249 0.22006 0.44336 0.0
C1172 C 0.81877 0.22656 0.44443 0.0
C1173 C 0.84074 0.19964 0.45797 0.0
C1174 C 0.7588 0.15267 0.39654 0.0
C1175 C 0.75975 0.1446 0.40822 0.0
C1176 C 0.7645 0.15604 0.43017 0.0
C1177 C 0.7744 0.15362 0.43529 0.0
C1178 C 0.78398 0.16253 0.44482 0.0
C1179 C 0.78364 0.17409 0.44927 0.0
C1180 C 0.77326 0.17619 0.44459 0.0
C1181 C 0.76367 0.16699 0.43521 0.0
C1182 C 0.79469 0.15978 0.44988 0.0
C1183 C 0.77259 0.1884 0.44912 0.0
C1184 C 0.75395 0.15898 0.53371 0.0
C1185 C 0.76343 0.15506 0.53086 0.0
C1186 C 0.77608 0.16426 0.52548 0.0
C1187 C 0.77919 0.17754 0.52275 0.0
C1188 C 0.76991 0.18167 0.52626 0.0
C1189 C 0.75745 0.17234 0.53186 0.0
C1190 C 0.78597 0.15968 0.52235 0.0
C1191 C 0.77298 0.19581 0.52369 0.0
C1192 C 0.86934 0.26751 0.53796 0.0
C1193 C 0.86453 0.25773 0.54984 0.0
C1194 C 0.84938 0.23559 0.53892 0.0
C1195 C 0.84809 0.22325 0.5352 0.0
C1196 C 0.83666 0.2133 0.52815 0.0
C1197 C 0.82627 0.21585 0.52465 0.0
C1198 C 0.82734 0.2282 0.52861 0.0
C1199 C 0.83885 0.23794 0.53575 0.0
C1200 C 0.83579 0.20018 0.5242 0.0
C1201 C 0.81642 0.23121 0.52503 0.0
C1202 C 0.81759 0.20386 0.45883 0.0
C1203 C 0.80658 0.19384 0.45145 0.0
C1204 C 0.79475 0.18448 0.45793 0.0
C1205 C 0.79381 0.18503 0.47223 0.0
C1206 C 0.78208 0.17578 0.47909 0.0
C1207 C 0.78128 0.17643 0.49317 0.0
C1208 C 0.79229 0.1862 0.50096 0.0
C1209 C 0.79166 0.18681 0.5153 0.0
C1210 C 0.80285 0.19653 0.52274 0.0
C1211 C 0.81467 0.20588 0.5162 0.0
C1212 C 0.81538 0.20563 0.50186 0.0
C1213 C 0.82698 0.21513 0.49495 0.0
C1214 C 0.82766 0.21469 0.48085 0.0
C1215 C 0.81684 0.20464 0.47313 0.0
C1216 C 0.80494 0.19511 0.47985 0.0
C1217 C 0.80421 0.19564 0.49423 0.0
C1218 C 0.71937 0.13184 0.53314 0.0
C1219 C 0.7342 0.13639 0.5356 0.0
O1220 O 0.86412 0.23825 0.42853 0.0
O1221 O 0.86098 0.24489 0.54531 0.0
O1222 O 0.74132 0.15017 0.53811 0.0
O1223 O 0.75582 0.14811 0.42019 0.0
H1224 H 0.8614 0.25268 0.41969 0.0
H1225 H 0.84613 0.22998 0.40821 0.0
H1226 H 0.86078 0.22941 0.40271 0.0
H1227 H 0.85742 0.24201 0.3963 0.0
H1228 H 0.84212 0.24062 0.43089 0.0
H1229 H 0.86108 0.21863 0.44299 0.0
H1230 H 0.80998 0.21824 0.43893 0.0
H1231 H 0.82133 0.23623 0.43965 0.0
H1232 H 0.81568 0.22672 0.45509 0.0
H1233 H 0.84947 0.19849 0.45522 0.0
H1234 H 0.83127 0.19006 0.45547 0.0
H1235 H 0.84098 0.20134 0.46912 0.0
H1236 H 0.77053 0.14738 0.40881 0.0
H1237 H 0.76162 0.14977 0.38679 0.0
H1238 H 0.76587 0.1636 0.39846 0.0
H1239 H 0.74844 0.15096 0.39558 0.0
H1240 H 0.77471 0.14485 0.4317 0.0
H1241 H 0.75585 0.16863 0.43131 0.0
H1242 H 0.7953 0.16055 0.46115 0.0
H1243 H 0.80466 0.16749 0.44591 0.0
H1244 H 0.7927 0.14965 0.44663 0.0
H1245 H 0.76394 0.18863 0.44445 0.0
H1246 H 0.78208 0.19771 0.44638 0.0
H1247 H 0.77165 0.18849 0.46034 0.0
H1248 H 0.73787 0.13393 0.52611 0.0
H1249 H 0.76097 0.14484 0.53274 0.0
H1250 H 0.75014 0.1753 0.53433 0.0
H1251 H 0.78678 0.15891 0.51117 0.0
H1252 H 0.78283 0.14971 0.52675 0.0
H1253 H 0.79615 0.16718 0.52634 0.0
H1254 H 0.7645 0.1973 0.5266 0.0
H1255 H 0.77521 0.19814 0.51276 0.0
H1256 H 0.78209 0.20311 0.52959 0.0
H1257 H 0.85568 0.25753 0.55466 0.0
H1258 H 0.87251 0.27786 0.54171 0.0
H1259 H 0.8611 0.26446 0.53041 0.0
H1260 H 0.87798 0.26768 0.53273 0.0
H1261 H 0.85621 0.22148 0.53773 0.0
H1262 H 0.83957 0.24738 0.53862 0.0
H1263 H 0.83609 0.19938 0.51296 0.0
H1264 H 0.82606 0.19156 0.52763 0.0
H1265 H 0.84419 0.19933 0.52861 0.0
H1266 H 0.81883 0.24138 0.52866 0.0
H1267 H 0.80674 0.22357 0.52961 0.0
H1268 H 0.81493 0.23053 0.51384 0.0
H1269 H 0.80727 0.19327 0.44048 0.0
H1270 H 0.77336 0.16795 0.47364 0.0
H1271 H 0.77194 0.16908 0.49786 0.0
H1272 H 0.80233 0.19686 0.53374 0.0
H1273 H 0.83568 0.22304 0.50035 0.0
H1274 H 0.83683 0.2223 0.4761 0.0
H1275 H 0.71343 0.12082 0.53093 0.0
H1276 H 0.71845 0.13716 0.52428 0.0
H1277 H 0.71504 0.13415 0.54218 0.0
C1278 C 0.01387 0.47062 0.27087 0.0
C1279 C 0.0074 0.45913 0.26028 0.0
C1280 C 0.01012 0.4697 0.23852 0.0
C1281 C 0.99665 0.46419 0.23437 0.0
C1282 C 0.99295 0.47116 0.22552 0.0
C1283 C 0.00296 0.48384 0.22067 0.0
C1284 C 0.01666 0.48906 0.22424 0.0
C1285 C 0.02009 0.48182 0.23305 0.0
C1286 C 0.9783 0.46514 0.22161 0.0
C1287 C 0.02758 0.50248 0.21908 0.0
C1288 C 0.97427 0.53187 0.27457 0.0
C1289 C 0.98388 0.54058 0.26341 0.0
C1290 C 0.98069 0.53033 0.24097 0.0
C1291 C 0.99413 0.53563 0.23699 0.0
C1292 C 0.99756 0.52874 0.22741 0.0
C1293 C 0.98734 0.51629 0.22183 0.0
C1294 C 0.97369 0.51125 0.2254 0.0
C1295 C 0.97053 0.5185 0.2348 0.0
C1296 C 0.01216 0.53458 0.22355 0.0
C1297 C 0.96254 0.49796 0.21972 0.0
C1298 C 0.97076 0.52781 0.13901 0.0
C1299 C 0.9848 0.53338 0.1396 0.0
C1300 C 0.99031 0.52577 0.14428 0.0
C1301 C 0.98158 0.51235 0.14831 0.0
C1302 C 0.96747 0.5064 0.14664 0.0
C1303 C 0.96223 0.51422 0.14191 0.0
C1304 C 0.00542 0.53225 0.14553 0.0
C1305 C 0.9579 0.49199 0.15052 0.0
C1306 C 0.0218 0.44384 0.14168 0.0
C1307 C 0.01057 0.44499 0.13473 0.0
C1308 C 0.01 0.46593 0.13609 0.0
C1309 C 0.01872 0.47975 0.13812 0.0
C1310 C 0.01405 0.48789 0.14365 0.0
C1311 C 0.00028 0.48201 0.14707 0.0
C1312 C 0.9912 0.46822 0.14406 0.0
C1313 C 0.99615 0.4603 0.13852 0.0
C1314 C 0.02395 0.50264 0.14645 0.0
C1315 C 0.97638 0.46176 0.14724 0.0
C1316 C -0.00105 0.49203 0.21271 0.0
C1317 C 0.99539 0.50026 0.21994 0.0
C1318 C 0.99105 0.50798 0.21327 0.0
C1319 C 0.9902 0.5075 0.19894 0.0
C1320 C 0.98584 0.5151 0.19189 0.0
C1321 C 0.98475 0.51432 0.17779 0.0
C1322 C 0.98818 0.50605 0.17017 0.0
C1323 C 0.98704 0.50512 0.15583 0.0
C1324 C 0.99091 0.49715 0.14853 0.0
C1325 C 0.99577 0.48988 0.15524 0.0
C1326 C 0.9966 0.49035 0.1696 0.0
C1327 C 0.0011 0.48285 0.17668 0.0
C1328 C 0.00184 0.48334 0.1908 0.0
C1329 C 0.99825 0.49146 0.19838 0.0
C1330 C 0.99379 0.49918 0.19147 0.0
C1331 C 0.99286 0.49854 0.17707 0.0
C1332 C 0.96011 0.5503 0.14793 0.0
C1333 C 0.97037 0.54876 0.13937 0.0
O1334 O 0.01373 0.46362 0.24788 0.0
O1335 O 0.01538 0.45841 0.13189 0.0
O1336 O 0.96509 0.53527 0.13596 0.0
O1337 O 0.97732 0.5363 0.25095 0.0
H1338 H 0.99655 0.45598 0.25954 0.0
H1339 H 0.01243 0.47902 0.26778 0.0
H1340 H 0.02488 0.47454 0.27184 0.0
H1341 H 0.00908 0.46708 0.28094 0.0
H1342 H 0.98901 0.45447 0.23811 0.0
H1343 H 0.03049 0.48585 0.23614 0.0
H1344 H 0.9745 0.4716 0.22577 0.0
H1345 H 0.97188 0.45478 0.22548 0.0
H1346 H 0.97725 0.46484 0.21038 0.0
H1347 H 0.03781 0.50493 0.22242 0.0
H1348 H 0.02578 0.51056 0.22282 0.0
H1349 H 0.02726 0.50242 0.20781 0.0
H1350 H 0.99275 0.53917 0.2638 0.0
H1351 H 0.97933 0.5351 0.28467 0.0
H1352 H 0.97124 0.52116 0.27272 0.0
H1353 H 0.96504 0.53263 0.27469 0.0
H1354 H 0.00192 0.54506 0.24148 0.0
H1355 H 0.96017 0.51463 0.23785 0.0
H1356 H 0.0131 0.53434 0.21233 0.0
H1357 H 0.016 0.52835 0.2279 0.0
H1358 H 0.0186 0.54512 0.22736 0.0
H1359 H 0.95251 0.49524 0.22389 0.0
H1360 H 0.96464 0.48982 0.22208 0.0
H1361 H 0.96212 0.49845 0.2085 0.0
H1362 H 0.97953 0.55263 0.14592 0.0
H1363 H 0.99146 0.54371 0.13665 0.0
H1364 H 0.95142 0.50994 0.1411 0.0
H1365 H 0.0083 0.53322 0.15643 0.0
H1366 H 0.01086 0.54241 0.14099 0.0
H1367 H 0.00876 0.52578 0.14046 0.0
H1368 H 0.94734 0.48847 0.14739 0.0
H1369 H 0.95821 0.4911 0.16172 0.0
H1370 H 0.96109 0.48526 0.14579 0.0
H1371 H 0.00203 0.44106 0.142 0.0
H1372 H 0.01821 0.43317 0.14413 0.0
H1373 H 0.02486 0.44988 0.1513 0.0
H1374 H 0.03077 0.44766 0.13501 0.0
H1375 H 0.02934 0.48403 0.13589 0.0
H1376 H 0.98921 0.44974 0.13625 0.0
H1377 H 0.02508 0.50458 0.1576 0.0
H1378 H 0.02007 0.50887 0.14216 0.0
H1379 H 0.03405 0.50592 0.14211 0.0
H1380 H 0.97046 0.4512 0.14334 0.0
H1381 H 0.97224 0.46768 0.14274 0.0
H1382 H 0.97506 0.46181 0.15841 0.0
H1383 H 0.9959 0.50058 0.23097 0.0
H1384 H 0.98312 0.52166 0.19722 0.0
H1385 H 0.98123 0.52032 0.17295 0.0
H1386 H 0.99017 0.49663 0.13752 0.0
H1387 H 0.00403 0.47643 0.17141 0.0
H1388 H 0.0053 0.47731 0.1957 0.0
H1389 H 0.96404 0.5611 0.15051 0.0
H1390 H 0.95827 0.54475 0.15755 0.0
H1391 H 0.95034 0.54616 0.14243 0.0
C1392 C 0.46831 0.39368 0.24752 0.0
C1393 C 0.46707 0.40545 0.25332 0.0
C1394 C 0.47647 0.42397 0.23708 0.0
C1395 C 0.47334 0.43235 0.22988 0.0
C1396 C 0.48344 0.44397 0.22361 0.0
C1397 C 0.49697 0.44696 0.22413 0.0
C1398 C 0.50022 0.43845 0.23131 0.0
C1399 C 0.48996 0.42713 0.23786 0.0
C1400 C 0.47961 0.453 0.21641 0.0
C1401 C 0.51452 0.44126 0.23206 0.0
C1402 C 0.56546 0.51862 0.27476 0.0
C1403 C 0.57193 0.52706 0.26207 0.0
C1404 C 0.55376 0.5149 0.24502 0.0
C1405 C 0.55591 0.50408 0.24264 0.0
C1406 C 0.54728 0.4933 0.23398 0.0
C1407 C 0.53618 0.49321 0.22776 0.0
C1408 C 0.53396 0.50405 0.23017 0.0
C1409 C 0.54289 0.51482 0.23868 0.0
C1410 C 0.55002 0.48196 0.23147 0.0
C1411 C 0.52217 0.50423 0.22377 0.0
C1412 C 0.56694 0.51729 0.14408 0.0
C1413 C 0.56887 0.50694 0.14878 0.0
C1414 C 0.55808 0.49516 0.15413 0.0
C1415 C 0.54515 0.49371 0.15486 0.0
C1416 C 0.54309 0.50394 0.14983 0.0
C1417 C 0.55404 0.5156 0.1445 0.0
C1418 C 0.56058 0.4844 0.15937 0.0
C1419 C 0.52941 0.50269 0.15044 0.0
C1420 C 0.46063 0.38916 0.14523 0.0
C1421 C 0.46479 0.40235 0.13799 0.0
C1422 C 0.48769 0.4217 0.1397 0.0
C1423 C 0.50064 0.42457 0.14317 0.0
C1424 C 0.51004 0.43704 0.14912 0.0
C1425 C 0.50638 0.4469 0.1514 0.0
C1426 C 0.49368 0.44447 0.14684 0.0
C1427 C 0.48445 0.43188 0.141 0.0
C1428 C 0.52361 0.43943 0.15361 0.0
C1429 C 0.48964 0.45494 0.14875 0.0
C1430 C 0.50771 0.45886 0.217 0.0
C1431 C 0.51638 0.47032 0.22478 0.0
C1432 C 0.52689 0.48175 0.21876 0.0
C1433 C 0.52869 0.48195 0.20453 0.0
C1434 C 0.53906 0.49336 0.19814 0.0
C1435 C 0.54077 0.49343 0.18414 0.0
C1436 C 0.53225 0.48205 0.176 0.0
C1437 C 0.53403 0.48195 0.16177 0.0
C1438 C 0.52542 0.47047 0.15396 0.0
C1439 C 0.51508 0.45895 0.16005 0.0
C1440 C 0.5132 0.45883 0.17427 0.0
C1441 C 0.50302 0.44731 0.18072 0.0
C1442 C 0.50125 0.44727 0.1947 0.0
C1443 C 0.50951 0.45876 0.20279 0.0
C1444 C 0.51995 0.47041 0.19652 0.0
C1445 C 0.52177 0.47045 0.18225 0.0
C1446 C 0.59773 0.53802 0.15186 0.0
C1447 C 0.59066 0.53304 0.13795 0.0
O1448 O 0.46618 0.41288 0.2429 0.0
O1449 O 0.47852 0.40899 0.13542 0.0
O1450 O 0.57717 0.52915 0.13936 0.0
O1451 O 0.56179 0.52557 0.25335 0.0
H1452 H 0.47616 0.4119 0.25973 0.0
H1453 H 0.47797 0.3975 0.24205 0.0
H1454 H 0.45999 0.38742 0.24024 0.0
H1455 H 0.46811 0.38723 0.25588 0.0
H1456 H 0.46291 0.42983 0.22935 0.0
H1457 H 0.49257 0.42073 0.24334 0.0
H1458 H 0.48666 0.46372 0.2193 0.0
H1459 H 0.46915 0.45046 0.21877 0.0
H1460 H 0.48036 0.45194 0.20527 0.0
H1461 H 0.51504 0.43263 0.23616 0.0
H1462 H 0.52056 0.45018 0.23881 0.0
H1463 H 0.51921 0.44362 0.22185 0.0
H1464 H 0.57834 0.52369 0.25693 0.0
H1465 H 0.57318 0.51857 0.28144 0.0
H1466 H 0.55818 0.50798 0.27181 0.0
H1467 H 0.55996 0.52264 0.28059 0.0
H1468 H 0.56425 0.50393 0.24746 0.0
H1469 H 0.54132 0.5232 0.24058 0.0
H1470 H 0.54158 0.47249 0.23554 0.0
H1471 H 0.55957 0.48394 0.23633 0.0
H1472 H 0.55056 0.48037 0.22038 0.0
H1473 H 0.52152 0.51312 0.22714 0.0
H1474 H 0.51261 0.49492 0.22638 0.0
H1475 H 0.52312 0.50436 0.21254 0.0
H1476 H 0.59161 0.52438 0.13432 0.0
H1477 H 0.57876 0.50804 0.14857 0.0
H1478 H 0.55263 0.5236 0.14082 0.0
H1479 H 0.55895 0.48353 0.17052 0.0
H1480 H 0.57099 0.48661 0.15727 0.0
H1481 H 0.55329 0.47449 0.15464 0.0
H1482 H 0.52937 0.51132 0.14568 0.0
H1483 H 0.52628 0.50211 0.1612 0.0
H1484 H 0.52181 0.49322 0.14519 0.0
H1485 H 0.46228 0.40828 0.14522 0.0
H1486 H 0.44953 0.38334 0.14671 0.0
H1487 H 0.46561 0.39145 0.15538 0.0
H1488 H 0.46372 0.38286 0.1394 0.0
H1489 H 0.50314 0.41675 0.14183 0.0
H1490 H 0.47466 0.42995 0.13769 0.0
H1491 H 0.52447 0.44054 0.16485 0.0
H1492 H 0.53177 0.44895 0.1493 0.0
H1493 H 0.5252 0.43105 0.15043 0.0
H1494 H 0.48011 0.45214 0.14327 0.0
H1495 H 0.49776 0.46485 0.14511 0.0
H1496 H 0.48821 0.45613 0.15974 0.0
H1497 H 0.51505 0.47028 0.23571 0.0
H1498 H 0.54596 0.50238 0.20389 0.0
H1499 H 0.54889 0.50252 0.1798 0.0
H1500 H 0.52686 0.47045 0.14307 0.0
H1501 H 0.49631 0.43816 0.17507 0.0
H1502 H 0.49331 0.43809 0.19908 0.0
H1503 H 0.59857 0.54775 0.15485 0.0
H1504 H 0.60792 0.5392 0.15161 0.0
H1505 H 0.59194 0.53061 0.15982 0.0
C1506 C 0.45937 0.98512 0.27368 0.0
C1507 C 0.45349 0.99103 0.26389 0.0
C1508 C 0.45957 0.98706 0.24143 0.0
C1509 C 0.46807 0.00032 0.23718 0.0
C1510 C 0.47838 0.00333 0.22782 0.0
C1511 C 0.48005 0.99281 0.22248 0.0
C1512 C 0.4709 0.97932 0.22603 0.0
C1513 C 0.46067 0.97659 0.23543 0.0
C1514 C 0.48776 0.0178 0.22399 0.0
C1515 C 0.47223 0.96786 0.22024 0.0
C1516 C 0.5825 0.03348 0.23822 0.0
C1517 C 0.57285 0.02225 0.24768 0.0
C1518 C 0.55155 0.00942 0.23472 0.0
C1519 C 0.54296 0.99703 0.2283 0.0
C1520 C 0.53098 0.99447 0.22197 0.0
C1521 C 0.52762 0.00467 0.22193 0.0
C1522 C 0.5361 0.01715 0.22865 0.0
C1523 C 0.54797 0.0194 0.23505 0.0
C1524 C 0.52206 0.98096 0.21506 0.0
C1525 C 0.53277 0.02822 0.22878 0.0
C1526 C 0.55756 0.02852 0.14114 0.0
C1527 C 0.54979 0.01446 0.1423 0.0
C1528 C 0.5363 0.00825 0.14651 0.0
C1529 C 0.53065 0.01632 0.14987 0.0
C1530 C 0.53822 0.03039 0.1478 0.0
C1531 C 0.55155 0.03627 0.14325 0.0
C1532 C 0.52833 0.99316 0.14807 0.0
C1533 C 0.53247 0.0393 0.15098 0.0
C1534 C 0.42659 0.98961 0.14985 0.0
C1535 C 0.43755 -0.00088 0.14006 0.0
C1536 C 0.45695 0.99595 0.13903 0.0
C1537 C 0.45954 0.98541 0.13995 0.0
C1538 C 0.47188 0.98768 0.14513 0.0
C1539 C 0.48181 0.00084 0.14943 0.0
C1540 C 0.47961 0.01171 0.14757 0.0
C1541 C 0.46725 0.00917 0.14222 0.0
C1542 C 0.47406 0.97593 0.14662 0.0
C1543 C 0.49015 0.02594 0.15165 0.0
C1544 C 0.49206 0.99612 0.21417 0.0
C1545 C 0.50367 0.99839 0.22103 0.0
C1546 C 0.5157 0.00256 0.21411 0.0
C1547 C 0.5163 0.00462 0.19997 0.0
C1548 C 0.52843 0.00941 0.19283 0.0
C1549 C 0.52894 0.01141 0.17892 0.0
C1550 C 0.51729 0.00851 0.17153 0.0
C1551 C 0.51771 0.01045 0.15734 0.0
C1552 C 0.50597 0.00759 0.15032 0.0
C1553 C 0.49379 0.00303 0.15719 0.0
C1554 C 0.4932 0.00113 0.1714 0.0
C1555 C 0.48117 0.99683 0.17868 0.0
C1556 C 0.48075 0.99515 0.19267 0.0
C1557 C 0.49231 0.99767 0.19994 0.0
C1558 C 0.50451 0.00197 0.19282 0.0
C1559 C 0.50498 0.00379 0.17856 0.0
C1560 C 0.59272 0.04332 0.14744 0.0
C1561 C 0.57992 0.03099 0.14183 0.0
O1562 O 0.45047 0.98415 0.2515 0.0
O1563 O 0.44444 0.993 0.1351 0.0
O1564 O 0.57089 0.03499 0.13817 0.0
O1565 O 0.5632 0.01127 0.2402 0.0
H1566 H 0.46136 0.00181 0.26272 0.0
H1567 H 0.46919 0.98689 0.26977 0.0
H1568 H 0.45252 0.97408 0.27468 0.0
H1569 H 0.46114 0.99006 0.28387 0.0
H1570 H 0.46678 0.00836 0.24129 0.0
H1571 H 0.45386 0.96635 0.23858 0.0
H1572 H 0.49819 0.02104 0.22734 0.0
H1573 H 0.48478 0.02474 0.22863 0.0
H1574 H 0.48789 0.01872 0.21277 0.0
H1575 H 0.4637 0.95786 0.22317 0.0
H1576 H 0.48179 0.96883 0.22394 0.0
H1577 H 0.47273 0.96836 0.20898 0.0
H1578 H 0.56788 0.02618 0.25453 0.0
H1579 H 0.59044 0.04211 0.24427 0.0
H1580 H 0.57697 0.03717 0.23218 0.0
H1581 H 0.5874 0.02976 0.23105 0.0
H1582 H 0.54577 0.98938 0.22816 0.0
H1583 H 0.55445 0.02903 0.24003 0.0
H1584 H 0.52228 0.98228 0.2039 0.0
H1585 H 0.51144 0.97669 0.21838 0.0
H1586 H 0.52532 0.97364 0.21725 0.0
H1587 H 0.54056 0.03749 0.23418 0.0
H1588 H 0.52291 0.02464 0.23383 0.0
H1589 H 0.53178 0.03081 0.2182 0.0
H1590 H 0.57572 0.02355 0.15016 0.0
H1591 H 0.55427 0.00837 0.1401 0.0
H1592 H 0.55759 0.04708 0.14199 0.0
H1593 H 0.52766 0.99075 0.15901 0.0
H1594 H 0.53313 0.98815 0.14268 0.0
H1595 H 0.51789 0.98895 0.14411 0.0
H1596 H 0.53991 0.05013 0.1494 0.0
H1597 H 0.529 0.03799 0.16168 0.0
H1598 H 0.52358 0.0363 0.14433 0.0
H1599 H 0.44426 0.00842 0.1461 0.0
H1600 H 0.42062 0.99413 0.15353 0.0
H1601 H 0.43136 0.98787 0.15878 0.0
H1602 H 0.41969 0.9797 0.14488 0.0
H1603 H 0.45165 0.97529 0.1371 0.0
H1604 H 0.46565 0.01751 0.14066 0.0
H1605 H 0.47395 0.9737 0.15756 0.0
H1606 H 0.48409 0.97852 0.14257 0.0
H1607 H 0.46615 0.96671 0.14127 0.0
H1608 H 0.48676 0.03323 0.14983 0.0
H1609 H 0.49949 0.02906 0.14579 0.0
H1610 H 0.49272 0.02641 0.1626 0.0
H1611 H 0.50337 0.99708 0.23195 0.0
H1612 H 0.53772 0.01176 0.19792 0.0
H1613 H 0.53862 0.01524 0.17408 0.0
H1614 H 0.50639 0.00922 0.13947 0.0
H1615 H 0.47194 0.99475 0.17365 0.0
H1616 H 0.47123 0.99183 0.19774 0.0
H1617 H 0.59754 0.0511 0.13952 0.0
H1618 H 0.60004 0.04046 0.15099 0.0
H1619 H 0.59015 0.04776 0.15623 0.0
C1620 C 0.54831 0.97069 0.77277 0.0
C1621 C 0.54979 0.98173 0.76322 0.0
C1622 C 0.54303 0.99532 0.77707 0.0
C1623 C 0.54778 0.00791 0.78335 0.0
C1624 C 0.53909 0.01087 0.79061 0.0
C1625 C 0.52533 0.00085 0.79181 0.0
C1626 C 0.52036 0.98815 0.78527 0.0
C1627 C 0.52923 0.98553 0.77787 0.0
C1628 C 0.54469 0.02462 0.79724 0.0
C1629 C 0.50572 0.97723 0.78637 0.0
C1630 C 0.44943 0.01501 0.75099 0.0
C1631 C 0.46117 0.01547 0.75784 0.0
C1632 C 0.46952 0.01398 0.77959 0.0
C1633 C 0.46571 0.00199 0.78623 0.0
C1634 C 0.47521 0.00032 0.79346 0.0
C1635 C 0.48872 0.01119 0.79455 0.0
C1636 C 0.49248 0.02354 0.78823 0.0
C1637 C 0.48283 0.02474 0.78066 0.0
C1638 C 0.47084 0.98684 0.79969 0.0
C1639 C 0.50667 0.03541 0.78941 0.0
C1640 C 0.46911 0.01212 0.87826 0.0
C1641 C 0.46584 0.9989 0.875 0.0
C1642 C 0.47555 0.99632 0.86952 0.0
C1643 C 0.48886 0.00717 0.86759 0.0
C1644 C 0.49246 0.02031 0.87207 0.0
C1645 C 0.48249 0.02261 0.87741 0.0
C1646 C 0.47147 0.9821 0.86531 0.0
C1647 C 0.50663 0.03203 0.87046 0.0
C1648 C 0.54991 0.95992 0.86854 0.0
C1649 C 0.55243 0.973 0.8755 0.0
C1650 C 0.53414 0.97784 0.87491 0.0
C1651 C 0.5203 0.97055 0.87229 0.0
C1652 C 0.51367 0.97678 0.86684 0.0
C1653 C 0.52105 0.99081 0.86445 0.0
C1654 C 0.53496 0.99841 0.86786 0.0
C1655 C 0.5414 0.99181 0.87295 0.0
C1656 C 0.49882 0.96831 0.8635 0.0
C1657 C 0.54302 0.01344 0.8659 0.0
C1658 C 0.51632 0.00341 0.80051 0.0
C1659 C 0.50767 0.00689 0.79426 0.0
C1660 C 0.49891 0.00939 0.80193 0.0
C1661 C 0.49919 0.00897 0.81628 0.0
C1662 C 0.49108 0.01216 0.82433 0.0
C1663 C 0.49093 0.01108 0.83838 0.0
C1664 C 0.49888 0.00676 0.84494 0.0
C1665 C 0.49833 0.00505 0.85918 0.0
C1666 C 0.50605 0.00037 0.86535 0.0
C1667 C 0.51434 0.99725 0.85761 0.0
C1668 C 0.51518 -0.00091 0.84338 0.0
C1669 C 0.52337 0.99602 0.83528 0.0
C1670 C 0.52392 0.99762 0.82128 0.0
C1671 C 0.51609 0.00208 0.81477 0.0
C1672 C 0.50763 0.00506 0.8227 0.0
C1673 C 0.50735 0.00378 0.83704 0.0
C1674 C 0.44695 0.01954 0.86602 0.0
C1675 C 0.44688 0.00961 0.87618 0.0
O1676 O 0.55216 0.99308 0.77061 0.0
O1677 O 0.54007 0.97112 0.87958 0.0
O1678 O 0.45957 0.01507 0.88208 0.0
O1679 O 0.46034 0.01493 0.77188 0.0
H1680 H 0.54039 0.97782 0.75706 0.0
H1681 H 0.53942 0.96735 0.77942 0.0
H1682 H 0.55739 0.97442 0.77936 0.0
H1683 H 0.54687 0.96179 0.76676 0.0
H1684 H 0.5584 0.01542 0.78261 0.0
H1685 H 0.52532 0.97577 0.77298 0.0
H1686 H 0.53822 0.02887 0.79474 0.0
H1687 H 0.55518 0.03178 0.79399 0.0
H1688 H 0.54466 0.02369 0.80844 0.0
H1689 H 0.50357 0.96766 0.78128 0.0
H1690 H 0.49925 0.98065 0.78169 0.0
H1691 H 0.50288 0.97524 0.79724 0.0
H1692 H 0.47129 0.02332 0.75414 0.0
H1693 H 0.44032 0.99659 0.74018 0.0
H1694 H 0.4537 0.02499 0.74584 0.0
H1695 H 0.44403 0.01741 0.75911 0.0
H1696 H 0.45537 0.99376 0.78534 0.0
H1697 H 0.48562 0.03405 0.77558 0.0
H1698 H 0.47069 0.98778 0.81091 0.0
H1699 H 0.47809 0.9835 0.79712 0.0
H1700 H 0.46061 0.97893 0.79619 0.0
H1701 H 0.50754 0.04475 0.78537 0.0
H1702 H 0.51361 0.03316 0.78365 0.0
H1703 H 0.51003 0.03723 0.8002 0.0
H1704 H 0.44406 0.00022 0.87028 0.0
H1705 H 0.45566 0.99061 0.8765 0.0
H1706 H 0.48497 0.03273 0.88032 0.0
H1707 H 0.47357 0.98166 0.85435 0.0
H1708 H 0.46061 0.97485 0.86713 0.0
H1709 H 0.47754 0.97888 0.87113 0.0
H1710 H 0.50825 0.04118 0.87608 0.0
H1711 H 0.50861 0.03443 0.85952 0.0
H1712 H 0.51405 0.02933 0.87412 0.0
H1713 H 0.55724 0.98114 0.8679 0.0
H1714 H 0.55938 0.96112 0.86426 0.0
H1715 H 0.54259 0.95719 0.86003 0.0
H1716 H 0.54567 0.95154 0.87586 0.0
H1717 H 0.51477 0.95981 0.87412 0.0
H1718 H 0.55205 0.99753 0.8755 0.0
H1719 H 0.49672 0.97042 0.85311 0.0
H1720 H 0.4931 0.97091 0.87078 0.0
H1721 H 0.49503 0.95735 0.86418 0.0
H1722 H 0.5532 0.01812 0.87067 0.0
H1723 H 0.53758 0.01825 0.87028 0.0
H1724 H 0.54425 0.01556 0.85487 0.0
H1725 H 0.50752 0.00735 0.78326 0.0
H1726 H 0.4847 0.01545 0.81984 0.0
H1727 H 0.48436 0.01355 0.844 0.0
H1728 H 0.50527 0.99873 0.87621 0.0
H1729 H 0.52947 0.99234 0.83965 0.0
H1730 H 0.53041 0.99508 0.81561 0.0
H1731 H 0.43674 0.01548 0.8615 0.0
H1732 H 0.45411 0.02113 0.85769 0.0
H1733 H 0.45016 0.02946 0.871 0.0
C1734 C 0.02466 0.55356 0.74287 0.0
C1735 C 0.0124 0.55098 0.75126 0.0
C1736 C 0.01128 0.54266 0.77396 0.0
C1737 C 0.99743 0.53368 0.77553 0.0
C1738 C 0.99278 0.52306 0.78471 0.0
C1739 C 0.00224 0.52131 0.79222 0.0
C1740 C 0.01625 0.53052 0.7907 0.0
C1741 C 0.02055 0.5413 0.78182 0.0
C1742 C 0.97779 0.51364 0.78623 0.0
C1743 C 0.02674 0.52883 0.79812 0.0
C1744 C 0.96842 0.43909 0.74202 0.0
C1745 C 0.97838 0.44157 0.75351 0.0
C1746 C 0.97702 0.45109 0.77542 0.0
C1747 C 0.99088 0.45966 0.77793 0.0
C1748 C 0.99545 0.47057 0.78713 0.0
C1749 C 0.98595 0.47287 0.79393 0.0
C1750 C 0.97198 0.46374 0.79204 0.0
C1751 C 0.9677 0.45284 0.78288 0.0
C1752 C 0.01041 0.47991 0.78925 0.0
C1753 C 0.96159 0.46585 0.79922 0.0
C1754 C 0.00068 0.4607 0.88304 0.0
C1755 C 0.01246 0.47102 0.87735 0.0
C1756 C 0.01221 0.48067 0.86912 0.0
C1757 C -0.00018 0.48011 0.86672 0.0
C1758 C 0.98778 0.46958 0.87227 0.0
C1759 C 0.98829 0.45984 0.88022 0.0
C1760 C 0.02526 0.49163 0.86325 0.0
C1761 C 0.97441 0.46869 0.86992 0.0
C1762 C 0.02746 0.58518 0.8666 0.0
C1763 C 0.01897 0.57422 0.87678 0.0
C1764 C 0.0199 0.55357 0.87525 0.0
C1765 C 0.02885 0.54969 0.87048 0.0
C1766 C 0.02413 0.53663 0.86528 0.0
C1767 C 0.0101 0.52718 0.86514 0.0
C1768 C 0.00105 0.53079 0.8708 0.0
C1769 C 0.00606 0.54398 0.87585 0.0
C1770 C 0.03408 0.53309 0.85946 0.0
C1771 C 0.98608 0.52086 0.87106 0.0
C1772 C 0.99762 0.50935 0.80089 0.0
C1773 C 0.99339 0.49697 0.79439 0.0
C1774 C 0.99057 0.48559 0.80175 0.0
C1775 C 0.99239 0.4866 0.816 0.0
C1776 C 0.99064 0.47563 0.82361 0.0
C1777 C 0.99298 0.47694 0.83758 0.0
C1778 C 0.99686 0.48918 0.84451 0.0
C1779 C -0.00037 0.49076 0.85864 0.0
C1780 C 0.00348 0.50309 0.86518 0.0
C1781 C 0.00487 0.51403 0.85793 0.0
C1782 C 0.00227 0.51269 0.84379 0.0
C1783 C 0.00377 0.52358 0.83617 0.0
C1784 C 0.00199 0.52243 0.82215 0.0
C1785 C 0.99859 0.51035 0.81522 0.0
C1786 C 0.99631 0.49903 0.82277 0.0
C1787 C 0.99833 0.50025 0.83706 0.0
C1788 C 0.98771 0.44686 0.9109 0.0
C1789 C 0.99187 0.4415 0.89856 0.0
O1790 O 0.01596 0.55273 0.7649 0.0
O1791 O 0.02496 0.56662 0.87915 0.0
O1792 O 0.00188 0.45204 0.89129 0.0
O1793 O 0.97229 0.44113 0.76581 0.0
H1794 H 0.00419 0.54041 0.74904 0.0
H1795 H 0.02804 0.54651 0.7459 0.0
H1796 H 0.03313 0.56406 0.74457 0.0
H1797 H 0.02206 0.5519 0.73187 0.0
H1798 H 0.9903 0.53502 0.76961 0.0
H1799 H 0.03122 0.54841 0.78055 0.0
H1800 H 0.97483 0.50385 0.78112 0.0
H1801 H 0.97186 0.51774 0.78163 0.0
H1802 H 0.97512 0.51168 0.79714 0.0
H1803 H 0.037 0.53528 0.7939 0.0
H1804 H 0.02422 0.51817 0.79757 0.0
H1805 H 0.02701 0.53167 0.80899 0.0
H1806 H 0.98739 0.45172 0.75189 0.0
H1807 H 0.97308 0.4396 0.73198 0.0
H1808 H 0.96555 0.44694 0.74245 0.0
H1809 H 0.95913 0.42904 0.74296 0.0
H1810 H 0.99812 0.45793 0.77263 0.0
H1811 H 0.95703 0.44598 0.78105 0.0
H1812 H 0.01282 0.48171 0.80029 0.0
H1813 H 0.01352 0.48979 0.78467 0.0
H1814 H 0.01641 0.47583 0.78457 0.0
H1815 H 0.95111 0.45761 0.79692 0.0
H1816 H 0.96268 0.47556 0.7961 0.0
H1817 H 0.96329 0.46646 0.81037 0.0
H1818 H 0.98293 0.43538 0.89186 0.0
H1819 H 0.02194 0.47154 0.87949 0.0
H1820 H 0.979 0.45175 0.88429 0.0
H1821 H 0.02392 0.49307 0.85236 0.0
H1822 H 0.03353 0.48939 0.8642 0.0
H1823 H 0.02835 0.50125 0.86878 0.0
H1824 H 0.96608 0.46036 0.8756 0.0
H1825 H 0.97185 0.46707 0.85892 0.0
H1826 H 0.97512 0.47834 0.87305 0.0
H1827 H 0.00881 0.56796 0.87202 0.0
H1828 H 0.02293 0.59152 0.86472 0.0
H1829 H 0.02781 0.58045 0.85679 0.0
H1830 H 0.03797 0.59172 0.87041 0.0
H1831 H 0.03954 0.55711 0.87033 0.0
H1832 H -0.00084 0.54678 0.88016 0.0
H1833 H 0.03208 0.53077 0.84842 0.0
H1834 H 0.0328 0.52394 0.86438 0.0
H1835 H 0.0447 0.54138 0.86088 0.0
H1836 H 0.98046 0.52494 0.87656 0.0
H1837 H 0.98411 0.51145 0.876 0.0
H1838 H 0.98213 0.51817 0.86048 0.0
H1839 H 0.99256 0.49623 0.78339 0.0
H1840 H 0.98768 0.466 0.81879 0.0
H1841 H 0.99172 0.46824 0.84289 0.0
H1842 H 0.00583 0.50432 0.87597 0.0
H1843 H 0.00653 0.53319 0.84092 0.0
H1844 H 0.00342 0.53117 0.81677 0.0
H1845 H 0.99657 0.45331 0.91755 0.0
H1846 H 0.97998 0.43834 0.91691 0.0
H1847 H 0.98329 0.45296 0.90768 0.0
C1848 C 0.53997 0.55905 0.76296 0.0
C1849 C 0.5358 0.56963 0.76101 0.0
C1850 C 0.52154 0.56549 0.78044 0.0
C1851 C 0.5104 0.56714 0.77916 0.0
C1852 C 0.49849 0.55892 0.78633 0.0
C1853 C 0.49776 0.54875 0.79476 0.0
C1854 C 0.50909 0.54712 0.79605 0.0
C1855 C 0.52099 0.55579 0.78914 0.0
C1856 C 0.48669 0.56108 0.78487 0.0
C1857 C 0.50867 0.53618 0.80462 0.0
C1858 C 0.4012 0.46942 0.77323 0.0
C1859 C 0.41284 0.47096 0.76435 0.0
C1860 C 0.43303 0.4846 0.77873 0.0
C1861 C 0.44303 0.48412 0.78626 0.0
C1862 C 0.45296 0.4955 0.79338 0.0
C1863 C 0.45276 0.50765 0.79307 0.0
C1864 C 0.4428 0.50831 0.78532 0.0
C1865 C 0.43305 0.49678 0.77816 0.0
C1866 C 0.46358 0.49449 0.80134 0.0
C1867 C 0.44236 0.52115 0.7848 0.0
C1868 C 0.42086 0.4928 0.87536 0.0
C1869 C 0.43156 0.49042 0.87351 0.0
C1870 C 0.44402 0.50053 0.86856 0.0
C1871 C 0.44577 0.51326 0.86544 0.0
C1872 C 0.4353 0.51594 0.86817 0.0
C1873 C 0.42298 0.50567 0.87322 0.0
C1874 C 0.45514 0.49748 0.86617 0.0
C1875 C 0.43693 0.52947 0.86517 0.0
C1876 C 0.5382 0.6023 0.87425 0.0
C1877 C 0.53388 0.59509 0.88793 0.0
C1878 C 0.51655 0.57211 0.88047 0.0
C1879 C 0.5141 0.55909 0.87808 0.0
C1880 C 0.50216 0.54919 0.8717 0.0
C1881 C 0.49241 0.55246 0.86767 0.0
C1882 C 0.49449 0.56542 0.87064 0.0
C1883 C 0.50655 0.57514 0.87701 0.0
C1884 C 0.50019 0.5354 0.86882 0.0
C1885 C 0.4842 0.56914 0.86657 0.0
C1886 C 0.48512 0.53968 0.80209 0.0
C1887 C 0.47465 0.52899 0.79475 0.0
C1888 C 0.46282 0.51952 0.80116 0.0
C1889 C 0.46123 0.5208 0.81525 0.0
C1890 C 0.44935 0.51158 0.82196 0.0
C1891 C 0.44815 0.51251 0.83594 0.0
C1892 C 0.45885 0.52261 0.84379 0.0
C1893 C 0.45799 0.52324 0.85811 0.0
C1894 C 0.46893 0.53321 0.86563 0.0
C1895 C 0.48073 0.54273 0.85918 0.0
C1896 C 0.48163 0.54248 0.84485 0.0
C1897 C 0.49323 0.55213 0.83803 0.0
C1898 C 0.49423 0.55149 0.82399 0.0
C1899 C 0.48382 0.54099 0.81625 0.0
C1900 C 0.47188 0.53141 0.82286 0.0
C1901 C 0.47074 0.53224 0.83717 0.0
C1902 C 0.38871 0.46486 0.86854 0.0
C1903 C 0.40234 0.46941 0.87531 0.0
O1904 O 0.53291 0.57343 0.77341 0.0
O1905 O 0.52879 0.58141 0.88576 0.0
O1906 O 0.40835 0.48292 0.87901 0.0
O1907 O 0.42361 0.47302 0.77239 0.0
H1908 H 0.52664 0.56519 0.75437 0.0
H1909 H 0.53127 0.54947 0.76649 0.0
H1910 H 0.54834 0.56275 0.77051 0.0
H1911 H 0.54332 0.55675 0.75321 0.0
H1912 H 0.51107 0.57485 0.77253 0.0
H1913 H 0.52983 0.55488 0.79035 0.0
H1914 H 0.47834 0.55229 0.77939 0.0
H1915 H 0.48938 0.57033 0.77916 0.0
H1916 H 0.48291 0.56182 0.79505 0.0
H1917 H 0.51731 0.5347 0.80251 0.0
H1918 H 0.49914 0.52646 0.80278 0.0
H1919 H 0.50905 0.53894 0.81553 0.0
H1920 H 0.41611 0.47963 0.75748 0.0
H1921 H 0.39249 0.46751 0.76675 0.0
H1922 H 0.40434 0.47874 0.77935 0.0
H1923 H 0.3979 0.46092 0.78031 0.0
H1924 H 0.44298 0.47471 0.78659 0.0
H1925 H 0.42545 0.49738 0.77231 0.0
H1926 H 0.46227 0.49566 0.81236 0.0
H1927 H 0.4738 0.50273 0.79853 0.0
H1928 H 0.46302 0.48468 0.79959 0.0
H1929 H 0.43377 0.51996 0.77858 0.0
H1930 H 0.45191 0.52928 0.78045 0.0
H1931 H 0.44152 0.52442 0.79525 0.0
H1932 H 0.40846 0.46781 0.86753 0.0
H1933 H 0.43015 0.48063 0.87578 0.0
H1934 H 0.41474 0.50748 0.87496 0.0
H1935 H 0.45681 0.49723 0.85508 0.0
H1936 H 0.45272 0.48765 0.87043 0.0
H1937 H 0.46472 0.50556 0.87081 0.0
H1938 H 0.42803 0.53014 0.86837 0.0
H1939 H 0.43842 0.53131 0.85409 0.0
H1940 H 0.44604 0.53758 0.87046 0.0
H1941 H 0.52604 0.5968 0.89249 0.0
H1942 H 0.54097 0.613 0.8755 0.0
H1943 H 0.52979 0.59755 0.86675 0.0
H1944 H 0.54684 0.60174 0.86998 0.0
H1945 H 0.52179 0.55679 0.8809 0.0
H1946 H 0.50816 0.58512 0.87892 0.0
H1947 H 0.4998 0.5336 0.85767 0.0
H1948 H 0.49041 0.52755 0.87304 0.0
H1949 H 0.50841 0.53426 0.87322 0.0
H1950 H 0.48677 0.57924 0.87057 0.0
H1951 H 0.47408 0.56153 0.87032 0.0
H1952 H 0.48357 0.56913 0.85531 0.0
H1953 H 0.47588 0.52778 0.78397 0.0
H1954 H 0.44086 0.50349 0.81648 0.0
H1955 H 0.43879 0.50507 0.84053 0.0
H1956 H 0.46833 0.53345 0.87663 0.0
H1957 H 0.5017 0.56028 0.84347 0.0
H1958 H 0.50339 0.5592 0.81931 0.0
H1959 H 0.38363 0.454 0.86562 0.0
H1960 H 0.39024 0.47073 0.85919 0.0
H1961 H 0.38202 0.46651 0.87546 0.0
C1962 C 0.6249 0.77392 0.6066 0.0
C1963 C 0.62114 0.76217 0.59655 0.0
C1964 C 0.62229 0.77399 0.57565 0.0
C1965 C 0.60928 0.7722 0.57604 0.0
C1966 C 0.60586 0.77984 0.56782 0.0
C1967 C 0.6157 0.78964 0.55923 0.0
C1968 C 0.62878 0.79137 0.55872 0.0
C1969 C 0.63179 0.7833 0.56675 0.0
C1970 C 0.59174 0.77753 0.56844 0.0
C1971 C 0.63965 0.80189 0.54989 0.0
C1972 C 0.59231 0.86303 0.58092 0.0
C1973 C 0.60503 0.86445 0.58757 0.0
C1974 C 0.61222 0.85226 0.57207 0.0
C1975 C 0.62263 0.85385 0.56356 0.0
C1976 C 0.6222 0.84275 0.55697 0.0
C1977 C 0.61078 0.82973 0.5586 0.0
C1978 C 0.60024 0.82799 0.56732 0.0
C1979 C 0.60115 0.83924 0.57412 0.0
C1980 C 0.6339 0.84501 0.54818 0.0
C1981 C 0.58794 0.81426 0.56934 0.0
C1982 C 0.59396 0.84082 0.47585 0.0
C1983 C 0.60708 0.84326 0.47787 0.0
C1984 C 0.6092 0.83323 0.48305 0.0
C1985 C 0.59794 0.82055 0.48629 0.0
C1986 C 0.58475 0.81775 0.48329 0.0
C1987 C 0.58294 0.82793 0.47796 0.0
C1988 C 0.62343 0.83639 0.48566 0.0
C1989 C 0.57256 0.80425 0.48637 0.0
C1990 C 0.59602 0.72991 0.47419 0.0
C1991 C 0.60093 0.73943 0.4621 0.0
C1992 C 0.60799 0.76169 0.47256 0.0
C1993 C 0.61919 0.77421 0.47597 0.0
C1994 C 0.61774 0.78418 0.48275 0.0
C1995 C 0.6047 0.78148 0.48631 0.0
C1996 C 0.59326 0.76893 0.48267 0.0
C1997 C 0.595 0.75915 0.47578 0.0
C1998 C 0.63017 0.79754 0.48629 0.0
C1999 C 0.57923 0.76578 0.48631 0.0
C2000 C 0.61245 0.79839 0.55117 0.0
C2001 C 0.61265 0.80928 0.55788 0.0
C2002 C 0.60979 0.81802 0.55097 0.0
C2003 C 0.60661 0.81587 0.53694 0.0
C2004 C 0.60337 0.82427 0.52972 0.0
C2005 C 0.60097 0.82253 0.51579 0.0
C2006 C 0.60169 0.8123 0.50852 0.0
C2007 C 0.59994 0.81089 0.49424 0.0
C2008 C 0.60072 0.80062 0.48731 0.0
C2009 C 0.60314 0.79161 0.49432 0.0
C2010 C 0.60481 0.7928 0.50861 0.0
C2011 C 0.60707 0.78379 0.516 0.0
C2012 C 0.60928 0.78541 0.52998 0.0
C2013 C 0.6095 0.79621 0.53709 0.0
C2014 C 0.60675 0.8051 0.52993 0.0
C2015 C 0.60432 0.80334 0.51569 0.0
C2016 C 0.58978 0.86846 0.4828 0.0
C2017 C 0.59917 0.86409 0.47656 0.0
O2018 O 0.62614 0.76711 0.58377 0.0
O2019 O 0.61029 0.75243 0.46637 0.0
O2020 O 0.5916 0.85074 0.47224 0.0
O2021 O 0.61328 0.86356 0.57784 0.0
H2022 H 0.60999 0.75557 0.59602 0.0
H2023 H 0.6204 0.77995 0.60331 0.0
H2024 H 0.63604 0.78063 0.60722 0.0
H2025 H 0.62099 0.77012 0.6169 0.0
H2026 H 0.60173 0.76484 0.58268 0.0
H2027 H 0.64178 0.78456 0.56647 0.0
H2028 H 0.59202 0.78632 0.57357 0.0
H2029 H 0.58478 0.76833 0.57412 0.0
H2030 H 0.58763 0.77662 0.55802 0.0
H2031 H 0.64968 0.80308 0.55193 0.0
H2032 H 0.64037 0.81179 0.55157 0.0
H2033 H 0.63704 0.79898 0.53903 0.0
H2034 H 0.60197 0.85631 0.59508 0.0
H2035 H 0.58602 0.86428 0.58871 0.0
H2036 H 0.58613 0.85293 0.57605 0.0
H2037 H 0.595 0.87069 0.57297 0.0
H2038 H 0.63118 0.8639 0.56211 0.0
H2039 H 0.59308 0.83776 0.58082 0.0
H2040 H 0.63092 0.84404 0.53732 0.0
H2041 H 0.63672 0.83731 0.55017 0.0
H2042 H 0.64291 0.85518 0.54991 0.0
H2043 H 0.57993 0.81481 0.57512 0.0
H2044 H 0.59087 0.80791 0.575 0.0
H2045 H 0.58371 0.80921 0.55936 0.0
H2046 H 0.60626 0.86529 0.48489 0.0
H2047 H 0.61567 0.85306 0.47565 0.0
H2048 H 0.57286 0.82608 0.47608 0.0
H2049 H 0.62538 0.8373 0.49678 0.0
H2050 H 0.63104 0.84595 0.48091 0.0
H2051 H 0.62476 0.82807 0.48168 0.0
H2052 H 0.56301 0.80346 0.4829 0.0
H2053 H 0.572 0.8026 0.49749 0.0
H2054 H 0.57354 0.79608 0.48136 0.0
H2055 H 0.59217 0.73931 0.45721 0.0
H2056 H 0.59084 0.73297 0.48169 0.0
H2057 H 0.58874 0.71944 0.47067 0.0
H2058 H 0.60464 0.73004 0.47939 0.0
H2059 H 0.62916 0.77611 0.47338 0.0
H2060 H 0.58618 0.74956 0.47313 0.0
H2061 H 0.63146 0.79867 0.4975 0.0
H2062 H 0.62897 0.80594 0.48266 0.0
H2063 H 0.63945 0.79848 0.48179 0.0
H2064 H 0.57135 0.75548 0.48292 0.0
H2065 H 0.57715 0.7732 0.48156 0.0
H2066 H 0.5785 0.7667 0.49749 0.0
H2067 H 0.6152 0.81105 0.56862 0.0
H2068 H 0.60277 0.83237 0.53474 0.0
H2069 H 0.59868 0.82941 0.51079 0.0
H2070 H 0.59964 0.79977 0.47633 0.0
H2071 H 0.60723 0.77542 0.51104 0.0
H2072 H 0.61102 0.77821 0.53511 0.0
H2073 H 0.58176 0.8669 0.47549 0.0
H2074 H 0.59562 0.87928 0.48595 0.0
H2075 H 0.58486 0.86241 0.49194 0.0
C2076 C 0.14496 0.73704 0.61761 0.0
C2077 C 0.14039 0.74531 0.60968 0.0
C2078 C 0.14949 0.75497 0.58779 0.0
C2079 C 0.1468 0.76551 0.58748 0.0
C2080 C 0.15451 0.77678 0.57937 0.0
C2081 C 0.16536 0.77764 0.57172 0.0
C2082 C 0.168 0.7669 0.57201 0.0
C2083 C 0.15976 0.75553 0.57977 0.0
C2084 C 0.15119 0.78784 0.57917 0.0
C2085 C 0.17973 0.76753 0.56446 0.0
C2086 C 0.2532 0.87726 0.60288 0.0
C2087 C 0.2457 0.86336 0.59695 0.0
C2088 C 0.22271 0.84678 0.58965 0.0
C2089 C 0.22609 0.83794 0.58319 0.0
C2090 C 0.21647 0.82681 0.5755 0.0
C2091 C 0.20329 0.82464 0.57397 0.0
C2092 C 0.19982 0.83345 0.58057 0.0
C2093 C 0.20957 0.84434 0.58844 0.0
C2094 C 0.22044 0.81742 0.56892 0.0
C2095 C 0.18587 0.83145 0.57916 0.0
C2096 C 0.22754 0.84858 0.48748 0.0
C2097 C 0.23018 0.8393 0.49376 0.0
C2098 C 0.21983 0.82795 0.50019 0.0
C2099 C 0.20665 0.82599 0.50059 0.0
C2100 C 0.20397 0.83527 0.49422 0.0
C2101 C 0.21445 0.84639 0.48766 0.0
C2102 C 0.223 0.8181 0.50666 0.0
C2103 C 0.19008 0.83355 0.49451 0.0
C2104 C 0.12563 0.72087 0.48239 0.0
C2105 C 0.12919 0.7351 0.47857 0.0
C2106 C 0.15116 0.75507 0.48347 0.0
C2107 C 0.16425 0.75841 0.48696 0.0
C2108 C 0.17282 0.77029 0.49434 0.0
C2109 C 0.1682 0.77917 0.49803 0.0
C2110 C 0.15522 0.77622 0.49384 0.0
C2111 C 0.1468 0.76417 0.48662 0.0
C2112 C 0.18668 0.77322 0.49846 0.0
C2113 C 0.15019 0.78571 0.4972 0.0
C2114 C 0.17444 0.79007 0.56415 0.0
C2115 C 0.1838 0.80142 0.57169 0.0
C2116 C 0.19321 0.81326 0.56532 0.0
C2117 C 0.19339 0.81388 0.55098 0.0
C2118 C 0.2027 0.82565 0.54424 0.0
C2119 C 0.20334 0.82592 0.53013 0.0
C2120 C 0.19468 0.81443 0.52221 0.0
C2121 C 0.19576 0.81436 0.5079 0.0
C2122 C 0.18682 0.80286 0.5003 0.0
C2123 C 0.17683 0.79129 0.50664 0.0
C2124 C 0.17571 0.7911 0.52097 0.0
C2125 C 0.16587 0.77959 0.5277 0.0
C2126 C 0.16518 0.77935 0.54183 0.0
C2127 C 0.17447 0.79051 0.54978 0.0
C2128 C 0.18414 0.80239 0.54319 0.0
C2129 C 0.18477 0.80268 0.52877 0.0
C2130 C 0.25724 0.87215 0.49465 0.0
C2131 C 0.25103 0.86499 0.48103 0.0
O2132 O 0.14248 0.74427 0.59595 0.0
O2133 O 0.14305 0.74303 0.47711 0.0
O2134 O 0.23719 0.85976 0.48118 0.0
O2135 O 0.23181 0.85778 0.597 0.0
H2136 H 0.14675 0.75598 0.61333 0.0
H2137 H 0.15584 0.74092 0.61576 0.0
H2138 H 0.13914 0.72626 0.61435 0.0
H2139 H 0.14355 0.73784 0.62869 0.0
H2140 H 0.13865 0.76489 0.59356 0.0
H2141 H 0.16168 0.74727 0.5801 0.0
H2142 H 0.15884 0.79661 0.58527 0.0
H2143 H 0.14108 0.78456 0.58352 0.0
H2144 H 0.15148 0.79126 0.56863 0.0
H2145 H 0.18198 0.75977 0.56792 0.0
H2146 H 0.18895 0.77761 0.56579 0.0
H2147 H 0.17731 0.76579 0.55344 0.0
H2148 H 0.24896 0.85638 0.60069 0.0
H2149 H 0.25845 0.87646 0.61215 0.0
H2150 H 0.24569 0.87874 0.60887 0.0
H2151 H 0.26378 0.88924 0.5863 0.0
H2152 H 0.2362 0.83964 0.58416 0.0
H2153 H 0.20705 0.85119 0.59349 0.0
H2154 H 0.22096 0.81869 0.55775 0.0
H2155 H 0.21275 0.80677 0.57097 0.0
H2156 H 0.23042 0.81941 0.5726 0.0
H2157 H 0.18508 0.83976 0.58409 0.0
H2158 H 0.17842 0.82182 0.58388 0.0
H2159 H 0.18313 0.83076 0.56824 0.0
H2160 H 0.25324 0.85677 0.47919 0.0
H2161 H 0.24024 0.8408 0.49372 0.0
H2162 H 0.21251 0.85358 0.48276 0.0
H2163 H 0.22239 0.81876 0.51788 0.0
H2164 H 0.23325 0.82013 0.50403 0.0
H2165 H 0.21548 0.80763 0.5034 0.0
H2166 H 0.18983 0.84208 0.48976 0.0
H2167 H 0.18659 0.83266 0.50518 0.0
H2168 H 0.18285 0.82408 0.48901 0.0
H2169 H 0.12565 0.73892 0.48716 0.0
H2170 H 0.11453 0.71427 0.48347 0.0
H2171 H 0.13049 0.72122 0.49224 0.0
H2172 H 0.12922 0.71639 0.47455 0.0
H2173 H 0.1676 0.75143 0.48427 0.0
H2174 H 0.13685 0.76188 0.48342 0.0
H2175 H 0.18788 0.77452 0.50967 0.0
H2176 H 0.19446 0.7828 0.4939 0.0
H2177 H 0.18858 0.76507 0.49518 0.0
H2178 H 0.1403 0.7825 0.49231 0.0
H2179 H 0.15764 0.79604 0.49389 0.0
H2180 H 0.14909 0.78617 0.50838 0.0
H2181 H 0.18393 0.80095 0.58269 0.0
H2182 H 0.20971 0.83476 0.54981 0.0
H2183 H 0.21083 0.83521 0.52552 0.0
H2184 H 0.1878 0.80283 0.48934 0.0
H2185 H 0.15864 0.7706 0.52213 0.0
H2186 H 0.15741 0.77022 0.54645 0.0
H2187 H 0.2683 0.87621 0.49476 0.0
H2188 H 0.25277 0.86499 0.50312 0.0
H2189 H 0.25533 0.88057 0.49645 0.0
C2190 C 0.15604 0.39292 0.61059 0.0
C2191 C 0.14623 0.38793 0.59844 0.0
C2192 C 0.15857 0.38164 0.58225 0.0
C2193 C 0.16868 0.39482 0.57901 0.0
C2194 C 0.17968 0.3971 0.57093 0.0
C2195 C 0.18058 0.38601 0.56597 0.0
C2196 C 0.17029 0.37274 0.56897 0.0
C2197 C 0.15938 0.37074 0.57702 0.0
C2198 C 0.19043 0.41137 0.56778 0.0
C2199 C 0.17093 0.36068 0.5638 0.0
C2200 C 0.26346 0.40891 0.61673 0.0
C2201 C 0.25635 0.39725 0.60643 0.0
C2202 C 0.24842 0.39958 0.5844 0.0
C2203 C 0.23759 0.3864 0.5823 0.0
C2204 C 0.22698 0.38378 0.5734 0.0
C2205 C 0.22711 0.3946 0.56669 0.0
C2206 C 0.23819 0.40788 0.56864 0.0
C2207 C 0.24886 0.41013 0.57725 0.0
C2208 C 0.21552 0.36946 0.57136 0.0
C2209 C 0.23861 0.41977 0.56196 0.0
C2210 C 0.25342 0.40157 0.48222 0.0
C2211 C 0.24279 0.38825 0.48383 0.0
C2212 C 0.23042 0.38561 0.48925 0.0
C2213 C 0.22867 0.3965 0.49307 0.0
C2214 C 0.23905 0.40988 0.4906 0.0
C2215 C 0.25129 0.41223 0.48509 0.0
C2216 C 0.21938 0.37122 0.49138 0.0
C2217 C 0.23741 0.42171 0.49432 0.0
C2218 C 0.14073 0.3999 0.48409 0.0
C2219 C 0.14563 0.39666 0.47078 0.0
C2220 C 0.16027 0.38838 0.47913 0.0
C2221 C 0.16118 0.37687 0.48077 0.0
C2222 C 0.1723 0.37754 0.48737 0.0
C2223 C 0.18277 0.39009 0.49246 0.0
C2224 C 0.18213 0.40188 0.49051 0.0
C2225 C 0.17089 0.40092 0.48387 0.0
C2226 C 0.17272 0.36481 0.4892 0.0
C2227 C 0.19319 0.41544 0.49574 0.0
C2228 C 0.19248 0.38828 0.55798 0.0
C2229 C 0.20379 0.39013 0.56511 0.0
C2230 C 0.21533 0.39216 0.5583 0.0
C2231 C 0.21558 0.39224 0.54393 0.0
C2232 C 0.22685 0.39387 0.53673 0.0
C2233 C 0.22718 0.3944 0.52261 0.0
C2234 C 0.2162 0.3932 0.51514 0.0
C2235 C 0.21656 0.394 0.5008 0.0
C2236 C 0.2055 0.3928 0.49368 0.0
C2237 C 0.19399 0.39081 0.50053 0.0
C2238 C 0.19342 0.38991 0.51486 0.0
C2239 C 0.18197 0.38784 0.52206 0.0
C2240 C 0.18159 0.38722 0.53617 0.0
C2241 C 0.19267 0.38869 0.54364 0.0
C2242 C 0.20428 0.39068 0.53659 0.0
C2243 C 0.20461 0.39121 0.52218 0.0
C2244 C 0.28595 0.40605 0.48656 0.0
C2245 C 0.27182 0.39689 0.48058 0.0
O2246 O 0.14797 0.37892 0.59044 0.0
O2247 O 0.14887 0.38682 0.47323 0.0
O2248 O 0.26589 0.40452 0.47813 0.0
O2249 O 0.25842 0.40242 0.59346 0.0
H2250 H 0.148 0.39666 0.59225 0.0
H2251 H 0.16665 0.39842 0.60711 0.0
H2252 H 0.15451 0.38428 0.61677 0.0
H2253 H 0.15444 0.39993 0.61713 0.0
H2254 H 0.16814 0.40339 0.58279 0.0
H2255 H 0.15151 0.36062 0.57949 0.0
H2256 H 0.20025 0.41353 0.57211 0.0
H2257 H 0.18803 0.41891 0.57196 0.0
H2258 H 0.19166 0.41257 0.55661 0.0
H2259 H 0.16211 0.351 0.56702 0.0
H2260 H 0.18029 0.36127 0.56761 0.0
H2261 H 0.17135 0.36074 0.55253 0.0
H2262 H 0.2454 0.39196 0.60896 0.0
H2263 H 0.26195 0.405 0.62722 0.0
H2264 H 0.25918 0.41561 0.61609 0.0
H2265 H 0.27445 0.41497 0.61467 0.0
H2266 H 0.23745 0.3782 0.58763 0.0
H2267 H 0.25735 0.42025 0.5789 0.0
H2268 H 0.21304 0.36716 0.56038 0.0
H2269 H 0.20641 0.3682 0.57657 0.0
H2270 H 0.21795 0.36204 0.57552 0.0
H2271 H 0.24692 0.42955 0.56604 0.0
H2272 H 0.2289 0.41948 0.56344 0.0
H2273 H 0.2401 0.41931 0.55087 0.0
H2274 H 0.26613 0.38921 0.48842 0.0
H2275 H 0.24418 0.37992 0.48102 0.0
H2276 H 0.25946 0.42245 0.48353 0.0
H2277 H 0.21779 0.36933 0.50244 0.0
H2278 H 0.22184 0.36387 0.48677 0.0
H2279 H 0.20976 0.36946 0.48692 0.0
H2280 H 0.24623 0.43147 0.49124 0.0
H2281 H 0.23611 0.42203 0.50548 0.0
H2282 H 0.2282 0.4205 0.48937 0.0
H2283 H 0.15465 0.40598 0.46715 0.0
H2284 H 0.13992 0.40903 0.48297 0.0
H2285 H 0.14799 0.40205 0.49249 0.0
H2286 H 0.13081 0.39123 0.48706 0.0
H2287 H 0.15299 0.36726 0.47704 0.0
H2288 H 0.17043 0.40997 0.48267 0.0
H2289 H 0.17284 0.36291 0.50021 0.0
H2290 H 0.18215 0.36602 0.48478 0.0
H2291 H 0.16395 0.35588 0.48434 0.0
H2292 H 0.19161 0.42377 0.49271 0.0
H2293 H 0.2031 0.41748 0.49184 0.0
H2294 H 0.19364 0.41536 0.507 0.0
H2295 H 0.20363 0.39005 0.57613 0.0
H2296 H 0.23558 0.39484 0.54193 0.0
H2297 H 0.2362 0.39583 0.51766 0.0
H2298 H 0.20591 0.39356 0.48269 0.0
H2299 H 0.17316 0.38671 0.51688 0.0
H2300 H 0.17253 0.38565 0.54117 0.0
H2301 H 0.29098 0.40018 0.48843 0.0
H2302 H 0.2852 0.41049 0.49641 0.0
H2303 H 0.29227 0.41442 0.47961 0.0
H2304 H 0.98135 0.34985 0.0473 0.0
H2305 H 0.98049 0.36543 0.06396 0.0
H2306 H 0.01568 0.3986 0.04592 0.0
H2307 H 0.01675 0.38313 0.02948 0.0
H2308 H 0.01876 0.39851 0.07246 0.0
H2309 H 0.98428 0.39473 0.04239 0.0
H2310 H 0.96321 0.38295 0.02893 0.0
H2311 H 0.94053 0.36619 0.06531 0.0
H2312 H 0.9615 0.37773 0.07897 0.0
H2313 H 0.02215 0.45184 0.10946 0.0
H2314 H 0.01735 0.43702 0.08962 0.0
H2315 H 0.98511 0.40411 0.11121 0.0
H2316 H 0.98971 0.41901 0.13109 0.0
H2317 H 0.97959 0.40393 0.08287 0.0
H2318 H 0.01436 0.40702 0.11258 0.0
H2319 H 0.03541 0.4194 0.12599 0.0
H2320 H 0.05757 0.43762 0.08971 0.0
H2321 H 0.03659 0.42552 0.07611 0.0
C2322 C 0.98883 0.36048 0.04684 0.0
C2323 C -0.0008 0.36525 0.03718 0.0
C2324 C 0.98827 0.36938 0.05629 0.0
C2325 C 0.99799 0.38318 0.05613 0.0
C2326 C 0.0081 0.38798 0.04624 0.0
C2327 C 0.00871 0.37912 0.03686 0.0
C2328 C 0.99835 0.39252 0.06687 0.0
C2329 C 0.01025 0.39982 0.07457 0.0
C2330 C 0.98711 0.39396 0.06988 0.0
C2331 C 0.97449 0.38699 0.06169 0.0
C2332 C 0.97482 0.38844 0.04751 0.0
C2333 C 0.96289 0.38182 0.03985 0.0
C2334 C 0.95055 0.37379 0.04626 0.0
C2335 C 0.9501 0.37239 0.06035 0.0
C2336 C 0.962 0.37898 0.06806 0.0
C2337 C 0.01377 0.44156 0.10984 0.0
C2338 C 0.00622 0.43658 0.12178 0.0
C2339 C 0.01107 0.43311 0.09852 0.0
C2340 C 0.00096 0.41947 0.09902 0.0
C2341 C 0.9929 0.41463 0.11062 0.0
C2342 C 0.99557 0.42312 0.12196 0.0
C2343 C 5e-05 0.40998 0.0882 0.0
C2344 C 0.98807 0.40261 0.08064 0.0
C2345 C 0.01121 0.40843 0.08524 0.0
C2346 C 0.02389 0.41545 0.09335 0.0
C2347 C 0.02371 0.41372 0.10748 0.0
C2348 C 0.03563 0.42069 0.11511 0.0
C2349 C 0.04782 0.42931 0.10871 0.0
C2350 C 0.04812 0.43095 0.09466 0.0
C2351 C 0.03622 0.42403 0.08698 0.0
H2352 H 0.05703 0.4347 0.11464 0.0
H2353 H 0.94132 0.36868 0.04031 0.0
H2354 H 0.65484 0.63106 0.05317 0.0
H2355 H 0.64785 0.61374 0.07044 0.0
H2356 H 0.60756 0.59282 0.05341 0.0
H2357 H 0.61434 0.6104 0.03665 0.0
H2358 H 0.60581 0.59462 0.07896 0.0
H2359 H 0.63114 0.58133 0.05033 0.0
H2360 H 0.65106 0.58442 0.0378 0.0
H2361 H 0.67388 0.59505 0.07504 0.0
H2362 H 0.65414 0.59218 0.08777 0.0
H2363 H 0.57891 0.53356 0.11409 0.0
H2364 H 0.58808 0.55013 0.09612 0.0
H2365 H 0.62575 0.5723 0.11808 0.0
H2366 H 0.61687 0.55584 0.13599 0.0
H2367 H 0.62949 0.57032 0.09085 0.0
H2368 H 0.60351 0.58307 0.11922 0.0
H2369 H 0.58317 0.57933 0.13139 0.0
H2370 H 0.56108 0.56892 0.09372 0.0
H2371 H 0.58123 0.57242 0.08134 0.0
C2372 C 0.64454 0.62268 0.05306 0.0
C2373 C 0.6351 0.6221 0.04366 0.0
C2374 C 0.64056 0.61274 0.06288 0.0
C2375 C 0.62718 0.60189 0.0632 0.0
C2376 C 0.61791 0.60112 0.05346 0.0
C2377 C 0.62179 0.61116 0.04387 0.0
C2378 C 0.62248 0.59178 0.07412 0.0
C2379 C 0.6109 0.58917 0.08138 0.0
C2380 C 0.62932 0.58493 0.07762 0.0
C2381 C 0.6412 0.58667 0.06998 0.0
C2382 C 0.64044 0.58443 0.05583 0.0
C2383 C 0.65169 0.58612 0.0487 0.0
C2384 C 0.66374 0.58997 0.05561 0.0
C2385 C 0.66455 0.59209 0.06969 0.0
C2386 C 0.65333 0.59042 0.07687 0.0
C2387 C 0.5891 0.54205 0.11523 0.0
C2388 C 0.59682 0.54359 0.12693 0.0
C2389 C 0.59433 0.55148 0.1049 0.0
C2390 C 0.60748 0.56261 0.10594 0.0
C2391 C 0.61551 0.56387 0.11718 0.0
C2392 C 0.61029 0.55443 0.12753 0.0
C2393 C 0.61273 0.57304 0.09538 0.0
C2394 C 0.62443 0.57577 0.08832 0.0
C2395 C 0.60595 0.57993 0.09195 0.0
C2396 C 0.59385 0.57789 0.09938 0.0
C2397 C 0.59428 0.57989 0.11355 0.0
C2398 C 0.58279 0.57783 0.12048 0.0
C2399 C 0.57083 0.57386 0.11334 0.0
C2400 C 0.57035 0.57198 0.09924 0.0
C2401 C 0.5818 0.57401 0.09226 0.0
H2402 H 0.56195 0.57227 0.11872 0.0
H2403 H 0.67244 0.59127 0.05007 0.0
H2404 H 0.37063 0.98596 0.0403 0.0
H2405 H 0.38489 0.99099 0.06024 0.0
H2406 H 0.39222 0.03155 0.06185 0.0
H2407 H 0.37761 0.02655 0.0417 0.0
H2408 H 0.41648 0.02551 0.06507 0.0
H2409 H 0.37506 0.01814 0.08417 0.0
H2410 H 0.35032 0.00684 0.08612 0.0
H2411 H 0.34832 0.96957 0.09503 0.0
H2412 H 0.37304 0.98059 0.09292 0.0
H2413 H 0.44182 0.024 0.13309 0.0
H2414 H 0.43126 0.02936 0.11448 0.0
H2415 H 0.40922 0.98743 0.10213 0.0
H2416 H 0.41995 0.98207 0.12043 0.0
H2417 H 0.39327 0.00021 0.10641 0.0
H2418 H 0.43366 0.0066 0.08382 0.0
H2419 H 0.45824 0.01709 0.08097 0.0
H2420 H 0.4622 0.05607 0.07844 0.0
H2421 H 0.43762 0.04581 0.08148 0.0
C2422 C 0.37529 0.99601 0.04477 0.0
C2423 C 0.37293 0.00585 0.03942 0.0
C2424 C 0.38345 0.99885 0.05618 0.0
C2425 C 0.38954 0.0116 0.06246 0.0
C2426 C 0.38757 0.02165 0.05705 0.0
C2427 C 0.3792 0.01875 0.04562 0.0
C2428 C 0.39738 0.0138 0.07505 0.0
C2429 C 0.41149 0.02039 0.07431 0.0
C2430 C 0.39077 0.00688 0.08693 0.0
C2431 C 0.3759 0.00018 0.08831 0.0
C2432 C 0.36934 0.00751 0.08643 0.0
C2433 C 0.35532 0.00116 0.08759 0.0
C2434 C 0.34775 0.98749 0.09067 0.0
C2435 C 0.3542 0.98015 0.09264 0.0
C2436 C 0.36822 0.98645 0.09149 0.0
C2437 C 0.43477 0.01596 0.12635 0.0
C2438 C 0.43152 0.00258 0.12832 0.0
C2439 C 0.42879 0.01904 0.11574 0.0
C2440 C 0.41942 0.00876 0.10706 0.0
C2441 C 0.41636 0.99546 0.10884 0.0
C2442 C 0.42245 0.99241 0.11929 0.0
C2443 C 0.41235 0.01162 0.09633 0.0
C2444 C 0.39835 0.00583 0.09742 0.0
C2445 C 0.41908 0.01931 0.08483 0.0
C2446 C 0.43384 0.02547 0.08309 0.0
C2447 C 0.43979 0.01743 0.08283 0.0
C2448 C 0.45371 0.02333 0.08113 0.0
C2449 C 0.46179 0.03725 0.07958 0.0
C2450 C 0.45594 0.04529 0.07968 0.0
C2451 C 0.44201 0.03944 0.08139 0.0
H2452 H 0.47256 0.04179 0.07826 0.0
H2453 H 0.3369 0.98259 0.09157 0.0
H2454 H 0.38231 0.02023 0.97167 0.0
H2455 H 0.39464 0.01807 0.95264 0.0
H2456 H 0.36327 0.97659 0.94643 0.0
H2457 H 0.3507 0.97867 0.96566 0.0
H2458 H 0.39076 0.98166 0.94552 0.0
H2459 H 0.36348 0.99653 0.92484 0.0
H2460 H 0.35287 0.01035 0.92269 0.0
H2461 H 0.39194 0.04605 0.91978 0.0
H2462 H 0.4028 0.03247 0.92212 0.0
H2463 H 0.42364 0.98556 0.88113 0.0
H2464 H 0.40647 0.98093 0.89837 0.0
H2465 H 0.42971 0.02213 0.91295 0.0
H2466 H 0.44697 0.02675 0.8959 0.0
H2467 H 0.40248 0.01327 0.9074 0.0
H2468 H 0.42952 0.99856 0.93084 0.0
H2469 H 0.44021 0.98489 0.93366 0.0
H2470 H 0.40138 0.94867 0.93135 0.0
H2471 H 0.39046 0.96213 0.92832 0.0
C2472 C 0.37799 0.01062 0.96629 0.0
C2473 C 0.3655 -0.00037 0.9701 0.0
C2474 C 0.38505 0.00942 0.95541 0.0
C2475 C 0.37978 0.99721 0.9481 0.0
C2476 C 0.36744 0.98609 0.95197 0.0
C2477 C 0.36027 0.98732 0.96287 0.0
C2478 C 0.38732 0.99645 0.9363 0.0
C2479 C 0.39308 0.9883 0.93698 0.0
C2480 C 0.39042 0.00525 0.9253 0.0
C2481 C 0.38395 0.01348 0.92372 0.0
C2482 C 0.36981 0.00734 0.92383 0.0
C2483 C 0.36376 0.01513 0.92256 0.0
C2484 C 0.37173 0.02907 0.92111 0.0
C2485 C 0.38578 0.03524 0.92089 0.0
C2486 C 0.39189 0.0275 0.92217 0.0
C2487 C 0.42511 0.99358 0.88808 0.0
C2488 C 0.43657 0.00654 0.88714 0.0
C2489 C 0.41533 0.99092 0.89792 0.0
C2490 C 0.41685 0.0012 0.90687 0.0
C2491 C 0.42836 0.01409 0.90606 0.0
C2492 C 0.43818 0.01672 0.89634 0.0
C2493 C 0.40628 0.99881 0.91683 0.0
C2494 C 0.39994 0.00638 0.91575 0.0
C2495 C 0.40263 0.98944 0.92739 0.0
C2496 C 0.4092 0.98135 0.92915 0.0
C2497 C 0.42327 0.98768 0.93078 0.0
C2498 C 0.42937 0.97997 0.93245 0.0
C2499 C 0.42148 0.96592 0.93263 0.0
C2500 C 0.40748 0.95955 0.93117 0.0
C2501 C 0.40133 0.96722 0.92948 0.0
H2502 H 0.42622 0.95996 0.93394 0.0
H2503 H 0.36702 0.03508 0.92015 0.0
H2504 H 0.02545 0.37339 0.97554 0.0
H2505 H 0.03024 0.38931 0.95711 0.0
H2506 H 0.98915 0.36504 0.9428 0.0
H2507 H 0.98429 0.34936 0.96123 0.0
H2508 H 0.0085 0.37754 0.92147 0.0
H2509 H 0.99512 0.38795 0.96534 0.0
H2510 H 0.99817 0.39281 0.99 0.0
H2511 H 0.03786 0.4266 0.9833 0.0
H2512 H 0.03509 0.42179 0.95858 0.0
H2513 H 0.9788 0.41387 0.89871 0.0
H2514 H 0.98637 0.39967 0.90896 0.0
H2515 H 0.02421 0.43508 0.92019 0.0
H2516 H 0.0166 0.44933 0.91005 0.0
H2517 H 0.01319 0.4196 0.9413 0.0
H2518 H 0.02359 0.41271 0.89666 0.0
H2519 H 0.02048 0.40786 0.87202 0.0
H2520 H 0.98735 0.36805 0.87947 0.0
H2521 H 0.99009 0.37272 0.90416 0.0
C2522 C 0.01761 0.37127 0.96817 0.0
C2523 C 0.00448 0.36028 0.96983 0.0
C2524 C 0.02034 0.38035 0.95769 0.0
C2525 C 0.01001 0.37837 0.94868 0.0
C2526 C 0.99726 0.36671 0.94961 0.0
C2527 C 0.99447 0.35782 0.96019 0.0
C2528 C 0.01156 0.38926 0.93978 0.0
C2529 C 0.00961 0.3868 0.92572 0.0
C2530 C 0.01336 0.40145 0.94535 0.0
C2531 C 0.01498 0.40441 0.96016 0.0
C2532 C 0.00453 0.39635 0.96914 0.0
C2533 C 0.00621 0.3991 0.98312 0.0
C2534 C 0.01823 0.40998 0.98822 0.0
C2535 C 0.02858 0.41815 0.97934 0.0
C2536 C 0.02696 0.41542 0.96535 0.0
C2537 C 0.98884 0.41859 0.9031 0.0
C2538 C 0.99717 0.43268 0.90344 0.0
C2539 C 0.9932 0.41048 0.90889 0.0
C2540 C 0.00595 0.4163 0.91517 0.0
C2541 C 0.01439 0.43037 0.91529 0.0
C2542 C 0.01005 0.43848 0.90948 0.0
C2543 C 0.00972 0.40777 0.92291 0.0
C2544 C 0.01257 0.41062 0.93684 0.0
C2545 C 0.00879 0.39599 0.91716 0.0
C2546 C 0.00701 0.3931 0.9023 0.0
C2547 C 0.01556 0.40295 0.89306 0.0
C2548 C 0.01388 0.40023 0.87907 0.0
C2549 C 0.00371 0.38766 0.87418 0.0
C2550 C 0.99522 0.37778 0.88327 0.0
C2551 C 0.99685 0.38046 0.89727 0.0
H2552 H 0.00243 0.38557 0.86335 0.0
H2553 H 0.0195 0.41209 -0.00095 0.0
H2554 H 0.61676 0.6201 0.98885 0.0
H2555 H 0.59864 0.61108 0.97185 0.0
H2556 H 0.6188 0.64912 0.95122 0.0
H2557 H 0.63626 0.65844 0.96894 0.0
H2558 H 0.5944 0.64133 0.95103 0.0
H2559 H 0.61802 0.61785 0.94013 0.0
H2560 H 0.62782 0.60367 0.94492 0.0
H2561 H 0.58878 0.5711 0.95604 0.0
H2562 H 0.57877 0.58514 0.95146 0.0
H2563 H 0.55991 0.61862 0.88821 0.0
H2564 H 0.57705 0.62618 0.90579 0.0
H2565 H 0.55097 0.59149 0.92959 0.0
H2566 H 0.53351 0.58365 0.91195 0.0
H2567 H 0.57751 0.59677 0.92835 0.0
H2568 H 0.55425 0.62083 0.93803 0.0
H2569 H 0.545 0.63527 0.93226 0.0
H2570 H 0.58465 0.66732 0.92203 0.0
H2571 H 0.59411 0.653 0.92757 0.0
C2572 C 0.61729 0.62647 0.98062 0.0
C2573 C 0.62787 0.6399 0.98007 0.0
C2574 C 0.607 0.62129 0.97084 0.0
C2575 C 0.60745 0.62929 0.95999 0.0
C2576 C 0.61817 0.64272 0.95944 0.0
C2577 C 0.62818 0.64803 0.96951 0.0
C2578 C 0.59661 0.62387 0.94944 0.0
C2579 C 0.59091 0.63168 0.94595 0.0
C2580 C 0.59169 0.61109 0.94299 0.0
C2581 C 0.59767 0.60258 0.94555 0.0
C2582 C 0.61154 0.60768 0.94365 0.0
C2583 C 0.61713 0.59967 0.94632 0.0
C2584 C 0.60893 0.5865 0.95081 0.0
C2585 C 0.59511 0.5813 0.95257 0.0
C2586 C 0.58948 0.58927 0.94992 0.0
C2587 C 0.55767 0.61241 0.89703 0.0
C2588 C 0.54524 0.60024 0.89843 0.0
C2589 C 0.56757 0.61685 0.90716 0.0
C2590 C 0.56526 0.60941 0.91898 0.0
C2591 C 0.55297 0.59734 0.92048 0.0
C2592 C 0.54303 0.59289 0.91039 0.0
C2593 C 0.57563 0.61437 0.92988 0.0
C2594 C 0.58113 0.60644 0.93345 0.0
C2595 C 0.58053 0.62712 0.93625 0.0
C2596 C 0.57487 0.6358 0.93312 0.0
C2597 C 0.56098 0.63093 0.93447 0.0
C2598 C 0.5557 0.6391 0.93125 0.0
C2599 C 0.56423 0.6522 0.92675 0.0
C2600 C 0.57806 0.65717 0.92551 0.0
C2601 C 0.58339 0.64904 0.9287 0.0
H2602 H 0.56012 0.6585 0.92425 0.0
H2603 H 0.61328 0.58032 0.95289 0.0
H2604 H 0.98171 0.62406 0.96964 0.0
H2605 H 0.98764 0.61326 0.95172 0.0
H2606 H 0.0294 0.63613 0.96436 0.0
H2607 H 0.02351 0.64742 0.98222 0.0
H2608 H 0.02733 0.63368 0.9372 0.0
H2609 H 0.0096 0.60336 0.97383 0.0
H2610 H 0.99358 0.59046 0.99195 0.0
H2611 H 0.96228 0.56882 0.96216 0.0
H2612 H 0.97805 0.58173 0.94387 0.0
H2613 H 0.0387 0.58864 0.89602 0.0
H2614 H 0.03719 0.60021 0.91651 0.0
H2615 H 0.99525 0.5855 0.90757 0.0
H2616 H 0.99671 0.57396 0.88709 0.0
H2617 H 0.00034 0.58368 0.93506 0.0
H2618 H 0.01828 0.6165 0.89896 0.0
H2619 H 0.03484 0.62925 0.88117 0.0
H2620 H 0.06674 0.6458 0.91097 0.0
H2621 H 0.05037 0.63298 0.92891 0.0
C2622 C 0.99219 0.6269 0.96854 0.0
C2623 C 0.00214 0.63646 0.97741 0.0
C2624 C 0.99555 0.62066 0.95834 0.0
C2625 C 0.00889 0.62357 0.95697 0.0
C2626 C 0.01902 0.63363 0.96535 0.0
C2627 C 0.01566 0.64008 0.9755 0.0
C2628 C 0.01198 0.6158 0.94694 0.0
C2629 C 0.02163 0.62275 0.9369 0.0
C2630 C 0.00451 0.60151 0.94651 0.0
C2631 C 0.99501 0.59358 0.95747 0.0
C2632 C -0.00072 0.5959 0.97114 0.0
C2633 C 0.99024 0.58858 0.98145 0.0
C2634 C 0.97692 0.57884 0.97821 0.0
C2635 C 0.97261 0.57637 0.96465 0.0
C2636 C 0.9816 0.58367 0.95431 0.0
C2637 C 0.02914 0.5878 0.89852 0.0
C2638 C 0.01782 0.58043 0.88998 0.0
C2639 C 0.0283 0.59441 0.91018 0.0
C2640 C 0.01614 0.59377 0.91347 0.0
C2641 C 0.00472 0.58608 0.9052 0.0
C2642 C 0.00557 0.57953 0.89351 0.0
C2643 C 0.01536 0.60158 0.92517 0.0
C2644 C 0.00618 0.59461 0.93552 0.0
C2645 C 0.02336 0.61581 0.92597 0.0
C2646 C 0.03314 0.62369 0.91524 0.0
C2647 C 0.02884 0.6228 0.9017 0.0
C2648 C 0.03819 0.63004 0.89159 0.0
C2649 C 0.05184 0.6383 0.89493 0.0
C2650 C 0.05616 0.63938 0.90839 0.0
C2651 C 0.04686 0.63214 0.91853 0.0
H2652 H 0.05906 0.64389 0.88709 0.0
H2653 H 0.96993 0.57319 0.9862 0.0
H2654 H 0.3789 0.37669 0.96091 0.0
H2655 H 0.38723 0.39417 0.94379 0.0
H2656 H 0.36206 0.40862 0.96032 0.0
H2657 H 0.35332 0.39081 0.97715 0.0
H2658 H 0.36052 0.40804 0.93416 0.0
H2659 H 0.39721 0.42519 0.96603 0.0
H2660 H 0.41446 0.42461 0.98031 0.0
H2661 H 0.4329 0.41912 0.94473 0.0
H2662 H 0.41564 0.41948 0.93023 0.0
H2663 H 0.39105 0.46977 0.89982 0.0
H2664 H 0.38557 0.45431 0.91873 0.0
H2665 H 0.40384 0.43469 0.89744 0.0
H2666 H 0.40924 0.45006 0.87845 0.0
H2667 H 0.40947 0.43856 0.92623 0.0
H2668 H 0.3719 0.42083 0.89472 0.0
H2669 H 0.35491 0.42226 0.88082 0.0
H2670 H 0.33837 0.42977 0.91677 0.0
H2671 H 0.35543 0.42862 0.93088 0.0
C2672 C 0.37515 0.3836 0.96089 0.0
C2673 C 0.36548 0.38241 0.97037 0.0
C2674 C 0.37998 0.39365 0.95115 0.0
C2675 C 0.37547 0.40288 0.95091 0.0
C2676 C 0.36573 0.40163 0.96033 0.0
C2677 C 0.36074 0.39146 0.96994 0.0
C2678 C 0.38062 0.41364 0.94063 0.0
C2679 C 0.37123 0.41483 0.93261 0.0
C2680 C 0.39461 0.42237 0.93837 0.0
C2681 C 0.40506 0.42224 0.94705 0.0
C2682 C 0.40489 0.42377 0.96125 0.0
C2683 C 0.41468 0.42349 0.96939 0.0
C2684 C 0.42475 0.4218 0.96343 0.0
C2685 C 0.42508 0.42042 0.94933 0.0
C2686 C 0.41531 0.42067 0.94114 0.0
C2687 C 0.39406 0.46228 0.89928 0.0
C2688 C 0.40051 0.46105 0.88766 0.0
C2689 C 0.39093 0.45347 0.91005 0.0
C2690 C 0.39422 0.44332 0.9094 0.0
C2691 C 0.40125 0.44249 0.89812 0.0
C2692 C 0.40428 0.45123 0.88729 0.0
C2693 C 0.38936 0.43292 0.91995 0.0
C2694 C 0.39878 0.43178 0.92792 0.0
C2695 C 0.37542 0.42431 0.92228 0.0
C2696 C 0.36502 0.42477 0.91384 0.0
C2697 C 0.3647 0.42289 0.89965 0.0
C2698 C 0.35505 0.42363 0.89174 0.0
C2699 C 0.34559 0.42613 0.8979 0.0
C2700 C 0.34572 0.42785 0.91201 0.0
C2701 C 0.35537 0.42714 0.91997 0.0
H2702 H 0.33813 0.42671 0.89176 0.0
H2703 H 0.43231 0.42159 0.96975 0.0
H2704 H 0.6214 0.00593 0.986 0.0
H2705 H 0.6064 0.00031 0.96635 0.0
H2706 H 0.62549 0.98071 0.94671 0.0
H2707 H 0.64039 0.98598 0.96661 0.0
H2708 H 0.62141 0.00494 0.93299 0.0
H2709 H 0.60028 0.95971 0.95264 0.0
H2710 H 0.59065 0.94448 0.97204 0.0
H2711 H 0.56193 0.95728 0.97819 0.0
H2712 H 0.57153 0.97275 0.95895 0.0
H2713 H 0.57894 0.9801 0.87496 0.0
H2714 H 0.59419 0.98421 0.89398 0.0
H2715 H 0.56323 0.97928 0.92208 0.0
H2716 H 0.54765 0.97415 0.90322 0.0
H2717 H 0.57394 0.96712 0.93172 0.0
H2718 H 0.5924 0.01111 0.91413 0.0
H2719 H 0.60153 0.02903 0.89713 0.0
H2720 H 0.63445 0.02242 0.88956 0.0
H2721 H 0.62541 0.00431 0.90639 0.0
C2722 C 0.62236 0.00033 0.97754 0.0
C2723 C 0.63206 0.99639 0.9778 0.0
C2724 C 0.61378 0.99714 0.96636 0.0
C2725 C 0.61491 0.99014 0.95516 0.0
C2726 C 0.62452 0.98611 0.95534 0.0
C2727 C 0.63294 0.98906 0.96669 0.0
C2728 C 0.60616 0.98742 0.94318 0.0
C2729 C 0.61111 0.99652 0.93249 0.0
C2730 C 0.59257 0.97688 0.94302 0.0
C2731 C 0.58671 0.96747 0.95446 0.0
C2732 C 0.592 0.95937 0.95822 0.0
C2733 C 0.58652 0.95067 0.96916 0.0
C2734 C 0.57571 0.94993 0.97637 0.0
C2735 C 0.57031 0.95787 0.97261 0.0
C2736 C 0.57576 0.96659 0.96168 0.0
C2737 C 0.57538 0.97984 0.88521 0.0
C2738 C 0.56202 0.97664 0.8875 0.0
C2739 C 0.58416 0.98235 0.89609 0.0
C2740 C 0.57996 0.98223 0.90952 0.0
C2741 C 0.56672 0.97938 0.91183 0.0
C2742 C 0.55782 0.97652 0.90097 0.0
C2743 C 0.58916 0.98456 0.92117 0.0
C2744 C 0.58428 0.97547 0.93196 0.0
C2745 C 0.60271 0.99542 0.92161 0.0
C2746 C 0.60814 0.00625 0.91141 0.0
C2747 C 0.60152 0.01339 0.90875 0.0
C2748 C 0.60669 0.0236 0.89917 0.0
C2749 C 0.61854 0.02683 0.89224 0.0
C2750 C 0.62526 0.01988 0.89491 0.0
C2751 C 0.62012 0.00965 0.90449 0.0
H2752 H 0.62253 0.03475 0.88483 0.0
H2753 H 0.57149 0.9432 0.98484 0.0
H2754 H 0.61821 0.98536 0.03903 0.0
H2755 H 0.60489 0.98851 0.05648 0.0
H2756 H 0.64095 0.02342 0.07221 0.0
H2757 H 0.65428 0.02057 0.05453 0.0
H2758 H 0.60437 0.98833 0.08302 0.0
H2759 H 0.63422 0.04697 0.08301 0.0
H2760 H 0.6471 0.06531 0.06694 0.0
H2761 H 0.62499 0.03877 0.03346 0.0
H2762 H 0.61186 0.02034 0.04933 0.0
H2763 H 0.59141 0.01541 0.14237 0.0
H2764 H 0.59995 0.00808 0.12335 0.0
H2765 H 0.58454 0.02541 0.09525 0.0
H2766 H 0.57676 0.03346 0.11422 0.0
H2767 H 0.60827 0.03299 0.08868 0.0
H2768 H 0.5708 0.98997 0.09862 0.0
H2769 H 0.55538 0.97054 0.11249 0.0
H2770 H 0.58777 0.96391 0.12246 0.0
H2771 H 0.60345 0.98341 0.10881 0.0
C2772 C 0.62331 0.9937 0.04622 0.0
C2773 C 0.63727 0.0028 0.04534 0.0
C2774 C 0.61568 0.99545 0.05621 0.0
C2775 C 0.62189 0.0063 0.06553 0.0
C2776 C 0.63591 0.01514 0.06495 0.0
C2777 C 0.64352 0.01348 0.05487 0.0
C2778 C 0.61367 0.00858 0.07566 0.0
C2779 C 0.60518 0.99807 0.08428 0.0
C2780 C 0.61439 0.02116 0.07698 0.0
C2781 C 0.62215 0.03225 0.06736 0.0
C2782 C 0.63207 0.04507 0.07222 0.0
C2783 C 0.63942 0.05548 0.06315 0.0
C2784 C 0.63689 0.0532 0.04918 0.0
C2785 C 0.62698 0.04052 0.04427 0.0
C2786 C 0.61959 0.03008 0.0533 0.0
C2787 C 0.58969 0.01747 0.1321 0.0
C2788 C 0.58334 0.02492 0.12982 0.0
C2789 C 0.59448 0.01319 0.12123 0.0
C2790 C 0.59277 0.01605 0.10781 0.0
C2791 C 0.586 0.02309 0.10549 0.0
C2792 C 0.58146 0.02761 0.11637 0.0
C2793 C 0.5991 0.01281 0.09633 0.0
C2794 C 0.60731 0.02318 0.08743 0.0
C2795 C 0.59772 -5e-05 0.09448 0.0
C2796 C 0.58833 0.98824 0.10278 0.0
C2797 C 0.57467 0.98444 0.10386 0.0
C2798 C 0.56587 0.9734 0.11167 0.0
C2799 C 0.5706 0.96602 0.11837 0.0
C2800 C 0.58413 0.96964 0.11727 0.0
C2801 C 0.59297 0.98069 0.10949 0.0
H2802 H 0.56377 0.95747 0.1244 0.0
H2803 H 0.6426 0.06127 0.04217 0.0
H2804 H 0.01373 0.64098 0.04974 0.0
H2805 H 0.00954 0.62376 0.06623 0.0
H2806 H 0.96667 0.60504 0.05902 0.0
H2807 H 0.97083 0.6227 0.04296 0.0
H2808 H 0.97075 0.60526 0.08451 0.0
H2809 H 0.98657 0.59192 0.04582 0.0
H2810 H 0.00196 0.5947 0.02706 0.0
H2811 H 0.03368 0.604 0.05577 0.0
H2812 H 0.01854 0.60145 0.0747 0.0
H2813 H 0.95379 0.54483 0.11761 0.0
H2814 H 0.9584 0.55965 0.0983 0.0
H2815 H -0.00094 0.58572 0.113 0.0
H2816 H 0.99444 0.57107 0.1325 0.0
H2817 H 0.99561 0.58056 0.08306 0.0
H2818 H 0.97914 0.59499 0.12146 0.0
H2819 H 0.96284 0.59084 0.13971 0.0
H2820 H 0.93106 0.57786 0.1101 0.0
H2821 H 0.94715 0.58173 0.09168 0.0
C2822 C 0.00341 0.6332 0.0517 0.0
C2823 C 0.9926 0.63314 0.04508 0.0
C2824 C 0.00103 0.62328 0.06104 0.0
C2825 C 0.98781 0.6129 0.06366 0.0
C2826 C 0.97697 0.61291 0.05714 0.0
C2827 C 0.97934 0.623 0.04798 0.0
C2828 C 0.98527 0.60228 0.07352 0.0
C2829 C 0.97604 0.59973 0.084 0.0
C2830 C 0.99232 0.59515 0.07304 0.0
C2831 C 0.00144 0.5966 0.06168 0.0
C2832 C 0.99685 0.59464 0.04813 0.0
C2833 C 0.00553 0.59616 0.03747 0.0
C2834 C 0.0188 0.59955 0.04022 0.0
C2835 C 0.0234 0.60139 0.05365 0.0
C2836 C 0.01477 0.59989 0.06436 0.0
C2837 C 0.96375 0.55365 0.11663 0.0
C2838 C 0.97371 0.55693 0.12662 0.0
C2839 C 0.96637 0.56205 0.1056 0.0
C2840 C 0.97903 0.57378 0.10433 0.0
C2841 C 0.98925 0.57668 0.11384 0.0
C2842 C 0.98658 0.56836 0.12497 0.0
C2843 C 0.98115 0.58368 0.09387 0.0
C2844 C 0.9903 0.58608 0.08338 0.0
C2845 C 0.97392 0.59055 0.09419 0.0
C2846 C 0.96431 0.58852 0.10522 0.0
C2847 C 0.96866 0.59116 0.11886 0.0
C2848 C 0.95946 0.58888 0.12923 0.0
C2849 C 0.94591 0.58406 0.12607 0.0
C2850 C 0.94155 0.58158 0.11253 0.0
C2851 C 0.95071 0.58382 0.10212 0.0
H2852 H 0.93881 0.58229 0.13412 0.0
H2853 H 0.0255 0.60073 0.03195 0.0
H2854 H 0.38694 0.39382 0.04201 0.0
H2855 H 0.40411 0.39907 0.05926 0.0
H2856 H 0.40285 0.36178 0.04979 0.0
H2857 H 0.38535 0.35626 0.0326 0.0
H2858 H 0.40261 0.36517 0.07633 0.0
H2859 H 0.42973 0.39214 0.04025 0.0
H2860 H 0.43673 0.40842 0.02171 0.0
H2861 H 0.44222 0.43945 0.05024 0.0
H2862 H 0.43506 0.4233 0.06894 0.0
H2863 H 0.46276 0.38612 0.11603 0.0
H2864 H 0.44884 0.38103 0.09552 0.0
H2865 H 0.43642 0.40875 0.10918 0.0
H2866 H 0.44983 0.41345 0.13002 0.0
H2867 H 0.44514 0.4095 0.0793 0.0
H2868 H 0.41513 0.38069 0.11468 0.0
H2869 H 0.4087 0.36404 0.13279 0.0
H2870 H 0.40977 0.33596 0.10431 0.0
H2871 H 0.41642 0.35256 0.08607 0.0
C2872 C 0.39034 0.38674 0.04351 0.0
C2873 C 0.38477 0.37461 0.0359 0.0
C2874 C 0.40023 0.38981 0.05334 0.0
C2875 C 0.40492 0.38092 0.05568 0.0
C2876 C 0.39941 0.36881 0.04811 0.0
C2877 C 0.38943 0.36568 0.03828 0.0
C2878 C 0.41514 0.3841 0.06646 0.0
C2879 C 0.41202 0.37477 0.07681 0.0
C2880 C 0.42737 0.39668 0.06719 0.0
C2881 C 0.43176 0.40647 0.05599 0.0
C2882 C 0.43233 0.40241 0.04256 0.0
C2883 C 0.43634 0.41162 0.03202 0.0
C2884 C 0.43989 0.42495 0.03479 0.0
C2885 C 0.43946 0.42911 0.04811 0.0
C2886 C 0.43544 0.41994 0.05869 0.0
C2887 C 0.45698 0.39105 0.11472 0.0
C2888 C 0.45705 0.39988 0.12482 0.0
C2889 C 0.44914 0.38822 0.10297 0.0
C2890 C 0.44159 0.39447 0.10096 0.0
C2891 C 0.4422 0.40383 0.11062 0.0
C2892 C 0.4498 0.40645 0.12252 0.0
C2893 C 0.43243 0.39067 0.08912 0.0
C2894 C 0.43579 0.39988 0.07864 0.0
C2895 C 0.42051 0.37792 0.08816 0.0
C2896 C 0.41645 0.36792 0.09907 0.0
C2897 C 0.41414 0.37102 0.11232 0.0
C2898 C 0.41042 0.36158 0.12259 0.0
C2899 C 0.40888 0.34896 0.11971 0.0
C2900 C 0.411 0.34575 0.10653 0.0
C2901 C 0.41474 0.35517 0.09622 0.0
H2902 H 0.40599 0.34166 0.12768 0.0
H2903 H 0.44299 0.43206 0.02662 0.0
H2904 H 0.67332 0.70829 0.38629 0.0
H2905 H 0.66322 0.71651 0.403 0.0
H2906 H 0.62483 0.69391 0.38233 0.0
H2907 H 0.63475 0.68544 0.36576 0.0
H2908 H 0.63359 0.7219 0.38895 0.0
H2909 H 0.62733 0.68144 0.40937 0.0
H2910 H 0.6348 0.66626 0.41773 0.0
H2911 H 0.66174 0.69688 0.44615 0.0
H2912 H 0.65456 0.71233 0.4378 0.0
H2913 H 0.59034 0.72568 0.43795 0.0
H2914 H 0.60084 0.7178 0.42141 0.0
H2915 H 0.63659 0.73444 0.44662 0.0
H2916 H 0.62604 0.74215 0.46327 0.0
H2917 H 0.6297 0.70986 0.43758 0.0
H2918 H 0.63618 0.75028 0.41799 0.0
H2919 H 0.62967 0.76619 0.40959 0.0
H2920 H 0.60365 0.73691 0.37965 0.0
H2921 H 0.60986 0.72073 0.38801 0.0
C2922 C 0.66273 0.70506 0.38534 0.0
C2923 C 0.65481 0.6962 0.37477 0.0
C2924 C 0.65698 0.70975 0.39488 0.0
C2925 C 0.6433 0.70578 0.39387 0.0
C2926 C 0.63541 0.69707 0.38324 0.0
C2927 C 0.64108 0.6922 0.37385 0.0
C2928 C 0.63717 0.71068 0.40393 0.0
C2929 C 0.63257 0.71916 0.39956 0.0
C2930 C 0.63622 0.70736 0.41779 0.0
C2931 C 0.64052 0.69809 0.42285 0.0
C2932 C 0.63494 0.68498 0.4173 0.0
C2933 C 0.6391 0.67632 0.42206 0.0
C2934 C 0.64877 0.68061 0.43243 0.0
C2935 C 0.65427 0.69357 0.4381 0.0
C2936 C 0.65015 0.70229 0.43336 0.0
C2937 C 0.60047 0.72772 0.4399 0.0
C2938 C 0.60748 0.73475 0.45176 0.0
C2939 C 0.60647 0.72325 0.43045 0.0
C2940 C 0.61958 0.72572 0.43269 0.0
C2941 C 0.6265 0.73249 0.44465 0.0
C2942 C 0.6205 0.73695 0.45411 0.0
C2943 C 0.62603 0.72109 0.42263 0.0
C2944 C 0.63071 0.71265 0.42699 0.0
C2945 C 0.62717 0.72456 0.40877 0.0
C2946 C 0.62338 0.73424 0.40373 0.0
C2947 C 0.62898 0.74718 0.4097 0.0
C2948 C 0.62536 0.75626 0.40493 0.0
C2949 C 0.61623 0.75255 0.39412 0.0
C2950 C 0.61071 0.73976 0.38804 0.0
C2951 C 0.61428 0.73064 0.39279 0.0
H2952 H 0.61345 0.7596 0.39043 0.0
H2953 H 0.65197 0.67389 0.43611 0.0
H2954 H 0.27371 0.94256 0.38312 0.0
H2955 H 0.2682 0.92663 0.40136 0.0
H2956 H 0.30977 0.93693 0.40373 0.0
H2957 H 0.31542 0.9529 0.38523 0.0
H2958 H 0.29118 0.90909 0.40652 0.0
H2959 H 0.29952 0.95102 0.42615 0.0
H2960 H 0.29705 0.971 0.42789 0.0
H2961 H 0.25453 0.94558 0.43461 0.0
H2962 H 0.25671 0.92542 0.43271 0.0
H2963 H 0.27626 0.87517 0.47031 0.0
H2964 H 0.28698 0.89172 0.45234 0.0
H2965 H 0.25052 0.89321 0.44764 0.0
H2966 H 0.24019 0.87754 0.46606 0.0
H2967 H 0.2704 0.91706 0.44713 0.0
H2968 H 0.26135 0.87513 0.42503 0.0
H2969 H 0.26327 0.85487 0.42237 0.0
H2970 H 0.30637 0.87973 0.41977 0.0
H2971 H 0.3047 0.90014 0.42258 0.0
C2972 C 0.2817 0.94141 0.38742 0.0
C2973 C 0.29505 0.94914 0.38284 0.0
C2974 C 0.27852 0.93229 0.39786 0.0
C2975 C 0.28862 0.9308 0.40405 0.0
C2976 C 0.30185 0.938 0.39911 0.0
C2977 C 0.30506 0.94713 0.38857 0.0
C2978 C 0.28532 0.92222 0.41612 0.0
C2979 C 0.28683 0.9109 0.41551 0.0
C2980 C 0.27957 0.92458 0.42777 0.0
C2981 C 0.27827 0.93671 0.42922 0.0
C2982 C 0.28963 0.94969 0.42794 0.0
C2983 C 0.28828 0.96105 0.42895 0.0
C2984 C 0.27564 0.95956 0.43134 0.0
C2985 C 0.26432 0.94671 0.43277 0.0
C2986 C 0.26561 0.93532 0.43174 0.0
C2987 C 0.27057 0.87906 0.4654 0.0
C2988 C 0.25731 0.87485 0.46951 0.0
C2989 C 0.27666 0.88843 0.45507 0.0
C2990 C 0.26949 0.89356 0.44843 0.0
C2991 C 0.25628 0.8894 0.45257 0.0
C2992 C 0.25032 0.88031 0.46307 0.0
C2993 C 0.27566 0.90349 0.43737 0.0
C2994 C 0.27483 0.91521 0.43822 0.0
C2995 C 0.28194 0.90141 0.42593 0.0
C2996 C 0.28291 0.88914 0.42416 0.0
C2997 C 0.27124 0.87627 0.42398 0.0
C2998 C 0.27228 0.86476 0.42243 0.0
C2999 C 0.28493 0.86601 0.42094 0.0
C3000 C 0.29657 0.87878 0.42095 0.0
C3001 C 0.29558 0.89031 0.42251 0.0
H3002 H 0.28572 0.85709 0.41975 0.0
H3003 H 0.27461 0.96837 0.43211 0.0
H3004 H 0.0483 0.35815 0.38227 0.0
H3005 H 0.0656 0.36918 0.40002 0.0
H3006 H 0.08577 0.34879 0.38464 0.0
H3007 H 0.06812 0.33723 0.36744 0.0
H3008 H 0.08451 0.34673 0.41012 0.0
H3009 H 0.09778 0.38425 0.38065 0.0
H3010 H 0.09468 0.40044 0.36741 0.0
H3011 H 0.08437 0.41419 0.40378 0.0
H3012 H 0.08725 0.39796 0.41722 0.0
H3013 H 0.14543 0.38351 0.44741 0.0
H3014 H 0.12913 0.3751 0.42868 0.0
H3015 H 0.10672 0.39104 0.44859 0.0
H3016 H 0.12289 0.39961 0.46722 0.0
H3017 H 0.10901 0.39567 0.42132 0.0
H3018 H 0.09602 0.35787 0.45049 0.0
H3019 H 0.09975 0.34192 0.46343 0.0
H3020 H 0.11036 0.32899 0.42669 0.0
H3021 H 0.10686 0.345 0.41356 0.0
C3022 C 0.0565 0.35614 0.38264 0.0
C3023 C 0.05685 0.3468 0.37354 0.0
C3024 C 0.06644 0.3625 0.39274 0.0
C3025 C 0.07712 0.35995 0.39362 0.0
C3026 C 0.07763 0.3509 0.38425 0.0
C3027 C 0.06754 0.34431 0.3744 0.0
C3028 C 0.08738 0.36606 0.40471 0.0
C3029 C 0.09001 0.35747 0.41238 0.0
C3030 C 0.09432 0.38003 0.40799 0.0
C3031 C 0.0926 0.3898 0.39992 0.0
C3032 C 0.09476 0.39066 0.38581 0.0
C3033 C 0.09306 0.39985 0.37827 0.0
C3034 C 0.0893 0.40831 0.38475 0.0
C3035 C 0.08726 0.40762 0.39878 0.0
C3036 C 0.08894 0.39843 0.40636 0.0
C3037 C 0.13696 0.38512 0.44791 0.0
C3038 C 0.13528 0.39173 0.45924 0.0
C3039 C 0.12768 0.38034 0.43716 0.0
C3040 C 0.11655 0.38218 0.43741 0.0
C3041 C 0.11516 0.38937 0.44829 0.0
C3042 C 0.12444 0.39417 0.45906 0.0
C3043 C 0.10621 0.37635 0.42645 0.0
C3044 C 0.10353 0.38495 0.41892 0.0
C3045 C 0.09929 0.36241 0.42318 0.0
C3046 C 0.1013 0.35272 0.43107 0.0
C3047 C 0.09924 0.35169 0.44519 0.0
C3048 C 0.10129 0.34263 0.45255 0.0
C3049 C 0.10532 0.33447 0.44589 0.0
C3050 C 0.10725 0.33533 0.43184 0.0
C3051 C 0.10523 0.34438 0.42443 0.0
H3052 H 0.10691 0.32746 0.45161 0.0
H3053 H 0.08798 0.41542 0.37889 0.0
H3054 H 0.02085 0.29892 0.30909 0.0
H3055 H 0.02879 0.29024 0.29061 0.0
H3056 H 0.0623 0.33033 0.28402 0.0
H3057 H 0.05447 0.33908 0.30242 0.0
H3058 H 0.04975 0.31677 0.26007 0.0
H3059 H 0.06724 0.30876 0.30122 0.0
H3060 H 0.06538 0.29962 0.3241 0.0
H3061 H 0.03936 0.25949 0.30833 0.0
H3062 H 0.04092 0.26842 0.28537 0.0
H3063 H 0.09491 0.30534 0.22195 0.0
H3064 H 0.084 0.31193 0.23924 0.0
H3065 H 0.05468 0.27006 0.24584 0.0
H3066 H 0.06586 0.26341 0.22881 0.0
H3067 H 0.06318 0.28305 0.26935 0.0
H3068 H 0.04669 0.2905 0.22798 0.0
H3069 H 0.04806 0.29932 0.20503 0.0
H3070 H 0.07121 0.33985 0.22081 0.0
H3071 H 0.07016 0.33128 0.24384 0.0
C3072 C 0.02989 0.30589 0.30366 0.0
C3073 C 0.03708 0.31967 0.30723 0.0
C3074 C 0.03441 0.30091 0.29315 0.0
C3075 C 0.04618 0.30965 0.28603 0.0
C3076 C 0.0532 0.32344 0.28939 0.0
C3077 C 0.04874 0.3284 0.29994 0.0
C3078 C 0.05138 0.30445 0.27523 0.0
C3079 C 0.0528 0.30948 0.26209 0.0
C3080 C 0.05496 0.29465 0.27784 0.0
C3081 C 0.05407 0.28927 0.29162 0.0
C3082 C 0.06103 0.298 0.30266 0.0
C3083 C 0.06005 0.29285 0.31563 0.0
C3084 C 0.05222 0.27899 0.31768 0.0
C3085 C 0.0454 0.27023 0.30674 0.0
C3086 C 0.04633 0.27533 0.29374 0.0
C3087 C 0.08623 0.29754 0.2272 0.0
C3088 C 0.08142 0.28385 0.22428 0.0
C3089 C 0.07991 0.30131 0.23697 0.0
C3090 C 0.06844 0.29148 0.24375 0.0
C3091 C 0.06354 0.27781 0.24076 0.0
C3092 C 0.06993 0.27402 0.23106 0.0
C3093 C 0.06175 0.2955 0.25415 0.0
C3094 C 0.06002 0.29025 0.26724 0.0
C3095 C 0.0578 0.30503 0.25146 0.0
C3096 C 0.05844 0.31024 0.23762 0.0
C3097 C 0.05217 0.30129 0.22654 0.0
C3098 C 0.05287 0.30625 0.21352 0.0
C3099 C 0.05974 0.32014 0.21146 0.0
C3100 C 0.0659 0.3291 0.22242 0.0
C3101 C 0.06524 0.3242 0.23547 0.0
H3102 H 0.06027 0.32395 0.20137 0.0
H3103 H 0.05148 0.27502 0.32773 0.0
H3104 H 0.69293 0.70609 0.30039 0.0
H3105 H 0.70318 0.72277 0.28247 0.0
H3106 H 0.69329 0.74921 0.30467 0.0
H3107 H 0.68229 0.73217 0.32204 0.0
H3108 H 0.68541 0.74756 0.28069 0.0
H3109 H 0.72728 0.75524 0.29956 0.0
H3110 H 0.74368 0.74905 0.30747 0.0
H3111 H 0.74437 0.73369 0.2676 0.0
H3112 H 0.72785 0.73963 0.2595 0.0
H3113 H 0.72084 0.80475 0.23944 0.0
H3114 H 0.71496 0.78954 0.25857 0.0
H3115 H 0.71683 0.76015 0.23247 0.0
H3116 H 0.72262 0.77506 0.21335 0.0
H3117 H 0.72929 0.7634 0.25792 0.0
H3118 H 0.68708 0.7557 0.23961 0.0
H3119 H 0.67112 0.76253 0.2319 0.0
H3120 H 0.6718 0.77883 0.27166 0.0
H3121 H 0.68792 0.77226 0.27955 0.0
C3122 C 0.69323 0.7156 0.30152 0.0
C3123 C 0.68683 0.71789 0.31252 0.0
C3124 C 0.69913 0.72516 0.29131 0.0
C3125 C 0.6991 0.73734 0.29219 0.0
C3126 C 0.69337 0.73988 0.30365 0.0
C3127 C 0.68715 0.73019 0.31362 0.0
C3128 C 0.7038 0.74688 0.2807 0.0
C3129 C 0.69514 0.75119 0.27594 0.0
C3130 C 0.71629 0.75134 0.2741 0.0
C3131 C 0.72624 0.74777 0.27896 0.0
C3132 C 0.73086 0.75045 0.29251 0.0
C3133 C 0.74019 0.747 0.29702 0.0
C3134 C 0.74504 0.74095 0.28805 0.0
C3135 C 0.74059 0.73836 0.27454 0.0
C3136 C 0.73126 0.74178 0.26998 0.0
C3137 C 0.71995 0.79502 0.23775 0.0
C3138 C 0.72199 0.79118 0.22472 0.0
C3139 C 0.71663 0.78637 0.24869 0.0
C3140 C 0.71535 0.77368 0.24688 0.0
C3141 C 0.71776 0.76991 0.23405 0.0
C3142 C 0.72101 0.77852 0.22306 0.0
C3143 C 0.71102 0.76417 0.25827 0.0
C3144 C 0.71965 0.75981 0.26287 0.0
C3145 C 0.69857 0.75974 0.26484 0.0
C3146 C 0.6888 0.7636 0.26013 0.0
C3147 C 0.6839 0.76083 0.24668 0.0
C3148 C 0.67482 0.76464 0.24228 0.0
C3149 C 0.67048 0.77114 0.25127 0.0
C3150 C 0.67519 0.77381 0.2647 0.0
C3151 C 0.68429 0.77004 0.26914 0.0
H3152 H 0.66344 0.77409 0.24785 0.0
H3153 H 0.75226 0.73829 0.29157 0.0
H3154 H 0.28254 0.98415 0.32142 0.0
H3155 H 0.26564 0.97678 0.30321 0.0
H3156 H 0.27355 0.94526 0.29154 0.0
H3157 H 0.2904 0.95249 0.30976 0.0
H3158 H 0.27232 0.95986 0.26949 0.0
H3159 H 0.24656 0.93705 0.30911 0.0
H3160 H 0.2388 0.93579 0.3327 0.0
H3161 H 0.22307 0.96135 0.32301 0.0
H3162 H 0.23092 0.96292 0.29939 0.0
H3163 H 0.216 0.9183 0.22761 0.0
H3164 H 0.23336 0.92735 0.24538 0.0
H3165 H 0.21991 0.95434 0.25895 0.0
H3166 H 0.20223 0.94499 0.2414 0.0
H3167 H 0.22426 0.94319 0.28004 0.0
H3168 H 0.24896 0.96558 0.24045 0.0
H3169 H 0.25695 0.96755 0.21687 0.0
H3170 H 0.27504 0.94402 0.2263 0.0
H3171 H 0.26698 0.94173 0.2499 0.0
C3172 C 0.2807 0.97566 0.31495 0.0
C3173 C 0.28775 0.96885 0.31703 0.0
C3174 C 0.27103 0.97146 0.3046 0.0
C3175 C 0.26832 0.96044 0.29611 0.0
C3176 C 0.27552 0.95378 0.298 0.0
C3177 C 0.28509 0.95789 0.30844 0.0
C3178 C 0.25788 0.95574 0.28533 0.0
C3179 C 0.26178 0.95608 0.27177 0.0
C3180 C 0.24423 0.95119 0.28835 0.0
C3181 C 0.23946 0.95022 0.30253 0.0
C3182 C 0.24156 0.9425 0.31204 0.0
C3183 C 0.23712 0.94171 0.32541 0.0
C3184 C 0.23048 0.94852 0.32936 0.0
C3185 C 0.22824 0.9561 0.31994 0.0
C3186 C 0.23267 0.95693 0.30656 0.0
C3187 C 0.21666 0.92606 0.23448 0.0
C3188 C 0.20757 0.93073 0.23334 0.0
C3189 C 0.22667 0.93133 0.24454 0.0
C3190 C 0.22801 0.9416 0.25343 0.0
C3191 C 0.21903 0.94638 0.25223 0.0
C3192 C 0.20895 0.94104 0.24223 0.0
C3193 C 0.23864 0.9472 0.26412 0.0
C3194 C 0.2348 0.94704 0.2777 0.0
C3195 C 0.25237 0.95202 0.2611 0.0
C3196 C 0.25725 0.95338 0.24691 0.0
C3197 C 0.25454 0.96073 0.23747 0.0
C3198 C 0.25911 0.96192 0.22411 0.0
C3199 C 0.26647 0.95588 0.22008 0.0
C3200 C 0.26932 0.94867 0.22943 0.0
C3201 C 0.26477 0.94744 0.2428 0.0
H3202 H 0.27 0.95682 0.20974 0.0
H3203 H 0.22705 0.94789 0.33971 0.0
H3204 H 0.67507 0.93756 0.32235 0.0
H3205 H 0.68692 0.93302 0.30422 0.0
H3206 H 0.70367 0.97363 0.29019 0.0
H3207 H 0.69218 0.97841 0.30857 0.0
H3208 H 0.68777 0.94836 0.27019 0.0
H3209 H 0.72495 0.97114 0.30274 0.0
H3210 H 0.73521 0.97424 0.32547 0.0
H3211 H 0.72774 0.93377 0.32358 0.0
H3212 H 0.71724 0.93037 0.30092 0.0
H3213 H 0.73135 0.94984 0.21899 0.0
H3214 H 0.72034 0.95454 0.23768 0.0
H3215 H 0.72184 0.92433 0.26162 0.0
H3216 H 0.73382 0.92037 0.2434 0.0
H3217 H 0.72805 0.94408 0.27714 0.0
H3218 H 0.69166 0.92016 0.24581 0.0
H3219 H 0.6795 0.91457 0.22387 0.0
H3220 H 0.68265 0.9533 0.22403 0.0
H3221 H 0.69499 0.9592 0.24588 0.0
C3222 C 0.68139 0.94556 0.31549 0.0
C3223 C 0.68272 0.95834 0.31687 0.0
C3224 C 0.68813 0.94295 0.30517 0.0
C3225 C 0.6961 0.95299 0.29592 0.0
C3226 C 0.69755 0.96578 0.29728 0.0
C3227 C 0.69105 0.9685 0.3078 0.0
C3228 C 0.70256 0.94993 0.28455 0.0
C3229 C 0.6967 0.9476 0.27159 0.0
C3230 C 0.71381 0.94838 0.28663 0.0
C3231 C 0.72017 0.95045 0.30021 0.0
C3232 C 0.72536 0.96285 0.30724 0.0
C3233 C 0.73126 0.96468 0.32009 0.0
C3234 C 0.73209 0.95419 0.32599 0.0
C3235 C 0.72707 0.94188 0.31902 0.0
C3236 C 0.72116 0.94 0.30616 0.0
C3237 C 0.72939 0.94424 0.22827 0.0
C3238 C 0.73362 0.93485 0.22969 0.0
C3239 C 0.72292 0.94681 0.23891 0.0
C3240 C 0.72004 0.93966 0.25105 0.0
C3241 C 0.72397 0.93003 0.25239 0.0
C3242 C 0.73078 0.92771 0.24188 0.0
C3243 C 0.71338 0.94257 0.26251 0.0
C3244 C 0.71914 0.94482 0.27558 0.0
C3245 C 0.70179 0.94368 0.26058 0.0
C3246 C 0.69436 0.94017 0.24743 0.0
C3247 C 0.68985 0.92753 0.24112 0.0
C3248 C 0.68291 0.92429 0.22871 0.0
C3249 C 0.68033 0.93358 0.22255 0.0
C3250 C 0.68467 0.94612 0.2288 0.0
C3251 C 0.69162 0.94941 0.24121 0.0
H3252 H 0.67496 0.93106 0.21294 0.0
H3253 H 0.73666 0.95562 0.33594 0.0
H3254 H 0.05889 0.73132 0.3123 0.0
H3255 H 0.06695 0.74805 0.29422 0.0
H3256 H 0.02585 0.73514 0.2833 0.0
H3257 H 0.0177 0.71872 0.30157 0.0
H3258 H 0.04948 0.73843 0.26128 0.0
H3259 H 0.03459 0.75943 0.29688 0.0
H3260 H 0.03579 0.76746 0.32053 0.0
H3261 H 0.07882 0.79268 0.3175 0.0
H3262 H 0.07786 0.78462 0.29388 0.0
H3263 H 0.04582 0.78153 0.21492 0.0
H3264 H 0.04339 0.76602 0.23254 0.0
H3265 H 0.07836 0.79791 0.25343 0.0
H3266 H 0.08009 0.8138 0.23648 0.0
H3267 H 0.06155 0.78562 0.27119 0.0
H3268 H 0.07752 0.76967 0.23556 0.0
H3269 H 0.0793 0.76193 0.21255 0.0
H3270 H 0.03917 0.72782 0.21563 0.0
H3271 H 0.03707 0.73545 0.23858 0.0
C3272 C 0.05159 0.73208 0.30605 0.0
C3273 C 0.03767 0.72378 0.30835 0.0
C3274 C 0.0562 0.7416 0.29576 0.0
C3275 C 0.04696 0.74274 0.2875 0.0
C3276 C 0.03309 0.73435 0.28962 0.0
C3277 C 0.02847 0.72504 0.30008 0.0
C3278 C 0.05169 0.75283 0.27672 0.0
C3279 C 0.05206 0.74875 0.26333 0.0
C3280 C 0.05567 0.76638 0.27962 0.0
C3281 C 0.05617 0.77131 0.29371 0.0
C3282 C 0.04431 0.76658 0.30131 0.0
C3283 C 0.04494 0.77116 0.31469 0.0
C3284 C 0.05738 0.78054 0.32053 0.0
C3285 C 0.0692 0.7854 0.31297 0.0
C3286 C 0.06862 0.78083 0.29959 0.0
C3287 C 0.0529 0.78533 0.22335 0.0
C3288 C 0.06282 0.79907 0.22445 0.0
C3289 C 0.05167 0.77634 0.23333 0.0
C3290 C 0.06079 0.78068 0.24432 0.0
C3291 C 0.07111 0.79428 0.24514 0.0
C3292 C 0.0721 0.80339 0.23536 0.0
C3293 C 0.05895 0.77123 0.25536 0.0
C3294 C 0.05917 0.7754 0.26892 0.0
C3295 C 0.05593 0.75784 0.25261 0.0
C3296 C 0.05711 0.75319 0.23878 0.0
C3297 C 0.06904 0.76057 0.2313 0.0
C3298 C 0.07011 0.75619 0.21827 0.0
C3299 C 0.05935 0.7444 0.21262 0.0
C3300 C 0.0475 0.73695 0.22001 0.0
C3301 C 0.04637 0.74129 0.23304 0.0
H3302 H 0.0602 0.74103 0.20254 0.0
H3303 H 0.05785 0.78407 0.33089 0.0
H3304 H 0.28207 0.33819 0.31197 0.0
H3305 H 0.26535 0.32728 0.29386 0.0
H3306 H 0.27459 0.29547 0.29098 0.0
H3307 H 0.29112 0.30616 0.30945 0.0
H3308 H 0.26742 0.32259 0.26866 0.0
H3309 H 0.24703 0.26626 0.28044 0.0
H3310 H 0.24316 0.25202 0.30031 0.0
H3311 H 0.24013 0.28084 0.32599 0.0
H3312 H 0.24381 0.29516 0.30625 0.0
H3313 H 0.23247 0.28243 0.21124 0.0
H3314 H 0.24747 0.29342 0.23074 0.0
H3315 H 0.21311 0.27663 0.25742 0.0
H3316 H 0.19817 0.26502 0.23803 0.0
H3317 H 0.23166 0.27431 0.26871 0.0
H3318 H 0.231 0.31108 0.24809 0.0
H3319 H 0.23294 0.32606 0.22956 0.0
H3320 H 0.2745 0.33782 0.22412 0.0
H3321 H 0.27276 0.32276 0.2425 0.0
C3322 C 0.28053 0.32884 0.30755 0.0
C3323 C 0.28794 0.32303 0.31219 0.0
C3324 C 0.27097 0.32263 0.29715 0.0
C3325 C 0.26861 0.3105 0.29109 0.0
C3326 C 0.27604 0.3047 0.29565 0.0
C3327 C 0.28553 0.31085 0.30617 0.0
C3328 C 0.25859 0.30414 0.27983 0.0
C3329 C 0.25959 0.31203 0.26869 0.0
C3330 C 0.24817 0.29045 0.27996 0.0
C3331 C 0.24584 0.28185 0.29188 0.0
C3332 C 0.2455 0.26954 0.29032 0.0
C3333 C 0.24334 0.26145 0.30156 0.0
C3334 C 0.24145 0.26555 0.31441 0.0
C3335 C 0.24166 0.27771 0.31604 0.0
C3336 C 0.24379 0.28582 0.30483 0.0
C3337 C 0.22813 0.28123 0.22126 0.0
C3338 C 0.21413 0.2731 0.22304 0.0
C3339 C 0.23669 0.28754 0.2324 0.0
C3340 C 0.23143 0.28609 0.24556 0.0
C3341 C 0.21743 0.27797 0.24737 0.0
C3342 C 0.20887 0.27144 0.23625 0.0
C3343 C 0.24057 0.29272 0.25746 0.0
C3344 C 0.23945 0.28488 0.26869 0.0
C3345 C 0.25061 0.30658 0.25762 0.0
C3346 C 0.25172 0.31571 0.2466 0.0
C3347 C 0.24053 0.31679 0.24288 0.0
C3348 C 0.2416 0.32531 0.23241 0.0
C3349 C 0.25383 0.33287 0.22565 0.0
C3350 C 0.26503 0.33195 0.22936 0.0
C3351 C 0.26401 0.32344 0.23982 0.0
H3352 H 0.25463 0.33945 0.21754 0.0
H3353 H 0.23979 0.25928 0.32311 0.0
H3354 H 0.28832 0.32667 0.38695 0.0
H3355 H 0.28014 0.33549 0.40503 0.0
H3356 H 0.30726 0.37602 0.39172 0.0
H3357 H 0.31584 0.3673 0.37407 0.0
H3358 H 0.3089 0.37572 0.41749 0.0
H3359 H 0.27189 0.35863 0.38608 0.0
H3360 H 0.25383 0.34171 0.37111 0.0
H3361 H 0.23464 0.31652 0.40532 0.0
H3362 H 0.2527 0.33321 0.42049 0.0
H3363 H 0.28203 0.40853 0.45597 0.0
H3364 H 0.28589 0.39819 0.43581 0.0
H3365 H 0.26722 0.35988 0.4557 0.0
H3366 H 0.2635 0.37021 0.47598 0.0
H3367 H 0.26054 0.35886 0.42668 0.0
H3368 H 0.29875 0.37675 0.45764 0.0
H3369 H 0.3166 0.39468 0.47202 0.0
H3370 H 0.33334 0.41961 0.43714 0.0
H3371 H 0.31544 0.4019 0.42259 0.0
C3372 C 0.29247 0.33745 0.38787 0.0
C3373 C 0.30274 0.34631 0.37915 0.0
C3374 C 0.28773 0.34249 0.39814 0.0
C3375 C 0.29297 0.35643 0.39966 0.0
C3376 C 0.30308 0.36524 0.39079 0.0
C3377 C 0.30797 0.36024 0.3807 0.0
C3378 C 0.28844 0.36197 0.41086 0.0
C3379 C 0.29831 0.37214 0.41932 0.0
C3380 C 0.27462 0.35715 0.41348 0.0
C3381 C 0.26372 0.34711 0.4044 0.0
C3382 C 0.26387 0.34943 0.3904 0.0
C3383 C 0.25363 0.3399 0.38188 0.0
C3384 C 0.24311 0.32803 0.38726 0.0
C3385 C 0.2428 0.32571 0.40117 0.0
C3386 C 0.25303 0.33521 0.40974 0.0
C3387 C 0.27859 0.39786 0.45595 0.0
C3388 C 0.27257 0.39018 0.46755 0.0
C3389 C 0.28076 0.39198 0.44445 0.0
C3390 C 0.2769 0.37831 0.44435 0.0
C3391 C 0.27023 0.37044 0.45561 0.0
C3392 C 0.26817 0.37635 0.46718 0.0
C3393 C 0.28101 0.37261 0.43304 0.0
C3394 C 0.27108 0.36241 0.42469 0.0
C3395 C 0.29478 0.3775 0.43036 0.0
C3396 C 0.30568 0.38806 0.43906 0.0
C3397 C 0.30618 0.38609 0.45306 0.0
C3398 C 0.31631 0.39621 0.46124 0.0
C3399 C 0.32608 0.40829 0.45551 0.0
C3400 C 0.32576 0.41025 0.44157 0.0
C3401 C 0.31563 0.40018 0.43335 0.0
H3402 H 0.33392 0.41611 0.46185 0.0
H3403 H 0.23519 0.32066 0.38064 0.0
H3404 H 0.6743 0.95214 0.38638 0.0
H3405 H 0.66543 0.93519 0.40418 0.0
H3406 H 0.62636 0.9314 0.40004 0.0
H3407 H 0.63511 0.94828 0.38234 0.0
H3408 H 0.63364 0.93305 0.42646 0.0
H3409 H 0.63171 0.90808 0.38621 0.0
H3410 H 0.64072 0.90285 0.36575 0.0
H3411 H 0.66833 0.89766 0.39049 0.0
H3412 H 0.65961 0.90305 0.4111 0.0
H3413 H 0.58924 0.86732 0.4524 0.0
H3414 H 0.6017 0.88358 0.43459 0.0
H3415 H 0.63904 0.89648 0.45601 0.0
H3416 H 0.62661 0.8806 0.47416 0.0
H3417 H 0.63415 0.89038 0.42175 0.0
H3418 H 0.63647 0.91771 0.46205 0.0
H3419 H 0.62576 0.92179 0.48185 0.0
H3420 H 0.59571 0.92132 0.45571 0.0
H3421 H 0.60616 0.91703 0.43579 0.0
C3422 C 0.66384 0.94772 0.38931 0.0
C3423 C 0.65539 0.95151 0.38295 0.0
C3424 C 0.65878 0.93801 0.39943 0.0
C3425 C 0.64522 0.93198 0.40334 0.0
C3426 C 0.63685 0.93594 0.39717 0.0
C3427 C 0.64187 0.94556 0.38703 0.0
C3428 C 0.63964 0.92153 0.41387 0.0
C3429 C 0.63378 0.92375 0.42539 0.0
C3430 C 0.63987 0.9094 0.41253 0.0
C3431 C 0.64512 0.90613 0.40018 0.0
C3432 C 0.63979 0.90595 0.38728 0.0
C3433 C 0.64483 0.90293 0.37566 0.0
C3434 C 0.65513 0.89997 0.37682 0.0
C3435 C 0.66038 0.89998 0.38961 0.0
C3436 C 0.65538 0.90301 0.40126 0.0
C3437 C 0.60011 0.87358 0.45328 0.0
C3438 C 0.60694 0.87291 0.46479 0.0
C3439 C 0.60719 0.88277 0.44309 0.0
C3440 C 0.62123 0.89119 0.44409 0.0
C3441 C 0.62819 0.89001 0.45512 0.0
C3442 C 0.62109 0.881 0.46546 0.0
C3443 C 0.62834 0.90205 0.43425 0.0
C3444 C 0.63432 0.89984 0.42285 0.0
C3445 C 0.62817 0.91416 0.4356 0.0
C3446 C 0.62199 0.9169 0.44749 0.0
C3447 C 0.6275 0.91835 0.46056 0.0
C3448 C 0.6215 0.92073 0.47179 0.0
C3449 C 0.61004 0.92178 0.47005 0.0
C3450 C 0.60458 0.92049 0.45705 0.0
C3451 C 0.61054 0.91809 0.44579 0.0
H3452 H 0.6054 0.92362 0.47875 0.0
H3453 H 0.65901 0.89763 0.36781 0.0
H3454 H 0.04366 0.72274 0.38838 0.0
H3455 H 0.06008 0.72808 0.40656 0.0
H3456 H 0.07667 0.70738 0.3842 0.0
H3457 H 0.05966 0.70132 0.36633 0.0
H3458 H 0.07624 0.70185 0.40894 0.0
H3459 H 0.09245 0.74347 0.38649 0.0
H3460 H 0.09138 0.76233 0.37644 0.0
H3461 H 0.08174 0.77243 0.41541 0.0
H3462 H 0.08257 0.75351 0.42567 0.0
H3463 H 0.13394 0.72938 0.45258 0.0
H3464 H 0.12066 0.72628 0.43195 0.0
H3465 H 0.0951 0.73671 0.45465 0.0
H3466 H 0.10826 0.73972 0.47529 0.0
H3467 H 0.10215 0.74828 0.42841 0.0
H3468 H 0.08505 0.70483 0.4498 0.0
H3469 H 0.08771 0.68656 0.45898 0.0
H3470 H 0.10134 0.68091 0.42013 0.0
H3471 H 0.09896 0.6993 0.41077 0.0
C3472 C 0.0508 0.71932 0.38735 0.0
C3473 C 0.05044 0.71168 0.37592 0.0
C3474 C 0.06027 0.72247 0.39771 0.0
C3475 C 0.06991 0.71847 0.39663 0.0
C3476 C 0.06942 0.71066 0.38527 0.0
C3477 C 0.0597 0.7072 0.37506 0.0
C3478 C 0.08027 0.72221 0.40749 0.0
C3479 C 0.08206 0.71207 0.41299 0.0
C3480 C 0.08787 0.73553 0.41293 0.0
C3481 C 0.08747 0.747 0.40682 0.0
C3482 C 0.09002 0.74966 0.3929 0.0
C3483 C 0.08947 0.76037 0.38717 0.0
C3484 C 0.08647 0.76856 0.39528 0.0
C3485 C 0.08405 0.76608 0.40914 0.0
C3486 C 0.08458 0.75537 0.41492 0.0
C3487 C 0.12558 0.73116 0.45309 0.0
C3488 C 0.12207 0.73473 0.46553 0.0
C3489 C 0.11801 0.72938 0.44134 0.0
C3490 C 0.10684 0.73116 0.44183 0.0
C3491 C 0.10369 0.7353 0.45408 0.0
C3492 C 0.11119 0.73699 0.46585 0.0
C3493 C 0.0979 0.7279 0.42983 0.0
C3494 C 0.09639 0.73813 0.42417 0.0
C3495 C 0.09078 0.71474 0.42406 0.0
C3496 C 0.09195 0.70352 0.42963 0.0
C3497 C 0.0887 0.69975 0.44324 0.0
C3498 C 0.09014 0.68936 0.44847 0.0
C3499 C 0.09472 0.68259 0.44015 0.0
C3500 C 0.09781 0.68617 0.42657 0.0
C3501 C 0.09641 0.69657 0.42129 0.0
H3502 H 0.09584 0.67456 0.44422 0.0
H3503 H 0.08603 0.77684 0.39082 0.0
H3504 H 0.30106 0.01492 0.70492 0.0
H3505 H 0.29267 0.02444 0.722 0.0
H3506 H 0.33247 0.05955 0.7262 0.0
H3507 H 0.34098 0.05006 0.70914 0.0
H3508 H 0.32053 0.04959 0.75085 0.0
H3509 H 0.30898 0.06167 0.70871 0.0
H3510 H 0.29893 0.05754 0.68576 0.0
H3511 H 0.25972 0.03088 0.70212 0.0
H3512 H 0.26957 0.0347 0.72516 0.0
H3513 H 0.30159 0.08983 0.78888 0.0
H3514 H 0.31049 0.08114 0.77153 0.0
H3515 H 0.27033 0.0477 0.76344 0.0
H3516 H 0.26128 0.05674 0.78041 0.0
H3517 H 0.28285 0.05723 0.74048 0.0
H3518 H 0.2942 0.04465 0.78251 0.0
H3519 H 0.30409 0.04852 0.80551 0.0
H3520 H 0.34338 0.0756 0.78955 0.0
H3521 H 0.33369 0.07204 0.76646 0.0
C3522 C 0.30804 0.02467 0.70948 0.0
C3523 C 0.32167 0.03177 0.70567 0.0
C3524 C 0.30322 0.03011 0.71919 0.0
C3525 C 0.31193 0.04275 0.72524 0.0
C3526 C 0.32559 0.04979 0.72161 0.0
C3527 C 0.33042 0.04437 0.71185 0.0
C3528 C 0.30679 0.04857 0.73544 0.0
C3529 C 0.31241 0.05144 0.74856 0.0
C3530 C 0.29599 0.05066 0.73248 0.0
C3531 C 0.29004 0.04837 0.71864 0.0
C3532 C 0.29823 0.05483 0.7074 0.0
C3533 C 0.29257 0.05257 0.69438 0.0
C3534 C 0.2787 0.04393 0.69248 0.0
C3535 C 0.27046 0.03756 0.70361 0.0
C3536 C 0.27608 0.03978 0.71665 0.0
C3537 C 0.29463 0.08073 0.78328 0.0
C3538 C 0.28067 0.07412 0.78576 0.0
C3539 C 0.29975 0.07568 0.77347 0.0
C3540 C 0.2911 0.0637 0.76627 0.0
C3541 C 0.27719 0.057 0.76883 0.0
C3542 C 0.27203 0.06215 0.77851 0.0
C3543 C 0.29652 0.05819 0.75597 0.0
C3544 C 0.29096 0.05538 0.74281 0.0
C3545 C 0.30733 0.05609 0.75891 0.0
C3546 C 0.31319 0.05817 0.77278 0.0
C3547 C 0.30493 0.0515 0.78392 0.0
C3548 C 0.31051 0.05363 0.79697 0.0
C3549 C 0.32435 0.06232 0.79899 0.0
C3550 C 0.33266 0.06888 0.78797 0.0
C3551 C 0.32713 0.0668 0.77489 0.0
H3552 H 0.32865 0.06396 0.80911 0.0
H3553 H 0.27433 0.04219 0.68239 0.0
H3554 H 0.9564 0.26009 0.69072 0.0
H3555 H 0.95036 0.24408 0.70916 0.0
H3556 H 0.9771 0.27666 0.73637 0.0
H3557 H 0.98391 0.29243 0.71762 0.0
H3558 H 0.97657 0.25578 0.74441 0.0
H3559 H 0.94185 0.26488 0.73285 0.0
H3560 H 0.92571 0.26671 0.71792 0.0
H3561 H 0.90562 0.22423 0.70896 0.0
H3562 H 0.92175 0.22218 0.7237 0.0
H3563 H 0.93781 0.22579 0.80458 0.0
H3564 H 0.94791 0.24042 0.78521 0.0
H3565 H 0.93143 0.2057 0.75825 0.0
H3566 H 0.92155 0.19085 0.77766 0.0
H3567 H 0.92705 0.22744 0.75054 0.0
H3568 H 0.96295 0.2199 0.76509 0.0
H3569 H 0.97878 0.22019 0.7821 0.0
H3570 H 0.99613 0.26285 0.78814 0.0
H3571 H 0.98026 0.26278 0.77131 0.0
C3572 C 0.9613 0.26369 0.70054 0.0
C3573 C 0.97059 0.27742 0.70283 0.0
C3574 C 0.95773 0.2546 0.71112 0.0
C3575 C 0.96287 0.25922 0.72432 0.0
C3576 C 0.97289 0.27283 0.72634 0.0
C3577 C 0.97682 0.28184 0.71562 0.0
C3578 C 0.95704 0.25019 0.73613 0.0
C3579 C 0.96574 0.24968 0.74577 0.0
C3580 C 0.94288 0.24224 0.73805 0.0
C3581 C 0.93309 0.2434 0.72927 0.0
C3582 C 0.93403 0.25595 0.72764 0.0
C3583 C 0.92489 0.25702 0.71921 0.0
C3584 C 0.91467 0.2456 0.71247 0.0
C3585 C 0.91355 0.23307 0.71417 0.0
C3586 C 0.92269 0.23194 0.72257 0.0
C3587 C 0.93648 0.22116 0.79462 0.0
C3588 C 0.92924 0.20702 0.79276 0.0
C3589 C 0.94224 0.22959 0.78353 0.0
C3590 C 0.94059 0.2241 0.77037 0.0
C3591 C 0.93295 0.2101 0.76838 0.0
C3592 C 0.92736 0.20165 0.77946 0.0
C3593 C 0.94658 0.23298 0.75859 0.0
C3594 C 0.93787 0.2335 0.74905 0.0
C3595 C 0.96069 0.24126 0.75704 0.0
C3596 C 0.97034 0.24131 0.76702 0.0
C3597 C 0.97007 0.22933 0.77012 0.0
C3598 C 0.97906 0.22945 0.77972 0.0
C3599 C 0.98843 0.24152 0.78622 0.0
C3600 C 0.98886 0.2535 0.78311 0.0
C3601 C 0.97988 0.25343 0.77353 0.0
H3602 H 0.99538 0.24159 0.79365 0.0
H3603 H 0.9076 0.24646 0.70595 0.0
H3604 H 0.71644 0.69891 0.70626 0.0
H3605 H 0.73453 0.70993 0.72326 0.0
H3606 H 0.7335 0.67247 0.72918 0.0
H3607 H 0.71562 0.66143 0.71213 0.0
H3608 H 0.73625 0.70552 0.7501 0.0
H3609 H 0.76523 0.67892 0.73421 0.0
H3610 H 0.76868 0.66835 0.71379 0.0
H3611 H 0.76141 0.69387 0.68832 0.0
H3612 H 0.75809 0.70471 0.70859 0.0
H3613 H 0.78431 0.71164 0.79991 0.0
H3614 H 0.76631 0.70252 0.7827 0.0
H3615 H 0.79353 0.73157 0.75407 0.0
H3616 H 0.81148 0.741 0.77134 0.0
H3617 H 0.7785 0.70453 0.74371 0.0
H3618 H 0.77192 0.73756 0.76707 0.0
H3619 H 0.76873 0.74874 0.78712 0.0
H3620 H 0.73211 0.71219 0.79664 0.0
H3621 H 0.7352 0.70073 0.77676 0.0
C3622 C 0.72004 0.693 0.7112 0.0
C3623 C 0.71466 0.67931 0.70773 0.0
C3624 C 0.73035 0.69931 0.72094 0.0
C3625 C 0.73548 0.69206 0.72734 0.0
C3626 C 0.72985 0.67831 0.72419 0.0
C3627 C 0.7196 0.67201 0.71445 0.0
C3628 C 0.74691 0.6989 0.7371 0.0
C3629 C 0.74549 0.70532 0.7487 0.0
C3630 C 0.75903 0.69876 0.73519 0.0
C3631 C 0.76131 0.69254 0.72292 0.0
C3632 C 0.76444 0.68233 0.72425 0.0
C3633 C 0.76636 0.67628 0.7127 0.0
C3634 C 0.76523 0.68042 0.69976 0.0
C3635 C 0.76224 0.69065 0.69835 0.0
C3636 C 0.76033 0.69674 0.70986 0.0
C3637 C 0.78642 0.71615 0.78999 0.0
C3638 C 0.79926 0.72715 0.78703 0.0
C3639 C 0.77615 0.71093 0.78018 0.0
C3640 C 0.7786 0.71646 0.76718 0.0
C3641 C 0.79146 0.72721 0.76407 0.0
C3642 C 0.80168 0.73258 0.77394 0.0
C3643 C 0.76773 0.71093 0.75678 0.0
C3644 C 0.76926 0.70475 0.74509 0.0
C3645 C 0.75578 0.71138 0.75856 0.0
C3646 C 0.75387 0.71825 0.7705 0.0
C3647 C 0.76325 0.73187 0.77351 0.0
C3648 C 0.76145 0.73827 0.78483 0.0
C3649 C 0.75024 0.73117 0.79317 0.0
C3650 C 0.7408 0.71767 0.79018 0.0
C3651 C 0.74257 0.71122 0.77888 0.0
H3652 H 0.74886 0.73614 0.80192 0.0
H3653 H 0.76669 0.6757 0.69083 0.0
H3654 H 0.67878 0.63754 0.63592 0.0
H3655 H 0.68731 0.62904 0.61786 0.0
H3656 H 0.72722 0.66368 0.62366 0.0
H3657 H 0.71867 0.67243 0.64132 0.0
H3658 H 0.72182 0.65901 0.59779 0.0
H3659 H 0.71727 0.63134 0.63619 0.0
H3660 H 0.70487 0.6156 0.65462 0.0
H3661 H 0.67737 0.58643 0.62542 0.0
H3662 H 0.68951 0.60207 0.60684 0.0
H3663 H 0.76115 0.63797 0.56278 0.0
H3664 H 0.7509 0.64474 0.58049 0.0
H3665 H 0.7125 0.60856 0.57287 0.0
H3666 H 0.72296 0.60131 0.55561 0.0
H3667 H 0.71576 0.61326 0.59891 0.0
H3668 H 0.72069 0.6404 0.56043 0.0
H3669 H 0.73297 0.65602 0.54189 0.0
H3670 H 0.75939 0.68613 0.571 0.0
H3671 H 0.74738 0.67062 0.5897 0.0
C3672 C 0.68937 0.64333 0.63332 0.0
C3673 C 0.69807 0.65563 0.64004 0.0
C3674 C 0.69425 0.63843 0.62305 0.0
C3675 C 0.70795 0.64563 0.61953 0.0
C3676 C 0.71661 0.65795 0.62619 0.0
C3677 C 0.71171 0.66293 0.63631 0.0
C3678 C 0.71336 0.64049 0.6088 0.0
C3679 C 0.72062 0.64905 0.59812 0.0
C3680 C 0.71144 0.62736 0.60898 0.0
C3681 C 0.70422 0.61792 0.62015 0.0
C3682 C 0.70853 0.6216 0.63372 0.0
C3683 C 0.70156 0.61269 0.64418 0.0
C3684 C 0.69032 0.60004 0.64119 0.0
C3685 C 0.68606 0.59624 0.62773 0.0
C3686 C 0.69299 0.60512 0.61722 0.0
C3687 C 0.75058 0.63132 0.565 0.0
C3688 C 0.74289 0.61896 0.55792 0.0
C3689 C 0.74467 0.63529 0.57503 0.0
C3690 C 0.73085 0.62728 0.57786 0.0
C3691 C 0.72318 0.61491 0.57088 0.0
C3692 C 0.72914 0.61079 0.56102 0.0
C3693 C 0.72442 0.63187 0.58802 0.0
C3694 C 0.71692 0.6232 0.59855 0.0
C3695 C 0.72608 0.64491 0.58769 0.0
C3696 C 0.73319 0.65431 0.57646 0.0
C3697 C 0.72916 0.65033 0.56287 0.0
C3698 C 0.73607 0.65916 0.55234 0.0
C3699 C 0.74697 0.67205 0.55527 0.0
C3700 C 0.75095 0.67614 0.56874 0.0
C3701 C 0.74409 0.66734 0.57931 0.0
H3702 H 0.75231 0.67887 0.5471 0.0
H3703 H 0.68493 0.59316 0.64931 0.0
H3704 H 0.36281 0.04671 0.6406 0.0
H3705 H 0.37344 0.06376 0.62303 0.0
H3706 H 0.33632 0.06379 0.61761 0.0
H3707 H 0.32562 0.04679 0.63497 0.0
H3708 H 0.34744 0.06289 0.59342 0.0
H3709 H 0.36242 0.08852 0.63607 0.0
H3710 H 0.37375 0.09431 0.65848 0.0
H3711 H 0.41083 0.10257 0.63973 0.0
H3712 H 0.39966 0.09666 0.61722 0.0
H3713 H 0.36382 0.12198 0.55962 0.0
H3714 H 0.35668 0.10409 0.57607 0.0
H3715 H 0.39767 0.11269 0.57969 0.0
H3716 H 0.40498 0.13111 0.56363 0.0
H3717 H 0.38687 0.1082 0.60377 0.0
H3718 H 0.37326 0.08498 0.56112 0.0
H3719 H 0.36253 0.07896 0.53843 0.0
H3720 H 0.32381 0.06543 0.55642 0.0
H3721 H 0.33432 0.07155 0.57921 0.0
C3722 C 0.35691 0.05033 0.63564 0.0
C3723 C 0.34336 0.0454 0.63923 0.0
C3724 C 0.36301 0.0601 0.62564 0.0
C3725 C 0.35568 0.06509 0.61908 0.0
C3726 C 0.34215 0.06006 0.62253 0.0
C3727 C 0.33607 0.05036 0.63251 0.0
C3728 C 0.36198 0.07561 0.60865 0.0
C3729 C 0.35601 0.07283 0.59569 0.0
C3730 C 0.37347 0.0884 0.61147 0.0
C3731 C 0.38017 0.09201 0.62499 0.0
C3732 C 0.37296 0.09147 0.63674 0.0
C3733 C 0.37936 0.09479 0.64946 0.0
C3734 C 0.39299 0.09876 0.65053 0.0
C3735 C 0.40027 0.09946 0.63888 0.0
C3736 C 0.39391 0.09614 0.62615 0.0
C3737 C 0.37136 0.12022 0.56407 0.0
C3738 C 0.38504 0.12817 0.56057 0.0
C3739 C 0.36723 0.10985 0.57335 0.0
C3740 C 0.3766 0.10689 0.57899 0.0
C3741 C 0.39026 0.11479 0.5755 0.0
C3742 C 0.39443 0.1253 0.56634 0.0
C3743 C 0.37207 0.09562 0.58861 0.0
C3744 C 0.3784 0.09823 0.6014 0.0
C3745 C 0.36099 0.08259 0.58557 0.0
C3746 C 0.3546 0.07881 0.57188 0.0
C3747 C 0.36247 0.0808 0.56023 0.0
C3748 C 0.35642 0.07736 0.54735 0.0
C3749 C 0.3425 0.07184 0.54598 0.0
C3750 C 0.33459 0.06972 0.55749 0.0
C3751 C 0.34059 0.07315 0.5704 0.0
H3752 H 0.33784 0.06919 0.536 0.0
H3753 H 0.39792 0.10133 0.66038 0.0
H3754 H 0.96825 0.29185 0.62759 0.0
H3755 H 0.95061 0.28371 0.60996 0.0
H3756 H 0.9303 0.30033 0.6328 0.0
H3757 H 0.94796 0.30871 0.65027 0.0
H3758 H 0.91338 0.27275 0.62342 0.0
H3759 H 0.94602 0.31661 0.60729 0.0
H3760 H 0.96867 0.33456 0.6005 0.0
H3761 H 0.96935 0.30872 0.56894 0.0
H3762 H 0.94676 0.29052 0.5757 0.0
H3763 H 0.86637 0.26946 0.57492 0.0
H3764 H 0.88454 0.2773 0.59181 0.0
H3765 H 0.90612 0.26481 0.56518 0.0
H3766 H 0.88797 0.25698 0.54823 0.0
H3767 H 0.92268 0.28975 0.57633 0.0
H3768 H 0.88986 0.24608 0.59185 0.0
H3769 H 0.86734 0.22792 0.5987 0.0
H3770 H 0.86706 0.25292 0.6314 0.0
H3771 H 0.88952 0.27132 0.62462 0.0
C3772 C 0.96004 0.29379 0.62881 0.0
C3773 C 0.95948 0.30093 0.64027 0.0
C3774 C 0.95001 0.28917 0.61875 0.0
C3775 C 0.9392 0.29145 0.62012 0.0
C3776 C 0.93857 0.29847 0.6316 0.0
C3777 C 0.9487 0.30329 0.64152 0.0
C3778 C 0.92848 0.28647 0.60963 0.0
C3779 C 0.91535 0.27656 0.61316 0.0
C3780 C 0.9312 0.29124 0.5962 0.0
C3781 C 0.94477 0.30215 0.59211 0.0
C3782 C 0.95106 0.3147 0.599 0.0
C3783 C 0.96387 0.32493 0.59513 0.0
C3784 C 0.97047 0.32276 0.58433 0.0
C3785 C 0.96424 0.31037 0.57733 0.0
C3786 C 0.95143 0.3001 0.58117 0.0
C3787 C 0.87495 0.26832 0.57272 0.0
C3788 C 0.87568 0.26244 0.56035 0.0
C3789 C 0.88531 0.27278 0.58236 0.0
C3790 C 0.8966 0.27148 0.5798 0.0
C3791 C 0.89748 0.26586 0.56737 0.0
C3792 C 0.8871 0.26135 0.55774 0.0
C3793 C 0.9075 0.27605 0.59011 0.0
C3794 C 0.92068 0.28589 0.58657 0.0
C3795 C 0.90483 0.27116 0.60353 0.0
C3796 C 0.89132 0.26013 0.60764 0.0
C3797 C 0.88495 0.24775 0.60043 0.0
C3798 C 0.8722 0.2374 0.60431 0.0
C3799 C 0.86575 0.23928 0.61545 0.0
C3800 C 0.87206 0.25149 0.62276 0.0
C3801 C 0.8848 0.26188 0.6189 0.0
H3802 H 0.85589 0.23125 0.61845 0.0
H3803 H 0.98039 0.3307 0.58134 0.0
H3804 H 0.32742 0.27439 0.64168 0.0
H3805 H 0.33874 0.26808 0.62467 0.0
H3806 H 0.37199 0.30914 0.62422 0.0
H3807 H 0.36087 0.31549 0.6415 0.0
H3808 H 0.34543 0.27516 0.5997 0.0
H3809 H 0.40114 0.30978 0.61752 0.0
H3810 H 0.41392 0.31937 0.6389 0.0
H3811 H 0.38206 0.28719 0.66121 0.0
H3812 H 0.36919 0.27731 0.63996 0.0
H3813 H 0.38951 0.28201 0.54659 0.0
H3814 H 0.37707 0.28513 0.56502 0.0
H3815 H 0.39093 0.26602 0.59267 0.0
H3816 H 0.40402 0.26362 0.57444 0.0
H3817 H 0.39296 0.28656 0.60471 0.0
H3818 H 0.35723 0.25012 0.57972 0.0
H3819 H 0.34352 0.23784 0.55953 0.0
H3820 H 0.33357 0.26859 0.55381 0.0
H3821 H 0.34737 0.28115 0.57385 0.0
C3822 C 0.33717 0.2821 0.63801 0.0
C3823 C 0.34325 0.29546 0.64299 0.0
C3824 C 0.34361 0.27846 0.62825 0.0
C3825 C 0.35627 0.28809 0.62324 0.0
C3826 C 0.36234 0.30147 0.62811 0.0
C3827 C 0.35593 0.30511 0.63795 0.0
C3828 C 0.36299 0.28417 0.61275 0.0
C3829 C 0.35582 0.27762 0.6008 0.0
C3830 C 0.37642 0.28707 0.61432 0.0
C3831 C 0.38415 0.29289 0.62715 0.0
C3832 C 0.39689 0.30473 0.62698 0.0
C3833 C 0.40414 0.31022 0.63908 0.0
C3834 C 0.39878 0.30392 0.65141 0.0
C3835 C 0.38618 0.29209 0.65166 0.0
C3836 C 0.37889 0.28655 0.63959 0.0
C3837 C 0.38976 0.27834 0.55658 0.0
C3838 C 0.39755 0.27237 0.55898 0.0
C3839 C 0.3826 0.28006 0.5671 0.0
C3840 C 0.38282 0.27558 0.58022 0.0
C3841 C 0.39053 0.26952 0.58264 0.0
C3842 C 0.39793 0.26803 0.57216 0.0
C3843 C 0.37549 0.27774 0.59152 0.0
C3844 C 0.38255 0.28401 0.60361 0.0
C3845 C 0.36181 0.27419 0.59026 0.0
C3846 C 0.35342 0.26662 0.57824 0.0
C3847 C 0.35219 0.2543 0.57411 0.0
C3848 C 0.34439 0.24729 0.56269 0.0
C3849 C 0.33769 0.25244 0.55538 0.0
C3850 C 0.33876 0.26461 0.55948 0.0
C3851 C 0.34656 0.27168 0.57087 0.0
H3852 H 0.33166 0.247 0.54654 0.0
H3853 H 0.40441 0.30818 0.66076 0.0
H3854 H 0.71582 0.04339 0.61811 0.0
H3855 H 0.72424 0.06075 0.60076 0.0
H3856 H 0.71509 0.08552 0.62685 0.0
H3857 H 0.70587 0.06782 0.64371 0.0
H3858 H 0.70604 0.08514 0.60377 0.0
H3859 H 0.74889 0.0924 0.6189 0.0
H3860 H 0.7657 0.08597 0.62443 0.0
H3861 H 0.76464 0.07288 0.5831 0.0
H3862 H 0.74769 0.07907 0.57736 0.0
H3863 H 0.7346 0.14206 0.56297 0.0
H3864 H 0.7333 0.12808 0.58199 0.0
H3865 H 0.73436 0.09948 0.55392 0.0
H3866 H 0.73592 0.11359 0.53487 0.0
H3867 H 0.74867 0.10263 0.57807 0.0
H3868 H 0.7049 0.09468 0.56384 0.0
H3869 H 0.68858 0.10184 0.55859 0.0
H3870 H 0.69217 0.11711 0.59943 0.0
H3871 H 0.70869 0.11024 0.60485 0.0
C3872 C 0.71577 0.05263 0.62014 0.0
C3873 C 0.71015 0.05429 0.63215 0.0
C3874 C 0.72067 0.0626 0.61028 0.0
C3875 C 0.72045 0.07457 0.61251 0.0
C3876 C 0.71531 0.07638 0.62482 0.0
C3877 C 0.71007 0.06628 0.63446 0.0
C3878 C 0.72449 0.08474 0.60169 0.0
C3879 C 0.71551 0.08913 0.59839 0.0
C3880 C 0.73666 0.08973 0.59432 0.0
C3881 C 0.74694 0.0861 0.59773 0.0
C3882 C 0.75218 0.08807 0.61101 0.0
C3883 C 0.76175 0.08448 0.61418 0.0
C3884 C 0.76622 0.079 0.60413 0.0
C3885 C 0.76116 0.07712 0.59088 0.0
C3886 C 0.75159 0.08069 0.58766 0.0
C3887 C 0.73492 0.13298 0.5609 0.0
C3888 C 0.73545 0.12894 0.54747 0.0
C3889 C 0.73413 0.12498 0.57175 0.0
C3890 C 0.73361 0.11269 0.56933 0.0
C3891 C 0.73481 0.10896 0.55599 0.0
C3892 C 0.73565 0.11698 0.54514 0.0
C3893 C 0.73033 0.10308 0.58048 0.0
C3894 C 0.73933 0.09872 0.58369 0.0
C3895 C 0.71825 0.09818 0.5879 0.0
C3896 C 0.70811 0.10206 0.58471 0.0
C3897 C 0.70226 0.09964 0.57167 0.0
C3898 C 0.69298 0.10364 0.56867 0.0
C3899 C 0.68936 0.10995 0.57866 0.0
C3900 C 0.69499 0.11224 0.59169 0.0
C3901 C 0.70431 0.10829 0.59474 0.0
H3902 H 0.68218 0.11305 0.57631 0.0
H3903 H 0.77361 0.07621 0.60661 0.0
H3904 H 0.94261 0.67153 0.64108 0.0
H3905 H 0.9262 0.65942 0.6229 0.0
H3906 H 0.93627 0.62818 0.62311 0.0
H3907 H 0.95273 0.64021 0.64138 0.0
H3908 H 0.9357 0.63704 0.59722 0.0
H3909 H 0.90741 0.62159 0.63619 0.0
H3910 H 0.89788 0.62379 0.65787 0.0
H3911 H 0.88249 0.6462 0.63823 0.0
H3912 H 0.89211 0.64432 0.61645 0.0
H3913 H 0.8812 0.59191 0.55408 0.0
H3914 H 0.89534 0.60091 0.57432 0.0
H3915 H 0.88936 0.63487 0.57506 0.0
H3916 H 0.87544 0.62617 0.5545 0.0
H3917 H 0.88737 0.6232 0.60102 0.0
H3918 H 0.91696 0.64002 0.56265 0.0
H3919 H 0.9267 0.63821 0.54095 0.0
H3920 H 0.9398 0.61343 0.55964 0.0
H3921 H 0.92993 0.61492 0.58142 0.0
C3922 C 0.94133 0.66207 0.6373 0.0
C3923 C 0.94899 0.65684 0.64268 0.0
C3924 C 0.9319 0.65513 0.62695 0.0
C3925 C 0.92996 0.64286 0.62175 0.0
C3926 C 0.9376 0.63762 0.62703 0.0
C3927 C 0.94697 0.6445 0.63749 0.0
C3928 C 0.92022 0.63574 0.61051 0.0
C3929 C 0.92508 0.63378 0.59813 0.0
C3930 C 0.90644 0.63179 0.61164 0.0
C3931 C 0.9006 0.63292 0.62471 0.0
C3932 C 0.9021 0.62709 0.63651 0.0
C3933 C 0.89666 0.62826 0.64882 0.0
C3934 C 0.88961 0.63515 0.64943 0.0
C3935 C 0.88796 0.64087 0.63773 0.0
C3936 C 0.8934 0.63975 0.6254 0.0
C3937 C 0.88288 0.60133 0.55838 0.0
C3938 C 0.87747 0.60856 0.5523 0.0
C3939 C 0.89095 0.60642 0.57005 0.0
C3940 C 0.89351 0.61862 0.57605 0.0
C3941 C 0.88755 0.62546 0.57051 0.0
C3942 C 0.87965 0.6205 0.55873 0.0
C3943 C 0.90289 0.62456 0.58777 0.0
C3944 C 0.89796 0.62634 0.60019 0.0
C3945 C 0.91662 0.62837 0.58669 0.0
C3946 C 0.92254 0.62743 0.57361 0.0
C3947 C 0.92178 0.63407 0.5621 0.0
C3948 C 0.92735 0.63312 0.54979 0.0
C3949 C 0.93382 0.62567 0.5489 0.0
C3950 C 0.93476 0.61917 0.56034 0.0
C3951 C 0.92918 0.62006 0.57267 0.0
H3952 H 0.93814 0.62497 0.53937 0.0
H3953 H 0.8854 0.63604 0.65897 0.0
H3954 H 0.95569 0.66455 0.72247 0.0
H3955 H 0.94814 0.67407 0.74044 0.0
H3956 H 0.96046 0.70937 0.71629 0.0
H3957 H 0.96903 0.7003 0.69892 0.0
H3958 H 0.96823 0.71747 0.73968 0.0
H3959 H 0.92526 0.68226 0.72255 0.0
H3960 H 0.90804 0.659 0.71585 0.0
H3961 H 0.90745 0.64603 0.7566 0.0
H3962 H 0.92478 0.66918 0.76351 0.0
H3963 H 0.93924 0.74587 0.78114 0.0
H3964 H 0.94099 0.73334 0.76168 0.0
H3965 H 0.93846 0.70304 0.7886 0.0
H3966 H 0.9365 0.71546 0.80809 0.0
H3967 H 0.92463 0.6922 0.76377 0.0
H3968 H 0.96842 0.72782 0.77999 0.0
H3969 H 0.98495 0.75141 0.78635 0.0
H3970 H 0.98294 0.7638 0.74596 0.0
H3971 H 0.96623 0.7403 0.73942 0.0
C3972 C 0.95669 0.67431 0.72104 0.0
C3973 C 0.96294 0.68175 0.7094 0.0
C3974 C 0.95226 0.67971 0.73123 0.0
C3975 C 0.95347 0.69238 0.72968 0.0
C3976 C 0.95942 0.69961 0.71781 0.0
C3977 C 0.96429 0.69443 0.70787 0.0
C3978 C 0.94938 0.69855 0.74071 0.0
C3979 C 0.95855 0.71195 0.7447 0.0
C3980 C 0.93691 0.69135 0.74763 0.0
C3981 C 0.92639 0.67744 0.74352 0.0
C3982 C 0.92151 0.67443 0.73006 0.0
C3983 C 0.91172 0.66127 0.72623 0.0
C3984 C 0.90668 0.65104 0.73579 0.0
C3985 C 0.91137 0.65396 0.74921 0.0
C3986 C 0.92116 0.66711 0.75309 0.0
C3987 C 0.93871 0.73637 0.78285 0.0
C3988 C 0.93764 0.73157 0.7961 0.0
C3989 C 0.93976 0.72925 0.77176 0.0
C3990 C 0.93997 0.71734 0.77374 0.0
C3991 C 0.93826 0.71219 0.78686 0.0
C3992 C 0.93718 0.71929 0.79797 0.0
C3993 C 0.94337 0.71103 0.76238 0.0
C3994 C 0.93417 0.69764 0.7585 0.0
C3995 C 0.95572 0.71826 0.7554 0.0
C3996 C 0.966 0.73233 0.75925 0.0
C3997 C 0.97145 0.73559 0.77249 0.0
C3998 C 0.98085 0.74894 0.77612 0.0
C3999 C 0.98497 0.7591 0.76657 0.0
C4000 C 0.97973 0.75592 0.75335 0.0
C4001 C 0.9703 0.74259 0.74967 0.0
H4002 H 0.99224 0.76944 0.76941 0.0
H4003 H 0.89912 0.64085 0.7328 0.0
H4004 H 0.33627 0.2858 0.70806 0.0
H4005 H 0.32728 0.26814 0.72506 0.0
H4006 H 0.29313 0.27348 0.73086 0.0
H4007 H 0.30178 0.29071 0.71348 0.0
H4008 H 0.32198 0.26653 0.75061 0.0
H4009 H 0.26524 0.24459 0.73757 0.0
H4010 H 0.25111 0.24206 0.71765 0.0
H4011 H 0.2814 0.24352 0.69103 0.0
H4012 H 0.29561 0.24587 0.71079 0.0
H4013 H 0.28093 0.22578 0.80384 0.0
H4014 H 0.29292 0.24237 0.78628 0.0
H4015 H 0.27692 0.21055 0.75573 0.0
H4016 H 0.2643 0.19408 0.77315 0.0
H4017 H 0.27434 0.22934 0.7469 0.0
H4018 H 0.31154 0.22853 0.76648 0.0
H4019 H 0.32674 0.22941 0.78459 0.0
H4020 H 0.33735 0.26997 0.79499 0.0
H4021 H 0.32207 0.26928 0.77705 0.0
C4022 C 0.32684 0.28321 0.71298 0.0
C4023 C 0.31963 0.28952 0.70933 0.0
C4024 C 0.32174 0.27314 0.72273 0.0
C4025 C 0.30939 0.26928 0.72908 0.0
C4026 C 0.30249 0.276 0.72585 0.0
C4027 C 0.30747 0.2859 0.71595 0.0
C4028 C 0.30358 0.25805 0.73888 0.0
C4029 C 0.31157 0.25837 0.7498 0.0
C4030 C 0.29013 0.24717 0.73761 0.0
C4031 C 0.28153 0.24552 0.72567 0.0
C4032 C 0.26885 0.2443 0.72747 0.0
C4033 C 0.26084 0.24291 0.7162 0.0
C4034 C 0.26537 0.24267 0.70308 0.0
C4035 C 0.27791 0.24375 0.7012 0.0
C4036 C 0.28596 0.24512 0.71243 0.0
C4037 C 0.28014 0.22233 0.79339 0.0
C4038 C 0.27183 0.20861 0.78994 0.0
C4039 C 0.28706 0.23181 0.78335 0.0
C4040 C 0.28603 0.22773 0.76965 0.0
C4041 C 0.27792 0.21398 0.76621 0.0
C4042 C 0.27079 0.20453 0.77622 0.0
C4043 C 0.29265 0.2379 0.75884 0.0
C4044 C 0.28479 0.23741 0.74771 0.0
C4045 C 0.30636 0.24833 0.75967 0.0
C4046 C 0.31557 0.24881 0.77048 0.0
C4047 C 0.31704 0.23761 0.77269 0.0
C4048 C 0.32568 0.23808 0.78292 0.0
C4049 C 0.33298 0.24973 0.79095 0.0
C4050 C 0.33168 0.26095 0.78876 0.0
C4051 C 0.32304 0.26053 0.77855 0.0
H4052 H 0.33967 0.25008 0.79886 0.0
H4053 H 0.25916 0.24161 0.69437 0.0
H4054 H 0.72887 0.02979 0.6903 0.0
H4055 H 0.7452 0.03425 0.70853 0.0
H4056 H 0.7353 0.06208 0.72764 0.0
H4057 H 0.71965 0.05821 0.70917 0.0
H4058 H 0.76058 0.0727 0.72873 0.0
H4059 H 0.72359 0.02829 0.73888 0.0
H4060 H 0.70716 0.00425 0.73428 0.0
H4061 H 0.73957 0.99666 0.72764 0.0
H4062 H 0.75619 0.0207 0.73205 0.0
H4063 H 0.78008 0.07359 0.79743 0.0
H4064 H 0.76736 0.06958 0.77624 0.0
H4065 H 0.78895 0.05193 0.75791 0.0
H4066 H 0.80194 0.05619 0.77901 0.0
H4067 H 0.76004 0.03615 0.75501 0.0
H4068 H 0.79679 0.08118 0.74791 0.0
H4069 H 0.81215 0.10509 0.75411 0.0
H4070 H 0.7785 0.11131 0.75674 0.0
H4071 H 0.76291 0.08737 0.75077 0.0
C4072 C 0.7302 0.03683 0.69843 0.0
C4073 C 0.72303 0.04368 0.69831 0.0
C4074 C 0.73948 0.03933 0.70887 0.0
C4075 C 0.74142 0.04842 0.71958 0.0
C4076 C 0.7341 0.05511 0.71948 0.0
C4077 C 0.72511 0.05286 0.70893 0.0
C4078 C 0.7511 0.05118 0.73089 0.0
C4079 C 0.76033 0.06467 0.73453 0.0
C4080 C 0.7511 0.04075 0.73829 0.0
C4081 C 0.74112 0.02631 0.73563 0.0
C4082 C 0.72721 0.02151 0.73633 0.0
C4083 C 0.71786 0.00788 0.73378 0.0
C4084 C 0.72232 0.99894 0.73062 0.0
C4085 C 0.73614 0.0036 0.73005 0.0
C4086 C 0.74552 0.01722 0.73259 0.0
C4087 C 0.78218 0.06894 0.78885 0.0
C4088 C 0.7919 0.06508 0.78989 0.0
C4089 C 0.77493 0.06667 0.77677 0.0
C4090 C 0.77723 0.06045 0.76555 0.0
C4091 C 0.78701 0.05669 0.76649 0.0
C4092 C 0.7944 0.05913 0.77852 0.0
C4093 C 0.76914 0.05759 0.75297 0.0
C4094 C 0.76029 0.04412 0.74909 0.0
C4095 C 0.76929 0.06801 0.74551 0.0
C4096 C 0.77867 0.08245 0.74899 0.0
C4097 C 0.79265 0.08762 0.74992 0.0
C4098 C 0.80141 0.10118 0.75337 0.0
C4099 C 0.7963 0.10971 0.75584 0.0
C4100 C 0.78244 0.10469 0.75483 0.0
C4101 C 0.77364 0.09113 0.7514 0.0
H4102 H 0.80309 0.12021 0.75852 0.0
H4103 H 0.71508 0.98839 0.72865 0.0
H4104 H 0.04408 0.33119 0.01183 0.0
H4105 H 0.0583 0.32404 0.02324 0.0
H4106 H 0.03667 0.31907 0.06054 0.0
H4107 H 0.02222 0.3258 0.04916 0.0
H4108 H 0.06713 0.33323 0.06229 0.0
H4109 H 0.02704 0.29264 0.04524 0.0
H4110 H 0.01093 0.27866 0.02714 0.0
H4111 H 0.04311 0.27947 0.00424 0.0
H4112 H 0.05945 0.29365 0.02215 0.0
H4113 H 0.08639 0.29358 0.10933 0.0
H4114 H 0.07483 0.30663 0.09427 0.0
H4115 H 0.0799 0.28698 0.05027 0.0
H4116 H 0.09134 0.27329 0.06424 0.0
H4117 H 0.05957 0.28802 0.04989 0.0
H4118 H 0.09988 0.32733 0.06591 0.0
H4119 H 0.11722 0.34243 0.08259 0.0
H4120 H 0.08724 0.34582 0.10541 0.0
H4121 H 0.06969 0.33061 0.08894 0.0
C4122 C 0.04245 0.32868 0.02249 0.0
C4123 C 0.032 0.32895 0.0296 0.0
C4124 C 0.05056 0.32461 0.02897 0.0
C4125 C 0.0485 0.32105 0.04271 0.0
C4126 C 0.03843 0.32183 0.04995 0.0
C4127 C 0.03015 0.3256 0.04341 0.0
C4128 C 0.05622 0.31566 0.04937 0.0
C4129 C 0.0655 0.32332 0.05968 0.0
C4130 C 0.05431 0.30293 0.04563 0.0
C4131 C 0.04448 0.29434 0.03494 0.0
C4132 C 0.0307 0.28995 0.03628 0.0
C4133 C 0.02152 0.28196 0.02607 0.0
C4134 C 0.026 0.27821 0.01452 0.0
C4135 C 0.03966 0.28241 0.01318 0.0
C4136 C 0.04888 0.29041 0.02336 0.0
C4137 C 0.08481 0.29209 0.09846 0.0
C4138 C 0.09238 0.28405 0.08798 0.0
C4139 C 0.07838 0.3008 0.08887 0.0
C4140 C 0.07712 0.29921 0.0705 0.0
C4141 C 0.08129 0.28815 0.06117 0.0
C4142 C 0.08777 0.27901 0.06984 0.0
C4143 C 0.07076 0.30559 0.06294 0.0
C4144 C 0.06158 0.29806 0.05246 0.0
C4145 C 0.07298 0.31856 0.06637 0.0
C4146 C 0.08346 0.32767 0.07631 0.0
C4147 C 0.09698 0.33122 0.07455 0.0
C4148 C 0.10684 0.33982 0.08395 0.0
C4149 C 0.10333 0.34504 0.09509 0.0
C4150 C 0.08994 0.34174 0.09681 0.0
C4151 C 0.08004 0.33314 0.08743 0.0
H4152 H 0.11098 0.35169 0.10236 0.0
H4153 H 0.01888 0.27203 0.00663 0.0
H4154 H 0.6822 0.69934 0.03251 0.0
H4155 H 0.69378 0.71992 0.04643 0.0
H4156 H 0.65673 0.70831 0.06774 0.0
H4157 H 0.64495 0.68799 0.0534 0.0
H4158 H 0.66793 0.73321 0.06172 0.0
H4159 H 0.68438 0.70679 0.08205 0.0
H4160 H 0.69501 0.69288 0.08258 0.0
H4161 H 0.7316 0.72563 0.06667 0.0
H4162 H 0.72113 0.73968 0.06588 0.0
H4163 H 0.69576 0.78718 0.11811 0.0
H4164 H 0.68301 0.76204 0.10272 0.0
H4165 H 0.72639 0.77454 0.07926 0.0
H4166 H 0.74032 0.80005 0.09399 0.0
H4167 H 0.71146 0.74853 0.08546 0.0
H4168 H 0.69345 0.77256 0.0609 0.0
H4169 H 0.68291 0.78653 0.05932 0.0
H4170 H 0.64952 0.75802 0.08314 0.0
H4171 H 0.6599 0.7439 0.08484 0.0
C4172 C 0.67654 0.70115 0.04021 0.0
C4173 C 0.66266 0.69207 0.04187 0.0
C4174 C 0.6832 0.71288 0.04824 0.0
C4175 C 0.6762 0.71558 0.05831 0.0
C4176 C 0.66236 0.70645 0.06005 0.0
C4177 C 0.65563 0.69484 0.05185 0.0
C4178 C 0.68311 0.72824 0.06658 0.0
C4179 C 0.67731 0.73638 0.06713 0.0
C4180 C 0.6956 0.73267 0.07329 0.0
C4181 C 0.70192 0.72424 0.07379 0.0
C4182 C 0.69466 0.71099 0.07857 0.0
C4183 C 0.70066 0.70309 0.07893 0.0
C4184 C 0.71396 0.70836 0.07463 0.0
C4185 C 0.7213 0.72155 0.06999 0.0
C4186 C 0.71534 0.7295 0.06959 0.0
C4187 C 0.70152 0.78462 0.11128 0.0
C4188 C 0.71885 0.79733 0.10577 0.0
C4189 C 0.69354 0.76934 0.10115 0.0
C4190 C 0.70303 0.766 0.08863 0.0
C4191 C 0.72096 0.77717 0.08646 0.0
C4192 C 0.72989 0.79275 0.09608 0.0
C4193 C 0.69617 0.7533 0.08065 0.0
C4194 C 0.70203 0.74523 0.08011 0.0
C4195 C 0.68371 0.74886 0.07401 0.0
C4196 C 0.67755 0.75735 0.0732 0.0
C4197 C 0.68389 0.76933 0.06585 0.0
C4198 C 0.67794 0.77725 0.06491 0.0
C4199 C 0.66559 0.7732 0.07119 0.0
C4200 C 0.65912 0.76118 0.07834 0.0
C4201 C 0.66502 0.75321 0.07928 0.0
H4202 H 0.66101 0.77936 0.07048 0.0
H4203 H 0.71859 0.70222 0.07492 0.0
H4204 H 0.30336 0.95007 0.02733 0.0
H4205 H 0.28282 0.94065 0.04088 0.0
H4206 H 0.28459 0.97892 0.04069 0.0
H4207 H 0.30526 0.9885 0.02738 0.0
H4208 H 0.27863 0.96827 0.06552 0.0
H4209 H 0.26266 0.95279 0.01985 0.0
H4210 H 0.26156 0.94168 0.99784 0.0
H4211 H 0.249 0.90444 0.01801 0.0
H4212 H 0.2502 0.91538 0.04016 0.0
H4213 H 0.21117 0.94494 0.08689 0.0
H4214 H 0.23271 0.95501 0.07488 0.0
H4215 H 0.23001 0.9163 0.07302 0.0
H4216 H 0.20829 0.90613 0.08449 0.0
H4217 H 0.23671 0.9274 0.04945 0.0
H4218 H 0.25232 0.94267 0.09517 0.0
H4219 H 0.25359 0.95377 0.11722 0.0
H4220 H 0.2669 0.99125 0.09726 0.0
H4221 H 0.26554 0.98034 0.07506 0.0
C4222 C 0.29936 0.95648 0.03013 0.0
C4223 C 0.30591 0.97002 0.0262 0.0
C4224 C 0.28761 0.95107 0.03786 0.0
C4225 C 0.2821 0.95905 0.04166 0.0
C4226 C 0.28868 0.97259 0.03786 0.0
C4227 C 0.30046 0.97803 0.0302 0.0
C4228 C 0.26941 0.95326 0.04952 0.0
C4229 C 0.26941 0.95942 0.06195 0.0
C4230 C 0.25748 0.94156 0.04499 0.0
C4231 C 0.25664 0.93494 0.03166 0.0
C4232 C 0.25975 0.94225 0.01959 0.0
C4233 C 0.25909 0.93598 0.0071 0.0
C4234 C 0.25524 0.92237 0.00653 0.0
C4235 C 0.25199 0.91499 0.01846 0.0
C4236 C 0.25265 0.92121 0.03099 0.0
C4237 C 0.21531 0.93866 0.08408 0.0
C4238 C 0.20822 0.92484 0.08695 0.0
C4239 C 0.22762 0.94441 0.07726 0.0
C4240 C 0.23311 0.93646 0.07326 0.0
C4241 C 0.22602 0.92265 0.07609 0.0
C4242 C 0.21366 0.91688 0.08275 0.0
C4243 C 0.2459 0.94234 0.06554 0.0
C4244 C 0.24592 0.93622 0.05309 0.0
C4245 C 0.25784 0.95406 0.07008 0.0
C4246 C 0.25871 0.96065 0.08343 0.0
C4247 C 0.25542 0.95326 0.09547 0.0
C4248 C 0.25618 0.95952 0.108 0.0
C4249 C 0.26029 0.9732 0.10864 0.0
C4250 C 0.26369 0.98065 0.09675 0.0
C4251 C 0.26295 0.97444 0.08419 0.0
H4252 H 0.26086 0.97803 0.11834 0.0
H4253 H 0.25474 0.91753 0.99685 0.0
H4254 H 0.35222 0.04934 0.98617 0.0
H4255 H 0.34459 0.06261 0.97395 0.0
H4256 H 0.30317 0.03124 0.97972 0.0
H4257 H 0.31078 0.01774 0.99129 0.0
H4258 H 0.30638 0.03832 0.95478 0.0
H4259 H 0.31977 0.06332 0.99777 0.0
H4260 H 0.33584 0.07634 0.01629 0.0
H4261 H 0.3624 0.10566 0.98774 0.0
H4262 H 0.34654 0.09273 0.96903 0.0
H4263 H 0.27025 0.07049 0.9389 0.0
H4264 H 0.2809 0.05935 0.9498 0.0
H4265 H 0.3202 0.09306 0.94045 0.0
H4266 H 0.30955 0.10448 0.93001 0.0
H4267 H 0.32014 0.08584 0.96537 0.0
H4268 H 0.30629 0.06204 0.92274 0.0
H4269 H 0.2906 0.04917 0.90392 0.0
H4270 H 0.26542 0.01768 0.93128 0.0
H4271 H 0.28086 0.03043 0.95031 0.0
C4272 C 0.34149 0.0454 0.98499 0.0
C4273 C 0.33208 0.03253 0.98966 0.0
C4274 C 0.33713 0.053 0.97802 0.0
C4275 C 0.32328 0.04798 0.97597 0.0
C4276 C 0.3139 0.03531 0.98109 0.0
C4277 C 0.31825 0.02762 0.98776 0.0
C4278 C 0.3184 0.05551 0.96796 0.0
C4279 C 0.30927 0.04867 0.95723 0.0
C4280 C 0.32258 0.06918 0.97073 0.0
C4281 C 0.33203 0.077 0.982 0.0
C4282 C 0.32907 0.0725 0.99544 0.0
C4283 C 0.33814 0.07987 0.00597 0.0
C4284 C 0.35015 0.0918 0.00319 0.0
C4285 C 0.3531 0.09641 0.98988 0.0
C4286 C 0.34407 0.08907 0.97931 0.0
C4287 C 0.28115 0.07542 0.939 0.0
C4288 C 0.28904 0.08817 0.93325 0.0
C4289 C 0.28724 0.06905 0.9452 0.0
C4290 C 0.30136 0.07523 0.94568 0.0
C4291 C 0.30929 0.08804 0.94008 0.0
C4292 C 0.30319 0.0945 0.93401 0.0
C4293 C 0.30779 0.0685 0.9525 0.0
C4294 C 0.31728 0.07551 0.96291 0.0
C4295 C 0.30398 0.05497 0.94942 0.0
C4296 C 0.29469 0.04725 0.93797 0.0
C4297 C 0.29736 0.05241 0.92476 0.0
C4298 C 0.28851 0.04513 0.91405 0.0
C4299 C 0.277 0.03263 0.91641 0.0
C4300 C 0.27433 0.02736 0.92947 0.0
C4301 C 0.28314 0.03461 0.94022 0.0
H4302 H 0.27017 0.02701 0.90811 0.0
H4303 H 0.35716 0.09749 0.01135 0.0
H4304 H 0.94799 0.29384 0.98864 0.0
H4305 H 0.9391 0.2742 0.97347 0.0
H4306 H 0.97745 0.27603 0.97464 0.0
H4307 H 0.98654 0.29593 0.98962 0.0
H4308 H 0.96924 0.27402 0.94934 0.0
H4309 H 0.94931 0.25035 0.98982 0.0
H4310 H 0.93656 0.24498 0.01121 0.0
H4311 H 0.90099 0.23701 0.98926 0.0
H4312 H 0.91358 0.24253 0.96774 0.0
H4313 H 0.94459 0.20709 0.90858 0.0
H4314 H 0.95642 0.22939 0.92796 0.0
H4315 H 0.91446 0.23219 0.92809 0.0
H4316 H 0.90151 0.21009 0.90857 0.0
H4317 H 0.92546 0.23151 0.95459 0.0
H4318 H 0.94612 0.25603 0.91432 0.0
H4319 H 0.95909 0.26126 0.89308 0.0
H4320 H 0.99375 0.26704 0.91528 0.0
H4321 H 0.98092 0.26165 0.93665 0.0
C4322 C 0.95448 0.28995 0.98588 0.0
C4323 C 0.968 0.29651 0.99031 0.0
C4324 C 0.94936 0.27867 0.97723 0.0
C4325 C 0.95759 0.27359 0.97296 0.0
C4326 C 0.97093 0.2798 0.97778 0.0
C4327 C 0.97609 0.29113 0.98639 0.0
C4328 C 0.95252 0.26245 0.96272 0.0
C4329 C 0.95982 0.26459 0.95064 0.0
C4330 C 0.94007 0.25029 0.96426 0.0
C4331 C 0.93243 0.24697 0.97718 0.0
C4332 C 0.9388 0.24756 0.98956 0.0
C4333 C 0.9316 0.24447 0.00171 0.0
C4334 C 0.91798 0.24068 0.0016 0.0
C4335 C 0.91154 0.23996 0.98933 0.0
C4336 C 0.9187 0.24305 0.97715 0.0
C4337 C 0.93929 0.21221 0.91161 0.0
C4338 C 0.92089 0.2047 0.90842 0.0
C4339 C 0.9463 0.22565 0.92413 0.0
C4340 C 0.93647 0.23266 0.93064 0.0
C4341 C 0.9198 0.22738 0.92425 0.0
C4342 C 0.91188 0.21405 0.9117 0.0
C4343 C 0.94219 0.24314 0.94136 0.0
C4344 C 0.93497 0.24088 0.95345 0.0
C4345 C 0.95478 0.25509 0.93991 0.0
C4346 C 0.9625 0.25826 0.92707 0.0
C4347 C 0.95646 0.25827 0.91466 0.0
C4348 C 0.9638 0.2613 0.9026 0.0
C4349 C 0.97722 0.26443 0.90282 0.0
C4350 C 0.98334 0.26458 0.91512 0.0
C4351 C 0.97605 0.26155 0.92721 0.0
H4352 H 0.98289 0.26678 0.89348 0.0
H4353 H 0.91242 0.23829 0.01101 0.0
H4354 H 0.69681 0.68748 0.98285 0.0
H4355 H 0.71796 0.6952 0.97074 0.0
H4356 H 0.72273 0.66441 0.9896 0.0
H4357 H 0.70146 0.65654 0.00177 0.0
H4358 H 0.74705 0.69031 0.98846 0.0
H4359 H 0.71067 0.65836 0.95914 0.0
H4360 H 0.68906 0.64925 0.94679 0.0
H4361 H 0.70495 0.68597 0.92466 0.0
H4362 H 0.72661 0.69537 0.93704 0.0
H4363 H 0.78904 0.68064 0.94232 0.0
H4364 H 0.77201 0.67956 0.95795 0.0
H4365 H 0.76842 0.70861 0.93411 0.0
H4366 H 0.78556 0.70979 0.91845 0.0
H4367 H 0.74428 0.68601 0.93814 0.0
H4368 H 0.78127 0.71736 0.96532 0.0
H4369 H 0.80298 0.72715 0.97758 0.0
H4370 H 0.78655 0.69293 0.00357 0.0
H4371 H 0.76478 0.68281 0.99133 0.0
C4372 C 0.70239 0.68239 0.98452 0.0
C4373 C 0.69742 0.67132 0.99319 0.0
C4374 C 0.71447 0.68683 0.97759 0.0
C4375 C 0.72183 0.68031 0.97923 0.0
C4376 C 0.71717 0.66957 0.98823 0.0
C4377 C 0.70501 0.66504 0.99511 0.0
C4378 C 0.73396 0.68423 0.97093 0.0
C4379 C 0.74648 0.68926 0.97746 0.0
C4380 C 0.7332 0.68327 0.95658 0.0
C4381 C 0.72019 0.67763 0.94913 0.0
C4382 C 0.70951 0.66454 0.95173 0.0
C4383 C 0.69726 0.65931 0.94471 0.0
C4384 C 0.69562 0.66704 0.93498 0.0
C4385 C 0.70623 0.68 0.93222 0.0
C4386 C 0.71849 0.68528 0.93923 0.0
C4387 C 0.78484 0.68702 0.94059 0.0
C4388 C 0.78866 0.69535 0.92921 0.0
C4389 C 0.77514 0.68643 0.94954 0.0
C4390 C 0.76902 0.69406 0.94723 0.0
C4391 C 0.77307 0.70267 0.93609 0.0
C4392 C 0.78286 0.70336 0.92719 0.0
C4393 C 0.75744 0.69196 0.95563 0.0
C4394 C 0.74496 0.68722 0.94912 0.0
C4395 C 0.75829 0.69329 0.96997 0.0
C4396 C 0.77141 0.69925 0.9773 0.0
C4397 C 0.78232 0.71184 0.97355 0.0
C4398 C 0.79463 0.71747 0.98052 0.0
C4399 C 0.79615 0.71065 0.99132 0.0
C4400 C 0.78536 0.69819 0.99519 0.0
C4401 C 0.77302 0.69251 0.98824 0.0
H4402 H 0.80569 0.71504 0.99672 0.0
H4403 H 0.68613 0.66298 0.92955 0.0
H4404 H 0.94633 0.6505 0.98847 0.0
H4405 H 0.93819 0.66286 0.97548 0.0
H4406 H 0.97766 0.69863 0.97813 0.0
H4407 H 0.98585 0.68644 0.99123 0.0
H4408 H 0.95861 0.70438 0.98397 0.0
H4409 H 0.96667 0.68086 0.94858 0.0
H4410 H 0.96534 0.66135 0.93641 0.0
H4411 H 0.92235 0.64301 0.93275 0.0
H4412 H 0.92339 0.66234 0.94509 0.0
H4413 H 0.94353 0.74136 0.93794 0.0
H4414 H 0.95408 0.72868 0.94547 0.0
H4415 H 0.91474 0.69345 0.95062 0.0
H4416 H 0.90415 0.70613 0.94338 0.0
H4417 H 0.93513 0.6882 0.93941 0.0
H4418 H 0.92776 0.71166 0.97681 0.0
H4419 H 0.9299 0.73186 0.98822 0.0
H4420 H 0.97309 0.75103 0.98724 0.0
H4421 H 0.97119 0.731 0.97557 0.0
C4422 C 0.95328 0.661 0.98629 0.0
C4423 C 0.96674 0.66748 0.99091 0.0
C4424 C 0.94864 0.66802 0.97878 0.0
C4425 C 0.95736 0.68163 0.9757 0.0
C4426 C 0.97076 0.68813 0.98036 0.0
C4427 C 0.97542 0.68113 0.98784 0.0
C4428 C 0.95237 0.68922 0.96807 0.0
C4429 C 0.95369 0.70095 0.97412 0.0
C4430 C 0.9458 0.68467 0.95529 0.0
C4431 C 0.9451 0.67299 0.94789 0.0
C4432 C 0.95691 0.67261 0.9453 0.0
C4433 C 0.95622 0.6616 0.93834 0.0
C4434 C 0.94376 0.65093 0.93384 0.0
C4435 C 0.93199 0.65128 0.93626 0.0
C4436 C 0.93263 0.66226 0.94323 0.0
C4437 C 0.93716 0.73087 0.94051 0.0
C4438 C 0.92303 0.72479 0.94032 0.0
C4439 C 0.94318 0.72364 0.94476 0.0
C4440 C 0.93516 0.71019 0.94871 0.0
C4441 C 0.92108 0.70383 0.9476 0.0
C4442 C 0.91506 0.71109 0.94353 0.0
C4443 C 0.94133 0.70322 0.95538 0.0
C4444 C 0.94019 0.69164 0.94919 0.0
C4445 C 0.94819 0.70795 0.96798 0.0
C4446 C 0.94934 0.7199 0.97518 0.0
C4447 C 0.93772 0.72022 0.97892 0.0
C4448 C 0.93888 0.73164 0.98544 0.0
C4449 C 0.95162 0.74274 0.98842 0.0
C4450 C 0.96323 0.74243 0.9849 0.0
C4451 C 0.96211 0.73105 0.97833 0.0
H4452 H 0.95251 0.75157 0.99347 0.0
H4453 H 0.94324 0.64241 0.92846 0.0
H4454 H 0.31427 0.30601 0.99038 0.0
H4455 H 0.30368 0.28397 0.9789 0.0
H4456 H 0.34259 0.2922 0.96484 0.0
H4457 H 0.35338 0.3142 0.97674 0.0
H4458 H 0.31022 0.28333 0.94753 0.0
H4459 H 0.34053 0.27133 0.97301 0.0
H4460 H 0.35068 0.2702 0.99464 0.0
H4461 H 0.31139 0.24897 0.01267 0.0
H4462 H 0.30107 0.25019 0.99116 0.0
H4463 H 0.28829 0.22414 0.90827 0.0
H4464 H 0.30221 0.24478 0.92146 0.0
H4465 H 0.27881 0.22592 0.95721 0.0
H4466 H 0.26519 0.20489 0.94411 0.0
H4467 H 0.30473 0.24035 0.96379 0.0
H4468 H 0.27394 0.24817 0.93833 0.0
H4469 H 0.26226 0.24905 0.91775 0.0
H4470 H 0.30022 0.27829 0.90071 0.0
H4471 H 0.31214 0.27745 0.92112 0.0
C4472 C 0.32061 0.30304 0.98504 0.0
C4473 C 0.33464 0.3118 0.98441 0.0
C4474 C 0.31455 0.29045 0.97854 0.0
C4475 C 0.32239 0.28645 0.97121 0.0
C4476 C 0.33644 0.29503 0.97073 0.0
C4477 C 0.34256 0.30758 0.97746 0.0
C4478 C 0.31556 0.27389 0.96299 0.0
C4479 C 0.30922 0.27396 0.95089 0.0
C4480 C 0.31392 0.26167 0.9677 0.0
C4481 C 0.32009 0.26105 0.9806 0.0
C4482 C 0.3341 0.2666 0.98165 0.0
C4483 C 0.33987 0.2659 0.99386 0.0
C4484 C 0.33169 0.25957 0.00504 0.0
C4485 C 0.31772 0.25391 0.00402 0.0
C4486 C 0.31191 0.25461 0.99183 0.0
C4487 C 0.28621 0.22432 0.91898 0.0
C4488 C 0.27582 0.21281 0.92525 0.0
C4489 C 0.2941 0.23617 0.92649 0.0
C4490 C 0.29149 0.23693 0.9403 0.0
C4491 C 0.28105 0.22552 0.94658 0.0
C4492 C 0.27325 0.21356 0.9391 0.0
C4493 C 0.2995 0.24975 0.94808 0.0
C4494 C 0.3059 0.24972 0.96021 0.0
C4495 C 0.3011 0.26203 0.94343 0.0
C4496 C 0.29394 0.26265 0.9312 0.0
C4497 C 0.2798 0.25472 0.93015 0.0
C4498 C 0.27314 0.25523 0.91853 0.0
C4499 C 0.2805 0.2637 0.90791 0.0
C4500 C 0.29453 0.27172 0.90893 0.0
C4501 C 0.30125 0.27125 0.92053 0.0
H4502 H 0.27532 0.26407 0.89892 0.0
H4503 H 0.33617 0.25902 0.01448 0.0
H4504 H 0.69834 0.01357 0.98794 0.0
H4505 H 0.71935 0.02286 0.97536 0.0
H4506 H 0.72627 0.06299 0.9819 0.0
H4507 H 0.705 0.05372 0.99432 0.0
H4508 H 0.73211 0.05957 0.95621 0.0
H4509 H 0.74311 0.05139 0.00066 0.0
H4510 H 0.74052 0.038 0.02091 0.0
H4511 H 0.74643 0.01024 0.99649 0.0
H4512 H 0.74888 0.02337 0.97605 0.0
H4513 H 0.80334 0.09606 0.94502 0.0
H4514 H 0.78044 0.08603 0.954 0.0
H4515 H 0.77286 0.04642 0.94284 0.0
H4516 H 0.79571 0.05645 0.93357 0.0
H4517 H 0.76709 0.04909 0.9701 0.0
H4518 H 0.75726 0.05815 0.92578 0.0
H4519 H 0.76022 0.07189 0.90575 0.0
H4520 H 0.75257 0.09848 0.93015 0.0
H4521 H 0.74977 0.08501 0.9504 0.0
C4522 C 0.70431 0.02438 0.98675 0.0
C4523 C 0.70002 0.03291 0.99224 0.0
C4524 C 0.71635 0.02968 0.97956 0.0
C4525 C 0.72448 0.04363 0.97784 0.0
C4526 C 0.72016 0.05218 0.98313 0.0
C4527 C 0.70804 0.04688 0.99027 0.0
C4528 C 0.73753 0.04926 0.97063 0.0
C4529 C 0.73983 0.05743 0.95935 0.0
C4530 C 0.74748 0.04618 0.97453 0.0
C4531 C 0.74604 0.03829 0.98681 0.0
C4532 C 0.74376 0.04237 -0.00041 0.0
C4533 C 0.74233 0.03484 0.0111 0.0
C4534 C 0.74327 0.02326 0.00998 0.0
C4535 C 0.74568 0.0192 0.99734 0.0
C4536 C 0.7471 0.02669 0.98579 0.0
C4537 C 0.79673 0.08523 0.94432 0.0
C4538 C 0.80134 0.07701 0.93876 0.0
C4539 C 0.78366 0.07952 0.94941 0.0
C4540 C 0.77499 0.06549 0.94909 0.0
C4541 C 0.77943 0.05727 0.9432 0.0
C4542 C 0.79245 0.06299 0.93794 0.0
C4543 C 0.76166 0.05941 0.95572 0.0
C4544 C 0.75933 0.05118 0.96693 0.0
C4545 C 0.75175 0.06249 0.95179 0.0
C4546 C 0.75345 0.07064 0.93965 0.0
C4547 C 0.75634 0.067 0.92691 0.0
C4548 C 0.75796 0.07473 0.91551 0.0
C4549 C 0.75662 0.08608 0.91669 0.0
C4550 C 0.75362 0.0897 0.92926 0.0
C4551 C 0.75201 0.08202 0.9407 0.0
H4552 H 0.75787 0.09204 0.90784 0.0
H4553 H 0.74217 0.01744 0.0189 0.0
H4554 H 0.66507 0.95579 0.01579 0.0
H4555 H 0.67429 0.94305 0.02645 0.0
H4556 H 0.69207 0.97341 0.05834 0.0
H4557 H 0.68336 0.98626 0.04759 0.0
H4558 H 0.70988 0.96807 0.04928 0.0
H4559 H 0.66338 0.9413 0.06294 0.0
H4560 H 0.63878 0.92744 0.05928 0.0
H4561 H 0.64403 0.89891 0.03547 0.0
H4562 H 0.66869 0.91269 0.03885 0.0
H4563 H 0.73142 0.9374 0.09531 0.0
H4564 H 0.71784 0.94607 0.08572 0.0
H4565 H 0.70355 0.91546 0.05402 0.0
H4566 H 0.71676 0.90645 0.06388 0.0
H4567 H 0.6837 0.92 0.06204 0.0
H4568 H 0.73026 0.9469 0.04877 0.0
H4569 H 0.75478 0.96064 0.05298 0.0
H4570 H 0.74918 0.98915 0.07643 0.0
H4571 H 0.72459 0.97545 0.07254 0.0
C4572 C 0.67089 0.95966 0.02511 0.0
C4573 C 0.67359 0.97207 0.03079 0.0
C4574 C 0.67609 0.95236 0.03123 0.0
C4575 C 0.68385 0.95725 0.04325 0.0
C4576 C 0.68621 0.96947 0.04904 0.0
C4577 C 0.68121 0.97681 0.04287 0.0
C4578 C 0.69015 0.95017 0.04956 0.0
C4579 C 0.70409 0.9576 0.05222 0.0
C4580 C 0.68271 0.9364 0.05305 0.0
C4581 C 0.66789 0.9281 0.05103 0.0
C4582 C 0.6593 0.93213 0.05683 0.0
C4583 C 0.64534 0.92427 0.05483 0.0
C4584 C 0.63985 0.91232 0.04711 0.0
C4585 C 0.6483 0.90818 0.04142 0.0
C4586 C 0.66227 0.916 0.04339 0.0
C4587 C 0.72512 0.93231 0.08651 0.0
C4588 C 0.72502 0.92114 0.08042 0.0
C4589 C 0.71744 0.93733 0.08098 0.0
C4590 C 0.70984 0.93153 0.06903 0.0
C4591 C 0.70932 0.92008 0.06324 0.0
C4592 C 0.71687 0.91495 0.06886 0.0
C4593 C 0.70331 0.93803 0.06202 0.0
C4594 C 0.68942 0.93048 0.05912 0.0
C4595 C 0.71076 0.95173 0.05832 0.0
C4596 C 0.72558 0.9601 0.06045 0.0
C4597 C 0.73425 0.95606 0.05488 0.0
C4598 C 0.74816 0.96384 0.05721 0.0
C4599 C 0.75353 0.97575 0.06498 0.0
C4600 C 0.74501 0.97992 0.07042 0.0
C4601 C 0.73108 0.97216 0.06814 0.0
H4602 H 0.76431 0.98175 0.06679 0.0
H4603 H 0.62904 0.90625 0.04557 0.0
H4604 H 0.00823 0.70183 0.0423 0.0
H4605 H 0.02103 0.72425 0.05265 0.0
H4606 H 0.05751 0.72963 0.03446 0.0
H4607 H 0.0447 0.70695 0.02406 0.0
H4608 H 0.06097 0.73879 0.06173 0.0
H4609 H 0.04241 0.74413 0.02024 0.0
H4610 H 0.02433 0.73881 0.00358 0.0
H4611 H 0.00301 0.74814 0.03355 0.0
H4612 H 0.02088 0.75333 0.05045 0.0
H4613 H 0.09858 0.81075 0.06868 0.0
H4614 H 0.08741 0.78709 0.06127 0.0
H4615 H 0.04958 0.78082 0.07667 0.0
H4616 H 0.06073 0.80453 0.08405 0.0
H4617 H 0.04728 0.77199 0.0508 0.0
H4618 H 0.06555 0.76698 0.09223 0.0
H4619 H 0.08313 0.77192 0.10937 0.0
H4620 H 0.10456 0.76181 0.08029 0.0
H4621 H 0.08721 0.75701 0.06289 0.0
C4622 C 0.01898 0.70773 0.04048 0.0
C4623 C 0.02544 0.70265 0.03225 0.0
C4624 C 0.02628 0.72056 0.04642 0.0
C4625 C 0.04017 0.72865 0.04419 0.0
C4626 C 0.04677 0.72353 0.03626 0.0
C4627 C 0.03944 0.71062 0.03028 0.0
C4628 C 0.0476 0.74258 0.04987 0.0
C4629 C 0.05815 0.74615 0.05919 0.0
C4630 C 0.04364 0.75201 0.04683 0.0
C4631 C 0.03293 0.74901 0.03664 0.0
C4632 C 0.03382 0.74496 0.0233 0.0
C4633 C 0.02362 0.74198 0.01381 0.0
C4634 C 0.01251 0.74311 0.01751 0.0
C4635 C 0.01161 0.74726 0.0307 0.0
C4636 C 0.02178 0.75023 0.04024 0.0
C4637 C 0.08794 0.80425 0.07071 0.0
C4638 C 0.08053 0.80943 0.07701 0.0
C4639 C 0.08158 0.79073 0.0665 0.0
C4640 C 0.06768 0.78218 0.06849 0.0
C4641 C 0.06032 0.78725 0.07507 0.0
C4642 C 0.06669 0.80075 0.07932 0.0
C4643 C 0.06064 0.76825 0.06274 0.0
C4644 C 0.05015 0.76468 0.05335 0.0
C4645 C 0.06465 0.75884 0.06579 0.0
C4646 C 0.07515 0.76178 0.07621 0.0
C4647 C 0.07408 0.76594 0.08944 0.0
C4648 C 0.08399 0.76869 0.09922 0.0
C4649 C 0.09498 0.76722 0.09591 0.0
C4650 C 0.09606 0.76297 0.08283 0.0
C4651 C 0.08618 0.76022 0.07301 0.0
H4652 H 0.10263 0.76934 0.10349 0.0
H4653 H 0.00462 0.74079 0.01015 0.0
H4654 H 0.31285 0.32609 0.02494 0.0
H4655 H 0.29132 0.31232 0.03627 0.0
H4656 H 0.29084 0.34818 0.04842 0.0
H4657 H 0.3125 0.36211 0.03721 0.0
H4658 H 0.28263 0.32995 0.06893 0.0
H4659 H 0.27266 0.32981 0.02142 0.0
H4660 H 0.27445 0.32649 0.99685 0.0
H4661 H 0.26068 0.28469 0.00302 0.0
H4662 H 0.25898 0.28781 0.02767 0.0
H4663 H 0.21204 0.30492 0.07583 0.0
H4664 H 0.2358 0.31651 0.06929 0.0
H4665 H 0.23381 0.27829 0.0648 0.0
H4666 H 0.21016 0.26662 0.07189 0.0
H4667 H 0.24364 0.29599 0.04134 0.0
H4668 H 0.25162 0.29577 0.08869 0.0
H4669 H 0.24947 0.29916 0.11315 0.0
H4670 H 0.26658 0.34158 0.10726 0.0
H4671 H 0.26864 0.33843 0.0827 0.0
C4672 C 0.30824 0.33109 0.03009 0.0
C4673 C 0.31437 0.34522 0.03008 0.0
C4674 C 0.2959 0.32318 0.03653 0.0
C4675 C 0.28942 0.32922 0.04305 0.0
C4676 C 0.29569 0.34333 0.04343 0.0
C4677 C 0.30804 0.35126 0.03697 0.0
C4678 C 0.27588 0.32081 0.04905 0.0
C4679 C 0.27407 0.32261 0.06288 0.0
C4680 C 0.26481 0.31098 0.04122 0.0
C4681 C 0.26586 0.30908 0.02641 0.0
C4682 C 0.27013 0.31994 0.01756 0.0
C4683 C 0.27111 0.31809 0.00361 0.0
C4684 C 0.26773 0.3054 0.99838 0.0
C4685 C 0.26333 0.29452 0.00709 0.0
C4686 C 0.26235 0.29632 0.02104 0.0
C4687 C 0.2167 0.29898 0.07359 0.0
C4688 C 0.20912 0.28484 0.07399 0.0
C4689 C 0.23026 0.30561 0.0699 0.0
C4690 C 0.23648 0.29822 0.06648 0.0
C4691 C 0.22912 0.28413 0.06732 0.0
C4692 C 0.21561 0.2775 0.07129 0.0
C4693 C 0.25038 0.30524 0.06115 0.0
C4694 C 0.25224 0.30322 0.04742 0.0
C4695 C 0.26146 0.31488 0.06906 0.0
C4696 C 0.26015 0.31684 0.08381 0.0
C4697 C 0.25478 0.30581 0.09257 0.0
C4698 C 0.25361 0.30769 0.10647 0.0
C4699 C 0.25785 0.32057 0.11175 0.0
C4700 C 0.26328 0.3316 0.10315 0.0
C4701 C 0.26446 0.32978 0.08923 0.0
H4702 H 0.25695 0.32201 0.12251 0.0
H4703 H 0.26848 0.30398 0.98759 0.0
H4704 H 0.71475 0.68175 0.35273 0.0
H4705 H 0.72806 0.67285 0.36259 0.0
H4706 H 0.69252 0.64178 0.38224 0.0
H4707 H 0.67911 0.65056 0.37235 0.0
H4708 H 0.71515 0.65395 0.39937 0.0
H4709 H 0.70281 0.63314 0.35543 0.0
H4710 H 0.70009 0.63198 0.33052 0.0
H4711 H 0.74299 0.65683 0.32598 0.0
H4712 H 0.74596 0.65832 0.3509 0.0
H4713 H 0.74489 0.61022 0.42132 0.0
H4714 H 0.72829 0.62059 0.41152 0.0
H4715 H 0.76439 0.65109 0.37937 0.0
H4716 H 0.78196 0.64164 0.3883 0.0
H4717 H 0.74004 0.63933 0.36918 0.0
H4718 H 0.75185 0.66208 0.41326 0.0
H4719 H 0.75442 0.66338 0.43823 0.0
H4720 H 0.71221 0.63442 0.44234 0.0
H4721 H 0.70945 0.63289 0.41738 0.0
C4722 C 0.70977 0.67303 0.35916 0.0
C4723 C 0.69587 0.66682 0.36171 0.0
C4724 C 0.71737 0.66795 0.36476 0.0
C4725 C 0.71124 0.65661 0.37306 0.0
C4726 C 0.69743 0.65054 0.37585 0.0
C4727 C 0.68978 0.65553 0.37015 0.0
C4728 C 0.71927 0.65101 0.37864 0.0
C4729 C 0.72044 0.65057 0.39278 0.0
C4730 C 0.72632 0.64678 0.37004 0.0
C4731 C 0.72459 0.64597 0.35504 0.0
C4732 C 0.71166 0.63848 0.34913 0.0
C4733 C 0.71007 0.63773 0.33501 0.0
C4734 C 0.72135 0.64436 0.32667 0.0
C4735 C 0.73425 0.65172 0.33245 0.0
C4736 C 0.7359 0.65251 0.34657 0.0
C4737 C 0.7483 0.61746 0.41326 0.0
C4738 C 0.76622 0.62674 0.40757 0.0
C4739 C 0.73837 0.62451 0.40762 0.0
C4740 C 0.74492 0.6377 0.39519 0.0
C4741 C 0.76111 0.64368 0.38725 0.0
C4742 C 0.77182 0.63733 0.39218 0.0
C4743 C 0.73617 0.64253 0.38993 0.0
C4744 C 0.7348 0.64275 0.3758 0.0
C4745 C 0.72888 0.64645 0.39854 0.0
C4746 C 0.7305 0.64721 0.41349 0.0
C4747 C 0.74315 0.65592 0.41951 0.0
C4748 C 0.74464 0.65672 0.43365 0.0
C4749 C 0.7335 0.64894 0.44187 0.0
C4750 C 0.72084 0.6404 0.43596 0.0
C4751 C 0.71931 0.63957 0.42182 0.0
H4752 H 0.73467 0.64957 0.45281 0.0
H4753 H 0.72011 0.64376 0.31574 0.0
H4754 H 0.31297 0.0147 0.39374 0.0
H4755 H 0.32539 0.03644 0.40575 0.0
H4756 H 0.35658 0.0505 0.37541 0.0
H4757 H 0.34456 0.02845 0.36385 0.0
H4758 H 0.3677 0.06045 0.39883 0.0
H4759 H 0.32932 0.0572 0.37495 0.0
H4760 H 0.30513 0.0467 0.36927 0.0
H4761 H 0.29638 0.05059 0.41098 0.0
H4762 H 0.32051 0.06098 0.41693 0.0
H4763 H 0.39408 0.13072 0.40419 0.0
H4764 H 0.38361 0.10719 0.39733 0.0
H4765 H 0.35508 0.09619 0.43 0.0
H4766 H 0.36515 0.11983 0.43671 0.0
H4767 H 0.34243 0.0841 0.40729 0.0
H4768 H 0.38139 0.08963 0.43063 0.0
H4769 H 0.40565 0.1004 0.43604 0.0
H4770 H 0.41352 0.09265 0.39522 0.0
H4771 H 0.38933 0.08199 0.38951 0.0
C4772 C 0.32255 0.0224 0.38973 0.0
C4773 C 0.32774 0.01998 0.37779 0.0
C4774 C 0.32961 0.03484 0.39655 0.0
C4775 C 0.34174 0.04527 0.39127 0.0
C4776 C 0.34721 0.04265 0.37965 0.0
C4777 C 0.34032 0.03007 0.37302 0.0
C4778 C 0.34837 0.05907 0.39742 0.0
C4779 C 0.3622 0.06567 0.40057 0.0
C4780 C 0.34115 0.0658 0.40002 0.0
C4781 C 0.32669 0.05975 0.3964 0.0
C4782 C 0.32222 0.05576 0.38291 0.0
C4783 C 0.30853 0.04983 0.37965 0.0
C4784 C 0.29922 0.04795 0.38976 0.0
C4785 C 0.3036 0.05204 0.40316 0.0
C4786 C 0.31728 0.05796 0.40648 0.0
C4787 C 0.38544 0.12343 0.40984 0.0
C4788 C 0.38005 0.12744 0.42059 0.0
C4789 C 0.3796 0.10987 0.40601 0.0
C4790 C 0.36854 0.09989 0.41314 0.0
C4791 C 0.36351 0.10373 0.42424 0.0
C4792 C 0.36926 0.1173 0.42801 0.0
C4793 C 0.3618 0.08556 0.40857 0.0
C4794 C 0.34793 0.07886 0.40568 0.0
C4795 C 0.36901 0.0788 0.40617 0.0
C4796 C 0.38355 0.08509 0.40962 0.0
C4797 C 0.38831 0.0903 0.42278 0.0
C4798 C 0.40205 0.09637 0.42591 0.0
C4799 C 0.41113 0.09723 0.41598 0.0
C4800 C 0.40648 0.09198 0.40291 0.0
C4801 C 0.39275 0.0859 0.39973 0.0
H4802 H 0.42176 0.10194 0.41841 0.0
H4803 H 0.28862 0.04335 0.38722 0.0
H4804 H 0.97742 0.31627 0.35364 0.0
H4805 H 0.95556 0.30664 0.36487 0.0
H4806 H 0.96805 0.28706 0.39345 0.0
H4807 H 0.9896 0.29607 0.38177 0.0
H4808 H 0.94453 0.27008 0.38503 0.0
H4809 H 0.96464 0.31602 0.40145 0.0
H4810 H 0.97586 0.34069 0.39933 0.0
H4811 H 0.94242 0.33612 0.37573 0.0
H4812 H 0.93108 0.31141 0.37757 0.0
H4813 H 0.88792 0.2456 0.42692 0.0
H4814 H 0.91101 0.25881 0.41908 0.0
H4815 H 0.89883 0.27805 0.38981 0.0
H4816 H 0.87575 0.26556 0.39836 0.0
H4817 H 0.92239 0.29558 0.39919 0.0
H4818 H 0.90291 0.2498 0.38186 0.0
H4819 H 0.89156 0.22511 0.38395 0.0
H4820 H 0.924 0.22954 0.40918 0.0
H4821 H 0.93546 0.25427 0.40736 0.0
C4822 C 0.97552 0.31 0.36239 0.0
C4823 C 0.98517 0.30687 0.36681 0.0
C4824 C 0.96305 0.30457 0.36888 0.0
C4825 C 0.96017 0.29625 0.38016 0.0
C4826 C 0.96999 0.29342 0.38477 0.0
C4827 C 0.98231 0.29858 0.37809 0.0
C4828 C 0.94667 0.28974 0.38663 0.0
C4829 C 0.93982 0.27573 0.38834 0.0
C4830 C 0.94028 0.29699 0.3906 0.0
C4831 C 0.94707 0.31186 0.38956 0.0
C4832 C 0.95972 0.32027 0.39574 0.0
C4833 C 0.96609 0.33426 0.3946 0.0
C4834 C 0.95987 0.33997 0.38738 0.0
C4835 C 0.94724 0.33169 0.38131 0.0
C4836 C 0.94083 0.31769 0.38242 0.0
C4837 C 0.89009 0.25275 0.41894 0.0
C4838 C 0.87985 0.25437 0.41313 0.0
C4839 C 0.90335 0.26024 0.41437 0.0
C4840 C 0.90662 0.26914 0.40356 0.0
C4841 C 0.89656 0.27116 0.39808 0.0
C4842 C 0.88335 0.26395 0.4029 0.0
C4843 C 0.92037 0.27598 0.39764 0.0
C4844 C 0.9272 0.29 0.39597 0.0
C4845 C 0.92677 0.26875 0.39367 0.0
C4846 C 0.91999 0.25387 0.39455 0.0
C4847 C 0.90759 0.2455 0.38789 0.0
C4848 C 0.90114 0.2315 0.38903 0.0
C4849 C 0.90704 0.22576 0.39671 0.0
C4850 C 0.91944 0.234 0.40323 0.0
C4851 C 0.92592 0.248 0.40214 0.0
H4852 H 0.90203 0.21492 0.3976 0.0
H4853 H 0.96482 0.3508 0.3865 0.0
H4854 H 0.99667 0.35481 0.31828 0.0
H4855 H 0.99457 0.37172 0.30563 0.0
H4856 H 0.03793 0.39742 0.3058 0.0
H4857 H 0.04001 0.38085 0.31901 0.0
H4858 H 0.02779 0.412 0.31076 0.0
H4859 H 0.01871 0.37813 0.27687 0.0
H4860 H 0.00748 0.35531 0.26649 0.0
H4861 H 0.96947 0.3538 0.26736 0.0
H4862 H 0.98043 0.37654 0.27791 0.0
H4863 H 0.03006 0.45693 0.26134 0.0
H4864 H 0.0322 0.43863 0.27093 0.0
H4865 H 0.98953 0.41659 0.27919 0.0
H4866 H 0.98734 0.43486 0.26968 0.0
H4867 H -0.00031 0.40025 0.26896 0.0
H4868 H 0.0099 0.43458 0.30372 0.0
H4869 H 0.0222 0.45793 0.31276 0.0
H4870 H 0.05975 0.4588 0.30866 0.0
H4871 H 0.04769 0.43551 0.29939 0.0
C4872 C 0.00573 0.3641 0.31565 0.0
C4873 C 0.0185 0.36654 0.31964 0.0
C4874 C 0.00454 0.37371 0.30831 0.0
C4875 C 0.01611 0.38576 0.30452 0.0
C4876 C 0.02885 0.38821 0.30859 0.0
C4877 C 0.03003 0.37874 0.31615 0.0
C4878 C 0.01497 0.39602 0.29663 0.0
C4879 C 0.02181 0.40941 0.30151 0.0
C4880 C 0.00701 0.39268 0.28464 0.0
C4881 C 0.00038 0.37899 0.27831 0.0
C4882 C 0.00794 0.37289 0.27495 0.0
C4883 C 0.00162 0.35998 0.26901 0.0
C4884 C 0.98776 0.3531 0.2663 0.0
C4885 C 0.9802 0.35913 0.26948 0.0
C4886 C 0.98646 0.37203 0.27543 0.0
C4887 C 0.02113 0.44809 0.26503 0.0
C4888 C 0.00854 0.4473 0.26479 0.0
C4889 C 0.02235 0.43767 0.2705 0.0
C4890 C 0.01103 0.42633 0.27583 0.0
C4891 C 0.99837 0.42526 0.27508 0.0
C4892 C 0.99714 0.4357 0.26969 0.0
C4893 C 0.01253 0.41607 0.28312 0.0
C4894 C 0.00573 0.40273 0.27817 0.0
C4895 C 0.02069 0.41946 0.29492 0.0
C4896 C 0.02791 0.43336 0.30075 0.0
C4897 C 0.02079 0.43978 0.30467 0.0
C4898 C 0.02772 0.453 0.30984 0.0
C4899 C 0.04175 0.45985 0.31126 0.0
C4900 C 0.04888 0.45348 0.30755 0.0
C4901 C 0.04201 0.44028 0.30234 0.0
H4902 H 0.0471 0.47009 0.31525 0.0
H4903 H 0.9829 0.3431 0.2617 0.0
H4904 H 0.63084 0.65378 0.29782 0.0
H4905 H 0.62024 0.63257 0.28473 0.0
H4906 H 0.63838 0.61693 0.31156 0.0
H4907 H 0.64953 0.63834 0.32423 0.0
H4908 H 0.63838 0.60854 0.28677 0.0
H4909 H 0.60467 0.61039 0.31522 0.0
H4910 H 0.59145 0.62049 0.32335 0.0
H4911 H 0.57635 0.61808 0.28291 0.0
H4912 H 0.5896 0.60809 0.27453 0.0
H4913 H 0.59388 0.53822 0.2793 0.0
H4914 H 0.60794 0.56163 0.28676 0.0
H4915 H 0.58618 0.57308 0.25975 0.0
H4916 H 0.57145 0.54966 0.25302 0.0
H4917 H 0.58852 0.58456 0.28248 0.0
H4918 H 0.62021 0.58043 0.25427 0.0
H4919 H 0.63335 0.57031 0.24598 0.0
H4920 H 0.65229 0.577 0.28515 0.0
H4921 H 0.63914 0.58701 0.29374 0.0
C4922 C 0.63264 0.64585 0.30084 0.0
C4923 C 0.64088 0.64764 0.31213 0.0
C4924 C 0.62655 0.63372 0.29339 0.0
C4925 C 0.62824 0.62303 0.29736 0.0
C4926 C 0.63688 0.62501 0.30832 0.0
C4927 C 0.64321 0.63724 0.31559 0.0
C4928 C 0.6205 0.60955 0.29062 0.0
C4929 C 0.62746 0.60324 0.28589 0.0
C4930 C 0.60629 0.60278 0.28914 0.0
C4931 C 0.5982 0.60861 0.29424 0.0
C4932 C 0.59857 0.61207 0.30807 0.0
C4933 C 0.59107 0.61777 0.31272 0.0
C4934 C 0.58309 0.61995 0.30365 0.0
C4935 C 0.58255 0.61639 0.28992 0.0
C4936 C 0.59004 0.6107 0.28522 0.0
C4937 C 0.59195 0.54568 0.27508 0.0
C4938 C 0.58117 0.54186 0.26592 0.0
C4939 C 0.60019 0.55914 0.27917 0.0
C4940 C 0.59823 0.5692 0.27374 0.0
C4941 C 0.58786 0.56551 0.26417 0.0
C4942 C 0.5794 0.55203 0.26033 0.0
C4943 C 0.60635 0.58341 0.2787 0.0
C4944 C 0.59945 0.58987 0.28315 0.0
C4945 C 0.6206 0.5903 0.27986 0.0
C4946 C 0.62861 0.58439 0.27467 0.0
C4947 C 0.62712 0.57967 0.26114 0.0
C4948 C 0.63458 0.57397 0.25638 0.0
C4949 C 0.64363 0.57299 0.26504 0.0
C4950 C 0.64527 0.57776 0.27846 0.0
C4951 C 0.63783 0.58347 0.28327 0.0
H4952 H 0.64938 0.56856 0.26134 0.0
H4953 H 0.57731 0.62438 0.30727 0.0
H4954 H 0.3498 0.96669 0.33355 0.0
H4955 H 0.36854 0.96822 0.32052 0.0
H4956 H 0.38029 0.00867 0.30907 0.0
H4957 H 0.36127 0.00708 0.32187 0.0
H4958 H 0.38138 0.99507 0.28773 0.0
H4959 H 0.39828 0.00294 0.333 0.0
H4960 H 0.39838 0.99899 0.35752 0.0
H4961 H 0.3958 0.96113 0.3488 0.0
H4962 H 0.39549 0.96477 0.32421 0.0
H4963 H 0.44892 0.01185 0.2689 0.0
H4964 H 0.42937 0.01098 0.2798 0.0
H4965 H 0.41034 0.96785 0.28285 0.0
H4966 H 0.42967 0.96856 0.27153 0.0
H4967 H 0.41353 0.98367 0.30826 0.0
H4968 H 0.39687 0.97708 0.26208 0.0
H4969 H 0.3982 0.98288 0.23791 0.0
H4970 H 0.40236 0.02097 0.24911 0.0
H4971 H 0.40124 0.01548 0.27338 0.0
C4972 C 0.35641 0.97595 0.32834 0.0
C4973 C 0.3541 0.98679 0.3288 0.0
C4974 C 0.36715 0.97682 0.32091 0.0
C4975 C 0.37593 0.98862 0.31395 0.0
C4976 C 0.37365 -0.00052 0.31438 0.0
C4977 C 0.36283 0.99858 0.32175 0.0
C4978 C 0.38734 0.98947 0.30609 0.0
C4979 C 0.38851 0.99276 0.29228 0.0
C4980 C 0.39659 0.98634 0.31197 0.0
C4981 C 0.39672 0.98407 0.32676 0.0
C4982 C 0.39761 0.99372 0.33631 0.0
C4983 C 0.39773 0.99155 0.35022 0.0
C4984 C 0.39706 0.9798 0.35472 0.0
C4985 C 0.3963 0.97022 0.3453 0.0
C4986 C 0.39616 0.97234 0.33137 0.0
C4987 C 0.44051 0.00216 0.27176 0.0
C4988 C 0.44095 0.9903 0.26964 0.0
C4989 C 0.42936 0.00169 0.27794 0.0
C4990 C 0.41851 0.98937 0.28217 0.0
C4991 C 0.41869 0.97745 0.27971 0.0
C4992 C 0.42974 0.97788 0.2733 0.0
C4993 C 0.40738 0.98905 0.28995 0.0
C4994 C 0.40634 0.98595 0.30376 0.0
C4995 C 0.39846 0.99261 0.28413 0.0
C4996 C 0.39913 0.99593 0.26955 0.0
C4997 C 0.39821 0.98675 0.2594 0.0
C4998 C 0.39889 0.98997 0.24568 0.0
C4999 C 0.40041 0.0023 0.24198 0.0
C5000 C 0.40121 0.01143 0.252 0.0
C5001 C 0.40054 0.00826 0.26573 0.0
H5002 H 0.40093 0.00477 0.23135 0.0
H5003 H 0.39716 0.97814 0.36549 0.0
H5004 H 0.65045 0.99888 0.32329 0.0
H5005 H 0.63927 0.00791 0.30963 0.0
H5006 H 0.60669 0.96754 0.30065 0.0
H5007 H 0.61768 0.9584 0.3144 0.0
H5008 H 0.63189 0.00437 0.28278 0.0
H5009 H 0.57817 0.96726 0.29997 0.0
H5010 H 0.56638 0.95361 0.31992 0.0
H5011 H 0.59773 0.98293 0.34619 0.0
H5012 H 0.60968 0.99674 0.32639 0.0
H5013 H 0.58401 0.00717 0.23963 0.0
H5014 H 0.59623 -0.0006 0.2535 0.0
H5015 H 0.59155 0.01942 0.28873 0.0
H5016 H 0.57921 0.02713 0.2749 0.0
H5017 H 0.58556 0.99385 0.29422 0.0
H5018 H 0.6214 0.03309 0.27285 0.0
H5019 H 0.63355 0.04731 0.25338 0.0
H5020 H 0.63898 0.01577 0.23663 0.0
H5021 H 0.62669 0.00129 0.25591 0.0
C5022 C 0.64092 0.9919 0.31839 0.0
C5023 C 0.63492 0.97791 0.32 0.0
C5024 C 0.63457 0.99709 0.31057 0.0
C5025 C 0.62211 0.9884 0.30426 0.0
C5026 C 0.61622 0.97442 0.30561 0.0
C5027 C 0.62254 0.96922 0.31344 0.0
C5028 C 0.61517 0.99395 0.29641 0.0
C5029 C 0.62177 0.00209 0.28526 0.0
C5030 C 0.60203 0.99107 0.29975 0.0
C5031 C 0.59482 0.98297 0.31172 0.0
C5032 C 0.5825 0.9708 0.31002 0.0
C5033 C 0.57581 0.96303 0.32129 0.0
C5034 C 0.58131 0.96739 0.33431 0.0
C5035 C 0.59351 0.97954 0.33609 0.0
C5036 C 0.60025 0.98733 0.32485 0.0
C5037 C 0.58561 0.00991 0.25034 0.0
C5038 C 0.58059 0.01767 0.25623 0.0
C5039 C 0.59261 0.00551 0.25823 0.0
C5040 C 0.59484 0.0089 0.27212 0.0
C5041 C 0.58989 0.01668 0.27803 0.0
C5042 C 0.58289 0.02109 0.27014 0.0
C5043 C 0.60224 0.00422 0.2805 0.0
C5044 C 0.5957 0.99618 0.29172 0.0
C5045 C 0.61549 0.00731 0.27728 0.0
C5046 C 0.62304 0.01607 0.26577 0.0
C5047 C 0.62511 0.02916 0.26497 0.0
C5048 C 0.63203 0.03727 0.25397 0.0
C5049 C 0.63701 0.03244 0.24376 0.0
C5050 C 0.63511 0.0195 0.24454 0.0
C5051 C 0.62818 0.01134 0.25551 0.0
H5052 H 0.64236 0.03873 0.23525 0.0
H5053 H 0.57612 0.96136 0.34302 0.0
H5054 H 0.99645 0.65323 0.30465 0.0
H5055 H 0.99162 0.63279 0.2921 0.0
H5056 H 0.02721 0.63524 0.30935 0.0
H5057 H 0.03221 0.65585 0.32189 0.0
H5058 H 0.02395 0.62824 0.28188 0.0
H5059 H 0.99714 0.61429 0.32262 0.0
H5060 H 0.98074 0.61392 0.33902 0.0
H5061 H 0.95036 0.59932 0.3077 0.0
H5062 H 0.96665 0.59979 0.29106 0.0
H5063 H 0.00778 0.56015 0.27466 0.0
H5064 H 0.01418 0.58312 0.28165 0.0
H5065 H 0.9765 0.57684 0.26567 0.0
H5066 H 0.96999 0.55375 0.25885 0.0
H5067 H 0.98056 0.58639 0.29092 0.0
H5068 H 0.00652 0.59848 0.25047 0.0
H5069 H 0.02273 0.59894 0.23378 0.0
H5070 H 0.05442 0.61702 0.26374 0.0
H5071 H 0.03835 0.61649 0.28068 0.0
C5072 C 0.00329 0.64947 0.30575 0.0
C5073 C 0.01466 0.65609 0.31436 0.0
C5074 C 0.00051 0.63778 0.29857 0.0
C5075 C 0.00898 0.63243 0.29991 0.0
C5076 C 0.02055 0.63922 0.30818 0.0
C5077 C 0.02335 0.65094 0.31539 0.0
C5078 C 0.00543 0.61945 0.29315 0.0
C5079 C 0.01454 0.61904 0.28393 0.0
C5080 C 0.99297 0.60756 0.29556 0.0
C5081 C 0.98315 0.60721 0.30557 0.0
C5082 C 0.98699 0.6111 0.31921 0.0
C5083 C 0.97771 0.61086 0.32855 0.0
C5084 C 0.96453 0.60663 0.3244 0.0
C5085 C 0.96059 0.60261 0.3109 0.0
C5086 C 0.96983 0.60285 0.30151 0.0
C5087 C 0.001 0.56378 0.2724 0.0
C5088 C 0.98847 0.55525 0.26608 0.0
C5089 C 0.00468 0.57691 0.27634 0.0
C5090 C 0.99588 0.58175 0.27405 0.0
C5091 C 0.98347 0.57333 0.26748 0.0
C5092 C 0.97978 0.56019 0.26353 0.0
C5093 C -0.0009 0.59509 0.27965 0.0
C5094 C 0.98993 0.59558 0.28871 0.0
C5095 C 0.01148 0.60703 0.27704 0.0
C5096 C 0.02119 0.60733 0.26689 0.0
C5097 C 0.01692 0.60244 0.25354 0.0
C5098 C 0.02609 0.60274 0.24402 0.0
C5099 C 0.03959 0.60798 0.2477 0.0
C5100 C 0.04395 0.61295 0.26091 0.0
C5101 C 0.03482 0.61267 0.27047 0.0
H5102 H 0.04667 0.60821 0.24032 0.0
H5103 H 0.95736 0.60645 0.33164 0.0
H5104 H 0.3689 0.38209 0.33512 0.0
H5105 H 0.39028 0.39005 0.32328 0.0
H5106 H 0.37064 0.35606 0.29527 0.0
H5107 H 0.34962 0.34754 0.30794 0.0
H5108 H 0.39297 0.35918 0.30005 0.0
H5109 H 0.37995 0.39121 0.28813 0.0
H5110 H 0.37314 0.40807 0.29223 0.0
H5111 H 0.41015 0.43342 0.31404 0.0
H5112 H 0.4171 0.41664 0.3102 0.0
H5113 H 0.44051 0.38807 0.2461 0.0
H5114 H 0.42042 0.38033 0.26013 0.0
H5115 H 0.4453 0.40461 0.29383 0.0
H5116 H 0.46554 0.41209 0.27998 0.0
H5117 H 0.42149 0.40693 0.28686 0.0
H5118 H 0.43422 0.37385 0.29648 0.0
H5119 H 0.44037 0.35695 0.28991 0.0
H5120 H 0.40239 0.33339 0.26911 0.0
H5121 H 0.3961 0.35026 0.27538 0.0
C5122 C 0.36923 0.37638 0.32642 0.0
C5123 C 0.3577 0.36428 0.32233 0.0
C5124 C 0.38141 0.38097 0.31957 0.0
C5125 C 0.38209 0.37387 0.30811 0.0
C5126 C 0.37046 0.36176 0.30405 0.0
C5127 C 0.35843 0.35692 0.31122 0.0
C5128 C 0.39492 0.37882 0.3005 0.0
C5129 C 0.39906 0.3696 0.29704 0.0
C5130 C 0.40313 0.39248 0.29672 0.0
C5131 C 0.39898 0.40261 0.299 0.0
C5132 C 0.38659 0.40034 0.29387 0.0
C5133 C 0.38272 0.40989 0.29614 0.0
C5134 C 0.39119 0.42179 0.30342 0.0
C5135 C 0.40358 0.42419 0.30842 0.0
C5136 C 0.40751 0.41467 0.30619 0.0
C5137 C 0.44174 0.39156 0.25657 0.0
C5138 C 0.45464 0.40042 0.26205 0.0
C5139 C 0.43025 0.3872 0.26453 0.0
C5140 C 0.43144 0.39183 0.27801 0.0
C5141 C 0.44423 0.4009 0.28344 0.0
C5142 C 0.45576 0.4051 0.27555 0.0
C5143 C 0.41924 0.38725 0.28635 0.0
C5144 C 0.41531 0.39654 0.28994 0.0
C5145 C 0.41103 0.37361 0.28992 0.0
C5146 C 0.41474 0.36338 0.28631 0.0
C5147 C 0.42722 0.36512 0.29042 0.0
C5148 C 0.43072 0.35553 0.28676 0.0
C5149 C 0.42179 0.34412 0.27907 0.0
C5150 C 0.40931 0.34224 0.27505 0.0
C5151 C 0.40576 0.3518 0.27867 0.0
H5152 H 0.42452 0.33671 0.27625 0.0
H5153 H 0.38817 0.42916 0.30517 0.0
H5154 H 0.32409 0.29059 0.35299 0.0
H5155 H 0.33401 0.27845 0.36343 0.0
H5156 H 0.35451 0.31081 0.39301 0.0
H5157 H 0.34514 0.32315 0.38228 0.0
H5158 H 0.37125 0.30435 0.38398 0.0
H5159 H 0.32567 0.27866 0.40032 0.0
H5160 H 0.30088 0.26507 0.39823 0.0
H5161 H 0.30404 0.23541 0.37413 0.0
H5162 H 0.32886 0.24891 0.37594 0.0
H5163 H 0.39484 0.27262 0.42704 0.0
H5164 H 0.38164 0.28232 0.41891 0.0
H5165 H 0.36359 0.25117 0.38781 0.0
H5166 H 0.37642 0.24115 0.39625 0.0
H5167 H 0.34528 0.25659 0.39779 0.0
H5168 H 0.3909 0.28264 0.3813 0.0
H5169 H 0.41566 0.29612 0.38378 0.0
H5170 H 0.41224 0.32522 0.40859 0.0
H5171 H 0.38743 0.31181 0.40641 0.0
C5172 C 0.33065 0.29504 0.36177 0.0
C5173 C 0.33388 0.30783 0.36679 0.0
C5174 C 0.33626 0.28807 0.36779 0.0
C5175 C 0.34493 0.29364 0.37913 0.0
C5176 C 0.34791 0.3063 0.38426 0.0
C5177 C 0.34252 0.31335 0.37812 0.0
C5178 C 0.35143 0.28667 0.38534 0.0
C5179 C 0.3655 0.29396 0.38719 0.0
C5180 C 0.34405 0.273 0.38922 0.0
C5181 C 0.32913 0.26486 0.38816 0.0
C5182 C 0.32108 0.26929 0.3945 0.0
C5183 C 0.30702 0.26159 0.39337 0.0
C5184 C 0.30089 0.2494 0.38602 0.0
C5185 C 0.3088 0.24486 0.37981 0.0
C5186 C 0.32286 0.25252 0.38089 0.0
C5187 C 0.38783 0.26766 0.41868 0.0
C5188 C 0.3865 0.256 0.4124 0.0
C5189 C 0.38037 0.27328 0.41396 0.0
C5190 C 0.37176 0.26758 0.40262 0.0
C5191 C 0.37014 0.25572 0.39658 0.0
C5192 C 0.37747 0.25002 0.4014 0.0
C5193 C 0.36501 0.27434 0.39656 0.0
C5194 C 0.35096 0.267 0.39466 0.0
C5195 C 0.37239 0.28799 0.39266 0.0
C5196 C 0.38731 0.29617 0.39378 0.0
C5197 C 0.39543 0.29188 0.38734 0.0
C5198 C 0.40947 0.29951 0.38869 0.0
C5199 C 0.41552 0.31151 0.39636 0.0
C5200 C 0.40754 0.31592 0.40266 0.0
C5201 C 0.39349 0.30832 0.40136 0.0
H5202 H 0.42639 0.3174 0.3974 0.0
H5203 H 0.29 0.24346 0.38516 0.0
H5204 H 0.67428 0.02337 0.36629 0.0
H5205 H 0.68655 0.0464 0.37554 0.0
H5206 H 0.7235 0.04547 0.3752 0.0
H5207 H 0.71129 0.02238 0.36589 0.0
H5208 H 0.71966 0.05592 0.39945 0.0
H5209 H 0.71854 0.06227 0.35146 0.0
H5210 H 0.70789 0.05905 0.32893 0.0
H5211 H 0.68416 0.07537 0.34429 0.0
H5212 H 0.69453 0.07852 0.36698 0.0
H5213 H 0.76782 0.12616 0.40428 0.0
H5214 H 0.75401 0.10232 0.39781 0.0
H5215 H 0.71826 0.10541 0.39904 0.0
H5216 H 0.73205 0.12929 0.40574 0.0
H5217 H 0.72061 0.09367 0.37506 0.0
H5218 H 0.72233 0.08833 0.42273 0.0
H5219 H 0.7329 0.09167 0.44531 0.0
H5220 H 0.75529 0.07354 0.43079 0.0
H5221 H 0.745 0.07028 0.40804 0.0
C5222 C 0.68503 0.02806 0.36816 0.0
C5223 C 0.69183 0.02107 0.36533 0.0
C5224 C 0.69202 0.04123 0.37342 0.0
C5225 C 0.70594 0.04766 0.37599 0.0
C5226 C 0.71275 0.04067 0.37329 0.0
C5227 C 0.70578 0.02752 0.36792 0.0
C5228 C 0.71337 0.06168 0.38146 0.0
C5229 C 0.72002 0.06422 0.39405 0.0
C5230 C 0.71348 0.0724 0.37458 0.0
C5231 C 0.7072 0.07048 0.36096 0.0
C5232 C 0.71095 0.06505 0.35007 0.0
C5233 C 0.70499 0.06326 0.33726 0.0
C5234 C 0.69532 0.06696 0.33519 0.0
C5235 C 0.69163 0.07249 0.34592 0.0
C5236 C 0.69755 0.07428 0.35875 0.0
C5237 C 0.757 0.12172 0.40334 0.0
C5238 C 0.75102 0.1296 0.40541 0.0
C5239 C 0.74913 0.1081 0.39967 0.0
C5240 C 0.73512 0.10211 0.39796 0.0
C5241 C 0.72906 0.10987 0.40028 0.0
C5242 C 0.73692 0.12347 0.40411 0.0
C5243 C 0.72698 0.08795 0.39301 0.0
C5244 C 0.72019 0.08538 0.38051 0.0
C5245 C 0.72673 0.0772 0.39998 0.0
C5246 C 0.733 0.07919 0.41363 0.0
C5247 C 0.72961 0.08518 0.42431 0.0
C5248 C 0.73553 0.08703 0.43715 0.0
C5249 C 0.74479 0.08285 0.43948 0.0
C5250 C 0.74813 0.07679 0.42897 0.0
C5251 C 0.74225 0.07493 0.4161 0.0
H5252 H 0.74935 0.08428 0.44943 0.0
H5253 H 0.69072 0.06558 0.32526 0.0
H5254 H 0.9785 0.69481 0.37145 0.0
H5255 H 0.95673 0.67993 0.38182 0.0
H5256 H 0.95633 0.64538 0.36374 0.0
H5257 H 0.97837 0.66023 0.35359 0.0
H5258 H 0.93283 0.66343 0.37158 0.0
H5259 H 0.93889 0.61832 0.38442 0.0
H5260 H 0.95688 0.61336 0.38942 0.0
H5261 H 0.98219 0.65371 0.405 0.0
H5262 H 0.9643 0.65885 0.40023 0.0
H5263 H 0.86981 0.60979 0.39491 0.0
H5264 H 0.89109 0.62173 0.38243 0.0
H5265 H 0.91318 0.63443 0.42036 0.0
H5266 H 0.89198 0.62258 0.43285 0.0
H5267 H 0.92531 0.6262 0.40167 0.0
H5268 H 0.9071 0.65567 0.40396 0.0
H5269 H 0.88967 0.66175 0.40057 0.0
H5270 H 0.88994 0.65493 0.35756 0.0
H5271 H 0.90724 0.64862 0.36073 0.0
C5272 C 0.97382 0.68405 0.36968 0.0
C5273 C 0.98022 0.67871 0.36173 0.0
C5274 C 0.96133 0.67555 0.37558 0.0
C5275 C 0.95491 0.66152 0.37365 0.0
C5276 C 0.96117 0.65615 0.36556 0.0
C5277 C 0.97376 0.66466 0.35973 0.0
C5278 C 0.9417 0.65265 0.38019 0.0
C5279 C 0.93118 0.65524 0.37809 0.0
C5280 C 0.93953 0.642 0.38876 0.0
C5281 C 0.95031 0.639 0.39182 0.0
C5282 C 0.94829 0.62612 0.38894 0.0
C5283 C 0.95847 0.62328 0.39173 0.0
C5284 C 0.97069 0.63323 0.39748 0.0
C5285 C 0.97274 0.64602 0.4005 0.0
C5286 C 0.96259 0.64891 0.39774 0.0
C5287 C 0.87922 0.6151 0.40056 0.0
C5288 C 0.87924 0.61535 0.41485 0.0
C5289 C 0.89135 0.6219 0.39343 0.0
C5290 C 0.9037 0.62902 0.40048 0.0
C5291 C 0.90377 0.62896 0.41473 0.0
C5292 C 0.89167 0.62224 0.42185 0.0
C5293 C 0.91654 0.63706 0.39309 0.0
C5294 C 0.92694 0.63428 0.39501 0.0
C5295 C 0.9187 0.64769 0.38453 0.0
C5296 C 0.90834 0.65153 0.3826 0.0
C5297 C 0.90336 0.65536 0.3938 0.0
C5298 C 0.89352 0.65887 0.39192 0.0
C5299 C 0.88867 0.65869 0.37887 0.0
C5300 C 0.89368 0.65504 0.36767 0.0
C5301 C 0.90351 0.6515 0.3695 0.0
H5302 H 0.88106 0.66141 0.37743 0.0
H5303 H 0.97856 0.63101 0.39962 0.0
H5304 H 0.38302 0.02258 0.68043 0.0
H5305 H 0.40053 0.02069 0.69247 0.0
H5306 H 0.37104 0.99399 0.72115 0.0
H5307 H 0.35342 0.99574 0.70911 0.0
H5308 H 0.39484 0.01432 0.73356 0.0
H5309 H 0.38135 0.98072 0.69849 0.0
H5310 H 0.37607 0.97143 0.67508 0.0
H5311 H 0.41677 -0.00071 0.66315 0.0
H5312 H 0.42224 0.00889 0.68646 0.0
H5313 H 0.43697 0.98892 0.7694 0.0
H5314 H 0.41653 0.99238 0.75618 0.0
H5315 H 0.447 0.01511 0.71687 0.0
H5316 H 0.46832 0.01243 0.72902 0.0
H5317 H 0.42184 0.99763 0.71014 0.0
H5318 H 0.43483 0.03226 0.74466 0.0
H5319 H 0.44013 0.04191 0.76796 0.0
H5320 H 0.40043 0.01211 0.78084 0.0
H5321 H 0.39496 0.00222 0.75763 0.0
C5322 C 0.38025 0.01625 0.68926 0.0
C5323 C 0.36684 0.00926 0.69378 0.0
C5324 C 0.39025 0.01518 0.69611 0.0
C5325 C 0.38706 0.00717 0.70766 0.0
C5326 C 0.3737 0.00023 0.71226 0.0
C5327 C 0.36365 0.00118 0.70532 0.0
C5328 C 0.3977 0.00606 0.71491 0.0
C5329 C 0.40062 0.01049 0.72852 0.0
C5330 C 0.40541 0.00133 0.70823 0.0
C5331 C 0.40216 0.99562 0.69418 0.0
C5332 C 0.38914 0.98496 0.69084 0.0
C5333 C 0.38612 0.97962 0.6776 0.0
C5334 C 0.39606 0.9848 0.66762 0.0
C5335 C 0.40906 0.99531 0.67088 0.0
C5336 C 0.41214 0.0007 0.68411 0.0
C5337 C 0.43869 0.99343 0.75951 0.0
C5338 C 0.45578 0.00265 0.75171 0.0
C5339 C 0.42632 0.99627 0.75155 0.0
C5340 C 0.42993 0.00507 0.73568 0.0
C5341 C 0.44552 0.01053 0.72669 0.0
C5342 C 0.45855 0.00822 0.73378 0.0
C5343 C 0.41911 0.00603 0.72876 0.0
C5344 C 0.41611 0.00152 0.7152 0.0
C5345 C 0.41131 0.01062 0.73551 0.0
C5346 C 0.41458 0.01639 0.74949 0.0
C5347 C 0.42728 0.02771 0.7525 0.0
C5348 C 0.4303 0.03323 0.76567 0.0
C5349 C 0.42064 0.02759 0.77589 0.0
C5350 C 0.40792 0.01644 0.77293 0.0
C5351 C 0.40485 0.01087 0.75977 0.0
H5352 H 0.42299 0.03188 0.78608 0.0
H5353 H 0.39371 0.98064 0.65738 0.0
H5354 H 0.9699 0.33011 0.72267 0.0
H5355 H 0.97357 0.34908 0.73722 0.0
H5356 H 0.00432 0.37666 0.71 0.0
H5357 H 0.00112 0.35759 0.69572 0.0
H5358 H 0.00969 0.38645 0.73618 0.0
H5359 H 0.97166 0.3678 0.70503 0.0
H5360 H 0.95057 0.34946 0.6948 0.0
H5361 H 0.93131 0.34159 0.73371 0.0
H5362 H 0.95236 0.35978 0.7442 0.0
H5363 H -0.00104 0.44224 0.73903 0.0
H5364 H 0.0031 0.42374 0.73451 0.0
H5365 H 0.97083 0.39851 0.76166 0.0
H5366 H 0.96634 0.41678 0.76578 0.0
H5367 H 0.96693 0.38701 0.73795 0.0
H5368 H 0.00461 0.40864 0.76838 0.0
H5369 H 0.02581 0.42737 0.77795 0.0
H5370 H 0.04591 0.4305 0.74023 0.0
H5371 H 0.02479 0.41191 0.73035 0.0
C5372 C 0.97768 0.3402 0.71998 0.0
C5373 C 0.98505 0.34245 0.70796 0.0
C5374 C 0.97978 0.35102 0.7283 0.0
C5375 C 0.98895 0.36429 0.72448 0.0
C5376 C 0.99714 0.3665 0.71309 0.0
C5377 C 0.99527 0.35562 0.70491 0.0
C5378 C 0.98852 0.37569 0.73111 0.0
C5379 C 0.00038 0.38665 0.73656 0.0
C5380 C 0.97632 0.37584 0.73174 0.0
C5381 C 0.9636 0.36504 0.72541 0.0
C5382 C 0.96294 0.36211 0.71141 0.0
C5383 C 0.951 0.35175 0.70557 0.0
C5384 C 0.93962 0.34434 0.71361 0.0
C5385 C 0.94014 0.34732 0.7275 0.0
C5386 C 0.95207 0.35765 0.7334 0.0
C5387 C 0.99301 0.43285 0.74429 0.0
C5388 C 0.98243 0.43101 0.75285 0.0
C5389 C 0.99543 0.42231 0.74178 0.0
C5390 C 0.98736 0.40977 0.74785 0.0
C5391 C 0.97723 0.40813 0.75692 0.0
C5392 C 0.9747 0.4186 0.75931 0.0
C5393 C 0.98809 0.39786 0.7432 0.0
C5394 C 0.97624 0.38679 0.73791 0.0
C5395 C 0.00032 0.39775 0.74267 0.0
C5396 C 0.01307 0.40893 0.74859 0.0
C5397 C 0.01352 0.41339 0.76208 0.0
C5398 C 0.02553 0.42397 0.76757 0.0
C5399 C 0.03719 0.43014 0.7597 0.0
C5400 C 0.03687 0.42572 0.74632 0.0
C5401 C 0.02488 0.41514 0.74077 0.0
H5402 H 0.04648 0.43833 0.76397 0.0
H5403 H 0.93038 0.33632 0.70907 0.0
H5404 H 0.63708 0.61901 0.69445 0.0
H5405 H 0.61609 0.61128 0.70694 0.0
H5406 H 0.62833 0.65238 0.71758 0.0
H5407 H 0.64924 0.66029 0.70468 0.0
H5408 H 0.61749 0.62375 0.73865 0.0
H5409 H 0.60788 0.64926 0.70533 0.0
H5410 H 0.60746 0.65613 0.68183 0.0
H5411 H 0.5825 0.61464 0.66942 0.0
H5412 H 0.58299 0.60753 0.69283 0.0
H5413 H 0.55522 0.59455 0.77202 0.0
H5414 H 0.57498 0.61237 0.76069 0.0
H5415 H 0.56239 0.58915 0.72315 0.0
H5416 H 0.54208 0.57179 0.73418 0.0
H5417 H 0.57447 0.61401 0.71705 0.0
H5418 H 0.58481 0.58785 0.74781 0.0
H5419 H 0.58558 0.57886 0.77014 0.0
H5420 H 0.60947 0.61914 0.78641 0.0
H5421 H 0.60869 0.62835 0.7642 0.0
C5422 C 0.63529 0.62642 0.69939 0.0
C5423 C 0.64479 0.64025 0.69859 0.0
C5424 C 0.62329 0.622 0.70646 0.0
C5425 C 0.62066 0.6313 0.713 0.0
C5426 C 0.63014 0.6451 0.71239 0.0
C5427 C 0.64206 0.64957 0.70507 0.0
C5428 C 0.60819 0.62627 0.72092 0.0
C5429 C 0.60811 0.62194 0.73413 0.0
C5430 C 0.596 0.62364 0.7148 0.0
C5431 C 0.59563 0.62787 0.70077 0.0
C5432 C 0.60245 0.6416 0.69755 0.0
C5433 C 0.60216 0.64554 0.68426 0.0
C5434 C 0.595 0.63583 0.67413 0.0
C5435 C 0.58807 0.62215 0.67728 0.0
C5436 C 0.58835 0.61817 0.69055 0.0
C5437 C 0.55643 0.59341 0.76125 0.0
C5438 C 0.54706 0.58172 0.75396 0.0
C5439 C 0.56783 0.60357 0.75481 0.0
C5440 C 0.57039 0.60197 0.74114 0.0
C5441 C 0.56069 0.59066 0.7337 0.0
C5442 C 0.54911 0.58069 0.74002 0.0
C5443 C 0.58363 0.61126 0.73487 0.0
C5444 C 0.58387 0.61622 0.72187 0.0
C5445 C 0.59599 0.61431 0.74113 0.0
C5446 C 0.59656 0.60877 0.75442 0.0
C5447 C 0.59016 0.59477 0.75617 0.0
C5448 C 0.59061 0.58964 0.7688 0.0
C5449 C 0.59754 0.59842 0.77969 0.0
C5450 C 0.60408 0.61235 0.77797 0.0
C5451 C 0.60364 0.61753 0.76537 0.0
H5452 H 0.59786 0.59443 0.78946 0.0
H5453 H 0.59479 0.6389 0.66384 0.0
H5454 H 0.65277 0.6893 0.66671 0.0
H5455 H 0.64426 0.70211 0.65521 0.0
H5456 H 0.67871 0.71879 0.62859 0.0
H5457 H 0.68777 0.7068 0.64092 0.0
H5458 H 0.67347 0.73701 0.63358 0.0
H5459 H 0.64494 0.69063 0.61957 0.0
H5460 H 0.62992 0.66626 0.62311 0.0
H5461 H 0.60186 0.67399 0.64431 0.0
H5462 H 0.61677 0.69841 0.64102 0.0
H5463 H 0.64369 0.7612 0.58769 0.0
H5464 H 0.65291 0.74812 0.59707 0.0
H5465 H 0.62137 0.73189 0.62705 0.0
H5466 H 0.61157 0.74427 0.61712 0.0
H5467 H 0.62558 0.71302 0.61858 0.0
H5468 H 0.65524 0.75978 0.6332 0.0
H5469 H 0.67041 0.78401 0.62906 0.0
H5470 H 0.69648 0.77511 0.60558 0.0
H5471 H 0.68138 0.75082 0.60946 0.0
C5472 C 0.65857 0.69584 0.65849 0.0
C5473 C 0.67087 0.69708 0.65463 0.0
C5474 C 0.65364 0.70303 0.65181 0.0
C5475 C 0.66058 0.71109 0.64068 0.0
C5476 C 0.67309 0.71259 0.63707 0.0
C5477 C 0.67827 0.70576 0.6441 0.0
C5478 C 0.6548 0.71791 0.63284 0.0
C5479 C 0.66305 0.73168 0.63013 0.0
C5480 C 0.64114 0.71106 0.62841 0.0
C5481 C 0.63202 0.69635 0.63012 0.0
C5482 C 0.63558 0.68713 0.62502 0.0
C5483 C 0.62709 0.67331 0.62698 0.0
C5484 C 0.61496 0.66859 0.63395 0.0
C5485 C 0.61126 0.67766 0.63892 0.0
C5486 C 0.61972 0.69149 0.63698 0.0
C5487 C 0.63856 0.75468 0.59613 0.0
C5488 C 0.62679 0.75369 0.60162 0.0
C5489 C 0.64396 0.74731 0.60159 0.0
C5490 C 0.63801 0.73921 0.61296 0.0
C5491 C 0.62616 0.73806 0.6183 0.0
C5492 C 0.62059 0.74517 0.61265 0.0
C5493 C 0.64419 0.73212 0.61954 0.0
C5494 C 0.63602 0.71829 0.62197 0.0
C5495 C 0.65794 0.73888 0.6236 0.0
C5496 C 0.66714 0.7535 0.62154 0.0
C5497 C 0.66419 0.763 0.62712 0.0
C5498 C 0.67277 0.77674 0.62482 0.0
C5499 C 0.68439 0.7811 0.61704 0.0
C5500 C 0.68748 0.77173 0.61159 0.0
C5501 C 0.67892 0.75798 0.61385 0.0
H5502 H 0.69101 0.79173 0.61525 0.0
H5503 H 0.60841 0.65789 0.6355 0.0
H5504 H 0.28508 0.97442 0.64288 0.0
H5505 H 0.27583 0.95312 0.63035 0.0
H5506 H 0.31075 0.95058 0.64107 0.0
H5507 H 0.32028 0.97217 0.65347 0.0
H5508 H 0.30441 0.9441 0.61496 0.0
H5509 H 0.28037 0.93075 0.65653 0.0
H5510 H 0.26679 0.93138 0.67562 0.0
H5511 H 0.23447 0.923 0.64807 0.0
H5512 H 0.24793 0.92251 0.62878 0.0
H5513 H 0.27394 0.87012 0.58953 0.0
H5514 H 0.28702 0.89543 0.6046 0.0
H5515 H 0.24868 0.90286 0.59485 0.0
H5516 H 0.23458 0.87779 0.57937 0.0
H5517 H 0.2576 0.90678 0.62273 0.0
H5518 H 0.28235 0.9209 0.58125 0.0
H5519 H 0.29605 0.92015 0.56236 0.0
H5520 H 0.3273 0.92657 0.59051 0.0
H5521 H 0.31369 0.92718 0.60961 0.0
C5522 C 0.29081 0.96935 0.64264 0.0
C5523 C 0.30341 0.975 0.64924 0.0
C5524 C 0.28546 0.95711 0.63551 0.0
C5525 C 0.29249 0.95014 0.63495 0.0
C5526 C 0.30512 0.95577 0.64142 0.0
C5527 C 0.31054 0.96809 0.64852 0.0
C5528 C 0.28669 0.93712 0.62732 0.0
C5529 C 0.29428 0.93582 0.61687 0.0
C5530 C 0.27336 0.92643 0.62961 0.0
C5531 C 0.26521 0.92671 0.64119 0.0
C5532 C 0.27041 0.92915 0.65452 0.0
C5533 C 0.26272 0.92946 0.66539 0.0
C5534 C 0.24979 0.92726 0.66306 0.0
C5535 C 0.24449 0.92472 0.64986 0.0
C5536 C 0.25214 0.92441 0.63896 0.0
C5537 C 0.2696 0.87651 0.58988 0.0
C5538 C 0.25175 0.87016 0.58492 0.0
C5539 C 0.27733 0.89194 0.59978 0.0
C5540 C 0.26894 0.90146 0.60199 0.0
C5541 C 0.2531 0.89659 0.59368 0.0
C5542 C 0.24455 0.88135 0.58353 0.0
C5543 C 0.27532 0.91385 0.61043 0.0
C5544 C 0.26779 0.91501 0.62098 0.0
C5545 C 0.28874 0.92432 0.60834 0.0
C5546 C 0.29692 0.92391 0.59688 0.0
C5547 C 0.29208 0.92202 0.58343 0.0
C5548 C 0.29985 0.92165 0.57268 0.0
C5549 C 0.31252 0.92326 0.57524 0.0
C5550 C 0.31747 0.92529 0.58855 0.0
C5551 C 0.30974 0.92566 0.59934 0.0
H5552 H 0.31852 0.92298 0.5669 0.0
H5553 H 0.24385 0.9275 0.67148 0.0
H5554 H 0.03157 0.35352 0.65405 0.0
H5555 H 0.05343 0.36359 0.64276 0.0
H5556 H 0.05251 0.3258 0.64479 0.0
H5557 H 0.03077 0.31574 0.65632 0.0
H5558 H 0.07684 0.34621 0.65146 0.0
H5559 H 0.04515 0.33623 0.61512 0.0
H5560 H 0.02672 0.33682 0.60307 0.0
H5561 H 0.05066 0.37997 0.60151 0.0
H5562 H 0.06918 0.37965 0.61372 0.0
H5563 H 0.12984 0.36144 0.60589 0.0
H5564 H 0.10737 0.35102 0.6159 0.0
H5565 H 0.10834 0.38884 0.6139 0.0
H5566 H 0.13067 0.39921 0.60344 0.0
H5567 H 0.08388 0.36835 0.60697 0.0
H5568 H 0.11547 0.37831 0.64351 0.0
H5569 H 0.13398 0.37767 0.65531 0.0
H5570 H 0.11017 0.33448 0.65641 0.0
H5571 H 0.09158 0.33486 0.64444 0.0
C5572 C 0.03604 0.34737 0.65214 0.0
C5573 C 0.02942 0.33382 0.65605 0.0
C5574 C 0.0485 0.35312 0.64561 0.0
C5575 C 0.05451 0.34539 0.64274 0.0
C5576 C 0.04804 0.33194 0.64687 0.0
C5577 C 0.03561 0.3262 0.65345 0.0
C5578 C 0.06758 0.35134 0.6355 0.0
C5579 C 0.07832 0.35089 0.64165 0.0
C5580 C 0.06961 0.35771 0.62283 0.0
C5581 C 0.0585 0.35792 0.61545 0.0
C5582 C 0.04645 0.34585 0.6123 0.0
C5583 C 0.03599 0.34613 0.60543 0.0
C5584 C 0.03751 0.35842 0.60156 0.0
C5585 C 0.0495 0.37046 0.60453 0.0
C5586 C 0.05998 0.37023 0.61141 0.0
C5587 C 0.12515 0.36746 0.60734 0.0
C5588 C 0.1319 0.38109 0.60364 0.0
C5589 C 0.11237 0.36154 0.61318 0.0
C5590 C 0.10624 0.36919 0.6158 0.0
C5591 C 0.11286 0.38273 0.61194 0.0
C5592 C 0.1256 0.38864 0.60598 0.0
C5593 C 0.09311 0.3632 0.62294 0.0
C5594 C 0.08238 0.36366 0.61678 0.0
C5595 C 0.09108 0.35684 0.63561 0.0
C5596 C 0.10218 0.35661 0.64298 0.0
C5597 C 0.11421 0.36867 0.6462 0.0
C5598 C 0.12472 0.36836 0.65293 0.0
C5599 C 0.12327 0.35604 0.65658 0.0
C5600 C 0.11129 0.34401 0.65356 0.0
C5601 C 0.10076 0.34427 0.64682 0.0
H5602 H 0.13142 0.35581 0.66178 0.0
H5603 H 0.0294 0.35862 0.59624 0.0
H5604 H 0.28148 0.31023 0.65242 0.0
H5605 H 0.27369 0.32344 0.64056 0.0
H5606 H 0.3149 0.35329 0.63135 0.0
H5607 H 0.32277 0.34041 0.64381 0.0
H5608 H 0.30312 0.36559 0.63926 0.0
H5609 H 0.29126 0.33045 0.60653 0.0
H5610 H 0.28128 0.30709 0.59781 0.0
H5611 H 0.24183 0.29894 0.60914 0.0
H5612 H 0.2516 0.3222 0.6181 0.0
H5613 H 0.28101 0.40103 0.59856 0.0
H5614 H 0.29049 0.38671 0.60346 0.0
H5615 H 0.25315 0.35789 0.62231 0.0
H5616 H 0.24366 0.37213 0.61745 0.0
H5617 H 0.26465 0.34574 0.60669 0.0
H5618 H 0.27817 0.38112 0.64137 0.0
H5619 H 0.28886 0.40489 0.64899 0.0
H5620 H 0.32658 0.41289 0.63206 0.0
H5621 H 0.31604 0.3892 0.62415 0.0
C5622 C 0.28887 0.31954 0.64776 0.0
C5623 C 0.30273 0.32428 0.64904 0.0
C5624 C 0.28441 0.32707 0.64089 0.0
C5625 C 0.29368 0.33929 0.63482 0.0
C5626 C 0.30753 0.34391 0.63592 0.0
C5627 C 0.31202 0.33652 0.64303 0.0
C5628 C 0.28896 0.34761 0.62804 0.0
C5629 C 0.2949 0.36126 0.63192 0.0
C5630 C 0.27813 0.34203 0.61854 0.0
C5631 C 0.27219 0.32805 0.61308 0.0
C5632 C 0.28047 0.32365 0.60724 0.0
C5633 C 0.27484 0.31043 0.60224 0.0
C5634 C 0.26093 0.30153 0.60294 0.0
C5635 C 0.25261 0.30585 0.60861 0.0
C5636 C 0.25818 0.31905 0.61363 0.0
C5637 C 0.27477 0.39151 0.60352 0.0
C5638 C 0.26161 0.38768 0.60764 0.0
C5639 C 0.28019 0.38337 0.60634 0.0
C5640 C 0.27255 0.3713 0.61335 0.0
C5641 C 0.25919 0.36715 0.61686 0.0
C5642 C 0.2538 0.3753 0.61411 0.0
C5643 C 0.27873 0.36352 0.61808 0.0
C5644 C 0.27303 0.35002 0.61385 0.0
C5645 C 0.28992 0.36927 0.62709 0.0
C5646 C 0.29629 0.38344 0.63205 0.0
C5647 C 0.28872 0.38797 0.6392 0.0
C5648 C 0.29476 0.40143 0.64357 0.0
C5649 C 0.30839 0.4104 0.64098 0.0
C5650 C 0.31602 0.40593 0.63404 0.0
C5651 C 0.31002 0.3925 0.62961 0.0
H5652 H 0.31304 0.42082 0.64437 0.0
H5653 H 0.2566 0.2913 0.59907 0.0
H5654 H 0.66984 0.98912 0.62473 0.0
H5655 H 0.65793 0.96643 0.61476 0.0
H5656 H 0.6597 0.95013 0.65336 0.0
H5657 H 0.67254 0.97305 0.66308 0.0
H5658 H 0.66278 0.93636 0.63502 0.0
H5659 H 0.63013 0.94988 0.64051 0.0
H5660 H 0.62046 0.96454 0.63834 0.0
H5661 H 0.62083 0.96104 0.59485 0.0
H5662 H 0.63066 0.94649 0.59676 0.0
H5663 H 0.60931 0.86984 0.6151 0.0
H5664 H 0.62205 0.89188 0.62671 0.0
H5665 H 0.631 0.91152 0.58802 0.0
H5666 H 0.61848 0.88955 0.57637 0.0
H5667 H 0.6214 0.92263 0.60778 0.0
H5668 H 0.6547 0.90894 0.60347 0.0
H5669 H 0.66311 0.89334 0.6068 0.0
H5670 H 0.65956 0.89603 0.65003 0.0
H5671 H 0.65095 0.91151 0.64695 0.0
C5672 C 0.66775 0.98069 0.63105 0.0
C5673 C 0.67199 0.98278 0.64468 0.0
C5674 C 0.66083 0.96769 0.62539 0.0
C5675 C 0.65749 0.95646 0.6334 0.0
C5676 C 0.66206 0.95859 0.64697 0.0
C5677 C 0.66937 0.97167 0.65253 0.0
C5678 C 0.64919 0.94255 0.6276 0.0
C5679 C 0.65362 0.93333 0.62926 0.0
C5680 C 0.63724 0.9385 0.61997 0.0
C5681 C 0.63123 0.94717 0.61879 0.0
C5682 C 0.62822 0.95229 0.63049 0.0
C5683 C 0.6227 0.96058 0.6293 0.0
C5684 C 0.62006 0.96374 0.61647 0.0
C5685 C 0.62289 0.95859 0.60479 0.0
C5686 C 0.62842 0.95031 0.60592 0.0
C5687 C 0.61404 0.87886 0.60909 0.0
C5688 C 0.61291 0.87799 0.59483 0.0
C5689 C 0.62131 0.89142 0.61572 0.0
C5690 C 0.62749 0.9033 0.6082 0.0
C5691 C 0.62629 0.90246 0.59399 0.0
C5692 C 0.61915 0.88993 0.58736 0.0
C5693 C 0.63513 0.91666 0.61509 0.0
C5694 C 0.63053 0.92572 0.61364 0.0
C5695 C 0.64673 0.92044 0.62312 0.0
C5696 C 0.65206 0.91128 0.62497 0.0
C5697 C 0.65562 0.90613 0.61368 0.0
C5698 C 0.66044 0.89732 0.61553 0.0
C5699 C 0.66183 0.89367 0.62862 0.0
C5700 C 0.65846 0.89886 0.6399 0.0
C5701 C 0.65362 0.90765 0.63811 0.0
H5702 H 0.66556 0.88685 0.63002 0.0
H5703 H 0.6158 0.97017 0.61557 0.0
H5704 H 0.01354 0.67957 0.64333 0.0
H5705 H 0.03524 0.68825 0.63191 0.0
H5706 H 0.0507 0.72613 0.65387 0.0
H5707 H 0.02863 0.71779 0.66433 0.0
H5708 H 0.05983 0.73172 0.63053 0.0
H5709 H 0.05759 0.69879 0.66195 0.0
H5710 H 0.04764 0.67627 0.672 0.0
H5711 H 0.04957 0.65945 0.63337 0.0
H5712 H 0.0594 0.68184 0.62307 0.0
H5713 H 0.13002 0.75595 0.62765 0.0
H5714 H 0.10649 0.74686 0.63412 0.0
H5715 H 0.09414 0.71417 0.60501 0.0
H5716 H 0.11778 0.72315 0.59866 0.0
H5717 H 0.08285 0.70527 0.62952 0.0
H5718 H 0.08786 0.73976 0.59927 0.0
H5719 H 0.09894 0.76285 0.5905 0.0
H5720 H 0.09291 0.77745 0.62875 0.0
H5721 H 0.08197 0.75447 0.63782 0.0
C5722 C 0.0216 0.68975 0.64565 0.0
C5723 C 0.0195 0.69802 0.65472 0.0
C5724 C 0.03405 0.69469 0.63922 0.0
C5725 C 0.04481 0.70777 0.64223 0.0
C5726 C 0.04262 0.71602 0.65131 0.0
C5727 C 0.03003 0.71125 0.65735 0.0
C5728 C 0.05835 0.71298 0.63598 0.0
C5729 C 0.06489 0.72595 0.63048 0.0
C5730 C 0.06492 0.70539 0.63549 0.0
C5731 C 0.0591 0.69196 0.64172 0.0
C5732 C 0.05582 0.69027 0.65559 0.0
C5733 C 0.05022 0.67753 0.66133 0.0
C5734 C 0.04794 0.66643 0.65332 0.0
C5735 C 0.05132 0.66805 0.63956 0.0
C5736 C 0.05692 0.68076 0.63377 0.0
C5737 C 0.12226 0.74696 0.62246 0.0
C5738 C 0.12569 0.74039 0.61248 0.0
C5739 C 0.10881 0.74178 0.62614 0.0
C5740 C 0.09852 0.72994 0.61991 0.0
C5741 C 0.10191 0.72337 0.60988 0.0
C5742 C 0.11538 0.72855 0.6062 0.0
C5743 C 0.08435 0.72405 0.62443 0.0
C5744 C 0.0777 0.71095 0.62954 0.0
C5745 C 0.07779 0.7316 0.62478 0.0
C5746 C 0.08416 0.7454 0.61925 0.0
C5747 C 0.08896 0.7479 0.60584 0.0
C5748 C 0.09521 0.76097 0.60081 0.0
C5749 C 0.09664 0.77161 0.60907 0.0
C5750 C 0.09179 0.7692 0.62236 0.0
C5751 C 0.08555 0.75615 0.62744 0.0
H5752 H 0.10149 0.78173 0.60516 0.0
H5753 H 0.04359 0.65658 0.65778 0.0
H5754 H 0.99742 0.65058 0.71614 0.0
H5755 H 0.00068 0.63403 0.72802 0.0
H5756 H 0.98082 0.60539 0.69502 0.0
H5757 H 0.97696 0.62172 0.68341 0.0
H5758 H 0.9728 0.59308 0.71809 0.0
H5759 H 0.01666 0.62472 0.69956 0.0
H5760 H 0.03654 0.64732 0.69623 0.0
H5761 H 0.04409 0.65202 0.73926 0.0
H5762 H 0.02417 0.6295 0.74286 0.0
H5763 H 0.99657 0.54829 0.72955 0.0
H5764 H 0.99068 0.56444 0.72107 0.0
H5765 H 0.01181 0.59125 0.755 0.0
H5766 H 0.0183 0.57546 0.7631 0.0
H5767 H 0.01864 0.60479 0.73313 0.0
H5768 H 0.97597 0.5727 0.75178 0.0
H5769 H 0.95611 0.55019 0.75547 0.0
H5770 H 0.94612 0.54633 0.71299 0.0
H5771 H 0.96602 0.56875 0.70901 0.0
C5772 C 0.99379 0.64076 0.71141 0.0
C5773 C 0.98704 0.63746 0.6988 0.0
C5774 C 0.99569 0.63132 0.71819 0.0
C5775 C 0.99123 0.61853 0.7123 0.0
C5776 C 0.98437 0.61519 0.69976 0.0
C5777 C 0.98223 0.62454 0.6931 0.0
C5778 C 0.99377 0.60865 0.71914 0.0
C5779 C 0.98285 0.59559 0.72125 0.0
C5780 C 0.0068 0.61203 0.72368 0.0
C5781 C 0.01887 0.62548 0.72148 0.0
C5782 C 0.02253 0.6306 0.70831 0.0
C5783 C 0.03381 0.64339 0.70638 0.0
C5784 C 0.04156 0.65111 0.71753 0.0
C5785 C 0.03808 0.64603 0.73064 0.0
C5786 C 0.02681 0.63326 0.73262 0.0
C5787 C -0.00023 0.55755 0.73529 0.0
C5788 C 0.00767 0.56047 0.74711 0.0
C5789 C 0.99634 0.56674 0.73049 0.0
C5790 C 0.00057 0.57897 0.73753 0.0
C5791 C 0.00835 0.58185 0.74943 0.0
C5792 C 0.01197 0.57276 0.75412 0.0
C5793 C 0.99769 0.58914 0.73196 0.0
C5794 C 0.00856 0.60227 0.73008 0.0
C5795 C 0.9846 0.58582 0.72769 0.0
C5796 C 0.97255 0.57237 0.73008 0.0
C5797 C 0.96959 0.56702 0.74321 0.0
C5798 C 0.95831 0.55428 0.74536 0.0
C5799 C 0.94987 0.54683 0.73447 0.0
C5800 C 0.95267 0.55211 0.72141 0.0
C5801 C 0.96393 0.56484 0.71921 0.0
H5802 H 0.94115 0.53696 0.73615 0.0
H5803 H 0.05027 0.66101 0.71601 0.0
H5804 H 0.34095 0.36173 0.69722 0.0
H5805 H 0.35326 0.38348 0.70899 0.0
H5806 H 0.38973 0.38165 0.7073 0.0
H5807 H 0.37743 0.35982 0.69519 0.0
H5808 H 0.36486 0.38892 0.7331 0.0
H5809 H 0.41673 0.41403 0.70754 0.0
H5810 H 0.42688 0.41414 0.68539 0.0
H5811 H 0.3897 0.4036 0.66511 0.0
H5812 H 0.37939 0.40352 0.68713 0.0
H5813 H 0.40968 0.44673 0.77211 0.0
H5814 H 0.40098 0.42589 0.7586 0.0
H5815 H 0.39599 0.44555 0.7241 0.0
H5816 H 0.40493 0.46652 0.73753 0.0
H5817 H 0.40603 0.42941 0.71654 0.0
H5818 H 0.36953 0.426 0.74383 0.0
H5819 H 0.35858 0.42645 0.76523 0.0
H5820 H 0.36308 0.3943 0.78049 0.0
H5821 H 0.37424 0.3938 0.75924 0.0
C5822 C 0.35161 0.36596 0.69925 0.0
C5823 C 0.35821 0.35902 0.69533 0.0
C5824 C 0.35863 0.3784 0.70601 0.0
C5825 C 0.37241 0.3842 0.70904 0.0
C5826 C 0.37913 0.37743 0.70494 0.0
C5827 C 0.37209 0.36495 0.69806 0.0
C5828 C 0.37942 0.39705 0.71698 0.0
C5829 C 0.37389 0.39775 0.72948 0.0
C5830 C 0.39118 0.40859 0.71227 0.0
C5831 C 0.39727 0.40864 0.69898 0.0
C5832 C 0.41074 0.41176 0.69834 0.0
C5833 C 0.41652 0.4118 0.68582 0.0
C5834 C 0.40892 0.40883 0.67385 0.0
C5835 C 0.39555 0.40584 0.67439 0.0
C5836 C 0.38973 0.40576 0.68689 0.0
C5837 C 0.40691 0.44665 0.76158 0.0
C5838 C 0.40814 0.45829 0.7558 0.0
C5839 C 0.4019 0.43474 0.7539 0.0
C5840 C 0.3978 0.43417 0.74037 0.0
C5841 C 0.39919 0.44581 0.7345 0.0
C5842 C 0.40425 0.45775 0.74218 0.0
C5843 C 0.39138 0.42126 0.73256 0.0
C5844 C 0.39705 0.42053 0.72016 0.0
C5845 C 0.37962 0.40972 0.73726 0.0
C5846 C 0.37284 0.40995 0.75 0.0
C5847 C 0.36827 0.41909 0.75179 0.0
C5848 C 0.36201 0.41935 0.76388 0.0
C5849 C 0.36016 0.41043 0.77423 0.0
C5850 C 0.36454 0.40122 0.77248 0.0
C5851 C 0.37082 0.40093 0.76041 0.0
H5852 H 0.35532 0.41064 0.78359 0.0
H5853 H 0.41341 0.40888 0.66417 0.0
H5854 H 0.64936 0.0031 0.68386 0.0
H5855 H 0.62818 0.99344 0.69641 0.0
H5856 H 0.63673 0.03341 0.70747 0.0
H5857 H 0.65775 0.04315 0.69481 0.0
H5858 H 0.62346 0.99511 0.72284 0.0
H5859 H 0.60791 0.03394 0.70933 0.0
H5860 H 0.61038 0.04879 0.69044 0.0
H5861 H 0.61397 0.02201 0.6622 0.0
H5862 H 0.61137 0.00691 0.68088 0.0
H5863 H 0.57682 0.99554 0.76949 0.0
H5864 H 0.59588 0.002 0.75423 0.0
H5865 H 0.56831 0.98329 0.72043 0.0
H5866 H 0.54917 0.97676 0.73569 0.0
H5867 H 0.58946 0.0085 0.71449 0.0
H5868 H 0.58302 0.96771 0.73334 0.0
H5869 H 0.5801 0.95225 0.75176 0.0
H5870 H 0.61922 0.98106 0.76784 0.0
H5871 H 0.62229 0.99679 0.74964 0.0
C5872 C 0.64671 0.00984 0.68891 0.0
C5873 C 0.65523 0.02391 0.68827 0.0
C5874 C 0.63462 0.0043 0.6961 0.0
C5875 C 0.63081 0.01271 0.70274 0.0
C5876 C 0.63935 0.02673 0.70222 0.0
C5877 C 0.6514 0.03228 0.69501 0.0
C5878 C 0.61803 0.00686 0.71044 0.0
C5879 C 0.616 0.99799 0.72098 0.0
C5880 C 0.60822 0.01048 0.70789 0.0
C5881 C 0.60954 0.01935 0.69653 0.0
C5882 C 0.60915 0.03118 0.69907 0.0
C5883 C 0.6106 0.03965 0.68841 0.0
C5884 C 0.61236 0.03636 0.67513 0.0
C5885 C 0.61265 0.02457 0.67249 0.0
C5886 C 0.6112 0.01606 0.68312 0.0
C5887 C 0.57484 0.99278 0.75881 0.0
C5888 C 0.56153 0.98567 0.75376 0.0
C5889 C 0.58571 0.99644 0.75012 0.0
C5890 C 0.58348 0.99303 0.73623 0.0
C5891 C 0.57022 0.986 0.73113 0.0
C5892 C 0.55932 0.98227 0.73984 0.0
C5893 C 0.59504 0.99699 0.72704 0.0
C5894 C 0.59687 0.00553 0.71626 0.0
C5895 C 0.60459 0.99296 0.72929 0.0
C5896 C 0.60284 0.98347 0.74017 0.0
C5897 C 0.59096 0.97079 0.74086 0.0
C5898 C 0.58929 0.96197 0.75125 0.0
C5899 C 0.59946 0.96568 0.76098 0.0
C5900 C 0.61135 0.97821 0.76031 0.0
C5901 C 0.61307 0.98707 0.74994 0.0
H5902 H 0.59814 0.95885 0.76902 0.0
H5903 H 0.6135 0.04294 0.66689 0.0
loop_
_geom_bond_atom_site_label_1
_geom_bond_atom_site_label_2
_geom_bond_distance
_geom_bond_site_symmetry_2
_ccdc_geom_bond_type
C0 O1 1.337 . S
C0 O3 1.149 1_655 S
O1 C0 1.337 . S
O1 Cd2 2.211 1_556 S
Cd2 O1 2.211 1_554 S
Cd2 O6 2.273 . S
Cd2 O10 2.321 1_554 S
O3 C0 1.149 1_455 S
O3 Cd4 2.204 1_556 S
Cd4 O3 2.204 1_554 S
Cd4 O6 2.411 1_455 S
Cd4 O7 2.333 . S
Cd4 O8 2.352 . S
Cd4 O12 2.277 1_554 S
Cd4 O13 2.356 . S
C5 O10 1.160 1_455 S
C5 O12 1.226 . S
O6 Cd2 2.273 . S
O6 Cd4 2.411 1_655 S
O6 C9 1.320 1_655 S
O7 Cd4 2.333 . S
O7 C9 1.214 . S
O8 Cd4 2.352 . S
O8 C11 1.258 . S
C9 O6 1.320 1_455 S
C9 O7 1.214 . S
O10 Cd2 2.321 1_556 S
O10 C5 1.160 1_655 S
C11 O8 1.258 . S
C11 O13 1.282 . S
O12 Cd4 2.277 1_556 S
O12 C5 1.226 . S
O13 Cd4 2.356 . S
O13 C11 1.282 . S
C14 O15 1.306 . S
C14 O17 1.160 . S
O15 C14 1.306 . S
O15 Cd16 2.228 . S
Cd16 O15 2.228 . S
Cd16 O20 2.273 . S
Cd16 O24 2.277 . S
O17 C14 1.160 . S
O17 Cd18 2.203 . S
Cd18 O17 2.203 . S
Cd18 O20 2.411 . S
Cd18 O21 2.333 1_554 S
Cd18 O22 2.352 1_554 S
Cd18 O26 2.277 . S
Cd18 O27 2.356 . S
C19 O24 1.209 . S
C19 O26 1.226 . S
O20 Cd16 2.273 . S
O20 Cd18 2.411 . S
O20 C23 1.320 1_554 S
O21 Cd18 2.333 1_556 S
O21 C23 1.214 . S
O22 Cd18 2.352 1_556 S
O22 C25 1.262 . S
C23 O20 1.320 1_556 S
C23 O21 1.214 . S
O24 Cd16 2.277 . S
O24 C19 1.209 . S
C25 O22 1.262 . S
C25 O27 1.259 1_556 S
O26 Cd18 2.277 . S
O26 C19 1.226 . S
O27 Cd18 2.356 . S
O27 C25 1.259 1_554 S
C28 O29 1.306 . S
C28 O31 1.164 1_565 S
O29 C28 1.306 . S
O29 Cd30 2.228 . S
Cd30 O29 2.228 . S
Cd30 O34 2.273 1_554 S
Cd30 O38 2.334 . S
O31 C28 1.164 1_545 S
O31 Cd32 2.203 . S
Cd32 O31 2.203 . S
Cd32 O34 2.411 1_544 S
Cd32 O35 2.333 1_554 S
Cd32 O36 2.352 1_554 S
Cd32 O40 2.277 . S
Cd32 O41 2.356 . S
C33 O38 1.146 1_545 S
C33 O40 1.226 . S
O34 Cd30 2.273 1_556 S
O34 Cd32 2.411 1_566 S
O34 C37 1.320 1_565 S
O35 Cd32 2.333 1_556 S
O35 C37 1.214 . S
O36 Cd32 2.352 1_556 S
O36 C39 1.258 . S
C37 O34 1.320 1_545 S
C37 O35 1.214 . S
O38 Cd30 2.334 . S
O38 C33 1.146 1_565 S
C39 O36 1.258 . S
C39 O41 1.282 1_556 S
O40 Cd32 2.277 . S
O40 C33 1.226 . S
O41 Cd32 2.356 . S
O41 C39 1.282 1_554 S
C42 O43 1.306 1_556 S
C42 O45 1.164 . S
O43 C42 1.306 1_554 S
O43 Cd44 2.228 . S
Cd44 O43 2.228 . S
Cd44 O48 2.273 . S
Cd44 O52 2.277 1_554 S
O45 C42 1.164 . S
O45 Cd46 2.175 1_656 S
Cd46 O45 2.175 1_454 S
Cd46 O48 2.411 1_455 S
Cd46 O49 2.333 . S
Cd46 O50 2.352 . S
Cd46 O54 2.277 1_554 S
Cd46 O55 2.356 . S
C47 O52 1.209 1_455 S
C47 O54 1.226 . S
O48 Cd44 2.273 . S
O48 Cd46 2.411 1_655 S
O48 C51 1.320 . S
O49 Cd46 2.333 . S
O49 C51 1.214 1_455 S
O50 Cd46 2.352 . S
O50 C53 1.258 . S
C51 O48 1.320 . S
C51 O49 1.214 1_655 S
O52 Cd44 2.277 1_556 S
O52 C47 1.209 1_655 S
C53 O50 1.258 . S
C53 O55 1.282 . S
O54 Cd46 2.277 1_556 S
O54 C47 1.226 . S
O55 Cd46 2.356 . S
O55 C53 1.282 . S
C56 O57 1.306 . S
C56 O59 1.160 . S
O57 C56 1.306 . S
O57 Cd58 2.228 . S
Cd58 O57 2.228 . S
Cd58 O62 2.273 1_554 S
Cd58 O66 2.277 . S
O59 C56 1.160 . S
O59 Cd60 2.203 . S
Cd60 O59 2.203 . S
Cd60 O62 2.411 1_554 S
Cd60 O63 2.333 1_554 S
Cd60 O64 2.352 1_554 S
Cd60 O68 2.277 . S
Cd60 O69 2.356 1_554 S
C61 O66 1.209 . S
C61 O68 1.226 . S
O62 Cd58 2.273 1_556 S
O62 Cd60 2.411 1_556 S
O62 C65 1.320 . S
O63 Cd60 2.333 1_556 S
O63 C65 1.214 . S
O64 Cd60 2.352 1_556 S
O64 C67 1.258 . S
C65 O62 1.320 . S
C65 O63 1.214 . S
O66 Cd58 2.277 . S
O66 C61 1.209 . S
C67 O64 1.258 . S
C67 O69 1.282 . S
O68 Cd60 2.277 . S
O68 C61 1.226 . S
O69 Cd60 2.356 1_556 S
O69 C67 1.282 . S
C70 O71 1.280 1_556 S
C70 O73 1.158 . S
O71 C70 1.280 1_554 S
O71 Cd72 2.228 . S
Cd72 O71 2.228 . S
Cd72 O76 2.273 . S
Cd72 O80 2.277 1_554 S
O73 C70 1.158 . S
O73 Cd74 2.183 1_546 S
Cd74 O73 2.183 1_564 S
Cd74 O76 2.411 1_565 S
Cd74 O77 2.333 . S
Cd74 O78 2.352 . S
Cd74 O82 2.277 1_554 S
Cd74 O83 2.356 . S
C75 O80 1.209 1_565 S
C75 O82 1.226 . S
O76 Cd72 2.273 . S
O76 Cd74 2.411 1_545 S
O76 C79 1.320 . S
O77 Cd74 2.333 . S
O77 C79 1.214 1_565 S
O78 Cd74 2.352 . S
O78 C81 1.258 . S
C79 O76 1.320 . S
C79 O77 1.214 1_545 S
O80 Cd72 2.277 1_556 S
O80 C75 1.209 1_545 S
C81 O78 1.258 . S
C81 O83 1.282 . S
O82 Cd74 2.277 1_556 S
O82 C75 1.226 . S
O83 Cd74 2.356 . S
O83 C81 1.282 . S
C84 O85 1.306 . S
C84 O87 1.160 . S
O85 C84 1.306 . S
O85 Cd86 2.228 . S
Cd86 O85 2.228 . S
Cd86 O90 2.273 . S
Cd86 O94 2.277 . S
O87 C84 1.160 . S
O87 Cd88 2.203 . S
Cd88 O87 2.203 . S
Cd88 O90 2.411 . S
Cd88 O91 2.333 . S
Cd88 O92 2.352 . S
Cd88 O96 2.277 . S
Cd88 O97 2.356 . S
C89 O94 1.209 . S
C89 O96 1.226 . S
O90 Cd86 2.273 . S
O90 Cd88 2.411 . S
O90 C93 1.320 . S
O91 Cd88 2.333 . S
O91 C93 1.214 . S
O92 Cd88 2.352 . S
O92 C95 1.258 . S
C93 O90 1.320 . S
C93 O91 1.214 . S
O94 Cd86 2.277 . S
O94 C89 1.209 . S
C95 O92 1.258 . S
C95 O97 1.282 . S
O96 Cd88 2.277 . S
O96 C89 1.226 . S
O97 Cd88 2.356 . S
O97 C95 1.282 . S
C98 O99 1.306 . S
C98 O101 1.119 1_545 S
O99 C98 1.306 . S
O99 Cd100 2.228 1_545 S
Cd100 O99 2.228 1_565 S
Cd100 O104 2.273 . S
Cd100 O108 2.277 . S
O101 C98 1.119 1_565 S
O101 Cd102 2.234 . S
Cd102 O101 2.234 . S
Cd102 O104 2.411 . S
Cd102 O105 2.333 . S
Cd102 O106 2.352 . S
Cd102 O110 2.277 . S
Cd102 O111 2.356 . S
C103 O108 1.209 . S
C103 O110 1.226 . S
O104 Cd100 2.273 . S
O104 Cd102 2.411 . S
O104 C107 1.320 . S
O105 Cd102 2.333 . S
O105 C107 1.214 . S
O106 Cd102 2.352 . S
O106 C109 1.258 . S
C107 O104 1.320 . S
C107 O105 1.214 . S
O108 Cd100 2.277 . S
O108 C103 1.209 . S
C109 O106 1.258 . S
C109 O111 1.282 . S
O110 Cd102 2.277 . S
O110 C103 1.226 . S
O111 Cd102 2.356 . S
O111 C109 1.282 . S
C112 O113 1.306 . S
C112 O115 1.160 . S
O113 C112 1.306 . S
O113 Cd114 2.228 . S
Cd114 O113 2.228 . S
Cd114 O118 2.273 . S
Cd114 O122 2.277 . S
O115 C112 1.160 . S
O115 Cd116 2.203 . S
Cd116 O115 2.203 . S
Cd116 O118 2.411 . S
Cd116 O119 2.333 . S
Cd116 O120 2.352 . S
Cd116 O124 2.277 . S
Cd116 O125 2.356 . S
C117 O122 1.209 . S
C117 O124 1.226 . S
O118 Cd114 2.273 . S
O118 Cd116 2.411 . S
O118 C121 1.320 . S
O119 Cd116 2.333 . S
O119 C121 1.214 . S
O120 Cd116 2.352 . S
O120 C123 1.258 . S
C121 O118 1.320 . S
C121 O119 1.214 . S
O122 Cd114 2.277 . S
O122 C117 1.209 . S
C123 O120 1.258 . S
C123 O125 1.282 . S
O124 Cd116 2.277 . S
O124 C117 1.226 . S
O125 Cd116 2.356 . S
O125 C123 1.282 . S
C126 O127 1.306 . S
C126 O129 1.160 . S
O127 C126 1.306 . S
O127 Cd128 2.228 . S
Cd128 O127 2.228 . S
Cd128 O132 2.273 . S
Cd128 O136 2.277 . S
O129 C126 1.160 . S
O129 Cd130 2.203 . S
Cd130 O129 2.203 . S
Cd130 O132 2.411 . S
Cd130 O133 2.333 . S
Cd130 O134 2.352 1_565 S
Cd130 O138 2.277 . S
Cd130 O139 2.356 1_565 S
C131 O136 1.209 . S
C131 O138 1.226 . S
O132 Cd128 2.273 . S
O132 Cd130 2.411 . S
O132 C135 1.320 . S
O133 Cd130 2.333 . S
O133 C135 1.214 . S
O134 Cd130 2.352 1_545 S
O134 C137 1.258 . S
C135 O132 1.320 . S
C135 O133 1.214 . S
O136 Cd128 2.277 . S
O136 C131 1.209 . S
C137 O134 1.258 . S
C137 O139 1.282 . S
O138 Cd130 2.277 . S
O138 C131 1.226 . S
O139 Cd130 2.356 1_545 S
O139 C137 1.282 . S
C140 O141 1.306 1_655 S
C140 O143 1.160 1_655 S
O141 C140 1.306 1_455 S
O141 Cd142 2.228 . S
Cd142 O141 2.228 . S
Cd142 O146 2.273 . S
Cd142 O150 2.277 . S
O143 C140 1.160 1_455 S
O143 Cd144 2.203 . S
Cd144 O143 2.203 . S
Cd144 O146 2.411 . S
Cd144 O147 2.333 . S
Cd144 O148 2.352 . S
Cd144 O152 2.277 . S
Cd144 O153 2.356 . S
C145 O150 1.209 . S
C145 O152 1.226 . S
O146 Cd142 2.273 . S
O146 Cd144 2.411 . S
O146 C149 1.320 . S
O147 Cd144 2.333 . S
O147 C149 1.214 . S
O148 Cd144 2.352 . S
O148 C151 1.258 . S
C149 O146 1.320 . S
C149 O147 1.214 . S
O150 Cd142 2.277 . S
O150 C145 1.209 . S
C151 O148 1.258 . S
C151 O153 1.282 . S
O152 Cd144 2.277 . S
O152 C145 1.226 . S
O153 Cd144 2.356 . S
O153 C151 1.282 . S
C154 O155 1.306 . S
C154 O157 1.160 . S
O155 C154 1.306 . S
O155 Cd156 2.228 . S
Cd156 O155 2.228 . S
Cd156 O160 2.273 . S
Cd156 O164 2.277 . S
O157 C154 1.160 . S
O157 Cd158 2.203 . S
Cd158 O157 2.203 . S
Cd158 O160 2.411 . S
Cd158 O161 2.333 . S
Cd158 O162 2.352 . S
Cd158 O166 2.277 . S
Cd158 O167 2.356 . S
C159 O164 1.209 . S
C159 O166 1.226 . S
O160 Cd156 2.273 . S
O160 Cd158 2.411 . S
O160 C163 1.320 . S
O161 Cd158 2.333 . S
O161 C163 1.214 . S
O162 Cd158 2.352 . S
O162 C165 1.258 . S
C163 O160 1.320 . S
C163 O161 1.214 . S
O164 Cd156 2.277 . S
O164 C159 1.209 . S
C165 O162 1.258 . S
C165 O167 1.282 . S
O166 Cd158 2.277 . S
O166 C159 1.226 . S
O167 Cd158 2.356 . S
O167 C165 1.282 . S
C168 O169 1.270 1_565 S
C168 O171 1.160 1_565 S
O169 C168 1.270 1_545 S
O169 Cd170 2.280 . S
Cd170 O169 2.280 . S
Cd170 O174 2.273 . S
Cd170 O178 2.277 . S
O171 C168 1.160 1_545 S
O171 Cd172 2.203 . S
Cd172 O171 2.203 . S
Cd172 O174 2.411 . S
Cd172 O175 2.333 . S
Cd172 O176 2.352 . S
Cd172 O180 2.277 . S
Cd172 O181 2.356 . S
C173 O178 1.209 . S
C173 O180 1.226 . S
O174 Cd170 2.273 . S
O174 Cd172 2.411 . S
O174 C177 1.320 . S
O175 Cd172 2.333 . S
O175 C177 1.214 . S
O176 Cd172 2.352 . S
O176 C179 1.258 . S
C177 O174 1.320 . S
C177 O175 1.214 . S
O178 Cd170 2.277 . S
O178 C173 1.209 . S
C179 O176 1.258 . S
C179 O181 1.282 . S
O180 Cd172 2.277 . S
O180 C173 1.226 . S
O181 Cd172 2.356 . S
O181 C179 1.282 . S
C182 O183 1.306 . S
C182 O185 1.160 . S
O183 C182 1.306 . S
O183 Cd184 2.228 . S
Cd184 O183 2.228 . S
Cd184 O188 2.273 . S
Cd184 O192 2.277 . S
O185 C182 1.160 . S
O185 Cd186 2.203 . S
Cd186 O185 2.203 . S
Cd186 O188 2.411 . S
Cd186 O189 2.333 . S
Cd186 O190 2.352 1_655 S
Cd186 O194 2.277 . S
Cd186 O195 2.356 1_655 S
C187 O192 1.209 . S
C187 O194 1.226 . S
O188 Cd184 2.273 . S
O188 Cd186 2.411 . S
O188 C191 1.320 . S
O189 Cd186 2.333 . S
O189 C191 1.214 . S
O190 Cd186 2.352 1_455 S
O190 C193 1.258 . S
C191 O188 1.320 . S
C191 O189 1.214 . S
O192 Cd184 2.277 . S
O192 C187 1.209 . S
C193 O190 1.258 . S
C193 O195 1.282 . S
O194 Cd186 2.277 . S
O194 C187 1.226 . S
O195 Cd186 2.356 1_455 S
O195 C193 1.282 . S
C196 O197 1.306 . S
C196 O199 1.160 . S
O197 C196 1.306 . S
O197 Cd198 2.228 . S
Cd198 O197 2.228 . S
Cd198 O202 2.273 . S
Cd198 O206 2.277 . S
O199 C196 1.160 . S
O199 Cd200 2.203 . S
Cd200 O199 2.203 . S
Cd200 O202 2.411 . S
Cd200 O203 2.333 . S
Cd200 O204 2.352 . S
Cd200 O208 2.277 . S
Cd200 O209 2.356 . S
C201 O206 1.209 . S
C201 O208 1.226 . S
O202 Cd198 2.273 . S
O202 Cd200 2.411 . S
O202 C205 1.320 . S
O203 Cd200 2.333 . S
O203 C205 1.214 . S
O204 Cd200 2.352 . S
O204 C207 1.258 . S
C205 O202 1.320 . S
C205 O203 1.214 . S
O206 Cd198 2.277 . S
O206 C201 1.209 . S
C207 O204 1.258 . S
C207 O209 1.282 . S
O208 Cd200 2.277 . S
O208 C201 1.226 . S
O209 Cd200 2.356 . S
O209 C207 1.282 . S
C210 O211 1.306 . S
C210 O213 1.160 . S
O211 C210 1.306 . S
O211 Cd212 2.228 . S
Cd212 O211 2.228 . S
Cd212 O216 2.273 . S
Cd212 O220 2.277 . S
O213 C210 1.160 . S
O213 Cd214 2.203 . S
Cd214 O213 2.203 . S
Cd214 O216 2.411 . S
Cd214 O217 2.333 . S
Cd214 O218 2.352 . S
Cd214 O222 2.277 . S
Cd214 O223 2.356 . S
C215 O220 1.209 . S
C215 O222 1.226 . S
O216 Cd212 2.273 . S
O216 Cd214 2.411 . S
O216 C219 1.320 . S
O217 Cd214 2.333 . S
O217 C219 1.214 . S
O218 Cd214 2.352 . S
O218 C221 1.258 . S
C219 O216 1.320 . S
C219 O217 1.214 . S
O220 Cd212 2.277 . S
O220 C215 1.209 . S
C221 O218 1.258 . S
C221 O223 1.282 . S
O222 Cd214 2.277 . S
O222 C215 1.226 . S
O223 Cd214 2.356 . S
O223 C221 1.282 . S
C224 O225 1.306 . S
C224 O227 1.160 . S
O225 C224 1.306 . S
O225 Cd226 2.228 . S
Cd226 O225 2.228 . S
Cd226 O230 2.273 . S
Cd226 O234 2.277 . S
O227 C224 1.160 . S
O227 Cd228 2.203 . S
Cd228 O227 2.203 . S
Cd228 O230 2.411 . S
Cd228 O231 2.333 . S
Cd228 O232 2.352 . S
Cd228 O236 2.277 . S
Cd228 O237 2.356 1_545 S
C229 O234 1.209 . S
C229 O236 1.226 . S
O230 Cd226 2.273 . S
O230 Cd228 2.411 . S
O230 C233 1.320 . S
O231 Cd228 2.333 . S
O231 C233 1.214 . S
O232 Cd228 2.352 . S
O232 C235 1.258 1_545 S
C233 O230 1.320 . S
C233 O231 1.214 . S
O234 Cd226 2.277 . S
O234 C229 1.209 . S
C235 O232 1.258 1_565 S
C235 O237 1.282 . S
O236 Cd228 2.277 . S
O236 C229 1.226 . S
O237 Cd228 2.356 1_565 S
O237 C235 1.282 . S
C238 O239 1.306 . S
C238 O241 1.160 1_455 S
O239 C238 1.306 . S
O239 Cd240 2.228 1_455 S
Cd240 O239 2.228 1_655 S
Cd240 O244 2.273 . S
Cd240 O248 2.277 . S
O241 C238 1.160 1_655 S
O241 Cd242 2.203 . S
Cd242 O241 2.203 . S
Cd242 O244 2.411 . S
Cd242 O245 2.333 . S
Cd242 O246 2.352 . S
Cd242 O250 2.277 . S
Cd242 O251 2.356 . S
C243 O248 1.209 . S
C243 O250 1.226 . S
O244 Cd240 2.273 . S
O244 Cd242 2.411 . S
O244 C247 1.320 . S
O245 Cd242 2.333 . S
O245 C247 1.214 . S
O246 Cd242 2.352 . S
O246 C249 1.258 . S
C247 O244 1.320 . S
C247 O245 1.214 . S
O248 Cd240 2.277 . S
O248 C243 1.209 . S
C249 O246 1.258 . S
C249 O251 1.282 . S
O250 Cd242 2.277 . S
O250 C243 1.226 . S
O251 Cd242 2.356 . S
O251 C249 1.282 . S
C252 C253 1.560 . S
C252 H313 0.959 . S
C252 H314 0.959 . S
C252 H315 0.960 . S
C253 C252 1.560 . S
C253 O308 1.426 . S
C253 H312 0.980 . S
C254 C255 1.407 . S
C254 C259 1.418 . S
C254 O308 1.334 . S
C255 C254 1.407 . S
C255 C256 1.360 . S
C255 H316 0.929 . S
C256 C255 1.360 . S
C256 C257 1.401 . S
C256 C260 1.527 . S
C257 C256 1.401 . S
C257 C258 1.405 . S
C257 C290 1.587 . S
C258 C257 1.405 . S
C258 C259 1.332 . S
C258 C261 1.496 . S
C259 C254 1.418 . S
C259 C258 1.332 . S
C259 H317 0.929 . S
C260 C256 1.527 . S
C260 H318 0.959 . S
C260 H319 0.961 . S
C260 H320 0.961 . S
C261 C258 1.496 . S
C261 H321 0.960 . S
C261 H322 0.960 . S
C261 H323 0.961 . S
C262 C263 1.517 . S
C262 H325 0.961 . S
C262 H326 0.960 . S
C262 H327 0.959 . S
C263 C262 1.517 . S
C263 O311 1.468 . S
C263 H324 0.980 . S
C264 C265 1.349 . S
C264 C269 1.367 . S
C264 O311 1.408 . S
C265 C264 1.349 . S
C265 C266 1.407 . S
C265 H328 0.930 . S
C266 C265 1.407 . S
C266 C267 1.449 . S
C266 C270 1.535 . S
C267 C266 1.449 . S
C267 C268 1.384 . S
C267 C292 1.553 . S
C268 C267 1.384 . S
C268 C269 1.364 . S
C268 C271 1.450 . S
C269 C264 1.367 . S
C269 C268 1.364 . S
C269 H329 0.931 . S
C270 C266 1.535 . S
C270 H330 0.959 . S
C270 H331 0.961 . S
C270 H332 0.959 . S
C271 C268 1.450 . S
C271 H333 0.960 . S
C271 H334 0.960 . S
C271 H335 0.960 . S
C272 C273 1.309 . S
C272 C277 1.304 . S
C272 O310 1.435 . S
C273 C272 1.309 . S
C273 C274 1.476 . S
C273 H337 0.930 . S
C274 C273 1.476 . S
C274 C275 1.400 . S
C274 C278 1.567 . S
C275 C274 1.400 . S
C275 C276 1.373 . S
C275 C297 1.432 . S
C276 C275 1.373 . S
C276 C277 1.339 . S
C276 C279 1.530 . S
C277 C272 1.304 . S
C277 C276 1.339 . S
C277 H338 0.930 . S
C278 C274 1.567 . S
C278 H339 0.961 . S
C278 H340 0.960 . S
C278 H341 0.958 . S
C279 C276 1.530 . S
C279 H342 0.961 . S
C279 H343 0.960 . S
C279 H344 0.960 . S
C280 C281 1.530 . S
C280 H346 0.961 . S
C280 H347 0.961 . S
C280 H348 0.959 . S
C281 C280 1.530 . S
C281 O309 1.412 . S
C281 H345 0.980 . S
C282 C283 1.288 . S
C282 C287 1.377 . S
C282 O309 1.393 . S
C283 C282 1.288 . S
C283 C284 1.369 . S
C283 H349 0.932 . S
C284 C283 1.369 . S
C284 C285 1.398 . S
C284 C288 1.527 . S
C285 C284 1.398 . S
C285 C286 1.380 . S
C285 C299 1.497 . S
C286 C285 1.380 . S
C286 C287 1.383 . S
C286 C289 1.603 . S
C287 C282 1.377 . S
C287 C286 1.383 . S
C287 H350 0.929 . S
C288 C284 1.527 . S
C288 H351 0.961 . S
C288 H352 0.959 . S
C288 H353 0.959 . S
C289 C286 1.603 . S
C289 H354 0.960 . S
C289 H355 0.962 . S
C289 H356 0.961 . S
C290 C257 1.587 . S
C290 C291 1.360 . S
C290 C303 1.412 . S
C291 C290 1.360 . S
C291 C292 1.365 . S
C291 H357 0.929 . S
C292 C267 1.553 . S
C292 C291 1.365 . S
C292 C293 1.404 . S
C293 C292 1.404 . S
C293 C294 1.395 . S
C293 C304 1.451 . S
C294 C293 1.395 . S
C294 C295 1.322 . S
C294 H358 0.930 . S
C295 C294 1.322 . S
C295 C296 1.459 . S
C295 H359 0.929 . S
C296 C295 1.459 . S
C296 C297 1.445 . S
C296 C305 1.395 . S
C297 C275 1.432 . S
C297 C296 1.445 . S
C297 C298 1.370 . S
C298 C297 1.370 . S
C298 C299 1.438 . S
C298 H360 0.930 . S
C299 C285 1.497 . S
C299 C298 1.438 . S
C299 C300 1.360 . S
C300 C299 1.360 . S
C300 C301 1.401 . S
C300 C305 1.446 . S
C301 C300 1.401 . S
C301 C302 1.347 . S
C301 H361 0.929 . S
C302 C301 1.347 . S
C302 C303 1.455 . S
C302 H362 0.930 . S
C303 C290 1.412 . S
C303 C302 1.455 . S
C303 C304 1.331 . S
C304 C293 1.451 . S
C304 C303 1.331 . S
C304 C305 1.497 . S
C305 C296 1.395 . S
C305 C300 1.446 . S
C305 C304 1.497 . S
C306 C307 1.582 . S
C306 H363 0.962 . S
C306 H364 0.959 . S
C306 H365 0.958 . S
C307 C306 1.582 . S
C307 O310 1.458 . S
C307 H336 0.980 . S
O308 C253 1.426 . S
O308 C254 1.334 . S
O309 C281 1.412 . S
O309 C282 1.393 . S
O310 C272 1.435 . S
O310 C307 1.458 . S
O311 C263 1.468 . S
O311 C264 1.408 . S
H312 C253 0.980 . S
H313 C252 0.959 . S
H314 C252 0.959 . S
H315 C252 0.960 . S
H316 C255 0.929 . S
H317 C259 0.929 . S
H318 C260 0.959 . S
H319 C260 0.961 . S
H320 C260 0.961 . S
H321 C261 0.960 . S
H322 C261 0.960 . S
H323 C261 0.961 . S
H324 C263 0.980 . S
H325 C262 0.961 . S
H326 C262 0.960 . S
H327 C262 0.959 . S
H328 C265 0.930 . S
H329 C269 0.931 . S
H330 C270 0.959 . S
H331 C270 0.961 . S
H332 C270 0.959 . S
H333 C271 0.960 . S
H334 C271 0.960 . S
H335 C271 0.960 . S
H336 C307 0.980 . S
H337 C273 0.930 . S
H338 C277 0.930 . S
H339 C278 0.961 . S
H340 C278 0.960 . S
H341 C278 0.958 . S
H342 C279 0.961 . S
H343 C279 0.960 . S
H344 C279 0.960 . S
H345 C281 0.980 . S
H346 C280 0.961 . S
H347 C280 0.961 . S
H348 C280 0.959 . S
H349 C283 0.932 . S
H350 C287 0.929 . S
H351 C288 0.961 . S
H352 C288 0.959 . S
H353 C288 0.959 . S
H354 C289 0.960 . S
H355 C289 0.962 . S
H356 C289 0.961 . S
H357 C291 0.929 . S
H358 C294 0.930 . S
H359 C295 0.929 . S
H360 C298 0.930 . S
H361 C301 0.929 . S
H362 C302 0.930 . S
H363 C306 0.962 . S
H364 C306 0.959 . S
H365 C306 0.958 . S
C366 C367 1.560 . S
C366 H427 0.959 . S
C366 H428 0.959 . S
C366 H429 0.960 . S
C367 C366 1.560 . S
C367 O422 1.426 . S
C367 H426 0.980 . S
C368 C369 1.407 . S
C368 C373 1.418 . S
C368 O422 1.334 . S
C369 C368 1.407 . S
C369 C370 1.360 . S
C369 H430 0.929 . S
C370 C369 1.360 . S
C370 C371 1.401 . S
C370 C374 1.527 . S
C371 C370 1.401 . S
C371 C372 1.405 . S
C371 C404 1.587 . S
C372 C371 1.405 . S
C372 C373 1.332 . S
C372 C375 1.496 . S
C373 C368 1.418 . S
C373 C372 1.332 . S
C373 H431 0.929 . S
C374 C370 1.527 . S
C374 H432 0.959 . S
C374 H433 0.961 . S
C374 H434 0.961 . S
C375 C372 1.496 . S
C375 H435 0.960 . S
C375 H436 0.960 . S
C375 H437 0.961 . S
C376 C377 1.517 . S
C376 H439 0.961 . S
C376 H440 0.960 . S
C376 H441 0.959 . S
C377 C376 1.517 . S
C377 O425 1.468 . S
C377 H438 0.980 . S
C378 C379 1.349 . S
C378 C383 1.367 . S
C378 O425 1.408 . S
C379 C378 1.349 . S
C379 C380 1.407 . S
C379 H442 0.930 . S
C380 C379 1.407 . S
C380 C381 1.449 . S
C380 C384 1.535 . S
C381 C380 1.449 . S
C381 C382 1.384 . S
C381 C406 1.553 . S
C382 C381 1.384 . S
C382 C383 1.364 . S
C382 C385 1.450 . S
C383 C378 1.367 . S
C383 C382 1.364 . S
C383 H443 0.931 . S
C384 C380 1.535 . S
C384 H444 0.959 . S
C384 H445 0.961 . S
C384 H446 0.959 . S
C385 C382 1.450 . S
C385 H447 0.960 . S
C385 H448 0.960 . S
C385 H449 0.960 . S
C386 C387 1.309 . S
C386 C391 1.304 . S
C386 O424 1.435 . S
C387 C386 1.309 . S
C387 C388 1.476 . S
C387 H451 0.930 . S
C388 C387 1.476 . S
C388 C389 1.400 . S
C388 C392 1.567 . S
C389 C388 1.400 . S
C389 C390 1.373 . S
C389 C411 1.432 . S
C390 C389 1.373 . S
C390 C391 1.339 . S
C390 C393 1.530 . S
C391 C386 1.304 . S
C391 C390 1.339 . S
C391 H452 0.930 . S
C392 C388 1.567 . S
C392 H453 0.961 . S
C392 H454 0.960 . S
C392 H455 0.958 . S
C393 C390 1.530 . S
C393 H456 0.961 . S
C393 H457 0.960 . S
C393 H458 0.960 . S
C394 C395 1.530 . S
C394 H460 0.961 . S
C394 H461 0.961 . S
C394 H462 0.959 . S
C395 C394 1.530 . S
C395 O423 1.412 . S
C395 H459 0.980 . S
C396 C397 1.288 . S
C396 C401 1.377 . S
C396 O423 1.393 . S
C397 C396 1.288 . S
C397 C398 1.369 . S
C397 H463 0.932 . S
C398 C397 1.369 . S
C398 C399 1.398 . S
C398 C402 1.527 . S
C399 C398 1.398 . S
C399 C400 1.380 . S
C399 C413 1.497 . S
C400 C399 1.380 . S
C400 C401 1.383 . S
C400 C403 1.603 . S
C401 C396 1.377 . S
C401 C400 1.383 . S
C401 H464 0.929 . S
C402 C398 1.527 . S
C402 H465 0.961 . S
C402 H466 0.959 . S
C402 H467 0.959 . S
C403 C400 1.603 . S
C403 H468 0.960 . S
C403 H469 0.962 . S
C403 H470 0.961 . S
C404 C371 1.587 . S
C404 C405 1.360 . S
C404 C417 1.412 . S
C405 C404 1.360 . S
C405 C406 1.365 . S
C405 H471 0.929 . S
C406 C381 1.553 . S
C406 C405 1.365 . S
C406 C407 1.404 . S
C407 C406 1.404 . S
C407 C408 1.395 . S
C407 C418 1.451 . S
C408 C407 1.395 . S
C408 C409 1.322 . S
C408 H472 0.930 . S
C409 C408 1.322 . S
C409 C410 1.459 . S
C409 H473 0.929 . S
C410 C409 1.459 . S
C410 C411 1.445 . S
C410 C419 1.395 . S
C411 C389 1.432 . S
C411 C410 1.445 . S
C411 C412 1.370 . S
C412 C411 1.370 . S
C412 C413 1.438 . S
C412 H474 0.930 . S
C413 C399 1.497 . S
C413 C412 1.438 . S
C413 C414 1.360 . S
C414 C413 1.360 . S
C414 C415 1.401 . S
C414 C419 1.446 . S
C415 C414 1.401 . S
C415 C416 1.347 . S
C415 H475 0.929 . S
C416 C415 1.347 . S
C416 C417 1.455 . S
C416 H476 0.930 . S
C417 C404 1.412 . S
C417 C416 1.455 . S
C417 C418 1.331 . S
C418 C407 1.451 . S
C418 C417 1.331 . S
C418 C419 1.497 . S
C419 C410 1.395 . S
C419 C414 1.446 . S
C419 C418 1.497 . S
C420 C421 1.582 . S
C420 H477 0.962 . S
C420 H478 0.959 . S
C420 H479 0.958 . S
C421 C420 1.582 . S
C421 O424 1.458 . S
C421 H450 0.980 . S
O422 C367 1.426 . S
O422 C368 1.334 . S
O423 C395 1.412 . S
O423 C396 1.393 . S
O424 C386 1.435 . S
O424 C421 1.458 . S
O425 C377 1.468 . S
O425 C378 1.408 . S
H426 C367 0.980 . S
H427 C366 0.959 . S
H428 C366 0.959 . S
H429 C366 0.960 . S
H430 C369 0.929 . S
H431 C373 0.929 . S
H432 C374 0.959 . S
H433 C374 0.961 . S
H434 C374 0.961 . S
H435 C375 0.960 . S
H436 C375 0.960 . S
H437 C375 0.961 . S
H438 C377 0.980 . S
H439 C376 0.961 . S
H440 C376 0.960 . S
H441 C376 0.959 . S
H442 C379 0.930 . S
H443 C383 0.931 . S
H444 C384 0.959 . S
H445 C384 0.961 . S
H446 C384 0.959 . S
H447 C385 0.960 . S
H448 C385 0.960 . S
H449 C385 0.960 . S
H450 C421 0.980 . S
H451 C387 0.930 . S
H452 C391 0.930 . S
H453 C392 0.961 . S
H454 C392 0.960 . S
H455 C392 0.958 . S
H456 C393 0.961 . S
H457 C393 0.960 . S
H458 C393 0.960 . S
H459 C395 0.980 . S
H460 C394 0.961 . S
H461 C394 0.961 . S
H462 C394 0.959 . S
H463 C397 0.932 . S
H464 C401 0.929 . S
H465 C402 0.961 . S
H466 C402 0.959 . S
H467 C402 0.959 . S
H468 C403 0.960 . S
H469 C403 0.962 . S
H470 C403 0.961 . S
H471 C405 0.929 . S
H472 C408 0.930 . S
H473 C409 0.929 . S
H474 C412 0.930 . S
H475 C415 0.929 . S
H476 C416 0.930 . S
H477 C420 0.962 . S
H478 C420 0.959 . S
H479 C420 0.958 . S
C480 C481 1.560 . S
C480 H541 0.959 . S
C480 H542 0.959 . S
C480 H543 0.960 . S
C481 C480 1.560 . S
C481 O536 1.426 . S
C481 H540 0.980 . S
C482 C483 1.407 . S
C482 C487 1.418 . S
C482 O536 1.334 . S
C483 C482 1.407 . S
C483 C484 1.360 . S
C483 H544 0.929 . S
C484 C483 1.360 . S
C484 C485 1.401 . S
C484 C488 1.527 . S
C485 C484 1.401 . S
C485 C486 1.405 . S
C485 C518 1.587 . S
C486 C485 1.405 . S
C486 C487 1.332 . S
C486 C489 1.496 . S
C487 C482 1.418 . S
C487 C486 1.332 . S
C487 H545 0.929 . S
C488 C484 1.527 . S
C488 H546 0.959 . S
C488 H547 0.961 . S
C488 H548 0.961 . S
C489 C486 1.496 . S
C489 H549 0.960 . S
C489 H550 0.960 . S
C489 H551 0.961 . S
C490 C491 1.517 . S
C490 H553 0.961 . S
C490 H554 0.960 . S
C490 H555 0.959 . S
C491 C490 1.517 . S
C491 O539 1.468 . S
C491 H552 0.980 . S
C492 C493 1.349 . S
C492 C497 1.367 . S
C492 O539 1.408 . S
C493 C492 1.349 . S
C493 C494 1.407 . S
C493 H556 0.930 . S
C494 C493 1.407 . S
C494 C495 1.449 . S
C494 C498 1.535 . S
C495 C494 1.449 . S
C495 C496 1.384 . S
C495 C520 1.553 . S
C496 C495 1.384 . S
C496 C497 1.364 . S
C496 C499 1.450 . S
C497 C492 1.367 . S
C497 C496 1.364 . S
C497 H557 0.931 . S
C498 C494 1.535 . S
C498 H558 0.959 . S
C498 H559 0.961 . S
C498 H560 0.959 . S
C499 C496 1.450 . S
C499 H561 0.960 . S
C499 H562 0.960 . S
C499 H563 0.960 . S
C500 C501 1.309 . S
C500 C505 1.304 . S
C500 O538 1.435 . S
C501 C500 1.309 . S
C501 C502 1.476 . S
C501 H565 0.930 . S
C502 C501 1.476 . S
C502 C503 1.400 . S
C502 C506 1.567 . S
C503 C502 1.400 . S
C503 C504 1.373 . S
C503 C525 1.432 . S
C504 C503 1.373 . S
C504 C505 1.339 . S
C504 C507 1.530 . S
C505 C500 1.304 . S
C505 C504 1.339 . S
C505 H566 0.930 . S
C506 C502 1.567 . S
C506 H567 0.961 . S
C506 H568 0.960 . S
C506 H569 0.958 . S
C507 C504 1.530 . S
C507 H570 0.961 . S
C507 H571 0.960 . S
C507 H572 0.960 . S
C508 C509 1.530 . S
C508 H574 0.961 . S
C508 H575 0.961 . S
C508 H576 0.959 . S
C509 C508 1.530 . S
C509 O537 1.412 . S
C509 H573 0.980 . S
C510 C511 1.288 . S
C510 C515 1.377 . S
C510 O537 1.393 . S
C511 C510 1.288 . S
C511 C512 1.369 . S
C511 H577 0.932 . S
C512 C511 1.369 . S
C512 C513 1.398 . S
C512 C516 1.527 . S
C513 C512 1.398 . S
C513 C514 1.380 . S
C513 C527 1.497 . S
C514 C513 1.380 . S
C514 C515 1.383 . S
C514 C517 1.603 . S
C515 C510 1.377 . S
C515 C514 1.383 . S
C515 H578 0.929 . S
C516 C512 1.527 . S
C516 H579 0.961 . S
C516 H580 0.959 . S
C516 H581 0.959 . S
C517 C514 1.603 . S
C517 H582 0.960 . S
C517 H583 0.962 . S
C517 H584 0.961 . S
C518 C485 1.587 . S
C518 C519 1.360 . S
C518 C531 1.412 . S
C519 C518 1.360 . S
C519 C520 1.365 . S
C519 H585 0.929 . S
C520 C495 1.553 . S
C520 C519 1.365 . S
C520 C521 1.404 . S
C521 C520 1.404 . S
C521 C522 1.395 . S
C521 C532 1.451 . S
C522 C521 1.395 . S
C522 C523 1.322 . S
C522 H586 0.930 . S
C523 C522 1.322 . S
C523 C524 1.459 . S
C523 H587 0.929 . S
C524 C523 1.459 . S
C524 C525 1.445 . S
C524 C533 1.395 . S
C525 C503 1.432 . S
C525 C524 1.445 . S
C525 C526 1.370 . S
C526 C525 1.370 . S
C526 C527 1.438 . S
C526 H588 0.930 . S
C527 C513 1.497 . S
C527 C526 1.438 . S
C527 C528 1.360 . S
C528 C527 1.360 . S
C528 C529 1.401 . S
C528 C533 1.446 . S
C529 C528 1.401 . S
C529 C530 1.347 . S
C529 H589 0.929 . S
C530 C529 1.347 . S
C530 C531 1.455 . S
C530 H590 0.930 . S
C531 C518 1.412 . S
C531 C530 1.455 . S
C531 C532 1.331 . S
C532 C521 1.451 . S
C532 C531 1.331 . S
C532 C533 1.497 . S
C533 C524 1.395 . S
C533 C528 1.446 . S
C533 C532 1.497 . S
C534 C535 1.582 . S
C534 H591 0.962 . S
C534 H592 0.959 . S
C534 H593 0.958 . S
C535 C534 1.582 . S
C535 O538 1.458 . S
C535 H564 0.980 . S
O536 C481 1.426 . S
O536 C482 1.334 . S
O537 C509 1.412 . S
O537 C510 1.393 . S
O538 C500 1.435 . S
O538 C535 1.458 . S
O539 C491 1.468 . S
O539 C492 1.408 . S
H540 C481 0.980 . S
H541 C480 0.959 . S
H542 C480 0.959 . S
H543 C480 0.960 . S
H544 C483 0.929 . S
H545 C487 0.929 . S
H546 C488 0.959 . S
H547 C488 0.961 . S
H548 C488 0.961 . S
H549 C489 0.960 . S
H550 C489 0.960 . S
H551 C489 0.961 . S
H552 C491 0.980 . S
H553 C490 0.961 . S
H554 C490 0.960 . S
H555 C490 0.959 . S
H556 C493 0.930 . S
H557 C497 0.931 . S
H558 C498 0.959 . S
H559 C498 0.961 . S
H560 C498 0.959 . S
H561 C499 0.960 . S
H562 C499 0.960 . S
H563 C499 0.960 . S
H564 C535 0.980 . S
H565 C501 0.930 . S
H566 C505 0.930 . S
H567 C506 0.961 . S
H568 C506 0.960 . S
H569 C506 0.958 . S
H570 C507 0.961 . S
H571 C507 0.960 . S
H572 C507 0.960 . S
H573 C509 0.980 . S
H574 C508 0.961 . S
H575 C508 0.961 . S
H576 C508 0.959 . S
H577 C511 0.932 . S
H578 C515 0.929 . S
H579 C516 0.961 . S
H580 C516 0.959 . S
H581 C516 0.959 . S
H582 C517 0.960 . S
H583 C517 0.962 . S
H584 C517 0.961 . S
H585 C519 0.929 . S
H586 C522 0.930 . S
H587 C523 0.929 . S
H588 C526 0.930 . S
H589 C529 0.929 . S
H590 C530 0.930 . S
H591 C534 0.962 . S
H592 C534 0.959 . S
H593 C534 0.958 . S
C594 C595 1.560 . S
C594 H655 0.959 . S
C594 H656 0.959 . S
C594 H657 0.960 . S
C595 C594 1.560 . S
C595 O650 1.426 . S
C595 H654 0.980 . S
C596 C597 1.407 . S
C596 C601 1.418 . S
C596 O650 1.334 . S
C597 C596 1.407 . S
C597 C598 1.360 . S
C597 H658 0.929 . S
C598 C597 1.360 . S
C598 C599 1.401 . S
C598 C602 1.527 . S
C599 C598 1.401 . S
C599 C600 1.405 . S
C599 C632 1.587 . S
C600 C599 1.405 . S
C600 C601 1.332 . S
C600 C603 1.496 . S
C601 C596 1.418 . S
C601 C600 1.332 . S
C601 H659 0.929 . S
C602 C598 1.527 . S
C602 H660 0.959 . S
C602 H661 0.961 . S
C602 H662 0.961 . S
C603 C600 1.496 . S
C603 H663 0.960 . S
C603 H664 0.960 . S
C603 H665 0.961 . S
C604 C605 1.517 . S
C604 H667 0.961 . S
C604 H668 0.960 . S
C604 H669 0.959 . S
C605 C604 1.517 . S
C605 O653 1.468 . S
C605 H666 0.980 . S
C606 C607 1.349 . S
C606 C611 1.367 . S
C606 O653 1.408 . S
C607 C606 1.349 . S
C607 C608 1.407 . S
C607 H670 0.930 . S
C608 C607 1.407 . S
C608 C609 1.449 . S
C608 C612 1.535 . S
C609 C608 1.449 . S
C609 C610 1.384 . S
C609 C634 1.553 . S
C610 C609 1.384 . S
C610 C611 1.364 . S
C610 C613 1.450 . S
C611 C606 1.367 . S
C611 C610 1.364 . S
C611 H671 0.931 . S
C612 C608 1.535 . S
C612 H672 0.959 . S
C612 H673 0.961 . S
C612 H674 0.959 . S
C613 C610 1.450 . S
C613 H675 0.960 . S
C613 H676 0.960 . S
C613 H677 0.960 . S
C614 C615 1.309 . S
C614 C619 1.304 . S
C614 O652 1.435 . S
C615 C614 1.309 . S
C615 C616 1.476 . S
C615 H679 0.930 . S
C616 C615 1.476 . S
C616 C617 1.400 . S
C616 C620 1.567 . S
C617 C616 1.400 . S
C617 C618 1.373 . S
C617 C639 1.432 . S
C618 C617 1.373 . S
C618 C619 1.339 . S
C618 C621 1.530 . S
C619 C614 1.304 . S
C619 C618 1.339 . S
C619 H680 0.930 . S
C620 C616 1.567 . S
C620 H681 0.961 . S
C620 H682 0.960 . S
C620 H683 0.958 . S
C621 C618 1.530 . S
C621 H684 0.961 . S
C621 H685 0.960 . S
C621 H686 0.960 . S
C622 C623 1.530 . S
C622 H688 0.961 . S
C622 H689 0.961 . S
C622 H690 0.959 . S
C623 C622 1.530 . S
C623 O651 1.412 . S
C623 H687 0.980 . S
C624 C625 1.288 . S
C624 C629 1.377 . S
C624 O651 1.393 . S
C625 C624 1.288 . S
C625 C626 1.369 . S
C625 H691 0.932 . S
C626 C625 1.369 . S
C626 C627 1.398 . S
C626 C630 1.527 . S
C627 C626 1.398 . S
C627 C628 1.380 . S
C627 C641 1.497 . S
C628 C627 1.380 . S
C628 C629 1.383 . S
C628 C631 1.603 . S
C629 C624 1.377 . S
C629 C628 1.383 . S
C629 H692 0.929 . S
C630 C626 1.527 . S
C630 H693 0.961 . S
C630 H694 0.959 . S
C630 H695 0.959 . S
C631 C628 1.603 . S
C631 H696 0.960 . S
C631 H697 0.962 . S
C631 H698 0.961 . S
C632 C599 1.587 . S
C632 C633 1.360 . S
C632 C645 1.412 . S
C633 C632 1.360 . S
C633 C634 1.365 . S
C633 H699 0.929 . S
C634 C609 1.553 . S
C634 C633 1.365 . S
C634 C635 1.404 . S
C635 C634 1.404 . S
C635 C636 1.395 . S
C635 C646 1.451 . S
C636 C635 1.395 . S
C636 C637 1.322 . S
C636 H700 0.930 . S
C637 C636 1.322 . S
C637 C638 1.459 . S
C637 H701 0.929 . S
C638 C637 1.459 . S
C638 C639 1.445 . S
C638 C647 1.395 . S
C639 C617 1.432 . S
C639 C638 1.445 . S
C639 C640 1.370 . S
C640 C639 1.370 . S
C640 C641 1.438 . S
C640 H702 0.930 . S
C641 C627 1.497 . S
C641 C640 1.438 . S
C641 C642 1.360 . S
C642 C641 1.360 . S
C642 C643 1.401 . S
C642 C647 1.446 . S
C643 C642 1.401 . S
C643 C644 1.347 . S
C643 H703 0.929 . S
C644 C643 1.347 . S
C644 C645 1.455 . S
C644 H704 0.930 . S
C645 C632 1.412 . S
C645 C644 1.455 . S
C645 C646 1.331 . S
C646 C635 1.451 . S
C646 C645 1.331 . S
C646 C647 1.497 . S
C647 C638 1.395 . S
C647 C642 1.446 . S
C647 C646 1.497 . S
C648 C649 1.582 . S
C648 H705 0.962 . S
C648 H706 0.959 . S
C648 H707 0.958 . S
C649 C648 1.582 . S
C649 O652 1.458 . S
C649 H678 0.980 . S
O650 C595 1.426 . S
O650 C596 1.334 . S
O651 C623 1.412 . S
O651 C624 1.393 . S
O652 C614 1.435 . S
O652 C649 1.458 . S
O653 C605 1.468 . S
O653 C606 1.408 . S
H654 C595 0.980 . S
H655 C594 0.959 . S
H656 C594 0.959 . S
H657 C594 0.960 . S
H658 C597 0.929 . S
H659 C601 0.929 . S
H660 C602 0.959 . S
H661 C602 0.961 . S
H662 C602 0.961 . S
H663 C603 0.960 . S
H664 C603 0.960 . S
H665 C603 0.961 . S
H666 C605 0.980 . S
H667 C604 0.961 . S
H668 C604 0.960 . S
H669 C604 0.959 . S
H670 C607 0.930 . S
H671 C611 0.931 . S
H672 C612 0.959 . S
H673 C612 0.961 . S
H674 C612 0.959 . S
H675 C613 0.960 . S
H676 C613 0.960 . S
H677 C613 0.960 . S
H678 C649 0.980 . S
H679 C615 0.930 . S
H680 C619 0.930 . S
H681 C620 0.961 . S
H682 C620 0.960 . S
H683 C620 0.958 . S
H684 C621 0.961 . S
H685 C621 0.960 . S
H686 C621 0.960 . S
H687 C623 0.980 . S
H688 C622 0.961 . S
H689 C622 0.961 . S
H690 C622 0.959 . S
H691 C625 0.932 . S
H692 C629 0.929 . S
H693 C630 0.961 . S
H694 C630 0.959 . S
H695 C630 0.959 . S
H696 C631 0.960 . S
H697 C631 0.962 . S
H698 C631 0.961 . S
H699 C633 0.929 . S
H700 C636 0.930 . S
H701 C637 0.929 . S
H702 C640 0.930 . S
H703 C643 0.929 . S
H704 C644 0.930 . S
H705 C648 0.962 . S
H706 C648 0.959 . S
H707 C648 0.958 . S
C708 C709 1.560 . S
C708 H769 0.959 . S
C708 H770 0.959 . S
C708 H771 0.960 . S
C709 C708 1.560 . S
C709 O764 1.426 . S
C709 H768 0.980 . S
C710 C711 1.407 . S
C710 C715 1.418 . S
C710 O764 1.334 . S
C711 C710 1.407 . S
C711 C712 1.360 . S
C711 H772 0.929 . S
C712 C711 1.360 . S
C712 C713 1.401 . S
C712 C716 1.527 . S
C713 C712 1.401 . S
C713 C714 1.405 . S
C713 C746 1.587 . S
C714 C713 1.405 . S
C714 C715 1.332 . S
C714 C717 1.496 . S
C715 C710 1.418 . S
C715 C714 1.332 . S
C715 H773 0.929 . S
C716 C712 1.527 . S
C716 H774 0.959 . S
C716 H775 0.961 . S
C716 H776 0.961 . S
C717 C714 1.496 . S
C717 H777 0.960 . S
C717 H778 0.960 . S
C717 H779 0.961 . S
C718 C719 1.517 . S
C718 H781 0.961 . S
C718 H782 0.960 . S
C718 H783 0.959 . S
C719 C718 1.517 . S
C719 O767 1.468 . S
C719 H780 0.980 . S
C720 C721 1.349 . S
C720 C725 1.367 . S
C720 O767 1.408 . S
C721 C720 1.349 . S
C721 C722 1.407 . S
C721 H784 0.930 . S
C722 C721 1.407 . S
C722 C723 1.449 . S
C722 C726 1.535 . S
C723 C722 1.449 . S
C723 C724 1.384 . S
C723 C748 1.553 . S
C724 C723 1.384 . S
C724 C725 1.364 . S
C724 C727 1.450 . S
C725 C720 1.367 . S
C725 C724 1.364 . S
C725 H785 0.931 . S
C726 C722 1.535 . S
C726 H786 0.959 . S
C726 H787 0.961 . S
C726 H788 0.959 . S
C727 C724 1.450 . S
C727 H789 0.960 . S
C727 H790 0.960 . S
C727 H791 0.960 . S
C728 C729 1.309 . S
C728 C733 1.304 . S
C728 O766 1.435 . S
C729 C728 1.309 . S
C729 C730 1.476 . S
C729 H793 0.930 . S
C730 C729 1.476 . S
C730 C731 1.400 . S
C730 C734 1.567 . S
C731 C730 1.400 . S
C731 C732 1.373 . S
C731 C753 1.432 . S
C732 C731 1.373 . S
C732 C733 1.339 . S
C732 C735 1.530 . S
C733 C728 1.304 . S
C733 C732 1.339 . S
C733 H794 0.930 . S
C734 C730 1.567 . S
C734 H795 0.961 . S
C734 H796 0.960 . S
C734 H797 0.958 . S
C735 C732 1.530 . S
C735 H798 0.961 . S
C735 H799 0.960 . S
C735 H800 0.960 . S
C736 C737 1.530 . S
C736 H802 0.961 . S
C736 H803 0.961 . S
C736 H804 0.959 . S
C737 C736 1.530 . S
C737 O765 1.412 . S
C737 H801 0.980 . S
C738 C739 1.288 . S
C738 C743 1.377 . S
C738 O765 1.393 . S
C739 C738 1.288 . S
C739 C740 1.369 . S
C739 H805 0.932 . S
C740 C739 1.369 . S
C740 C741 1.398 . S
C740 C744 1.527 . S
C741 C740 1.398 . S
C741 C742 1.380 . S
C741 C755 1.497 . S
C742 C741 1.380 . S
C742 C743 1.383 . S
C742 C745 1.603 . S
C743 C738 1.377 . S
C743 C742 1.383 . S
C743 H806 0.929 . S
C744 C740 1.527 . S
C744 H807 0.961 . S
C744 H808 0.959 . S
C744 H809 0.959 . S
C745 C742 1.603 . S
C745 H810 0.960 . S
C745 H811 0.962 . S
C745 H812 0.961 . S
C746 C713 1.587 . S
C746 C747 1.360 . S
C746 C759 1.412 . S
C747 C746 1.360 . S
C747 C748 1.365 . S
C747 H813 0.929 . S
C748 C723 1.553 . S
C748 C747 1.365 . S
C748 C749 1.404 . S
C749 C748 1.404 . S
C749 C750 1.395 . S
C749 C760 1.451 . S
C750 C749 1.395 . S
C750 C751 1.322 . S
C750 H814 0.930 . S
C751 C750 1.322 . S
C751 C752 1.459 . S
C751 H815 0.929 . S
C752 C751 1.459 . S
C752 C753 1.445 . S
C752 C761 1.395 . S
C753 C731 1.432 . S
C753 C752 1.445 . S
C753 C754 1.370 . S
C754 C753 1.370 . S
C754 C755 1.438 . S
C754 H816 0.930 . S
C755 C741 1.497 . S
C755 C754 1.438 . S
C755 C756 1.360 . S
C756 C755 1.360 . S
C756 C757 1.401 . S
C756 C761 1.446 . S
C757 C756 1.401 . S
C757 C758 1.347 . S
C757 H817 0.929 . S
C758 C757 1.347 . S
C758 C759 1.455 . S
C758 H818 0.930 . S
C759 C746 1.412 . S
C759 C758 1.455 . S
C759 C760 1.331 . S
C760 C749 1.451 . S
C760 C759 1.331 . S
C760 C761 1.497 . S
C761 C752 1.395 . S
C761 C756 1.446 . S
C761 C760 1.497 . S
C762 C763 1.582 . S
C762 H819 0.962 . S
C762 H820 0.959 . S
C762 H821 0.958 . S
C763 C762 1.582 . S
C763 O766 1.458 . S
C763 H792 0.980 . S
O764 C709 1.426 . S
O764 C710 1.334 . S
O765 C737 1.412 . S
O765 C738 1.393 . S
O766 C728 1.435 . S
O766 C763 1.458 . S
O767 C719 1.468 . S
O767 C720 1.408 . S
H768 C709 0.980 . S
H769 C708 0.959 . S
H770 C708 0.959 . S
H771 C708 0.960 . S
H772 C711 0.929 . S
H773 C715 0.929 . S
H774 C716 0.959 . S
H775 C716 0.961 . S
H776 C716 0.961 . S
H777 C717 0.960 . S
H778 C717 0.960 . S
H779 C717 0.961 . S
H780 C719 0.980 . S
H781 C718 0.961 . S
H782 C718 0.960 . S
H783 C718 0.959 . S
H784 C721 0.930 . S
H785 C725 0.931 . S
H786 C726 0.959 . S
H787 C726 0.961 . S
H788 C726 0.959 . S
H789 C727 0.960 . S
H790 C727 0.960 . S
H791 C727 0.960 . S
H792 C763 0.980 . S
H793 C729 0.930 . S
H794 C733 0.930 . S
H795 C734 0.961 . S
H796 C734 0.960 . S
H797 C734 0.958 . S
H798 C735 0.961 . S
H799 C735 0.960 . S
H800 C735 0.960 . S
H801 C737 0.980 . S
H802 C736 0.961 . S
H803 C736 0.961 . S
H804 C736 0.959 . S
H805 C739 0.932 . S
H806 C743 0.929 . S
H807 C744 0.961 . S
H808 C744 0.959 . S
H809 C744 0.959 . S
H810 C745 0.960 . S
H811 C745 0.962 . S
H812 C745 0.961 . S
H813 C747 0.929 . S
H814 C750 0.930 . S
H815 C751 0.929 . S
H816 C754 0.930 . S
H817 C757 0.929 . S
H818 C758 0.930 . S
H819 C762 0.962 . S
H820 C762 0.959 . S
H821 C762 0.958 . S
C822 C823 1.560 . S
C822 H883 0.959 . S
C822 H884 0.959 . S
C822 H885 0.960 . S
C823 C822 1.560 . S
C823 O878 1.426 . S
C823 H882 0.980 . S
C824 C825 1.407 . S
C824 C829 1.418 . S
C824 O878 1.334 . S
C825 C824 1.407 . S
C825 C826 1.360 . S
C825 H886 0.929 . S
C826 C825 1.360 . S
C826 C827 1.401 . S
C826 C830 1.527 . S
C827 C826 1.401 . S
C827 C828 1.405 . S
C827 C860 1.587 . S
C828 C827 1.405 . S
C828 C829 1.332 . S
C828 C831 1.496 . S
C829 C824 1.418 . S
C829 C828 1.332 . S
C829 H887 0.929 . S
C830 C826 1.527 . S
C830 H888 0.959 . S
C830 H889 0.961 . S
C830 H890 0.961 . S
C831 C828 1.496 . S
C831 H891 0.960 . S
C831 H892 0.960 . S
C831 H893 0.961 . S
C832 C833 1.517 . S
C832 H895 0.961 . S
C832 H896 0.960 . S
C832 H897 0.959 . S
C833 C832 1.517 . S
C833 O881 1.468 . S
C833 H894 0.980 . S
C834 C835 1.349 . S
C834 C839 1.367 . S
C834 O881 1.408 . S
C835 C834 1.349 . S
C835 C836 1.407 . S
C835 H898 0.930 . S
C836 C835 1.407 . S
C836 C837 1.449 . S
C836 C840 1.535 . S
C837 C836 1.449 . S
C837 C838 1.384 . S
C837 C862 1.553 . S
C838 C837 1.384 . S
C838 C839 1.364 . S
C838 C841 1.450 . S
C839 C834 1.367 . S
C839 C838 1.364 . S
C839 H899 0.931 . S
C840 C836 1.535 . S
C840 H900 0.959 . S
C840 H901 0.961 . S
C840 H902 0.959 . S
C841 C838 1.450 . S
C841 H903 0.960 . S
C841 H904 0.960 . S
C841 H905 0.960 . S
C842 C843 1.309 . S
C842 C847 1.304 . S
C842 O880 1.435 . S
C843 C842 1.309 . S
C843 C844 1.476 . S
C843 H907 0.930 . S
C844 C843 1.476 . S
C844 C845 1.400 . S
C844 C848 1.567 . S
C845 C844 1.400 . S
C845 C846 1.373 . S
C845 C867 1.432 . S
C846 C845 1.373 . S
C846 C847 1.339 . S
C846 C849 1.530 . S
C847 C842 1.304 . S
C847 C846 1.339 . S
C847 H908 0.930 . S
C848 C844 1.567 . S
C848 H909 0.961 . S
C848 H910 0.960 . S
C848 H911 0.958 . S
C849 C846 1.530 . S
C849 H912 0.961 . S
C849 H913 0.960 . S
C849 H914 0.960 . S
C850 C851 1.530 . S
C850 H916 0.961 . S
C850 H917 0.961 . S
C850 H918 0.959 . S
C851 C850 1.530 . S
C851 O879 1.412 . S
C851 H915 0.980 . S
C852 C853 1.288 . S
C852 C857 1.377 . S
C852 O879 1.393 . S
C853 C852 1.288 . S
C853 C854 1.369 . S
C853 H919 0.932 . S
C854 C853 1.369 . S
C854 C855 1.398 . S
C854 C858 1.527 . S
C855 C854 1.398 . S
C855 C856 1.380 . S
C855 C869 1.497 . S
C856 C855 1.380 . S
C856 C857 1.383 . S
C856 C859 1.603 . S
C857 C852 1.377 . S
C857 C856 1.383 . S
C857 H920 0.929 . S
C858 C854 1.527 . S
C858 H921 0.961 . S
C858 H922 0.959 . S
C858 H923 0.959 . S
C859 C856 1.603 . S
C859 H924 0.960 . S
C859 H925 0.962 . S
C859 H926 0.961 . S
C860 C827 1.587 . S
C860 C861 1.360 . S
C860 C873 1.412 . S
C861 C860 1.360 . S
C861 C862 1.365 . S
C861 H927 0.929 . S
C862 C837 1.553 . S
C862 C861 1.365 . S
C862 C863 1.404 . S
C863 C862 1.404 . S
C863 C864 1.395 . S
C863 C874 1.451 . S
C864 C863 1.395 . S
C864 C865 1.322 . S
C864 H928 0.930 . S
C865 C864 1.322 . S
C865 C866 1.459 . S
C865 H929 0.929 . S
C866 C865 1.459 . S
C866 C867 1.445 . S
C866 C875 1.395 . S
C867 C845 1.432 . S
C867 C866 1.445 . S
C867 C868 1.370 . S
C868 C867 1.370 . S
C868 C869 1.438 . S
C868 H930 0.930 . S
C869 C855 1.497 . S
C869 C868 1.438 . S
C869 C870 1.360 . S
C870 C869 1.360 . S
C870 C871 1.401 . S
C870 C875 1.446 . S
C871 C870 1.401 . S
C871 C872 1.347 . S
C871 H931 0.929 . S
C872 C871 1.347 . S
C872 C873 1.455 . S
C872 H932 0.930 . S
C873 C860 1.412 . S
C873 C872 1.455 . S
C873 C874 1.331 . S
C874 C863 1.451 . S
C874 C873 1.331 . S
C874 C875 1.497 . S
C875 C866 1.395 . S
C875 C870 1.446 . S
C875 C874 1.497 . S
C876 C877 1.582 . S
C876 H933 0.962 . S
C876 H934 0.959 . S
C876 H935 0.958 . S
C877 C876 1.582 . S
C877 O880 1.458 . S
C877 H906 0.980 . S
O878 C823 1.426 . S
O878 C824 1.334 . S
O879 C851 1.412 . S
O879 C852 1.393 . S
O880 C842 1.435 . S
O880 C877 1.458 . S
O881 C833 1.468 . S
O881 C834 1.408 . S
H882 C823 0.980 . S
H883 C822 0.959 . S
H884 C822 0.959 . S
H885 C822 0.960 . S
H886 C825 0.929 . S
H887 C829 0.929 . S
H888 C830 0.959 . S
H889 C830 0.961 . S
H890 C830 0.961 . S
H891 C831 0.960 . S
H892 C831 0.960 . S
H893 C831 0.961 . S
H894 C833 0.980 . S
H895 C832 0.961 . S
H896 C832 0.960 . S
H897 C832 0.959 . S
H898 C835 0.930 . S
H899 C839 0.931 . S
H900 C840 0.959 . S
H901 C840 0.961 . S
H902 C840 0.959 . S
H903 C841 0.960 . S
H904 C841 0.960 . S
H905 C841 0.960 . S
H906 C877 0.980 . S
H907 C843 0.930 . S
H908 C847 0.930 . S
H909 C848 0.961 . S
H910 C848 0.960 . S
H911 C848 0.958 . S
H912 C849 0.961 . S
H913 C849 0.960 . S
H914 C849 0.960 . S
H915 C851 0.980 . S
H916 C850 0.961 . S
H917 C850 0.961 . S
H918 C850 0.959 . S
H919 C853 0.932 . S
H920 C857 0.929 . S
H921 C858 0.961 . S
H922 C858 0.959 . S
H923 C858 0.959 . S
H924 C859 0.960 . S
H925 C859 0.962 . S
H926 C859 0.961 . S
H927 C861 0.929 . S
H928 C864 0.930 . S
H929 C865 0.929 . S
H930 C868 0.930 . S
H931 C871 0.929 . S
H932 C872 0.930 . S
H933 C876 0.962 . S
H934 C876 0.959 . S
H935 C876 0.958 . S
C936 C937 1.560 . S
C936 H997 0.959 . S
C936 H998 0.959 . S
C936 H999 0.960 . S
C937 C936 1.560 . S
C937 O992 1.426 . S
C937 H996 0.980 . S
C938 C939 1.407 . S
C938 C943 1.418 . S
C938 O992 1.334 . S
C939 C938 1.407 . S
C939 C940 1.360 . S
C939 H1000 0.929 . S
C940 C939 1.360 . S
C940 C941 1.401 . S
C940 C944 1.527 . S
C941 C940 1.401 . S
C941 C942 1.405 . S
C941 C974 1.587 . S
C942 C941 1.405 . S
C942 C943 1.332 . S
C942 C945 1.496 . S
C943 C938 1.418 . S
C943 C942 1.332 . S
C943 H1001 0.929 . S
C944 C940 1.527 . S
C944 H1002 0.959 . S
C944 H1003 0.961 . S
C944 H1004 0.961 . S
C945 C942 1.496 . S
C945 H1005 0.960 . S
C945 H1006 0.960 . S
C945 H1007 0.961 . S
C946 C947 1.517 . S
C946 H1009 0.961 . S
C946 H1010 0.960 . S
C946 H1011 0.959 . S
C947 C946 1.517 . S
C947 O995 1.468 . S
C947 H1008 0.980 . S
C948 C949 1.349 . S
C948 C953 1.367 . S
C948 O995 1.408 . S
C949 C948 1.349 . S
C949 C950 1.407 . S
C949 H1012 0.930 . S
C950 C949 1.407 . S
C950 C951 1.449 . S
C950 C954 1.535 . S
C951 C950 1.449 . S
C951 C952 1.384 . S
C951 C976 1.553 . S
C952 C951 1.384 . S
C952 C953 1.364 . S
C952 C955 1.450 . S
C953 C948 1.367 . S
C953 C952 1.364 . S
C953 H1013 0.931 . S
C954 C950 1.535 . S
C954 H1014 0.959 . S
C954 H1015 0.961 . S
C954 H1016 0.959 . S
C955 C952 1.450 . S
C955 H1017 0.960 . S
C955 H1018 0.960 . S
C955 H1019 0.960 . S
C956 C957 1.309 . S
C956 C961 1.304 . S
C956 O994 1.435 . S
C957 C956 1.309 . S
C957 C958 1.476 . S
C957 H1021 0.930 . S
C958 C957 1.476 . S
C958 C959 1.400 . S
C958 C962 1.567 . S
C959 C958 1.400 . S
C959 C960 1.373 . S
C959 C981 1.432 . S
C960 C959 1.373 . S
C960 C961 1.339 . S
C960 C963 1.530 . S
C961 C956 1.304 . S
C961 C960 1.339 . S
C961 H1022 0.930 . S
C962 C958 1.567 . S
C962 H1023 0.961 . S
C962 H1024 0.960 . S
C962 H1025 0.958 . S
C963 C960 1.530 . S
C963 H1026 0.961 . S
C963 H1027 0.960 . S
C963 H1028 0.960 . S
C964 C965 1.530 . S
C964 H1030 0.961 . S
C964 H1031 0.961 . S
C964 H1032 0.959 . S
C965 C964 1.530 . S
C965 O993 1.412 . S
C965 H1029 0.980 . S
C966 C967 1.288 . S
C966 C971 1.377 . S
C966 O993 1.393 . S
C967 C966 1.288 . S
C967 C968 1.369 . S
C967 H1033 0.932 . S
C968 C967 1.369 . S
C968 C969 1.398 . S
C968 C972 1.527 . S
C969 C968 1.398 . S
C969 C970 1.380 . S
C969 C983 1.497 . S
C970 C969 1.380 . S
C970 C971 1.383 . S
C970 C973 1.603 . S
C971 C966 1.377 . S
C971 C970 1.383 . S
C971 H1034 0.929 . S
C972 C968 1.527 . S
C972 H1035 0.961 . S
C972 H1036 0.959 . S
C972 H1037 0.959 . S
C973 C970 1.603 . S
C973 H1038 0.960 . S
C973 H1039 0.962 . S
C973 H1040 0.961 . S
C974 C941 1.587 . S
C974 C975 1.360 . S
C974 C987 1.412 . S
C975 C974 1.360 . S
C975 C976 1.365 . S
C975 H1041 0.929 . S
C976 C951 1.553 . S
C976 C975 1.365 . S
C976 C977 1.404 . S
C977 C976 1.404 . S
C977 C978 1.395 . S
C977 C988 1.451 . S
C978 C977 1.395 . S
C978 C979 1.322 . S
C978 H1042 0.930 . S
C979 C978 1.322 . S
C979 C980 1.459 . S
C979 H1043 0.929 . S
C980 C979 1.459 . S
C980 C981 1.445 . S
C980 C989 1.395 . S
C981 C959 1.432 . S
C981 C980 1.445 . S
C981 C982 1.370 . S
C982 C981 1.370 . S
C982 C983 1.438 . S
C982 H1044 0.930 . S
C983 C969 1.497 . S
C983 C982 1.438 . S
C983 C984 1.360 . S
C984 C983 1.360 . S
C984 C985 1.401 . S
C984 C989 1.446 . S
C985 C984 1.401 . S
C985 C986 1.347 . S
C985 H1045 0.929 . S
C986 C985 1.347 . S
C986 C987 1.455 . S
C986 H1046 0.930 . S
C987 C974 1.412 . S
C987 C986 1.455 . S
C987 C988 1.331 . S
C988 C977 1.451 . S
C988 C987 1.331 . S
C988 C989 1.497 . S
C989 C980 1.395 . S
C989 C984 1.446 . S
C989 C988 1.497 . S
C990 C991 1.582 . S
C990 H1047 0.962 . S
C990 H1048 0.959 . S
C990 H1049 0.958 . S
C991 C990 1.582 . S
C991 O994 1.458 . S
C991 H1020 0.980 . S
O992 C937 1.426 . S
O992 C938 1.334 . S
O993 C965 1.412 . S
O993 C966 1.393 . S
O994 C956 1.435 . S
O994 C991 1.458 . S
O995 C947 1.468 . S
O995 C948 1.408 . S
H996 C937 0.980 . S
H997 C936 0.959 . S
H998 C936 0.959 . S
H999 C936 0.960 . S
H1000 C939 0.929 . S
H1001 C943 0.929 . S
H1002 C944 0.959 . S
H1003 C944 0.961 . S
H1004 C944 0.961 . S
H1005 C945 0.960 . S
H1006 C945 0.960 . S
H1007 C945 0.961 . S
H1008 C947 0.980 . S
H1009 C946 0.961 . S
H1010 C946 0.960 . S
H1011 C946 0.959 . S
H1012 C949 0.930 . S
H1013 C953 0.931 . S
H1014 C954 0.959 . S
H1015 C954 0.961 . S
H1016 C954 0.959 . S
H1017 C955 0.960 . S
H1018 C955 0.960 . S
H1019 C955 0.960 . S
H1020 C991 0.980 . S
H1021 C957 0.930 . S
H1022 C961 0.930 . S
H1023 C962 0.961 . S
H1024 C962 0.960 . S
H1025 C962 0.958 . S
H1026 C963 0.961 . S
H1027 C963 0.960 . S
H1028 C963 0.960 . S
H1029 C965 0.980 . S
H1030 C964 0.961 . S
H1031 C964 0.961 . S
H1032 C964 0.959 . S
H1033 C967 0.932 . S
H1034 C971 0.929 . S
H1035 C972 0.961 . S
H1036 C972 0.959 . S
H1037 C972 0.959 . S
H1038 C973 0.960 . S
H1039 C973 0.962 . S
H1040 C973 0.961 . S
H1041 C975 0.929 . S
H1042 C978 0.930 . S
H1043 C979 0.929 . S
H1044 C982 0.930 . S
H1045 C985 0.929 . S
H1046 C986 0.930 . S
H1047 C990 0.962 . S
H1048 C990 0.959 . S
H1049 C990 0.958 . S
C1050 C1051 1.560 . S
C1050 H1111 0.959 . S
C1050 H1112 0.959 . S
C1050 H1113 0.960 . S
C1051 C1050 1.560 . S
C1051 O1106 1.426 . S
C1051 H1110 0.980 . S
C1052 C1053 1.407 . S
C1052 C1057 1.418 . S
C1052 O1106 1.334 . S
C1053 C1052 1.407 . S
C1053 C1054 1.360 . S
C1053 H1114 0.929 . S
C1054 C1053 1.360 . S
C1054 C1055 1.401 . S
C1054 C1058 1.527 . S
C1055 C1054 1.401 . S
C1055 C1056 1.405 . S
C1055 C1088 1.587 . S
C1056 C1055 1.405 . S
C1056 C1057 1.332 . S
C1056 C1059 1.496 . S
C1057 C1052 1.418 . S
C1057 C1056 1.332 . S
C1057 H1115 0.929 . S
C1058 C1054 1.527 . S
C1058 H1116 0.959 . S
C1058 H1117 0.961 . S
C1058 H1118 0.961 . S
C1059 C1056 1.496 . S
C1059 H1119 0.960 . S
C1059 H1120 0.960 . S
C1059 H1121 0.961 . S
C1060 C1061 1.517 . S
C1060 H1123 0.961 . S
C1060 H1124 0.960 . S
C1060 H1125 0.959 . S
C1061 C1060 1.517 . S
C1061 O1109 1.468 . S
C1061 H1122 0.980 . S
C1062 C1063 1.349 . S
C1062 C1067 1.367 . S
C1062 O1109 1.408 . S
C1063 C1062 1.349 . S
C1063 C1064 1.407 . S
C1063 H1126 0.930 . S
C1064 C1063 1.407 . S
C1064 C1065 1.449 . S
C1064 C1068 1.535 . S
C1065 C1064 1.449 . S
C1065 C1066 1.384 . S
C1065 C1090 1.553 . S
C1066 C1065 1.384 . S
C1066 C1067 1.364 . S
C1066 C1069 1.450 . S
C1067 C1062 1.367 . S
C1067 C1066 1.364 . S
C1067 H1127 0.931 . S
C1068 C1064 1.535 . S
C1068 H1128 0.959 . S
C1068 H1129 0.961 . S
C1068 H1130 0.959 . S
C1069 C1066 1.450 . S
C1069 H1131 0.960 . S
C1069 H1132 0.960 . S
C1069 H1133 0.960 . S
C1070 C1071 1.309 . S
C1070 C1075 1.304 . S
C1070 O1108 1.435 . S
C1071 C1070 1.309 . S
C1071 C1072 1.476 . S
C1071 H1135 0.930 . S
C1072 C1071 1.476 . S
C1072 C1073 1.400 . S
C1072 C1076 1.567 . S
C1073 C1072 1.400 . S
C1073 C1074 1.373 . S
C1073 C1095 1.432 . S
C1074 C1073 1.373 . S
C1074 C1075 1.339 . S
C1074 C1077 1.530 . S
C1075 C1070 1.304 . S
C1075 C1074 1.339 . S
C1075 H1136 0.930 . S
C1076 C1072 1.567 . S
C1076 H1137 0.961 . S
C1076 H1138 0.960 . S
C1076 H1139 0.958 . S
C1077 C1074 1.530 . S
C1077 H1140 0.961 . S
C1077 H1141 0.960 . S
C1077 H1142 0.960 . S
C1078 C1079 1.530 . S
C1078 H1144 0.961 . S
C1078 H1145 0.961 . S
C1078 H1146 0.959 . S
C1079 C1078 1.530 . S
C1079 O1107 1.412 . S
C1079 H1143 0.980 . S
C1080 C1081 1.288 . S
C1080 C1085 1.377 . S
C1080 O1107 1.393 . S
C1081 C1080 1.288 . S
C1081 C1082 1.369 . S
C1081 H1147 0.932 . S
C1082 C1081 1.369 . S
C1082 C1083 1.398 . S
C1082 C1086 1.527 . S
C1083 C1082 1.398 . S
C1083 C1084 1.380 . S
C1083 C1097 1.497 . S
C1084 C1083 1.380 . S
C1084 C1085 1.383 . S
C1084 C1087 1.603 . S
C1085 C1080 1.377 . S
C1085 C1084 1.383 . S
C1085 H1148 0.929 . S
C1086 C1082 1.527 . S
C1086 H1149 0.961 . S
C1086 H1150 0.959 . S
C1086 H1151 0.959 . S
C1087 C1084 1.603 . S
C1087 H1152 0.960 . S
C1087 H1153 0.962 . S
C1087 H1154 0.961 . S
C1088 C1055 1.587 . S
C1088 C1089 1.360 . S
C1088 C1101 1.412 . S
C1089 C1088 1.360 . S
C1089 C1090 1.365 . S
C1089 H1155 0.929 . S
C1090 C1065 1.553 . S
C1090 C1089 1.365 . S
C1090 C1091 1.404 . S
C1091 C1090 1.404 . S
C1091 C1092 1.395 . S
C1091 C1102 1.451 . S
C1092 C1091 1.395 . S
C1092 C1093 1.322 . S
C1092 H1156 0.930 . S
C1093 C1092 1.322 . S
C1093 C1094 1.459 . S
C1093 H1157 0.929 . S
C1094 C1093 1.459 . S
C1094 C1095 1.445 . S
C1094 C1103 1.395 . S
C1095 C1073 1.432 . S
C1095 C1094 1.445 . S
C1095 C1096 1.370 . S
C1096 C1095 1.370 . S
C1096 C1097 1.438 . S
C1096 H1158 0.930 . S
C1097 C1083 1.497 . S
C1097 C1096 1.438 . S
C1097 C1098 1.360 . S
C1098 C1097 1.360 . S
C1098 C1099 1.401 . S
C1098 C1103 1.446 . S
C1099 C1098 1.401 . S
C1099 C1100 1.347 . S
C1099 H1159 0.929 . S
C1100 C1099 1.347 . S
C1100 C1101 1.455 . S
C1100 H1160 0.930 . S
C1101 C1088 1.412 . S
C1101 C1100 1.455 . S
C1101 C1102 1.331 . S
C1102 C1091 1.451 . S
C1102 C1101 1.331 . S
C1102 C1103 1.497 . S
C1103 C1094 1.395 . S
C1103 C1098 1.446 . S
C1103 C1102 1.497 . S
C1104 C1105 1.582 . S
C1104 H1161 0.962 . S
C1104 H1162 0.959 . S
C1104 H1163 0.958 . S
C1105 C1104 1.582 . S
C1105 O1108 1.458 . S
C1105 H1134 0.980 . S
O1106 C1051 1.426 . S
O1106 C1052 1.334 . S
O1107 C1079 1.412 . S
O1107 C1080 1.393 . S
O1108 C1070 1.435 . S
O1108 C1105 1.458 . S
O1109 C1061 1.468 . S
O1109 C1062 1.408 . S
H1110 C1051 0.980 . S
H1111 C1050 0.959 . S
H1112 C1050 0.959 . S
H1113 C1050 0.960 . S
H1114 C1053 0.929 . S
H1115 C1057 0.929 . S
H1116 C1058 0.959 . S
H1117 C1058 0.961 . S
H1118 C1058 0.961 . S
H1119 C1059 0.960 . S
H1120 C1059 0.960 . S
H1121 C1059 0.961 . S
H1122 C1061 0.980 . S
H1123 C1060 0.961 . S
H1124 C1060 0.960 . S
H1125 C1060 0.959 . S
H1126 C1063 0.930 . S
H1127 C1067 0.931 . S
H1128 C1068 0.959 . S
H1129 C1068 0.961 . S
H1130 C1068 0.959 . S
H1131 C1069 0.960 . S
H1132 C1069 0.960 . S
H1133 C1069 0.960 . S
H1134 C1105 0.980 . S
H1135 C1071 0.930 . S
H1136 C1075 0.930 . S
H1137 C1076 0.961 . S
H1138 C1076 0.960 . S
H1139 C1076 0.958 . S
H1140 C1077 0.961 . S
H1141 C1077 0.960 . S
H1142 C1077 0.960 . S
H1143 C1079 0.980 . S
H1144 C1078 0.961 . S
H1145 C1078 0.961 . S
H1146 C1078 0.959 . S
H1147 C1081 0.932 . S
H1148 C1085 0.929 . S
H1149 C1086 0.961 . S
H1150 C1086 0.959 . S
H1151 C1086 0.959 . S
H1152 C1087 0.960 . S
H1153 C1087 0.962 . S
H1154 C1087 0.961 . S
H1155 C1089 0.929 . S
H1156 C1092 0.930 . S
H1157 C1093 0.929 . S
H1158 C1096 0.930 . S
H1159 C1099 0.929 . S
H1160 C1100 0.930 . S
H1161 C1104 0.962 . S
H1162 C1104 0.959 . S
H1163 C1104 0.958 . S
C1164 C1165 1.560 . S
C1164 H1225 0.959 . S
C1164 H1226 0.959 . S
C1164 H1227 0.960 . S
C1165 C1164 1.560 . S
C1165 O1220 1.426 . S
C1165 H1224 0.980 . S
C1166 C1167 1.407 . S
C1166 C1171 1.418 . S
C1166 O1220 1.334 . S
C1167 C1166 1.407 . S
C1167 C1168 1.360 . S
C1167 H1228 0.929 . S
C1168 C1167 1.360 . S
C1168 C1169 1.401 . S
C1168 C1172 1.527 . S
C1169 C1168 1.401 . S
C1169 C1170 1.405 . S
C1169 C1202 1.587 . S
C1170 C1169 1.405 . S
C1170 C1171 1.332 . S
C1170 C1173 1.496 . S
C1171 C1166 1.418 . S
C1171 C1170 1.332 . S
C1171 H1229 0.929 . S
C1172 C1168 1.527 . S
C1172 H1230 0.959 . S
C1172 H1231 0.961 . S
C1172 H1232 0.961 . S
C1173 C1170 1.496 . S
C1173 H1233 0.960 . S
C1173 H1234 0.960 . S
C1173 H1235 0.961 . S
C1174 C1175 1.517 . S
C1174 H1237 0.961 . S
C1174 H1238 0.960 . S
C1174 H1239 0.959 . S
C1175 C1174 1.517 . S
C1175 O1223 1.468 . S
C1175 H1236 0.980 . S
C1176 C1177 1.349 . S
C1176 C1181 1.367 . S
C1176 O1223 1.408 . S
C1177 C1176 1.349 . S
C1177 C1178 1.407 . S
C1177 H1240 0.930 . S
C1178 C1177 1.407 . S
C1178 C1179 1.449 . S
C1178 C1182 1.535 . S
C1179 C1178 1.449 . S
C1179 C1180 1.384 . S
C1179 C1204 1.553 . S
C1180 C1179 1.384 . S
C1180 C1181 1.364 . S
C1180 C1183 1.450 . S
C1181 C1176 1.367 . S
C1181 C1180 1.364 . S
C1181 H1241 0.931 . S
C1182 C1178 1.535 . S
C1182 H1242 0.959 . S
C1182 H1243 0.961 . S
C1182 H1244 0.959 . S
C1183 C1180 1.450 . S
C1183 H1245 0.960 . S
C1183 H1246 0.960 . S
C1183 H1247 0.960 . S
C1184 C1185 1.309 . S
C1184 C1189 1.304 . S
C1184 O1222 1.435 . S
C1185 C1184 1.309 . S
C1185 C1186 1.476 . S
C1185 H1249 0.930 . S
C1186 C1185 1.476 . S
C1186 C1187 1.400 . S
C1186 C1190 1.567 . S
C1187 C1186 1.400 . S
C1187 C1188 1.373 . S
C1187 C1209 1.432 . S
C1188 C1187 1.373 . S
C1188 C1189 1.339 . S
C1188 C1191 1.530 . S
C1189 C1184 1.304 . S
C1189 C1188 1.339 . S
C1189 H1250 0.930 . S
C1190 C1186 1.567 . S
C1190 H1251 0.961 . S
C1190 H1252 0.960 . S
C1190 H1253 0.958 . S
C1191 C1188 1.530 . S
C1191 H1254 0.961 . S
C1191 H1255 0.960 . S
C1191 H1256 0.960 . S
C1192 C1193 1.530 . S
C1192 H1258 0.961 . S
C1192 H1259 0.961 . S
C1192 H1260 0.959 . S
C1193 C1192 1.530 . S
C1193 O1221 1.412 . S
C1193 H1257 0.980 . S
C1194 C1195 1.288 . S
C1194 C1199 1.377 . S
C1194 O1221 1.393 . S
C1195 C1194 1.288 . S
C1195 C1196 1.369 . S
C1195 H1261 0.932 . S
C1196 C1195 1.369 . S
C1196 C1197 1.398 . S
C1196 C1200 1.527 . S
C1197 C1196 1.398 . S
C1197 C1198 1.380 . S
C1197 C1211 1.497 . S
C1198 C1197 1.380 . S
C1198 C1199 1.383 . S
C1198 C1201 1.603 . S
C1199 C1194 1.377 . S
C1199 C1198 1.383 . S
C1199 H1262 0.929 . S
C1200 C1196 1.527 . S
C1200 H1263 0.961 . S
C1200 H1264 0.959 . S
C1200 H1265 0.959 . S
C1201 C1198 1.603 . S
C1201 H1266 0.960 . S
C1201 H1267 0.962 . S
C1201 H1268 0.961 . S
C1202 C1169 1.587 . S
C1202 C1203 1.360 . S
C1202 C1215 1.412 . S
C1203 C1202 1.360 . S
C1203 C1204 1.365 . S
C1203 H1269 0.929 . S
C1204 C1179 1.553 . S
C1204 C1203 1.365 . S
C1204 C1205 1.404 . S
C1205 C1204 1.404 . S
C1205 C1206 1.395 . S
C1205 C1216 1.451 . S
C1206 C1205 1.395 . S
C1206 C1207 1.322 . S
C1206 H1270 0.930 . S
C1207 C1206 1.322 . S
C1207 C1208 1.459 . S
C1207 H1271 0.929 . S
C1208 C1207 1.459 . S
C1208 C1209 1.445 . S
C1208 C1217 1.395 . S
C1209 C1187 1.432 . S
C1209 C1208 1.445 . S
C1209 C1210 1.370 . S
C1210 C1209 1.370 . S
C1210 C1211 1.438 . S
C1210 H1272 0.930 . S
C1211 C1197 1.497 . S
C1211 C1210 1.438 . S
C1211 C1212 1.360 . S
C1212 C1211 1.360 . S
C1212 C1213 1.401 . S
C1212 C1217 1.446 . S
C1213 C1212 1.401 . S
C1213 C1214 1.347 . S
C1213 H1273 0.929 . S
C1214 C1213 1.347 . S
C1214 C1215 1.455 . S
C1214 H1274 0.930 . S
C1215 C1202 1.412 . S
C1215 C1214 1.455 . S
C1215 C1216 1.331 . S
C1216 C1205 1.451 . S
C1216 C1215 1.331 . S
C1216 C1217 1.497 . S
C1217 C1208 1.395 . S
C1217 C1212 1.446 . S
C1217 C1216 1.497 . S
C1218 C1219 1.582 . S
C1218 H1275 0.962 . S
C1218 H1276 0.959 . S
C1218 H1277 0.958 . S
C1219 C1218 1.582 . S
C1219 O1222 1.458 . S
C1219 H1248 0.980 . S
O1220 C1165 1.426 . S
O1220 C1166 1.334 . S
O1221 C1193 1.412 . S
O1221 C1194 1.393 . S
O1222 C1184 1.435 . S
O1222 C1219 1.458 . S
O1223 C1175 1.468 . S
O1223 C1176 1.408 . S
H1224 C1165 0.980 . S
H1225 C1164 0.959 . S
H1226 C1164 0.959 . S
H1227 C1164 0.960 . S
H1228 C1167 0.929 . S
H1229 C1171 0.929 . S
H1230 C1172 0.959 . S
H1231 C1172 0.961 . S
H1232 C1172 0.961 . S
H1233 C1173 0.960 . S
H1234 C1173 0.960 . S
H1235 C1173 0.961 . S
H1236 C1175 0.980 . S
H1237 C1174 0.961 . S
H1238 C1174 0.960 . S
H1239 C1174 0.959 . S
H1240 C1177 0.930 . S
H1241 C1181 0.931 . S
H1242 C1182 0.959 . S
H1243 C1182 0.961 . S
H1244 C1182 0.959 . S
H1245 C1183 0.960 . S
H1246 C1183 0.960 . S
H1247 C1183 0.960 . S
H1248 C1219 0.980 . S
H1249 C1185 0.930 . S
H1250 C1189 0.930 . S
H1251 C1190 0.961 . S
H1252 C1190 0.960 . S
H1253 C1190 0.958 . S
H1254 C1191 0.961 . S
H1255 C1191 0.960 . S
H1256 C1191 0.960 . S
H1257 C1193 0.980 . S
H1258 C1192 0.961 . S
H1259 C1192 0.961 . S
H1260 C1192 0.959 . S
H1261 C1195 0.932 . S
H1262 C1199 0.929 . S
H1263 C1200 0.961 . S
H1264 C1200 0.959 . S
H1265 C1200 0.959 . S
H1266 C1201 0.960 . S
H1267 C1201 0.962 . S
H1268 C1201 0.961 . S
H1269 C1203 0.929 . S
H1270 C1206 0.930 . S
H1271 C1207 0.929 . S
H1272 C1210 0.930 . S
H1273 C1213 0.929 . S
H1274 C1214 0.930 . S
H1275 C1218 0.962 . S
H1276 C1218 0.959 . S
H1277 C1218 0.958 . S
C1278 C1279 1.560 . S
C1278 H1339 0.959 . S
C1278 H1340 0.959 . S
C1278 H1341 0.960 . S
C1279 C1278 1.560 . S
C1279 O1334 1.426 . S
C1279 H1338 0.980 . S
C1280 C1281 1.407 1_455 S
C1280 C1285 1.418 . S
C1280 O1334 1.334 . S
C1281 C1280 1.407 1_655 S
C1281 C1282 1.360 . S
C1281 H1342 0.929 . S
C1282 C1281 1.360 . S
C1282 C1283 1.401 1_655 S
C1282 C1286 1.527 . S
C1283 C1282 1.401 1_455 S
C1283 C1284 1.405 . S
C1283 C1316 1.587 1_455 S
C1284 C1283 1.405 . S
C1284 C1285 1.332 . S
C1284 C1287 1.496 . S
C1285 C1280 1.418 . S
C1285 C1284 1.332 . S
C1285 H1343 0.929 . S
C1286 C1282 1.527 . S
C1286 H1344 0.959 . S
C1286 H1345 0.961 . S
C1286 H1346 0.961 . S
C1287 C1284 1.496 . S
C1287 H1347 0.960 . S
C1287 H1348 0.960 . S
C1287 H1349 0.961 . S
C1288 C1289 1.517 . S
C1288 H1351 0.987 . S
C1288 H1352 0.960 . S
C1288 H1353 0.959 . S
C1289 C1288 1.517 . S
C1289 O1337 1.468 . S
C1289 H1350 0.980 1_655 S
C1290 C1291 1.349 . S
C1290 C1295 1.367 . S
C1290 O1337 1.408 . S
C1291 C1290 1.349 . S
C1291 C1292 1.365 1_655 S
C1291 H1354 0.930 1_655 S
C1292 C1291 1.365 1_455 S
C1292 C1293 1.413 1_455 S
C1292 C1296 1.608 . S
C1293 C1292 1.413 1_655 S
C1293 C1294 1.384 . S
C1293 C1318 1.553 . S
C1294 C1293 1.384 . S
C1294 C1295 1.364 . S
C1294 C1297 1.450 . S
C1295 C1290 1.367 . S
C1295 C1294 1.364 . S
C1295 H1355 0.931 . S
C1296 C1292 1.608 . S
C1296 H1356 0.959 . S
C1296 H1357 0.961 . S
C1296 H1358 0.959 . S
C1297 C1294 1.450 . S
C1297 H1359 0.960 . S
C1297 H1360 0.960 . S
C1297 H1361 0.960 . S
C1298 C1299 1.309 . S
C1298 C1303 1.304 . S
C1298 O1336 1.435 . S
C1299 C1298 1.309 . S
C1299 C1300 1.469 . S
C1299 H1363 0.930 1_655 S
C1300 C1299 1.469 . S
C1300 C1301 1.396 . S
C1300 C1304 1.577 1_655 S
C1301 C1300 1.396 . S
C1301 C1302 1.373 . S
C1301 C1323 1.432 . S
C1302 C1301 1.373 . S
C1302 C1303 1.339 . S
C1302 C1305 1.530 . S
C1303 C1298 1.304 . S
C1303 C1302 1.339 . S
C1303 H1364 0.930 . S
C1304 C1300 1.577 1_455 S
C1304 H1365 0.961 . S
C1304 H1366 0.960 . S
C1304 H1367 0.958 . S
C1305 C1302 1.530 . S
C1305 H1368 0.961 . S
C1305 H1369 0.960 . S
C1305 H1370 0.960 . S
C1306 C1307 1.539 1_455 S
C1306 H1372 0.961 . S
C1306 H1373 0.961 . S
C1306 H1374 0.959 . S
C1307 C1306 1.539 1_655 S
C1307 O1335 1.413 1_655 S
C1307 H1371 0.978 . S
C1308 C1309 1.288 . S
C1308 C1313 1.377 1_455 S
C1308 O1335 1.393 . S
C1309 C1308 1.288 . S
C1309 C1310 1.369 . S
C1309 H1375 0.932 . S
C1310 C1309 1.369 . S
C1310 C1311 1.398 1_455 S
C1310 C1314 1.527 . S
C1311 C1310 1.398 1_655 S
C1311 C1312 1.380 . S
C1311 C1325 1.497 . S
C1312 C1311 1.380 . S
C1312 C1313 1.383 . S
C1312 C1315 1.603 . S
C1313 C1308 1.377 1_655 S
C1313 C1312 1.383 . S
C1313 H1376 0.929 . S
C1314 C1310 1.527 . S
C1314 H1377 0.961 . S
C1314 H1378 0.959 . S
C1314 H1379 0.959 . S
C1315 C1312 1.603 . S
C1315 H1380 0.960 . S
C1315 H1381 0.962 . S
C1315 H1382 0.961 . S
C1316 C1283 1.587 1_655 S
C1316 C1317 1.360 . S
C1316 C1329 1.412 . S
C1317 C1316 1.360 . S
C1317 C1318 1.365 . S
C1317 H1383 0.929 . S
C1318 C1293 1.553 . S
C1318 C1317 1.365 . S
C1318 C1319 1.404 . S
C1319 C1318 1.404 . S
C1319 C1320 1.395 . S
C1319 C1330 1.451 . S
C1320 C1319 1.395 . S
C1320 C1321 1.322 . S
C1320 H1384 0.930 . S
C1321 C1320 1.322 . S
C1321 C1322 1.459 . S
C1321 H1385 0.929 . S
C1322 C1321 1.459 . S
C1322 C1323 1.445 . S
C1322 C1331 1.395 . S
C1323 C1301 1.432 . S
C1323 C1322 1.445 . S
C1323 C1324 1.370 . S
C1324 C1323 1.370 . S
C1324 C1325 1.438 . S
C1324 H1386 0.930 . S
C1325 C1311 1.497 . S
C1325 C1324 1.438 . S
C1325 C1326 1.360 . S
C1326 C1325 1.360 . S
C1326 C1327 1.401 . S
C1326 C1331 1.446 . S
C1327 C1326 1.401 . S
C1327 C1328 1.347 . S
C1327 H1387 0.929 . S
C1328 C1327 1.347 . S
C1328 C1329 1.455 . S
C1328 H1388 0.987 . S
C1329 C1316 1.412 . S
C1329 C1328 1.455 . S
C1329 C1330 1.331 . S
C1330 C1319 1.451 . S
C1330 C1329 1.331 . S
C1330 C1331 1.497 . S
C1331 C1322 1.395 . S
C1331 C1326 1.446 . S
C1331 C1330 1.497 . S
C1332 C1333 1.582 . S
C1332 H1389 0.962 . S
C1332 H1390 0.959 . S
C1332 H1391 0.958 . S
C1333 C1332 1.582 . S
C1333 O1336 1.458 . S
C1333 H1362 0.980 . S
O1334 C1279 1.426 . S
O1334 C1280 1.334 . S
O1335 C1307 1.413 1_455 S
O1335 C1308 1.393 . S
O1336 C1298 1.435 . S
O1336 C1333 1.458 . S
O1337 C1289 1.468 . S
O1337 C1290 1.408 . S
H1338 C1279 0.980 . S
H1339 C1278 0.959 . S
H1340 C1278 0.959 . S
H1341 C1278 0.960 . S
H1342 C1281 0.929 . S
H1343 C1285 0.929 . S
H1344 C1286 0.959 . S
H1345 C1286 0.961 . S
H1346 C1286 0.961 . S
H1347 C1287 0.960 . S
H1348 C1287 0.960 . S
H1349 C1287 0.961 . S
H1350 C1289 0.980 1_455 S
H1351 C1288 0.987 . S
H1352 C1288 0.960 . S
H1353 C1288 0.959 . S
H1354 C1291 0.930 1_455 S
H1355 C1295 0.931 . S
H1356 C1296 0.959 . S
H1357 C1296 0.961 . S
H1358 C1296 0.959 . S
H1359 C1297 0.960 . S
H1360 C1297 0.960 . S
H1361 C1297 0.960 . S
H1362 C1333 0.980 . S
H1363 C1299 0.930 1_455 S
H1364 C1303 0.930 . S
H1365 C1304 0.961 . S
H1366 C1304 0.960 . S
H1367 C1304 0.958 . S
H1368 C1305 0.961 . S
H1369 C1305 0.960 . S
H1370 C1305 0.960 . S
H1371 C1307 0.978 . S
H1372 C1306 0.961 . S
H1373 C1306 0.961 . S
H1374 C1306 0.959 . S
H1375 C1309 0.932 . S
H1376 C1313 0.929 . S
H1377 C1314 0.961 . S
H1378 C1314 0.959 . S
H1379 C1314 0.959 . S
H1380 C1315 0.960 . S
H1381 C1315 0.962 . S
H1382 C1315 0.961 . S
H1383 C1317 0.929 . S
H1384 C1320 0.930 . S
H1385 C1321 0.929 . S
H1386 C1324 0.930 . S
H1387 C1327 0.929 . S
H1388 C1328 0.987 . S
H1389 C1332 0.962 . S
H1390 C1332 0.959 . S
H1391 C1332 0.958 . S
C1392 C1393 1.560 . S
C1392 H1453 0.959 . S
C1392 H1454 0.959 . S
C1392 H1455 0.960 . S
C1393 C1392 1.560 . S
C1393 O1448 1.426 . S
C1393 H1452 0.980 . S
C1394 C1395 1.407 . S
C1394 C1399 1.418 . S
C1394 O1448 1.334 . S
C1395 C1394 1.407 . S
C1395 C1396 1.360 . S
C1395 H1456 0.929 . S
C1396 C1395 1.360 . S
C1396 C1397 1.401 . S
C1396 C1400 1.527 . S
C1397 C1396 1.401 . S
C1397 C1398 1.405 . S
C1397 C1430 1.587 . S
C1398 C1397 1.405 . S
C1398 C1399 1.332 . S
C1398 C1401 1.496 . S
C1399 C1394 1.418 . S
C1399 C1398 1.332 . S
C1399 H1457 0.929 . S
C1400 C1396 1.527 . S
C1400 H1458 0.959 . S
C1400 H1459 0.961 . S
C1400 H1460 0.961 . S
C1401 C1398 1.496 . S
C1401 H1461 0.960 . S
C1401 H1462 0.960 . S
C1401 H1463 0.961 . S
C1402 C1403 1.517 . S
C1402 H1465 0.961 . S
C1402 H1466 0.960 . S
C1402 H1467 0.959 . S
C1403 C1402 1.517 . S
C1403 O1451 1.468 . S
C1403 H1464 0.980 . S
C1404 C1405 1.349 . S
C1404 C1409 1.367 . S
C1404 O1451 1.408 . S
C1405 C1404 1.349 . S
C1405 C1406 1.407 . S
C1405 H1468 0.930 . S
C1406 C1405 1.407 . S
C1406 C1407 1.449 . S
C1406 C1410 1.535 . S
C1407 C1406 1.449 . S
C1407 C1408 1.384 . S
C1407 C1432 1.553 . S
C1408 C1407 1.384 . S
C1408 C1409 1.364 . S
C1408 C1411 1.450 . S
C1409 C1404 1.367 . S
C1409 C1408 1.364 . S
C1409 H1469 0.931 . S
C1410 C1406 1.535 . S
C1410 H1470 0.959 . S
C1410 H1471 0.961 . S
C1410 H1472 0.959 . S
C1411 C1408 1.450 . S
C1411 H1473 0.960 . S
C1411 H1474 0.960 . S
C1411 H1475 0.960 . S
C1412 C1413 1.309 . S
C1412 C1417 1.304 . S
C1412 O1450 1.435 . S
C1413 C1412 1.309 . S
C1413 C1414 1.476 . S
C1413 H1477 0.930 . S
C1414 C1413 1.476 . S
C1414 C1415 1.400 . S
C1414 C1418 1.567 . S
C1415 C1414 1.400 . S
C1415 C1416 1.373 . S
C1415 C1437 1.432 . S
C1416 C1415 1.373 . S
C1416 C1417 1.339 . S
C1416 C1419 1.530 . S
C1417 C1412 1.304 . S
C1417 C1416 1.339 . S
C1417 H1478 0.930 . S
C1418 C1414 1.567 . S
C1418 H1479 0.961 . S
C1418 H1480 0.960 . S
C1418 H1481 0.958 . S
C1419 C1416 1.530 . S
C1419 H1482 0.961 . S
C1419 H1483 0.960 . S
C1419 H1484 0.960 . S
C1420 C1421 1.530 . S
C1420 H1486 0.961 . S
C1420 H1487 0.961 . S
C1420 H1488 0.959 . S
C1421 C1420 1.530 . S
C1421 O1449 1.412 . S
C1421 H1485 0.980 . S
C1422 C1423 1.288 . S
C1422 C1427 1.377 . S
C1422 O1449 1.393 . S
C1423 C1422 1.288 . S
C1423 C1424 1.369 . S
C1423 H1489 0.932 . S
C1424 C1423 1.369 . S
C1424 C1425 1.398 . S
C1424 C1428 1.527 . S
C1425 C1424 1.398 . S
C1425 C1426 1.380 . S
C1425 C1439 1.497 . S
C1426 C1425 1.380 . S
C1426 C1427 1.383 . S
C1426 C1429 1.603 . S
C1427 C1422 1.377 . S
C1427 C1426 1.383 . S
C1427 H1490 0.929 . S
C1428 C1424 1.527 . S
C1428 H1491 0.961 . S
C1428 H1492 0.959 . S
C1428 H1493 0.959 . S
C1429 C1426 1.603 . S
C1429 H1494 0.960 . S
C1429 H1495 0.962 . S
C1429 H1496 0.961 . S
C1430 C1397 1.587 . S
C1430 C1431 1.360 . S
C1430 C1443 1.412 . S
C1431 C1430 1.360 . S
C1431 C1432 1.365 . S
C1431 H1497 0.929 . S
C1432 C1407 1.553 . S
C1432 C1431 1.365 . S
C1432 C1433 1.404 . S
C1433 C1432 1.404 . S
C1433 C1434 1.395 . S
C1433 C1444 1.451 . S
C1434 C1433 1.395 . S
C1434 C1435 1.322 . S
C1434 H1498 0.930 . S
C1435 C1434 1.322 . S
C1435 C1436 1.459 . S
C1435 H1499 0.929 . S
C1436 C1435 1.459 . S
C1436 C1437 1.445 . S
C1436 C1445 1.395 . S
C1437 C1415 1.432 . S
C1437 C1436 1.445 . S
C1437 C1438 1.370 . S
C1438 C1437 1.370 . S
C1438 C1439 1.438 . S
C1438 H1500 0.930 . S
C1439 C1425 1.497 . S
C1439 C1438 1.438 . S
C1439 C1440 1.360 . S
C1440 C1439 1.360 . S
C1440 C1441 1.401 . S
C1440 C1445 1.446 . S
C1441 C1440 1.401 . S
C1441 C1442 1.347 . S
C1441 H1501 0.929 . S
C1442 C1441 1.347 . S
C1442 C1443 1.455 . S
C1442 H1502 0.930 . S
C1443 C1430 1.412 . S
C1443 C1442 1.455 . S
C1443 C1444 1.331 . S
C1444 C1433 1.451 . S
C1444 C1443 1.331 . S
C1444 C1445 1.497 . S
C1445 C1436 1.395 . S
C1445 C1440 1.446 . S
C1445 C1444 1.497 . S
C1446 C1447 1.582 . S
C1446 H1503 0.962 . S
C1446 H1504 0.959 . S
C1446 H1505 0.958 . S
C1447 C1446 1.582 . S
C1447 O1450 1.458 . S
C1447 H1476 0.980 . S
O1448 C1393 1.426 . S
O1448 C1394 1.334 . S
O1449 C1421 1.412 . S
O1449 C1422 1.393 . S
O1450 C1412 1.435 . S
O1450 C1447 1.458 . S
O1451 C1403 1.468 . S
O1451 C1404 1.408 . S
H1452 C1393 0.980 . S
H1453 C1392 0.959 . S
H1454 C1392 0.959 . S
H1455 C1392 0.960 . S
H1456 C1395 0.929 . S
H1457 C1399 0.929 . S
H1458 C1400 0.959 . S
H1459 C1400 0.961 . S
H1460 C1400 0.961 . S
H1461 C1401 0.960 . S
H1462 C1401 0.960 . S
H1463 C1401 0.961 . S
H1464 C1403 0.980 . S
H1465 C1402 0.961 . S
H1466 C1402 0.960 . S
H1467 C1402 0.959 . S
H1468 C1405 0.930 . S
H1469 C1409 0.931 . S
H1470 C1410 0.959 . S
H1471 C1410 0.961 . S
H1472 C1410 0.959 . S
H1473 C1411 0.960 . S
H1474 C1411 0.960 . S
H1475 C1411 0.960 . S
H1476 C1447 0.980 . S
H1477 C1413 0.930 . S
H1478 C1417 0.930 . S
H1479 C1418 0.961 . S
H1480 C1418 0.960 . S
H1481 C1418 0.958 . S
H1482 C1419 0.961 . S
H1483 C1419 0.960 . S
H1484 C1419 0.960 . S
H1485 C1421 0.980 . S
H1486 C1420 0.961 . S
H1487 C1420 0.961 . S
H1488 C1420 0.959 . S
H1489 C1423 0.932 . S
H1490 C1427 0.929 . S
H1491 C1428 0.961 . S
H1492 C1428 0.959 . S
H1493 C1428 0.959 . S
H1494 C1429 0.960 . S
H1495 C1429 0.962 . S
H1496 C1429 0.961 . S
H1497 C1431 0.929 . S
H1498 C1434 0.930 . S
H1499 C1435 0.929 . S
H1500 C1438 0.930 . S
H1501 C1441 0.929 . S
H1502 C1442 0.930 . S
H1503 C1446 0.962 . S
H1504 C1446 0.959 . S
H1505 C1446 0.958 . S
C1506 C1507 1.560 . S
C1506 H1567 0.959 . S
C1506 H1568 0.959 . S
C1506 H1569 0.960 . S
C1507 C1506 1.560 . S
C1507 O1562 1.426 . S
C1507 H1566 0.980 . S
C1508 C1509 1.407 1_565 S
C1508 C1513 1.418 . S
C1508 O1562 1.334 . S
C1509 C1508 1.407 1_545 S
C1509 C1510 1.360 . S
C1509 H1570 0.929 . S
C1510 C1509 1.360 . S
C1510 C1511 1.315 1_545 S
C1510 C1514 1.527 . S
C1511 C1510 1.315 1_565 S
C1511 C1512 1.487 . S
C1511 C1544 1.602 1_565 S
C1512 C1511 1.487 . S
C1512 C1513 1.332 . S
C1512 C1515 1.496 . S
C1513 C1508 1.418 . S
C1513 C1512 1.332 . S
C1513 H1571 0.929 . S
C1514 C1510 1.527 . S
C1514 H1572 0.959 . S
C1514 H1573 0.961 . S
C1514 H1574 0.961 . S
C1515 C1512 1.496 . S
C1515 H1575 0.960 . S
C1515 H1576 0.960 . S
C1515 H1577 0.961 . S
C1516 C1517 1.517 . S
C1516 H1579 0.961 1_545 S
C1516 H1580 0.960 . S
C1516 H1581 0.959 . S
C1517 C1516 1.517 . S
C1517 O1565 1.468 . S
C1517 H1578 0.980 1_545 S
C1518 C1519 1.377 . S
C1518 C1523 1.367 . S
C1518 O1565 1.408 . S
C1519 C1518 1.377 . S
C1519 C1520 1.424 1_545 S
C1519 H1582 0.885 1_545 S
C1520 C1519 1.424 1_565 S
C1520 C1521 1.449 1_565 S
C1520 C1524 1.535 . S
C1521 C1520 1.449 1_545 S
C1521 C1522 1.384 . S
C1521 C1546 1.553 . S
C1522 C1521 1.384 . S
C1522 C1523 1.364 . S
C1522 C1525 1.450 . S
C1523 C1518 1.367 . S
C1523 C1522 1.364 . S
C1523 H1583 0.931 . S
C1524 C1520 1.535 . S
C1524 H1584 0.959 . S
C1524 H1585 0.961 . S
C1524 H1586 0.959 . S
C1525 C1522 1.450 . S
C1525 H1587 0.960 . S
C1525 H1588 0.960 . S
C1525 H1589 0.960 . S
C1526 C1527 1.309 . S
C1526 C1531 1.304 . S
C1526 O1564 1.435 . S
C1527 C1526 1.309 . S
C1527 C1528 1.497 1_545 S
C1527 H1591 0.930 1_545 S
C1528 C1527 1.497 1_565 S
C1528 C1529 1.335 1_565 S
C1528 C1532 1.612 . S
C1529 C1528 1.335 1_545 S
C1529 C1530 1.373 . S
C1529 C1551 1.432 . S
C1530 C1529 1.373 . S
C1530 C1531 1.339 . S
C1530 C1533 1.530 . S
C1531 C1526 1.304 . S
C1531 C1530 1.339 . S
C1531 H1592 0.930 . S
C1532 C1528 1.612 . S
C1532 H1593 0.961 . S
C1532 H1594 0.960 . S
C1532 H1595 0.958 . S
C1533 C1530 1.530 . S
C1533 H1596 0.961 . S
C1533 H1597 0.960 . S
C1533 H1598 0.960 . S
C1534 C1535 1.530 1_565 S
C1534 H1600 0.961 . S
C1534 H1601 0.961 . S
C1534 H1602 0.959 . S
C1535 C1534 1.530 1_545 S
C1535 O1563 1.412 1_545 S
C1535 H1599 0.980 . S
C1536 C1537 1.288 . S
C1536 C1541 1.377 1_565 S
C1536 O1563 1.393 . S
C1537 C1536 1.288 . S
C1537 C1538 1.369 . S
C1537 H1603 0.932 . S
C1538 C1537 1.369 . S
C1538 C1539 1.398 1_565 S
C1538 C1542 1.527 . S
C1539 C1538 1.398 1_545 S
C1539 C1540 1.380 . S
C1539 C1553 1.497 . S
C1540 C1539 1.380 . S
C1540 C1541 1.383 . S
C1540 C1543 1.603 . S
C1541 C1536 1.377 1_545 S
C1541 C1540 1.383 . S
C1541 H1604 0.929 . S
C1542 C1538 1.527 . S
C1542 H1605 0.961 . S
C1542 H1606 0.959 . S
C1542 H1607 0.959 . S
C1543 C1540 1.603 . S
C1543 H1608 0.960 . S
C1543 H1609 0.962 . S
C1543 H1610 0.961 . S
C1544 C1511 1.602 1_545 S
C1544 C1545 1.360 . S
C1544 C1557 1.412 . S
C1545 C1544 1.360 . S
C1545 C1546 1.365 . S
C1545 H1611 0.929 . S
C1546 C1521 1.553 . S
C1546 C1545 1.365 . S
C1546 C1547 1.404 . S
C1547 C1546 1.404 . S
C1547 C1548 1.395 . S
C1547 C1558 1.451 . S
C1548 C1547 1.395 . S
C1548 C1549 1.322 . S
C1548 H1612 0.930 . S
C1549 C1548 1.322 . S
C1549 C1550 1.459 . S
C1549 H1613 0.929 . S
C1550 C1549 1.459 . S
C1550 C1551 1.445 . S
C1550 C1559 1.395 . S
C1551 C1529 1.432 . S
C1551 C1550 1.445 . S
C1551 C1552 1.370 . S
C1552 C1551 1.370 . S
C1552 C1553 1.438 . S
C1552 H1614 0.930 . S
C1553 C1539 1.497 . S
C1553 C1552 1.438 . S
C1553 C1554 1.360 . S
C1554 C1553 1.360 . S
C1554 C1555 1.401 . S
C1554 C1559 1.446 . S
C1555 C1554 1.401 . S
C1555 C1556 1.347 . S
C1555 H1615 0.929 . S
C1556 C1555 1.347 . S
C1556 C1557 1.455 . S
C1556 H1616 0.930 . S
C1557 C1544 1.412 . S
C1557 C1556 1.455 . S
C1557 C1558 1.331 . S
C1558 C1547 1.451 . S
C1558 C1557 1.331 . S
C1558 C1559 1.497 . S
C1559 C1550 1.395 . S
C1559 C1554 1.446 . S
C1559 C1558 1.497 . S
C1560 C1561 1.582 . S
C1560 H1617 0.962 . S
C1560 H1618 0.959 . S
C1560 H1619 0.958 . S
C1561 C1560 1.582 . S
C1561 O1564 1.458 . S
C1561 H1590 0.980 . S
O1562 C1507 1.426 . S
O1562 C1508 1.334 . S
O1563 C1535 1.412 1_565 S
O1563 C1536 1.393 . S
O1564 C1526 1.435 . S
O1564 C1561 1.458 . S
O1565 C1517 1.468 . S
O1565 C1518 1.408 . S
H1566 C1507 0.980 . S
H1567 C1506 0.959 . S
H1568 C1506 0.959 . S
H1569 C1506 0.960 . S
H1570 C1509 0.929 . S
H1571 C1513 0.929 . S
H1572 C1514 0.959 . S
H1573 C1514 0.961 . S
H1574 C1514 0.961 . S
H1575 C1515 0.960 . S
H1576 C1515 0.960 . S
H1577 C1515 0.961 . S
H1578 C1517 0.980 1_565 S
H1579 C1516 0.961 1_565 S
H1580 C1516 0.960 . S
H1581 C1516 0.959 . S
H1582 C1519 0.885 1_565 S
H1583 C1523 0.931 . S
H1584 C1524 0.959 . S
H1585 C1524 0.961 . S
H1586 C1524 0.959 . S
H1587 C1525 0.960 . S
H1588 C1525 0.960 . S
H1589 C1525 0.960 . S
H1590 C1561 0.980 . S
H1591 C1527 0.930 1_565 S
H1592 C1531 0.930 . S
H1593 C1532 0.961 . S
H1594 C1532 0.960 . S
H1595 C1532 0.958 . S
H1596 C1533 0.961 . S
H1597 C1533 0.960 . S
H1598 C1533 0.960 . S
H1599 C1535 0.980 . S
H1600 C1534 0.961 . S
H1601 C1534 0.961 . S
H1602 C1534 0.959 . S
H1603 C1537 0.932 . S
H1604 C1541 0.929 . S
H1605 C1542 0.961 . S
H1606 C1542 0.959 . S
H1607 C1542 0.959 . S
H1608 C1543 0.960 . S
H1609 C1543 0.962 . S
H1610 C1543 0.961 . S
H1611 C1545 0.929 . S
H1612 C1548 0.930 . S
H1613 C1549 0.929 . S
H1614 C1552 0.930 . S
H1615 C1555 0.929 . S
H1616 C1556 0.930 . S
H1617 C1560 0.962 . S
H1618 C1560 0.959 . S
H1619 C1560 0.958 . S
C1620 C1621 1.560 . S
C1620 H1681 0.959 . S
C1620 H1682 0.959 . S
C1620 H1683 0.960 . S
C1621 C1620 1.560 . S
C1621 O1676 1.426 . S
C1621 H1680 0.980 1_565 S
C1622 C1623 1.407 1_565 S
C1622 C1627 1.418 . S
C1622 O1676 1.334 . S
C1623 C1622 1.407 1_545 S
C1623 C1624 1.360 . S
C1623 H1684 0.929 . S
C1624 C1623 1.360 . S
C1624 C1625 1.401 . S
C1624 C1628 1.527 . S
C1625 C1624 1.401 . S
C1625 C1626 1.405 1_545 S
C1625 C1658 1.587 . S
C1626 C1625 1.405 1_565 S
C1626 C1627 1.332 . S
C1626 C1629 1.496 . S
C1627 C1622 1.418 . S
C1627 C1626 1.332 . S
C1627 H1685 0.929 . S
C1628 C1624 1.527 . S
C1628 H1686 0.959 . S
C1628 H1687 0.961 . S
C1628 H1688 0.961 . S
C1629 C1626 1.496 . S
C1629 H1689 0.960 . S
C1629 H1690 0.960 . S
C1629 H1691 0.961 . S
C1630 C1631 1.517 . S
C1630 H1693 0.961 . S
C1630 H1694 0.960 . S
C1630 H1695 0.959 . S
C1631 C1630 1.517 . S
C1631 O1679 1.468 . S
C1631 H1692 0.980 . S
C1632 C1633 1.349 . S
C1632 C1637 1.367 . S
C1632 O1679 1.408 . S
C1633 C1632 1.349 . S
C1633 C1634 1.407 . S
C1633 H1696 0.926 . S
C1634 C1633 1.407 . S
C1634 C1635 1.449 . S
C1634 C1638 1.535 1_545 S
C1635 C1634 1.449 . S
C1635 C1636 1.384 . S
C1635 C1660 1.553 . S
C1636 C1635 1.384 . S
C1636 C1637 1.364 . S
C1636 C1639 1.450 . S
C1637 C1632 1.367 . S
C1637 C1636 1.364 . S
C1637 H1697 0.931 . S
C1638 C1634 1.535 1_565 S
C1638 H1698 0.959 . S
C1638 H1699 0.961 . S
C1638 H1700 0.959 . S
C1639 C1636 1.450 . S
C1639 H1701 0.960 . S
C1639 H1702 0.960 . S
C1639 H1703 0.960 . S
C1640 C1641 1.309 1_545 S
C1640 C1645 1.304 . S
C1640 O1678 1.435 . S
C1641 C1640 1.309 1_565 S
C1641 C1642 1.476 . S
C1641 H1705 0.930 . S
C1642 C1641 1.476 . S
C1642 C1643 1.400 1_565 S
C1642 C1646 1.567 . S
C1643 C1642 1.400 1_545 S
C1643 C1644 1.373 . S
C1643 C1665 1.432 . S
C1644 C1643 1.373 . S
C1644 C1645 1.339 . S
C1644 C1647 1.530 . S
C1645 C1640 1.304 . S
C1645 C1644 1.339 . S
C1645 H1706 0.930 . S
C1646 C1642 1.567 . S
C1646 H1707 0.961 . S
C1646 H1708 0.960 . S
C1646 H1709 0.958 . S
C1647 C1644 1.530 . S
C1647 H1710 0.961 . S
C1647 H1711 0.960 . S
C1647 H1712 0.960 . S
C1648 C1649 1.530 . S
C1648 H1714 0.961 . S
C1648 H1715 0.961 . S
C1648 H1716 0.959 . S
C1649 C1648 1.530 . S
C1649 O1677 1.412 . S
C1649 H1713 1.005 . S
C1650 C1651 1.288 . S
C1650 C1655 1.377 1_565 S
C1650 O1677 1.393 . S
C1651 C1650 1.288 . S
C1651 C1652 1.369 . S
C1651 H1717 0.932 . S
C1652 C1651 1.369 . S
C1652 C1653 1.398 . S
C1652 C1656 1.527 . S
C1653 C1652 1.398 . S
C1653 C1654 1.380 1_565 S
C1653 C1667 1.497 1_565 S
C1654 C1653 1.380 1_545 S
C1654 C1655 1.383 . S
C1654 C1657 1.603 . S
C1655 C1650 1.377 1_545 S
C1655 C1654 1.383 . S
C1655 H1718 0.929 . S
C1656 C1652 1.527 . S
C1656 H1719 0.961 . S
C1656 H1720 0.959 . S
C1656 H1721 0.959 . S
C1657 C1654 1.603 . S
C1657 H1722 0.960 . S
C1657 H1723 0.962 . S
C1657 H1724 0.961 . S
C1658 C1625 1.587 . S
C1658 C1659 1.360 . S
C1658 C1671 1.412 . S
C1659 C1658 1.360 . S
C1659 C1660 1.365 . S
C1659 H1725 0.929 . S
C1660 C1635 1.553 . S
C1660 C1659 1.365 . S
C1660 C1661 1.404 . S
C1661 C1660 1.404 . S
C1661 C1662 1.395 . S
C1661 C1672 1.451 . S
C1662 C1661 1.395 . S
C1662 C1663 1.322 . S
C1662 H1726 0.930 . S
C1663 C1662 1.322 . S
C1663 C1664 1.459 . S
C1663 H1727 0.929 . S
C1664 C1663 1.459 . S
C1664 C1665 1.445 . S
C1664 C1673 1.395 . S
C1665 C1643 1.432 . S
C1665 C1664 1.445 . S
C1665 C1666 1.370 . S
C1666 C1665 1.370 . S
C1666 C1667 1.438 . S
C1666 H1728 0.930 . S
C1667 C1653 1.497 1_545 S
C1667 C1666 1.438 . S
C1667 C1668 1.360 . S
C1668 C1667 1.360 . S
C1668 C1669 1.401 . S
C1668 C1673 1.446 . S
C1669 C1668 1.401 . S
C1669 C1670 1.347 . S
C1669 H1729 0.956 . S
C1670 C1669 1.347 . S
C1670 C1671 1.455 . S
C1670 H1730 0.930 . S
C1671 C1658 1.412 . S
C1671 C1670 1.455 . S
C1671 C1672 1.331 . S
C1672 C1661 1.451 . S
C1672 C1671 1.331 . S
C1672 C1673 1.497 . S
C1673 C1664 1.395 . S
C1673 C1668 1.446 . S
C1673 C1672 1.497 . S
C1674 C1675 1.582 . S
C1674 H1731 0.962 . S
C1674 H1732 0.959 . S
C1674 H1733 0.958 . S
C1675 C1674 1.582 . S
C1675 O1678 1.458 . S
C1675 H1704 0.980 1_545 S
O1676 C1621 1.426 . S
O1676 C1622 1.334 . S
O1677 C1649 1.412 . S
O1677 C1650 1.393 . S
O1678 C1640 1.435 . S
O1678 C1675 1.458 . S
O1679 C1631 1.468 . S
O1679 C1632 1.408 . S
H1680 C1621 0.980 1_545 S
H1681 C1620 0.959 . S
H1682 C1620 0.959 . S
H1683 C1620 0.960 . S
H1684 C1623 0.929 . S
H1685 C1627 0.929 . S
H1686 C1628 0.959 . S
H1687 C1628 0.961 . S
H1688 C1628 0.961 . S
H1689 C1629 0.960 . S
H1690 C1629 0.960 . S
H1691 C1629 0.961 . S
H1692 C1631 0.980 . S
H1693 C1630 0.961 . S
H1694 C1630 0.960 . S
H1695 C1630 0.959 . S
H1696 C1633 0.926 . S
H1697 C1637 0.931 . S
H1698 C1638 0.959 . S
H1699 C1638 0.961 . S
H1700 C1638 0.959 . S
H1701 C1639 0.960 . S
H1702 C1639 0.960 . S
H1703 C1639 0.960 . S
H1704 C1675 0.980 1_565 S
H1705 C1641 0.930 . S
H1706 C1645 0.930 . S
H1707 C1646 0.961 . S
H1708 C1646 0.960 . S
H1709 C1646 0.958 . S
H1710 C1647 0.961 . S
H1711 C1647 0.960 . S
H1712 C1647 0.960 . S
H1713 C1649 1.005 . S
H1714 C1648 0.961 . S
H1715 C1648 0.961 . S
H1716 C1648 0.959 . S
H1717 C1651 0.932 . S
H1718 C1655 0.929 . S
H1719 C1656 0.961 . S
H1720 C1656 0.959 . S
H1721 C1656 0.959 . S
H1722 C1657 0.960 . S
H1723 C1657 0.962 . S
H1724 C1657 0.961 . S
H1725 C1659 0.929 . S
H1726 C1662 0.930 . S
H1727 C1663 0.929 . S
H1728 C1666 0.930 . S
H1729 C1669 0.956 . S
H1730 C1670 0.930 . S
H1731 C1674 0.962 . S
H1732 C1674 0.959 . S
H1733 C1674 0.958 . S
C1734 C1735 1.560 . S
C1734 H1795 0.959 . S
C1734 H1796 0.959 . S
C1734 H1797 0.960 . S
C1735 C1734 1.560 . S
C1735 O1790 1.426 . S
C1735 H1794 0.980 1_455 S
C1736 C1737 1.407 1_455 S
C1736 C1741 1.418 . S
C1736 O1790 1.334 . S
C1737 C1736 1.407 1_655 S
C1737 C1738 1.360 . S
C1737 H1798 0.929 . S
C1738 C1737 1.360 . S
C1738 C1739 1.401 . S
C1738 C1742 1.527 . S
C1739 C1738 1.401 . S
C1739 C1740 1.405 1_655 S
C1739 C1772 1.587 . S
C1740 C1739 1.405 1_455 S
C1740 C1741 1.332 . S
C1740 C1743 1.496 . S
C1741 C1736 1.418 . S
C1741 C1740 1.332 . S
C1741 H1799 0.929 . S
C1742 C1738 1.527 . S
C1742 H1800 0.959 . S
C1742 H1801 0.961 . S
C1742 H1802 0.961 . S
C1743 C1740 1.496 . S
C1743 H1803 0.960 . S
C1743 H1804 0.960 . S
C1743 H1805 0.961 . S
C1744 C1745 1.517 . S
C1744 H1807 0.961 . S
C1744 H1808 0.960 . S
C1744 H1809 0.959 . S
C1745 C1744 1.517 . S
C1745 O1793 1.468 . S
C1745 H1806 0.980 . S
C1746 C1747 1.349 . S
C1746 C1751 1.367 . S
C1746 O1793 1.408 . S
C1747 C1746 1.349 . S
C1747 C1748 1.407 . S
C1747 H1810 0.885 1_655 S
C1748 C1747 1.407 . S
C1748 C1749 1.449 . S
C1748 C1752 1.535 1_655 S
C1749 C1748 1.449 . S
C1749 C1750 1.384 . S
C1749 C1774 1.553 . S
C1750 C1749 1.384 . S
C1750 C1751 1.364 . S
C1750 C1753 1.450 . S
C1751 C1746 1.367 . S
C1751 C1750 1.364 . S
C1751 H1811 0.931 . S
C1752 C1748 1.535 1_455 S
C1752 H1812 0.959 . S
C1752 H1813 0.961 . S
C1752 H1814 0.959 . S
C1753 C1750 1.450 . S
C1753 H1815 0.960 . S
C1753 H1816 0.960 . S
C1753 H1817 0.960 . S
C1754 C1755 1.309 1_655 S
C1754 C1759 1.304 . S
C1754 O1792 1.435 . S
C1755 C1754 1.309 1_455 S
C1755 C1756 1.476 . S
C1755 H1819 0.930 . S
C1756 C1755 1.476 . S
C1756 C1757 1.400 1_455 S
C1756 C1760 1.567 . S
C1757 C1756 1.400 1_655 S
C1757 C1758 1.373 . S
C1757 C1779 1.432 . S
C1758 C1757 1.373 . S
C1758 C1759 1.339 . S
C1758 C1761 1.530 . S
C1759 C1754 1.304 . S
C1759 C1758 1.339 . S
C1759 H1820 0.930 . S
C1760 C1756 1.567 . S
C1760 H1821 0.961 . S
C1760 H1822 0.960 . S
C1760 H1823 0.958 . S
C1761 C1758 1.530 . S
C1761 H1824 0.961 . S
C1761 H1825 0.960 . S
C1761 H1826 0.960 . S
C1762 C1763 1.530 . S
C1762 H1828 0.961 . S
C1762 H1829 0.961 . S
C1762 H1830 0.959 . S
C1763 C1762 1.530 . S
C1763 O1791 1.412 . S
C1763 H1827 0.962 1_455 S
C1764 C1765 1.288 . S
C1764 C1769 1.377 1_455 S
C1764 O1791 1.393 . S
C1765 C1764 1.288 . S
C1765 C1766 1.369 . S
C1765 H1831 0.932 . S
C1766 C1765 1.369 . S
C1766 C1767 1.398 . S
C1766 C1770 1.527 . S
C1767 C1766 1.398 . S
C1767 C1768 1.380 1_455 S
C1767 C1781 1.497 1_455 S
C1768 C1767 1.380 1_655 S
C1768 C1769 1.383 . S
C1768 C1771 1.603 . S
C1769 C1764 1.377 1_655 S
C1769 C1768 1.383 . S
C1769 H1832 0.929 . S
C1770 C1766 1.527 . S
C1770 H1833 0.961 . S
C1770 H1834 0.959 . S
C1770 H1835 0.959 . S
C1771 C1768 1.603 . S
C1771 H1836 0.960 . S
C1771 H1837 0.962 . S
C1771 H1838 0.961 . S
C1772 C1739 1.587 . S
C1772 C1773 1.360 . S
C1772 C1785 1.412 . S
C1773 C1772 1.360 . S
C1773 C1774 1.365 . S
C1773 H1839 0.929 . S
C1774 C1749 1.553 . S
C1774 C1773 1.365 . S
C1774 C1775 1.404 . S
C1775 C1774 1.404 . S
C1775 C1776 1.395 . S
C1775 C1786 1.451 . S
C1776 C1775 1.395 . S
C1776 C1777 1.322 . S
C1776 H1840 0.930 . S
C1777 C1776 1.322 . S
C1777 C1778 1.459 . S
C1777 H1841 0.929 . S
C1778 C1777 1.459 . S
C1778 C1779 1.445 . S
C1778 C1787 1.395 . S
C1779 C1757 1.432 . S
C1779 C1778 1.445 . S
C1779 C1780 1.370 . S
C1780 C1779 1.370 . S
C1780 C1781 1.438 . S
C1780 H1842 0.930 . S
C1781 C1767 1.497 1_655 S
C1781 C1780 1.438 . S
C1781 C1782 1.360 . S
C1782 C1781 1.360 . S
C1782 C1783 1.401 . S
C1782 C1787 1.446 . S
C1783 C1782 1.401 . S
C1783 C1784 1.347 . S
C1783 H1843 0.929 . S
C1784 C1783 1.347 . S
C1784 C1785 1.455 . S
C1784 H1844 0.930 . S
C1785 C1772 1.412 . S
C1785 C1784 1.455 . S
C1785 C1786 1.331 . S
C1786 C1775 1.451 . S
C1786 C1785 1.331 . S
C1786 C1787 1.497 . S
C1787 C1778 1.395 . S
C1787 C1782 1.446 . S
C1787 C1786 1.497 . S
C1788 C1789 1.582 1_655 S
C1788 H1845 0.969 1_655 S
C1788 H1846 0.959 . S
C1788 H1847 0.958 . S
C1789 C1788 1.582 1_455 S
C1789 O1792 1.393 1_455 S
C1789 H1818 1.007 . S
O1790 C1735 1.426 . S
O1790 C1736 1.334 . S
O1791 C1763 1.412 . S
O1791 C1764 1.393 . S
O1792 C1754 1.435 . S
O1792 C1789 1.393 1_655 S
O1793 C1745 1.468 . S
O1793 C1746 1.408 . S
H1794 C1735 0.980 1_655 S
H1795 C1734 0.959 . S
H1796 C1734 0.959 . S
H1797 C1734 0.960 . S
H1798 C1737 0.929 . S
H1799 C1741 0.929 . S
H1800 C1742 0.959 . S
H1801 C1742 0.961 . S
H1802 C1742 0.961 . S
H1803 C1743 0.960 . S
H1804 C1743 0.960 . S
H1805 C1743 0.961 . S
H1806 C1745 0.980 . S
H1807 C1744 0.961 . S
H1808 C1744 0.960 . S
H1809 C1744 0.959 . S
H1810 C1747 0.885 1_455 S
H1811 C1751 0.931 . S
H1812 C1752 0.959 . S
H1813 C1752 0.961 . S
H1814 C1752 0.959 . S
H1815 C1753 0.960 . S
H1816 C1753 0.960 . S
H1817 C1753 0.960 . S
H1818 C1789 1.007 . S
H1819 C1755 0.930 . S
H1820 C1759 0.930 . S
H1821 C1760 0.961 . S
H1822 C1760 0.960 . S
H1823 C1760 0.958 . S
H1824 C1761 0.961 . S
H1825 C1761 0.960 . S
H1826 C1761 0.960 . S
H1827 C1763 0.962 1_655 S
H1828 C1762 0.961 . S
H1829 C1762 0.961 . S
H1830 C1762 0.959 . S
H1831 C1765 0.932 . S
H1832 C1769 0.929 . S
H1833 C1770 0.961 . S
H1834 C1770 0.959 . S
H1835 C1770 0.959 . S
H1836 C1771 0.960 . S
H1837 C1771 0.962 . S
H1838 C1771 0.961 . S
H1839 C1773 0.929 . S
H1840 C1776 0.930 . S
H1841 C1777 0.929 . S
H1842 C1780 0.930 . S
H1843 C1783 0.929 . S
H1844 C1784 0.930 . S
H1845 C1788 0.969 1_455 S
H1846 C1788 0.959 . S
H1847 C1788 0.958 . S
C1848 C1849 1.560 . S
C1848 H1909 0.959 . S
C1848 H1910 0.959 . S
C1848 H1911 0.960 . S
C1849 C1848 1.560 . S
C1849 O1904 1.426 . S
C1849 H1908 0.980 . S
C1850 C1851 1.407 . S
C1850 C1855 1.418 . S
C1850 O1904 1.334 . S
C1851 C1850 1.407 . S
C1851 C1852 1.360 . S
C1851 H1912 0.929 . S
C1852 C1851 1.360 . S
C1852 C1853 1.401 . S
C1852 C1856 1.527 . S
C1853 C1852 1.401 . S
C1853 C1854 1.405 . S
C1853 C1886 1.587 . S
C1854 C1853 1.405 . S
C1854 C1855 1.332 . S
C1854 C1857 1.496 . S
C1855 C1850 1.418 . S
C1855 C1854 1.332 . S
C1855 H1913 0.929 . S
C1856 C1852 1.527 . S
C1856 H1914 0.959 . S
C1856 H1915 0.961 . S
C1856 H1916 0.961 . S
C1857 C1854 1.496 . S
C1857 H1917 0.960 . S
C1857 H1918 0.960 . S
C1857 H1919 0.961 . S
C1858 C1859 1.517 . S
C1858 H1921 0.961 . S
C1858 H1922 0.960 . S
C1858 H1923 0.959 . S
C1859 C1858 1.517 . S
C1859 O1907 1.468 . S
C1859 H1920 0.980 . S
C1860 C1861 1.349 . S
C1860 C1865 1.367 . S
C1860 O1907 1.408 . S
C1861 C1860 1.349 . S
C1861 C1862 1.407 . S
C1861 H1924 0.930 . S
C1862 C1861 1.407 . S
C1862 C1863 1.449 . S
C1862 C1866 1.535 . S
C1863 C1862 1.449 . S
C1863 C1864 1.384 . S
C1863 C1888 1.553 . S
C1864 C1863 1.384 . S
C1864 C1865 1.364 . S
C1864 C1867 1.450 . S
C1865 C1860 1.367 . S
C1865 C1864 1.364 . S
C1865 H1925 0.931 . S
C1866 C1862 1.535 . S
C1866 H1926 0.959 . S
C1866 H1927 0.961 . S
C1866 H1928 0.959 . S
C1867 C1864 1.450 . S
C1867 H1929 0.960 . S
C1867 H1930 0.960 . S
C1867 H1931 0.960 . S
C1868 C1869 1.309 . S
C1868 C1873 1.304 . S
C1868 O1906 1.435 . S
C1869 C1868 1.309 . S
C1869 C1870 1.476 . S
C1869 H1933 0.930 . S
C1870 C1869 1.476 . S
C1870 C1871 1.400 . S
C1870 C1874 1.567 . S
C1871 C1870 1.400 . S
C1871 C1872 1.373 . S
C1871 C1893 1.432 . S
C1872 C1871 1.373 . S
C1872 C1873 1.339 . S
C1872 C1875 1.530 . S
C1873 C1868 1.304 . S
C1873 C1872 1.339 . S
C1873 H1934 0.930 . S
C1874 C1870 1.567 . S
C1874 H1935 0.961 . S
C1874 H1936 0.960 . S
C1874 H1937 0.958 . S
C1875 C1872 1.530 . S
C1875 H1938 0.961 . S
C1875 H1939 0.960 . S
C1875 H1940 0.960 . S
C1876 C1877 1.530 . S
C1876 H1942 0.961 . S
C1876 H1943 0.961 . S
C1876 H1944 0.959 . S
C1877 C1876 1.530 . S
C1877 O1905 1.412 . S
C1877 H1941 0.980 . S
C1878 C1879 1.288 . S
C1878 C1883 1.377 . S
C1878 O1905 1.393 . S
C1879 C1878 1.288 . S
C1879 C1880 1.369 . S
C1879 H1945 0.932 . S
C1880 C1879 1.369 . S
C1880 C1881 1.398 . S
C1880 C1884 1.527 . S
C1881 C1880 1.398 . S
C1881 C1882 1.380 . S
C1881 C1895 1.497 . S
C1882 C1881 1.380 . S
C1882 C1883 1.383 . S
C1882 C1885 1.603 . S
C1883 C1878 1.377 . S
C1883 C1882 1.383 . S
C1883 H1946 0.929 . S
C1884 C1880 1.527 . S
C1884 H1947 0.961 . S
C1884 H1948 0.959 . S
C1884 H1949 0.959 . S
C1885 C1882 1.603 . S
C1885 H1950 0.960 . S
C1885 H1951 0.962 . S
C1885 H1952 0.961 . S
C1886 C1853 1.587 . S
C1886 C1887 1.360 . S
C1886 C1899 1.412 . S
C1887 C1886 1.360 . S
C1887 C1888 1.365 . S
C1887 H1953 0.929 . S
C1888 C1863 1.553 . S
C1888 C1887 1.365 . S
C1888 C1889 1.404 . S
C1889 C1888 1.404 . S
C1889 C1890 1.395 . S
C1889 C1900 1.451 . S
C1890 C1889 1.395 . S
C1890 C1891 1.322 . S
C1890 H1954 0.930 . S
C1891 C1890 1.322 . S
C1891 C1892 1.459 . S
C1891 H1955 0.929 . S
C1892 C1891 1.459 . S
C1892 C1893 1.445 . S
C1892 C1901 1.395 . S
C1893 C1871 1.432 . S
C1893 C1892 1.445 . S
C1893 C1894 1.370 . S
C1894 C1893 1.370 . S
C1894 C1895 1.438 . S
C1894 H1956 0.930 . S
C1895 C1881 1.497 . S
C1895 C1894 1.438 . S
C1895 C1896 1.360 . S
C1896 C1895 1.360 . S
C1896 C1897 1.401 . S
C1896 C1901 1.446 . S
C1897 C1896 1.401 . S
C1897 C1898 1.347 . S
C1897 H1957 0.929 . S
C1898 C1897 1.347 . S
C1898 C1899 1.455 . S
C1898 H1958 0.930 . S
C1899 C1886 1.412 . S
C1899 C1898 1.455 . S
C1899 C1900 1.331 . S
C1900 C1889 1.451 . S
C1900 C1899 1.331 . S
C1900 C1901 1.497 . S
C1901 C1892 1.395 . S
C1901 C1896 1.446 . S
C1901 C1900 1.497 . S
C1902 C1903 1.582 . S
C1902 H1959 0.962 . S
C1902 H1960 0.959 . S
C1902 H1961 0.958 . S
C1903 C1902 1.582 . S
C1903 O1906 1.458 . S
C1903 H1932 0.980 . S
O1904 C1849 1.426 . S
O1904 C1850 1.334 . S
O1905 C1877 1.412 . S
O1905 C1878 1.393 . S
O1906 C1868 1.435 . S
O1906 C1903 1.458 . S
O1907 C1859 1.468 . S
O1907 C1860 1.408 . S
H1908 C1849 0.980 . S
H1909 C1848 0.959 . S
H1910 C1848 0.959 . S
H1911 C1848 0.960 . S
H1912 C1851 0.929 . S
H1913 C1855 0.929 . S
H1914 C1856 0.959 . S
H1915 C1856 0.961 . S
H1916 C1856 0.961 . S
H1917 C1857 0.960 . S
H1918 C1857 0.960 . S
H1919 C1857 0.961 . S
H1920 C1859 0.980 . S
H1921 C1858 0.961 . S
H1922 C1858 0.960 . S
H1923 C1858 0.959 . S
H1924 C1861 0.930 . S
H1925 C1865 0.931 . S
H1926 C1866 0.959 . S
H1927 C1866 0.961 . S
H1928 C1866 0.959 . S
H1929 C1867 0.960 . S
H1930 C1867 0.960 . S
H1931 C1867 0.960 . S
H1932 C1903 0.980 . S
H1933 C1869 0.930 . S
H1934 C1873 0.930 . S
H1935 C1874 0.961 . S
H1936 C1874 0.960 . S
H1937 C1874 0.958 . S
H1938 C1875 0.961 . S
H1939 C1875 0.960 . S
H1940 C1875 0.960 . S
H1941 C1877 0.980 . S
H1942 C1876 0.961 . S
H1943 C1876 0.961 . S
H1944 C1876 0.959 . S
H1945 C1879 0.932 . S
H1946 C1883 0.929 . S
H1947 C1884 0.961 . S
H1948 C1884 0.959 . S
H1949 C1884 0.959 . S
H1950 C1885 0.960 . S
H1951 C1885 0.962 . S
H1952 C1885 0.961 . S
H1953 C1887 0.929 . S
H1954 C1890 0.930 . S
H1955 C1891 0.929 . S
H1956 C1894 0.930 . S
H1957 C1897 0.929 . S
H1958 C1898 0.930 . S
H1959 C1902 0.962 . S
H1960 C1902 0.959 . S
H1961 C1902 0.958 . S
C1962 C1963 1.560 . S
C1962 H2023 0.959 . S
C1962 H2024 0.959 . S
C1962 H2025 0.960 . S
C1963 C1962 1.560 . S
C1963 O2018 1.426 . S
C1963 H2022 0.980 . S
C1964 C1965 1.407 . S
C1964 C1969 1.418 . S
C1964 O2018 1.334 . S
C1965 C1964 1.407 . S
C1965 C1966 1.360 . S
C1965 H2026 0.929 . S
C1966 C1965 1.360 . S
C1966 C1967 1.401 . S
C1966 C1970 1.527 . S
C1967 C1966 1.401 . S
C1967 C1968 1.405 . S
C1967 C2000 1.587 . S
C1968 C1967 1.405 . S
C1968 C1969 1.332 . S
C1968 C1971 1.496 . S
C1969 C1964 1.418 . S
C1969 C1968 1.332 . S
C1969 H2027 0.929 . S
C1970 C1966 1.527 . S
C1970 H2028 0.959 . S
C1970 H2029 0.961 . S
C1970 H2030 0.961 . S
C1971 C1968 1.496 . S
C1971 H2031 0.960 . S
C1971 H2032 0.960 . S
C1971 H2033 0.961 . S
C1972 C1973 1.517 . S
C1972 H2035 0.961 . S
C1972 H2036 0.960 . S
C1972 H2037 0.959 . S
C1973 C1972 1.517 . S
C1973 O2021 1.468 . S
C1973 H2034 0.980 . S
C1974 C1975 1.349 . S
C1974 C1979 1.367 . S
C1974 O2021 1.408 . S
C1975 C1974 1.349 . S
C1975 C1976 1.407 . S
C1975 H2038 0.930 . S
C1976 C1975 1.407 . S
C1976 C1977 1.449 . S
C1976 C1980 1.535 . S
C1977 C1976 1.449 . S
C1977 C1978 1.384 . S
C1977 C2002 1.553 . S
C1978 C1977 1.384 . S
C1978 C1979 1.364 . S
C1978 C1981 1.450 . S
C1979 C1974 1.367 . S
C1979 C1978 1.364 . S
C1979 H2039 0.931 . S
C1980 C1976 1.535 . S
C1980 H2040 0.959 . S
C1980 H2041 0.961 . S
C1980 H2042 0.959 . S
C1981 C1978 1.450 . S
C1981 H2043 0.960 . S
C1981 H2044 0.960 . S
C1981 H2045 0.960 . S
C1982 C1983 1.309 . S
C1982 C1987 1.304 . S
C1982 O2020 1.435 . S
C1983 C1982 1.309 . S
C1983 C1984 1.476 . S
C1983 H2047 0.930 . S
C1984 C1983 1.476 . S
C1984 C1985 1.400 . S
C1984 C1988 1.567 . S
C1985 C1984 1.400 . S
C1985 C1986 1.373 . S
C1985 C2007 1.432 . S
C1986 C1985 1.373 . S
C1986 C1987 1.339 . S
C1986 C1989 1.530 . S
C1987 C1982 1.304 . S
C1987 C1986 1.339 . S
C1987 H2048 0.930 . S
C1988 C1984 1.567 . S
C1988 H2049 0.961 . S
C1988 H2050 0.960 . S
C1988 H2051 0.958 . S
C1989 C1986 1.530 . S
C1989 H2052 0.961 . S
C1989 H2053 0.960 . S
C1989 H2054 0.960 . S
C1990 C1991 1.530 . S
C1990 H2056 0.961 . S
C1990 H2057 0.961 . S
C1990 H2058 0.959 . S
C1991 C1990 1.530 . S
C1991 O2019 1.412 . S
C1991 H2055 0.980 . S
C1992 C1993 1.288 . S
C1992 C1997 1.377 . S
C1992 O2019 1.393 . S
C1993 C1992 1.288 . S
C1993 C1994 1.369 . S
C1993 H2059 0.932 . S
C1994 C1993 1.369 . S
C1994 C1995 1.398 . S
C1994 C1998 1.527 . S
C1995 C1994 1.398 . S
C1995 C1996 1.380 . S
C1995 C2009 1.497 . S
C1996 C1995 1.380 . S
C1996 C1997 1.383 . S
C1996 C1999 1.603 . S
C1997 C1992 1.377 . S
C1997 C1996 1.383 . S
C1997 H2060 0.929 . S
C1998 C1994 1.527 . S
C1998 H2061 0.961 . S
C1998 H2062 0.959 . S
C1998 H2063 0.959 . S
C1999 C1996 1.603 . S
C1999 H2064 0.960 . S
C1999 H2065 0.962 . S
C1999 H2066 0.961 . S
C2000 C1967 1.587 . S
C2000 C2001 1.360 . S
C2000 C2013 1.412 . S
C2001 C2000 1.360 . S
C2001 C2002 1.365 . S
C2001 H2067 0.929 . S
C2002 C1977 1.553 . S
C2002 C2001 1.365 . S
C2002 C2003 1.404 . S
C2003 C2002 1.404 . S
C2003 C2004 1.395 . S
C2003 C2014 1.451 . S
C2004 C2003 1.395 . S
C2004 C2005 1.322 . S
C2004 H2068 0.930 . S
C2005 C2004 1.322 . S
C2005 C2006 1.459 . S
C2005 H2069 0.929 . S
C2006 C2005 1.459 . S
C2006 C2007 1.445 . S
C2006 C2015 1.395 . S
C2007 C1985 1.432 . S
C2007 C2006 1.445 . S
C2007 C2008 1.370 . S
C2008 C2007 1.370 . S
C2008 C2009 1.438 . S
C2008 H2070 0.930 . S
C2009 C1995 1.497 . S
C2009 C2008 1.438 . S
C2009 C2010 1.360 . S
C2010 C2009 1.360 . S
C2010 C2011 1.401 . S
C2010 C2015 1.446 . S
C2011 C2010 1.401 . S
C2011 C2012 1.347 . S
C2011 H2071 0.929 . S
C2012 C2011 1.347 . S
C2012 C2013 1.455 . S
C2012 H2072 0.930 . S
C2013 C2000 1.412 . S
C2013 C2012 1.455 . S
C2013 C2014 1.331 . S
C2014 C2003 1.451 . S
C2014 C2013 1.331 . S
C2014 C2015 1.497 . S
C2015 C2006 1.395 . S
C2015 C2010 1.446 . S
C2015 C2014 1.497 . S
C2016 C2017 1.582 . S
C2016 H2073 0.962 . S
C2016 H2074 0.959 . S
C2016 H2075 0.958 . S
C2017 C2016 1.582 . S
C2017 O2020 1.458 . S
C2017 H2046 0.980 . S
O2018 C1963 1.426 . S
O2018 C1964 1.334 . S
O2019 C1991 1.412 . S
O2019 C1992 1.393 . S
O2020 C1982 1.435 . S
O2020 C2017 1.458 . S
O2021 C1973 1.468 . S
O2021 C1974 1.408 . S
H2022 C1963 0.980 . S
H2023 C1962 0.959 . S
H2024 C1962 0.959 . S
H2025 C1962 0.960 . S
H2026 C1965 0.929 . S
H2027 C1969 0.929 . S
H2028 C1970 0.959 . S
H2029 C1970 0.961 . S
H2030 C1970 0.961 . S
H2031 C1971 0.960 . S
H2032 C1971 0.960 . S
H2033 C1971 0.961 . S
H2034 C1973 0.980 . S
H2035 C1972 0.961 . S
H2036 C1972 0.960 . S
H2037 C1972 0.959 . S
H2038 C1975 0.930 . S
H2039 C1979 0.931 . S
H2040 C1980 0.959 . S
H2041 C1980 0.961 . S
H2042 C1980 0.959 . S
H2043 C1981 0.960 . S
H2044 C1981 0.960 . S
H2045 C1981 0.960 . S
H2046 C2017 0.980 . S
H2047 C1983 0.930 . S
H2048 C1987 0.930 . S
H2049 C1988 0.961 . S
H2050 C1988 0.960 . S
H2051 C1988 0.958 . S
H2052 C1989 0.961 . S
H2053 C1989 0.960 . S
H2054 C1989 0.960 . S
H2055 C1991 0.980 . S
H2056 C1990 0.961 . S
H2057 C1990 0.961 . S
H2058 C1990 0.959 . S
H2059 C1993 0.932 . S
H2060 C1997 0.929 . S
H2061 C1998 0.961 . S
H2062 C1998 0.959 . S
H2063 C1998 0.959 . S
H2064 C1999 0.960 . S
H2065 C1999 0.962 . S
H2066 C1999 0.961 . S
H2067 C2001 0.929 . S
H2068 C2004 0.930 . S
H2069 C2005 0.929 . S
H2070 C2008 0.930 . S
H2071 C2011 0.929 . S
H2072 C2012 0.930 . S
H2073 C2016 0.962 . S
H2074 C2016 0.959 . S
H2075 C2016 0.958 . S
C2076 C2077 1.560 . S
C2076 H2137 0.959 . S
C2076 H2138 0.959 . S
C2076 H2139 0.960 . S
C2077 C2076 1.560 . S
C2077 O2132 1.426 . S
C2077 H2136 0.980 . S
C2078 C2079 1.407 . S
C2078 C2083 1.418 . S
C2078 O2132 1.334 . S
C2079 C2078 1.407 . S
C2079 C2080 1.360 . S
C2079 H2140 0.929 . S
C2080 C2079 1.360 . S
C2080 C2081 1.401 . S
C2080 C2084 1.527 . S
C2081 C2080 1.401 . S
C2081 C2082 1.405 . S
C2081 C2114 1.587 . S
C2082 C2081 1.405 . S
C2082 C2083 1.332 . S
C2082 C2085 1.496 . S
C2083 C2078 1.418 . S
C2083 C2082 1.332 . S
C2083 H2141 0.929 . S
C2084 C2080 1.527 . S
C2084 H2142 0.959 . S
C2084 H2143 0.961 . S
C2084 H2144 0.961 . S
C2085 C2082 1.496 . S
C2085 H2145 0.960 . S
C2085 H2146 0.960 . S
C2085 H2147 0.961 . S
C2086 C2087 1.517 . S
C2086 H2149 0.961 . S
C2086 H2150 0.960 . S
C2086 H2151 0.959 . S
C2087 C2086 1.517 . S
C2087 O2135 1.468 . S
C2087 H2148 0.980 . S
C2088 C2089 1.349 . S
C2088 C2093 1.367 . S
C2088 O2135 1.408 . S
C2089 C2088 1.349 . S
C2089 C2090 1.407 . S
C2089 H2152 0.930 . S
C2090 C2089 1.407 . S
C2090 C2091 1.449 . S
C2090 C2094 1.535 . S
C2091 C2090 1.449 . S
C2091 C2092 1.384 . S
C2091 C2116 1.553 . S
C2092 C2091 1.384 . S
C2092 C2093 1.364 . S
C2092 C2095 1.450 . S
C2093 C2088 1.367 . S
C2093 C2092 1.364 . S
C2093 H2153 0.931 . S
C2094 C2090 1.535 . S
C2094 H2154 0.959 . S
C2094 H2155 0.961 . S
C2094 H2156 0.959 . S
C2095 C2092 1.450 . S
C2095 H2157 0.960 . S
C2095 H2158 0.960 . S
C2095 H2159 0.960 . S
C2096 C2097 1.309 . S
C2096 C2101 1.304 . S
C2096 O2134 1.435 . S
C2097 C2096 1.309 . S
C2097 C2098 1.476 . S
C2097 H2161 0.930 . S
C2098 C2097 1.476 . S
C2098 C2099 1.400 . S
C2098 C2102 1.567 . S
C2099 C2098 1.400 . S
C2099 C2100 1.373 . S
C2099 C2121 1.432 . S
C2100 C2099 1.373 . S
C2100 C2101 1.339 . S
C2100 C2103 1.530 . S
C2101 C2096 1.304 . S
C2101 C2100 1.339 . S
C2101 H2162 0.930 . S
C2102 C2098 1.567 . S
C2102 H2163 0.961 . S
C2102 H2164 0.960 . S
C2102 H2165 0.958 . S
C2103 C2100 1.530 . S
C2103 H2166 0.961 . S
C2103 H2167 0.960 . S
C2103 H2168 0.960 . S
C2104 C2105 1.530 . S
C2104 H2170 0.961 . S
C2104 H2171 0.961 . S
C2104 H2172 0.959 . S
C2105 C2104 1.530 . S
C2105 O2133 1.412 . S
C2105 H2169 0.980 . S
C2106 C2107 1.288 . S
C2106 C2111 1.377 . S
C2106 O2133 1.393 . S
C2107 C2106 1.288 . S
C2107 C2108 1.369 . S
C2107 H2173 0.932 . S
C2108 C2107 1.369 . S
C2108 C2109 1.398 . S
C2108 C2112 1.527 . S
C2109 C2108 1.398 . S
C2109 C2110 1.380 . S
C2109 C2123 1.497 . S
C2110 C2109 1.380 . S
C2110 C2111 1.383 . S
C2110 C2113 1.603 . S
C2111 C2106 1.377 . S
C2111 C2110 1.383 . S
C2111 H2174 0.929 . S
C2112 C2108 1.527 . S
C2112 H2175 0.961 . S
C2112 H2176 0.959 . S
C2112 H2177 0.959 . S
C2113 C2110 1.603 . S
C2113 H2178 0.960 . S
C2113 H2179 0.962 . S
C2113 H2180 0.961 . S
C2114 C2081 1.587 . S
C2114 C2115 1.360 . S
C2114 C2127 1.412 . S
C2115 C2114 1.360 . S
C2115 C2116 1.365 . S
C2115 H2181 0.929 . S
C2116 C2091 1.553 . S
C2116 C2115 1.365 . S
C2116 C2117 1.404 . S
C2117 C2116 1.404 . S
C2117 C2118 1.395 . S
C2117 C2128 1.451 . S
C2118 C2117 1.395 . S
C2118 C2119 1.322 . S
C2118 H2182 0.930 . S
C2119 C2118 1.322 . S
C2119 C2120 1.459 . S
C2119 H2183 0.929 . S
C2120 C2119 1.459 . S
C2120 C2121 1.445 . S
C2120 C2129 1.395 . S
C2121 C2099 1.432 . S
C2121 C2120 1.445 . S
C2121 C2122 1.370 . S
C2122 C2121 1.370 . S
C2122 C2123 1.438 . S
C2122 H2184 0.930 . S
C2123 C2109 1.497 . S
C2123 C2122 1.438 . S
C2123 C2124 1.360 . S
C2124 C2123 1.360 . S
C2124 C2125 1.401 . S
C2124 C2129 1.446 . S
C2125 C2124 1.401 . S
C2125 C2126 1.347 . S
C2125 H2185 0.929 . S
C2126 C2125 1.347 . S
C2126 C2127 1.455 . S
C2126 H2186 0.930 . S
C2127 C2114 1.412 . S
C2127 C2126 1.455 . S
C2127 C2128 1.331 . S
C2128 C2117 1.451 . S
C2128 C2127 1.331 . S
C2128 C2129 1.497 . S
C2129 C2120 1.395 . S
C2129 C2124 1.446 . S
C2129 C2128 1.497 . S
C2130 C2131 1.582 . S
C2130 H2187 0.962 . S
C2130 H2188 0.959 . S
C2130 H2189 0.958 . S
C2131 C2130 1.582 . S
C2131 O2134 1.458 . S
C2131 H2160 0.980 . S
O2132 C2077 1.426 . S
O2132 C2078 1.334 . S
O2133 C2105 1.412 . S
O2133 C2106 1.393 . S
O2134 C2096 1.435 . S
O2134 C2131 1.458 . S
O2135 C2087 1.468 . S
O2135 C2088 1.408 . S
H2136 C2077 0.980 . S
H2137 C2076 0.959 . S
H2138 C2076 0.959 . S
H2139 C2076 0.960 . S
H2140 C2079 0.929 . S
H2141 C2083 0.929 . S
H2142 C2084 0.959 . S
H2143 C2084 0.961 . S
H2144 C2084 0.961 . S
H2145 C2085 0.960 . S
H2146 C2085 0.960 . S
H2147 C2085 0.961 . S
H2148 C2087 0.980 . S
H2149 C2086 0.961 . S
H2150 C2086 0.960 . S
H2151 C2086 0.959 . S
H2152 C2089 0.930 . S
H2153 C2093 0.931 . S
H2154 C2094 0.959 . S
H2155 C2094 0.961 . S
H2156 C2094 0.959 . S
H2157 C2095 0.960 . S
H2158 C2095 0.960 . S
H2159 C2095 0.960 . S
H2160 C2131 0.980 . S
H2161 C2097 0.930 . S
H2162 C2101 0.930 . S
H2163 C2102 0.961 . S
H2164 C2102 0.960 . S
H2165 C2102 0.958 . S
H2166 C2103 0.961 . S
H2167 C2103 0.960 . S
H2168 C2103 0.960 . S
H2169 C2105 0.980 . S
H2170 C2104 0.961 . S
H2171 C2104 0.961 . S
H2172 C2104 0.959 . S
H2173 C2107 0.932 . S
H2174 C2111 0.929 . S
H2175 C2112 0.961 . S
H2176 C2112 0.959 . S
H2177 C2112 0.959 . S
H2178 C2113 0.960 . S
H2179 C2113 0.962 . S
H2180 C2113 0.961 . S
H2181 C2115 0.929 . S
H2182 C2118 0.930 . S
H2183 C2119 0.929 . S
H2184 C2122 0.930 . S
H2185 C2125 0.929 . S
H2186 C2126 0.930 . S
H2187 C2130 0.962 . S
H2188 C2130 0.959 . S
H2189 C2130 0.958 . S
C2190 C2191 1.560 . S
C2190 H2251 0.959 . S
C2190 H2252 0.959 . S
C2190 H2253 0.960 . S
C2191 C2190 1.560 . S
C2191 O2246 1.426 . S
C2191 H2250 0.980 . S
C2192 C2193 1.407 . S
C2192 C2197 1.418 . S
C2192 O2246 1.334 . S
C2193 C2192 1.407 . S
C2193 C2194 1.360 . S
C2193 H2254 0.929 . S
C2194 C2193 1.360 . S
C2194 C2195 1.401 . S
C2194 C2198 1.527 . S
C2195 C2194 1.401 . S
C2195 C2196 1.405 . S
C2195 C2228 1.587 . S
C2196 C2195 1.405 . S
C2196 C2197 1.332 . S
C2196 C2199 1.496 . S
C2197 C2192 1.418 . S
C2197 C2196 1.332 . S
C2197 H2255 0.929 . S
C2198 C2194 1.527 . S
C2198 H2256 0.959 . S
C2198 H2257 0.961 . S
C2198 H2258 0.961 . S
C2199 C2196 1.496 . S
C2199 H2259 0.960 . S
C2199 H2260 0.960 . S
C2199 H2261 0.961 . S
C2200 C2201 1.517 . S
C2200 H2263 0.961 . S
C2200 H2264 0.960 . S
C2200 H2265 0.959 . S
C2201 C2200 1.517 . S
C2201 O2249 1.468 . S
C2201 H2262 0.980 . S
C2202 C2203 1.349 . S
C2202 C2207 1.367 . S
C2202 O2249 1.408 . S
C2203 C2202 1.349 . S
C2203 C2204 1.407 . S
C2203 H2266 0.930 . S
C2204 C2203 1.407 . S
C2204 C2205 1.449 . S
C2204 C2208 1.535 . S
C2205 C2204 1.449 . S
C2205 C2206 1.384 . S
C2205 C2230 1.553 . S
C2206 C2205 1.384 . S
C2206 C2207 1.364 . S
C2206 C2209 1.450 . S
C2207 C2202 1.367 . S
C2207 C2206 1.364 . S
C2207 H2267 0.931 . S
C2208 C2204 1.535 . S
C2208 H2268 0.959 . S
C2208 H2269 0.961 . S
C2208 H2270 0.959 . S
C2209 C2206 1.450 . S
C2209 H2271 0.960 . S
C2209 H2272 0.960 . S
C2209 H2273 0.960 . S
C2210 C2211 1.309 . S
C2210 C2215 1.304 . S
C2210 O2248 1.435 . S
C2211 C2210 1.309 . S
C2211 C2212 1.476 . S
C2211 H2275 0.930 . S
C2212 C2211 1.476 . S
C2212 C2213 1.400 . S
C2212 C2216 1.567 . S
C2213 C2212 1.400 . S
C2213 C2214 1.373 . S
C2213 C2235 1.432 . S
C2214 C2213 1.373 . S
C2214 C2215 1.339 . S
C2214 C2217 1.530 . S
C2215 C2210 1.304 . S
C2215 C2214 1.339 . S
C2215 H2276 0.930 . S
C2216 C2212 1.567 . S
C2216 H2277 0.961 . S
C2216 H2278 0.960 . S
C2216 H2279 0.958 . S
C2217 C2214 1.530 . S
C2217 H2280 0.961 . S
C2217 H2281 0.960 . S
C2217 H2282 0.960 . S
C2218 C2219 1.530 . S
C2218 H2284 0.961 . S
C2218 H2285 0.961 . S
C2218 H2286 0.959 . S
C2219 C2218 1.530 . S
C2219 O2247 1.412 . S
C2219 H2283 0.980 . S
C2220 C2221 1.288 . S
C2220 C2225 1.377 . S
C2220 O2247 1.393 . S
C2221 C2220 1.288 . S
C2221 C2222 1.369 . S
C2221 H2287 0.932 . S
C2222 C2221 1.369 . S
C2222 C2223 1.398 . S
C2222 C2226 1.527 . S
C2223 C2222 1.398 . S
C2223 C2224 1.380 . S
C2223 C2237 1.497 . S
C2224 C2223 1.380 . S
C2224 C2225 1.383 . S
C2224 C2227 1.603 . S
C2225 C2220 1.377 . S
C2225 C2224 1.383 . S
C2225 H2288 0.929 . S
C2226 C2222 1.527 . S
C2226 H2289 0.961 . S
C2226 H2290 0.959 . S
C2226 H2291 0.959 . S
C2227 C2224 1.603 . S
C2227 H2292 0.960 . S
C2227 H2293 0.962 . S
C2227 H2294 0.961 . S
C2228 C2195 1.587 . S
C2228 C2229 1.360 . S
C2228 C2241 1.412 . S
C2229 C2228 1.360 . S
C2229 C2230 1.365 . S
C2229 H2295 0.929 . S
C2230 C2205 1.553 . S
C2230 C2229 1.365 . S
C2230 C2231 1.404 . S
C2231 C2230 1.404 . S
C2231 C2232 1.395 . S
C2231 C2242 1.451 . S
C2232 C2231 1.395 . S
C2232 C2233 1.322 . S
C2232 H2296 0.930 . S
C2233 C2232 1.322 . S
C2233 C2234 1.459 . S
C2233 H2297 0.929 . S
C2234 C2233 1.459 . S
C2234 C2235 1.445 . S
C2234 C2243 1.395 . S
C2235 C2213 1.432 . S
C2235 C2234 1.445 . S
C2235 C2236 1.370 . S
C2236 C2235 1.370 . S
C2236 C2237 1.438 . S
C2236 H2298 0.930 . S
C2237 C2223 1.497 . S
C2237 C2236 1.438 . S
C2237 C2238 1.360 . S
C2238 C2237 1.360 . S
C2238 C2239 1.401 . S
C2238 C2243 1.446 . S
C2239 C2238 1.401 . S
C2239 C2240 1.347 . S
C2239 H2299 0.929 . S
C2240 C2239 1.347 . S
C2240 C2241 1.455 . S
C2240 H2300 0.930 . S
C2241 C2228 1.412 . S
C2241 C2240 1.455 . S
C2241 C2242 1.331 . S
C2242 C2231 1.451 . S
C2242 C2241 1.331 . S
C2242 C2243 1.497 . S
C2243 C2234 1.395 . S
C2243 C2238 1.446 . S
C2243 C2242 1.497 . S
C2244 C2245 1.582 . S
C2244 H2301 0.962 . S
C2244 H2302 0.959 . S
C2244 H2303 0.958 . S
C2245 C2244 1.582 . S
C2245 O2248 1.458 . S
C2245 H2274 0.980 . S
O2246 C2191 1.426 . S
O2246 C2192 1.334 . S
O2247 C2219 1.412 . S
O2247 C2220 1.393 . S
O2248 C2210 1.435 . S
O2248 C2245 1.458 . S
O2249 C2201 1.468 . S
O2249 C2202 1.408 . S
H2250 C2191 0.980 . S
H2251 C2190 0.959 . S
H2252 C2190 0.959 . S
H2253 C2190 0.960 . S
H2254 C2193 0.929 . S
H2255 C2197 0.929 . S
H2256 C2198 0.959 . S
H2257 C2198 0.961 . S
H2258 C2198 0.961 . S
H2259 C2199 0.960 . S
H2260 C2199 0.960 . S
H2261 C2199 0.961 . S
H2262 C2201 0.980 . S
H2263 C2200 0.961 . S
H2264 C2200 0.960 . S
H2265 C2200 0.959 . S
H2266 C2203 0.930 . S
H2267 C2207 0.931 . S
H2268 C2208 0.959 . S
H2269 C2208 0.961 . S
H2270 C2208 0.959 . S
H2271 C2209 0.960 . S
H2272 C2209 0.960 . S
H2273 C2209 0.960 . S
H2274 C2245 0.980 . S
H2275 C2211 0.930 . S
H2276 C2215 0.930 . S
H2277 C2216 0.961 . S
H2278 C2216 0.960 . S
H2279 C2216 0.958 . S
H2280 C2217 0.961 . S
H2281 C2217 0.960 . S
H2282 C2217 0.960 . S
H2283 C2219 0.980 . S
H2284 C2218 0.961 . S
H2285 C2218 0.961 . S
H2286 C2218 0.959 . S
H2287 C2221 0.932 . S
H2288 C2225 0.929 . S
H2289 C2226 0.961 . S
H2290 C2226 0.959 . S
H2291 C2226 0.959 . S
H2292 C2227 0.960 . S
H2293 C2227 0.962 . S
H2294 C2227 0.961 . S
H2295 C2229 0.929 . S
H2296 C2232 0.930 . S
H2297 C2233 0.929 . S
H2298 C2236 0.930 . S
H2299 C2239 0.929 . S
H2300 C2240 0.930 . S
H2301 C2244 0.962 . S
H2302 C2244 0.959 . S
H2303 C2244 0.958 . S
H2304 C2322 0.951 . S
H2305 C2324 0.951 . S
H2306 C2326 0.950 . S
H2307 C2327 0.950 . S
H2308 C2329 0.950 . S
H2309 C2332 0.950 . S
H2310 C2333 0.950 . S
H2311 C2335 0.950 . S
H2312 C2336 0.950 . S
H2313 C2337 0.951 . S
H2314 C2339 0.951 . S
H2315 C2341 0.950 . S
H2316 C2342 0.950 . S
H2317 C2344 0.950 . S
H2318 C2347 0.950 . S
H2319 C2348 0.950 . S
H2320 C2350 0.950 . S
H2321 C2351 0.950 . S
C2322 H2304 0.951 . S
C2322 C2323 1.341 1_655 S
C2322 C2324 1.388 . S
C2323 C2322 1.341 1_455 S
C2323 C2327 1.393 . S
C2324 H2305 0.951 . S
C2324 C2322 1.388 . S
C2324 C2325 1.366 . S
C2325 C2324 1.366 . S
C2325 C2326 1.414 1_655 S
C2325 C2328 1.499 . S
C2326 H2306 0.950 . S
C2326 C2325 1.414 1_455 S
C2326 C2327 1.374 . S
C2327 H2307 0.950 . S
C2327 C2323 1.393 . S
C2327 C2326 1.374 . S
C2328 C2325 1.499 . S
C2328 C2329 1.373 1_655 S
C2328 C2330 1.389 . S
C2329 H2308 0.950 . S
C2329 C2328 1.373 1_455 S
C2329 C2345 1.377 . S
C2330 C2328 1.389 . S
C2330 C2331 1.524 . S
C2330 C2344 1.377 . S
C2331 C2330 1.524 . S
C2331 C2332 1.397 . S
C2331 C2336 1.363 . S
C2332 H2309 0.950 . S
C2332 C2331 1.397 . S
C2332 C2333 1.334 . S
C2333 H2310 0.950 . S
C2333 C2332 1.334 . S
C2333 C2334 1.287 . S
C2334 C2333 1.287 . S
C2334 C2335 1.524 . S
C2334 H2353 0.913 . S
C2335 H2311 0.950 . S
C2335 C2334 1.524 . S
C2335 C2336 1.415 . S
C2336 H2312 0.950 . S
C2336 C2331 1.363 . S
C2336 C2335 1.415 . S
C2337 H2313 0.951 . S
C2337 C2338 1.366 1_455 S
C2337 C2339 1.388 . S
C2338 C2337 1.366 1_655 S
C2338 C2342 1.385 . S
C2339 H2314 0.951 . S
C2339 C2337 1.388 . S
C2339 C2340 1.366 1_455 S
C2340 C2339 1.366 1_655 S
C2340 C2341 1.414 . S
C2340 C2343 1.499 . S
C2341 H2315 0.950 . S
C2341 C2340 1.414 . S
C2341 C2342 1.374 . S
C2342 H2316 0.950 . S
C2342 C2338 1.385 . S
C2342 C2341 1.374 . S
C2343 C2340 1.499 . S
C2343 C2344 1.373 . S
C2343 C2345 1.389 1_655 S
C2344 H2317 0.950 . S
C2344 C2330 1.377 . S
C2344 C2343 1.373 . S
C2345 C2329 1.377 . S
C2345 C2343 1.389 1_455 S
C2345 C2346 1.524 . S
C2346 C2345 1.524 . S
C2346 C2347 1.397 . S
C2346 C2351 1.363 . S
C2347 H2318 0.950 . S
C2347 C2346 1.397 . S
C2347 C2348 1.334 . S
C2348 H2319 0.950 . S
C2348 C2347 1.334 . S
C2348 C2349 1.287 . S
C2349 C2348 1.287 . S
C2349 C2350 1.524 . S
C2349 H2352 0.999 . S
C2350 H2320 0.950 . S
C2350 C2349 1.524 . S
C2350 C2351 1.415 . S
C2351 H2321 0.950 . S
C2351 C2346 1.363 . S
C2351 C2350 1.415 . S
H2352 C2349 0.999 . S
H2353 C2334 0.913 . S
H2354 C2372 0.951 . S
H2355 C2374 0.951 . S
H2356 C2376 0.950 . S
H2357 C2377 0.950 . S
H2358 C2379 0.950 . S
H2359 C2382 0.950 . S
H2360 C2383 0.950 . S
H2361 C2385 0.950 . S
H2362 C2386 0.950 . S
H2363 C2387 0.951 . S
H2364 C2389 0.951 . S
H2365 C2391 0.950 . S
H2366 C2392 0.950 . S
H2367 C2394 0.950 . S
H2368 C2397 0.950 . S
H2369 C2398 0.950 . S
H2370 C2400 0.950 . S
H2371 C2401 0.950 . S
C2372 H2354 0.951 . S
C2372 C2373 1.366 . S
C2372 C2374 1.388 . S
C2373 C2372 1.366 . S
C2373 C2377 1.385 . S
C2374 H2355 0.951 . S
C2374 C2372 1.388 . S
C2374 C2375 1.366 . S
C2375 C2374 1.366 . S
C2375 C2376 1.414 . S
C2375 C2378 1.499 . S
C2376 H2356 0.950 . S
C2376 C2375 1.414 . S
C2376 C2377 1.374 . S
C2377 H2357 0.950 . S
C2377 C2373 1.385 . S
C2377 C2376 1.374 . S
C2378 C2375 1.499 . S
C2378 C2379 1.373 . S
C2378 C2380 1.389 . S
C2379 H2358 0.950 . S
C2379 C2378 1.373 . S
C2379 C2395 1.377 . S
C2380 C2378 1.389 . S
C2380 C2381 1.524 . S
C2380 C2394 1.377 . S
C2381 C2380 1.524 . S
C2381 C2382 1.397 . S
C2381 C2386 1.363 . S
C2382 H2359 0.950 . S
C2382 C2381 1.397 . S
C2382 C2383 1.334 . S
C2383 H2360 0.950 . S
C2383 C2382 1.334 . S
C2383 C2384 1.287 . S
C2384 C2383 1.287 . S
C2384 C2385 1.524 . S
C2384 H2403 0.913 . S
C2385 H2361 0.950 . S
C2385 C2384 1.524 . S
C2385 C2386 1.415 . S
C2386 H2362 0.950 . S
C2386 C2381 1.363 . S
C2386 C2385 1.415 . S
C2387 H2363 0.951 . S
C2387 C2388 1.366 . S
C2387 C2389 1.388 . S
C2388 C2387 1.366 . S
C2388 C2392 1.385 . S
C2389 H2364 0.951 . S
C2389 C2387 1.388 . S
C2389 C2390 1.366 . S
C2390 C2389 1.366 . S
C2390 C2391 1.414 . S
C2390 C2393 1.499 . S
C2391 H2365 0.950 . S
C2391 C2390 1.414 . S
C2391 C2392 1.374 . S
C2392 H2366 0.950 . S
C2392 C2388 1.385 . S
C2392 C2391 1.374 . S
C2393 C2390 1.499 . S
C2393 C2394 1.373 . S
C2393 C2395 1.389 . S
C2394 H2367 0.950 . S
C2394 C2380 1.377 . S
C2394 C2393 1.373 . S
C2395 C2379 1.377 . S
C2395 C2393 1.389 . S
C2395 C2396 1.524 . S
C2396 C2395 1.524 . S
C2396 C2397 1.397 . S
C2396 C2401 1.363 . S
C2397 H2368 0.950 . S
C2397 C2396 1.397 . S
C2397 C2398 1.334 . S
C2398 H2369 0.950 . S
C2398 C2397 1.334 . S
C2398 C2399 1.287 . S
C2399 C2398 1.287 . S
C2399 C2400 1.524 . S
C2399 H2402 0.999 . S
C2400 H2370 0.950 . S
C2400 C2399 1.524 . S
C2400 C2401 1.415 . S
C2401 H2371 0.950 . S
C2401 C2396 1.363 . S
C2401 C2400 1.415 . S
H2402 C2399 0.999 . S
H2403 C2384 0.913 . S
H2404 C2422 0.997 . S
H2405 C2424 0.951 . S
H2406 C2426 0.950 . S
H2407 C2427 0.950 . S
H2408 C2429 0.950 . S
H2409 C2432 0.950 . S
H2410 C2433 0.889 1_545 S
H2411 C2435 0.950 . S
H2412 C2436 0.950 . S
H2413 C2437 0.951 . S
H2414 C2439 0.951 . S
H2415 C2441 0.950 . S
H2416 C2442 0.950 . S
H2417 C2444 0.950 1_565 S
H2418 C2447 0.950 . S
H2419 C2448 0.950 . S
H2420 C2450 0.950 . S
H2421 C2451 0.950 . S
C2422 H2404 0.997 . S
C2422 C2423 1.289 1_565 S
C2422 C2424 1.424 . S
C2423 C2422 1.289 1_545 S
C2423 C2427 1.385 . S
C2424 H2405 0.951 . S
C2424 C2422 1.424 . S
C2424 C2425 1.366 1_565 S
C2425 C2424 1.366 1_545 S
C2425 C2426 1.414 . S
C2425 C2428 1.499 . S
C2426 H2406 0.950 . S
C2426 C2425 1.414 . S
C2426 C2427 1.374 . S
C2427 H2407 0.950 . S
C2427 C2423 1.385 . S
C2427 C2426 1.374 . S
C2428 C2425 1.499 . S
C2428 C2429 1.373 . S
C2428 C2430 1.389 . S
C2429 H2408 0.950 . S
C2429 C2428 1.373 . S
C2429 C2445 1.377 . S
C2430 C2428 1.389 . S
C2430 C2431 1.524 1_545 S
C2430 C2444 1.377 . S
C2431 C2430 1.524 1_565 S
C2431 C2432 1.397 1_565 S
C2431 C2436 1.363 . S
C2432 H2409 0.950 . S
C2432 C2431 1.397 1_545 S
C2432 C2433 1.345 1_545 S
C2433 H2410 0.889 1_565 S
C2433 C2432 1.345 1_565 S
C2433 C2434 1.342 . S
C2434 C2433 1.342 . S
C2434 C2435 1.524 . S
C2434 H2453 0.913 . S
C2435 H2411 0.950 . S
C2435 C2434 1.524 . S
C2435 C2436 1.415 . S
C2436 H2412 0.950 . S
C2436 C2431 1.363 . S
C2436 C2435 1.415 . S
C2437 H2413 0.951 . S
C2437 C2438 1.366 . S
C2437 C2439 1.388 . S
C2438 C2437 1.366 . S
C2438 C2442 1.385 1_545 S
C2439 H2414 0.951 . S
C2439 C2437 1.388 . S
C2439 C2440 1.366 . S
C2440 C2439 1.366 . S
C2440 C2441 1.414 1_545 S
C2440 C2443 1.499 . S
C2441 H2415 0.950 . S
C2441 C2440 1.414 1_565 S
C2441 C2442 1.374 . S
C2442 H2416 0.950 . S
C2442 C2438 1.385 1_565 S
C2442 C2441 1.374 . S
C2443 C2440 1.499 . S
C2443 C2444 1.373 . S
C2443 C2445 1.389 . S
C2444 H2417 0.950 1_545 S
C2444 C2430 1.377 . S
C2444 C2443 1.373 . S
C2445 C2429 1.377 . S
C2445 C2443 1.389 . S
C2445 C2446 1.524 . S
C2446 C2445 1.524 . S
C2446 C2447 1.397 . S
C2446 C2451 1.363 . S
C2447 H2418 0.950 . S
C2447 C2446 1.397 . S
C2447 C2448 1.334 . S
C2448 H2419 0.950 . S
C2448 C2447 1.334 . S
C2448 C2449 1.287 . S
C2449 C2448 1.287 . S
C2449 C2450 1.524 . S
C2449 H2452 0.999 . S
C2450 H2420 0.950 . S
C2450 C2449 1.524 . S
C2450 C2451 1.415 . S
C2451 H2421 0.950 . S
C2451 C2446 1.363 . S
C2451 C2450 1.415 . S
H2452 C2449 0.999 . S
H2453 C2434 0.913 . S
H2454 C2472 0.951 . S
H2455 C2474 0.951 . S
H2456 C2476 0.950 . S
H2457 C2477 0.950 . S
H2458 C2479 0.950 . S
H2459 C2482 0.950 1_565 S
H2460 C2483 0.950 . S
H2461 C2485 0.950 . S
H2462 C2486 0.950 . S
H2463 C2487 0.951 . S
H2464 C2489 0.951 . S
H2465 C2491 0.950 . S
H2466 C2492 0.950 . S
H2467 C2494 0.950 . S
H2468 C2497 0.950 . S
H2469 C2498 0.950 . S
H2470 C2500 0.950 . S
H2471 C2501 0.950 . S
C2472 H2454 0.951 . S
C2472 C2473 1.338 1_545 S
C2472 C2474 1.388 . S
C2473 C2472 1.338 1_565 S
C2473 C2477 1.434 . S
C2474 H2455 0.951 . S
C2474 C2472 1.388 . S
C2474 C2475 1.366 1_545 S
C2475 C2474 1.366 1_565 S
C2475 C2476 1.414 . S
C2475 C2478 1.499 . S
C2476 H2456 0.950 . S
C2476 C2475 1.414 . S
C2476 C2477 1.374 . S
C2477 H2457 0.950 . S
C2477 C2473 1.434 . S
C2477 C2476 1.374 . S
C2478 C2475 1.499 . S
C2478 C2479 1.373 . S
C2478 C2480 1.389 1_565 S
C2479 H2458 0.950 . S
C2479 C2478 1.373 . S
C2479 C2495 1.377 . S
C2480 C2478 1.389 1_545 S
C2480 C2481 1.524 . S
C2480 C2494 1.377 . S
C2481 C2480 1.524 . S
C2481 C2482 1.397 . S
C2481 C2486 1.363 . S
C2482 H2459 0.950 1_545 S
C2482 C2481 1.397 . S
C2482 C2483 1.334 . S
C2483 H2460 0.950 . S
C2483 C2482 1.334 . S
C2483 C2484 1.287 . S
C2484 C2483 1.287 . S
C2484 C2485 1.524 . S
C2484 H2503 0.913 . S
C2485 H2461 0.950 . S
C2485 C2484 1.524 . S
C2485 C2486 1.415 . S
C2486 H2462 0.950 . S
C2486 C2481 1.363 . S
C2486 C2485 1.415 . S
C2487 H2463 0.951 . S
C2487 C2488 1.366 . S
C2487 C2489 1.388 . S
C2488 C2487 1.366 . S
C2488 C2492 1.385 1_565 S
C2489 H2464 0.951 . S
C2489 C2487 1.388 . S
C2489 C2490 1.366 . S
C2490 C2489 1.366 . S
C2490 C2491 1.414 1_565 S
C2490 C2493 1.499 . S
C2491 H2465 0.950 . S
C2491 C2490 1.414 1_545 S
C2491 C2492 1.374 . S
C2492 H2466 0.950 . S
C2492 C2488 1.385 1_545 S
C2492 C2491 1.374 . S
C2493 C2490 1.499 . S
C2493 C2494 1.373 1_565 S
C2493 C2495 1.389 . S
C2494 H2467 0.950 . S
C2494 C2480 1.377 . S
C2494 C2493 1.373 1_545 S
C2495 C2479 1.377 . S
C2495 C2493 1.389 . S
C2495 C2496 1.524 . S
C2496 C2495 1.524 . S
C2496 C2497 1.397 . S
C2496 C2501 1.363 . S
C2497 H2468 0.950 . S
C2497 C2496 1.397 . S
C2497 C2498 1.334 . S
C2498 H2469 0.950 . S
C2498 C2497 1.334 . S
C2498 C2499 1.287 . S
C2499 C2498 1.287 . S
C2499 C2500 1.524 . S
C2499 H2502 0.999 . S
C2500 H2470 0.950 . S
C2500 C2499 1.524 . S
C2500 C2501 1.415 . S
C2501 H2471 0.950 . S
C2501 C2496 1.363 . S
C2501 C2500 1.415 . S
H2502 C2499 0.999 . S
H2503 C2484 0.913 . S
H2504 C2522 0.951 . S
H2505 C2524 0.951 . S
H2506 C2526 0.962 . S
H2507 C2527 0.939 1_655 S
H2508 C2529 0.950 . S
H2509 C2532 0.950 1_655 S
H2510 C2533 0.950 1_655 S
H2511 C2535 0.950 . S
H2512 C2536 0.950 . S
H2513 C2537 0.951 . S
H2514 C2539 0.951 . S
H2515 C2541 0.950 . S
H2516 C2542 0.950 . S
H2517 C2544 0.950 . S
H2518 C2547 0.950 . S
H2519 C2548 0.950 . S
H2520 C2550 0.950 . S
H2521 C2551 0.950 . S
C2522 H2504 0.951 . S
C2522 C2523 1.366 . S
C2522 C2524 1.388 . S
C2523 C2522 1.366 . S
C2523 C2527 1.414 . S
C2524 H2505 0.951 . S
C2524 C2522 1.388 . S
C2524 C2525 1.366 . S
C2525 C2524 1.366 . S
C2525 C2526 1.410 1_455 S
C2525 C2528 1.499 . S
C2526 H2506 0.962 . S
C2526 C2525 1.410 1_655 S
C2526 C2527 1.350 1_655 S
C2527 H2507 0.939 1_455 S
C2527 C2523 1.414 . S
C2527 C2526 1.350 1_455 S
C2528 C2525 1.499 . S
C2528 C2529 1.373 . S
C2528 C2530 1.389 . S
C2529 H2508 0.950 . S
C2529 C2528 1.373 . S
C2529 C2545 1.377 . S
C2530 C2528 1.389 . S
C2530 C2531 1.524 . S
C2530 C2544 1.377 . S
C2531 C2530 1.524 . S
C2531 C2532 1.397 . S
C2531 C2536 1.363 . S
C2532 H2509 0.950 1_455 S
C2532 C2531 1.397 . S
C2532 C2533 1.334 . S
C2533 H2510 0.950 1_455 S
C2533 C2532 1.334 . S
C2533 C2534 1.287 . S
C2534 C2533 1.287 . S
C2534 C2535 1.524 . S
C2534 H2553 0.950 . S
C2535 H2511 0.950 . S
C2535 C2534 1.524 . S
C2535 C2536 1.415 . S
C2536 H2512 0.950 . S
C2536 C2531 1.363 . S
C2536 C2535 1.415 . S
C2537 H2513 0.951 . S
C2537 C2538 1.366 1_655 S
C2537 C2539 1.388 . S
C2538 C2537 1.366 1_455 S
C2538 C2542 1.385 . S
C2539 H2514 0.951 . S
C2539 C2537 1.388 . S
C2539 C2540 1.366 1_655 S
C2540 C2539 1.366 1_455 S
C2540 C2541 1.414 . S
C2540 C2543 1.499 . S
C2541 H2515 0.950 . S
C2541 C2540 1.414 . S
C2541 C2542 1.374 . S
C2542 H2516 0.950 . S
C2542 C2538 1.385 . S
C2542 C2541 1.374 . S
C2543 C2540 1.499 . S
C2543 C2544 1.373 . S
C2543 C2545 1.389 . S
C2544 H2517 0.950 . S
C2544 C2530 1.377 . S
C2544 C2543 1.373 . S
C2545 C2529 1.377 . S
C2545 C2543 1.389 . S
C2545 C2546 1.524 . S
C2546 C2545 1.524 . S
C2546 C2547 1.397 . S
C2546 C2551 1.363 1_455 S
C2547 H2518 0.950 . S
C2547 C2546 1.397 . S
C2547 C2548 1.334 . S
C2548 H2519 0.950 . S
C2548 C2547 1.334 . S
C2548 C2549 1.287 . S
C2549 C2548 1.287 . S
C2549 C2550 1.524 1_455 S
C2549 H2552 0.999 . S
C2550 H2520 0.950 . S
C2550 C2549 1.524 1_655 S
C2550 C2551 1.415 . S
C2551 H2521 0.950 . S
C2551 C2546 1.363 1_655 S
C2551 C2550 1.415 . S
H2552 C2549 0.999 . S
H2553 C2534 0.950 . S
H2554 C2572 0.951 . S
H2555 C2574 0.951 . S
H2556 C2576 0.950 . S
H2557 C2577 0.950 . S
H2558 C2579 0.950 . S
H2559 C2582 0.950 . S
H2560 C2583 0.950 . S
H2561 C2585 0.950 . S
H2562 C2586 0.950 . S
H2563 C2587 0.951 . S
H2564 C2589 0.951 . S
H2565 C2591 0.950 . S
H2566 C2592 0.950 . S
H2567 C2594 0.950 . S
H2568 C2597 0.950 . S
H2569 C2598 0.950 . S
H2570 C2600 0.950 . S
H2571 C2601 0.950 . S
C2572 H2554 0.951 . S
C2572 C2573 1.366 . S
C2572 C2574 1.388 . S
C2573 C2572 1.366 . S
C2573 C2577 1.385 . S
C2574 H2555 0.951 . S
C2574 C2572 1.388 . S
C2574 C2575 1.366 . S
C2575 C2574 1.366 . S
C2575 C2576 1.414 . S
C2575 C2578 1.499 . S
C2576 H2556 0.950 . S
C2576 C2575 1.414 . S
C2576 C2577 1.374 . S
C2577 H2557 0.950 . S
C2577 C2573 1.385 . S
C2577 C2576 1.374 . S
C2578 C2575 1.499 . S
C2578 C2579 1.373 . S
C2578 C2580 1.389 . S
C2579 H2558 0.950 . S
C2579 C2578 1.373 . S
C2579 C2595 1.377 . S
C2580 C2578 1.389 . S
C2580 C2581 1.524 . S
C2580 C2594 1.377 . S
C2581 C2580 1.524 . S
C2581 C2582 1.397 . S
C2581 C2586 1.363 . S
C2582 H2559 0.950 . S
C2582 C2581 1.397 . S
C2582 C2583 1.334 . S
C2583 H2560 0.950 . S
C2583 C2582 1.334 . S
C2583 C2584 1.287 . S
C2584 C2583 1.287 . S
C2584 C2585 1.524 . S
C2584 H2603 0.913 . S
C2585 H2561 0.950 . S
C2585 C2584 1.524 . S
C2585 C2586 1.415 . S
C2586 H2562 0.950 . S
C2586 C2581 1.363 . S
C2586 C2585 1.415 . S
C2587 H2563 0.951 . S
C2587 C2588 1.366 . S
C2587 C2589 1.388 . S
C2588 C2587 1.366 . S
C2588 C2592 1.385 . S
C2589 H2564 0.951 . S
C2589 C2587 1.388 . S
C2589 C2590 1.366 . S
C2590 C2589 1.366 . S
C2590 C2591 1.414 . S
C2590 C2593 1.499 . S
C2591 H2565 0.950 . S
C2591 C2590 1.414 . S
C2591 C2592 1.374 . S
C2592 H2566 0.950 . S
C2592 C2588 1.385 . S
C2592 C2591 1.374 . S
C2593 C2590 1.499 . S
C2593 C2594 1.373 . S
C2593 C2595 1.389 . S
C2594 H2567 0.950 . S
C2594 C2580 1.377 . S
C2594 C2593 1.373 . S
C2595 C2579 1.377 . S
C2595 C2593 1.389 . S
C2595 C2596 1.524 . S
C2596 C2595 1.524 . S
C2596 C2597 1.397 . S
C2596 C2601 1.363 . S
C2597 H2568 0.950 . S
C2597 C2596 1.397 . S
C2597 C2598 1.334 . S
C2598 H2569 0.950 . S
C2598 C2597 1.334 . S
C2598 C2599 1.287 . S
C2599 C2598 1.287 . S
C2599 C2600 1.524 . S
C2599 H2602 0.999 . S
C2600 H2570 0.950 . S
C2600 C2599 1.524 . S
C2600 C2601 1.415 . S
C2601 H2571 0.950 . S
C2601 C2596 1.363 . S
C2601 C2600 1.415 . S
H2602 C2599 0.999 . S
H2603 C2584 0.913 . S
H2604 C2622 0.951 . S
H2605 C2624 0.951 . S
H2606 C2626 0.950 . S
H2607 C2627 0.950 . S
H2608 C2629 0.950 . S
H2609 C2632 0.950 . S
H2610 C2633 0.950 . S
H2611 C2635 0.950 . S
H2612 C2636 0.950 . S
H2613 C2637 0.951 . S
H2614 C2639 0.951 . S
H2615 C2641 0.950 . S
H2616 C2642 0.950 . S
H2617 C2644 0.950 . S
H2618 C2647 0.950 . S
H2619 C2648 0.950 . S
H2620 C2650 0.950 . S
H2621 C2651 0.950 . S
C2622 H2604 0.951 . S
C2622 C2623 1.366 1_655 S
C2622 C2624 1.388 . S
C2623 C2622 1.366 1_455 S
C2623 C2627 1.385 . S
C2624 H2605 0.951 . S
C2624 C2622 1.388 . S
C2624 C2625 1.366 1_655 S
C2625 C2624 1.366 1_455 S
C2625 C2626 1.414 . S
C2625 C2628 1.499 . S
C2626 H2606 0.950 . S
C2626 C2625 1.414 . S
C2626 C2627 1.374 . S
C2627 H2607 0.950 . S
C2627 C2623 1.385 . S
C2627 C2626 1.374 . S
C2628 C2625 1.499 . S
C2628 C2629 1.373 . S
C2628 C2630 1.389 1_455 S
C2629 H2608 0.950 . S
C2629 C2628 1.373 . S
C2629 C2645 1.377 . S
C2630 C2628 1.389 1_655 S
C2630 C2631 1.524 . S
C2630 C2644 1.377 . S
C2631 C2630 1.524 . S
C2631 C2632 1.397 . S
C2631 C2636 1.363 . S
C2632 H2609 0.950 . S
C2632 C2631 1.397 . S
C2632 C2633 1.334 . S
C2633 H2610 0.950 . S
C2633 C2632 1.334 . S
C2633 C2634 1.287 . S
C2634 C2633 1.287 . S
C2634 C2635 1.524 . S
C2634 H2653 0.913 . S
C2635 H2611 0.950 . S
C2635 C2634 1.524 . S
C2635 C2636 1.415 . S
C2636 H2612 0.950 . S
C2636 C2631 1.363 . S
C2636 C2635 1.415 . S
C2637 H2613 0.951 . S
C2637 C2638 1.403 . S
C2637 C2639 1.388 . S
C2638 C2637 1.403 . S
C2638 C2642 1.327 1_455 S
C2639 H2614 0.951 . S
C2639 C2637 1.388 . S
C2639 C2640 1.366 . S
C2640 C2639 1.366 . S
C2640 C2641 1.414 1_455 S
C2640 C2643 1.499 . S
C2641 H2615 0.950 . S
C2641 C2640 1.414 1_655 S
C2641 C2642 1.374 . S
C2642 H2616 0.950 . S
C2642 C2638 1.327 1_655 S
C2642 C2641 1.374 . S
C2643 C2640 1.499 . S
C2643 C2644 1.373 1_455 S
C2643 C2645 1.389 . S
C2644 H2617 0.950 . S
C2644 C2630 1.377 . S
C2644 C2643 1.373 1_655 S
C2645 C2629 1.377 . S
C2645 C2643 1.389 . S
C2645 C2646 1.524 . S
C2646 C2645 1.524 . S
C2646 C2647 1.397 . S
C2646 C2651 1.363 . S
C2647 H2618 0.950 . S
C2647 C2646 1.397 . S
C2647 C2648 1.334 . S
C2648 H2619 0.950 . S
C2648 C2647 1.334 . S
C2648 C2649 1.287 . S
C2649 C2648 1.287 . S
C2649 C2650 1.524 . S
C2649 H2652 0.999 . S
C2650 H2620 0.950 . S
C2650 C2649 1.524 . S
C2650 C2651 1.415 . S
C2651 H2621 0.950 . S
C2651 C2646 1.363 . S
C2651 C2650 1.415 . S
H2652 C2649 0.999 . S
H2653 C2634 0.913 . S
H2654 C2672 0.951 . S
H2655 C2674 0.951 . S
H2656 C2676 0.950 . S
H2657 C2677 0.950 . S
H2658 C2679 0.950 . S
H2659 C2682 0.950 . S
H2660 C2683 0.950 . S
H2661 C2685 0.950 . S
H2662 C2686 0.950 . S
H2663 C2687 0.951 . S
H2664 C2689 0.951 . S
H2665 C2691 0.950 . S
H2666 C2692 0.950 . S
H2667 C2694 0.950 . S
H2668 C2697 0.950 . S
H2669 C2698 0.950 . S
H2670 C2700 0.950 . S
H2671 C2701 0.950 . S
C2672 H2654 0.951 . S
C2672 C2673 1.366 . S
C2672 C2674 1.388 . S
C2673 C2672 1.366 . S
C2673 C2677 1.385 . S
C2674 H2655 0.951 . S
C2674 C2672 1.388 . S
C2674 C2675 1.366 . S
C2675 C2674 1.366 . S
C2675 C2676 1.414 . S
C2675 C2678 1.499 . S
C2676 H2656 0.950 . S
C2676 C2675 1.414 . S
C2676 C2677 1.374 . S
C2677 H2657 0.950 . S
C2677 C2673 1.385 . S
C2677 C2676 1.374 . S
C2678 C2675 1.499 . S
C2678 C2679 1.373 . S
C2678 C2680 1.389 . S
C2679 H2658 0.950 . S
C2679 C2678 1.373 . S
C2679 C2695 1.377 . S
C2680 C2678 1.389 . S
C2680 C2681 1.524 . S
C2680 C2694 1.377 . S
C2681 C2680 1.524 . S
C2681 C2682 1.397 . S
C2681 C2686 1.363 . S
C2682 H2659 0.950 . S
C2682 C2681 1.397 . S
C2682 C2683 1.334 . S
C2683 H2660 0.950 . S
C2683 C2682 1.334 . S
C2683 C2684 1.287 . S
C2684 C2683 1.287 . S
C2684 C2685 1.524 . S
C2684 H2703 0.913 . S
C2685 H2661 0.950 . S
C2685 C2684 1.524 . S
C2685 C2686 1.415 . S
C2686 H2662 0.950 . S
C2686 C2681 1.363 . S
C2686 C2685 1.415 . S
C2687 H2663 0.951 . S
C2687 C2688 1.366 . S
C2687 C2689 1.388 . S
C2688 C2687 1.366 . S
C2688 C2692 1.385 . S
C2689 H2664 0.951 . S
C2689 C2687 1.388 . S
C2689 C2690 1.366 . S
C2690 C2689 1.366 . S
C2690 C2691 1.414 . S
C2690 C2693 1.499 . S
C2691 H2665 0.950 . S
C2691 C2690 1.414 . S
C2691 C2692 1.374 . S
C2692 H2666 0.950 . S
C2692 C2688 1.385 . S
C2692 C2691 1.374 . S
C2693 C2690 1.499 . S
C2693 C2694 1.373 . S
C2693 C2695 1.389 . S
C2694 H2667 0.950 . S
C2694 C2680 1.377 . S
C2694 C2693 1.373 . S
C2695 C2679 1.377 . S
C2695 C2693 1.389 . S
C2695 C2696 1.524 . S
C2696 C2695 1.524 . S
C2696 C2697 1.397 . S
C2696 C2701 1.363 . S
C2697 H2668 0.950 . S
C2697 C2696 1.397 . S
C2697 C2698 1.334 . S
C2698 H2669 0.950 . S
C2698 C2697 1.334 . S
C2698 C2699 1.287 . S
C2699 C2698 1.287 . S
C2699 C2700 1.524 . S
C2699 H2702 0.999 . S
C2700 H2670 0.950 . S
C2700 C2699 1.524 . S
C2700 C2701 1.415 . S
C2701 H2671 0.950 . S
C2701 C2696 1.363 . S
C2701 C2700 1.415 . S
H2702 C2699 0.999 . S
H2703 C2684 0.913 . S
H2704 C2722 0.951 . S
H2705 C2724 1.004 . S
H2706 C2726 0.950 . S
H2707 C2727 0.950 . S
H2708 C2729 0.950 . S
H2709 C2732 0.950 . S
H2710 C2733 0.950 . S
H2711 C2735 0.950 . S
H2712 C2736 0.950 . S
H2713 C2737 0.951 . S
H2714 C2739 0.951 . S
H2715 C2741 0.966 . S
H2716 C2742 1.006 . S
H2717 C2744 0.950 . S
H2718 C2747 0.950 . S
H2719 C2748 0.950 . S
H2720 C2750 0.950 . S
H2721 C2751 0.950 . S
C2722 H2704 0.951 . S
C2722 C2723 1.366 . S
C2722 C2724 1.388 . S
C2723 C2722 1.366 . S
C2723 C2727 1.385 . S
C2724 H2705 1.004 . S
C2724 C2722 1.388 . S
C2724 C2725 1.366 . S
C2725 C2724 1.366 . S
C2725 C2726 1.414 . S
C2725 C2728 1.499 . S
C2726 H2706 0.950 . S
C2726 C2725 1.414 . S
C2726 C2727 1.374 . S
C2727 H2707 0.950 . S
C2727 C2723 1.385 . S
C2727 C2726 1.374 . S
C2728 C2725 1.499 . S
C2728 C2729 1.373 1_565 S
C2728 C2730 1.389 . S
C2729 H2708 0.950 . S
C2729 C2728 1.373 1_545 S
C2729 C2745 1.377 . S
C2730 C2728 1.389 . S
C2730 C2731 1.524 . S
C2730 C2744 1.377 . S
C2731 C2730 1.524 . S
C2731 C2732 1.397 . S
C2731 C2736 1.363 . S
C2732 H2709 0.950 . S
C2732 C2731 1.397 . S
C2732 C2733 1.334 . S
C2733 H2710 0.950 . S
C2733 C2732 1.334 . S
C2733 C2734 1.287 . S
C2734 C2733 1.287 . S
C2734 C2735 1.524 . S
C2734 H2753 0.913 . S
C2735 H2711 0.950 . S
C2735 C2734 1.524 . S
C2735 C2736 1.415 . S
C2736 H2712 0.950 . S
C2736 C2731 1.363 . S
C2736 C2735 1.415 . S
C2737 H2713 0.951 . S
C2737 C2738 1.366 . S
C2737 C2739 1.388 . S
C2738 C2737 1.366 . S
C2738 C2742 1.367 1_565 S
C2739 H2714 0.951 . S
C2739 C2737 1.388 . S
C2739 C2740 1.366 . S
C2740 C2739 1.366 . S
C2740 C2741 1.377 1_565 S
C2740 C2743 1.499 . S
C2741 H2715 0.966 . S
C2741 C2740 1.377 1_545 S
C2741 C2742 1.364 . S
C2742 H2716 1.006 . S
C2742 C2738 1.367 1_545 S
C2742 C2741 1.364 . S
C2743 C2740 1.499 . S
C2743 C2744 1.373 . S
C2743 C2745 1.389 1_565 S
C2744 H2717 0.950 . S
C2744 C2730 1.377 . S
C2744 C2743 1.373 . S
C2745 C2729 1.377 . S
C2745 C2743 1.389 1_545 S
C2745 C2746 1.524 . S
C2746 C2745 1.524 . S
C2746 C2747 1.397 . S
C2746 C2751 1.363 . S
C2747 H2718 0.950 . S
C2747 C2746 1.397 . S
C2747 C2748 1.334 . S
C2748 H2719 0.950 . S
C2748 C2747 1.334 . S
C2748 C2749 1.287 . S
C2749 C2748 1.287 . S
C2749 C2750 1.524 . S
C2749 H2752 0.999 . S
C2750 H2720 0.950 . S
C2750 C2749 1.524 . S
C2750 C2751 1.415 . S
C2751 H2721 0.950 . S
C2751 C2746 1.363 . S
C2751 C2750 1.415 . S
H2752 C2749 0.999 . S
H2753 C2734 0.913 . S
H2754 C2772 0.951 . S
H2755 C2774 0.951 . S
H2756 C2776 0.986 . S
H2757 C2777 0.950 . S
H2758 C2779 0.950 . S
H2759 C2782 0.950 . S
H2760 C2783 0.950 . S
H2761 C2785 0.950 . S
H2762 C2786 0.950 . S
H2763 C2787 0.951 . S
H2764 C2789 1.018 . S
H2765 C2791 0.950 . S
H2766 C2792 0.950 . S
H2767 C2794 0.950 . S
H2768 C2797 0.950 . S
H2769 C2798 0.950 . S
H2770 C2800 0.950 . S
H2771 C2801 0.950 . S
C2772 H2754 0.951 . S
C2772 C2773 1.366 . S
C2772 C2774 1.388 . S
C2773 C2772 1.366 . S
C2773 C2777 1.385 . S
C2774 H2755 0.951 . S
C2774 C2772 1.388 . S
C2774 C2775 1.366 . S
C2775 C2774 1.366 . S
C2775 C2776 1.414 . S
C2775 C2778 1.499 . S
C2776 H2756 0.986 . S
C2776 C2775 1.414 . S
C2776 C2777 1.374 . S
C2777 H2757 0.950 . S
C2777 C2773 1.385 . S
C2777 C2776 1.374 . S
C2778 C2775 1.499 . S
C2778 C2779 1.373 1_545 S
C2778 C2780 1.389 . S
C2779 H2758 0.950 . S
C2779 C2778 1.373 1_565 S
C2779 C2795 1.377 . S
C2780 C2778 1.389 . S
C2780 C2781 1.524 . S
C2780 C2794 1.377 . S
C2781 C2780 1.524 . S
C2781 C2782 1.397 . S
C2781 C2786 1.363 . S
C2782 H2759 0.950 . S
C2782 C2781 1.397 . S
C2782 C2783 1.334 . S
C2783 H2760 0.950 . S
C2783 C2782 1.334 . S
C2783 C2784 1.287 . S
C2784 C2783 1.287 . S
C2784 C2785 1.524 . S
C2784 H2803 0.913 . S
C2785 H2761 0.950 . S
C2785 C2784 1.524 . S
C2785 C2786 1.415 . S
C2786 H2762 0.950 . S
C2786 C2781 1.363 . S
C2786 C2785 1.415 . S
C2787 H2763 0.951 . S
C2787 C2788 1.314 1_565 S
C2787 C2789 1.358 . S
C2788 C2787 1.314 1_545 S
C2788 C2792 1.413 . S
C2789 H2764 1.018 . S
C2789 C2787 1.358 . S
C2789 C2790 1.340 1_565 S
C2790 C2789 1.340 1_545 S
C2790 C2791 1.414 . S
C2790 C2793 1.499 . S
C2791 H2765 0.950 . S
C2791 C2790 1.414 . S
C2791 C2792 1.374 . S
C2792 H2766 0.950 . S
C2792 C2788 1.413 . S
C2792 C2791 1.374 . S
C2793 C2790 1.499 . S
C2793 C2794 1.373 . S
C2793 C2795 1.389 1_545 S
C2794 H2767 0.950 . S
C2794 C2780 1.377 . S
C2794 C2793 1.373 . S
C2795 C2779 1.377 . S
C2795 C2793 1.389 1_565 S
C2795 C2796 1.524 . S
C2796 C2795 1.524 . S
C2796 C2797 1.397 . S
C2796 C2801 1.363 . S
C2797 H2768 0.950 . S
C2797 C2796 1.397 . S
C2797 C2798 1.334 . S
C2798 H2769 0.950 . S
C2798 C2797 1.334 . S
C2798 C2799 1.287 . S
C2799 C2798 1.287 . S
C2799 C2800 1.524 . S
C2799 H2802 0.999 . S
C2800 H2770 0.950 . S
C2800 C2799 1.524 . S
C2800 C2801 1.415 . S
C2801 H2771 0.950 . S
C2801 C2796 1.363 . S
C2801 C2800 1.415 . S
H2802 C2799 0.999 . S
H2803 C2784 0.913 . S
H2804 C2822 0.951 . S
H2805 C2824 0.951 . S
H2806 C2826 0.950 . S
H2807 C2827 0.950 . S
H2808 C2829 0.950 . S
H2809 C2832 0.950 . S
H2810 C2833 0.950 . S
H2811 C2835 0.950 . S
H2812 C2836 0.950 . S
H2813 C2837 0.951 . S
H2814 C2839 0.951 . S
H2815 C2841 0.950 . S
H2816 C2842 0.950 . S
H2817 C2844 0.950 . S
H2818 C2847 0.950 . S
H2819 C2848 0.950 . S
H2820 C2850 0.950 . S
H2821 C2851 0.950 . S
C2822 H2804 0.951 . S
C2822 C2823 1.366 1_455 S
C2822 C2824 1.388 . S
C2823 C2822 1.366 1_655 S
C2823 C2827 1.385 . S
C2824 H2805 0.951 . S
C2824 C2822 1.388 . S
C2824 C2825 1.366 1_455 S
C2825 C2824 1.366 1_655 S
C2825 C2826 1.414 . S
C2825 C2828 1.499 . S
C2826 H2806 0.950 . S
C2826 C2825 1.414 . S
C2826 C2827 1.374 . S
C2827 H2807 0.950 . S
C2827 C2823 1.385 . S
C2827 C2826 1.374 . S
C2828 C2825 1.499 . S
C2828 C2829 1.373 . S
C2828 C2830 1.389 1_655 S
C2829 H2808 0.950 . S
C2829 C2828 1.373 . S
C2829 C2845 1.377 . S
C2830 C2828 1.389 1_455 S
C2830 C2831 1.524 . S
C2830 C2844 1.377 . S
C2831 C2830 1.524 . S
C2831 C2832 1.397 . S
C2831 C2836 1.363 . S
C2832 H2809 0.950 . S
C2832 C2831 1.397 . S
C2832 C2833 1.334 . S
C2833 H2810 0.950 . S
C2833 C2832 1.334 . S
C2833 C2834 1.287 . S
C2834 C2833 1.287 . S
C2834 C2835 1.524 . S
C2834 H2853 0.913 . S
C2835 H2811 0.950 . S
C2835 C2834 1.524 . S
C2835 C2836 1.415 . S
C2836 H2812 0.950 . S
C2836 C2831 1.363 . S
C2836 C2835 1.415 . S
C2837 H2813 0.951 . S
C2837 C2838 1.366 . S
C2837 C2839 1.388 . S
C2838 C2837 1.366 . S
C2838 C2842 1.385 1_655 S
C2839 H2814 0.951 . S
C2839 C2837 1.388 . S
C2839 C2840 1.366 . S
C2840 C2839 1.366 . S
C2840 C2841 1.414 1_655 S
C2840 C2843 1.499 . S
C2841 H2815 0.950 . S
C2841 C2840 1.414 1_455 S
C2841 C2842 1.374 . S
C2842 H2816 0.950 . S
C2842 C2838 1.385 1_455 S
C2842 C2841 1.374 . S
C2843 C2840 1.499 . S
C2843 C2844 1.373 1_655 S
C2843 C2845 1.389 . S
C2844 H2817 0.950 . S
C2844 C2830 1.377 . S
C2844 C2843 1.373 1_455 S
C2845 C2829 1.377 . S
C2845 C2843 1.389 . S
C2845 C2846 1.524 . S
C2846 C2845 1.524 . S
C2846 C2847 1.397 . S
C2846 C2851 1.363 . S
C2847 H2818 0.950 . S
C2847 C2846 1.397 . S
C2847 C2848 1.334 . S
C2848 H2819 0.950 . S
C2848 C2847 1.334 . S
C2848 C2849 1.287 . S
C2849 C2848 1.287 . S
C2849 C2850 1.524 . S
C2849 H2852 0.999 . S
C2850 H2820 0.950 . S
C2850 C2849 1.524 . S
C2850 C2851 1.415 . S
C2851 H2821 0.950 . S
C2851 C2846 1.363 . S
C2851 C2850 1.415 . S
H2852 C2849 0.999 . S
H2853 C2834 0.913 . S
H2854 C2872 0.951 . S
H2855 C2874 0.951 . S
H2856 C2876 0.950 . S
H2857 C2877 0.950 . S
H2858 C2879 0.950 . S
H2859 C2882 0.950 . S
H2860 C2883 0.950 . S
H2861 C2885 0.950 . S
H2862 C2886 0.950 . S
H2863 C2887 0.951 . S
H2864 C2889 0.951 . S
H2865 C2891 0.950 . S
H2866 C2892 0.950 . S
H2867 C2894 0.950 . S
H2868 C2897 0.950 . S
H2869 C2898 0.950 . S
H2870 C2900 0.950 . S
H2871 C2901 0.950 . S
C2872 H2854 0.951 . S
C2872 C2873 1.366 . S
C2872 C2874 1.388 . S
C2873 C2872 1.366 . S
C2873 C2877 1.385 . S
C2874 H2855 0.951 . S
C2874 C2872 1.388 . S
C2874 C2875 1.366 . S
C2875 C2874 1.366 . S
C2875 C2876 1.414 . S
C2875 C2878 1.499 . S
C2876 H2856 0.950 . S
C2876 C2875 1.414 . S
C2876 C2877 1.374 . S
C2877 H2857 0.950 . S
C2877 C2873 1.385 . S
C2877 C2876 1.374 . S
C2878 C2875 1.499 . S
C2878 C2879 1.373 . S
C2878 C2880 1.389 . S
C2879 H2858 0.950 . S
C2879 C2878 1.373 . S
C2879 C2895 1.377 . S
C2880 C2878 1.389 . S
C2880 C2881 1.524 . S
C2880 C2894 1.377 . S
C2881 C2880 1.524 . S
C2881 C2882 1.397 . S
C2881 C2886 1.363 . S
C2882 H2859 0.950 . S
C2882 C2881 1.397 . S
C2882 C2883 1.334 . S
C2883 H2860 0.950 . S
C2883 C2882 1.334 . S
C2883 C2884 1.287 . S
C2884 C2883 1.287 . S
C2884 C2885 1.524 . S
C2884 H2903 0.913 . S
C2885 H2861 0.950 . S
C2885 C2884 1.524 . S
C2885 C2886 1.415 . S
C2886 H2862 0.950 . S
C2886 C2881 1.363 . S
C2886 C2885 1.415 . S
C2887 H2863 0.951 . S
C2887 C2888 1.366 . S
C2887 C2889 1.388 . S
C2888 C2887 1.366 . S
C2888 C2892 1.385 . S
C2889 H2864 0.951 . S
C2889 C2887 1.388 . S
C2889 C2890 1.366 . S
C2890 C2889 1.366 . S
C2890 C2891 1.414 . S
C2890 C2893 1.499 . S
C2891 H2865 0.950 . S
C2891 C2890 1.414 . S
C2891 C2892 1.374 . S
C2892 H2866 0.950 . S
C2892 C2888 1.385 . S
C2892 C2891 1.374 . S
C2893 C2890 1.499 . S
C2893 C2894 1.373 . S
C2893 C2895 1.389 . S
C2894 H2867 0.950 . S
C2894 C2880 1.377 . S
C2894 C2893 1.373 . S
C2895 C2879 1.377 . S
C2895 C2893 1.389 . S
C2895 C2896 1.524 . S
C2896 C2895 1.524 . S
C2896 C2897 1.397 . S
C2896 C2901 1.363 . S
C2897 H2868 0.950 . S
C2897 C2896 1.397 . S
C2897 C2898 1.334 . S
C2898 H2869 0.950 . S
C2898 C2897 1.334 . S
C2898 C2899 1.287 . S
C2899 C2898 1.287 . S
C2899 C2900 1.524 . S
C2899 H2902 0.999 . S
C2900 H2870 0.950 . S
C2900 C2899 1.524 . S
C2900 C2901 1.415 . S
C2901 H2871 0.950 . S
C2901 C2896 1.363 . S
C2901 C2900 1.415 . S
H2902 C2899 0.999 . S
H2903 C2884 0.913 . S
H2904 C2922 0.951 . S
H2905 C2924 0.951 . S
H2906 C2926 0.950 . S
H2907 C2927 0.950 . S
H2908 C2929 0.950 . S
H2909 C2932 0.950 . S
H2910 C2933 0.950 . S
H2911 C2935 0.950 . S
H2912 C2936 0.950 . S
H2913 C2937 0.951 . S
H2914 C2939 0.951 . S
H2915 C2941 0.950 . S
H2916 C2942 0.950 . S
H2917 C2944 0.950 . S
H2918 C2947 0.950 . S
H2919 C2948 0.950 . S
H2920 C2950 0.950 . S
H2921 C2951 0.950 . S
C2922 H2904 0.951 . S
C2922 C2923 1.366 . S
C2922 C2924 1.388 . S
C2923 C2922 1.366 . S
C2923 C2927 1.385 . S
C2924 H2905 0.951 . S
C2924 C2922 1.388 . S
C2924 C2925 1.366 . S
C2925 C2924 1.366 . S
C2925 C2926 1.414 . S
C2925 C2928 1.499 . S
C2926 H2906 0.950 . S
C2926 C2925 1.414 . S
C2926 C2927 1.374 . S
C2927 H2907 0.950 . S
C2927 C2923 1.385 . S
C2927 C2926 1.374 . S
C2928 C2925 1.499 . S
C2928 C2929 1.373 . S
C2928 C2930 1.389 . S
C2929 H2908 0.950 . S
C2929 C2928 1.373 . S
C2929 C2945 1.377 . S
C2930 C2928 1.389 . S
C2930 C2931 1.524 . S
C2930 C2944 1.377 . S
C2931 C2930 1.524 . S
C2931 C2932 1.397 . S
C2931 C2936 1.363 . S
C2932 H2909 0.950 . S
C2932 C2931 1.397 . S
C2932 C2933 1.334 . S
C2933 H2910 0.950 . S
C2933 C2932 1.334 . S
C2933 C2934 1.287 . S
C2934 C2933 1.287 . S
C2934 C2935 1.524 . S
C2934 H2953 0.913 . S
C2935 H2911 0.950 . S
C2935 C2934 1.524 . S
C2935 C2936 1.415 . S
C2936 H2912 0.950 . S
C2936 C2931 1.363 . S
C2936 C2935 1.415 . S
C2937 H2913 0.951 . S
C2937 C2938 1.366 . S
C2937 C2939 1.388 . S
C2938 C2937 1.366 . S
C2938 C2942 1.385 . S
C2939 H2914 0.951 . S
C2939 C2937 1.388 . S
C2939 C2940 1.366 . S
C2940 C2939 1.366 . S
C2940 C2941 1.414 . S
C2940 C2943 1.499 . S
C2941 H2915 0.950 . S
C2941 C2940 1.414 . S
C2941 C2942 1.374 . S
C2942 H2916 0.950 . S
C2942 C2938 1.385 . S
C2942 C2941 1.374 . S
C2943 C2940 1.499 . S
C2943 C2944 1.373 . S
C2943 C2945 1.389 . S
C2944 H2917 0.950 . S
C2944 C2930 1.377 . S
C2944 C2943 1.373 . S
C2945 C2929 1.377 . S
C2945 C2943 1.389 . S
C2945 C2946 1.524 . S
C2946 C2945 1.524 . S
C2946 C2947 1.397 . S
C2946 C2951 1.363 . S
C2947 H2918 0.950 . S
C2947 C2946 1.397 . S
C2947 C2948 1.334 . S
C2948 H2919 0.950 . S
C2948 C2947 1.334 . S
C2948 C2949 1.287 . S
C2949 C2948 1.287 . S
C2949 C2950 1.524 . S
C2949 H2952 0.999 . S
C2950 H2920 0.950 . S
C2950 C2949 1.524 . S
C2950 C2951 1.415 . S
C2951 H2921 0.950 . S
C2951 C2946 1.363 . S
C2951 C2950 1.415 . S
H2952 C2949 0.999 . S
H2953 C2934 0.913 . S
H2954 C2972 0.951 . S
H2955 C2974 0.951 . S
H2956 C2976 0.950 . S
H2957 C2977 0.950 . S
H2958 C2979 0.950 . S
H2959 C2982 0.950 . S
H2960 C2983 0.950 . S
H2961 C2985 0.950 . S
H2962 C2986 0.950 . S
H2963 C2987 0.951 . S
H2964 C2989 0.951 . S
H2965 C2991 0.950 . S
H2966 C2992 0.950 . S
H2967 C2994 0.950 . S
H2968 C2997 0.950 . S
H2969 C2998 0.950 . S
H2970 C3000 0.950 . S
H2971 C3001 0.950 . S
C2972 H2954 0.951 . S
C2972 C2973 1.366 . S
C2972 C2974 1.388 . S
C2973 C2972 1.366 . S
C2973 C2977 1.385 . S
C2974 H2955 0.951 . S
C2974 C2972 1.388 . S
C2974 C2975 1.366 . S
C2975 C2974 1.366 . S
C2975 C2976 1.414 . S
C2975 C2978 1.499 . S
C2976 H2956 0.950 . S
C2976 C2975 1.414 . S
C2976 C2977 1.374 . S
C2977 H2957 0.950 . S
C2977 C2973 1.385 . S
C2977 C2976 1.374 . S
C2978 C2975 1.499 . S
C2978 C2979 1.373 . S
C2978 C2980 1.389 . S
C2979 H2958 0.950 . S
C2979 C2978 1.373 . S
C2979 C2995 1.377 . S
C2980 C2978 1.389 . S
C2980 C2981 1.524 . S
C2980 C2994 1.377 . S
C2981 C2980 1.524 . S
C2981 C2982 1.397 . S
C2981 C2986 1.363 . S
C2982 H2959 0.950 . S
C2982 C2981 1.397 . S
C2982 C2983 1.334 . S
C2983 H2960 0.950 . S
C2983 C2982 1.334 . S
C2983 C2984 1.287 . S
C2984 C2983 1.287 . S
C2984 C2985 1.524 . S
C2984 H3003 0.913 . S
C2985 H2961 0.950 . S
C2985 C2984 1.524 . S
C2985 C2986 1.415 . S
C2986 H2962 0.950 . S
C2986 C2981 1.363 . S
C2986 C2985 1.415 . S
C2987 H2963 0.951 . S
C2987 C2988 1.366 . S
C2987 C2989 1.388 . S
C2988 C2987 1.366 . S
C2988 C2992 1.385 . S
C2989 H2964 0.951 . S
C2989 C2987 1.388 . S
C2989 C2990 1.366 . S
C2990 C2989 1.366 . S
C2990 C2991 1.414 . S
C2990 C2993 1.499 . S
C2991 H2965 0.950 . S
C2991 C2990 1.414 . S
C2991 C2992 1.374 . S
C2992 H2966 0.950 . S
C2992 C2988 1.385 . S
C2992 C2991 1.374 . S
C2993 C2990 1.499 . S
C2993 C2994 1.373 . S
C2993 C2995 1.389 . S
C2994 H2967 0.950 . S
C2994 C2980 1.377 . S
C2994 C2993 1.373 . S
C2995 C2979 1.377 . S
C2995 C2993 1.389 . S
C2995 C2996 1.524 . S
C2996 C2995 1.524 . S
C2996 C2997 1.397 . S
C2996 C3001 1.363 . S
C2997 H2968 0.950 . S
C2997 C2996 1.397 . S
C2997 C2998 1.334 . S
C2998 H2969 0.950 . S
C2998 C2997 1.334 . S
C2998 C2999 1.287 . S
C2999 C2998 1.287 . S
C2999 C3000 1.524 . S
C2999 H3002 0.999 . S
C3000 H2970 0.950 . S
C3000 C2999 1.524 . S
C3000 C3001 1.415 . S
C3001 H2971 0.950 . S
C3001 C2996 1.363 . S
C3001 C3000 1.415 . S
H3002 C2999 0.999 . S
H3003 C2984 0.913 . S
H3004 C3022 0.951 . S
H3005 C3024 0.951 . S
H3006 C3026 0.950 . S
H3007 C3027 0.950 . S
H3008 C3029 0.950 . S
H3009 C3032 0.950 . S
H3010 C3033 0.950 . S
H3011 C3035 0.950 . S
H3012 C3036 0.950 . S
H3013 C3037 0.951 . S
H3014 C3039 0.951 . S
H3015 C3041 0.950 . S
H3016 C3042 0.950 . S
H3017 C3044 0.950 . S
H3018 C3047 0.950 . S
H3019 C3048 0.950 . S
H3020 C3050 0.950 . S
H3021 C3051 0.950 . S
C3022 H3004 0.951 . S
C3022 C3023 1.366 . S
C3022 C3024 1.388 . S
C3023 C3022 1.366 . S
C3023 C3027 1.385 . S
C3024 H3005 0.951 . S
C3024 C3022 1.388 . S
C3024 C3025 1.366 . S
C3025 C3024 1.366 . S
C3025 C3026 1.414 . S
C3025 C3028 1.499 . S
C3026 H3006 0.950 . S
C3026 C3025 1.414 . S
C3026 C3027 1.374 . S
C3027 H3007 0.950 . S
C3027 C3023 1.385 . S
C3027 C3026 1.374 . S
C3028 C3025 1.499 . S
C3028 C3029 1.373 . S
C3028 C3030 1.389 . S
C3029 H3008 0.950 . S
C3029 C3028 1.373 . S
C3029 C3045 1.377 . S
C3030 C3028 1.389 . S
C3030 C3031 1.524 . S
C3030 C3044 1.377 . S
C3031 C3030 1.524 . S
C3031 C3032 1.397 . S
C3031 C3036 1.363 . S
C3032 H3009 0.950 . S
C3032 C3031 1.397 . S
C3032 C3033 1.334 . S
C3033 H3010 0.950 . S
C3033 C3032 1.334 . S
C3033 C3034 1.287 . S
C3034 C3033 1.287 . S
C3034 C3035 1.524 . S
C3034 H3053 0.913 . S
C3035 H3011 0.950 . S
C3035 C3034 1.524 . S
C3035 C3036 1.415 . S
C3036 H3012 0.950 . S
C3036 C3031 1.363 . S
C3036 C3035 1.415 . S
C3037 H3013 0.951 . S
C3037 C3038 1.366 . S
C3037 C3039 1.388 . S
C3038 C3037 1.366 . S
C3038 C3042 1.385 . S
C3039 H3014 0.951 . S
C3039 C3037 1.388 . S
C3039 C3040 1.366 . S
C3040 C3039 1.366 . S
C3040 C3041 1.414 . S
C3040 C3043 1.499 . S
C3041 H3015 0.950 . S
C3041 C3040 1.414 . S
C3041 C3042 1.374 . S
C3042 H3016 0.950 . S
C3042 C3038 1.385 . S
C3042 C3041 1.374 . S
C3043 C3040 1.499 . S
C3043 C3044 1.373 . S
C3043 C3045 1.389 . S
C3044 H3017 0.950 . S
C3044 C3030 1.377 . S
C3044 C3043 1.373 . S
C3045 C3029 1.377 . S
C3045 C3043 1.389 . S
C3045 C3046 1.524 . S
C3046 C3045 1.524 . S
C3046 C3047 1.397 . S
C3046 C3051 1.363 . S
C3047 H3018 0.950 . S
C3047 C3046 1.397 . S
C3047 C3048 1.334 . S
C3048 H3019 0.950 . S
C3048 C3047 1.334 . S
C3048 C3049 1.287 . S
C3049 C3048 1.287 . S
C3049 C3050 1.524 . S
C3049 H3052 0.999 . S
C3050 H3020 0.950 . S
C3050 C3049 1.524 . S
C3050 C3051 1.415 . S
C3051 H3021 0.950 . S
C3051 C3046 1.363 . S
C3051 C3050 1.415 . S
H3052 C3049 0.999 . S
H3053 C3034 0.913 . S
H3054 C3072 0.951 . S
H3055 C3074 0.951 . S
H3056 C3076 0.950 . S
H3057 C3077 0.950 . S
H3058 C3079 0.950 . S
H3059 C3082 0.950 . S
H3060 C3083 0.950 . S
H3061 C3085 0.950 . S
H3062 C3086 0.950 . S
H3063 C3087 0.951 . S
H3064 C3089 0.951 . S
H3065 C3091 0.950 . S
H3066 C3092 0.950 . S
H3067 C3094 0.950 . S
H3068 C3097 0.950 . S
H3069 C3098 0.950 . S
H3070 C3100 0.950 . S
H3071 C3101 0.950 . S
C3072 H3054 0.951 . S
C3072 C3073 1.366 . S
C3072 C3074 1.388 . S
C3073 C3072 1.366 . S
C3073 C3077 1.385 . S
C3074 H3055 0.951 . S
C3074 C3072 1.388 . S
C3074 C3075 1.366 . S
C3075 C3074 1.366 . S
C3075 C3076 1.414 . S
C3075 C3078 1.499 . S
C3076 H3056 0.950 . S
C3076 C3075 1.414 . S
C3076 C3077 1.374 . S
C3077 H3057 0.950 . S
C3077 C3073 1.385 . S
C3077 C3076 1.374 . S
C3078 C3075 1.499 . S
C3078 C3079 1.373 . S
C3078 C3080 1.389 . S
C3079 H3058 0.950 . S
C3079 C3078 1.373 . S
C3079 C3095 1.377 . S
C3080 C3078 1.389 . S
C3080 C3081 1.524 . S
C3080 C3094 1.377 . S
C3081 C3080 1.524 . S
C3081 C3082 1.397 . S
C3081 C3086 1.363 . S
C3082 H3059 0.950 . S
C3082 C3081 1.397 . S
C3082 C3083 1.334 . S
C3083 H3060 0.950 . S
C3083 C3082 1.334 . S
C3083 C3084 1.287 . S
C3084 C3083 1.287 . S
C3084 C3085 1.524 . S
C3084 H3103 0.913 . S
C3085 H3061 0.950 . S
C3085 C3084 1.524 . S
C3085 C3086 1.415 . S
C3086 H3062 0.950 . S
C3086 C3081 1.363 . S
C3086 C3085 1.415 . S
C3087 H3063 0.951 . S
C3087 C3088 1.366 . S
C3087 C3089 1.388 . S
C3088 C3087 1.366 . S
C3088 C3092 1.385 . S
C3089 H3064 0.951 . S
C3089 C3087 1.388 . S
C3089 C3090 1.366 . S
C3090 C3089 1.366 . S
C3090 C3091 1.414 . S
C3090 C3093 1.499 . S
C3091 H3065 0.950 . S
C3091 C3090 1.414 . S
C3091 C3092 1.374 . S
C3092 H3066 0.950 . S
C3092 C3088 1.385 . S
C3092 C3091 1.374 . S
C3093 C3090 1.499 . S
C3093 C3094 1.373 . S
C3093 C3095 1.389 . S
C3094 H3067 0.950 . S
C3094 C3080 1.377 . S
C3094 C3093 1.373 . S
C3095 C3079 1.377 . S
C3095 C3093 1.389 . S
C3095 C3096 1.524 . S
C3096 C3095 1.524 . S
C3096 C3097 1.397 . S
C3096 C3101 1.363 . S
C3097 H3068 0.950 . S
C3097 C3096 1.397 . S
C3097 C3098 1.334 . S
C3098 H3069 0.950 . S
C3098 C3097 1.334 . S
C3098 C3099 1.287 . S
C3099 C3098 1.287 . S
C3099 C3100 1.524 . S
C3099 H3102 0.999 . S
C3100 H3070 0.950 . S
C3100 C3099 1.524 . S
C3100 C3101 1.415 . S
C3101 H3071 0.950 . S
C3101 C3096 1.363 . S
C3101 C3100 1.415 . S
H3102 C3099 0.999 . S
H3103 C3084 0.913 . S
H3104 C3122 0.951 . S
H3105 C3124 0.951 . S
H3106 C3126 0.950 . S
H3107 C3127 0.950 . S
H3108 C3129 0.950 . S
H3109 C3132 0.950 . S
H3110 C3133 0.950 . S
H3111 C3135 0.950 . S
H3112 C3136 0.950 . S
H3113 C3137 0.951 . S
H3114 C3139 0.951 . S
H3115 C3141 0.950 . S
H3116 C3142 0.950 . S
H3117 C3144 0.950 . S
H3118 C3147 0.950 . S
H3119 C3148 0.950 . S
H3120 C3150 0.950 . S
H3121 C3151 0.950 . S
C3122 H3104 0.951 . S
C3122 C3123 1.366 . S
C3122 C3124 1.388 . S
C3123 C3122 1.366 . S
C3123 C3127 1.385 . S
C3124 H3105 0.951 . S
C3124 C3122 1.388 . S
C3124 C3125 1.366 . S
C3125 C3124 1.366 . S
C3125 C3126 1.414 . S
C3125 C3128 1.499 . S
C3126 H3106 0.950 . S
C3126 C3125 1.414 . S
C3126 C3127 1.374 . S
C3127 H3107 0.950 . S
C3127 C3123 1.385 . S
C3127 C3126 1.374 . S
C3128 C3125 1.499 . S
C3128 C3129 1.373 . S
C3128 C3130 1.389 . S
C3129 H3108 0.950 . S
C3129 C3128 1.373 . S
C3129 C3145 1.377 . S
C3130 C3128 1.389 . S
C3130 C3131 1.524 . S
C3130 C3144 1.377 . S
C3131 C3130 1.524 . S
C3131 C3132 1.397 . S
C3131 C3136 1.363 . S
C3132 H3109 0.950 . S
C3132 C3131 1.397 . S
C3132 C3133 1.334 . S
C3133 H3110 0.950 . S
C3133 C3132 1.334 . S
C3133 C3134 1.287 . S
C3134 C3133 1.287 . S
C3134 C3135 1.524 . S
C3134 H3153 0.913 . S
C3135 H3111 0.950 . S
C3135 C3134 1.524 . S
C3135 C3136 1.415 . S
C3136 H3112 0.950 . S
C3136 C3131 1.363 . S
C3136 C3135 1.415 . S
C3137 H3113 0.951 . S
C3137 C3138 1.366 . S
C3137 C3139 1.388 . S
C3138 C3137 1.366 . S
C3138 C3142 1.385 . S
C3139 H3114 0.951 . S
C3139 C3137 1.388 . S
C3139 C3140 1.366 . S
C3140 C3139 1.366 . S
C3140 C3141 1.414 . S
C3140 C3143 1.499 . S
C3141 H3115 0.950 . S
C3141 C3140 1.414 . S
C3141 C3142 1.374 . S
C3142 H3116 0.950 . S
C3142 C3138 1.385 . S
C3142 C3141 1.374 . S
C3143 C3140 1.499 . S
C3143 C3144 1.373 . S
C3143 C3145 1.389 . S
C3144 H3117 0.950 . S
C3144 C3130 1.377 . S
C3144 C3143 1.373 . S
C3145 C3129 1.377 . S
C3145 C3143 1.389 . S
C3145 C3146 1.524 . S
C3146 C3145 1.524 . S
C3146 C3147 1.397 . S
C3146 C3151 1.363 . S
C3147 H3118 0.950 . S
C3147 C3146 1.397 . S
C3147 C3148 1.334 . S
C3148 H3119 0.950 . S
C3148 C3147 1.334 . S
C3148 C3149 1.287 . S
C3149 C3148 1.287 . S
C3149 C3150 1.524 . S
C3149 H3152 0.999 . S
C3150 H3120 0.950 . S
C3150 C3149 1.524 . S
C3150 C3151 1.415 . S
C3151 H3121 0.950 . S
C3151 C3146 1.363 . S
C3151 C3150 1.415 . S
H3152 C3149 0.999 . S
H3153 C3134 0.913 . S
H3154 C3172 0.951 . S
H3155 C3174 0.951 . S
H3156 C3176 0.950 . S
H3157 C3177 0.950 . S
H3158 C3179 0.950 . S
H3159 C3182 0.950 . S
H3160 C3183 0.950 . S
H3161 C3185 0.950 . S
H3162 C3186 0.950 . S
H3163 C3187 0.951 . S
H3164 C3189 0.951 . S
H3165 C3191 0.950 . S
H3166 C3192 0.950 . S
H3167 C3194 0.950 . S
H3168 C3197 0.950 . S
H3169 C3198 0.950 . S
H3170 C3200 0.950 . S
H3171 C3201 0.950 . S
C3172 H3154 0.951 . S
C3172 C3173 1.366 . S
C3172 C3174 1.388 . S
C3173 C3172 1.366 . S
C3173 C3177 1.385 . S
C3174 H3155 0.951 . S
C3174 C3172 1.388 . S
C3174 C3175 1.366 . S
C3175 C3174 1.366 . S
C3175 C3176 1.414 . S
C3175 C3178 1.499 . S
C3176 H3156 0.950 . S
C3176 C3175 1.414 . S
C3176 C3177 1.374 . S
C3177 H3157 0.950 . S
C3177 C3173 1.385 . S
C3177 C3176 1.374 . S
C3178 C3175 1.499 . S
C3178 C3179 1.373 . S
C3178 C3180 1.389 . S
C3179 H3158 0.950 . S
C3179 C3178 1.373 . S
C3179 C3195 1.377 . S
C3180 C3178 1.389 . S
C3180 C3181 1.524 . S
C3180 C3194 1.377 . S
C3181 C3180 1.524 . S
C3181 C3182 1.397 . S
C3181 C3186 1.363 . S
C3182 H3159 0.950 . S
C3182 C3181 1.397 . S
C3182 C3183 1.334 . S
C3183 H3160 0.950 . S
C3183 C3182 1.334 . S
C3183 C3184 1.287 . S
C3184 C3183 1.287 . S
C3184 C3185 1.524 . S
C3184 H3203 0.913 . S
C3185 H3161 0.950 . S
C3185 C3184 1.524 . S
C3185 C3186 1.415 . S
C3186 H3162 0.950 . S
C3186 C3181 1.363 . S
C3186 C3185 1.415 . S
C3187 H3163 0.951 . S
C3187 C3188 1.366 . S
C3187 C3189 1.388 . S
C3188 C3187 1.366 . S
C3188 C3192 1.385 . S
C3189 H3164 0.951 . S
C3189 C3187 1.388 . S
C3189 C3190 1.366 . S
C3190 C3189 1.366 . S
C3190 C3191 1.414 . S
C3190 C3193 1.499 . S
C3191 H3165 0.950 . S
C3191 C3190 1.414 . S
C3191 C3192 1.374 . S
C3192 H3166 0.950 . S
C3192 C3188 1.385 . S
C3192 C3191 1.374 . S
C3193 C3190 1.499 . S
C3193 C3194 1.373 . S
C3193 C3195 1.389 . S
C3194 H3167 0.950 . S
C3194 C3180 1.377 . S
C3194 C3193 1.373 . S
C3195 C3179 1.377 . S
C3195 C3193 1.389 . S
C3195 C3196 1.524 . S
C3196 C3195 1.524 . S
C3196 C3197 1.397 . S
C3196 C3201 1.363 . S
C3197 H3168 0.950 . S
C3197 C3196 1.397 . S
C3197 C3198 1.334 . S
C3198 H3169 0.950 . S
C3198 C3197 1.334 . S
C3198 C3199 1.287 . S
C3199 C3198 1.287 . S
C3199 C3200 1.524 . S
C3199 H3202 0.999 . S
C3200 H3170 0.950 . S
C3200 C3199 1.524 . S
C3200 C3201 1.415 . S
C3201 H3171 0.950 . S
C3201 C3196 1.363 . S
C3201 C3200 1.415 . S
H3202 C3199 0.999 . S
H3203 C3184 0.913 . S
H3204 C3222 0.951 . S
H3205 C3224 0.951 . S
H3206 C3226 0.950 . S
H3207 C3227 0.950 . S
H3208 C3229 0.950 . S
H3209 C3232 0.950 . S
H3210 C3233 0.950 . S
H3211 C3235 0.950 . S
H3212 C3236 0.950 . S
H3213 C3237 0.951 . S
H3214 C3239 0.951 . S
H3215 C3241 0.950 . S
H3216 C3242 0.950 . S
H3217 C3244 0.950 . S
H3218 C3247 0.950 . S
H3219 C3248 0.950 . S
H3220 C3250 0.950 . S
H3221 C3251 0.950 . S
C3222 H3204 0.951 . S
C3222 C3223 1.366 . S
C3222 C3224 1.388 . S
C3223 C3222 1.366 . S
C3223 C3227 1.385 . S
C3224 H3205 0.951 . S
C3224 C3222 1.388 . S
C3224 C3225 1.366 . S
C3225 C3224 1.366 . S
C3225 C3226 1.414 . S
C3225 C3228 1.499 . S
C3226 H3206 0.950 . S
C3226 C3225 1.414 . S
C3226 C3227 1.374 . S
C3227 H3207 0.950 . S
C3227 C3223 1.385 . S
C3227 C3226 1.374 . S
C3228 C3225 1.499 . S
C3228 C3229 1.373 . S
C3228 C3230 1.389 . S
C3229 H3208 0.950 . S
C3229 C3228 1.373 . S
C3229 C3245 1.377 . S
C3230 C3228 1.389 . S
C3230 C3231 1.524 . S
C3230 C3244 1.377 . S
C3231 C3230 1.524 . S
C3231 C3232 1.397 . S
C3231 C3236 1.363 . S
C3232 H3209 0.950 . S
C3232 C3231 1.397 . S
C3232 C3233 1.334 . S
C3233 H3210 0.950 . S
C3233 C3232 1.334 . S
C3233 C3234 1.287 . S
C3234 C3233 1.287 . S
C3234 C3235 1.524 . S
C3234 H3253 0.913 . S
C3235 H3211 0.950 . S
C3235 C3234 1.524 . S
C3235 C3236 1.415 . S
C3236 H3212 0.950 . S
C3236 C3231 1.363 . S
C3236 C3235 1.415 . S
C3237 H3213 0.951 . S
C3237 C3238 1.366 . S
C3237 C3239 1.388 . S
C3238 C3237 1.366 . S
C3238 C3242 1.385 . S
C3239 H3214 0.951 . S
C3239 C3237 1.388 . S
C3239 C3240 1.366 . S
C3240 C3239 1.366 . S
C3240 C3241 1.414 . S
C3240 C3243 1.499 . S
C3241 H3215 0.950 . S
C3241 C3240 1.414 . S
C3241 C3242 1.374 . S
C3242 H3216 0.950 . S
C3242 C3238 1.385 . S
C3242 C3241 1.374 . S
C3243 C3240 1.499 . S
C3243 C3244 1.373 . S
C3243 C3245 1.389 . S
C3244 H3217 0.950 . S
C3244 C3230 1.377 . S
C3244 C3243 1.373 . S
C3245 C3229 1.377 . S
C3245 C3243 1.389 . S
C3245 C3246 1.524 . S
C3246 C3245 1.524 . S
C3246 C3247 1.397 . S
C3246 C3251 1.363 . S
C3247 H3218 0.950 . S
C3247 C3246 1.397 . S
C3247 C3248 1.334 . S
C3248 H3219 0.950 . S
C3248 C3247 1.334 . S
C3248 C3249 1.287 . S
C3249 C3248 1.287 . S
C3249 C3250 1.524 . S
C3249 H3252 0.999 . S
C3250 H3220 0.950 . S
C3250 C3249 1.524 . S
C3250 C3251 1.415 . S
C3251 H3221 0.950 . S
C3251 C3246 1.363 . S
C3251 C3250 1.415 . S
H3252 C3249 0.999 . S
H3253 C3234 0.913 . S
H3254 C3272 0.951 . S
H3255 C3274 0.951 . S
H3256 C3276 0.950 . S
H3257 C3277 0.950 . S
H3258 C3279 0.950 . S
H3259 C3282 0.950 . S
H3260 C3283 0.950 . S
H3261 C3285 0.950 . S
H3262 C3286 0.950 . S
H3263 C3287 0.951 . S
H3264 C3289 0.951 . S
H3265 C3291 0.950 . S
H3266 C3292 0.950 . S
H3267 C3294 0.950 . S
H3268 C3297 0.950 . S
H3269 C3298 0.950 . S
H3270 C3300 0.950 . S
H3271 C3301 0.950 . S
C3272 H3254 0.951 . S
C3272 C3273 1.366 . S
C3272 C3274 1.388 . S
C3273 C3272 1.366 . S
C3273 C3277 1.385 . S
C3274 H3255 0.951 . S
C3274 C3272 1.388 . S
C3274 C3275 1.366 . S
C3275 C3274 1.366 . S
C3275 C3276 1.414 . S
C3275 C3278 1.499 . S
C3276 H3256 0.950 . S
C3276 C3275 1.414 . S
C3276 C3277 1.374 . S
C3277 H3257 0.950 . S
C3277 C3273 1.385 . S
C3277 C3276 1.374 . S
C3278 C3275 1.499 . S
C3278 C3279 1.373 . S
C3278 C3280 1.389 . S
C3279 H3258 0.950 . S
C3279 C3278 1.373 . S
C3279 C3295 1.377 . S
C3280 C3278 1.389 . S
C3280 C3281 1.524 . S
C3280 C3294 1.377 . S
C3281 C3280 1.524 . S
C3281 C3282 1.397 . S
C3281 C3286 1.363 . S
C3282 H3259 0.950 . S
C3282 C3281 1.397 . S
C3282 C3283 1.334 . S
C3283 H3260 0.950 . S
C3283 C3282 1.334 . S
C3283 C3284 1.287 . S
C3284 C3283 1.287 . S
C3284 C3285 1.524 . S
C3284 H3303 0.913 . S
C3285 H3261 0.950 . S
C3285 C3284 1.524 . S
C3285 C3286 1.415 . S
C3286 H3262 0.950 . S
C3286 C3281 1.363 . S
C3286 C3285 1.415 . S
C3287 H3263 0.951 . S
C3287 C3288 1.366 . S
C3287 C3289 1.388 . S
C3288 C3287 1.366 . S
C3288 C3292 1.385 . S
C3289 H3264 0.951 . S
C3289 C3287 1.388 . S
C3289 C3290 1.366 . S
C3290 C3289 1.366 . S
C3290 C3291 1.414 . S
C3290 C3293 1.499 . S
C3291 H3265 0.950 . S
C3291 C3290 1.414 . S
C3291 C3292 1.374 . S
C3292 H3266 0.950 . S
C3292 C3288 1.385 . S
C3292 C3291 1.374 . S
C3293 C3290 1.499 . S
C3293 C3294 1.373 . S
C3293 C3295 1.389 . S
C3294 H3267 0.950 . S
C3294 C3280 1.377 . S
C3294 C3293 1.373 . S
C3295 C3279 1.377 . S
C3295 C3293 1.389 . S
C3295 C3296 1.524 . S
C3296 C3295 1.524 . S
C3296 C3297 1.397 . S
C3296 C3301 1.363 . S
C3297 H3268 0.950 . S
C3297 C3296 1.397 . S
C3297 C3298 1.334 . S
C3298 H3269 0.950 . S
C3298 C3297 1.334 . S
C3298 C3299 1.287 . S
C3299 C3298 1.287 . S
C3299 C3300 1.524 . S
C3299 H3302 0.999 . S
C3300 H3270 0.950 . S
C3300 C3299 1.524 . S
C3300 C3301 1.415 . S
C3301 H3271 0.950 . S
C3301 C3296 1.363 . S
C3301 C3300 1.415 . S
H3302 C3299 0.999 . S
H3303 C3284 0.913 . S
H3304 C3322 0.951 . S
H3305 C3324 0.951 . S
H3306 C3326 0.950 . S
H3307 C3327 0.950 . S
H3308 C3329 0.950 . S
H3309 C3332 0.950 . S
H3310 C3333 0.950 . S
H3311 C3335 0.950 . S
H3312 C3336 0.950 . S
H3313 C3337 0.951 . S
H3314 C3339 0.951 . S
H3315 C3341 0.950 . S
H3316 C3342 0.950 . S
H3317 C3344 0.950 . S
H3318 C3347 0.950 . S
H3319 C3348 0.950 . S
H3320 C3350 0.950 . S
H3321 C3351 0.950 . S
C3322 H3304 0.951 . S
C3322 C3323 1.366 . S
C3322 C3324 1.388 . S
C3323 C3322 1.366 . S
C3323 C3327 1.385 . S
C3324 H3305 0.951 . S
C3324 C3322 1.388 . S
C3324 C3325 1.366 . S
C3325 C3324 1.366 . S
C3325 C3326 1.414 . S
C3325 C3328 1.499 . S
C3326 H3306 0.950 . S
C3326 C3325 1.414 . S
C3326 C3327 1.374 . S
C3327 H3307 0.950 . S
C3327 C3323 1.385 . S
C3327 C3326 1.374 . S
C3328 C3325 1.499 . S
C3328 C3329 1.373 . S
C3328 C3330 1.389 . S
C3329 H3308 0.950 . S
C3329 C3328 1.373 . S
C3329 C3345 1.377 . S
C3330 C3328 1.389 . S
C3330 C3331 1.524 . S
C3330 C3344 1.377 . S
C3331 C3330 1.524 . S
C3331 C3332 1.397 . S
C3331 C3336 1.363 . S
C3332 H3309 0.950 . S
C3332 C3331 1.397 . S
C3332 C3333 1.334 . S
C3333 H3310 0.950 . S
C3333 C3332 1.334 . S
C3333 C3334 1.287 . S
C3334 C3333 1.287 . S
C3334 C3335 1.524 . S
C3334 H3353 0.913 . S
C3335 H3311 0.950 . S
C3335 C3334 1.524 . S
C3335 C3336 1.415 . S
C3336 H3312 0.950 . S
C3336 C3331 1.363 . S
C3336 C3335 1.415 . S
C3337 H3313 0.951 . S
C3337 C3338 1.366 . S
C3337 C3339 1.388 . S
C3338 C3337 1.366 . S
C3338 C3342 1.385 . S
C3339 H3314 0.951 . S
C3339 C3337 1.388 . S
C3339 C3340 1.366 . S
C3340 C3339 1.366 . S
C3340 C3341 1.414 . S
C3340 C3343 1.499 . S
C3341 H3315 0.950 . S
C3341 C3340 1.414 . S
C3341 C3342 1.374 . S
C3342 H3316 0.950 . S
C3342 C3338 1.385 . S
C3342 C3341 1.374 . S
C3343 C3340 1.499 . S
C3343 C3344 1.373 . S
C3343 C3345 1.389 . S
C3344 H3317 0.950 . S
C3344 C3330 1.377 . S
C3344 C3343 1.373 . S
C3345 C3329 1.377 . S
C3345 C3343 1.389 . S
C3345 C3346 1.524 . S
C3346 C3345 1.524 . S
C3346 C3347 1.397 . S
C3346 C3351 1.363 . S
C3347 H3318 0.950 . S
C3347 C3346 1.397 . S
C3347 C3348 1.334 . S
C3348 H3319 0.950 . S
C3348 C3347 1.334 . S
C3348 C3349 1.287 . S
C3349 C3348 1.287 . S
C3349 C3350 1.524 . S
C3349 H3352 0.999 . S
C3350 H3320 0.950 . S
C3350 C3349 1.524 . S
C3350 C3351 1.415 . S
C3351 H3321 0.950 . S
C3351 C3346 1.363 . S
C3351 C3350 1.415 . S
H3352 C3349 0.999 . S
H3353 C3334 0.913 . S
H3354 C3372 0.951 . S
H3355 C3374 0.951 . S
H3356 C3376 0.950 . S
H3357 C3377 0.950 . S
H3358 C3379 0.950 . S
H3359 C3382 0.950 . S
H3360 C3383 0.950 . S
H3361 C3385 0.950 . S
H3362 C3386 0.950 . S
H3363 C3387 0.951 . S
H3364 C3389 0.951 . S
H3365 C3391 0.950 . S
H3366 C3392 0.950 . S
H3367 C3394 0.950 . S
H3368 C3397 0.950 . S
H3369 C3398 0.950 . S
H3370 C3400 0.950 . S
H3371 C3401 0.950 . S
C3372 H3354 0.951 . S
C3372 C3373 1.366 . S
C3372 C3374 1.388 . S
C3373 C3372 1.366 . S
C3373 C3377 1.385 . S
C3374 H3355 0.951 . S
C3374 C3372 1.388 . S
C3374 C3375 1.366 . S
C3375 C3374 1.366 . S
C3375 C3376 1.414 . S
C3375 C3378 1.499 . S
C3376 H3356 0.950 . S
C3376 C3375 1.414 . S
C3376 C3377 1.374 . S
C3377 H3357 0.950 . S
C3377 C3373 1.385 . S
C3377 C3376 1.374 . S
C3378 C3375 1.499 . S
C3378 C3379 1.373 . S
C3378 C3380 1.389 . S
C3379 H3358 0.950 . S
C3379 C3378 1.373 . S
C3379 C3395 1.377 . S
C3380 C3378 1.389 . S
C3380 C3381 1.524 . S
C3380 C3394 1.377 . S
C3381 C3380 1.524 . S
C3381 C3382 1.397 . S
C3381 C3386 1.363 . S
C3382 H3359 0.950 . S
C3382 C3381 1.397 . S
C3382 C3383 1.334 . S
C3383 H3360 0.950 . S
C3383 C3382 1.334 . S
C3383 C3384 1.287 . S
C3384 C3383 1.287 . S
C3384 C3385 1.524 . S
C3384 H3403 0.913 . S
C3385 H3361 0.950 . S
C3385 C3384 1.524 . S
C3385 C3386 1.415 . S
C3386 H3362 0.950 . S
C3386 C3381 1.363 . S
C3386 C3385 1.415 . S
C3387 H3363 0.951 . S
C3387 C3388 1.366 . S
C3387 C3389 1.388 . S
C3388 C3387 1.366 . S
C3388 C3392 1.385 . S
C3389 H3364 0.951 . S
C3389 C3387 1.388 . S
C3389 C3390 1.366 . S
C3390 C3389 1.366 . S
C3390 C3391 1.414 . S
C3390 C3393 1.499 . S
C3391 H3365 0.950 . S
C3391 C3390 1.414 . S
C3391 C3392 1.374 . S
C3392 H3366 0.950 . S
C3392 C3388 1.385 . S
C3392 C3391 1.374 . S
C3393 C3390 1.499 . S
C3393 C3394 1.373 . S
C3393 C3395 1.389 . S
C3394 H3367 0.950 . S
C3394 C3380 1.377 . S
C3394 C3393 1.373 . S
C3395 C3379 1.377 . S
C3395 C3393 1.389 . S
C3395 C3396 1.524 . S
C3396 C3395 1.524 . S
C3396 C3397 1.397 . S
C3396 C3401 1.363 . S
C3397 H3368 0.950 . S
C3397 C3396 1.397 . S
C3397 C3398 1.334 . S
C3398 H3369 0.950 . S
C3398 C3397 1.334 . S
C3398 C3399 1.287 . S
C3399 C3398 1.287 . S
C3399 C3400 1.524 . S
C3399 H3402 0.999 . S
C3400 H3370 0.950 . S
C3400 C3399 1.524 . S
C3400 C3401 1.415 . S
C3401 H3371 0.950 . S
C3401 C3396 1.363 . S
C3401 C3400 1.415 . S
H3402 C3399 0.999 . S
H3403 C3384 0.913 . S
H3404 C3422 0.951 . S
H3405 C3424 0.951 . S
H3406 C3426 0.950 . S
H3407 C3427 0.950 . S
H3408 C3429 0.950 . S
H3409 C3432 0.950 . S
H3410 C3433 0.950 . S
H3411 C3435 0.950 . S
H3412 C3436 0.950 . S
H3413 C3437 0.951 . S
H3414 C3439 0.951 . S
H3415 C3441 0.950 . S
H3416 C3442 0.950 . S
H3417 C3444 0.950 . S
H3418 C3447 0.950 . S
H3419 C3448 0.950 . S
H3420 C3450 0.950 . S
H3421 C3451 0.950 . S
C3422 H3404 0.951 . S
C3422 C3423 1.366 . S
C3422 C3424 1.388 . S
C3423 C3422 1.366 . S
C3423 C3427 1.385 . S
C3424 H3405 0.951 . S
C3424 C3422 1.388 . S
C3424 C3425 1.366 . S
C3425 C3424 1.366 . S
C3425 C3426 1.414 . S
C3425 C3428 1.499 . S
C3426 H3406 0.950 . S
C3426 C3425 1.414 . S
C3426 C3427 1.374 . S
C3427 H3407 0.950 . S
C3427 C3423 1.385 . S
C3427 C3426 1.374 . S
C3428 C3425 1.499 . S
C3428 C3429 1.373 . S
C3428 C3430 1.389 . S
C3429 H3408 0.950 . S
C3429 C3428 1.373 . S
C3429 C3445 1.377 . S
C3430 C3428 1.389 . S
C3430 C3431 1.524 . S
C3430 C3444 1.377 . S
C3431 C3430 1.524 . S
C3431 C3432 1.397 . S
C3431 C3436 1.363 . S
C3432 H3409 0.950 . S
C3432 C3431 1.397 . S
C3432 C3433 1.334 . S
C3433 H3410 0.950 . S
C3433 C3432 1.334 . S
C3433 C3434 1.287 . S
C3434 C3433 1.287 . S
C3434 C3435 1.524 . S
C3434 H3453 0.913 . S
C3435 H3411 0.950 . S
C3435 C3434 1.524 . S
C3435 C3436 1.415 . S
C3436 H3412 0.950 . S
C3436 C3431 1.363 . S
C3436 C3435 1.415 . S
C3437 H3413 0.951 . S
C3437 C3438 1.366 . S
C3437 C3439 1.388 . S
C3438 C3437 1.366 . S
C3438 C3442 1.385 . S
C3439 H3414 0.951 . S
C3439 C3437 1.388 . S
C3439 C3440 1.366 . S
C3440 C3439 1.366 . S
C3440 C3441 1.414 . S
C3440 C3443 1.499 . S
C3441 H3415 0.950 . S
C3441 C3440 1.414 . S
C3441 C3442 1.374 . S
C3442 H3416 0.950 . S
C3442 C3438 1.385 . S
C3442 C3441 1.374 . S
C3443 C3440 1.499 . S
C3443 C3444 1.373 . S
C3443 C3445 1.389 . S
C3444 H3417 0.950 . S
C3444 C3430 1.377 . S
C3444 C3443 1.373 . S
C3445 C3429 1.377 . S
C3445 C3443 1.389 . S
C3445 C3446 1.524 . S
C3446 C3445 1.524 . S
C3446 C3447 1.397 . S
C3446 C3451 1.363 . S
C3447 H3418 0.950 . S
C3447 C3446 1.397 . S
C3447 C3448 1.334 . S
C3448 H3419 0.950 . S
C3448 C3447 1.334 . S
C3448 C3449 1.287 . S
C3449 C3448 1.287 . S
C3449 C3450 1.524 . S
C3449 H3452 0.999 . S
C3450 H3420 0.950 . S
C3450 C3449 1.524 . S
C3450 C3451 1.415 . S
C3451 H3421 0.950 . S
C3451 C3446 1.363 . S
C3451 C3450 1.415 . S
H3452 C3449 0.999 . S
H3453 C3434 0.913 . S
H3454 C3472 0.951 . S
H3455 C3474 0.951 . S
H3456 C3476 0.950 . S
H3457 C3477 0.950 . S
H3458 C3479 0.950 . S
H3459 C3482 0.950 . S
H3460 C3483 0.950 . S
H3461 C3485 0.950 . S
H3462 C3486 0.950 . S
H3463 C3487 0.951 . S
H3464 C3489 0.951 . S
H3465 C3491 0.950 . S
H3466 C3492 0.950 . S
H3467 C3494 0.950 . S
H3468 C3497 0.950 . S
H3469 C3498 0.950 . S
H3470 C3500 0.950 . S
H3471 C3501 0.950 . S
C3472 H3454 0.951 . S
C3472 C3473 1.366 . S
C3472 C3474 1.388 . S
C3473 C3472 1.366 . S
C3473 C3477 1.385 . S
C3474 H3455 0.951 . S
C3474 C3472 1.388 . S
C3474 C3475 1.366 . S
C3475 C3474 1.366 . S
C3475 C3476 1.414 . S
C3475 C3478 1.499 . S
C3476 H3456 0.950 . S
C3476 C3475 1.414 . S
C3476 C3477 1.374 . S
C3477 H3457 0.950 . S
C3477 C3473 1.385 . S
C3477 C3476 1.374 . S
C3478 C3475 1.499 . S
C3478 C3479 1.373 . S
C3478 C3480 1.389 . S
C3479 H3458 0.950 . S
C3479 C3478 1.373 . S
C3479 C3495 1.377 . S
C3480 C3478 1.389 . S
C3480 C3481 1.524 . S
C3480 C3494 1.377 . S
C3481 C3480 1.524 . S
C3481 C3482 1.397 . S
C3481 C3486 1.363 . S
C3482 H3459 0.950 . S
C3482 C3481 1.397 . S
C3482 C3483 1.334 . S
C3483 H3460 0.950 . S
C3483 C3482 1.334 . S
C3483 C3484 1.287 . S
C3484 C3483 1.287 . S
C3484 C3485 1.524 . S
C3484 H3503 0.913 . S
C3485 H3461 0.950 . S
C3485 C3484 1.524 . S
C3485 C3486 1.415 . S
C3486 H3462 0.950 . S
C3486 C3481 1.363 . S
C3486 C3485 1.415 . S
C3487 H3463 0.951 . S
C3487 C3488 1.366 . S
C3487 C3489 1.388 . S
C3488 C3487 1.366 . S
C3488 C3492 1.385 . S
C3489 H3464 0.951 . S
C3489 C3487 1.388 . S
C3489 C3490 1.366 . S
C3490 C3489 1.366 . S
C3490 C3491 1.414 . S
C3490 C3493 1.499 . S
C3491 H3465 0.950 . S
C3491 C3490 1.414 . S
C3491 C3492 1.374 . S
C3492 H3466 0.950 . S
C3492 C3488 1.385 . S
C3492 C3491 1.374 . S
C3493 C3490 1.499 . S
C3493 C3494 1.373 . S
C3493 C3495 1.389 . S
C3494 H3467 0.950 . S
C3494 C3480 1.377 . S
C3494 C3493 1.373 . S
C3495 C3479 1.377 . S
C3495 C3493 1.389 . S
C3495 C3496 1.524 . S
C3496 C3495 1.524 . S
C3496 C3497 1.397 . S
C3496 C3501 1.363 . S
C3497 H3468 0.950 . S
C3497 C3496 1.397 . S
C3497 C3498 1.334 . S
C3498 H3469 0.950 . S
C3498 C3497 1.334 . S
C3498 C3499 1.287 . S
C3499 C3498 1.287 . S
C3499 C3500 1.524 . S
C3499 H3502 0.999 . S
C3500 H3470 0.950 . S
C3500 C3499 1.524 . S
C3500 C3501 1.415 . S
C3501 H3471 0.950 . S
C3501 C3496 1.363 . S
C3501 C3500 1.415 . S
H3502 C3499 0.999 . S
H3503 C3484 0.913 . S
H3504 C3522 0.951 . S
H3505 C3524 0.951 . S
H3506 C3526 0.950 . S
H3507 C3527 0.950 . S
H3508 C3529 0.950 . S
H3509 C3532 0.950 . S
H3510 C3533 0.950 . S
H3511 C3535 0.950 . S
H3512 C3536 0.950 . S
H3513 C3537 0.951 . S
H3514 C3539 0.951 . S
H3515 C3541 0.950 . S
H3516 C3542 0.950 . S
H3517 C3544 0.950 . S
H3518 C3547 0.950 . S
H3519 C3548 0.950 . S
H3520 C3550 0.950 . S
H3521 C3551 0.950 . S
C3522 H3504 0.951 . S
C3522 C3523 1.366 . S
C3522 C3524 1.388 . S
C3523 C3522 1.366 . S
C3523 C3527 1.385 . S
C3524 H3505 0.951 . S
C3524 C3522 1.388 . S
C3524 C3525 1.366 . S
C3525 C3524 1.366 . S
C3525 C3526 1.414 . S
C3525 C3528 1.499 . S
C3526 H3506 0.950 . S
C3526 C3525 1.414 . S
C3526 C3527 1.374 . S
C3527 H3507 0.950 . S
C3527 C3523 1.385 . S
C3527 C3526 1.374 . S
C3528 C3525 1.499 . S
C3528 C3529 1.373 . S
C3528 C3530 1.389 . S
C3529 H3508 0.950 . S
C3529 C3528 1.373 . S
C3529 C3545 1.377 . S
C3530 C3528 1.389 . S
C3530 C3531 1.524 . S
C3530 C3544 1.377 . S
C3531 C3530 1.524 . S
C3531 C3532 1.397 . S
C3531 C3536 1.363 . S
C3532 H3509 0.950 . S
C3532 C3531 1.397 . S
C3532 C3533 1.334 . S
C3533 H3510 0.950 . S
C3533 C3532 1.334 . S
C3533 C3534 1.287 . S
C3534 C3533 1.287 . S
C3534 C3535 1.524 . S
C3534 H3553 0.913 . S
C3535 H3511 0.950 . S
C3535 C3534 1.524 . S
C3535 C3536 1.415 . S
C3536 H3512 0.950 . S
C3536 C3531 1.363 . S
C3536 C3535 1.415 . S
C3537 H3513 0.951 . S
C3537 C3538 1.366 . S
C3537 C3539 1.388 . S
C3538 C3537 1.366 . S
C3538 C3542 1.385 . S
C3539 H3514 0.951 . S
C3539 C3537 1.388 . S
C3539 C3540 1.366 . S
C3540 C3539 1.366 . S
C3540 C3541 1.414 . S
C3540 C3543 1.499 . S
C3541 H3515 0.950 . S
C3541 C3540 1.414 . S
C3541 C3542 1.374 . S
C3542 H3516 0.950 . S
C3542 C3538 1.385 . S
C3542 C3541 1.374 . S
C3543 C3540 1.499 . S
C3543 C3544 1.373 . S
C3543 C3545 1.389 . S
C3544 H3517 0.950 . S
C3544 C3530 1.377 . S
C3544 C3543 1.373 . S
C3545 C3529 1.377 . S
C3545 C3543 1.389 . S
C3545 C3546 1.524 . S
C3546 C3545 1.524 . S
C3546 C3547 1.397 . S
C3546 C3551 1.363 . S
C3547 H3518 0.950 . S
C3547 C3546 1.397 . S
C3547 C3548 1.334 . S
C3548 H3519 0.950 . S
C3548 C3547 1.334 . S
C3548 C3549 1.287 . S
C3549 C3548 1.287 . S
C3549 C3550 1.524 . S
C3549 H3552 0.999 . S
C3550 H3520 0.950 . S
C3550 C3549 1.524 . S
C3550 C3551 1.415 . S
C3551 H3521 0.950 . S
C3551 C3546 1.363 . S
C3551 C3550 1.415 . S
H3552 C3549 0.999 . S
H3553 C3534 0.913 . S
H3554 C3572 0.951 . S
H3555 C3574 0.951 . S
H3556 C3576 0.950 . S
H3557 C3577 0.950 . S
H3558 C3579 0.950 . S
H3559 C3582 0.950 . S
H3560 C3583 0.950 . S
H3561 C3585 0.950 . S
H3562 C3586 0.950 . S
H3563 C3587 0.951 . S
H3564 C3589 0.951 . S
H3565 C3591 0.950 . S
H3566 C3592 0.950 . S
H3567 C3594 0.950 . S
H3568 C3597 0.950 . S
H3569 C3598 0.950 . S
H3570 C3600 0.950 . S
H3571 C3601 0.950 . S
C3572 H3554 0.951 . S
C3572 C3573 1.366 . S
C3572 C3574 1.388 . S
C3573 C3572 1.366 . S
C3573 C3577 1.385 . S
C3574 H3555 0.951 . S
C3574 C3572 1.388 . S
C3574 C3575 1.366 . S
C3575 C3574 1.366 . S
C3575 C3576 1.414 . S
C3575 C3578 1.499 . S
C3576 H3556 0.950 . S
C3576 C3575 1.414 . S
C3576 C3577 1.374 . S
C3577 H3557 0.950 . S
C3577 C3573 1.385 . S
C3577 C3576 1.374 . S
C3578 C3575 1.499 . S
C3578 C3579 1.373 . S
C3578 C3580 1.389 . S
C3579 H3558 0.950 . S
C3579 C3578 1.373 . S
C3579 C3595 1.377 . S
C3580 C3578 1.389 . S
C3580 C3581 1.524 . S
C3580 C3594 1.377 . S
C3581 C3580 1.524 . S
C3581 C3582 1.397 . S
C3581 C3586 1.363 . S
C3582 H3559 0.950 . S
C3582 C3581 1.397 . S
C3582 C3583 1.334 . S
C3583 H3560 0.950 . S
C3583 C3582 1.334 . S
C3583 C3584 1.287 . S
C3584 C3583 1.287 . S
C3584 C3585 1.524 . S
C3584 H3603 0.913 . S
C3585 H3561 0.950 . S
C3585 C3584 1.524 . S
C3585 C3586 1.415 . S
C3586 H3562 0.950 . S
C3586 C3581 1.363 . S
C3586 C3585 1.415 . S
C3587 H3563 0.951 . S
C3587 C3588 1.366 . S
C3587 C3589 1.388 . S
C3588 C3587 1.366 . S
C3588 C3592 1.385 . S
C3589 H3564 0.951 . S
C3589 C3587 1.388 . S
C3589 C3590 1.366 . S
C3590 C3589 1.366 . S
C3590 C3591 1.414 . S
C3590 C3593 1.499 . S
C3591 H3565 0.950 . S
C3591 C3590 1.414 . S
C3591 C3592 1.374 . S
C3592 H3566 0.950 . S
C3592 C3588 1.385 . S
C3592 C3591 1.374 . S
C3593 C3590 1.499 . S
C3593 C3594 1.373 . S
C3593 C3595 1.389 . S
C3594 H3567 0.950 . S
C3594 C3580 1.377 . S
C3594 C3593 1.373 . S
C3595 C3579 1.377 . S
C3595 C3593 1.389 . S
C3595 C3596 1.524 . S
C3596 C3595 1.524 . S
C3596 C3597 1.397 . S
C3596 C3601 1.363 . S
C3597 H3568 0.950 . S
C3597 C3596 1.397 . S
C3597 C3598 1.334 . S
C3598 H3569 0.950 . S
C3598 C3597 1.334 . S
C3598 C3599 1.287 . S
C3599 C3598 1.287 . S
C3599 C3600 1.524 . S
C3599 H3602 0.999 . S
C3600 H3570 0.950 . S
C3600 C3599 1.524 . S
C3600 C3601 1.415 . S
C3601 H3571 0.950 . S
C3601 C3596 1.363 . S
C3601 C3600 1.415 . S
H3602 C3599 0.999 . S
H3603 C3584 0.913 . S
H3604 C3622 0.951 . S
H3605 C3624 0.951 . S
H3606 C3626 0.950 . S
H3607 C3627 0.950 . S
H3608 C3629 0.950 . S
H3609 C3632 0.950 . S
H3610 C3633 0.950 . S
H3611 C3635 0.950 . S
H3612 C3636 0.950 . S
H3613 C3637 0.951 . S
H3614 C3639 0.951 . S
H3615 C3641 0.950 . S
H3616 C3642 0.950 . S
H3617 C3644 0.950 . S
H3618 C3647 0.950 . S
H3619 C3648 0.950 . S
H3620 C3650 0.950 . S
H3621 C3651 0.950 . S
C3622 H3604 0.951 . S
C3622 C3623 1.366 . S
C3622 C3624 1.388 . S
C3623 C3622 1.366 . S
C3623 C3627 1.385 . S
C3624 H3605 0.951 . S
C3624 C3622 1.388 . S
C3624 C3625 1.366 . S
C3625 C3624 1.366 . S
C3625 C3626 1.414 . S
C3625 C3628 1.499 . S
C3626 H3606 0.950 . S
C3626 C3625 1.414 . S
C3626 C3627 1.374 . S
C3627 H3607 0.950 . S
C3627 C3623 1.385 . S
C3627 C3626 1.374 . S
C3628 C3625 1.499 . S
C3628 C3629 1.373 . S
C3628 C3630 1.389 . S
C3629 H3608 0.950 . S
C3629 C3628 1.373 . S
C3629 C3645 1.377 . S
C3630 C3628 1.389 . S
C3630 C3631 1.524 . S
C3630 C3644 1.377 . S
C3631 C3630 1.524 . S
C3631 C3632 1.397 . S
C3631 C3636 1.363 . S
C3632 H3609 0.950 . S
C3632 C3631 1.397 . S
C3632 C3633 1.334 . S
C3633 H3610 0.950 . S
C3633 C3632 1.334 . S
C3633 C3634 1.287 . S
C3634 C3633 1.287 . S
C3634 C3635 1.524 . S
C3634 H3653 0.913 . S
C3635 H3611 0.950 . S
C3635 C3634 1.524 . S
C3635 C3636 1.415 . S
C3636 H3612 0.950 . S
C3636 C3631 1.363 . S
C3636 C3635 1.415 . S
C3637 H3613 0.951 . S
C3637 C3638 1.366 . S
C3637 C3639 1.388 . S
C3638 C3637 1.366 . S
C3638 C3642 1.385 . S
C3639 H3614 0.951 . S
C3639 C3637 1.388 . S
C3639 C3640 1.366 . S
C3640 C3639 1.366 . S
C3640 C3641 1.414 . S
C3640 C3643 1.499 . S
C3641 H3615 0.950 . S
C3641 C3640 1.414 . S
C3641 C3642 1.374 . S
C3642 H3616 0.950 . S
C3642 C3638 1.385 . S
C3642 C3641 1.374 . S
C3643 C3640 1.499 . S
C3643 C3644 1.373 . S
C3643 C3645 1.389 . S
C3644 H3617 0.950 . S
C3644 C3630 1.377 . S
C3644 C3643 1.373 . S
C3645 C3629 1.377 . S
C3645 C3643 1.389 . S
C3645 C3646 1.524 . S
C3646 C3645 1.524 . S
C3646 C3647 1.397 . S
C3646 C3651 1.363 . S
C3647 H3618 0.950 . S
C3647 C3646 1.397 . S
C3647 C3648 1.334 . S
C3648 H3619 0.950 . S
C3648 C3647 1.334 . S
C3648 C3649 1.287 . S
C3649 C3648 1.287 . S
C3649 C3650 1.524 . S
C3649 H3652 0.999 . S
C3650 H3620 0.950 . S
C3650 C3649 1.524 . S
C3650 C3651 1.415 . S
C3651 H3621 0.950 . S
C3651 C3646 1.363 . S
C3651 C3650 1.415 . S
H3652 C3649 0.999 . S
H3653 C3634 0.913 . S
H3654 C3672 0.951 . S
H3655 C3674 0.951 . S
H3656 C3676 0.950 . S
H3657 C3677 0.950 . S
H3658 C3679 0.950 . S
H3659 C3682 0.950 . S
H3660 C3683 0.950 . S
H3661 C3685 0.950 . S
H3662 C3686 0.950 . S
H3663 C3687 0.951 . S
H3664 C3689 0.951 . S
H3665 C3691 0.950 . S
H3666 C3692 0.950 . S
H3667 C3694 0.950 . S
H3668 C3697 0.950 . S
H3669 C3698 0.950 . S
H3670 C3700 0.950 . S
H3671 C3701 0.950 . S
C3672 H3654 0.951 . S
C3672 C3673 1.366 . S
C3672 C3674 1.388 . S
C3673 C3672 1.366 . S
C3673 C3677 1.385 . S
C3674 H3655 0.951 . S
C3674 C3672 1.388 . S
C3674 C3675 1.366 . S
C3675 C3674 1.366 . S
C3675 C3676 1.414 . S
C3675 C3678 1.499 . S
C3676 H3656 0.950 . S
C3676 C3675 1.414 . S
C3676 C3677 1.374 . S
C3677 H3657 0.950 . S
C3677 C3673 1.385 . S
C3677 C3676 1.374 . S
C3678 C3675 1.499 . S
C3678 C3679 1.373 . S
C3678 C3680 1.389 . S
C3679 H3658 0.950 . S
C3679 C3678 1.373 . S
C3679 C3695 1.377 . S
C3680 C3678 1.389 . S
C3680 C3681 1.524 . S
C3680 C3694 1.377 . S
C3681 C3680 1.524 . S
C3681 C3682 1.397 . S
C3681 C3686 1.363 . S
C3682 H3659 0.950 . S
C3682 C3681 1.397 . S
C3682 C3683 1.334 . S
C3683 H3660 0.950 . S
C3683 C3682 1.334 . S
C3683 C3684 1.287 . S
C3684 C3683 1.287 . S
C3684 C3685 1.524 . S
C3684 H3703 0.913 . S
C3685 H3661 0.950 . S
C3685 C3684 1.524 . S
C3685 C3686 1.415 . S
C3686 H3662 0.950 . S
C3686 C3681 1.363 . S
C3686 C3685 1.415 . S
C3687 H3663 0.951 . S
C3687 C3688 1.366 . S
C3687 C3689 1.388 . S
C3688 C3687 1.366 . S
C3688 C3692 1.385 . S
C3689 H3664 0.951 . S
C3689 C3687 1.388 . S
C3689 C3690 1.366 . S
C3690 C3689 1.366 . S
C3690 C3691 1.414 . S
C3690 C3693 1.499 . S
C3691 H3665 0.950 . S
C3691 C3690 1.414 . S
C3691 C3692 1.374 . S
C3692 H3666 0.950 . S
C3692 C3688 1.385 . S
C3692 C3691 1.374 . S
C3693 C3690 1.499 . S
C3693 C3694 1.373 . S
C3693 C3695 1.389 . S
C3694 H3667 0.950 . S
C3694 C3680 1.377 . S
C3694 C3693 1.373 . S
C3695 C3679 1.377 . S
C3695 C3693 1.389 . S
C3695 C3696 1.524 . S
C3696 C3695 1.524 . S
C3696 C3697 1.397 . S
C3696 C3701 1.363 . S
C3697 H3668 0.950 . S
C3697 C3696 1.397 . S
C3697 C3698 1.334 . S
C3698 H3669 0.950 . S
C3698 C3697 1.334 . S
C3698 C3699 1.287 . S
C3699 C3698 1.287 . S
C3699 C3700 1.524 . S
C3699 H3702 0.999 . S
C3700 H3670 0.950 . S
C3700 C3699 1.524 . S
C3700 C3701 1.415 . S
C3701 H3671 0.950 . S
C3701 C3696 1.363 . S
C3701 C3700 1.415 . S
H3702 C3699 0.999 . S
H3703 C3684 0.913 . S
H3704 C3722 0.951 . S
H3705 C3724 0.951 . S
H3706 C3726 0.950 . S
H3707 C3727 0.950 . S
H3708 C3729 0.950 . S
H3709 C3732 0.950 . S
H3710 C3733 0.950 . S
H3711 C3735 0.950 . S
H3712 C3736 0.950 . S
H3713 C3737 0.951 . S
H3714 C3739 0.951 . S
H3715 C3741 0.950 . S
H3716 C3742 0.950 . S
H3717 C3744 0.950 . S
H3718 C3747 0.950 . S
H3719 C3748 0.950 . S
H3720 C3750 0.950 . S
H3721 C3751 0.950 . S
C3722 H3704 0.951 . S
C3722 C3723 1.366 . S
C3722 C3724 1.388 . S
C3723 C3722 1.366 . S
C3723 C3727 1.385 . S
C3724 H3705 0.951 . S
C3724 C3722 1.388 . S
C3724 C3725 1.366 . S
C3725 C3724 1.366 . S
C3725 C3726 1.414 . S
C3725 C3728 1.499 . S
C3726 H3706 0.950 . S
C3726 C3725 1.414 . S
C3726 C3727 1.374 . S
C3727 H3707 0.950 . S
C3727 C3723 1.385 . S
C3727 C3726 1.374 . S
C3728 C3725 1.499 . S
C3728 C3729 1.373 . S
C3728 C3730 1.389 . S
C3729 H3708 0.950 . S
C3729 C3728 1.373 . S
C3729 C3745 1.377 . S
C3730 C3728 1.389 . S
C3730 C3731 1.524 . S
C3730 C3744 1.377 . S
C3731 C3730 1.524 . S
C3731 C3732 1.397 . S
C3731 C3736 1.363 . S
C3732 H3709 0.950 . S
C3732 C3731 1.397 . S
C3732 C3733 1.334 . S
C3733 H3710 0.950 . S
C3733 C3732 1.334 . S
C3733 C3734 1.287 . S
C3734 C3733 1.287 . S
C3734 C3735 1.524 . S
C3734 H3753 0.913 . S
C3735 H3711 0.950 . S
C3735 C3734 1.524 . S
C3735 C3736 1.415 . S
C3736 H3712 0.950 . S
C3736 C3731 1.363 . S
C3736 C3735 1.415 . S
C3737 H3713 0.951 . S
C3737 C3738 1.366 . S
C3737 C3739 1.388 . S
C3738 C3737 1.366 . S
C3738 C3742 1.385 . S
C3739 H3714 0.951 . S
C3739 C3737 1.388 . S
C3739 C3740 1.366 . S
C3740 C3739 1.366 . S
C3740 C3741 1.414 . S
C3740 C3743 1.499 . S
C3741 H3715 0.950 . S
C3741 C3740 1.414 . S
C3741 C3742 1.374 . S
C3742 H3716 0.950 . S
C3742 C3738 1.385 . S
C3742 C3741 1.374 . S
C3743 C3740 1.499 . S
C3743 C3744 1.373 . S
C3743 C3745 1.389 . S
C3744 H3717 0.950 . S
C3744 C3730 1.377 . S
C3744 C3743 1.373 . S
C3745 C3729 1.377 . S
C3745 C3743 1.389 . S
C3745 C3746 1.524 . S
C3746 C3745 1.524 . S
C3746 C3747 1.397 . S
C3746 C3751 1.363 . S
C3747 H3718 0.950 . S
C3747 C3746 1.397 . S
C3747 C3748 1.334 . S
C3748 H3719 0.950 . S
C3748 C3747 1.334 . S
C3748 C3749 1.287 . S
C3749 C3748 1.287 . S
C3749 C3750 1.524 . S
C3749 H3752 0.999 . S
C3750 H3720 0.950 . S
C3750 C3749 1.524 . S
C3750 C3751 1.415 . S
C3751 H3721 0.950 . S
C3751 C3746 1.363 . S
C3751 C3750 1.415 . S
H3752 C3749 0.999 . S
H3753 C3734 0.913 . S
H3754 C3772 0.951 . S
H3755 C3774 0.951 . S
H3756 C3776 0.950 . S
H3757 C3777 0.950 . S
H3758 C3779 0.950 . S
H3759 C3782 0.950 . S
H3760 C3783 0.950 . S
H3761 C3785 0.950 . S
H3762 C3786 0.950 . S
H3763 C3787 0.951 . S
H3764 C3789 0.951 . S
H3765 C3791 0.950 . S
H3766 C3792 0.950 . S
H3767 C3794 0.950 . S
H3768 C3797 0.950 . S
H3769 C3798 0.950 . S
H3770 C3800 0.950 . S
H3771 C3801 0.950 . S
C3772 H3754 0.951 . S
C3772 C3773 1.366 . S
C3772 C3774 1.388 . S
C3773 C3772 1.366 . S
C3773 C3777 1.385 . S
C3774 H3755 0.951 . S
C3774 C3772 1.388 . S
C3774 C3775 1.366 . S
C3775 C3774 1.366 . S
C3775 C3776 1.414 . S
C3775 C3778 1.499 . S
C3776 H3756 0.950 . S
C3776 C3775 1.414 . S
C3776 C3777 1.374 . S
C3777 H3757 0.950 . S
C3777 C3773 1.385 . S
C3777 C3776 1.374 . S
C3778 C3775 1.499 . S
C3778 C3779 1.373 . S
C3778 C3780 1.389 . S
C3779 H3758 0.950 . S
C3779 C3778 1.373 . S
C3779 C3795 1.377 . S
C3780 C3778 1.389 . S
C3780 C3781 1.524 . S
C3780 C3794 1.377 . S
C3781 C3780 1.524 . S
C3781 C3782 1.397 . S
C3781 C3786 1.363 . S
C3782 H3759 0.950 . S
C3782 C3781 1.397 . S
C3782 C3783 1.334 . S
C3783 H3760 0.950 . S
C3783 C3782 1.334 . S
C3783 C3784 1.287 . S
C3784 C3783 1.287 . S
C3784 C3785 1.524 . S
C3784 H3803 0.913 . S
C3785 H3761 0.950 . S
C3785 C3784 1.524 . S
C3785 C3786 1.415 . S
C3786 H3762 0.950 . S
C3786 C3781 1.363 . S
C3786 C3785 1.415 . S
C3787 H3763 0.951 . S
C3787 C3788 1.366 . S
C3787 C3789 1.388 . S
C3788 C3787 1.366 . S
C3788 C3792 1.385 . S
C3789 H3764 0.951 . S
C3789 C3787 1.388 . S
C3789 C3790 1.366 . S
C3790 C3789 1.366 . S
C3790 C3791 1.414 . S
C3790 C3793 1.499 . S
C3791 H3765 0.950 . S
C3791 C3790 1.414 . S
C3791 C3792 1.374 . S
C3792 H3766 0.950 . S
C3792 C3788 1.385 . S
C3792 C3791 1.374 . S
C3793 C3790 1.499 . S
C3793 C3794 1.373 . S
C3793 C3795 1.389 . S
C3794 H3767 0.950 . S
C3794 C3780 1.377 . S
C3794 C3793 1.373 . S
C3795 C3779 1.377 . S
C3795 C3793 1.389 . S
C3795 C3796 1.524 . S
C3796 C3795 1.524 . S
C3796 C3797 1.397 . S
C3796 C3801 1.363 . S
C3797 H3768 0.950 . S
C3797 C3796 1.397 . S
C3797 C3798 1.334 . S
C3798 H3769 0.950 . S
C3798 C3797 1.334 . S
C3798 C3799 1.287 . S
C3799 C3798 1.287 . S
C3799 C3800 1.524 . S
C3799 H3802 0.999 . S
C3800 H3770 0.950 . S
C3800 C3799 1.524 . S
C3800 C3801 1.415 . S
C3801 H3771 0.950 . S
C3801 C3796 1.363 . S
C3801 C3800 1.415 . S
H3802 C3799 0.999 . S
H3803 C3784 0.913 . S
H3804 C3822 0.951 . S
H3805 C3824 0.951 . S
H3806 C3826 0.950 . S
H3807 C3827 0.950 . S
H3808 C3829 0.950 . S
H3809 C3832 0.950 . S
H3810 C3833 0.950 . S
H3811 C3835 0.950 . S
H3812 C3836 0.950 . S
H3813 C3837 0.951 . S
H3814 C3839 0.951 . S
H3815 C3841 0.950 . S
H3816 C3842 0.950 . S
H3817 C3844 0.950 . S
H3818 C3847 0.950 . S
H3819 C3848 0.950 . S
H3820 C3850 0.950 . S
H3821 C3851 0.950 . S
C3822 H3804 0.951 . S
C3822 C3823 1.366 . S
C3822 C3824 1.388 . S
C3823 C3822 1.366 . S
C3823 C3827 1.385 . S
C3824 H3805 0.951 . S
C3824 C3822 1.388 . S
C3824 C3825 1.366 . S
C3825 C3824 1.366 . S
C3825 C3826 1.414 . S
C3825 C3828 1.499 . S
C3826 H3806 0.950 . S
C3826 C3825 1.414 . S
C3826 C3827 1.374 . S
C3827 H3807 0.950 . S
C3827 C3823 1.385 . S
C3827 C3826 1.374 . S
C3828 C3825 1.499 . S
C3828 C3829 1.373 . S
C3828 C3830 1.389 . S
C3829 H3808 0.950 . S
C3829 C3828 1.373 . S
C3829 C3845 1.377 . S
C3830 C3828 1.389 . S
C3830 C3831 1.524 . S
C3830 C3844 1.377 . S
C3831 C3830 1.524 . S
C3831 C3832 1.397 . S
C3831 C3836 1.363 . S
C3832 H3809 0.950 . S
C3832 C3831 1.397 . S
C3832 C3833 1.334 . S
C3833 H3810 0.950 . S
C3833 C3832 1.334 . S
C3833 C3834 1.287 . S
C3834 C3833 1.287 . S
C3834 C3835 1.524 . S
C3834 H3853 0.913 . S
C3835 H3811 0.950 . S
C3835 C3834 1.524 . S
C3835 C3836 1.415 . S
C3836 H3812 0.950 . S
C3836 C3831 1.363 . S
C3836 C3835 1.415 . S
C3837 H3813 0.951 . S
C3837 C3838 1.366 . S
C3837 C3839 1.388 . S
C3838 C3837 1.366 . S
C3838 C3842 1.385 . S
C3839 H3814 0.951 . S
C3839 C3837 1.388 . S
C3839 C3840 1.366 . S
C3840 C3839 1.366 . S
C3840 C3841 1.414 . S
C3840 C3843 1.499 . S
C3841 H3815 0.950 . S
C3841 C3840 1.414 . S
C3841 C3842 1.374 . S
C3842 H3816 0.950 . S
C3842 C3838 1.385 . S
C3842 C3841 1.374 . S
C3843 C3840 1.499 . S
C3843 C3844 1.373 . S
C3843 C3845 1.389 . S
C3844 H3817 0.950 . S
C3844 C3830 1.377 . S
C3844 C3843 1.373 . S
C3845 C3829 1.377 . S
C3845 C3843 1.389 . S
C3845 C3846 1.524 . S
C3846 C3845 1.524 . S
C3846 C3847 1.397 . S
C3846 C3851 1.363 . S
C3847 H3818 0.950 . S
C3847 C3846 1.397 . S
C3847 C3848 1.334 . S
C3848 H3819 0.950 . S
C3848 C3847 1.334 . S
C3848 C3849 1.287 . S
C3849 C3848 1.287 . S
C3849 C3850 1.524 . S
C3849 H3852 0.999 . S
C3850 H3820 0.950 . S
C3850 C3849 1.524 . S
C3850 C3851 1.415 . S
C3851 H3821 0.950 . S
C3851 C3846 1.363 . S
C3851 C3850 1.415 . S
H3852 C3849 0.999 . S
H3853 C3834 0.913 . S
H3854 C3872 0.951 . S
H3855 C3874 0.951 . S
H3856 C3876 0.950 . S
H3857 C3877 0.950 . S
H3858 C3879 0.950 . S
H3859 C3882 0.950 . S
H3860 C3883 0.950 . S
H3861 C3885 0.950 . S
H3862 C3886 0.950 . S
H3863 C3887 0.951 . S
H3864 C3889 0.951 . S
H3865 C3891 0.950 . S
H3866 C3892 0.950 . S
H3867 C3894 0.950 . S
H3868 C3897 0.950 . S
H3869 C3898 0.950 . S
H3870 C3900 0.950 . S
H3871 C3901 0.950 . S
C3872 H3854 0.951 . S
C3872 C3873 1.366 . S
C3872 C3874 1.388 . S
C3873 C3872 1.366 . S
C3873 C3877 1.385 . S
C3874 H3855 0.951 . S
C3874 C3872 1.388 . S
C3874 C3875 1.366 . S
C3875 C3874 1.366 . S
C3875 C3876 1.414 . S
C3875 C3878 1.499 . S
C3876 H3856 0.950 . S
C3876 C3875 1.414 . S
C3876 C3877 1.374 . S
C3877 H3857 0.950 . S
C3877 C3873 1.385 . S
C3877 C3876 1.374 . S
C3878 C3875 1.499 . S
C3878 C3879 1.373 . S
C3878 C3880 1.389 . S
C3879 H3858 0.950 . S
C3879 C3878 1.373 . S
C3879 C3895 1.377 . S
C3880 C3878 1.389 . S
C3880 C3881 1.524 . S
C3880 C3894 1.377 . S
C3881 C3880 1.524 . S
C3881 C3882 1.397 . S
C3881 C3886 1.363 . S
C3882 H3859 0.950 . S
C3882 C3881 1.397 . S
C3882 C3883 1.334 . S
C3883 H3860 0.950 . S
C3883 C3882 1.334 . S
C3883 C3884 1.287 . S
C3884 C3883 1.287 . S
C3884 C3885 1.524 . S
C3884 H3903 0.913 . S
C3885 H3861 0.950 . S
C3885 C3884 1.524 . S
C3885 C3886 1.415 . S
C3886 H3862 0.950 . S
C3886 C3881 1.363 . S
C3886 C3885 1.415 . S
C3887 H3863 0.951 . S
C3887 C3888 1.366 . S
C3887 C3889 1.388 . S
C3888 C3887 1.366 . S
C3888 C3892 1.385 . S
C3889 H3864 0.951 . S
C3889 C3887 1.388 . S
C3889 C3890 1.366 . S
C3890 C3889 1.366 . S
C3890 C3891 1.414 . S
C3890 C3893 1.499 . S
C3891 H3865 0.950 . S
C3891 C3890 1.414 . S
C3891 C3892 1.374 . S
C3892 H3866 0.950 . S
C3892 C3888 1.385 . S
C3892 C3891 1.374 . S
C3893 C3890 1.499 . S
C3893 C3894 1.373 . S
C3893 C3895 1.389 . S
C3894 H3867 0.950 . S
C3894 C3880 1.377 . S
C3894 C3893 1.373 . S
C3895 C3879 1.377 . S
C3895 C3893 1.389 . S
C3895 C3896 1.524 . S
C3896 C3895 1.524 . S
C3896 C3897 1.397 . S
C3896 C3901 1.363 . S
C3897 H3868 0.950 . S
C3897 C3896 1.397 . S
C3897 C3898 1.334 . S
C3898 H3869 0.950 . S
C3898 C3897 1.334 . S
C3898 C3899 1.287 . S
C3899 C3898 1.287 . S
C3899 C3900 1.524 . S
C3899 H3902 0.999 . S
C3900 H3870 0.950 . S
C3900 C3899 1.524 . S
C3900 C3901 1.415 . S
C3901 H3871 0.950 . S
C3901 C3896 1.363 . S
C3901 C3900 1.415 . S
H3902 C3899 0.999 . S
H3903 C3884 0.913 . S
H3904 C3922 0.951 . S
H3905 C3924 0.951 . S
H3906 C3926 0.950 . S
H3907 C3927 0.950 . S
H3908 C3929 0.950 . S
H3909 C3932 0.950 . S
H3910 C3933 0.950 . S
H3911 C3935 0.950 . S
H3912 C3936 0.950 . S
H3913 C3937 0.951 . S
H3914 C3939 0.951 . S
H3915 C3941 0.950 . S
H3916 C3942 0.950 . S
H3917 C3944 0.950 . S
H3918 C3947 0.950 . S
H3919 C3948 0.950 . S
H3920 C3950 0.950 . S
H3921 C3951 0.950 . S
C3922 H3904 0.951 . S
C3922 C3923 1.366 . S
C3922 C3924 1.388 . S
C3923 C3922 1.366 . S
C3923 C3927 1.385 . S
C3924 H3905 0.951 . S
C3924 C3922 1.388 . S
C3924 C3925 1.366 . S
C3925 C3924 1.366 . S
C3925 C3926 1.414 . S
C3925 C3928 1.499 . S
C3926 H3906 0.950 . S
C3926 C3925 1.414 . S
C3926 C3927 1.374 . S
C3927 H3907 0.950 . S
C3927 C3923 1.385 . S
C3927 C3926 1.374 . S
C3928 C3925 1.499 . S
C3928 C3929 1.373 . S
C3928 C3930 1.389 . S
C3929 H3908 0.950 . S
C3929 C3928 1.373 . S
C3929 C3945 1.377 . S
C3930 C3928 1.389 . S
C3930 C3931 1.524 . S
C3930 C3944 1.377 . S
C3931 C3930 1.524 . S
C3931 C3932 1.397 . S
C3931 C3936 1.363 . S
C3932 H3909 0.950 . S
C3932 C3931 1.397 . S
C3932 C3933 1.334 . S
C3933 H3910 0.950 . S
C3933 C3932 1.334 . S
C3933 C3934 1.287 . S
C3934 C3933 1.287 . S
C3934 C3935 1.524 . S
C3934 H3953 0.913 . S
C3935 H3911 0.950 . S
C3935 C3934 1.524 . S
C3935 C3936 1.415 . S
C3936 H3912 0.950 . S
C3936 C3931 1.363 . S
C3936 C3935 1.415 . S
C3937 H3913 0.951 . S
C3937 C3938 1.366 . S
C3937 C3939 1.388 . S
C3938 C3937 1.366 . S
C3938 C3942 1.385 . S
C3939 H3914 0.951 . S
C3939 C3937 1.388 . S
C3939 C3940 1.366 . S
C3940 C3939 1.366 . S
C3940 C3941 1.414 . S
C3940 C3943 1.499 . S
C3941 H3915 0.950 . S
C3941 C3940 1.414 . S
C3941 C3942 1.374 . S
C3942 H3916 0.950 . S
C3942 C3938 1.385 . S
C3942 C3941 1.374 . S
C3943 C3940 1.499 . S
C3943 C3944 1.373 . S
C3943 C3945 1.389 . S
C3944 H3917 0.950 . S
C3944 C3930 1.377 . S
C3944 C3943 1.373 . S
C3945 C3929 1.377 . S
C3945 C3943 1.389 . S
C3945 C3946 1.524 . S
C3946 C3945 1.524 . S
C3946 C3947 1.397 . S
C3946 C3951 1.363 . S
C3947 H3918 0.950 . S
C3947 C3946 1.397 . S
C3947 C3948 1.334 . S
C3948 H3919 0.950 . S
C3948 C3947 1.334 . S
C3948 C3949 1.287 . S
C3949 C3948 1.287 . S
C3949 C3950 1.524 . S
C3949 H3952 0.999 . S
C3950 H3920 0.950 . S
C3950 C3949 1.524 . S
C3950 C3951 1.415 . S
C3951 H3921 0.950 . S
C3951 C3946 1.363 . S
C3951 C3950 1.415 . S
H3952 C3949 0.999 . S
H3953 C3934 0.913 . S
H3954 C3972 0.951 . S
H3955 C3974 0.951 . S
H3956 C3976 0.950 . S
H3957 C3977 0.950 . S
H3958 C3979 0.950 . S
H3959 C3982 0.950 . S
H3960 C3983 0.950 . S
H3961 C3985 0.950 . S
H3962 C3986 0.950 . S
H3963 C3987 0.951 . S
H3964 C3989 0.951 . S
H3965 C3991 0.950 . S
H3966 C3992 0.950 . S
H3967 C3994 0.950 . S
H3968 C3997 0.950 . S
H3969 C3998 0.950 . S
H3970 C4000 0.950 . S
H3971 C4001 0.950 . S
C3972 H3954 0.951 . S
C3972 C3973 1.366 . S
C3972 C3974 1.388 . S
C3973 C3972 1.366 . S
C3973 C3977 1.385 . S
C3974 H3955 0.951 . S
C3974 C3972 1.388 . S
C3974 C3975 1.366 . S
C3975 C3974 1.366 . S
C3975 C3976 1.414 . S
C3975 C3978 1.499 . S
C3976 H3956 0.950 . S
C3976 C3975 1.414 . S
C3976 C3977 1.374 . S
C3977 H3957 0.950 . S
C3977 C3973 1.385 . S
C3977 C3976 1.374 . S
C3978 C3975 1.499 . S
C3978 C3979 1.373 . S
C3978 C3980 1.389 . S
C3979 H3958 0.950 . S
C3979 C3978 1.373 . S
C3979 C3995 1.377 . S
C3980 C3978 1.389 . S
C3980 C3981 1.524 . S
C3980 C3994 1.377 . S
C3981 C3980 1.524 . S
C3981 C3982 1.397 . S
C3981 C3986 1.363 . S
C3982 H3959 0.950 . S
C3982 C3981 1.397 . S
C3982 C3983 1.334 . S
C3983 H3960 0.950 . S
C3983 C3982 1.334 . S
C3983 C3984 1.287 . S
C3984 C3983 1.287 . S
C3984 C3985 1.524 . S
C3984 H4003 0.913 . S
C3985 H3961 0.950 . S
C3985 C3984 1.524 . S
C3985 C3986 1.415 . S
C3986 H3962 0.950 . S
C3986 C3981 1.363 . S
C3986 C3985 1.415 . S
C3987 H3963 0.951 . S
C3987 C3988 1.366 . S
C3987 C3989 1.388 . S
C3988 C3987 1.366 . S
C3988 C3992 1.385 . S
C3989 H3964 0.951 . S
C3989 C3987 1.388 . S
C3989 C3990 1.366 . S
C3990 C3989 1.366 . S
C3990 C3991 1.414 . S
C3990 C3993 1.499 . S
C3991 H3965 0.950 . S
C3991 C3990 1.414 . S
C3991 C3992 1.374 . S
C3992 H3966 0.950 . S
C3992 C3988 1.385 . S
C3992 C3991 1.374 . S
C3993 C3990 1.499 . S
C3993 C3994 1.373 . S
C3993 C3995 1.389 . S
C3994 H3967 0.950 . S
C3994 C3980 1.377 . S
C3994 C3993 1.373 . S
C3995 C3979 1.377 . S
C3995 C3993 1.389 . S
C3995 C3996 1.524 . S
C3996 C3995 1.524 . S
C3996 C3997 1.397 . S
C3996 C4001 1.363 . S
C3997 H3968 0.950 . S
C3997 C3996 1.397 . S
C3997 C3998 1.334 . S
C3998 H3969 0.950 . S
C3998 C3997 1.334 . S
C3998 C3999 1.287 . S
C3999 C3998 1.287 . S
C3999 C4000 1.524 . S
C3999 H4002 0.999 . S
C4000 H3970 0.950 . S
C4000 C3999 1.524 . S
C4000 C4001 1.415 . S
C4001 H3971 0.950 . S
C4001 C3996 1.363 . S
C4001 C4000 1.415 . S
H4002 C3999 0.999 . S
H4003 C3984 0.913 . S
H4004 C4022 0.951 . S
H4005 C4024 0.951 . S
H4006 C4026 0.950 . S
H4007 C4027 0.950 . S
H4008 C4029 0.950 . S
H4009 C4032 0.950 . S
H4010 C4033 0.950 . S
H4011 C4035 0.950 . S
H4012 C4036 0.950 . S
H4013 C4037 0.951 . S
H4014 C4039 0.951 . S
H4015 C4041 0.950 . S
H4016 C4042 0.950 . S
H4017 C4044 0.950 . S
H4018 C4047 0.950 . S
H4019 C4048 0.950 . S
H4020 C4050 0.950 . S
H4021 C4051 0.950 . S
C4022 H4004 0.951 . S
C4022 C4023 1.366 . S
C4022 C4024 1.388 . S
C4023 C4022 1.366 . S
C4023 C4027 1.385 . S
C4024 H4005 0.951 . S
C4024 C4022 1.388 . S
C4024 C4025 1.366 . S
C4025 C4024 1.366 . S
C4025 C4026 1.414 . S
C4025 C4028 1.499 . S
C4026 H4006 0.950 . S
C4026 C4025 1.414 . S
C4026 C4027 1.374 . S
C4027 H4007 0.950 . S
C4027 C4023 1.385 . S
C4027 C4026 1.374 . S
C4028 C4025 1.499 . S
C4028 C4029 1.373 . S
C4028 C4030 1.389 . S
C4029 H4008 0.950 . S
C4029 C4028 1.373 . S
C4029 C4045 1.377 . S
C4030 C4028 1.389 . S
C4030 C4031 1.524 . S
C4030 C4044 1.377 . S
C4031 C4030 1.524 . S
C4031 C4032 1.397 . S
C4031 C4036 1.363 . S
C4032 H4009 0.950 . S
C4032 C4031 1.397 . S
C4032 C4033 1.334 . S
C4033 H4010 0.950 . S
C4033 C4032 1.334 . S
C4033 C4034 1.287 . S
C4034 C4033 1.287 . S
C4034 C4035 1.524 . S
C4034 H4053 0.913 . S
C4035 H4011 0.950 . S
C4035 C4034 1.524 . S
C4035 C4036 1.415 . S
C4036 H4012 0.950 . S
C4036 C4031 1.363 . S
C4036 C4035 1.415 . S
C4037 H4013 0.951 . S
C4037 C4038 1.366 . S
C4037 C4039 1.388 . S
C4038 C4037 1.366 . S
C4038 C4042 1.385 . S
C4039 H4014 0.951 . S
C4039 C4037 1.388 . S
C4039 C4040 1.366 . S
C4040 C4039 1.366 . S
C4040 C4041 1.414 . S
C4040 C4043 1.499 . S
C4041 H4015 0.950 . S
C4041 C4040 1.414 . S
C4041 C4042 1.374 . S
C4042 H4016 0.950 . S
C4042 C4038 1.385 . S
C4042 C4041 1.374 . S
C4043 C4040 1.499 . S
C4043 C4044 1.373 . S
C4043 C4045 1.389 . S
C4044 H4017 0.950 . S
C4044 C4030 1.377 . S
C4044 C4043 1.373 . S
C4045 C4029 1.377 . S
C4045 C4043 1.389 . S
C4045 C4046 1.524 . S
C4046 C4045 1.524 . S
C4046 C4047 1.397 . S
C4046 C4051 1.363 . S
C4047 H4018 0.950 . S
C4047 C4046 1.397 . S
C4047 C4048 1.334 . S
C4048 H4019 0.950 . S
C4048 C4047 1.334 . S
C4048 C4049 1.287 . S
C4049 C4048 1.287 . S
C4049 C4050 1.524 . S
C4049 H4052 0.999 . S
C4050 H4020 0.950 . S
C4050 C4049 1.524 . S
C4050 C4051 1.415 . S
C4051 H4021 0.950 . S
C4051 C4046 1.363 . S
C4051 C4050 1.415 . S
H4052 C4049 0.999 . S
H4053 C4034 0.913 . S
H4054 C4072 0.951 . S
H4055 C4074 0.951 . S
H4056 C4076 0.950 . S
H4057 C4077 0.950 . S
H4058 C4079 0.950 . S
H4059 C4082 0.950 . S
H4060 C4083 0.950 . S
H4061 C4085 0.950 . S
H4062 C4086 0.950 . S
H4063 C4087 0.951 . S
H4064 C4089 0.951 . S
H4065 C4091 0.950 . S
H4066 C4092 0.950 . S
H4067 C4094 0.950 . S
H4068 C4097 0.950 . S
H4069 C4098 0.950 . S
H4070 C4100 0.950 . S
H4071 C4101 0.950 . S
C4072 H4054 0.951 . S
C4072 C4073 1.366 . S
C4072 C4074 1.388 . S
C4073 C4072 1.366 . S
C4073 C4077 1.385 . S
C4074 H4055 0.951 . S
C4074 C4072 1.388 . S
C4074 C4075 1.366 . S
C4075 C4074 1.366 . S
C4075 C4076 1.414 . S
C4075 C4078 1.499 . S
C4076 H4056 0.950 . S
C4076 C4075 1.414 . S
C4076 C4077 1.374 . S
C4077 H4057 0.950 . S
C4077 C4073 1.385 . S
C4077 C4076 1.374 . S
C4078 C4075 1.499 . S
C4078 C4079 1.373 . S
C4078 C4080 1.389 . S
C4079 H4058 0.950 . S
C4079 C4078 1.373 . S
C4079 C4095 1.377 . S
C4080 C4078 1.389 . S
C4080 C4081 1.524 . S
C4080 C4094 1.377 . S
C4081 C4080 1.524 . S
C4081 C4082 1.397 . S
C4081 C4086 1.363 . S
C4082 H4059 0.950 . S
C4082 C4081 1.397 . S
C4082 C4083 1.334 . S
C4083 H4060 0.950 . S
C4083 C4082 1.334 . S
C4083 C4084 1.287 . S
C4084 C4083 1.287 . S
C4084 C4085 1.524 . S
C4084 H4103 0.913 1_545 S
C4085 H4061 0.950 . S
C4085 C4084 1.524 . S
C4085 C4086 1.415 . S
C4086 H4062 0.950 . S
C4086 C4081 1.363 . S
C4086 C4085 1.415 . S
C4087 H4063 0.951 . S
C4087 C4088 1.366 . S
C4087 C4089 1.388 . S
C4088 C4087 1.366 . S
C4088 C4092 1.385 . S
C4089 H4064 0.951 . S
C4089 C4087 1.388 . S
C4089 C4090 1.366 . S
C4090 C4089 1.366 . S
C4090 C4091 1.414 . S
C4090 C4093 1.499 . S
C4091 H4065 0.950 . S
C4091 C4090 1.414 . S
C4091 C4092 1.374 . S
C4092 H4066 0.950 . S
C4092 C4088 1.385 . S
C4092 C4091 1.374 . S
C4093 C4090 1.499 . S
C4093 C4094 1.373 . S
C4093 C4095 1.389 . S
C4094 H4067 0.950 . S
C4094 C4080 1.377 . S
C4094 C4093 1.373 . S
C4095 C4079 1.377 . S
C4095 C4093 1.389 . S
C4095 C4096 1.524 . S
C4096 C4095 1.524 . S
C4096 C4097 1.397 . S
C4096 C4101 1.363 . S
C4097 H4068 0.950 . S
C4097 C4096 1.397 . S
C4097 C4098 1.334 . S
C4098 H4069 0.950 . S
C4098 C4097 1.334 . S
C4098 C4099 1.287 . S
C4099 C4098 1.287 . S
C4099 C4100 1.524 . S
C4099 H4102 0.999 . S
C4100 H4070 0.950 . S
C4100 C4099 1.524 . S
C4100 C4101 1.415 . S
C4101 H4071 0.950 . S
C4101 C4096 1.363 . S
C4101 C4100 1.415 . S
H4102 C4099 0.999 . S
H4103 C4084 0.913 1_565 S
H4104 C4122 0.951 . S
H4105 C4124 0.951 . S
H4106 C4126 0.950 . S
H4107 C4127 0.950 . S
H4108 C4129 0.950 . S
H4109 C4132 0.950 . S
H4110 C4133 0.950 . S
H4111 C4135 0.950 . S
H4112 C4136 0.950 . S
H4113 C4137 0.951 . S
H4114 C4139 0.951 . S
H4115 C4141 0.950 . S
H4116 C4142 0.950 . S
H4117 C4144 0.950 . S
H4118 C4147 0.950 . S
H4119 C4148 0.950 . S
H4120 C4150 0.950 . S
H4121 C4151 0.950 . S
C4122 H4104 0.951 . S
C4122 C4123 1.366 . S
C4122 C4124 1.388 . S
C4123 C4122 1.366 . S
C4123 C4127 1.385 . S
C4124 H4105 0.951 . S
C4124 C4122 1.388 . S
C4124 C4125 1.366 . S
C4125 C4124 1.366 . S
C4125 C4126 1.414 . S
C4125 C4128 1.499 . S
C4126 H4106 0.950 . S
C4126 C4125 1.414 . S
C4126 C4127 1.374 . S
C4127 H4107 0.950 . S
C4127 C4123 1.385 . S
C4127 C4126 1.374 . S
C4128 C4125 1.499 . S
C4128 C4129 1.373 . S
C4128 C4130 1.389 . S
C4129 H4108 0.950 . S
C4129 C4128 1.373 . S
C4129 C4145 1.377 . S
C4130 C4128 1.389 . S
C4130 C4131 1.524 . S
C4130 C4144 1.377 . S
C4131 C4130 1.524 . S
C4131 C4132 1.397 . S
C4131 C4136 1.363 . S
C4132 H4109 0.950 . S
C4132 C4131 1.397 . S
C4132 C4133 1.334 . S
C4133 H4110 0.950 . S
C4133 C4132 1.334 . S
C4133 C4134 1.287 . S
C4134 C4133 1.287 . S
C4134 C4135 1.524 . S
C4134 H4153 0.913 . S
C4135 H4111 0.950 . S
C4135 C4134 1.524 . S
C4135 C4136 1.415 . S
C4136 H4112 0.950 . S
C4136 C4131 1.363 . S
C4136 C4135 1.415 . S
C4137 H4113 0.951 . S
C4137 C4138 1.366 . S
C4137 C4139 1.388 . S
C4138 C4137 1.366 . S
C4138 C4142 1.385 . S
C4139 H4114 0.951 . S
C4139 C4137 1.388 . S
C4139 C4140 1.366 . S
C4140 C4139 1.366 . S
C4140 C4141 1.414 . S
C4140 C4143 1.499 . S
C4141 H4115 0.950 . S
C4141 C4140 1.414 . S
C4141 C4142 1.374 . S
C4142 H4116 0.950 . S
C4142 C4138 1.385 . S
C4142 C4141 1.374 . S
C4143 C4140 1.499 . S
C4143 C4144 1.373 . S
C4143 C4145 1.389 . S
C4144 H4117 0.950 . S
C4144 C4130 1.377 . S
C4144 C4143 1.373 . S
C4145 C4129 1.377 . S
C4145 C4143 1.389 . S
C4145 C4146 1.524 . S
C4146 C4145 1.524 . S
C4146 C4147 1.397 . S
C4146 C4151 1.363 . S
C4147 H4118 0.950 . S
C4147 C4146 1.397 . S
C4147 C4148 1.334 . S
C4148 H4119 0.950 . S
C4148 C4147 1.334 . S
C4148 C4149 1.287 . S
C4149 C4148 1.287 . S
C4149 C4150 1.524 . S
C4149 H4152 0.999 . S
C4150 H4120 0.950 . S
C4150 C4149 1.524 . S
C4150 C4151 1.415 . S
C4151 H4121 0.950 . S
C4151 C4146 1.363 . S
C4151 C4150 1.415 . S
H4152 C4149 0.999 . S
H4153 C4134 0.913 . S
H4154 C4172 0.951 . S
H4155 C4174 0.951 . S
H4156 C4176 0.950 . S
H4157 C4177 0.950 . S
H4158 C4179 0.950 . S
H4159 C4182 0.950 . S
H4160 C4183 0.950 . S
H4161 C4185 0.950 . S
H4162 C4186 0.950 . S
H4163 C4187 0.951 . S
H4164 C4189 0.951 . S
H4165 C4191 0.950 . S
H4166 C4192 0.950 . S
H4167 C4194 0.950 . S
H4168 C4197 0.950 . S
H4169 C4198 0.950 . S
H4170 C4200 0.950 . S
H4171 C4201 0.950 . S
C4172 H4154 0.951 . S
C4172 C4173 1.366 . S
C4172 C4174 1.388 . S
C4173 C4172 1.366 . S
C4173 C4177 1.385 . S
C4174 H4155 0.951 . S
C4174 C4172 1.388 . S
C4174 C4175 1.366 . S
C4175 C4174 1.366 . S
C4175 C4176 1.414 . S
C4175 C4178 1.499 . S
C4176 H4156 0.950 . S
C4176 C4175 1.414 . S
C4176 C4177 1.374 . S
C4177 H4157 0.950 . S
C4177 C4173 1.385 . S
C4177 C4176 1.374 . S
C4178 C4175 1.499 . S
C4178 C4179 1.373 . S
C4178 C4180 1.389 . S
C4179 H4158 0.950 . S
C4179 C4178 1.373 . S
C4179 C4195 1.377 . S
C4180 C4178 1.389 . S
C4180 C4181 1.524 . S
C4180 C4194 1.377 . S
C4181 C4180 1.524 . S
C4181 C4182 1.397 . S
C4181 C4186 1.363 . S
C4182 H4159 0.950 . S
C4182 C4181 1.397 . S
C4182 C4183 1.334 . S
C4183 H4160 0.950 . S
C4183 C4182 1.334 . S
C4183 C4184 1.287 . S
C4184 C4183 1.287 . S
C4184 C4185 1.524 . S
C4184 H4203 0.913 . S
C4185 H4161 0.950 . S
C4185 C4184 1.524 . S
C4185 C4186 1.415 . S
C4186 H4162 0.950 . S
C4186 C4181 1.363 . S
C4186 C4185 1.415 . S
C4187 H4163 0.951 . S
C4187 C4188 1.366 . S
C4187 C4189 1.388 . S
C4188 C4187 1.366 . S
C4188 C4192 1.385 . S
C4189 H4164 0.951 . S
C4189 C4187 1.388 . S
C4189 C4190 1.366 . S
C4190 C4189 1.366 . S
C4190 C4191 1.414 . S
C4190 C4193 1.499 . S
C4191 H4165 0.950 . S
C4191 C4190 1.414 . S
C4191 C4192 1.374 . S
C4192 H4166 0.950 . S
C4192 C4188 1.385 . S
C4192 C4191 1.374 . S
C4193 C4190 1.499 . S
C4193 C4194 1.373 . S
C4193 C4195 1.389 . S
C4194 H4167 0.950 . S
C4194 C4180 1.377 . S
C4194 C4193 1.373 . S
C4195 C4179 1.377 . S
C4195 C4193 1.389 . S
C4195 C4196 1.524 . S
C4196 C4195 1.524 . S
C4196 C4197 1.397 . S
C4196 C4201 1.363 . S
C4197 H4168 0.950 . S
C4197 C4196 1.397 . S
C4197 C4198 1.334 . S
C4198 H4169 0.950 . S
C4198 C4197 1.334 . S
C4198 C4199 1.287 . S
C4199 C4198 1.287 . S
C4199 C4200 1.524 . S
C4199 H4202 0.999 . S
C4200 H4170 0.950 . S
C4200 C4199 1.524 . S
C4200 C4201 1.415 . S
C4201 H4171 0.950 . S
C4201 C4196 1.363 . S
C4201 C4200 1.415 . S
H4202 C4199 0.999 . S
H4203 C4184 0.913 . S
H4204 C4222 0.951 . S
H4205 C4224 0.951 . S
H4206 C4226 0.950 . S
H4207 C4227 0.950 . S
H4208 C4229 0.950 . S
H4209 C4232 0.950 . S
H4210 C4233 0.950 . S
H4211 C4235 0.950 . S
H4212 C4236 0.950 . S
H4213 C4237 0.951 . S
H4214 C4239 0.951 . S
H4215 C4241 0.950 . S
H4216 C4242 0.950 . S
H4217 C4244 0.950 . S
H4218 C4247 0.950 . S
H4219 C4248 0.950 . S
H4220 C4250 0.907 1_545 S
H4221 C4251 0.950 . S
C4222 H4204 0.951 . S
C4222 C4223 1.366 . S
C4222 C4224 1.388 . S
C4223 C4222 1.366 . S
C4223 C4227 1.385 . S
C4224 H4205 0.951 . S
C4224 C4222 1.388 . S
C4224 C4225 1.366 . S
C4225 C4224 1.366 . S
C4225 C4226 1.414 . S
C4225 C4228 1.499 . S
C4226 H4206 0.950 . S
C4226 C4225 1.414 . S
C4226 C4227 1.374 . S
C4227 H4207 0.950 . S
C4227 C4223 1.385 . S
C4227 C4226 1.374 . S
C4228 C4225 1.499 . S
C4228 C4229 1.373 . S
C4228 C4230 1.389 . S
C4229 H4208 0.950 . S
C4229 C4228 1.373 . S
C4229 C4245 1.377 . S
C4230 C4228 1.389 . S
C4230 C4231 1.524 . S
C4230 C4244 1.377 . S
C4231 C4230 1.524 . S
C4231 C4232 1.397 . S
C4231 C4236 1.363 . S
C4232 H4209 0.950 . S
C4232 C4231 1.397 . S
C4232 C4233 1.334 . S
C4233 H4210 0.950 . S
C4233 C4232 1.334 . S
C4233 C4234 1.287 . S
C4234 C4233 1.287 . S
C4234 C4235 1.524 . S
C4234 H4253 0.913 . S
C4235 H4211 0.950 . S
C4235 C4234 1.524 . S
C4235 C4236 1.415 . S
C4236 H4212 0.950 . S
C4236 C4231 1.363 . S
C4236 C4235 1.415 . S
C4237 H4213 0.951 . S
C4237 C4238 1.366 . S
C4237 C4239 1.388 . S
C4238 C4237 1.366 . S
C4238 C4242 1.385 . S
C4239 H4214 0.951 . S
C4239 C4237 1.388 . S
C4239 C4240 1.366 . S
C4240 C4239 1.366 . S
C4240 C4241 1.414 . S
C4240 C4243 1.499 . S
C4241 H4215 0.950 . S
C4241 C4240 1.414 . S
C4241 C4242 1.374 . S
C4242 H4216 0.950 . S
C4242 C4238 1.385 . S
C4242 C4241 1.374 . S
C4243 C4240 1.499 . S
C4243 C4244 1.373 . S
C4243 C4245 1.389 . S
C4244 H4217 0.950 . S
C4244 C4230 1.377 . S
C4244 C4243 1.373 . S
C4245 C4229 1.377 . S
C4245 C4243 1.389 . S
C4245 C4246 1.524 . S
C4246 C4245 1.524 . S
C4246 C4247 1.397 . S
C4246 C4251 1.363 . S
C4247 H4218 0.950 . S
C4247 C4246 1.397 . S
C4247 C4248 1.334 . S
C4248 H4219 0.950 . S
C4248 C4247 1.334 . S
C4248 C4249 1.287 . S
C4249 C4248 1.287 . S
C4249 C4250 1.524 . S
C4249 H4252 0.999 . S
C4250 H4220 0.907 1_565 S
C4250 C4249 1.524 . S
C4250 C4251 1.415 . S
C4251 H4221 0.950 . S
C4251 C4246 1.363 . S
C4251 C4250 1.415 . S
H4252 C4249 0.999 . S
H4253 C4234 0.913 . S
H4254 C4272 0.951 . S
H4255 C4274 0.951 . S
H4256 C4276 0.950 . S
H4257 C4277 0.950 . S
H4258 C4279 0.950 . S
H4259 C4282 0.950 . S
H4260 C4283 0.950 1_554 S
H4261 C4285 0.950 . S
H4262 C4286 0.950 . S
H4263 C4287 0.951 . S
H4264 C4289 0.951 . S
H4265 C4291 0.950 . S
H4266 C4292 0.950 . S
H4267 C4294 0.950 . S
H4268 C4297 0.950 . S
H4269 C4298 0.950 . S
H4270 C4300 0.950 . S
H4271 C4301 0.950 . S
C4272 H4254 0.951 . S
C4272 C4273 1.366 . S
C4272 C4274 1.388 . S
C4273 C4272 1.366 . S
C4273 C4277 1.385 . S
C4274 H4255 0.951 . S
C4274 C4272 1.388 . S
C4274 C4275 1.366 . S
C4275 C4274 1.366 . S
C4275 C4276 1.414 . S
C4275 C4278 1.499 . S
C4276 H4256 0.950 . S
C4276 C4275 1.414 . S
C4276 C4277 1.374 . S
C4277 H4257 0.950 . S
C4277 C4273 1.385 . S
C4277 C4276 1.374 . S
C4278 C4275 1.499 . S
C4278 C4279 1.373 . S
C4278 C4280 1.389 . S
C4279 H4258 0.950 . S
C4279 C4278 1.373 . S
C4279 C4295 1.377 . S
C4280 C4278 1.389 . S
C4280 C4281 1.524 . S
C4280 C4294 1.377 . S
C4281 C4280 1.524 . S
C4281 C4282 1.397 . S
C4281 C4286 1.363 . S
C4282 H4259 0.950 . S
C4282 C4281 1.397 . S
C4282 C4283 1.334 . S
C4283 H4260 0.950 1_556 S
C4283 C4282 1.334 . S
C4283 C4284 1.287 . S
C4284 C4283 1.287 . S
C4284 C4285 1.524 . S
C4284 H4303 0.913 . S
C4285 H4261 0.950 . S
C4285 C4284 1.524 . S
C4285 C4286 1.415 . S
C4286 H4262 0.950 . S
C4286 C4281 1.363 . S
C4286 C4285 1.415 . S
C4287 H4263 0.951 . S
C4287 C4288 1.366 . S
C4287 C4289 1.388 . S
C4288 C4287 1.366 . S
C4288 C4292 1.385 . S
C4289 H4264 0.951 . S
C4289 C4287 1.388 . S
C4289 C4290 1.366 . S
C4290 C4289 1.366 . S
C4290 C4291 1.414 . S
C4290 C4293 1.499 . S
C4291 H4265 0.950 . S
C4291 C4290 1.414 . S
C4291 C4292 1.374 . S
C4292 H4266 0.950 . S
C4292 C4288 1.385 . S
C4292 C4291 1.374 . S
C4293 C4290 1.499 . S
C4293 C4294 1.373 . S
C4293 C4295 1.389 . S
C4294 H4267 0.950 . S
C4294 C4280 1.377 . S
C4294 C4293 1.373 . S
C4295 C4279 1.377 . S
C4295 C4293 1.389 . S
C4295 C4296 1.524 . S
C4296 C4295 1.524 . S
C4296 C4297 1.397 . S
C4296 C4301 1.363 . S
C4297 H4268 0.950 . S
C4297 C4296 1.397 . S
C4297 C4298 1.334 . S
C4298 H4269 0.950 . S
C4298 C4297 1.334 . S
C4298 C4299 1.287 . S
C4299 C4298 1.287 . S
C4299 C4300 1.524 . S
C4299 H4302 0.999 . S
C4300 H4270 0.950 . S
C4300 C4299 1.524 . S
C4300 C4301 1.415 . S
C4301 H4271 0.950 . S
C4301 C4296 1.363 . S
C4301 C4300 1.415 . S
H4302 C4299 0.999 . S
H4303 C4284 0.913 . S
H4304 C4322 0.951 . S
H4305 C4324 0.951 . S
H4306 C4326 0.950 . S
H4307 C4327 0.950 . S
H4308 C4329 0.950 . S
H4309 C4332 0.950 . S
H4310 C4333 0.950 . S
H4311 C4335 0.950 1_554 S
H4312 C4336 0.950 . S
H4313 C4337 0.951 . S
H4314 C4339 0.951 . S
H4315 C4341 0.950 . S
H4316 C4342 0.950 . S
H4317 C4344 0.950 . S
H4318 C4347 0.950 . S
H4319 C4348 0.950 . S
H4320 C4350 0.950 . S
H4321 C4351 0.950 . S
C4322 H4304 0.951 . S
C4322 C4323 1.366 . S
C4322 C4324 1.388 . S
C4323 C4322 1.366 . S
C4323 C4327 1.385 . S
C4324 H4305 0.951 . S
C4324 C4322 1.388 . S
C4324 C4325 1.366 . S
C4325 C4324 1.366 . S
C4325 C4326 1.414 . S
C4325 C4328 1.499 . S
C4326 H4306 0.950 . S
C4326 C4325 1.414 . S
C4326 C4327 1.374 . S
C4327 H4307 0.950 . S
C4327 C4323 1.385 . S
C4327 C4326 1.374 . S
C4328 C4325 1.499 . S
C4328 C4329 1.373 . S
C4328 C4330 1.389 . S
C4329 H4308 0.950 . S
C4329 C4328 1.373 . S
C4329 C4345 1.377 . S
C4330 C4328 1.389 . S
C4330 C4331 1.524 . S
C4330 C4344 1.377 . S
C4331 C4330 1.524 . S
C4331 C4332 1.397 . S
C4331 C4336 1.363 . S
C4332 H4309 0.950 . S
C4332 C4331 1.397 . S
C4332 C4333 1.334 1_556 S
C4333 H4310 0.950 . S
C4333 C4332 1.334 1_554 S
C4333 C4334 1.287 . S
C4334 C4333 1.287 . S
C4334 C4335 1.524 1_554 S
C4334 H4353 0.913 . S
C4335 H4311 0.950 1_556 S
C4335 C4334 1.524 1_556 S
C4335 C4336 1.415 . S
C4336 H4312 0.950 . S
C4336 C4331 1.363 . S
C4336 C4335 1.415 . S
C4337 H4313 0.951 . S
C4337 C4338 1.366 . S
C4337 C4339 1.388 . S
C4338 C4337 1.366 . S
C4338 C4342 1.385 . S
C4339 H4314 0.951 . S
C4339 C4337 1.388 . S
C4339 C4340 1.366 . S
C4340 C4339 1.366 . S
C4340 C4341 1.414 . S
C4340 C4343 1.499 . S
C4341 H4315 0.950 . S
C4341 C4340 1.414 . S
C4341 C4342 1.374 . S
C4342 H4316 0.950 . S
C4342 C4338 1.385 . S
C4342 C4341 1.374 . S
C4343 C4340 1.499 . S
C4343 C4344 1.373 . S
C4343 C4345 1.389 . S
C4344 H4317 0.950 . S
C4344 C4330 1.377 . S
C4344 C4343 1.373 . S
C4345 C4329 1.377 . S
C4345 C4343 1.389 . S
C4345 C4346 1.524 . S
C4346 C4345 1.524 . S
C4346 C4347 1.397 . S
C4346 C4351 1.363 . S
C4347 H4318 0.950 . S
C4347 C4346 1.397 . S
C4347 C4348 1.334 . S
C4348 H4319 0.950 . S
C4348 C4347 1.334 . S
C4348 C4349 1.287 . S
C4349 C4348 1.287 . S
C4349 C4350 1.524 . S
C4349 H4352 0.999 . S
C4350 H4320 0.950 . S
C4350 C4349 1.524 . S
C4350 C4351 1.415 . S
C4351 H4321 0.950 . S
C4351 C4346 1.363 . S
C4351 C4350 1.415 . S
H4352 C4349 0.999 . S
H4353 C4334 0.913 . S
H4354 C4372 0.951 . S
H4355 C4374 0.951 . S
H4356 C4376 0.950 . S
H4357 C4377 0.985 . S
H4358 C4379 0.950 . S
H4359 C4382 0.950 . S
H4360 C4383 0.950 . S
H4361 C4385 0.950 . S
H4362 C4386 0.950 . S
H4363 C4387 0.951 . S
H4364 C4389 0.951 . S
H4365 C4391 0.950 . S
H4366 C4392 0.950 . S
H4367 C4394 0.950 . S
H4368 C4397 0.950 . S
H4369 C4398 0.950 . S
H4370 C4400 0.937 1_554 S
H4371 C4401 0.950 . S
C4372 H4354 0.951 . S
C4372 C4373 1.366 . S
C4372 C4374 1.388 . S
C4373 C4372 1.366 . S
C4373 C4377 1.385 . S
C4374 H4355 0.951 . S
C4374 C4372 1.388 . S
C4374 C4375 1.366 . S
C4375 C4374 1.366 . S
C4375 C4376 1.414 . S
C4375 C4378 1.499 . S
C4376 H4356 0.950 . S
C4376 C4375 1.414 . S
C4376 C4377 1.374 . S
C4377 H4357 0.985 . S
C4377 C4373 1.385 . S
C4377 C4376 1.374 . S
C4378 C4375 1.499 . S
C4378 C4379 1.373 . S
C4378 C4380 1.389 . S
C4379 H4358 0.950 . S
C4379 C4378 1.373 . S
C4379 C4395 1.377 . S
C4380 C4378 1.389 . S
C4380 C4381 1.524 . S
C4380 C4394 1.377 . S
C4381 C4380 1.524 . S
C4381 C4382 1.397 . S
C4381 C4386 1.363 . S
C4382 H4359 0.950 . S
C4382 C4381 1.397 . S
C4382 C4383 1.334 . S
C4383 H4360 0.950 . S
C4383 C4382 1.334 . S
C4383 C4384 1.287 . S
C4384 C4383 1.287 . S
C4384 C4385 1.524 . S
C4384 H4403 0.913 . S
C4385 H4361 0.950 . S
C4385 C4384 1.524 . S
C4385 C4386 1.415 . S
C4386 H4362 0.950 . S
C4386 C4381 1.363 . S
C4386 C4385 1.415 . S
C4387 H4363 0.951 . S
C4387 C4388 1.366 . S
C4387 C4389 1.388 . S
C4388 C4387 1.366 . S
C4388 C4392 1.385 . S
C4389 H4364 0.951 . S
C4389 C4387 1.388 . S
C4389 C4390 1.366 . S
C4390 C4389 1.366 . S
C4390 C4391 1.414 . S
C4390 C4393 1.499 . S
C4391 H4365 0.950 . S
C4391 C4390 1.414 . S
C4391 C4392 1.374 . S
C4392 H4366 0.950 . S
C4392 C4388 1.385 . S
C4392 C4391 1.374 . S
C4393 C4390 1.499 . S
C4393 C4394 1.373 . S
C4393 C4395 1.389 . S
C4394 H4367 0.950 . S
C4394 C4380 1.377 . S
C4394 C4393 1.373 . S
C4395 C4379 1.377 . S
C4395 C4393 1.389 . S
C4395 C4396 1.524 . S
C4396 C4395 1.524 . S
C4396 C4397 1.397 . S
C4396 C4401 1.363 . S
C4397 H4368 0.950 . S
C4397 C4396 1.397 . S
C4397 C4398 1.334 . S
C4398 H4369 0.950 . S
C4398 C4397 1.334 . S
C4398 C4399 1.287 . S
C4399 C4398 1.287 . S
C4399 C4400 1.524 . S
C4399 H4402 0.999 . S
C4400 H4370 0.937 1_556 S
C4400 C4399 1.524 . S
C4400 C4401 1.415 . S
C4401 H4371 0.950 . S
C4401 C4396 1.363 . S
C4401 C4400 1.415 . S
H4402 C4399 0.999 . S
H4403 C4384 0.913 . S
H4404 C4422 0.951 . S
H4405 C4424 0.951 . S
H4406 C4426 0.950 . S
H4407 C4427 0.950 . S
H4408 C4429 0.950 . S
H4409 C4432 0.950 . S
H4410 C4433 0.950 . S
H4411 C4435 0.950 . S
H4412 C4436 0.950 . S
H4413 C4437 0.951 . S
H4414 C4439 0.951 . S
H4415 C4441 0.950 . S
H4416 C4442 0.950 . S
H4417 C4444 0.950 . S
H4418 C4447 0.950 . S
H4419 C4448 0.950 . S
H4420 C4450 0.950 . S
H4421 C4451 0.950 . S
C4422 H4404 0.951 . S
C4422 C4423 1.366 . S
C4422 C4424 1.388 . S
C4423 C4422 1.366 . S
C4423 C4427 1.385 . S
C4424 H4405 0.951 . S
C4424 C4422 1.388 . S
C4424 C4425 1.366 . S
C4425 C4424 1.366 . S
C4425 C4426 1.414 . S
C4425 C4428 1.499 . S
C4426 H4406 0.950 . S
C4426 C4425 1.414 . S
C4426 C4427 1.374 . S
C4427 H4407 0.950 . S
C4427 C4423 1.385 . S
C4427 C4426 1.374 . S
C4428 C4425 1.499 . S
C4428 C4429 1.373 . S
C4428 C4430 1.389 . S
C4429 H4408 0.950 . S
C4429 C4428 1.373 . S
C4429 C4445 1.377 . S
C4430 C4428 1.389 . S
C4430 C4431 1.524 . S
C4430 C4444 1.377 . S
C4431 C4430 1.524 . S
C4431 C4432 1.397 . S
C4431 C4436 1.363 . S
C4432 H4409 0.950 . S
C4432 C4431 1.397 . S
C4432 C4433 1.334 . S
C4433 H4410 0.950 . S
C4433 C4432 1.334 . S
C4433 C4434 1.287 . S
C4434 C4433 1.287 . S
C4434 C4435 1.524 . S
C4434 H4453 0.913 . S
C4435 H4411 0.950 . S
C4435 C4434 1.524 . S
C4435 C4436 1.415 . S
C4436 H4412 0.950 . S
C4436 C4431 1.363 . S
C4436 C4435 1.415 . S
C4437 H4413 0.951 . S
C4437 C4438 1.366 . S
C4437 C4439 1.388 . S
C4438 C4437 1.366 . S
C4438 C4442 1.385 . S
C4439 H4414 0.951 . S
C4439 C4437 1.388 . S
C4439 C4440 1.366 . S
C4440 C4439 1.366 . S
C4440 C4441 1.414 . S
C4440 C4443 1.499 . S
C4441 H4415 0.950 . S
C4441 C4440 1.414 . S
C4441 C4442 1.374 . S
C4442 H4416 0.950 . S
C4442 C4438 1.385 . S
C4442 C4441 1.374 . S
C4443 C4440 1.499 . S
C4443 C4444 1.373 . S
C4443 C4445 1.389 . S
C4444 H4417 0.950 . S
C4444 C4430 1.377 . S
C4444 C4443 1.373 . S
C4445 C4429 1.377 . S
C4445 C4443 1.389 . S
C4445 C4446 1.524 . S
C4446 C4445 1.524 . S
C4446 C4447 1.397 . S
C4446 C4451 1.363 . S
C4447 H4418 0.950 . S
C4447 C4446 1.397 . S
C4447 C4448 1.334 . S
C4448 H4419 0.950 . S
C4448 C4447 1.334 . S
C4448 C4449 1.287 . S
C4449 C4448 1.287 . S
C4449 C4450 1.524 . S
C4449 H4452 0.999 . S
C4450 H4420 0.950 . S
C4450 C4449 1.524 . S
C4450 C4451 1.415 . S
C4451 H4421 0.950 . S
C4451 C4446 1.363 . S
C4451 C4450 1.415 . S
H4452 C4449 0.999 . S
H4453 C4434 0.913 . S
H4454 C4472 0.951 . S
H4455 C4474 0.951 . S
H4456 C4476 0.950 . S
H4457 C4477 0.950 . S
H4458 C4479 0.950 . S
H4459 C4482 0.950 . S
H4460 C4483 0.950 . S
H4461 C4485 0.896 1_554 S
H4462 C4486 0.950 . S
H4463 C4487 0.951 . S
H4464 C4489 0.951 . S
H4465 C4491 0.950 . S
H4466 C4492 0.950 . S
H4467 C4494 0.950 . S
H4468 C4497 0.950 . S
H4469 C4498 0.950 . S
H4470 C4500 0.950 . S
H4471 C4501 0.950 . S
C4472 H4454 0.951 . S
C4472 C4473 1.366 . S
C4472 C4474 1.388 . S
C4473 C4472 1.366 . S
C4473 C4477 1.385 . S
C4474 H4455 0.951 . S
C4474 C4472 1.388 . S
C4474 C4475 1.366 . S
C4475 C4474 1.366 . S
C4475 C4476 1.414 . S
C4475 C4478 1.499 . S
C4476 H4456 0.950 . S
C4476 C4475 1.414 . S
C4476 C4477 1.374 . S
C4477 H4457 0.950 . S
C4477 C4473 1.385 . S
C4477 C4476 1.374 . S
C4478 C4475 1.499 . S
C4478 C4479 1.373 . S
C4478 C4480 1.389 . S
C4479 H4458 0.950 . S
C4479 C4478 1.373 . S
C4479 C4495 1.377 . S
C4480 C4478 1.389 . S
C4480 C4481 1.524 . S
C4480 C4494 1.377 . S
C4481 C4480 1.524 . S
C4481 C4482 1.397 . S
C4481 C4486 1.363 . S
C4482 H4459 0.950 . S
C4482 C4481 1.397 . S
C4482 C4483 1.334 . S
C4483 H4460 0.950 . S
C4483 C4482 1.334 . S
C4483 C4484 1.287 . S
C4484 C4483 1.287 . S
C4484 C4485 1.524 . S
C4484 H4503 0.913 1_556 S
C4485 H4461 0.896 1_556 S
C4485 C4484 1.524 . S
C4485 C4486 1.415 . S
C4486 H4462 0.950 . S
C4486 C4481 1.363 . S
C4486 C4485 1.415 . S
C4487 H4463 0.951 . S
C4487 C4488 1.366 . S
C4487 C4489 1.388 . S
C4488 C4487 1.366 . S
C4488 C4492 1.385 . S
C4489 H4464 0.951 . S
C4489 C4487 1.388 . S
C4489 C4490 1.366 . S
C4490 C4489 1.366 . S
C4490 C4491 1.414 . S
C4490 C4493 1.499 . S
C4491 H4465 0.950 . S
C4491 C4490 1.414 . S
C4491 C4492 1.374 . S
C4492 H4466 0.950 . S
C4492 C4488 1.385 . S
C4492 C4491 1.374 . S
C4493 C4490 1.499 . S
C4493 C4494 1.373 . S
C4493 C4495 1.389 . S
C4494 H4467 0.950 . S
C4494 C4480 1.377 . S
C4494 C4493 1.373 . S
C4495 C4479 1.377 . S
C4495 C4493 1.389 . S
C4495 C4496 1.524 . S
C4496 C4495 1.524 . S
C4496 C4497 1.397 . S
C4496 C4501 1.363 . S
C4497 H4468 0.950 . S
C4497 C4496 1.397 . S
C4497 C4498 1.334 . S
C4498 H4469 0.950 . S
C4498 C4497 1.334 . S
C4498 C4499 1.287 . S
C4499 C4498 1.287 . S
C4499 C4500 1.524 . S
C4499 H4502 0.999 . S
C4500 H4470 0.950 . S
C4500 C4499 1.524 . S
C4500 C4501 1.415 . S
C4501 H4471 0.950 . S
C4501 C4496 1.363 . S
C4501 C4500 1.415 . S
H4502 C4499 0.999 . S
H4503 C4484 0.913 1_554 S
H4504 C4522 0.951 . S
H4505 C4524 0.951 . S
H4506 C4526 0.950 . S
H4507 C4527 0.950 . S
H4508 C4529 0.950 . S
H4509 C4532 0.950 . S
H4510 C4533 0.950 . S
H4511 C4535 0.950 . S
H4512 C4536 0.950 . S
H4513 C4537 0.951 . S
H4514 C4539 0.951 . S
H4515 C4541 0.950 . S
H4516 C4542 0.950 . S
H4517 C4544 0.950 . S
H4518 C4547 0.950 . S
H4519 C4548 0.950 . S
H4520 C4550 0.950 . S
H4521 C4551 0.950 . S
C4522 H4504 0.951 . S
C4522 C4523 1.366 . S
C4522 C4524 1.388 . S
C4523 C4522 1.366 . S
C4523 C4527 1.385 . S
C4524 H4505 0.951 . S
C4524 C4522 1.388 . S
C4524 C4525 1.366 . S
C4525 C4524 1.366 . S
C4525 C4526 1.414 . S
C4525 C4528 1.499 . S
C4526 H4506 0.950 . S
C4526 C4525 1.414 . S
C4526 C4527 1.374 . S
C4527 H4507 0.950 . S
C4527 C4523 1.385 . S
C4527 C4526 1.374 . S
C4528 C4525 1.499 . S
C4528 C4529 1.373 . S
C4528 C4530 1.389 . S
C4529 H4508 0.950 . S
C4529 C4528 1.373 . S
C4529 C4545 1.377 . S
C4530 C4528 1.389 . S
C4530 C4531 1.524 . S
C4530 C4544 1.377 . S
C4531 C4530 1.524 . S
C4531 C4532 1.397 . S
C4531 C4536 1.363 . S
C4532 H4509 0.950 . S
C4532 C4531 1.397 . S
C4532 C4533 1.334 1_556 S
C4533 H4510 0.950 . S
C4533 C4532 1.334 1_554 S
C4533 C4534 1.287 . S
C4534 C4533 1.287 . S
C4534 C4535 1.524 1_554 S
C4534 H4553 0.913 . S
C4535 H4511 0.950 . S
C4535 C4534 1.524 1_556 S
C4535 C4536 1.415 . S
C4536 H4512 0.950 . S
C4536 C4531 1.363 . S
C4536 C4535 1.415 . S
C4537 H4513 0.951 . S
C4537 C4538 1.366 . S
C4537 C4539 1.388 . S
C4538 C4537 1.366 . S
C4538 C4542 1.385 . S
C4539 H4514 0.951 . S
C4539 C4537 1.388 . S
C4539 C4540 1.366 . S
C4540 C4539 1.366 . S
C4540 C4541 1.414 . S
C4540 C4543 1.499 . S
C4541 H4515 0.950 . S
C4541 C4540 1.414 . S
C4541 C4542 1.374 . S
C4542 H4516 0.950 . S
C4542 C4538 1.385 . S
C4542 C4541 1.374 . S
C4543 C4540 1.499 . S
C4543 C4544 1.373 . S
C4543 C4545 1.389 . S
C4544 H4517 0.950 . S
C4544 C4530 1.377 . S
C4544 C4543 1.373 . S
C4545 C4529 1.377 . S
C4545 C4543 1.389 . S
C4545 C4546 1.524 . S
C4546 C4545 1.524 . S
C4546 C4547 1.397 . S
C4546 C4551 1.363 . S
C4547 H4518 0.950 . S
C4547 C4546 1.397 . S
C4547 C4548 1.334 . S
C4548 H4519 0.950 . S
C4548 C4547 1.334 . S
C4548 C4549 1.287 . S
C4549 C4548 1.287 . S
C4549 C4550 1.524 . S
C4549 H4552 0.999 . S
C4550 H4520 0.950 . S
C4550 C4549 1.524 . S
C4550 C4551 1.415 . S
C4551 H4521 0.950 . S
C4551 C4546 1.363 . S
C4551 C4550 1.415 . S
H4552 C4549 0.999 . S
H4553 C4534 0.913 . S
H4554 C4572 0.951 . S
H4555 C4574 0.951 . S
H4556 C4576 0.950 . S
H4557 C4577 0.950 . S
H4558 C4579 0.950 . S
H4559 C4582 0.950 . S
H4560 C4583 0.950 . S
H4561 C4585 0.950 . S
H4562 C4586 0.950 . S
H4563 C4587 0.951 . S
H4564 C4589 0.951 . S
H4565 C4591 0.950 . S
H4566 C4592 0.950 . S
H4567 C4594 0.950 . S
H4568 C4597 0.950 . S
H4569 C4598 0.950 . S
H4570 C4600 0.950 . S
H4571 C4601 0.950 . S
C4572 H4554 0.951 . S
C4572 C4573 1.366 . S
C4572 C4574 1.388 . S
C4573 C4572 1.366 . S
C4573 C4577 1.385 . S
C4574 H4555 0.951 . S
C4574 C4572 1.388 . S
C4574 C4575 1.366 . S
C4575 C4574 1.366 . S
C4575 C4576 1.414 . S
C4575 C4578 1.499 . S
C4576 H4556 0.950 . S
C4576 C4575 1.414 . S
C4576 C4577 1.374 . S
C4577 H4557 0.950 . S
C4577 C4573 1.385 . S
C4577 C4576 1.374 . S
C4578 C4575 1.499 . S
C4578 C4579 1.373 . S
C4578 C4580 1.389 . S
C4579 H4558 0.950 . S
C4579 C4578 1.373 . S
C4579 C4595 1.377 . S
C4580 C4578 1.389 . S
C4580 C4581 1.524 . S
C4580 C4594 1.377 . S
C4581 C4580 1.524 . S
C4581 C4582 1.397 . S
C4581 C4586 1.363 . S
C4582 H4559 0.950 . S
C4582 C4581 1.397 . S
C4582 C4583 1.334 . S
C4583 H4560 0.950 . S
C4583 C4582 1.334 . S
C4583 C4584 1.287 . S
C4584 C4583 1.287 . S
C4584 C4585 1.524 . S
C4584 H4603 0.913 . S
C4585 H4561 0.950 . S
C4585 C4584 1.524 . S
C4585 C4586 1.415 . S
C4586 H4562 0.950 . S
C4586 C4581 1.363 . S
C4586 C4585 1.415 . S
C4587 H4563 0.951 . S
C4587 C4588 1.366 . S
C4587 C4589 1.388 . S
C4588 C4587 1.366 . S
C4588 C4592 1.385 . S
C4589 H4564 0.951 . S
C4589 C4587 1.388 . S
C4589 C4590 1.366 . S
C4590 C4589 1.366 . S
C4590 C4591 1.414 . S
C4590 C4593 1.499 . S
C4591 H4565 0.950 . S
C4591 C4590 1.414 . S
C4591 C4592 1.374 . S
C4592 H4566 0.950 . S
C4592 C4588 1.385 . S
C4592 C4591 1.374 . S
C4593 C4590 1.499 . S
C4593 C4594 1.373 . S
C4593 C4595 1.389 . S
C4594 H4567 0.950 . S
C4594 C4580 1.377 . S
C4594 C4593 1.373 . S
C4595 C4579 1.377 . S
C4595 C4593 1.389 . S
C4595 C4596 1.524 . S
C4596 C4595 1.524 . S
C4596 C4597 1.397 . S
C4596 C4601 1.363 . S
C4597 H4568 0.950 . S
C4597 C4596 1.397 . S
C4597 C4598 1.334 . S
C4598 H4569 0.950 . S
C4598 C4597 1.334 . S
C4598 C4599 1.287 . S
C4599 C4598 1.287 . S
C4599 C4600 1.524 . S
C4599 H4602 0.999 . S
C4600 H4570 0.950 . S
C4600 C4599 1.524 . S
C4600 C4601 1.415 . S
C4601 H4571 0.950 . S
C4601 C4596 1.363 . S
C4601 C4600 1.415 . S
H4602 C4599 0.999 . S
H4603 C4584 0.913 . S
H4604 C4622 0.951 . S
H4605 C4624 0.951 . S
H4606 C4626 0.950 . S
H4607 C4627 0.950 . S
H4608 C4629 0.950 . S
H4609 C4632 0.950 . S
H4610 C4633 0.950 . S
H4611 C4635 0.950 . S
H4612 C4636 0.950 . S
H4613 C4637 0.951 . S
H4614 C4639 0.951 . S
H4615 C4641 0.950 . S
H4616 C4642 0.950 . S
H4617 C4644 0.950 . S
H4618 C4647 0.950 . S
H4619 C4648 0.950 . S
H4620 C4650 0.950 . S
H4621 C4651 0.950 . S
C4622 H4604 0.951 . S
C4622 C4623 1.366 . S
C4622 C4624 1.388 . S
C4623 C4622 1.366 . S
C4623 C4627 1.385 . S
C4624 H4605 0.951 . S
C4624 C4622 1.388 . S
C4624 C4625 1.366 . S
C4625 C4624 1.366 . S
C4625 C4626 1.414 . S
C4625 C4628 1.499 . S
C4626 H4606 0.950 . S
C4626 C4625 1.414 . S
C4626 C4627 1.374 . S
C4627 H4607 0.950 . S
C4627 C4623 1.385 . S
C4627 C4626 1.374 . S
C4628 C4625 1.499 . S
C4628 C4629 1.373 . S
C4628 C4630 1.389 . S
C4629 H4608 0.950 . S
C4629 C4628 1.373 . S
C4629 C4645 1.377 . S
C4630 C4628 1.389 . S
C4630 C4631 1.524 . S
C4630 C4644 1.377 . S
C4631 C4630 1.524 . S
C4631 C4632 1.397 . S
C4631 C4636 1.363 . S
C4632 H4609 0.950 . S
C4632 C4631 1.397 . S
C4632 C4633 1.334 . S
C4633 H4610 0.950 . S
C4633 C4632 1.334 . S
C4633 C4634 1.287 . S
C4634 C4633 1.287 . S
C4634 C4635 1.524 . S
C4634 H4653 0.913 . S
C4635 H4611 0.950 . S
C4635 C4634 1.524 . S
C4635 C4636 1.415 . S
C4636 H4612 0.950 . S
C4636 C4631 1.363 . S
C4636 C4635 1.415 . S
C4637 H4613 0.951 . S
C4637 C4638 1.366 . S
C4637 C4639 1.388 . S
C4638 C4637 1.366 . S
C4638 C4642 1.385 . S
C4639 H4614 0.951 . S
C4639 C4637 1.388 . S
C4639 C4640 1.366 . S
C4640 C4639 1.366 . S
C4640 C4641 1.414 . S
C4640 C4643 1.499 . S
C4641 H4615 0.950 . S
C4641 C4640 1.414 . S
C4641 C4642 1.374 . S
C4642 H4616 0.950 . S
C4642 C4638 1.385 . S
C4642 C4641 1.374 . S
C4643 C4640 1.499 . S
C4643 C4644 1.373 . S
C4643 C4645 1.389 . S
C4644 H4617 0.950 . S
C4644 C4630 1.377 . S
C4644 C4643 1.373 . S
C4645 C4629 1.377 . S
C4645 C4643 1.389 . S
C4645 C4646 1.524 . S
C4646 C4645 1.524 . S
C4646 C4647 1.397 . S
C4646 C4651 1.363 . S
C4647 H4618 0.950 . S
C4647 C4646 1.397 . S
C4647 C4648 1.334 . S
C4648 H4619 0.950 . S
C4648 C4647 1.334 . S
C4648 C4649 1.287 . S
C4649 C4648 1.287 . S
C4649 C4650 1.524 . S
C4649 H4652 0.999 . S
C4650 H4620 0.950 . S
C4650 C4649 1.524 . S
C4650 C4651 1.415 . S
C4651 H4621 0.950 . S
C4651 C4646 1.363 . S
C4651 C4650 1.415 . S
H4652 C4649 0.999 . S
H4653 C4634 0.913 . S
H4654 C4672 0.951 . S
H4655 C4674 0.951 . S
H4656 C4676 0.950 . S
H4657 C4677 0.950 . S
H4658 C4679 0.950 . S
H4659 C4682 0.950 . S
H4660 C4683 0.950 . S
H4661 C4685 0.950 . S
H4662 C4686 0.950 . S
H4663 C4687 0.951 . S
H4664 C4689 0.951 . S
H4665 C4691 0.950 . S
H4666 C4692 0.950 . S
H4667 C4694 0.950 . S
H4668 C4697 0.950 . S
H4669 C4698 0.950 . S
H4670 C4700 0.950 . S
H4671 C4701 0.950 . S
C4672 H4654 0.951 . S
C4672 C4673 1.366 . S
C4672 C4674 1.388 . S
C4673 C4672 1.366 . S
C4673 C4677 1.385 . S
C4674 H4655 0.951 . S
C4674 C4672 1.388 . S
C4674 C4675 1.366 . S
C4675 C4674 1.366 . S
C4675 C4676 1.414 . S
C4675 C4678 1.499 . S
C4676 H4656 0.950 . S
C4676 C4675 1.414 . S
C4676 C4677 1.374 . S
C4677 H4657 0.950 . S
C4677 C4673 1.385 . S
C4677 C4676 1.374 . S
C4678 C4675 1.499 . S
C4678 C4679 1.373 . S
C4678 C4680 1.389 . S
C4679 H4658 0.950 . S
C4679 C4678 1.373 . S
C4679 C4695 1.377 . S
C4680 C4678 1.389 . S
C4680 C4681 1.524 . S
C4680 C4694 1.377 . S
C4681 C4680 1.524 . S
C4681 C4682 1.397 . S
C4681 C4686 1.363 . S
C4682 H4659 0.950 . S
C4682 C4681 1.397 . S
C4682 C4683 1.334 . S
C4683 H4660 0.950 . S
C4683 C4682 1.334 . S
C4683 C4684 1.287 . S
C4684 C4683 1.287 . S
C4684 C4685 1.524 . S
C4684 H4703 0.913 1_554 S
C4685 H4661 0.950 . S
C4685 C4684 1.524 . S
C4685 C4686 1.415 . S
C4686 H4662 0.950 . S
C4686 C4681 1.363 . S
C4686 C4685 1.415 . S
C4687 H4663 0.951 . S
C4687 C4688 1.366 . S
C4687 C4689 1.388 . S
C4688 C4687 1.366 . S
C4688 C4692 1.385 . S
C4689 H4664 0.951 . S
C4689 C4687 1.388 . S
C4689 C4690 1.366 . S
C4690 C4689 1.366 . S
C4690 C4691 1.414 . S
C4690 C4693 1.499 . S
C4691 H4665 0.950 . S
C4691 C4690 1.414 . S
C4691 C4692 1.374 . S
C4692 H4666 0.950 . S
C4692 C4688 1.385 . S
C4692 C4691 1.374 . S
C4693 C4690 1.499 . S
C4693 C4694 1.373 . S
C4693 C4695 1.389 . S
C4694 H4667 0.950 . S
C4694 C4680 1.377 . S
C4694 C4693 1.373 . S
C4695 C4679 1.377 . S
C4695 C4693 1.389 . S
C4695 C4696 1.524 . S
C4696 C4695 1.524 . S
C4696 C4697 1.397 . S
C4696 C4701 1.363 . S
C4697 H4668 0.950 . S
C4697 C4696 1.397 . S
C4697 C4698 1.334 . S
C4698 H4669 0.950 . S
C4698 C4697 1.334 . S
C4698 C4699 1.287 . S
C4699 C4698 1.287 . S
C4699 C4700 1.524 . S
C4699 H4702 0.999 . S
C4700 H4670 0.950 . S
C4700 C4699 1.524 . S
C4700 C4701 1.415 . S
C4701 H4671 0.950 . S
C4701 C4696 1.363 . S
C4701 C4700 1.415 . S
H4702 C4699 0.999 . S
H4703 C4684 0.913 1_556 S
H4704 C4722 0.951 . S
H4705 C4724 0.951 . S
H4706 C4726 0.950 . S
H4707 C4727 0.950 . S
H4708 C4729 0.950 . S
H4709 C4732 0.950 . S
H4710 C4733 0.950 . S
H4711 C4735 0.950 . S
H4712 C4736 0.950 . S
H4713 C4737 0.951 . S
H4714 C4739 0.951 . S
H4715 C4741 0.950 . S
H4716 C4742 0.950 . S
H4717 C4744 0.950 . S
H4718 C4747 0.950 . S
H4719 C4748 0.950 . S
H4720 C4750 0.950 . S
H4721 C4751 0.950 . S
C4722 H4704 0.951 . S
C4722 C4723 1.366 . S
C4722 C4724 1.388 . S
C4723 C4722 1.366 . S
C4723 C4727 1.385 . S
C4724 H4705 0.951 . S
C4724 C4722 1.388 . S
C4724 C4725 1.366 . S
C4725 C4724 1.366 . S
C4725 C4726 1.414 . S
C4725 C4728 1.499 . S
C4726 H4706 0.950 . S
C4726 C4725 1.414 . S
C4726 C4727 1.374 . S
C4727 H4707 0.950 . S
C4727 C4723 1.385 . S
C4727 C4726 1.374 . S
C4728 C4725 1.499 . S
C4728 C4729 1.373 . S
C4728 C4730 1.389 . S
C4729 H4708 0.950 . S
C4729 C4728 1.373 . S
C4729 C4745 1.377 . S
C4730 C4728 1.389 . S
C4730 C4731 1.524 . S
C4730 C4744 1.377 . S
C4731 C4730 1.524 . S
C4731 C4732 1.397 . S
C4731 C4736 1.363 . S
C4732 H4709 0.950 . S
C4732 C4731 1.397 . S
C4732 C4733 1.334 . S
C4733 H4710 0.950 . S
C4733 C4732 1.334 . S
C4733 C4734 1.287 . S
C4734 C4733 1.287 . S
C4734 C4735 1.524 . S
C4734 H4753 0.913 . S
C4735 H4711 0.950 . S
C4735 C4734 1.524 . S
C4735 C4736 1.415 . S
C4736 H4712 0.950 . S
C4736 C4731 1.363 . S
C4736 C4735 1.415 . S
C4737 H4713 0.951 . S
C4737 C4738 1.366 . S
C4737 C4739 1.388 . S
C4738 C4737 1.366 . S
C4738 C4742 1.385 . S
C4739 H4714 0.951 . S
C4739 C4737 1.388 . S
C4739 C4740 1.366 . S
C4740 C4739 1.366 . S
C4740 C4741 1.414 . S
C4740 C4743 1.499 . S
C4741 H4715 0.950 . S
C4741 C4740 1.414 . S
C4741 C4742 1.374 . S
C4742 H4716 0.950 . S
C4742 C4738 1.385 . S
C4742 C4741 1.374 . S
C4743 C4740 1.499 . S
C4743 C4744 1.373 . S
C4743 C4745 1.389 . S
C4744 H4717 0.950 . S
C4744 C4730 1.377 . S
C4744 C4743 1.373 . S
C4745 C4729 1.377 . S
C4745 C4743 1.389 . S
C4745 C4746 1.524 . S
C4746 C4745 1.524 . S
C4746 C4747 1.397 . S
C4746 C4751 1.363 . S
C4747 H4718 0.950 . S
C4747 C4746 1.397 . S
C4747 C4748 1.334 . S
C4748 H4719 0.950 . S
C4748 C4747 1.334 . S
C4748 C4749 1.287 . S
C4749 C4748 1.287 . S
C4749 C4750 1.524 . S
C4749 H4752 0.999 . S
C4750 H4720 0.950 . S
C4750 C4749 1.524 . S
C4750 C4751 1.415 . S
C4751 H4721 0.950 . S
C4751 C4746 1.363 . S
C4751 C4750 1.415 . S
H4752 C4749 0.999 . S
H4753 C4734 0.913 . S
H4754 C4772 0.951 . S
H4755 C4774 0.951 . S
H4756 C4776 0.950 . S
H4757 C4777 0.950 . S
H4758 C4779 0.950 . S
H4759 C4782 0.950 . S
H4760 C4783 0.950 . S
H4761 C4785 0.950 . S
H4762 C4786 0.950 . S
H4763 C4787 0.951 . S
H4764 C4789 0.951 . S
H4765 C4791 0.950 . S
H4766 C4792 0.950 . S
H4767 C4794 0.950 . S
H4768 C4797 0.950 . S
H4769 C4798 0.950 . S
H4770 C4800 0.950 . S
H4771 C4801 0.950 . S
C4772 H4754 0.951 . S
C4772 C4773 1.366 . S
C4772 C4774 1.388 . S
C4773 C4772 1.366 . S
C4773 C4777 1.385 . S
C4774 H4755 0.951 . S
C4774 C4772 1.388 . S
C4774 C4775 1.366 . S
C4775 C4774 1.366 . S
C4775 C4776 1.414 . S
C4775 C4778 1.499 . S
C4776 H4756 0.950 . S
C4776 C4775 1.414 . S
C4776 C4777 1.374 . S
C4777 H4757 0.950 . S
C4777 C4773 1.385 . S
C4777 C4776 1.374 . S
C4778 C4775 1.499 . S
C4778 C4779 1.373 . S
C4778 C4780 1.389 . S
C4779 H4758 0.950 . S
C4779 C4778 1.373 . S
C4779 C4795 1.377 . S
C4780 C4778 1.389 . S
C4780 C4781 1.524 . S
C4780 C4794 1.377 . S
C4781 C4780 1.524 . S
C4781 C4782 1.397 . S
C4781 C4786 1.363 . S
C4782 H4759 0.950 . S
C4782 C4781 1.397 . S
C4782 C4783 1.334 . S
C4783 H4760 0.950 . S
C4783 C4782 1.334 . S
C4783 C4784 1.287 . S
C4784 C4783 1.287 . S
C4784 C4785 1.524 . S
C4784 H4803 0.913 . S
C4785 H4761 0.950 . S
C4785 C4784 1.524 . S
C4785 C4786 1.415 . S
C4786 H4762 0.950 . S
C4786 C4781 1.363 . S
C4786 C4785 1.415 . S
C4787 H4763 0.951 . S
C4787 C4788 1.366 . S
C4787 C4789 1.388 . S
C4788 C4787 1.366 . S
C4788 C4792 1.385 . S
C4789 H4764 0.951 . S
C4789 C4787 1.388 . S
C4789 C4790 1.366 . S
C4790 C4789 1.366 . S
C4790 C4791 1.414 . S
C4790 C4793 1.499 . S
C4791 H4765 0.950 . S
C4791 C4790 1.414 . S
C4791 C4792 1.374 . S
C4792 H4766 0.950 . S
C4792 C4788 1.385 . S
C4792 C4791 1.374 . S
C4793 C4790 1.499 . S
C4793 C4794 1.373 . S
C4793 C4795 1.389 . S
C4794 H4767 0.950 . S
C4794 C4780 1.377 . S
C4794 C4793 1.373 . S
C4795 C4779 1.377 . S
C4795 C4793 1.389 . S
C4795 C4796 1.524 . S
C4796 C4795 1.524 . S
C4796 C4797 1.397 . S
C4796 C4801 1.363 . S
C4797 H4768 0.950 . S
C4797 C4796 1.397 . S
C4797 C4798 1.334 . S
C4798 H4769 0.950 . S
C4798 C4797 1.334 . S
C4798 C4799 1.287 . S
C4799 C4798 1.287 . S
C4799 C4800 1.524 . S
C4799 H4802 0.999 . S
C4800 H4770 0.950 . S
C4800 C4799 1.524 . S
C4800 C4801 1.415 . S
C4801 H4771 0.950 . S
C4801 C4796 1.363 . S
C4801 C4800 1.415 . S
H4802 C4799 0.999 . S
H4803 C4784 0.913 . S
H4804 C4822 0.951 . S
H4805 C4824 0.951 . S
H4806 C4826 0.950 . S
H4807 C4827 0.950 . S
H4808 C4829 0.950 . S
H4809 C4832 0.950 . S
H4810 C4833 0.950 . S
H4811 C4835 0.950 . S
H4812 C4836 0.950 . S
H4813 C4837 0.951 . S
H4814 C4839 0.951 . S
H4815 C4841 0.950 . S
H4816 C4842 0.950 . S
H4817 C4844 0.950 . S
H4818 C4847 0.950 . S
H4819 C4848 0.950 . S
H4820 C4850 0.950 . S
H4821 C4851 0.950 . S
C4822 H4804 0.951 . S
C4822 C4823 1.366 . S
C4822 C4824 1.388 . S
C4823 C4822 1.366 . S
C4823 C4827 1.385 . S
C4824 H4805 0.951 . S
C4824 C4822 1.388 . S
C4824 C4825 1.366 . S
C4825 C4824 1.366 . S
C4825 C4826 1.414 . S
C4825 C4828 1.499 . S
C4826 H4806 0.950 . S
C4826 C4825 1.414 . S
C4826 C4827 1.374 . S
C4827 H4807 0.950 . S
C4827 C4823 1.385 . S
C4827 C4826 1.374 . S
C4828 C4825 1.499 . S
C4828 C4829 1.373 . S
C4828 C4830 1.389 . S
C4829 H4808 0.950 . S
C4829 C4828 1.373 . S
C4829 C4845 1.377 . S
C4830 C4828 1.389 . S
C4830 C4831 1.524 . S
C4830 C4844 1.377 . S
C4831 C4830 1.524 . S
C4831 C4832 1.397 . S
C4831 C4836 1.363 . S
C4832 H4809 0.950 . S
C4832 C4831 1.397 . S
C4832 C4833 1.334 . S
C4833 H4810 0.950 . S
C4833 C4832 1.334 . S
C4833 C4834 1.287 . S
C4834 C4833 1.287 . S
C4834 C4835 1.524 . S
C4834 H4853 0.913 . S
C4835 H4811 0.950 . S
C4835 C4834 1.524 . S
C4835 C4836 1.415 . S
C4836 H4812 0.950 . S
C4836 C4831 1.363 . S
C4836 C4835 1.415 . S
C4837 H4813 0.951 . S
C4837 C4838 1.366 . S
C4837 C4839 1.388 . S
C4838 C4837 1.366 . S
C4838 C4842 1.385 . S
C4839 H4814 0.951 . S
C4839 C4837 1.388 . S
C4839 C4840 1.366 . S
C4840 C4839 1.366 . S
C4840 C4841 1.414 . S
C4840 C4843 1.499 . S
C4841 H4815 0.950 . S
C4841 C4840 1.414 . S
C4841 C4842 1.374 . S
C4842 H4816 0.950 . S
C4842 C4838 1.385 . S
C4842 C4841 1.374 . S
C4843 C4840 1.499 . S
C4843 C4844 1.373 . S
C4843 C4845 1.389 . S
C4844 H4817 0.950 . S
C4844 C4830 1.377 . S
C4844 C4843 1.373 . S
C4845 C4829 1.377 . S
C4845 C4843 1.389 . S
C4845 C4846 1.524 . S
C4846 C4845 1.524 . S
C4846 C4847 1.397 . S
C4846 C4851 1.363 . S
C4847 H4818 0.950 . S
C4847 C4846 1.397 . S
C4847 C4848 1.334 . S
C4848 H4819 0.950 . S
C4848 C4847 1.334 . S
C4848 C4849 1.287 . S
C4849 C4848 1.287 . S
C4849 C4850 1.524 . S
C4849 H4852 0.999 . S
C4850 H4820 0.950 . S
C4850 C4849 1.524 . S
C4850 C4851 1.415 . S
C4851 H4821 0.950 . S
C4851 C4846 1.363 . S
C4851 C4850 1.415 . S
H4852 C4849 0.999 . S
H4853 C4834 0.913 . S
H4854 C4872 0.951 1_655 S
H4855 C4874 0.951 1_655 S
H4856 C4876 0.950 . S
H4857 C4877 0.950 . S
H4858 C4879 0.950 . S
H4859 C4882 0.950 . S
H4860 C4883 0.886 1_455 S
H4861 C4885 0.950 . S
H4862 C4886 0.950 . S
H4863 C4887 0.951 . S
H4864 C4889 0.951 . S
H4865 C4891 0.950 . S
H4866 C4892 0.950 . S
H4867 C4894 0.950 1_655 S
H4868 C4897 0.950 . S
H4869 C4898 0.950 . S
H4870 C4900 0.950 . S
H4871 C4901 0.950 . S
C4872 H4854 0.951 1_455 S
C4872 C4873 1.366 . S
C4872 C4874 1.388 . S
C4873 C4872 1.366 . S
C4873 C4877 1.385 . S
C4874 H4855 0.951 1_455 S
C4874 C4872 1.388 . S
C4874 C4875 1.366 . S
C4875 C4874 1.366 . S
C4875 C4876 1.414 . S
C4875 C4878 1.499 . S
C4876 H4856 0.950 . S
C4876 C4875 1.414 . S
C4876 C4877 1.374 . S
C4877 H4857 0.950 . S
C4877 C4873 1.385 . S
C4877 C4876 1.374 . S
C4878 C4875 1.499 . S
C4878 C4879 1.373 . S
C4878 C4880 1.389 . S
C4879 H4858 0.950 . S
C4879 C4878 1.373 . S
C4879 C4895 1.377 . S
C4880 C4878 1.389 . S
C4880 C4881 1.524 1_455 S
C4880 C4894 1.377 . S
C4881 C4880 1.524 1_655 S
C4881 C4882 1.397 1_655 S
C4881 C4886 1.363 . S
C4882 H4859 0.950 . S
C4882 C4881 1.397 1_455 S
C4882 C4883 1.339 1_455 S
C4883 H4860 0.886 1_655 S
C4883 C4882 1.339 1_655 S
C4883 C4884 1.352 . S
C4884 C4883 1.352 . S
C4884 C4885 1.524 . S
C4884 H4903 0.913 . S
C4885 H4861 0.950 . S
C4885 C4884 1.524 . S
C4885 C4886 1.415 . S
C4886 H4862 0.950 . S
C4886 C4881 1.363 . S
C4886 C4885 1.415 . S
C4887 H4863 0.951 . S
C4887 C4888 1.366 . S
C4887 C4889 1.388 . S
C4888 C4887 1.366 . S
C4888 C4892 1.385 1_455 S
C4889 H4864 0.951 . S
C4889 C4887 1.388 . S
C4889 C4890 1.366 . S
C4890 C4889 1.366 . S
C4890 C4891 1.414 1_455 S
C4890 C4893 1.499 . S
C4891 H4865 0.950 . S
C4891 C4890 1.414 1_655 S
C4891 C4892 1.374 . S
C4892 H4866 0.950 . S
C4892 C4888 1.385 1_655 S
C4892 C4891 1.374 . S
C4893 C4890 1.499 . S
C4893 C4894 1.373 . S
C4893 C4895 1.389 . S
C4894 H4867 0.950 1_455 S
C4894 C4880 1.377 . S
C4894 C4893 1.373 . S
C4895 C4879 1.377 . S
C4895 C4893 1.389 . S
C4895 C4896 1.524 . S
C4896 C4895 1.524 . S
C4896 C4897 1.397 . S
C4896 C4901 1.363 . S
C4897 H4868 0.950 . S
C4897 C4896 1.397 . S
C4897 C4898 1.334 . S
C4898 H4869 0.950 . S
C4898 C4897 1.334 . S
C4898 C4899 1.287 . S
C4899 C4898 1.287 . S
C4899 C4900 1.524 . S
C4899 H4902 0.999 . S
C4900 H4870 0.950 . S
C4900 C4899 1.524 . S
C4900 C4901 1.415 . S
C4901 H4871 0.950 . S
C4901 C4896 1.363 . S
C4901 C4900 1.415 . S
H4902 C4899 0.999 . S
H4903 C4884 0.913 . S
H4904 C4922 0.951 . S
H4905 C4924 0.951 . S
H4906 C4926 0.950 . S
H4907 C4927 0.950 . S
H4908 C4929 0.950 . S
H4909 C4932 0.950 . S
H4910 C4933 0.950 . S
H4911 C4935 0.950 . S
H4912 C4936 0.950 . S
H4913 C4937 0.951 . S
H4914 C4939 0.951 . S
H4915 C4941 0.950 . S
H4916 C4942 0.950 . S
H4917 C4944 0.950 . S
H4918 C4947 0.950 . S
H4919 C4948 0.950 . S
H4920 C4950 0.950 . S
H4921 C4951 0.950 . S
C4922 H4904 0.951 . S
C4922 C4923 1.366 . S
C4922 C4924 1.388 . S
C4923 C4922 1.366 . S
C4923 C4927 1.385 . S
C4924 H4905 0.951 . S
C4924 C4922 1.388 . S
C4924 C4925 1.366 . S
C4925 C4924 1.366 . S
C4925 C4926 1.414 . S
C4925 C4928 1.499 . S
C4926 H4906 0.950 . S
C4926 C4925 1.414 . S
C4926 C4927 1.374 . S
C4927 H4907 0.950 . S
C4927 C4923 1.385 . S
C4927 C4926 1.374 . S
C4928 C4925 1.499 . S
C4928 C4929 1.373 . S
C4928 C4930 1.389 . S
C4929 H4908 0.950 . S
C4929 C4928 1.373 . S
C4929 C4945 1.377 . S
C4930 C4928 1.389 . S
C4930 C4931 1.524 . S
C4930 C4944 1.377 . S
C4931 C4930 1.524 . S
C4931 C4932 1.397 . S
C4931 C4936 1.363 . S
C4932 H4909 0.950 . S
C4932 C4931 1.397 . S
C4932 C4933 1.334 . S
C4933 H4910 0.950 . S
C4933 C4932 1.334 . S
C4933 C4934 1.287 . S
C4934 C4933 1.287 . S
C4934 C4935 1.524 . S
C4934 H4953 0.913 . S
C4935 H4911 0.950 . S
C4935 C4934 1.524 . S
C4935 C4936 1.415 . S
C4936 H4912 0.950 . S
C4936 C4931 1.363 . S
C4936 C4935 1.415 . S
C4937 H4913 0.951 . S
C4937 C4938 1.366 . S
C4937 C4939 1.388 . S
C4938 C4937 1.366 . S
C4938 C4942 1.385 . S
C4939 H4914 0.951 . S
C4939 C4937 1.388 . S
C4939 C4940 1.366 . S
C4940 C4939 1.366 . S
C4940 C4941 1.414 . S
C4940 C4943 1.499 . S
C4941 H4915 0.950 . S
C4941 C4940 1.414 . S
C4941 C4942 1.374 . S
C4942 H4916 0.950 . S
C4942 C4938 1.385 . S
C4942 C4941 1.374 . S
C4943 C4940 1.499 . S
C4943 C4944 1.373 . S
C4943 C4945 1.389 . S
C4944 H4917 0.950 . S
C4944 C4930 1.377 . S
C4944 C4943 1.373 . S
C4945 C4929 1.377 . S
C4945 C4943 1.389 . S
C4945 C4946 1.524 . S
C4946 C4945 1.524 . S
C4946 C4947 1.397 . S
C4946 C4951 1.363 . S
C4947 H4918 0.950 . S
C4947 C4946 1.397 . S
C4947 C4948 1.334 . S
C4948 H4919 0.950 . S
C4948 C4947 1.334 . S
C4948 C4949 1.287 . S
C4949 C4948 1.287 . S
C4949 C4950 1.524 . S
C4949 H4952 0.999 . S
C4950 H4920 0.950 . S
C4950 C4949 1.524 . S
C4950 C4951 1.415 . S
C4951 H4921 0.950 . S
C4951 C4946 1.363 . S
C4951 C4950 1.415 . S
H4952 C4949 0.999 . S
H4953 C4934 0.913 . S
H4954 C4972 0.951 . S
H4955 C4974 0.951 . S
H4956 C4976 0.950 . S
H4957 C4977 0.950 . S
H4958 C4979 0.950 . S
H4959 C4982 0.950 1_545 S
H4960 C4983 0.950 1_545 S
H4961 C4985 0.950 . S
H4962 C4986 0.950 . S
H4963 C4987 0.951 . S
H4964 C4989 0.951 . S
H4965 C4991 0.950 . S
H4966 C4992 0.950 . S
H4967 C4994 0.950 . S
H4968 C4997 0.950 . S
H4969 C4998 0.950 . S
H4970 C5000 0.950 . S
H4971 C5001 0.950 . S
C4972 H4954 0.951 . S
C4972 C4973 1.366 . S
C4972 C4974 1.388 . S
C4973 C4972 1.366 . S
C4973 C4977 1.385 1_565 S
C4974 H4955 0.951 . S
C4974 C4972 1.388 . S
C4974 C4975 1.366 . S
C4975 C4974 1.366 . S
C4975 C4976 1.414 1_565 S
C4975 C4978 1.499 . S
C4976 H4956 0.950 . S
C4976 C4975 1.414 1_545 S
C4976 C4977 1.374 . S
C4977 H4957 0.950 . S
C4977 C4973 1.385 1_545 S
C4977 C4976 1.374 . S
C4978 C4975 1.499 . S
C4978 C4979 1.373 . S
C4978 C4980 1.389 . S
C4979 H4958 0.950 . S
C4979 C4978 1.373 . S
C4979 C4995 1.377 . S
C4980 C4978 1.389 . S
C4980 C4981 1.524 . S
C4980 C4994 1.377 . S
C4981 C4980 1.524 . S
C4981 C4982 1.397 . S
C4981 C4986 1.363 . S
C4982 H4959 0.950 1_565 S
C4982 C4981 1.397 . S
C4982 C4983 1.334 . S
C4983 H4960 0.950 1_565 S
C4983 C4982 1.334 . S
C4983 C4984 1.287 . S
C4984 C4983 1.287 . S
C4984 C4985 1.524 . S
C4984 H5003 0.913 . S
C4985 H4961 0.950 . S
C4985 C4984 1.524 . S
C4985 C4986 1.415 . S
C4986 H4962 0.950 . S
C4986 C4981 1.363 . S
C4986 C4985 1.415 . S
C4987 H4963 0.951 . S
C4987 C4988 1.366 1_545 S
C4987 C4989 1.388 . S
C4988 C4987 1.366 1_565 S
C4988 C4992 1.385 . S
C4989 H4964 0.951 . S
C4989 C4987 1.388 . S
C4989 C4990 1.366 1_545 S
C4990 C4989 1.366 1_565 S
C4990 C4991 1.414 . S
C4990 C4993 1.499 . S
C4991 H4965 0.950 . S
C4991 C4990 1.414 . S
C4991 C4992 1.374 . S
C4992 H4966 0.950 . S
C4992 C4988 1.385 . S
C4992 C4991 1.374 . S
C4993 C4990 1.499 . S
C4993 C4994 1.373 . S
C4993 C4995 1.389 . S
C4994 H4967 0.950 . S
C4994 C4980 1.377 . S
C4994 C4993 1.373 . S
C4995 C4979 1.377 . S
C4995 C4993 1.389 . S
C4995 C4996 1.524 . S
C4996 C4995 1.524 . S
C4996 C4997 1.397 . S
C4996 C5001 1.363 1_565 S
C4997 H4968 0.950 . S
C4997 C4996 1.397 . S
C4997 C4998 1.334 . S
C4998 H4969 0.950 . S
C4998 C4997 1.334 . S
C4998 C4999 1.287 . S
C4999 C4998 1.287 . S
C4999 C5000 1.524 1_565 S
C4999 H5002 1.000 1_565 S
C5000 H4970 0.950 . S
C5000 C4999 1.524 1_545 S
C5000 C5001 1.415 . S
C5001 H4971 0.950 . S
C5001 C4996 1.363 1_545 S
C5001 C5000 1.415 . S
H5002 C4999 1.000 1_545 S
H5003 C4984 0.913 . S
H5004 C5022 0.951 . S
H5005 C5024 0.951 . S
H5006 C5026 0.950 . S
H5007 C5027 0.950 . S
H5008 C5029 0.950 1_545 S
H5009 C5032 0.950 . S
H5010 C5033 0.950 . S
H5011 C5035 0.950 . S
H5012 C5036 0.950 . S
H5013 C5037 0.951 . S
H5014 C5039 0.951 . S
H5015 C5041 0.961 . S
H5016 C5042 0.950 . S
H5017 C5044 0.950 . S
H5018 C5047 0.950 . S
H5019 C5048 0.950 . S
H5020 C5050 0.950 . S
H5021 C5051 0.960 . S
C5022 H5004 0.951 . S
C5022 C5023 1.366 . S
C5022 C5024 1.388 . S
C5023 C5022 1.366 . S
C5023 C5027 1.385 . S
C5024 H5005 0.951 . S
C5024 C5022 1.388 . S
C5024 C5025 1.366 . S
C5025 C5024 1.366 . S
C5025 C5026 1.414 . S
C5025 C5028 1.499 . S
C5026 H5006 0.950 . S
C5026 C5025 1.414 . S
C5026 C5027 1.374 . S
C5027 H5007 0.950 . S
C5027 C5023 1.385 . S
C5027 C5026 1.374 . S
C5028 C5025 1.499 . S
C5028 C5029 1.373 . S
C5028 C5030 1.389 . S
C5029 H5008 0.950 1_565 S
C5029 C5028 1.373 . S
C5029 C5045 1.327 1_565 S
C5030 C5028 1.389 . S
C5030 C5031 1.524 . S
C5030 C5044 1.377 . S
C5031 C5030 1.524 . S
C5031 C5032 1.397 . S
C5031 C5036 1.363 . S
C5032 H5009 0.950 . S
C5032 C5031 1.397 . S
C5032 C5033 1.334 . S
C5033 H5010 0.950 . S
C5033 C5032 1.334 . S
C5033 C5034 1.287 . S
C5034 C5033 1.287 . S
C5034 C5035 1.524 . S
C5034 H5053 0.913 . S
C5035 H5011 0.950 . S
C5035 C5034 1.524 . S
C5035 C5036 1.415 . S
C5036 H5012 0.950 . S
C5036 C5031 1.363 . S
C5036 C5035 1.415 . S
C5037 H5013 0.951 . S
C5037 C5038 1.366 . S
C5037 C5039 1.388 . S
C5038 C5037 1.366 . S
C5038 C5042 1.385 1_565 S
C5039 H5014 0.951 . S
C5039 C5037 1.388 . S
C5039 C5040 1.366 . S
C5040 C5039 1.366 . S
C5040 C5041 1.383 1_565 S
C5040 C5043 1.499 . S
C5041 H5015 0.961 . S
C5041 C5040 1.383 1_545 S
C5041 C5042 1.395 . S
C5042 H5016 0.950 . S
C5042 C5038 1.385 1_545 S
C5042 C5041 1.395 . S
C5043 C5040 1.499 . S
C5043 C5044 1.373 . S
C5043 C5045 1.405 1_565 S
C5044 H5017 0.950 . S
C5044 C5030 1.377 . S
C5044 C5043 1.373 . S
C5045 C5029 1.327 1_545 S
C5045 C5043 1.405 1_545 S
C5045 C5046 1.570 . S
C5046 C5045 1.570 . S
C5046 C5047 1.397 . S
C5046 C5051 1.363 . S
C5047 H5018 0.950 . S
C5047 C5046 1.397 . S
C5047 C5048 1.334 . S
C5048 H5019 0.950 . S
C5048 C5047 1.334 . S
C5048 C5049 1.287 . S
C5049 C5048 1.287 . S
C5049 C5050 1.524 . S
C5049 H5052 0.999 . S
C5050 H5020 0.950 . S
C5050 C5049 1.524 . S
C5050 C5051 1.415 . S
C5051 H5021 0.960 . S
C5051 C5046 1.363 . S
C5051 C5050 1.415 . S
H5052 C5049 0.999 . S
H5053 C5034 0.913 . S
H5054 C5072 0.951 1_655 S
H5055 C5074 0.964 . S
H5056 C5076 0.950 . S
H5057 C5077 0.950 . S
H5058 C5079 0.950 . S
H5059 C5082 0.950 . S
H5060 C5083 0.950 . S
H5061 C5085 0.950 . S
H5062 C5086 0.950 . S
H5063 C5087 0.951 . S
H5064 C5089 0.951 . S
H5065 C5091 0.950 . S
H5066 C5092 0.950 . S
H5067 C5094 0.950 . S
H5068 C5097 0.950 . S
H5069 C5098 0.950 . S
H5070 C5100 0.950 . S
H5071 C5101 0.950 . S
C5072 H5054 0.951 1_455 S
C5072 C5073 1.366 . S
C5072 C5074 1.394 1_455 S
C5073 C5072 1.366 . S
C5073 C5077 1.385 . S
C5074 H5055 0.964 . S
C5074 C5072 1.394 1_655 S
C5074 C5075 1.346 1_655 S
C5075 C5074 1.346 1_455 S
C5075 C5076 1.414 . S
C5075 C5078 1.499 . S
C5076 H5056 0.950 . S
C5076 C5075 1.414 . S
C5076 C5077 1.374 . S
C5077 H5057 0.950 . S
C5077 C5073 1.385 . S
C5077 C5076 1.374 . S
C5078 C5075 1.499 . S
C5078 C5079 1.373 . S
C5078 C5080 1.389 1_455 S
C5079 H5058 0.950 . S
C5079 C5078 1.373 . S
C5079 C5095 1.377 . S
C5080 C5078 1.389 1_655 S
C5080 C5081 1.524 . S
C5080 C5094 1.377 . S
C5081 C5080 1.524 . S
C5081 C5082 1.397 . S
C5081 C5086 1.363 . S
C5082 H5059 0.950 . S
C5082 C5081 1.397 . S
C5082 C5083 1.334 . S
C5083 H5060 0.950 . S
C5083 C5082 1.334 . S
C5083 C5084 1.287 . S
C5084 C5083 1.287 . S
C5084 C5085 1.524 . S
C5084 H5103 0.913 . S
C5085 H5061 0.950 . S
C5085 C5084 1.524 . S
C5085 C5086 1.415 . S
C5086 H5062 0.950 . S
C5086 C5081 1.363 . S
C5086 C5085 1.415 . S
C5087 H5063 0.951 . S
C5087 C5088 1.402 . S
C5087 C5089 1.388 . S
C5088 C5087 1.402 . S
C5088 C5092 1.331 1_455 S
C5089 H5064 0.951 . S
C5089 C5087 1.388 . S
C5089 C5090 1.366 . S
C5090 C5089 1.366 . S
C5090 C5091 1.414 1_455 S
C5090 C5093 1.499 . S
C5091 H5065 0.950 . S
C5091 C5090 1.414 1_655 S
C5091 C5092 1.374 . S
C5092 H5066 0.950 . S
C5092 C5088 1.331 1_655 S
C5092 C5091 1.374 . S
C5093 C5090 1.499 . S
C5093 C5094 1.373 1_455 S
C5093 C5095 1.389 . S
C5094 H5067 0.950 . S
C5094 C5080 1.377 . S
C5094 C5093 1.373 1_655 S
C5095 C5079 1.377 . S
C5095 C5093 1.389 . S
C5095 C5096 1.524 . S
C5096 C5095 1.524 . S
C5096 C5097 1.397 . S
C5096 C5101 1.363 . S
C5097 H5068 0.950 . S
C5097 C5096 1.397 . S
C5097 C5098 1.334 . S
C5098 H5069 0.950 . S
C5098 C5097 1.334 . S
C5098 C5099 1.287 . S
C5099 C5098 1.287 . S
C5099 C5100 1.524 . S
C5099 H5102 0.999 . S
C5100 H5070 0.950 . S
C5100 C5099 1.524 . S
C5100 C5101 1.415 . S
C5101 H5071 0.950 . S
C5101 C5096 1.363 . S
C5101 C5100 1.415 . S
H5102 C5099 0.999 . S
H5103 C5084 0.913 . S
H5104 C5122 0.951 . S
H5105 C5124 0.951 . S
H5106 C5126 0.950 . S
H5107 C5127 0.950 . S
H5108 C5129 0.950 . S
H5109 C5132 0.950 . S
H5110 C5133 0.950 . S
H5111 C5135 0.950 . S
H5112 C5136 0.950 . S
H5113 C5137 0.951 . S
H5114 C5139 0.951 . S
H5115 C5141 0.950 . S
H5116 C5142 0.950 . S
H5117 C5144 0.950 . S
H5118 C5147 0.950 . S
H5119 C5148 0.950 . S
H5120 C5150 0.950 . S
H5121 C5151 0.950 . S
C5122 H5104 0.951 . S
C5122 C5123 1.366 . S
C5122 C5124 1.388 . S
C5123 C5122 1.366 . S
C5123 C5127 1.385 . S
C5124 H5105 0.951 . S
C5124 C5122 1.388 . S
C5124 C5125 1.366 . S
C5125 C5124 1.366 . S
C5125 C5126 1.414 . S
C5125 C5128 1.499 . S
C5126 H5106 0.950 . S
C5126 C5125 1.414 . S
C5126 C5127 1.374 . S
C5127 H5107 0.950 . S
C5127 C5123 1.385 . S
C5127 C5126 1.374 . S
C5128 C5125 1.499 . S
C5128 C5129 1.373 . S
C5128 C5130 1.389 . S
C5129 H5108 0.950 . S
C5129 C5128 1.373 . S
C5129 C5145 1.377 . S
C5130 C5128 1.389 . S
C5130 C5131 1.524 . S
C5130 C5144 1.377 . S
C5131 C5130 1.524 . S
C5131 C5132 1.397 . S
C5131 C5136 1.363 . S
C5132 H5109 0.950 . S
C5132 C5131 1.397 . S
C5132 C5133 1.334 . S
C5133 H5110 0.950 . S
C5133 C5132 1.334 . S
C5133 C5134 1.287 . S
C5134 C5133 1.287 . S
C5134 C5135 1.524 . S
C5134 H5153 0.913 . S
C5135 H5111 0.950 . S
C5135 C5134 1.524 . S
C5135 C5136 1.415 . S
C5136 H5112 0.950 . S
C5136 C5131 1.363 . S
C5136 C5135 1.415 . S
C5137 H5113 0.951 . S
C5137 C5138 1.366 . S
C5137 C5139 1.388 . S
C5138 C5137 1.366 . S
C5138 C5142 1.385 . S
C5139 H5114 0.951 . S
C5139 C5137 1.388 . S
C5139 C5140 1.366 . S
C5140 C5139 1.366 . S
C5140 C5141 1.414 . S
C5140 C5143 1.499 . S
C5141 H5115 0.950 . S
C5141 C5140 1.414 . S
C5141 C5142 1.374 . S
C5142 H5116 0.950 . S
C5142 C5138 1.385 . S
C5142 C5141 1.374 . S
C5143 C5140 1.499 . S
C5143 C5144 1.373 . S
C5143 C5145 1.389 . S
C5144 H5117 0.950 . S
C5144 C5130 1.377 . S
C5144 C5143 1.373 . S
C5145 C5129 1.377 . S
C5145 C5143 1.389 . S
C5145 C5146 1.524 . S
C5146 C5145 1.524 . S
C5146 C5147 1.397 . S
C5146 C5151 1.363 . S
C5147 H5118 0.950 . S
C5147 C5146 1.397 . S
C5147 C5148 1.334 . S
C5148 H5119 0.950 . S
C5148 C5147 1.334 . S
C5148 C5149 1.287 . S
C5149 C5148 1.287 . S
C5149 C5150 1.524 . S
C5149 H5152 0.999 . S
C5150 H5120 0.950 . S
C5150 C5149 1.524 . S
C5150 C5151 1.415 . S
C5151 H5121 0.950 . S
C5151 C5146 1.363 . S
C5151 C5150 1.415 . S
H5152 C5149 0.999 . S
H5153 C5134 0.913 . S
H5154 C5172 0.951 . S
H5155 C5174 0.951 . S
H5156 C5176 0.950 . S
H5157 C5177 0.950 . S
H5158 C5179 0.950 . S
H5159 C5182 0.950 . S
H5160 C5183 0.950 . S
H5161 C5185 0.950 . S
H5162 C5186 0.950 . S
H5163 C5187 0.951 . S
H5164 C5189 0.951 . S
H5165 C5191 0.950 . S
H5166 C5192 0.950 . S
H5167 C5194 0.950 . S
H5168 C5197 0.950 . S
H5169 C5198 0.950 . S
H5170 C5200 0.950 . S
H5171 C5201 0.950 . S
C5172 H5154 0.951 . S
C5172 C5173 1.366 . S
C5172 C5174 1.388 . S
C5173 C5172 1.366 . S
C5173 C5177 1.385 . S
C5174 H5155 0.951 . S
C5174 C5172 1.388 . S
C5174 C5175 1.366 . S
C5175 C5174 1.366 . S
C5175 C5176 1.414 . S
C5175 C5178 1.499 . S
C5176 H5156 0.950 . S
C5176 C5175 1.414 . S
C5176 C5177 1.374 . S
C5177 H5157 0.950 . S
C5177 C5173 1.385 . S
C5177 C5176 1.374 . S
C5178 C5175 1.499 . S
C5178 C5179 1.373 . S
C5178 C5180 1.389 . S
C5179 H5158 0.950 . S
C5179 C5178 1.373 . S
C5179 C5195 1.377 . S
C5180 C5178 1.389 . S
C5180 C5181 1.524 . S
C5180 C5194 1.377 . S
C5181 C5180 1.524 . S
C5181 C5182 1.397 . S
C5181 C5186 1.363 . S
C5182 H5159 0.950 . S
C5182 C5181 1.397 . S
C5182 C5183 1.334 . S
C5183 H5160 0.950 . S
C5183 C5182 1.334 . S
C5183 C5184 1.287 . S
C5184 C5183 1.287 . S
C5184 C5185 1.524 . S
C5184 H5203 0.913 . S
C5185 H5161 0.950 . S
C5185 C5184 1.524 . S
C5185 C5186 1.415 . S
C5186 H5162 0.950 . S
C5186 C5181 1.363 . S
C5186 C5185 1.415 . S
C5187 H5163 0.951 . S
C5187 C5188 1.366 . S
C5187 C5189 1.388 . S
C5188 C5187 1.366 . S
C5188 C5192 1.385 . S
C5189 H5164 0.951 . S
C5189 C5187 1.388 . S
C5189 C5190 1.366 . S
C5190 C5189 1.366 . S
C5190 C5191 1.414 . S
C5190 C5193 1.499 . S
C5191 H5165 0.950 . S
C5191 C5190 1.414 . S
C5191 C5192 1.374 . S
C5192 H5166 0.950 . S
C5192 C5188 1.385 . S
C5192 C5191 1.374 . S
C5193 C5190 1.499 . S
C5193 C5194 1.373 . S
C5193 C5195 1.389 . S
C5194 H5167 0.950 . S
C5194 C5180 1.377 . S
C5194 C5193 1.373 . S
C5195 C5179 1.377 . S
C5195 C5193 1.389 . S
C5195 C5196 1.524 . S
C5196 C5195 1.524 . S
C5196 C5197 1.397 . S
C5196 C5201 1.363 . S
C5197 H5168 0.950 . S
C5197 C5196 1.397 . S
C5197 C5198 1.334 . S
C5198 H5169 0.950 . S
C5198 C5197 1.334 . S
C5198 C5199 1.287 . S
C5199 C5198 1.287 . S
C5199 C5200 1.524 . S
C5199 H5202 0.999 . S
C5200 H5170 0.950 . S
C5200 C5199 1.524 . S
C5200 C5201 1.415 . S
C5201 H5171 0.950 . S
C5201 C5196 1.363 . S
C5201 C5200 1.415 . S
H5202 C5199 0.999 . S
H5203 C5184 0.913 . S
H5204 C5222 0.951 . S
H5205 C5224 0.951 . S
H5206 C5226 0.950 . S
H5207 C5227 0.950 . S
H5208 C5229 0.950 . S
H5209 C5232 0.950 . S
H5210 C5233 0.950 . S
H5211 C5235 0.950 . S
H5212 C5236 0.950 . S
H5213 C5237 0.951 . S
H5214 C5239 0.951 . S
H5215 C5241 0.950 . S
H5216 C5242 0.950 . S
H5217 C5244 0.950 . S
H5218 C5247 0.950 . S
H5219 C5248 0.950 . S
H5220 C5250 0.950 . S
H5221 C5251 0.950 . S
C5222 H5204 0.951 . S
C5222 C5223 1.366 . S
C5222 C5224 1.388 . S
C5223 C5222 1.366 . S
C5223 C5227 1.385 . S
C5224 H5205 0.951 . S
C5224 C5222 1.388 . S
C5224 C5225 1.366 . S
C5225 C5224 1.366 . S
C5225 C5226 1.414 . S
C5225 C5228 1.499 . S
C5226 H5206 0.950 . S
C5226 C5225 1.414 . S
C5226 C5227 1.374 . S
C5227 H5207 0.950 . S
C5227 C5223 1.385 . S
C5227 C5226 1.374 . S
C5228 C5225 1.499 . S
C5228 C5229 1.373 . S
C5228 C5230 1.389 . S
C5229 H5208 0.950 . S
C5229 C5228 1.373 . S
C5229 C5245 1.377 . S
C5230 C5228 1.389 . S
C5230 C5231 1.524 . S
C5230 C5244 1.377 . S
C5231 C5230 1.524 . S
C5231 C5232 1.397 . S
C5231 C5236 1.363 . S
C5232 H5209 0.950 . S
C5232 C5231 1.397 . S
C5232 C5233 1.334 . S
C5233 H5210 0.950 . S
C5233 C5232 1.334 . S
C5233 C5234 1.287 . S
C5234 C5233 1.287 . S
C5234 C5235 1.524 . S
C5234 H5253 0.913 . S
C5235 H5211 0.950 . S
C5235 C5234 1.524 . S
C5235 C5236 1.415 . S
C5236 H5212 0.950 . S
C5236 C5231 1.363 . S
C5236 C5235 1.415 . S
C5237 H5213 0.951 . S
C5237 C5238 1.366 . S
C5237 C5239 1.388 . S
C5238 C5237 1.366 . S
C5238 C5242 1.385 . S
C5239 H5214 0.951 . S
C5239 C5237 1.388 . S
C5239 C5240 1.366 . S
C5240 C5239 1.366 . S
C5240 C5241 1.414 . S
C5240 C5243 1.499 . S
C5241 H5215 0.950 . S
C5241 C5240 1.414 . S
C5241 C5242 1.374 . S
C5242 H5216 0.950 . S
C5242 C5238 1.385 . S
C5242 C5241 1.374 . S
C5243 C5240 1.499 . S
C5243 C5244 1.373 . S
C5243 C5245 1.389 . S
C5244 H5217 0.950 . S
C5244 C5230 1.377 . S
C5244 C5243 1.373 . S
C5245 C5229 1.377 . S
C5245 C5243 1.389 . S
C5245 C5246 1.524 . S
C5246 C5245 1.524 . S
C5246 C5247 1.397 . S
C5246 C5251 1.363 . S
C5247 H5218 0.950 . S
C5247 C5246 1.397 . S
C5247 C5248 1.334 . S
C5248 H5219 0.950 . S
C5248 C5247 1.334 . S
C5248 C5249 1.287 . S
C5249 C5248 1.287 . S
C5249 C5250 1.524 . S
C5249 H5252 0.999 . S
C5250 H5220 0.950 . S
C5250 C5249 1.524 . S
C5250 C5251 1.415 . S
C5251 H5221 0.950 . S
C5251 C5246 1.363 . S
C5251 C5250 1.415 . S
H5252 C5249 0.999 . S
H5253 C5234 0.913 . S
H5254 C5272 0.951 . S
H5255 C5274 0.951 . S
H5256 C5276 0.950 . S
H5257 C5277 0.950 . S
H5258 C5279 0.950 . S
H5259 C5282 0.950 . S
H5260 C5283 0.950 . S
H5261 C5285 0.950 . S
H5262 C5286 0.950 . S
H5263 C5287 0.951 . S
H5264 C5289 0.951 . S
H5265 C5291 0.950 . S
H5266 C5292 0.950 . S
H5267 C5294 0.950 . S
H5268 C5297 0.950 . S
H5269 C5298 0.950 . S
H5270 C5300 0.950 . S
H5271 C5301 0.950 . S
C5272 H5254 0.951 . S
C5272 C5273 1.366 . S
C5272 C5274 1.388 . S
C5273 C5272 1.366 . S
C5273 C5277 1.385 . S
C5274 H5255 0.951 . S
C5274 C5272 1.388 . S
C5274 C5275 1.366 . S
C5275 C5274 1.366 . S
C5275 C5276 1.414 . S
C5275 C5278 1.499 . S
C5276 H5256 0.950 . S
C5276 C5275 1.414 . S
C5276 C5277 1.374 . S
C5277 H5257 0.950 . S
C5277 C5273 1.385 . S
C5277 C5276 1.374 . S
C5278 C5275 1.499 . S
C5278 C5279 1.373 . S
C5278 C5280 1.389 . S
C5279 H5258 0.950 . S
C5279 C5278 1.373 . S
C5279 C5295 1.377 . S
C5280 C5278 1.389 . S
C5280 C5281 1.524 . S
C5280 C5294 1.377 . S
C5281 C5280 1.524 . S
C5281 C5282 1.397 . S
C5281 C5286 1.363 . S
C5282 H5259 0.950 . S
C5282 C5281 1.397 . S
C5282 C5283 1.334 . S
C5283 H5260 0.950 . S
C5283 C5282 1.334 . S
C5283 C5284 1.287 . S
C5284 C5283 1.287 . S
C5284 C5285 1.524 . S
C5284 H5303 0.913 . S
C5285 H5261 0.950 . S
C5285 C5284 1.524 . S
C5285 C5286 1.415 . S
C5286 H5262 0.950 . S
C5286 C5281 1.363 . S
C5286 C5285 1.415 . S
C5287 H5263 0.951 . S
C5287 C5288 1.366 . S
C5287 C5289 1.388 . S
C5288 C5287 1.366 . S
C5288 C5292 1.385 . S
C5289 H5264 0.951 . S
C5289 C5287 1.388 . S
C5289 C5290 1.366 . S
C5290 C5289 1.366 . S
C5290 C5291 1.414 . S
C5290 C5293 1.499 . S
C5291 H5265 0.950 . S
C5291 C5290 1.414 . S
C5291 C5292 1.374 . S
C5292 H5266 0.950 . S
C5292 C5288 1.385 . S
C5292 C5291 1.374 . S
C5293 C5290 1.499 . S
C5293 C5294 1.373 . S
C5293 C5295 1.389 . S
C5294 H5267 0.950 . S
C5294 C5280 1.377 . S
C5294 C5293 1.373 . S
C5295 C5279 1.377 . S
C5295 C5293 1.389 . S
C5295 C5296 1.524 . S
C5296 C5295 1.524 . S
C5296 C5297 1.397 . S
C5296 C5301 1.363 . S
C5297 H5268 0.950 . S
C5297 C5296 1.397 . S
C5297 C5298 1.334 . S
C5298 H5269 0.950 . S
C5298 C5297 1.334 . S
C5298 C5299 1.287 . S
C5299 C5298 1.287 . S
C5299 C5300 1.524 . S
C5299 H5302 0.999 . S
C5300 H5270 0.950 . S
C5300 C5299 1.524 . S
C5300 C5301 1.415 . S
C5301 H5271 0.950 . S
C5301 C5296 1.363 . S
C5301 C5300 1.415 . S
H5302 C5299 0.999 . S
H5303 C5284 0.913 . S
H5304 C5322 0.951 . S
H5305 C5324 0.951 . S
H5306 C5326 0.950 . S
H5307 C5327 0.950 . S
H5308 C5329 0.950 . S
H5309 C5332 0.950 . S
H5310 C5333 0.950 . S
H5311 C5335 0.950 . S
H5312 C5336 0.950 . S
H5313 C5337 0.951 1_565 S
H5314 C5339 0.969 1_565 S
H5315 C5341 0.950 . S
H5316 C5342 0.950 . S
H5317 C5344 0.950 . S
H5318 C5347 0.950 . S
H5319 C5348 0.950 . S
H5320 C5350 0.950 . S
H5321 C5351 0.950 . S
C5322 H5304 0.951 . S
C5322 C5323 1.366 . S
C5322 C5324 1.388 . S
C5323 C5322 1.366 . S
C5323 C5327 1.385 . S
C5324 H5305 0.951 . S
C5324 C5322 1.388 . S
C5324 C5325 1.366 . S
C5325 C5324 1.366 . S
C5325 C5326 1.414 . S
C5325 C5328 1.499 . S
C5326 H5306 0.950 . S
C5326 C5325 1.414 . S
C5326 C5327 1.374 . S
C5327 H5307 0.950 . S
C5327 C5323 1.385 . S
C5327 C5326 1.374 . S
C5328 C5325 1.499 . S
C5328 C5329 1.373 . S
C5328 C5330 1.389 . S
C5329 H5308 0.950 . S
C5329 C5328 1.373 . S
C5329 C5345 1.377 . S
C5330 C5328 1.389 . S
C5330 C5331 1.524 1_545 S
C5330 C5344 1.377 . S
C5331 C5330 1.524 1_565 S
C5331 C5332 1.397 . S
C5331 C5336 1.363 1_565 S
C5332 H5309 0.950 . S
C5332 C5331 1.397 . S
C5332 C5333 1.334 . S
C5333 H5310 0.950 . S
C5333 C5332 1.334 . S
C5333 C5334 1.287 . S
C5334 C5333 1.287 . S
C5334 C5335 1.524 . S
C5334 H5353 0.913 . S
C5335 H5311 0.950 . S
C5335 C5334 1.524 . S
C5335 C5336 1.415 1_565 S
C5336 H5312 0.950 . S
C5336 C5331 1.363 1_545 S
C5336 C5335 1.415 1_545 S
C5337 H5313 0.951 1_545 S
C5337 C5338 1.366 . S
C5337 C5339 1.388 . S
C5338 C5337 1.366 . S
C5338 C5342 1.385 . S
C5339 H5314 0.969 1_545 S
C5339 C5337 1.388 . S
C5339 C5340 1.366 . S
C5340 C5339 1.366 . S
C5340 C5341 1.414 . S
C5340 C5343 1.499 . S
C5341 H5315 0.950 . S
C5341 C5340 1.414 . S
C5341 C5342 1.374 . S
C5342 H5316 0.950 . S
C5342 C5338 1.385 . S
C5342 C5341 1.374 . S
C5343 C5340 1.499 . S
C5343 C5344 1.373 . S
C5343 C5345 1.389 . S
C5344 H5317 0.950 . S
C5344 C5330 1.377 . S
C5344 C5343 1.373 . S
C5345 C5329 1.377 . S
C5345 C5343 1.389 . S
C5345 C5346 1.524 . S
C5346 C5345 1.524 . S
C5346 C5347 1.397 . S
C5346 C5351 1.363 . S
C5347 H5318 0.950 . S
C5347 C5346 1.397 . S
C5347 C5348 1.334 . S
C5348 H5319 0.950 . S
C5348 C5347 1.334 . S
C5348 C5349 1.287 . S
C5349 C5348 1.287 . S
C5349 C5350 1.524 . S
C5349 H5352 0.999 . S
C5350 H5320 0.950 . S
C5350 C5349 1.524 . S
C5350 C5351 1.415 . S
C5351 H5321 0.950 . S
C5351 C5346 1.363 . S
C5351 C5350 1.415 . S
H5352 C5349 0.999 . S
H5353 C5334 0.913 . S
H5354 C5372 0.951 . S
H5355 C5374 0.951 . S
H5356 C5376 0.950 . S
H5357 C5377 0.950 . S
H5358 C5379 0.950 . S
H5359 C5382 0.950 . S
H5360 C5383 0.950 . S
H5361 C5385 0.950 . S
H5362 C5386 0.950 . S
H5363 C5387 0.951 . S
H5364 C5389 0.951 . S
H5365 C5391 0.950 . S
H5366 C5392 0.950 . S
H5367 C5394 0.950 . S
H5368 C5397 0.950 . S
H5369 C5398 0.950 . S
H5370 C5400 0.950 . S
H5371 C5401 0.950 . S
C5372 H5354 0.951 . S
C5372 C5373 1.366 . S
C5372 C5374 1.388 . S
C5373 C5372 1.366 . S
C5373 C5377 1.385 1_655 S
C5374 H5355 0.951 . S
C5374 C5372 1.388 . S
C5374 C5375 1.366 . S
C5375 C5374 1.366 . S
C5375 C5376 1.414 1_655 S
C5375 C5378 1.499 . S
C5376 H5356 0.950 . S
C5376 C5375 1.414 1_455 S
C5376 C5377 1.374 . S
C5377 H5357 0.950 . S
C5377 C5373 1.385 1_455 S
C5377 C5376 1.374 . S
C5378 C5375 1.499 . S
C5378 C5379 1.373 1_655 S
C5378 C5380 1.389 . S
C5379 H5358 0.950 . S
C5379 C5378 1.373 1_455 S
C5379 C5395 1.377 . S
C5380 C5378 1.389 . S
C5380 C5381 1.524 . S
C5380 C5394 1.377 . S
C5381 C5380 1.524 . S
C5381 C5382 1.397 . S
C5381 C5386 1.363 . S
C5382 H5359 0.950 . S
C5382 C5381 1.397 . S
C5382 C5383 1.334 . S
C5383 H5360 0.950 . S
C5383 C5382 1.334 . S
C5383 C5384 1.287 . S
C5384 C5383 1.287 . S
C5384 C5385 1.524 . S
C5384 H5403 0.913 . S
C5385 H5361 0.950 . S
C5385 C5384 1.524 . S
C5385 C5386 1.415 . S
C5386 H5362 0.950 . S
C5386 C5381 1.363 . S
C5386 C5385 1.415 . S
C5387 H5363 0.951 . S
C5387 C5388 1.366 1_455 S
C5387 C5389 1.388 . S
C5388 C5387 1.366 1_655 S
C5388 C5392 1.385 . S
C5389 H5364 0.951 . S
C5389 C5387 1.388 . S
C5389 C5390 1.366 1_455 S
C5390 C5389 1.366 1_655 S
C5390 C5391 1.414 . S
C5390 C5393 1.499 . S
C5391 H5365 0.950 . S
C5391 C5390 1.414 . S
C5391 C5392 1.374 . S
C5392 H5366 0.950 . S
C5392 C5388 1.385 . S
C5392 C5391 1.374 . S
C5393 C5390 1.499 . S
C5393 C5394 1.373 . S
C5393 C5395 1.389 1_655 S
C5394 H5367 0.950 . S
C5394 C5380 1.377 . S
C5394 C5393 1.373 . S
C5395 C5379 1.377 . S
C5395 C5393 1.389 1_455 S
C5395 C5396 1.524 . S
C5396 C5395 1.524 . S
C5396 C5397 1.397 . S
C5396 C5401 1.363 . S
C5397 H5368 0.950 . S
C5397 C5396 1.397 . S
C5397 C5398 1.334 . S
C5398 H5369 0.950 . S
C5398 C5397 1.334 . S
C5398 C5399 1.287 . S
C5399 C5398 1.287 . S
C5399 C5400 1.524 . S
C5399 H5402 0.999 . S
C5400 H5370 0.950 . S
C5400 C5399 1.524 . S
C5400 C5401 1.415 . S
C5401 H5371 0.950 . S
C5401 C5396 1.363 . S
C5401 C5400 1.415 . S
H5402 C5399 0.999 . S
H5403 C5384 0.913 . S
H5404 C5422 0.951 . S
H5405 C5424 0.951 . S
H5406 C5426 0.950 . S
H5407 C5427 0.950 . S
H5408 C5429 0.950 . S
H5409 C5432 0.950 . S
H5410 C5433 0.950 . S
H5411 C5435 0.950 . S
H5412 C5436 0.950 . S
H5413 C5437 0.951 . S
H5414 C5439 0.951 . S
H5415 C5441 0.950 . S
H5416 C5442 0.950 . S
H5417 C5444 0.950 . S
H5418 C5447 0.950 . S
H5419 C5448 0.950 . S
H5420 C5450 0.950 . S
H5421 C5451 0.950 . S
C5422 H5404 0.951 . S
C5422 C5423 1.366 . S
C5422 C5424 1.388 . S
C5423 C5422 1.366 . S
C5423 C5427 1.385 . S
C5424 H5405 0.951 . S
C5424 C5422 1.388 . S
C5424 C5425 1.366 . S
C5425 C5424 1.366 . S
C5425 C5426 1.414 . S
C5425 C5428 1.499 . S
C5426 H5406 0.950 . S
C5426 C5425 1.414 . S
C5426 C5427 1.374 . S
C5427 H5407 0.950 . S
C5427 C5423 1.385 . S
C5427 C5426 1.374 . S
C5428 C5425 1.499 . S
C5428 C5429 1.373 . S
C5428 C5430 1.389 . S
C5429 H5408 0.950 . S
C5429 C5428 1.373 . S
C5429 C5445 1.377 . S
C5430 C5428 1.389 . S
C5430 C5431 1.524 . S
C5430 C5444 1.377 . S
C5431 C5430 1.524 . S
C5431 C5432 1.397 . S
C5431 C5436 1.363 . S
C5432 H5409 0.950 . S
C5432 C5431 1.397 . S
C5432 C5433 1.334 . S
C5433 H5410 0.950 . S
C5433 C5432 1.334 . S
C5433 C5434 1.287 . S
C5434 C5433 1.287 . S
C5434 C5435 1.524 . S
C5434 H5453 0.913 . S
C5435 H5411 0.950 . S
C5435 C5434 1.524 . S
C5435 C5436 1.415 . S
C5436 H5412 0.950 . S
C5436 C5431 1.363 . S
C5436 C5435 1.415 . S
C5437 H5413 0.951 . S
C5437 C5438 1.366 . S
C5437 C5439 1.388 . S
C5438 C5437 1.366 . S
C5438 C5442 1.385 . S
C5439 H5414 0.951 . S
C5439 C5437 1.388 . S
C5439 C5440 1.366 . S
C5440 C5439 1.366 . S
C5440 C5441 1.414 . S
C5440 C5443 1.499 . S
C5441 H5415 0.950 . S
C5441 C5440 1.414 . S
C5441 C5442 1.374 . S
C5442 H5416 0.950 . S
C5442 C5438 1.385 . S
C5442 C5441 1.374 . S
C5443 C5440 1.499 . S
C5443 C5444 1.373 . S
C5443 C5445 1.389 . S
C5444 H5417 0.950 . S
C5444 C5430 1.377 . S
C5444 C5443 1.373 . S
C5445 C5429 1.377 . S
C5445 C5443 1.389 . S
C5445 C5446 1.524 . S
C5446 C5445 1.524 . S
C5446 C5447 1.397 . S
C5446 C5451 1.363 . S
C5447 H5418 0.950 . S
C5447 C5446 1.397 . S
C5447 C5448 1.334 . S
C5448 H5419 0.950 . S
C5448 C5447 1.334 . S
C5448 C5449 1.287 . S
C5449 C5448 1.287 . S
C5449 C5450 1.524 . S
C5449 H5452 0.999 . S
C5450 H5420 0.950 . S
C5450 C5449 1.524 . S
C5450 C5451 1.415 . S
C5451 H5421 0.950 . S
C5451 C5446 1.363 . S
C5451 C5450 1.415 . S
H5452 C5449 0.999 . S
H5453 C5434 0.913 . S
H5454 C5472 0.951 . S
H5455 C5474 0.951 . S
H5456 C5476 0.950 . S
H5457 C5477 0.950 . S
H5458 C5479 0.950 . S
H5459 C5482 0.950 . S
H5460 C5483 0.950 . S
H5461 C5485 0.950 . S
H5462 C5486 0.950 . S
H5463 C5487 0.951 . S
H5464 C5489 0.951 . S
H5465 C5491 0.950 . S
H5466 C5492 0.950 . S
H5467 C5494 0.950 . S
H5468 C5497 0.950 . S
H5469 C5498 0.950 . S
H5470 C5500 0.950 . S
H5471 C5501 0.950 . S
C5472 H5454 0.951 . S
C5472 C5473 1.366 . S
C5472 C5474 1.388 . S
C5473 C5472 1.366 . S
C5473 C5477 1.385 . S
C5474 H5455 0.951 . S
C5474 C5472 1.388 . S
C5474 C5475 1.366 . S
C5475 C5474 1.366 . S
C5475 C5476 1.414 . S
C5475 C5478 1.499 . S
C5476 H5456 0.950 . S
C5476 C5475 1.414 . S
C5476 C5477 1.374 . S
C5477 H5457 0.950 . S
C5477 C5473 1.385 . S
C5477 C5476 1.374 . S
C5478 C5475 1.499 . S
C5478 C5479 1.373 . S
C5478 C5480 1.389 . S
C5479 H5458 0.950 . S
C5479 C5478 1.373 . S
C5479 C5495 1.377 . S
C5480 C5478 1.389 . S
C5480 C5481 1.524 . S
C5480 C5494 1.377 . S
C5481 C5480 1.524 . S
C5481 C5482 1.397 . S
C5481 C5486 1.363 . S
C5482 H5459 0.950 . S
C5482 C5481 1.397 . S
C5482 C5483 1.334 . S
C5483 H5460 0.950 . S
C5483 C5482 1.334 . S
C5483 C5484 1.287 . S
C5484 C5483 1.287 . S
C5484 C5485 1.524 . S
C5484 H5503 0.913 . S
C5485 H5461 0.950 . S
C5485 C5484 1.524 . S
C5485 C5486 1.415 . S
C5486 H5462 0.950 . S
C5486 C5481 1.363 . S
C5486 C5485 1.415 . S
C5487 H5463 0.951 . S
C5487 C5488 1.366 . S
C5487 C5489 1.388 . S
C5488 C5487 1.366 . S
C5488 C5492 1.385 . S
C5489 H5464 0.951 . S
C5489 C5487 1.388 . S
C5489 C5490 1.366 . S
C5490 C5489 1.366 . S
C5490 C5491 1.414 . S
C5490 C5493 1.499 . S
C5491 H5465 0.950 . S
C5491 C5490 1.414 . S
C5491 C5492 1.374 . S
C5492 H5466 0.950 . S
C5492 C5488 1.385 . S
C5492 C5491 1.374 . S
C5493 C5490 1.499 . S
C5493 C5494 1.373 . S
C5493 C5495 1.389 . S
C5494 H5467 0.950 . S
C5494 C5480 1.377 . S
C5494 C5493 1.373 . S
C5495 C5479 1.377 . S
C5495 C5493 1.389 . S
C5495 C5496 1.524 . S
C5496 C5495 1.524 . S
C5496 C5497 1.397 . S
C5496 C5501 1.363 . S
C5497 H5468 0.950 . S
C5497 C5496 1.397 . S
C5497 C5498 1.334 . S
C5498 H5469 0.950 . S
C5498 C5497 1.334 . S
C5498 C5499 1.287 . S
C5499 C5498 1.287 . S
C5499 C5500 1.524 . S
C5499 H5502 0.999 . S
C5500 H5470 0.950 . S
C5500 C5499 1.524 . S
C5500 C5501 1.415 . S
C5501 H5471 0.950 . S
C5501 C5496 1.363 . S
C5501 C5500 1.415 . S
H5502 C5499 0.999 . S
H5503 C5484 0.913 . S
H5504 C5522 0.951 . S
H5505 C5524 0.951 . S
H5506 C5526 0.950 . S
H5507 C5527 0.950 . S
H5508 C5529 0.950 . S
H5509 C5532 0.950 . S
H5510 C5533 0.950 . S
H5511 C5535 0.950 . S
H5512 C5536 0.950 . S
H5513 C5537 0.951 . S
H5514 C5539 0.951 . S
H5515 C5541 0.950 . S
H5516 C5542 0.950 . S
H5517 C5544 0.950 . S
H5518 C5547 0.950 . S
H5519 C5548 0.950 . S
H5520 C5550 0.950 . S
H5521 C5551 0.950 . S
C5522 H5504 0.951 . S
C5522 C5523 1.366 . S
C5522 C5524 1.388 . S
C5523 C5522 1.366 . S
C5523 C5527 1.385 . S
C5524 H5505 0.951 . S
C5524 C5522 1.388 . S
C5524 C5525 1.366 . S
C5525 C5524 1.366 . S
C5525 C5526 1.414 . S
C5525 C5528 1.499 . S
C5526 H5506 0.950 . S
C5526 C5525 1.414 . S
C5526 C5527 1.374 . S
C5527 H5507 0.950 . S
C5527 C5523 1.385 . S
C5527 C5526 1.374 . S
C5528 C5525 1.499 . S
C5528 C5529 1.373 . S
C5528 C5530 1.389 . S
C5529 H5508 0.950 . S
C5529 C5528 1.373 . S
C5529 C5545 1.377 . S
C5530 C5528 1.389 . S
C5530 C5531 1.524 . S
C5530 C5544 1.377 . S
C5531 C5530 1.524 . S
C5531 C5532 1.397 . S
C5531 C5536 1.363 . S
C5532 H5509 0.950 . S
C5532 C5531 1.397 . S
C5532 C5533 1.334 . S
C5533 H5510 0.950 . S
C5533 C5532 1.334 . S
C5533 C5534 1.287 . S
C5534 C5533 1.287 . S
C5534 C5535 1.524 . S
C5534 H5553 0.913 . S
C5535 H5511 0.950 . S
C5535 C5534 1.524 . S
C5535 C5536 1.415 . S
C5536 H5512 0.950 . S
C5536 C5531 1.363 . S
C5536 C5535 1.415 . S
C5537 H5513 0.951 . S
C5537 C5538 1.366 . S
C5537 C5539 1.388 . S
C5538 C5537 1.366 . S
C5538 C5542 1.385 . S
C5539 H5514 0.951 . S
C5539 C5537 1.388 . S
C5539 C5540 1.366 . S
C5540 C5539 1.366 . S
C5540 C5541 1.414 . S
C5540 C5543 1.499 . S
C5541 H5515 0.950 . S
C5541 C5540 1.414 . S
C5541 C5542 1.374 . S
C5542 H5516 0.950 . S
C5542 C5538 1.385 . S
C5542 C5541 1.374 . S
C5543 C5540 1.499 . S
C5543 C5544 1.373 . S
C5543 C5545 1.389 . S
C5544 H5517 0.950 . S
C5544 C5530 1.377 . S
C5544 C5543 1.373 . S
C5545 C5529 1.377 . S
C5545 C5543 1.389 . S
C5545 C5546 1.524 . S
C5546 C5545 1.524 . S
C5546 C5547 1.397 . S
C5546 C5551 1.363 . S
C5547 H5518 0.950 . S
C5547 C5546 1.397 . S
C5547 C5548 1.334 . S
C5548 H5519 0.950 . S
C5548 C5547 1.334 . S
C5548 C5549 1.287 . S
C5549 C5548 1.287 . S
C5549 C5550 1.524 . S
C5549 H5552 0.999 . S
C5550 H5520 0.950 . S
C5550 C5549 1.524 . S
C5550 C5551 1.415 . S
C5551 H5521 0.950 . S
C5551 C5546 1.363 . S
C5551 C5550 1.415 . S
H5552 C5549 0.999 . S
H5553 C5534 0.913 . S
H5554 C5572 0.951 . S
H5555 C5574 0.951 . S
H5556 C5576 0.950 . S
H5557 C5577 0.950 . S
H5558 C5579 0.950 . S
H5559 C5582 0.950 . S
H5560 C5583 0.950 . S
H5561 C5585 0.950 . S
H5562 C5586 0.950 . S
H5563 C5587 0.951 . S
H5564 C5589 0.951 . S
H5565 C5591 0.950 . S
H5566 C5592 0.950 . S
H5567 C5594 0.950 . S
H5568 C5597 0.950 . S
H5569 C5598 0.950 . S
H5570 C5600 0.950 . S
H5571 C5601 0.950 . S
C5572 H5554 0.951 . S
C5572 C5573 1.366 . S
C5572 C5574 1.388 . S
C5573 C5572 1.366 . S
C5573 C5577 1.385 . S
C5574 H5555 0.951 . S
C5574 C5572 1.388 . S
C5574 C5575 1.366 . S
C5575 C5574 1.366 . S
C5575 C5576 1.414 . S
C5575 C5578 1.499 . S
C5576 H5556 0.950 . S
C5576 C5575 1.414 . S
C5576 C5577 1.374 . S
C5577 H5557 0.950 . S
C5577 C5573 1.385 . S
C5577 C5576 1.374 . S
C5578 C5575 1.499 . S
C5578 C5579 1.373 . S
C5578 C5580 1.389 . S
C5579 H5558 0.950 . S
C5579 C5578 1.373 . S
C5579 C5595 1.377 . S
C5580 C5578 1.389 . S
C5580 C5581 1.524 . S
C5580 C5594 1.377 . S
C5581 C5580 1.524 . S
C5581 C5582 1.397 . S
C5581 C5586 1.363 . S
C5582 H5559 0.950 . S
C5582 C5581 1.397 . S
C5582 C5583 1.334 . S
C5583 H5560 0.950 . S
C5583 C5582 1.334 . S
C5583 C5584 1.287 . S
C5584 C5583 1.287 . S
C5584 C5585 1.524 . S
C5584 H5603 0.913 . S
C5585 H5561 0.950 . S
C5585 C5584 1.524 . S
C5585 C5586 1.415 . S
C5586 H5562 0.950 . S
C5586 C5581 1.363 . S
C5586 C5585 1.415 . S
C5587 H5563 0.951 . S
C5587 C5588 1.366 . S
C5587 C5589 1.388 . S
C5588 C5587 1.366 . S
C5588 C5592 1.385 . S
C5589 H5564 0.951 . S
C5589 C5587 1.388 . S
C5589 C5590 1.366 . S
C5590 C5589 1.366 . S
C5590 C5591 1.414 . S
C5590 C5593 1.499 . S
C5591 H5565 0.950 . S
C5591 C5590 1.414 . S
C5591 C5592 1.374 . S
C5592 H5566 0.950 . S
C5592 C5588 1.385 . S
C5592 C5591 1.374 . S
C5593 C5590 1.499 . S
C5593 C5594 1.373 . S
C5593 C5595 1.389 . S
C5594 H5567 0.950 . S
C5594 C5580 1.377 . S
C5594 C5593 1.373 . S
C5595 C5579 1.377 . S
C5595 C5593 1.389 . S
C5595 C5596 1.524 . S
C5596 C5595 1.524 . S
C5596 C5597 1.397 . S
C5596 C5601 1.363 . S
C5597 H5568 0.950 . S
C5597 C5596 1.397 . S
C5597 C5598 1.334 . S
C5598 H5569 0.950 . S
C5598 C5597 1.334 . S
C5598 C5599 1.287 . S
C5599 C5598 1.287 . S
C5599 C5600 1.524 . S
C5599 H5602 0.999 . S
C5600 H5570 0.950 . S
C5600 C5599 1.524 . S
C5600 C5601 1.415 . S
C5601 H5571 0.950 . S
C5601 C5596 1.363 . S
C5601 C5600 1.415 . S
H5602 C5599 0.999 . S
H5603 C5584 0.913 . S
H5604 C5622 0.951 . S
H5605 C5624 0.951 . S
H5606 C5626 0.950 . S
H5607 C5627 0.950 . S
H5608 C5629 0.950 . S
H5609 C5632 0.950 . S
H5610 C5633 0.950 . S
H5611 C5635 0.950 . S
H5612 C5636 0.950 . S
H5613 C5637 0.951 . S
H5614 C5639 0.951 . S
H5615 C5641 0.950 . S
H5616 C5642 0.950 . S
H5617 C5644 0.950 . S
H5618 C5647 0.950 . S
H5619 C5648 0.950 . S
H5620 C5650 0.950 . S
H5621 C5651 0.950 . S
C5622 H5604 0.951 . S
C5622 C5623 1.366 . S
C5622 C5624 1.388 . S
C5623 C5622 1.366 . S
C5623 C5627 1.385 . S
C5624 H5605 0.951 . S
C5624 C5622 1.388 . S
C5624 C5625 1.366 . S
C5625 C5624 1.366 . S
C5625 C5626 1.414 . S
C5625 C5628 1.499 . S
C5626 H5606 0.950 . S
C5626 C5625 1.414 . S
C5626 C5627 1.374 . S
C5627 H5607 0.950 . S
C5627 C5623 1.385 . S
C5627 C5626 1.374 . S
C5628 C5625 1.499 . S
C5628 C5629 1.373 . S
C5628 C5630 1.389 . S
C5629 H5608 0.950 . S
C5629 C5628 1.373 . S
C5629 C5645 1.377 . S
C5630 C5628 1.389 . S
C5630 C5631 1.524 . S
C5630 C5644 1.377 . S
C5631 C5630 1.524 . S
C5631 C5632 1.397 . S
C5631 C5636 1.363 . S
C5632 H5609 0.950 . S
C5632 C5631 1.397 . S
C5632 C5633 1.334 . S
C5633 H5610 0.950 . S
C5633 C5632 1.334 . S
C5633 C5634 1.287 . S
C5634 C5633 1.287 . S
C5634 C5635 1.524 . S
C5634 H5653 0.913 . S
C5635 H5611 0.950 . S
C5635 C5634 1.524 . S
C5635 C5636 1.415 . S
C5636 H5612 0.950 . S
C5636 C5631 1.363 . S
C5636 C5635 1.415 . S
C5637 H5613 0.951 . S
C5637 C5638 1.366 . S
C5637 C5639 1.388 . S
C5638 C5637 1.366 . S
C5638 C5642 1.385 . S
C5639 H5614 0.951 . S
C5639 C5637 1.388 . S
C5639 C5640 1.366 . S
C5640 C5639 1.366 . S
C5640 C5641 1.414 . S
C5640 C5643 1.499 . S
C5641 H5615 0.950 . S
C5641 C5640 1.414 . S
C5641 C5642 1.374 . S
C5642 H5616 0.950 . S
C5642 C5638 1.385 . S
C5642 C5641 1.374 . S
C5643 C5640 1.499 . S
C5643 C5644 1.373 . S
C5643 C5645 1.389 . S
C5644 H5617 0.950 . S
C5644 C5630 1.377 . S
C5644 C5643 1.373 . S
C5645 C5629 1.377 . S
C5645 C5643 1.389 . S
C5645 C5646 1.524 . S
C5646 C5645 1.524 . S
C5646 C5647 1.397 . S
C5646 C5651 1.363 . S
C5647 H5618 0.950 . S
C5647 C5646 1.397 . S
C5647 C5648 1.334 . S
C5648 H5619 0.950 . S
C5648 C5647 1.334 . S
C5648 C5649 1.287 . S
C5649 C5648 1.287 . S
C5649 C5650 1.524 . S
C5649 H5652 0.999 . S
C5650 H5620 0.950 . S
C5650 C5649 1.524 . S
C5650 C5651 1.415 . S
C5651 H5621 0.950 . S
C5651 C5646 1.363 . S
C5651 C5650 1.415 . S
H5652 C5649 0.999 . S
H5653 C5634 0.913 . S
H5654 C5672 0.951 . S
H5655 C5674 0.951 . S
H5656 C5676 0.950 . S
H5657 C5677 0.950 . S
H5658 C5679 0.950 . S
H5659 C5682 0.950 . S
H5660 C5683 0.950 . S
H5661 C5685 0.950 . S
H5662 C5686 0.950 . S
H5663 C5687 0.951 . S
H5664 C5689 0.951 . S
H5665 C5691 0.950 . S
H5666 C5692 0.950 . S
H5667 C5694 0.950 . S
H5668 C5697 0.950 . S
H5669 C5698 0.950 . S
H5670 C5700 0.950 . S
H5671 C5701 0.950 . S
C5672 H5654 0.951 . S
C5672 C5673 1.366 . S
C5672 C5674 1.388 . S
C5673 C5672 1.366 . S
C5673 C5677 1.385 . S
C5674 H5655 0.951 . S
C5674 C5672 1.388 . S
C5674 C5675 1.366 . S
C5675 C5674 1.366 . S
C5675 C5676 1.414 . S
C5675 C5678 1.499 . S
C5676 H5656 0.950 . S
C5676 C5675 1.414 . S
C5676 C5677 1.374 . S
C5677 H5657 0.950 . S
C5677 C5673 1.385 . S
C5677 C5676 1.374 . S
C5678 C5675 1.499 . S
C5678 C5679 1.373 . S
C5678 C5680 1.389 . S
C5679 H5658 0.950 . S
C5679 C5678 1.373 . S
C5679 C5695 1.377 . S
C5680 C5678 1.389 . S
C5680 C5681 1.524 . S
C5680 C5694 1.377 . S
C5681 C5680 1.524 . S
C5681 C5682 1.397 . S
C5681 C5686 1.363 . S
C5682 H5659 0.950 . S
C5682 C5681 1.397 . S
C5682 C5683 1.334 . S
C5683 H5660 0.950 . S
C5683 C5682 1.334 . S
C5683 C5684 1.287 . S
C5684 C5683 1.287 . S
C5684 C5685 1.524 . S
C5684 H5703 0.913 . S
C5685 H5661 0.950 . S
C5685 C5684 1.524 . S
C5685 C5686 1.415 . S
C5686 H5662 0.950 . S
C5686 C5681 1.363 . S
C5686 C5685 1.415 . S
C5687 H5663 0.951 . S
C5687 C5688 1.366 . S
C5687 C5689 1.388 . S
C5688 C5687 1.366 . S
C5688 C5692 1.385 . S
C5689 H5664 0.951 . S
C5689 C5687 1.388 . S
C5689 C5690 1.366 . S
C5690 C5689 1.366 . S
C5690 C5691 1.414 . S
C5690 C5693 1.499 . S
C5691 H5665 0.950 . S
C5691 C5690 1.414 . S
C5691 C5692 1.374 . S
C5692 H5666 0.950 . S
C5692 C5688 1.385 . S
C5692 C5691 1.374 . S
C5693 C5690 1.499 . S
C5693 C5694 1.373 . S
C5693 C5695 1.389 . S
C5694 H5667 0.950 . S
C5694 C5680 1.377 . S
C5694 C5693 1.373 . S
C5695 C5679 1.377 . S
C5695 C5693 1.389 . S
C5695 C5696 1.524 . S
C5696 C5695 1.524 . S
C5696 C5697 1.397 . S
C5696 C5701 1.363 . S
C5697 H5668 0.950 . S
C5697 C5696 1.397 . S
C5697 C5698 1.334 . S
C5698 H5669 0.950 . S
C5698 C5697 1.334 . S
C5698 C5699 1.287 . S
C5699 C5698 1.287 . S
C5699 C5700 1.524 . S
C5699 H5702 0.999 . S
C5700 H5670 0.950 . S
C5700 C5699 1.524 . S
C5700 C5701 1.415 . S
C5701 H5671 0.950 . S
C5701 C5696 1.363 . S
C5701 C5700 1.415 . S
H5702 C5699 0.999 . S
H5703 C5684 0.913 . S
H5704 C5722 0.951 . S
H5705 C5724 0.951 . S
H5706 C5726 0.950 . S
H5707 C5727 0.950 . S
H5708 C5729 0.950 . S
H5709 C5732 0.950 . S
H5710 C5733 0.950 . S
H5711 C5735 0.950 . S
H5712 C5736 0.950 . S
H5713 C5737 0.951 . S
H5714 C5739 0.951 . S
H5715 C5741 0.950 . S
H5716 C5742 0.950 . S
H5717 C5744 0.950 . S
H5718 C5747 0.950 . S
H5719 C5748 0.950 . S
H5720 C5750 0.950 . S
H5721 C5751 0.950 . S
C5722 H5704 0.951 . S
C5722 C5723 1.366 . S
C5722 C5724 1.388 . S
C5723 C5722 1.366 . S
C5723 C5727 1.385 . S
C5724 H5705 0.951 . S
C5724 C5722 1.388 . S
C5724 C5725 1.366 . S
C5725 C5724 1.366 . S
C5725 C5726 1.414 . S
C5725 C5728 1.499 . S
C5726 H5706 0.950 . S
C5726 C5725 1.414 . S
C5726 C5727 1.374 . S
C5727 H5707 0.950 . S
C5727 C5723 1.385 . S
C5727 C5726 1.374 . S
C5728 C5725 1.499 . S
C5728 C5729 1.373 . S
C5728 C5730 1.389 . S
C5729 H5708 0.950 . S
C5729 C5728 1.373 . S
C5729 C5745 1.377 . S
C5730 C5728 1.389 . S
C5730 C5731 1.524 . S
C5730 C5744 1.377 . S
C5731 C5730 1.524 . S
C5731 C5732 1.397 . S
C5731 C5736 1.363 . S
C5732 H5709 0.950 . S
C5732 C5731 1.397 . S
C5732 C5733 1.334 . S
C5733 H5710 0.950 . S
C5733 C5732 1.334 . S
C5733 C5734 1.287 . S
C5734 C5733 1.287 . S
C5734 C5735 1.524 . S
C5734 H5753 0.913 . S
C5735 H5711 0.950 . S
C5735 C5734 1.524 . S
C5735 C5736 1.415 . S
C5736 H5712 0.950 . S
C5736 C5731 1.363 . S
C5736 C5735 1.415 . S
C5737 H5713 0.951 . S
C5737 C5738 1.366 . S
C5737 C5739 1.388 . S
C5738 C5737 1.366 . S
C5738 C5742 1.385 . S
C5739 H5714 0.951 . S
C5739 C5737 1.388 . S
C5739 C5740 1.366 . S
C5740 C5739 1.366 . S
C5740 C5741 1.414 . S
C5740 C5743 1.499 . S
C5741 H5715 0.950 . S
C5741 C5740 1.414 . S
C5741 C5742 1.374 . S
C5742 H5716 0.950 . S
C5742 C5738 1.385 . S
C5742 C5741 1.374 . S
C5743 C5740 1.499 . S
C5743 C5744 1.373 . S
C5743 C5745 1.389 . S
C5744 H5717 0.950 . S
C5744 C5730 1.377 . S
C5744 C5743 1.373 . S
C5745 C5729 1.377 . S
C5745 C5743 1.389 . S
C5745 C5746 1.524 . S
C5746 C5745 1.524 . S
C5746 C5747 1.397 . S
C5746 C5751 1.363 . S
C5747 H5718 0.950 . S
C5747 C5746 1.397 . S
C5747 C5748 1.334 . S
C5748 H5719 0.950 . S
C5748 C5747 1.334 . S
C5748 C5749 1.287 . S
C5749 C5748 1.287 . S
C5749 C5750 1.524 . S
C5749 H5752 0.999 . S
C5750 H5720 0.950 . S
C5750 C5749 1.524 . S
C5750 C5751 1.415 . S
C5751 H5721 0.950 . S
C5751 C5746 1.363 . S
C5751 C5750 1.415 . S
H5752 C5749 0.999 . S
H5753 C5734 0.913 . S
H5754 C5772 0.951 . S
H5755 C5774 0.951 . S
H5756 C5776 0.950 . S
H5757 C5777 0.950 . S
H5758 C5779 0.950 . S
H5759 C5782 0.950 . S
H5760 C5783 0.950 . S
H5761 C5785 0.950 . S
H5762 C5786 0.950 . S
H5763 C5787 0.951 . S
H5764 C5789 0.951 . S
H5765 C5791 0.950 . S
H5766 C5792 0.950 . S
H5767 C5794 0.950 . S
H5768 C5797 0.950 . S
H5769 C5798 0.950 . S
H5770 C5800 0.950 . S
H5771 C5801 0.950 . S
C5772 H5754 0.951 . S
C5772 C5773 1.366 . S
C5772 C5774 1.388 . S
C5773 C5772 1.366 . S
C5773 C5777 1.385 . S
C5774 H5755 0.951 . S
C5774 C5772 1.388 . S
C5774 C5775 1.366 . S
C5775 C5774 1.366 . S
C5775 C5776 1.414 . S
C5775 C5778 1.499 . S
C5776 H5756 0.950 . S
C5776 C5775 1.414 . S
C5776 C5777 1.374 . S
C5777 H5757 0.950 . S
C5777 C5773 1.385 . S
C5777 C5776 1.374 . S
C5778 C5775 1.499 . S
C5778 C5779 1.373 . S
C5778 C5780 1.389 1_655 S
C5779 H5758 0.950 . S
C5779 C5778 1.373 . S
C5779 C5795 1.377 . S
C5780 C5778 1.389 1_455 S
C5780 C5781 1.524 . S
C5780 C5794 1.377 . S
C5781 C5780 1.524 . S
C5781 C5782 1.397 . S
C5781 C5786 1.363 . S
C5782 H5759 0.950 . S
C5782 C5781 1.397 . S
C5782 C5783 1.334 . S
C5783 H5760 0.950 . S
C5783 C5782 1.334 . S
C5783 C5784 1.287 . S
C5784 C5783 1.287 . S
C5784 C5785 1.524 . S
C5784 H5803 0.913 . S
C5785 H5761 0.950 . S
C5785 C5784 1.524 . S
C5785 C5786 1.415 . S
C5786 H5762 0.950 . S
C5786 C5781 1.363 . S
C5786 C5785 1.415 . S
C5787 H5763 0.951 . S
C5787 C5788 1.366 . S
C5787 C5789 1.388 . S
C5788 C5787 1.366 . S
C5788 C5792 1.385 . S
C5789 H5764 0.951 . S
C5789 C5787 1.388 . S
C5789 C5790 1.366 . S
C5790 C5789 1.366 . S
C5790 C5791 1.414 . S
C5790 C5793 1.499 . S
C5791 H5765 0.950 . S
C5791 C5790 1.414 . S
C5791 C5792 1.374 . S
C5792 H5766 0.950 . S
C5792 C5788 1.385 . S
C5792 C5791 1.374 . S
C5793 C5790 1.499 . S
C5793 C5794 1.373 1_655 S
C5793 C5795 1.389 . S
C5794 H5767 0.950 . S
C5794 C5780 1.377 . S
C5794 C5793 1.373 1_455 S
C5795 C5779 1.377 . S
C5795 C5793 1.389 . S
C5795 C5796 1.524 . S
C5796 C5795 1.524 . S
C5796 C5797 1.397 . S
C5796 C5801 1.363 . S
C5797 H5768 0.950 . S
C5797 C5796 1.397 . S
C5797 C5798 1.334 . S
C5798 H5769 0.950 . S
C5798 C5797 1.334 . S
C5798 C5799 1.287 . S
C5799 C5798 1.287 . S
C5799 C5800 1.524 . S
C5799 H5802 0.999 . S
C5800 H5770 0.950 . S
C5800 C5799 1.524 . S
C5800 C5801 1.415 . S
C5801 H5771 0.950 . S
C5801 C5796 1.363 . S
C5801 C5800 1.415 . S
H5802 C5799 0.999 . S
H5803 C5784 0.913 . S
H5804 C5822 0.951 . S
H5805 C5824 0.951 . S
H5806 C5826 0.950 . S
H5807 C5827 0.950 . S
H5808 C5829 0.950 . S
H5809 C5832 0.950 . S
H5810 C5833 0.950 . S
H5811 C5835 0.950 . S
H5812 C5836 0.950 . S
H5813 C5837 0.951 . S
H5814 C5839 0.951 . S
H5815 C5841 0.950 . S
H5816 C5842 0.950 . S
H5817 C5844 0.950 . S
H5818 C5847 0.950 . S
H5819 C5848 0.950 . S
H5820 C5850 0.950 . S
H5821 C5851 0.950 . S
C5822 H5804 0.951 . S
C5822 C5823 1.366 . S
C5822 C5824 1.388 . S
C5823 C5822 1.366 . S
C5823 C5827 1.385 . S
C5824 H5805 0.951 . S
C5824 C5822 1.388 . S
C5824 C5825 1.366 . S
C5825 C5824 1.366 . S
C5825 C5826 1.414 . S
C5825 C5828 1.499 . S
C5826 H5806 0.950 . S
C5826 C5825 1.414 . S
C5826 C5827 1.374 . S
C5827 H5807 0.950 . S
C5827 C5823 1.385 . S
C5827 C5826 1.374 . S
C5828 C5825 1.499 . S
C5828 C5829 1.373 . S
C5828 C5830 1.389 . S
C5829 H5808 0.950 . S
C5829 C5828 1.373 . S
C5829 C5845 1.377 . S
C5830 C5828 1.389 . S
C5830 C5831 1.524 . S
C5830 C5844 1.377 . S
C5831 C5830 1.524 . S
C5831 C5832 1.397 . S
C5831 C5836 1.363 . S
C5832 H5809 0.950 . S
C5832 C5831 1.397 . S
C5832 C5833 1.334 . S
C5833 H5810 0.950 . S
C5833 C5832 1.334 . S
C5833 C5834 1.287 . S
C5834 C5833 1.287 . S
C5834 C5835 1.524 . S
C5834 H5853 0.913 . S
C5835 H5811 0.950 . S
C5835 C5834 1.524 . S
C5835 C5836 1.415 . S
C5836 H5812 0.950 . S
C5836 C5831 1.363 . S
C5836 C5835 1.415 . S
C5837 H5813 0.951 . S
C5837 C5838 1.366 . S
C5837 C5839 1.388 . S
C5838 C5837 1.366 . S
C5838 C5842 1.385 . S
C5839 H5814 0.951 . S
C5839 C5837 1.388 . S
C5839 C5840 1.366 . S
C5840 C5839 1.366 . S
C5840 C5841 1.414 . S
C5840 C5843 1.499 . S
C5841 H5815 0.950 . S
C5841 C5840 1.414 . S
C5841 C5842 1.374 . S
C5842 H5816 0.950 . S
C5842 C5838 1.385 . S
C5842 C5841 1.374 . S
C5843 C5840 1.499 . S
C5843 C5844 1.373 . S
C5843 C5845 1.389 . S
C5844 H5817 0.950 . S
C5844 C5830 1.377 . S
C5844 C5843 1.373 . S
C5845 C5829 1.377 . S
C5845 C5843 1.389 . S
C5845 C5846 1.524 . S
C5846 C5845 1.524 . S
C5846 C5847 1.397 . S
C5846 C5851 1.363 . S
C5847 H5818 0.950 . S
C5847 C5846 1.397 . S
C5847 C5848 1.334 . S
C5848 H5819 0.950 . S
C5848 C5847 1.334 . S
C5848 C5849 1.287 . S
C5849 C5848 1.287 . S
C5849 C5850 1.524 . S
C5849 H5852 0.999 . S
C5850 H5820 0.950 . S
C5850 C5849 1.524 . S
C5850 C5851 1.415 . S
C5851 H5821 0.950 . S
C5851 C5846 1.363 . S
C5851 C5850 1.415 . S
H5852 C5849 0.999 . S
H5853 C5834 0.913 . S
H5854 C5872 0.951 . S
H5855 C5874 0.951 . S
H5856 C5876 0.950 . S
H5857 C5877 0.950 . S
H5858 C5879 0.950 1_565 S
H5859 C5882 0.950 . S
H5860 C5883 0.950 . S
H5861 C5885 0.950 . S
H5862 C5886 0.950 . S
H5863 C5887 0.951 . S
H5864 C5889 0.951 . S
H5865 C5891 0.950 . S
H5866 C5892 0.950 . S
H5867 C5894 0.950 . S
H5868 C5897 0.950 . S
H5869 C5898 0.950 . S
H5870 C5900 0.950 . S
H5871 C5901 0.989 . S
C5872 H5854 0.951 . S
C5872 C5873 1.366 . S
C5872 C5874 1.388 . S
C5873 C5872 1.366 . S
C5873 C5877 1.385 . S
C5874 H5855 0.951 . S
C5874 C5872 1.388 . S
C5874 C5875 1.366 . S
C5875 C5874 1.366 . S
C5875 C5876 1.414 . S
C5875 C5878 1.499 . S
C5876 H5856 0.950 . S
C5876 C5875 1.414 . S
C5876 C5877 1.374 . S
C5877 H5857 0.950 . S
C5877 C5873 1.385 . S
C5877 C5876 1.374 . S
C5878 C5875 1.499 . S
C5878 C5879 1.373 . S
C5878 C5880 1.389 . S
C5879 H5858 0.950 1_545 S
C5879 C5878 1.373 . S
C5879 C5895 1.385 1_545 S
C5880 C5878 1.389 . S
C5880 C5881 1.524 . S
C5880 C5894 1.377 . S
C5881 C5880 1.524 . S
C5881 C5882 1.397 . S
C5881 C5886 1.363 . S
C5882 H5859 0.950 . S
C5882 C5881 1.397 . S
C5882 C5883 1.334 . S
C5883 H5860 0.950 . S
C5883 C5882 1.334 . S
C5883 C5884 1.287 . S
C5884 C5883 1.287 . S
C5884 C5885 1.524 . S
C5884 H5903 0.913 . S
C5885 H5861 0.950 . S
C5885 C5884 1.524 . S
C5885 C5886 1.415 . S
C5886 H5862 0.950 . S
C5886 C5881 1.363 . S
C5886 C5885 1.415 . S
C5887 H5863 0.951 . S
C5887 C5888 1.366 . S
C5887 C5889 1.388 . S
C5888 C5887 1.366 . S
C5888 C5892 1.385 1_545 S
C5889 H5864 0.951 . S
C5889 C5887 1.388 . S
C5889 C5890 1.366 . S
C5890 C5889 1.366 . S
C5890 C5891 1.413 1_545 S
C5890 C5893 1.499 . S
C5891 H5865 0.950 . S
C5891 C5890 1.413 1_565 S
C5891 C5892 1.375 . S
C5892 H5866 0.950 . S
C5892 C5888 1.385 1_565 S
C5892 C5891 1.375 . S
C5893 C5890 1.499 . S
C5893 C5894 1.373 . S
C5893 C5895 1.364 1_545 S
C5894 H5867 0.950 . S
C5894 C5880 1.377 . S
C5894 C5893 1.373 . S
C5895 C5879 1.385 1_565 S
C5895 C5893 1.364 1_565 S
C5895 C5896 1.545 . S
C5896 C5895 1.545 . S
C5896 C5897 1.397 . S
C5896 C5901 1.363 . S
C5897 H5868 0.950 . S
C5897 C5896 1.397 . S
C5897 C5898 1.334 . S
C5898 H5869 0.950 . S
C5898 C5897 1.334 . S
C5898 C5899 1.287 . S
C5899 C5898 1.287 . S
C5899 C5900 1.524 . S
C5899 H5902 0.999 . S
C5900 H5870 0.950 . S
C5900 C5899 1.524 . S
C5900 C5901 1.415 . S
C5901 H5871 0.989 . S
C5901 C5896 1.363 . S
C5901 C5900 1.415 . S
H5902 C5899 0.999 . S
H5903 C5884 0.913 . S
C2323 C9 1.299 . S
C2338 C1307 1.041 . S
C2373 C19 1.690 . S
C2388 C1447 1.111 . S
C2438 C1535 1.146 . S
C2423 C33 1.389 . S
C2473 C37 1.396 1_565 S
C2488 C1675 1.055 1_565 S
C2523 C5 1.348 . S
C2538 C1789 1.063 . S
C2573 C23 1.746 . S
C2588 C1877 1.302 . S
C2623 C47 1.295 . S
C2638 C1763 1.092 . S
C2688 C1903 1.389 . S
C2673 C65 1.665 . S
C2738 C1649 1.122 . S
C2723 C75 1.344 . S
C2773 C79 1.321 . S
C2788 C1561 1.042 . S
C2838 C1333 1.052 . S
C2823 C51 1.376 . S
C2873 C61 1.635 . S
C2888 C1421 1.457 . S
C2923 C93 1.857 . S
C2938 C1991 1.376 . S
C2973 C103 1.777 . S
C2988 C2131 1.182 . S
C3038 C2219 1.325 . S
C3023 C117 1.762 . S
C3073 C121 1.804 . S
C3088 C307 1.186 . S
C3123 C89 1.822 . S
C3138 C421 1.202 . S
C3173 C107 1.821 . S
C3188 C509 1.369 . S
C3223 C131 1.541 . S
C3238 C395 1.371 . S
C3273 C149 1.730 . S
C3288 C535 1.472 . S
C3338 C281 1.488 . S
C3323 C159 1.669 . S
C3388 C2245 1.590 . S
C3373 C163 1.860 . S
C3438 C2017 1.481 . S
C3423 C135 1.747 . S
C3488 C2105 1.559 . S
C3473 C145 1.724 . S
C3523 C177 1.669 . S
C3538 C623 1.217 . S
C3573 C187 1.755 . S
C3588 C763 1.156 . S
C3623 C201 1.812 . S
C3638 C851 1.364 . S
C3673 C205 1.989 . S
C3688 C991 1.343 . S
C3738 C1105 1.170 . S
C3723 C173 1.784 . S
C3788 C1193 1.400 . S
C3773 C191 1.856 . S
C3838 C1079 1.559 . S
C3823 C215 1.747 . S
C3888 C1219 1.496 . S
C3873 C233 1.761 . S
C3923 C243 1.610 . S
C3938 C965 1.441 . S
C3988 C877 1.408 . S
C3973 C247 1.654 . S
C4023 C219 1.796 . S
C4038 C649 1.518 . S
C4088 C737 1.541 . S
C4073 C229 1.707 . S
C4138 C263 1.015 . S
C4123 C11 1.807 . S
C4173 C14 1.578 . S
C4188 C377 0.881 . S
C4238 C481 1.310 . S
C4223 C28 1.801 . S
C4288 C595 1.237 . S
C4273 C39 1.703 . S
C4338 C719 1.004 . S
C4323 C0 1.768 . S
C4388 C823 1.126 . S
C4373 C25 1.579 . S
C4423 C42 1.986 . S
C4438 C833 1.469 . S
C4473 C67 1.705 . S
C4488 C605 1.264 . S
C4523 C70 1.791 . S
C4538 C709 1.504 . S
C4573 C81 1.700 . S
C4588 C367 1.479 . S
C4638 C491 1.435 . S
C4623 C53 1.911 . S
C4673 C56 1.743 . S
C4688 C253 1.498 . S
C4738 C947 0.973 . S
C4723 C95 1.704 . S
C4773 C98 1.804 . S
C4788 C1061 1.056 . S
C4823 C112 1.854 1_655 S
C4838 C1165 1.398 . S
C4888 C1279 0.987 . S
C4873 C123 1.207 . S
C4923 C84 1.675 . S
C4938 C1403 0.956 . S
C4973 C109 1.248 . S
C4988 C1507 1.021 . S
C5023 C126 1.479 . S
C5038 C1517 0.945 1_565 S
C5073 C151 1.312 . S
C5088 C1289 0.873 1_455 S
C5138 C1393 1.445 . S
C5123 C154 1.690 . S
C5173 C165 1.601 . S
C5188 C1051 1.391 . S
C5223 C137 1.921 . S
C5238 C1175 1.451 . S
C5288 C937 1.689 . S
C5273 C140 1.948 . S
C5338 C1631 0.897 . S
C5323 C179 1.402 . S
C5373 C182 1.286 . S
C5388 C1745 0.860 . S
C5423 C196 1.718 . S
C5438 C1849 1.261 . S
C5488 C1963 1.183 . S
C5473 C207 1.606 . S
C5538 C2087 1.078 . S
C5523 C168 1.802 . S
C5573 C193 1.772 . S
C5588 C2191 1.321 . S
C5623 C210 1.901 . S
C5638 C2201 1.406 . S
C5673 C235 1.921 . S
C5688 C1973 1.441 . S
C5738 C2077 1.565 . S
C5723 C238 1.802 . S
C5788 C1735 0.951 1_655 S
C5773 C249 1.128 . S
C5838 C1859 1.331 . S
C5823 C221 1.801 . S
C5873 C224 1.348 . S
C5888 C1621 1.103 1_545 S
