# Generated by pormake.
# Topology zzz, (3,6)-cn, num edge types: 1
# Building blocks:
#     Node 0, Type 0, BuildingBlock: CUQRIR_clean_linker_1, # of connection points: 3
#     Node 1, Type 0, BuildingBlock: CUQRIR_clean_linker_1, # of connection points: 3
#     Node 2, Type 0, BuildingBlock: CUQRIR_clean_linker_1, # of connection points: 3
#     Node 3, Type 0, BuildingBlock: CUQRIR_clean_linker_1, # of connection points: 3
#     Node 4, Type 0, BuildingBlock: CUQRIR_clean_linker_1, # of connection points: 3
#     Node 5, Type 0, BuildingBlock: CUQRIR_clean_linker_1, # of connection points: 3
#     Node 6, Type 0, BuildingBlock: CUQRIR_clean_linker_1, # of connection points: 3
#     Node 7, Type 0, BuildingBlock: CUQRIR_clean_linker_1, # of connection points: 3
#     Node 8, Type 1, BuildingBlock: KUMBUR_clean_sbu_0, # of connection points: 6
#     Node 9, Type 1, BuildingBlock: KUMBUR_clean_sbu_0, # of connection points: 6
#     Node 10, Type 1, BuildingBlock: KUMBUR_clean_sbu_0, # of connection points: 6
#     Node 11, Type 1, BuildingBlock: KUMBUR_clean_sbu_0, # of connection points: 6
#     Edge 12, Type (0, 1), BuildingBlock: KIFKEQ_clean_linker_1, # of connection points: 2
#     Edge 13, Type (0, 1), BuildingBlock: KIFKEQ_clean_linker_1, # of connection points: 2
#     Edge 14, Type (0, 1), BuildingBlock: KIFKEQ_clean_linker_1, # of connection points: 2
#     Edge 15, Type (0, 1), BuildingBlock: KIFKEQ_clean_linker_1, # of connection points: 2
#     Edge 16, Type (0, 1), BuildingBlock: KIFKEQ_clean_linker_1, # of connection points: 2
#     Edge 17, Type (0, 1), BuildingBlock: KIFKEQ_clean_linker_1, # of connection points: 2
#     Edge 18, Type (0, 1), BuildingBlock: KIFKEQ_clean_linker_1, # of connection points: 2
#     Edge 19, Type (0, 1), BuildingBlock: KIFKEQ_clean_linker_1, # of connection points: 2
#     Edge 20, Type (0, 1), BuildingBlock: KIFKEQ_clean_linker_1, # of connection points: 2
#     Edge 21, Type (0, 1), BuildingBlock: KIFKEQ_clean_linker_1, # of connection points: 2
#     Edge 22, Type (0, 1), BuildingBlock: KIFKEQ_clean_linker_1, # of connection points: 2
#     Edge 23, Type (0, 1), BuildingBlock: KIFKEQ_clean_linker_1, # of connection points: 2
#     Edge 24, Type (0, 1), BuildingBlock: KIFKEQ_clean_linker_1, # of connection points: 2
#     Edge 25, Type (0, 1), BuildingBlock: KIFKEQ_clean_linker_1, # of connection points: 2
#     Edge 26, Type (0, 1), BuildingBlock: KIFKEQ_clean_linker_1, # of connection points: 2
#     Edge 27, Type (0, 1), BuildingBlock: KIFKEQ_clean_linker_1, # of connection points: 2
#     Edge 28, Type (0, 1), BuildingBlock: KIFKEQ_clean_linker_1, # of connection points: 2
#     Edge 29, Type (0, 1), BuildingBlock: KIFKEQ_clean_linker_1, # of connection points: 2
#     Edge 30, Type (0, 1), BuildingBlock: KIFKEQ_clean_linker_1, # of connection points: 2
#     Edge 31, Type (0, 1), BuildingBlock: KIFKEQ_clean_linker_1, # of connection points: 2
#     Edge 32, Type (0, 1), BuildingBlock: KIFKEQ_clean_linker_1, # of connection points: 2
#     Edge 33, Type (0, 1), BuildingBlock: KIFKEQ_clean_linker_1, # of connection points: 2
#     Edge 34, Type (0, 1), BuildingBlock: KIFKEQ_clean_linker_1, # of connection points: 2
#     Edge 35, Type (0, 1), BuildingBlock: KIFKEQ_clean_linker_1, # of connection points: 2
# Relax obj value: 0.204
# Max RMSD: 0.169
# Mean RMSD: 0.119
data_MOF--net-zzz--node1-KUMBUR_clean_sbu_0--node2-CUQRIR_clean_linker_1--edge1-KIFKEQ_clean_linker_1
_symmetry_space_group_name_H-M    P1
_symmetry_Int_Tables_number       1
_symmetry_cell_setting            triclinic
loop_
_symmetry_equiv_pos_as_xyz
'x, y, z'
_cell_length_a     48.227773
_cell_length_b     48.146454
_cell_length_c     13.582011
_cell_angle_alpha  90.819071
_cell_angle_beta   90.027806
_cell_angle_gamma 90.1316
loop_
_atom_site_label
_atom_site_type_symbol
_atom_site_fract_x
_atom_site_fract_y
_atom_site_fract_z
_atom_type_partial_charge
C0 C 0.75223 0.53094 0.24247 0.0
N1 N 0.77759 0.5432 0.258 0.0
N2 N 0.73703 0.54488 0.17337 0.0
C3 C 0.74265 0.50516 0.29256 0.0
C4 C 0.75431 0.56581 0.14752 0.0
N5 N 0.77849 0.56486 0.19844 0.0
C6 C 0.7478 0.58657 0.06919 0.0
H7 H 0.75067 0.48682 0.25127 0.0
H8 H 0.71967 0.50403 0.29376 0.0
H9 H 0.75098 0.50451 0.36869 0.0
H10 H 0.72799 0.59717 0.08696 0.0
H11 H 0.74496 0.57548 0.99769 0.0
H12 H 0.76438 0.60241 0.062 0.0
C13 C 1.00527 0.76029 0.27616 0.0
N14 N 0.99371 0.7864 0.28343 0.0
N15 N 0.99101 0.7432 0.21097 0.0
C16 C 0.03085 0.75178 0.33013 0.0
C17 C 0.97043 0.76021 0.18005 0.0
N18 N 0.97256 0.78625 0.22017 0.0
C19 C 0.94925 0.75203 0.10297 0.0
H20 H 0.04928 0.75848 0.28765 0.0
H21 H 0.03156 0.72888 0.33792 0.0
H22 H 0.03168 0.76211 0.40367 0.0
H23 H 0.9355 0.73566 0.13233 0.0
H24 H 0.95984 0.74344 0.03674 0.0
H25 H 0.93588 0.76969 0.08191 0.0
C26 C 0.77607 1.01294 0.24914 0.0
N27 N 0.75367 0.99683 0.27382 0.0
N28 N 0.79559 0.99797 0.19759 0.0
C29 C 0.77839 0.04337 0.27176 0.0
C30 C 0.78394 0.97241 0.19119 0.0
N31 N 0.75872 0.97162 0.23575 0.0
C32 C 0.79629 0.94864 0.13317 0.0
H33 H 0.76689 0.05499 0.21487 0.0
H34 H 0.8004 0.05015 0.27093 0.0
H35 H 0.76892 0.04824 0.34441 0.0
H36 H 0.81881 0.94707 0.14876 0.0
H37 H 0.79385 0.95265 0.05338 0.0
H38 H 0.78603 0.92867 0.15095 0.0
C39 C 0.53845 0.79209 0.28932 0.0
N40 N 0.54445 0.76435 0.29381 0.0
N41 N 0.549 0.80369 0.20531 0.0
C42 C 0.52237 0.80774 0.3663 0.0
C43 C 0.5612 0.78164 0.15908 0.0
N44 N 0.55873 0.75829 0.21284 0.0
C45 C 0.57448 0.78263 0.05878 0.0
H46 H 0.5001 0.80747 0.34579 0.0
H47 H 0.5294 0.82969 0.37082 0.0
H48 H 0.52462 0.79781 0.43911 0.0
H49 H 0.59606 0.79033 0.06677 0.0
H50 H 0.56303 0.79702 0.01039 0.0
H51 H 0.57537 0.76185 0.02288 0.0
C52 C 0.28446 0.51495 0.13735 0.0
N53 N 0.25885 0.50298 0.12467 0.0
N54 N 0.29974 0.50145 0.20739 0.0
C55 C 0.2942 0.54009 0.08373 0.0
C56 C 0.28225 0.48108 0.23667 0.0
N57 N 0.25788 0.48193 0.18689 0.0
C58 C 0.28877 0.46096 0.31707 0.0
H59 H 0.2857 0.54005 1.00777 0.0
H60 H 0.31719 0.54096 0.08175 0.0
H61 H 0.28646 0.55891 0.12286 0.0
H62 H 0.29071 0.47256 0.38796 0.0
H63 H 0.30899 0.45082 0.30213 0.0
H64 H 0.27253 0.44475 0.3239 0.0
C65 C 0.02544 0.28451 0.11862 0.0
N66 N 0.03777 0.25911 0.10058 0.0
N67 N 0.03926 0.29977 0.19059 0.0
C68 C 1.00047 0.29468 0.06467 0.0
C69 C 0.06 0.28217 0.21614 0.0
N70 N 0.05931 0.25826 0.16177 0.0
C71 C 0.07904 0.28689 0.30295 0.0
H72 H 1.00093 0.31766 0.05944 0.0
H73 H 0.98161 0.28867 0.10605 0.0
H74 H 0.99932 0.28511 0.98996 0.0
H75 H 0.06949 0.30089 0.35884 0.0
H76 H 0.0986 0.29646 0.2769 0.0
H77 H 0.08424 0.26703 0.33893 0.0
C78 C 0.26298 0.03861 0.07913 0.0
N79 N 0.28871 0.05068 0.07056 0.0
N80 N 0.24768 0.05089 0.1531 0.0
C81 C 0.25279 0.01485 0.01659 0.0
C82 C 0.2652 0.07058 0.1893 0.0
N83 N 0.28965 0.07053 0.13989 0.0
C84 C 0.2594 0.08843 0.27895 0.0
H85 H 0.26217 0.01555 0.94207 0.0
H86 H 0.22984 0.01525 0.01091 0.0
H87 H 0.25893 0.99509 0.05145 0.0
H88 H 0.23976 0.08269 0.3159 0.0
H89 H 0.25806 0.11045 0.25663 0.0
H90 H 0.27674 0.08674 0.33227 0.0
C91 C 0.50479 0.25519 0.08178 0.0
N92 N 0.49764 0.28264 0.07709 0.0
N93 N 0.49404 0.24303 0.16438 0.0
C94 C 0.52228 0.24042 1.00665 0.0
C95 C 0.48054 0.26443 0.20965 0.0
N96 N 0.48248 0.28799 0.15666 0.0
C97 C 0.46646 0.26262 0.30834 0.0
H98 H 0.5164 0.21814 1.00133 0.0
H99 H 0.54432 0.24181 0.02966 0.0
H100 H 0.52017 0.25026 0.93364 0.0
H101 H 0.47835 0.24896 0.35803 0.0
H102 H 0.44549 0.25352 0.29792 0.0
H103 H 0.46393 0.2833 0.34395 0.0
Tb104 Tb 0.04025 0.01653 0.76238 0.0
C105 C 0.94659 1.00603 0.47359 0.0
C106 C 0.96315 0.97001 0.36357 0.0
C107 C 0.91361 0.97663 0.38495 0.0
C108 C 0.96822 0.99181 0.4319 0.0
C109 C 0.91894 0.99915 0.4491 0.0
C110 C 0.93574 0.96205 0.34213 0.0
C111 C 0.9042 0.03929 0.54327 0.0
N112 N 0.95278 0.02801 0.53271 0.0
C113 C 0.93199 0.04543 0.56386 0.0
C114 C 0.8976 0.01581 0.48659 0.0
Tb115 Tb 0.99895 0.03695 0.56561 0.0
N116 N 0.99425 1.00064 0.45329 0.0
C117 C 0.01626 0.98921 0.40346 0.0
C118 C 0.98569 0.95762 0.31603 0.0
C119 C 1.01233 0.96754 0.33505 0.0
H120 H 0.93681 0.06384 0.60698 0.0
H121 H 0.02995 0.95843 0.29754 0.0
H122 H 0.93144 0.94524 0.29041 0.0
H123 H 0.88794 0.05279 0.57057 0.0
H124 H 0.03721 0.99584 0.4174 0.0
H125 H 0.99938 0.97309 0.10016 0.0
H126 H 0.98263 0.94097 0.26279 0.0
H127 H 0.08205 0.07149 0.73076 0.0
H128 H 1.01178 0.97253 0.92472 0.0
H129 H 0.09807 0.11157 0.82843 0.0
H130 H 0.89254 0.97089 0.36562 0.0
H131 H 1.00707 0.01555 0.20139 0.0
H132 H 0.02668 0.06371 0.21532 0.0
H133 H 0.87609 1.01125 0.46957 0.0
H134 H 0.05302 0.10174 0.14026 0.0
N135 N 0.0268 1.0142 0.92496 0.0
C136 C 0.01621 0.99088 0.96826 0.0
C137 C 1.01296 0.01527 0.12443 0.0
C138 C 0.02563 0.03835 0.08205 0.0
C139 C 1.0087 0.99126 0.0677 0.0
C140 C 0.03271 0.03707 0.98121 0.0
H141 H 0.08094 0.11906 0.99817 0.0
N142 N 0.05583 0.05562 0.84375 0.0
C143 C 0.08377 0.09687 0.86034 0.0
C144 C 0.0477 0.05845 0.93926 0.0
C145 C 0.07455 0.0739 0.80502 0.0
C146 C 0.07397 0.10109 0.95598 0.0
C147 C 0.05613 0.08152 0.99729 0.0
O148 O 0.0665 0.98224 0.73493 0.0
O149 O 0.02212 1.00207 0.6231 0.0
O150 O 0.96956 0.02106 0.67889 0.0
O151 O 0.99689 0.01885 0.82039 0.0
O152 O 0.01795 0.97669 0.74085 0.0
O153 O 0.07732 1.01258 0.84331 0.0
O154 O 0.98195 0.07435 0.51585 0.0
O155 O 0.0253 0.05292 0.68661 0.0
O156 O 0.06959 0.0302 0.64728 0.0
O157 O 0.04223 0.03637 0.50941 0.0
O158 O 0.98693 0.0699 0.67124 0.0
O159 O 0.01375 0.05412 0.4334 0.0
C160 C 1.01257 0.97816 0.64785 0.0
C161 C 0.08726 0.96688 0.88095 0.0
C162 C 0.06513 0.933 0.98667 0.0
C163 C 0.06525 0.94916 0.90205 0.0
C164 C 0.08907 0.93273 0.04605 0.0
C165 C 0.11092 0.96674 0.94081 0.0
C166 C 0.11198 0.94925 0.02215 0.0
C167 C 0.97223 0.01855 0.77608 0.0
C168 C 0.08313 0.98837 0.80704 0.0
C169 C 0.04743 0.08377 0.09568 0.0
C170 C 0.03231 0.06217 0.13818 0.0
C171 C 1.0091 0.07167 0.72283 0.0
C172 C 0.01726 0.10292 0.4565 0.0
C173 C 0.04569 0.103 0.43297 0.0
C174 C 0.06201 0.1269 0.44881 0.0
C175 C 0.04928 0.15074 0.4902 0.0
C176 C 1.00513 0.12716 0.49566 0.0
C177 C 0.02114 0.15079 0.51311 0.0
C178 C 0.06694 0.03451 0.55163 0.0
C179 C 1.00055 0.07724 0.44835 0.0
H180 H 0.04726 0.94959 0.85535 0.0
H181 H 0.09013 0.91991 0.11077 0.0
H182 H 0.1281 0.98061 0.92627 0.0
H183 H 0.13023 0.94915 0.06854 0.0
H184 H 0.05505 0.08459 0.40137 0.0
H185 H 0.06061 0.16998 0.50075 0.0
H186 H 0.98331 0.1277 0.5146 0.0
H187 H 1.01164 0.16934 0.54376 0.0
Tb188 Tb 0.52899 0.04876 0.77412 0.0
C189 C 0.53977 0.94005 0.52216 0.0
C190 C 0.56805 0.94852 0.37919 0.0
C191 C 0.56175 0.90131 0.43557 0.0
C192 C 0.55176 0.95845 0.45846 0.0
C193 C 0.54454 0.91121 0.5116 0.0
C194 C 0.57329 0.91994 0.36884 0.0
C195 C 0.51272 0.90377 0.64544 0.0
N196 N 0.52226 0.95031 0.59143 0.0
C197 C 0.50806 0.93239 0.65111 0.0
C198 C 0.53113 0.8931 0.57557 0.0
Tb199 Tb 0.51459 0.99762 0.59164 0.0
N200 N 0.54597 0.98588 0.47022 0.0
C201 C 0.55551 1.00439 0.40238 0.0
C202 C 0.5775 0.96739 0.30995 0.0
C203 C 0.57131 0.99549 0.32179 0.0
H204 H 0.49361 0.94005 0.70552 0.0
H205 H 0.57817 1.01031 0.2678 0.0
H206 H 0.58582 0.912 0.3085 0.0
H207 H 0.5019 0.88993 0.69449 0.0
H208 H 0.55087 0.02616 0.40799 0.0
H209 H 0.45317 0.03204 0.06169 0.0
H210 H 0.58877 0.96023 0.24569 0.0
H211 H 0.55159 0.10755 0.67521 0.0
H212 H 0.49185 0.01934 0.95273 0.0
H213 H 0.53716 0.15665 0.66993 0.0
H214 H 0.56558 0.87927 0.42602 0.0
H215 H 0.43203 0.07862 0.05203 0.0
H216 H 0.43327 0.12662 0.98187 0.0
H217 H 0.53435 0.87087 0.57015 0.0
H218 H 0.45628 0.16068 0.87564 0.0
N219 N 0.49261 0.05813 0.87877 0.0
C220 C 0.48312 0.03984 0.94744 0.0
C221 C 0.4492 0.07325 1.00414 0.0
C222 C 0.46023 0.09258 0.93894 0.0
C223 C 0.46109 0.04695 1.0098 0.0
C224 C 0.48242 0.08438 0.8774 0.0
H225 H 0.49526 0.17215 0.75996 0.0
N226 N 0.51758 0.09502 0.76465 0.0
C227 C 0.52515 0.1419 0.71167 0.0
C228 C 0.4954 0.10353 0.81849 0.0
C229 C 0.53331 0.11407 0.71512 0.0
C230 C 0.50144 0.15055 0.76234 0.0
C231 C 0.48651 0.13141 0.8181 0.0
O232 O 0.56245 0.07213 0.82995 0.0
O233 O 0.54734 0.02019 0.66589 0.0
O234 O 0.53853 0.97676 0.7077 0.0
O235 O 0.52834 1.00619 0.83955 0.0
O236 O 0.56625 0.05731 0.68304 0.0
O237 O 0.5409 0.04253 0.9206 0.0
O238 O 0.47807 0.97774 0.54424 0.0
O239 O 0.49629 0.02598 0.7007 0.0
O240 O 0.50594 0.06892 0.65498 0.0
O241 O 0.51948 0.04005 0.52687 0.0
O242 O 0.48026 0.98732 0.69237 0.0
O243 O 0.49629 1.01054 0.45937 0.0
C244 C 0.56783 0.03429 0.63458 0.0
C245 C 0.5875 0.05338 0.96246 0.0
C246 C 0.61692 0.02179 0.05307 0.0
C247 C 0.59267 0.02671 0.99921 0.0
C248 C 0.63623 0.04342 0.06771 0.0
C249 C 0.60698 0.07471 0.97792 0.0
C250 C 0.63129 0.06967 0.02987 0.0
C251 C 0.53579 0.98134 0.80389 0.0
C252 C 0.5611 0.06046 0.91567 0.0
C253 C 0.46357 0.1394 0.87546 0.0
C254 C 0.45045 0.12001 0.93584 0.0
C255 C 0.47726 1.01079 0.73634 0.0
C256 C 0.44787 1.01232 0.48807 0.0
C257 C 0.4467 0.04044 0.46122 0.0
C258 C 0.42291 0.05649 0.48035 0.0
C259 C 0.40038 0.04385 0.5289 0.0
C260 C 0.42489 1.00026 0.5346 0.0
C261 C 0.40146 0.01605 0.55569 0.0
C262 C 0.51063 0.06465 0.56008 0.0
C263 C 0.47384 0.99633 0.47727 0.0
H264 H 0.57774 1.01009 0.98836 0.0
H265 H 0.65534 0.0399 0.10758 0.0
H266 H 0.60315 0.09543 0.95096 0.0
H267 H 0.64624 0.0862 0.04153 0.0
H268 H 0.4643 0.04978 0.42504 0.0
H269 H 0.38124 0.05492 0.54266 0.0
H270 H 0.42525 0.97874 0.55677 0.0
H271 H 0.38393 1.00664 0.59221 0.0
Tb272 Tb 0.5428 0.51455 0.59152 0.0
C273 C 0.43493 0.55015 0.73151 0.0
C274 C 0.43098 0.59927 0.7719 0.0
C275 C 0.39149 0.57443 0.70263 0.0
C276 C 0.44679 0.57467 0.7665 0.0
C277 C 0.40676 0.54963 0.70313 0.0
C278 C 0.4036 0.59921 0.73678 0.0
C279 C 0.40964 0.49973 0.69075 0.0
N280 N 0.45024 0.52643 0.73327 0.0
C281 C 0.43747 0.50122 0.71943 0.0
C282 C 0.39439 0.52406 0.68026 0.0
Tb283 Tb 0.4958 0.53252 0.77797 0.0
N284 N 0.4732 0.57395 0.80153 0.0
C285 C 0.48402 0.59649 0.85112 0.0
C286 C 0.44279 0.62294 0.81588 0.0
C287 C 0.46922 0.62139 0.85718 0.0
H288 H 0.44849 0.482 0.72707 0.0
H289 H 0.47822 0.63936 0.8939 0.0
H290 H 0.39127 0.61799 0.73916 0.0
H291 H 0.4 0.47975 0.6764 0.0
H292 H 0.50435 0.5958 0.88336 0.0
H293 H 0.56012 0.40766 0.47564 0.0
H294 H 0.43132 0.64223 0.82131 0.0
H295 H 0.5902 0.56496 0.64364 0.0
H296 H 0.53409 0.45125 0.48629 0.0
H297 H 0.63864 0.56705 0.69476 0.0
H298 H 0.36999 0.57447 0.6794 0.0
H299 H 0.60704 0.4047 0.548 0.0
H300 H 0.64714 0.42884 0.63018 0.0
H301 H 0.37284 0.5228 0.65798 0.0
H302 H 0.66848 0.47228 0.69043 0.0
N303 N 0.5653 0.47307 0.56786 0.0
C304 C 0.55443 0.45054 0.51843 0.0
C305 C 0.59562 0.42402 0.55344 0.0
C306 C 0.60748 0.44766 0.59738 0.0
C307 C 0.56917 0.42562 0.51229 0.0
C308 C 0.59174 0.4723 0.60279 0.0
H309 H 0.66571 0.52393 0.71264 0.0
N310 N 0.58837 0.52054 0.63638 0.0
C311 C 0.62898 0.54711 0.67991 0.0
C312 C 0.60363 0.49679 0.63799 0.0
C313 C 0.60117 0.5457 0.6509 0.0
C314 C 0.64418 0.52273 0.6901 0.0
C315 C 0.63178 0.49721 0.66668 0.0
O316 O 0.5295 0.53521 0.46384 0.0
O317 O 0.49935 0.52318 0.62214 0.0
O318 O 0.49536 0.48662 0.75697 0.0
O319 O 0.53789 0.47721 0.68463 0.0
O320 O 0.50748 0.49061 0.53036 0.0
O321 O 0.56936 0.51613 0.46836 0.0
O322 O 0.50895 0.51152 0.90511 0.0
O323 O 0.53917 0.52398 0.74727 0.0
O324 O 0.54344 0.56042 0.61244 0.0
O325 O 0.50104 0.57005 0.68552 0.0
O326 O 0.53109 0.55639 0.83962 0.0
O327 O 0.46931 0.53108 0.90139 0.0
C328 C 0.48747 0.50495 0.56784 0.0
C329 C 0.54685 0.51583 0.31549 0.0
C330 C 0.5228 0.48111 0.2137 0.0
C331 C 0.52409 0.49833 0.29811 0.0
C332 C 0.54318 0.48461 0.14032 0.0
C333 C 0.56685 0.51902 0.2418 0.0
C334 C 0.56461 0.50392 0.15362 0.0
C335 C 0.5161 0.46928 0.73716 0.0
C336 C 0.55137 0.52851 0.41343 0.0
C337 C 0.647 0.47238 0.66702 0.0
C338 C 0.63486 0.44765 0.63259 0.0
C339 C 0.5511 0.54211 0.80184 0.0
C340 C 0.49184 0.53066 0.05415 0.0
C341 C 0.51472 0.54796 0.0718 0.0
C342 C 0.51611 0.56507 0.15645 0.0
C343 C 0.49577 0.56156 0.22996 0.0
C344 C 0.47188 0.52743 0.12795 0.0
C345 C 0.47426 0.54235 0.21648 0.0
C346 C 0.52287 0.57789 0.63286 0.0
C347 C 0.48716 0.51832 0.95582 0.0
H348 H 0.50782 0.49748 0.35227 0.0
H349 H 0.54344 0.47179 0.07429 0.0
H350 H 0.58444 0.53273 0.25326 0.0
H351 H 0.58022 0.50629 0.0972 0.0
H352 H 0.53096 0.54883 0.01754 0.0
H353 H 0.49563 0.57429 0.2962 0.0
H354 H 0.4542 0.51385 0.11628 0.0
H355 H 0.45867 0.53996 0.27301 0.0
Tb356 Tb 0.02923 0.54372 0.60285 0.0
C357 C 0.02039 0.43898 0.73931 0.0
C358 C 0.98023 0.41802 0.66081 0.0
C359 C 0.022 0.39082 0.68104 0.0
C360 C 0.99357 0.44127 0.70506 0.0
C361 C 0.03458 0.41336 0.73024 0.0
C362 C 0.99486 0.39315 0.6463 0.0
C363 C 0.07107 0.43265 0.83043 0.0
N364 N 0.0319 0.4612 0.78684 0.0
C365 C 0.05599 0.4573 0.83921 0.0
C366 C 0.06067 0.4108 0.77352 0.0
Tb367 Tb 1.00583 0.50185 0.78927 0.0
N368 N 0.9801 0.46575 0.71922 0.0
C369 C 0.95187 0.46635 0.70547 0.0
C370 C 0.95234 0.42016 0.63484 0.0
C371 C 0.93791 0.44421 0.65975 0.0
H372 H 0.06366 0.47238 0.89184 0.0
H373 H 0.91584 0.44549 0.64613 0.0
H374 H 0.9851 0.37536 0.61078 0.0
H375 H 0.09039 0.43029 0.87004 0.0
H376 H 0.93933 0.48343 0.73148 0.0
H377 H 0.12015 0.59904 0.74376 0.0
H378 H 0.94143 0.40288 0.60039 0.0
H379 H 0.9707 0.57372 0.50714 0.0
H380 H 0.09606 0.56148 0.65853 0.0
H381 H 0.9443 0.6158 0.53307 0.0
H382 H 0.0328 0.37124 0.67196 0.0
H383 H 0.09503 0.64169 0.79236 0.0
H384 H 0.05145 0.66945 0.78601 0.0
H385 H 0.07222 0.39156 0.76794 0.0
H386 H 1.00341 0.67398 0.72866 0.0
N387 N 0.05547 0.57942 0.67316 0.0
C388 C 0.08375 0.57859 0.68558 0.0
C389 C 0.08387 0.62458 0.75784 0.0
C390 C 0.05587 0.62696 0.73361 0.0
C391 C 0.09803 0.60051 0.73131 0.0
C392 C 0.0422 0.60393 0.68915 0.0
H393 H 0.96334 0.65415 0.635 0.0
N394 N 1.0033 0.58444 0.6094 0.0
C395 C 0.9639 0.61325 0.57075 0.0
C396 C 0.01521 0.60647 0.65684 0.0
C397 C 0.97882 0.58858 0.55961 0.0
C398 C 0.97479 0.6349 0.62752 0.0
C399 C 1.00115 0.6321 0.66836 0.0
O400 O 0.02862 0.56324 0.46492 0.0
O401 O 0.02743 0.49971 0.64699 0.0
O402 O 0.04869 0.51322 0.83205 0.0
O403 O 0.06591 0.52528 0.68014 0.0
O404 O 0.01591 0.50937 0.50592 0.0
O405 O 0.06514 0.54258 0.51559 0.0
O406 O 1.00562 0.48234 0.92716 0.0
O407 O 1.00758 0.54583 0.74524 0.0
O408 O 0.98657 0.53233 0.55864 0.0
O409 O 0.96917 0.51977 0.70988 0.0
O410 O 0.0196 0.5361 0.88572 0.0
O411 O 0.96979 0.50404 0.87585 0.0
C412 C 0.01948 0.48882 0.56415 0.0
C413 C 0.05559 0.54008 0.34412 0.0
C414 C 0.07314 0.50162 0.24107 0.0
C415 C 0.07083 0.51536 0.33327 0.0
C416 C 0.05902 0.51299 0.16015 0.0
C417 C 0.04325 0.55174 0.26091 0.0
C418 C 0.04497 0.53823 0.16957 0.0
C419 C 0.06988 0.51949 0.77467 0.0
C420 C 0.05312 0.55425 0.44117 0.0
C421 C 0.0141 0.6544 0.71772 0.0
C422 C 0.04143 0.65184 0.7503 0.0
C423 C 0.01575 0.55669 0.82786 0.0
C424 C 0.97922 0.50626 0.04759 0.0
C425 C 0.96432 0.53118 0.05873 0.0
C426 C 0.96232 0.54493 0.15103 0.0
C427 C 0.97634 0.53334 0.23174 0.0
C428 C 0.99154 0.49445 0.13059 0.0
C429 C 0.99008 0.50794 0.22201 0.0
C430 C 0.96536 0.52569 0.61532 0.0
C431 C 0.98138 0.49205 0.95051 0.0
H432 H 0.08188 0.50766 0.39647 0.0
H433 H 0.05904 0.50278 0.08877 0.0
H434 H 0.03188 0.57108 0.26683 0.0
H435 H 0.03485 0.54705 0.10609 0.0
H436 H 0.9533 0.53905 0.99574 0.0
H437 H 0.97649 0.54354 0.30315 0.0
H438 H 1.00267 0.47498 0.12447 0.0
H439 H 1.00015 0.49897 0.28532 0.0
H440 H 0.23652 0.01555 0.30196 0.0
H441 H 0.19753 0.07287 0.10635 0.0
H442 H 0.19308 1.0111 0.39471 0.0
H443 H 0.15386 0.06879 0.19859 0.0
H444 H 0.07187 0.03937 0.34794 0.0
H445 H 0.11384 0.0417 0.24725 0.0
H446 H 0.16397 0.03554 0.50903 0.0
H447 H 0.12207 0.03361 0.60957 0.0
C448 C 0.21836 0.02661 0.277 0.0
C449 C 0.22047 0.04388 0.19445 0.0
C450 C 0.19339 0.0245 0.33141 0.0
C451 C 0.16938 0.03968 0.30581 0.0
C452 C 0.17139 0.0564 0.22114 0.0
C453 C 0.1965 0.05865 0.16728 0.0
C454 C 0.09179 0.03885 0.38471 0.0
C455 C 0.09304 0.0366 0.48839 0.0
C456 C 0.11613 0.04014 0.32627 0.0
C457 C 0.14292 0.03868 0.36849 0.0
C458 C 0.1441 0.03632 0.47214 0.0
C459 C 0.11979 0.0354 0.53059 0.0
H460 H 0.45234 0.20861 0.2195 0.0
H461 H 0.54123 0.21281 0.19683 0.0
H462 H 0.45587 0.16489 0.30825 0.0
H463 H 0.54494 0.16836 0.28363 0.0
H464 H 0.53831 0.07551 0.38562 0.0
H465 H 0.53465 0.11659 0.281 0.0
H466 H 0.47145 0.14993 0.47326 0.0
H467 H 0.47542 0.10923 0.57791 0.0
C468 C 0.47271 0.20007 0.23273 0.0
C469 C 0.49647 0.21463 0.20142 0.0
C470 C 0.47477 0.17489 0.28414 0.0
C471 C 0.50073 0.16291 0.30523 0.0
C472 C 0.52453 0.17669 0.26913 0.0
C473 C 0.52244 0.2022 0.21862 0.0
C474 C 0.52345 0.09147 0.4052 0.0
C475 C 0.50719 0.08879 0.49091 0.0
C476 C 0.52151 0.11527 0.34539 0.0
C477 C 0.50277 0.13698 0.36784 0.0
C478 C 0.48604 0.13383 0.45231 0.0
C479 C 0.48839 0.11039 0.51299 0.0
H480 H 0.34618 0.47209 0.16554 0.0
H481 H 0.31675 0.54046 0.34277 0.0
H482 H 0.39127 0.4746 0.24806 0.0
H483 H 0.36175 0.5429 0.4284 0.0
H484 H 0.45476 0.5514 0.52572 0.0
H485 H 0.41071 0.55284 0.43435 0.0
H486 H 0.41404 0.46383 0.3939 0.0
H487 H 0.45759 0.46268 0.4847 0.0
C488 C 0.34957 0.48807 0.22117 0.0
C489 C 0.32784 0.5064 0.24562 0.0
C490 C 0.37545 0.48931 0.27024 0.0
C491 C 0.38076 0.50879 0.34714 0.0
C492 C 0.35911 0.52771 0.36959 0.0
C493 C 0.33314 0.52644 0.32009 0.0
C494 C 0.44586 0.53212 0.49834 0.0
C495 C 0.45972 0.50681 0.51508 0.0
C496 C 0.42044 0.53289 0.44527 0.0
C497 C 0.40814 0.50846 0.40504 0.0
C498 C 0.42246 0.48332 0.42117 0.0
C499 C 0.44762 0.48257 0.47441 0.0
H500 H 0.07703 0.34162 0.21572 0.0
H501 H 0.99131 0.32243 0.26973 0.0
H502 H 0.07246 0.38517 0.30924 0.0
H503 H 0.98638 0.36652 0.36255 0.0
H504 H 0.9811 0.46096 0.45315 0.0
H505 H 0.98469 0.41693 0.36183 0.0
H506 H 0.06799 0.40677 0.47048 0.0
H507 H 0.06402 0.45099 0.56302 0.0
C508 C 0.057 0.34674 0.24687 0.0
C509 C 0.03461 0.3279 0.2339 0.0
C510 C 0.0544 0.37192 0.30194 0.0
C511 C 0.02909 0.38003 0.34631 0.0
C512 C 1.00633 0.36166 0.33026 0.0
C513 C 1.00905 0.33616 0.27585 0.0
C514 C 1.00005 0.44907 0.45963 0.0
C515 C 0.02175 0.45942 0.52011 0.0
C516 C 1.00215 0.42353 0.40647 0.0
C517 C 0.02658 0.40733 0.40751 0.0
C518 C 0.04868 0.41809 0.4663 0.0
C519 C 0.04633 0.44352 0.5212 0.0
H520 H 0.79974 0.01964 0.0146 0.0
H521 H 0.84905 0.99268 0.25836 0.0
H522 H 0.84164 0.02476 0.91444 0.0
H523 H 0.89137 0.99842 0.16056 0.0
H524 H 0.96096 0.98349 0.93222 0.0
H525 H 0.91983 0.98112 0.0363 0.0
H526 H 0.88231 0.04663 0.86867 0.0
H527 H 0.92367 0.04891 0.76616 0.0
C528 C 0.81973 0.01573 0.04796 0.0
C529 C 0.82088 1.00653 0.14588 0.0
C530 C 0.84404 0.01852 0.99015 0.0
C531 C 0.8707 1.01202 0.02743 0.0
C532 C 0.8717 1.00335 0.12674 0.0
C533 C 0.84732 1.0005 0.18428 0.0
C534 C 0.94418 0.99769 0.91817 0.0
C535 C 0.94616 0.01637 0.8393 0.0
C536 C 0.92019 0.99632 0.97844 0.0
C537 C 0.89691 1.01366 0.96291 0.0
C538 C 0.89903 0.03236 0.88368 0.0
C539 C 0.92302 0.03364 0.82354 0.0
H540 H 0.59161 0.83572 0.14128 0.0
H541 H 0.5031 0.83657 0.18131 0.0
H542 H 0.58902 0.8791 0.04992 0.0
H543 H 0.50054 0.88096 0.09334 0.0
H544 H 0.5138 0.97416 0.99047 0.0
H545 H 0.5167 0.93333 0.09646 0.0
H546 H 0.56879 0.89249 0.8815 0.0
H547 H 0.56536 0.9329 0.77471 0.0
C548 C 0.57155 0.8453 0.13144 0.0
C549 C 0.54755 0.83214 0.16793 0.0
C550 C 0.57006 0.8703 0.07876 0.0
C551 C 0.54453 0.88364 0.06225 0.0
C552 C 0.52063 0.87145 0.10409 0.0
C553 C 0.52208 0.84601 0.15536 0.0
C554 C 0.52605 0.95659 0.9658 0.0
C555 C 0.53935 0.95716 0.87318 0.0
C556 C 0.52753 0.93297 0.02663 0.0
C557 C 0.54294 0.90929 0.99826 0.0
C558 C 0.55682 0.9102 0.9068 0.0
C559 C 0.55482 0.93351 0.84511 0.0
H560 H 0.69035 0.57412 0.21238 0.0
H561 H 0.7208 0.50593 0.03644 0.0
H562 H 0.64576 0.57171 0.12658 0.0
H563 H 0.6763 0.50361 0.94745 0.0
H564 H 0.58362 0.49549 0.84386 0.0
H565 H 0.6273 0.4938 0.93744 0.0
H566 H 0.62406 0.58278 0.97918 0.0
H567 H 0.58092 0.58417 0.88611 0.0
C568 C 0.68729 0.55821 0.15626 0.0
C569 C 0.70916 0.53992 0.13312 0.0
C570 C 0.66171 0.55703 0.1053 0.0
C571 C 0.65686 0.53766 0.0277 0.0
C572 C 0.67861 0.51874 1.00664 0.0
C573 C 0.70429 0.51993 0.05809 0.0
C574 C 0.59248 0.51471 0.87193 0.0
C575 C 0.57875 0.54008 0.85508 0.0
C576 C 0.61768 0.51379 0.92629 0.0
C577 C 0.62984 0.53813 0.96777 0.0
C578 C 0.6157 0.56335 0.95113 0.0
C579 C 0.59079 0.56424 0.89657 0.0
H580 H 0.95687 0.69766 0.2027 0.0
H581 H 0.0383 0.72459 0.117 0.0
H582 H 0.96235 0.65493 0.10446 0.0
H583 H 0.04447 0.68102 0.02169 0.0
H584 H 0.05389 0.58545 0.93703 0.0
H585 H 0.04937 0.62908 0.0307 0.0
H586 H 0.96506 0.63664 0.92991 0.0
H587 H 0.97005 0.59308 0.83353 0.0
C588 C 0.97615 0.69448 0.16351 0.0
C589 C 0.99701 0.71523 0.16871 0.0
C590 C 0.97928 0.66974 0.10619 0.0
C591 C 1.00376 0.66399 0.0524 0.0
C592 C 0.02521 0.68417 0.0612 0.0
C593 C 0.02182 0.70929 0.1172 0.0
C594 C 0.03452 0.59672 0.93255 0.0
C595 C 1.01282 0.58589 0.87309 0.0
C596 C 0.03187 0.62196 0.98715 0.0
C597 C 1.00686 0.63721 0.98908 0.0
C598 C 0.9848 0.62601 0.93136 0.0
C599 C 0.98772 0.60098 0.87449 0.0
H600 H 0.11547 0.25303 0.16444 0.0
H601 H 0.03889 0.20848 0.20607 0.0
H602 H 0.14173 0.2111 0.21087 0.0
H603 H 0.06426 0.16685 0.24323 0.0
H604 H 0.10752 0.15657 0.51902 0.0
H605 H 0.13227 0.18539 0.40329 0.0
H606 H 0.10848 0.13039 0.16616 0.0
H607 H 0.08316 0.10178 0.27996 0.0
C608 C 0.10441 0.23405 0.18067 0.0
C609 C 0.07523 0.23364 0.18063 0.0
C610 C 0.11935 0.21013 0.20543 0.0
C611 C 0.10515 0.18545 0.22695 0.0
C612 C 0.07598 0.18514 0.22313 0.0
C613 C 0.06129 0.20901 0.20223 0.0
C614 C 0.10867 0.14972 0.44281 0.0
C615 C 0.09041 0.12919 0.4061 0.0
C616 C 0.12345 0.166 0.37639 0.0
C617 C 0.11885 0.16182 0.27522 0.0
C618 C 0.11019 0.1352 0.2441 0.0
C619 C 0.09508 0.11897 0.30981 0.0
H620 H 0.33525 0.04371 0.19347 0.0
H621 H 0.30034 0.12564 0.16895 0.0
H622 H 0.3779 0.06339 0.25708 0.0
H623 H 0.34322 0.14587 0.24052 0.0
H624 H 0.39264 0.10155 0.5502 0.0
H625 H 0.36469 0.12822 0.43695 0.0
H626 H 0.41921 0.10549 0.19935 0.0
H627 H 0.44584 0.07686 0.30824 0.0
C628 C 0.33708 0.06608 0.19997 0.0
C629 C 0.31487 0.08319 0.17527 0.0
C630 C 0.36152 0.07746 0.23578 0.0
C631 C 0.36417 0.10632 0.25077 0.0
C632 C 0.34188 0.12369 0.22697 0.0
C633 C 0.31739 0.11215 0.18782 0.0
C634 C 0.39932 0.10289 0.47429 0.0
C635 C 0.41937 0.08445 0.43595 0.0
C636 C 0.38371 0.11895 0.40981 0.0
C637 C 0.38833 0.11613 0.30824 0.0
C638 C 0.41428 0.1062 0.27712 0.0
C639 C 0.42942 0.08931 0.34023 0.0
H640 H 0.44464 0.32137 0.07341 0.0
H641 H 0.50549 0.31687 0.30433 0.0
H642 H 0.4434 0.37221 0.09208 0.0
H643 H 0.50395 0.36711 0.32596 0.0
H644 H 0.49902 0.45365 0.3696 0.0
H645 H 0.47709 0.40902 0.36741 0.0
H646 H 0.48061 0.40675 0.05028 0.0
H647 H 0.50097 0.45309 0.05052 0.0
C648 C 0.45685 0.33133 0.1308 0.0
C649 C 0.47511 0.31559 0.18782 0.0
C650 C 0.45628 0.36026 0.14115 0.0
C651 C 0.47358 0.37362 0.21029 0.0
C652 C 0.49 0.35745 0.27308 0.0
C653 C 0.49086 0.3287 0.2614 0.0
C654 C 0.49434 0.44466 0.29843 0.0
C655 C 0.50308 0.45707 0.21013 0.0
C656 C 0.48179 0.41865 0.29772 0.0
C657 C 0.47799 0.40404 0.20898 0.0
C658 C 0.4836 0.41749 0.11997 0.0
C659 C 0.49581 0.44389 0.12044 0.0
H660 H 0.2317 0.44495 0.06876 0.0
H661 H 0.2278 0.48609 0.35155 0.0
H662 H 0.18281 0.43153 0.08312 0.0
H663 H 0.17923 0.47302 0.36733 0.0
H664 H 0.09247 0.46326 0.37727 0.0
H665 H 0.13834 0.44241 0.37158 0.0
H666 H 0.14566 0.46452 0.06569 0.0
H667 H 0.10059 0.48517 0.0711 0.0
C668 C 0.22051 0.45012 0.13561 0.0
C669 C 0.23299 0.46679 0.20856 0.0
C670 C 0.19263 0.4425 0.144 0.0
C671 C 0.17695 0.45156 0.22562 0.0
C672 C 0.19062 0.46542 0.30381 0.0
C673 C 0.21842 0.47305 0.29502 0.0
C674 C 0.1037 0.46353 0.30836 0.0
C675 C 0.0938 0.47864 0.22734 0.0
C676 C 0.12989 0.45116 0.30495 0.0
C677 C 0.14625 0.45308 0.21974 0.0
C678 C 0.13398 0.46313 0.13354 0.0
C679 C 0.10792 0.47553 0.13718 0.0
H680 H 0.98136 0.79524 0.02934 0.0
H681 H 0.94744 0.83325 0.29203 0.0
H682 H 0.9884 0.83969 0.95898 0.0
H683 H 0.95677 0.87927 0.22395 0.0
H684 H 0.02584 0.90971 0.86298 0.0
H685 H 0.98416 0.88534 0.90679 0.0
H686 H 1.00444 0.89565 0.21484 0.0
H687 H 0.04471 0.92322 0.17183 0.0
C688 C 0.97396 0.81321 0.0702 0.0
C689 C 0.96492 0.81085 0.16778 0.0
C690 C 0.97814 0.83907 0.02981 0.0
C691 C 0.97426 0.86319 0.08754 0.0
C692 C 0.96072 0.86096 0.17888 0.0
C693 C 0.95562 0.83472 0.21818 0.0
C694 C 0.02108 0.90796 0.94046 0.0
C695 C 0.03929 0.91806 0.01394 0.0
C696 C 0.99702 0.89381 0.96543 0.0
C697 C 0.99142 0.88773 0.0641 0.0
C698 C 1.00826 0.89967 0.13794 0.0
C699 C 0.03189 0.91481 0.11314 0.0
H700 H 0.72794 0.93759 0.35234 0.0
H701 H 0.7406 0.96232 0.05248 0.0
H702 H 0.67994 0.92486 0.31277 0.0
H703 H 0.6942 0.94792 0.01063 0.0
H704 H 0.61803 0.97183 0.95437 0.0
H705 H 0.64555 0.93186 1.00518 0.0
H706 H 0.65585 0.96966 0.29329 0.0
H707 H 0.62966 1.00955 0.24112 0.0
C708 C 0.72076 0.9392 0.27724 0.0
C709 C 0.73694 0.95273 0.20684 0.0
C710 C 0.69358 0.93125 0.25385 0.0
C711 C 0.68272 0.93702 0.16002 0.0
C712 C 0.7014 0.94399 0.08467 0.0
C713 C 0.72815 0.95252 0.10856 0.0
C714 C 0.62528 0.9709 0.02977 0.0
C715 C 0.62311 0.99417 0.09274 0.0
C716 C 0.64074 0.94788 0.05928 0.0
C717 C 0.65425 0.94834 0.15132 0.0
C718 C 0.64677 0.96901 0.22047 0.0
C719 C 0.63209 0.99219 0.19035 0.0
H720 H 0.5339 0.72951 0.06868 0.0
H721 H 0.59631 0.72426 0.29408 0.0
H722 H 0.53457 0.67922 0.04743 0.0
H723 H 0.59664 0.67337 0.27592 0.0
H724 H 0.53837 0.59277 0.31953 0.0
H725 H 0.55893 0.63906 0.32001 0.0
H726 H 0.5615 0.63731 1.00275 0.0
H727 H 0.53937 0.59278 1.00042 0.0
C728 C 0.54863 0.71748 0.11048 0.0
C729 C 0.56516 0.73041 0.18223 0.0
C730 C 0.54899 0.68872 0.09904 0.0
C731 C 0.56567 0.67236 0.16031 0.0
C732 C 0.58358 0.68549 0.22797 0.0
C733 C 0.58352 0.71443 0.23801 0.0
C734 C 0.54338 0.60208 0.24967 0.0
C735 C 0.53586 0.58907 0.15995 0.0
C736 C 0.5557 0.62843 0.25024 0.0
C737 C 0.5611 0.64199 0.16129 0.0
C738 C 0.55699 0.62756 0.07239 0.0
C739 C 0.54435 0.60161 0.0716 0.0
H740 H 0.80401 0.60145 0.32006 0.0
H741 H 0.80907 0.56182 0.03489 0.0
H742 H 0.85285 0.61529 0.30852 0.0
H743 H 0.85756 0.57528 0.02187 0.0
H744 H 0.94384 0.58381 0.01568 0.0
H745 H 0.8984 0.60551 0.02107 0.0
H746 H 0.89007 0.58259 0.32589 0.0
H747 H 0.93489 0.56137 0.32096 0.0
C748 C 0.81545 0.59671 0.25337 0.0
C749 C 0.80331 0.58032 0.17889 0.0
C750 C 0.84329 0.60457 0.24656 0.0
C751 C 0.85929 0.59601 0.16505 0.0
C752 C 0.84594 0.5825 0.08542 0.0
C753 C 0.81819 0.57463 0.09262 0.0
C754 C 0.93255 0.58367 0.0844 0.0
C755 C 0.94205 0.56822 0.16512 0.0
C756 C 0.90657 0.59648 0.08764 0.0
C757 C 0.88998 0.59448 0.17224 0.0
C758 C 0.90193 0.58406 0.25845 0.0
C759 C 0.92782 0.57132 0.25506 0.0
H760 H 0.98961 0.2281 0.08471 0.0
H761 H 0.0714 0.23524 0.96268 0.0
H762 H 0.983 0.18383 0.99488 0.0
H763 H 0.06549 0.19099 0.87507 0.0
H764 H 0.04393 0.11568 0.67332 0.0
H765 H 0.04869 0.16149 0.75287 0.0
H766 H 0.99167 0.13631 0.97963 0.0
H767 H 0.98643 0.09102 0.89704 0.0
C768 C 1.00596 0.22072 0.03651 0.0
C769 C 0.03088 0.23612 0.03035 0.0
C770 C 1.00247 0.19468 0.98589 0.0
C771 C 0.0237 0.18267 0.9262 0.0
C772 C 0.04819 0.1988 0.91785 0.0
C773 C 0.05165 0.22465 0.96842 0.0
C774 C 0.03267 0.11977 0.74084 0.0
C775 C 0.01555 0.09875 0.77971 0.0
C776 C 0.03539 0.14638 0.78751 0.0
C777 C 0.02074 0.15367 0.87501 0.0
C778 C 1.00331 0.13254 0.91275 0.0
C779 C 1.00054 0.10603 0.86569 0.0
H780 H 0.32074 0.0869 0.96884 0.0
H781 H 0.31186 0.99973 0.02538 0.0
H782 H 0.36531 0.07861 0.89084 0.0
H783 H 0.35533 0.99059 0.9394 0.0
H784 H 0.44607 0.9795 0.85834 0.0
H785 H 0.40092 0.98834 0.93012 0.0
H786 H 0.39795 0.06719 0.78175 0.0
H787 H 0.44434 0.05853 0.71521 0.0
C788 C 0.32798 0.06569 0.96222 0.0
C789 C 0.31221 0.0441 1.00432 0.0
C790 C 0.35391 0.06077 0.91638 0.0
C791 C 0.36532 0.03377 0.90785 0.0
C792 C 0.34859 1.01192 0.94536 0.0
C793 C 0.32284 0.017 0.99325 0.0
C794 C 0.43589 0.99892 0.84181 0.0
C795 C 0.44951 0.01847 0.78245 0.0
C796 C 0.40937 1.00399 0.88241 0.0
C797 C 0.39443 0.02861 0.86318 0.0
C798 C 0.4081 0.04811 0.8018 0.0
C799 C 0.43508 0.0432 0.76273 0.0
H800 H 0.47023 0.29779 0.91217 0.0
H801 H 0.54079 0.31875 0.09151 0.0
H802 H 0.47515 0.34181 0.82426 0.0
H803 H 0.5463 0.36264 1.00303 0.0
H804 H 0.55903 0.43235 0.76933 0.0
H805 H 0.5571 0.38583 0.84089 0.0
H806 H 0.46822 0.39234 0.8642 0.0
H807 H 0.47024 0.43906 0.79584 0.0
C808 C 0.48757 0.31127 0.92991 0.0
C809 C 0.50565 0.3041 1.00696 0.0
C810 C 0.49013 0.3369 0.88079 0.0
C811 C 0.51113 0.35626 0.90593 0.0
C812 C 0.53005 0.34842 0.98 0.0
C813 C 0.52715 0.32299 0.03023 0.0
C814 C 0.53901 0.42388 0.78923 0.0
C815 C 0.51479 0.43986 0.77594 0.0
C816 C 0.53791 0.39709 0.83102 0.0
C817 C 0.51248 0.38485 0.85883 0.0
C818 C 0.48823 0.40061 0.84324 0.0
C819 C 0.48941 0.42767 0.80411 0.0
H820 H 0.24604 0.48544 0.93879 0.0
H821 H 0.21608 0.53689 0.17605 0.0
H822 H 0.20182 0.49037 0.85236 0.0
H823 H 0.17226 0.5434 0.08915 0.0
H824 H 0.08488 0.52974 0.96682 0.0
H825 H 0.13022 0.52856 0.04426 0.0
H826 H 0.16754 0.51009 0.76185 0.0
H827 H 0.12151 0.51063 0.68549 0.0
C828 C 0.2303 0.49879 0.97077 0.0
C829 C 0.2352 0.51141 0.06348 0.0
C830 C 0.20454 0.5016 0.92118 0.0
C831 C 0.18235 0.51729 0.96192 0.0
C832 C 0.18787 0.53062 0.05389 0.0
C833 C 0.21351 0.52748 0.10374 0.0
C834 C 0.10269 0.52513 0.92105 0.0
C835 C 0.09894 0.51972 0.81959 0.0
C836 C 0.12924 0.52483 0.96569 0.0
C837 C 0.15364 0.5189 0.91142 0.0
C838 C 0.14985 0.5141 0.80878 0.0
C839 C 0.12317 0.51463 0.76394 0.0
H840 H 0.9708 0.80409 0.45656 0.0
H841 H 0.03225 0.82734 0.24454 0.0
H842 H 0.97552 0.84942 0.53929 0.0
H843 H 0.03767 0.8728 0.32785 0.0
H844 H 0.05323 0.95036 0.53711 0.0
H845 H 0.05112 0.90456 0.45493 0.0
H846 H 0.96548 0.89676 0.54122 0.0
H847 H 0.96796 0.94234 0.62334 0.0
C848 C 0.98605 0.81858 0.42907 0.0
C849 C 1.00162 0.8111 0.34455 0.0
C850 C 0.98845 0.84522 0.47577 0.0
C851 C 1.00674 0.86611 0.44125 0.0
C852 C 0.02324 0.85806 0.35878 0.0
C853 C 0.02044 0.8315 0.31086 0.0
C854 C 0.03374 0.93914 0.53714 0.0
C855 C 1.01052 0.95114 0.58533 0.0
C856 C 0.03248 0.91242 0.48964 0.0
C857 C 1.00811 0.89574 0.48982 0.0
C858 C 0.98497 0.90789 0.53881 0.0
C859 C 0.98623 0.93461 0.58567 0.0
H860 H 0.71247 0.03279 0.21739 0.0
H861 H 0.73555 0.97818 0.45078 0.0
H862 H 0.66754 0.04125 0.29813 0.0
H863 H 0.69027 0.98522 0.52932 0.0
H864 H 0.59654 0.98363 0.60966 0.0
H865 H 0.6408 0.9756 0.52296 0.0
H866 H 0.6415 0.06101 0.43185 0.0
H867 H 0.59765 0.06874 0.51762 0.0
C868 C 0.7081 0.02271 0.28642 0.0
C869 C 0.72794 1.00459 0.32664 0.0
C870 C 0.68202 0.02738 0.33305 0.0
C871 C 0.67426 1.01356 0.42068 0.0
C872 C 0.69454 0.9959 0.46139 0.0
C873 C 0.72081 0.99188 0.41627 0.0
C874 C 0.60586 1.00055 0.56966 0.0
C875 C 0.59287 0.02683 0.57041 0.0
C876 C 0.63167 0.9961 0.52052 0.0
C877 C 0.64562 0.01766 0.46969 0.0
C878 C 0.63199 0.0436 0.46852 0.0
C879 C 0.60654 0.0481 0.51839 0.0
H880 H 0.57219 0.74845 0.45725 0.0
H881 H 0.50011 0.72966 0.28278 0.0
H882 H 0.56643 0.70456 0.54536 0.0
H883 H 0.49378 0.68591 0.37139 0.0
H884 H 0.48052 0.61583 0.60336 0.0
H885 H 0.4832 0.66245 0.53266 0.0
H886 H 0.57183 0.65408 0.5055 0.0
H887 H 0.56906 0.60736 0.57303 0.0
C888 C 0.55435 0.73551 0.44072 0.0
C889 C 0.53609 0.74326 0.36491 0.0
C890 C 0.5513 0.70994 0.48993 0.0
C891 C 0.52962 0.69118 0.46613 0.0
C892 C 0.51055 0.69964 0.39344 0.0
C893 C 0.51393 0.72501 0.34314 0.0
C894 C 0.50065 0.62392 0.58284 0.0
C895 C 0.52456 0.60741 0.59483 0.0
C896 C 0.50218 0.65077 0.54152 0.0
C897 C 0.52778 0.66254 0.51287 0.0
C898 C 0.55172 0.64623 0.52718 0.0
C899 C 0.5501 0.61914 0.56586 0.0
H900 H 0.78987 0.56026 0.44477 0.0
H901 H 0.8205 0.50934 0.20717 0.0
H902 H 0.83376 0.55501 0.53292 0.0
H903 H 0.86401 0.5025 0.29578 0.0
H904 H 0.9134 0.53422 0.70275 0.0
H905 H 0.86764 0.53497 0.62437 0.0
H906 H 0.90593 0.5171 0.34314 0.0
H907 H 0.95097 0.51566 0.42259 0.0
C908 C 0.80568 0.54697 0.41301 0.0
C909 C 0.80108 0.53459 0.31971 0.0
C910 C 0.83126 0.54396 0.46363 0.0
C911 C 0.85354 0.5283 0.4234 0.0
C912 C 0.84831 0.51523 0.33075 0.0
C913 C 0.82285 0.51856 0.27987 0.0
C914 C 0.91201 0.53037 0.62416 0.0
C915 C 0.93642 0.52538 0.56944 0.0
C916 C 0.88549 0.53104 0.57814 0.0
C917 C 0.88205 0.52649 0.47518 0.0
C918 C 0.90663 0.52063 0.42186 0.0
C919 C 0.93301 0.52018 0.46768 0.0
loop_
_geom_bond_atom_site_label_1
_geom_bond_atom_site_label_2
_geom_bond_distance
_geom_bond_site_symmetry_2
_ccdc_geom_bond_type
C0 N1 1.317 . S
C0 N2 1.348 . S
C0 C3 1.485 . S
N1 C0 1.317 . S
N1 N5 1.370 . S
N2 C0 1.348 . S
N2 C4 1.346 . S
C3 C0 1.485 . S
C3 H7 0.960 . S
C3 H8 0.961 . S
C3 H9 0.960 . S
C4 N2 1.346 . S
C4 N5 1.307 . S
C4 C6 1.486 . S
N5 N1 1.370 . S
N5 C4 1.307 . S
C6 C4 1.486 . S
C6 H10 0.960 . S
C6 H11 0.960 . S
C6 H12 0.959 . S
H7 C3 0.960 . S
H8 C3 0.961 . S
H9 C3 0.960 . S
H10 C6 0.960 . S
H11 C6 0.960 . S
H12 C6 0.959 . S
C13 N14 1.317 . S
C13 N15 1.348 . S
C13 C16 1.485 . S
N14 C13 1.317 . S
N14 N18 1.370 . S
N15 C13 1.348 . S
N15 C17 1.346 . S
C16 C13 1.485 . S
C16 H20 0.960 . S
C16 H21 0.961 . S
C16 H22 0.960 . S
C17 N15 1.346 . S
C17 N18 1.307 . S
C17 C19 1.486 . S
N18 N14 1.370 . S
N18 C17 1.307 . S
C19 C17 1.486 . S
C19 H23 0.960 . S
C19 H24 0.960 . S
C19 H25 0.959 . S
H20 C16 0.960 . S
H21 C16 0.961 . S
H22 C16 0.960 . S
H23 C19 0.960 . S
H24 C19 0.960 . S
H25 C19 0.959 . S
C26 N27 1.317 . S
C26 N28 1.348 . S
C26 C29 1.485 . S
N27 C26 1.317 . S
N27 N31 1.370 . S
N28 C26 1.348 . S
N28 C30 1.346 . S
C29 C26 1.485 . S
C29 H33 0.960 . S
C29 H34 0.961 . S
C29 H35 0.960 . S
C30 N28 1.346 . S
C30 N31 1.307 . S
C30 C32 1.486 . S
N31 N27 1.370 . S
N31 C30 1.307 . S
C32 C30 1.486 . S
C32 H36 0.960 . S
C32 H37 0.960 . S
C32 H38 0.959 . S
H33 C29 0.960 . S
H34 C29 0.961 . S
H35 C29 0.960 . S
H36 C32 0.960 . S
H37 C32 0.960 . S
H38 C32 0.959 . S
C39 N40 1.317 . S
C39 N41 1.348 . S
C39 C42 1.485 . S
N40 C39 1.317 . S
N40 N44 1.370 . S
N41 C39 1.348 . S
N41 C43 1.346 . S
C42 C39 1.485 . S
C42 H46 0.960 . S
C42 H47 0.961 . S
C42 H48 0.960 . S
C43 N41 1.346 . S
C43 N44 1.307 . S
C43 C45 1.486 . S
N44 N40 1.370 . S
N44 C43 1.307 . S
C45 C43 1.486 . S
C45 H49 0.960 . S
C45 H50 0.960 . S
C45 H51 0.959 . S
H46 C42 0.960 . S
H47 C42 0.961 . S
H48 C42 0.960 . S
H49 C45 0.960 . S
H50 C45 0.960 . S
H51 C45 0.959 . S
C52 N53 1.317 . S
C52 N54 1.348 1_556 S
C52 C55 1.485 . S
N53 C52 1.317 . S
N53 N57 1.370 1_556 S
N54 C52 1.348 1_554 S
N54 C56 1.346 . S
C55 C52 1.485 . S
C55 H59 0.960 . S
C55 H60 0.961 . S
C55 H61 0.960 . S
C56 N54 1.346 . S
C56 N57 1.307 . S
C56 C58 1.486 . S
N57 N53 1.370 1_554 S
N57 C56 1.307 . S
C58 C56 1.486 . S
C58 H62 0.960 . S
C58 H63 0.960 . S
C58 H64 0.959 . S
H59 C55 0.960 . S
H60 C55 0.961 . S
H61 C55 0.960 . S
H62 C58 0.960 . S
H63 C58 0.960 . S
H64 C58 0.959 . S
C65 N66 1.317 . S
C65 N67 1.348 1_556 S
C65 C68 1.485 . S
N66 C65 1.317 . S
N66 N70 1.370 1_556 S
N67 C65 1.348 1_554 S
N67 C69 1.346 . S
C68 C65 1.485 . S
C68 H72 0.960 . S
C68 H73 0.961 . S
C68 H74 0.960 . S
C69 N67 1.346 . S
C69 N70 1.307 . S
C69 C71 1.486 . S
N70 N66 1.370 1_554 S
N70 C69 1.307 . S
C71 C69 1.486 . S
C71 H75 0.960 . S
C71 H76 0.960 . S
C71 H77 0.959 . S
H72 C68 0.960 . S
H73 C68 0.961 . S
H74 C68 0.960 . S
H75 C71 0.960 . S
H76 C71 0.960 . S
H77 C71 0.959 . S
C78 N79 1.317 . S
C78 N80 1.348 1_556 S
C78 C81 1.485 . S
N79 C78 1.317 . S
N79 N83 1.370 1_556 S
N80 C78 1.348 1_554 S
N80 C82 1.346 . S
C81 C78 1.485 . S
C81 H85 0.960 . S
C81 H86 0.961 . S
C81 H87 0.960 . S
C82 N80 1.346 . S
C82 N83 1.307 . S
C82 C84 1.486 . S
N83 N79 1.370 1_554 S
N83 C82 1.307 . S
C84 C82 1.486 . S
C84 H88 0.960 . S
C84 H89 0.960 . S
C84 H90 0.959 . S
H85 C81 0.960 . S
H86 C81 0.961 . S
H87 C81 0.960 . S
H88 C84 0.960 . S
H89 C84 0.960 . S
H90 C84 0.959 . S
C91 N92 1.317 . S
C91 N93 1.348 1_556 S
C91 C94 1.485 . S
N92 C91 1.317 . S
N92 N96 1.370 1_556 S
N93 C91 1.348 1_554 S
N93 C95 1.346 . S
C94 C91 1.485 . S
C94 H98 0.960 . S
C94 H99 0.961 . S
C94 H100 0.960 . S
C95 N93 1.346 . S
C95 N96 1.307 . S
C95 C97 1.486 . S
N96 N92 1.370 1_554 S
N96 C95 1.307 . S
C97 C95 1.486 . S
C97 H101 0.960 . S
C97 H102 0.960 . S
C97 H103 0.959 . S
H98 C94 0.960 . S
H99 C94 0.961 . S
H100 C94 0.960 . S
H101 C97 0.960 . S
H102 C97 0.960 . S
H103 C97 0.959 . S
Tb104 N135 2.660 1_565 S
Tb104 N142 2.600 1_565 S
Tb104 O148 2.546 . S
Tb104 O149 2.610 1_455 S
Tb104 O151 2.320 1_455 S
Tb104 O152 2.552 . S
Tb104 O153 2.413 . S
Tb104 O155 2.362 1_565 S
Tb104 O156 2.421 . S
Tb104 C168 2.833 . S
C105 C108 1.432 1_545 S
C105 C109 1.414 1_545 S
C105 N112 1.359 . S
C106 C108 1.417 . S
C106 C110 1.432 . S
C106 C118 1.410 . S
C107 C109 1.444 . S
C107 C110 1.317 . S
C107 H130 0.929 . S
C108 C105 1.432 1_565 S
C108 C106 1.417 . S
C108 N116 1.360 . S
C109 C105 1.414 1_565 S
C109 C107 1.444 . S
C109 C114 1.385 1_565 S
C110 C106 1.432 . S
C110 C107 1.317 . S
C110 H122 0.930 . S
C111 C113 1.392 . S
C111 C114 1.370 . S
C111 H123 0.931 . S
N112 C105 1.359 . S
N112 C113 1.327 . S
N112 Tb115 2.600 . S
C113 C111 1.392 . S
C113 N112 1.327 . S
C113 H120 0.930 . S
C114 C109 1.385 1_545 S
C114 C111 1.370 . S
C114 H133 0.930 . S
Tb115 N112 2.600 . S
Tb115 N116 2.660 1_545 S
Tb115 O149 2.362 1_545 S
Tb115 O150 2.421 . S
Tb115 O154 2.546 . S
Tb115 O155 2.610 1_655 S
Tb115 O157 2.320 1_655 S
Tb115 O158 2.552 1_655 S
Tb115 O159 2.413 . S
Tb115 C179 2.833 . S
N116 C108 1.360 . S
N116 Tb115 2.660 1_565 S
N116 C117 1.305 1_655 S
C117 N116 1.305 1_455 S
C117 C119 1.407 . S
C117 H124 0.930 . S
C118 C106 1.410 . S
C118 C119 1.345 1_655 S
C118 H126 0.930 . S
C119 C117 1.407 . S
C119 C118 1.345 1_455 S
C119 H121 0.930 . S
H120 C113 0.930 . S
H121 C119 0.930 . S
H122 C110 0.930 . S
H123 C111 0.931 . S
H124 C117 0.930 . S
H125 C139 0.930 1_655 S
H126 C118 0.930 . S
H127 C145 0.930 . S
H128 C136 0.930 1_655 S
H129 C143 0.931 . S
H130 C107 0.929 . S
H131 C137 0.930 . S
H132 C170 0.930 . S
H133 C114 0.930 . S
H134 C169 0.929 . S
N135 Tb104 2.660 1_545 S
N135 C136 1.305 . S
N135 C140 1.360 . S
C136 H128 0.930 1_455 S
C136 N135 1.305 . S
C136 C139 1.407 1_556 S
C137 H131 0.930 . S
C137 C138 1.410 . S
C137 C139 1.345 . S
C138 C137 1.410 . S
C138 C140 1.417 1_554 S
C138 C170 1.432 . S
C139 H125 0.930 1_455 S
C139 C136 1.407 1_554 S
C139 C137 1.345 . S
C140 N135 1.360 . S
C140 C138 1.417 1_556 S
C140 C144 1.432 . S
H141 C146 0.930 . S
N142 Tb104 2.600 1_545 S
N142 C144 1.359 . S
N142 C145 1.327 1_545 S
C143 H129 0.931 . S
C143 C145 1.392 . S
C143 C146 1.370 1_565 S
C144 C140 1.432 . S
C144 N142 1.359 . S
C144 C147 1.414 . S
C145 H127 0.930 . S
C145 N142 1.327 1_565 S
C145 C143 1.392 . S
C146 H141 0.930 . S
C146 C143 1.370 1_545 S
C146 C147 1.385 . S
C147 C144 1.414 . S
C147 C146 1.385 . S
C147 C169 1.444 1_556 S
O148 Tb104 2.546 . S
O148 C168 1.251 . S
O149 Tb104 2.610 1_655 S
O149 Tb115 2.362 1_565 S
O149 C160 1.283 . S
O150 Tb115 2.421 . S
O150 C167 1.262 . S
O151 Tb104 2.320 1_655 S
O151 C167 1.260 1_565 S
O152 Tb104 2.552 . S
O152 C160 1.243 1_455 S
O153 Tb104 2.413 . S
O153 C168 1.256 . S
O154 Tb115 2.546 . S
O154 C179 1.251 . S
O155 Tb104 2.362 1_545 S
O155 Tb115 2.610 1_455 S
O155 C171 1.283 . S
O156 Tb104 2.421 . S
O156 C178 1.262 1_565 S
O157 Tb115 2.320 1_455 S
O157 C178 1.260 . S
O158 Tb115 2.552 1_455 S
O158 C171 1.243 . S
O159 Tb115 2.413 . S
O159 C179 1.256 . S
C160 O149 1.283 . S
C160 O152 1.243 1_655 S
C161 C163 1.382 . S
C161 C165 1.393 . S
C161 C168 1.500 . S
C162 C163 1.400 1_554 S
C162 C164 1.384 . S
C163 C161 1.382 . S
C163 C162 1.400 1_556 S
C163 H180 0.930 . S
C164 C162 1.384 . S
C164 C166 1.392 . S
C164 H181 0.931 . S
C165 C161 1.393 . S
C165 C166 1.401 1_556 S
C165 H182 0.930 . S
C166 C164 1.392 . S
C166 C165 1.401 1_554 S
C166 H183 0.930 . S
C167 O150 1.262 . S
C167 O151 1.260 1_545 S
C168 Tb104 2.833 . S
C168 O148 1.251 . S
C168 O153 1.256 . S
C168 C161 1.500 . S
C169 H134 0.929 . S
C169 C147 1.444 1_554 S
C169 C170 1.317 . S
C170 H132 0.930 . S
C170 C138 1.432 . S
C170 C169 1.317 . S
C171 O155 1.283 . S
C171 O158 1.243 . S
C172 C173 1.382 . S
C172 C176 1.393 . S
C172 C179 1.500 . S
C173 C172 1.382 . S
C173 C174 1.400 . S
C173 H184 0.930 1_655 S
C174 C173 1.400 . S
C174 C175 1.384 . S
C175 C174 1.384 . S
C175 C177 1.392 . S
C175 H185 0.931 . S
C176 C172 1.393 . S
C176 C177 1.401 . S
C176 H186 0.930 . S
C177 C175 1.392 . S
C177 C176 1.401 . S
C177 H187 0.930 . S
C178 O156 1.262 1_545 S
C178 O157 1.260 . S
C179 Tb115 2.833 . S
C179 O154 1.251 . S
C179 O159 1.256 . S
C179 C172 1.500 . S
H180 C163 0.930 . S
H181 C164 0.931 . S
H182 C165 0.930 . S
H183 C166 0.930 . S
H184 C173 0.930 1_455 S
H185 C175 0.931 . S
H186 C176 0.930 . S
H187 C177 0.930 . S
Tb188 N219 2.660 . S
Tb188 N226 2.600 . S
Tb188 O232 2.546 . S
Tb188 O233 2.610 1_545 S
Tb188 O235 2.320 1_545 S
Tb188 O236 2.552 . S
Tb188 O237 2.413 . S
Tb188 O239 2.362 . S
Tb188 O240 2.421 . S
Tb188 C252 2.833 . S
C189 C192 1.432 . S
C189 C193 1.414 . S
C189 N196 1.359 . S
C190 C192 1.417 . S
C190 C194 1.432 . S
C190 C202 1.410 . S
C191 C193 1.444 . S
C191 C194 1.317 . S
C191 H214 0.929 . S
C192 C189 1.432 . S
C192 C190 1.417 . S
C192 N200 1.360 . S
C193 C189 1.414 . S
C193 C191 1.444 . S
C193 C198 1.385 . S
C194 C190 1.432 . S
C194 C191 1.317 . S
C194 H206 0.930 . S
C195 C197 1.392 . S
C195 C198 1.370 . S
C195 H207 0.931 . S
N196 C189 1.359 . S
N196 C197 1.327 . S
N196 Tb199 2.600 . S
C197 C195 1.392 . S
C197 N196 1.327 . S
C197 H204 0.930 . S
C198 C193 1.385 . S
C198 C195 1.370 . S
C198 H217 0.930 . S
Tb199 N196 2.600 . S
Tb199 N200 2.660 . S
Tb199 O233 2.362 . S
Tb199 O234 2.421 . S
Tb199 O238 2.546 . S
Tb199 O239 2.610 1_565 S
Tb199 O241 2.320 1_565 S
Tb199 O242 2.552 1_565 S
Tb199 O243 2.413 . S
Tb199 C263 2.833 . S
N200 C192 1.360 . S
N200 Tb199 2.660 . S
N200 C201 1.305 1_565 S
C201 N200 1.305 1_545 S
C201 C203 1.407 . S
C201 H208 0.930 . S
C202 C190 1.410 . S
C202 C203 1.345 1_565 S
C202 H210 0.930 . S
C203 C201 1.407 . S
C203 C202 1.345 1_545 S
C203 H205 0.930 . S
H204 C197 0.930 . S
H205 C203 0.930 . S
H206 C194 0.930 . S
H207 C195 0.931 . S
H208 C201 0.930 . S
H209 C223 0.930 1_565 S
H210 C202 0.930 . S
H211 C229 0.930 . S
H212 C220 0.930 1_565 S
H213 C227 0.931 . S
H214 C191 0.929 . S
H215 C221 0.930 . S
H216 C254 0.930 . S
H217 C198 0.930 . S
H218 C253 0.929 . S
N219 Tb188 2.660 . S
N219 C220 1.305 . S
N219 C224 1.360 . S
C220 H212 0.930 1_545 S
C220 N219 1.305 . S
C220 C223 1.407 1_556 S
C221 H215 0.930 . S
C221 C222 1.410 . S
C221 C223 1.345 . S
C222 C221 1.410 . S
C222 C224 1.417 1_554 S
C222 C254 1.432 . S
C223 H209 0.930 1_545 S
C223 C220 1.407 1_554 S
C223 C221 1.345 . S
C224 N219 1.360 . S
C224 C222 1.417 1_556 S
C224 C228 1.432 . S
H225 C230 0.930 . S
N226 Tb188 2.600 . S
N226 C228 1.359 . S
N226 C229 1.327 . S
C227 H213 0.931 . S
C227 C229 1.392 . S
C227 C230 1.370 . S
C228 C224 1.432 . S
C228 N226 1.359 . S
C228 C231 1.414 . S
C229 H211 0.930 . S
C229 N226 1.327 . S
C229 C227 1.392 . S
C230 H225 0.930 . S
C230 C227 1.370 . S
C230 C231 1.385 . S
C231 C228 1.414 . S
C231 C230 1.385 . S
C231 C253 1.444 1_556 S
O232 Tb188 2.546 . S
O232 C252 1.251 . S
O233 Tb188 2.610 1_565 S
O233 Tb199 2.362 . S
O233 C244 1.284 . S
O234 Tb199 2.421 . S
O234 C251 1.262 . S
O235 Tb188 2.320 1_565 S
O235 C251 1.260 . S
O236 Tb188 2.552 . S
O236 C244 1.227 1_545 S
O237 Tb188 2.413 . S
O237 C252 1.256 . S
O238 Tb199 2.546 . S
O238 C263 1.251 . S
O239 Tb188 2.362 . S
O239 Tb199 2.610 1_545 S
O239 C255 1.283 . S
O240 Tb188 2.421 . S
O240 C262 1.262 . S
O241 Tb199 2.320 1_545 S
O241 C262 1.260 . S
O242 Tb199 2.552 1_545 S
O242 C255 1.243 . S
O243 Tb199 2.413 . S
O243 C263 1.256 . S
C244 O233 1.284 . S
C244 O236 1.227 1_565 S
C245 C247 1.382 . S
C245 C249 1.393 . S
C245 C252 1.500 . S
C246 C247 1.400 1_554 S
C246 C248 1.384 . S
C247 C245 1.382 . S
C247 C246 1.400 1_556 S
C247 H264 0.930 . S
C248 C246 1.384 . S
C248 C250 1.392 . S
C248 H265 0.931 . S
C249 C245 1.393 . S
C249 C250 1.401 1_556 S
C249 H266 0.930 . S
C250 C248 1.392 . S
C250 C249 1.401 1_554 S
C250 H267 0.930 . S
C251 O234 1.262 . S
C251 O235 1.260 . S
C252 Tb188 2.833 . S
C252 O232 1.251 . S
C252 O237 1.256 . S
C252 C245 1.500 . S
C253 H218 0.929 . S
C253 C231 1.444 1_554 S
C253 C254 1.317 . S
C254 H216 0.930 . S
C254 C222 1.432 . S
C254 C253 1.317 . S
C255 O239 1.283 . S
C255 O242 1.243 . S
C256 C257 1.382 . S
C256 C260 1.393 . S
C256 C263 1.500 . S
C257 C256 1.382 . S
C257 C258 1.400 . S
C257 H268 0.930 1_565 S
C258 C257 1.400 . S
C258 C259 1.384 . S
C259 C258 1.384 . S
C259 C261 1.392 . S
C259 H269 0.931 . S
C260 C256 1.393 . S
C260 C261 1.401 . S
C260 H270 0.930 . S
C261 C259 1.392 . S
C261 C260 1.401 . S
C261 H271 0.930 . S
C262 O240 1.262 . S
C262 O241 1.260 . S
C263 Tb199 2.833 . S
C263 O238 1.251 . S
C263 O243 1.256 . S
C263 C256 1.500 . S
H264 C247 0.930 . S
H265 C248 0.931 . S
H266 C249 0.930 . S
H267 C250 0.930 . S
H268 C257 0.930 1_545 S
H269 C259 0.931 . S
H270 C260 0.930 . S
H271 C261 0.930 . S
Tb272 N303 2.660 . S
Tb272 N310 2.600 . S
Tb272 O316 2.546 . S
Tb272 O317 2.610 . S
Tb272 O319 2.320 . S
Tb272 O320 2.552 . S
Tb272 O321 2.413 . S
Tb272 O323 2.362 . S
Tb272 O324 2.421 . S
Tb272 C336 2.833 . S
C273 C276 1.432 . S
C273 C277 1.414 . S
C273 N280 1.359 . S
C274 C276 1.417 . S
C274 C278 1.432 . S
C274 C286 1.410 . S
C275 C277 1.444 . S
C275 C278 1.317 . S
C275 H298 0.929 . S
C276 C273 1.432 . S
C276 C274 1.417 . S
C276 N284 1.360 . S
C277 C273 1.414 . S
C277 C275 1.444 . S
C277 C282 1.385 . S
C278 C274 1.432 . S
C278 C275 1.317 . S
C278 H290 0.930 . S
C279 C281 1.392 . S
C279 C282 1.370 . S
C279 H291 0.931 1_556 S
N280 C273 1.359 . S
N280 C281 1.327 . S
N280 Tb283 2.600 . S
C281 C279 1.392 . S
C281 N280 1.327 . S
C281 H288 0.930 . S
C282 C277 1.385 . S
C282 C279 1.370 . S
C282 H301 0.930 . S
Tb283 N280 2.600 . S
Tb283 N284 2.660 . S
Tb283 O317 2.362 . S
Tb283 O318 2.421 . S
Tb283 O322 2.546 . S
Tb283 O323 2.610 . S
Tb283 O325 2.320 . S
Tb283 O326 2.552 . S
Tb283 O327 2.413 . S
Tb283 C347 2.833 . S
N284 C276 1.360 . S
N284 Tb283 2.660 . S
N284 C285 1.305 . S
C285 N284 1.305 . S
C285 C287 1.407 . S
C285 H292 0.930 . S
C286 C274 1.410 . S
C286 C287 1.345 . S
C286 H294 0.930 . S
C287 C285 1.407 . S
C287 C286 1.345 . S
C287 H289 0.930 . S
H288 C281 0.930 . S
H289 C287 0.930 . S
H290 C278 0.930 . S
H291 C279 0.931 1_554 S
H292 C285 0.930 . S
H293 C307 0.930 . S
H294 C286 0.930 . S
H295 C313 0.930 . S
H296 C304 0.930 . S
H297 C311 0.931 . S
H298 C275 0.929 . S
H299 C305 0.930 . S
H300 C338 0.930 . S
H301 C282 0.930 . S
H302 C337 0.929 . S
N303 Tb272 2.660 . S
N303 C304 1.305 . S
N303 C308 1.360 . S
C304 H296 0.930 . S
C304 N303 1.305 . S
C304 C307 1.407 . S
C305 H299 0.930 . S
C305 C306 1.410 . S
C305 C307 1.345 . S
C306 C305 1.410 . S
C306 C308 1.417 . S
C306 C338 1.432 . S
C307 H293 0.930 . S
C307 C304 1.407 . S
C307 C305 1.345 . S
C308 N303 1.360 . S
C308 C306 1.417 . S
C308 C312 1.432 . S
H309 C314 0.930 . S
N310 Tb272 2.600 . S
N310 C312 1.359 . S
N310 C313 1.327 . S
C311 H297 0.931 . S
C311 C313 1.392 . S
C311 C314 1.370 . S
C312 C308 1.432 . S
C312 N310 1.359 . S
C312 C315 1.414 . S
C313 H295 0.930 . S
C313 N310 1.327 . S
C313 C311 1.392 . S
C314 H309 0.930 . S
C314 C311 1.370 . S
C314 C315 1.385 . S
C315 C312 1.414 . S
C315 C314 1.385 . S
C315 C337 1.444 . S
O316 Tb272 2.546 . S
O316 C336 1.251 . S
O317 Tb272 2.610 . S
O317 Tb283 2.362 . S
O317 C328 1.283 . S
O318 Tb283 2.421 . S
O318 C335 1.262 . S
O319 Tb272 2.320 . S
O319 C335 1.260 . S
O320 Tb272 2.552 . S
O320 C328 1.243 . S
O321 Tb272 2.413 . S
O321 C336 1.256 . S
O322 Tb283 2.546 . S
O322 C347 1.251 . S
O323 Tb272 2.362 . S
O323 Tb283 2.610 . S
O323 C339 1.283 . S
O324 Tb272 2.421 . S
O324 C346 1.262 . S
O325 Tb283 2.320 . S
O325 C346 1.260 . S
O326 Tb283 2.552 . S
O326 C339 1.243 . S
O327 Tb283 2.413 . S
O327 C347 1.256 . S
C328 O317 1.283 . S
C328 O320 1.243 . S
C329 C331 1.382 . S
C329 C333 1.393 . S
C329 C336 1.500 . S
C330 C331 1.400 . S
C330 C332 1.384 . S
C331 C329 1.382 . S
C331 C330 1.400 . S
C331 H348 0.930 . S
C332 C330 1.384 . S
C332 C334 1.392 . S
C332 H349 0.931 . S
C333 C329 1.393 . S
C333 C334 1.401 . S
C333 H350 0.930 . S
C334 C332 1.392 . S
C334 C333 1.401 . S
C334 H351 0.930 . S
C335 O318 1.262 . S
C335 O319 1.260 . S
C336 Tb272 2.833 . S
C336 O316 1.251 . S
C336 O321 1.256 . S
C336 C329 1.500 . S
C337 H302 0.929 . S
C337 C315 1.444 . S
C337 C338 1.317 . S
C338 H300 0.930 . S
C338 C306 1.432 . S
C338 C337 1.317 . S
C339 O323 1.283 . S
C339 O326 1.243 . S
C340 C341 1.382 . S
C340 C344 1.393 . S
C340 C347 1.500 1_554 S
C341 C340 1.382 . S
C341 C342 1.400 . S
C341 H352 0.930 1_554 S
C342 C341 1.400 . S
C342 C343 1.384 . S
C343 C342 1.384 . S
C343 C345 1.392 . S
C343 H353 0.931 . S
C344 C340 1.393 . S
C344 C345 1.401 . S
C344 H354 0.930 . S
C345 C343 1.392 . S
C345 C344 1.401 . S
C345 H355 0.930 . S
C346 O324 1.262 . S
C346 O325 1.260 . S
C347 Tb283 2.833 . S
C347 O322 1.251 . S
C347 O327 1.256 . S
C347 C340 1.500 1_556 S
H348 C331 0.930 . S
H349 C332 0.931 . S
H350 C333 0.930 . S
H351 C334 0.930 . S
H352 C341 0.930 1_556 S
H353 C343 0.931 . S
H354 C344 0.930 . S
H355 C345 0.930 . S
Tb356 N387 2.660 . S
Tb356 N394 2.600 . S
Tb356 O400 2.546 . S
Tb356 O401 2.610 . S
Tb356 O403 2.320 . S
Tb356 O404 2.552 . S
Tb356 O405 2.413 . S
Tb356 O407 2.362 . S
Tb356 O408 2.421 1_455 S
Tb356 C420 2.833 . S
C357 C360 1.432 . S
C357 C361 1.414 . S
C357 N364 1.359 . S
C358 C360 1.417 . S
C358 C362 1.432 . S
C358 C370 1.410 . S
C359 C361 1.444 . S
C359 C362 1.317 . S
C359 H382 0.929 . S
C360 C357 1.432 . S
C360 C358 1.417 . S
C360 N368 1.360 . S
C361 C357 1.414 . S
C361 C359 1.444 . S
C361 C366 1.385 1_655 S
C362 C358 1.432 . S
C362 C359 1.317 . S
C362 H374 0.930 . S
C363 C365 1.392 . S
C363 C366 1.370 . S
C363 H375 0.931 1_556 S
N364 C357 1.359 . S
N364 C365 1.327 1_655 S
N364 Tb367 2.600 . S
C365 C363 1.392 . S
C365 N364 1.327 1_455 S
C365 H372 0.930 . S
C366 C361 1.385 1_455 S
C366 C363 1.370 . S
C366 H385 0.930 . S
Tb367 N364 2.600 . S
Tb367 N368 2.660 . S
Tb367 O401 2.362 1_655 S
Tb367 O402 2.421 1_655 S
Tb367 O406 2.546 . S
Tb367 O407 2.610 1_655 S
Tb367 O409 2.320 . S
Tb367 O410 2.552 . S
Tb367 O411 2.413 . S
Tb367 C431 2.833 . S
N368 C360 1.360 . S
N368 Tb367 2.660 . S
N368 C369 1.305 . S
C369 N368 1.305 . S
C369 C371 1.407 . S
C369 H376 0.930 . S
C370 C358 1.410 . S
C370 C371 1.345 . S
C370 H378 0.930 . S
C371 C369 1.407 . S
C371 C370 1.345 . S
C371 H373 0.930 . S
H372 C365 0.930 . S
H373 C371 0.930 . S
H374 C362 0.930 . S
H375 C363 0.931 1_554 S
H376 C369 0.930 . S
H377 C391 0.930 . S
H378 C370 0.930 . S
H379 C397 0.930 . S
H380 C388 0.930 . S
H381 C395 0.931 . S
H382 C359 0.929 . S
H383 C389 0.930 . S
H384 C422 0.930 . S
H385 C366 0.930 . S
H386 C421 0.929 . S
N387 Tb356 2.660 . S
N387 C388 1.305 . S
N387 C392 1.360 . S
C388 H380 0.930 . S
C388 N387 1.305 . S
C388 C391 1.407 . S
C389 H383 0.930 . S
C389 C390 1.410 . S
C389 C391 1.345 . S
C390 C389 1.410 . S
C390 C392 1.417 . S
C390 C422 1.432 . S
C391 H377 0.930 . S
C391 C388 1.407 . S
C391 C389 1.345 . S
C392 N387 1.360 . S
C392 C390 1.417 . S
C392 C396 1.432 . S
H393 C398 0.930 . S
N394 Tb356 2.600 . S
N394 C396 1.359 . S
N394 C397 1.327 1_455 S
C395 H381 0.931 . S
C395 C397 1.392 . S
C395 C398 1.370 1_655 S
C396 C392 1.432 . S
C396 N394 1.359 . S
C396 C399 1.414 . S
C397 H379 0.930 . S
C397 N394 1.327 1_655 S
C397 C395 1.392 . S
C398 H393 0.930 . S
C398 C395 1.370 1_455 S
C398 C399 1.385 . S
C399 C396 1.414 . S
C399 C398 1.385 . S
C399 C421 1.444 . S
O400 Tb356 2.546 . S
O400 C420 1.251 . S
O401 Tb356 2.610 . S
O401 Tb367 2.362 1_455 S
O401 C412 1.283 . S
O402 Tb367 2.421 1_455 S
O402 C419 1.262 . S
O403 Tb356 2.320 . S
O403 C419 1.260 . S
O404 Tb356 2.552 . S
O404 C412 1.243 . S
O405 Tb356 2.413 . S
O405 C420 1.256 . S
O406 Tb367 2.546 . S
O406 C431 1.251 . S
O407 Tb356 2.362 . S
O407 Tb367 2.610 1_455 S
O407 C423 1.283 1_455 S
O408 Tb356 2.421 1_655 S
O408 C430 1.262 . S
O409 Tb367 2.320 . S
O409 C430 1.260 . S
O410 Tb367 2.552 . S
O410 C423 1.243 . S
O411 Tb367 2.413 . S
O411 C431 1.256 . S
C412 O401 1.283 . S
C412 O404 1.243 . S
C413 C415 1.382 . S
C413 C417 1.393 . S
C413 C420 1.500 . S
C414 C415 1.400 . S
C414 C416 1.384 . S
C415 C413 1.382 . S
C415 C414 1.400 . S
C415 H432 0.930 . S
C416 C414 1.384 . S
C416 C418 1.392 . S
C416 H433 0.931 . S
C417 C413 1.393 . S
C417 C418 1.401 . S
C417 H434 0.930 . S
C418 C416 1.392 . S
C418 C417 1.401 . S
C418 H435 0.930 . S
C419 O402 1.262 . S
C419 O403 1.260 . S
C420 Tb356 2.833 . S
C420 O400 1.251 . S
C420 O405 1.256 . S
C420 C413 1.500 . S
C421 H386 0.929 . S
C421 C399 1.444 . S
C421 C422 1.317 . S
C422 H384 0.930 . S
C422 C390 1.432 . S
C422 C421 1.317 . S
C423 O407 1.283 1_655 S
C423 O410 1.243 . S
C424 C425 1.382 . S
C424 C428 1.393 . S
C424 C431 1.500 1_554 S
C425 C424 1.382 . S
C425 C426 1.400 . S
C425 H436 0.930 1_554 S
C426 C425 1.400 . S
C426 C427 1.384 . S
C427 C426 1.384 . S
C427 C429 1.392 . S
C427 H437 0.931 . S
C428 C424 1.393 . S
C428 C429 1.401 . S
C428 H438 0.930 . S
C429 C427 1.392 . S
C429 C428 1.401 . S
C429 H439 0.930 . S
C430 O408 1.262 . S
C430 O409 1.260 . S
C431 Tb367 2.833 . S
C431 O406 1.251 . S
C431 O411 1.256 . S
C431 C424 1.500 1_556 S
H432 C415 0.930 . S
H433 C416 0.931 . S
H434 C417 0.930 . S
H435 C418 0.930 . S
H436 C425 0.930 1_556 S
H437 C427 0.931 . S
H438 C428 0.930 . S
H439 C429 0.930 . S
H440 C448 0.950 . S
H441 C453 0.950 . S
H442 C450 0.950 . S
H443 C452 0.950 . S
H444 C454 0.950 . S
H445 C456 0.950 . S
H446 C458 0.950 1_565 S
H447 C459 0.950 1_565 S
C448 H440 0.950 . S
C448 C449 1.386 . S
C448 C450 1.391 . S
C449 C448 1.386 . S
C449 C453 1.393 . S
C450 H442 0.950 . S
C450 C448 1.391 . S
C450 C451 1.400 . S
C451 C450 1.400 . S
C451 C452 1.398 . S
C451 C457 1.491 . S
C452 H443 0.950 . S
C452 C451 1.398 . S
C452 C453 1.391 . S
C453 H441 0.950 . S
C453 C449 1.393 . S
C453 C452 1.391 . S
C454 H444 0.950 . S
C454 C455 1.386 . S
C454 C456 1.391 . S
C455 C454 1.386 . S
C455 C459 1.393 . S
C456 H445 0.950 . S
C456 C454 1.391 . S
C456 C457 1.400 . S
C457 C451 1.491 . S
C457 C456 1.400 . S
C457 C458 1.398 . S
C458 H446 0.950 1_545 S
C458 C457 1.398 . S
C458 C459 1.391 . S
C459 H447 0.950 1_545 S
C459 C455 1.393 . S
C459 C458 1.391 . S
H460 C468 0.950 . S
H461 C473 0.950 . S
H462 C470 0.950 . S
H463 C472 0.950 . S
H464 C474 0.950 . S
H465 C476 0.950 . S
H466 C478 0.950 . S
H467 C479 0.950 . S
C468 H460 0.950 . S
C468 C469 1.386 . S
C468 C470 1.391 . S
C469 C468 1.386 . S
C469 C473 1.393 . S
C470 H462 0.950 . S
C470 C468 1.391 . S
C470 C471 1.400 . S
C471 C470 1.400 . S
C471 C472 1.398 . S
C471 C477 1.491 . S
C472 H463 0.950 . S
C472 C471 1.398 . S
C472 C473 1.391 . S
C473 H461 0.950 . S
C473 C469 1.393 . S
C473 C472 1.391 . S
C474 H464 0.950 . S
C474 C475 1.386 . S
C474 C476 1.391 . S
C475 C474 1.386 . S
C475 C479 1.393 . S
C476 H465 0.950 . S
C476 C474 1.391 . S
C476 C477 1.400 . S
C477 C471 1.491 . S
C477 C476 1.400 . S
C477 C478 1.398 . S
C478 H466 0.950 . S
C478 C477 1.398 . S
C478 C479 1.391 . S
C479 H467 0.950 . S
C479 C475 1.393 . S
C479 C478 1.391 . S
H480 C488 0.950 . S
H481 C493 0.950 . S
H482 C490 0.950 . S
H483 C492 0.950 . S
H484 C494 0.950 . S
H485 C496 0.950 . S
H486 C498 0.950 . S
H487 C499 0.950 . S
C488 H480 0.950 . S
C488 C489 1.386 . S
C488 C490 1.391 . S
C489 C488 1.386 . S
C489 C493 1.393 . S
C490 H482 0.950 . S
C490 C488 1.391 . S
C490 C491 1.400 . S
C491 C490 1.400 . S
C491 C492 1.398 . S
C491 C497 1.491 . S
C492 H483 0.950 . S
C492 C491 1.398 . S
C492 C493 1.391 . S
C493 H481 0.950 . S
C493 C489 1.393 . S
C493 C492 1.391 . S
C494 H484 0.950 . S
C494 C495 1.386 . S
C494 C496 1.391 . S
C495 C494 1.386 . S
C495 C499 1.393 . S
C496 H485 0.950 . S
C496 C494 1.391 . S
C496 C497 1.400 . S
C497 C491 1.491 . S
C497 C496 1.400 . S
C497 C498 1.398 . S
C498 H486 0.950 . S
C498 C497 1.398 . S
C498 C499 1.391 . S
C499 H487 0.950 . S
C499 C495 1.393 . S
C499 C498 1.391 . S
H500 C508 0.950 . S
H501 C513 0.950 . S
H502 C510 0.950 . S
H503 C512 0.950 . S
H504 C514 0.950 . S
H505 C516 0.950 . S
H506 C518 0.950 . S
H507 C519 0.950 . S
C508 H500 0.950 . S
C508 C509 1.386 . S
C508 C510 1.391 . S
C509 C508 1.386 . S
C509 C513 1.393 . S
C510 H502 0.950 . S
C510 C508 1.391 . S
C510 C511 1.400 . S
C511 C510 1.400 . S
C511 C512 1.398 . S
C511 C517 1.491 . S
C512 H503 0.950 . S
C512 C511 1.398 . S
C512 C513 1.391 . S
C513 H501 0.950 . S
C513 C509 1.393 . S
C513 C512 1.391 . S
C514 H504 0.950 . S
C514 C515 1.386 . S
C514 C516 1.391 . S
C515 C514 1.386 . S
C515 C519 1.393 . S
C516 H505 0.950 . S
C516 C514 1.391 . S
C516 C517 1.400 . S
C517 C511 1.491 . S
C517 C516 1.400 . S
C517 C518 1.398 . S
C518 H506 0.950 . S
C518 C517 1.398 . S
C518 C519 1.391 . S
C519 H507 0.950 . S
C519 C515 1.393 . S
C519 C518 1.391 . S
H520 C528 0.950 . S
H521 C533 0.950 . S
H522 C530 0.950 . S
H523 C532 0.950 . S
H524 C534 0.950 . S
H525 C536 0.950 . S
H526 C538 0.950 . S
H527 C539 0.949 1_545 S
C528 H520 0.950 . S
C528 C529 1.386 . S
C528 C530 1.391 . S
C529 C528 1.386 . S
C529 C533 1.393 . S
C530 H522 0.950 . S
C530 C528 1.391 . S
C530 C531 1.400 . S
C531 C530 1.400 . S
C531 C532 1.398 . S
C531 C537 1.491 . S
C532 H523 0.950 . S
C532 C531 1.398 . S
C532 C533 1.391 . S
C533 H521 0.950 . S
C533 C529 1.393 . S
C533 C532 1.391 . S
C534 H524 0.950 . S
C534 C535 1.386 . S
C534 C536 1.391 1_556 S
C535 C534 1.386 . S
C535 C539 1.393 . S
C536 H525 0.950 . S
C536 C534 1.391 1_554 S
C536 C537 1.400 . S
C537 C531 1.491 . S
C537 C536 1.400 . S
C537 C538 1.398 1_554 S
C538 H526 0.950 . S
C538 C537 1.398 1_556 S
C538 C539 1.391 . S
C539 H527 0.949 1_565 S
C539 C535 1.393 . S
C539 C538 1.391 . S
H540 C548 0.950 . S
H541 C553 0.950 . S
H542 C550 0.950 . S
H543 C552 0.950 . S
H544 C554 0.950 . S
H545 C556 0.950 . S
H546 C558 0.950 . S
H547 C559 0.950 . S
C548 H540 0.950 . S
C548 C549 1.386 . S
C548 C550 1.391 . S
C549 C548 1.386 . S
C549 C553 1.393 . S
C550 H542 0.950 . S
C550 C548 1.391 . S
C550 C551 1.400 . S
C551 C550 1.400 . S
C551 C552 1.398 . S
C551 C557 1.491 . S
C552 H543 0.950 . S
C552 C551 1.398 . S
C552 C553 1.391 . S
C553 H541 0.950 . S
C553 C549 1.393 . S
C553 C552 1.391 . S
C554 H544 0.950 . S
C554 C555 1.386 . S
C554 C556 1.391 1_556 S
C555 C554 1.386 . S
C555 C559 1.393 . S
C556 H545 0.950 . S
C556 C554 1.391 1_554 S
C556 C557 1.400 . S
C557 C551 1.491 . S
C557 C556 1.400 . S
C557 C558 1.398 1_554 S
C558 H546 0.950 . S
C558 C557 1.398 1_556 S
C558 C559 1.391 . S
C559 H547 0.950 . S
C559 C555 1.393 . S
C559 C558 1.391 . S
H560 C568 0.950 . S
H561 C573 0.950 . S
H562 C570 0.950 . S
H563 C572 0.950 . S
H564 C574 0.950 . S
H565 C576 0.950 1_554 S
H566 C578 0.950 . S
H567 C579 0.950 . S
C568 H560 0.950 . S
C568 C569 1.386 . S
C568 C570 1.391 . S
C569 C568 1.386 . S
C569 C573 1.393 . S
C570 H562 0.950 . S
C570 C568 1.391 . S
C570 C571 1.400 . S
C571 C570 1.400 . S
C571 C572 1.398 . S
C571 C577 1.491 . S
C572 H563 0.950 . S
C572 C571 1.398 . S
C572 C573 1.391 . S
C573 H561 0.950 . S
C573 C569 1.393 . S
C573 C572 1.391 . S
C574 H564 0.950 . S
C574 C575 1.386 . S
C574 C576 1.391 . S
C575 C574 1.386 . S
C575 C579 1.393 . S
C576 H565 0.950 1_556 S
C576 C574 1.391 . S
C576 C577 1.400 1_556 S
C577 C571 1.491 . S
C577 C576 1.400 1_554 S
C577 C578 1.398 1_554 S
C578 H566 0.950 . S
C578 C577 1.398 1_556 S
C578 C579 1.391 . S
C579 H567 0.950 . S
C579 C575 1.393 . S
C579 C578 1.391 . S
H580 C588 0.950 . S
H581 C593 0.950 1_455 S
H582 C590 0.950 . S
H583 C592 0.950 1_455 S
H584 C594 0.950 . S
H585 C596 0.950 1_554 S
H586 C598 0.950 1_554 S
H587 C599 0.950 . S
C588 H580 0.950 . S
C588 C589 1.386 . S
C588 C590 1.391 . S
C589 C588 1.386 . S
C589 C593 1.393 . S
C590 H582 0.950 . S
C590 C588 1.391 . S
C590 C591 1.400 . S
C591 C590 1.400 . S
C591 C592 1.398 . S
C591 C597 1.491 . S
C592 H583 0.950 1_655 S
C592 C591 1.398 . S
C592 C593 1.391 . S
C593 H581 0.950 1_655 S
C593 C589 1.393 . S
C593 C592 1.391 . S
C594 H584 0.950 . S
C594 C595 1.386 1_455 S
C594 C596 1.391 . S
C595 C594 1.386 1_655 S
C595 C599 1.393 . S
C596 H585 0.950 1_556 S
C596 C594 1.391 . S
C596 C597 1.400 1_456 S
C597 C591 1.491 . S
C597 C596 1.400 1_654 S
C597 C598 1.398 1_554 S
C598 H586 0.950 1_556 S
C598 C597 1.398 1_556 S
C598 C599 1.391 . S
C599 H587 0.950 . S
C599 C595 1.393 . S
C599 C598 1.391 . S
H600 C608 0.950 . S
H601 C613 0.950 . S
H602 C610 0.950 . S
H603 C612 0.950 . S
H604 C614 0.950 . S
H605 C616 0.950 . S
H606 C618 0.950 . S
H607 C619 0.950 . S
C608 H600 0.950 . S
C608 C609 1.386 . S
C608 C610 1.391 . S
C609 C608 1.386 . S
C609 C613 1.393 . S
C610 H602 0.950 . S
C610 C608 1.391 . S
C610 C611 1.400 . S
C611 C610 1.400 . S
C611 C612 1.398 . S
C611 C617 1.491 . S
C612 H603 0.950 . S
C612 C611 1.398 . S
C612 C613 1.391 . S
C613 H601 0.950 . S
C613 C609 1.393 . S
C613 C612 1.391 . S
C614 H604 0.950 . S
C614 C615 1.363 1_655 S
C614 C616 1.391 . S
C615 C614 1.363 1_455 S
C615 C619 1.432 . S
C616 H605 0.950 . S
C616 C614 1.391 . S
C616 C617 1.400 1_655 S
C617 C611 1.491 . S
C617 C616 1.400 1_455 S
C617 C618 1.398 . S
C618 H606 0.950 . S
C618 C617 1.398 . S
C618 C619 1.391 . S
C619 H607 0.950 . S
C619 C615 1.432 . S
C619 C618 1.391 . S
H620 C628 0.950 1_556 S
H621 C633 0.950 . S
H622 C630 0.950 . S
H623 C632 0.950 . S
H624 C634 0.950 . S
H625 C636 0.950 . S
H626 C638 0.950 . S
H627 C639 0.951 . S
C628 H620 0.950 1_554 S
C628 C629 1.386 . S
C628 C630 1.391 . S
C629 C628 1.386 . S
C629 C633 1.393 . S
C630 H622 0.950 . S
C630 C628 1.391 . S
C630 C631 1.400 . S
C631 C630 1.400 . S
C631 C632 1.398 . S
C631 C637 1.491 . S
C632 H623 0.950 . S
C632 C631 1.398 . S
C632 C633 1.391 . S
C633 H621 0.950 . S
C633 C629 1.393 . S
C633 C632 1.391 . S
C634 H624 0.950 . S
C634 C635 1.386 . S
C634 C636 1.391 . S
C635 C634 1.386 . S
C635 C639 1.393 1_545 S
C636 H625 0.950 . S
C636 C634 1.391 . S
C636 C637 1.400 . S
C637 C631 1.491 . S
C637 C636 1.400 . S
C637 C638 1.398 . S
C638 H626 0.950 . S
C638 C637 1.398 . S
C638 C639 1.390 1_545 S
C639 H627 0.951 . S
C639 C635 1.393 1_565 S
C639 C638 1.390 1_565 S
H640 C648 0.950 . S
H641 C653 0.950 1_556 S
H642 C650 0.950 . S
H643 C652 0.950 . S
H644 C654 0.950 . S
H645 C656 0.950 . S
H646 C658 0.950 . S
H647 C659 0.950 . S
C648 H640 0.950 . S
C648 C649 1.386 . S
C648 C650 1.391 . S
C649 C648 1.386 . S
C649 C653 1.393 . S
C650 H642 0.950 . S
C650 C648 1.391 . S
C650 C651 1.400 . S
C651 C650 1.400 . S
C651 C652 1.398 . S
C651 C657 1.491 . S
C652 H643 0.950 . S
C652 C651 1.398 . S
C652 C653 1.391 . S
C653 H641 0.950 1_554 S
C653 C649 1.393 . S
C653 C652 1.391 . S
C654 H644 0.950 . S
C654 C655 1.386 . S
C654 C656 1.391 . S
C655 C654 1.386 . S
C655 C659 1.393 . S
C656 H645 0.950 . S
C656 C654 1.391 . S
C656 C657 1.400 . S
C657 C651 1.491 . S
C657 C656 1.400 . S
C657 C658 1.398 . S
C658 H646 0.950 . S
C658 C657 1.398 . S
C658 C659 1.391 . S
C659 H647 0.950 . S
C659 C655 1.393 . S
C659 C658 1.391 . S
H660 C668 0.950 1_556 S
H661 C673 0.950 . S
H662 C670 0.950 . S
H663 C672 0.950 . S
H664 C674 0.950 . S
H665 C676 0.950 . S
H666 C678 0.950 . S
H667 C679 0.950 . S
C668 H660 0.950 1_554 S
C668 C669 1.386 . S
C668 C670 1.391 . S
C669 C668 1.386 . S
C669 C673 1.393 . S
C670 H662 0.950 . S
C670 C668 1.391 . S
C670 C671 1.400 . S
C671 C670 1.400 . S
C671 C672 1.398 . S
C671 C677 1.491 . S
C672 H663 0.950 . S
C672 C671 1.398 . S
C672 C673 1.391 . S
C673 H661 0.950 . S
C673 C669 1.393 . S
C673 C672 1.391 . S
C674 H664 0.950 . S
C674 C675 1.386 . S
C674 C676 1.391 . S
C675 C674 1.386 . S
C675 C679 1.393 . S
C676 H665 0.950 . S
C676 C674 1.391 . S
C676 C677 1.400 . S
C677 C671 1.491 . S
C677 C676 1.400 . S
C677 C678 1.398 . S
C678 H666 0.950 . S
C678 C677 1.398 . S
C678 C679 1.391 . S
C679 H667 0.950 . S
C679 C675 1.393 . S
C679 C678 1.391 . S
H680 C688 0.950 . S
H681 C693 0.950 . S
H682 C690 0.950 1_455 S
H683 C692 0.950 . S
H684 C694 0.950 . S
H685 C696 0.950 . S
H686 C698 0.950 . S
H687 C699 0.950 . S
C688 H680 0.950 . S
C688 C689 1.386 . S
C688 C690 1.391 . S
C689 C688 1.386 . S
C689 C693 1.393 . S
C690 H682 0.950 1_655 S
C690 C688 1.391 . S
C690 C691 1.400 . S
C691 C690 1.400 . S
C691 C692 1.398 . S
C691 C697 1.491 . S
C692 H683 0.950 . S
C692 C691 1.398 . S
C692 C693 1.391 . S
C693 H681 0.950 . S
C693 C689 1.393 . S
C693 C692 1.391 . S
C694 H684 0.950 . S
C694 C695 1.386 1_655 S
C694 C696 1.391 . S
C695 C694 1.386 1_455 S
C695 C699 1.393 . S
C696 H685 0.950 . S
C696 C694 1.391 . S
C696 C697 1.400 . S
C697 C691 1.491 . S
C697 C696 1.400 . S
C697 C698 1.398 1_655 S
C698 H686 0.950 . S
C698 C697 1.398 1_455 S
C698 C699 1.391 . S
C699 H687 0.950 . S
C699 C695 1.393 . S
C699 C698 1.391 . S
H700 C708 0.950 . S
H701 C713 0.950 . S
H702 C710 0.950 . S
H703 C712 0.950 1_545 S
H704 C714 0.950 1_556 S
H705 C716 0.950 . S
H706 C718 0.950 . S
H707 C719 0.948 1_565 S
C708 H700 0.950 . S
C708 C709 1.386 . S
C708 C710 1.391 . S
C709 C708 1.386 . S
C709 C713 1.393 . S
C710 H702 0.950 . S
C710 C708 1.391 . S
C710 C711 1.400 . S
C711 C710 1.400 . S
C711 C712 1.398 . S
C711 C717 1.491 . S
C712 H703 0.950 1_565 S
C712 C711 1.398 . S
C712 C713 1.391 . S
C713 H701 0.950 . S
C713 C709 1.393 . S
C713 C712 1.391 . S
C714 H704 0.950 1_554 S
C714 C715 1.386 . S
C714 C716 1.391 . S
C715 C714 1.386 . S
C715 C719 1.398 . S
C716 H705 0.950 . S
C716 C714 1.391 . S
C716 C717 1.400 1_545 S
C717 C711 1.491 . S
C717 C716 1.400 1_565 S
C717 C718 1.398 . S
C718 H706 0.950 . S
C718 C717 1.398 . S
C718 C719 1.387 1_565 S
C719 H707 0.948 1_545 S
C719 C715 1.398 . S
C719 C718 1.387 1_545 S
H720 C728 0.950 . S
H721 C733 0.950 . S
H722 C730 0.950 . S
H723 C732 0.950 . S
H724 C734 0.950 . S
H725 C736 0.950 . S
H726 C738 0.950 . S
H727 C739 0.950 . S
C728 H720 0.950 . S
C728 C729 1.386 . S
C728 C730 1.391 . S
C729 C728 1.386 . S
C729 C733 1.393 . S
C730 H722 0.950 . S
C730 C728 1.391 . S
C730 C731 1.400 . S
C731 C730 1.400 . S
C731 C732 1.398 . S
C731 C737 1.491 . S
C732 H723 0.950 . S
C732 C731 1.398 . S
C732 C733 1.391 . S
C733 H721 0.950 . S
C733 C729 1.393 . S
C733 C732 1.391 . S
C734 H724 0.950 . S
C734 C735 1.386 . S
C734 C736 1.391 . S
C735 C734 1.386 . S
C735 C739 1.393 . S
C736 H725 0.950 . S
C736 C734 1.391 . S
C736 C737 1.400 . S
C737 C731 1.491 . S
C737 C736 1.400 . S
C737 C738 1.398 . S
C738 H726 0.950 . S
C738 C737 1.398 . S
C738 C739 1.391 . S
C739 H727 0.950 . S
C739 C735 1.393 . S
C739 C738 1.391 . S
H740 C748 0.950 . S
H741 C753 0.950 . S
H742 C750 0.950 . S
H743 C752 0.950 . S
H744 C754 0.950 1_556 S
H745 C756 0.950 . S
H746 C758 0.950 . S
H747 C759 0.950 . S
C748 H740 0.950 . S
C748 C749 1.386 . S
C748 C750 1.391 . S
C749 C748 1.386 . S
C749 C753 1.393 . S
C750 H742 0.950 . S
C750 C748 1.391 . S
C750 C751 1.400 . S
C751 C750 1.400 . S
C751 C752 1.398 . S
C751 C757 1.491 . S
C752 H743 0.950 . S
C752 C751 1.398 . S
C752 C753 1.391 . S
C753 H741 0.950 . S
C753 C749 1.393 . S
C753 C752 1.391 . S
C754 H744 0.950 1_554 S
C754 C755 1.386 . S
C754 C756 1.391 . S
C755 C754 1.386 . S
C755 C759 1.393 . S
C756 H745 0.950 . S
C756 C754 1.391 . S
C756 C757 1.400 . S
C757 C751 1.491 . S
C757 C756 1.400 . S
C757 C758 1.398 . S
C758 H746 0.950 . S
C758 C757 1.398 . S
C758 C759 1.391 . S
C759 H747 0.950 . S
C759 C755 1.393 . S
C759 C758 1.391 . S
H760 C768 0.950 . S
H761 C773 0.950 . S
H762 C770 0.950 . S
H763 C772 0.950 . S
H764 C774 0.950 . S
H765 C776 0.950 . S
H766 C778 0.978 . S
H767 C779 0.950 1_655 S
C768 H760 0.950 . S
C768 C769 1.386 . S
C768 C770 1.391 . S
C769 C768 1.386 . S
C769 C773 1.393 . S
C770 H762 0.950 . S
C770 C768 1.391 . S
C770 C771 1.400 . S
C771 C770 1.400 . S
C771 C772 1.398 . S
C771 C777 1.491 . S
C772 H763 0.950 . S
C772 C771 1.398 . S
C772 C773 1.391 . S
C773 H761 0.950 . S
C773 C769 1.393 . S
C773 C772 1.391 . S
C774 H764 0.950 . S
C774 C775 1.386 . S
C774 C776 1.391 . S
C775 C774 1.386 . S
C775 C779 1.393 . S
C776 H765 0.950 . S
C776 C774 1.391 . S
C776 C777 1.400 . S
C777 C771 1.491 . S
C777 C776 1.400 . S
C777 C778 1.398 . S
C778 H766 0.978 . S
C778 C777 1.398 . S
C778 C779 1.391 . S
C779 H767 0.950 1_455 S
C779 C775 1.393 . S
C779 C778 1.391 . S
H780 C788 0.950 . S
H781 C793 0.950 . S
H782 C790 0.950 . S
H783 C792 0.950 . S
H784 C794 0.950 . S
H785 C796 0.950 . S
H786 C798 0.950 . S
H787 C799 0.950 . S
C788 H780 0.950 . S
C788 C789 1.386 . S
C788 C790 1.391 . S
C789 C788 1.386 . S
C789 C793 1.393 . S
C790 H782 0.950 . S
C790 C788 1.391 . S
C790 C791 1.400 . S
C791 C790 1.400 . S
C791 C792 1.398 . S
C791 C797 1.491 . S
C792 H783 0.950 . S
C792 C791 1.398 . S
C792 C793 1.391 . S
C793 H781 0.950 . S
C793 C789 1.393 . S
C793 C792 1.391 . S
C794 H784 0.950 . S
C794 C795 1.386 . S
C794 C796 1.391 . S
C795 C794 1.386 . S
C795 C799 1.393 . S
C796 H785 0.950 . S
C796 C794 1.391 . S
C796 C797 1.400 . S
C797 C791 1.491 . S
C797 C796 1.400 . S
C797 C798 1.398 . S
C798 H786 0.950 . S
C798 C797 1.398 . S
C798 C799 1.391 . S
C799 H787 0.950 . S
C799 C795 1.393 . S
C799 C798 1.391 . S
H800 C808 0.950 1_554 S
H801 C813 0.950 . S
H802 C810 0.950 . S
H803 C812 0.950 . S
H804 C814 0.950 . S
H805 C816 0.950 . S
H806 C818 0.950 . S
H807 C819 0.950 . S
C808 H800 0.950 1_556 S
C808 C809 1.386 . S
C808 C810 1.391 . S
C809 C808 1.386 . S
C809 C813 1.393 . S
C810 H802 0.950 . S
C810 C808 1.391 . S
C810 C811 1.400 . S
C811 C810 1.400 . S
C811 C812 1.398 . S
C811 C817 1.491 . S
C812 H803 0.950 . S
C812 C811 1.398 . S
C812 C813 1.391 . S
C813 H801 0.950 . S
C813 C809 1.393 . S
C813 C812 1.391 . S
C814 H804 0.950 . S
C814 C815 1.386 . S
C814 C816 1.391 . S
C815 C814 1.386 . S
C815 C819 1.393 . S
C816 H805 0.950 . S
C816 C814 1.391 . S
C816 C817 1.400 . S
C817 C811 1.491 . S
C817 C816 1.400 . S
C817 C818 1.398 . S
C818 H806 0.950 . S
C818 C817 1.398 . S
C818 C819 1.391 . S
C819 H807 0.950 . S
C819 C815 1.393 . S
C819 C818 1.391 . S
H820 C828 0.950 . S
H821 C833 0.950 1_554 S
H822 C830 0.950 . S
H823 C832 0.950 . S
H824 C834 0.950 . S
H825 C836 0.950 . S
H826 C838 0.950 . S
H827 C839 0.950 . S
C828 H820 0.950 . S
C828 C829 1.386 . S
C828 C830 1.391 . S
C829 C828 1.386 . S
C829 C833 1.393 . S
C830 H822 0.950 . S
C830 C828 1.391 . S
C830 C831 1.400 . S
C831 C830 1.400 . S
C831 C832 1.398 . S
C831 C837 1.491 . S
C832 H823 0.950 . S
C832 C831 1.398 . S
C832 C833 1.391 . S
C833 H821 0.950 1_556 S
C833 C829 1.393 . S
C833 C832 1.391 . S
C834 H824 0.950 . S
C834 C835 1.386 . S
C834 C836 1.391 . S
C835 C834 1.386 . S
C835 C839 1.393 . S
C836 H825 0.950 . S
C836 C834 1.391 . S
C836 C837 1.400 . S
C837 C831 1.491 . S
C837 C836 1.400 . S
C837 C838 1.398 . S
C838 H826 0.950 . S
C838 C837 1.398 . S
C838 C839 1.391 . S
C839 H827 0.950 . S
C839 C835 1.393 . S
C839 C838 1.391 . S
H840 C848 0.950 . S
H841 C853 0.950 . S
H842 C850 0.950 . S
H843 C852 0.950 1_455 S
H844 C854 0.978 . S
H845 C856 0.950 1_455 S
H846 C858 0.950 . S
H847 C859 0.950 . S
C848 H840 0.950 . S
C848 C849 1.386 . S
C848 C850 1.391 . S
C849 C848 1.386 . S
C849 C853 1.393 . S
C850 H842 0.950 . S
C850 C848 1.391 . S
C850 C851 1.400 . S
C851 C850 1.400 . S
C851 C852 1.398 . S
C851 C857 1.491 . S
C852 H843 0.950 1_655 S
C852 C851 1.398 . S
C852 C853 1.391 . S
C853 H841 0.950 . S
C853 C849 1.393 . S
C853 C852 1.391 . S
C854 H844 0.978 . S
C854 C855 1.363 1_455 S
C854 C856 1.387 1_455 S
C855 C854 1.363 1_655 S
C855 C859 1.393 . S
C856 H845 0.950 1_655 S
C856 C854 1.387 1_655 S
C856 C857 1.400 . S
C857 C851 1.491 . S
C857 C856 1.400 . S
C857 C858 1.398 . S
C858 H846 0.950 . S
C858 C857 1.398 . S
C858 C859 1.391 . S
C859 H847 0.950 . S
C859 C855 1.393 . S
C859 C858 1.391 . S
H860 C868 0.950 . S
H861 C873 0.950 . S
H862 C870 0.964 . S
H863 C872 0.950 . S
H864 C874 0.950 . S
H865 C876 0.950 . S
H866 C878 0.950 1_545 S
H867 C879 0.950 1_545 S
C868 H860 0.950 . S
C868 C869 1.386 . S
C868 C870 1.391 . S
C869 C868 1.386 . S
C869 C873 1.393 . S
C870 H862 0.964 . S
C870 C868 1.391 . S
C870 C871 1.400 . S
C871 C870 1.400 . S
C871 C872 1.398 . S
C871 C877 1.491 . S
C872 H863 0.950 . S
C872 C871 1.398 . S
C872 C873 1.391 . S
C873 H861 0.950 . S
C873 C869 1.393 . S
C873 C872 1.391 . S
C874 H864 0.950 . S
C874 C875 1.386 . S
C874 C876 1.391 . S
C875 C874 1.386 . S
C875 C879 1.393 . S
C876 H865 0.950 . S
C876 C874 1.391 . S
C876 C877 1.400 . S
C877 C871 1.491 . S
C877 C876 1.400 . S
C877 C878 1.398 . S
C878 H866 0.950 1_565 S
C878 C877 1.398 . S
C878 C879 1.391 . S
C879 H867 0.950 1_565 S
C879 C875 1.393 . S
C879 C878 1.391 . S
H880 C888 0.950 . S
H881 C893 0.950 . S
H882 C890 0.950 . S
H883 C892 0.950 . S
H884 C894 0.950 . S
H885 C896 0.950 . S
H886 C898 0.950 . S
H887 C899 0.950 . S
C888 H880 0.950 . S
C888 C889 1.386 . S
C888 C890 1.391 . S
C889 C888 1.386 . S
C889 C893 1.393 . S
C890 H882 0.950 . S
C890 C888 1.391 . S
C890 C891 1.400 . S
C891 C890 1.400 . S
C891 C892 1.398 . S
C891 C897 1.491 . S
C892 H883 0.950 . S
C892 C891 1.398 . S
C892 C893 1.391 . S
C893 H881 0.950 . S
C893 C889 1.393 . S
C893 C892 1.391 . S
C894 H884 0.950 . S
C894 C895 1.386 . S
C894 C896 1.391 . S
C895 C894 1.386 . S
C895 C899 1.393 . S
C896 H885 0.950 . S
C896 C894 1.391 . S
C896 C897 1.400 . S
C897 C891 1.491 . S
C897 C896 1.400 . S
C897 C898 1.398 . S
C898 H886 0.950 . S
C898 C897 1.398 . S
C898 C899 1.391 . S
C899 H887 0.950 . S
C899 C895 1.393 . S
C899 C898 1.391 . S
H900 C908 0.950 . S
H901 C913 0.950 . S
H902 C910 0.950 . S
H903 C912 0.950 . S
H904 C914 0.950 . S
H905 C916 0.950 . S
H906 C918 0.950 . S
H907 C919 0.950 . S
C908 H900 0.950 . S
C908 C909 1.386 . S
C908 C910 1.391 . S
C909 C908 1.386 . S
C909 C913 1.393 . S
C910 H902 0.950 . S
C910 C908 1.391 . S
C910 C911 1.400 . S
C911 C910 1.400 . S
C911 C912 1.398 . S
C911 C917 1.491 . S
C912 H903 0.950 . S
C912 C911 1.398 . S
C912 C913 1.391 . S
C913 H901 0.950 . S
C913 C909 1.393 . S
C913 C912 1.391 . S
C914 H904 0.950 . S
C914 C915 1.386 . S
C914 C916 1.391 . S
C915 C914 1.386 . S
C915 C919 1.393 . S
C916 H905 0.950 . S
C916 C914 1.391 . S
C916 C917 1.400 . S
C917 C911 1.491 . S
C917 C916 1.400 . S
C917 C918 1.398 . S
C918 H906 0.950 . S
C918 C917 1.398 . S
C918 C919 1.391 . S
C919 H907 0.950 . S
C919 C915 1.393 . S
C919 C918 1.391 . S
C449 N80 1.892 . S
C455 C178 1.913 . S
C475 C262 1.940 . S
C469 N93 1.927 . S
C495 C328 1.944 . S
C489 N54 2.017 . S
C515 C412 1.924 . S
C509 N67 2.003 . S
C535 C167 1.933 1_565 S
C529 N28 1.913 . S
C549 N41 1.916 . S
C555 C251 1.939 . S
C569 N2 2.010 . S
C575 C339 1.918 . S
C589 N15 1.995 . S
C595 C423 1.903 . S
C615 C174 0.550 1_455 S
C609 N70 0.578 . S
C635 C258 0.539 1_545 S
C629 N83 0.577 . S
C655 C330 0.547 . S
C649 N96 0.500 . S
C669 N57 0.572 . S
C675 C414 0.539 . S
C689 N18 0.570 . S
C695 C162 0.592 . S
C715 C246 0.605 . S
C709 N31 0.527 . S
C735 C342 0.529 . S
C729 N44 0.508 . S
C749 N5 0.524 . S
C755 C426 0.597 . S
C769 N66 2.098 . S
C775 C171 2.045 . S
C789 N79 2.058 . S
C795 C255 1.996 . S
C815 C335 2.028 . S
C809 N92 1.958 . S
C835 C419 2.041 . S
C829 N53 1.989 . S
C849 N14 2.113 . S
C855 C160 2.040 . S
C875 C244 2.019 . S
C869 N27 2.068 . S
C895 C346 2.013 . S
C889 N40 1.982 . S
C909 N1 2.017 . S
C915 C430 2.042 . S
