# Generated by pormake.
# Topology anh, (6,3)-cn, num edge types: 1
# Building blocks:
#     Node 0, Type 0, BuildingBlock: HISSIN_clean_sbu_0, # of connection points: 6
#     Node 1, Type 0, BuildingBlock: HISSIN_clean_sbu_0, # of connection points: 6
#     Node 2, Type 0, BuildingBlock: HISSIN_clean_sbu_0, # of connection points: 6
#     Node 3, Type 1, BuildingBlock: VETTIZ_charged_linker_0, # of connection points: 3
#     Node 4, Type 1, BuildingBlock: VETTIZ_charged_linker_0, # of connection points: 3
#     Node 5, Type 1, BuildingBlock: VETTIZ_charged_linker_0, # of connection points: 3
#     Node 6, Type 1, BuildingBlock: VETTIZ_charged_linker_0, # of connection points: 3
#     Node 7, Type 1, BuildingBlock: VETTIZ_charged_linker_0, # of connection points: 3
#     Node 8, Type 1, BuildingBlock: VETTIZ_charged_linker_0, # of connection points: 3
#     Edge 9, Type (0, 1), BuildingBlock: TEMPAE_clean_linker_10, # of connection points: 2
#     Edge 10, Type (0, 1), BuildingBlock: TEMPAE_clean_linker_10, # of connection points: 2
#     Edge 11, Type (0, 1), BuildingBlock: TEMPAE_clean_linker_10, # of connection points: 2
#     Edge 12, Type (0, 1), BuildingBlock: TEMPAE_clean_linker_10, # of connection points: 2
#     Edge 13, Type (0, 1), BuildingBlock: TEMPAE_clean_linker_10, # of connection points: 2
#     Edge 14, Type (0, 1), BuildingBlock: TEMPAE_clean_linker_10, # of connection points: 2
#     Edge 15, Type (0, 1), BuildingBlock: TEMPAE_clean_linker_10, # of connection points: 2
#     Edge 16, Type (0, 1), BuildingBlock: TEMPAE_clean_linker_10, # of connection points: 2
#     Edge 17, Type (0, 1), BuildingBlock: TEMPAE_clean_linker_10, # of connection points: 2
#     Edge 18, Type (0, 1), BuildingBlock: TEMPAE_clean_linker_10, # of connection points: 2
#     Edge 19, Type (0, 1), BuildingBlock: TEMPAE_clean_linker_10, # of connection points: 2
#     Edge 20, Type (0, 1), BuildingBlock: TEMPAE_clean_linker_10, # of connection points: 2
#     Edge 21, Type (0, 1), BuildingBlock: TEMPAE_clean_linker_10, # of connection points: 2
#     Edge 22, Type (0, 1), BuildingBlock: TEMPAE_clean_linker_10, # of connection points: 2
#     Edge 23, Type (0, 1), BuildingBlock: TEMPAE_clean_linker_10, # of connection points: 2
#     Edge 24, Type (0, 1), BuildingBlock: TEMPAE_clean_linker_10, # of connection points: 2
#     Edge 25, Type (0, 1), BuildingBlock: TEMPAE_clean_linker_10, # of connection points: 2
#     Edge 26, Type (0, 1), BuildingBlock: TEMPAE_clean_linker_10, # of connection points: 2
# Relax obj value: 0.239
# Max RMSD: 0.190
# Mean RMSD: 0.157
data_MOF--net-anh--node1-HISSIN_clean_sbu_0--node2-VETTIZ_charged_linker_0--edge1-TEMPAE_clean_linker_10
_symmetry_space_group_name_H-M    P1
_symmetry_Int_Tables_number       1
_symmetry_cell_setting            triclinic
loop_
_symmetry_equiv_pos_as_xyz
'x, y, z'
_cell_length_a     36.305592
_cell_length_b     36.225263
_cell_length_c     67.566232
_cell_angle_alpha  92.359817
_cell_angle_beta   90.607921
_cell_angle_gamma 120.07485
loop_
_atom_site_label
_atom_site_type_symbol
_atom_site_fract_x
_atom_site_fract_y
_atom_site_fract_z
_atom_type_partial_charge
Eu0 Eu 1.07261 0.55669 0.15879 0.0
Eu1 Eu 0.12353 0.65798 0.16956 0.0
C2 C 1.08828 0.5936 0.20533 0.0
C3 C 0.97342 0.45569 0.15013 0.0
C4 C 0.95653 0.47453 0.16291 0.0
C5 C 0.90178 0.40244 0.13881 0.0
C6 C 0.91274 0.4577 0.16359 0.0
C7 C 0.94591 0.4197 0.13798 0.0
C8 C 0.88487 0.42147 0.15159 0.0
C9 C 1.01965 0.47736 0.14806 0.0
O10 O 0.17567 0.63992 0.16536 0.0
O11 O 0.13926 0.56648 0.16242 0.0
C12 C 0.17543 0.60322 0.16387 0.0
O13 O 0.10954 0.58926 0.13206 0.0
O14 O 0.16386 0.71718 0.18727 0.0
O15 O 0.14909 0.7199 0.15651 0.0
O16 O 1.09828 0.64408 0.1381 0.0
C17 C 0.10764 0.6218 0.12569 0.0
O18 O 1.02362 0.57896 0.15668 0.0
O19 O 1.05548 0.6432 0.17449 0.0
O20 O 0.11068 0.63305 0.19994 0.0
O21 O 1.03384 0.50801 0.13579 0.0
O22 O 1.04242 0.48895 0.16463 0.0
O23 O 1.07028 0.56068 0.19236 0.0
C24 C 0.22023 0.76185 0.16706 0.0
C25 C 0.23614 0.79349 0.15313 0.0
C26 C 0.28652 0.76067 0.16664 0.0
C27 C 0.27701 0.80856 0.14596 0.0
C28 C 0.24601 0.74594 0.17389 0.0
C29 C 0.30224 0.7917 0.15245 0.0
C30 C 0.1748 0.74008 0.17169 0.0
C31 C 1.02127 0.61072 0.1657 0.0
H32 H 0.97731 0.50265 0.17227 0.0
H33 H 0.8809 0.37444 0.12941 0.0
H34 H 0.90067 0.47255 0.17386 0.0
H35 H 0.95851 0.40534 0.12774 0.0
H36 H 0.21648 0.80558 0.14737 0.0
H37 H 0.3058 0.74812 0.17232 0.0
H38 H 0.28867 0.83285 0.13515 0.0
H39 H 0.23451 0.72121 0.18447 0.0
Eu40 Eu 0.64662 1.03011 0.50025 0.0
Eu41 Eu 0.59799 0.08388 0.50634 0.0
C42 C 0.62824 1.05215 0.5434 0.0
C43 C 0.65576 0.93531 0.48579 0.0
C44 C 0.61165 0.9103 0.48781 0.0
C45 C 0.65666 0.87298 0.47197 0.0
C46 C 0.59044 0.86671 0.48283 0.0
C47 C 0.67802 0.91678 0.47726 0.0
C48 C 0.61287 0.84715 0.47542 0.0
C49 C 0.67789 0.98027 0.49303 0.0
O50 O 0.66849 0.13588 0.50781 0.0
O51 O 0.70117 0.09861 0.49721 0.0
C52 C 0.70283 0.13514 0.50207 0.0
O53 O 0.61422 1.02711 0.47124 0.0
O54 O 0.58609 0.12641 0.52542 0.0
O55 O 0.55469 0.10524 0.49631 0.0
O56 O 0.61847 0.0917 0.47494 0.0
C57 C 0.6151 1.06007 0.46357 0.0
O58 O 0.5776 0.97992 0.50621 0.0
O59 O 0.54326 1.01608 0.49824 0.0
O60 O 0.59647 1.05438 0.5353 0.0
O61 O 0.67897 1.00714 0.48047 0.0
O62 O 0.66763 0.98735 0.51066 0.0
O63 O 0.65803 1.05275 0.53241 0.0
C64 C 0.58402 0.1783 0.50668 0.0
C65 C 0.59718 0.1917 0.48747 0.0
C66 C 0.62078 0.2524 0.519 0.0
C67 C 0.62249 0.23511 0.48414 0.0
C68 C 0.59498 0.20913 0.52225 0.0
C69 C 0.63563 0.26594 0.49998 0.0
C70 C 0.56561 0.1331 0.51131 0.0
C71 C 0.54212 0.97985 0.50161 0.0
H72 H 0.59376 0.92408 0.49407 0.0
H73 H 0.67476 0.85909 0.46592 0.0
H74 H 0.55698 0.84811 0.48601 0.0
H75 H 0.71198 0.93583 0.47523 0.0
H76 H 0.5895 0.16868 0.47512 0.0
H77 H 0.63072 0.27498 0.53167 0.0
H78 H 0.6326 0.24438 0.46925 0.0
H79 H 0.58566 0.1996 0.53722 0.0
Eu80 Eu 0.53448 0.48334 0.83121 0.0
Eu81 Eu 0.63614 0.53198 0.83683 0.0
C82 C 0.57854 0.51198 0.87484 0.0
C83 C 0.4333 0.48054 0.8338 0.0
C84 C 0.44498 0.50242 0.85253 0.0
C85 C 0.40196 0.52332 0.82461 0.0
C86 C 0.43627 0.53507 0.85703 0.0
C87 C 0.4106 0.49041 0.82009 0.0
C88 C 0.41578 0.54672 0.84293 0.0
C89 C 0.45357 0.45596 0.82707 0.0
O90 O 0.61433 0.46178 0.84193 0.0
O91 O 0.54869 0.42901 0.82593 0.0
C92 C 0.58109 0.42699 0.8338 0.0
O93 O 0.56149 0.50361 0.801 0.0
O94 O 0.69585 0.5356 0.84602 0.0
O95 O 0.69634 0.59132 0.83533 0.0
O96 O 0.62442 0.5049 0.80555 0.0
C97 C 0.59456 0.50292 0.79383 0.0
O98 O 0.55483 0.5527 0.83987 0.0
O99 O 0.61908 0.58095 0.82586 0.0
O100 O 0.61374 0.53969 0.86675 0.0
O101 O 0.47997 0.47312 0.81289 0.0
O102 O 0.46938 0.44307 0.84083 0.0
O103 O 0.54651 0.48203 0.86396 0.0
C104 C 0.75779 0.58616 0.82971 0.0
C105 C 0.78171 0.62773 0.82317 0.0
C106 C 0.8142 0.57233 0.81996 0.0
C107 C 0.82202 0.64197 0.81577 0.0
C108 C 0.77373 0.55805 0.82741 0.0
C109 C 0.83948 0.61502 0.81486 0.0
C110 C 0.71917 0.57482 0.84087 0.0
C111 C 0.5875 0.58557 0.8324 0.0
H112 H 0.46343 0.49637 0.86328 0.0
H113 H 0.38568 0.53136 0.81355 0.0
H114 H 0.44784 0.55284 0.87117 0.0
H115 H 0.40197 0.47453 0.80545 0.0
H116 H 0.77034 0.65018 0.82486 0.0
H117 H 0.82668 0.55072 0.81925 0.0
H118 H 0.84075 0.67521 0.8123 0.0
H119 H 0.75594 0.52573 0.83226 0.0
C120 C 0.61986 0.20896 0.19702 0.0
C121 C 0.62529 0.24518 0.20811 0.0
C122 C 0.61786 0.24219 0.22859 0.0
C123 C 0.60807 0.17082 0.22705 0.0
C124 C 0.61175 0.17252 0.20675 0.0
C125 C 0.61031 0.13348 0.19734 0.0
H126 H 0.59246 0.94102 0.20768 0.0
C127 C 0.60603 0.13096 0.23282 0.0
C128 C 0.60731 0.109 0.21548 0.0
H129 H 0.58357 0.99819 0.15404 0.0
H130 H 0.60433 1.0637 0.17243 0.0
H131 H 0.67328 1.03336 0.23204 0.0
H132 H 0.53622 0.96183 0.22898 0.0
H133 H 0.55076 0.98329 0.25337 0.0
H134 H 0.56651 0.94605 0.24398 0.0
H135 H 0.64219 0.98112 0.24137 0.0
H136 H 0.6548 1.02862 0.25633 0.0
C137 C 0.65256 0.14752 0.18664 0.0
C138 C 0.56963 0.10978 0.18364 0.0
C139 C 0.60524 0.10091 0.30558 0.0
C140 C 0.60336 1.06657 0.31529 0.0
C141 C 0.60178 1.03213 0.30414 0.0
C142 C 0.60273 1.03217 0.28343 0.0
C143 C 0.60452 1.06669 0.27382 0.0
C144 C 0.60533 0.1001 0.28487 0.0
C145 C 0.60607 0.13346 0.2721 0.0
C146 C 0.6057 0.11461 0.25158 0.0
C147 C 0.60532 0.07581 0.25271 0.0
C148 C 0.64808 0.17594 0.27704 0.0
C149 C 0.56508 0.13571 0.27557 0.0
C150 C 0.59555 0.96775 0.19975 0.0
C151 C 0.58481 0.96324 0.17933 0.0
C152 C 0.59118 0.99982 0.16969 0.0
C153 C 0.60222 1.0379 0.18052 0.0
C154 C 0.60627 1.03946 0.20125 0.0
C155 C 0.60428 1.00527 0.21052 0.0
C156 C 0.60462 1.01074 0.23274 0.0
C157 C 0.60608 1.05331 0.23516 0.0
C158 C 0.60742 0.07007 0.21668 0.0
C159 C 0.64566 1.01337 0.24123 0.0
C160 C 0.56265 0.97357 0.24033 0.0
H161 H 0.60567 0.20545 0.25386 0.0
H162 H 0.62587 0.21017 0.18133 0.0
H163 H 0.54455 0.11692 0.18849 0.0
H164 H 0.55432 0.07462 0.18395 0.0
H165 H 0.57666 0.11924 0.16809 0.0
H166 H 0.68005 0.17309 0.19564 0.0
H167 H 0.65207 0.16027 0.17203 0.0
H168 H 0.65986 0.12154 0.18439 0.0
H169 H 0.60615 0.12756 0.31393 0.0
H170 H 0.60045 1.0055 0.3115 0.0
H171 H 0.60188 1.00526 0.27573 0.0
H172 H 0.67498 0.16997 0.27945 0.0
H173 H 0.64549 0.19234 0.29076 0.0
H174 H 0.65795 0.19818 0.26495 0.0
H175 H 0.5379 0.10381 0.27877 0.0
H176 H 0.55418 0.14513 0.26237 0.0
H177 H 0.56964 0.15809 0.28834 0.0
H178 H 0.62146 0.26951 0.23743 0.0
C179 C 0.60919 0.20514 0.23811 0.0
C180 C 0.58627 0.59721 0.52224 0.0
C181 C 0.54789 0.59315 0.52882 0.0
C182 C 0.53546 0.5803 0.5482 0.0
C183 C 0.60065 0.57863 0.55429 0.0
C184 C 0.61204 0.59007 0.53512 0.0
C185 C 0.65495 0.59592 0.53052 0.0
H186 H 0.79193 0.53325 0.55005 0.0
C187 C 0.63583 0.57601 0.56406 0.0
C188 C 0.66787 0.58643 0.55027 0.0
H189 H 0.78503 0.59774 0.49878 0.0
H190 H 0.74156 0.61986 0.51666 0.0
H191 H 0.80748 0.61419 0.58021 0.0
H192 H 0.70195 0.48959 0.56508 0.0
H193 H 0.70809 0.50006 0.59122 0.0
H194 H 0.75103 0.50206 0.57774 0.0
H195 H 0.79446 0.57078 0.59571 0.0
H196 H 0.7718 0.60487 0.59943 0.0
C197 C 0.68492 0.64279 0.52509 0.0
C198 C 0.64795 0.56225 0.51381 0.0
C199 C 0.62515 0.53467 0.63558 0.0
C200 C 0.65371 0.53137 0.64854 0.0
C201 C 0.69234 0.53679 0.64142 0.0
C202 C 0.70246 0.54551 0.62156 0.0
C203 C 0.67384 0.54919 0.6088 0.0
C204 C 0.63611 0.5442 0.61589 0.0
C205 C 0.61114 0.55229 0.60048 0.0
C206 C 0.64078 0.56421 0.58324 0.0
C207 C 0.67693 0.56137 0.5881 0.0
C208 C 0.60576 0.59012 0.60823 0.0
C209 C 0.56872 0.51003 0.5959 0.0
C210 C 0.78228 0.55307 0.54264 0.0
C211 C 0.78878 0.56022 0.52222 0.0
C212 C 0.77774 0.58872 0.51393 0.0
C213 C 0.75218 0.60123 0.52422 0.0
C214 C 0.73858 0.58589 0.54303 0.0
C215 C 0.75727 0.56649 0.5528 0.0
C216 C 0.74295 0.55776 0.57383 0.0
C217 C 0.70795 0.56923 0.57376 0.0
C218 C 0.70471 0.58424 0.55539 0.0
C219 C 0.781 0.58822 0.58809 0.0
C220 C 0.72508 0.50982 0.57725 0.0
H221 H 0.5509 0.56406 0.57568 0.0
H222 H 0.59763 0.60858 0.50772 0.0
H223 H 0.62421 0.52964 0.51814 0.0
H224 H 0.67693 0.56143 0.51012 0.0
H225 H 0.63574 0.56854 0.49995 0.0
H226 H 0.6735 0.66443 0.53077 0.0
H227 H 0.68731 0.6454 0.50877 0.0
H228 H 0.7173 0.65631 0.53193 0.0
H229 H 0.59563 0.53143 0.64084 0.0
H230 H 0.71469 0.53435 0.65126 0.0
H231 H 0.73213 0.54914 0.61686 0.0
H232 H 0.63477 0.61444 0.61683 0.0
H233 H 0.57838 0.57912 0.61813 0.0
H234 H 0.60164 0.60761 0.5962 0.0
H235 H 0.57364 0.48209 0.59618 0.0
H236 H 0.5551 0.50792 0.58094 0.0
H237 H 0.54473 0.50557 0.60703 0.0
H238 H 0.50626 0.57745 0.55368 0.0
C239 C 0.56159 0.57289 0.56096 0.0
C240 C 0.35895 0.80884 0.87894 0.0
C241 C 0.38164 0.79245 0.88855 0.0
C242 C 0.38218 0.7923 0.90938 0.0
C243 C 0.3274 0.81174 0.90996 0.0
C244 C 0.33119 0.81728 0.88981 0.0
C245 C 0.29636 0.82309 0.88102 0.0
H246 H 1.09486 0.77612 0.88509 0.0
C247 C 0.28796 0.81091 0.91589 0.0
C248 C 0.26992 0.81808 0.89903 0.0
H249 H 0.17911 0.82366 0.8361 0.0
H250 H 0.23931 0.84094 0.85799 0.0
H251 H 0.13101 0.72313 0.90266 0.0
H252 H 0.16091 0.85185 0.91806 0.0
H253 H 0.16645 0.83079 0.94013 0.0
H254 H 0.11501 0.80672 0.92731 0.0
H255 H 1.09434 0.73651 0.91396 0.0
H256 H 0.13164 0.7296 0.92863 0.0
C257 C 0.27182 0.78666 0.86477 0.0
C258 C 0.31673 0.86881 0.87344 0.0
C259 C 0.22762 0.75472 0.98275 0.0
C260 C 0.18808 0.74266 0.99109 0.0
C261 C 0.15868 0.75019 0.9808 0.0
C262 C 0.16784 0.76796 0.96222 0.0
C263 C 0.20657 0.77782 0.95364 0.0
C264 C 0.23615 0.77219 0.96408 0.0
C265 C 0.27549 0.78421 0.95256 0.0
C266 C 0.26453 0.79798 0.93346 0.0
C267 C 0.2239 0.79365 0.93411 0.0
C268 C 0.28009 0.74394 0.94931 0.0
C269 C 0.31377 0.82227 0.96394 0.0
C270 C 0.12646 0.79131 0.8792 0.0
C271 C 0.1323 0.79779 0.8588 0.0
C272 C 0.17384 0.81766 0.85169 0.0
C273 C 0.20863 0.82755 0.86439 0.0
C274 C 0.20153 0.81612 0.88421 0.0
C275 C 0.16145 0.8006 0.89161 0.0
C276 C 0.16015 0.7907 0.91311 0.0
C277 C 0.20565 0.8008 0.91703 0.0
C278 C 0.22929 0.81459 0.89987 0.0
C279 C 0.12751 0.74259 0.91487 0.0
C280 C 0.14983 0.82125 0.92539 0.0
H281 H 0.35471 0.79877 0.93588 0.0
H282 H 0.35836 0.80929 0.86292 0.0
H283 H 0.34661 0.89127 0.88203 0.0
H284 H 0.29596 0.88286 0.87537 0.0
H285 H 0.32482 0.86928 0.85762 0.0
H286 H 0.26876 0.75615 0.86942 0.0
H287 H 0.2887 0.79444 0.85059 0.0
H288 H 0.23886 0.77892 0.86173 0.0
H289 H 0.25084 0.7492 0.99021 0.0
H290 H 0.1284 0.74212 0.98711 0.0
H291 H 0.14394 0.77234 0.95501 0.0
H292 H 0.25026 0.71398 0.95235 0.0
H293 H 0.30565 0.74564 0.95916 0.0
H294 H 0.28662 0.73896 0.93376 0.0
H295 H 0.3051 0.8462 0.96945 0.0
H296 H 0.34136 0.83975 0.95452 0.0
H297 H 0.32397 0.81141 0.97697 0.0
H298 H 0.39974 0.77998 0.91709 0.0
C299 C 0.35533 0.80231 0.9202 0.0
C300 C 1.00866 0.44832 0.47837 0.0
C301 C 0.96885 0.41741 0.46866 0.0
C302 C 0.95998 0.42698 0.44979 0.0
C303 C 1.03015 0.48983 0.44873 0.0
C304 C 1.03877 0.48495 0.46809 0.0
C305 C 1.08204 0.52343 0.47526 0.0
H306 H 0.26177 0.70998 0.44677 0.0
C307 C 1.06738 0.52769 0.44095 0.0
C308 C 1.0985 0.54914 0.45644 0.0
H309 H 0.24042 0.66817 0.50656 0.0
H310 H 0.17213 0.60507 0.4953 0.0
H311 H 0.23623 0.62131 0.42764 0.0
H312 H 0.1711 0.6916 0.43608 0.0
H313 H 0.15672 0.66821 0.41193 0.0
H314 H 0.21201 0.70471 0.41849 0.0
H315 H 0.24307 0.66213 0.41149 0.0
H316 H 0.20242 0.6069 0.40658 0.0
C317 C 0.11191 0.50774 0.48242 0.0
C318 C 1.07419 0.54909 0.49169 0.0
C319 C 1.06966 0.54542 0.36615 0.0
C320 C 0.10087 0.57435 0.35377 0.0
C321 C 0.13914 0.60776 0.36255 0.0
C322 C 0.14655 0.61198 0.38312 0.0
C323 C 0.11556 0.58233 0.39533 0.0
C324 C 1.07785 0.54987 0.3868 0.0
C325 C 1.04864 0.52145 0.40208 0.0
C326 C 1.0758 0.54134 0.42118 0.0
C327 C 0.11461 0.57716 0.41708 0.0
C328 C 1.04024 0.47568 0.39706 0.0
C329 C 1.00804 0.52561 0.40184 0.0
C330 C 0.24325 0.68753 0.45771 0.0
C331 C 0.25781 0.69484 0.47761 0.0
C332 C 0.23066 0.66421 0.49106 0.0
C333 C 0.1909 0.62752 0.48455 0.0
C334 C 0.1774 0.62111 0.46436 0.0
C335 C 0.20423 0.65141 0.45156 0.0
C336 C 0.18753 0.64104 0.43061 0.0
C337 C 0.14523 0.60067 0.4326 0.0
C338 C 0.1382 0.58763 0.45237 0.0
C339 C 0.21882 0.63266 0.4183 0.0
C340 C 0.1817 0.67826 0.42372 0.0
H341 H 0.98047 0.46571 0.42547 0.0
H342 H 1.01636 0.44377 0.49325 0.0
H343 H 1.05033 0.55755 0.48649 0.0
H344 H 0.10353 0.57922 0.49616 0.0
H345 H 1.06186 0.53006 0.50501 0.0
H346 H 0.1152 0.4875 0.47056 0.0
H347 H 1.09919 0.48847 0.49564 0.0
H348 H 0.1441 0.53484 0.48643 0.0
H349 H 1.03984 0.51944 0.3599 0.0
H350 H 0.16339 0.63105 0.35346 0.0
H351 H 0.17628 0.63841 0.38866 0.0
H352 H 1.07056 0.47641 0.39378 0.0
H353 H 1.01845 0.46103 0.38381 0.0
H354 H 1.02659 0.45401 0.40924 0.0
H355 H 1.01291 0.55437 0.39429 0.0
H356 H 0.99876 0.52973 0.417 0.0
H357 H 0.98076 0.49744 0.394 0.0
H358 H 0.92935 0.40687 0.44225 0.0
C359 C 0.98994 0.46203 0.43992 0.0
C360 C 0.58551 0.89692 0.81559 0.0
C361 C 0.58748 0.86267 0.80513 0.0
C362 C 0.59474 0.86624 0.7847 0.0
C363 C 0.59566 0.93382 0.78483 0.0
C364 C 0.58946 0.93233 0.805 0.0
C365 C 0.58756 0.97206 0.81258 0.0
H366 H 0.59189 0.15829 0.78481 0.0
C367 C 0.59765 0.97286 0.77749 0.0
C368 C 0.59286 0.99633 0.79356 0.0
H369 H 0.58203 0.12039 0.84507 0.0
H370 H 0.58334 1.05542 0.83344 0.0
H371 H 0.66409 0.14219 0.77475 0.0
H372 H 0.52874 0.06989 0.76542 0.0
H373 H 0.54874 1.0597 0.74368 0.0
H374 H 0.56248 0.11382 0.75078 0.0
H375 H 0.63701 0.15269 0.75538 0.0
H376 H 0.65678 0.11621 0.75143 0.0
C377 C 0.62469 0.99842 0.82763 0.0
C378 C 0.54408 0.95793 0.82162 0.0
C379 C 0.61831 0.99813 0.7034 0.0
C380 C 0.62104 1.03086 0.69181 0.0
C381 C 0.61676 1.06397 0.70109 0.0
C382 C 0.61052 1.06501 0.72142 0.0
C383 C 0.60845 1.03259 0.73293 0.0
C384 C 0.61214 0.99981 0.7239 0.0
C385 C 0.60873 0.96809 0.73856 0.0
C386 C 0.60268 0.98751 0.7579 0.0
C387 C 0.60264 1.02517 0.75441 0.0
C388 C 0.65147 0.96804 0.7389 0.0
C389 C 0.56881 0.92441 0.73237 0.0
C390 C 0.59064 0.13688 0.79586 0.0
C391 C 0.58784 0.14591 0.81597 0.0
C392 C 0.58453 0.11507 0.82938 0.0
C393 C 0.58551 0.07743 0.82267 0.0
C394 C 0.58971 0.0701 0.80229 0.0
C395 C 0.59202 0.10024 0.78956 0.0
C396 C 0.5973 0.09025 0.76858 0.0
C397 C 0.59792 1.04916 0.77024 0.0
C398 C 0.59321 1.03589 0.78995 0.0
C399 C 0.64076 0.12715 0.762 0.0
C400 C 0.5576 0.0833 0.75633 0.0
H401 H 0.60402 0.90041 0.75917 0.0
H402 H 0.58023 0.89569 0.83134 0.0
H403 H 0.51786 0.93705 0.81075 0.0
H404 H 0.54035 0.98564 0.82589 0.0
H405 H 0.54032 0.93975 0.83504 0.0
H406 H 0.65549 1.00602 0.82104 0.0
H407 H 0.6209 0.98033 0.84108 0.0
H408 H 0.62668 1.029 0.83224 0.0
H409 H 0.62139 0.97214 0.69676 0.0
H410 H 0.61767 0.08904 0.69253 0.0
H411 H 0.60753 0.09125 0.72728 0.0
H412 H 0.67868 1.00021 0.73609 0.0
H413 H 0.65121 0.94519 0.72734 0.0
H414 H 0.65961 0.96073 0.75348 0.0
H415 H 0.544 0.92874 0.72476 0.0
H416 H 0.5526 0.90539 0.74517 0.0
H417 H 0.57697 0.90518 0.72202 0.0
H418 H 0.59744 0.84169 0.77623 0.0
C419 C 0.59876 0.90092 0.77469 0.0
C420 C 0.70448 0.60377 0.14987 0.0
C421 C 0.7371 0.59936 0.14014 0.0
C422 C 0.73049 0.58671 0.11988 0.0
C423 C 0.66308 0.58568 0.11861 0.0
C424 C 0.66744 0.5968 0.13867 0.0
C425 C 0.62876 0.60022 0.14536 0.0
H426 H 0.43725 0.58604 0.11433 0.0
C427 C 0.62312 0.58192 0.11049 0.0
C428 C 0.60174 0.59011 0.12594 0.0
H429 H 0.48773 0.61575 0.17459 0.0
H430 H 0.54923 0.6092 0.16423 0.0
H431 H 0.5224 0.64599 0.09502 0.0
H432 H 0.45542 0.51219 0.10525 0.0
H433 H 0.4761 0.51619 0.0816 0.0
H434 H 0.4391 0.53478 0.08629 0.0
H435 H 0.4768 0.60809 0.0801 0.0
H436 H 0.53015 0.62139 0.0739 0.0
C437 C 0.64409 0.64593 0.15374 0.0
C438 C 0.60483 0.56668 0.16066 0.0
C439 C 0.59273 0.55067 0.03602 0.0
C440 C 0.55971 0.54635 0.02328 0.0
C441 C 0.5258 0.54943 0.03156 0.0
C442 C 0.52507 0.55718 0.05202 0.0
C443 C 0.55865 0.56207 0.06455 0.0
C444 C 0.59148 0.55847 0.05645 0.0
C445 C 0.62439 0.56451 0.07189 0.0
C446 C 0.60621 0.5729 0.09066 0.0
C447 C 0.56781 0.57141 0.08626 0.0
C448 C 0.66718 0.60417 0.06673 0.0
C449 C 0.62512 0.522 0.0723 0.0
C450 C 0.46144 0.59191 0.12551 0.0
C451 C 0.45712 0.60224 0.14528 0.0
C452 C 0.48961 0.60784 0.15915 0.0
C453 C 0.52546 0.6042 0.15314 0.0
C454 C 0.52915 0.59449 0.13303 0.0
C455 C 0.49679 0.58849 0.11984 0.0
C456 C 0.50389 0.57851 0.09909 0.0
C457 C 0.54556 0.57902 0.10153 0.0
C458 C 0.56157 0.58842 0.12144 0.0
C459 C 0.50828 0.615 0.08621 0.0
C460 C 0.46672 0.53327 0.09252 0.0
H461 H 0.69268 0.57087 0.09389 0.0
H462 H 0.70818 0.6132 0.1655 0.0
H463 H 0.59661 0.53434 0.15459 0.0
H464 H 0.57479 0.56538 0.16464 0.0
H465 H 0.62485 0.57398 0.17442 0.0
H466 H 0.66355 0.66953 0.14278 0.0
H467 H 0.66398 0.65299 0.16753 0.0
H468 H 0.61707 0.65076 0.1572 0.0
H469 H 0.61952 0.5489 0.0302 0.0
H470 H 0.49957 0.54558 0.0222 0.0
H471 H 0.4983 0.5592 0.05722 0.0
H472 H 0.6617 0.62833 0.05968 0.0
H473 H 0.68503 0.59519 0.0562 0.0
H474 H 0.68792 0.6216 0.07989 0.0
H475 H 0.59381 0.49405 0.06736 0.0
H476 H 0.63078 0.51476 0.08742 0.0
H477 H 0.64943 0.52226 0.06239 0.0
H478 H 0.75397 0.58226 0.112 0.0
C479 C 0.69434 0.57992 0.10926 0.0
C480 C 0.21958 0.56824 0.15501 0.0
C481 C 0.21744 0.60356 0.1631 0.0
C482 C 0.25887 0.56884 0.15341 0.0
C483 C 0.29772 0.60529 0.16043 0.0
C484 C 0.29558 0.64057 0.16915 0.0
C485 C 0.25597 0.63947 0.17012 0.0
C486 C 0.25889 0.53059 0.14371 0.0
C487 C 0.33527 0.68023 0.17711 0.0
C488 C 0.39637 0.5914 0.16808 0.0
C489 C 0.41862 0.60669 0.15057 0.0
C490 C 0.35786 0.59161 0.17172 0.0
C491 C 0.34041 0.60726 0.15756 0.0
C492 C 0.36361 0.62418 0.14027 0.0
C493 C 0.40199 0.62393 0.13709 0.0
C494 C 0.33546 0.57452 0.1907 0.0
C495 C 0.34721 0.64162 0.1247 0.0
H496 H 0.19047 0.54024 0.14942 0.0
H497 H 0.25524 0.66691 0.17659 0.0
H498 H 0.27807 0.54016 0.13023 0.0
H499 H 0.27397 0.51836 0.1539 0.0
H500 H 0.22626 0.50428 0.13942 0.0
H501 H 0.32771 0.69904 0.18803 0.0
H502 H 0.35789 0.67229 0.18427 0.0
H503 H 0.3515 0.70073 0.16467 0.0
H504 H 0.40829 0.57799 0.17873 0.0
H505 H 0.41891 0.63708 0.12372 0.0
H506 H 0.30379 0.54588 0.18729 0.0
H507 H 0.33001 0.59878 0.19856 0.0
H508 H 0.35389 0.5657 0.20076 0.0
H509 H 0.31646 0.61556 0.11816 0.0
H510 H 0.36984 0.65586 0.11259 0.0
H511 H 0.34107 0.66632 0.13151 0.0
C512 C 0.74448 0.21579 0.49852 0.0
C513 C 0.74435 0.17714 0.50045 0.0
C514 C 0.78256 0.25495 0.49577 0.0
C515 C 0.82253 0.25658 0.49514 0.0
C516 C 0.82282 0.21802 0.49808 0.0
C517 C 0.78409 0.17905 0.50033 0.0
C518 C 0.77896 0.29394 0.4925 0.0
C519 C 0.86423 0.21776 0.49867 0.0
C520 C 0.91069 0.33939 0.46347 0.0
C521 C 0.93532 0.37496 0.4768 0.0
C522 C 0.87445 0.30173 0.46921 0.0
C523 C 0.86281 0.29696 0.48929 0.0
C524 C 0.88909 0.33128 0.50324 0.0
C525 C 0.92443 0.36982 0.49687 0.0
C526 C 0.84745 0.26759 0.45343 0.0
C527 C 0.87908 0.32774 0.5249 0.0
H528 H 0.71439 0.21535 0.49847 0.0
H529 H 0.78503 0.14993 0.50206 0.0
H530 H 0.80841 0.32411 0.49708 0.0
H531 H 0.77253 0.29467 0.47647 0.0
H532 H 0.75214 0.29267 0.50079 0.0
H533 H 0.86025 0.18753 0.50417 0.0
H534 H 0.877 0.22169 0.48359 0.0
H535 H 0.88828 0.24493 0.50836 0.0
H536 H 0.91905 0.34126 0.44806 0.0
H537 H 0.94266 0.39628 0.50753 0.0
H538 H 0.81419 0.26122 0.45367 0.0
H539 H 0.84657 0.23731 0.45642 0.0
H540 H 0.85945 0.27674 0.43832 0.0
H541 H 0.84902 0.32812 0.52707 0.0
H542 H 0.9048 0.35436 0.53423 0.0
H543 H 0.8742 0.29695 0.53006 0.0
C544 C 0.61659 0.6596 0.81882 0.0
C545 C 0.58806 0.62761 0.83098 0.0
C546 C 0.61614 0.69829 0.81677 0.0
C547 C 0.58698 0.70634 0.82736 0.0
C548 C 0.55897 0.67459 0.8401 0.0
C549 C 0.55955 0.63588 0.84159 0.0
C550 C 0.64642 0.73029 0.80282 0.0
C551 C 0.52826 0.68148 0.85227 0.0
C552 C 0.60798 0.82308 0.82979 0.0
C553 C 0.58184 0.82221 0.81402 0.0
C554 C 0.60896 0.78567 0.83483 0.0
C555 C 0.58355 0.74605 0.82381 0.0
C556 C 0.55565 0.74476 0.80858 0.0
C557 C 0.55497 0.78224 0.80404 0.0
C558 C 0.6386 0.78899 0.85147 0.0
C559 C 0.5278 0.704 0.79628 0.0
H560 H 0.63882 0.65404 0.81047 0.0
H561 H 0.53753 0.612 0.85122 0.0
H562 H 0.62807 0.73408 0.79062 0.0
H563 H 0.66559 0.76199 0.81075 0.0
H564 H 0.66839 0.72054 0.79627 0.0
H565 H 0.50536 0.65237 0.85977 0.0
H566 H 0.54633 0.70756 0.86373 0.0
H567 H 0.51029 0.69163 0.84277 0.0
H568 H 0.6293 0.85343 0.83756 0.0
H569 H 0.53443 0.78064 0.79187 0.0
H570 H 0.66428 0.78427 0.84537 0.0
H571 H 0.62115 0.76347 0.86192 0.0
H572 H 0.65337 0.8205 0.85979 0.0
H573 H 0.5481 0.69551 0.78725 0.0
H574 H 0.50521 0.70693 0.78615 0.0
H575 H 0.50938 0.67723 0.80601 0.0
C576 C 0.94529 0.58025 0.1521 0.0
C577 C 0.9791 0.61011 0.16485 0.0
C578 C 0.90609 0.57978 0.15038 0.0
C579 C 0.89925 0.60937 0.16193 0.0
C580 C 0.93273 0.63878 0.17528 0.0
C581 C 0.97206 0.63909 0.17643 0.0
C582 C 0.87239 0.54831 0.13559 0.0
C583 C 0.9272 0.67041 0.18825 0.0
C584 C 0.8173 0.6363 0.14029 0.0
C585 C 0.77924 0.60839 0.14949 0.0
C586 C 0.85628 0.63788 0.14466 0.0
C587 C 0.8584 0.61122 0.15891 0.0
C588 C 0.82064 0.58457 0.1691 0.0
C589 C 0.78168 0.58331 0.16425 0.0
C590 C 0.89478 0.66645 0.13307 0.0
C591 C 0.82107 0.55612 0.18466 0.0
H592 H 0.94972 0.55753 0.143 0.0
H593 H 0.99735 0.66215 0.18649 0.0
H594 H 0.84122 0.53074 0.14267 0.0
H595 H 0.86847 0.56585 0.12341 0.0
H596 H 0.8806 0.5248 0.12908 0.0
H597 H 0.95444 0.68877 0.19901 0.0
H598 H 0.92408 0.69325 0.17892 0.0
H599 H 0.8975 0.65357 0.19655 0.0
H600 H 0.81601 0.65552 0.12871 0.0
H601 H 0.75268 0.561 0.17125 0.0
H602 H 0.90394 0.64657 0.12376 0.0
H603 H 0.92228 0.68727 0.14328 0.0
H604 H 0.88883 0.68695 0.12328 0.0
H605 H 0.83056 0.53369 0.17808 0.0
H606 H 0.78953 0.53734 0.19136 0.0
H607 H 0.8451 0.57579 0.19657 0.0
C608 C 0.46279 0.93489 0.49185 0.0
C609 C 0.5001 0.93768 0.49993 0.0
C610 C 0.42385 0.89536 0.48943 0.0
C611 C 0.42113 0.85686 0.4954 0.0
C612 C 0.45851 0.85959 0.50389 0.0
C613 C 0.49713 0.89947 0.50593 0.0
C614 C 0.38568 0.89468 0.47998 0.0
C615 C 0.45794 0.82014 0.51065 0.0
C616 C 0.30834 0.75847 0.50147 0.0
C617 C 0.30093 0.73432 0.48345 0.0
C618 C 0.34723 0.79754 0.50575 0.0
C619 C 0.38009 0.81378 0.49174 0.0
C620 C 0.37324 0.78891 0.47385 0.0
C621 C 0.33456 0.74987 0.47009 0.0
C622 C 0.35287 0.82193 0.52523 0.0
C623 C 0.40661 0.80402 0.4583 0.0
H624 H 0.46412 0.96367 0.48701 0.0
H625 H 0.52522 0.90058 0.51229 0.0
H626 H 0.37577 0.87427 0.46604 0.0
H627 H 0.35844 0.88051 0.48996 0.0
H628 H 0.39226 0.92711 0.47652 0.0
H629 H 0.48823 0.82775 0.51845 0.0
H630 H 0.4313 0.80297 0.52073 0.0
H631 H 0.45259 0.798 0.49769 0.0
H632 H 0.28324 0.74753 0.51204 0.0
H633 H 0.33063 0.73155 0.45637 0.0
H634 H 0.35536 0.85308 0.52252 0.0
H635 H 0.38296 0.82881 0.53296 0.0
H636 H 0.326 0.80417 0.53514 0.0
H637 H 0.41334 0.83566 0.45347 0.0
H638 H 0.39661 0.78146 0.44508 0.0
H639 H 0.43683 0.8081 0.46461 0.0
C640 C 0.5514 0.34957 0.82093 0.0
C641 C 0.58064 0.38476 0.83328 0.0
C642 C 0.55198 0.3106 0.81962 0.0
C643 C 0.58205 0.30559 0.83116 0.0
C644 C 0.6109 0.34063 0.84404 0.0
C645 C 0.61013 0.3795 0.8448 0.0
C646 C 0.52097 0.27502 0.80538 0.0
C647 C 0.64321 0.3373 0.85692 0.0
C648 C 0.56271 0.19058 0.83634 0.0
C649 C 0.58904 0.18771 0.82191 0.0
C650 C 0.56072 0.22864 0.83985 0.0
C651 C 0.5853 0.26516 0.82865 0.0
C652 C 0.61285 0.26277 0.81458 0.0
C653 C 0.61474 0.22485 0.81162 0.0
C654 C 0.53149 0.22945 0.85532 0.0
C655 C 0.63979 0.30013 0.80212 0.0
H656 H 0.52848 0.35276 0.81183 0.0
H657 H 0.63286 0.40594 0.85452 0.0
H658 H 0.53871 0.26828 0.79387 0.0
H659 H 0.50227 0.24531 0.81332 0.0
H660 H 0.49858 0.28295 0.79793 0.0
H661 H 0.66101 0.36565 0.86734 0.0
H662 H 0.62719 0.30829 0.86559 0.0
H663 H 0.66637 0.3341 0.84748 0.0
H664 H 0.54257 0.16264 0.84447 0.0
H665 H 0.63629 0.22421 0.80083 0.0
H666 H 0.50562 0.23246 0.84809 0.0
H667 H 0.54925 0.25769 0.86579 0.0
H668 H 0.51695 0.20014 0.86386 0.0
H669 H 0.61899 0.30813 0.79332 0.0
H670 H 0.65963 0.29349 0.79179 0.0
H671 H 0.66109 0.32873 0.8118 0.0
C672 C 0.6145 0.78075 0.48172 0.0
C673 C 0.592 0.79979 0.47455 0.0
C674 C 0.59339 0.73768 0.48608 0.0
C675 C 0.54846 0.713 0.48335 0.0
C676 C 0.52609 0.7307 0.47419 0.0
C677 C 0.54822 0.77399 0.46982 0.0
C678 C 0.61894 0.7199 0.49538 0.0
C679 C 0.4785 0.70545 0.47039 0.0
C680 C 0.5243 0.60461 0.49594 0.0
C681 C 0.52649 0.61054 0.51668 0.0
C682 C 0.52391 0.6351 0.48396 0.0
C683 C 0.5258 0.67181 0.4931 0.0
C684 C 0.51888 0.673 0.51365 0.0
C685 C 0.51947 0.64221 0.5253 0.0
C686 C 0.52827 0.63132 0.46191 0.0
C687 C 0.51824 0.71053 0.52382 0.0
H688 H 0.64819 0.80018 0.48554 0.0
H689 H 0.53069 0.78812 0.46372 0.0
H690 H 0.61026 0.71318 0.51106 0.0
H691 H 0.6118 0.68943 0.48752 0.0
H692 H 0.65381 0.74234 0.49509 0.0
H693 H 0.46943 0.71535 0.45668 0.0
H694 H 0.46619 0.67054 0.469 0.0
H695 H 0.4627 0.71211 0.48287 0.0
H696 H 0.52806 0.57907 0.48918 0.0
H697 H 0.52017 0.6465 0.5413 0.0
H698 H 0.56254 0.64847 0.45847 0.0
H699 H 0.51254 0.64591 0.45372 0.0
H700 H 0.51437 0.59739 0.45656 0.0
H701 H 0.55125 0.73806 0.5254 0.0
H702 H 0.50499 0.70308 0.53882 0.0
H703 H 0.49908 0.72034 0.5149 0.0
C704 C 0.90764 0.66703 0.79951 0.0
C705 C 0.88599 0.6341 0.81249 0.0
C706 C 0.95184 0.69442 0.8017 0.0
C707 C 0.97453 0.68855 0.81722 0.0
C708 C 0.95367 0.65212 0.82863 0.0
C709 C 0.90959 0.62531 0.82613 0.0
C710 C 0.9733 0.73199 0.78875 0.0
C711 C 0.97692 0.64413 0.84508 0.0
C712 C 1.09303 0.75117 0.82886 0.0
C713 C 1.09478 0.77793 0.84492 0.0
C714 C 1.05451 0.72408 0.81836 0.0
C715 C 1.0171 0.72378 0.82421 0.0
C716 C 1.01958 0.75355 0.83922 0.0
C717 C 1.05847 0.78029 0.8494 0.0
C718 C 1.05338 0.69336 0.80227 0.0
C719 C 0.98045 0.75467 0.84572 0.0
H720 H 0.88964 0.6733 0.78859 0.0
H721 H 0.89326 0.59999 0.83624 0.0
H722 H 0.97669 0.76086 0.79685 0.0
H723 H 1.00568 0.7386 0.78503 0.0
H724 H 0.95442 0.72656 0.77478 0.0
H725 H 0.95766 0.61164 0.85068 0.0
H726 H 1.00748 0.64796 0.83994 0.0
H727 H 0.9844 0.66789 0.85761 0.0
H728 H 0.12103 0.74904 0.82539 0.0
H729 H 1.05999 0.80141 0.86163 0.0
H730 H 1.03017 0.68808 0.79012 0.0
H731 H 1.04338 0.66205 0.80859 0.0
H732 H 1.08525 0.70502 0.79596 0.0
H733 H 0.96244 0.75612 0.83271 0.0
H734 H 0.98851 0.78243 0.85614 0.0
H735 H 0.95911 0.72498 0.85323 0.0
C736 C 0.36221 0.7814 0.14122 0.0
C737 C 0.34648 0.80889 0.1461 0.0
C738 C 0.40617 0.79725 0.14009 0.0
C739 C 0.43464 0.8412 0.14455 0.0
C740 C 0.41851 0.86955 0.14712 0.0
C741 C 0.37452 0.85296 0.14775 0.0
C742 C 0.42172 0.76627 0.13577 0.0
C743 C 0.44761 0.91696 0.15154 0.0
C744 C 0.52502 0.88816 0.18096 0.0
C745 C 0.55619 0.91999 0.16963 0.0
C746 C 0.48653 0.85626 0.17212 0.0
C747 C 0.47909 0.85653 0.15156 0.0
C748 C 0.51347 0.88231 0.13964 0.0
C749 C 0.55205 0.91388 0.14885 0.0
C750 C 0.45148 0.82716 0.18534 0.0
C751 C 0.5079 0.88057 0.11743 0.0
H752 H 0.34032 0.74728 0.13933 0.0
H753 H 0.36236 0.87423 0.15136 0.0
H754 H 0.45506 0.78248 0.13089 0.0
H755 H 0.41993 0.74916 0.14928 0.0
H756 H 0.40099 0.74191 0.12408 0.0
H757 H 0.43005 0.93476 0.15161 0.0
H758 H 0.46381 0.9225 0.16629 0.0
H759 H 0.47255 0.93046 0.14038 0.0
H760 H 0.52767 0.89098 0.19698 0.0
H761 H 0.57701 0.93643 0.13979 0.0
H762 H 0.4348 0.7939 0.17889 0.0
H763 H 0.42773 0.83781 0.18668 0.0
H764 H 0.46387 0.82724 0.20046 0.0
H765 H 0.48335 0.84818 0.1116 0.0
H766 H 0.53844 0.88983 0.11017 0.0
H767 H 0.49761 0.90346 0.11334 0.0
C768 C 0.66338 0.34357 0.50818 0.0
C769 C 0.66647 0.31176 0.49711 0.0
C770 C 0.69467 0.3866 0.50753 0.0
C771 C 0.72971 0.39848 0.4951 0.0
C772 C 0.73212 0.3669 0.48309 0.0
C773 C 0.70051 0.32383 0.48431 0.0
C774 C 0.6903 0.41926 0.52044 0.0
C775 C 0.76851 0.37814 0.46945 0.0
C776 C 0.76958 0.51358 0.49113 0.0
C777 C 0.79373 0.52882 0.5091 0.0
C778 C 0.75411 0.47145 0.48386 0.0
C779 C 0.76279 0.44432 0.49493 0.0
C780 C 0.79488 0.46225 0.51017 0.0
C781 C 0.81074 0.5049 0.51689 0.0
C782 C 0.72231 0.45422 0.46657 0.0
C783 C 0.80707 0.43482 0.52156 0.0
H784 H 0.63654 0.33481 0.51759 0.0
H785 H 0.70333 0.29956 0.47569 0.0
H786 H 0.71878 0.43735 0.53052 0.0
H787 H 0.68801 0.44251 0.51106 0.0
H788 H 0.66168 0.40443 0.52962 0.0
H789 H 0.75997 0.35278 0.45756 0.0
H790 H 0.77855 0.40886 0.46252 0.0
H791 H 0.79629 0.38166 0.47812 0.0
H792 H 0.75738 0.53183 0.48414 0.0
H793 H 0.83205 0.51737 0.52986 0.0
H794 H 0.68967 0.44063 0.47222 0.0
H795 H 0.72403 0.42845 0.45792 0.0
H796 H 0.72763 0.47989 0.45655 0.0
H797 H 0.7827 0.41784 0.53268 0.0
H798 H 0.83843 0.45433 0.52952 0.0
H799 H 0.80828 0.41042 0.51157 0.0
C800 C 0.39928 0.5919 0.86586 0.0
C801 C 0.41135 0.58479 0.84711 0.0
C802 C 0.39804 0.62919 0.87067 0.0
C803 C 0.40913 0.66022 0.85636 0.0
C804 C 0.42069 0.65305 0.83727 0.0
C805 C 0.42179 0.61538 0.83287 0.0
C806 C 0.38468 0.63531 0.89108 0.0
C807 C 0.43294 0.6856 0.82171 0.0
C808 C 0.36078 0.72999 0.86545 0.0
C809 C 0.39291 0.7642 0.87709 0.0
C810 C 0.3666 0.69705 0.85763 0.0
C811 C 0.40585 0.69874 0.86127 0.0
C812 C 0.43955 0.73479 0.87181 0.0
C813 C 0.43247 0.76699 0.87985 0.0
C814 C 0.32952 0.65884 0.84688 0.0
C815 C 0.48263 0.73888 0.87503 0.0
H816 H 0.39074 0.56814 0.87683 0.0
H817 H 0.43202 0.61045 0.81848 0.0
H818 H 0.41078 0.66465 0.89876 0.0
H819 H 0.35656 0.6396 0.88984 0.0
H820 H 0.37654 0.60785 0.90039 0.0
H821 H 0.43615 0.67302 0.80696 0.0
H822 H 0.40899 0.69587 0.82028 0.0
H823 H 0.46372 0.71446 0.82625 0.0
H824 H 0.32985 0.72742 0.8636 0.0
H825 H 0.45727 0.79363 0.88878 0.0
H826 H 0.31795 0.63067 0.85608 0.0
H827 H 0.33955 0.65082 0.83267 0.0
H828 H 0.30257 0.6643 0.84374 0.0
H829 H 0.47943 0.70897 0.88048 0.0
H830 H 0.50336 0.76575 0.88575 0.0
H831 H 0.49866 0.74478 0.86067 0.0
C832 C 0.81932 0.42715 0.15577 0.0
C833 C 0.83841 0.40176 0.15396 0.0
C834 C 0.77722 0.40985 0.16182 0.0
C835 C 0.75434 0.36651 0.16657 0.0
C836 C 0.77241 0.34005 0.16324 0.0
C837 C 0.81417 0.35803 0.15686 0.0
C838 C 0.75867 0.43878 0.16435 0.0
C839 C 0.74907 0.29343 0.16799 0.0
C840 C 0.68539 0.31976 0.20931 0.0
C841 C 0.64872 0.28731 0.19921 0.0
C842 C 0.71875 0.35103 0.19887 0.0
C843 C 0.7149 0.34963 0.17794 0.0
C844 C 0.67497 0.32232 0.16827 0.0
C845 C 0.64208 0.29116 0.17907 0.0
C846 C 0.76038 0.38079 0.20991 0.0
C847 C 0.66883 0.32189 0.14614 0.0
H848 H 0.83786 0.46092 0.15322 0.0
H849 H 0.82887 0.33839 0.15555 0.0
H850 H 0.72351 0.42093 0.16209 0.0
H851 H 0.76637 0.45377 0.17959 0.0
H852 H 0.77251 0.46483 0.15385 0.0
H853 H 0.76679 0.27696 0.16355 0.0
H854 H 0.74409 0.29063 0.18416 0.0
H855 H 0.71727 0.27645 0.16031 0.0
H856 H 0.69066 0.31761 0.22493 0.0
H857 H 0.61308 0.26701 0.17132 0.0
H858 H 0.77487 0.41339 0.2044 0.0
H859 H 0.78303 0.36905 0.20743 0.0
H860 H 0.75621 0.38266 0.22612 0.0
H861 H 0.68783 0.35445 0.14064 0.0
H862 H 0.63473 0.30884 0.14185 0.0
H863 H 0.67963 0.30125 0.13872 0.0
C864 C 0.1121 0.66842 0.09866 0.0
C865 C 0.11759 0.6351 0.1051 0.0
C866 C 0.12359 0.68368 0.0797 0.0
C867 C 0.1411 0.66526 0.06678 0.0
C868 C 0.14615 0.63113 0.07302 0.0
C869 C 0.13425 0.61636 0.09214 0.0
C870 C 0.1175 0.72 0.07359 0.0
C871 C 0.16473 0.61074 0.05962 0.0
C872 C 0.13631 0.68604 0.01251 0.0
C873 C 0.17696 0.72137 0.01021 0.0
C874 C 0.12473 0.66635 0.03064 0.0
C875 C 0.1545 0.68243 0.04688 0.0
C876 C 0.196 0.71731 0.0445 0.0
C877 C 0.20674 0.73635 0.02618 0.0
C878 C 1.08023 0.62913 0.03258 0.0
C879 C 0.22858 0.73545 0.0615 0.0
H880 H 1.09914 0.68305 0.10854 0.0
H881 H 0.13871 0.59071 0.09705 0.0
H882 H 0.14869 0.74784 0.07022 0.0
H883 H 1.09698 0.7103 0.0599 0.0
H884 H 0.10276 0.73029 0.08529 0.0
H885 H 0.16533 0.58366 0.06644 0.0
H886 H 0.14597 0.59893 0.04539 0.0
H887 H 0.19774 0.63487 0.05608 0.0
H888 H 0.11343 0.67377 0.0001 0.0
H889 H 0.23813 0.76377 0.02452 0.0
H890 H 1.06272 0.63832 0.04319 0.0
H891 H 1.08148 0.60173 0.03859 0.0
H892 H 1.06194 0.61852 0.01819 0.0
H893 H 0.21775 0.74965 0.07331 0.0
H894 H 0.26034 0.76048 0.05683 0.0
H895 H 0.23195 0.7097 0.06809 0.0
C896 C 0.59657 0.08575 0.43344 0.0
C897 C 0.61218 1.06138 0.44189 0.0
C898 C 0.59351 0.08701 0.4128 0.0
C899 C 0.60748 1.06426 0.40045 0.0
C900 C 0.6237 1.03998 0.40895 0.0
C901 C 0.62534 1.0384 0.4296 0.0
C902 C 0.5751 0.11239 0.40421 0.0
C903 C 0.6398 1.01612 0.39625 0.0
C904 C 0.56947 1.0344 0.34666 0.0
C905 C 0.60361 1.06683 0.33706 0.0
C906 C 0.5697 1.0339 0.36739 0.0
C907 C 0.60547 1.06597 0.37861 0.0
C908 C 0.64001 0.09885 0.3689 0.0
C909 C 0.63839 0.09916 0.34819 0.0
C910 C 0.53189 0.99896 0.37727 0.0
C911 C 0.67907 0.13301 0.38036 0.0
H912 H 0.58611 0.1033 0.44296 0.0
H913 H 0.63777 1.01984 0.43614 0.0
H914 H 0.59914 0.13797 0.39529 0.0
H915 H 0.54745 0.09133 0.3941 0.0
H916 H 0.56459 0.12728 0.41586 0.0
H917 H 0.65238 0.99958 0.40523 0.0
H918 H 0.61377 0.99202 0.38616 0.0
H919 H 0.66549 1.03862 0.38684 0.0
H920 H 0.54251 1.00965 0.3379 0.0
H921 H 0.6648 0.12403 0.3406 0.0
H922 H 0.5197 1.0131 0.38845 0.0
H923 H 0.54169 0.97891 0.38522 0.0
H924 H 0.50555 0.97804 0.36647 0.0
H925 H 0.67002 0.15042 0.39133 0.0
H926 H 0.703 0.15646 0.37055 0.0
H927 H 0.69416 0.11804 0.38875 0.0
C928 C 0.62361 0.48598 0.76374 0.0
C929 C 0.59994 0.50304 0.77223 0.0
C930 C 0.63069 0.48766 0.74334 0.0
C931 C 0.61472 0.50797 0.73132 0.0
C932 C 0.59045 0.5249 0.73981 0.0
C933 C 0.58286 0.52171 0.76016 0.0
C934 C 0.65578 0.46828 0.73472 0.0
C935 C 0.57374 0.54766 0.72755 0.0
C936 C 0.6726 0.55398 0.68422 0.0
C937 C 0.64419 0.52444 0.66969 0.0
C938 C 0.66324 0.54909 0.70435 0.0
C939 C 0.62502 0.51322 0.71003 0.0
C940 C 0.59661 0.48282 0.69539 0.0
C941 C 0.6063 0.48912 0.67532 0.0
C942 C 0.69388 0.58268 0.71949 0.0
C943 C 0.55609 0.44369 0.70093 0.0
H944 H 0.63652 0.4712 0.77305 0.0
H945 H 0.56482 0.53521 0.76675 0.0
H946 H 0.63773 0.44586 0.72194 0.0
H947 H 0.68619 0.49375 0.72912 0.0
H948 H 0.66313 0.45081 0.74578 0.0
H949 H 0.55474 0.55831 0.73635 0.0
H950 H 0.60078 0.57604 0.72131 0.0
H951 H 0.55355 0.52641 0.71488 0.0
H952 H 0.70167 0.58151 0.67977 0.0
H953 H 0.5845 0.46626 0.66399 0.0
H954 H 0.70546 0.56803 0.73019 0.0
H955 H 0.6773 0.59648 0.72806 0.0
H956 H 0.72183 0.60899 0.71257 0.0
H957 H 0.56356 0.42543 0.71145 0.0
H958 H 0.53829 0.42229 0.6878 0.0
H959 H 0.53508 0.45335 0.70855 0.0
C960 C 0.65902 1.03821 0.5738 0.0
C961 C 0.62938 1.04734 0.5651 0.0
C962 C 0.6598 1.03305 0.5943 0.0
C963 C 0.63049 1.03745 0.60642 0.0
C964 C 0.60048 1.04656 0.59771 0.0
C965 C 0.6002 1.05125 0.57719 0.0
C966 C 0.69212 1.02311 0.60301 0.0
C967 C 0.56891 1.05189 0.61011 0.0
C968 C 0.60403 0.99365 0.65787 0.0
C969 C 0.62746 1.03091 0.67006 0.0
C970 C 0.60605 0.99487 0.63709 0.0
C971 C 0.63204 1.03428 0.62834 0.0
C972 C 0.65729 0.07154 0.64062 0.0
C973 C 0.65483 0.06935 0.66128 0.0
C974 C 0.57891 0.95436 0.6245 0.0
C975 C 0.68553 0.11419 0.63195 0.0
H976 H 0.68153 1.03487 0.56458 0.0
H977 H 0.57719 1.05833 0.57066 0.0
H978 H 0.71366 1.04918 0.61385 0.0
H979 H 0.67577 0.99337 0.61116 0.0
H980 H 0.71169 1.01918 0.5915 0.0
H981 H 0.54713 1.05816 0.60103 0.0
H982 H 0.5495 1.02272 0.61831 0.0
H983 H 0.58614 0.07885 0.62128 0.0
H984 H 0.58268 0.96388 0.66451 0.0
H985 H 0.6737 0.09813 0.67062 0.0
H986 H 0.59833 0.94984 0.61314 0.0
H987 H 0.55338 0.95679 0.61654 0.0
H988 H 0.56386 0.92572 0.63348 0.0
H989 H 0.70692 0.11154 0.6211 0.0
H990 H 0.70531 0.1395 0.64349 0.0
H991 H 0.66559 0.1243 0.62385 0.0
C992 C 0.60959 0.54642 0.90843 0.0
C993 C 0.57491 0.51523 0.89666 0.0
C994 C 0.60669 0.55059 0.92903 0.0
C995 C 0.5682 0.52296 0.93816 0.0
C996 C 0.53312 0.49127 0.92642 0.0
C997 C 0.5369 0.48779 0.90582 0.0
C998 C 0.64484 0.58481 0.941 0.0
C999 C 0.49152 0.46126 0.93561 0.0
C1000 C 0.57408 0.51154 0.99371 0.0
C1001 C 0.5609 0.53944 0.00145 0.0
C1002 C 0.57606 0.50542 0.97315 0.0
C1003 C 0.56461 0.52773 0.95998 0.0
C1004 C 0.55094 0.55565 0.96768 0.0
C1005 C 0.54929 0.56118 0.98829 0.0
C1006 C 0.59073 0.47533 0.96553 0.0
C1007 C 0.53867 0.58021 0.95416 0.0
H1008 H 0.63911 0.56779 0.90157 0.0
H1009 H 0.50985 0.46363 0.89687 0.0
H1010 H 0.63648 0.60718 0.94865 0.0
H1011 H 0.65437 0.57015 0.95262 0.0
H1012 H 0.67261 0.60342 0.93169 0.0
H1013 H 0.46747 0.43795 0.92449 0.0
H1014 H 0.4969 0.44339 0.94715 0.0
H1015 H 0.4783 0.47979 0.94301 0.0
H1016 H 0.58258 0.49419 0.00374 0.0
H1017 H 0.53967 0.58328 0.99412 0.0
H1018 H 0.61997 0.49303 0.957 0.0
H1019 H 0.56602 0.4502 0.95526 0.0
H1020 H 0.59762 0.45968 0.97768 0.0
H1021 H 0.56643 0.60188 0.9455 0.0
H1022 H 0.5274 0.59958 0.96245 0.0
H1023 H 0.51311 0.55786 0.94338 0.0
C1024 C 1.09786 0.62134 0.24073 0.0
C1025 C 1.08425 0.58646 0.22696 0.0
C1026 C 1.09693 0.61608 0.26122 0.0
C1027 C 1.08223 0.57491 0.2683 0.0
C1028 C 1.06741 0.53933 0.25455 0.0
C1029 C 1.06846 0.54548 0.23405 0.0
C1030 C 0.11277 0.6549 0.27531 0.0
C1031 C 1.05161 0.49494 0.26148 0.0
C1032 C 0.12721 0.57555 0.31949 0.0
C1033 C 1.09417 0.57029 0.33179 0.0
C1034 C 0.12301 0.57534 0.29879 0.0
C1035 C 1.08487 0.56993 0.29005 0.0
C1036 C 1.05077 0.56307 0.30231 0.0
C1037 C 1.05577 0.56318 0.32303 0.0
C1038 C 0.16004 0.58237 0.28632 0.0
C1039 C 1.00966 0.55735 0.29362 0.0
H1040 H 0.10979 0.65313 0.23551 0.0
H1041 H 1.05786 0.51829 0.22359 0.0
H1042 H 1.08825 0.64974 0.28624 0.0
H1043 H 0.14155 0.66017 0.28374 0.0
H1044 H 0.12092 0.6843 0.2675 0.0
H1045 H 1.03857 0.47028 0.24904 0.0
H1046 H 1.07813 0.49356 0.26904 0.0
H1047 H 1.02649 0.48698 0.27243 0.0
H1048 H 0.1567 0.58031 0.32612 0.0
H1049 H 1.03018 0.5593 0.33242 0.0
H1050 H 0.17284 0.6132 0.2791 0.0
H1051 H 0.14934 0.55682 0.27437 0.0
H1052 H 0.18625 0.58294 0.29522 0.0
H1053 H 1.01568 0.58747 0.28716 0.0
H1054 H 0.98497 0.54868 0.30489 0.0
H1055 H 0.99701 0.53216 0.28145 0.0
loop_
_geom_bond_atom_site_label_1
_geom_bond_atom_site_label_2
_geom_bond_distance
_geom_bond_site_symmetry_2
_ccdc_geom_bond_type
Eu0 C9 2.828 . S
Eu0 O11 2.392 1_655 S
Eu0 O13 2.418 . S
Eu0 O18 2.373 . S
Eu0 O21 2.488 . S
Eu0 O22 2.471 . S
Eu0 O23 2.349 . S
Eu1 O10 2.373 . S
Eu1 O14 2.488 . S
Eu1 O15 2.471 . S
Eu1 O16 2.349 . S
Eu1 O19 2.392 1_455 S
Eu1 O20 2.418 . S
Eu1 C30 2.828 . S
C2 O20 1.244 . S
C2 O23 1.265 1_455 S
C3 C4 1.379 . S
C3 C7 1.373 . S
C3 C9 1.505 . S
C4 C3 1.379 . S
C4 C6 1.369 . S
C4 H32 0.930 . S
C5 C7 1.383 . S
C5 C8 1.382 . S
C5 H33 0.930 . S
C6 C4 1.369 . S
C6 C8 1.392 . S
C6 H34 0.930 . S
C7 C3 1.373 . S
C7 C5 1.383 . S
C7 H35 0.931 . S
C8 C5 1.382 . S
C8 C6 1.392 . S
C9 Eu0 2.828 . S
C9 C3 1.505 . S
C9 O21 1.249 . S
C9 O22 1.244 . S
O10 Eu1 2.373 . S
O10 C12 1.258 . S
O11 Eu0 2.392 1_455 S
O11 C12 1.242 . S
C12 O10 1.258 . S
C12 O11 1.242 . S
O13 Eu0 2.418 . S
O13 C17 1.244 1_655 S
O14 Eu1 2.488 . S
O14 C30 1.249 . S
O15 Eu1 2.471 . S
O15 C30 1.244 . S
O16 Eu1 2.349 . S
O16 C17 1.265 . S
C17 O13 1.244 1_455 S
C17 O16 1.265 . S
O18 Eu0 2.373 . S
O18 C31 1.258 . S
O19 Eu1 2.392 1_655 S
O19 C31 1.242 . S
O20 Eu1 2.418 . S
O20 C2 1.244 . S
O21 Eu0 2.488 . S
O21 C9 1.249 . S
O22 Eu0 2.471 . S
O22 C9 1.244 . S
O23 Eu0 2.349 . S
O23 C2 1.265 1_655 S
C24 C25 1.379 . S
C24 C28 1.373 . S
C24 C30 1.505 . S
C25 C24 1.379 . S
C25 C27 1.369 . S
C25 H36 0.930 . S
C26 C28 1.383 . S
C26 C29 1.382 . S
C26 H37 0.930 . S
C27 C25 1.369 . S
C27 C29 1.392 . S
C27 H38 0.930 . S
C28 C24 1.373 . S
C28 C26 1.383 . S
C28 H39 0.931 . S
C29 C26 1.382 . S
C29 C27 1.392 . S
C30 Eu1 2.828 . S
C30 O14 1.249 . S
C30 O15 1.244 . S
C30 C24 1.505 . S
C31 O18 1.258 . S
C31 O19 1.242 . S
H32 C4 0.930 . S
H33 C5 0.930 . S
H34 C6 0.930 . S
H35 C7 0.931 . S
H36 C25 0.930 . S
H37 C26 0.930 . S
H38 C27 0.930 . S
H39 C28 0.931 . S
Eu40 C49 2.828 . S
Eu40 O51 2.392 1_565 S
Eu40 O53 2.418 . S
Eu40 O58 2.373 . S
Eu40 O61 2.488 . S
Eu40 O62 2.471 . S
Eu40 O63 2.349 . S
Eu41 O50 2.373 . S
Eu41 O54 2.488 . S
Eu41 O55 2.471 . S
Eu41 O56 2.349 . S
Eu41 O59 2.392 1_545 S
Eu41 O60 2.418 . S
Eu41 C70 2.828 . S
C42 O60 1.244 . S
C42 O63 1.265 1_545 S
C43 C44 1.379 . S
C43 C47 1.373 . S
C43 C49 1.505 . S
C44 C43 1.379 . S
C44 C46 1.369 . S
C44 H72 0.930 . S
C45 C47 1.383 . S
C45 C48 1.382 . S
C45 H73 0.930 . S
C46 C44 1.369 . S
C46 C48 1.392 . S
C46 H74 0.930 . S
C47 C43 1.373 . S
C47 C45 1.383 . S
C47 H75 0.931 . S
C48 C45 1.382 . S
C48 C46 1.392 . S
C49 Eu40 2.828 . S
C49 C43 1.505 . S
C49 O61 1.249 . S
C49 O62 1.244 . S
O50 Eu41 2.373 . S
O50 C52 1.258 . S
O51 Eu40 2.392 1_545 S
O51 C52 1.242 . S
C52 O50 1.258 . S
C52 O51 1.242 . S
O53 Eu40 2.418 . S
O53 C57 1.244 1_565 S
O54 Eu41 2.488 . S
O54 C70 1.249 . S
O55 Eu41 2.471 . S
O55 C70 1.244 . S
O56 Eu41 2.349 . S
O56 C57 1.265 . S
C57 O53 1.244 1_545 S
C57 O56 1.265 . S
O58 Eu40 2.373 . S
O58 C71 1.258 . S
O59 Eu41 2.392 1_565 S
O59 C71 1.242 . S
O60 Eu41 2.418 . S
O60 C42 1.244 . S
O61 Eu40 2.488 . S
O61 C49 1.249 . S
O62 Eu40 2.471 . S
O62 C49 1.244 . S
O63 Eu40 2.349 . S
O63 C42 1.265 1_565 S
C64 C65 1.379 . S
C64 C68 1.373 . S
C64 C70 1.505 . S
C65 C64 1.379 . S
C65 C67 1.369 . S
C65 H76 0.930 . S
C66 C68 1.383 . S
C66 C69 1.382 . S
C66 H77 0.930 . S
C67 C65 1.369 . S
C67 C69 1.392 . S
C67 H78 0.930 . S
C68 C64 1.373 . S
C68 C66 1.383 . S
C68 H79 0.931 . S
C69 C66 1.382 . S
C69 C67 1.392 . S
C70 Eu41 2.828 . S
C70 O54 1.249 . S
C70 O55 1.244 . S
C70 C64 1.505 . S
C71 O58 1.258 . S
C71 O59 1.242 . S
H72 C44 0.930 . S
H73 C45 0.930 . S
H74 C46 0.930 . S
H75 C47 0.931 . S
H76 C65 0.930 . S
H77 C66 0.930 . S
H78 C67 0.930 . S
H79 C68 0.931 . S
Eu80 C89 2.828 . S
Eu80 O91 2.392 . S
Eu80 O93 2.418 . S
Eu80 O98 2.373 . S
Eu80 O101 2.488 . S
Eu80 O102 2.471 . S
Eu80 O103 2.349 . S
Eu81 O90 2.373 . S
Eu81 O94 2.488 . S
Eu81 O95 2.471 . S
Eu81 O96 2.349 . S
Eu81 O99 2.392 . S
Eu81 O100 2.418 . S
Eu81 C110 2.828 . S
C82 O100 1.244 . S
C82 O103 1.265 . S
C83 C84 1.379 . S
C83 C87 1.373 . S
C83 C89 1.505 . S
C84 C83 1.379 . S
C84 C86 1.369 . S
C84 H112 0.930 . S
C85 C87 1.383 . S
C85 C88 1.382 . S
C85 H113 0.930 . S
C86 C84 1.369 . S
C86 C88 1.392 . S
C86 H114 0.930 . S
C87 C83 1.373 . S
C87 C85 1.383 . S
C87 H115 0.931 . S
C88 C85 1.382 . S
C88 C86 1.392 . S
C89 Eu80 2.828 . S
C89 C83 1.505 . S
C89 O101 1.249 . S
C89 O102 1.244 . S
O90 Eu81 2.373 . S
O90 C92 1.258 . S
O91 Eu80 2.392 . S
O91 C92 1.242 . S
C92 O90 1.258 . S
C92 O91 1.242 . S
O93 Eu80 2.418 . S
O93 C97 1.244 . S
O94 Eu81 2.488 . S
O94 C110 1.249 . S
O95 Eu81 2.471 . S
O95 C110 1.244 . S
O96 Eu81 2.349 . S
O96 C97 1.265 . S
C97 O93 1.244 . S
C97 O96 1.265 . S
O98 Eu80 2.373 . S
O98 C111 1.258 . S
O99 Eu81 2.392 . S
O99 C111 1.242 . S
O100 Eu81 2.418 . S
O100 C82 1.244 . S
O101 Eu80 2.488 . S
O101 C89 1.249 . S
O102 Eu80 2.471 . S
O102 C89 1.244 . S
O103 Eu80 2.349 . S
O103 C82 1.265 . S
C104 C105 1.379 . S
C104 C108 1.373 . S
C104 C110 1.505 . S
C105 C104 1.379 . S
C105 C107 1.369 . S
C105 H116 0.930 . S
C106 C108 1.383 . S
C106 C109 1.382 . S
C106 H117 0.930 . S
C107 C105 1.369 . S
C107 C109 1.392 . S
C107 H118 0.930 . S
C108 C104 1.373 . S
C108 C106 1.383 . S
C108 H119 0.931 . S
C109 C106 1.382 . S
C109 C107 1.392 . S
C110 Eu81 2.828 . S
C110 O94 1.249 . S
C110 O95 1.244 . S
C110 C104 1.505 . S
C111 O98 1.258 . S
C111 O99 1.242 . S
H112 C84 0.930 . S
H113 C85 0.930 . S
H114 C86 0.930 . S
H115 C87 0.931 . S
H116 C105 0.930 . S
H117 C106 0.930 . S
H118 C107 0.930 . S
H119 C108 0.931 . S
C120 C121 1.391 . S
C120 C124 1.391 . S
C120 H162 0.948 . S
C121 C120 1.391 . S
C121 C122 1.391 . S
C122 C121 1.391 . S
C122 H178 0.947 . S
C122 C179 1.392 . S
C123 C124 1.391 . S
C123 C127 1.397 . S
C123 C179 1.419 . S
C124 C120 1.391 . S
C124 C123 1.391 . S
C124 C125 1.399 . S
C125 C124 1.399 . S
C125 C128 1.396 . S
C125 C137 1.453 . S
C125 C138 1.684 . S
H126 C150 0.948 . S
C127 C123 1.397 . S
C127 C128 1.394 . S
C127 C146 1.723 . S
C128 C125 1.396 . S
C128 C127 1.394 . S
C128 C158 1.723 1_545 S
H129 C152 0.947 . S
H130 C153 0.948 . S
H131 C159 0.982 . S
H132 C160 0.979 . S
H133 C160 0.980 . S
H134 C160 0.983 . S
H135 C159 0.979 . S
H136 C159 0.977 . S
C137 C125 1.453 . S
C137 H166 0.982 . S
C137 H167 0.979 . S
C137 H168 0.977 . S
C138 C125 1.684 . S
C138 H163 0.979 . S
C138 H164 0.980 . S
C138 H165 0.983 . S
C139 C140 1.391 . S
C139 C144 1.391 . S
C139 H169 0.948 . S
C140 C139 1.391 . S
C140 C141 1.391 1_545 S
C141 C140 1.391 1_565 S
C141 C142 1.392 . S
C141 H170 0.947 . S
C142 C141 1.392 . S
C142 C143 1.419 1_565 S
C142 H171 0.948 . S
C143 C142 1.419 1_545 S
C143 C144 1.391 . S
C143 C147 1.397 . S
C144 C139 1.391 . S
C144 C143 1.391 . S
C144 C145 1.399 . S
C145 C144 1.399 . S
C145 C146 1.396 . S
C145 C148 1.453 . S
C145 C149 1.684 . S
C146 C127 1.723 . S
C146 C145 1.396 . S
C146 C147 1.394 . S
C147 C143 1.397 . S
C147 C146 1.394 . S
C147 C157 1.723 1_545 S
C148 C145 1.453 . S
C148 H172 0.982 . S
C148 H173 0.979 . S
C148 H174 0.977 . S
C149 C145 1.684 . S
C149 H175 0.979 . S
C149 H176 0.980 . S
C149 H177 0.983 . S
C150 H126 0.948 . S
C150 C151 1.391 . S
C150 C155 1.391 . S
C151 C150 1.391 . S
C151 C152 1.391 . S
C152 H129 0.947 . S
C152 C151 1.391 . S
C152 C153 1.392 . S
C153 H130 0.948 . S
C153 C152 1.392 . S
C153 C154 1.419 . S
C154 C153 1.419 . S
C154 C155 1.391 . S
C154 C158 1.397 . S
C155 C150 1.391 . S
C155 C154 1.391 . S
C155 C156 1.399 . S
C156 C155 1.399 . S
C156 C157 1.396 . S
C156 C159 1.453 . S
C156 C160 1.684 . S
C157 C147 1.723 1_565 S
C157 C156 1.396 . S
C157 C158 1.394 . S
C158 C128 1.723 1_565 S
C158 C154 1.397 . S
C158 C157 1.394 . S
C159 H131 0.982 . S
C159 H135 0.979 . S
C159 H136 0.977 . S
C159 C156 1.453 . S
C160 H132 0.979 . S
C160 H133 0.980 . S
C160 H134 0.983 . S
C160 C156 1.684 . S
H161 C179 0.948 . S
H162 C120 0.948 . S
H163 C138 0.979 . S
H164 C138 0.980 . S
H165 C138 0.983 . S
H166 C137 0.982 . S
H167 C137 0.979 . S
H168 C137 0.977 . S
H169 C139 0.948 . S
H170 C141 0.947 . S
H171 C142 0.948 . S
H172 C148 0.982 . S
H173 C148 0.979 . S
H174 C148 0.977 . S
H175 C149 0.979 . S
H176 C149 0.980 . S
H177 C149 0.983 . S
H178 C122 0.947 . S
C179 C122 1.392 . S
C179 C123 1.419 . S
C179 H161 0.948 . S
C180 C181 1.391 . S
C180 C184 1.391 . S
C180 H222 0.948 . S
C181 C180 1.391 . S
C181 C182 1.391 . S
C182 C181 1.391 . S
C182 H238 0.947 . S
C182 C239 1.392 . S
C183 C184 1.391 . S
C183 C187 1.397 . S
C183 C239 1.419 . S
C184 C180 1.391 . S
C184 C183 1.391 . S
C184 C185 1.399 . S
C185 C184 1.399 . S
C185 C188 1.396 . S
C185 C197 1.453 . S
C185 C198 1.684 . S
H186 C210 0.948 . S
C187 C183 1.397 . S
C187 C188 1.394 . S
C187 C206 1.723 . S
C188 C185 1.396 . S
C188 C187 1.394 . S
C188 C218 1.723 . S
H189 C212 0.947 . S
H190 C213 0.948 . S
H191 C219 0.982 . S
H192 C220 0.979 . S
H193 C220 0.980 . S
H194 C220 0.983 . S
H195 C219 0.979 . S
H196 C219 0.977 . S
C197 C185 1.453 . S
C197 H226 0.982 . S
C197 H227 0.979 . S
C197 H228 0.977 . S
C198 C185 1.684 . S
C198 H223 0.979 . S
C198 H224 0.980 . S
C198 H225 0.983 . S
C199 C200 1.391 . S
C199 C204 1.391 . S
C199 H229 0.948 . S
C200 C199 1.391 . S
C200 C201 1.391 . S
C201 C200 1.391 . S
C201 C202 1.392 . S
C201 H230 0.947 . S
C202 C201 1.392 . S
C202 C203 1.419 . S
C202 H231 0.948 . S
C203 C202 1.419 . S
C203 C204 1.391 . S
C203 C207 1.397 . S
C204 C199 1.391 . S
C204 C203 1.391 . S
C204 C205 1.399 . S
C205 C204 1.399 . S
C205 C206 1.396 . S
C205 C208 1.453 . S
C205 C209 1.684 . S
C206 C187 1.723 . S
C206 C205 1.396 . S
C206 C207 1.394 . S
C207 C203 1.397 . S
C207 C206 1.394 . S
C207 C217 1.723 . S
C208 C205 1.453 . S
C208 H232 0.982 . S
C208 H233 0.979 . S
C208 H234 0.977 . S
C209 C205 1.684 . S
C209 H235 0.979 . S
C209 H236 0.980 . S
C209 H237 0.983 . S
C210 H186 0.948 . S
C210 C211 1.391 . S
C210 C215 1.391 . S
C211 C210 1.391 . S
C211 C212 1.391 . S
C212 H189 0.947 . S
C212 C211 1.391 . S
C212 C213 1.392 . S
C213 H190 0.948 . S
C213 C212 1.392 . S
C213 C214 1.419 . S
C214 C213 1.419 . S
C214 C215 1.391 . S
C214 C218 1.397 . S
C215 C210 1.391 . S
C215 C214 1.391 . S
C215 C216 1.399 . S
C216 C215 1.399 . S
C216 C217 1.396 . S
C216 C219 1.453 . S
C216 C220 1.684 . S
C217 C207 1.723 . S
C217 C216 1.396 . S
C217 C218 1.394 . S
C218 C188 1.723 . S
C218 C214 1.397 . S
C218 C217 1.394 . S
C219 H191 0.982 . S
C219 H195 0.979 . S
C219 H196 0.977 . S
C219 C216 1.453 . S
C220 H192 0.979 . S
C220 H193 0.980 . S
C220 H194 0.983 . S
C220 C216 1.684 . S
H221 C239 0.948 . S
H222 C180 0.948 . S
H223 C198 0.979 . S
H224 C198 0.980 . S
H225 C198 0.983 . S
H226 C197 0.982 . S
H227 C197 0.979 . S
H228 C197 0.977 . S
H229 C199 0.948 . S
H230 C201 0.947 . S
H231 C202 0.948 . S
H232 C208 0.982 . S
H233 C208 0.979 . S
H234 C208 0.977 . S
H235 C209 0.979 . S
H236 C209 0.980 . S
H237 C209 0.983 . S
H238 C182 0.947 . S
C239 C182 1.392 . S
C239 C183 1.419 . S
C239 H221 0.948 . S
C240 C241 1.391 . S
C240 C244 1.391 . S
C240 H282 0.948 . S
C241 C240 1.391 . S
C241 C242 1.391 . S
C242 C241 1.391 . S
C242 H298 0.947 . S
C242 C299 1.392 . S
C243 C244 1.391 . S
C243 C247 1.397 . S
C243 C299 1.419 . S
C244 C240 1.391 . S
C244 C243 1.391 . S
C244 C245 1.399 . S
C245 C244 1.399 . S
C245 C248 1.396 . S
C245 C257 1.453 . S
C245 C258 1.684 . S
H246 C270 0.948 . S
C247 C243 1.397 . S
C247 C248 1.394 . S
C247 C266 1.723 . S
C248 C245 1.396 . S
C248 C247 1.394 . S
C248 C278 1.723 . S
H249 C272 0.947 . S
H250 C273 0.948 1_455 S
H251 C279 0.982 . S
H252 C280 0.979 . S
H253 C280 0.980 . S
H254 C280 0.983 . S
H255 C279 0.979 . S
H256 C279 0.977 . S
C257 C245 1.453 . S
C257 H286 0.982 . S
C257 H287 0.979 . S
C257 H288 0.977 . S
C258 C245 1.684 . S
C258 H283 0.979 . S
C258 H284 0.980 . S
C258 H285 0.983 . S
C259 C260 1.391 . S
C259 C264 1.391 . S
C259 H289 0.948 . S
C260 C259 1.391 . S
C260 C261 1.422 . S
C261 C260 1.422 . S
C261 C262 1.389 1_455 S
C261 H290 0.919 1_455 S
C262 C261 1.389 1_655 S
C262 C263 1.393 1_655 S
C262 H291 0.976 . S
C263 C262 1.393 1_455 S
C263 C264 1.391 . S
C263 C267 1.397 . S
C264 C259 1.391 . S
C264 C263 1.391 . S
C264 C265 1.399 . S
C265 C264 1.399 . S
C265 C266 1.396 . S
C265 C268 1.453 . S
C265 C269 1.684 . S
C266 C247 1.723 . S
C266 C265 1.396 . S
C266 C267 1.394 . S
C267 C263 1.397 . S
C267 C266 1.394 . S
C267 C277 1.723 1_455 S
C268 C265 1.453 . S
C268 H292 0.982 . S
C268 H293 0.979 . S
C268 H294 0.977 . S
C269 C265 1.684 . S
C269 H295 0.979 . S
C269 H296 0.980 . S
C269 H297 0.983 . S
C270 H246 0.948 . S
C270 C271 1.391 . S
C270 C275 1.391 . S
C271 C270 1.391 . S
C271 C272 1.391 . S
C272 H249 0.947 . S
C272 C271 1.391 . S
C272 C273 1.392 . S
C273 H250 0.948 1_655 S
C273 C272 1.392 . S
C273 C274 1.419 . S
C274 C273 1.419 . S
C274 C275 1.391 . S
C274 C278 1.397 1_655 S
C275 C270 1.391 . S
C275 C274 1.391 . S
C275 C276 1.399 . S
C276 C275 1.399 . S
C276 C277 1.396 . S
C276 C279 1.453 . S
C276 C280 1.684 . S
C277 C267 1.723 1_655 S
C277 C276 1.396 . S
C277 C278 1.394 1_655 S
C278 C248 1.723 . S
C278 C274 1.397 1_455 S
C278 C277 1.394 1_455 S
C279 H251 0.982 . S
C279 H255 0.979 . S
C279 H256 0.977 . S
C279 C276 1.453 . S
C280 H252 0.979 . S
C280 H253 0.980 . S
C280 H254 0.983 . S
C280 C276 1.684 . S
H281 C299 0.948 . S
H282 C240 0.948 . S
H283 C258 0.979 . S
H284 C258 0.980 . S
H285 C258 0.983 . S
H286 C257 0.982 . S
H287 C257 0.979 . S
H288 C257 0.977 . S
H289 C259 0.948 . S
H290 C261 0.919 1_655 S
H291 C262 0.976 . S
H292 C268 0.982 . S
H293 C268 0.979 . S
H294 C268 0.977 . S
H295 C269 0.979 . S
H296 C269 0.980 . S
H297 C269 0.983 . S
H298 C242 0.947 . S
C299 C242 1.392 . S
C299 C243 1.419 . S
C299 H281 0.948 . S
C300 C301 1.391 . S
C300 C304 1.391 . S
C300 H342 0.948 . S
C301 C300 1.391 . S
C301 C302 1.391 . S
C302 C301 1.391 . S
C302 H358 0.947 . S
C302 C359 1.392 . S
C303 C304 1.391 . S
C303 C307 1.397 . S
C303 C359 1.419 . S
C304 C300 1.391 . S
C304 C303 1.391 . S
C304 C305 1.399 . S
C305 C304 1.399 . S
C305 C308 1.396 1_655 S
C305 C317 1.453 1_655 S
C305 C318 1.684 . S
H306 C330 0.948 . S
C307 C303 1.397 . S
C307 C308 1.394 1_655 S
C307 C326 1.723 . S
C308 C305 1.396 1_455 S
C308 C307 1.394 1_455 S
C308 C338 1.723 . S
H309 C332 0.947 . S
H310 C333 0.948 . S
H311 C339 0.982 . S
H312 C340 0.979 . S
H313 C340 0.980 . S
H314 C340 0.983 . S
H315 C339 0.979 . S
H316 C339 0.977 . S
C317 C305 1.453 1_455 S
C317 H346 0.982 . S
C317 H347 0.979 . S
C317 H348 0.977 . S
C318 C305 1.684 . S
C318 H343 0.979 . S
C318 H344 0.980 1_655 S
C318 H345 0.983 . S
C319 C320 1.391 1_655 S
C319 C324 1.391 . S
C319 H349 0.948 . S
C320 C319 1.391 1_455 S
C320 C321 1.391 . S
C321 C320 1.391 . S
C321 C322 1.392 . S
C321 H350 0.947 . S
C322 C321 1.392 . S
C322 C323 1.419 . S
C322 H351 0.948 . S
C323 C322 1.419 . S
C323 C324 1.391 1_455 S
C323 C327 1.397 . S
C324 C319 1.391 . S
C324 C323 1.391 1_655 S
C324 C325 1.399 . S
C325 C324 1.399 . S
C325 C326 1.396 . S
C325 C328 1.453 . S
C325 C329 1.684 . S
C326 C307 1.723 . S
C326 C325 1.396 . S
C326 C327 1.394 1_655 S
C327 C323 1.397 . S
C327 C326 1.394 1_455 S
C327 C337 1.723 . S
C328 C325 1.453 . S
C328 H352 0.982 . S
C328 H353 0.979 . S
C328 H354 0.977 . S
C329 C325 1.684 . S
C329 H355 0.979 . S
C329 H356 0.980 . S
C329 H357 0.983 . S
C330 H306 0.948 . S
C330 C331 1.391 . S
C330 C335 1.391 . S
C331 C330 1.391 . S
C331 C332 1.391 . S
C332 H309 0.947 . S
C332 C331 1.391 . S
C332 C333 1.392 . S
C333 H310 0.948 . S
C333 C332 1.392 . S
C333 C334 1.419 . S
C334 C333 1.419 . S
C334 C335 1.391 . S
C334 C338 1.397 . S
C335 C330 1.391 . S
C335 C334 1.391 . S
C335 C336 1.399 . S
C336 C335 1.399 . S
C336 C337 1.396 . S
C336 C339 1.453 . S
C336 C340 1.684 . S
C337 C327 1.723 . S
C337 C336 1.396 . S
C337 C338 1.394 . S
C338 C308 1.723 . S
C338 C334 1.397 . S
C338 C337 1.394 . S
C339 H311 0.982 . S
C339 H315 0.979 . S
C339 H316 0.977 . S
C339 C336 1.453 . S
C340 H312 0.979 . S
C340 H313 0.980 . S
C340 H314 0.983 . S
C340 C336 1.684 . S
H341 C359 0.948 . S
H342 C300 0.948 . S
H343 C318 0.979 . S
H344 C318 0.980 1_455 S
H345 C318 0.983 . S
H346 C317 0.982 . S
H347 C317 0.979 . S
H348 C317 0.977 . S
H349 C319 0.948 . S
H350 C321 0.947 . S
H351 C322 0.948 . S
H352 C328 0.982 . S
H353 C328 0.979 . S
H354 C328 0.977 . S
H355 C329 0.979 . S
H356 C329 0.980 . S
H357 C329 0.983 . S
H358 C302 0.947 . S
C359 C302 1.392 . S
C359 C303 1.419 . S
C359 H341 0.948 . S
C360 C361 1.391 . S
C360 C364 1.391 . S
C360 H402 0.948 . S
C361 C360 1.391 . S
C361 C362 1.391 . S
C362 C361 1.391 . S
C362 H418 0.947 . S
C362 C419 1.392 . S
C363 C364 1.391 . S
C363 C367 1.397 . S
C363 C419 1.419 . S
C364 C360 1.391 . S
C364 C363 1.391 . S
C364 C365 1.399 . S
C365 C364 1.399 . S
C365 C368 1.396 1_565 S
C365 C377 1.453 1_565 S
C365 C378 1.684 . S
H366 C390 0.948 . S
C367 C363 1.397 . S
C367 C368 1.394 1_565 S
C367 C386 1.723 . S
C368 C365 1.396 1_545 S
C368 C367 1.394 1_545 S
C368 C398 1.723 . S
H369 C392 0.947 . S
H370 C393 0.948 . S
H371 C399 0.982 . S
H372 C400 0.979 . S
H373 C400 0.980 . S
H374 C400 0.983 . S
H375 C399 0.979 . S
H376 C399 0.977 . S
C377 C365 1.453 1_545 S
C377 H406 0.982 . S
C377 H407 0.974 1_545 S
C377 H408 0.977 . S
C378 C365 1.684 . S
C378 H403 0.979 . S
C378 H404 0.980 1_565 S
C378 H405 0.983 . S
C379 C380 1.391 1_565 S
C379 C384 1.391 . S
C379 H409 0.948 . S
C380 C379 1.391 1_545 S
C380 C381 1.391 . S
C381 C380 1.391 . S
C381 C382 1.392 . S
C381 H410 0.947 . S
C382 C381 1.392 . S
C382 C383 1.419 . S
C382 H411 0.948 . S
C383 C382 1.419 . S
C383 C384 1.391 1_545 S
C383 C387 1.397 . S
C384 C379 1.391 . S
C384 C383 1.391 1_565 S
C384 C385 1.399 . S
C385 C384 1.399 . S
C385 C386 1.396 . S
C385 C388 1.453 . S
C385 C389 1.684 . S
C386 C367 1.723 . S
C386 C385 1.396 . S
C386 C387 1.394 1_565 S
C387 C383 1.397 . S
C387 C386 1.394 1_545 S
C387 C397 1.723 . S
C388 C385 1.453 . S
C388 H412 0.982 . S
C388 H413 0.979 . S
C388 H414 0.977 . S
C389 C385 1.684 . S
C389 H415 0.979 . S
C389 H416 0.980 . S
C389 H417 0.983 . S
C390 H366 0.948 . S
C390 C391 1.391 . S
C390 C395 1.391 . S
C391 C390 1.391 . S
C391 C392 1.391 . S
C392 H369 0.947 . S
C392 C391 1.391 . S
C392 C393 1.392 . S
C393 H370 0.948 . S
C393 C392 1.392 . S
C393 C394 1.419 . S
C394 C393 1.419 . S
C394 C395 1.391 . S
C394 C398 1.397 . S
C395 C390 1.391 . S
C395 C394 1.391 . S
C395 C396 1.399 . S
C396 C395 1.399 . S
C396 C397 1.396 . S
C396 C399 1.453 . S
C396 C400 1.684 . S
C397 C387 1.723 . S
C397 C396 1.396 . S
C397 C398 1.394 . S
C398 C368 1.723 . S
C398 C394 1.397 . S
C398 C397 1.394 . S
C399 H371 0.982 . S
C399 H375 0.979 . S
C399 H376 0.977 . S
C399 C396 1.453 . S
C400 H372 0.979 . S
C400 H373 0.980 . S
C400 H374 0.983 . S
C400 C396 1.684 . S
H401 C419 0.948 . S
H402 C360 0.948 . S
H403 C378 0.979 . S
H404 C378 0.980 1_545 S
H405 C378 0.983 . S
H406 C377 0.982 . S
H407 C377 0.974 1_565 S
H408 C377 0.977 . S
H409 C379 0.948 . S
H410 C381 0.947 . S
H411 C382 0.948 . S
H412 C388 0.982 . S
H413 C388 0.979 . S
H414 C388 0.977 . S
H415 C389 0.979 . S
H416 C389 0.980 . S
H417 C389 0.983 . S
H418 C362 0.947 . S
C419 C362 1.392 . S
C419 C363 1.419 . S
C419 H401 0.948 . S
C420 C421 1.391 . S
C420 C424 1.391 . S
C420 H462 0.948 . S
C421 C420 1.391 . S
C421 C422 1.391 . S
C422 C421 1.391 . S
C422 H478 0.947 . S
C422 C479 1.392 . S
C423 C424 1.391 . S
C423 C427 1.397 . S
C423 C479 1.419 . S
C424 C420 1.391 . S
C424 C423 1.391 . S
C424 C425 1.399 . S
C425 C424 1.399 . S
C425 C428 1.396 . S
C425 C437 1.453 . S
C425 C438 1.684 . S
H426 C450 0.948 . S
C427 C423 1.397 . S
C427 C428 1.394 . S
C427 C446 1.723 . S
C428 C425 1.396 . S
C428 C427 1.394 . S
C428 C458 1.723 . S
H429 C452 0.947 . S
H430 C453 0.948 . S
H431 C459 0.982 . S
H432 C460 0.979 . S
H433 C460 0.980 . S
H434 C460 0.983 . S
H435 C459 0.979 . S
H436 C459 0.977 . S
C437 C425 1.453 . S
C437 H466 0.982 . S
C437 H467 0.979 . S
C437 H468 0.977 . S
C438 C425 1.684 . S
C438 H463 0.979 . S
C438 H464 0.980 . S
C438 H465 0.983 . S
C439 C440 1.391 . S
C439 C444 1.391 . S
C439 H469 0.948 . S
C440 C439 1.391 . S
C440 C441 1.391 . S
C441 C440 1.391 . S
C441 C442 1.392 . S
C441 H470 0.947 . S
C442 C441 1.392 . S
C442 C443 1.419 . S
C442 H471 0.948 . S
C443 C442 1.419 . S
C443 C444 1.391 . S
C443 C447 1.397 . S
C444 C439 1.391 . S
C444 C443 1.391 . S
C444 C445 1.399 . S
C445 C444 1.399 . S
C445 C446 1.396 . S
C445 C448 1.453 . S
C445 C449 1.684 . S
C446 C427 1.723 . S
C446 C445 1.396 . S
C446 C447 1.394 . S
C447 C443 1.397 . S
C447 C446 1.394 . S
C447 C457 1.723 . S
C448 C445 1.453 . S
C448 H472 0.982 . S
C448 H473 0.979 . S
C448 H474 0.977 . S
C449 C445 1.684 . S
C449 H475 0.979 . S
C449 H476 0.980 . S
C449 H477 0.983 . S
C450 H426 0.948 . S
C450 C451 1.391 . S
C450 C455 1.391 . S
C451 C450 1.391 . S
C451 C452 1.391 . S
C452 H429 0.947 . S
C452 C451 1.391 . S
C452 C453 1.392 . S
C453 H430 0.948 . S
C453 C452 1.392 . S
C453 C454 1.419 . S
C454 C453 1.419 . S
C454 C455 1.391 . S
C454 C458 1.397 . S
C455 C450 1.391 . S
C455 C454 1.391 . S
C455 C456 1.399 . S
C456 C455 1.399 . S
C456 C457 1.396 . S
C456 C459 1.453 . S
C456 C460 1.684 . S
C457 C447 1.723 . S
C457 C456 1.396 . S
C457 C458 1.394 . S
C458 C428 1.723 . S
C458 C454 1.397 . S
C458 C457 1.394 . S
C459 H431 0.982 . S
C459 H435 0.979 . S
C459 H436 0.977 . S
C459 C456 1.453 . S
C460 H432 0.979 . S
C460 H433 0.980 . S
C460 H434 0.983 . S
C460 C456 1.684 . S
H461 C479 0.948 . S
H462 C420 0.948 . S
H463 C438 0.979 . S
H464 C438 0.980 . S
H465 C438 0.983 . S
H466 C437 0.982 . S
H467 C437 0.979 . S
H468 C437 0.977 . S
H469 C439 0.948 . S
H470 C441 0.947 . S
H471 C442 0.948 . S
H472 C448 0.982 . S
H473 C448 0.979 . S
H474 C448 0.977 . S
H475 C449 0.979 . S
H476 C449 0.980 . S
H477 C449 0.983 . S
H478 C422 0.947 . S
C479 C422 1.392 . S
C479 C423 1.419 . S
C479 H461 0.948 . S
C480 C481 1.391 . S
C480 C482 1.394 . S
C480 H496 0.931 . S
C481 C480 1.391 . S
C481 C485 1.376 . S
C482 C480 1.394 . S
C482 C483 1.369 . S
C482 C486 1.531 . S
C483 C482 1.369 . S
C483 C484 1.410 . S
C483 C491 1.503 . S
C484 C483 1.410 . S
C484 C485 1.392 . S
C484 C487 1.511 . S
C485 C481 1.376 . S
C485 C484 1.392 . S
C485 H497 0.929 . S
C486 C482 1.531 . S
C486 H498 0.960 . S
C486 H499 0.962 . S
C486 H500 0.960 . S
C487 C484 1.511 . S
C487 H501 0.961 . S
C487 H502 0.961 . S
C487 H503 0.961 . S
C488 C489 1.370 . S
C488 C490 1.363 . S
C488 H504 0.931 . S
C489 C488 1.370 . S
C489 C493 1.408 . S
C490 C488 1.363 . S
C490 C491 1.370 . S
C490 C494 1.524 . S
C491 C483 1.503 . S
C491 C490 1.370 . S
C491 C492 1.403 . S
C492 C491 1.403 . S
C492 C493 1.404 . S
C492 C495 1.539 . S
C493 C489 1.408 . S
C493 C492 1.404 . S
C493 H505 0.930 . S
C494 C490 1.524 . S
C494 H506 0.956 . S
C494 H507 0.961 . S
C494 H508 0.961 . S
C495 C492 1.539 . S
C495 H509 0.958 . S
C495 H510 0.961 . S
C495 H511 0.960 . S
H496 C480 0.931 . S
H497 C485 0.929 . S
H498 C486 0.960 . S
H499 C486 0.962 . S
H500 C486 0.960 . S
H501 C487 0.961 . S
H502 C487 0.961 . S
H503 C487 0.961 . S
H504 C488 0.931 . S
H505 C493 0.930 . S
H506 C494 0.956 . S
H507 C494 0.961 . S
H508 C494 0.961 . S
H509 C495 0.958 . S
H510 C495 0.961 . S
H511 C495 0.960 . S
C512 C513 1.391 . S
C512 C514 1.394 . S
C512 H528 0.931 . S
C513 C512 1.391 . S
C513 C517 1.376 . S
C514 C512 1.394 . S
C514 C515 1.369 . S
C514 C518 1.531 . S
C515 C514 1.369 . S
C515 C516 1.410 . S
C515 C523 1.503 . S
C516 C515 1.410 . S
C516 C517 1.392 . S
C516 C519 1.511 . S
C517 C513 1.376 . S
C517 C516 1.392 . S
C517 H529 0.929 . S
C518 C514 1.531 . S
C518 H530 0.960 . S
C518 H531 0.962 . S
C518 H532 0.960 . S
C519 C516 1.511 . S
C519 H533 0.961 . S
C519 H534 0.961 . S
C519 H535 0.961 . S
C520 C521 1.370 . S
C520 C522 1.363 . S
C520 H536 0.931 . S
C521 C520 1.370 . S
C521 C525 1.408 . S
C522 C520 1.363 . S
C522 C523 1.370 . S
C522 C526 1.524 . S
C523 C515 1.503 . S
C523 C522 1.370 . S
C523 C524 1.403 . S
C524 C523 1.403 . S
C524 C525 1.404 . S
C524 C527 1.539 . S
C525 C521 1.408 . S
C525 C524 1.404 . S
C525 H537 0.930 . S
C526 C522 1.524 . S
C526 H538 0.956 . S
C526 H539 0.961 . S
C526 H540 0.961 . S
C527 C524 1.539 . S
C527 H541 0.958 . S
C527 H542 0.961 . S
C527 H543 0.960 . S
H528 C512 0.931 . S
H529 C517 0.929 . S
H530 C518 0.960 . S
H531 C518 0.962 . S
H532 C518 0.960 . S
H533 C519 0.961 . S
H534 C519 0.961 . S
H535 C519 0.961 . S
H536 C520 0.931 . S
H537 C525 0.930 . S
H538 C526 0.956 . S
H539 C526 0.961 . S
H540 C526 0.961 . S
H541 C527 0.958 . S
H542 C527 0.961 . S
H543 C527 0.960 . S
C544 C545 1.391 . S
C544 C546 1.394 . S
C544 H560 0.931 . S
C545 C544 1.391 . S
C545 C549 1.376 . S
C546 C544 1.394 . S
C546 C547 1.369 . S
C546 C550 1.531 . S
C547 C546 1.369 . S
C547 C548 1.410 . S
C547 C555 1.503 . S
C548 C547 1.410 . S
C548 C549 1.392 . S
C548 C551 1.511 . S
C549 C545 1.376 . S
C549 C548 1.392 . S
C549 H561 0.929 . S
C550 C546 1.531 . S
C550 H562 0.960 . S
C550 H563 0.962 . S
C550 H564 0.960 . S
C551 C548 1.511 . S
C551 H565 0.961 . S
C551 H566 0.961 . S
C551 H567 0.961 . S
C552 C553 1.370 . S
C552 C554 1.363 . S
C552 H568 0.931 . S
C553 C552 1.370 . S
C553 C557 1.408 . S
C554 C552 1.363 . S
C554 C555 1.370 . S
C554 C558 1.524 . S
C555 C547 1.503 . S
C555 C554 1.370 . S
C555 C556 1.403 . S
C556 C555 1.403 . S
C556 C557 1.404 . S
C556 C559 1.539 . S
C557 C553 1.408 . S
C557 C556 1.404 . S
C557 H569 0.930 . S
C558 C554 1.524 . S
C558 H570 0.956 . S
C558 H571 0.961 . S
C558 H572 0.961 . S
C559 C556 1.539 . S
C559 H573 0.958 . S
C559 H574 0.961 . S
C559 H575 0.960 . S
H560 C544 0.931 . S
H561 C549 0.929 . S
H562 C550 0.960 . S
H563 C550 0.962 . S
H564 C550 0.960 . S
H565 C551 0.961 . S
H566 C551 0.961 . S
H567 C551 0.961 . S
H568 C552 0.931 . S
H569 C557 0.930 . S
H570 C558 0.956 . S
H571 C558 0.961 . S
H572 C558 0.961 . S
H573 C559 0.958 . S
H574 C559 0.961 . S
H575 C559 0.960 . S
C576 C577 1.391 . S
C576 C578 1.394 . S
C576 H592 0.931 . S
C577 C576 1.391 . S
C577 C581 1.376 . S
C578 C576 1.394 . S
C578 C579 1.369 . S
C578 C582 1.531 . S
C579 C578 1.369 . S
C579 C580 1.410 . S
C579 C587 1.503 . S
C580 C579 1.410 . S
C580 C581 1.392 . S
C580 C583 1.511 . S
C581 C577 1.376 . S
C581 C580 1.392 . S
C581 H593 0.929 . S
C582 C578 1.531 . S
C582 H594 0.960 . S
C582 H595 0.962 . S
C582 H596 0.960 . S
C583 C580 1.511 . S
C583 H597 0.961 . S
C583 H598 0.961 . S
C583 H599 0.961 . S
C584 C585 1.370 . S
C584 C586 1.363 . S
C584 H600 0.931 . S
C585 C584 1.370 . S
C585 C589 1.408 . S
C586 C584 1.363 . S
C586 C587 1.370 . S
C586 C590 1.524 . S
C587 C579 1.503 . S
C587 C586 1.370 . S
C587 C588 1.403 . S
C588 C587 1.403 . S
C588 C589 1.404 . S
C588 C591 1.539 . S
C589 C585 1.408 . S
C589 C588 1.404 . S
C589 H601 0.930 . S
C590 C586 1.524 . S
C590 H602 0.956 . S
C590 H603 0.961 . S
C590 H604 0.961 . S
C591 C588 1.539 . S
C591 H605 0.958 . S
C591 H606 0.961 . S
C591 H607 0.960 . S
H592 C576 0.931 . S
H593 C581 0.929 . S
H594 C582 0.960 . S
H595 C582 0.962 . S
H596 C582 0.960 . S
H597 C583 0.961 . S
H598 C583 0.961 . S
H599 C583 0.961 . S
H600 C584 0.931 . S
H601 C589 0.930 . S
H602 C590 0.956 . S
H603 C590 0.961 . S
H604 C590 0.961 . S
H605 C591 0.958 . S
H606 C591 0.961 . S
H607 C591 0.960 . S
C608 C609 1.391 . S
C608 C610 1.394 . S
C608 H624 0.931 . S
C609 C608 1.391 . S
C609 C613 1.376 . S
C610 C608 1.394 . S
C610 C611 1.369 . S
C610 C614 1.531 . S
C611 C610 1.369 . S
C611 C612 1.410 . S
C611 C619 1.503 . S
C612 C611 1.410 . S
C612 C613 1.392 . S
C612 C615 1.511 . S
C613 C609 1.376 . S
C613 C612 1.392 . S
C613 H625 0.929 . S
C614 C610 1.531 . S
C614 H626 0.960 . S
C614 H627 0.962 . S
C614 H628 0.960 . S
C615 C612 1.511 . S
C615 H629 0.961 . S
C615 H630 0.961 . S
C615 H631 0.961 . S
C616 C617 1.370 . S
C616 C618 1.363 . S
C616 H632 0.931 . S
C617 C616 1.370 . S
C617 C621 1.408 . S
C618 C616 1.363 . S
C618 C619 1.370 . S
C618 C622 1.524 . S
C619 C611 1.503 . S
C619 C618 1.370 . S
C619 C620 1.403 . S
C620 C619 1.403 . S
C620 C621 1.404 . S
C620 C623 1.539 . S
C621 C617 1.408 . S
C621 C620 1.404 . S
C621 H633 0.930 . S
C622 C618 1.524 . S
C622 H634 0.956 . S
C622 H635 0.961 . S
C622 H636 0.961 . S
C623 C620 1.539 . S
C623 H637 0.958 . S
C623 H638 0.961 . S
C623 H639 0.960 . S
H624 C608 0.931 . S
H625 C613 0.929 . S
H626 C614 0.960 . S
H627 C614 0.962 . S
H628 C614 0.960 . S
H629 C615 0.961 . S
H630 C615 0.961 . S
H631 C615 0.961 . S
H632 C616 0.931 . S
H633 C621 0.930 . S
H634 C622 0.956 . S
H635 C622 0.961 . S
H636 C622 0.961 . S
H637 C623 0.958 . S
H638 C623 0.961 . S
H639 C623 0.960 . S
C640 C641 1.391 . S
C640 C642 1.394 . S
C640 H656 0.931 . S
C641 C640 1.391 . S
C641 C645 1.376 . S
C642 C640 1.394 . S
C642 C643 1.369 . S
C642 C646 1.531 . S
C643 C642 1.369 . S
C643 C644 1.410 . S
C643 C651 1.503 . S
C644 C643 1.410 . S
C644 C645 1.392 . S
C644 C647 1.511 . S
C645 C641 1.376 . S
C645 C644 1.392 . S
C645 H657 0.929 . S
C646 C642 1.531 . S
C646 H658 0.960 . S
C646 H659 0.962 . S
C646 H660 0.960 . S
C647 C644 1.511 . S
C647 H661 0.961 . S
C647 H662 0.961 . S
C647 H663 0.961 . S
C648 C649 1.370 . S
C648 C650 1.363 . S
C648 H664 0.931 . S
C649 C648 1.370 . S
C649 C653 1.408 . S
C650 C648 1.363 . S
C650 C651 1.370 . S
C650 C654 1.524 . S
C651 C643 1.503 . S
C651 C650 1.370 . S
C651 C652 1.403 . S
C652 C651 1.403 . S
C652 C653 1.404 . S
C652 C655 1.539 . S
C653 C649 1.408 . S
C653 C652 1.404 . S
C653 H665 0.930 . S
C654 C650 1.524 . S
C654 H666 0.956 . S
C654 H667 0.961 . S
C654 H668 0.961 . S
C655 C652 1.539 . S
C655 H669 0.958 . S
C655 H670 0.961 . S
C655 H671 0.960 . S
H656 C640 0.931 . S
H657 C645 0.929 . S
H658 C646 0.960 . S
H659 C646 0.962 . S
H660 C646 0.960 . S
H661 C647 0.961 . S
H662 C647 0.961 . S
H663 C647 0.961 . S
H664 C648 0.931 . S
H665 C653 0.930 . S
H666 C654 0.956 . S
H667 C654 0.961 . S
H668 C654 0.961 . S
H669 C655 0.958 . S
H670 C655 0.961 . S
H671 C655 0.960 . S
C672 C673 1.391 . S
C672 C674 1.394 . S
C672 H688 0.931 . S
C673 C672 1.391 . S
C673 C677 1.376 . S
C674 C672 1.394 . S
C674 C675 1.369 . S
C674 C678 1.531 . S
C675 C674 1.369 . S
C675 C676 1.410 . S
C675 C683 1.503 . S
C676 C675 1.410 . S
C676 C677 1.392 . S
C676 C679 1.511 . S
C677 C673 1.376 . S
C677 C676 1.392 . S
C677 H689 0.929 . S
C678 C674 1.531 . S
C678 H690 0.960 . S
C678 H691 0.962 . S
C678 H692 0.960 . S
C679 C676 1.511 . S
C679 H693 0.961 . S
C679 H694 0.961 . S
C679 H695 0.961 . S
C680 C681 1.370 . S
C680 C682 1.363 . S
C680 H696 0.931 . S
C681 C680 1.370 . S
C681 C685 1.408 . S
C682 C680 1.363 . S
C682 C683 1.370 . S
C682 C686 1.524 . S
C683 C675 1.503 . S
C683 C682 1.370 . S
C683 C684 1.403 . S
C684 C683 1.403 . S
C684 C685 1.404 . S
C684 C687 1.539 . S
C685 C681 1.408 . S
C685 C684 1.404 . S
C685 H697 0.930 . S
C686 C682 1.524 . S
C686 H698 0.956 . S
C686 H699 0.961 . S
C686 H700 0.961 . S
C687 C684 1.539 . S
C687 H701 0.958 . S
C687 H702 0.961 . S
C687 H703 0.960 . S
H688 C672 0.931 . S
H689 C677 0.929 . S
H690 C678 0.960 . S
H691 C678 0.962 . S
H692 C678 0.960 . S
H693 C679 0.961 . S
H694 C679 0.961 . S
H695 C679 0.961 . S
H696 C680 0.931 . S
H697 C685 0.930 . S
H698 C686 0.956 . S
H699 C686 0.961 . S
H700 C686 0.961 . S
H701 C687 0.958 . S
H702 C687 0.961 . S
H703 C687 0.960 . S
C704 C705 1.391 . S
C704 C706 1.394 . S
C704 H720 0.931 . S
C705 C704 1.391 . S
C705 C709 1.376 . S
C706 C704 1.394 . S
C706 C707 1.369 . S
C706 C710 1.531 . S
C707 C706 1.369 . S
C707 C708 1.410 . S
C707 C715 1.503 . S
C708 C707 1.410 . S
C708 C709 1.392 . S
C708 C711 1.511 . S
C709 C705 1.376 . S
C709 C708 1.392 . S
C709 H721 0.929 . S
C710 C706 1.531 . S
C710 H722 0.960 . S
C710 H723 0.962 . S
C710 H724 0.960 . S
C711 C708 1.511 . S
C711 H725 0.961 . S
C711 H726 0.961 . S
C711 H727 0.961 . S
C712 C713 1.370 . S
C712 C714 1.363 . S
C712 H728 0.931 . S
C713 C712 1.370 . S
C713 C717 1.408 . S
C714 C712 1.363 . S
C714 C715 1.370 . S
C714 C718 1.524 . S
C715 C707 1.503 . S
C715 C714 1.370 . S
C715 C716 1.403 . S
C716 C715 1.403 . S
C716 C717 1.404 . S
C716 C719 1.539 . S
C717 C713 1.408 . S
C717 C716 1.404 . S
C717 H729 0.930 . S
C718 C714 1.524 . S
C718 H730 0.956 . S
C718 H731 0.961 . S
C718 H732 0.961 . S
C719 C716 1.539 . S
C719 H733 0.958 . S
C719 H734 0.961 . S
C719 H735 0.960 . S
H720 C704 0.931 . S
H721 C709 0.929 . S
H722 C710 0.960 . S
H723 C710 0.962 . S
H724 C710 0.960 . S
H725 C711 0.961 . S
H726 C711 0.961 . S
H727 C711 0.961 . S
H728 C712 0.931 . S
H729 C717 0.930 . S
H730 C718 0.956 . S
H731 C718 0.961 . S
H732 C718 0.961 . S
H733 C719 0.958 . S
H734 C719 0.961 . S
H735 C719 0.960 . S
C736 C737 1.391 . S
C736 C738 1.394 . S
C736 H752 0.931 . S
C737 C736 1.391 . S
C737 C741 1.376 . S
C738 C736 1.394 . S
C738 C739 1.369 . S
C738 C742 1.531 . S
C739 C738 1.369 . S
C739 C740 1.410 . S
C739 C747 1.503 . S
C740 C739 1.410 . S
C740 C741 1.392 . S
C740 C743 1.511 . S
C741 C737 1.376 . S
C741 C740 1.392 . S
C741 H753 0.929 . S
C742 C738 1.531 . S
C742 H754 0.960 . S
C742 H755 0.962 . S
C742 H756 0.960 . S
C743 C740 1.511 . S
C743 H757 0.961 . S
C743 H758 0.961 . S
C743 H759 0.961 . S
C744 C745 1.370 . S
C744 C746 1.363 . S
C744 H760 0.931 . S
C745 C744 1.370 . S
C745 C749 1.408 . S
C746 C744 1.363 . S
C746 C747 1.370 . S
C746 C750 1.524 . S
C747 C739 1.503 . S
C747 C746 1.370 . S
C747 C748 1.403 . S
C748 C747 1.403 . S
C748 C749 1.404 . S
C748 C751 1.539 . S
C749 C745 1.408 . S
C749 C748 1.404 . S
C749 H761 0.930 . S
C750 C746 1.524 . S
C750 H762 0.956 . S
C750 H763 0.961 . S
C750 H764 0.961 . S
C751 C748 1.539 . S
C751 H765 0.958 . S
C751 H766 0.961 . S
C751 H767 0.960 . S
H752 C736 0.931 . S
H753 C741 0.929 . S
H754 C742 0.960 . S
H755 C742 0.962 . S
H756 C742 0.960 . S
H757 C743 0.961 . S
H758 C743 0.961 . S
H759 C743 0.961 . S
H760 C744 0.931 . S
H761 C749 0.930 . S
H762 C750 0.956 . S
H763 C750 0.961 . S
H764 C750 0.961 . S
H765 C751 0.958 . S
H766 C751 0.961 . S
H767 C751 0.960 . S
C768 C769 1.391 . S
C768 C770 1.394 . S
C768 H784 0.931 . S
C769 C768 1.391 . S
C769 C773 1.376 . S
C770 C768 1.394 . S
C770 C771 1.369 . S
C770 C774 1.531 . S
C771 C770 1.369 . S
C771 C772 1.410 . S
C771 C779 1.503 . S
C772 C771 1.410 . S
C772 C773 1.392 . S
C772 C775 1.511 . S
C773 C769 1.376 . S
C773 C772 1.392 . S
C773 H785 0.929 . S
C774 C770 1.531 . S
C774 H786 0.960 . S
C774 H787 0.962 . S
C774 H788 0.960 . S
C775 C772 1.511 . S
C775 H789 0.961 . S
C775 H790 0.961 . S
C775 H791 0.961 . S
C776 C777 1.370 . S
C776 C778 1.363 . S
C776 H792 0.931 . S
C777 C776 1.370 . S
C777 C781 1.408 . S
C778 C776 1.363 . S
C778 C779 1.370 . S
C778 C782 1.524 . S
C779 C771 1.503 . S
C779 C778 1.370 . S
C779 C780 1.403 . S
C780 C779 1.403 . S
C780 C781 1.404 . S
C780 C783 1.539 . S
C781 C777 1.408 . S
C781 C780 1.404 . S
C781 H793 0.930 . S
C782 C778 1.524 . S
C782 H794 0.956 . S
C782 H795 0.961 . S
C782 H796 0.961 . S
C783 C780 1.539 . S
C783 H797 0.958 . S
C783 H798 0.961 . S
C783 H799 0.960 . S
H784 C768 0.931 . S
H785 C773 0.929 . S
H786 C774 0.960 . S
H787 C774 0.962 . S
H788 C774 0.960 . S
H789 C775 0.961 . S
H790 C775 0.961 . S
H791 C775 0.961 . S
H792 C776 0.931 . S
H793 C781 0.930 . S
H794 C782 0.956 . S
H795 C782 0.961 . S
H796 C782 0.961 . S
H797 C783 0.958 . S
H798 C783 0.961 . S
H799 C783 0.960 . S
C800 C801 1.391 . S
C800 C802 1.394 . S
C800 H816 0.931 . S
C801 C800 1.391 . S
C801 C805 1.376 . S
C802 C800 1.394 . S
C802 C803 1.369 . S
C802 C806 1.531 . S
C803 C802 1.369 . S
C803 C804 1.410 . S
C803 C811 1.503 . S
C804 C803 1.410 . S
C804 C805 1.392 . S
C804 C807 1.511 . S
C805 C801 1.376 . S
C805 C804 1.392 . S
C805 H817 0.929 . S
C806 C802 1.531 . S
C806 H818 0.960 . S
C806 H819 0.962 . S
C806 H820 0.960 . S
C807 C804 1.511 . S
C807 H821 0.961 . S
C807 H822 0.961 . S
C807 H823 0.961 . S
C808 C809 1.370 . S
C808 C810 1.363 . S
C808 H824 0.931 . S
C809 C808 1.370 . S
C809 C813 1.408 . S
C810 C808 1.363 . S
C810 C811 1.370 . S
C810 C814 1.524 . S
C811 C803 1.503 . S
C811 C810 1.370 . S
C811 C812 1.403 . S
C812 C811 1.403 . S
C812 C813 1.404 . S
C812 C815 1.539 . S
C813 C809 1.408 . S
C813 C812 1.404 . S
C813 H825 0.930 . S
C814 C810 1.524 . S
C814 H826 0.956 . S
C814 H827 0.961 . S
C814 H828 0.961 . S
C815 C812 1.539 . S
C815 H829 0.958 . S
C815 H830 0.961 . S
C815 H831 0.960 . S
H816 C800 0.931 . S
H817 C805 0.929 . S
H818 C806 0.960 . S
H819 C806 0.962 . S
H820 C806 0.960 . S
H821 C807 0.961 . S
H822 C807 0.961 . S
H823 C807 0.961 . S
H824 C808 0.931 . S
H825 C813 0.930 . S
H826 C814 0.956 . S
H827 C814 0.961 . S
H828 C814 0.961 . S
H829 C815 0.958 . S
H830 C815 0.961 . S
H831 C815 0.960 . S
C832 C833 1.391 . S
C832 C834 1.394 . S
C832 H848 0.931 . S
C833 C832 1.391 . S
C833 C837 1.376 . S
C834 C832 1.394 . S
C834 C835 1.369 . S
C834 C838 1.531 . S
C835 C834 1.369 . S
C835 C836 1.410 . S
C835 C843 1.503 . S
C836 C835 1.410 . S
C836 C837 1.392 . S
C836 C839 1.511 . S
C837 C833 1.376 . S
C837 C836 1.392 . S
C837 H849 0.929 . S
C838 C834 1.531 . S
C838 H850 0.960 . S
C838 H851 0.962 . S
C838 H852 0.960 . S
C839 C836 1.511 . S
C839 H853 0.961 . S
C839 H854 0.961 . S
C839 H855 0.961 . S
C840 C841 1.370 . S
C840 C842 1.363 . S
C840 H856 0.931 . S
C841 C840 1.370 . S
C841 C845 1.408 . S
C842 C840 1.363 . S
C842 C843 1.370 . S
C842 C846 1.524 . S
C843 C835 1.503 . S
C843 C842 1.370 . S
C843 C844 1.403 . S
C844 C843 1.403 . S
C844 C845 1.404 . S
C844 C847 1.539 . S
C845 C841 1.408 . S
C845 C844 1.404 . S
C845 H857 0.930 . S
C846 C842 1.524 . S
C846 H858 0.956 . S
C846 H859 0.961 . S
C846 H860 0.961 . S
C847 C844 1.539 . S
C847 H861 0.958 . S
C847 H862 0.961 . S
C847 H863 0.960 . S
H848 C832 0.931 . S
H849 C837 0.929 . S
H850 C838 0.960 . S
H851 C838 0.962 . S
H852 C838 0.960 . S
H853 C839 0.961 . S
H854 C839 0.961 . S
H855 C839 0.961 . S
H856 C840 0.931 . S
H857 C845 0.930 . S
H858 C846 0.956 . S
H859 C846 0.961 . S
H860 C846 0.961 . S
H861 C847 0.958 . S
H862 C847 0.961 . S
H863 C847 0.960 . S
C864 C865 1.391 . S
C864 C866 1.394 . S
C864 H880 0.931 1_455 S
C865 C864 1.391 . S
C865 C869 1.376 . S
C866 C864 1.394 . S
C866 C867 1.369 . S
C866 C870 1.523 1_455 S
C867 C866 1.369 . S
C867 C868 1.410 . S
C867 C875 1.503 . S
C868 C867 1.410 . S
C868 C869 1.392 . S
C868 C871 1.511 . S
C869 C865 1.376 . S
C869 C868 1.392 . S
C869 H881 0.929 . S
C870 C866 1.523 1_655 S
C870 H882 0.954 1_655 S
C870 H883 0.971 . S
C870 H884 0.964 1_655 S
C871 C868 1.511 . S
C871 H885 0.961 . S
C871 H886 0.961 . S
C871 H887 0.961 . S
C872 C873 1.370 . S
C872 C874 1.363 1_455 S
C872 H888 0.931 1_455 S
C873 C872 1.370 . S
C873 C877 1.408 . S
C874 C872 1.363 1_655 S
C874 C875 1.357 1_655 S
C874 C878 1.539 . S
C875 C867 1.503 . S
C875 C874 1.357 1_455 S
C875 C876 1.403 . S
C876 C875 1.403 . S
C876 C877 1.404 . S
C876 C879 1.539 . S
C877 C873 1.408 . S
C877 C876 1.404 . S
C877 H889 0.930 . S
C878 C874 1.539 . S
C878 H890 0.956 . S
C878 H891 0.961 . S
C878 H892 0.961 . S
C879 C876 1.539 . S
C879 H893 0.958 . S
C879 H894 0.961 . S
C879 H895 0.960 . S
H880 C864 0.931 1_655 S
H881 C869 0.929 . S
H882 C870 0.954 1_455 S
H883 C870 0.971 . S
H884 C870 0.964 1_455 S
H885 C871 0.961 . S
H886 C871 0.961 . S
H887 C871 0.961 . S
H888 C872 0.931 1_655 S
H889 C877 0.930 . S
H890 C878 0.956 . S
H891 C878 0.961 . S
H892 C878 0.961 . S
H893 C879 0.958 . S
H894 C879 0.961 . S
H895 C879 0.960 . S
C896 C897 1.391 . S
C896 C898 1.394 . S
C896 H912 0.931 . S
C897 C896 1.391 . S
C897 C901 1.376 1_545 S
C898 C896 1.394 . S
C898 C899 1.369 . S
C898 C902 1.531 . S
C899 C898 1.369 . S
C899 C900 1.410 1_545 S
C899 C907 1.503 . S
C900 C899 1.410 1_565 S
C900 C901 1.392 . S
C900 C903 1.511 . S
C901 C897 1.376 1_565 S
C901 C900 1.392 . S
C901 H913 0.929 . S
C902 C898 1.531 . S
C902 H914 0.960 . S
C902 H915 0.962 . S
C902 H916 0.960 . S
C903 C900 1.511 . S
C903 H917 0.961 . S
C903 H918 0.961 . S
C903 H919 0.961 . S
C904 C905 1.370 . S
C904 C906 1.363 . S
C904 H920 0.931 1_545 S
C905 C904 1.370 . S
C905 C909 1.408 . S
C906 C904 1.363 . S
C906 C907 1.370 . S
C906 C910 1.524 1_545 S
C907 C899 1.503 . S
C907 C906 1.370 . S
C907 C908 1.403 . S
C908 C907 1.403 . S
C908 C909 1.404 . S
C908 C911 1.539 . S
C909 C905 1.408 . S
C909 C908 1.404 . S
C909 H921 0.930 . S
C910 C906 1.524 1_565 S
C910 H922 0.956 . S
C910 H923 0.961 . S
C910 H924 0.961 . S
C911 C908 1.539 . S
C911 H925 0.958 . S
C911 H926 0.961 . S
C911 H927 0.960 . S
H912 C896 0.931 . S
H913 C901 0.929 . S
H914 C902 0.960 . S
H915 C902 0.962 . S
H916 C902 0.960 . S
H917 C903 0.961 . S
H918 C903 0.961 . S
H919 C903 0.961 . S
H920 C904 0.931 1_565 S
H921 C909 0.930 . S
H922 C910 0.956 . S
H923 C910 0.961 . S
H924 C910 0.961 . S
H925 C911 0.958 . S
H926 C911 0.961 . S
H927 C911 0.960 . S
C928 C929 1.391 . S
C928 C930 1.394 . S
C928 H944 0.931 . S
C929 C928 1.391 . S
C929 C933 1.376 . S
C930 C928 1.394 . S
C930 C931 1.369 . S
C930 C934 1.531 . S
C931 C930 1.369 . S
C931 C932 1.410 . S
C931 C939 1.503 . S
C932 C931 1.410 . S
C932 C933 1.392 . S
C932 C935 1.511 . S
C933 C929 1.376 . S
C933 C932 1.392 . S
C933 H945 0.929 . S
C934 C930 1.531 . S
C934 H946 0.960 . S
C934 H947 0.962 . S
C934 H948 0.960 . S
C935 C932 1.511 . S
C935 H949 0.961 . S
C935 H950 0.961 . S
C935 H951 0.961 . S
C936 C937 1.370 . S
C936 C938 1.363 . S
C936 H952 0.931 . S
C937 C936 1.370 . S
C937 C941 1.408 . S
C938 C936 1.363 . S
C938 C939 1.370 . S
C938 C942 1.524 . S
C939 C931 1.503 . S
C939 C938 1.370 . S
C939 C940 1.403 . S
C940 C939 1.403 . S
C940 C941 1.404 . S
C940 C943 1.539 . S
C941 C937 1.408 . S
C941 C940 1.404 . S
C941 H953 0.930 . S
C942 C938 1.524 . S
C942 H954 0.956 . S
C942 H955 0.961 . S
C942 H956 0.961 . S
C943 C940 1.539 . S
C943 H957 0.958 . S
C943 H958 0.961 . S
C943 H959 0.960 . S
H944 C928 0.931 . S
H945 C933 0.929 . S
H946 C934 0.960 . S
H947 C934 0.962 . S
H948 C934 0.960 . S
H949 C935 0.961 . S
H950 C935 0.961 . S
H951 C935 0.961 . S
H952 C936 0.931 . S
H953 C941 0.930 . S
H954 C942 0.956 . S
H955 C942 0.961 . S
H956 C942 0.961 . S
H957 C943 0.958 . S
H958 C943 0.961 . S
H959 C943 0.960 . S
C960 C961 1.409 . S
C960 C962 1.395 . S
C960 H976 0.912 1_545 S
C961 C960 1.409 . S
C961 C965 1.376 . S
C962 C960 1.395 . S
C962 C963 1.369 . S
C962 C966 1.531 1_545 S
C963 C962 1.369 . S
C963 C964 1.410 . S
C963 C971 1.503 . S
C964 C963 1.410 . S
C964 C965 1.392 . S
C964 C967 1.511 . S
C965 C961 1.376 . S
C965 C964 1.392 . S
C965 H977 0.929 . S
C966 C962 1.531 1_565 S
C966 H978 0.960 1_565 S
C966 H979 0.962 . S
C966 H980 0.960 . S
C967 C964 1.511 . S
C967 H981 0.961 . S
C967 H982 0.961 . S
C967 H983 0.961 . S
C968 C969 1.370 1_565 S
C968 C970 1.363 . S
C968 H984 0.931 . S
C969 C968 1.370 1_545 S
C969 C973 1.408 . S
C970 C968 1.363 . S
C970 C971 1.370 1_565 S
C970 C974 1.524 . S
C971 C963 1.503 . S
C971 C970 1.370 1_545 S
C971 C972 1.403 . S
C972 C971 1.403 . S
C972 C973 1.404 . S
C972 C975 1.539 . S
C973 C969 1.408 . S
C973 C972 1.404 . S
C973 H985 0.930 . S
C974 C970 1.524 . S
C974 H986 0.956 . S
C974 H987 0.961 . S
C974 H988 0.961 . S
C975 C972 1.539 . S
C975 H989 0.958 . S
C975 H990 0.961 . S
C975 H991 0.960 . S
H976 C960 0.912 1_565 S
H977 C965 0.929 . S
H978 C966 0.960 1_545 S
H979 C966 0.962 . S
H980 C966 0.960 . S
H981 C967 0.961 . S
H982 C967 0.961 . S
H983 C967 0.961 . S
H984 C968 0.931 . S
H985 C973 0.930 . S
H986 C974 0.956 . S
H987 C974 0.961 . S
H988 C974 0.961 . S
H989 C975 0.958 . S
H990 C975 0.961 . S
H991 C975 0.960 . S
C992 C993 1.391 . S
C992 C994 1.394 . S
C992 H1008 0.931 . S
C993 C992 1.391 . S
C993 C997 1.376 . S
C994 C992 1.394 . S
C994 C995 1.369 . S
C994 C998 1.531 . S
C995 C994 1.369 . S
C995 C996 1.410 . S
C995 C1003 1.503 . S
C996 C995 1.410 . S
C996 C997 1.392 . S
C996 C999 1.511 . S
C997 C993 1.376 . S
C997 C996 1.392 . S
C997 H1009 0.929 . S
C998 C994 1.531 . S
C998 H1010 0.960 . S
C998 H1011 0.962 . S
C998 H1012 0.960 . S
C999 C996 1.511 . S
C999 H1013 0.961 . S
C999 H1014 0.961 . S
C999 H1015 0.961 . S
C1000 C1001 1.370 . S
C1000 C1002 1.363 . S
C1000 H1016 0.931 . S
C1001 C1000 1.370 . S
C1001 C1005 1.408 . S
C1002 C1000 1.363 . S
C1002 C1003 1.370 . S
C1002 C1006 1.524 . S
C1003 C995 1.503 . S
C1003 C1002 1.370 . S
C1003 C1004 1.403 . S
C1004 C1003 1.403 . S
C1004 C1005 1.404 . S
C1004 C1007 1.539 . S
C1005 C1001 1.408 . S
C1005 C1004 1.404 . S
C1005 H1017 0.957 . S
C1006 C1002 1.524 . S
C1006 H1018 0.956 . S
C1006 H1019 0.961 . S
C1006 H1020 0.961 . S
C1007 C1004 1.539 . S
C1007 H1021 0.958 . S
C1007 H1022 0.961 . S
C1007 H1023 0.960 . S
H1008 C992 0.931 . S
H1009 C997 0.929 . S
H1010 C998 0.960 . S
H1011 C998 0.962 . S
H1012 C998 0.960 . S
H1013 C999 0.961 . S
H1014 C999 0.961 . S
H1015 C999 0.961 . S
H1016 C1000 0.931 . S
H1017 C1005 0.957 . S
H1018 C1006 0.956 . S
H1019 C1006 0.961 . S
H1020 C1006 0.961 . S
H1021 C1007 0.958 . S
H1022 C1007 0.961 . S
H1023 C1007 0.960 . S
C1024 C1025 1.391 . S
C1024 C1026 1.394 . S
C1024 H1040 0.931 . S
C1025 C1024 1.391 . S
C1025 C1029 1.376 1_655 S
C1026 C1024 1.394 . S
C1026 C1027 1.369 . S
C1026 C1030 1.531 . S
C1027 C1026 1.369 . S
C1027 C1028 1.410 1_655 S
C1027 C1035 1.503 1_655 S
C1028 C1027 1.410 1_455 S
C1028 C1029 1.392 . S
C1028 C1031 1.511 . S
C1029 C1025 1.376 1_455 S
C1029 C1028 1.392 . S
C1029 H1041 0.929 . S
C1030 C1026 1.531 . S
C1030 H1042 0.960 . S
C1030 H1043 0.962 . S
C1030 H1044 0.960 . S
C1031 C1028 1.511 . S
C1031 H1045 0.961 . S
C1031 H1046 0.961 . S
C1031 H1047 0.961 . S
C1032 C1033 1.370 . S
C1032 C1034 1.363 . S
C1032 H1048 0.931 . S
C1033 C1032 1.370 . S
C1033 C1037 1.408 1_455 S
C1034 C1032 1.363 . S
C1034 C1035 1.372 . S
C1034 C1038 1.524 . S
C1035 C1027 1.503 1_455 S
C1035 C1034 1.372 . S
C1035 C1036 1.402 1_455 S
C1036 C1035 1.402 1_655 S
C1036 C1037 1.404 . S
C1036 C1039 1.539 . S
C1037 C1033 1.408 1_655 S
C1037 C1036 1.404 . S
C1037 H1049 0.930 . S
C1038 C1034 1.524 . S
C1038 H1050 0.956 . S
C1038 H1051 0.961 . S
C1038 H1052 0.961 . S
C1039 C1036 1.539 . S
C1039 H1053 0.958 . S
C1039 H1054 0.961 . S
C1039 H1055 0.960 . S
H1040 C1024 0.931 . S
H1041 C1029 0.929 . S
H1042 C1030 0.960 . S
H1043 C1030 0.962 . S
H1044 C1030 0.960 . S
H1045 C1031 0.961 . S
H1046 C1031 0.961 . S
H1047 C1031 0.961 . S
H1048 C1032 0.931 . S
H1049 C1037 0.930 . S
H1050 C1038 0.956 . S
H1051 C1038 0.961 . S
H1052 C1038 0.961 . S
H1053 C1039 0.958 . S
H1054 C1039 0.961 . S
H1055 C1039 0.960 . S
C481 C12 2.937 . S
C489 C451 2.934 . S
C513 C52 2.934 . S
C521 C301 2.789 . S
C545 C111 2.984 . S
C553 C361 2.813 . S
C577 C31 3.132 . S
C585 C421 2.956 . S
C617 C331 3.122 . S
C609 C71 3.135 . S
C649 C391 3.064 . S
C641 C92 3.075 . S
C673 C48 0.440 . S
C681 C181 0.520 . S
C705 C109 0.508 . S
C713 C271 0.443 . S
C737 C29 0.587 . S
C745 C151 0.394 . S
C777 C211 0.421 . S
C769 C69 0.373 . S
C809 C241 0.422 . S
C801 C88 0.366 . S
C833 C8 0.396 . S
C841 C121 0.427 . S
C873 C260 1.072 1_554 S
C865 C17 1.081 . S
C897 C57 1.048 . S
C905 C140 1.070 . S
C929 C97 1.036 . S
C937 C200 1.049 . S
C969 C380 1.759 . S
C961 C42 1.718 . S
C1001 C440 1.761 1_556 S
C993 C82 1.732 . S
C1025 C2 1.756 1_655 S
C1033 C320 1.764 . S
