# Generated by pormake.
# Topology eea, (3,6)-cn, num edge types: 1
# Building blocks:
#     Node 0, Type 0, BuildingBlock: QEWDON_clean_linker_0, # of connection points: 3
#     Node 1, Type 0, BuildingBlock: QEWDON_clean_linker_0, # of connection points: 3
#     Node 2, Type 0, BuildingBlock: QEWDON_clean_linker_0, # of connection points: 3
#     Node 3, Type 0, BuildingBlock: QEWDON_clean_linker_0, # of connection points: 3
#     Node 4, Type 0, BuildingBlock: QEWDON_clean_linker_0, # of connection points: 3
#     Node 5, Type 0, BuildingBlock: QEWDON_clean_linker_0, # of connection points: 3
#     Node 6, Type 0, BuildingBlock: QEWDON_clean_linker_0, # of connection points: 3
#     Node 7, Type 0, BuildingBlock: QEWDON_clean_linker_0, # of connection points: 3
#     Node 8, Type 0, BuildingBlock: QEWDON_clean_linker_0, # of connection points: 3
#     Node 9, Type 0, BuildingBlock: QEWDON_clean_linker_0, # of connection points: 3
#     Node 10, Type 0, BuildingBlock: QEWDON_clean_linker_0, # of connection points: 3
#     Node 11, Type 0, BuildingBlock: QEWDON_clean_linker_0, # of connection points: 3
#     Node 12, Type 0, BuildingBlock: QEWDON_clean_linker_0, # of connection points: 3
#     Node 13, Type 0, BuildingBlock: QEWDON_clean_linker_0, # of connection points: 3
#     Node 14, Type 0, BuildingBlock: QEWDON_clean_linker_0, # of connection points: 3
#     Node 15, Type 0, BuildingBlock: QEWDON_clean_linker_0, # of connection points: 3
#     Node 16, Type 0, BuildingBlock: QEWDON_clean_linker_0, # of connection points: 3
#     Node 17, Type 0, BuildingBlock: QEWDON_clean_linker_0, # of connection points: 3
#     Node 18, Type 1, BuildingBlock: KUMBOL_clean_sbu_0, # of connection points: 6
#     Node 19, Type 1, BuildingBlock: KUMBOL_clean_sbu_0, # of connection points: 6
#     Node 20, Type 1, BuildingBlock: KUMBOL_clean_sbu_0, # of connection points: 6
#     Node 21, Type 1, BuildingBlock: KUMBOL_clean_sbu_0, # of connection points: 6
#     Node 22, Type 1, BuildingBlock: KUMBOL_clean_sbu_0, # of connection points: 6
#     Node 23, Type 1, BuildingBlock: KUMBOL_clean_sbu_0, # of connection points: 6
#     Node 24, Type 1, BuildingBlock: KUMBOL_clean_sbu_0, # of connection points: 6
#     Node 25, Type 1, BuildingBlock: KUMBOL_clean_sbu_0, # of connection points: 6
#     Node 26, Type 1, BuildingBlock: KUMBOL_clean_sbu_0, # of connection points: 6
#     Edge 27, Type (0, 1), BuildingBlock: CIFDUS_clean_linker_0, # of connection points: 2
#     Edge 28, Type (0, 1), BuildingBlock: CIFDUS_clean_linker_0, # of connection points: 2
#     Edge 29, Type (0, 1), BuildingBlock: CIFDUS_clean_linker_0, # of connection points: 2
#     Edge 30, Type (0, 1), BuildingBlock: CIFDUS_clean_linker_0, # of connection points: 2
#     Edge 31, Type (0, 1), BuildingBlock: CIFDUS_clean_linker_0, # of connection points: 2
#     Edge 32, Type (0, 1), BuildingBlock: CIFDUS_clean_linker_0, # of connection points: 2
#     Edge 33, Type (0, 1), BuildingBlock: CIFDUS_clean_linker_0, # of connection points: 2
#     Edge 34, Type (0, 1), BuildingBlock: CIFDUS_clean_linker_0, # of connection points: 2
#     Edge 35, Type (0, 1), BuildingBlock: CIFDUS_clean_linker_0, # of connection points: 2
#     Edge 36, Type (0, 1), BuildingBlock: CIFDUS_clean_linker_0, # of connection points: 2
#     Edge 37, Type (0, 1), BuildingBlock: CIFDUS_clean_linker_0, # of connection points: 2
#     Edge 38, Type (0, 1), BuildingBlock: CIFDUS_clean_linker_0, # of connection points: 2
#     Edge 39, Type (0, 1), BuildingBlock: CIFDUS_clean_linker_0, # of connection points: 2
#     Edge 40, Type (0, 1), BuildingBlock: CIFDUS_clean_linker_0, # of connection points: 2
#     Edge 41, Type (0, 1), BuildingBlock: CIFDUS_clean_linker_0, # of connection points: 2
#     Edge 42, Type (0, 1), BuildingBlock: CIFDUS_clean_linker_0, # of connection points: 2
#     Edge 43, Type (0, 1), BuildingBlock: CIFDUS_clean_linker_0, # of connection points: 2
#     Edge 44, Type (0, 1), BuildingBlock: CIFDUS_clean_linker_0, # of connection points: 2
#     Edge 45, Type (0, 1), BuildingBlock: CIFDUS_clean_linker_0, # of connection points: 2
#     Edge 46, Type (0, 1), BuildingBlock: CIFDUS_clean_linker_0, # of connection points: 2
#     Edge 47, Type (0, 1), BuildingBlock: CIFDUS_clean_linker_0, # of connection points: 2
#     Edge 48, Type (0, 1), BuildingBlock: CIFDUS_clean_linker_0, # of connection points: 2
#     Edge 49, Type (0, 1), BuildingBlock: CIFDUS_clean_linker_0, # of connection points: 2
#     Edge 50, Type (0, 1), BuildingBlock: CIFDUS_clean_linker_0, # of connection points: 2
#     Edge 51, Type (0, 1), BuildingBlock: CIFDUS_clean_linker_0, # of connection points: 2
#     Edge 52, Type (0, 1), BuildingBlock: CIFDUS_clean_linker_0, # of connection points: 2
#     Edge 53, Type (0, 1), BuildingBlock: CIFDUS_clean_linker_0, # of connection points: 2
#     Edge 54, Type (0, 1), BuildingBlock: CIFDUS_clean_linker_0, # of connection points: 2
#     Edge 55, Type (0, 1), BuildingBlock: CIFDUS_clean_linker_0, # of connection points: 2
#     Edge 56, Type (0, 1), BuildingBlock: CIFDUS_clean_linker_0, # of connection points: 2
#     Edge 57, Type (0, 1), BuildingBlock: CIFDUS_clean_linker_0, # of connection points: 2
#     Edge 58, Type (0, 1), BuildingBlock: CIFDUS_clean_linker_0, # of connection points: 2
#     Edge 59, Type (0, 1), BuildingBlock: CIFDUS_clean_linker_0, # of connection points: 2
#     Edge 60, Type (0, 1), BuildingBlock: CIFDUS_clean_linker_0, # of connection points: 2
#     Edge 61, Type (0, 1), BuildingBlock: CIFDUS_clean_linker_0, # of connection points: 2
#     Edge 62, Type (0, 1), BuildingBlock: CIFDUS_clean_linker_0, # of connection points: 2
#     Edge 63, Type (0, 1), BuildingBlock: CIFDUS_clean_linker_0, # of connection points: 2
#     Edge 64, Type (0, 1), BuildingBlock: CIFDUS_clean_linker_0, # of connection points: 2
#     Edge 65, Type (0, 1), BuildingBlock: CIFDUS_clean_linker_0, # of connection points: 2
#     Edge 66, Type (0, 1), BuildingBlock: CIFDUS_clean_linker_0, # of connection points: 2
#     Edge 67, Type (0, 1), BuildingBlock: CIFDUS_clean_linker_0, # of connection points: 2
#     Edge 68, Type (0, 1), BuildingBlock: CIFDUS_clean_linker_0, # of connection points: 2
#     Edge 69, Type (0, 1), BuildingBlock: CIFDUS_clean_linker_0, # of connection points: 2
#     Edge 70, Type (0, 1), BuildingBlock: CIFDUS_clean_linker_0, # of connection points: 2
#     Edge 71, Type (0, 1), BuildingBlock: CIFDUS_clean_linker_0, # of connection points: 2
#     Edge 72, Type (0, 1), BuildingBlock: CIFDUS_clean_linker_0, # of connection points: 2
#     Edge 73, Type (0, 1), BuildingBlock: CIFDUS_clean_linker_0, # of connection points: 2
#     Edge 74, Type (0, 1), BuildingBlock: CIFDUS_clean_linker_0, # of connection points: 2
#     Edge 75, Type (0, 1), BuildingBlock: CIFDUS_clean_linker_0, # of connection points: 2
#     Edge 76, Type (0, 1), BuildingBlock: CIFDUS_clean_linker_0, # of connection points: 2
#     Edge 77, Type (0, 1), BuildingBlock: CIFDUS_clean_linker_0, # of connection points: 2
#     Edge 78, Type (0, 1), BuildingBlock: CIFDUS_clean_linker_0, # of connection points: 2
#     Edge 79, Type (0, 1), BuildingBlock: CIFDUS_clean_linker_0, # of connection points: 2
#     Edge 80, Type (0, 1), BuildingBlock: CIFDUS_clean_linker_0, # of connection points: 2
# Relax obj value: 0.045
# Max RMSD: 0.215
# Mean RMSD: 0.153
data_MOF--net-eea--node1-KUMBOL_clean_sbu_0--node2-QEWDON_clean_linker_0--edge1-CIFDUS_clean_linker_0
_symmetry_space_group_name_H-M    P1
_symmetry_Int_Tables_number       1
_symmetry_cell_setting            triclinic
loop_
_symmetry_equiv_pos_as_xyz
'x, y, z'
_cell_length_a     50.249309
_cell_length_b     51.992891
_cell_length_c     57.333407
_cell_angle_alpha  89.948808
_cell_angle_beta   89.564867
_cell_angle_gamma 120.07816
loop_
_atom_site_label
_atom_site_type_symbol
_atom_site_fract_x
_atom_site_fract_y
_atom_site_fract_z
_atom_type_partial_charge
H0 H 0.2305 0.13161 0.4347 0.0
C1 C 0.22816 0.11188 0.42638 0.0
C2 C 0.24157 0.09665 0.43673 0.0
C3 C 0.21078 0.10101 0.40596 0.0
H4 H 0.24677 0.05807 0.43524 0.0
C5 C 0.23717 0.07016 0.42671 0.0
C6 C 0.22067 0.05939 0.40589 0.0
C7 C 0.20825 0.07547 0.39545 0.0
C8 C 0.19401 0.11521 0.39591 0.0
H9 H 0.19652 0.06813 0.37894 0.0
C10 C 0.20699 0.14636 0.39547 0.0
C11 C 0.19102 0.1591 0.3851 0.0
C12 C 0.1645 0.09723 0.3865 0.0
H13 H 0.15339 0.07322 0.38718 0.0
C14 C 0.14873 0.10994 0.37627 0.0
H15 H 0.22966 0.1607 0.40254 0.0
C16 C 0.16196 0.1407 0.37541 0.0
H17 H 0.14931 0.15019 0.36744 0.0
H18 H 0.12613 0.09587 0.36903 0.0
H19 H 0.90805 0.11304 0.42642 0.0
C20 C 0.9283 0.13231 0.41939 0.0
C21 C 0.93829 0.16013 0.4298 0.0
C22 C 0.94479 0.12888 0.4009 0.0
H23 H 0.97401 0.20637 0.4301 0.0
C24 C 0.96577 0.18495 0.42189 0.0
C25 C 0.98305 0.18206 0.40377 0.0
C26 C 0.97221 0.15418 0.39317 0.0
C27 C 0.93407 0.09876 0.39049 0.0
H28 H 0.98539 0.15248 0.37885 0.0
C29 C 0.90243 0.07671 0.38995 0.0
C30 C 0.89293 0.04843 0.3805 0.0
C31 C 0.95565 0.0915 0.38147 0.0
H32 H 0.9801 0.10705 0.38224 0.0
C33 C 0.94611 0.06366 0.37174 0.0
H34 H 0.88505 0.0814 0.39651 0.0
C35 C 0.91499 0.04229 0.37118 0.0
H36 H 0.90813 0.02067 0.36381 0.0
H37 H 0.96301 0.0585 0.36486 0.0
H38 H 0.92863 0.79951 0.42355 0.0
C39 C 0.90809 0.79815 0.41639 0.0
C40 C 0.88144 0.78649 0.43042 0.0
C41 C 0.90851 0.80921 0.39378 0.0
H42 H 0.83465 0.77698 0.43292 0.0
C43 C 0.85499 0.78567 0.42187 0.0
C44 C 0.85444 0.79594 0.39938 0.0
C45 C 0.88111 0.80742 0.38539 0.0
C46 C 0.93759 0.82401 0.37933 0.0
H47 H 0.88018 0.81458 0.36784 0.0
C48 C 0.96085 0.81615 0.38112 0.0
C49 C 0.98839 0.83133 0.36782 0.0
C50 C 0.94268 0.84721 0.36391 0.0
H51 H 0.92642 0.85501 0.36256 0.0
C52 C 0.96919 0.86136 0.35018 0.0
H53 H 0.95785 0.79866 0.39296 0.0
C54 C 0.99174 0.85346 0.35199 0.0
H55 H 1.01204 0.86494 0.34099 0.0
H56 H 0.97245 0.87887 0.33824 0.0
H57 H 0.12857 0.21109 0.60065 0.0
C58 C 0.11088 0.2112 0.61152 0.0
C59 C 0.09427 0.22444 0.60315 0.0
C60 C 0.10244 0.19525 0.63272 0.0
H61 H 0.0573 0.23303 0.61047 0.0
C62 C 0.07029 0.22308 0.61698 0.0
C63 C 0.06144 0.20735 0.63824 0.0
C64 C 0.07766 0.1934 0.64592 0.0
C65 C 0.11504 0.17559 0.63865 0.0
H66 H 0.07048 0.18031 0.66185 0.0
C67 C 0.14677 0.18654 0.64242 0.0
C68 C 0.15772 0.16665 0.64719 0.0
C69 C 0.09454 0.14484 0.6395 0.0
H70 H 0.07021 0.13592 0.63646 0.0
C71 C 0.10519 0.1252 0.64347 0.0
H72 H 0.16251 0.2103 0.64208 0.0
C73 C 0.13636 0.13586 0.64704 0.0
H74 H 0.14364 0.11966 0.64938 0.0
H75 H 0.0892 0.10149 0.64356 0.0
H76 H 0.81659 0.92914 0.60649 0.0
C77 C 0.81555 0.90897 0.61272 0.0
C78 C 0.79391 0.88139 0.60334 0.0
C79 C 0.83738 0.91093 0.62883 0.0
H80 H 0.77596 0.83419 0.60442 0.0
C81 C 0.79345 0.85547 0.61105 0.0
C82 C 0.81533 0.85683 0.62697 0.0
C83 C 0.83721 0.88484 0.63572 0.0
C84 C 0.86211 0.94046 0.63689 0.0
H85 H 0.85477 0.88662 0.64752 0.0
C86 C 0.85551 0.96238 0.64489 0.0
C87 C 0.87934 0.9901 0.65276 0.0
C88 C 0.89282 0.94688 0.63635 0.0
H89 H 0.89864 0.93072 0.6299 0.0
C90 C 0.91644 0.97438 0.64369 0.0
H91 H 0.83188 0.95755 0.64564 0.0
C92 C 0.90983 0.99582 0.65184 0.0
H93 H 0.92874 0.01708 0.65727 0.0
H94 H 0.94001 0.97914 0.64303 0.0
H95 H 0.10467 0.88576 0.60912 0.0
C96 C 0.12525 0.9035 0.6169 0.0
C97 C 0.15364 0.9158 0.60466 0.0
C98 C 0.12356 0.91441 0.63912 0.0
H99 H 0.20061 0.95178 0.60402 0.0
C100 C 0.17968 0.94039 0.61432 0.0
C101 C 0.17897 0.95078 0.63678 0.0
C102 C 0.15114 0.93648 0.64933 0.0
C103 C 0.09355 0.90507 0.6516 0.0
H104 H 0.1508 0.94304 0.66718 0.0
C105 C 0.06735 0.87609 0.65014 0.0
C106 C 0.04011 0.86867 0.66306 0.0
C107 C 0.09126 0.92636 0.66541 0.0
H108 H 0.10972 0.94924 0.66604 0.0
C109 C 0.06527 0.91876 0.67884 0.0
H110 H 0.06805 0.85961 0.63906 0.0
C111 C 0.04025 0.89018 0.67807 0.0
H112 H 0.02071 0.8851 0.68922 0.0
H113 H 0.06446 0.93524 0.68989 0.0
H114 H 0.90588 0.4658 0.76117 0.0
C115 C 0.9073 0.44747 0.75354 0.0
C116 C 0.92331 0.43585 0.7654 0.0
C117 C 0.89206 0.43463 0.73258 0.0
H118 H 0.935 0.40143 0.76627 0.0
C119 C 0.92357 0.41086 0.75648 0.0
C120 C 0.90912 0.39795 0.73536 0.0
C121 C 0.8942 0.41064 0.72325 0.0
C122 C 0.8726 0.44502 0.72097 0.0
H123 H 0.88409 0.40176 0.70646 0.0
C124 C 0.8805 0.4752 0.72133 0.0
C125 C 0.8618 0.48439 0.71019 0.0
C126 C 0.84533 0.42435 0.70969 0.0
H127 H 0.83782 0.40086 0.70971 0.0
C128 C 0.82697 0.43357 0.69853 0.0
H129 H 0.90135 0.49167 0.72974 0.0
C130 C 0.8352 0.46343 0.69865 0.0
H131 H 0.82054 0.47015 0.68999 0.0
H132 H 0.80615 0.41746 0.68989 0.0
H133 H 0.5758 0.43559 0.76173 0.0
C134 C 0.59373 0.45621 0.75422 0.0
C135 C 0.60418 0.48264 0.76688 0.0
C136 C 0.60616 0.45627 0.7321 0.0
H137 H 0.63678 0.52951 0.76775 0.0
C138 C 0.62801 0.50937 0.75756 0.0
C139 C 0.64126 0.5102 0.73568 0.0
C140 C 0.6299 0.48361 0.72297 0.0
C141 C 0.5948 0.42785 0.71877 0.0
H142 H 0.63928 0.48448 0.70574 0.0
C143 C 0.56391 0.40419 0.7207 0.0
C144 C 0.55377 0.37779 0.70788 0.0
C145 C 0.61515 0.42402 0.70407 0.0
H146 H 0.63917 0.4409 0.70265 0.0
C147 C 0.60501 0.39804 0.69122 0.0
H148 H 0.54751 0.40635 0.73166 0.0
C149 C 0.57456 0.37516 0.69299 0.0
H150 H 0.56735 0.35506 0.68303 0.0
H151 H 0.62095 0.39553 0.67998 0.0
H152 H 0.58474 0.11385 0.77117 0.0
C153 C 0.56508 0.11402 0.7637 0.0
C154 C 0.53597 0.09754 0.77441 0.0
C155 C 0.56936 0.13188 0.74403 0.0
H156 H 0.48877 0.08706 0.77349 0.0
C157 C 0.5109 0.09858 0.76469 0.0
C158 C 0.51425 0.11541 0.74446 0.0
C159 C 0.54376 0.13222 0.73437 0.0
C160 C 0.60111 0.15307 0.7356 0.0
H161 H 0.54698 0.14572 0.71905 0.0
C162 C 0.62326 0.14422 0.73178 0.0
C163 C 0.65418 0.16547 0.72604 0.0
C164 C 0.60997 0.18318 0.73326 0.0
H165 H 0.59364 0.19066 0.73639 0.0
C166 C 0.6403 0.20425 0.72804 0.0
H167 H 0.61618 0.12089 0.73312 0.0
C168 C 0.66225 0.19567 0.72484 0.0
H169 H 0.68574 0.21311 0.72184 0.0
H170 H 0.64702 0.22752 0.72693 0.0
H171 H 0.80349 0.55191 0.93291 0.0
C172 C 0.78523 0.55377 0.9415 0.0
C173 C 0.77362 0.57056 0.93098 0.0
C174 C 0.77175 0.53727 0.96198 0.0
H175 H 0.7399 0.5844 0.93376 0.0
C176 C 0.74891 0.57154 0.94184 0.0
C177 C 0.73522 0.55566 0.96261 0.0
C178 C 0.74672 0.5383 0.97241 0.0
C179 C 0.78077 0.51551 0.9702 0.0
H180 H 0.73615 0.52542 0.98809 0.0
C181 C 0.81184 0.52369 0.97429 0.0
C182 C 0.82012 0.50185 0.97955 0.0
C183 C 0.75794 0.48552 0.97192 0.0
H184 H 0.73407 0.47861 0.96866 0.0
C185 C 0.76573 0.46389 0.97657 0.0
H186 H 0.82912 0.54699 0.97346 0.0
C187 C 0.79633 0.47177 0.97988 0.0
H188 H 0.80095 0.45378 0.98223 0.0
H189 H 0.74796 0.4407 0.97708 0.0
H190 H 0.48617 0.25775 0.93938 0.0
C191 C 0.48604 0.23888 0.94758 0.0
C192 C 0.46377 0.20984 0.94132 0.0
C193 C 0.50923 0.24384 0.96336 0.0
H194 H 0.44653 0.1632 0.94742 0.0
C195 C 0.4643 0.18555 0.95175 0.0
C196 C 0.48718 0.19011 0.96804 0.0
C197 C 0.50983 0.21948 0.97331 0.0
C198 C 0.53365 0.27452 0.96886 0.0
H199 H 0.52827 0.22362 0.98512 0.0
C200 C 0.52618 0.29597 0.97632 0.0
C201 C 0.54956 0.32466 0.98254 0.0
C202 C 0.56468 0.28225 0.96707 0.0
H203 H 0.57096 0.26619 0.96118 0.0
C204 C 0.58791 0.31084 0.97268 0.0
H205 H 0.50227 0.28998 0.97814 0.0
C206 C 0.58047 0.33189 0.98043 0.0
H207 H 0.59895 0.35392 0.98476 0.0
H208 H 0.61177 0.31666 0.97113 0.0
H209 H 0.757 0.21112 0.94128 0.0
C210 C 0.7762 0.22984 0.94956 0.0
C211 C 0.80534 0.24491 0.9382 0.0
C212 C 0.77176 0.23946 0.97152 0.0
H213 H 0.85052 0.28424 0.93921 0.0
C214 C 0.82923 0.27074 0.9487 0.0
C215 C 0.82555 0.28001 0.9709 0.0
C216 C 0.79739 0.2629 0.98258 0.0
C217 C 0.74051 0.22847 0.98235 0.0
H218 H 0.79484 0.26883 1.00022 0.0
C219 C 0.7163 0.19836 0.98185 0.0
C220 C 0.68778 0.18987 0.9932 0.0
C221 C 0.73503 0.24953 0.99362 0.0
H222 H 0.75207 0.27298 0.99344 0.0
C223 C 0.70769 0.24103 1.00547 0.0
H224 H 0.71951 0.18187 0.97272 0.0
C225 C 0.68453 0.21153 1.00561 0.0
H226 H 0.66367 0.20573 0.01531 0.0
H227 H 0.70437 0.25748 0.01452 0.0
H228 H 0.5736 0.79642 0.08977 0.0
C229 C 0.57475 0.77795 0.08212 0.0
C230 C 0.59125 0.76663 0.09363 0.0
C231 C 0.55846 0.76447 0.06167 0.0
H232 H 0.60272 0.73211 0.09464 0.0
C233 C 0.59106 0.74135 0.08491 0.0
C234 C 0.57583 0.72798 0.06408 0.0
C235 C 0.56041 0.74042 0.05227 0.0
C236 C 0.53727 0.77357 0.05125 0.0
H237 H 0.54948 0.73118 0.03578 0.0
C238 C 0.54402 0.80342 0.0516 0.0
C239 C 0.52244 0.81102 0.04352 0.0
C240 C 0.50888 0.75173 0.04212 0.0
H241 H 0.5024 0.72849 0.0421 0.0
C242 C 0.48788 0.75938 0.03355 0.0
H243 H 0.56567 0.82064 0.05852 0.0
C244 C 0.49449 0.78875 0.03433 0.0
H245 H 0.47769 0.79411 0.02772 0.0
H246 H 0.46616 0.74236 0.02661 0.0
H247 H 0.22407 0.76635 0.09439 0.0
C248 C 0.24443 0.78473 0.08653 0.0
C249 C 0.25588 0.81362 0.09528 0.0
C250 C 0.26021 0.77903 0.06881 0.0
H251 H 0.29239 0.85926 0.09271 0.0
C252 C 0.28323 0.83707 0.08574 0.0
C253 C 0.29918 0.83193 0.0677 0.0
C254 C 0.28731 0.80282 0.05932 0.0
C255 C 0.25001 0.74796 0.06172 0.0
H256 H 0.29927 0.79854 0.0454 0.0
C257 C 0.21877 0.72735 0.05737 0.0
C258 C 0.20961 0.69773 0.0517 0.0
C259 C 0.27172 0.73847 0.06014 0.0
H260 H 0.29578 0.75365 0.0637 0.0
C261 C 0.26256 0.7091 0.05455 0.0
H262 H 0.20172 0.73427 0.05832 0.0
C263 C 0.23168 0.68879 0.05043 0.0
H264 H 0.22499 0.66608 0.04603 0.0
H265 H 0.27945 0.70203 0.05352 0.0
H266 H 0.243 0.43491 0.09677 0.0
C267 C 0.22402 0.43633 0.08934 0.0
C268 C 0.19405 0.41818 0.09825 0.0
C269 C 0.22985 0.45718 0.07148 0.0
H270 H 0.14698 0.40793 0.09621 0.0
C271 C 0.16983 0.42084 0.08871 0.0
C272 C 0.17465 0.44066 0.0703 0.0
C273 C 0.20492 0.45905 0.06195 0.0
C274 C 0.26227 0.47921 0.06473 0.0
H275 H 0.20914 0.4748 0.04804 0.0
C276 C 0.28481 0.47088 0.0605 0.0
C277 C 0.31599 0.49271 0.05593 0.0
C278 C 0.27117 0.50946 0.06412 0.0
H279 H 0.25465 0.5166 0.06762 0.0
C280 C 0.30169 0.53101 0.06008 0.0
H281 H 0.27787 0.44753 0.06052 0.0
C282 C 0.32389 0.52287 0.05635 0.0
H283 H 0.34745 0.54058 0.05424 0.0
H284 H 0.30832 0.55429 0.06025 0.0
H285 H 0.4739 0.87752 0.28335 0.0
C286 C 0.45423 0.87795 0.2907 0.0
C287 C 0.44251 0.89412 0.27898 0.0
C288 C 0.44002 0.86162 0.31123 0.0
H289 H 0.40586 0.90459 0.27859 0.0
C290 C 0.41554 0.89293 0.28767 0.0
C291 C 0.40086 0.87668 0.308 0.0
C292 C 0.41408 0.86243 0.32003 0.0
C293 C 0.45064 0.84252 0.32329 0.0
H294 H 0.40364 0.8518 0.33647 0.0
C295 C 0.48149 0.84822 0.32215 0.0
C296 C 0.49022 0.82991 0.3345 0.0
C297 C 0.42898 0.81756 0.33629 0.0
H298 H 0.40478 0.81059 0.33647 0.0
C299 C 0.43786 0.80082 0.34948 0.0
H300 H 0.49847 0.86646 0.31166 0.0
C301 C 0.46817 0.80726 0.34904 0.0
H302 H 0.47409 0.79388 0.35993 0.0
H303 H 0.42101 0.78246 0.35999 0.0
H304 H 0.14621 0.59264 0.26272 0.0
C305 C 0.14613 0.57415 0.27155 0.0
C306 C 0.1273 0.54506 0.26335 0.0
C307 C 0.16721 0.57966 0.28954 0.0
H308 H 0.11442 0.49905 0.26765 0.0
C309 C 0.12869 0.52149 0.27406 0.0
C310 C 0.14953 0.52662 0.29198 0.0
C311 C 0.16844 0.55569 0.29991 0.0
C312 C 0.19168 0.61045 0.29463 0.0
H313 H 0.18555 0.55994 0.31305 0.0
C314 C 0.1849 0.63227 0.30243 0.0
C315 C 0.20899 0.66096 0.30799 0.0
C316 C 0.22252 0.61791 0.2916 0.0
H317 H 0.22822 0.60159 0.28532 0.0
C318 C 0.24628 0.64648 0.29642 0.0
H319 H 0.16119 0.62662 0.30506 0.0
C320 C 0.23964 0.66783 0.30466 0.0
H321 H 0.25854 0.68982 0.30858 0.0
H322 H 0.26996 0.65203 0.29395 0.0
H323 H 0.43913 0.55546 0.27218 0.0
C324 C 0.45825 0.57559 0.2791 0.0
C325 C 0.48846 0.58448 0.27175 0.0
C326 C 0.45256 0.59343 0.29448 0.0
H327 H 0.53615 0.61791 0.27468 0.0
C328 C 0.51293 0.61111 0.28037 0.0
C329 C 0.50787 0.6298 0.29517 0.0
C330 C 0.47751 0.6205 0.30238 0.0
C331 C 0.42047 0.58644 0.29936 0.0
H332 H 0.47298 0.6349 0.31331 0.0
C333 C 0.39779 0.55889 0.30903 0.0
C334 C 0.36744 0.55325 0.3132 0.0
C335 C 0.41243 0.60791 0.29363 0.0
H336 H 0.42923 0.629 0.28596 0.0
C337 C 0.38256 0.60222 0.29711 0.0
H338 H 0.404 0.54241 0.31371 0.0
C339 C 0.36027 0.57522 0.30663 0.0
H340 H 0.33714 0.57149 0.3085 0.0
H341 H 0.37655 0.61878 0.29223 0.0
Gd342 Gd 0.51232 0.01799 0.05263 0.0
Gd343 Gd 0.49252 0.98292 0.99398 0.0
C344 C 0.4006 0.8988 0.98154 0.0
C345 C 0.41582 0.86136 0.97768 0.0
C346 C 0.45439 0.91313 0.98375 0.0
C347 C 0.43166 0.9207 0.98463 0.0
C348 C 0.44684 0.88349 0.97984 0.0
C349 C 0.39274 0.869 0.97854 0.0
C350 C 0.37846 0.90761 0.9811 0.0
C351 C 0.38768 0.93771 0.983 0.0
N352 N 0.44005 0.94967 0.98765 0.0
C353 C 0.41881 0.95862 0.98601 0.0
H354 H 0.42564 0.98179 0.98769 0.0
C355 C 0.50761 0.92932 0.98256 0.0
N356 N 0.48411 0.93507 0.98589 0.0
C357 C 0.50126 0.9002 0.97887 0.0
C358 C 0.47073 0.87712 0.97776 0.0
H359 H 0.53121 0.9471 0.98364 0.0
H360 H 0.36896 0.8518 0.9764 0.0
H361 H 0.57862 0.01687 0.05636 0.0
H362 H 0.35433 0.89146 0.97885 0.0
H363 H 0.37081 0.94482 0.98231 0.0
H364 H 0.4095 0.83838 0.97489 0.0
H365 H 0.47672 0.05393 0.07087 0.0
H366 H 0.6523 0.10593 0.06545 0.0
H367 H 0.63384 0.05229 0.06086 0.0
H368 H 0.60013 0.16103 0.0765 0.0
H369 H 0.51989 0.89557 0.97695 0.0
H370 H 0.46588 0.85459 0.97484 0.0
H371 H 0.63952 0.14664 0.07059 0.0
H372 H 0.48974 0.10498 0.08153 0.0
N373 N 0.56552 0.04996 0.0582 0.0
C374 C 0.62792 0.09043 0.06363 0.0
C375 C 0.61757 0.06016 0.06113 0.0
C376 C 0.60654 0.10013 0.06467 0.0
C377 C 0.57509 0.07899 0.06222 0.0
C378 C 0.58611 0.04009 0.05859 0.0
N379 N 0.52319 0.06551 0.06465 0.0
C380 C 0.55311 0.08705 0.06558 0.0
C381 C 0.50781 0.10027 0.07699 0.0
C382 C 0.53851 0.12308 0.07675 0.0
C383 C 0.50052 0.07138 0.07104 0.0
C384 C 0.56168 0.11652 0.07138 0.0
H385 H 0.54411 0.14545 0.08132 0.0
O386 O 0.48563 0.00707 0.08494 0.0
O387 O 0.47678 0.98334 0.03015 0.0
O388 O 0.47965 0.01894 0.99746 0.0
O389 O 0.50812 0.05013 0.02824 0.0
O390 O 0.46164 1.00336 0.05342 0.0
O391 O 0.52211 0.9968 0.08136 0.0
O392 O 0.51893 0.99195 0.96188 0.0
O393 O 0.52708 0.01873 0.01602 0.0
O394 O 0.5258 0.9823 0.04747 0.0
O395 O 0.4912 0.95026 0.01999 0.0
O396 O 0.54427 1.00098 0.9927 0.0
O397 O 0.47907 0.9977 0.96304 0.0
C398 C 0.45304 0.98325 0.03758 0.0
C399 C 0.59302 0.13815 0.07239 0.0
C400 C 0.61545 0.12996 0.06902 0.0
C401 C 0.50112 0.99636 0.09511 0.0
C402 C 0.51001 0.00507 0.11954 0.0
C403 C 0.53372 0.03374 0.12489 0.0
C404 C 0.49499 0.98426 0.13769 0.0
C405 C 0.5037 0.99195 0.16118 0.0
C406 C 0.54242 0.04157 0.14803 0.0
C407 C 0.52763 0.02093 0.16603 0.0
C408 C 0.49175 0.04457 0.00886 0.0
C409 C 0.5518 0.02125 0.0083 0.0
C410 C 0.50056 0.99786 0.95 0.0
C411 C 0.49099 0.98348 0.92706 0.0
C412 C 0.47759 0.95258 0.92506 0.0
C413 C 0.49558 1.00077 0.90692 0.0
C414 C 0.48682 0.98725 0.88482 0.0
C415 C 0.46898 0.93905 0.90331 0.0
C416 C 0.47358 0.95618 0.88332 0.0
C417 C 0.51019 0.95591 0.03746 0.0
H418 H 0.54551 0.05 0.11117 0.0
H419 H 0.47687 0.96201 0.13345 0.0
H420 H 0.5607 0.06379 0.15207 0.0
H421 H 0.53464 0.02786 0.18382 0.0
H422 H 0.47398 0.9389 0.94024 0.0
H423 H 0.50562 0.02463 0.90853 0.0
H424 H 0.45882 0.9152 0.90191 0.0
H425 H 0.4671 0.94507 0.86663 0.0
Gd426 Gd 0.99354 0.48461 0.05248 0.0
Gd427 Gd 0.02776 0.49782 0.99319 0.0
C428 C 0.12177 0.50634 0.98075 0.0
C429 C 0.1532 0.55839 0.96979 0.0
C430 C 0.09878 0.53751 0.9785 0.0
C431 C 0.0961 0.51028 0.98329 0.0
C432 C 0.12711 0.56164 0.97096 0.0
C433 C 0.15054 0.53077 0.9747 0.0
C434 C 0.11748 0.47775 0.9834 0.0
C435 C 0.08793 0.45383 0.98741 0.0
N436 N 0.06784 0.48709 0.98865 0.0
C437 C 0.06316 0.45886 0.98965 0.0
H438 H 0.0405 0.44018 0.9929 0.0
C439 C 0.07325 0.56437 0.97096 0.0
N440 N 0.073 0.53967 0.97943 0.0
C441 C 0.10083 0.58898 0.96341 0.0
C442 C 0.12801 0.58784 0.96385 0.0
H443 H 0.05231 0.56541 0.97079 0.0
H444 H 0.17061 0.52827 0.97295 0.0
H445 H 0.98684 0.54577 0.04915 0.0
H446 H 0.13661 0.47379 0.98166 0.0
H447 H 0.08422 0.43151 0.98894 0.0
H448 H 0.17528 0.57677 0.96431 0.0
H449 H 0.96211 0.41458 0.07138 0.0
H450 H 0.89366 0.52098 0.06465 0.0
H451 H 0.94674 0.55933 0.05382 0.0
H452 H 0.84662 0.41735 0.08363 0.0
H453 H 0.10113 0.60885 0.95736 0.0
H454 H 0.14932 0.60689 0.95793 0.0
H455 H 0.85638 0.46789 0.07556 0.0
H456 H 0.91132 0.37382 0.08462 0.0
N457 N 0.95686 0.49989 0.05681 0.0
C458 C 0.91123 0.51487 0.0627 0.0
C459 C 0.94117 0.53657 0.0566 0.0
C460 C 0.90446 0.48562 0.06657 0.0
C461 C 0.92813 0.4788 0.06362 0.0
C462 C 0.9639 0.52874 0.054 0.0
N463 N 0.94627 0.44509 0.06587 0.0
C464 C 0.92259 0.45041 0.06807 0.0
C465 C 0.91414 0.39522 0.07993 0.0
C466 C 0.88916 0.39997 0.08131 0.0
C467 C 0.94282 0.41831 0.0725 0.0
C468 C 0.8933 0.42796 0.0757 0.0
H469 H 0.86698 0.3821 0.08717 0.0
O470 O 1.00414 0.47368 0.08652 0.0
O471 O 0.03241 0.48929 0.0306 0.0
O472 O 0.99731 0.44825 1.00103 0.0
O473 O 0.96316 0.44475 0.03037 0.0
O474 O 0.01637 0.45674 0.05601 0.0
O475 O 1.01179 0.51793 0.07957 0.0
O476 O 1.01057 0.50477 0.96063 0.0
O477 O 0.98875 0.49222 0.01517 0.0
O478 O 0.02728 0.5339 0.04598 0.0
O479 O 0.05886 0.53818 0.01421 0.0
O480 O 1.00197 0.52325 0.98914 0.0
O481 O 0.01603 0.46624 0.96492 0.0
C482 C 0.03679 0.46964 0.0398 0.0
C483 C 0.86936 0.43436 0.07797 0.0
C484 C 0.87494 0.46314 0.07342 0.0
C485 C 1.01227 0.49982 0.09508 0.0
C486 C 1.00012 0.50061 0.1183 0.0
C487 C 0.96893 0.49124 0.12174 0.0
C488 C 0.02032 0.5117 0.13719 0.0
C489 C 1.00953 0.51331 0.15959 0.0
C490 C 0.95804 0.49292 0.14383 0.0
C491 C 0.97814 0.50387 0.16267 0.0
C492 C 0.97089 0.43336 0.01268 0.0
C493 C 0.98198 0.51002 1.00557 0.0
C494 C 1.00932 0.48169 0.95068 0.0
C495 C 0.02247 0.48659 0.92709 0.0
C496 C 0.05432 0.50338 0.92324 0.0
C497 C 1.00265 0.47522 0.90805 0.0
C498 C 1.01445 0.48092 0.88515 0.0
C499 C 0.06619 0.50918 0.90053 0.0
C500 C 0.04639 0.49816 0.88153 0.0
C501 C 0.0525 0.54892 0.03298 0.0
H502 H 0.95305 0.48277 0.10743 0.0
H503 H 0.04452 0.51933 0.13434 0.0
H504 H 0.9339 0.48559 0.14639 0.0
H505 H 0.96899 0.50439 0.17972 0.0
H506 H 0.06995 0.51211 0.93769 0.0
H507 H 0.978 0.46235 0.91103 0.0
H508 H 0.09079 0.52224 0.89765 0.0
H509 H 0.05603 0.50269 0.86404 0.0
Gd510 Gd 0.5114 0.51045 0.98502 0.0
Gd511 Gd 0.5312 0.5073 0.04658 0.0
C512 C 0.62167 0.511 0.06315 0.0
C513 C 0.60414 0.46096 0.07751 0.0
C514 C 0.56712 0.47544 0.06571 0.0
C515 C 0.59084 0.50354 0.05988 0.0
C516 C 0.57346 0.4541 0.07522 0.0
C517 C 0.6282 0.48934 0.07144 0.0
C518 C 0.64496 0.54023 0.05862 0.0
C519 C 0.63715 0.56141 0.05191 0.0
N520 N 0.5837 0.52406 0.05223 0.0
C521 C 0.60621 0.55299 0.04908 0.0
H522 H 0.60051 0.56953 0.04373 0.0
C523 C 0.51365 0.4437 0.07183 0.0
N524 N 0.53773 0.46957 0.06334 0.0
C525 C 0.51878 0.42177 0.08129 0.0
C526 C 0.54879 0.42682 0.08271 0.0
H527 H 0.49044 0.43973 0.07063 0.0
H528 H 0.65176 0.49457 0.07383 0.0
H529 H 0.44384 0.44666 0.99152 0.0
H530 H 0.66894 0.54684 0.06082 0.0
H531 H 0.65496 0.58421 0.04878 0.0
H532 H 0.6095 0.44472 0.0845 0.0
H533 H 0.54839 0.57754 0.96004 0.0
H534 H 0.37172 0.46206 0.97008 0.0
H535 H 0.38879 0.42843 0.98579 0.0
H536 H 0.42572 0.56254 0.9419 0.0
H537 H 0.49961 0.40099 0.08747 0.0
H538 H 0.55269 0.40981 0.09008 0.0
H539 H 0.3857 0.51225 0.95388 0.0
H540 H 0.53613 0.61322 0.94132 0.0
N541 N 0.45818 0.49062 0.97972 0.0
C542 C 0.39602 0.47024 0.97254 0.0
C543 C 0.40557 0.45119 0.98138 0.0
C544 C 0.41798 0.49945 0.96652 0.0
C545 C 0.44931 0.50904 0.97023 0.0
C546 C 0.43692 0.46167 0.98459 0.0
N547 N 0.50159 0.54534 0.96677 0.0
C548 C 0.47173 0.53733 0.9636 0.0
C549 C 0.51779 0.59201 0.94762 0.0
C550 C 0.48713 0.58466 0.94523 0.0
C551 C 0.52465 0.57179 0.95816 0.0
C552 C 0.46362 0.55685 0.95295 0.0
H553 H 0.48186 0.60031 0.93697 0.0
O554 O 0.53706 0.51926 0.95242 0.0
O555 O 0.54632 0.51213 0.00944 0.0
O556 O 0.54717 0.55504 0.0351 0.0
O557 O 0.5178 0.55172 1.00253 0.0
O558 O 0.56283 0.54161 0.98204 0.0
O559 O 0.49766 0.47567 0.95918 0.0
O560 O 0.50421 0.50044 0.07812 0.0
O561 O 0.49705 0.50689 0.02214 0.0
O562 O 0.49757 0.46308 0.99606 0.0
O563 O 0.52753 0.46753 0.0283 0.0
O564 O 0.47912 0.47807 0.04974 0.0
O565 O 0.5487 0.5402 0.07436 0.0
C566 C 0.57079 0.53195 0.99984 0.0
C567 C 0.43244 0.54778 0.94988 0.0
C568 C 0.40965 0.51913 0.95668 0.0
C569 C 0.51815 0.49319 0.94387 0.0
C570 C 0.50703 0.49308 0.92012 0.0
C571 C 0.47851 0.4913 0.91672 0.0
C572 C 0.52543 0.4957 0.90062 0.0
C573 C 0.51565 0.49717 0.87795 0.0
C574 C 0.46876 0.49276 0.89431 0.0
C575 C 0.48724 0.49584 0.87502 0.0
C576 C 0.53556 0.56646 0.0203 0.0
C577 C 0.47202 0.48852 0.03193 0.0
C578 C 0.5253 0.52439 0.08823 0.0
C579 C 0.53209 0.52038 0.11255 0.0
C580 C 0.54958 0.50686 0.11719 0.0
C581 C 0.5195 0.52842 0.13132 0.0
C582 C 0.52368 0.52224 0.15466 0.0
C583 C 0.55343 0.50021 0.13999 0.0
C584 C 0.54029 0.5074 0.15854 0.0
C585 C 0.5108 0.45264 0.01018 0.0
H586 H 0.46373 0.48876 0.93133 0.0
H587 H 0.54749 0.49711 0.90311 0.0
H588 H 0.44679 0.49148 0.89188 0.0
H589 H 0.47913 0.49676 0.85776 0.0
H590 H 0.55998 0.50111 0.1032 0.0
H591 H 0.5067 0.53959 0.12761 0.0
H592 H 0.56645 0.48917 0.1433 0.0
H593 H 0.5431 0.50104 0.17592 0.0
Gd594 Gd 0.19649 0.36411 0.38227 0.0
Gd595 Gd 0.17351 0.34002 0.32223 0.0
C596 C 0.0758 0.30981 0.29738 0.0
C597 C 0.04713 0.2592 0.31219 0.0
C598 C 0.10228 0.28913 0.31851 0.0
C599 C 0.10285 0.31278 0.30723 0.0
C600 C 0.07455 0.2617 0.3205 0.0
C601 C 0.04775 0.28326 0.30066 0.0
C602 C 0.07807 0.33301 0.28353 0.0
C603 C 0.10702 0.35742 0.2786 0.0
N604 N 0.1304 0.33777 0.304 0.0
C605 C 0.13314 0.35896 0.28847 0.0
H606 H 0.15558 0.37733 0.284 0.0
C607 C 0.13026 0.26843 0.33495 0.0
N608 N 0.1292 0.29244 0.32636 0.0
C609 C 0.10349 0.24066 0.33696 0.0
C610 C 0.0754 0.23739 0.33008 0.0
H611 H 0.15151 0.27035 0.34059 0.0
H612 H 0.02665 0.2807 0.29353 0.0
H613 H 0.26113 0.36029 0.36789 0.0
H614 H 0.05786 0.33161 0.27563 0.0
H615 H 0.10928 0.37484 0.26699 0.0
H616 H 0.02554 0.23847 0.31391 0.0
H617 H 0.16869 0.40303 0.40915 0.0
H618 H 0.3395 0.44367 0.38361 0.0
H619 H 0.31667 0.39227 0.36916 0.0
H620 H 0.29733 0.50082 0.41495 0.0
H621 H 0.1045 0.22191 0.34411 0.0
H622 H 0.05464 0.21594 0.33187 0.0
H623 H 0.33207 0.48403 0.40019 0.0
H624 H 0.18809 0.45309 0.42561 0.0
N625 N 0.25098 0.39239 0.38231 0.0
C626 C 0.31472 0.42948 0.38349 0.0
C627 C 0.30192 0.40048 0.37537 0.0
C628 C 0.29544 0.43983 0.39141 0.0
C629 C 0.26325 0.42051 0.39081 0.0
C630 C 0.26997 0.38217 0.3749 0.0
N631 N 0.21287 0.41124 0.39836 0.0
C632 C 0.24368 0.43024 0.39885 0.0
C633 C 0.20397 0.44705 0.41802 0.0
C634 C 0.23543 0.46751 0.41739 0.0
C635 C 0.19308 0.4187 0.40876 0.0
C636 C 0.25576 0.45911 0.40807 0.0
H637 H 0.24384 0.48948 0.42461 0.0
O638 O 0.17517 0.32544 0.40544 0.0
O639 O 0.15926 0.33084 0.35959 0.0
O640 O 0.16018 0.37476 0.33014 0.0
O641 O 0.18363 0.39633 0.36574 0.0
O642 O 0.14713 0.35309 0.38369 0.0
O643 O 0.20473 0.36834 0.41979 0.0
O644 O 0.18141 0.3113 0.29914 0.0
O645 O 0.21336 0.36795 0.34569 0.0
O646 O 0.20878 0.32865 0.37528 0.0
O647 O 0.19793 0.31694 0.33589 0.0
O648 O 0.20976 0.38706 0.31462 0.0
O649 O 0.19262 0.35498 0.28741 0.0
C650 C 0.13673 0.33232 0.36824 0.0
C651 C 0.28768 0.47848 0.40817 0.0
C652 C 0.30746 0.46888 0.39984 0.0
C653 C 0.18568 0.34058 0.42444 0.0
C654 C 0.16293 0.33432 0.44329 0.0
C655 C 0.14169 0.34418 0.4411 0.0
C656 C 0.16198 0.31826 0.46348 0.0
C657 C 0.13966 0.31192 0.48113 0.0
C658 C 0.11986 0.33823 0.4585 0.0
C659 C 0.11882 0.32229 0.47834 0.0
C660 C 0.16901 0.39565 0.34633 0.0
C661 C 0.22561 0.39144 0.33322 0.0
C662 C 0.19014 0.32976 0.2816 0.0
C663 C 0.17724 0.31789 0.2583 0.0
C664 C 0.15883 0.28716 0.25475 0.0
C665 C 0.18508 0.33735 0.23902 0.0
C666 C 0.1752 0.32636 0.21629 0.0
C667 C 0.14886 0.27608 0.23243 0.0
C668 C 0.15716 0.29536 0.21334 0.0
C669 C 0.20766 0.31357 0.35639 0.0
H670 H 0.1419 0.35657 0.42598 0.0
H671 H 0.17818 0.3104 0.46525 0.0
H672 H 0.1037 0.34608 0.45661 0.0
H673 H 0.10182 0.31838 0.4917 0.0
H674 H 0.15247 0.2716 0.26914 0.0
H675 H 0.19892 0.36107 0.24184 0.0
H676 H 0.13498 0.25233 0.22983 0.0
H677 H 0.14978 0.28576 0.19622 0.0
Gd678 Gd 0.67695 0.84267 0.38069 0.0
Gd679 Gd 0.70308 0.84365 0.31973 0.0
C680 C 0.77925 0.82047 0.31095 0.0
C681 C 0.82192 0.86708 0.29669 0.0
C682 C 0.77221 0.86272 0.30472 0.0
C683 C 0.76055 0.83359 0.31172 0.0
C684 C 0.80266 0.87943 0.2962 0.0
C685 C 0.81024 0.83764 0.3041 0.0
C686 C 0.76606 0.79029 0.3165 0.0
C687 C 0.73474 0.77377 0.32181 0.0
N688 N 0.73047 0.81763 0.31814 0.0
C689 C 0.71713 0.78775 0.32235 0.0
H690 H 0.69309 0.77452 0.32674 0.0
C691 C 0.76119 0.89967 0.29239 0.0
N692 N 0.75285 0.87374 0.30408 0.0
C693 C 0.79125 0.91729 0.28396 0.0
C694 C 0.81232 0.90742 0.28636 0.0
H695 H 0.74471 0.90707 0.29025 0.0
H696 H 0.82506 0.82807 0.30374 0.0
H697 H 0.67643 0.90681 0.37496 0.0
H698 H 0.77966 0.77942 0.3162 0.0
H699 H 0.72416 0.75027 0.32571 0.0
H700 H 0.84553 0.87972 0.29057 0.0
H701 H 0.64523 0.7784 0.40989 0.0
H702 H 0.58584 0.89017 0.39091 0.0
H703 H 0.63969 0.92484 0.37899 0.0
H704 H 0.53415 0.78965 0.41883 0.0
H705 H 0.79807 0.93835 0.27551 0.0
H706 H 0.83552 0.92095 0.27961 0.0
H707 H 0.5462 0.83922 0.40502 0.0
H708 H 0.59545 0.74327 0.42869 0.0
N709 N 0.64373 0.86217 0.38425 0.0
C710 C 0.60193 0.88213 0.38929 0.0
C711 C 0.63233 0.90179 0.38265 0.0
C712 C 0.593 0.85264 0.39471 0.0
C713 C 0.61486 0.84334 0.3923 0.0
C714 C 0.65312 0.89145 0.38039 0.0
N715 N 0.63049 0.80833 0.39902 0.0
C716 C 0.60804 0.81552 0.40003 0.0
C717 C 0.5986 0.76341 0.42053 0.0
C718 C 0.57451 0.76953 0.42032 0.0
C719 C 0.62674 0.78333 0.40995 0.0
C720 C 0.57923 0.79611 0.41036 0.0
H721 H 0.55274 0.75407 0.42851 0.0
O722 O 0.69402 0.83557 0.4134 0.0
O723 O 0.71146 0.84078 0.3574 0.0
O724 O 0.66338 0.79788 0.32986 0.0
O725 O 0.63945 0.80061 0.36422 0.0
O726 O 0.69517 0.81107 0.3849 0.0
O727 O 0.69648 0.87771 0.40649 0.0
O728 O 0.69213 0.85489 0.28606 0.0
O729 O 0.66961 0.84654 0.34312 0.0
O730 O 0.71346 0.88999 0.36985 0.0
O731 O 0.73768 0.88716 0.33554 0.0
O732 O 0.68356 0.87441 0.3147 0.0
O733 O 0.68153 0.80978 0.29312 0.0
C734 C 0.71443 0.82092 0.36769 0.0
C735 C 0.55661 0.80443 0.41129 0.0
C736 C 0.56347 0.83266 0.40343 0.0
C737 C 0.70028 0.86125 0.42179 0.0
C738 C 0.68919 0.86099 0.44567 0.0
C739 C 0.66115 0.86006 0.44975 0.0
C740 C 0.70684 0.86139 0.46468 0.0
C741 C 0.6967 0.86089 0.48776 0.0
C742 C 0.65093 0.85955 0.47255 0.0
C743 C 0.66853 0.85997 0.49145 0.0
C744 C 0.64042 0.7864 0.34532 0.0
C745 C 0.66542 0.86553 0.33264 0.0
C746 C 0.68203 0.82837 0.27761 0.0
C747 C 0.69326 0.8269 0.25419 0.0
C748 C 0.72462 0.83765 0.24987 0.0
C749 C 0.67238 0.81522 0.23575 0.0
C750 C 0.68287 0.81504 0.21299 0.0
C751 C 0.73514 0.83755 0.2273 0.0
C752 C 0.71443 0.82651 0.20887 0.0
C753 C 0.73567 0.90177 0.35375 0.0
H754 H 0.64721 0.85978 0.43538 0.0
H755 H 0.72864 0.86241 0.46144 0.0
H756 H 0.62923 0.85873 0.47557 0.0
H757 H 0.65986 0.85916 0.50895 0.0
H758 H 0.741 0.84621 0.26381 0.0
H759 H 0.64808 0.80672 0.23902 0.0
H760 H 0.75939 0.84603 0.22408 0.0
H761 H 0.72296 0.82645 0.19147 0.0
Gd762 Gd 0.18791 0.8598 0.32204 0.0
Gd763 Gd 0.20633 0.84683 0.38207 0.0
C764 C 0.2935 0.84351 0.39757 0.0
C765 C 0.27299 0.79135 0.40726 0.0
C766 C 0.23848 0.80971 0.39743 0.0
C767 C 0.26332 0.83793 0.39402 0.0
C768 C 0.24294 0.78625 0.4047 0.0
C769 C 0.29823 0.81992 0.40364 0.0
C770 C 0.31791 0.87277 0.39562 0.0
C771 C 0.31176 0.89569 0.39121 0.0
N772 N 0.25787 0.86026 0.3885 0.0
C773 C 0.28138 0.88905 0.38806 0.0
H774 H 0.27695 0.90695 0.38458 0.0
C775 C 0.18444 0.77903 0.40064 0.0
N776 N 0.20977 0.80555 0.39474 0.0
C777 C 0.18769 0.75507 0.40792 0.0
C778 C 0.21706 0.75858 0.40969 0.0
H779 H 0.16171 0.77621 0.39918 0.0
H780 H 0.32126 0.82371 0.4062 0.0
H781 H 0.12211 0.79349 0.32037 0.0
H782 H 0.34144 0.87797 0.39811 0.0
H783 H 0.33041 0.91847 0.39015 0.0
H784 H 0.27692 0.77352 0.41255 0.0
H785 H 0.2221 0.93044 0.30408 0.0
H786 H 0.04736 0.80892 0.30889 0.0
H787 H 0.06681 0.77425 0.31544 0.0
H788 H 0.09728 0.91428 0.29682 0.0
H789 H 0.16757 0.73391 0.4121 0.0
H790 H 0.21951 0.73998 0.41532 0.0
H791 H 0.05889 0.86139 0.30264 0.0
H792 H 0.20773 0.96803 0.29351 0.0
N793 N 0.13446 0.83896 0.31669 0.0
C794 C 0.07182 0.81756 0.31083 0.0
C795 C 0.08272 0.79793 0.31449 0.0
C796 C 0.09271 0.84807 0.30921 0.0
C797 C 0.12431 0.85814 0.31193 0.0
C798 C 0.11427 0.80903 0.31729 0.0
N799 N 0.17593 0.89611 0.31002 0.0
C800 C 0.14577 0.88775 0.30865 0.0
C801 C 0.19006 0.94556 0.29783 0.0
C802 C 0.15908 0.93768 0.29762 0.0
C803 C 0.19811 0.92424 0.3037 0.0
C804 C 0.13645 0.90832 0.30263 0.0
H805 H 0.15288 0.95419 0.29297 0.0
O806 O 0.21438 0.87549 0.28979 0.0
O807 O 0.2227 0.85837 0.34503 0.0
O808 O 0.22452 0.89597 0.3751 0.0
O809 O 0.19462 0.89791 0.34479 0.0
O810 O 0.23878 0.89231 0.32061 0.0
O811 O 0.17735 0.82987 0.29275 0.0
O812 O 0.17864 0.83692 0.41364 0.0
O813 O 0.17325 0.84978 0.35877 0.0
O814 O 0.17506 0.81129 0.32779 0.0
O815 O 0.20344 0.81037 0.35952 0.0
O816 O 0.15387 0.81817 0.38415 0.0
O817 O 0.22319 0.87682 0.41182 0.0
C818 C 0.24685 0.88036 0.33672 0.0
C819 C 0.10494 0.89875 0.30113 0.0
C820 C 0.08309 0.86864 0.30441 0.0
C821 C 0.198 0.85032 0.27909 0.0
C822 C 0.18814 0.85209 0.25534 0.0
C823 C 0.16363 0.85722 0.25169 0.0
C824 C 0.20351 0.84863 0.23607 0.0
C825 C 0.19446 0.85018 0.21312 0.0
C826 C 0.15456 0.85885 0.22905 0.0
C827 C 0.16979 0.85536 0.20988 0.0
C828 C 0.21316 0.90984 0.36281 0.0
C829 C 0.14774 0.83064 0.36724 0.0
C830 C 0.19939 0.85986 0.42498 0.0
C831 C 0.20566 0.85373 0.44888 0.0
C832 C 0.21822 0.83528 0.45219 0.0
C833 C 0.19846 0.86557 0.46854 0.0
C834 C 0.20418 0.85908 0.49129 0.0
C835 C 0.22328 0.8283 0.47455 0.0
C836 C 0.21629 0.84 0.49394 0.0
C837 C 0.1872 0.79841 0.3405 0.0
H838 H 0.15154 0.85991 0.2663 0.0
H839 H 0.22222 0.84434 0.239 0.0
H840 H 0.13568 0.86291 0.22633 0.0
H841 H 0.1625 0.85711 0.19251 0.0
H842 H 0.22399 0.82608 0.43752 0.0
H843 H 0.18907 0.88014 0.46613 0.0
H844 H 0.23276 0.81382 0.47686 0.0
H845 H 0.22047 0.83416 0.51112 0.0
Gd846 Gd 0.86075 0.68956 0.7117 0.0
Gd847 Gd 0.83707 0.66614 0.65044 0.0
C848 C 0.73903 0.58864 0.6412 0.0
C849 C 0.74808 0.55043 0.62513 0.0
C850 C 0.79112 0.5994 0.63389 0.0
C851 C 0.77108 0.60834 0.64187 0.0
C852 C 0.77984 0.57074 0.62456 0.0
C853 C 0.72769 0.55936 0.6335 0.0
C854 C 0.71937 0.59926 0.64755 0.0
C855 C 0.73178 0.62913 0.65342 0.0
N856 N 0.78288 0.6369 0.64888 0.0
C857 C 0.76372 0.64782 0.65374 0.0
H858 H 0.77276 0.67071 0.65855 0.0
C859 C 0.84151 0.61409 0.62106 0.0
N860 N 0.82152 0.61973 0.63324 0.0
C861 C 0.83158 0.58589 0.61174 0.0
C862 C 0.80068 0.56388 0.61393 0.0
H863 H 0.86539 0.63118 0.61929 0.0
H864 H 0.70318 0.54379 0.63316 0.0
H865 H 0.92816 0.69071 0.70687 0.0
H866 H 0.69463 0.58483 0.64735 0.0
H867 H 0.71676 0.63774 0.65789 0.0
H868 H 0.73898 0.52815 0.61836 0.0
H869 H 0.82502 0.71923 0.74075 0.0
H870 H 1.0008 0.77863 0.72183 0.0
H871 H 0.98343 0.72667 0.71067 0.0
H872 H 0.94718 0.82748 0.74897 0.0
H873 H 0.84772 0.58118 0.60283 0.0
H874 H 0.79295 0.54212 0.60653 0.0
H875 H 0.98701 0.81651 0.73538 0.0
H876 H 0.83774 0.76699 0.75933 0.0
N877 N 0.91409 0.72199 0.71542 0.0
C878 C 0.97643 0.7629 0.72027 0.0
C879 C 0.96671 0.73356 0.71406 0.0
C880 C 0.95454 0.77122 0.72539 0.0
C881 C 0.92313 0.74987 0.72305 0.0
C882 C 0.93527 0.7132 0.71193 0.0
N883 N 0.87101 0.73412 0.72979 0.0
C884 C 0.90082 0.75611 0.7306 0.0
C885 C 0.85567 0.7643 0.75116 0.0
C886 C 0.88602 0.78786 0.75075 0.0
C887 C 0.84856 0.7373 0.74071 0.0
C888 C 0.90915 0.78378 0.74076 0.0
H889 H 0.89148 0.80876 0.75883 0.0
O890 O 0.83671 0.67352 0.745 0.0
O891 O 0.82509 0.6567 0.68813 0.0
O892 O 0.82689 0.70243 0.66142 0.0
O893 O 0.85483 0.72577 0.69496 0.0
O894 O 0.80948 0.67066 0.71589 0.0
O895 O 0.87619 0.66887 0.73702 0.0
O896 O 0.86202 0.6813 0.61752 0.0
O897 O 0.87303 0.69809 0.67409 0.0
O898 O 0.87421 0.65548 0.70015 0.0
O899 O 0.84769 0.63263 0.66576 0.0
O900 O 0.88837 0.68475 0.64573 0.0
O901 O 0.82225 0.68603 0.6239 0.0
C902 C 0.80106 0.65259 0.69854 0.0
C903 C 0.94032 0.80589 0.74157 0.0
C904 C 0.963 0.79964 0.73384 0.0
C905 C 0.85604 0.66591 0.75287 0.0
C906 C 0.86803 0.67627 0.77653 0.0
C907 C 0.89333 0.70484 0.77966 0.0
C908 C 0.85453 0.65759 0.79613 0.0
C909 C 0.86659 0.66738 0.81866 0.0
C910 C 0.90503 0.71479 0.80186 0.0
C911 C 0.89185 0.69628 0.82121 0.0
C912 C 0.8385 0.72469 0.67653 0.0
C913 C 0.89699 0.70192 0.66368 0.0
C914 C 0.84291 0.6886 0.60871 0.0
C915 C 0.83199 0.67744 0.58506 0.0
C916 C 0.80707 0.64866 0.58187 0.0
C917 C 0.84722 0.69522 0.56544 0.0
C918 C 0.83796 0.68402 0.54275 0.0
C919 C 0.79786 0.63744 0.55947 0.0
C920 C 0.81325 0.65489 0.54002 0.0
C921 C 0.86482 0.63459 0.68386 0.0
H922 H 0.90421 0.71942 0.76494 0.0
H923 H 0.83516 0.63537 0.79377 0.0
H924 H 0.92449 0.73694 0.80407 0.0
H925 H 0.90133 0.70471 0.83826 0.0
H926 H 0.79473 0.63483 0.59666 0.0
H927 H 0.86646 0.71751 0.56782 0.0
H928 H 0.77866 0.61517 0.55717 0.0
H929 H 0.80543 0.64582 0.52279 0.0
Gd930 Gd 0.34146 0.16663 0.7205 0.0
Gd931 Gd 0.36367 0.16421 0.65922 0.0
C932 C 0.45279 0.16299 0.64567 0.0
C933 C 0.48472 0.21068 0.62654 0.0
C934 C 0.43231 0.19554 0.63837 0.0
C935 C 0.42877 0.16948 0.64757 0.0
C936 C 0.45987 0.21591 0.62689 0.0
C937 C 0.4812 0.18424 0.63595 0.0
C938 C 0.447 0.13476 0.65239 0.0
C939 C 0.41738 0.11337 0.6595 0.0
N940 N 0.40074 0.14919 0.65617 0.0
C941 C 0.39426 0.12085 0.6609 0.0
H942 H 0.37155 0.10414 0.66659 0.0
C943 C 0.40762 0.22131 0.62525 0.0
N944 N 0.40757 0.1994 0.63848 0.0
C945 C 0.4345 0.24229 0.61374 0.0
C946 C 0.46098 0.23997 0.61501 0.0
H947 H 0.38721 0.22325 0.62443 0.0
H948 H 0.50008 0.17986 0.63467 0.0
H949 H 0.3439 0.23125 0.7075 0.0
H950 H 0.46483 0.12888 0.65125 0.0
H951 H 0.41237 0.09116 0.66405 0.0
H952 H 0.50626 0.22628 0.61812 0.0
H953 H 0.30526 0.10239 0.74958 0.0
H954 H 0.25805 0.22329 0.72751 0.0
H955 H 0.3102 0.25269 0.71038 0.0
H956 H 0.20298 0.12653 0.76262 0.0
H957 H 0.43479 0.26024 0.60396 0.0
H958 H 0.4817 0.25611 0.60594 0.0
H959 H 0.2181 0.17607 0.7468 0.0
H960 H 0.25525 0.07088 0.76951 0.0
N961 N 0.31129 0.18966 0.72272 0.0
C962 C 0.27284 0.21372 0.72642 0.0
C963 C 0.30227 0.23039 0.71677 0.0
C964 C 0.263 0.18505 0.73484 0.0
C965 C 0.28307 0.17355 0.73284 0.0
C966 C 0.32141 0.21809 0.71526 0.0
N967 N 0.29448 0.13548 0.73959 0.0
C968 C 0.27436 0.14554 0.74144 0.0
C969 C 0.26023 0.09173 0.76155 0.0
C970 C 0.23854 0.10102 0.7625 0.0
C971 C 0.28846 0.10958 0.75031 0.0
C972 C 0.24563 0.12842 0.75268 0.0
H973 H 0.21671 0.08721 0.77129 0.0
O974 O 0.35712 0.15799 0.75325 0.0
O975 O 0.37572 0.16464 0.69678 0.0
O976 O 0.33196 0.11761 0.67375 0.0
O977 O 0.30547 0.12289 0.70529 0.0
O978 O 0.35982 0.13544 0.72489 0.0
O979 O 0.36246 0.20138 0.74647 0.0
O980 O 0.34175 0.1647 0.62684 0.0
O981 O 0.33 0.16593 0.68324 0.0
O982 O 0.37897 0.21303 0.70871 0.0
O983 O 0.3974 0.21015 0.67161 0.0
O984 O 0.33866 0.18998 0.65309 0.0
O985 O 0.3461 0.12655 0.63569 0.0
C986 C 0.3789 0.14508 0.70755 0.0
C987 C 0.22526 0.13946 0.75422 0.0
C988 C 0.2339 0.16769 0.74527 0.0
C989 C 0.36502 0.18407 0.76171 0.0
C990 C 0.35441 0.18432 0.78569 0.0
C991 C 0.32715 0.18483 0.78991 0.0
C992 C 0.3716 0.18357 0.80463 0.0
C993 C 0.36172 0.18335 0.82777 0.0
C994 C 0.31703 0.1843 0.81272 0.0
C995 C 0.33411 0.18353 0.83154 0.0
C996 C 0.30811 0.10697 0.68833 0.0
C997 C 0.32207 0.18176 0.67185 0.0
C998 C 0.33825 0.13941 0.61983 0.0
C999 C 0.34849 0.13907 0.59581 0.0
C1000 C 0.37953 0.14908 0.59073 0.0
C1001 C 0.3272 0.1298 0.57757 0.0
C1002 C 0.33697 0.13115 0.55432 0.0
C1003 C 0.38935 0.15051 0.56769 0.0
C1004 C 0.36826 0.1418 0.54953 0.0
C1005 C 0.39804 0.22491 0.6906 0.0
H1006 H 0.31373 0.18571 0.77563 0.0
H1007 H 0.39291 0.18365 0.8013 0.0
H1008 H 0.29586 0.1845 0.81584 0.0
H1009 H 0.32556 0.18288 0.84906 0.0
H1010 H 0.39618 0.15587 0.60451 0.0
H1011 H 0.30318 0.12206 0.58143 0.0
H1012 H 0.41337 0.15841 0.5639 0.0
H1013 H 0.37628 0.1429 0.53176 0.0
Gd1014 Gd 0.84807 0.18213 0.65542 0.0
Gd1015 Gd 0.86748 0.17753 0.71704 0.0
C1016 C 0.95873 0.18314 0.73407 0.0
C1017 C 0.94227 0.13255 0.74645 0.0
C1018 C 0.9045 0.14626 0.7351 0.0
C1019 C 0.92777 0.17497 0.73037 0.0
C1020 C 0.9114 0.12497 0.74388 0.0
C1021 C 0.9659 0.16158 0.74149 0.0
C1022 C 0.98143 0.21295 0.73101 0.0
C1023 C 0.97286 0.23392 0.72538 0.0
N1024 N 0.91998 0.19535 0.72362 0.0
C1025 C 0.9418 0.22475 0.72208 0.0
H1026 H 0.93548 0.24112 0.71758 0.0
C1027 C 0.8511 0.11312 0.74018 0.0
N1028 N 0.87492 0.13973 0.73254 0.0
C1029 C 0.85679 0.09123 0.74894 0.0
C1030 C 0.88706 0.09702 0.75049 0.0
H1031 H 0.82769 0.10858 0.73883 0.0
H1032 H 0.98957 0.16735 0.74417 0.0
H1033 H 0.78216 0.11641 0.66157 0.0
H1034 H 1.00549 0.22013 0.7336 0.0
H1035 H 0.99017 0.25713 0.72348 0.0
H1036 H 0.94808 0.11638 0.75286 0.0
H1037 H 0.88201 0.24972 0.63135 0.0
H1038 H 0.70737 0.12752 0.64 0.0
H1039 H 0.72682 0.09576 0.65564 0.0
H1040 H 0.75697 0.22844 0.6129 0.0
H1041 H 0.83786 0.0699 0.75443 0.0
H1042 H 0.8914 0.08003 0.7573 0.0
H1043 H 0.71881 0.17717 0.62424 0.0
H1044 H 0.86739 0.28395 0.61311 0.0
N1045 N 0.79451 0.15995 0.64983 0.0
C1046 C 0.73184 0.13679 0.64252 0.0
C1047 C 0.74274 0.1188 0.65133 0.0
C1048 C 0.7527 0.16639 0.6367 0.0
C1049 C 0.7843 0.1774 0.64049 0.0
C1050 C 0.77431 0.13067 0.65463 0.0
N1051 N 0.83581 0.2157 0.63772 0.0
C1052 C 0.80565 0.20626 0.63436 0.0
C1053 C 0.84977 0.26223 0.61913 0.0
C1054 C 0.81872 0.25337 0.61662 0.0
C1055 C 0.85796 0.24282 0.62943 0.0
C1056 C 0.7962 0.22492 0.62395 0.0
H1057 H 0.81241 0.26839 0.60855 0.0
O1058 O 0.87624 0.19326 0.62396 0.0
O1059 O 0.88355 0.18464 0.67995 0.0
O1060 O 0.88198 0.22539 0.70674 0.0
O1061 O 0.85365 0.2227 0.67357 0.0
O1062 O 0.89859 0.21586 0.65343 0.0
O1063 O 0.83637 0.14942 0.62802 0.0
O1064 O 0.84072 0.16802 0.7491 0.0
O1065 O 0.83339 0.1768 0.6925 0.0
O1066 O 0.83593 0.13499 0.66536 0.0
O1067 O 0.86592 0.1392 0.6975 0.0
O1068 O 0.81538 0.14772 0.71983 0.0
O1069 O 0.88257 0.21029 0.74492 0.0
C1070 C 0.90725 0.20633 0.6709 0.0
C1071 C 0.76472 0.21436 0.6207 0.0
C1072 C 0.743 0.18516 0.6271 0.0
C1073 C 0.85817 0.16797 0.61399 0.0
C1074 C 0.84928 0.16989 0.58989 0.0
C1075 C 0.8224 0.17088 0.5855 0.0
C1076 C 0.8683 0.17167 0.57109 0.0
C1077 C 0.86064 0.17462 0.54798 0.0
C1078 C 0.81488 0.17424 0.56279 0.0
C1079 C 0.83386 0.17625 0.54417 0.0
C1080 C 0.87046 0.2369 0.69189 0.0
C1081 C 0.80831 0.15826 0.70208 0.0
C1082 C 0.86017 0.19293 0.75907 0.0
C1083 C 0.86869 0.19031 0.78326 0.0
C1084 C 0.88564 0.17608 0.78737 0.0
C1085 C 0.85956 0.20138 0.8024 0.0
C1086 C 0.86773 0.19831 0.8254 0.0
C1087 C 0.89309 0.17237 0.80996 0.0
C1088 C 0.88419 0.18327 0.82881 0.0
C1089 C 0.84944 0.12457 0.67919 0.0
H1090 H 0.80722 0.1691 0.59958 0.0
H1091 H 0.88877 0.17035 0.57451 0.0
H1092 H 0.79426 0.17532 0.55961 0.0
H1093 H 0.8276 0.17925 0.52677 0.0
H1094 H 0.89306 0.1677 0.77314 0.0
H1095 H 0.84679 0.21275 0.79939 0.0
H1096 H 0.90595 0.16107 0.81286 0.0
H1097 H 0.8903 0.17996 0.84619 0.0
H1098 H 0.31448 0.88929 0.05813 0.0
H1099 H 0.35143 0.83013 0.05676 0.0
H1100 H 0.40144 0.87103 0.04441 0.0
H1101 H 0.43603 0.92455 0.03783 0.0
H1102 H 0.39998 0.98415 0.04099 0.0
H1103 H 0.3484 0.94228 0.04904 0.0
C1104 C 0.33346 0.88532 0.05517 0.0
C1105 C 0.32908 0.85661 0.05858 0.0
C1106 C 0.36242 0.90909 0.0485 0.0
C1107 C 0.3539 0.85186 0.05414 0.0
C1108 C 0.38265 0.87531 0.04723 0.0
C1109 C 0.41677 0.92824 0.03971 0.0
C1110 C 0.42163 0.95729 0.03844 0.0
C1111 C 0.38734 0.90413 0.04481 0.0
C1112 C 0.3966 0.96188 0.04162 0.0
C1113 C 0.36718 0.93799 0.04631 0.0
H1114 H 0.1703 0.48971 0.057 0.0
H1115 H 0.11769 0.39391 0.0613 0.0
H1116 H 0.07108 0.39459 0.05146 0.0
H1117 H 0.04404 0.42219 0.04482 0.0
H1118 H 0.09561 0.51751 0.03824 0.0
H1119 H 0.14363 0.51726 0.0454 0.0
C1120 C 0.14877 0.46896 0.05536 0.0
C1121 C 0.1476 0.44182 0.06057 0.0
C1122 C 0.1217 0.46942 0.0494 0.0
C1123 C 0.11932 0.41521 0.05817 0.0
C1124 C 0.09255 0.41551 0.05242 0.0
C1125 C 0.06589 0.44285 0.04466 0.0
C1126 C 0.06634 0.46976 0.04083 0.0
C1127 C 0.09328 0.44246 0.04861 0.0
C1128 C 0.09473 0.49645 0.04079 0.0
C1129 C 0.12216 0.49629 0.04504 0.0
H1130 H 0.52946 0.68209 0.03997 0.0
H1131 H 0.6194 0.71067 0.06857 0.0
H1132 H 0.61469 0.66321 0.05812 0.0
H1133 H 0.58428 0.61271 0.04181 0.0
H1134 H 0.49778 0.58765 0.00874 0.0
H1135 H 0.50264 0.63514 0.01924 0.0
C1136 C 0.54858 0.67859 0.04343 0.0
C1137 C 0.57456 0.70019 0.05547 0.0
C1138 C 0.54639 0.65173 0.03651 0.0
C1139 C 0.59859 0.69436 0.06005 0.0
C1140 C 0.59611 0.66724 0.05385 0.0
C1141 C 0.56663 0.61778 0.03681 0.0
C1142 C 0.5405 0.59649 0.02487 0.0
C1143 C 0.56992 0.64558 0.04235 0.0
C1144 C 0.51805 0.60352 0.01809 0.0
C1145 C 0.52075 0.6307 0.02412 0.0
H1146 H 0.88888 0.30661 0.96722 0.0
H1147 H 0.81722 0.31917 0.99767 0.0
H1148 H 0.85557 0.36548 0.0149 0.0
H1149 H 0.90919 0.40389 0.02017 0.0
H1150 H 0.98126 0.39493 0.98668 0.0
H1151 H 0.94308 0.34624 0.97162 0.0
C1152 C 0.88154 0.3195 0.97745 0.0
C1153 C 0.84986 0.30868 0.98133 0.0
C1154 C 0.90387 0.34703 0.98677 0.0
C1155 C 0.8412 0.326 0.99486 0.0
C1156 C 0.86319 0.35286 1.0046 0.0
C1157 C 0.91665 0.39122 0.00975 0.0
C1158 C 0.94811 0.40304 1.00469 0.0
C1159 C 0.89455 0.36367 1.0006 0.0
C1160 C 0.95721 0.38639 0.99087 0.0
C1161 C 0.93536 0.35853 0.98222 0.0
H1162 H 0.68238 0.51012 0.98289 0.0
H1163 H 0.72716 0.60378 0.96635 0.0
H1164 H 0.68112 0.60496 0.97799 0.0
H1165 H 0.6265 0.57872 0.98948 0.0
H1166 H 0.58163 0.48569 1.00724 0.0
H1167 H 0.62926 0.48513 0.99921 0.0
C1168 C 0.68236 0.53095 0.98227 0.0
C1169 C 0.70825 0.55667 0.97312 0.0
C1170 C 0.65563 0.53161 0.98924 0.0
C1171 C 0.70746 0.58338 0.97255 0.0
C1172 C 0.68112 0.58417 0.97936 0.0
C1173 C 0.62737 0.55847 0.99199 0.0
C1174 C 0.60061 0.53239 0.99914 0.0
C1175 C 0.65481 0.5583 0.98714 0.0
C1176 C 0.60196 0.50621 1.00214 0.0
C1177 C 0.6292 0.50584 0.99733 0.0
H1178 H 0.471 0.13551 0.94951 0.0
H1179 H 0.50494 0.18678 0.01267 0.0
H1180 H 0.51035 0.14714 0.03037 0.0
H1181 H 0.50664 0.09841 0.02772 0.0
H1182 H 0.46761 0.04498 0.96631 0.0
H1183 H 0.46274 0.08483 0.94838 0.0
C1184 C 0.47903 0.13793 0.9673 0.0
C1185 C 0.48802 0.16459 0.97943 0.0
C1186 C 0.48124 0.11459 0.97778 0.0
C1187 C 0.49871 0.16708 1.00246 0.0
C1188 C 0.50158 0.14425 0.01277 0.0
C1189 C 0.49658 0.09518 0.01063 0.0
C1190 C 0.48737 0.06848 0.99862 0.0
C1191 C 0.49316 0.118 1.00053 0.0
C1192 C 0.47484 0.06512 0.97618 0.0
C1193 C 0.47205 0.08799 0.96581 0.0
H1194 H 0.68478 0.13525 0.99753 0.0
H1195 H 0.62851 0.17529 0.98643 0.0
H1196 H 0.58222 0.12759 0.99213 0.0
H1197 H 0.55725 0.07492 1.00135 0.0
H1198 H 0.61093 0.03178 1.00732 0.0
H1199 H 0.65855 0.07994 1.00224 0.0
C1200 C 0.66241 0.1334 0.99592 0.0
C1201 C 0.66037 0.15921 0.99228 0.0
C1202 C 0.63535 0.10536 0.99856 0.0
C1203 C 0.63099 0.15614 0.99 0.0
C1204 C 0.60436 0.12879 0.99319 0.0
C1205 C 0.57935 0.07607 1.00191 0.0
C1206 C 0.58071 0.05012 1.00577 0.0
C1207 C 0.60625 0.1034 0.99795 0.0
C1208 C 0.60946 0.05171 1.00499 0.0
C1209 C 0.63662 0.0792 1.00199 0.0
H1210 H 0.84082 0.46921 1.00373 0.0
H1211 H 0.87528 0.55251 0.96643 0.0
H1212 H 0.92769 0.56343 0.97318 0.0
H1213 H 0.96434 0.54808 0.98782 0.0
H1214 H 0.92751 0.45997 0.01643 0.0
H1215 H 0.87572 0.4517 0.01381 0.0
C1216 C 0.85929 0.48944 0.9962 0.0
C1217 C 0.85301 0.50959 0.98416 0.0
C1218 C 0.88947 0.49477 0.9986 0.0
C1219 C 0.87847 0.53638 0.97604 0.0
C1220 C 0.90879 0.54261 0.97965 0.0
C1221 C 0.94493 0.52717 0.99363 0.0
C1222 C 0.95019 0.5053 1.00368 0.0
C1223 C 0.91461 0.52181 0.99069 0.0
C1224 C 0.92462 0.47784 0.00994 0.0
C1225 C 0.89476 0.47294 0.00816 0.0
H1226 H 0.50861 0.34017 0.96572 0.0
H1227 H 0.57391 0.35906 0.02078 0.0
H1228 H 0.56563 0.39863 0.03511 0.0
H1229 H 0.54312 0.42992 0.03035 0.0
H1230 H 0.47817 0.41278 0.97541 0.0
H1231 H 0.48289 0.37024 0.96273 0.0
C1232 C 0.52067 0.35273 0.98103 0.0
C1233 C 0.54214 0.34694 0.992 0.0
C1234 C 0.51597 0.37575 0.98912 0.0
C1235 C 0.55771 0.36345 0.01177 0.0
C1236 C 0.5529 0.38599 0.02004 0.0
C1237 C 0.52936 0.41663 0.01595 0.0
C1238 C 0.51018 0.42461 1.00401 0.0
C1239 C 0.53253 0.39264 0.00861 0.0
C1240 C 0.4931 0.40722 0.98501 0.0
C1241 C 0.49587 0.38292 0.97769 0.0
H1242 H 0.16861 0.65386 0.07994 0.0
H1243 H 0.17937 0.6919 0.01138 0.0
H1244 H 0.12944 0.65004 0.99989 0.0
H1245 H 0.08516 0.60041 0.0085 0.0
H1246 H 0.07472 0.56211 0.0769 0.0
H1247 H 0.12138 0.60664 0.08975 0.0
C1248 C 0.15953 0.6532 0.0627 0.0
C1249 C 0.17729 0.67577 0.0465 0.0
C1250 C 0.13095 0.62904 0.05626 0.0
C1251 C 0.16575 0.67479 0.02412 0.0
C1252 C 0.13736 0.65082 0.01755 0.0
C1253 C 0.09314 0.60191 0.02616 0.0
C1254 C 0.07692 0.57791 0.04159 0.0
C1255 C 0.12016 0.62745 0.03329 0.0
C1256 C 0.08679 0.58043 0.06475 0.0
C1257 C 0.11361 0.60577 0.07203 0.0
H1258 H 0.36831 0.52327 0.02909 0.0
H1259 H 0.3202 0.44427 0.07187 0.0
H1260 H 0.3626 0.43448 0.06632 0.0
H1261 H 0.41561 0.4505 0.0516 0.0
H1262 H 0.46553 0.53441 0.01553 0.0
H1263 H 0.42093 0.54055 0.01685 0.0
C1264 C 0.36699 0.50415 0.03777 0.0
C1265 C 0.34077 0.48493 0.05128 0.0
C1266 C 0.39219 0.49955 0.03571 0.0
C1267 C 0.33962 0.45955 0.06121 0.0
C1268 C 0.36416 0.45405 0.05826 0.0
C1269 C 0.41656 0.46998 0.04386 0.0
C1270 C 0.44381 0.49135 0.03242 0.0
C1271 C 0.39087 0.47419 0.04585 0.0
C1272 C 0.44484 0.51696 0.02341 0.0
C1273 C 0.41922 0.52065 0.0244 0.0
H1274 H 0.48466 0.82878 0.06168 0.0
H1275 H 0.57323 0.86224 0.02845 0.0
H1276 H 0.57952 0.91216 0.02653 0.0
H1277 H 0.55679 0.94477 0.03038 0.0
H1278 H 0.46736 0.90993 0.06235 0.0
H1279 H 0.46436 0.8621 0.06891 0.0
C1280 C 0.50546 0.8471 0.05421 0.0
C1281 C 0.52828 0.84189 0.04496 0.0
C1282 C 0.50869 0.87545 0.05299 0.0
C1283 C 0.55536 0.86581 0.03567 0.0
C1284 C 0.55888 0.89427 0.03449 0.0
C1285 C 0.53723 0.92691 0.03949 0.0
C1286 C 0.51252 0.9307 0.04627 0.0
C1287 C 0.53537 0.8992 0.04262 0.0
C1288 C 0.48675 0.90739 0.05736 0.0
C1289 C 0.48495 0.88004 0.06092 0.0
H1290 H 0.99682 0.23677 0.38698 0.0
H1291 H 0.03789 0.18416 0.40562 0.0
H1292 H 0.08901 0.22588 0.39626 0.0
H1293 H 0.12227 0.27774 0.38369 0.0
H1294 H 0.08184 0.32993 0.36256 0.0
H1295 H 0.03031 0.28826 0.37199 0.0
C1296 C 0.01702 0.23455 0.3889 0.0
C1297 C 1.01367 0.20751 0.39707 0.0
C1298 C 0.04639 0.25854 0.383 0.0
C1299 C 0.03994 0.20474 0.39932 0.0
C1300 C 0.06916 0.22861 0.39406 0.0
C1301 C 0.10207 0.2797 0.3807 0.0
C1302 C 0.10559 0.30639 0.3717 0.0
C1303 C 0.07268 0.25562 0.38596 0.0
C1304 C 0.07947 0.30924 0.3689 0.0
C1305 C 0.05009 0.28548 0.37438 0.0
H1306 H 0.84864 0.84046 0.37883 0.0
H1307 H 0.79591 0.74914 0.40165 0.0
H1308 H 0.74814 0.74849 0.39271 0.0
H1309 H 0.72107 0.77475 0.38099 0.0
H1310 H 0.77315 0.86637 0.35918 0.0
H1311 H 0.82127 0.86609 0.36498 0.0
C1312 C 0.82669 0.8203 0.38146 0.0
C1313 C 0.82586 0.79493 0.39106 0.0
C1314 C 0.79915 0.82022 0.37661 0.0
C1315 C 0.79719 0.76905 0.39455 0.0
C1316 C 0.76985 0.76866 0.38945 0.0
C1317 C 0.743 0.79453 0.37729 0.0
C1318 C 0.74357 0.8203 0.36918 0.0
C1319 C 0.77051 0.79426 0.38094 0.0
C1320 C 0.7721 0.84602 0.3649 0.0
C1321 C 0.79962 0.8459 0.36835 0.0
H1322 H 0.25969 0.03678 0.40553 0.0
H1323 H 0.16988 0.01758 0.38241 0.0
H1324 H 0.16149 0.97166 0.36481 0.0
H1325 H 0.17819 0.93554 0.35759 0.0
H1326 H 0.26469 0.95114 0.38512 0.0
H1327 H 0.27555 0.99963 0.39969 0.0
C1328 C 0.23807 0.02246 0.39697 0.0
C1329 C 0.21566 0.03109 0.39526 0.0
C1330 C 0.23269 0.99528 0.3877 0.0
C1331 C 0.18803 0.0122 0.38359 0.0
C1332 C 0.18299 0.98566 0.37367 0.0
C1333 C 0.19949 0.94961 0.36668 0.0
C1334 C 0.22061 0.93982 0.37031 0.0
C1335 C 0.20504 0.97688 0.37576 0.0
C1336 C 0.24802 0.95819 0.38222 0.0
C1337 C 0.25423 0.98589 0.39056 0.0
H1338 H 0.51833 0.66076 0.33645 0.0
H1339 H 0.55673 0.66754 0.26749 0.0
H1340 H 0.60114 0.71488 0.27741 0.0
H1341 H 0.62949 0.7546 0.30526 0.0
H1342 H 0.58947 0.75144 0.37274 0.0
H1343 H 0.5455 0.70289 0.36371 0.0
C1344 C 0.53623 0.67265 0.3235 0.0
C1345 C 0.53422 0.65982 0.30141 0.0
C1346 C 0.56168 0.70065 0.32907 0.0
C1347 C 0.55786 0.67595 0.28494 0.0
C1348 C 0.5833 0.70335 0.29049 0.0
C1349 C 0.61133 0.74336 0.31815 0.0
C1350 C 0.61346 0.75662 0.33999 0.0
C1351 C 0.58559 0.71581 0.31253 0.0
C1352 C 0.58909 0.74168 0.35608 0.0
C1353 C 0.5637 0.71388 0.35082 0.0
H1354 H 0.38452 0.91939 0.31305 0.0
H1355 H 0.34956 0.82543 0.32181 0.0
H1356 H 0.29962 0.81824 0.33419 0.0
H1357 H 0.26431 0.83809 0.3395 0.0
H1358 H 0.29951 0.93205 0.33069 0.0
H1359 H 0.35059 0.93978 0.32156 0.0
C1360 C 0.36596 0.89737 0.31765 0.0
C1361 C 0.37082 0.87301 0.31629 0.0
C1362 C 0.3372 0.89335 0.32483 0.0
C1363 C 0.34657 0.84464 0.32274 0.0
C1364 C 0.31791 0.84046 0.32977 0.0
C1365 C 0.28338 0.86031 0.33618 0.0
C1366 C 0.27826 0.88455 0.33603 0.0
C1367 C 0.31276 0.86457 0.33058 0.0
C1368 C 0.30302 0.91311 0.33111 0.0
C1369 C 0.33219 0.91753 0.32574 0.0
H1370 H 0.14873 0.50625 0.33635 0.0
H1371 H 0.16241 0.49263 0.26403 0.0
H1372 H 0.17006 0.45147 0.27473 0.0
H1373 H 0.17323 0.41979 0.30426 0.0
H1374 H 0.15703 0.42997 0.37656 0.0
H1375 H 0.15098 0.47269 0.36652 0.0
C1376 C 0.15345 0.49421 0.32306 0.0
C1377 C 0.15473 0.5022 0.29943 0.0
C1378 C 0.15749 0.47016 0.32934 0.0
C1379 C 0.16091 0.48657 0.28228 0.0
C1380 C 0.16539 0.46313 0.28838 0.0
C1381 C 0.16741 0.43067 0.31776 0.0
C1382 C 0.16474 0.42117 0.341 0.0
C1383 C 0.16348 0.45461 0.31177 0.0
C1384 C 0.15911 0.43679 0.3585 0.0
C1385 C 0.15552 0.46112 0.35273 0.0
H1386 H 0.3571 0.49604 0.30786 0.0
H1387 H 0.32158 0.54592 0.34341 0.0
H1388 H 0.27524 0.50008 0.35425 0.0
H1389 H 0.24164 0.44613 0.34915 0.0
H1390 H 0.27836 0.39532 0.31763 0.0
H1391 H 0.32734 0.441 0.30989 0.0
C1392 C 0.33966 0.49697 0.31845 0.0
C1393 C 0.34254 0.52475 0.32381 0.0
C1394 C 0.31305 0.47025 0.32528 0.0
C1395 C 0.31958 0.52511 0.33792 0.0
C1396 C 0.29301 0.49882 0.34433 0.0
C1397 C 0.26083 0.44503 0.34145 0.0
C1398 C 0.25686 0.41742 0.33467 0.0
C1399 C 0.28899 0.47133 0.33739 0.0
C1400 C 0.28136 0.41633 0.32371 0.0
C1401 C 0.30924 0.44247 0.3191 0.0
H1402 H 0.5477 0.88065 0.32806 0.0
H1403 H 0.50356 0.78505 0.33482 0.0
H1404 H 0.55306 0.78812 0.33676 0.0
H1405 H 0.60881 0.81722 0.337 0.0
H1406 H 0.65482 0.91149 0.3245 0.0
H1407 H 0.60489 0.90958 0.32352 0.0
C1408 C 0.54883 0.86045 0.32961 0.0
C1409 C 0.52146 0.83278 0.33231 0.0
C1410 C 0.57783 0.86207 0.32964 0.0
C1411 C 0.52386 0.8069 0.33393 0.0
C1412 C 0.5523 0.80849 0.33476 0.0
C1413 C 0.60801 0.83741 0.33437 0.0
C1414 C 0.63546 0.86464 0.33188 0.0
C1415 C 0.57939 0.83591 0.33299 0.0
C1416 C 0.6339 0.89036 0.32706 0.0
C1417 C 0.60537 0.88923 0.32647 0.0
H1418 H 0.17272 0.68253 0.29154 0.0
H1419 H 0.23272 0.69066 0.34799 0.0
H1420 H 0.22998 0.73293 0.36339 0.0
H1421 H 0.21462 0.76979 0.35896 0.0
H1422 H 0.15418 0.76319 0.3034 0.0
H1423 H 0.15334 0.71828 0.28922 0.0
C1424 C 0.18468 0.69331 0.30742 0.0
C1425 C 0.20314 0.68372 0.31852 0.0
C1426 C 0.1833 0.71802 0.3161 0.0
C1427 C 0.21867 0.69789 0.33903 0.0
C1428 C 0.21715 0.72206 0.34782 0.0
C1429 C 0.20054 0.75831 0.34413 0.0
C1430 C 0.18427 0.76989 0.3325 0.0
C1431 C 0.20011 0.73266 0.33623 0.0
C1432 C 0.16694 0.75485 0.31279 0.0
C1433 C 0.16644 0.72913 0.30467 0.0
H1434 H 0.85544 0.02657 0.34339 0.0
H1435 H 0.85801 0.01621 0.41766 0.0
H1436 H 0.8074 0.97073 0.41668 0.0
H1437 H 0.76505 0.93086 0.39364 0.0
H1438 H 0.76238 0.94326 0.31959 0.0
H1439 H 0.81006 0.99076 0.32139 0.0
C1440 C 0.8445 0.01465 0.35938 0.0
C1441 C 0.8602 0.02459 0.38055 0.0
C1442 C 0.81557 0.98859 0.35862 0.0
C1443 C 0.84607 0.00899 0.40121 0.0
C1444 C 0.81728 0.98291 0.4006 0.0
C1445 C 0.77462 0.94431 0.37803 0.0
C1446 C 0.76079 0.93301 0.35631 0.0
C1447 C 0.80212 0.97203 0.37929 0.0
C1448 C 0.77333 0.95077 0.33628 0.0
C1449 C 0.80047 0.97815 0.33735 0.0
H1450 H 0.04924 0.87184 0.3695 0.0
H1451 H 0.98629 0.77732 0.37209 0.0
H1452 H 0.0299 0.76844 0.37314 0.0
H1453 H 0.08665 0.78797 0.3713 0.0
H1454 H 0.14768 0.88269 0.368 0.0
H1455 H 0.10439 0.89102 0.36872 0.0
C1456 C 0.0449 0.8492 0.37014 0.0
C1457 C 1.0144 0.82529 0.37044 0.0
C1458 C 0.06993 0.8443 0.3703 0.0
C1459 C 1.00945 0.79619 0.37195 0.0
C1460 C 0.03443 0.7911 0.3724 0.0
C1461 C 0.0903 0.81036 0.3707 0.0
C1462 C 0.12047 0.83468 0.36837 0.0
C1463 C 0.06485 0.81502 0.37129 0.0
C1464 C 0.12489 0.86357 0.36837 0.0
C1465 C 0.10002 0.86838 0.36918 0.0
H1466 H 0.20665 0.19354 0.34674 0.0
H1467 H 0.20286 0.19655 0.42165 0.0
H1468 H 0.21266 0.24775 0.41967 0.0
H1469 H 0.2141 0.2882 0.39614 0.0
H1470 H 0.21712 0.28406 0.32096 0.0
H1471 H 0.21647 0.23709 0.32353 0.0
C1472 C 0.20879 0.2058 0.36259 0.0
C1473 C 0.2039 0.19156 0.38427 0.0
C1474 C 0.21397 0.23487 0.36124 0.0
C1475 C 0.2067 0.20735 0.4048 0.0
C1476 C 0.21206 0.23646 0.40363 0.0
C1477 C 0.21545 0.27745 0.38034 0.0
C1478 C 0.21501 0.28941 0.35839 0.0
C1479 C 0.21456 0.25003 0.38189 0.0
C1480 C 0.21692 0.27518 0.3381 0.0
C1481 C 0.21647 0.24822 0.33951 0.0
H1482 H 0.69411 0.51983 0.71348 0.0
H1483 H 0.64711 0.56538 0.73739 0.0
H1484 H 0.69168 0.6131 0.7268 0.0
H1485 H 0.74544 0.64238 0.7133 0.0
H1486 H 0.79273 0.59729 0.68943 0.0
H1487 H 0.74668 0.54912 0.69699 0.0
C1488 C 0.69339 0.54014 0.71599 0.0
C1489 C 0.66731 0.53889 0.72658 0.0
C1490 C 0.71927 0.5677 0.70989 0.0
C1491 C 0.66702 0.56559 0.72979 0.0
C1492 C 0.6925 0.59295 0.72364 0.0
C1493 C 0.74546 0.62195 0.7095 0.0
C1494 C 0.77227 0.62341 0.70047 0.0
C1495 C 0.71898 0.59434 0.71415 0.0
C1496 C 0.7722 0.59681 0.69594 0.0
C1497 C 0.7459 0.56923 0.70042 0.0
H1498 H 0.51097 0.16238 0.72484 0.0
H1499 H 0.45532 0.06899 0.7417 0.0
H1500 H 0.40915 0.06998 0.73092 0.0
H1501 H 0.38382 0.09783 0.71951 0.0
H1502 H 0.43841 0.19017 0.70024 0.0
H1503 H 0.48567 0.18899 0.70862 0.0
C1504 C 0.48886 0.14209 0.72575 0.0
C1505 C 0.48681 0.11581 0.73474 0.0
C1506 C 0.46211 0.14262 0.71911 0.0
C1507 C 0.45773 0.08981 0.73566 0.0
C1508 C 0.43121 0.09025 0.72933 0.0
C1509 C 0.40614 0.11758 0.71687 0.0
C1510 C 0.40771 0.14397 0.70918 0.0
C1511 C 0.43303 0.11663 0.72158 0.0
C1512 C 0.43667 0.16949 0.70588 0.0
C1513 C 0.46366 0.16883 0.71081 0.0
H1514 H 0.86319 0.35206 0.71112 0.0
H1515 H 0.95309 0.38125 0.73998 0.0
H1516 H 0.94879 0.33388 0.72976 0.0
H1517 H 0.91873 0.28328 0.7136 0.0
H1518 H 0.83203 0.25736 0.68054 0.0
H1519 H 0.83648 0.30476 0.69078 0.0
C1520 C 0.88234 0.34865 0.7147 0.0
C1521 C 0.90821 0.37037 0.72673 0.0
C1522 C 0.88031 0.32178 0.70801 0.0
C1523 C 0.93237 0.3648 0.73144 0.0
C1524 C 0.93011 0.33773 0.7254 0.0
C1525 C 0.90092 0.28813 0.70859 0.0
C1526 C 0.87489 0.26667 0.69669 0.0
C1527 C 0.90398 0.31587 0.71398 0.0
C1528 C 0.85223 0.2734 0.68987 0.0
C1529 C 0.85471 0.30052 0.69574 0.0
H1530 H 0.18106 0.99307 0.66675 0.0
H1531 H 0.24035 0.96892 0.62939 0.0
H1532 H 0.28526 0.01444 0.64237 0.0
H1533 H 0.30786 0.06236 0.66296 0.0
H1534 H 0.24866 0.08371 0.70332 0.0
H1535 H 0.20386 0.0374 0.69127 0.0
C1536 C 0.2037 0.99711 0.66182 0.0
C1537 C 0.20682 0.97735 0.64666 0.0
C1538 C 0.22968 0.02293 0.67001 0.0
C1539 C 0.23676 0.98384 0.64037 0.0
C1540 C 0.26265 0.00985 0.64801 0.0
C1541 C 0.2852 0.05673 0.66935 0.0
C1542 C 0.28173 0.07678 0.68382 0.0
C1543 C 0.25939 0.02978 0.66256 0.0
C1544 C 0.25217 0.06888 0.69213 0.0
C1545 C 0.22641 0.04239 0.68514 0.0
H1546 H 0.04521 0.2491 0.64739 0.0
H1547 H 1.01376 0.15591 0.65687 0.0
H1548 H 0.96404 0.1476 0.67132 0.0
H1549 H 0.92696 0.1658 0.67602 0.0
H1550 H 0.95871 0.25876 0.66466 0.0
H1551 H 1.01051 0.26813 0.65626 0.0
C1552 C 0.02759 0.22701 0.65283 0.0
C1553 C 0.03322 0.20316 0.65073 0.0
C1554 C 0.99884 0.22228 0.66064 0.0
C1555 C 1.01024 0.17476 0.65832 0.0
C1556 C 0.98163 0.16993 0.66641 0.0
C1557 C 0.94547 0.18819 0.67236 0.0
C1558 C 0.93911 0.21166 0.67114 0.0
C1559 C 0.97528 0.19335 0.66695 0.0
C1560 C 0.96315 0.24044 0.66583 0.0
C1561 C 0.99274 0.24578 0.66092 0.0
H1562 H 0.83322 0.84351 0.66845 0.0
H1563 H 0.80038 0.80783 0.59979 0.0
H1564 H 0.80213 0.76335 0.60984 0.0
H1565 H 0.81482 0.73512 0.6373 0.0
H1566 H 0.85459 0.77378 0.70363 0.0
H1567 H 0.8488 0.81654 0.69508 0.0
C1568 C 0.82679 0.8263 0.65547 0.0
C1569 C 0.81633 0.82933 0.63341 0.0
C1570 C 0.82911 0.8011 0.66095 0.0
C1571 C 0.80767 0.80617 0.61717 0.0
C1572 C 0.809 0.78068 0.62278 0.0
C1573 C 0.82204 0.75272 0.65004 0.0
C1574 C 0.83441 0.7506 0.67147 0.0
C1575 C 0.81981 0.77795 0.64457 0.0
C1576 C 0.8442 0.77416 0.68737 0.0
C1577 C 0.84114 0.79887 0.68236 0.0
H1578 H 0.03243 0.81232 0.65705 0.0
H1579 H 0.98124 0.85841 0.66419 0.0
H1580 H 0.93357 0.81151 0.6672 0.0
H1581 H 0.90576 0.75736 0.66831 0.0
H1582 H 0.95418 0.70996 0.65559 0.0
H1583 H 1.00325 0.75716 0.65366 0.0
C1584 C 1.01087 0.81217 0.65888 0.0
C1585 C 1.01096 0.83923 0.66127 0.0
C1586 C 0.98286 0.78476 0.65965 0.0
C1587 C 0.98242 0.83821 0.66336 0.0
C1588 C 0.95488 0.81129 0.66487 0.0
C1589 C 0.92708 0.75735 0.6654 0.0
C1590 C 0.92661 0.73028 0.66307 0.0
C1591 C 0.95483 0.78446 0.6634 0.0
C1592 C 0.9542 0.73063 0.65803 0.0
C1593 C 0.98219 0.75759 0.65685 0.0
H1594 H 0.18085 0.14115 0.67632 0.0
H1595 H 0.21025 0.21582 0.62947 0.0
H1596 H 0.2639 0.22889 0.6349 0.0
H1597 H 0.30236 0.21633 0.65044 0.0
H1598 H 0.26959 0.1364 0.69131 0.0
H1599 H 0.21776 0.1278 0.69024 0.0
C1600 C 0.19873 0.16007 0.66686 0.0
C1601 C 0.19098 0.177 0.65207 0.0
C1602 C 0.22927 0.16649 0.669 0.0
C1603 C 0.21512 0.20225 0.64102 0.0
C1604 C 0.24592 0.2096 0.64394 0.0
C1605 C 0.28386 0.19722 0.6593 0.0
C1606 C 0.29045 0.17773 0.67192 0.0
C1607 C 0.25327 0.19148 0.65751 0.0
C1608 C 0.26591 0.15251 0.68244 0.0
C1609 C 0.23593 0.14738 0.68161 0.0
H1610 H 0.84097 0.00874 0.6354 0.0
H1611 H 0.90373 0.0236 0.69157 0.0
H1612 H 0.89895 0.0655 0.70509 0.0
H1613 H 0.88029 0.10003 0.69931 0.0
H1614 H 0.81643 0.08555 0.64416 0.0
H1615 H 0.81838 0.04147 0.63184 0.0
C1616 C 0.85317 0.02085 0.65081 0.0
C1617 C 0.87307 0.01327 0.66221 0.0
C1618 C 0.85035 0.04514 0.65856 0.0
C1619 C 0.88879 0.02931 0.68215 0.0
C1620 C 0.886 0.05324 0.68996 0.0
C1621 C 0.86615 0.08696 0.68498 0.0
C1622 C 0.84808 0.09617 0.67289 0.0
C1623 C 0.86734 0.06169 0.67805 0.0
C1624 C 0.83056 0.0791 0.65389 0.0
C1625 C 0.83168 0.05385 0.6468 0.0
H1626 H 0.51246 0.35212 0.67333 0.0
H1627 H 0.52407 0.34592 0.74704 0.0
H1628 H 0.47507 0.29871 0.74902 0.0
H1629 H 0.43151 0.25649 0.72857 0.0
H1630 H 0.41967 0.26499 0.65518 0.0
H1631 H 0.46595 0.31368 0.65416 0.0
C1632 C 0.50393 0.34064 0.68988 0.0
C1633 C 0.52182 0.35232 0.70998 0.0
C1634 C 0.4759 0.31361 0.69082 0.0
C1635 C 0.51055 0.33738 0.73137 0.0
C1636 C 0.48266 0.3103 0.73245 0.0
C1637 C 0.43881 0.26928 0.71249 0.0
C1638 C 0.42281 0.25655 0.69169 0.0
C1639 C 0.46547 0.29778 0.71214 0.0
C1640 C 0.4324 0.27356 0.67109 0.0
C1641 C 0.4587 0.30164 0.67057 0.0
H1642 H 0.70547 0.19376 0.69804 0.0
H1643 H 0.65821 0.11761 0.74385 0.0
H1644 H 0.69985 0.10673 0.73839 0.0
H1645 H 0.75223 0.12128 0.72283 0.0
H1646 H 0.80179 0.20368 0.68479 0.0
H1647 H 0.75763 0.2102 0.68569 0.0
C1648 C 0.70421 0.17512 0.70747 0.0
C1649 C 0.67846 0.15701 0.72174 0.0
C1650 C 0.72909 0.1701 0.70561 0.0
C1651 C 0.6773 0.13206 0.73257 0.0
C1652 C 0.70141 0.12595 0.72968 0.0
C1653 C 0.75317 0.14049 0.71456 0.0
C1654 C 0.7802 0.16121 0.70255 0.0
C1655 C 0.72777 0.14514 0.71653 0.0
C1656 C 0.78129 0.1866 0.69301 0.0
C1657 C 0.75588 0.19054 0.69377 0.0
H1658 H 0.87698 0.52111 0.67326 0.0
H1659 H 0.86244 0.51699 0.74757 0.0
H1660 H 0.86548 0.56564 0.74665 0.0
H1661 H 0.86601 0.60634 0.7236 0.0
H1662 H 0.88216 0.6103 0.64944 0.0
H1663 H 0.88486 0.56489 0.65125 0.0
C1664 C 0.87513 0.53126 0.68927 0.0
C1665 C 0.86939 0.51573 0.71041 0.0
C1666 C 0.87673 0.55895 0.68852 0.0
C1667 C 0.86703 0.52883 0.73113 0.0
C1668 C 0.86856 0.55648 0.73056 0.0
C1669 C 0.87079 0.59754 0.70798 0.0
C1670 C 0.87274 0.61096 0.68624 0.0
C1671 C 0.87253 0.57136 0.70923 0.0
C1672 C 0.87914 0.59955 0.66615 0.0
C1673 C 0.88102 0.57375 0.66722 0.0
H1674 H 0.41691 0.89947 0.23838 0.0
H1675 H 0.50434 0.93019 0.27179 0.0
H1676 H 0.53085 0.96193 0.23819 0.0
H1677 H 0.52932 0.98239 0.19983 0.0
H1678 H 0.44195 0.95256 0.16661 0.0
H1679 H 0.4155 0.91909 0.19945 0.0
C1680 C 0.44176 0.9132 0.23838 0.0
C1681 C 0.45851 0.91241 0.25777 0.0
C1682 C 0.45695 0.93162 0.21896 0.0
C1683 C 0.49078 0.93002 0.25713 0.0
C1684 C 0.506 0.94837 0.23794 0.0
C1685 C 0.50447 0.96867 0.19978 0.0
C1686 C 0.48773 0.97024 0.1807 0.0
C1687 C 0.48933 0.94957 0.21884 0.0
C1688 C 0.45555 0.95174 0.18085 0.0
C1689 C 0.44034 0.9327 0.19975 0.0
H1690 H 0.08614 0.56305 0.25252 0.0
H1691 H 0.1279 0.51395 0.22574 0.0
H1692 H 0.09586 0.50054 0.19117 0.0
H1693 H 0.05437 0.50053 0.16944 0.0
H1694 H 1.01217 0.54965 0.19534 0.0
H1695 H 0.04568 0.56501 0.22938 0.0
C1696 C 0.08832 0.54966 0.23897 0.0
C1697 C 0.10901 0.53916 0.24181 0.0
C1698 C 0.06958 0.5418 0.21909 0.0
C1699 C 0.1117 0.52183 0.22414 0.0
C1700 C 0.09347 0.51422 0.20433 0.0
C1701 C 0.05279 0.51499 0.18231 0.0
C1702 C 0.03075 0.52387 0.1798 0.0
C1703 C 0.07208 0.52374 0.20176 0.0
C1704 C 0.02867 0.54216 0.19696 0.0
C1705 C 0.04794 0.55109 0.21638 0.0
H1706 H 0.45873 0.56252 0.23039 0.0
H1707 H 0.53376 0.57022 0.27174 0.0
H1708 H 0.5513 0.55221 0.2392 0.0
H1709 H 0.54808 0.53855 0.19835 0.0
H1710 H 0.47097 0.52656 0.15725 0.0
H1711 H 0.45213 0.54285 0.19016 0.0
C1712 C 0.47846 0.55955 0.23245 0.0
C1713 C 0.49509 0.56804 0.25345 0.0
C1714 C 0.48853 0.54914 0.21354 0.0
C1715 C 0.52079 0.56428 0.2557 0.0
C1716 C 0.53089 0.55404 0.23707 0.0
C1717 C 0.52669 0.53863 0.19653 0.0
C1718 C 0.51122 0.53128 0.17499 0.0
C1719 C 0.51537 0.54707 0.21576 0.0
C1720 C 0.48398 0.53264 0.17324 0.0
C1721 C 0.4729 0.54166 0.19222 0.0
H1722 H 0.91999 0.40809 0.80621 0.0
H1723 H 0.96401 0.49439 0.77318 0.0
H1724 H 0.99582 0.51634 0.80771 0.0
H1725 H 1.01309 0.51025 0.8464 0.0
H1726 H 0.96868 0.42382 0.87929 0.0
H1727 H 0.93506 0.40253 0.84566 0.0
C1728 C 0.9365 0.43172 0.80666 0.0
C1729 C 0.93994 0.4496 0.7872 0.0
C1730 C 0.95473 0.44405 0.82643 0.0
C1731 C 0.96095 0.48026 0.78805 0.0
C1732 C 0.97925 0.49275 0.80769 0.0
C1733 C 0.99604 0.48676 0.84612 0.0
C1734 C 0.99345 0.46853 0.86512 0.0
C1735 C 0.9767 0.47475 0.8268 0.0
C1736 C 0.97097 0.43825 0.86484 0.0
C1737 C 0.95184 0.42608 0.84562 0.0
H1738 H 0.58525 0.52057 0.78138 0.0
H1739 H 0.59081 0.44414 0.80356 0.0
H1740 H 0.56563 0.44296 0.84058 0.0
H1741 H 0.54021 0.46268 0.86612 0.0
H1742 H 0.53324 0.538 0.84303 0.0
H1743 H 0.56115 0.54092 0.80709 0.0
C1744 C 0.58126 0.50387 0.79444 0.0
C1745 C 0.58987 0.48248 0.78973 0.0
C1746 C 0.56652 0.50316 0.81554 0.0
C1747 C 0.58413 0.46069 0.80668 0.0
C1748 C 0.56985 0.46008 0.82788 0.0
C1749 C 0.5452 0.47992 0.85331 0.0
C1750 C 0.53475 0.50011 0.85716 0.0
C1751 C 0.56072 0.48107 0.83244 0.0
C1752 C 0.54096 0.52214 0.84034 0.0
C1753 C 0.55689 0.5238 0.81982 0.0
H1754 H 0.48735 0.04354 0.78687 0.0
H1755 H 0.57513 0.11286 0.81167 0.0
H1756 H 0.56779 0.08515 0.84781 0.0
H1757 H 0.53627 0.04118 0.87261 0.0
H1758 H 0.44728 0.97349 0.84839 0.0
H1759 H 0.45515 1.00086 0.81207 0.0
C1760 C 0.50479 0.05282 0.80024 0.0
C1761 C 0.53181 0.0803 0.79635 0.0
C1762 C 0.50017 0.03707 0.82122 0.0
C1763 C 0.55433 0.09156 0.81385 0.0
C1764 C 0.55003 0.07584 0.83469 0.0
C1765 C 0.51844 0.03258 0.85952 0.0
C1766 C 0.49131 0.00513 0.86326 0.0
C1767 C 0.523 0.04858 0.83861 0.0
C1768 C 0.46863 0.99425 0.8459 0.0
C1769 C 0.47304 0.00996 0.82511 0.0
H1770 H 0.14863 0.262 0.58009 0.0
H1771 H 0.05017 0.21297 0.5712 0.0
H1772 H 0.05588 0.23375 0.53225 0.0
H1773 H 0.08811 0.26759 0.50141 0.0
H1774 H 0.1865 0.31803 0.50946 0.0
H1775 H 0.18168 0.29435 0.54753 0.0
C1776 C 0.12851 0.25576 0.56952 0.0
C1777 C 0.09896 0.23644 0.57885 0.0
C1778 C 0.13193 0.26792 0.54689 0.0
C1779 C 0.07312 0.22841 0.56481 0.0
C1780 C 0.07635 0.24011 0.54241 0.0
C1781 C 0.10856 0.27341 0.51146 0.0
C1782 C 0.13759 0.29485 0.50269 0.0
C1783 C 0.10554 0.26023 0.53343 0.0
C1784 C 0.16388 0.30155 0.51573 0.0
C1785 C 0.16108 0.28819 0.53761 0.0
H1786 H 0.78081 0.84918 0.56353 0.0
H1787 H 0.76139 0.91066 0.59984 0.0
H1788 H 0.7296 0.90973 0.56736 0.0
H1789 H 0.70814 0.89209 0.5283 0.0
H1790 H 0.72717 0.82999 0.49249 0.0
H1791 H 0.75833 0.83057 0.52513 0.0
C1792 C 0.76925 0.86204 0.56452 0.0
C1793 C 0.77335 0.87984 0.58417 0.0
C1794 C 0.75112 0.86145 0.54579 0.0
C1795 C 0.75876 0.8969 0.58488 0.0
C1796 C 0.74053 0.89631 0.56634 0.0
C1797 C 0.71884 0.87844 0.52774 0.0
C1798 C 0.71535 0.86109 0.50789 0.0
C1799 C 0.73666 0.87877 0.54665 0.0
C1800 C 0.7298 0.84389 0.50735 0.0
C1801 C 0.74748 0.84406 0.52609 0.0
H1802 H 0.20234 0.91081 0.5901 0.0
H1803 H 0.11278 0.89269 0.56778 0.0
H1804 H 0.12052 0.87437 0.53038 0.0
H1805 H 0.15343 0.86361 0.50379 0.0
H1806 H 0.2439 0.88523 0.52675 0.0
H1807 H 0.23546 0.90306 0.56368 0.0
C1808 C 0.18458 0.9034 0.57699 0.0
C1809 C 0.15711 0.90353 0.58188 0.0
C1810 C 0.1895 0.8937 0.55542 0.0
C1811 C 0.13409 0.89273 0.56475 0.0
C1812 C 0.13864 0.88248 0.54322 0.0
C1813 C 0.17137 0.87259 0.51679 0.0
C1814 C 0.19916 0.87273 0.51254 0.0
C1815 C 0.16637 0.88297 0.53828 0.0
C1816 C 0.22214 0.88436 0.52965 0.0
C1817 C 0.21735 0.89461 0.55081 0.0
H1818 H 0.58568 0.74102 0.1359 0.0
H1819 H 0.63576 0.82428 0.09885 0.0
H1820 H 0.66826 0.84713 0.13293 0.0
H1821 H 0.68419 0.84241 0.1725 0.0
H1822 H 0.63278 0.75974 0.21012 0.0
H1823 H 0.59882 0.73753 0.17666 0.0
C1824 C 0.60361 0.76421 0.13545 0.0
C1825 C 0.60864 0.78098 0.11498 0.0
C1826 C 0.62194 0.77716 0.15511 0.0
C1827 C 0.63157 0.81107 0.11452 0.0
C1828 C 0.65019 0.82405 0.13391 0.0
C1829 C 0.66541 0.81959 0.17332 0.0
C1830 C 0.66101 0.80255 0.19351 0.0
C1831 C 0.64588 0.80717 0.15416 0.0
C1832 C 0.63646 0.77317 0.19467 0.0
C1833 C 0.61717 0.76049 0.17556 0.0
H1834 H 0.2816 0.84606 0.13452 0.0
H1835 H 0.19431 0.79241 0.10091 0.0
H1836 H 0.16769 0.79891 0.13426 0.0
H1837 H 0.16909 0.81907 0.17327 0.0
H1838 H 0.2564 0.87302 0.20684 0.0
H1839 H 0.28306 0.86702 0.17331 0.0
C1840 C 0.25679 0.8361 0.13437 0.0
C1841 C 0.23998 0.81883 0.1152 0.0
C1842 C 0.2416 0.83979 0.15369 0.0
C1843 C 0.20777 0.80563 0.1155 0.0
C1844 C 0.19254 0.8094 0.13455 0.0
C1845 C 0.19398 0.82977 0.17318 0.0
C1846 C 0.21066 0.84647 0.19262 0.0
C1847 C 0.2092 0.82631 0.15379 0.0
C1848 C 0.2429 0.85973 0.19229 0.0
C1849 C 0.2582 0.85647 0.17304 0.0
H1850 H 0.22903 0.42595 0.13713 0.0
H1851 H 0.14441 0.36239 0.10401 0.0
H1852 H 0.13075 0.32951 0.13768 0.0
H1853 H 0.14164 0.31936 0.17692 0.0
H1854 H 0.22855 0.38003 0.20875 0.0
H1855 H 0.24204 0.4135 0.17539 0.0
C1856 C 0.20785 0.4047 0.13706 0.0
C1857 C 0.18763 0.39702 0.11804 0.0
C1858 C 0.20025 0.38545 0.15643 0.0
C1859 C 0.16014 0.36937 0.11853 0.0
C1860 C 0.15233 0.3504 0.13777 0.0
C1861 C 0.16385 0.33956 0.17654 0.0
C1862 C 0.18383 0.34692 0.19567 0.0
C1863 C 0.17203 0.35833 0.15692 0.0
C1864 C 0.21218 0.3738 0.19473 0.0
C1865 C 0.22016 0.39293 0.17545 0.0
H1866 H 0.83372 0.6014 0.91642 0.0
H1867 H 0.74164 0.5739 0.89364 0.0
H1868 H 0.76186 0.6001 0.85669 0.0
H1869 H 0.80596 0.63239 0.83109 0.0
H1870 H 0.89782 0.65893 0.85373 0.0
H1871 H 0.87742 0.63125 0.89009 0.0
C1872 C 0.81802 0.60084 0.9033 0.0
C1873 C 0.78619 0.58592 0.90808 0.0
C1874 C 0.82978 0.61582 0.88191 0.0
C1875 C 0.7663 0.58573 0.8908 0.0
C1876 C 0.77782 0.60053 0.86951 0.0
C1877 C 0.82145 0.63175 0.84384 0.0
C1878 C 0.85341 0.64796 0.83971 0.0
C1879 C 0.80955 0.61588 0.86491 0.0
C1880 C 0.87316 0.64705 0.85657 0.0
C1881 C 0.86151 0.63116 0.87738 0.0
H1882 H 0.44768 0.17368 0.90343 0.0
H1883 H 0.42909 0.23656 0.9383 0.0
H1884 H 0.39549 0.23344 0.90653 0.0
H1885 H 0.37358 0.21493 0.86798 0.0
H1886 H 0.39189 0.15198 0.83284 0.0
H1887 H 0.42363 0.15328 0.86542 0.0
C1888 C 0.43584 0.1863 0.90422 0.0
C1889 C 0.44089 0.20535 0.92317 0.0
C1890 C 0.41684 0.18469 0.88571 0.0
C1891 C 0.42576 0.22191 0.92381 0.0
C1892 C 0.40655 0.22014 0.90565 0.0
C1893 C 0.38412 0.20114 0.86756 0.0
C1894 C 0.38035 0.18343 0.84791 0.0
C1895 C 0.40227 0.20193 0.88637 0.0
C1896 C 0.39472 0.16614 0.84756 0.0
C1897 C 0.41273 0.16672 0.86627 0.0
H1898 H 0.85878 0.24866 0.92315 0.0
H1899 H 0.76556 0.21758 0.90119 0.0
H1900 H 0.77651 0.20133 0.86411 0.0
H1901 H 0.81297 0.19545 0.83778 0.0
H1902 H 0.90677 0.23047 0.8599 0.0
H1903 H 0.89537 0.24667 0.89649 0.0
C1904 C 0.84084 0.23894 0.91019 0.0
C1905 C 0.81135 0.23461 0.91526 0.0
C1906 C 0.8475 0.23048 0.88865 0.0
C1907 C 0.78839 0.22094 0.8982 0.0
C1908 C 0.79473 0.21188 0.87678 0.0
C1909 C 0.83096 0.20703 0.85048 0.0
C1910 C 0.86062 0.2113 0.84614 0.0
C1911 C 0.82426 0.21651 0.87177 0.0
C1912 C 0.88363 0.22633 0.86288 0.0
C1913 C 0.87715 0.23565 0.88386 0.0
H1914 H 0.23535 0.06757 0.47754 0.0
H1915 H 0.29027 0.15213 0.44313 0.0
H1916 H 0.32444 0.17069 0.47678 0.0
H1917 H 0.34 0.16194 0.51527 0.0
H1918 H 0.28404 0.07804 0.55032 0.0
H1919 H 0.24882 0.06006 0.51723 0.0
C1920 C 0.25475 0.09009 0.47753 0.0
C1921 C 0.26052 0.10844 0.45792 0.0
C1922 C 0.27408 0.10062 0.49699 0.0
C1923 C 0.28541 0.1377 0.45812 0.0
C1924 C 0.30499 0.14824 0.47728 0.0
C1925 C 0.32001 0.13977 0.51562 0.0
C1926 C 0.31464 0.1212 0.53502 0.0
C1927 C 0.29977 0.12977 0.49668 0.0
C1928 C 0.2885 0.09268 0.53553 0.0
C1929 C 0.26848 0.08239 0.51661 0.0
H1930 H 0.95916 0.1886 0.4715 0.0
H1931 H 0.87628 0.13657 0.43211 0.0
H1932 H 0.84523 0.13624 0.46512 0.0
H1933 H 0.84133 0.14895 0.50547 0.0
H1934 H 0.92379 0.20239 0.54497 0.0
H1935 H 0.9552 0.20351 0.51178 0.0
C1936 C 0.93434 0.17759 0.47006 0.0
C1937 C 0.92006 0.16251 0.44939 0.0
C1938 C 0.91651 0.17738 0.48921 0.0
C1939 C 0.88783 0.14803 0.4479 0.0
C1940 C 0.87004 0.14786 0.46676 0.0
C1941 C 0.86619 0.16128 0.50679 0.0
C1942 C 0.88006 0.17559 0.52778 0.0
C1943 C 0.8841 0.16218 0.48756 0.0
C1944 C 0.91236 0.1908 0.5292 0.0
C1945 C 0.93039 0.19167 0.51013 0.0
H1946 H 0.88609 0.73852 0.44248 0.0
H1947 H 0.87277 0.80779 0.47119 0.0
H1948 H 0.86157 0.78383 0.50962 0.0
H1949 H 0.84973 0.74015 0.53385 0.0
H1950 H 0.85951 0.66907 0.50436 0.0
H1951 H 0.87803 0.69659 0.46762 0.0
C1952 C 0.88147 0.74863 0.45735 0.0
C1953 C 0.88041 0.77488 0.4542 0.0
C1954 C 0.87399 0.73414 0.47918 0.0
C1955 C 0.87384 0.78763 0.47338 0.0
C1956 C 0.86728 0.77385 0.49527 0.0
C1957 C 0.85653 0.73102 0.51951 0.0
C1958 C 0.85313 0.70259 0.52175 0.0
C1959 C 0.86643 0.74666 0.49823 0.0
C1960 C 0.86167 0.69082 0.50295 0.0
C1961 C 0.87227 0.70654 0.48195 0.0
loop_
_geom_bond_atom_site_label_1
_geom_bond_atom_site_label_2
_geom_bond_distance
_geom_bond_site_symmetry_2
_ccdc_geom_bond_type
H0 C1 0.949 . S
C1 H0 0.949 . S
C1 C2 1.395 . S
C1 C3 1.391 . S
C2 C1 1.395 . S
C2 C5 1.390 . S
C3 C1 1.391 . S
C3 C7 1.387 . S
C3 C8 1.491 . S
H4 C5 0.950 . S
C5 C2 1.390 . S
C5 H4 0.950 . S
C5 C6 1.378 . S
C6 C5 1.378 . S
C6 C7 1.409 . S
C7 C3 1.387 . S
C7 C6 1.409 . S
C7 H9 0.951 . S
C8 C3 1.491 . S
C8 C10 1.382 . S
C8 C12 1.404 . S
H9 C7 0.951 . S
C10 C8 1.382 . S
C10 C11 1.390 . S
C10 H15 0.949 . S
C11 C10 1.390 . S
C11 C16 1.399 . S
C12 C8 1.404 . S
C12 H13 0.950 . S
C12 C14 1.375 . S
H13 C12 0.950 . S
C14 C12 1.375 . S
C14 C16 1.382 . S
C14 H18 0.950 . S
H15 C10 0.949 . S
C16 C11 1.399 . S
C16 C14 1.382 . S
C16 H17 0.952 . S
H17 C16 0.952 . S
H18 C14 0.950 . S
H19 C20 0.949 . S
C20 H19 0.949 . S
C20 C21 1.395 . S
C20 C22 1.391 . S
C21 C20 1.395 . S
C21 C24 1.390 . S
C22 C20 1.391 . S
C22 C26 1.387 . S
C22 C27 1.491 . S
H23 C24 0.950 . S
C24 C21 1.390 . S
C24 H23 0.950 . S
C24 C25 1.378 . S
C25 C24 1.378 . S
C25 C26 1.409 . S
C26 C22 1.387 . S
C26 C25 1.409 . S
C26 H28 0.951 . S
C27 C22 1.491 . S
C27 C29 1.382 . S
C27 C31 1.404 . S
H28 C26 0.951 . S
C29 C27 1.382 . S
C29 C30 1.390 . S
C29 H34 0.949 . S
C30 C29 1.390 . S
C30 C35 1.417 . S
C31 C27 1.404 . S
C31 H32 0.950 . S
C31 C33 1.375 . S
H32 C31 0.950 . S
C33 C31 1.375 . S
C33 C35 1.388 . S
C33 H37 0.950 . S
H34 C29 0.949 . S
C35 C30 1.417 . S
C35 C33 1.388 . S
C35 H36 0.929 1_545 S
H36 C35 0.929 1_565 S
H37 C33 0.950 . S
H38 C39 0.949 . S
C39 H38 0.949 . S
C39 C40 1.395 . S
C39 C41 1.391 . S
C40 C39 1.395 . S
C40 C43 1.390 . S
C41 C39 1.391 . S
C41 C45 1.387 . S
C41 C46 1.491 . S
H42 C43 0.950 . S
C43 C40 1.390 . S
C43 H42 0.950 . S
C43 C44 1.378 . S
C44 C43 1.378 . S
C44 C45 1.409 . S
C45 C41 1.387 . S
C45 C44 1.409 . S
C45 H47 0.951 . S
C46 C41 1.491 . S
C46 C48 1.382 . S
C46 C50 1.404 . S
H47 C45 0.951 . S
C48 C46 1.382 . S
C48 C49 1.390 1_655 S
C48 H53 0.949 . S
C49 C48 1.390 1_455 S
C49 C54 1.399 . S
C50 C46 1.404 . S
C50 H51 0.950 . S
C50 C52 1.375 . S
H51 C50 0.950 . S
C52 C50 1.375 . S
C52 C54 1.382 1_655 S
C52 H56 0.950 . S
H53 C48 0.949 . S
C54 C49 1.399 . S
C54 C52 1.382 1_455 S
C54 H55 0.952 . S
H55 C54 0.952 . S
H56 C52 0.950 . S
H57 C58 0.949 . S
C58 H57 0.949 . S
C58 C59 1.395 . S
C58 C60 1.391 . S
C59 C58 1.395 . S
C59 C62 1.390 . S
C60 C58 1.391 . S
C60 C64 1.387 . S
C60 C65 1.491 . S
H61 C62 0.950 . S
C62 C59 1.390 . S
C62 H61 0.950 . S
C62 C63 1.378 . S
C63 C62 1.378 . S
C63 C64 1.409 . S
C64 C60 1.387 . S
C64 C63 1.409 . S
C64 H66 0.951 . S
C65 C60 1.491 . S
C65 C67 1.382 . S
C65 C69 1.404 . S
H66 C64 0.951 . S
C67 C65 1.382 . S
C67 C68 1.390 . S
C67 H72 0.949 . S
C68 C67 1.390 . S
C68 C73 1.399 . S
C69 C65 1.404 . S
C69 H70 0.950 . S
C69 C71 1.375 . S
H70 C69 0.950 . S
C71 C69 1.375 . S
C71 C73 1.382 . S
C71 H75 0.950 . S
H72 C67 0.949 . S
C73 C68 1.399 . S
C73 C71 1.382 . S
C73 H74 0.952 . S
H74 C73 0.952 . S
H75 C71 0.950 . S
H76 C77 0.949 . S
C77 H76 0.949 . S
C77 C78 1.395 . S
C77 C79 1.391 . S
C78 C77 1.395 . S
C78 C81 1.390 . S
C79 C77 1.391 . S
C79 C83 1.387 . S
C79 C84 1.491 . S
H80 C81 0.950 . S
C81 C78 1.390 . S
C81 H80 0.950 . S
C81 C82 1.378 . S
C82 C81 1.378 . S
C82 C83 1.409 . S
C83 C79 1.387 . S
C83 C82 1.409 . S
C83 H85 0.951 . S
C84 C79 1.491 . S
C84 C86 1.382 . S
C84 C88 1.404 . S
H85 C83 0.951 . S
C86 C84 1.382 . S
C86 C87 1.390 . S
C86 H91 0.949 . S
C87 C86 1.390 . S
C87 C92 1.399 1_565 S
C88 C84 1.404 . S
C88 H89 0.950 . S
C88 C90 1.375 . S
H89 C88 0.950 . S
C90 C88 1.375 . S
C90 C92 1.382 1_565 S
C90 H94 0.950 . S
H91 C86 0.949 . S
C92 C87 1.399 1_545 S
C92 C90 1.382 1_545 S
C92 H93 0.952 . S
H93 C92 0.952 . S
H94 C90 0.950 . S
H95 C96 0.949 . S
C96 H95 0.949 . S
C96 C97 1.395 . S
C96 C98 1.391 . S
C97 C96 1.395 . S
C97 C100 1.390 . S
C98 C96 1.391 . S
C98 C102 1.387 . S
C98 C103 1.491 . S
H99 C100 0.950 . S
C100 C97 1.390 . S
C100 H99 0.950 . S
C100 C101 1.378 . S
C101 C100 1.378 . S
C101 C102 1.409 . S
C102 C98 1.387 . S
C102 C101 1.409 . S
C102 H104 0.951 . S
C103 C98 1.491 . S
C103 C105 1.382 . S
C103 C107 1.404 . S
H104 C102 0.951 . S
C105 C103 1.382 . S
C105 C106 1.390 . S
C105 H110 0.949 . S
C106 C105 1.390 . S
C106 C111 1.399 1_455 S
C107 C103 1.404 . S
C107 H108 0.950 . S
C107 C109 1.375 . S
H108 C107 0.950 . S
C109 C107 1.375 . S
C109 C111 1.382 1_455 S
C109 H113 0.950 . S
H110 C105 0.949 . S
C111 C106 1.399 1_655 S
C111 C109 1.382 1_655 S
C111 H112 0.952 . S
H112 C111 0.952 . S
H113 C109 0.950 . S
H114 C115 0.949 . S
C115 H114 0.949 . S
C115 C116 1.395 . S
C115 C117 1.391 . S
C116 C115 1.395 . S
C116 C119 1.390 . S
C117 C115 1.391 . S
C117 C121 1.387 . S
C117 C122 1.491 . S
H118 C119 0.950 . S
C119 C116 1.390 . S
C119 H118 0.950 . S
C119 C120 1.378 . S
C120 C119 1.378 . S
C120 C121 1.409 . S
C121 C117 1.387 . S
C121 C120 1.409 . S
C121 H123 0.951 . S
C122 C117 1.491 . S
C122 C124 1.382 . S
C122 C126 1.404 . S
H123 C121 0.951 . S
C124 C122 1.382 . S
C124 C125 1.390 . S
C124 H129 0.949 . S
C125 C124 1.390 . S
C125 C130 1.399 . S
C126 C122 1.404 . S
C126 H127 0.950 . S
C126 C128 1.375 . S
H127 C126 0.950 . S
C128 C126 1.375 . S
C128 C130 1.382 . S
C128 H132 0.950 . S
H129 C124 0.949 . S
C130 C125 1.399 . S
C130 C128 1.382 . S
C130 H131 0.952 . S
H131 C130 0.952 . S
H132 C128 0.950 . S
H133 C134 0.949 . S
C134 H133 0.949 . S
C134 C135 1.395 . S
C134 C136 1.391 . S
C135 C134 1.395 . S
C135 C138 1.390 . S
C136 C134 1.391 . S
C136 C140 1.387 . S
C136 C141 1.491 . S
H137 C138 0.950 . S
C138 C135 1.390 . S
C138 H137 0.950 . S
C138 C139 1.378 . S
C139 C138 1.378 . S
C139 C140 1.409 . S
C140 C136 1.387 . S
C140 C139 1.409 . S
C140 H142 0.951 . S
C141 C136 1.491 . S
C141 C143 1.382 . S
C141 C145 1.404 . S
H142 C140 0.951 . S
C143 C141 1.382 . S
C143 C144 1.390 . S
C143 H148 0.949 . S
C144 C143 1.390 . S
C144 C149 1.399 . S
C145 C141 1.404 . S
C145 H146 0.950 . S
C145 C147 1.375 . S
H146 C145 0.950 . S
C147 C145 1.375 . S
C147 C149 1.382 . S
C147 H151 0.950 . S
H148 C143 0.949 . S
C149 C144 1.399 . S
C149 C147 1.382 . S
C149 H150 0.952 . S
H150 C149 0.952 . S
H151 C147 0.950 . S
H152 C153 0.949 . S
C153 H152 0.949 . S
C153 C154 1.395 . S
C153 C155 1.391 . S
C154 C153 1.395 . S
C154 C157 1.390 . S
C155 C153 1.391 . S
C155 C159 1.387 . S
C155 C160 1.491 . S
H156 C157 0.950 . S
C157 C154 1.390 . S
C157 H156 0.950 . S
C157 C158 1.378 . S
C158 C157 1.378 . S
C158 C159 1.409 . S
C159 C155 1.387 . S
C159 C158 1.409 . S
C159 H161 0.951 . S
C160 C155 1.491 . S
C160 C162 1.382 . S
C160 C164 1.404 . S
H161 C159 0.951 . S
C162 C160 1.382 . S
C162 C163 1.390 . S
C162 H167 0.949 . S
C163 C162 1.390 . S
C163 C168 1.399 . S
C164 C160 1.404 . S
C164 H165 0.950 . S
C164 C166 1.375 . S
H165 C164 0.950 . S
C166 C164 1.375 . S
C166 C168 1.382 . S
C166 H170 0.950 . S
H167 C162 0.949 . S
C168 C163 1.399 . S
C168 C166 1.382 . S
C168 H169 0.952 . S
H169 C168 0.952 . S
H170 C166 0.950 . S
H171 C172 0.949 . S
C172 H171 0.949 . S
C172 C173 1.395 . S
C172 C174 1.391 . S
C173 C172 1.395 . S
C173 C176 1.390 . S
C174 C172 1.391 . S
C174 C178 1.387 . S
C174 C179 1.491 . S
H175 C176 0.950 . S
C176 C173 1.390 . S
C176 H175 0.950 . S
C176 C177 1.378 . S
C177 C176 1.378 . S
C177 C178 1.409 . S
C178 C174 1.387 . S
C178 C177 1.409 . S
C178 H180 0.951 . S
C179 C174 1.491 . S
C179 C181 1.382 . S
C179 C183 1.404 . S
H180 C178 0.951 . S
C181 C179 1.382 . S
C181 C182 1.390 . S
C181 H186 0.949 . S
C182 C181 1.390 . S
C182 C187 1.399 . S
C183 C179 1.404 . S
C183 H184 0.950 . S
C183 C185 1.375 . S
H184 C183 0.950 . S
C185 C183 1.375 . S
C185 C187 1.382 . S
C185 H189 0.943 1_556 S
H186 C181 0.949 . S
C187 C182 1.399 . S
C187 C185 1.382 . S
C187 H188 0.952 . S
H188 C187 0.952 . S
H189 C185 0.943 1_554 S
H190 C191 0.949 . S
C191 H190 0.949 . S
C191 C192 1.395 . S
C191 C193 1.391 . S
C192 C191 1.395 . S
C192 C195 1.390 . S
C193 C191 1.391 . S
C193 C197 1.387 . S
C193 C198 1.491 . S
H194 C195 0.950 . S
C195 C192 1.390 . S
C195 H194 0.950 . S
C195 C196 1.378 . S
C196 C195 1.378 . S
C196 C197 1.409 . S
C197 C193 1.387 . S
C197 C196 1.409 . S
C197 H199 0.951 . S
C198 C193 1.491 . S
C198 C200 1.382 . S
C198 C202 1.404 . S
H199 C197 0.951 . S
C200 C198 1.382 . S
C200 C201 1.390 . S
C200 H205 0.949 . S
C201 C200 1.390 . S
C201 C206 1.401 . S
C202 C198 1.404 . S
C202 H203 0.950 . S
C202 C204 1.375 1_556 S
H203 C202 0.950 . S
C204 C202 1.375 1_554 S
C204 C206 1.382 1_554 S
C204 H208 0.950 . S
H205 C200 0.949 . S
C206 C201 1.401 . S
C206 C204 1.382 1_556 S
C206 H207 0.950 1_556 S
H207 C206 0.950 1_554 S
H208 C204 0.950 . S
H209 C210 0.949 . S
C210 H209 0.949 . S
C210 C211 1.395 . S
C210 C212 1.391 . S
C211 C210 1.395 . S
C211 C214 1.390 . S
C212 C210 1.391 . S
C212 C216 1.387 . S
C212 C217 1.491 . S
H213 C214 0.950 . S
C214 C211 1.390 . S
C214 H213 0.950 . S
C214 C215 1.378 . S
C215 C214 1.378 . S
C215 C216 1.409 . S
C216 C212 1.387 . S
C216 C215 1.409 . S
C216 H218 0.951 . S
C217 C212 1.491 . S
C217 C219 1.382 . S
C217 C221 1.404 . S
H218 C216 0.951 . S
C219 C217 1.382 . S
C219 C220 1.390 . S
C219 H224 0.949 . S
C220 C219 1.390 . S
C220 C225 1.399 . S
C221 C217 1.404 . S
C221 H222 0.950 . S
C221 C223 1.375 . S
H222 C221 0.950 . S
C223 C221 1.375 . S
C223 C225 1.382 . S
C223 H227 0.950 1_556 S
H224 C219 0.949 . S
C225 C220 1.399 . S
C225 C223 1.382 . S
C225 H226 0.952 1_556 S
H226 C225 0.952 1_554 S
H227 C223 0.950 1_554 S
H228 C229 0.949 . S
C229 H228 0.949 . S
C229 C230 1.395 . S
C229 C231 1.391 . S
C230 C229 1.395 . S
C230 C233 1.390 . S
C231 C229 1.391 . S
C231 C235 1.387 . S
C231 C236 1.491 . S
H232 C233 0.950 . S
C233 C230 1.390 . S
C233 H232 0.950 . S
C233 C234 1.378 . S
C234 C233 1.378 . S
C234 C235 1.409 . S
C235 C231 1.387 . S
C235 C234 1.409 . S
C235 H237 0.951 . S
C236 C231 1.491 . S
C236 C238 1.382 . S
C236 C240 1.404 . S
H237 C235 0.951 . S
C238 C236 1.382 . S
C238 C239 1.390 . S
C238 H243 0.949 . S
C239 C238 1.390 . S
C239 C244 1.399 . S
C240 C236 1.404 . S
C240 H241 0.950 . S
C240 C242 1.375 . S
H241 C240 0.950 . S
C242 C240 1.375 . S
C242 C244 1.382 . S
C242 H246 0.950 . S
H243 C238 0.949 . S
C244 C239 1.399 . S
C244 C242 1.382 . S
C244 H245 0.952 . S
H245 C244 0.952 . S
H246 C242 0.950 . S
H247 C248 0.949 . S
C248 H247 0.949 . S
C248 C249 1.395 . S
C248 C250 1.391 . S
C249 C248 1.395 . S
C249 C252 1.390 . S
C250 C248 1.391 . S
C250 C254 1.387 . S
C250 C255 1.491 . S
H251 C252 0.950 . S
C252 C249 1.390 . S
C252 H251 0.950 . S
C252 C253 1.378 . S
C253 C252 1.378 . S
C253 C254 1.409 . S
C254 C250 1.387 . S
C254 C253 1.409 . S
C254 H256 0.951 . S
C255 C250 1.491 . S
C255 C257 1.382 . S
C255 C259 1.404 . S
H256 C254 0.951 . S
C257 C255 1.382 . S
C257 C258 1.390 . S
C257 H262 0.949 . S
C258 C257 1.390 . S
C258 C263 1.399 . S
C259 C255 1.404 . S
C259 H260 0.950 . S
C259 C261 1.375 . S
H260 C259 0.950 . S
C261 C259 1.375 . S
C261 C263 1.382 . S
C261 H265 0.950 . S
H262 C257 0.949 . S
C263 C258 1.399 . S
C263 C261 1.382 . S
C263 H264 0.952 . S
H264 C263 0.952 . S
H265 C261 0.950 . S
H266 C267 0.949 . S
C267 H266 0.949 . S
C267 C268 1.395 . S
C267 C269 1.391 . S
C268 C267 1.395 . S
C268 C271 1.390 . S
C269 C267 1.391 . S
C269 C273 1.387 . S
C269 C274 1.491 . S
H270 C271 0.950 . S
C271 C268 1.390 . S
C271 H270 0.950 . S
C271 C272 1.378 . S
C272 C271 1.378 . S
C272 C273 1.409 . S
C273 C269 1.387 . S
C273 C272 1.409 . S
C273 H275 0.951 . S
C274 C269 1.491 . S
C274 C276 1.382 . S
C274 C278 1.404 . S
H275 C273 0.951 . S
C276 C274 1.382 . S
C276 C277 1.390 . S
C276 H281 0.949 . S
C277 C276 1.390 . S
C277 C282 1.399 . S
C278 C274 1.404 . S
C278 H279 0.950 . S
C278 C280 1.375 . S
H279 C278 0.950 . S
C280 C278 1.375 . S
C280 C282 1.382 . S
C280 H284 0.950 . S
H281 C276 0.949 . S
C282 C277 1.399 . S
C282 C280 1.382 . S
C282 H283 0.952 . S
H283 C282 0.952 . S
H284 C280 0.950 . S
H285 C286 0.949 . S
C286 H285 0.949 . S
C286 C287 1.395 . S
C286 C288 1.391 . S
C287 C286 1.395 . S
C287 C290 1.390 . S
C288 C286 1.391 . S
C288 C292 1.387 . S
C288 C293 1.491 . S
H289 C290 0.950 . S
C290 C287 1.390 . S
C290 H289 0.950 . S
C290 C291 1.378 . S
C291 C290 1.378 . S
C291 C292 1.409 . S
C292 C288 1.387 . S
C292 C291 1.409 . S
C292 H294 0.951 . S
C293 C288 1.491 . S
C293 C295 1.382 . S
C293 C297 1.404 . S
H294 C292 0.951 . S
C295 C293 1.382 . S
C295 C296 1.390 . S
C295 H300 0.949 . S
C296 C295 1.390 . S
C296 C301 1.399 . S
C297 C293 1.404 . S
C297 H298 0.950 . S
C297 C299 1.375 . S
H298 C297 0.950 . S
C299 C297 1.375 . S
C299 C301 1.382 . S
C299 H303 0.950 . S
H300 C295 0.949 . S
C301 C296 1.399 . S
C301 C299 1.382 . S
C301 H302 0.952 . S
H302 C301 0.952 . S
H303 C299 0.950 . S
H304 C305 0.949 . S
C305 H304 0.949 . S
C305 C306 1.395 . S
C305 C307 1.391 . S
C306 C305 1.395 . S
C306 C309 1.390 . S
C307 C305 1.391 . S
C307 C311 1.387 . S
C307 C312 1.491 . S
H308 C309 0.950 . S
C309 C306 1.390 . S
C309 H308 0.950 . S
C309 C310 1.378 . S
C310 C309 1.378 . S
C310 C311 1.409 . S
C311 C307 1.387 . S
C311 C310 1.409 . S
C311 H313 0.951 . S
C312 C307 1.491 . S
C312 C314 1.382 . S
C312 C316 1.404 . S
H313 C311 0.951 . S
C314 C312 1.382 . S
C314 C315 1.390 . S
C314 H319 0.949 . S
C315 C314 1.390 . S
C315 C320 1.399 . S
C316 C312 1.404 . S
C316 H317 0.950 . S
C316 C318 1.375 . S
H317 C316 0.950 . S
C318 C316 1.375 . S
C318 C320 1.382 . S
C318 H322 0.950 . S
H319 C314 0.949 . S
C320 C315 1.399 . S
C320 C318 1.382 . S
C320 H321 0.952 . S
H321 C320 0.952 . S
H322 C318 0.950 . S
H323 C324 0.949 . S
C324 H323 0.949 . S
C324 C325 1.395 . S
C324 C326 1.391 . S
C325 C324 1.395 . S
C325 C328 1.390 . S
C326 C324 1.391 . S
C326 C330 1.387 . S
C326 C331 1.491 . S
H327 C328 0.950 . S
C328 C325 1.390 . S
C328 H327 0.950 . S
C328 C329 1.378 . S
C329 C328 1.378 . S
C329 C330 1.409 . S
C330 C326 1.387 . S
C330 C329 1.409 . S
C330 H332 0.951 . S
C331 C326 1.491 . S
C331 C333 1.382 . S
C331 C335 1.404 . S
H332 C330 0.951 . S
C333 C331 1.382 . S
C333 C334 1.390 . S
C333 H338 0.949 . S
C334 C333 1.390 . S
C334 C339 1.399 . S
C335 C331 1.404 . S
C335 H336 0.950 . S
C335 C337 1.375 . S
H336 C335 0.950 . S
C337 C335 1.375 . S
C337 C339 1.382 . S
C337 H341 0.950 . S
H338 C333 0.949 . S
C339 C334 1.399 . S
C339 C337 1.382 . S
C339 H340 0.952 . S
H340 C339 0.952 . S
H341 C337 0.950 . S
Gd342 N373 2.661 . S
Gd342 N379 2.601 . S
Gd342 O386 2.545 . S
Gd342 O387 2.606 1_545 S
Gd342 O389 2.429 . S
Gd342 O390 2.545 1_545 S
Gd342 O391 2.412 1_545 S
Gd342 O393 2.362 . S
Gd342 O394 2.324 1_545 S
Gd342 C401 2.828 1_545 S
Gd343 N352 2.661 . S
Gd343 N356 2.601 . S
Gd343 O387 2.362 1_556 S
Gd343 O388 2.324 1_565 S
Gd343 O392 2.545 . S
Gd343 O393 2.606 1_566 S
Gd343 O395 2.429 . S
Gd343 O396 2.545 1_565 S
Gd343 O397 2.412 1_565 S
Gd343 C410 2.828 1_565 S
C344 C347 1.417 . S
C344 C349 1.431 . S
C344 C350 1.412 . S
C345 C348 1.437 . S
C345 C349 1.317 . S
C345 H364 0.929 . S
C346 C347 1.426 . S
C346 C348 1.413 . S
C346 N356 1.359 . S
C347 C344 1.417 . S
C347 C346 1.426 . S
C347 N352 1.350 . S
C348 C345 1.437 . S
C348 C346 1.413 . S
C348 C358 1.391 . S
C349 C344 1.431 . S
C349 C345 1.317 . S
C349 H360 0.930 . S
C350 C344 1.412 . S
C350 C351 1.355 . S
C350 H362 0.930 . S
C351 C350 1.355 . S
C351 C353 1.402 . S
C351 H363 0.930 . S
N352 Gd343 2.661 . S
N352 C347 1.350 . S
N352 C353 1.307 . S
C353 C351 1.402 . S
C353 N352 1.307 . S
C353 H354 0.930 . S
H354 C353 0.930 . S
C355 N356 1.334 . S
C355 C357 1.394 . S
C355 H359 0.930 . S
N356 Gd343 2.601 . S
N356 C346 1.359 . S
N356 C355 1.334 . S
C357 C355 1.394 . S
C357 C358 1.359 . S
C357 H369 0.930 . S
C358 C348 1.391 . S
C358 C357 1.359 . S
C358 H370 0.929 . S
H359 C355 0.930 . S
H360 C349 0.930 . S
H361 C378 0.930 . S
H362 C350 0.930 . S
H363 C351 0.930 . S
H364 C345 0.929 . S
H365 C383 0.930 . S
H366 C374 0.930 . S
H367 C375 0.930 . S
H368 C399 0.929 . S
H369 C357 0.930 . S
H370 C358 0.929 . S
H371 C400 0.930 . S
H372 C381 0.930 . S
N373 Gd342 2.661 . S
N373 C377 1.350 . S
N373 C378 1.307 . S
C374 H366 0.930 . S
C374 C375 1.355 . S
C374 C376 1.412 . S
C375 H367 0.930 . S
C375 C374 1.355 . S
C375 C378 1.402 . S
C376 C374 1.412 . S
C376 C377 1.417 . S
C376 C400 1.431 . S
C377 N373 1.350 . S
C377 C376 1.417 . S
C377 C380 1.426 . S
C378 H361 0.930 . S
C378 N373 1.307 . S
C378 C375 1.402 . S
N379 Gd342 2.601 . S
N379 C380 1.359 . S
N379 C383 1.334 . S
C380 C377 1.426 . S
C380 N379 1.359 . S
C380 C384 1.413 . S
C381 H372 0.930 . S
C381 C382 1.359 . S
C381 C383 1.394 . S
C382 C381 1.359 . S
C382 C384 1.391 . S
C382 H385 0.929 . S
C383 H365 0.930 . S
C383 N379 1.334 . S
C383 C381 1.394 . S
C384 C380 1.413 . S
C384 C382 1.391 . S
C384 C399 1.437 . S
H385 C382 0.929 . S
O386 Gd342 2.545 . S
O386 C401 1.252 1_545 S
O387 Gd342 2.606 1_565 S
O387 Gd343 2.362 1_554 S
O387 C398 1.284 . S
O388 Gd343 2.324 1_545 S
O388 C408 1.254 1_556 S
O389 Gd342 2.429 . S
O389 C408 1.268 . S
O390 Gd342 2.545 1_565 S
O390 C398 1.250 . S
O391 Gd342 2.412 1_565 S
O391 C401 1.256 . S
O392 Gd343 2.545 . S
O392 C410 1.258 1_565 S
O393 Gd342 2.362 . S
O393 Gd343 2.606 1_544 S
O393 C409 1.284 1_554 S
O394 Gd342 2.324 1_565 S
O394 C417 1.254 . S
O395 Gd343 2.429 . S
O395 C417 1.268 1_556 S
O396 Gd343 2.545 1_545 S
O396 C409 1.250 . S
O397 Gd343 2.412 1_545 S
O397 C410 1.252 . S
C398 O387 1.284 . S
C398 O390 1.250 . S
C399 H368 0.929 . S
C399 C384 1.437 . S
C399 C400 1.317 . S
C400 H371 0.930 . S
C400 C376 1.431 . S
C400 C399 1.317 . S
C401 Gd342 2.828 1_565 S
C401 O386 1.252 1_565 S
C401 O391 1.256 . S
C401 C402 1.498 . S
C402 C401 1.498 . S
C402 C403 1.395 1_565 S
C402 C404 1.380 . S
C403 C402 1.395 1_545 S
C403 C406 1.398 1_545 S
C403 H418 0.930 . S
C404 C402 1.380 . S
C404 C405 1.391 . S
C404 H419 0.930 . S
C405 C404 1.391 . S
C405 C407 1.387 . S
C406 C403 1.398 1_565 S
C406 C407 1.380 . S
C406 H420 0.930 1_565 S
C407 C405 1.387 . S
C407 C406 1.380 . S
C407 H421 0.930 . S
C408 O388 1.254 1_554 S
C408 O389 1.268 . S
C409 O393 1.284 1_556 S
C409 O396 1.250 . S
C410 Gd343 2.828 1_545 S
C410 O392 1.258 1_545 S
C410 O397 1.252 . S
C410 C411 1.497 . S
C411 C410 1.497 . S
C411 C412 1.395 1_545 S
C411 C413 1.380 . S
C412 C411 1.395 1_565 S
C412 C415 1.398 1_565 S
C412 H422 0.930 . S
C413 C411 1.380 . S
C413 C414 1.391 . S
C413 H423 0.930 . S
C414 C413 1.391 . S
C414 C416 1.387 . S
C415 C412 1.398 1_545 S
C415 C416 1.380 . S
C415 H424 0.930 1_545 S
C416 C414 1.387 . S
C416 C415 1.380 . S
C416 H425 0.930 . S
C417 O394 1.254 . S
C417 O395 1.268 1_554 S
H418 C403 0.930 . S
H419 C404 0.930 . S
H420 C406 0.930 1_545 S
H421 C407 0.930 . S
H422 C412 0.930 . S
H423 C413 0.930 . S
H424 C415 0.930 1_565 S
H425 C416 0.930 . S
Gd426 N457 2.661 . S
Gd426 N463 2.601 . S
Gd426 O470 2.545 . S
Gd426 O471 2.606 1_655 S
Gd426 O473 2.429 . S
Gd426 O474 2.545 1_655 S
Gd426 O475 2.412 1_655 S
Gd426 O477 2.362 . S
Gd426 O478 2.324 1_655 S
Gd426 C485 2.828 1_655 S
Gd427 N436 2.661 . S
Gd427 N440 2.601 . S
Gd427 O471 2.362 1_556 S
Gd427 O472 2.324 1_455 S
Gd427 O476 2.545 . S
Gd427 O477 2.606 1_456 S
Gd427 O479 2.429 . S
Gd427 O480 2.545 1_455 S
Gd427 O481 2.412 1_455 S
Gd427 C494 2.828 . S
C428 C431 1.417 . S
C428 C433 1.431 . S
C428 C434 1.412 . S
C429 C432 1.437 . S
C429 C433 1.317 . S
C429 H448 0.929 . S
C430 C431 1.426 . S
C430 C432 1.413 . S
C430 N440 1.359 . S
C431 C428 1.417 . S
C431 C430 1.426 . S
C431 N436 1.350 . S
C432 C429 1.437 . S
C432 C430 1.413 . S
C432 C442 1.391 . S
C433 C428 1.431 . S
C433 C429 1.317 . S
C433 H444 0.930 . S
C434 C428 1.412 . S
C434 C435 1.355 . S
C434 H446 0.930 . S
C435 C434 1.355 . S
C435 C437 1.402 . S
C435 H447 0.930 . S
N436 Gd427 2.661 . S
N436 C431 1.350 . S
N436 C437 1.307 . S
C437 C435 1.402 . S
C437 N436 1.307 . S
C437 H438 0.930 . S
H438 C437 0.930 . S
C439 N440 1.334 . S
C439 C441 1.394 . S
C439 H443 0.930 . S
N440 Gd427 2.601 . S
N440 C430 1.359 . S
N440 C439 1.334 . S
C441 C439 1.394 . S
C441 C442 1.359 . S
C441 H453 0.930 . S
C442 C432 1.391 . S
C442 C441 1.359 . S
C442 H454 0.929 . S
H443 C439 0.930 . S
H444 C433 0.930 . S
H445 C462 0.953 . S
H446 C434 0.930 . S
H447 C435 0.930 . S
H448 C429 0.929 . S
H449 C467 0.930 . S
H450 C458 0.930 . S
H451 C459 0.930 . S
H452 C483 0.929 . S
H453 C441 0.930 . S
H454 C442 0.929 . S
H455 C484 0.930 . S
H456 C465 0.930 . S
N457 Gd426 2.661 . S
N457 C461 1.350 . S
N457 C462 1.307 . S
C458 H450 0.930 . S
C458 C459 1.355 . S
C458 C460 1.412 . S
C459 H451 0.930 . S
C459 C458 1.355 . S
C459 C462 1.402 . S
C460 C458 1.412 . S
C460 C461 1.417 . S
C460 C484 1.431 . S
C461 N457 1.350 . S
C461 C460 1.417 . S
C461 C464 1.426 . S
C462 H445 0.953 . S
C462 N457 1.307 . S
C462 C459 1.402 . S
N463 Gd426 2.601 . S
N463 C464 1.359 . S
N463 C467 1.334 . S
C464 C461 1.426 . S
C464 N463 1.359 . S
C464 C468 1.413 . S
C465 H456 0.930 . S
C465 C466 1.359 . S
C465 C467 1.394 . S
C466 C465 1.359 . S
C466 C468 1.391 . S
C466 H469 0.929 . S
C467 H449 0.930 . S
C467 N463 1.334 . S
C467 C465 1.394 . S
C468 C464 1.413 . S
C468 C466 1.391 . S
C468 C483 1.437 . S
H469 C466 0.929 . S
O470 Gd426 2.545 . S
O470 C485 1.258 1_655 S
O471 Gd426 2.606 1_455 S
O471 Gd427 2.362 1_554 S
O471 C482 1.284 . S
O472 Gd427 2.324 1_655 S
O472 C492 1.254 1_556 S
O473 Gd426 2.429 . S
O473 C492 1.268 . S
O474 Gd426 2.545 1_455 S
O474 C482 1.250 . S
O475 Gd426 2.412 1_455 S
O475 C485 1.252 . S
O476 Gd427 2.545 . S
O476 C494 1.258 . S
O477 Gd426 2.362 . S
O477 Gd427 2.606 1_654 S
O477 C493 1.284 1_554 S
O478 Gd426 2.324 1_455 S
O478 C501 1.254 . S
O479 Gd427 2.429 . S
O479 C501 1.268 1_556 S
O480 Gd427 2.545 1_655 S
O480 C493 1.250 . S
O481 Gd427 2.412 1_655 S
O481 C494 1.252 1_655 S
C482 O471 1.284 . S
C482 O474 1.250 . S
C483 H452 0.929 . S
C483 C468 1.437 . S
C483 C484 1.317 . S
C484 H455 0.930 . S
C484 C460 1.431 . S
C484 C483 1.317 . S
C485 Gd426 2.828 1_455 S
C485 O470 1.258 1_455 S
C485 O475 1.252 . S
C485 C486 1.497 . S
C486 C485 1.497 . S
C486 C487 1.395 1_455 S
C486 C488 1.380 . S
C487 C486 1.395 1_655 S
C487 C490 1.398 1_655 S
C487 H502 0.930 . S
C488 C486 1.380 . S
C488 C489 1.391 . S
C488 H503 0.930 . S
C489 C488 1.391 . S
C489 C491 1.387 . S
C490 C487 1.398 1_455 S
C490 C491 1.380 . S
C490 H504 0.930 1_455 S
C491 C489 1.387 . S
C491 C490 1.380 . S
C491 H505 0.930 . S
C492 O472 1.254 1_554 S
C492 O473 1.268 . S
C493 O477 1.284 1_556 S
C493 O480 1.250 . S
C494 Gd427 2.828 . S
C494 O476 1.258 . S
C494 O481 1.252 1_455 S
C494 C495 1.497 1_455 S
C495 C494 1.497 1_655 S
C495 C496 1.395 1_655 S
C495 C497 1.380 . S
C496 C495 1.395 1_455 S
C496 C499 1.398 . S
C496 H506 0.930 . S
C497 C495 1.380 . S
C497 C498 1.391 . S
C497 H507 0.930 . S
C498 C497 1.391 . S
C498 C500 1.387 . S
C499 C496 1.398 . S
C499 C500 1.380 1_455 S
C499 H508 0.930 . S
C500 C498 1.387 . S
C500 C499 1.380 1_655 S
C500 H509 0.930 . S
C501 O478 1.254 . S
C501 O479 1.268 1_554 S
H502 C487 0.930 . S
H503 C488 0.930 . S
H504 C490 0.930 1_655 S
H505 C491 0.930 . S
H506 C496 0.930 . S
H507 C497 0.930 . S
H508 C499 0.930 . S
H509 C500 0.930 . S
Gd510 N541 2.661 . S
Gd510 N547 2.601 . S
Gd510 O554 2.545 . S
Gd510 O555 2.606 1_556 S
Gd510 O557 2.429 . S
Gd510 O558 2.545 . S
Gd510 O559 2.412 . S
Gd510 O561 2.362 1_556 S
Gd510 O562 2.324 . S
Gd510 C569 2.828 . S
Gd511 N520 2.661 . S
Gd511 N524 2.601 . S
Gd511 O555 2.362 . S
Gd511 O556 2.324 . S
Gd511 O560 2.545 . S
Gd511 O561 2.606 . S
Gd511 O563 2.429 . S
Gd511 O564 2.545 . S
Gd511 O565 2.412 . S
Gd511 C578 2.828 . S
C512 C515 1.417 . S
C512 C517 1.431 . S
C512 C518 1.412 . S
C513 C516 1.437 . S
C513 C517 1.317 . S
C513 H532 0.929 . S
C514 C515 1.426 . S
C514 C516 1.413 . S
C514 N524 1.359 . S
C515 C512 1.417 . S
C515 C514 1.426 . S
C515 N520 1.350 . S
C516 C513 1.437 . S
C516 C514 1.413 . S
C516 C526 1.391 . S
C517 C512 1.431 . S
C517 C513 1.317 . S
C517 H528 0.930 . S
C518 C512 1.412 . S
C518 C519 1.355 . S
C518 H530 0.930 . S
C519 C518 1.355 . S
C519 C521 1.402 . S
C519 H531 0.930 . S
N520 Gd511 2.661 . S
N520 C515 1.350 . S
N520 C521 1.307 . S
C521 C519 1.402 . S
C521 N520 1.307 . S
C521 H522 0.930 . S
H522 C521 0.930 . S
C523 N524 1.334 . S
C523 C525 1.394 . S
C523 H527 0.930 . S
N524 Gd511 2.601 . S
N524 C514 1.359 . S
N524 C523 1.334 . S
C525 C523 1.394 . S
C525 C526 1.359 . S
C525 H537 0.930 . S
C526 C516 1.391 . S
C526 C525 1.359 . S
C526 H538 0.929 . S
H527 C523 0.930 . S
H528 C517 0.930 . S
H529 C546 0.930 . S
H530 C518 0.930 . S
H531 C519 0.930 . S
H532 C513 0.929 . S
H533 C551 0.930 . S
H534 C542 0.930 . S
H535 C543 0.930 . S
H536 C567 0.929 . S
H537 C525 0.930 . S
H538 C526 0.929 . S
H539 C568 0.930 . S
H540 C549 0.930 . S
N541 Gd510 2.661 . S
N541 C545 1.350 . S
N541 C546 1.307 . S
C542 H534 0.930 . S
C542 C543 1.355 . S
C542 C544 1.412 . S
C543 H535 0.930 . S
C543 C542 1.355 . S
C543 C546 1.402 . S
C544 C542 1.412 . S
C544 C545 1.417 . S
C544 C568 1.431 . S
C545 N541 1.350 . S
C545 C544 1.417 . S
C545 C548 1.426 . S
C546 H529 0.930 . S
C546 N541 1.307 . S
C546 C543 1.402 . S
N547 Gd510 2.601 . S
N547 C548 1.359 . S
N547 C551 1.334 . S
C548 C545 1.426 . S
C548 N547 1.359 . S
C548 C552 1.413 . S
C549 H540 0.930 . S
C549 C550 1.359 . S
C549 C551 1.394 . S
C550 C549 1.359 . S
C550 C552 1.391 . S
C550 H553 0.929 . S
C551 H533 0.930 . S
C551 N547 1.334 . S
C551 C549 1.394 . S
C552 C548 1.413 . S
C552 C550 1.391 . S
C552 C567 1.437 . S
H553 C550 0.929 . S
O554 Gd510 2.545 . S
O554 C569 1.258 . S
O555 Gd510 2.606 1_554 S
O555 Gd511 2.362 . S
O555 C566 1.284 1_554 S
O556 Gd511 2.324 . S
O556 C576 1.254 . S
O557 Gd510 2.429 . S
O557 C576 1.268 1_556 S
O558 Gd510 2.545 . S
O558 C566 1.250 . S
O559 Gd510 2.412 . S
O559 C569 1.252 . S
O560 Gd511 2.545 . S
O560 C578 1.258 . S
O561 Gd510 2.362 1_554 S
O561 Gd511 2.606 . S
O561 C577 1.284 . S
O562 Gd510 2.324 . S
O562 C585 1.254 1_556 S
O563 Gd511 2.429 . S
O563 C585 1.268 . S
O564 Gd511 2.545 . S
O564 C577 1.250 . S
O565 Gd511 2.412 . S
O565 C578 1.252 . S
C566 O555 1.284 1_556 S
C566 O558 1.250 . S
C567 H536 0.929 . S
C567 C552 1.437 . S
C567 C568 1.317 . S
C568 H539 0.930 . S
C568 C544 1.431 . S
C568 C567 1.317 . S
C569 Gd510 2.828 . S
C569 O554 1.258 . S
C569 O559 1.252 . S
C569 C570 1.497 . S
C570 C569 1.497 . S
C570 C571 1.395 . S
C570 C572 1.380 . S
C571 C570 1.395 . S
C571 C574 1.398 . S
C571 H586 0.930 . S
C572 C570 1.380 . S
C572 C573 1.391 . S
C572 H587 0.930 . S
C573 C572 1.391 . S
C573 C575 1.387 . S
C574 C571 1.398 . S
C574 C575 1.380 . S
C574 H588 0.930 . S
C575 C573 1.387 . S
C575 C574 1.380 . S
C575 H589 0.930 . S
C576 O556 1.254 . S
C576 O557 1.268 1_554 S
C577 O561 1.284 . S
C577 O564 1.250 . S
C578 Gd511 2.828 . S
C578 O560 1.258 . S
C578 O565 1.252 . S
C578 C579 1.497 . S
C579 C578 1.497 . S
C579 C580 1.395 . S
C579 C581 1.380 . S
C580 C579 1.395 . S
C580 C583 1.398 . S
C580 H590 0.930 . S
C581 C579 1.380 . S
C581 C582 1.391 . S
C581 H591 0.930 . S
C582 C581 1.391 . S
C582 C584 1.387 . S
C583 C580 1.398 . S
C583 C584 1.380 . S
C583 H592 0.930 . S
C584 C582 1.387 . S
C584 C583 1.380 . S
C584 H593 0.930 . S
C585 O562 1.254 1_554 S
C585 O563 1.268 . S
H586 C571 0.930 . S
H587 C572 0.930 . S
H588 C574 0.930 . S
H589 C575 0.930 . S
H590 C580 0.930 . S
H591 C581 0.930 . S
H592 C583 0.930 . S
H593 C584 0.930 . S
Gd594 N625 2.661 . S
Gd594 N631 2.601 . S
Gd594 O638 2.545 . S
Gd594 O639 2.606 . S
Gd594 O641 2.429 . S
Gd594 O642 2.545 . S
Gd594 O643 2.412 . S
Gd594 O645 2.362 . S
Gd594 O646 2.324 . S
Gd594 C653 2.828 . S
Gd595 N604 2.661 . S
Gd595 N608 2.601 . S
Gd595 O639 2.362 . S
Gd595 O640 2.324 . S
Gd595 O644 2.545 . S
Gd595 O645 2.606 . S
Gd595 O647 2.429 . S
Gd595 O648 2.545 . S
Gd595 O649 2.412 . S
Gd595 C662 2.828 . S
C596 C599 1.417 . S
C596 C601 1.431 1_455 S
C596 C602 1.412 1_455 S
C597 C600 1.437 . S
C597 C601 1.317 1_455 S
C597 H616 0.929 . S
C598 C599 1.426 . S
C598 C600 1.413 . S
C598 N608 1.359 . S
C599 C596 1.417 . S
C599 C598 1.426 . S
C599 N604 1.350 . S
C600 C597 1.437 . S
C600 C598 1.413 . S
C600 C610 1.391 . S
C601 C596 1.431 1_655 S
C601 C597 1.317 1_655 S
C601 H612 0.930 . S
C602 C596 1.412 1_655 S
C602 C603 1.355 1_655 S
C602 H614 0.930 . S
C603 C602 1.355 1_455 S
C603 C605 1.402 . S
C603 H615 0.951 . S
N604 Gd595 2.661 . S
N604 C599 1.350 . S
N604 C605 1.307 . S
C605 C603 1.402 . S
C605 N604 1.307 . S
C605 H606 0.930 . S
H606 C605 0.930 . S
C607 N608 1.334 . S
C607 C609 1.394 . S
C607 H611 0.930 . S
N608 Gd595 2.601 . S
N608 C598 1.359 . S
N608 C607 1.334 . S
C609 C607 1.394 . S
C609 C610 1.359 . S
C609 H621 0.930 . S
C610 C600 1.391 . S
C610 C609 1.359 . S
C610 H622 0.929 . S
H611 C607 0.930 . S
H612 C601 0.930 . S
H613 C630 0.930 . S
H614 C602 0.930 . S
H615 C603 0.951 . S
H616 C597 0.929 . S
H617 C635 0.930 . S
H618 C626 0.930 . S
H619 C627 0.930 . S
H620 C651 0.929 . S
H621 C609 0.930 . S
H622 C610 0.929 . S
H623 C652 0.930 . S
H624 C633 0.930 . S
N625 Gd594 2.661 . S
N625 C629 1.350 . S
N625 C630 1.307 . S
C626 H618 0.930 . S
C626 C627 1.355 . S
C626 C628 1.412 . S
C627 H619 0.930 . S
C627 C626 1.355 . S
C627 C630 1.402 . S
C628 C626 1.412 . S
C628 C629 1.417 . S
C628 C652 1.431 . S
C629 N625 1.350 . S
C629 C628 1.417 . S
C629 C632 1.426 . S
C630 H613 0.930 . S
C630 N625 1.307 . S
C630 C627 1.402 . S
N631 Gd594 2.601 . S
N631 C632 1.359 . S
N631 C635 1.334 . S
C632 C629 1.426 . S
C632 N631 1.359 . S
C632 C636 1.413 . S
C633 H624 0.930 . S
C633 C634 1.359 . S
C633 C635 1.394 . S
C634 C633 1.359 . S
C634 C636 1.391 . S
C634 H637 0.929 . S
C635 H617 0.930 . S
C635 N631 1.334 . S
C635 C633 1.394 . S
C636 C632 1.413 . S
C636 C634 1.391 . S
C636 C651 1.437 . S
H637 C634 0.929 . S
O638 Gd594 2.545 . S
O638 C653 1.258 . S
O639 Gd594 2.606 . S
O639 Gd595 2.362 . S
O639 C650 1.284 . S
O640 Gd595 2.324 . S
O640 C660 1.254 . S
O641 Gd594 2.429 . S
O641 C660 1.268 . S
O642 Gd594 2.545 . S
O642 C650 1.250 . S
O643 Gd594 2.412 . S
O643 C653 1.252 . S
O644 Gd595 2.545 . S
O644 C662 1.258 . S
O645 Gd594 2.362 . S
O645 Gd595 2.606 . S
O645 C661 1.284 . S
O646 Gd594 2.324 . S
O646 C669 1.254 . S
O647 Gd595 2.429 . S
O647 C669 1.268 . S
O648 Gd595 2.545 . S
O648 C661 1.250 . S
O649 Gd595 2.412 . S
O649 C662 1.252 . S
C650 O639 1.284 . S
C650 O642 1.250 . S
C651 H620 0.929 . S
C651 C636 1.437 . S
C651 C652 1.317 . S
C652 H623 0.930 . S
C652 C628 1.431 . S
C652 C651 1.317 . S
C653 Gd594 2.828 . S
C653 O638 1.258 . S
C653 O643 1.252 . S
C653 C654 1.497 . S
C654 C653 1.497 . S
C654 C655 1.395 . S
C654 C656 1.380 . S
C655 C654 1.395 . S
C655 C658 1.398 . S
C655 H670 0.930 . S
C656 C654 1.380 . S
C656 C657 1.391 . S
C656 H671 0.930 . S
C657 C656 1.391 . S
C657 C659 1.387 . S
C658 C655 1.398 . S
C658 C659 1.380 . S
C658 H672 0.930 . S
C659 C657 1.387 . S
C659 C658 1.380 . S
C659 H673 0.930 . S
C660 O640 1.254 . S
C660 O641 1.268 . S
C661 O645 1.284 . S
C661 O648 1.250 . S
C662 Gd595 2.828 . S
C662 O644 1.258 . S
C662 O649 1.252 . S
C662 C663 1.497 . S
C663 C662 1.497 . S
C663 C664 1.395 . S
C663 C665 1.380 . S
C664 C663 1.395 . S
C664 C667 1.398 . S
C664 H674 0.930 . S
C665 C663 1.380 . S
C665 C666 1.391 . S
C665 H675 0.930 . S
C666 C665 1.391 . S
C666 C668 1.387 . S
C667 C664 1.398 . S
C667 C668 1.380 . S
C667 H676 0.930 . S
C668 C666 1.387 . S
C668 C667 1.380 . S
C668 H677 0.930 . S
C669 O646 1.254 . S
C669 O647 1.268 . S
H670 C655 0.930 . S
H671 C656 0.930 . S
H672 C658 0.930 . S
H673 C659 0.930 . S
H674 C664 0.930 . S
H675 C665 0.930 . S
H676 C667 0.930 . S
H677 C668 0.930 . S
Gd678 N709 2.661 . S
Gd678 N715 2.601 . S
Gd678 O722 2.545 . S
Gd678 O723 2.606 . S
Gd678 O725 2.429 . S
Gd678 O726 2.545 . S
Gd678 O727 2.412 . S
Gd678 O729 2.362 . S
Gd678 O730 2.324 . S
Gd678 C737 2.828 . S
Gd679 N688 2.661 . S
Gd679 N692 2.601 . S
Gd679 O723 2.362 . S
Gd679 O724 2.324 . S
Gd679 O728 2.545 . S
Gd679 O729 2.606 . S
Gd679 O731 2.429 . S
Gd679 O732 2.545 . S
Gd679 O733 2.412 . S
Gd679 C746 2.828 . S
C680 C683 1.417 . S
C680 C685 1.431 . S
C680 C686 1.412 . S
C681 C684 1.437 . S
C681 C685 1.317 . S
C681 H700 0.929 . S
C682 C683 1.426 . S
C682 C684 1.413 . S
C682 N692 1.359 . S
C683 C680 1.417 . S
C683 C682 1.426 . S
C683 N688 1.350 . S
C684 C681 1.437 . S
C684 C682 1.413 . S
C684 C694 1.391 . S
C685 C680 1.431 . S
C685 C681 1.317 . S
C685 H696 0.930 . S
C686 C680 1.412 . S
C686 C687 1.355 . S
C686 H698 0.930 . S
C687 C686 1.355 . S
C687 C689 1.402 . S
C687 H699 0.930 . S
N688 Gd679 2.661 . S
N688 C683 1.350 . S
N688 C689 1.307 . S
C689 C687 1.402 . S
C689 N688 1.307 . S
C689 H690 0.930 . S
H690 C689 0.930 . S
C691 N692 1.334 . S
C691 C693 1.394 . S
C691 H695 0.930 . S
N692 Gd679 2.601 . S
N692 C682 1.359 . S
N692 C691 1.334 . S
C693 C691 1.394 . S
C693 C694 1.359 . S
C693 H705 0.930 . S
C694 C684 1.391 . S
C694 C693 1.359 . S
C694 H706 0.929 . S
H695 C691 0.930 . S
H696 C685 0.930 . S
H697 C714 0.930 . S
H698 C686 0.930 . S
H699 C687 0.930 . S
H700 C681 0.929 . S
H701 C719 0.930 . S
H702 C710 0.930 . S
H703 C711 0.930 . S
H704 C735 0.929 . S
H705 C693 0.930 . S
H706 C694 0.929 . S
H707 C736 0.930 . S
H708 C717 0.930 . S
N709 Gd678 2.661 . S
N709 C713 1.350 . S
N709 C714 1.307 . S
C710 H702 0.930 . S
C710 C711 1.355 . S
C710 C712 1.412 . S
C711 H703 0.930 . S
C711 C710 1.355 . S
C711 C714 1.402 . S
C712 C710 1.412 . S
C712 C713 1.417 . S
C712 C736 1.431 . S
C713 N709 1.350 . S
C713 C712 1.417 . S
C713 C716 1.426 . S
C714 H697 0.930 . S
C714 N709 1.307 . S
C714 C711 1.402 . S
N715 Gd678 2.601 . S
N715 C716 1.359 . S
N715 C719 1.334 . S
C716 C713 1.426 . S
C716 N715 1.359 . S
C716 C720 1.413 . S
C717 H708 0.930 . S
C717 C718 1.359 . S
C717 C719 1.394 . S
C718 C717 1.359 . S
C718 C720 1.391 . S
C718 H721 0.929 . S
C719 H701 0.930 . S
C719 N715 1.334 . S
C719 C717 1.394 . S
C720 C716 1.413 . S
C720 C718 1.391 . S
C720 C735 1.437 . S
H721 C718 0.929 . S
O722 Gd678 2.545 . S
O722 C737 1.258 . S
O723 Gd678 2.606 . S
O723 Gd679 2.362 . S
O723 C734 1.284 . S
O724 Gd679 2.324 . S
O724 C744 1.254 . S
O725 Gd678 2.429 . S
O725 C744 1.268 . S
O726 Gd678 2.545 . S
O726 C734 1.250 . S
O727 Gd678 2.412 . S
O727 C737 1.252 . S
O728 Gd679 2.545 . S
O728 C746 1.258 . S
O729 Gd678 2.362 . S
O729 Gd679 2.606 . S
O729 C745 1.284 . S
O730 Gd678 2.324 . S
O730 C753 1.254 . S
O731 Gd679 2.429 . S
O731 C753 1.268 . S
O732 Gd679 2.545 . S
O732 C745 1.250 . S
O733 Gd679 2.412 . S
O733 C746 1.252 . S
C734 O723 1.284 . S
C734 O726 1.250 . S
C735 H704 0.929 . S
C735 C720 1.437 . S
C735 C736 1.317 . S
C736 H707 0.930 . S
C736 C712 1.431 . S
C736 C735 1.317 . S
C737 Gd678 2.828 . S
C737 O722 1.258 . S
C737 O727 1.252 . S
C737 C738 1.497 . S
C738 C737 1.497 . S
C738 C739 1.395 . S
C738 C740 1.380 . S
C739 C738 1.395 . S
C739 C742 1.398 . S
C739 H754 0.930 . S
C740 C738 1.380 . S
C740 C741 1.391 . S
C740 H755 0.930 . S
C741 C740 1.391 . S
C741 C743 1.387 . S
C742 C739 1.398 . S
C742 C743 1.380 . S
C742 H756 0.930 . S
C743 C741 1.387 . S
C743 C742 1.380 . S
C743 H757 0.930 . S
C744 O724 1.254 . S
C744 O725 1.268 . S
C745 O729 1.284 . S
C745 O732 1.250 . S
C746 Gd679 2.828 . S
C746 O728 1.258 . S
C746 O733 1.252 . S
C746 C747 1.497 . S
C747 C746 1.497 . S
C747 C748 1.395 . S
C747 C749 1.380 . S
C748 C747 1.395 . S
C748 C751 1.398 . S
C748 H758 0.930 . S
C749 C747 1.380 . S
C749 C750 1.391 . S
C749 H759 0.930 . S
C750 C749 1.391 . S
C750 C752 1.387 . S
C751 C748 1.398 . S
C751 C752 1.380 . S
C751 H760 0.930 . S
C752 C750 1.387 . S
C752 C751 1.380 . S
C752 H761 0.930 . S
C753 O730 1.254 . S
C753 O731 1.268 . S
H754 C739 0.930 . S
H755 C740 0.930 . S
H756 C742 0.930 . S
H757 C743 0.930 . S
H758 C748 0.930 . S
H759 C749 0.930 . S
H760 C751 0.930 . S
H761 C752 0.930 . S
Gd762 N793 2.661 . S
Gd762 N799 2.601 . S
Gd762 O806 2.545 . S
Gd762 O807 2.606 . S
Gd762 O809 2.429 . S
Gd762 O810 2.545 . S
Gd762 O811 2.412 . S
Gd762 O813 2.362 . S
Gd762 O814 2.324 . S
Gd762 C821 2.828 . S
Gd763 N772 2.661 . S
Gd763 N776 2.601 . S
Gd763 O807 2.362 . S
Gd763 O808 2.324 . S
Gd763 O812 2.545 . S
Gd763 O813 2.606 . S
Gd763 O815 2.429 . S
Gd763 O816 2.545 . S
Gd763 O817 2.412 . S
Gd763 C830 2.828 . S
C764 C767 1.417 . S
C764 C769 1.431 . S
C764 C770 1.412 . S
C765 C768 1.437 . S
C765 C769 1.317 . S
C765 H784 0.929 . S
C766 C767 1.426 . S
C766 C768 1.413 . S
C766 N776 1.359 . S
C767 C764 1.417 . S
C767 C766 1.426 . S
C767 N772 1.350 . S
C768 C765 1.437 . S
C768 C766 1.413 . S
C768 C778 1.391 . S
C769 C764 1.431 . S
C769 C765 1.317 . S
C769 H780 0.930 . S
C770 C764 1.412 . S
C770 C771 1.355 . S
C770 H782 0.930 . S
C771 C770 1.355 . S
C771 C773 1.402 . S
C771 H783 0.930 . S
N772 Gd763 2.661 . S
N772 C767 1.350 . S
N772 C773 1.307 . S
C773 C771 1.402 . S
C773 N772 1.307 . S
C773 H774 0.930 . S
H774 C773 0.930 . S
C775 N776 1.334 . S
C775 C777 1.394 . S
C775 H779 0.930 . S
N776 Gd763 2.601 . S
N776 C766 1.359 . S
N776 C775 1.334 . S
C777 C775 1.394 . S
C777 C778 1.359 . S
C777 H789 0.930 . S
C778 C768 1.391 . S
C778 C777 1.359 . S
C778 H790 0.929 . S
H779 C775 0.930 . S
H780 C769 0.930 . S
H781 C798 0.930 . S
H782 C770 0.930 . S
H783 C771 0.930 . S
H784 C765 0.929 . S
H785 C803 0.930 . S
H786 C794 0.930 . S
H787 C795 0.930 . S
H788 C819 0.929 . S
H789 C777 0.930 . S
H790 C778 0.929 . S
H791 C820 0.930 . S
H792 C801 0.930 . S
N793 Gd762 2.661 . S
N793 C797 1.350 . S
N793 C798 1.307 . S
C794 H786 0.930 . S
C794 C795 1.355 . S
C794 C796 1.412 . S
C795 H787 0.930 . S
C795 C794 1.355 . S
C795 C798 1.402 . S
C796 C794 1.412 . S
C796 C797 1.417 . S
C796 C820 1.431 . S
C797 N793 1.350 . S
C797 C796 1.417 . S
C797 C800 1.426 . S
C798 H781 0.930 . S
C798 N793 1.307 . S
C798 C795 1.402 . S
N799 Gd762 2.601 . S
N799 C800 1.359 . S
N799 C803 1.334 . S
C800 C797 1.426 . S
C800 N799 1.359 . S
C800 C804 1.413 . S
C801 H792 0.930 . S
C801 C802 1.359 . S
C801 C803 1.394 . S
C802 C801 1.359 . S
C802 C804 1.391 . S
C802 H805 0.929 . S
C803 H785 0.930 . S
C803 N799 1.334 . S
C803 C801 1.394 . S
C804 C800 1.413 . S
C804 C802 1.391 . S
C804 C819 1.437 . S
H805 C802 0.929 . S
O806 Gd762 2.545 . S
O806 C821 1.258 . S
O807 Gd762 2.606 . S
O807 Gd763 2.362 . S
O807 C818 1.284 . S
O808 Gd763 2.324 . S
O808 C828 1.254 . S
O809 Gd762 2.429 . S
O809 C828 1.268 . S
O810 Gd762 2.545 . S
O810 C818 1.250 . S
O811 Gd762 2.412 . S
O811 C821 1.252 . S
O812 Gd763 2.545 . S
O812 C830 1.258 . S
O813 Gd762 2.362 . S
O813 Gd763 2.606 . S
O813 C829 1.284 . S
O814 Gd762 2.324 . S
O814 C837 1.254 . S
O815 Gd763 2.429 . S
O815 C837 1.268 . S
O816 Gd763 2.545 . S
O816 C829 1.250 . S
O817 Gd763 2.412 . S
O817 C830 1.252 . S
C818 O807 1.284 . S
C818 O810 1.250 . S
C819 H788 0.929 . S
C819 C804 1.437 . S
C819 C820 1.317 . S
C820 H791 0.930 . S
C820 C796 1.431 . S
C820 C819 1.317 . S
C821 Gd762 2.828 . S
C821 O806 1.258 . S
C821 O811 1.252 . S
C821 C822 1.497 . S
C822 C821 1.497 . S
C822 C823 1.395 . S
C822 C824 1.380 . S
C823 C822 1.395 . S
C823 C826 1.398 . S
C823 H838 0.930 . S
C824 C822 1.380 . S
C824 C825 1.391 . S
C824 H839 0.930 . S
C825 C824 1.391 . S
C825 C827 1.387 . S
C826 C823 1.398 . S
C826 C827 1.380 . S
C826 H840 0.930 . S
C827 C825 1.387 . S
C827 C826 1.380 . S
C827 H841 0.930 . S
C828 O808 1.254 . S
C828 O809 1.268 . S
C829 O813 1.284 . S
C829 O816 1.250 . S
C830 Gd763 2.828 . S
C830 O812 1.258 . S
C830 O817 1.252 . S
C830 C831 1.497 . S
C831 C830 1.497 . S
C831 C832 1.395 . S
C831 C833 1.380 . S
C832 C831 1.395 . S
C832 C835 1.398 . S
C832 H842 0.930 . S
C833 C831 1.380 . S
C833 C834 1.391 . S
C833 H843 0.930 . S
C834 C833 1.391 . S
C834 C836 1.387 . S
C835 C832 1.398 . S
C835 C836 1.380 . S
C835 H844 0.930 . S
C836 C834 1.387 . S
C836 C835 1.380 . S
C836 H845 0.930 . S
C837 O814 1.254 . S
C837 O815 1.268 . S
H838 C823 0.930 . S
H839 C824 0.930 . S
H840 C826 0.930 . S
H841 C827 0.930 . S
H842 C832 0.930 . S
H843 C833 0.930 . S
H844 C835 0.930 . S
H845 C836 0.930 . S
Gd846 N877 2.661 . S
Gd846 N883 2.601 . S
Gd846 O890 2.545 . S
Gd846 O891 2.606 . S
Gd846 O893 2.429 . S
Gd846 O894 2.545 . S
Gd846 O895 2.412 . S
Gd846 O897 2.362 . S
Gd846 O898 2.324 . S
Gd846 C905 2.828 . S
Gd847 N856 2.661 . S
Gd847 N860 2.601 . S
Gd847 O891 2.362 . S
Gd847 O892 2.324 . S
Gd847 O896 2.545 . S
Gd847 O897 2.606 . S
Gd847 O899 2.429 . S
Gd847 O900 2.545 . S
Gd847 O901 2.412 . S
Gd847 C914 2.828 . S
C848 C851 1.417 . S
C848 C853 1.431 . S
C848 C854 1.412 . S
C849 C852 1.437 . S
C849 C853 1.317 . S
C849 H868 0.929 . S
C850 C851 1.426 . S
C850 C852 1.413 . S
C850 N860 1.359 . S
C851 C848 1.417 . S
C851 C850 1.426 . S
C851 N856 1.350 . S
C852 C849 1.437 . S
C852 C850 1.413 . S
C852 C862 1.391 . S
C853 C848 1.431 . S
C853 C849 1.317 . S
C853 H864 0.930 . S
C854 C848 1.412 . S
C854 C855 1.355 . S
C854 H866 0.930 . S
C855 C854 1.355 . S
C855 C857 1.402 . S
C855 H867 0.930 . S
N856 Gd847 2.661 . S
N856 C851 1.350 . S
N856 C857 1.307 . S
C857 C855 1.402 . S
C857 N856 1.307 . S
C857 H858 0.930 . S
H858 C857 0.930 . S
C859 N860 1.334 . S
C859 C861 1.394 . S
C859 H863 0.930 . S
N860 Gd847 2.601 . S
N860 C850 1.359 . S
N860 C859 1.334 . S
C861 C859 1.394 . S
C861 C862 1.359 . S
C861 H873 0.930 . S
C862 C852 1.391 . S
C862 C861 1.359 . S
C862 H874 0.929 . S
H863 C859 0.930 . S
H864 C853 0.930 . S
H865 C882 0.930 . S
H866 C854 0.930 . S
H867 C855 0.930 . S
H868 C849 0.929 . S
H869 C887 0.930 . S
H870 C878 0.930 . S
H871 C879 0.930 . S
H872 C903 0.929 . S
H873 C861 0.930 . S
H874 C862 0.929 . S
H875 C904 0.930 . S
H876 C885 0.930 . S
N877 Gd846 2.661 . S
N877 C881 1.350 . S
N877 C882 1.307 . S
C878 H870 0.930 . S
C878 C879 1.355 . S
C878 C880 1.412 . S
C879 H871 0.930 . S
C879 C878 1.355 . S
C879 C882 1.402 . S
C880 C878 1.412 . S
C880 C881 1.417 . S
C880 C904 1.431 . S
C881 N877 1.350 . S
C881 C880 1.417 . S
C881 C884 1.426 . S
C882 H865 0.930 . S
C882 N877 1.307 . S
C882 C879 1.402 . S
N883 Gd846 2.601 . S
N883 C884 1.359 . S
N883 C887 1.334 . S
C884 C881 1.426 . S
C884 N883 1.359 . S
C884 C888 1.413 . S
C885 H876 0.930 . S
C885 C886 1.359 . S
C885 C887 1.394 . S
C886 C885 1.359 . S
C886 C888 1.391 . S
C886 H889 0.929 . S
C887 H869 0.930 . S
C887 N883 1.334 . S
C887 C885 1.394 . S
C888 C884 1.413 . S
C888 C886 1.391 . S
C888 C903 1.437 . S
H889 C886 0.929 . S
O890 Gd846 2.545 . S
O890 C905 1.258 . S
O891 Gd846 2.606 . S
O891 Gd847 2.362 . S
O891 C902 1.284 . S
O892 Gd847 2.324 . S
O892 C912 1.254 . S
O893 Gd846 2.429 . S
O893 C912 1.268 . S
O894 Gd846 2.545 . S
O894 C902 1.250 . S
O895 Gd846 2.412 . S
O895 C905 1.252 . S
O896 Gd847 2.545 . S
O896 C914 1.258 . S
O897 Gd846 2.362 . S
O897 Gd847 2.606 . S
O897 C913 1.284 . S
O898 Gd846 2.324 . S
O898 C921 1.254 . S
O899 Gd847 2.429 . S
O899 C921 1.268 . S
O900 Gd847 2.545 . S
O900 C913 1.250 . S
O901 Gd847 2.412 . S
O901 C914 1.252 . S
C902 O891 1.284 . S
C902 O894 1.250 . S
C903 H872 0.929 . S
C903 C888 1.437 . S
C903 C904 1.317 . S
C904 H875 0.930 . S
C904 C880 1.431 . S
C904 C903 1.317 . S
C905 Gd846 2.828 . S
C905 O890 1.258 . S
C905 O895 1.252 . S
C905 C906 1.497 . S
C906 C905 1.497 . S
C906 C907 1.395 . S
C906 C908 1.380 . S
C907 C906 1.395 . S
C907 C910 1.398 . S
C907 H922 0.930 . S
C908 C906 1.380 . S
C908 C909 1.391 . S
C908 H923 0.930 . S
C909 C908 1.391 . S
C909 C911 1.387 . S
C910 C907 1.398 . S
C910 C911 1.380 . S
C910 H924 0.930 . S
C911 C909 1.387 . S
C911 C910 1.380 . S
C911 H925 0.930 . S
C912 O892 1.254 . S
C912 O893 1.268 . S
C913 O897 1.284 . S
C913 O900 1.250 . S
C914 Gd847 2.828 . S
C914 O896 1.258 . S
C914 O901 1.252 . S
C914 C915 1.497 . S
C915 C914 1.497 . S
C915 C916 1.395 . S
C915 C917 1.380 . S
C916 C915 1.395 . S
C916 C919 1.398 . S
C916 H926 0.930 . S
C917 C915 1.380 . S
C917 C918 1.391 . S
C917 H927 0.930 . S
C918 C917 1.391 . S
C918 C920 1.387 . S
C919 C916 1.398 . S
C919 C920 1.380 . S
C919 H928 0.930 . S
C920 C918 1.387 . S
C920 C919 1.380 . S
C920 H929 0.930 . S
C921 O898 1.254 . S
C921 O899 1.268 . S
H922 C907 0.930 . S
H923 C908 0.930 . S
H924 C910 0.930 . S
H925 C911 0.930 . S
H926 C916 0.930 . S
H927 C917 0.930 . S
H928 C919 0.930 . S
H929 C920 0.930 . S
Gd930 N961 2.661 . S
Gd930 N967 2.601 . S
Gd930 O974 2.545 . S
Gd930 O975 2.606 . S
Gd930 O977 2.429 . S
Gd930 O978 2.545 . S
Gd930 O979 2.412 . S
Gd930 O981 2.362 . S
Gd930 O982 2.324 . S
Gd930 C989 2.828 . S
Gd931 N940 2.661 . S
Gd931 N944 2.601 . S
Gd931 O975 2.362 . S
Gd931 O976 2.324 . S
Gd931 O980 2.545 . S
Gd931 O981 2.606 . S
Gd931 O983 2.429 . S
Gd931 O984 2.545 . S
Gd931 O985 2.412 . S
Gd931 C998 2.828 . S
C932 C935 1.417 . S
C932 C937 1.431 . S
C932 C938 1.412 . S
C933 C936 1.437 . S
C933 C937 1.317 . S
C933 H952 0.929 . S
C934 C935 1.426 . S
C934 C936 1.413 . S
C934 N944 1.359 . S
C935 C932 1.417 . S
C935 C934 1.426 . S
C935 N940 1.350 . S
C936 C933 1.437 . S
C936 C934 1.413 . S
C936 C946 1.391 . S
C937 C932 1.431 . S
C937 C933 1.317 . S
C937 H948 0.930 . S
C938 C932 1.412 . S
C938 C939 1.355 . S
C938 H950 0.930 . S
C939 C938 1.355 . S
C939 C941 1.402 . S
C939 H951 0.930 . S
N940 Gd931 2.661 . S
N940 C935 1.350 . S
N940 C941 1.307 . S
C941 C939 1.402 . S
C941 N940 1.307 . S
C941 H942 0.930 . S
H942 C941 0.930 . S
C943 N944 1.334 . S
C943 C945 1.394 . S
C943 H947 0.930 . S
N944 Gd931 2.601 . S
N944 C934 1.359 . S
N944 C943 1.334 . S
C945 C943 1.394 . S
C945 C946 1.359 . S
C945 H957 0.930 . S
C946 C936 1.391 . S
C946 C945 1.359 . S
C946 H958 0.929 . S
H947 C943 0.930 . S
H948 C937 0.930 . S
H949 C966 0.930 . S
H950 C938 0.930 . S
H951 C939 0.930 . S
H952 C933 0.929 . S
H953 C971 0.930 . S
H954 C962 0.930 . S
H955 C963 0.930 . S
H956 C987 0.929 . S
H957 C945 0.930 . S
H958 C946 0.929 . S
H959 C988 0.930 . S
H960 C969 0.930 . S
N961 Gd930 2.661 . S
N961 C965 1.350 . S
N961 C966 1.307 . S
C962 H954 0.930 . S
C962 C963 1.355 . S
C962 C964 1.412 . S
C963 H955 0.930 . S
C963 C962 1.355 . S
C963 C966 1.402 . S
C964 C962 1.412 . S
C964 C965 1.417 . S
C964 C988 1.431 . S
C965 N961 1.350 . S
C965 C964 1.417 . S
C965 C968 1.426 . S
C966 H949 0.930 . S
C966 N961 1.307 . S
C966 C963 1.402 . S
N967 Gd930 2.601 . S
N967 C968 1.359 . S
N967 C971 1.334 . S
C968 C965 1.426 . S
C968 N967 1.359 . S
C968 C972 1.413 . S
C969 H960 0.930 . S
C969 C970 1.359 . S
C969 C971 1.394 . S
C970 C969 1.359 . S
C970 C972 1.391 . S
C970 H973 0.929 . S
C971 H953 0.930 . S
C971 N967 1.334 . S
C971 C969 1.394 . S
C972 C968 1.413 . S
C972 C970 1.391 . S
C972 C987 1.437 . S
H973 C970 0.929 . S
O974 Gd930 2.545 . S
O974 C989 1.258 . S
O975 Gd930 2.606 . S
O975 Gd931 2.362 . S
O975 C986 1.284 . S
O976 Gd931 2.324 . S
O976 C996 1.254 . S
O977 Gd930 2.429 . S
O977 C996 1.268 . S
O978 Gd930 2.545 . S
O978 C986 1.250 . S
O979 Gd930 2.412 . S
O979 C989 1.252 . S
O980 Gd931 2.545 . S
O980 C998 1.258 . S
O981 Gd930 2.362 . S
O981 Gd931 2.606 . S
O981 C997 1.284 . S
O982 Gd930 2.324 . S
O982 C1005 1.254 . S
O983 Gd931 2.429 . S
O983 C1005 1.268 . S
O984 Gd931 2.545 . S
O984 C997 1.250 . S
O985 Gd931 2.412 . S
O985 C998 1.252 . S
C986 O975 1.284 . S
C986 O978 1.250 . S
C987 H956 0.929 . S
C987 C972 1.437 . S
C987 C988 1.317 . S
C988 H959 0.930 . S
C988 C964 1.431 . S
C988 C987 1.317 . S
C989 Gd930 2.828 . S
C989 O974 1.258 . S
C989 O979 1.252 . S
C989 C990 1.497 . S
C990 C989 1.497 . S
C990 C991 1.395 . S
C990 C992 1.380 . S
C991 C990 1.395 . S
C991 C994 1.398 . S
C991 H1006 0.930 . S
C992 C990 1.380 . S
C992 C993 1.391 . S
C992 H1007 0.930 . S
C993 C992 1.391 . S
C993 C995 1.387 . S
C994 C991 1.398 . S
C994 C995 1.380 . S
C994 H1008 0.930 . S
C995 C993 1.387 . S
C995 C994 1.380 . S
C995 H1009 0.930 . S
C996 O976 1.254 . S
C996 O977 1.268 . S
C997 O981 1.284 . S
C997 O984 1.250 . S
C998 Gd931 2.828 . S
C998 O980 1.258 . S
C998 O985 1.252 . S
C998 C999 1.497 . S
C999 C998 1.497 . S
C999 C1000 1.395 . S
C999 C1001 1.380 . S
C1000 C999 1.395 . S
C1000 C1003 1.398 . S
C1000 H1010 0.930 . S
C1001 C999 1.380 . S
C1001 C1002 1.391 . S
C1001 H1011 0.930 . S
C1002 C1001 1.391 . S
C1002 C1004 1.387 . S
C1003 C1000 1.398 . S
C1003 C1004 1.380 . S
C1003 H1012 0.930 . S
C1004 C1002 1.387 . S
C1004 C1003 1.380 . S
C1004 H1013 0.930 . S
C1005 O982 1.254 . S
C1005 O983 1.268 . S
H1006 C991 0.930 . S
H1007 C992 0.930 . S
H1008 C994 0.930 . S
H1009 C995 0.930 . S
H1010 C1000 0.930 . S
H1011 C1001 0.930 . S
H1012 C1003 0.930 . S
H1013 C1004 0.930 . S
Gd1014 N1045 2.661 . S
Gd1014 N1051 2.601 . S
Gd1014 O1058 2.545 . S
Gd1014 O1059 2.606 . S
Gd1014 O1061 2.429 . S
Gd1014 O1062 2.545 . S
Gd1014 O1063 2.412 . S
Gd1014 O1065 2.362 . S
Gd1014 O1066 2.324 . S
Gd1014 C1073 2.828 . S
Gd1015 N1024 2.661 . S
Gd1015 N1028 2.601 . S
Gd1015 O1059 2.362 . S
Gd1015 O1060 2.324 . S
Gd1015 O1064 2.545 . S
Gd1015 O1065 2.606 . S
Gd1015 O1067 2.429 . S
Gd1015 O1068 2.545 . S
Gd1015 O1069 2.412 . S
Gd1015 C1082 2.828 . S
C1016 C1019 1.417 . S
C1016 C1021 1.431 1_655 S
C1016 C1022 1.412 1_655 S
C1017 C1020 1.437 . S
C1017 C1021 1.317 1_655 S
C1017 H1036 0.929 1_655 S
C1018 C1019 1.426 . S
C1018 C1020 1.413 . S
C1018 N1028 1.359 . S
C1019 C1016 1.417 . S
C1019 C1018 1.426 . S
C1019 N1024 1.350 . S
C1020 C1017 1.437 . S
C1020 C1018 1.413 . S
C1020 C1030 1.391 . S
C1021 C1016 1.431 1_455 S
C1021 C1017 1.317 1_455 S
C1021 H1032 0.930 . S
C1022 C1016 1.412 1_455 S
C1022 C1023 1.355 1_455 S
C1022 H1034 0.930 . S
C1023 C1022 1.355 1_655 S
C1023 C1025 1.402 . S
C1023 H1035 0.930 1_655 S
N1024 Gd1015 2.661 . S
N1024 C1019 1.350 . S
N1024 C1025 1.307 . S
C1025 C1023 1.402 . S
C1025 N1024 1.307 . S
C1025 H1026 0.930 . S
H1026 C1025 0.930 . S
C1027 N1028 1.334 . S
C1027 C1029 1.394 . S
C1027 H1031 0.930 . S
N1028 Gd1015 2.601 . S
N1028 C1018 1.359 . S
N1028 C1027 1.334 . S
C1029 C1027 1.394 . S
C1029 C1030 1.359 . S
C1029 H1041 0.930 . S
C1030 C1020 1.391 . S
C1030 C1029 1.359 . S
C1030 H1042 0.929 . S
H1031 C1027 0.930 . S
H1032 C1021 0.930 . S
H1033 C1050 0.930 . S
H1034 C1022 0.930 . S
H1035 C1023 0.930 1_455 S
H1036 C1017 0.929 1_455 S
H1037 C1055 0.930 . S
H1038 C1046 0.930 . S
H1039 C1047 0.930 . S
H1040 C1071 0.929 . S
H1041 C1029 0.930 . S
H1042 C1030 0.929 . S
H1043 C1072 0.930 . S
H1044 C1053 0.930 . S
N1045 Gd1014 2.661 . S
N1045 C1049 1.350 . S
N1045 C1050 1.307 . S
C1046 H1038 0.930 . S
C1046 C1047 1.355 . S
C1046 C1048 1.412 . S
C1047 H1039 0.930 . S
C1047 C1046 1.355 . S
C1047 C1050 1.402 . S
C1048 C1046 1.412 . S
C1048 C1049 1.417 . S
C1048 C1072 1.431 . S
C1049 N1045 1.350 . S
C1049 C1048 1.417 . S
C1049 C1052 1.426 . S
C1050 H1033 0.930 . S
C1050 N1045 1.307 . S
C1050 C1047 1.402 . S
N1051 Gd1014 2.601 . S
N1051 C1052 1.359 . S
N1051 C1055 1.334 . S
C1052 C1049 1.426 . S
C1052 N1051 1.359 . S
C1052 C1056 1.413 . S
C1053 H1044 0.930 . S
C1053 C1054 1.359 . S
C1053 C1055 1.394 . S
C1054 C1053 1.359 . S
C1054 C1056 1.391 . S
C1054 H1057 0.929 . S
C1055 H1037 0.930 . S
C1055 N1051 1.334 . S
C1055 C1053 1.394 . S
C1056 C1052 1.413 . S
C1056 C1054 1.391 . S
C1056 C1071 1.437 . S
H1057 C1054 0.929 . S
O1058 Gd1014 2.545 . S
O1058 C1073 1.258 . S
O1059 Gd1014 2.606 . S
O1059 Gd1015 2.362 . S
O1059 C1070 1.284 . S
O1060 Gd1015 2.324 . S
O1060 C1080 1.254 . S
O1061 Gd1014 2.429 . S
O1061 C1080 1.268 . S
O1062 Gd1014 2.545 . S
O1062 C1070 1.250 . S
O1063 Gd1014 2.412 . S
O1063 C1073 1.252 . S
O1064 Gd1015 2.545 . S
O1064 C1082 1.258 . S
O1065 Gd1014 2.362 . S
O1065 Gd1015 2.606 . S
O1065 C1081 1.284 . S
O1066 Gd1014 2.324 . S
O1066 C1089 1.254 . S
O1067 Gd1015 2.429 . S
O1067 C1089 1.268 . S
O1068 Gd1015 2.545 . S
O1068 C1081 1.250 . S
O1069 Gd1015 2.412 . S
O1069 C1082 1.252 . S
C1070 O1059 1.284 . S
C1070 O1062 1.250 . S
C1071 H1040 0.929 . S
C1071 C1056 1.437 . S
C1071 C1072 1.317 . S
C1072 H1043 0.930 . S
C1072 C1048 1.431 . S
C1072 C1071 1.317 . S
C1073 Gd1014 2.828 . S
C1073 O1058 1.258 . S
C1073 O1063 1.252 . S
C1073 C1074 1.497 . S
C1074 C1073 1.497 . S
C1074 C1075 1.395 . S
C1074 C1076 1.380 . S
C1075 C1074 1.395 . S
C1075 C1078 1.398 . S
C1075 H1090 0.930 . S
C1076 C1074 1.380 . S
C1076 C1077 1.391 . S
C1076 H1091 0.930 . S
C1077 C1076 1.391 . S
C1077 C1079 1.387 . S
C1078 C1075 1.398 . S
C1078 C1079 1.380 . S
C1078 H1092 0.930 . S
C1079 C1077 1.387 . S
C1079 C1078 1.380 . S
C1079 H1093 0.930 . S
C1080 O1060 1.254 . S
C1080 O1061 1.268 . S
C1081 O1065 1.284 . S
C1081 O1068 1.250 . S
C1082 Gd1015 2.828 . S
C1082 O1064 1.258 . S
C1082 O1069 1.252 . S
C1082 C1083 1.497 . S
C1083 C1082 1.497 . S
C1083 C1084 1.395 . S
C1083 C1085 1.380 . S
C1084 C1083 1.395 . S
C1084 C1087 1.398 . S
C1084 H1094 0.930 . S
C1085 C1083 1.380 . S
C1085 C1086 1.391 . S
C1085 H1095 0.930 . S
C1086 C1085 1.391 . S
C1086 C1088 1.387 . S
C1087 C1084 1.398 . S
C1087 C1088 1.380 . S
C1087 H1096 0.930 . S
C1088 C1086 1.387 . S
C1088 C1087 1.380 . S
C1088 H1097 0.930 . S
C1089 O1066 1.254 . S
C1089 O1067 1.268 . S
H1090 C1075 0.930 . S
H1091 C1076 0.930 . S
H1092 C1078 0.930 . S
H1093 C1079 0.930 . S
H1094 C1084 0.930 . S
H1095 C1085 0.930 . S
H1096 C1087 0.930 . S
H1097 C1088 0.930 . S
H1098 C1104 0.930 . S
H1099 C1107 0.930 . S
H1100 C1108 0.930 1_556 S
H1101 C1109 0.930 1_556 S
H1102 C1112 0.930 . S
H1103 C1113 0.930 . S
C1104 H1098 0.930 . S
C1104 C1105 1.355 . S
C1104 C1106 1.415 . S
C1105 C1104 1.355 . S
C1105 C1107 1.419 . S
C1106 C1104 1.415 . S
C1106 C1111 1.425 . S
C1106 C1113 1.409 . S
C1107 H1099 0.930 . S
C1107 C1105 1.419 . S
C1107 C1108 1.362 . S
C1108 H1100 0.930 1_554 S
C1108 C1107 1.362 . S
C1108 C1111 1.409 . S
C1109 H1101 0.930 1_554 S
C1109 C1110 1.355 . S
C1109 C1111 1.415 . S
C1110 C1109 1.355 . S
C1110 C1112 1.419 . S
C1111 C1106 1.425 . S
C1111 C1108 1.409 . S
C1111 C1109 1.415 . S
C1112 H1102 0.930 . S
C1112 C1110 1.419 . S
C1112 C1113 1.362 . S
C1113 H1103 0.930 . S
C1113 C1106 1.409 . S
C1113 C1112 1.362 . S
H1114 C1120 0.930 . S
H1115 C1123 0.930 . S
H1116 C1124 0.930 . S
H1117 C1125 0.930 . S
H1118 C1128 0.930 . S
H1119 C1129 0.930 . S
C1120 H1114 0.930 . S
C1120 C1121 1.355 . S
C1120 C1122 1.415 . S
C1121 C1120 1.355 . S
C1121 C1123 1.419 . S
C1122 C1120 1.415 . S
C1122 C1127 1.425 . S
C1122 C1129 1.409 . S
C1123 H1115 0.930 . S
C1123 C1121 1.419 . S
C1123 C1124 1.362 . S
C1124 H1116 0.930 . S
C1124 C1123 1.362 . S
C1124 C1127 1.409 . S
C1125 H1117 0.930 . S
C1125 C1126 1.355 . S
C1125 C1127 1.415 . S
C1126 C1125 1.355 . S
C1126 C1128 1.419 . S
C1127 C1122 1.425 . S
C1127 C1124 1.409 . S
C1127 C1125 1.415 . S
C1128 H1118 0.930 . S
C1128 C1126 1.419 . S
C1128 C1129 1.362 . S
C1129 H1119 0.930 . S
C1129 C1122 1.409 . S
C1129 C1128 1.362 . S
H1130 C1136 0.930 . S
H1131 C1139 0.930 . S
H1132 C1140 0.930 . S
H1133 C1141 0.930 . S
H1134 C1144 0.930 . S
H1135 C1145 0.930 . S
C1136 H1130 0.930 . S
C1136 C1137 1.355 . S
C1136 C1138 1.415 . S
C1137 C1136 1.355 . S
C1137 C1139 1.419 . S
C1138 C1136 1.415 . S
C1138 C1143 1.425 . S
C1138 C1145 1.409 . S
C1139 H1131 0.930 . S
C1139 C1137 1.419 . S
C1139 C1140 1.362 . S
C1140 H1132 0.930 . S
C1140 C1139 1.362 . S
C1140 C1143 1.409 . S
C1141 H1133 0.930 . S
C1141 C1142 1.355 . S
C1141 C1143 1.415 . S
C1142 C1141 1.355 . S
C1142 C1144 1.419 . S
C1143 C1138 1.425 . S
C1143 C1140 1.409 . S
C1143 C1141 1.415 . S
C1144 H1134 0.930 . S
C1144 C1142 1.419 . S
C1144 C1145 1.362 . S
C1145 H1135 0.930 . S
C1145 C1138 1.409 . S
C1145 C1144 1.362 . S
H1146 C1152 0.930 . S
H1147 C1155 0.930 . S
H1148 C1156 0.930 . S
H1149 C1157 0.930 . S
H1150 C1160 0.930 . S
H1151 C1161 0.930 . S
C1152 H1146 0.930 . S
C1152 C1153 1.355 . S
C1152 C1154 1.415 . S
C1153 C1152 1.355 . S
C1153 C1155 1.419 . S
C1154 C1152 1.415 . S
C1154 C1159 1.425 . S
C1154 C1161 1.409 . S
C1155 H1147 0.930 . S
C1155 C1153 1.419 . S
C1155 C1156 1.362 . S
C1156 H1148 0.930 . S
C1156 C1155 1.362 . S
C1156 C1159 1.409 . S
C1157 H1149 0.930 . S
C1157 C1158 1.355 . S
C1157 C1159 1.415 . S
C1158 C1157 1.355 . S
C1158 C1160 1.419 . S
C1159 C1154 1.425 . S
C1159 C1156 1.409 . S
C1159 C1157 1.415 . S
C1160 H1150 0.930 . S
C1160 C1158 1.419 . S
C1160 C1161 1.362 . S
C1161 H1151 0.930 . S
C1161 C1154 1.409 . S
C1161 C1160 1.362 . S
H1162 C1168 0.930 . S
H1163 C1171 0.930 . S
H1164 C1172 0.930 . S
H1165 C1173 0.930 . S
H1166 C1176 0.930 . S
H1167 C1177 0.930 . S
C1168 H1162 0.930 . S
C1168 C1169 1.355 . S
C1168 C1170 1.415 . S
C1169 C1168 1.355 . S
C1169 C1171 1.419 . S
C1170 C1168 1.415 . S
C1170 C1175 1.425 . S
C1170 C1177 1.409 . S
C1171 H1163 0.930 . S
C1171 C1169 1.419 . S
C1171 C1172 1.362 1_556 S
C1172 H1164 0.930 . S
C1172 C1171 1.362 1_554 S
C1172 C1175 1.409 1_554 S
C1173 H1165 0.930 . S
C1173 C1174 1.355 1_554 S
C1173 C1175 1.415 1_554 S
C1174 C1173 1.355 1_556 S
C1174 C1176 1.419 . S
C1175 C1170 1.425 . S
C1175 C1172 1.409 1_556 S
C1175 C1173 1.415 1_556 S
C1176 H1166 0.930 . S
C1176 C1174 1.419 . S
C1176 C1177 1.362 . S
C1177 H1167 0.930 . S
C1177 C1170 1.409 . S
C1177 C1176 1.362 . S
H1178 C1184 0.930 . S
H1179 C1187 0.930 . S
H1180 C1188 0.930 . S
H1181 C1189 0.930 . S
H1182 C1192 0.930 . S
H1183 C1193 0.930 . S
C1184 H1178 0.930 . S
C1184 C1185 1.355 . S
C1184 C1186 1.415 . S
C1185 C1184 1.355 . S
C1185 C1187 1.419 1_556 S
C1186 C1184 1.415 . S
C1186 C1191 1.425 . S
C1186 C1193 1.409 . S
C1187 H1179 0.930 . S
C1187 C1185 1.419 1_554 S
C1187 C1188 1.362 . S
C1188 H1180 0.930 . S
C1188 C1187 1.362 . S
C1188 C1191 1.409 1_554 S
C1189 H1181 0.930 . S
C1189 C1190 1.355 1_554 S
C1189 C1191 1.415 1_554 S
C1190 C1189 1.355 1_556 S
C1190 C1192 1.419 . S
C1191 C1186 1.425 . S
C1191 C1188 1.409 1_556 S
C1191 C1189 1.415 1_556 S
C1192 H1182 0.930 . S
C1192 C1190 1.419 . S
C1192 C1193 1.362 . S
C1193 H1183 0.930 . S
C1193 C1186 1.409 . S
C1193 C1192 1.362 . S
H1194 C1200 0.930 . S
H1195 C1203 0.930 . S
H1196 C1204 0.930 . S
H1197 C1205 0.930 1_554 S
H1198 C1208 0.930 . S
H1199 C1209 0.930 . S
C1200 H1194 0.930 . S
C1200 C1201 1.355 . S
C1200 C1202 1.415 . S
C1201 C1200 1.355 . S
C1201 C1203 1.419 . S
C1202 C1200 1.415 . S
C1202 C1207 1.425 . S
C1202 C1209 1.409 . S
C1203 H1195 0.930 . S
C1203 C1201 1.419 . S
C1203 C1204 1.362 . S
C1204 H1196 0.930 . S
C1204 C1203 1.362 . S
C1204 C1207 1.409 . S
C1205 H1197 0.930 1_556 S
C1205 C1206 1.355 . S
C1205 C1207 1.415 . S
C1206 C1205 1.355 . S
C1206 C1208 1.419 . S
C1207 C1202 1.425 . S
C1207 C1204 1.409 . S
C1207 C1205 1.415 . S
C1208 H1198 0.930 . S
C1208 C1206 1.419 . S
C1208 C1209 1.362 . S
C1209 H1199 0.930 . S
C1209 C1202 1.409 . S
C1209 C1208 1.362 . S
H1210 C1216 0.930 1_554 S
H1211 C1219 0.930 . S
H1212 C1220 0.930 . S
H1213 C1221 0.930 . S
H1214 C1224 0.930 . S
H1215 C1225 0.930 . S
C1216 H1210 0.930 1_556 S
C1216 C1217 1.355 . S
C1216 C1218 1.415 . S
C1217 C1216 1.355 . S
C1217 C1219 1.419 . S
C1218 C1216 1.415 . S
C1218 C1223 1.425 . S
C1218 C1225 1.409 1_556 S
C1219 H1211 0.930 . S
C1219 C1217 1.419 . S
C1219 C1220 1.362 . S
C1220 H1212 0.930 . S
C1220 C1219 1.362 . S
C1220 C1223 1.409 . S
C1221 H1213 0.930 . S
C1221 C1222 1.355 . S
C1221 C1223 1.415 . S
C1222 C1221 1.355 . S
C1222 C1224 1.419 1_556 S
C1223 C1218 1.425 . S
C1223 C1220 1.409 . S
C1223 C1221 1.415 . S
C1224 H1214 0.930 . S
C1224 C1222 1.419 1_554 S
C1224 C1225 1.362 . S
C1225 H1215 0.930 . S
C1225 C1218 1.409 1_554 S
C1225 C1224 1.362 . S
H1226 C1232 0.930 . S
H1227 C1235 0.930 . S
H1228 C1236 0.930 . S
H1229 C1237 0.930 . S
H1230 C1240 0.930 . S
H1231 C1241 0.930 . S
C1232 H1226 0.930 . S
C1232 C1233 1.355 . S
C1232 C1234 1.415 . S
C1233 C1232 1.355 . S
C1233 C1235 1.419 1_556 S
C1234 C1232 1.415 . S
C1234 C1239 1.425 1_556 S
C1234 C1241 1.409 . S
C1235 H1227 0.930 . S
C1235 C1233 1.419 1_554 S
C1235 C1236 1.362 . S
C1236 H1228 0.930 . S
C1236 C1235 1.362 . S
C1236 C1239 1.409 . S
C1237 H1229 0.930 . S
C1237 C1238 1.355 1_554 S
C1237 C1239 1.415 . S
C1238 C1237 1.355 1_556 S
C1238 C1240 1.419 . S
C1239 C1234 1.425 1_554 S
C1239 C1236 1.409 . S
C1239 C1237 1.415 . S
C1240 H1230 0.930 . S
C1240 C1238 1.419 . S
C1240 C1241 1.362 . S
C1241 H1231 0.930 . S
C1241 C1234 1.409 . S
C1241 C1240 1.362 . S
H1242 C1248 0.930 . S
H1243 C1251 0.930 . S
H1244 C1252 0.930 . S
H1245 C1253 0.930 . S
H1246 C1256 0.930 . S
H1247 C1257 0.930 . S
C1248 H1242 0.930 . S
C1248 C1249 1.355 . S
C1248 C1250 1.415 . S
C1249 C1248 1.355 . S
C1249 C1251 1.419 . S
C1250 C1248 1.415 . S
C1250 C1255 1.425 . S
C1250 C1257 1.409 . S
C1251 H1243 0.930 . S
C1251 C1249 1.419 . S
C1251 C1252 1.362 . S
C1252 H1244 0.930 . S
C1252 C1251 1.362 . S
C1252 C1255 1.409 . S
C1253 H1245 0.930 . S
C1253 C1254 1.355 . S
C1253 C1255 1.415 . S
C1254 C1253 1.355 . S
C1254 C1256 1.419 . S
C1255 C1250 1.425 . S
C1255 C1252 1.409 . S
C1255 C1253 1.415 . S
C1256 H1246 0.930 . S
C1256 C1254 1.419 . S
C1256 C1257 1.362 . S
C1257 H1247 0.930 . S
C1257 C1250 1.409 . S
C1257 C1256 1.362 . S
H1258 C1264 0.930 . S
H1259 C1267 0.930 . S
H1260 C1268 0.930 . S
H1261 C1269 0.930 . S
H1262 C1272 0.930 1_556 S
H1263 C1273 0.930 1_556 S
C1264 H1258 0.930 . S
C1264 C1265 1.355 . S
C1264 C1266 1.415 . S
C1265 C1264 1.355 . S
C1265 C1267 1.419 . S
C1266 C1264 1.415 . S
C1266 C1271 1.425 . S
C1266 C1273 1.409 . S
C1267 H1259 0.930 . S
C1267 C1265 1.419 . S
C1267 C1268 1.362 . S
C1268 H1260 0.930 . S
C1268 C1267 1.362 . S
C1268 C1271 1.409 . S
C1269 H1261 0.930 . S
C1269 C1270 1.355 . S
C1269 C1271 1.415 . S
C1270 C1269 1.355 . S
C1270 C1272 1.419 . S
C1271 C1266 1.425 . S
C1271 C1268 1.409 . S
C1271 C1269 1.415 . S
C1272 H1262 0.930 1_554 S
C1272 C1270 1.419 . S
C1272 C1273 1.362 . S
C1273 H1263 0.930 1_554 S
C1273 C1266 1.409 . S
C1273 C1272 1.362 . S
H1274 C1280 0.930 . S
H1275 C1283 0.930 . S
H1276 C1284 0.930 . S
H1277 C1285 0.930 . S
H1278 C1288 0.930 . S
H1279 C1289 0.930 . S
C1280 H1274 0.930 . S
C1280 C1281 1.355 . S
C1280 C1282 1.415 . S
C1281 C1280 1.355 . S
C1281 C1283 1.419 . S
C1282 C1280 1.415 . S
C1282 C1287 1.425 . S
C1282 C1289 1.409 . S
C1283 H1275 0.930 . S
C1283 C1281 1.419 . S
C1283 C1284 1.362 . S
C1284 H1276 0.930 . S
C1284 C1283 1.362 . S
C1284 C1287 1.409 . S
C1285 H1277 0.930 . S
C1285 C1286 1.355 . S
C1285 C1287 1.415 . S
C1286 C1285 1.355 . S
C1286 C1288 1.419 . S
C1287 C1282 1.425 . S
C1287 C1284 1.409 . S
C1287 C1285 1.415 . S
C1288 H1278 0.930 . S
C1288 C1286 1.419 . S
C1288 C1289 1.362 . S
C1289 H1279 0.930 . S
C1289 C1282 1.409 . S
C1289 C1288 1.362 . S
H1290 C1296 0.930 . S
H1291 C1299 0.930 . S
H1292 C1300 0.930 . S
H1293 C1301 0.930 . S
H1294 C1304 0.930 . S
H1295 C1305 0.959 . S
C1296 H1290 0.930 . S
C1296 C1297 1.355 . S
C1296 C1298 1.415 . S
C1297 C1296 1.355 . S
C1297 C1299 1.419 . S
C1298 C1296 1.415 . S
C1298 C1303 1.425 1_655 S
C1298 C1305 1.399 . S
C1299 H1291 0.930 . S
C1299 C1297 1.419 . S
C1299 C1300 1.362 1_655 S
C1300 H1292 0.930 . S
C1300 C1299 1.362 1_455 S
C1300 C1303 1.409 . S
C1301 H1293 0.930 . S
C1301 C1302 1.355 . S
C1301 C1303 1.415 . S
C1302 C1301 1.355 . S
C1302 C1304 1.419 . S
C1303 C1298 1.425 1_455 S
C1303 C1300 1.409 . S
C1303 C1301 1.415 . S
C1304 H1294 0.930 . S
C1304 C1302 1.419 . S
C1304 C1305 1.345 1_455 S
C1305 H1295 0.959 . S
C1305 C1298 1.399 . S
C1305 C1304 1.345 1_655 S
H1306 C1312 0.930 . S
H1307 C1315 0.930 . S
H1308 C1316 0.930 . S
H1309 C1317 0.930 . S
H1310 C1320 0.930 . S
H1311 C1321 0.930 . S
C1312 H1306 0.930 . S
C1312 C1313 1.355 . S
C1312 C1314 1.415 . S
C1313 C1312 1.355 . S
C1313 C1315 1.419 . S
C1314 C1312 1.415 . S
C1314 C1319 1.425 . S
C1314 C1321 1.409 . S
C1315 H1307 0.930 . S
C1315 C1313 1.419 . S
C1315 C1316 1.362 . S
C1316 H1308 0.930 . S
C1316 C1315 1.362 . S
C1316 C1319 1.409 . S
C1317 H1309 0.930 . S
C1317 C1318 1.355 . S
C1317 C1319 1.415 . S
C1318 C1317 1.355 . S
C1318 C1320 1.419 . S
C1319 C1314 1.425 . S
C1319 C1316 1.409 . S
C1319 C1317 1.415 . S
C1320 H1310 0.930 . S
C1320 C1318 1.419 . S
C1320 C1321 1.362 . S
C1321 H1311 0.930 . S
C1321 C1314 1.409 . S
C1321 C1320 1.362 . S
H1322 C1328 0.930 . S
H1323 C1331 0.930 . S
H1324 C1332 0.920 1_565 S
H1325 C1333 0.930 . S
H1326 C1336 0.930 . S
H1327 C1337 0.930 . S
C1328 H1322 0.930 . S
C1328 C1329 1.355 . S
C1328 C1330 1.415 . S
C1329 C1328 1.355 . S
C1329 C1331 1.419 . S
C1330 C1328 1.415 . S
C1330 C1335 1.425 1_545 S
C1330 C1337 1.409 . S
C1331 H1323 0.930 . S
C1331 C1329 1.419 . S
C1331 C1332 1.390 . S
C1332 H1324 0.920 1_545 S
C1332 C1331 1.390 . S
C1332 C1335 1.391 1_545 S
C1333 H1325 0.930 . S
C1333 C1334 1.355 . S
C1333 C1335 1.415 . S
C1334 C1333 1.355 . S
C1334 C1336 1.419 . S
C1335 C1330 1.425 1_565 S
C1335 C1332 1.391 1_565 S
C1335 C1333 1.415 . S
C1336 H1326 0.930 . S
C1336 C1334 1.419 . S
C1336 C1337 1.362 1_565 S
C1337 H1327 0.930 . S
C1337 C1330 1.409 . S
C1337 C1336 1.362 1_545 S
H1338 C1344 0.930 . S
H1339 C1347 0.930 . S
H1340 C1348 0.930 . S
H1341 C1349 0.930 . S
H1342 C1352 0.930 . S
H1343 C1353 0.930 . S
C1344 H1338 0.930 . S
C1344 C1345 1.355 . S
C1344 C1346 1.415 . S
C1345 C1344 1.355 . S
C1345 C1347 1.419 . S
C1346 C1344 1.415 . S
C1346 C1351 1.425 . S
C1346 C1353 1.409 . S
C1347 H1339 0.930 . S
C1347 C1345 1.419 . S
C1347 C1348 1.362 . S
C1348 H1340 0.930 . S
C1348 C1347 1.362 . S
C1348 C1351 1.409 . S
C1349 H1341 0.930 . S
C1349 C1350 1.355 . S
C1349 C1351 1.415 . S
C1350 C1349 1.355 . S
C1350 C1352 1.419 . S
C1351 C1346 1.425 . S
C1351 C1348 1.409 . S
C1351 C1349 1.415 . S
C1352 H1342 0.930 . S
C1352 C1350 1.419 . S
C1352 C1353 1.362 . S
C1353 H1343 0.930 . S
C1353 C1346 1.409 . S
C1353 C1352 1.362 . S
H1354 C1360 0.930 . S
H1355 C1363 0.930 . S
H1356 C1364 0.930 . S
H1357 C1365 0.930 . S
H1358 C1368 0.930 . S
H1359 C1369 0.930 . S
C1360 H1354 0.930 . S
C1360 C1361 1.355 . S
C1360 C1362 1.415 . S
C1361 C1360 1.355 . S
C1361 C1363 1.419 . S
C1362 C1360 1.415 . S
C1362 C1367 1.425 . S
C1362 C1369 1.409 . S
C1363 H1355 0.930 . S
C1363 C1361 1.419 . S
C1363 C1364 1.362 . S
C1364 H1356 0.930 . S
C1364 C1363 1.362 . S
C1364 C1367 1.409 . S
C1365 H1357 0.930 . S
C1365 C1366 1.355 . S
C1365 C1367 1.415 . S
C1366 C1365 1.355 . S
C1366 C1368 1.419 . S
C1367 C1362 1.425 . S
C1367 C1364 1.409 . S
C1367 C1365 1.415 . S
C1368 H1358 0.930 . S
C1368 C1366 1.419 . S
C1368 C1369 1.362 . S
C1369 H1359 0.930 . S
C1369 C1362 1.409 . S
C1369 C1368 1.362 . S
H1370 C1376 0.930 . S
H1371 C1379 0.930 . S
H1372 C1380 0.930 . S
H1373 C1381 0.930 . S
H1374 C1384 0.930 . S
H1375 C1385 0.930 . S
C1376 H1370 0.930 . S
C1376 C1377 1.355 . S
C1376 C1378 1.415 . S
C1377 C1376 1.355 . S
C1377 C1379 1.419 . S
C1378 C1376 1.415 . S
C1378 C1383 1.425 . S
C1378 C1385 1.409 . S
C1379 H1371 0.930 . S
C1379 C1377 1.419 . S
C1379 C1380 1.362 . S
C1380 H1372 0.930 . S
C1380 C1379 1.362 . S
C1380 C1383 1.409 . S
C1381 H1373 0.930 . S
C1381 C1382 1.355 . S
C1381 C1383 1.415 . S
C1382 C1381 1.355 . S
C1382 C1384 1.419 . S
C1383 C1378 1.425 . S
C1383 C1380 1.409 . S
C1383 C1381 1.415 . S
C1384 H1374 0.930 . S
C1384 C1382 1.419 . S
C1384 C1385 1.362 . S
C1385 H1375 0.930 . S
C1385 C1378 1.409 . S
C1385 C1384 1.362 . S
H1386 C1392 0.930 . S
H1387 C1395 0.930 . S
H1388 C1396 0.930 . S
H1389 C1397 0.930 . S
H1390 C1400 0.930 . S
H1391 C1401 0.930 . S
C1392 H1386 0.930 . S
C1392 C1393 1.355 . S
C1392 C1394 1.415 . S
C1393 C1392 1.355 . S
C1393 C1395 1.419 . S
C1394 C1392 1.415 . S
C1394 C1399 1.425 . S
C1394 C1401 1.409 . S
C1395 H1387 0.930 . S
C1395 C1393 1.419 . S
C1395 C1396 1.362 . S
C1396 H1388 0.930 . S
C1396 C1395 1.362 . S
C1396 C1399 1.409 . S
C1397 H1389 0.930 . S
C1397 C1398 1.355 . S
C1397 C1399 1.415 . S
C1398 C1397 1.355 . S
C1398 C1400 1.419 . S
C1399 C1394 1.425 . S
C1399 C1396 1.409 . S
C1399 C1397 1.415 . S
C1400 H1390 0.930 . S
C1400 C1398 1.419 . S
C1400 C1401 1.362 . S
C1401 H1391 0.930 . S
C1401 C1394 1.409 . S
C1401 C1400 1.362 . S
H1402 C1408 0.930 . S
H1403 C1411 0.930 . S
H1404 C1412 0.930 . S
H1405 C1413 0.930 . S
H1406 C1416 0.930 . S
H1407 C1417 0.930 . S
C1408 H1402 0.930 . S
C1408 C1409 1.355 . S
C1408 C1410 1.415 . S
C1409 C1408 1.355 . S
C1409 C1411 1.419 . S
C1410 C1408 1.415 . S
C1410 C1415 1.425 . S
C1410 C1417 1.409 . S
C1411 H1403 0.930 . S
C1411 C1409 1.419 . S
C1411 C1412 1.362 . S
C1412 H1404 0.930 . S
C1412 C1411 1.362 . S
C1412 C1415 1.409 . S
C1413 H1405 0.930 . S
C1413 C1414 1.355 . S
C1413 C1415 1.415 . S
C1414 C1413 1.355 . S
C1414 C1416 1.419 . S
C1415 C1410 1.425 . S
C1415 C1412 1.409 . S
C1415 C1413 1.415 . S
C1416 H1406 0.930 . S
C1416 C1414 1.419 . S
C1416 C1417 1.362 . S
C1417 H1407 0.930 . S
C1417 C1410 1.409 . S
C1417 C1416 1.362 . S
H1418 C1424 0.930 . S
H1419 C1427 0.930 . S
H1420 C1428 0.930 . S
H1421 C1429 0.930 . S
H1422 C1432 0.930 . S
H1423 C1433 0.930 . S
C1424 H1418 0.930 . S
C1424 C1425 1.355 . S
C1424 C1426 1.415 . S
C1425 C1424 1.355 . S
C1425 C1427 1.419 . S
C1426 C1424 1.415 . S
C1426 C1431 1.425 . S
C1426 C1433 1.409 . S
C1427 H1419 0.930 . S
C1427 C1425 1.419 . S
C1427 C1428 1.362 . S
C1428 H1420 0.930 . S
C1428 C1427 1.362 . S
C1428 C1431 1.409 . S
C1429 H1421 0.930 . S
C1429 C1430 1.355 . S
C1429 C1431 1.415 . S
C1430 C1429 1.355 . S
C1430 C1432 1.419 . S
C1431 C1426 1.425 . S
C1431 C1428 1.409 . S
C1431 C1429 1.415 . S
C1432 H1422 0.930 . S
C1432 C1430 1.419 . S
C1432 C1433 1.362 . S
C1433 H1423 0.930 . S
C1433 C1426 1.409 . S
C1433 C1432 1.362 . S
H1434 C1440 0.930 . S
H1435 C1443 0.930 . S
H1436 C1444 0.930 . S
H1437 C1445 0.930 . S
H1438 C1448 0.930 . S
H1439 C1449 0.930 . S
C1440 H1434 0.930 . S
C1440 C1441 1.355 . S
C1440 C1442 1.415 . S
C1441 C1440 1.355 . S
C1441 C1443 1.419 . S
C1442 C1440 1.415 . S
C1442 C1447 1.425 . S
C1442 C1449 1.409 . S
C1443 H1435 0.930 . S
C1443 C1441 1.419 . S
C1443 C1444 1.362 . S
C1444 H1436 0.930 . S
C1444 C1443 1.362 . S
C1444 C1447 1.409 . S
C1445 H1437 0.930 . S
C1445 C1446 1.355 . S
C1445 C1447 1.415 . S
C1446 C1445 1.355 . S
C1446 C1448 1.419 . S
C1447 C1442 1.425 . S
C1447 C1444 1.409 . S
C1447 C1445 1.415 . S
C1448 H1438 0.930 . S
C1448 C1446 1.419 . S
C1448 C1449 1.362 . S
C1449 H1439 0.930 . S
C1449 C1442 1.409 . S
C1449 C1448 1.362 . S
H1450 C1456 0.930 . S
H1451 C1459 0.930 . S
H1452 C1460 0.930 . S
H1453 C1461 0.930 . S
H1454 C1464 0.930 . S
H1455 C1465 0.930 . S
C1456 H1450 0.930 . S
C1456 C1457 1.355 . S
C1456 C1458 1.415 . S
C1457 C1456 1.355 . S
C1457 C1459 1.419 . S
C1458 C1456 1.415 . S
C1458 C1463 1.425 . S
C1458 C1465 1.409 . S
C1459 H1451 0.930 . S
C1459 C1457 1.419 . S
C1459 C1460 1.362 . S
C1460 H1452 0.930 . S
C1460 C1459 1.362 . S
C1460 C1463 1.409 . S
C1461 H1453 0.930 . S
C1461 C1462 1.355 . S
C1461 C1463 1.415 . S
C1462 C1461 1.355 . S
C1462 C1464 1.419 . S
C1463 C1458 1.425 . S
C1463 C1460 1.409 . S
C1463 C1461 1.415 . S
C1464 H1454 0.930 . S
C1464 C1462 1.419 . S
C1464 C1465 1.362 . S
C1465 H1455 0.930 . S
C1465 C1458 1.409 . S
C1465 C1464 1.362 . S
H1466 C1472 0.930 . S
H1467 C1475 0.930 . S
H1468 C1476 0.930 . S
H1469 C1477 0.930 . S
H1470 C1480 0.930 . S
H1471 C1481 0.930 . S
C1472 H1466 0.930 . S
C1472 C1473 1.355 . S
C1472 C1474 1.415 . S
C1473 C1472 1.355 . S
C1473 C1475 1.419 . S
C1474 C1472 1.415 . S
C1474 C1479 1.425 . S
C1474 C1481 1.409 . S
C1475 H1467 0.930 . S
C1475 C1473 1.419 . S
C1475 C1476 1.362 . S
C1476 H1468 0.930 . S
C1476 C1475 1.362 . S
C1476 C1479 1.409 . S
C1477 H1469 0.930 . S
C1477 C1478 1.355 . S
C1477 C1479 1.415 . S
C1478 C1477 1.355 . S
C1478 C1480 1.419 . S
C1479 C1474 1.425 . S
C1479 C1476 1.409 . S
C1479 C1477 1.415 . S
C1480 H1470 0.930 . S
C1480 C1478 1.419 . S
C1480 C1481 1.362 . S
C1481 H1471 0.930 . S
C1481 C1474 1.409 . S
C1481 C1480 1.362 . S
H1482 C1488 0.930 . S
H1483 C1491 0.930 . S
H1484 C1492 0.930 . S
H1485 C1493 0.930 . S
H1486 C1496 0.930 . S
H1487 C1497 0.930 . S
C1488 H1482 0.930 . S
C1488 C1489 1.355 . S
C1488 C1490 1.415 . S
C1489 C1488 1.355 . S
C1489 C1491 1.419 . S
C1490 C1488 1.415 . S
C1490 C1495 1.425 . S
C1490 C1497 1.409 . S
C1491 H1483 0.930 . S
C1491 C1489 1.419 . S
C1491 C1492 1.362 . S
C1492 H1484 0.930 . S
C1492 C1491 1.362 . S
C1492 C1495 1.409 . S
C1493 H1485 0.930 . S
C1493 C1494 1.355 . S
C1493 C1495 1.415 . S
C1494 C1493 1.355 . S
C1494 C1496 1.419 . S
C1495 C1490 1.425 . S
C1495 C1492 1.409 . S
C1495 C1493 1.415 . S
C1496 H1486 0.930 . S
C1496 C1494 1.419 . S
C1496 C1497 1.362 . S
C1497 H1487 0.930 . S
C1497 C1490 1.409 . S
C1497 C1496 1.362 . S
H1498 C1504 0.930 . S
H1499 C1507 0.930 . S
H1500 C1508 0.930 . S
H1501 C1509 0.930 . S
H1502 C1512 0.930 . S
H1503 C1513 0.930 . S
C1504 H1498 0.930 . S
C1504 C1505 1.355 . S
C1504 C1506 1.415 . S
C1505 C1504 1.355 . S
C1505 C1507 1.419 . S
C1506 C1504 1.415 . S
C1506 C1511 1.425 . S
C1506 C1513 1.409 . S
C1507 H1499 0.930 . S
C1507 C1505 1.419 . S
C1507 C1508 1.362 . S
C1508 H1500 0.930 . S
C1508 C1507 1.362 . S
C1508 C1511 1.409 . S
C1509 H1501 0.930 . S
C1509 C1510 1.355 . S
C1509 C1511 1.415 . S
C1510 C1509 1.355 . S
C1510 C1512 1.419 . S
C1511 C1506 1.425 . S
C1511 C1508 1.409 . S
C1511 C1509 1.415 . S
C1512 H1502 0.930 . S
C1512 C1510 1.419 . S
C1512 C1513 1.362 . S
C1513 H1503 0.930 . S
C1513 C1506 1.409 . S
C1513 C1512 1.362 . S
H1514 C1520 0.930 . S
H1515 C1523 0.930 . S
H1516 C1524 0.930 . S
H1517 C1525 0.930 . S
H1518 C1528 0.930 . S
H1519 C1529 0.930 . S
C1520 H1514 0.930 . S
C1520 C1521 1.355 . S
C1520 C1522 1.415 . S
C1521 C1520 1.355 . S
C1521 C1523 1.419 . S
C1522 C1520 1.415 . S
C1522 C1527 1.425 . S
C1522 C1529 1.409 . S
C1523 H1515 0.930 . S
C1523 C1521 1.419 . S
C1523 C1524 1.362 . S
C1524 H1516 0.930 . S
C1524 C1523 1.362 . S
C1524 C1527 1.409 . S
C1525 H1517 0.930 . S
C1525 C1526 1.355 . S
C1525 C1527 1.415 . S
C1526 C1525 1.355 . S
C1526 C1528 1.419 . S
C1527 C1522 1.425 . S
C1527 C1524 1.409 . S
C1527 C1525 1.415 . S
C1528 H1518 0.930 . S
C1528 C1526 1.419 . S
C1528 C1529 1.362 . S
C1529 H1519 0.930 . S
C1529 C1522 1.409 . S
C1529 C1528 1.362 . S
H1530 C1536 0.930 . S
H1531 C1539 0.930 . S
H1532 C1540 0.930 . S
H1533 C1541 0.930 . S
H1534 C1544 0.930 . S
H1535 C1545 0.930 . S
C1536 H1530 0.930 . S
C1536 C1537 1.355 . S
C1536 C1538 1.415 1_565 S
C1537 C1536 1.355 . S
C1537 C1539 1.419 . S
C1538 C1536 1.415 1_545 S
C1538 C1543 1.425 1_545 S
C1538 C1545 1.409 . S
C1539 H1531 0.930 . S
C1539 C1537 1.419 . S
C1539 C1540 1.362 . S
C1540 H1532 0.930 . S
C1540 C1539 1.362 . S
C1540 C1543 1.409 . S
C1541 H1533 0.930 . S
C1541 C1542 1.355 . S
C1541 C1543 1.415 1_545 S
C1542 C1541 1.355 . S
C1542 C1544 1.419 . S
C1543 C1538 1.425 1_565 S
C1543 C1540 1.409 . S
C1543 C1541 1.415 1_565 S
C1544 H1534 0.930 . S
C1544 C1542 1.419 . S
C1544 C1545 1.362 . S
C1545 H1535 0.930 . S
C1545 C1538 1.409 . S
C1545 C1544 1.362 . S
H1546 C1552 0.930 . S
H1547 C1555 0.930 . S
H1548 C1556 0.930 1_655 S
H1549 C1557 0.930 . S
H1550 C1560 0.930 . S
H1551 C1561 0.930 1_455 S
C1552 H1546 0.930 . S
C1552 C1553 1.355 . S
C1552 C1554 1.415 . S
C1553 C1552 1.355 . S
C1553 C1555 1.419 . S
C1554 C1552 1.415 . S
C1554 C1559 1.425 1_455 S
C1554 C1561 1.409 1_455 S
C1555 H1547 0.930 . S
C1555 C1553 1.419 . S
C1555 C1556 1.362 . S
C1556 H1548 0.930 1_455 S
C1556 C1555 1.362 . S
C1556 C1559 1.409 1_455 S
C1557 H1549 0.930 . S
C1557 C1558 1.355 . S
C1557 C1559 1.415 . S
C1558 C1557 1.355 . S
C1558 C1560 1.419 . S
C1559 C1554 1.425 1_655 S
C1559 C1556 1.409 1_655 S
C1559 C1557 1.415 . S
C1560 H1550 0.930 . S
C1560 C1558 1.419 . S
C1560 C1561 1.362 . S
C1561 H1551 0.930 1_655 S
C1561 C1554 1.409 1_655 S
C1561 C1560 1.362 . S
H1562 C1568 0.930 . S
H1563 C1571 0.930 . S
H1564 C1572 0.930 . S
H1565 C1573 0.930 . S
H1566 C1576 0.930 . S
H1567 C1577 0.930 . S
C1568 H1562 0.930 . S
C1568 C1569 1.355 . S
C1568 C1570 1.415 . S
C1569 C1568 1.355 . S
C1569 C1571 1.419 . S
C1570 C1568 1.415 . S
C1570 C1575 1.425 . S
C1570 C1577 1.409 . S
C1571 H1563 0.930 . S
C1571 C1569 1.419 . S
C1571 C1572 1.362 . S
C1572 H1564 0.930 . S
C1572 C1571 1.362 . S
C1572 C1575 1.409 . S
C1573 H1565 0.930 . S
C1573 C1574 1.355 . S
C1573 C1575 1.415 . S
C1574 C1573 1.355 . S
C1574 C1576 1.419 . S
C1575 C1570 1.425 . S
C1575 C1572 1.409 . S
C1575 C1573 1.415 . S
C1576 H1566 0.930 . S
C1576 C1574 1.419 . S
C1576 C1577 1.362 . S
C1577 H1567 0.930 . S
C1577 C1570 1.409 . S
C1577 C1576 1.362 . S
H1578 C1584 0.930 . S
H1579 C1587 0.930 . S
H1580 C1588 0.930 . S
H1581 C1589 0.930 . S
H1582 C1592 0.930 . S
H1583 C1593 0.930 . S
C1584 H1578 0.930 . S
C1584 C1585 1.355 . S
C1584 C1586 1.415 . S
C1585 C1584 1.355 . S
C1585 C1587 1.419 . S
C1586 C1584 1.415 . S
C1586 C1591 1.425 . S
C1586 C1593 1.409 . S
C1587 H1579 0.930 . S
C1587 C1585 1.419 . S
C1587 C1588 1.362 . S
C1588 H1580 0.930 . S
C1588 C1587 1.362 . S
C1588 C1591 1.409 . S
C1589 H1581 0.930 . S
C1589 C1590 1.355 . S
C1589 C1591 1.415 . S
C1590 C1589 1.355 . S
C1590 C1592 1.419 . S
C1591 C1586 1.425 . S
C1591 C1588 1.409 . S
C1591 C1589 1.415 . S
C1592 H1582 0.930 . S
C1592 C1590 1.419 . S
C1592 C1593 1.362 . S
C1593 H1583 0.930 . S
C1593 C1586 1.409 . S
C1593 C1592 1.362 . S
H1594 C1600 0.930 . S
H1595 C1603 0.930 . S
H1596 C1604 0.930 . S
H1597 C1605 0.930 . S
H1598 C1608 0.930 . S
H1599 C1609 0.930 . S
C1600 H1594 0.930 . S
C1600 C1601 1.355 . S
C1600 C1602 1.415 . S
C1601 C1600 1.355 . S
C1601 C1603 1.419 . S
C1602 C1600 1.415 . S
C1602 C1607 1.425 . S
C1602 C1609 1.409 . S
C1603 H1595 0.930 . S
C1603 C1601 1.419 . S
C1603 C1604 1.362 . S
C1604 H1596 0.930 . S
C1604 C1603 1.362 . S
C1604 C1607 1.409 . S
C1605 H1597 0.930 . S
C1605 C1606 1.355 . S
C1605 C1607 1.415 . S
C1606 C1605 1.355 . S
C1606 C1608 1.419 . S
C1607 C1602 1.425 . S
C1607 C1604 1.409 . S
C1607 C1605 1.415 . S
C1608 H1598 0.930 . S
C1608 C1606 1.419 . S
C1608 C1609 1.362 . S
C1609 H1599 0.930 . S
C1609 C1602 1.409 . S
C1609 C1608 1.362 . S
H1610 C1616 0.930 . S
H1611 C1619 0.930 . S
H1612 C1620 0.930 . S
H1613 C1621 0.930 . S
H1614 C1624 0.930 . S
H1615 C1625 0.930 . S
C1616 H1610 0.930 . S
C1616 C1617 1.355 . S
C1616 C1618 1.415 . S
C1617 C1616 1.355 . S
C1617 C1619 1.419 . S
C1618 C1616 1.415 . S
C1618 C1623 1.425 . S
C1618 C1625 1.409 . S
C1619 H1611 0.930 . S
C1619 C1617 1.419 . S
C1619 C1620 1.362 . S
C1620 H1612 0.930 . S
C1620 C1619 1.362 . S
C1620 C1623 1.409 . S
C1621 H1613 0.930 . S
C1621 C1622 1.355 . S
C1621 C1623 1.415 . S
C1622 C1621 1.355 . S
C1622 C1624 1.419 . S
C1623 C1618 1.425 . S
C1623 C1620 1.409 . S
C1623 C1621 1.415 . S
C1624 H1614 0.930 . S
C1624 C1622 1.419 . S
C1624 C1625 1.362 . S
C1625 H1615 0.930 . S
C1625 C1618 1.409 . S
C1625 C1624 1.362 . S
H1626 C1632 0.930 . S
H1627 C1635 0.930 . S
H1628 C1636 0.930 . S
H1629 C1637 0.930 . S
H1630 C1640 0.930 . S
H1631 C1641 0.930 . S
C1632 H1626 0.930 . S
C1632 C1633 1.355 . S
C1632 C1634 1.415 . S
C1633 C1632 1.355 . S
C1633 C1635 1.419 . S
C1634 C1632 1.415 . S
C1634 C1639 1.425 . S
C1634 C1641 1.409 . S
C1635 H1627 0.930 . S
C1635 C1633 1.419 . S
C1635 C1636 1.362 . S
C1636 H1628 0.930 . S
C1636 C1635 1.362 . S
C1636 C1639 1.409 . S
C1637 H1629 0.930 . S
C1637 C1638 1.355 . S
C1637 C1639 1.415 . S
C1638 C1637 1.355 . S
C1638 C1640 1.419 . S
C1639 C1634 1.425 . S
C1639 C1636 1.409 . S
C1639 C1637 1.415 . S
C1640 H1630 0.930 . S
C1640 C1638 1.419 . S
C1640 C1641 1.362 . S
C1641 H1631 0.930 . S
C1641 C1634 1.409 . S
C1641 C1640 1.362 . S
H1642 C1648 0.930 . S
H1643 C1651 0.930 . S
H1644 C1652 0.930 . S
H1645 C1653 0.930 . S
H1646 C1656 0.930 . S
H1647 C1657 0.930 . S
C1648 H1642 0.930 . S
C1648 C1649 1.355 . S
C1648 C1650 1.415 . S
C1649 C1648 1.355 . S
C1649 C1651 1.419 . S
C1650 C1648 1.415 . S
C1650 C1655 1.425 . S
C1650 C1657 1.409 . S
C1651 H1643 0.930 . S
C1651 C1649 1.419 . S
C1651 C1652 1.362 . S
C1652 H1644 0.930 . S
C1652 C1651 1.362 . S
C1652 C1655 1.409 . S
C1653 H1645 0.930 . S
C1653 C1654 1.355 . S
C1653 C1655 1.415 . S
C1654 C1653 1.355 . S
C1654 C1656 1.419 . S
C1655 C1650 1.425 . S
C1655 C1652 1.409 . S
C1655 C1653 1.415 . S
C1656 H1646 0.930 . S
C1656 C1654 1.419 . S
C1656 C1657 1.362 . S
C1657 H1647 0.930 . S
C1657 C1650 1.409 . S
C1657 C1656 1.362 . S
H1658 C1664 0.930 . S
H1659 C1667 0.930 . S
H1660 C1668 0.930 . S
H1661 C1669 0.930 . S
H1662 C1672 0.930 . S
H1663 C1673 0.930 . S
C1664 H1658 0.930 . S
C1664 C1665 1.355 . S
C1664 C1666 1.415 . S
C1665 C1664 1.355 . S
C1665 C1667 1.419 . S
C1666 C1664 1.415 . S
C1666 C1671 1.425 . S
C1666 C1673 1.409 . S
C1667 H1659 0.930 . S
C1667 C1665 1.419 . S
C1667 C1668 1.362 . S
C1668 H1660 0.930 . S
C1668 C1667 1.362 . S
C1668 C1671 1.409 . S
C1669 H1661 0.930 . S
C1669 C1670 1.355 . S
C1669 C1671 1.415 . S
C1670 C1669 1.355 . S
C1670 C1672 1.419 . S
C1671 C1666 1.425 . S
C1671 C1668 1.409 . S
C1671 C1669 1.415 . S
C1672 H1662 0.930 . S
C1672 C1670 1.419 . S
C1672 C1673 1.362 . S
C1673 H1663 0.930 . S
C1673 C1666 1.409 . S
C1673 C1672 1.362 . S
H1674 C1680 0.930 . S
H1675 C1683 0.930 . S
H1676 C1684 0.930 . S
H1677 C1685 0.930 . S
H1678 C1688 0.930 . S
H1679 C1689 0.930 . S
C1680 H1674 0.930 . S
C1680 C1681 1.355 . S
C1680 C1682 1.415 . S
C1681 C1680 1.355 . S
C1681 C1683 1.419 . S
C1682 C1680 1.415 . S
C1682 C1687 1.425 . S
C1682 C1689 1.409 . S
C1683 H1675 0.930 . S
C1683 C1681 1.419 . S
C1683 C1684 1.362 . S
C1684 H1676 0.930 . S
C1684 C1683 1.362 . S
C1684 C1687 1.409 . S
C1685 H1677 0.930 . S
C1685 C1686 1.355 . S
C1685 C1687 1.415 . S
C1686 C1685 1.355 . S
C1686 C1688 1.419 . S
C1687 C1682 1.425 . S
C1687 C1684 1.409 . S
C1687 C1685 1.415 . S
C1688 H1678 0.930 . S
C1688 C1686 1.419 . S
C1688 C1689 1.362 . S
C1689 H1679 0.930 . S
C1689 C1682 1.409 . S
C1689 C1688 1.362 . S
H1690 C1696 0.930 . S
H1691 C1699 0.930 . S
H1692 C1700 0.930 . S
H1693 C1701 0.930 . S
H1694 C1704 0.930 . S
H1695 C1705 0.930 . S
C1696 H1690 0.930 . S
C1696 C1697 1.355 . S
C1696 C1698 1.415 . S
C1697 C1696 1.355 . S
C1697 C1699 1.419 . S
C1698 C1696 1.415 . S
C1698 C1703 1.425 . S
C1698 C1705 1.409 . S
C1699 H1691 0.930 . S
C1699 C1697 1.419 . S
C1699 C1700 1.362 . S
C1700 H1692 0.930 . S
C1700 C1699 1.362 . S
C1700 C1703 1.409 . S
C1701 H1693 0.930 . S
C1701 C1702 1.355 . S
C1701 C1703 1.415 . S
C1702 C1701 1.355 . S
C1702 C1704 1.419 . S
C1703 C1698 1.425 . S
C1703 C1700 1.409 . S
C1703 C1701 1.415 . S
C1704 H1694 0.930 . S
C1704 C1702 1.419 . S
C1704 C1705 1.362 . S
C1705 H1695 0.930 . S
C1705 C1698 1.409 . S
C1705 C1704 1.362 . S
H1706 C1712 0.930 . S
H1707 C1715 0.930 . S
H1708 C1716 0.930 . S
H1709 C1717 0.930 . S
H1710 C1720 0.930 . S
H1711 C1721 0.930 . S
C1712 H1706 0.930 . S
C1712 C1713 1.355 . S
C1712 C1714 1.415 . S
C1713 C1712 1.355 . S
C1713 C1715 1.419 . S
C1714 C1712 1.415 . S
C1714 C1719 1.425 . S
C1714 C1721 1.409 . S
C1715 H1707 0.930 . S
C1715 C1713 1.419 . S
C1715 C1716 1.362 . S
C1716 H1708 0.930 . S
C1716 C1715 1.362 . S
C1716 C1719 1.409 . S
C1717 H1709 0.930 . S
C1717 C1718 1.355 . S
C1717 C1719 1.415 . S
C1718 C1717 1.355 . S
C1718 C1720 1.419 . S
C1719 C1714 1.425 . S
C1719 C1716 1.409 . S
C1719 C1717 1.415 . S
C1720 H1710 0.930 . S
C1720 C1718 1.419 . S
C1720 C1721 1.362 . S
C1721 H1711 0.930 . S
C1721 C1714 1.409 . S
C1721 C1720 1.362 . S
H1722 C1728 0.930 . S
H1723 C1731 0.930 . S
H1724 C1732 0.930 . S
H1725 C1733 0.930 . S
H1726 C1736 0.930 . S
H1727 C1737 0.930 . S
C1728 H1722 0.930 . S
C1728 C1729 1.355 . S
C1728 C1730 1.415 . S
C1729 C1728 1.355 . S
C1729 C1731 1.419 . S
C1730 C1728 1.415 . S
C1730 C1735 1.425 . S
C1730 C1737 1.409 . S
C1731 H1723 0.930 . S
C1731 C1729 1.419 . S
C1731 C1732 1.362 . S
C1732 H1724 0.930 . S
C1732 C1731 1.362 . S
C1732 C1735 1.409 . S
C1733 H1725 0.930 . S
C1733 C1734 1.355 . S
C1733 C1735 1.415 . S
C1734 C1733 1.355 . S
C1734 C1736 1.419 . S
C1735 C1730 1.425 . S
C1735 C1732 1.409 . S
C1735 C1733 1.415 . S
C1736 H1726 0.930 . S
C1736 C1734 1.419 . S
C1736 C1737 1.362 . S
C1737 H1727 0.930 . S
C1737 C1730 1.409 . S
C1737 C1736 1.362 . S
H1738 C1744 0.930 . S
H1739 C1747 0.930 . S
H1740 C1748 0.930 . S
H1741 C1749 0.930 . S
H1742 C1752 0.930 . S
H1743 C1753 0.930 . S
C1744 H1738 0.930 . S
C1744 C1745 1.355 . S
C1744 C1746 1.415 . S
C1745 C1744 1.355 . S
C1745 C1747 1.419 . S
C1746 C1744 1.415 . S
C1746 C1751 1.425 . S
C1746 C1753 1.409 . S
C1747 H1739 0.930 . S
C1747 C1745 1.419 . S
C1747 C1748 1.362 . S
C1748 H1740 0.930 . S
C1748 C1747 1.362 . S
C1748 C1751 1.409 . S
C1749 H1741 0.930 . S
C1749 C1750 1.355 . S
C1749 C1751 1.415 . S
C1750 C1749 1.355 . S
C1750 C1752 1.419 . S
C1751 C1746 1.425 . S
C1751 C1748 1.409 . S
C1751 C1749 1.415 . S
C1752 H1742 0.930 . S
C1752 C1750 1.419 . S
C1752 C1753 1.362 . S
C1753 H1743 0.930 . S
C1753 C1746 1.409 . S
C1753 C1752 1.362 . S
H1754 C1760 0.930 . S
H1755 C1763 0.930 . S
H1756 C1764 0.930 . S
H1757 C1765 0.930 . S
H1758 C1768 0.930 . S
H1759 C1769 0.930 . S
C1760 H1754 0.930 . S
C1760 C1761 1.355 . S
C1760 C1762 1.415 . S
C1761 C1760 1.355 . S
C1761 C1763 1.419 . S
C1762 C1760 1.415 . S
C1762 C1767 1.425 . S
C1762 C1769 1.409 . S
C1763 H1755 0.930 . S
C1763 C1761 1.419 . S
C1763 C1764 1.362 . S
C1764 H1756 0.930 . S
C1764 C1763 1.362 . S
C1764 C1767 1.409 . S
C1765 H1757 0.930 . S
C1765 C1766 1.355 . S
C1765 C1767 1.415 . S
C1766 C1765 1.355 . S
C1766 C1768 1.419 . S
C1767 C1762 1.425 . S
C1767 C1764 1.409 . S
C1767 C1765 1.415 . S
C1768 H1758 0.930 . S
C1768 C1766 1.419 . S
C1768 C1769 1.362 . S
C1769 H1759 0.930 . S
C1769 C1762 1.409 . S
C1769 C1768 1.362 . S
H1770 C1776 0.930 . S
H1771 C1779 0.930 . S
H1772 C1780 0.930 . S
H1773 C1781 0.930 . S
H1774 C1784 0.930 . S
H1775 C1785 0.930 . S
C1776 H1770 0.930 . S
C1776 C1777 1.355 . S
C1776 C1778 1.415 . S
C1777 C1776 1.355 . S
C1777 C1779 1.419 . S
C1778 C1776 1.415 . S
C1778 C1783 1.425 . S
C1778 C1785 1.409 . S
C1779 H1771 0.930 . S
C1779 C1777 1.419 . S
C1779 C1780 1.362 . S
C1780 H1772 0.930 . S
C1780 C1779 1.362 . S
C1780 C1783 1.409 . S
C1781 H1773 0.930 . S
C1781 C1782 1.355 . S
C1781 C1783 1.415 . S
C1782 C1781 1.355 . S
C1782 C1784 1.419 . S
C1783 C1778 1.425 . S
C1783 C1780 1.409 . S
C1783 C1781 1.415 . S
C1784 H1774 0.930 . S
C1784 C1782 1.419 . S
C1784 C1785 1.362 . S
C1785 H1775 0.930 . S
C1785 C1778 1.409 . S
C1785 C1784 1.362 . S
H1786 C1792 0.930 . S
H1787 C1795 0.930 . S
H1788 C1796 0.930 . S
H1789 C1797 0.930 . S
H1790 C1800 0.930 . S
H1791 C1801 0.930 . S
C1792 H1786 0.930 . S
C1792 C1793 1.355 . S
C1792 C1794 1.415 . S
C1793 C1792 1.355 . S
C1793 C1795 1.419 . S
C1794 C1792 1.415 . S
C1794 C1799 1.425 . S
C1794 C1801 1.409 . S
C1795 H1787 0.930 . S
C1795 C1793 1.419 . S
C1795 C1796 1.362 . S
C1796 H1788 0.930 . S
C1796 C1795 1.362 . S
C1796 C1799 1.409 . S
C1797 H1789 0.930 . S
C1797 C1798 1.355 . S
C1797 C1799 1.415 . S
C1798 C1797 1.355 . S
C1798 C1800 1.419 . S
C1799 C1794 1.425 . S
C1799 C1796 1.409 . S
C1799 C1797 1.415 . S
C1800 H1790 0.930 . S
C1800 C1798 1.419 . S
C1800 C1801 1.362 . S
C1801 H1791 0.930 . S
C1801 C1794 1.409 . S
C1801 C1800 1.362 . S
H1802 C1808 0.930 . S
H1803 C1811 0.930 . S
H1804 C1812 0.930 . S
H1805 C1813 0.930 . S
H1806 C1816 0.930 . S
H1807 C1817 0.930 . S
C1808 H1802 0.930 . S
C1808 C1809 1.355 . S
C1808 C1810 1.415 . S
C1809 C1808 1.355 . S
C1809 C1811 1.419 . S
C1810 C1808 1.415 . S
C1810 C1815 1.425 . S
C1810 C1817 1.409 . S
C1811 H1803 0.930 . S
C1811 C1809 1.419 . S
C1811 C1812 1.362 . S
C1812 H1804 0.930 . S
C1812 C1811 1.362 . S
C1812 C1815 1.409 . S
C1813 H1805 0.930 . S
C1813 C1814 1.355 . S
C1813 C1815 1.415 . S
C1814 C1813 1.355 . S
C1814 C1816 1.419 . S
C1815 C1810 1.425 . S
C1815 C1812 1.409 . S
C1815 C1813 1.415 . S
C1816 H1806 0.930 . S
C1816 C1814 1.419 . S
C1816 C1817 1.362 . S
C1817 H1807 0.930 . S
C1817 C1810 1.409 . S
C1817 C1816 1.362 . S
H1818 C1824 0.930 . S
H1819 C1827 0.930 . S
H1820 C1828 0.930 . S
H1821 C1829 0.930 . S
H1822 C1832 0.930 . S
H1823 C1833 0.930 . S
C1824 H1818 0.930 . S
C1824 C1825 1.355 . S
C1824 C1826 1.415 . S
C1825 C1824 1.355 . S
C1825 C1827 1.419 . S
C1826 C1824 1.415 . S
C1826 C1831 1.425 . S
C1826 C1833 1.409 . S
C1827 H1819 0.930 . S
C1827 C1825 1.419 . S
C1827 C1828 1.362 . S
C1828 H1820 0.930 . S
C1828 C1827 1.362 . S
C1828 C1831 1.409 . S
C1829 H1821 0.930 . S
C1829 C1830 1.355 . S
C1829 C1831 1.415 . S
C1830 C1829 1.355 . S
C1830 C1832 1.419 . S
C1831 C1826 1.425 . S
C1831 C1828 1.409 . S
C1831 C1829 1.415 . S
C1832 H1822 0.930 . S
C1832 C1830 1.419 . S
C1832 C1833 1.362 . S
C1833 H1823 0.930 . S
C1833 C1826 1.409 . S
C1833 C1832 1.362 . S
H1834 C1840 0.930 . S
H1835 C1843 0.930 . S
H1836 C1844 0.930 . S
H1837 C1845 0.930 . S
H1838 C1848 0.930 . S
H1839 C1849 0.930 . S
C1840 H1834 0.930 . S
C1840 C1841 1.355 . S
C1840 C1842 1.415 . S
C1841 C1840 1.355 . S
C1841 C1843 1.419 . S
C1842 C1840 1.415 . S
C1842 C1847 1.425 . S
C1842 C1849 1.409 . S
C1843 H1835 0.930 . S
C1843 C1841 1.419 . S
C1843 C1844 1.362 . S
C1844 H1836 0.930 . S
C1844 C1843 1.362 . S
C1844 C1847 1.409 . S
C1845 H1837 0.930 . S
C1845 C1846 1.355 . S
C1845 C1847 1.415 . S
C1846 C1845 1.355 . S
C1846 C1848 1.419 . S
C1847 C1842 1.425 . S
C1847 C1844 1.409 . S
C1847 C1845 1.415 . S
C1848 H1838 0.930 . S
C1848 C1846 1.419 . S
C1848 C1849 1.362 . S
C1849 H1839 0.930 . S
C1849 C1842 1.409 . S
C1849 C1848 1.362 . S
H1850 C1856 0.930 . S
H1851 C1859 0.930 . S
H1852 C1860 0.930 . S
H1853 C1861 0.930 . S
H1854 C1864 0.930 . S
H1855 C1865 0.930 . S
C1856 H1850 0.930 . S
C1856 C1857 1.355 . S
C1856 C1858 1.415 . S
C1857 C1856 1.355 . S
C1857 C1859 1.419 . S
C1858 C1856 1.415 . S
C1858 C1863 1.425 . S
C1858 C1865 1.409 . S
C1859 H1851 0.930 . S
C1859 C1857 1.419 . S
C1859 C1860 1.362 . S
C1860 H1852 0.930 . S
C1860 C1859 1.362 . S
C1860 C1863 1.409 . S
C1861 H1853 0.930 . S
C1861 C1862 1.355 . S
C1861 C1863 1.415 . S
C1862 C1861 1.355 . S
C1862 C1864 1.419 . S
C1863 C1858 1.425 . S
C1863 C1860 1.409 . S
C1863 C1861 1.415 . S
C1864 H1854 0.930 . S
C1864 C1862 1.419 . S
C1864 C1865 1.362 . S
C1865 H1855 0.930 . S
C1865 C1858 1.409 . S
C1865 C1864 1.362 . S
H1866 C1872 0.930 . S
H1867 C1875 0.930 . S
H1868 C1876 0.930 . S
H1869 C1877 0.930 . S
H1870 C1880 0.930 . S
H1871 C1881 0.930 . S
C1872 H1866 0.930 . S
C1872 C1873 1.355 . S
C1872 C1874 1.415 . S
C1873 C1872 1.355 . S
C1873 C1875 1.419 . S
C1874 C1872 1.415 . S
C1874 C1879 1.425 . S
C1874 C1881 1.409 . S
C1875 H1867 0.930 . S
C1875 C1873 1.419 . S
C1875 C1876 1.362 . S
C1876 H1868 0.930 . S
C1876 C1875 1.362 . S
C1876 C1879 1.409 . S
C1877 H1869 0.930 . S
C1877 C1878 1.355 . S
C1877 C1879 1.415 . S
C1878 C1877 1.355 . S
C1878 C1880 1.419 . S
C1879 C1874 1.425 . S
C1879 C1876 1.409 . S
C1879 C1877 1.415 . S
C1880 H1870 0.930 . S
C1880 C1878 1.419 . S
C1880 C1881 1.362 . S
C1881 H1871 0.930 . S
C1881 C1874 1.409 . S
C1881 C1880 1.362 . S
H1882 C1888 0.930 . S
H1883 C1891 0.930 . S
H1884 C1892 0.930 . S
H1885 C1893 0.930 . S
H1886 C1896 0.930 . S
H1887 C1897 0.930 . S
C1888 H1882 0.930 . S
C1888 C1889 1.355 . S
C1888 C1890 1.415 . S
C1889 C1888 1.355 . S
C1889 C1891 1.419 . S
C1890 C1888 1.415 . S
C1890 C1895 1.425 . S
C1890 C1897 1.409 . S
C1891 H1883 0.930 . S
C1891 C1889 1.419 . S
C1891 C1892 1.362 . S
C1892 H1884 0.930 . S
C1892 C1891 1.362 . S
C1892 C1895 1.409 . S
C1893 H1885 0.930 . S
C1893 C1894 1.355 . S
C1893 C1895 1.415 . S
C1894 C1893 1.355 . S
C1894 C1896 1.419 . S
C1895 C1890 1.425 . S
C1895 C1892 1.409 . S
C1895 C1893 1.415 . S
C1896 H1886 0.930 . S
C1896 C1894 1.419 . S
C1896 C1897 1.362 . S
C1897 H1887 0.930 . S
C1897 C1890 1.409 . S
C1897 C1896 1.362 . S
H1898 C1904 0.930 . S
H1899 C1907 0.930 . S
H1900 C1908 0.930 . S
H1901 C1909 0.930 . S
H1902 C1912 0.930 . S
H1903 C1913 0.930 . S
C1904 H1898 0.930 . S
C1904 C1905 1.355 . S
C1904 C1906 1.415 . S
C1905 C1904 1.355 . S
C1905 C1907 1.419 . S
C1906 C1904 1.415 . S
C1906 C1911 1.425 . S
C1906 C1913 1.409 . S
C1907 H1899 0.930 . S
C1907 C1905 1.419 . S
C1907 C1908 1.362 . S
C1908 H1900 0.930 . S
C1908 C1907 1.362 . S
C1908 C1911 1.409 . S
C1909 H1901 0.930 . S
C1909 C1910 1.355 . S
C1909 C1911 1.415 . S
C1910 C1909 1.355 . S
C1910 C1912 1.419 . S
C1911 C1906 1.425 . S
C1911 C1908 1.409 . S
C1911 C1909 1.415 . S
C1912 H1902 0.930 . S
C1912 C1910 1.419 . S
C1912 C1913 1.362 . S
C1913 H1903 0.930 . S
C1913 C1906 1.409 . S
C1913 C1912 1.362 . S
H1914 C1920 0.930 . S
H1915 C1923 0.930 . S
H1916 C1924 0.930 . S
H1917 C1925 0.930 . S
H1918 C1928 0.930 . S
H1919 C1929 0.930 . S
C1920 H1914 0.930 . S
C1920 C1921 1.355 . S
C1920 C1922 1.415 . S
C1921 C1920 1.355 . S
C1921 C1923 1.419 . S
C1922 C1920 1.415 . S
C1922 C1927 1.425 . S
C1922 C1929 1.409 . S
C1923 H1915 0.930 . S
C1923 C1921 1.419 . S
C1923 C1924 1.362 . S
C1924 H1916 0.930 . S
C1924 C1923 1.362 . S
C1924 C1927 1.409 . S
C1925 H1917 0.930 . S
C1925 C1926 1.355 . S
C1925 C1927 1.415 . S
C1926 C1925 1.355 . S
C1926 C1928 1.419 . S
C1927 C1922 1.425 . S
C1927 C1924 1.409 . S
C1927 C1925 1.415 . S
C1928 H1918 0.930 . S
C1928 C1926 1.419 . S
C1928 C1929 1.362 . S
C1929 H1919 0.930 . S
C1929 C1922 1.409 . S
C1929 C1928 1.362 . S
H1930 C1936 0.930 . S
H1931 C1939 0.930 . S
H1932 C1940 0.930 . S
H1933 C1941 0.930 . S
H1934 C1944 0.930 . S
H1935 C1945 0.930 . S
C1936 H1930 0.930 . S
C1936 C1937 1.355 . S
C1936 C1938 1.415 . S
C1937 C1936 1.355 . S
C1937 C1939 1.419 . S
C1938 C1936 1.415 . S
C1938 C1943 1.425 . S
C1938 C1945 1.409 . S
C1939 H1931 0.930 . S
C1939 C1937 1.419 . S
C1939 C1940 1.362 . S
C1940 H1932 0.930 . S
C1940 C1939 1.362 . S
C1940 C1943 1.409 . S
C1941 H1933 0.930 . S
C1941 C1942 1.355 . S
C1941 C1943 1.415 . S
C1942 C1941 1.355 . S
C1942 C1944 1.419 . S
C1943 C1938 1.425 . S
C1943 C1940 1.409 . S
C1943 C1941 1.415 . S
C1944 H1934 0.930 . S
C1944 C1942 1.419 . S
C1944 C1945 1.362 . S
C1945 H1935 0.930 . S
C1945 C1938 1.409 . S
C1945 C1944 1.362 . S
H1946 C1952 0.930 . S
H1947 C1955 0.930 . S
H1948 C1956 0.930 . S
H1949 C1957 0.930 . S
H1950 C1960 0.930 . S
H1951 C1961 0.930 . S
C1952 H1946 0.930 . S
C1952 C1953 1.355 . S
C1952 C1954 1.415 . S
C1953 C1952 1.355 . S
C1953 C1955 1.419 . S
C1954 C1952 1.415 . S
C1954 C1959 1.425 . S
C1954 C1961 1.409 . S
C1955 H1947 0.930 . S
C1955 C1953 1.419 . S
C1955 C1956 1.362 . S
C1956 H1948 0.930 . S
C1956 C1955 1.362 . S
C1956 C1959 1.409 . S
C1957 H1949 0.930 . S
C1957 C1958 1.355 . S
C1957 C1959 1.415 . S
C1958 C1957 1.355 . S
C1958 C1960 1.419 . S
C1959 C1954 1.425 . S
C1959 C1956 1.409 . S
C1959 C1957 1.415 . S
C1960 H1950 0.930 . S
C1960 C1958 1.419 . S
C1960 C1961 1.362 . S
C1961 H1951 0.930 . S
C1961 C1954 1.409 . S
C1961 C1960 1.362 . S
C1105 C253 1.484 . S
C1110 C398 1.375 . S
C1121 C272 1.507 . S
C1126 C482 1.419 . S
C1137 C234 1.455 . S
C1142 C576 1.478 . S
C1153 C215 1.475 . S
C1158 C492 1.468 1_556 S
C1174 C566 1.380 . S
C1169 C177 1.472 . S
C1185 C196 1.445 . S
C1190 C408 1.446 1_556 S
C1206 C409 1.467 . S
C1201 C220 1.417 . S
C1222 C493 1.545 . S
C1217 C182 1.526 . S
C1233 C201 1.430 . S
C1238 C585 1.494 1_556 S
C1249 C258 1.492 . S
C1254 C501 1.514 . S
C1265 C277 1.475 . S
C1270 C577 1.502 . S
C1286 C417 1.498 . S
C1281 C239 1.449 . S
C1302 C650 1.385 . S
C1297 C25 1.489 . S
C1313 C44 1.500 . S
C1318 C734 1.433 . S
C1329 C6 1.479 . S
C1334 C828 1.472 . S
C1345 C329 1.469 . S
C1350 C744 1.465 . S
C1361 C291 1.486 . S
C1366 C818 1.410 . S
C1377 C310 1.420 . S
C1382 C660 1.432 . S
C1393 C334 1.416 . S
C1398 C661 1.451 . S
C1409 C296 1.443 . S
C1414 C745 1.487 . S
C1430 C837 1.522 . S
C1425 C315 1.459 . S
C1441 C30 1.440 1_565 S
C1446 C753 1.454 . S
C1462 C829 1.440 . S
C1457 C49 1.441 . S
C1473 C11 1.378 . S
C1478 C669 1.429 . S
C1494 C902 1.388 . S
C1489 C139 1.476 . S
C1505 C158 1.502 . S
C1510 C986 1.429 . S
C1526 C1080 1.475 . S
C1521 C120 1.451 . S
C1542 C996 1.467 . S
C1537 C101 1.443 . S
C1558 C1070 1.374 . S
C1553 C63 1.488 . S
C1569 C82 1.419 . S
C1574 C912 1.432 . S
C1585 C106 1.420 1_655 S
C1590 C913 1.473 . S
C1601 C68 1.503 . S
C1606 C997 1.542 . S
C1622 C1089 1.477 . S
C1617 C87 1.423 1_545 S
C1633 C144 1.428 . S
C1638 C1005 1.449 . S
C1649 C163 1.454 . S
C1654 C1081 1.494 . S
C1665 C125 1.417 . S
C1670 C921 1.436 . S
C1681 C287 1.671 . S
C1686 C405 1.507 . S
C1702 C489 1.608 . S
C1697 C306 1.685 . S
C1713 C325 1.629 . S
C1718 C582 1.466 . S
C1729 C116 1.689 . S
C1734 C498 1.461 . S
C1745 C135 1.676 . S
C1750 C573 1.489 . S
C1766 C414 1.400 . S
C1761 C154 1.628 . S
C1777 C59 1.628 . S
C1782 C657 1.518 . S
C1793 C78 1.730 . S
C1798 C741 1.579 . S
C1809 C97 1.667 . S
C1814 C834 1.427 . S
C1825 C230 1.683 . S
C1830 C750 1.433 . S
C1846 C825 1.564 . S
C1841 C249 1.683 . S
C1857 C268 1.605 . S
C1862 C666 1.477 . S
C1873 C173 1.622 . S
C1878 C909 1.543 . S
C1889 C192 1.705 . S
C1894 C993 1.622 . S
C1910 C1086 1.384 . S
C1905 C211 1.640 . S
C1921 C2 1.691 . S
C1926 C1002 1.484 . S
C1937 C21 1.681 . S
C1942 C1077 1.496 . S
C1953 C40 1.582 . S
C1958 C918 1.405 . S
