# Generated by pormake.
# Topology pto, (3,4)-cn, num edge types: 1
# Building blocks:
#     Node 0, Type 0, BuildingBlock: PAMTOO_clean_linker_0, # of connection points: 3
#     Node 1, Type 0, BuildingBlock: PAMTOO_clean_linker_0, # of connection points: 3
#     Node 2, Type 0, BuildingBlock: PAMTOO_clean_linker_0, # of connection points: 3
#     Node 3, Type 0, BuildingBlock: PAMTOO_clean_linker_0, # of connection points: 3
#     Node 4, Type 0, BuildingBlock: PAMTOO_clean_linker_0, # of connection points: 3
#     Node 5, Type 0, BuildingBlock: PAMTOO_clean_linker_0, # of connection points: 3
#     Node 6, Type 0, BuildingBlock: PAMTOO_clean_linker_0, # of connection points: 3
#     Node 7, Type 0, BuildingBlock: PAMTOO_clean_linker_0, # of connection points: 3
#     Node 8, Type 1, BuildingBlock: NAWXER_clean_sbu_0, # of connection points: 4
#     Node 9, Type 1, BuildingBlock: NAWXER_clean_sbu_0, # of connection points: 4
#     Node 10, Type 1, BuildingBlock: NAWXER_clean_sbu_0, # of connection points: 4
#     Node 11, Type 1, BuildingBlock: NAWXER_clean_sbu_0, # of connection points: 4
#     Node 12, Type 1, BuildingBlock: NAWXER_clean_sbu_0, # of connection points: 4
#     Node 13, Type 1, BuildingBlock: NAWXER_clean_sbu_0, # of connection points: 4
#     Edge 14, Type (0, 1), BuildingBlock: KIFKEQ_clean_linker_1, # of connection points: 2
#     Edge 15, Type (0, 1), BuildingBlock: KIFKEQ_clean_linker_1, # of connection points: 2
#     Edge 16, Type (0, 1), BuildingBlock: KIFKEQ_clean_linker_1, # of connection points: 2
#     Edge 17, Type (0, 1), BuildingBlock: KIFKEQ_clean_linker_1, # of connection points: 2
#     Edge 18, Type (0, 1), BuildingBlock: KIFKEQ_clean_linker_1, # of connection points: 2
#     Edge 19, Type (0, 1), BuildingBlock: KIFKEQ_clean_linker_1, # of connection points: 2
#     Edge 20, Type (0, 1), BuildingBlock: KIFKEQ_clean_linker_1, # of connection points: 2
#     Edge 21, Type (0, 1), BuildingBlock: KIFKEQ_clean_linker_1, # of connection points: 2
#     Edge 22, Type (0, 1), BuildingBlock: KIFKEQ_clean_linker_1, # of connection points: 2
#     Edge 23, Type (0, 1), BuildingBlock: KIFKEQ_clean_linker_1, # of connection points: 2
#     Edge 24, Type (0, 1), BuildingBlock: KIFKEQ_clean_linker_1, # of connection points: 2
#     Edge 25, Type (0, 1), BuildingBlock: KIFKEQ_clean_linker_1, # of connection points: 2
#     Edge 26, Type (0, 1), BuildingBlock: KIFKEQ_clean_linker_1, # of connection points: 2
#     Edge 27, Type (0, 1), BuildingBlock: KIFKEQ_clean_linker_1, # of connection points: 2
#     Edge 28, Type (0, 1), BuildingBlock: KIFKEQ_clean_linker_1, # of connection points: 2
#     Edge 29, Type (0, 1), BuildingBlock: KIFKEQ_clean_linker_1, # of connection points: 2
#     Edge 30, Type (0, 1), BuildingBlock: KIFKEQ_clean_linker_1, # of connection points: 2
#     Edge 31, Type (0, 1), BuildingBlock: KIFKEQ_clean_linker_1, # of connection points: 2
#     Edge 32, Type (0, 1), BuildingBlock: KIFKEQ_clean_linker_1, # of connection points: 2
#     Edge 33, Type (0, 1), BuildingBlock: KIFKEQ_clean_linker_1, # of connection points: 2
#     Edge 34, Type (0, 1), BuildingBlock: KIFKEQ_clean_linker_1, # of connection points: 2
#     Edge 35, Type (0, 1), BuildingBlock: KIFKEQ_clean_linker_1, # of connection points: 2
#     Edge 36, Type (0, 1), BuildingBlock: KIFKEQ_clean_linker_1, # of connection points: 2
#     Edge 37, Type (0, 1), BuildingBlock: KIFKEQ_clean_linker_1, # of connection points: 2
# Relax obj value: 0.016
# Max RMSD: 0.152
# Mean RMSD: 0.065
data_MOF--net-pto--node1-NAWXER_clean_sbu_0--node2-PAMTOO_clean_linker_0--edge1-KIFKEQ_clean_linker_1
_symmetry_space_group_name_H-M    P1
_symmetry_Int_Tables_number       1
_symmetry_cell_setting            triclinic
loop_
_symmetry_equiv_pos_as_xyz
'x, y, z'
_cell_length_a     43.955125
_cell_length_b     39.700526
_cell_length_c     38.522447
_cell_angle_alpha  82.060669
_cell_angle_beta   84.007628
_cell_angle_gamma 99.721031
loop_
_atom_site_label
_atom_site_type_symbol
_atom_site_fract_x
_atom_site_fract_y
_atom_site_fract_z
_atom_type_partial_charge
H0 H 0.1653 0.30465 0.40342 0.0
H1 H 0.23754 0.26341 0.34821 0.0
H2 H 0.21714 0.36092 0.30522 0.0
H3 H 0.23234 0.31689 0.25083 0.0
C4 C 0.2468 0.3014 0.26611 0.0
O5 O 0.2522 0.31498 0.29647 0.0
H6 H 0.23367 0.2743 0.27294 0.0
C7 C 0.18309 0.30676 0.38113 0.0
C8 C 0.1891 0.33643 0.35489 0.0
C9 C 0.20012 0.27991 0.37891 0.0
C10 C 0.2235 0.2832 0.35014 0.0
C11 C 0.22944 0.31225 0.32375 0.0
C12 C 0.21233 0.33872 0.32609 0.0
H13 H 0.2055 0.77502 0.8403 0.0
H14 H 0.25424 0.71429 0.90918 0.0
H15 H 0.2986 0.81611 0.85779 0.0
H16 H 0.33636 0.75971 0.85674 0.0
C17 C 0.32819 0.74583 0.88414 0.0
O18 O 0.30527 0.7608 0.8998 0.0
H19 H 0.31854 0.71841 0.88245 0.0
C20 C 0.22566 0.77235 0.85368 0.0
C21 C 0.25145 0.79965 0.84709 0.0
C22 C 0.2262 0.7412 0.87588 0.0
C23 C 0.25321 0.73778 0.89167 0.0
C24 C 0.27929 0.76462 0.88484 0.0
C25 C 0.27839 0.79545 0.86263 0.0
H26 H 0.68623 0.78486 0.33827 0.0
H27 H 0.734 0.70388 0.31102 0.0
H28 H 0.76817 0.76721 0.38491 0.0
H29 H 0.81533 0.75629 0.33653 0.0
C30 C 0.80596 0.73016 0.33055 0.0
O31 O 0.77768 0.71696 0.35105 0.0
H32 H 0.80277 0.73324 0.30206 0.0
C33 C 0.7047 0.77025 0.34145 0.0
C34 C 0.72642 0.77927 0.36457 0.0
C35 C 0.70705 0.74318 0.32172 0.0
C36 C 0.73153 0.72481 0.32577 0.0
C37 C 0.75328 0.7335 0.34869 0.0
C38 C 0.75055 0.76035 0.36814 0.0
H39 H 0.74622 0.30227 0.87651 0.0
H40 H 0.69223 0.2269 0.82586 0.0
H41 H 0.7859 0.27158 0.78132 0.0
H42 H 0.74126 0.26493 0.73031 0.0
C43 C 0.72567 0.24041 0.74336 0.0
O44 O 0.73603 0.22833 0.77453 0.0
H45 H 0.70176 0.24572 0.74931 0.0
C46 C 0.74421 0.28685 0.85551 0.0
C47 C 0.77001 0.28956 0.82955 0.0
C48 C 0.71576 0.26468 0.85446 0.0
C49 C 0.71354 0.24468 0.8271 0.0
C50 C 0.73878 0.24735 0.80095 0.0
C51 C 0.76685 0.2696 0.80218 0.0
H52 H 0.76215 0.84282 0.80359 0.0
H53 H 0.79311 0.75439 0.85577 0.0
H54 H 0.83609 0.80167 0.75132 0.0
H55 H 0.82219 0.72838 0.76108 0.0
C56 C 0.82566 0.7216 0.78923 0.0
O57 O 0.83501 0.75139 0.80304 0.0
H58 H 0.80298 0.70734 0.80399 0.0
C59 C 0.77757 0.82422 0.80333 0.0
C60 C 0.79954 0.82587 0.77354 0.0
C61 C 0.77506 0.79862 0.83299 0.0
C62 C 0.7952 0.77471 0.83329 0.0
C63 C 0.81714 0.77594 0.80376 0.0
C64 C 0.81953 0.80166 0.77421 0.0
H65 H 0.83635 0.31968 0.28974 0.0
H66 H 0.74359 0.28985 0.26403 0.0
H67 H 0.79655 0.39091 0.22156 0.0
H68 H 0.73222 0.39318 0.23961 0.0
C69 C 0.72156 0.36561 0.24011 0.0
O70 O 0.74318 0.34893 0.22451 0.0
H71 H 0.71428 0.35359 0.26829 0.0
C72 C 0.81729 0.32543 0.27561 0.0
C73 C 0.81991 0.35823 0.2552 0.0
C74 C 0.78998 0.30045 0.279 0.0
C75 C 0.76501 0.3086 0.2615 0.0
C76 C 0.76755 0.34107 0.24063 0.0
C77 C 0.7951 0.36564 0.23712 0.0
H78 H 0.22872 0.32896 0.73093 0.0
H79 H 0.26317 0.4017 0.79715 0.0
H80 H 0.31068 0.31837 0.78124 0.0
H81 H 0.28992 0.33489 0.8557 0.0
C82 C 0.30227 0.36235 0.84921 0.0
O83 O 0.30965 0.37208 0.81308 0.0
H84 H 0.28625 0.37872 0.85934 0.0
C85 C 0.24569 0.33781 0.74772 0.0
C86 C 0.27032 0.31993 0.75347 0.0
C87 C 0.24276 0.36727 0.76341 0.0
C88 C 0.26529 0.37946 0.78426 0.0
C89 C 0.28958 0.36171 0.79064 0.0
C90 C 0.29213 0.33218 0.77525 0.0
H91 H 0.23087 0.83521 0.38818 0.0
H92 H 0.28505 0.80272 0.30353 0.0
H93 H 0.32642 0.88545 0.35374 0.0
H94 H 0.34565 0.89631 0.2755 0.0
C95 C 0.34098 0.86871 0.27176 0.0
O96 O 0.33535 0.84801 0.3045 0.0
H97 H 0.32031 0.86421 0.25744 0.0
C98 C 0.25246 0.83823 0.3707 0.0
C99 C 0.27846 0.86295 0.37464 0.0
C100 C 0.25472 0.81619 0.34526 0.0
C101 C 0.28295 0.81943 0.32332 0.0
C102 C 0.30848 0.84468 0.32619 0.0
C103 C 0.30631 0.86615 0.35184 0.0
C104 C 1.0028 0.5366 0.28187 0.0
C105 C 0.07842 0.62971 0.31229 0.0
O106 O 1.00273 0.53622 0.3152 0.0
Zn107 Zn 0.02525 0.56591 0.35085 0.0
O108 O 0.02084 0.56047 0.26007 0.0
Zn109 Zn 0.04013 0.5839 0.29572 0.0
O110 O 0.06384 0.54539 0.32023 0.0
O111 O 0.04402 0.53103 0.37652 0.0
O112 O 0.07265 0.6246 0.28159 0.0
O113 O 0.06261 0.60973 0.33953 0.0
O114 O 0.99062 0.58317 0.37421 0.0
O115 O 1.0019 0.60423 0.31749 0.0
C116 C 0.06305 0.52722 0.35072 0.0
C117 C 0.98491 0.60206 0.3471 0.0
C118 C 0.96823 0.45874 0.83602 0.0
C119 C 0.05142 0.55151 0.85218 0.0
O120 O 0.97784 0.46563 0.86468 0.0
Zn121 Zn 0.01055 0.5044 0.8445 0.0
O122 O 0.98148 0.47705 0.80656 0.0
Zn123 Zn 0.01836 0.52131 0.78916 0.0
O124 O 0.0489 0.50417 0.75976 0.0
O125 O 0.04437 0.48153 0.81606 0.0
O126 O 0.04706 0.55181 0.81974 0.0
O127 O 0.03544 0.52781 0.87585 0.0
O128 O 0.98447 0.54294 0.82525 0.0
O129 O 0.99643 0.55514 0.76728 0.0
C130 C 0.05713 0.48396 0.78409 0.0
C131 C 0.98117 0.56001 0.79549 0.0
C132 C 0.2346 1.0031 0.66549 0.0
C133 C 0.21472 0.08726 0.56895 0.0
O134 O 0.20834 0.00894 0.65777 0.0
Zn135 Zn 0.22357 0.04541 0.61788 0.0
O136 O 0.25962 0.02072 0.64699 0.0
Zn137 Zn 0.27252 0.06089 0.60186 0.0
O138 O 0.29566 0.09936 0.62012 0.0
O139 O 0.24585 0.08698 0.64167 0.0
O140 O 0.24365 0.08655 0.56999 0.0
O141 O 0.19438 0.06782 0.59244 0.0
O142 O 0.24292 0.01797 0.57922 0.0
O143 O 0.29344 0.03828 0.56747 0.0
C144 C 0.27301 0.10543 0.64015 0.0
C145 C 0.26952 0.01764 0.56215 0.0
C146 C 0.57383 0.746 0.1256 0.0
C147 C 0.50565 0.75286 0.03318 0.0
O148 O 0.55749 0.72087 0.11489 0.0
Zn149 Zn 0.54124 0.74837 0.07771 0.0
O150 O 0.5751 0.77696 0.10998 0.0
Zn151 Zn 0.55649 0.80281 0.06685 0.0
O152 O 0.53552 0.83379 0.09054 0.0
O153 O 0.51413 0.77856 0.1068 0.0
O154 O 0.5215 0.78243 0.03596 0.0
O155 O 0.51021 0.72576 0.05215 0.0
O156 O 0.5809 0.76543 0.03797 0.0
O157 O 0.59289 0.82223 0.03283 0.0
C158 C 0.51438 0.81056 0.10918 0.0
C159 C 0.59847 0.79417 0.0236 0.0
C160 C 0.78892 1.0029 0.56267 0.0
C161 C 0.78122 0.09093 0.46345 0.0
O162 O 0.76082 0.00465 0.55754 0.0
Zn163 Zn 0.73642 0.03475 0.52319 0.0
O164 O 0.81146 0.02395 0.54357 0.0
Zn165 Zn 0.78601 0.04741 0.5136 0.0
O166 O 0.76483 0.0758 0.54954 0.0
O167 O 0.71399 0.05798 0.55597 0.0
O168 O 0.80578 0.08312 0.47451 0.0
O169 O 0.75456 0.07484 0.47926 0.0
O170 O 0.71376 0.99909 0.50112 0.0
O171 O 0.76482 0.00576 0.48853 0.0
C172 C 0.73753 0.07747 0.56372 0.0
C173 C 0.73741 0.98978 0.48602 0.0
C174 C 0.53899 0.34917 0.09912 0.0
C175 C 0.4688 0.35097 0.00852 0.0
O176 O 0.52455 0.3189 0.09645 0.0
Zn177 Zn 0.49026 0.29615 0.06614 0.0
O178 O 0.53302 0.37556 0.08024 0.0
Zn179 Zn 0.5032 0.35099 0.05469 0.0
O180 O 0.46348 0.33208 0.09415 0.0
O181 O 0.45496 0.27508 0.10143 0.0
O182 O 0.4858 0.37674 0.01745 0.0
O183 O 0.46869 0.32043 0.02459 0.0
O184 O 0.51302 0.26688 0.04136 0.0
O185 O 0.53223 0.32273 0.02606 0.0
C186 C 0.44736 0.30281 0.10946 0.0
C187 C 0.53359 0.29116 0.02335 0.0
H188 H 0.12672 0.33152 0.37675 0.0
H189 H 0.21123 0.4063 0.33915 0.0
H190 H 0.09757 0.37852 0.37907 0.0
H191 H 0.18198 0.45312 0.34102 0.0
H192 H 0.11165 0.52011 0.30403 0.0
H193 H 0.1425 0.47466 0.3077 0.0
H194 H 0.09124 0.42883 0.40981 0.0
H195 H 0.05997 0.47445 0.40606 0.0
C196 C 0.13918 0.35795 0.36938 0.0
C197 C 0.17134 0.36504 0.35751 0.0
C198 C 0.12244 0.38489 0.37074 0.0
C199 C 0.13743 0.41955 0.36009 0.0
C200 C 0.16965 0.42667 0.34888 0.0
C201 C 0.1864 0.39979 0.34769 0.0
C202 C 0.10704 0.50054 0.32744 0.0
C203 C 0.08327 0.50092 0.35473 0.0
C204 C 0.12489 0.47455 0.32961 0.0
C205 C 0.11933 0.44809 0.35903 0.0
C206 C 0.09589 0.4487 0.38665 0.0
C207 C 0.07815 0.47496 0.38462 0.0
H208 H 0.22659 0.67146 0.8807 0.0
H209 H 0.16406 0.74463 0.88214 0.0
H210 H 0.18237 0.62481 0.88129 0.0
H211 H 0.12031 0.69813 0.88107 0.0
H212 H 0.07063 0.61675 0.81661 0.0
H213 H 0.1113 0.66176 0.82893 0.0
H214 H 0.12706 0.59337 0.9198 0.0
H215 H 0.08551 0.54819 0.90796 0.0
C216 C 0.20346 0.67759 0.88184 0.0
C217 C 0.19905 0.71202 0.88082 0.0
C218 C 0.17817 0.65082 0.88208 0.0
C219 C 0.14807 0.65802 0.88089 0.0
C220 C 0.14339 0.69203 0.88159 0.0
C221 C 0.16852 0.71865 0.88192 0.0
C222 C 0.08256 0.61136 0.83941 0.0
C223 C 0.07496 0.57897 0.86131 0.0
C224 C 0.1057 0.63718 0.84654 0.0
C225 C 0.1222 0.63099 0.87533 0.0
C226 C 0.1146 0.59869 0.89744 0.0
C227 C 0.09084 0.573 0.89076 0.0
H228 H 0.84203 0.72701 0.38448 0.0
H229 H 0.8212 0.68036 0.29299 0.0
H230 H 0.88389 0.6938 0.39189 0.0
H231 H 0.86267 0.64702 0.30038 0.0
H232 H 0.96527 0.6388 0.29171 0.0
H233 H 0.92002 0.66611 0.29139 0.0
H234 H 0.89716 0.63359 0.40413 0.0
H235 H 0.94309 0.60586 0.40461 0.0
C236 C 0.84622 0.70928 0.36629 0.0
C237 C 0.82899 0.70674 0.33771 0.0
C238 C 0.87 0.69019 0.3706 0.0
C239 C 0.8769 0.66824 0.34637 0.0
C240 C 0.85833 0.66426 0.31905 0.0
C241 C 0.83455 0.6832 0.31486 0.0
C242 C 0.95078 0.6374 0.31659 0.0
C243 C 0.95787 0.62001 0.34823 0.0
C244 C 0.9246 0.65287 0.3163 0.0
C245 C 0.90475 0.65162 0.34763 0.0
C246 C 0.91205 0.63494 0.37954 0.0
C247 C 0.9383 0.61906 0.37981 0.0
H248 H 0.82991 0.2803 0.8107 0.0
H249 H 0.7784 0.35337 0.85132 0.0
H250 H 0.87862 0.31963 0.81262 0.0
H251 H 0.82718 0.39146 0.85491 0.0
H252 H 0.92262 0.43032 0.8911 0.0
H253 H 0.87516 0.38831 0.89006 0.0
H254 H 0.90452 0.38271 0.78091 0.0
H255 H 0.95169 0.42517 0.78163 0.0
C256 C 0.82882 0.30468 0.81992 0.0
C257 C 0.79996 0.31341 0.83093 0.0
C258 C 0.8568 0.32706 0.82123 0.0
C259 C 0.85663 0.35841 0.83416 0.0
C260 C 0.82796 0.36717 0.84534 0.0
C261 C 0.79999 0.34515 0.84343 0.0
C262 C 0.91909 0.41988 0.86699 0.0
C263 C 0.94086 0.43111 0.83643 0.0
C264 C 0.89187 0.39602 0.86636 0.0
C265 C 0.88618 0.38238 0.83538 0.0
C266 C 0.90842 0.3927 0.80518 0.0
C267 C 0.93533 0.41708 0.80559 0.0
H268 H 0.19878 0.21246 0.37026 0.0
H269 H 0.18849 0.27682 0.45092 0.0
H270 H 0.19639 0.16265 0.4159 0.0
H271 H 0.1854 0.22661 0.49659 0.0
H272 H 0.16441 0.1202 0.57 0.0
H273 H 0.15463 0.16486 0.52364 0.0
H274 H 0.23616 0.15233 0.45739 0.0
H275 H 0.24603 0.10853 0.50333 0.0
C276 C 0.19576 0.21596 0.39772 0.0
C277 C 0.19439 0.24881 0.40688 0.0
C278 C 0.19419 0.18737 0.42383 0.0
C279 C 0.19093 0.19084 0.45975 0.0
C280 C 0.18764 0.22314 0.46909 0.0
C281 C 0.18944 0.25189 0.44291 0.0
C282 C 0.17986 0.12672 0.54527 0.0
C283 C 0.20603 0.11107 0.54026 0.0
C284 C 0.17439 0.15233 0.51891 0.0
C285 C 0.19461 0.16197 0.48692 0.0
C286 C 0.21998 0.1452 0.48157 0.0
C287 C 0.22574 0.12026 0.50799 0.0
H288 H 0.38629 0.7869 0.86875 0.0
H289 H 0.32998 0.70724 0.94815 0.0
H290 H 0.42994 0.78747 0.90317 0.0
H291 H 0.37332 0.70828 0.98335 0.0
H292 H 0.46654 0.69523 0.02091 0.0
H293 H 0.42433 0.69319 0.98428 0.0
H294 H 0.44611 0.80458 0.95651 0.0
H295 H 0.48859 0.80654 0.99221 0.0
C296 C 0.38329 0.7696 0.8937 0.0
C297 C 0.35492 0.74682 0.90574 0.0
C298 C 0.40821 0.77002 0.91355 0.0
C299 C 0.40525 0.74784 0.94606 0.0
C300 C 0.37665 0.72527 0.95818 0.0
C301 C 0.35175 0.72482 0.93824 0.0
C302 C 0.46247 0.71924 0.00674 0.0
C303 C 0.48103 0.75102 0.0095 0.0
C304 C 0.43809 0.71811 0.98595 0.0
C305 C 0.43169 0.74874 0.96747 0.0
C306 C 0.45057 0.78043 0.96993 0.0
C307 C 0.47491 0.78155 0.9906 0.0
H308 H 0.7091 0.84112 0.34102 0.0
H309 H 0.74031 0.78603 0.4315 0.0
H310 H 0.70881 0.89107 0.37138 0.0
H311 H 0.74146 0.83682 0.46081 0.0
H312 H 0.78113 0.95102 0.4719 0.0
H313 H 0.77582 0.8993 0.44392 0.0
H314 H 0.6809 0.90722 0.43054 0.0
H315 H 0.68592 0.95902 0.45937 0.0
C316 C 0.71547 0.83932 0.36751 0.0
C317 C 0.72481 0.80933 0.38368 0.0
C318 C 0.71542 0.86809 0.38478 0.0
C319 C 0.72523 0.86778 0.4183 0.0
C320 C 0.73408 0.83778 0.43478 0.0
C321 C 0.73362 0.8088 0.41783 0.0
C322 C 0.75911 0.9419 0.46291 0.0
C323 C 0.73395 0.95918 0.46774 0.0
C324 C 0.75605 0.91212 0.44715 0.0
C325 C 0.72793 0.89924 0.43528 0.0
C326 C 0.70284 0.91673 0.43949 0.0
C327 C 0.7057 0.94626 0.45598 0.0
H328 H 0.71474 0.26914 0.92527 0.0
H329 H 0.65402 0.25732 0.84455 0.0
H330 H 0.67032 0.27272 0.96726 0.0
H331 H 0.60954 0.25902 0.88738 0.0
H332 H 0.53577 0.23428 0.99046 0.0
H333 H 0.57954 0.22393 0.95062 0.0
H334 H 0.63436 0.32061 0.9653 0.0
H335 H 0.59078 0.33138 0.00414 0.0
C336 C 0.69203 0.26718 0.91639 0.0
C337 C 0.68822 0.26338 0.88121 0.0
C338 C 0.66657 0.26892 0.94061 0.0
C339 C 0.63661 0.26616 0.93047 0.0
C340 C 0.63241 0.26085 0.89591 0.0
C341 C 0.65795 0.25976 0.87144 0.0
C342 C 0.55722 0.2532 0.98519 0.0
C343 C 0.55984 0.28369 1.00023 0.0
C344 C 0.58214 0.24733 0.9624 0.0
C345 C 0.61027 0.27143 0.95511 0.0
C346 C 0.61301 0.30151 0.97074 0.0
C347 C 0.58799 0.30774 0.99276 0.0
H348 H 0.20471 0.83702 0.84739 0.0
H349 H 0.29496 0.83493 0.79252 0.0
H350 H 0.20074 0.88785 0.80588 0.0
H351 H 0.29077 0.88516 0.75028 0.0
H352 H 0.28622 0.99205 0.69574 0.0
H353 H 0.29073 0.94526 0.74172 0.0
H354 H 0.19264 0.9038 0.74648 0.0
H355 H 0.18796 0.95146 0.70133 0.0
C356 C 0.22369 0.84746 0.82634 0.0
C357 C 0.25013 0.83196 0.82314 0.0
C358 C 0.22136 0.87649 0.80241 0.0
C359 C 0.24531 0.89062 0.77445 0.0
C360 C 0.27203 0.87542 0.77172 0.0
C361 C 0.27447 0.84655 0.79589 0.0
C362 C 0.26555 0.97307 0.70676 0.0
C363 C 0.23673 0.97546 0.69477 0.0
C364 C 0.26819 0.94605 0.73301 0.0
C365 C 0.24213 0.92047 0.74777 0.0
C366 C 0.21316 0.92322 0.73615 0.0
C367 C 0.21047 0.95048 0.71009 0.0
H368 H 0.64444 0.74466 0.32798 0.0
H369 H 0.71936 0.72498 0.25597 0.0
H370 H 0.6103 0.74101 0.28211 0.0
H371 H 0.68447 0.71966 0.21084 0.0
H372 H 0.59831 0.68911 0.14965 0.0
H373 H 0.629 0.68267 0.19932 0.0
H374 H 0.61743 0.7839 0.22083 0.0
H375 H 0.58773 0.79073 0.17113 0.0
C376 C 0.65363 0.73927 0.30257 0.0
C377 C 0.68494 0.73576 0.29562 0.0
C378 C 0.63393 0.73688 0.27644 0.0
C379 C 0.64484 0.7302 0.24298 0.0
C380 C 0.67545 0.72455 0.23657 0.0
C381 C 0.69538 0.72752 0.26253 0.0
C382 C 0.60223 0.70981 0.1652 0.0
C383 C 0.59078 0.74047 0.15648 0.0
C384 C 0.6198 0.70617 0.19343 0.0
C385 C 0.62538 0.73275 0.2139 0.0
C386 C 0.61322 0.76292 0.20566 0.0
C387 C 0.5964 0.76688 0.17709 0.0
H388 H 0.77209 0.20523 0.72596 0.0
H389 H 0.68027 0.21816 0.70351 0.0
H390 H 0.77364 0.16503 0.68354 0.0
H391 H 0.68207 0.17887 0.66006 0.0
H392 H 0.68536 0.08142 0.60802 0.0
H393 H 0.68157 0.1194 0.65256 0.0
H394 H 0.77841 0.16638 0.6213 0.0
H395 H 0.78238 0.12804 0.57785 0.0
C396 C 0.75216 0.19922 0.71206 0.0
C397 C 0.72585 0.21426 0.71846 0.0
C398 C 0.75312 0.17649 0.68747 0.0
C399 C 0.72799 0.16872 0.66822 0.0
C400 C 0.70163 0.18381 0.67474 0.0
C401 C 0.70062 0.20641 0.69951 0.0
C402 C 0.70577 0.09995 0.61065 0.0
C403 C 0.7342 0.10153 0.5895 0.0
C404 C 0.7036 0.1218 0.6361 0.0
C405 C 0.72978 0.14578 0.64082 0.0
C406 C 0.75796 0.14774 0.61907 0.0
C407 C 0.76017 0.12586 0.59389 0.0
H408 H 0.28617 0.25526 0.27495 0.0
H409 H 0.27633 0.34859 0.20874 0.0
H410 H 0.33567 0.25519 0.23922 0.0
H411 H 0.32528 0.34835 0.17246 0.0
H412 H 0.42759 0.35741 0.13478 0.0
H413 H 0.38047 0.35696 0.1741 0.0
H414 H 0.35599 0.24597 0.18086 0.0
H415 H 0.40369 0.24631 0.14199 0.0
C416 C 0.29462 0.27563 0.25258 0.0
C417 C 0.27734 0.30164 0.24421 0.0
C418 C 0.32283 0.27555 0.23203 0.0
C419 C 0.33445 0.30168 0.20283 0.0
C420 C 0.31726 0.32802 0.19494 0.0
C421 C 0.28911 0.32808 0.21551 0.0
C422 C 0.41229 0.33283 0.14477 0.0
C423 C 0.41942 0.30189 0.13507 0.0
C424 C 0.38511 0.33262 0.16718 0.0
C425 C 0.36422 0.30148 0.18045 0.0
C426 C 0.37167 0.2704 0.1714 0.0
C427 C 0.39897 0.2706 0.14899 0.0
H428 H 0.82408 0.66186 0.83516 0.0
H429 H 0.88189 0.73106 0.748 0.0
H430 H 0.86225 0.62378 0.83637 0.0
H431 H 0.92075 0.69348 0.74959 0.0
H432 H 0.9644 0.59719 0.73732 0.0
H433 H 0.9278 0.63716 0.73634 0.0
H434 H 0.91348 0.62017 0.85056 0.0
H435 H 0.9493 0.57972 0.85154 0.0
C436 C 0.84514 0.66898 0.81643 0.0
C437 C 0.84998 0.69911 0.79122 0.0
C438 C 0.86713 0.64732 0.81721 0.0
C439 C 0.89458 0.65546 0.79297 0.0
C440 C 0.89965 0.68611 0.76824 0.0
C441 C 0.87759 0.70774 0.76744 0.0
C442 C 0.95345 0.60204 0.7622 0.0
C443 C 0.95966 0.58507 0.79448 0.0
C444 C 0.93261 0.62512 0.76166 0.0
C445 C 0.91757 0.63183 0.79339 0.0
C446 C 0.92419 0.6152 0.82562 0.0
C447 C 0.94489 0.59209 0.82616 0.0
H448 H 0.84579 0.37634 0.31226 0.0
H449 H 0.85627 0.40138 0.1985 0.0
H450 H 0.89207 0.41881 0.31374 0.0
H451 H 0.90363 0.44385 0.19974 0.0
H452 H 0.96708 0.54281 0.2278 0.0
H453 H 0.92338 0.49937 0.21778 0.0
H454 H 0.94675 0.42554 0.29947 0.0
H455 H 0.98902 0.46917 0.31033 0.0
C456 C 0.8583 0.39074 0.28747 0.0
C457 C 0.84771 0.38521 0.25525 0.0
C458 C 0.88497 0.41501 0.28825 0.0
C459 C 0.90206 0.43427 0.25677 0.0
C460 C 0.89105 0.42944 0.22445 0.0
C461 C 0.86401 0.40516 0.22371 0.0
C462 C 0.9631 0.51702 0.24298 0.0
C463 C 0.98105 0.50932 0.27009 0.0
C464 C 0.93812 0.49216 0.23731 0.0
C465 C 0.93106 0.45922 0.25846 0.0
C466 C 0.95081 0.45097 0.28352 0.0
C467 C 0.97524 0.47583 0.28954 0.0
H468 H 0.18189 0.33525 0.77197 0.0
H469 H 0.24085 0.43637 0.74875 0.0
H470 H 0.13578 0.36213 0.77272 0.0
H471 H 0.19462 0.46328 0.74957 0.0
H472 H 0.10217 0.49717 0.72652 0.0
H473 H 0.14669 0.46818 0.71716 0.0
H474 H 0.11377 0.39842 0.81515 0.0
H475 H 0.06964 0.42741 0.82471 0.0
C476 C 0.18499 0.36321 0.76642 0.0
C477 C 0.21498 0.38372 0.76035 0.0
C478 C 0.1586 0.37857 0.76711 0.0
C479 C 0.16162 0.41478 0.76132 0.0
C480 C 0.1916 0.43531 0.75388 0.0
C481 C 0.21802 0.41993 0.75366 0.0
C482 C 0.10427 0.47538 0.74582 0.0
C483 C 0.08243 0.46462 0.7764 0.0
C484 C 0.12983 0.45896 0.74056 0.0
C485 C 0.13368 0.43107 0.76543 0.0
C486 C 0.11127 0.41963 0.79537 0.0
C487 C 0.08607 0.43636 0.80091 0.0
H488 H 0.25302 0.74697 0.35003 0.0
H489 H 0.19646 0.82497 0.33211 0.0
H490 H 0.20954 0.70235 0.3422 0.0
H491 H 0.15306 0.78031 0.32336 0.0
H492 H 0.10395 0.68941 0.26639 0.0
H493 H 0.14579 0.73565 0.27526 0.0
H494 H 0.15203 0.67917 0.3775 0.0
H495 H 0.10991 0.6335 0.3692 0.0
C496 C 0.23124 0.75447 0.34441 0.0
C497 C 0.22794 0.78928 0.34176 0.0
C498 C 0.20643 0.72902 0.34 0.0
C499 C 0.17808 0.738 0.33208 0.0
C500 C 0.17478 0.77284 0.32926 0.0
C501 C 0.19943 0.79824 0.33448 0.0
C502 C 0.11422 0.68696 0.29077 0.0
C503 C 0.10365 0.65785 0.31709 0.0
C504 C 0.13798 0.71345 0.29589 0.0
C505 C 0.15204 0.71086 0.32705 0.0
C506 C 0.14161 0.68169 0.35322 0.0
C507 C 0.11745 0.65565 0.34846 0.0
H508 H 0.74992 0.84728 0.74608 0.0
H509 H 0.85036 0.86249 0.72752 0.0
H510 H 0.75014 0.88993 0.69483 0.0
H511 H 0.8504 0.90379 0.67417 0.0
H512 H 0.83712 1.00426 0.6029 0.0
H513 H 0.84161 0.9609 0.6531 0.0
H514 H 0.75769 0.89634 0.6332 0.0
H515 H 0.75257 0.94009 0.58473 0.0
C516 C 0.77215 0.85977 0.73111 0.0
C517 C 0.80015 0.85158 0.74128 0.0
C518 C 0.77223 0.88388 0.70117 0.0
C519 C 0.80027 0.90012 0.67997 0.0
C520 C 0.82839 0.89197 0.68997 0.0
C521 C 0.82833 0.86796 0.72033 0.0
C522 C 0.81985 0.98063 0.60929 0.0
C523 C 0.79422 0.97574 0.5904 0.0
C524 C 0.82244 0.95573 0.63791 0.0
C525 C 0.79966 0.92535 0.64771 0.0
C526 C 0.7751 0.91986 0.62729 0.0
C527 C 0.77225 0.94486 0.59931 0.0
H528 H 0.66432 0.32337 0.25875 0.0
H529 H 0.71655 0.4033 0.17669 0.0
H530 H 0.61902 0.3208 0.2268 0.0
H531 H 0.67157 0.40027 0.14396 0.0
H532 H 0.57636 0.4086 0.11006 0.0
H533 H 0.61957 0.41326 0.14528 0.0
H534 H 0.60186 0.30199 0.17453 0.0
H535 H 0.55843 0.29741 0.14026 0.0
C536 C 0.66602 0.34037 0.2338 0.0
C537 C 0.69371 0.36381 0.22029 0.0
C538 C 0.64018 0.3388 0.21537 0.0
C539 C 0.64156 0.36042 0.18281 0.0
C540 C 0.66946 0.3837 0.16923 0.0
C541 C 0.69528 0.3853 0.18776 0.0
C542 C 0.58151 0.38519 0.12431 0.0
C543 C 0.56388 0.35265 0.12232 0.0
C544 C 0.60645 0.38782 0.14427 0.0
C545 C 0.61431 0.35798 0.16267 0.0
C546 C 0.59627 0.32556 0.16113 0.0
C547 C 0.57138 0.32293 0.14128 0.0
H548 H 0.32298 0.29778 0.72734 0.0
H549 H 0.22262 0.269 0.74442 0.0
H550 H 0.32625 0.24468 0.70325 0.0
H551 H 0.22578 0.21754 0.7181 0.0
H552 H 0.23724 0.11219 0.69969 0.0
H553 H 0.23879 0.16278 0.72893 0.0
H554 H 0.31756 0.21686 0.65354 0.0
H555 H 0.31679 0.16527 0.62532 0.0
C556 C 0.30159 0.28021 0.72596 0.0
C557 C 0.27252 0.28787 0.73788 0.0
C558 C 0.30347 0.24991 0.71169 0.0
C559 C 0.27631 0.22656 0.70876 0.0
C560 C 0.24728 0.23442 0.72047 0.0
C561 C 0.24542 0.26443 0.73504 0.0
C562 C 0.25515 0.13474 0.68965 0.0
C563 C 0.27677 0.13485 0.66008 0.0
C564 C 0.25588 0.16394 0.70621 0.0
C565 C 0.27789 0.19434 0.69324 0.0
C566 C 0.30037 0.19393 0.66447 0.0
C567 C 0.29994 0.16439 0.6482 0.0
H568 H 0.36385 0.80764 0.2753 0.0
H569 H 0.3785 0.91109 0.21661 0.0
H570 H 0.40682 0.7949 0.23739 0.0
H571 H 0.42065 0.89788 0.17726 0.0
H572 H 0.51309 0.87277 0.13214 0.0
H573 H 0.47249 0.8872 0.1727 0.0
H574 H 0.4189 0.78404 0.17967 0.0
H575 H 0.45987 0.76937 0.14052 0.0
C576 C 0.37645 0.82779 0.25443 0.0
C577 C 0.3684 0.86075 0.2495 0.0
C578 C 0.40087 0.82035 0.23233 0.0
C579 C 0.41731 0.84534 0.20415 0.0
C580 C 0.40899 0.87821 0.19907 0.0
C581 C 0.38477 0.88577 0.22147 0.0
C582 C 0.49264 0.85322 0.14245 0.0
C583 C 0.48977 0.8199 0.13326 0.0
C584 C 0.46927 0.86152 0.16555 0.0
C585 C 0.4424 0.83675 0.17967 0.0
C586 C 0.43952 0.80357 0.17005 0.0
C587 C 0.46297 0.79519 0.14735 0.0
H588 H 0.74175 0.26752 0.3293 0.0
H589 H 0.83259 0.2577 0.28191 0.0
H590 H 0.73977 0.21541 0.3718 0.0
H591 H 0.83044 0.20506 0.32382 0.0
H592 H 0.83213 0.13924 0.43154 0.0
H593 H 0.83355 0.18798 0.38493 0.0
H594 H 0.73551 0.15436 0.38001 0.0
H595 H 0.73392 0.10647 0.42733 0.0
C596 C 0.76102 0.25378 0.32753 0.0
C597 C 0.78736 0.26675 0.30238 0.0
C598 C 0.75992 0.22386 0.35188 0.0
C599 C 0.78504 0.20602 0.35145 0.0
C600 C 0.81095 0.21846 0.32546 0.0
C601 C 0.81213 0.24852 0.3013 0.0
C602 C 0.81095 0.14216 0.42033 0.0
C603 C 0.78289 0.1191 0.43334 0.0
C604 C 0.81177 0.17002 0.39344 0.0
C605 C 0.78459 0.1753 0.37872 0.0
C606 C 0.75675 0.15158 0.39113 0.0
C607 C 0.75589 0.12394 0.41817 0.0
H608 H 0.3496 0.32625 0.84246 0.0
H609 H 0.31976 0.4056 0.89639 0.0
H610 H 0.3938 0.32664 0.87629 0.0
H611 H 0.36341 0.40563 0.93081 0.0
H612 H 0.45648 0.41163 0.97385 0.0
H613 H 0.42002 0.41791 0.93051 0.0
H614 H 0.39814 0.30672 0.93758 0.0
H615 H 0.43462 0.30049 0.98007 0.0
C616 C 0.35281 0.34404 0.86129 0.0
C617 C 0.3313 0.36572 0.86703 0.0
C618 C 0.37792 0.34416 0.88081 0.0
C619 C 0.38198 0.36594 0.90653 0.0
C620 C 0.36117 0.38877 0.91103 0.0
C621 C 0.33606 0.38863 0.89149 0.0
C622 C 0.44411 0.38859 0.96582 0.0
C623 C 0.44838 0.35557 0.98058 0.0
C624 C 0.42312 0.39218 0.94113 0.0
C625 C 0.40615 0.36282 0.93053 0.0
C626 C 0.41111 0.32992 0.94467 0.0
C627 C 0.4319 0.32635 0.96934 0.0
H628 H 0.32224 0.8794 0.41804 0.0
H629 H 0.2314 0.89628 0.39507 0.0
H630 H 0.32054 0.91618 0.46358 0.0
H631 H 0.22975 0.93334 0.44052 0.0
H632 H 0.22319 0.96835 0.54818 0.0
H633 H 0.22547 0.93065 0.50373 0.0
H634 H 0.32245 0.97603 0.47089 0.0
H635 H 0.32036 0.01338 0.51611 0.0
C636 C 0.302 0.89123 0.42251 0.0
C637 C 0.27698 0.88499 0.40282 0.0
C638 C 0.30105 0.91237 0.44861 0.0
C639 C 0.27506 0.92784 0.45571 0.0
C640 C 0.24996 0.92146 0.43612 0.0
C641 C 0.25088 0.90022 0.41004 0.0
C642 C 0.24508 0.97027 0.5316 0.0
C643 C 0.27161 0.99397 0.53573 0.0
C644 C 0.2463 0.94877 0.50589 0.0
C645 C 0.27407 0.95041 0.48352 0.0
C646 C 0.30074 0.97382 0.4879 0.0
C647 C 0.29954 0.99534 0.51374 0.0
H648 H 0.78038 0.80409 0.90217 0.0
H649 H 0.7131 0.78741 0.82948 0.0
H650 H 0.73797 0.80291 0.94969 0.0
H651 H 0.67083 0.78539 0.87689 0.0
H652 H 0.60607 0.74428 0.98324 0.0
H653 H 0.64959 0.74419 0.93824 0.0
H654 H 0.69478 0.84351 0.95835 0.0
H655 H 0.65087 0.84408 0.003 0.0
C656 C 0.75651 0.79982 0.89658 0.0
C657 C 0.74983 0.79582 0.86237 0.0
C658 C 0.73237 0.79935 0.92355 0.0
C659 C 0.70122 0.79407 0.91683 0.0
C660 C 0.69463 0.78932 0.88276 0.0
C661 C 0.71873 0.79054 0.85571 0.0
C662 C 0.62529 0.7661 0.97811 0.0
C663 C 0.62501 0.79427 0.99655 0.0
C664 C 0.65012 0.76604 0.95235 0.0
C665 C 0.67549 0.79379 0.94499 0.0
C666 C 0.67555 0.82171 0.96377 0.0
C667 C 0.65036 0.82212 0.98908 0.0
loop_
_geom_bond_atom_site_label_1
_geom_bond_atom_site_label_2
_geom_bond_distance
_geom_bond_site_symmetry_2
_ccdc_geom_bond_type
H0 C7 0.929 . S
H1 C10 0.930 . S
H2 C12 0.929 . S
H3 C4 0.969 . S
C4 H3 0.969 . S
C4 O5 1.550 . S
C4 H6 0.973 . S
O5 C4 1.550 . S
O5 C11 1.412 . S
H6 C4 0.973 . S
C7 H0 0.929 . S
C7 C8 1.400 . S
C7 C9 1.364 . S
C8 C7 1.400 . S
C8 C12 1.377 . S
C9 C7 1.364 . S
C9 C10 1.374 . S
C10 H1 0.930 . S
C10 C9 1.374 . S
C10 C11 1.383 . S
C11 O5 1.412 . S
C11 C10 1.383 . S
C11 C12 1.394 . S
C12 H2 0.929 . S
C12 C8 1.377 . S
C12 C11 1.394 . S
H13 C20 0.929 . S
H14 C23 0.930 . S
H15 C25 0.929 . S
H16 C17 0.969 . S
C17 H16 0.969 . S
C17 O18 1.550 . S
C17 H19 0.973 . S
O18 C17 1.550 . S
O18 C24 1.412 . S
H19 C17 0.973 . S
C20 H13 0.929 . S
C20 C21 1.400 . S
C20 C22 1.364 . S
C21 C20 1.400 . S
C21 C25 1.377 . S
C22 C20 1.364 . S
C22 C23 1.374 . S
C23 H14 0.930 . S
C23 C22 1.374 . S
C23 C24 1.383 . S
C24 O18 1.412 . S
C24 C23 1.383 . S
C24 C25 1.394 . S
C25 H15 0.929 . S
C25 C21 1.377 . S
C25 C24 1.394 . S
H26 C33 0.929 . S
H27 C36 0.930 . S
H28 C38 0.929 . S
H29 C30 0.969 . S
C30 H29 0.969 . S
C30 O31 1.550 . S
C30 H32 0.973 . S
O31 C30 1.550 . S
O31 C37 1.412 . S
H32 C30 0.973 . S
C33 H26 0.929 . S
C33 C34 1.400 . S
C33 C35 1.364 . S
C34 C33 1.400 . S
C34 C38 1.377 . S
C35 C33 1.364 . S
C35 C36 1.374 . S
C36 H27 0.930 . S
C36 C35 1.374 . S
C36 C37 1.383 . S
C37 O31 1.412 . S
C37 C36 1.383 . S
C37 C38 1.394 . S
C38 H28 0.929 . S
C38 C34 1.377 . S
C38 C37 1.394 . S
H39 C46 0.929 . S
H40 C49 0.930 . S
H41 C51 0.929 . S
H42 C43 0.969 . S
C43 H42 0.969 . S
C43 O44 1.550 . S
C43 H45 0.973 . S
O44 C43 1.550 . S
O44 C50 1.412 . S
H45 C43 0.973 . S
C46 H39 0.929 . S
C46 C47 1.400 . S
C46 C48 1.364 . S
C47 C46 1.400 . S
C47 C51 1.377 . S
C48 C46 1.364 . S
C48 C49 1.374 . S
C49 H40 0.930 . S
C49 C48 1.374 . S
C49 C50 1.383 . S
C50 O44 1.412 . S
C50 C49 1.383 . S
C50 C51 1.394 . S
C51 H41 0.929 . S
C51 C47 1.377 . S
C51 C50 1.394 . S
H52 C59 0.929 . S
H53 C62 0.930 . S
H54 C64 0.929 . S
H55 C56 0.969 . S
C56 H55 0.969 . S
C56 O57 1.550 . S
C56 H58 0.973 . S
O57 C56 1.550 . S
O57 C63 1.412 . S
H58 C56 0.973 . S
C59 H52 0.929 . S
C59 C60 1.400 . S
C59 C61 1.364 . S
C60 C59 1.400 . S
C60 C64 1.377 . S
C61 C59 1.364 . S
C61 C62 1.374 . S
C62 H53 0.930 . S
C62 C61 1.374 . S
C62 C63 1.383 . S
C63 O57 1.412 . S
C63 C62 1.383 . S
C63 C64 1.394 . S
C64 H54 0.929 . S
C64 C60 1.377 . S
C64 C63 1.394 . S
H65 C72 0.929 . S
H66 C75 0.930 . S
H67 C77 0.929 . S
H68 C69 0.969 . S
C69 H68 0.969 . S
C69 O70 1.550 . S
C69 H71 0.973 . S
O70 C69 1.550 . S
O70 C76 1.412 . S
H71 C69 0.973 . S
C72 H65 0.929 . S
C72 C73 1.400 . S
C72 C74 1.364 . S
C73 C72 1.400 . S
C73 C77 1.377 . S
C74 C72 1.364 . S
C74 C75 1.374 . S
C75 H66 0.930 . S
C75 C74 1.374 . S
C75 C76 1.383 . S
C76 O70 1.412 . S
C76 C75 1.383 . S
C76 C77 1.394 . S
C77 H67 0.929 . S
C77 C73 1.377 . S
C77 C76 1.394 . S
H78 C85 0.929 . S
H79 C88 0.930 . S
H80 C90 0.929 . S
H81 C82 0.969 . S
C82 H81 0.969 . S
C82 O83 1.550 . S
C82 H84 0.973 . S
O83 C82 1.550 . S
O83 C89 1.412 . S
H84 C82 0.973 . S
C85 H78 0.929 . S
C85 C86 1.400 . S
C85 C87 1.364 . S
C86 C85 1.400 . S
C86 C90 1.377 . S
C87 C85 1.364 . S
C87 C88 1.374 . S
C88 H79 0.930 . S
C88 C87 1.374 . S
C88 C89 1.383 . S
C89 O83 1.412 . S
C89 C88 1.383 . S
C89 C90 1.394 . S
C90 H80 0.929 . S
C90 C86 1.377 . S
C90 C89 1.394 . S
H91 C98 0.929 . S
H92 C101 0.930 . S
H93 C103 0.929 . S
H94 C95 0.969 . S
C95 H94 0.969 . S
C95 O96 1.550 . S
C95 H97 0.973 . S
O96 C95 1.550 . S
O96 C102 1.412 . S
H97 C95 0.973 . S
C98 H91 0.929 . S
C98 C99 1.400 . S
C98 C100 1.364 . S
C99 C98 1.400 . S
C99 C103 1.377 . S
C100 C98 1.364 . S
C100 C101 1.374 . S
C101 H92 0.930 . S
C101 C100 1.374 . S
C101 C102 1.383 . S
C102 O96 1.412 . S
C102 C101 1.383 . S
C102 C103 1.394 . S
C103 H93 0.929 . S
C103 C99 1.377 . S
C103 C102 1.394 . S
C104 O106 1.247 . S
C104 O108 1.258 . S
C105 O112 1.247 . S
C105 O113 1.258 . S
O106 C104 1.247 . S
O106 Zn107 2.028 . S
Zn107 O106 2.028 . S
Zn107 O111 2.035 1_655 S
Zn107 O113 2.035 1_655 S
Zn107 O114 2.028 . S
O108 C104 1.258 . S
O108 Zn109 2.035 1_655 S
Zn109 O108 2.035 1_455 S
Zn109 O110 2.028 . S
Zn109 O112 2.028 . S
Zn109 O115 2.035 1_455 S
O110 Zn109 2.028 . S
O110 C116 1.247 . S
O111 Zn107 2.035 1_455 S
O111 C116 1.258 . S
O112 C105 1.247 . S
O112 Zn109 2.028 . S
O113 C105 1.258 . S
O113 Zn107 2.035 1_455 S
O114 Zn107 2.028 . S
O114 C117 1.247 . S
O115 Zn109 2.035 1_655 S
O115 C117 1.258 . S
C116 O110 1.247 . S
C116 O111 1.258 . S
C117 O114 1.247 . S
C117 O115 1.258 . S
C118 O120 1.247 . S
C118 O122 1.258 . S
C119 O126 1.247 . S
C119 O127 1.258 . S
O120 C118 1.247 . S
O120 Zn121 2.028 1_655 S
Zn121 O120 2.028 1_455 S
Zn121 O125 2.035 . S
Zn121 O127 2.035 . S
Zn121 O128 2.028 1_455 S
O122 C118 1.258 . S
O122 Zn123 2.035 1_655 S
Zn123 O122 2.035 1_455 S
Zn123 O124 2.028 . S
Zn123 O126 2.028 . S
Zn123 O129 2.035 1_455 S
O124 Zn123 2.028 . S
O124 C130 1.247 . S
O125 Zn121 2.035 . S
O125 C130 1.258 . S
O126 C119 1.247 . S
O126 Zn123 2.028 . S
O127 C119 1.258 . S
O127 Zn121 2.035 . S
O128 Zn121 2.028 1_655 S
O128 C131 1.247 . S
O129 Zn123 2.035 1_655 S
O129 C131 1.258 . S
C130 O124 1.247 . S
C130 O125 1.258 . S
C131 O128 1.247 . S
C131 O129 1.258 . S
C132 O134 1.247 . S
C132 O136 1.258 1_565 S
C133 O140 1.247 . S
C133 O141 1.258 . S
O134 C132 1.247 . S
O134 Zn135 2.028 1_565 S
Zn135 O134 2.028 1_545 S
Zn135 O139 2.035 . S
Zn135 O141 2.035 . S
Zn135 O142 2.028 1_545 S
O136 C132 1.258 1_545 S
O136 Zn137 2.035 . S
Zn137 O136 2.035 . S
Zn137 O138 2.028 . S
Zn137 O140 2.028 . S
Zn137 O143 2.035 . S
O138 Zn137 2.028 . S
O138 C144 1.247 . S
O139 Zn135 2.035 . S
O139 C144 1.258 . S
O140 C133 1.247 . S
O140 Zn137 2.028 . S
O141 C133 1.258 . S
O141 Zn135 2.035 . S
O142 Zn135 2.028 1_565 S
O142 C145 1.247 . S
O143 Zn137 2.035 . S
O143 C145 1.258 1_545 S
C144 O138 1.247 . S
C144 O139 1.258 . S
C145 O142 1.247 . S
C145 O143 1.258 1_565 S
C146 O148 1.247 . S
C146 O150 1.258 . S
C147 O154 1.247 . S
C147 O155 1.258 . S
O148 C146 1.247 . S
O148 Zn149 2.028 . S
Zn149 O148 2.028 . S
Zn149 O153 2.035 . S
Zn149 O155 2.035 . S
Zn149 O156 2.028 . S
O150 C146 1.258 . S
O150 Zn151 2.035 . S
Zn151 O150 2.035 . S
Zn151 O152 2.028 . S
Zn151 O154 2.028 . S
Zn151 O157 2.035 . S
O152 Zn151 2.028 . S
O152 C158 1.247 . S
O153 Zn149 2.035 . S
O153 C158 1.258 . S
O154 C147 1.247 . S
O154 Zn151 2.028 . S
O155 C147 1.258 . S
O155 Zn149 2.035 . S
O156 Zn149 2.028 . S
O156 C159 1.247 . S
O157 Zn151 2.035 . S
O157 C159 1.258 . S
C158 O152 1.247 . S
C158 O153 1.258 . S
C159 O156 1.247 . S
C159 O157 1.258 . S
C160 O162 1.247 . S
C160 O164 1.258 . S
C161 O168 1.247 . S
C161 O169 1.258 . S
O162 C160 1.247 . S
O162 Zn163 2.026 1_565 S
Zn163 O162 2.026 1_545 S
Zn163 O167 2.037 . S
Zn163 O169 2.037 . S
Zn163 O170 2.026 1_545 S
O164 C160 1.258 . S
O164 Zn165 2.035 1_565 S
Zn165 O164 2.035 1_545 S
Zn165 O166 2.028 . S
Zn165 O168 2.028 . S
Zn165 O171 2.035 1_545 S
O166 Zn165 2.028 . S
O166 C172 1.247 . S
O167 Zn163 2.037 . S
O167 C172 1.258 . S
O168 C161 1.247 . S
O168 Zn165 2.028 . S
O169 C161 1.258 . S
O169 Zn163 2.037 . S
O170 Zn163 2.026 1_565 S
O170 C173 1.247 . S
O171 Zn165 2.035 1_565 S
O171 C173 1.258 . S
C172 O166 1.247 . S
C172 O167 1.258 . S
C173 O170 1.247 . S
C173 O171 1.258 . S
C174 O176 1.247 . S
C174 O178 1.258 . S
C175 O182 1.247 . S
C175 O183 1.258 . S
O176 C174 1.247 . S
O176 Zn177 2.028 . S
Zn177 O176 2.028 . S
Zn177 O181 2.035 . S
Zn177 O183 2.035 1_554 S
Zn177 O184 2.028 1_554 S
O178 C174 1.258 . S
O178 Zn179 2.035 1_554 S
Zn179 O178 2.035 1_556 S
Zn179 O180 2.028 1_556 S
Zn179 O182 2.028 . S
Zn179 O185 2.035 . S
O180 Zn179 2.028 1_554 S
O180 C186 1.247 . S
O181 Zn177 2.035 . S
O181 C186 1.258 . S
O182 C175 1.247 . S
O182 Zn179 2.028 . S
O183 C175 1.258 . S
O183 Zn177 2.035 1_556 S
O184 Zn177 2.028 1_556 S
O184 C187 1.247 . S
O185 Zn179 2.035 . S
O185 C187 1.258 . S
C186 O180 1.247 . S
C186 O181 1.258 . S
C187 O184 1.247 . S
C187 O185 1.258 . S
H188 C196 0.950 . S
H189 C201 0.950 . S
H190 C198 0.950 . S
H191 C200 0.950 . S
H192 C202 0.950 . S
H193 C204 0.950 . S
H194 C206 0.950 . S
H195 C207 0.950 . S
C196 H188 0.950 . S
C196 C197 1.386 . S
C196 C198 1.391 . S
C197 C196 1.386 . S
C197 C201 1.393 . S
C198 H190 0.950 . S
C198 C196 1.391 . S
C198 C199 1.400 . S
C199 C198 1.400 . S
C199 C200 1.398 . S
C199 C205 1.491 . S
C200 H191 0.950 . S
C200 C199 1.398 . S
C200 C201 1.391 . S
C201 H189 0.950 . S
C201 C197 1.393 . S
C201 C200 1.391 . S
C202 H192 0.950 . S
C202 C203 1.386 . S
C202 C204 1.391 . S
C203 C202 1.386 . S
C203 C207 1.393 . S
C204 H193 0.950 . S
C204 C202 1.391 . S
C204 C205 1.400 . S
C205 C199 1.491 . S
C205 C204 1.400 . S
C205 C206 1.398 . S
C206 H194 0.950 . S
C206 C205 1.398 . S
C206 C207 1.391 . S
C207 H195 0.950 . S
C207 C203 1.393 . S
C207 C206 1.391 . S
H208 C216 0.950 . S
H209 C221 0.950 . S
H210 C218 0.950 . S
H211 C220 0.950 . S
H212 C222 0.950 . S
H213 C224 0.950 . S
H214 C226 0.950 . S
H215 C227 0.950 . S
C216 H208 0.950 . S
C216 C217 1.386 . S
C216 C218 1.391 . S
C217 C216 1.386 . S
C217 C221 1.393 . S
C218 H210 0.950 . S
C218 C216 1.391 . S
C218 C219 1.400 . S
C219 C218 1.400 . S
C219 C220 1.398 . S
C219 C225 1.491 . S
C220 H211 0.950 . S
C220 C219 1.398 . S
C220 C221 1.391 . S
C221 H209 0.950 . S
C221 C217 1.393 . S
C221 C220 1.391 . S
C222 H212 0.950 . S
C222 C223 1.386 . S
C222 C224 1.391 . S
C223 C222 1.386 . S
C223 C227 1.393 . S
C224 H213 0.950 . S
C224 C222 1.391 . S
C224 C225 1.400 . S
C225 C219 1.491 . S
C225 C224 1.400 . S
C225 C226 1.398 . S
C226 H214 0.950 . S
C226 C225 1.398 . S
C226 C227 1.391 . S
C227 H215 0.950 . S
C227 C223 1.393 . S
C227 C226 1.391 . S
H228 C236 0.950 . S
H229 C241 0.950 . S
H230 C238 0.950 . S
H231 C240 0.950 . S
H232 C242 0.950 . S
H233 C244 0.950 . S
H234 C246 0.950 . S
H235 C247 0.950 . S
C236 H228 0.950 . S
C236 C237 1.386 . S
C236 C238 1.391 . S
C237 C236 1.386 . S
C237 C241 1.393 . S
C238 H230 0.950 . S
C238 C236 1.391 . S
C238 C239 1.400 . S
C239 C238 1.400 . S
C239 C240 1.398 . S
C239 C245 1.491 . S
C240 H231 0.950 . S
C240 C239 1.398 . S
C240 C241 1.391 . S
C241 H229 0.950 . S
C241 C237 1.393 . S
C241 C240 1.391 . S
C242 H232 0.950 . S
C242 C243 1.386 . S
C242 C244 1.391 . S
C243 C242 1.386 . S
C243 C247 1.393 . S
C244 H233 0.950 . S
C244 C242 1.391 . S
C244 C245 1.400 . S
C245 C239 1.491 . S
C245 C244 1.400 . S
C245 C246 1.398 . S
C246 H234 0.950 . S
C246 C245 1.398 . S
C246 C247 1.391 . S
C247 H235 0.950 . S
C247 C243 1.393 . S
C247 C246 1.391 . S
H248 C256 0.950 . S
H249 C261 0.950 . S
H250 C258 0.950 . S
H251 C260 0.950 . S
H252 C262 0.950 . S
H253 C264 0.950 . S
H254 C266 0.950 . S
H255 C267 0.950 . S
C256 H248 0.950 . S
C256 C257 1.386 . S
C256 C258 1.391 . S
C257 C256 1.386 . S
C257 C261 1.393 . S
C258 H250 0.950 . S
C258 C256 1.391 . S
C258 C259 1.400 . S
C259 C258 1.400 . S
C259 C260 1.398 . S
C259 C265 1.491 . S
C260 H251 0.950 . S
C260 C259 1.398 . S
C260 C261 1.391 . S
C261 H249 0.950 . S
C261 C257 1.393 . S
C261 C260 1.391 . S
C262 H252 0.950 . S
C262 C263 1.386 . S
C262 C264 1.391 . S
C263 C262 1.386 . S
C263 C267 1.393 . S
C264 H253 0.950 . S
C264 C262 1.391 . S
C264 C265 1.400 . S
C265 C259 1.491 . S
C265 C264 1.400 . S
C265 C266 1.398 . S
C266 H254 0.950 . S
C266 C265 1.398 . S
C266 C267 1.391 . S
C267 H255 0.950 . S
C267 C263 1.393 . S
C267 C266 1.391 . S
H268 C276 0.950 . S
H269 C281 0.950 . S
H270 C278 0.950 . S
H271 C280 0.950 . S
H272 C282 0.950 . S
H273 C284 0.950 . S
H274 C286 0.950 . S
H275 C287 0.950 . S
C276 H268 0.950 . S
C276 C277 1.386 . S
C276 C278 1.391 . S
C277 C276 1.386 . S
C277 C281 1.393 . S
C278 H270 0.950 . S
C278 C276 1.391 . S
C278 C279 1.400 . S
C279 C278 1.400 . S
C279 C280 1.398 . S
C279 C285 1.491 . S
C280 H271 0.950 . S
C280 C279 1.398 . S
C280 C281 1.391 . S
C281 H269 0.950 . S
C281 C277 1.393 . S
C281 C280 1.391 . S
C282 H272 0.950 . S
C282 C283 1.386 . S
C282 C284 1.391 . S
C283 C282 1.386 . S
C283 C287 1.393 . S
C284 H273 0.950 . S
C284 C282 1.391 . S
C284 C285 1.400 . S
C285 C279 1.491 . S
C285 C284 1.400 . S
C285 C286 1.398 . S
C286 H274 0.950 . S
C286 C285 1.398 . S
C286 C287 1.391 . S
C287 H275 0.950 . S
C287 C283 1.393 . S
C287 C286 1.391 . S
H288 C296 0.950 . S
H289 C301 0.950 . S
H290 C298 0.950 . S
H291 C300 0.950 . S
H292 C302 0.950 . S
H293 C304 0.950 . S
H294 C306 0.950 . S
H295 C307 0.950 . S
C296 H288 0.950 . S
C296 C297 1.386 . S
C296 C298 1.391 . S
C297 C296 1.386 . S
C297 C301 1.393 . S
C298 H290 0.950 . S
C298 C296 1.391 . S
C298 C299 1.400 . S
C299 C298 1.400 . S
C299 C300 1.398 . S
C299 C305 1.491 . S
C300 H291 0.950 . S
C300 C299 1.398 . S
C300 C301 1.391 . S
C301 H289 0.950 . S
C301 C297 1.393 . S
C301 C300 1.391 . S
C302 H292 0.950 . S
C302 C303 1.386 . S
C302 C304 1.391 1_554 S
C303 C302 1.386 . S
C303 C307 1.393 . S
C304 H293 0.950 . S
C304 C302 1.391 1_556 S
C304 C305 1.400 . S
C305 C299 1.491 . S
C305 C304 1.400 . S
C305 C306 1.398 . S
C306 H294 0.950 . S
C306 C305 1.398 . S
C306 C307 1.391 1_556 S
C307 H295 0.950 . S
C307 C303 1.393 . S
C307 C306 1.391 1_554 S
H308 C316 0.950 . S
H309 C321 0.950 . S
H310 C318 0.950 . S
H311 C320 0.950 . S
H312 C322 0.950 . S
H313 C324 0.950 . S
H314 C326 0.950 . S
H315 C327 0.950 . S
C316 H308 0.950 . S
C316 C317 1.386 . S
C316 C318 1.391 . S
C317 C316 1.386 . S
C317 C321 1.393 . S
C318 H310 0.950 . S
C318 C316 1.391 . S
C318 C319 1.400 . S
C319 C318 1.400 . S
C319 C320 1.398 . S
C319 C325 1.491 . S
C320 H311 0.950 . S
C320 C319 1.398 . S
C320 C321 1.391 . S
C321 H309 0.950 . S
C321 C317 1.393 . S
C321 C320 1.391 . S
C322 H312 0.950 . S
C322 C323 1.386 . S
C322 C324 1.391 . S
C323 C322 1.386 . S
C323 C327 1.393 . S
C324 H313 0.950 . S
C324 C322 1.391 . S
C324 C325 1.400 . S
C325 C319 1.491 . S
C325 C324 1.400 . S
C325 C326 1.398 . S
C326 H314 0.950 . S
C326 C325 1.398 . S
C326 C327 1.391 . S
C327 H315 0.950 . S
C327 C323 1.393 . S
C327 C326 1.391 . S
H328 C336 0.950 . S
H329 C341 0.950 . S
H330 C338 0.950 . S
H331 C340 0.950 . S
H332 C342 0.950 . S
H333 C344 0.950 . S
H334 C346 0.950 . S
H335 C347 0.950 . S
C336 H328 0.950 . S
C336 C337 1.386 . S
C336 C338 1.391 . S
C337 C336 1.386 . S
C337 C341 1.393 . S
C338 H330 0.950 . S
C338 C336 1.391 . S
C338 C339 1.400 . S
C339 C338 1.400 . S
C339 C340 1.398 . S
C339 C345 1.491 . S
C340 H331 0.950 . S
C340 C339 1.398 . S
C340 C341 1.391 . S
C341 H329 0.950 . S
C341 C337 1.393 . S
C341 C340 1.391 . S
C342 H332 0.950 . S
C342 C343 1.386 . S
C342 C344 1.391 . S
C343 C342 1.386 . S
C343 C347 1.393 . S
C344 H333 0.950 . S
C344 C342 1.391 . S
C344 C345 1.400 . S
C345 C339 1.491 . S
C345 C344 1.400 . S
C345 C346 1.398 . S
C346 H334 0.950 . S
C346 C345 1.398 . S
C346 C347 1.391 . S
C347 H335 0.950 . S
C347 C343 1.393 . S
C347 C346 1.391 . S
H348 C356 0.950 . S
H349 C361 0.950 . S
H350 C358 0.950 . S
H351 C360 0.950 . S
H352 C362 0.950 . S
H353 C364 0.950 . S
H354 C366 0.950 . S
H355 C367 0.950 . S
C356 H348 0.950 . S
C356 C357 1.386 . S
C356 C358 1.391 . S
C357 C356 1.386 . S
C357 C361 1.393 . S
C358 H350 0.950 . S
C358 C356 1.391 . S
C358 C359 1.400 . S
C359 C358 1.400 . S
C359 C360 1.398 . S
C359 C365 1.491 . S
C360 H351 0.950 . S
C360 C359 1.398 . S
C360 C361 1.391 . S
C361 H349 0.950 . S
C361 C357 1.393 . S
C361 C360 1.391 . S
C362 H352 0.950 . S
C362 C363 1.386 . S
C362 C364 1.391 . S
C363 C362 1.386 . S
C363 C367 1.393 . S
C364 H353 0.950 . S
C364 C362 1.391 . S
C364 C365 1.400 . S
C365 C359 1.491 . S
C365 C364 1.400 . S
C365 C366 1.398 . S
C366 H354 0.950 . S
C366 C365 1.398 . S
C366 C367 1.391 . S
C367 H355 0.950 . S
C367 C363 1.393 . S
C367 C366 1.391 . S
H368 C376 0.950 . S
H369 C381 0.950 . S
H370 C378 0.950 . S
H371 C380 0.950 . S
H372 C382 0.950 . S
H373 C384 0.950 . S
H374 C386 0.950 . S
H375 C387 0.950 . S
C376 H368 0.950 . S
C376 C377 1.386 . S
C376 C378 1.391 . S
C377 C376 1.386 . S
C377 C381 1.393 . S
C378 H370 0.950 . S
C378 C376 1.391 . S
C378 C379 1.400 . S
C379 C378 1.400 . S
C379 C380 1.398 . S
C379 C385 1.491 . S
C380 H371 0.950 . S
C380 C379 1.398 . S
C380 C381 1.391 . S
C381 H369 0.950 . S
C381 C377 1.393 . S
C381 C380 1.391 . S
C382 H372 0.950 . S
C382 C383 1.386 . S
C382 C384 1.391 . S
C383 C382 1.386 . S
C383 C387 1.393 . S
C384 H373 0.950 . S
C384 C382 1.391 . S
C384 C385 1.400 . S
C385 C379 1.491 . S
C385 C384 1.400 . S
C385 C386 1.398 . S
C386 H374 0.950 . S
C386 C385 1.398 . S
C386 C387 1.391 . S
C387 H375 0.950 . S
C387 C383 1.393 . S
C387 C386 1.391 . S
H388 C396 0.950 . S
H389 C401 0.950 . S
H390 C398 0.950 . S
H391 C400 0.950 . S
H392 C402 0.950 . S
H393 C404 0.950 . S
H394 C406 0.950 . S
H395 C407 0.950 . S
C396 H388 0.950 . S
C396 C397 1.386 . S
C396 C398 1.391 . S
C397 C396 1.386 . S
C397 C401 1.393 . S
C398 H390 0.950 . S
C398 C396 1.391 . S
C398 C399 1.400 . S
C399 C398 1.400 . S
C399 C400 1.398 . S
C399 C405 1.491 . S
C400 H391 0.950 . S
C400 C399 1.398 . S
C400 C401 1.391 . S
C401 H389 0.950 . S
C401 C397 1.393 . S
C401 C400 1.391 . S
C402 H392 0.950 . S
C402 C403 1.386 . S
C402 C404 1.391 . S
C403 C402 1.386 . S
C403 C407 1.393 . S
C404 H393 0.950 . S
C404 C402 1.391 . S
C404 C405 1.400 . S
C405 C399 1.491 . S
C405 C404 1.400 . S
C405 C406 1.398 . S
C406 H394 0.950 . S
C406 C405 1.398 . S
C406 C407 1.391 . S
C407 H395 0.950 . S
C407 C403 1.393 . S
C407 C406 1.391 . S
H408 C416 0.950 . S
H409 C421 0.950 . S
H410 C418 0.950 . S
H411 C420 0.950 . S
H412 C422 0.950 . S
H413 C424 0.950 . S
H414 C426 0.950 . S
H415 C427 0.950 . S
C416 H408 0.950 . S
C416 C417 1.386 . S
C416 C418 1.391 . S
C417 C416 1.386 . S
C417 C421 1.393 . S
C418 H410 0.950 . S
C418 C416 1.391 . S
C418 C419 1.400 . S
C419 C418 1.400 . S
C419 C420 1.398 . S
C419 C425 1.491 . S
C420 H411 0.950 . S
C420 C419 1.398 . S
C420 C421 1.391 . S
C421 H409 0.950 . S
C421 C417 1.393 . S
C421 C420 1.391 . S
C422 H412 0.950 . S
C422 C423 1.386 . S
C422 C424 1.391 . S
C423 C422 1.386 . S
C423 C427 1.393 . S
C424 H413 0.950 . S
C424 C422 1.391 . S
C424 C425 1.400 . S
C425 C419 1.491 . S
C425 C424 1.400 . S
C425 C426 1.398 . S
C426 H414 0.950 . S
C426 C425 1.398 . S
C426 C427 1.391 . S
C427 H415 0.950 . S
C427 C423 1.393 . S
C427 C426 1.391 . S
H428 C436 0.950 . S
H429 C441 0.950 . S
H430 C438 0.950 . S
H431 C440 0.950 . S
H432 C442 0.950 . S
H433 C444 0.950 . S
H434 C446 0.950 . S
H435 C447 0.950 . S
C436 H428 0.950 . S
C436 C437 1.386 . S
C436 C438 1.391 . S
C437 C436 1.386 . S
C437 C441 1.393 . S
C438 H430 0.950 . S
C438 C436 1.391 . S
C438 C439 1.400 . S
C439 C438 1.400 . S
C439 C440 1.398 . S
C439 C445 1.491 . S
C440 H431 0.950 . S
C440 C439 1.398 . S
C440 C441 1.391 . S
C441 H429 0.950 . S
C441 C437 1.393 . S
C441 C440 1.391 . S
C442 H432 0.950 . S
C442 C443 1.386 . S
C442 C444 1.391 . S
C443 C442 1.386 . S
C443 C447 1.393 . S
C444 H433 0.950 . S
C444 C442 1.391 . S
C444 C445 1.400 . S
C445 C439 1.491 . S
C445 C444 1.400 . S
C445 C446 1.398 . S
C446 H434 0.950 . S
C446 C445 1.398 . S
C446 C447 1.391 . S
C447 H435 0.950 . S
C447 C443 1.393 . S
C447 C446 1.391 . S
H448 C456 0.950 . S
H449 C461 0.950 . S
H450 C458 0.950 . S
H451 C460 0.950 . S
H452 C462 0.950 . S
H453 C464 0.950 . S
H454 C466 0.950 . S
H455 C467 0.950 . S
C456 H448 0.950 . S
C456 C457 1.386 . S
C456 C458 1.391 . S
C457 C456 1.386 . S
C457 C461 1.393 . S
C458 H450 0.950 . S
C458 C456 1.391 . S
C458 C459 1.400 . S
C459 C458 1.400 . S
C459 C460 1.398 . S
C459 C465 1.491 . S
C460 H451 0.950 . S
C460 C459 1.398 . S
C460 C461 1.391 . S
C461 H449 0.950 . S
C461 C457 1.393 . S
C461 C460 1.391 . S
C462 H452 0.950 . S
C462 C463 1.386 . S
C462 C464 1.391 . S
C463 C462 1.386 . S
C463 C467 1.393 . S
C464 H453 0.950 . S
C464 C462 1.391 . S
C464 C465 1.400 . S
C465 C459 1.491 . S
C465 C464 1.400 . S
C465 C466 1.398 . S
C466 H454 0.950 . S
C466 C465 1.398 . S
C466 C467 1.391 . S
C467 H455 0.950 . S
C467 C463 1.393 . S
C467 C466 1.391 . S
H468 C476 0.950 . S
H469 C481 0.950 . S
H470 C478 0.950 . S
H471 C480 0.950 . S
H472 C482 0.950 . S
H473 C484 0.950 . S
H474 C486 0.950 . S
H475 C487 0.950 . S
C476 H468 0.950 . S
C476 C477 1.386 . S
C476 C478 1.391 . S
C477 C476 1.386 . S
C477 C481 1.393 . S
C478 H470 0.950 . S
C478 C476 1.391 . S
C478 C479 1.400 . S
C479 C478 1.400 . S
C479 C480 1.398 . S
C479 C485 1.491 . S
C480 H471 0.950 . S
C480 C479 1.398 . S
C480 C481 1.391 . S
C481 H469 0.950 . S
C481 C477 1.393 . S
C481 C480 1.391 . S
C482 H472 0.950 . S
C482 C483 1.386 . S
C482 C484 1.391 . S
C483 C482 1.386 . S
C483 C487 1.393 . S
C484 H473 0.950 . S
C484 C482 1.391 . S
C484 C485 1.400 . S
C485 C479 1.491 . S
C485 C484 1.400 . S
C485 C486 1.398 . S
C486 H474 0.950 . S
C486 C485 1.398 . S
C486 C487 1.391 . S
C487 H475 0.950 . S
C487 C483 1.393 . S
C487 C486 1.391 . S
H488 C496 0.950 . S
H489 C501 0.950 . S
H490 C498 0.950 . S
H491 C500 0.950 . S
H492 C502 0.950 . S
H493 C504 0.950 . S
H494 C506 0.950 . S
H495 C507 0.950 . S
C496 H488 0.950 . S
C496 C497 1.386 . S
C496 C498 1.391 . S
C497 C496 1.386 . S
C497 C501 1.393 . S
C498 H490 0.950 . S
C498 C496 1.391 . S
C498 C499 1.400 . S
C499 C498 1.400 . S
C499 C500 1.398 . S
C499 C505 1.491 . S
C500 H491 0.950 . S
C500 C499 1.398 . S
C500 C501 1.391 . S
C501 H489 0.950 . S
C501 C497 1.393 . S
C501 C500 1.391 . S
C502 H492 0.950 . S
C502 C503 1.386 . S
C502 C504 1.391 . S
C503 C502 1.386 . S
C503 C507 1.393 . S
C504 H493 0.950 . S
C504 C502 1.391 . S
C504 C505 1.400 . S
C505 C499 1.491 . S
C505 C504 1.400 . S
C505 C506 1.398 . S
C506 H494 0.950 . S
C506 C505 1.398 . S
C506 C507 1.391 . S
C507 H495 0.950 . S
C507 C503 1.393 . S
C507 C506 1.391 . S
H508 C516 0.950 . S
H509 C521 0.950 . S
H510 C518 0.950 . S
H511 C520 0.950 . S
H512 C522 0.950 . S
H513 C524 0.950 . S
H514 C526 0.950 . S
H515 C527 0.950 . S
C516 H508 0.950 . S
C516 C517 1.386 . S
C516 C518 1.391 . S
C517 C516 1.386 . S
C517 C521 1.393 . S
C518 H510 0.950 . S
C518 C516 1.391 . S
C518 C519 1.400 . S
C519 C518 1.400 . S
C519 C520 1.398 . S
C519 C525 1.491 . S
C520 H511 0.950 . S
C520 C519 1.398 . S
C520 C521 1.391 . S
C521 H509 0.950 . S
C521 C517 1.393 . S
C521 C520 1.391 . S
C522 H512 0.950 . S
C522 C523 1.386 . S
C522 C524 1.391 . S
C523 C522 1.386 . S
C523 C527 1.393 . S
C524 H513 0.950 . S
C524 C522 1.391 . S
C524 C525 1.400 . S
C525 C519 1.491 . S
C525 C524 1.400 . S
C525 C526 1.398 . S
C526 H514 0.950 . S
C526 C525 1.398 . S
C526 C527 1.391 . S
C527 H515 0.950 . S
C527 C523 1.393 . S
C527 C526 1.391 . S
H528 C536 0.950 . S
H529 C541 0.950 . S
H530 C538 0.950 . S
H531 C540 0.950 . S
H532 C542 0.950 . S
H533 C544 0.950 . S
H534 C546 0.950 . S
H535 C547 0.950 . S
C536 H528 0.950 . S
C536 C537 1.386 . S
C536 C538 1.391 . S
C537 C536 1.386 . S
C537 C541 1.393 . S
C538 H530 0.950 . S
C538 C536 1.391 . S
C538 C539 1.400 . S
C539 C538 1.400 . S
C539 C540 1.398 . S
C539 C545 1.491 . S
C540 H531 0.950 . S
C540 C539 1.398 . S
C540 C541 1.391 . S
C541 H529 0.950 . S
C541 C537 1.393 . S
C541 C540 1.391 . S
C542 H532 0.950 . S
C542 C543 1.386 . S
C542 C544 1.391 . S
C543 C542 1.386 . S
C543 C547 1.393 . S
C544 H533 0.950 . S
C544 C542 1.391 . S
C544 C545 1.400 . S
C545 C539 1.491 . S
C545 C544 1.400 . S
C545 C546 1.398 . S
C546 H534 0.950 . S
C546 C545 1.398 . S
C546 C547 1.391 . S
C547 H535 0.950 . S
C547 C543 1.393 . S
C547 C546 1.391 . S
H548 C556 0.950 . S
H549 C561 0.950 . S
H550 C558 0.950 . S
H551 C560 0.950 . S
H552 C562 0.950 . S
H553 C564 0.950 . S
H554 C566 0.950 . S
H555 C567 0.950 . S
C556 H548 0.950 . S
C556 C557 1.386 . S
C556 C558 1.391 . S
C557 C556 1.386 . S
C557 C561 1.393 . S
C558 H550 0.950 . S
C558 C556 1.391 . S
C558 C559 1.400 . S
C559 C558 1.400 . S
C559 C560 1.398 . S
C559 C565 1.491 . S
C560 H551 0.950 . S
C560 C559 1.398 . S
C560 C561 1.391 . S
C561 H549 0.950 . S
C561 C557 1.393 . S
C561 C560 1.391 . S
C562 H552 0.950 . S
C562 C563 1.386 . S
C562 C564 1.391 . S
C563 C562 1.386 . S
C563 C567 1.393 . S
C564 H553 0.950 . S
C564 C562 1.391 . S
C564 C565 1.400 . S
C565 C559 1.491 . S
C565 C564 1.400 . S
C565 C566 1.398 . S
C566 H554 0.950 . S
C566 C565 1.398 . S
C566 C567 1.391 . S
C567 H555 0.950 . S
C567 C563 1.393 . S
C567 C566 1.391 . S
H568 C576 0.950 . S
H569 C581 0.950 . S
H570 C578 0.950 . S
H571 C580 0.950 . S
H572 C582 0.950 . S
H573 C584 0.950 . S
H574 C586 0.950 . S
H575 C587 0.950 . S
C576 H568 0.950 . S
C576 C577 1.386 . S
C576 C578 1.391 . S
C577 C576 1.386 . S
C577 C581 1.393 . S
C578 H570 0.950 . S
C578 C576 1.391 . S
C578 C579 1.400 . S
C579 C578 1.400 . S
C579 C580 1.398 . S
C579 C585 1.491 . S
C580 H571 0.950 . S
C580 C579 1.398 . S
C580 C581 1.391 . S
C581 H569 0.950 . S
C581 C577 1.393 . S
C581 C580 1.391 . S
C582 H572 0.950 . S
C582 C583 1.386 . S
C582 C584 1.391 . S
C583 C582 1.386 . S
C583 C587 1.393 . S
C584 H573 0.950 . S
C584 C582 1.391 . S
C584 C585 1.400 . S
C585 C579 1.491 . S
C585 C584 1.400 . S
C585 C586 1.398 . S
C586 H574 0.950 . S
C586 C585 1.398 . S
C586 C587 1.391 . S
C587 H575 0.950 . S
C587 C583 1.393 . S
C587 C586 1.391 . S
H588 C596 0.950 . S
H589 C601 0.950 . S
H590 C598 0.950 . S
H591 C600 0.950 . S
H592 C602 0.950 . S
H593 C604 0.950 . S
H594 C606 0.950 . S
H595 C607 0.950 . S
C596 H588 0.950 . S
C596 C597 1.386 . S
C596 C598 1.391 . S
C597 C596 1.386 . S
C597 C601 1.393 . S
C598 H590 0.950 . S
C598 C596 1.391 . S
C598 C599 1.400 . S
C599 C598 1.400 . S
C599 C600 1.398 . S
C599 C605 1.491 . S
C600 H591 0.950 . S
C600 C599 1.398 . S
C600 C601 1.391 . S
C601 H589 0.950 . S
C601 C597 1.393 . S
C601 C600 1.391 . S
C602 H592 0.950 . S
C602 C603 1.386 . S
C602 C604 1.391 . S
C603 C602 1.386 . S
C603 C607 1.393 . S
C604 H593 0.950 . S
C604 C602 1.391 . S
C604 C605 1.400 . S
C605 C599 1.491 . S
C605 C604 1.400 . S
C605 C606 1.398 . S
C606 H594 0.950 . S
C606 C605 1.398 . S
C606 C607 1.391 . S
C607 H595 0.950 . S
C607 C603 1.393 . S
C607 C606 1.391 . S
H608 C616 0.950 . S
H609 C621 0.950 . S
H610 C618 0.950 . S
H611 C620 0.950 . S
H612 C622 0.950 . S
H613 C624 0.950 . S
H614 C626 0.950 . S
H615 C627 0.950 . S
C616 H608 0.950 . S
C616 C617 1.386 . S
C616 C618 1.391 . S
C617 C616 1.386 . S
C617 C621 1.393 . S
C618 H610 0.950 . S
C618 C616 1.391 . S
C618 C619 1.400 . S
C619 C618 1.400 . S
C619 C620 1.398 . S
C619 C625 1.491 . S
C620 H611 0.950 . S
C620 C619 1.398 . S
C620 C621 1.391 . S
C621 H609 0.950 . S
C621 C617 1.393 . S
C621 C620 1.391 . S
C622 H612 0.950 . S
C622 C623 1.386 . S
C622 C624 1.391 . S
C623 C622 1.386 . S
C623 C627 1.393 . S
C624 H613 0.950 . S
C624 C622 1.391 . S
C624 C625 1.400 . S
C625 C619 1.491 . S
C625 C624 1.400 . S
C625 C626 1.398 . S
C626 H614 0.950 . S
C626 C625 1.398 . S
C626 C627 1.391 . S
C627 H615 0.950 . S
C627 C623 1.393 . S
C627 C626 1.391 . S
H628 C636 0.950 . S
H629 C641 0.950 . S
H630 C638 0.950 . S
H631 C640 0.950 . S
H632 C642 0.950 . S
H633 C644 0.950 . S
H634 C646 0.950 . S
H635 C647 0.950 . S
C636 H628 0.950 . S
C636 C637 1.386 . S
C636 C638 1.391 . S
C637 C636 1.386 . S
C637 C641 1.393 . S
C638 H630 0.950 . S
C638 C636 1.391 . S
C638 C639 1.400 . S
C639 C638 1.400 . S
C639 C640 1.398 . S
C639 C645 1.491 . S
C640 H631 0.950 . S
C640 C639 1.398 . S
C640 C641 1.391 . S
C641 H629 0.950 . S
C641 C637 1.393 . S
C641 C640 1.391 . S
C642 H632 0.950 . S
C642 C643 1.386 . S
C642 C644 1.391 . S
C643 C642 1.386 . S
C643 C647 1.393 . S
C644 H633 0.950 . S
C644 C642 1.391 . S
C644 C645 1.400 . S
C645 C639 1.491 . S
C645 C644 1.400 . S
C645 C646 1.398 . S
C646 H634 0.950 . S
C646 C645 1.398 . S
C646 C647 1.391 . S
C647 H635 0.950 . S
C647 C643 1.393 . S
C647 C646 1.391 . S
H648 C656 0.950 . S
H649 C661 0.950 . S
H650 C658 0.950 . S
H651 C660 0.950 . S
H652 C662 0.950 . S
H653 C664 0.950 . S
H654 C666 0.950 . S
H655 C667 0.950 . S
C656 H648 0.950 . S
C656 C657 1.386 . S
C656 C658 1.391 . S
C657 C656 1.386 . S
C657 C661 1.393 . S
C658 H650 0.950 . S
C658 C656 1.391 . S
C658 C659 1.400 . S
C659 C658 1.400 . S
C659 C660 1.398 . S
C659 C665 1.491 . S
C660 H651 0.950 . S
C660 C659 1.398 . S
C660 C661 1.391 . S
C661 H649 0.950 . S
C661 C657 1.393 . S
C661 C660 1.391 . S
C662 H652 0.950 . S
C662 C663 1.386 1_556 S
C662 C664 1.391 . S
C663 C662 1.386 1_554 S
C663 C667 1.393 . S
C664 H653 0.950 . S
C664 C662 1.391 . S
C664 C665 1.400 . S
C665 C659 1.491 . S
C665 C664 1.400 . S
C665 C666 1.398 . S
C666 H654 0.950 . S
C666 C665 1.398 . S
C666 C667 1.391 1_556 S
C667 H655 0.950 . S
C667 C663 1.393 . S
C667 C666 1.391 1_554 S
C203 C116 1.631 . S
C197 C8 1.649 . S
C223 C119 1.570 . S
C217 C22 1.557 . S
C243 C117 1.582 . S
C237 C30 1.575 . S
C263 C118 1.389 . S
C257 C47 1.387 . S
C283 C133 1.702 . S
C277 C9 1.709 . S
C303 C147 1.646 . S
C297 C17 1.601 . S
C317 C34 1.519 . S
C323 C173 1.504 . S
C343 C187 1.597 . S
C337 C48 1.597 . S
C363 C132 1.718 . S
C357 C21 1.732 . S
C377 C35 1.647 . S
C383 C146 1.669 . S
C403 C172 1.365 . S
C397 C43 1.313 . S
C423 C186 1.599 . S
C417 C4 1.557 . S
C437 C56 1.409 . S
C443 C131 1.456 . S
C463 C104 1.595 . S
C457 C73 1.600 . S
C477 C87 1.597 . S
C483 C130 1.594 . S
C497 C100 1.727 . S
C503 C105 1.717 . S
C523 C160 1.612 . S
C517 C60 1.622 . S
C543 C174 1.476 . S
C537 C69 1.424 . S
C563 C144 1.796 . S
C557 C86 1.814 . S
C577 C95 1.407 . S
C583 C158 1.492 . S
C603 C161 1.612 . S
C597 C74 1.627 . S
C623 C175 1.488 . S
C617 C82 1.438 . S
C643 C145 1.847 . S
C637 C99 1.864 . S
C657 C61 1.533 . S
C663 C159 1.554 . S
