# Generated by pormake.
# Topology pyr, (3,6)-cn, num edge types: 1
# Building blocks:
#     Node 0, Type 0, BuildingBlock: CUQRIR_clean_linker_1, # of connection points: 3
#     Node 1, Type 0, BuildingBlock: CUQRIR_clean_linker_1, # of connection points: 3
#     Node 2, Type 0, BuildingBlock: CUQRIR_clean_linker_1, # of connection points: 3
#     Node 3, Type 0, BuildingBlock: CUQRIR_clean_linker_1, # of connection points: 3
#     Node 4, Type 0, BuildingBlock: CUQRIR_clean_linker_1, # of connection points: 3
#     Node 5, Type 0, BuildingBlock: CUQRIR_clean_linker_1, # of connection points: 3
#     Node 6, Type 0, BuildingBlock: CUQRIR_clean_linker_1, # of connection points: 3
#     Node 7, Type 0, BuildingBlock: CUQRIR_clean_linker_1, # of connection points: 3
#     Node 8, Type 1, BuildingBlock: MIDCAF_clean_sbu_0, # of connection points: 6
#     Node 9, Type 1, BuildingBlock: MIDCAF_clean_sbu_0, # of connection points: 6
#     Node 10, Type 1, BuildingBlock: MIDCAF_clean_sbu_0, # of connection points: 6
#     Node 11, Type 1, BuildingBlock: MIDCAF_clean_sbu_0, # of connection points: 6
#     Edge 12, Type (0, 1), BuildingBlock: ZUJKAS_clean_linker_0, # of connection points: 2
#     Edge 13, Type (0, 1), BuildingBlock: ZUJKAS_clean_linker_0, # of connection points: 2
#     Edge 14, Type (0, 1), BuildingBlock: ZUJKAS_clean_linker_0, # of connection points: 2
#     Edge 15, Type (0, 1), BuildingBlock: ZUJKAS_clean_linker_0, # of connection points: 2
#     Edge 16, Type (0, 1), BuildingBlock: ZUJKAS_clean_linker_0, # of connection points: 2
#     Edge 17, Type (0, 1), BuildingBlock: ZUJKAS_clean_linker_0, # of connection points: 2
#     Edge 18, Type (0, 1), BuildingBlock: ZUJKAS_clean_linker_0, # of connection points: 2
#     Edge 19, Type (0, 1), BuildingBlock: ZUJKAS_clean_linker_0, # of connection points: 2
#     Edge 20, Type (0, 1), BuildingBlock: ZUJKAS_clean_linker_0, # of connection points: 2
#     Edge 21, Type (0, 1), BuildingBlock: ZUJKAS_clean_linker_0, # of connection points: 2
#     Edge 22, Type (0, 1), BuildingBlock: ZUJKAS_clean_linker_0, # of connection points: 2
#     Edge 23, Type (0, 1), BuildingBlock: ZUJKAS_clean_linker_0, # of connection points: 2
#     Edge 24, Type (0, 1), BuildingBlock: ZUJKAS_clean_linker_0, # of connection points: 2
#     Edge 25, Type (0, 1), BuildingBlock: ZUJKAS_clean_linker_0, # of connection points: 2
#     Edge 26, Type (0, 1), BuildingBlock: ZUJKAS_clean_linker_0, # of connection points: 2
#     Edge 27, Type (0, 1), BuildingBlock: ZUJKAS_clean_linker_0, # of connection points: 2
#     Edge 28, Type (0, 1), BuildingBlock: ZUJKAS_clean_linker_0, # of connection points: 2
#     Edge 29, Type (0, 1), BuildingBlock: ZUJKAS_clean_linker_0, # of connection points: 2
#     Edge 30, Type (0, 1), BuildingBlock: ZUJKAS_clean_linker_0, # of connection points: 2
#     Edge 31, Type (0, 1), BuildingBlock: ZUJKAS_clean_linker_0, # of connection points: 2
#     Edge 32, Type (0, 1), BuildingBlock: ZUJKAS_clean_linker_0, # of connection points: 2
#     Edge 33, Type (0, 1), BuildingBlock: ZUJKAS_clean_linker_0, # of connection points: 2
#     Edge 34, Type (0, 1), BuildingBlock: ZUJKAS_clean_linker_0, # of connection points: 2
#     Edge 35, Type (0, 1), BuildingBlock: ZUJKAS_clean_linker_0, # of connection points: 2
# Relax obj value: 0.101
# Max RMSD: 0.208
# Mean RMSD: 0.153
data_MOF--net-pry--node1-MIDCAF_clean_sbu_0--node2-CUQRIR_clean_linker_1--edge1-ZUJKAS_clean_linker_0
_symmetry_space_group_name_H-M    P1
_symmetry_Int_Tables_number       1
_symmetry_cell_setting            triclinic
loop_
_symmetry_equiv_pos_as_xyz
'x, y, z'
_cell_length_a     43.812366
_cell_length_b     43.625939
_cell_length_c     42.938861
_cell_angle_alpha  88.332185
_cell_angle_beta   91.931785
_cell_angle_gamma 93.676115
loop_
_atom_site_label
_atom_site_type_symbol
_atom_site_fract_x
_atom_site_fract_y
_atom_site_fract_z
_atom_type_partial_charge
C0 C 0.20285 0.26529 0.2458 0.0
N1 N 0.21898 0.24008 0.25118 0.0
N2 N 0.20889 0.27821 0.21744 0.0
C3 C 0.17927 0.27584 0.26716 0.0
C4 C 0.22902 0.25967 0.20557 0.0
N5 N 0.23498 0.23625 0.22596 0.0
C6 C 0.24414 0.26558 0.17485 0.0
H7 H 0.16908 0.25645 0.28145 0.0
H8 H 0.1607 0.28691 0.25373 0.0
H9 H 0.1905 0.29293 0.28318 0.0
H10 H 0.24428 0.29027 0.16783 0.0
H11 H 0.23122 0.25206 0.15669 0.0
H12 H 0.268 0.2584 0.17617 0.0
C13 C 0.28257 0.79936 0.71975 0.0
N14 N 0.27934 0.82168 0.74042 0.0
N15 N 0.30517 0.78117 0.72935 0.0
C16 C 0.26301 0.7949 0.69055 0.0
C17 C 0.3155 0.79326 0.75681 0.0
N18 N 0.29962 0.8178 0.76371 0.0
C19 C 0.34294 0.78293 0.77532 0.0
H20 H 0.26201 0.77063 0.68337 0.0
H21 H 0.27298 0.80968 0.67153 0.0
H22 H 0.23944 0.80178 0.69402 0.0
H23 H 0.35886 0.77189 0.76022 0.0
H24 H 0.33511 0.76594 0.79354 0.0
H25 H 0.35544 0.80256 0.78698 0.0
C26 C 0.69257 0.28476 0.79686 0.0
N27 N 0.71038 0.28278 0.82326 0.0
N28 N 0.69904 0.31171 0.78129 0.0
C29 C 0.66649 0.26211 0.78827 0.0
C30 C 0.72116 0.32616 0.79919 0.0
N31 N 0.72796 0.30873 0.82468 0.0
C32 C 0.73516 0.35795 0.79248 0.0
H33 H 0.67589 0.2415 0.77861 0.0
H34 H 0.65056 0.2719 0.77059 0.0
H35 H 0.65361 0.25465 0.80928 0.0
H36 H 0.73309 0.3641 0.76727 0.0
H37 H 0.75964 0.35973 0.80013 0.0
H38 H 0.72305 0.37466 0.80573 0.0
C39 C 0.77163 0.73738 0.27944 0.0
N40 N 0.79824 0.75514 0.27855 0.0
N41 N 0.75587 0.74325 0.30495 0.0
C42 C 0.76212 0.71269 0.25666 0.0
C43 C 0.77399 0.76474 0.3199 0.0
N44 N 0.79988 0.77178 0.30411 0.0
C45 C 0.76706 0.77762 0.35085 0.0
H46 H 0.75413 0.72358 0.23446 0.0
H47 H 0.74324 0.69697 0.26539 0.0
H48 H 0.78195 0.69921 0.25164 0.0
H49 H 0.77639 0.76271 0.36978 0.0
H50 H 0.74204 0.77809 0.35371 0.0
H51 H 0.77777 0.80121 0.35326 0.0
C52 C 0.85623 0.91522 0.92605 0.0
N53 N 0.87828 0.90413 0.90889 0.0
N54 N 0.84204 0.93768 0.90997 0.0
C55 C 0.8466 0.9022 0.95734 0.0
C56 C 0.85592 0.93959 0.88222 0.0
N57 N 0.87782 0.91903 0.88143 0.0
C58 C 0.84915 0.96264 0.8566 0.0
H59 H 0.84948 0.87712 0.95913 0.0
H60 H 0.82237 0.90633 0.96152 0.0
H61 H 0.8612 0.9135 0.97583 0.0
H62 H 0.83846 0.98274 0.86583 0.0
H63 H 0.83305 0.95156 0.8392 0.0
H64 H 0.87038 0.97061 0.84461 0.0
C65 C 0.69259 0.18718 0.42316 0.0
N66 N 0.69387 0.16555 0.40114 0.0
N67 N 0.67112 0.20721 0.41508 0.0
C68 C 0.71372 0.19018 0.4514 0.0
C69 C 0.65935 0.19709 0.38744 0.0
N70 N 0.67344 0.17213 0.37869 0.0
C71 C 0.63229 0.21007 0.37028 0.0
H72 H 0.70434 0.17515 0.47053 0.0
H73 H 0.71576 0.21419 0.45943 0.0
H74 H 0.7368 0.18292 0.44627 0.0
H75 H 0.64071 0.22721 0.35246 0.0
H76 H 0.61769 0.2216 0.38637 0.0
H77 H 0.61809 0.19176 0.35823 0.0
C78 C 0.38198 0.6088 0.15941 0.0
N79 N 0.40207 0.63353 0.15694 0.0
N80 N 0.36064 0.60905 0.13591 0.0
C81 C 0.3827 0.58498 0.18543 0.0
C82 C 0.36854 0.63492 0.11903 0.0
N83 N 0.3939 0.64969 0.13171 0.0
C84 C 0.34944 0.64754 0.09237 0.0
H85 H 0.36953 0.56345 0.17882 0.0
H86 H 0.37258 0.59416 0.20632 0.0
H87 H 0.40663 0.57984 0.19175 0.0
H88 H 0.32472 0.64196 0.09592 0.0
H89 H 0.35566 0.63683 0.07053 0.0
H90 H 0.3534 0.67281 0.08951 0.0
C91 C 0.10447 0.37163 0.68151 0.0
N92 N 0.12761 0.37197 0.66125 0.0
N93 N 0.11006 0.39362 0.7029 0.0
C94 C 0.07769 0.34823 0.68212 0.0
C95 C 0.13746 0.40728 0.69512 0.0
N96 N 0.14836 0.39391 0.67001 0.0
C97 C 0.15233 0.43519 0.71063 0.0
H98 H 0.05936 0.35606 0.66589 0.0
H99 H 0.06836 0.34547 0.70581 0.0
H100 H 0.08441 0.32561 0.67449 0.0
H101 H 0.16876 0.42768 0.72909 0.0
H102 H 0.13506 0.44856 0.72159 0.0
H103 H 0.16502 0.45029 0.69359 0.0
Zn104 Zn 0.98537 0.05769 0.55984 0.0
Zn105 Zn 0.06067 0.99346 0.49995 0.0
Zn106 Zn 0.02261 0.02525 0.5294 0.0
C107 C 0.08046 0.05413 0.48932 0.0
C108 C 0.0025 0.98009 0.47263 0.0
O109 O 0.02035 0.00643 0.57865 0.0
O110 O 0.98606 0.03397 0.59977 0.0
C111 C 0.03322 0.09858 0.54039 0.0
O112 O 0.05787 0.05777 0.50716 0.0
O113 O 0.08686 0.02752 0.48216 0.0
O114 O 0.02978 0.97247 0.47167 0.0
O115 O 0.9953 0.99997 0.49238 0.0
O116 O 0.00926 0.09782 0.55603 0.0
O117 O 0.04141 0.07389 0.52805 0.0
O118 O 0.97624 0.02092 0.50505 0.0
O119 O 0.94873 0.05058 0.53246 0.0
C120 C 0.95078 0.0332 0.50975 0.0
O121 O 0.04485 0.99361 0.56454 0.0
O122 O 0.07842 0.97171 0.53649 0.0
C123 C 0.00398 0.01246 0.60193 0.0
C124 C 0.0672 0.97587 0.5626 0.0
Zn125 Zn 0.46967 0.06682 0.01679 0.0
Zn126 Zn 0.52205 0.98853 0.08433 0.0
Zn127 Zn 0.49617 0.02702 0.05031 0.0
C128 C 0.56362 0.00582 0.03932 0.0
C129 C 0.47178 0.95645 0.06172 0.0
O130 O 0.47365 0.05757 0.08287 0.0
O131 O 0.44524 0.08368 0.04947 0.0
C132 C 0.53085 0.07818 0.00606 0.0
O133 O 0.54426 0.02672 0.03495 0.0
O134 O 0.55788 0.98363 0.05817 0.0
O135 O 0.49006 0.95531 0.08492 0.0
O136 O 0.47204 0.98062 0.04363 0.0
O137 O 0.50642 0.09195 0.00339 0.0
O138 O 0.53118 0.05194 0.02068 0.0
O139 O 0.46058 0.00104 0.02074 0.0
O140 O 0.44893 0.03772 0.98669 0.0
C141 C 0.44657 0.00977 0.99536 0.0
O142 O 0.49742 0.04376 0.09931 0.0
O143 O 0.52847 0.01166 0.12265 0.0
C144 C 0.45289 0.07695 0.07732 0.0
C145 C 0.51342 0.03527 0.12351 0.0
Zn146 Zn 0.53044 0.55941 0.55545 0.0
Zn147 Zn 0.45906 0.48654 0.47749 0.0
Zn148 Zn 0.49234 0.52434 0.5171 0.0
C149 C 0.50371 0.45173 0.50592 0.0
C150 C 0.48581 0.5357 0.4421 0.0
O151 O 0.46226 0.54493 0.55042 0.0
O152 O 0.49579 0.5714 0.58056 0.0
C153 C 0.54775 0.49929 0.5619 0.0
O154 O 0.51042 0.47783 0.51863 0.0
O155 O 0.48088 0.44846 0.48729 0.0
O156 O 0.46964 0.51091 0.43885 0.0
O157 O 0.49587 0.54408 0.46928 0.0
O158 O 0.55618 0.52573 0.57135 0.0
O159 O 0.52506 0.49547 0.54224 0.0
O160 O 0.51671 0.56089 0.48882 0.0
O161 O 0.54622 0.58832 0.52198 0.0
C162 C 0.53665 0.58326 0.49441 0.0
O163 O 0.44464 0.52238 0.53289 0.0
O164 O 0.41998 0.49244 0.49825 0.0
C165 C 0.46836 0.56287 0.57348 0.0
C166 C 0.41976 0.50838 0.52236 0.0
Zn167 Zn 0.02595 0.5743 0.98929 0.0
Zn168 Zn 0.95488 0.51749 0.07244 0.0
Zn169 Zn 0.98909 0.54559 0.02871 0.0
C170 C 0.01407 0.50221 0.087 0.0
C171 C 0.93634 0.49226 0.01416 0.0
O172 O 0.97936 0.59568 0.0263 0.0
O173 O 0.0139 0.61642 0.99425 0.0
C174 C 0.06372 0.54838 0.03358 0.0
O175 O 0.01831 0.51981 0.06261 0.0
O176 O 0.98766 0.49791 0.09785 0.0
O177 O 0.93041 0.49098 0.04278 0.0
O178 O 0.95788 0.51122 0.00414 0.0
O179 O 0.06568 0.56343 0.00812 0.0
O180 O 0.03726 0.53997 0.04436 0.0
O181 O 0.97965 0.52405 0.98282 0.0
O182 O 0.01044 0.55225 0.95198 0.0
C183 C 0.99067 0.53024 0.95571 0.0
O184 O 0.96348 0.58124 0.05126 0.0
O185 O 0.93692 0.55485 0.08715 0.0
C186 C 0.99169 0.61938 0.01161 0.0
C187 C 0.94463 0.58021 0.07379 0.0
H188 H 0.187 0.1857 0.24921 0.0
H189 H 0.16708 0.15589 0.29436 0.0
H190 H 0.21989 0.21681 0.35602 0.0
H191 H 0.23851 0.24726 0.31063 0.0
H192 H 0.18849 0.12428 0.34183 0.0
H193 H 0.13637 0.22549 0.38761 0.0
H194 H 0.1535 0.22616 0.35 0.0
H195 H 0.17709 0.23114 0.38487 0.0
C196 C 0.1949 0.19202 0.27246 0.0
C197 C 0.21437 0.21841 0.27671 0.0
C198 C 0.18335 0.17526 0.29825 0.0
C199 C 0.19122 0.1846 0.32874 0.0
C200 C 0.21264 0.20969 0.33285 0.0
H201 H 0.14196 0.06185 0.48542 0.0
H202 H 0.17038 0.09687 0.44975 0.0
C203 C 0.22376 0.22671 0.30702 0.0
C204 C 0.17618 0.16865 0.35592 0.0
H205 H 0.13398 0.18023 0.41975 0.0
C206 C 0.17662 0.13656 0.35886 0.0
C207 C 0.16 0.18452 0.37785 0.0
C208 C 0.15638 0.21867 0.3748 0.0
C209 C 0.16156 0.11994 0.38297 0.0
C210 C 0.14656 0.13593 0.40573 0.0
C211 C 0.1459 0.16801 0.40271 0.0
C212 C 0.13053 0.11944 0.43201 0.0
C213 C 0.16097 0.08529 0.383 0.0
C214 C 0.09914 0.12251 0.43624 0.0
C215 C 0.08302 0.10318 0.45757 0.0
C216 C 0.09805 0.08036 0.47464 0.0
C217 C 0.12984 0.07916 0.47233 0.0
C218 C 0.14601 0.09887 0.45164 0.0
H219 H 0.16515 0.07674 0.35949 0.0
H220 H 0.17932 0.07732 0.39912 0.0
H221 H 0.13866 0.07477 0.39078 0.0
H222 H 0.08673 0.1385 0.4217 0.0
H223 H 0.05848 0.10443 0.45884 0.0
H224 H 0.29862 0.80193 0.82473 0.0
H225 H 0.31762 0.83365 0.86849 0.0
H226 H 0.3364 0.90996 0.80431 0.0
H227 H 0.31684 0.87823 0.76083 0.0
H228 H 0.37442 0.8578 0.87787 0.0
H229 H 0.29658 0.95276 0.87206 0.0
H230 H 0.28837 0.91774 0.85117 0.0
H231 H 0.3138 0.94792 0.83539 0.0
C232 C 0.3061 0.82574 0.82027 0.0
C233 C 0.30597 0.83785 0.78961 0.0
C234 C 0.3171 0.84381 0.84517 0.0
C235 C 0.32819 0.87441 0.83992 0.0
C236 C 0.32727 0.88674 0.80924 0.0
H237 H 0.43715 0.01525 0.93279 0.0
H238 H 0.40711 0.98079 0.8982 0.0
C239 C 0.31607 0.86868 0.78436 0.0
C240 C 0.34291 0.89257 0.866 0.0
H241 H 0.34398 0.96204 0.90106 0.0
C242 C 0.36744 0.88041 0.88324 0.0
C243 C 0.33382 0.92205 0.87323 0.0
C244 C 0.30649 0.93575 0.8572 0.0
C245 C 0.38391 0.8974 0.90639 0.0
C246 C 0.37555 0.92733 0.91269 0.0
C247 C 0.35048 0.93914 0.89614 0.0
C248 C 0.3939 0.94771 0.93453 0.0
C249 C 0.41095 0.88375 0.92302 0.0
C250 C 0.39641 0.94076 0.9667 0.0
C251 C 0.41361 0.96068 0.98673 0.0
C252 C 0.42872 0.98772 0.97491 0.0
C253 C 0.4259 0.99458 0.94274 0.0
C254 C 0.40872 0.97487 0.92286 0.0
H255 H 0.41757 0.86262 0.91182 0.0
H256 H 0.431 0.90068 0.92357 0.0
H257 H 0.4051 0.87771 0.94748 0.0
H258 H 0.38465 0.92026 0.97639 0.0
H259 H 0.41429 0.95543 0.01147 0.0
H260 H 0.69588 0.2931 0.72191 0.0
H261 H 0.67042 0.31889 0.67714 0.0
H262 H 0.63836 0.38521 0.73901 0.0
H263 H 0.66423 0.35979 0.78326 0.0
H264 H 0.60936 0.33363 0.66378 0.0
H265 H 0.68679 0.43823 0.67552 0.0
H266 H 0.69431 0.40239 0.69545 0.0
H267 H 0.66799 0.42755 0.71106 0.0
C268 C 0.68316 0.31308 0.72566 0.0
C269 C 0.68215 0.32493 0.75559 0.0
C270 C 0.66867 0.32771 0.70028 0.0
C271 C 0.65305 0.35431 0.70472 0.0
C272 C 0.65088 0.36515 0.73498 0.0
H273 H 0.52168 0.45114 0.59451 0.0
H274 H 0.54809 0.4118 0.62462 0.0
C275 C 0.66549 0.35069 0.76018 0.0
C276 C 0.63995 0.37168 0.67783 0.0
H277 H 0.64112 0.44348 0.64456 0.0
C278 C 0.61652 0.35754 0.65915 0.0
C279 C 0.64979 0.40263 0.67145 0.0
C280 C 0.67632 0.41851 0.68922 0.0
C281 C 0.60159 0.37406 0.63516 0.0
C282 C 0.61004 0.40573 0.63016 0.0
C283 C 0.63443 0.4193 0.64813 0.0
C284 C 0.59319 0.42609 0.60808 0.0
C285 C 0.57685 0.35714 0.61588 0.0
C286 C 0.60952 0.44756 0.58881 0.0
C287 C 0.59458 0.47096 0.57292 0.0
C288 C 0.56291 0.47259 0.57507 0.0
C289 C 0.54616 0.45003 0.59243 0.0
C290 C 0.56125 0.42733 0.60934 0.0
H291 H 0.58312 0.33336 0.61169 0.0
H292 H 0.55539 0.35534 0.62901 0.0
H293 H 0.5723 0.36876 0.59307 0.0
H294 H 0.63411 0.44712 0.58725 0.0
H295 H 0.60782 0.48816 0.55948 0.0
H296 H 0.85657 0.74082 0.29108 0.0
H297 H 0.89243 0.72435 0.25316 0.0
H298 H 0.8275 0.74389 0.1785 0.0
H299 H 0.79291 0.76221 0.21626 0.0
H300 H 0.88144 0.67623 0.22214 0.0
H301 H 0.90281 0.76863 0.13417 0.0
H302 H 0.8863 0.7757 0.17105 0.0
H303 H 0.86241 0.76213 0.13859 0.0
C304 C 0.85076 0.74296 0.26644 0.0
C305 C 0.82202 0.75264 0.25649 0.0
C306 C 0.87108 0.73327 0.24475 0.0
C307 C 0.86291 0.73288 0.21273 0.0
C308 C 0.83494 0.74456 0.20277 0.0
H309 H 0.88784 0.58655 0.09428 0.0
H310 H 0.8711 0.62772 0.12564 0.0
C311 C 0.81493 0.75469 0.2244 0.0
C312 C 0.88073 0.71567 0.1907 0.0
H313 H 0.90541 0.71615 0.11579 0.0
C314 C 0.88727 0.68539 0.19919 0.0
C315 C 0.88879 0.72736 0.16068 0.0
C316 C 0.88499 0.76037 0.15079 0.0
C317 C 0.8998 0.66607 0.17815 0.0
C318 C 0.90521 0.67686 0.1473 0.0
C319 C 0.9006 0.70767 0.13922 0.0
C320 C 0.91368 0.65551 0.12311 0.0
C321 C 0.90651 0.6339 0.18903 0.0
C322 C 0.94248 0.65846 0.10944 0.0
C323 C 0.95199 0.63496 0.09097 0.0
C324 C 0.93279 0.60832 0.08611 0.0
C325 C 0.90318 0.60671 0.09784 0.0
C326 C 0.89364 0.63017 0.11588 0.0
H327 H 0.91001 0.6323 0.21476 0.0
H328 H 0.88679 0.61786 0.18253 0.0
H329 H 0.92719 0.62623 0.17801 0.0
H330 H 0.95823 0.67795 0.11456 0.0
H331 H 0.97504 0.63665 0.08244 0.0
H332 H 0.28295 0.22232 0.26379 0.0
H333 H 0.32395 0.18892 0.25157 0.0
H334 H 0.27588 0.16483 0.16552 0.0
H335 H 0.23474 0.19741 0.17828 0.0
H336 H 0.30411 0.11532 0.19359 0.0
H337 H 0.385 0.21878 0.18583 0.0
H338 H 0.36729 0.21151 0.22267 0.0
H339 H 0.34433 0.22152 0.18889 0.0
C340 C 0.28092 0.2092 0.24272 0.0
C341 C 0.25601 0.21264 0.22174 0.0
C342 C 0.30444 0.19042 0.23556 0.0
C343 C 0.3034 0.17488 0.20723 0.0
C344 C 0.27739 0.1767 0.18738 0.0
H345 H 0.42345 0.12965 0.07269 0.0
H346 H 0.39108 0.15089 0.11036 0.0
C347 C 0.25394 0.19538 0.19458 0.0
C348 C 0.3301 0.15872 0.19672 0.0
H349 H 0.40283 0.17219 0.17077 0.0
C350 C 0.32592 0.12757 0.18913 0.0
C351 C 0.35852 0.17479 0.19066 0.0
C352 C 0.36417 0.20854 0.19717 0.0
C353 C 0.34881 0.11248 0.17447 0.0
C354 C 0.3768 0.12886 0.16749 0.0
C355 C 0.3815 0.15956 0.17641 0.0
C356 C 0.39912 0.11644 0.14641 0.0
C357 C 0.34215 0.0797 0.16479 0.0
C358 C 0.41533 0.09031 0.15435 0.0
C359 C 0.43422 0.07797 0.1326 0.0
C360 C 0.43695 0.0915 0.10258 0.0
C361 C 0.4217 0.11838 0.09544 0.0
C362 C 0.40317 0.13068 0.11704 0.0
H363 H 0.318 0.07147 0.1686 0.0
H364 H 0.34698 0.07744 0.13976 0.0
H365 H 0.35725 0.06452 0.17852 0.0
H366 H 0.41293 0.07917 0.17707 0.0
H367 H 0.44563 0.05726 0.13883 0.0
H368 H 0.28303 0.87127 0.70234 0.0
H369 H 0.24075 0.90289 0.68603 0.0
H370 H 0.18291 0.85393 0.75266 0.0
H371 H 0.22565 0.82232 0.7689 0.0
H372 H 0.15838 0.85334 0.69234 0.0
H373 H 0.19622 0.97238 0.72205 0.0
H374 H 0.22516 0.95386 0.70238 0.0
H375 H 0.21332 0.93939 0.74007 0.0
C376 C 0.26165 0.86832 0.71435 0.0
C377 C 0.25759 0.845 0.73725 0.0
C378 C 0.23747 0.88627 0.70504 0.0
C379 C 0.20866 0.88111 0.71836 0.0
C380 C 0.20498 0.85859 0.74229 0.0
H381 H 0.04349 0.94748 0.61597 0.0
H382 H 0.07289 0.92617 0.66073 0.0
C383 C 0.22936 0.84077 0.75177 0.0
C384 C 0.18187 0.89646 0.70429 0.0
H385 H 0.15926 0.96665 0.67898 0.0
C386 C 0.15807 0.87815 0.69009 0.0
C387 C 0.18138 0.9288 0.70145 0.0
C388 C 0.20525 0.94974 0.71759 0.0
C389 C 0.13529 0.89123 0.67101 0.0
C390 C 0.13608 0.92352 0.66639 0.0
C391 C 0.15865 0.94189 0.68241 0.0
C392 C 0.11724 0.93825 0.64134 0.0
C393 C 0.11194 0.87029 0.65411 0.0
C394 C 0.13225 0.95277 0.61608 0.0
C395 C 0.11562 0.96516 0.59107 0.0
C396 C 0.08347 0.96363 0.59064 0.0
C397 C 0.06822 0.94962 0.61611 0.0
C398 C 0.08501 0.93707 0.6414 0.0
H399 H 0.11687 0.8457 0.65715 0.0
H400 H 0.08894 0.87323 0.66322 0.0
H401 H 0.11116 0.87631 0.6288 0.0
H402 H 0.157 0.95392 0.61537 0.0
H403 H 0.12805 0.9759 0.57182 0.0
H404 H 0.78748 0.29812 0.82906 0.0
H405 H 0.82633 0.32606 0.86176 0.0
H406 H 0.75494 0.37013 0.90694 0.0
H407 H 0.7166 0.34347 0.87279 0.0
H408 H 0.79576 0.41115 0.88763 0.0
H409 H 0.85762 0.31959 0.94954 0.0
H410 H 0.85711 0.31595 0.90805 0.0
H411 H 0.82179 0.31171 0.92849 0.0
C412 C 0.78027 0.31286 0.84692 0.0
C413 C 0.7492 0.318 0.84933 0.0
C414 C 0.80239 0.32889 0.86555 0.0
C415 C 0.79365 0.34997 0.88724 0.0
C416 C 0.76233 0.3539 0.89057 0.0
H417 H 0.90383 0.43962 0.03067 0.0
H418 H 0.8712 0.40595 0.99783 0.0
C419 C 0.74037 0.33834 0.87152 0.0
C420 C 0.81692 0.37022 0.90414 0.0
H421 H 0.88097 0.37034 0.95174 0.0
C422 C 0.81429 0.40217 0.9018 0.0
C423 C 0.84116 0.35861 0.92261 0.0
C424 C 0.84446 0.32458 0.9276 0.0
C425 C 0.83475 0.42274 0.91779 0.0
C426 C 0.8594 0.41119 0.93573 0.0
C427 C 0.86232 0.37926 0.9377 0.0
C428 C 0.88072 0.43147 0.9549 0.0
C429 C 0.82891 0.45649 0.91622 0.0
C430 C 0.89738 0.45704 0.94178 0.0
C431 C 0.91564 0.47694 0.9608 0.0
C432 C 0.91829 0.4711 0.99309 0.0
C433 C 0.9023 0.44495 0.00589 0.0
C434 C 0.88374 0.42547 0.98707 0.0
H435 H 0.80496 0.46038 0.90857 0.0
H436 H 0.83348 0.46714 0.93922 0.0
H437 H 0.84426 0.46843 0.89909 0.0
H438 H 0.89594 0.46191 0.91693 0.0
H439 H 0.92687 0.49728 0.95036 0.0
H440 H 0.69894 0.76227 0.30892 0.0
H441 H 0.65593 0.73501 0.33585 0.0
H442 H 0.71173 0.65848 0.35609 0.0
H443 H 0.75462 0.686 0.3295 0.0
H444 H 0.6246 0.67358 0.32878 0.0
H445 H 0.6876 0.68921 0.44229 0.0
H446 H 0.69841 0.71061 0.40734 0.0
H447 H 0.70841 0.6715 0.41306 0.0
C448 C 0.7016 0.73943 0.31878 0.0
C449 C 0.72975 0.72603 0.31735 0.0
C450 C 0.67719 0.7239 0.33403 0.0
C451 C 0.68078 0.69486 0.34817 0.0
C452 C 0.70859 0.68097 0.34555 0.0
H453 H 0.55358 0.56328 0.43836 0.0
H454 H 0.58448 0.59209 0.39962 0.0
C455 C 0.73294 0.69652 0.33035 0.0
C456 C 0.65642 0.68009 0.3677 0.0
H457 H 0.64168 0.65773 0.44276 0.0
C458 C 0.6282 0.67016 0.35372 0.0
C459 C 0.66107 0.67612 0.40027 0.0
C460 C 0.69038 0.68763 0.41677 0.0
C461 C 0.60469 0.65568 0.3715 0.0
C462 C 0.60976 0.65089 0.40395 0.0
C463 C 0.63781 0.66135 0.41787 0.0
C464 C 0.58667 0.63484 0.42425 0.0
C465 C 0.57456 0.64603 0.35552 0.0
C466 C 0.57731 0.64928 0.45081 0.0
C467 C 0.5596 0.63284 0.47286 0.0
C468 C 0.55073 0.6017 0.46868 0.0
C469 C 0.55907 0.58755 0.44153 0.0
C470 C 0.5769 0.60398 0.41947 0.0
H471 H 0.57124 0.65876 0.33299 0.0
H472 H 0.57404 0.62117 0.35062 0.0
H473 H 0.55511 0.64981 0.3706 0.0
H474 H 0.58472 0.673 0.45508 0.0
H475 H 0.55368 0.64421 0.49373 0.0
H476 H 0.2068 0.33552 0.23892 0.0
H477 H 0.17765 0.37732 0.21566 0.0
H478 H 0.14911 0.31983 0.13862 0.0
H479 H 0.17795 0.27803 0.16212 0.0
H480 H 0.17894 0.40777 0.15322 0.0
H481 H 0.06852 0.34353 0.17891 0.0
H482 H 0.10441 0.33371 0.19726 0.0
H483 H 0.09505 0.32284 0.1579 0.0
C484 C 0.19448 0.33208 0.21689 0.0
C485 C 0.19444 0.30369 0.20228 0.0
C486 C 0.17798 0.35589 0.20358 0.0
C487 C 0.161 0.35157 0.17556 0.0
C488 C 0.16186 0.32356 0.16037 0.0
H489 H 0.06182 0.4796 0.05747 0.0
H490 H 0.09997 0.4458 0.07963 0.0
C491 C 0.17844 0.29981 0.17364 0.0
C492 C 0.14096 0.3756 0.16317 0.0
H493 H 0.06589 0.38997 0.14959 0.0
C494 C 0.15422 0.40396 0.1524 0.0
C495 C 0.10872 0.37069 0.16255 0.0
C496 C 0.09319 0.34118 0.17498 0.0
C497 C 0.13601 0.42733 0.14048 0.0
C498 C 0.10379 0.4221 0.13922 0.0
C499 C 0.0906 0.39391 0.15044 0.0
C500 C 0.08307 0.4454 0.12644 0.0
C501 C 0.15129 0.45759 0.12974 0.0
C502 C 0.06085 0.45643 0.14531 0.0
C503 C 0.03915 0.47586 0.13272 0.0
C504 C 0.03922 0.48468 0.10098 0.0
C505 C 0.06174 0.47395 0.08219 0.0
C506 C 0.08354 0.45459 0.09483 0.0
H507 H 0.17546 0.46041 0.1384 0.0
H508 H 0.15107 0.45868 0.10389 0.0
H509 H 0.13874 0.47711 0.13767 0.0
H510 H 0.05991 0.44946 0.1697 0.0
H511 H 0.0219 0.48351 0.1477 0.0
H512 H 0.71605 0.22198 0.81916 0.0
H513 H 0.69476 0.18198 0.85524 0.0
H514 H 0.67286 0.25197 0.91823 0.0
H515 H 0.69291 0.29172 0.88165 0.0
H516 H 0.70027 0.16452 0.92214 0.0
H517 H 0.58958 0.21199 0.88577 0.0
H518 H 0.62451 0.22185 0.86567 0.0
H519 H 0.61733 0.23988 0.90161 0.0
C520 C 0.70757 0.22859 0.84123 0.0
C521 C 0.70621 0.25983 0.84779 0.0
C522 C 0.69548 0.20581 0.86179 0.0
C523 C 0.6819 0.21406 0.8892 0.0
C524 C 0.6831 0.24515 0.89709 0.0
H525 H 0.5535 0.13545 0.01796 0.0
H526 H 0.59435 0.16521 0.99114 0.0
C527 C 0.69494 0.26787 0.87641 0.0
C528 C 0.66248 0.19107 0.90696 0.0
H529 H 0.5883 0.17433 0.92642 0.0
C530 C 0.67578 0.16651 0.92309 0.0
C531 C 0.63044 0.19338 0.90754 0.0
C532 C 0.6145 0.21798 0.88899 0.0
C533 C 0.6579 0.14499 0.94099 0.0
C534 C 0.62606 0.14819 0.94249 0.0
C535 C 0.6128 0.17217 0.92555 0.0
C536 C 0.60574 0.12798 0.96231 0.0
C537 C 0.67314 0.11955 0.95879 0.0
C538 C 0.59906 0.09687 0.95554 0.0
C539 C 0.57567 0.07974 0.97104 0.0
C540 C 0.5588 0.0936 0.9934 0.0
C541 C 0.56638 0.12426 1.00094 0.0
C542 C 0.5897 0.14123 0.98567 0.0
H543 H 0.69847 0.12336 0.95959 0.0
H544 H 0.66496 0.11742 0.98301 0.0
H545 H 0.66705 0.0974 0.94734 0.0
H546 H 0.61076 0.08634 0.93719 0.0
H547 H 0.56979 0.05624 0.96454 0.0
H548 H 0.83448 0.76441 0.35608 0.0
H549 H 0.8695 0.80338 0.38038 0.0
H550 H 0.8573 0.86392 0.30024 0.0
H551 H 0.82129 0.82486 0.27644 0.0
H552 H 0.92234 0.83242 0.36539 0.0
H553 H 0.83343 0.91715 0.37014 0.0
H554 H 0.82457 0.87775 0.35966 0.0
H555 H 0.84051 0.90509 0.33155 0.0
C556 C 0.83975 0.7859 0.34357 0.0
C557 C 0.82521 0.79193 0.31464 0.0
C558 C 0.85962 0.80819 0.35742 0.0
C559 C 0.86544 0.83697 0.34256 0.0
C560 C 0.8525 0.84224 0.31257 0.0
H561 H 0.01167 0.96243 0.41401 0.0
H562 H 0.97717 0.93071 0.38066 0.0
C563 C 0.8324 0.81985 0.29875 0.0
C564 C 0.88448 0.86131 0.35912 0.0
H565 H 0.88326 0.9333 0.38857 0.0
C566 C 0.91381 0.85452 0.37031 0.0
C567 C 0.87312 0.88993 0.36618 0.0
C568 C 0.84109 0.89791 0.35656 0.0
C569 C 0.93206 0.87539 0.3883 0.0
C570 C 0.92114 0.90441 0.39454 0.0
C571 C 0.89175 0.91123 0.38348 0.0
C572 C 0.94 0.92763 0.41274 0.0
C573 C 0.96252 0.86564 0.40129 0.0
C574 C 0.92983 0.93835 0.44097 0.0
C575 C 0.94944 0.95712 0.45993 0.0
C576 C 0.97949 0.96524 0.45093 0.0
C577 C 0.98879 0.95612 0.42177 0.0
C578 C 0.96915 0.93784 0.40275 0.0
H579 H 0.96339 0.84022 0.40221 0.0
H580 H 0.98096 0.8751 0.386 0.0
H581 H 0.96733 0.87431 0.42512 0.0
H582 H 0.90729 0.93103 0.44901 0.0
H583 H 0.94172 0.96375 0.48232 0.0
H584 H 0.32435 0.78339 0.67027 0.0
H585 H 0.34516 0.74179 0.642 0.0
H586 H 0.33541 0.682 0.72335 0.0
H587 H 0.31356 0.72348 0.75121 0.0
H588 H 0.39664 0.71369 0.65593 0.0
H589 H 0.29887 0.62658 0.65555 0.0
H590 H 0.29498 0.66611 0.66526 0.0
H591 H 0.30994 0.63957 0.69382 0.0
C592 C 0.32616 0.76117 0.68183 0.0
C593 C 0.31717 0.75647 0.71277 0.0
C594 C 0.33815 0.73745 0.66576 0.0
C595 C 0.34138 0.70851 0.68029 0.0
C596 C 0.33245 0.70382 0.71131 0.0
H597 H 0.47142 0.58006 0.63367 0.0
H598 H 0.43722 0.61275 0.65915 0.0
C599 C 0.32034 0.72757 0.72736 0.0
C600 C 0.35618 0.68414 0.66368 0.0
H601 H 0.34712 0.6094 0.64095 0.0
C602 C 0.38564 0.691 0.65248 0.0
C603 C 0.34178 0.65455 0.65879 0.0
C604 C 0.30952 0.64629 0.6687 0.0
C605 C 0.40138 0.66899 0.63738 0.0
C606 C 0.38758 0.63901 0.63375 0.0
C607 C 0.35777 0.63228 0.64406 0.0
C608 C 0.40465 0.61445 0.62029 0.0
C609 C 0.43281 0.67799 0.62545 0.0
C610 C 0.39675 0.60305 0.5906 0.0
C611 C 0.41628 0.58401 0.57594 0.0
C612 C 0.44394 0.57626 0.59083 0.0
C613 C 0.45042 0.58585 0.62147 0.0
C614 C 0.43093 0.6046 0.63607 0.0
H615 H 0.43695 0.70334 0.62312 0.0
H616 H 0.45036 0.66926 0.6421 0.0
H617 H 0.43593 0.66782 0.60245 0.0
H618 H 0.37646 0.6103 0.57807 0.0
H619 H 0.41078 0.57714 0.55227 0.0
H620 H 0.86291 0.90378 0.82243 0.0
H621 H 0.89624 0.90985 0.77764 0.0
H622 H 0.97281 0.93561 0.83927 0.0
H623 H 0.93908 0.92955 0.88413 0.0
H624 H 0.96251 0.97863 0.79149 0.0
H625 H 0.96479 0.86307 0.74245 0.0
H626 H 0.92671 0.87318 0.74994 0.0
H627 H 0.95386 0.86897 0.78194 0.0
C628 C 0.88706 0.90981 0.82635 0.0
C629 C 0.89859 0.91612 0.85652 0.0
C630 C 0.90614 0.91317 0.80085 0.0
C631 C 0.93717 0.92291 0.80505 0.0
C632 C 0.94904 0.92783 0.83547 0.0
H633 H 0.04533 0.00994 0.65126 0.0
H634 H 0.03617 0.98438 0.70237 0.0
C635 C 0.92991 0.92421 0.86105 0.0
C636 C 0.95578 0.9317 0.7774 0.0
H637 H 0.97616 0.906 0.70708 0.0
C638 C 0.96617 0.96263 0.7733 0.0
C639 C 0.96048 0.91085 0.75367 0.0
C640 C 0.95114 0.8771 0.75731 0.0
C641 C 0.97914 0.97371 0.7453 0.0
C642 C 0.98253 0.95311 0.7209 0.0
C643 C 0.97364 0.92182 0.7257 0.0
C644 C 0.99128 0.96425 0.68906 0.0
C645 C 0.98711 0.00776 0.74136 0.0
C646 C 0.97004 0.95997 0.66411 0.0
C647 C 0.9755 0.97405 0.63504 0.0
C648 C 0.00243 0.99247 0.63015 0.0
C649 C 0.02456 0.99552 0.65447 0.0
C650 C 0.01916 0.98121 0.68368 0.0
H651 H 0.9777 0.02112 0.76005 0.0
H652 H 0.01236 0.01202 0.7422 0.0
H653 H 0.97826 0.01655 0.7185 0.0
H654 H 0.94841 0.94706 0.66758 0.0
H655 H 0.95794 0.97179 0.61672 0.0
H656 H 0.64835 0.11418 0.37798 0.0
H657 H 0.62002 0.09038 0.33347 0.0
H658 H 0.6479 0.16856 0.2749 0.0
H659 H 0.67664 0.1916 0.31913 0.0
H660 H 0.57144 0.1158 0.3045 0.0
H661 H 0.65858 0.09975 0.217 0.0
H662 H 0.66864 0.10684 0.25737 0.0
H663 H 0.66042 0.13821 0.23088 0.0
C664 C 0.64947 0.1254 0.35518 0.0
C665 C 0.66484 0.15442 0.35167 0.0
C666 C 0.633 0.1121 0.3299 0.0
C667 C 0.63186 0.1276 0.30071 0.0
C668 C 0.64886 0.15578 0.29687 0.0
H669 H 0.5267 0.09716 0.12637 0.0
H670 H 0.55187 0.12348 0.17115 0.0
C671 C 0.66534 0.16894 0.32207 0.0
C672 C 0.61052 0.1161 0.2753 0.0
H673 H 0.60654 0.09753 0.19843 0.0
C674 C 0.57918 0.1116 0.28137 0.0
C675 C 0.62049 0.11092 0.24498 0.0
C676 C 0.6539 0.11389 0.23721 0.0
C677 C 0.55761 0.10228 0.25798 0.0
C678 C 0.5676 0.09721 0.22772 0.0
C679 C 0.59885 0.1019 0.22154 0.0
C680 C 0.54665 0.08416 0.20287 0.0
C681 C 0.52425 0.09812 0.26571 0.0
C682 C 0.5343 0.05384 0.20625 0.0
C683 C 0.52013 0.03888 0.18081 0.0
C684 C 0.51783 0.054 0.15155 0.0
C685 C 0.5277 0.08519 0.14881 0.0
C686 C 0.54236 0.1001 0.17426 0.0
H687 H 0.51929 0.11047 0.28705 0.0
H688 H 0.50952 0.10642 0.24608 0.0
H689 H 0.51805 0.07331 0.26988 0.0
H690 H 0.53766 0.04096 0.22792 0.0
H691 H 0.51302 0.01471 0.1834 0.0
H692 H 0.39585 0.66577 0.20809 0.0
H693 H 0.42804 0.66187 0.25559 0.0
H694 H 0.49179 0.6118 0.20588 0.0
H695 H 0.45963 0.61636 0.15822 0.0
H696 H 0.45448 0.57922 0.2537 0.0
H697 H 0.5154 0.68562 0.29797 0.0
H698 H 0.47749 0.68931 0.28128 0.0
H699 H 0.50764 0.6795 0.25687 0.0
C700 C 0.4178 0.65586 0.20692 0.0
C701 C 0.42571 0.6418 0.17963 0.0
C702 C 0.43614 0.6535 0.23404 0.0
C703 C 0.46243 0.63673 0.23421 0.0
C704 C 0.47188 0.62528 0.2061 0.0
H705 H 0.51659 0.52026 0.39193 0.0
H706 H 0.51957 0.5481 0.34164 0.0
C707 C 0.45366 0.62797 0.1789 0.0
C708 C 0.47445 0.62417 0.26424 0.0
H709 H 0.50793 0.64371 0.33442 0.0
C710 C 0.46682 0.5931 0.27116 0.0
C711 C 0.48971 0.64263 0.2871 0.0
C712 C 0.49828 0.67612 0.28054 0.0
C713 C 0.47291 0.58013 0.30074 0.0
C714 C 0.48843 0.59845 0.3238 0.0
C715 C 0.49661 0.62952 0.31666 0.0
C716 C 0.49411 0.58597 0.35593 0.0
C717 C 0.46075 0.54746 0.30737 0.0
C718 C 0.48156 0.59949 0.38152 0.0
C719 C 0.48099 0.58414 0.41062 0.0
C720 C 0.49247 0.55493 0.41421 0.0
C721 C 0.50719 0.5426 0.3894 0.0
C722 C 0.50872 0.55841 0.3607 0.0
H723 H 0.44225 0.53999 0.29039 0.0
H724 H 0.47952 0.53176 0.30552 0.0
H725 H 0.45157 0.54479 0.33115 0.0
H726 H 0.47045 0.62091 0.37853 0.0
H727 H 0.46966 0.59404 0.42962 0.0
H728 H 0.12729 0.39346 0.76351 0.0
H729 H 0.09739 0.40882 0.80711 0.0
H730 H 0.02166 0.42558 0.74331 0.0
H731 H 0.05161 0.40959 0.69984 0.0
H732 H 0.07779 0.46503 0.81268 0.0
H733 H 0.97787 0.38039 0.81459 0.0
H734 H 0.01191 0.37437 0.79355 0.0
H735 H 0.98365 0.39883 0.77713 0.0
C736 C 0.10411 0.40007 0.75905 0.0
C737 C 0.09162 0.40051 0.72858 0.0
C738 C 0.08701 0.40871 0.78385 0.0
C739 C 0.0571 0.418 0.77858 0.0
C740 C 0.04436 0.41779 0.74811 0.0
H741 H 0.98003 0.54659 0.89528 0.0
H742 H 0.98944 0.51553 0.85053 0.0
C743 C 0.06146 0.40891 0.7233 0.0
C744 C 0.0408 0.43102 0.80443 0.0
H745 H 0.97478 0.42505 0.84522 0.0
C746 C 0.05536 0.45609 0.81987 0.0
C747 C 0.01156 0.4193 0.81393 0.0
C748 C 0.99541 0.39155 0.79916 0.0
C749 C 0.04147 0.47001 0.84421 0.0
C750 C 0.01182 0.45904 0.85302 0.0
C751 C 0.99732 0.43363 0.83807 0.0
C752 C 0.99629 0.47408 0.87801 0.0
C753 C 0.05877 0.49637 0.86046 0.0
C754 C 0.99466 0.46032 0.90793 0.0
C755 C 0.98879 0.47798 0.93357 0.0
C756 C 0.98476 0.50954 0.9294 0.0
C757 C 0.98303 0.52229 0.89903 0.0
C758 C 0.9885 0.5046 0.87349 0.0
H759 H 0.08357 0.49756 0.85556 0.0
H760 H 0.04943 0.51832 0.85219 0.0
H761 H 0.05614 0.49426 0.88608 0.0
H762 H 0.00063 0.43677 0.91184 0.0
H763 H 0.9905 0.46774 0.9568 0.0
H764 H 0.7865 0.93969 0.88144 0.0
H765 H 0.7415 0.96246 0.90143 0.0
H766 H 0.7958 0.99537 0.98079 0.0
H767 H 0.84055 0.97197 0.96089 0.0
H768 H 0.74576 0.96419 0.99875 0.0
H769 H 0.71228 0.04781 0.90677 0.0
H770 H 0.71621 0.01062 0.8912 0.0
H771 H 0.74918 0.03149 0.90815 0.0
C772 C 0.78881 0.95244 0.90274 0.0
C773 C 0.81676 0.9542 0.91972 0.0
C774 C 0.76322 0.96562 0.91408 0.0
C775 C 0.7653 0.9811 0.94242 0.0
C776 C 0.79364 0.98373 0.9588 0.0
H777 H 0.60417 0.05505 0.02695 0.0
H778 H 0.65423 0.05364 0.00258 0.0
C779 C 0.81912 0.97039 0.94754 0.0
C780 C 0.73726 0.99107 0.95681 0.0
H781 H 0.67267 0.02996 0.94223 0.0
C782 C 0.7301 0.97901 0.98654 0.0
C783 C 0.71688 0.01075 0.94117 0.0
C784 C 0.72419 0.02618 0.9102 0.0
C785 C 0.70252 0.98468 1.00028 0.0
C786 C 0.68115 0.00241 0.98365 0.0
C787 C 0.68891 0.01598 0.95472 0.0
C788 C 0.64984 0.00467 0.99509 0.0
C789 C 0.69619 0.97105 0.03231 0.0
C790 C 0.63055 0.9779 0.99795 0.0
C791 C 0.60217 0.97875 0.01149 0.0
C792 C 0.59225 0.00647 0.02209 0.0
C793 C 0.61104 0.03356 0.01826 0.0
C794 C 0.63964 0.03272 0.00462 0.0
H795 H 0.7177 0.96598 0.04536 0.0
H796 H 0.6834 0.98678 0.04615 0.0
H797 H 0.68209 0.94914 0.02993 0.0
H798 H 0.63781 0.95612 0.99037 0.0
H799 H 0.5881 0.95754 0.01414 0.0
H800 H 0.70289 0.12251 0.44616 0.0
H801 H 0.74589 0.08926 0.45127 0.0
H802 H 0.77593 0.1209 0.36056 0.0
H803 H 0.73332 0.15508 0.35609 0.0
H804 H 0.76831 0.04252 0.41839 0.0
H805 H 0.84945 0.14609 0.41617 0.0
H806 H 0.80877 0.14873 0.41912 0.0
H807 H 0.82467 0.14117 0.38228 0.0
C808 C 0.71851 0.122 0.4272 0.0
C809 C 0.71517 0.14162 0.40098 0.0
C810 C 0.743 0.10295 0.43004 0.0
C811 C 0.76466 0.10305 0.40664 0.0
C812 C 0.75998 0.12091 0.37926 0.0
H813 H 0.94901 0.03813 0.44586 0.0
H814 H 0.90351 0.04875 0.41299 0.0
C815 C 0.73546 0.14014 0.37651 0.0
C816 C 0.79314 0.08642 0.41243 0.0
H817 H 0.87015 0.09873 0.42678 0.0
C818 C 0.79064 0.05474 0.41974 0.0
C819 C 0.82241 0.10225 0.41416 0.0
C820 C 0.82666 0.13646 0.40777 0.0
C821 C 0.8163 0.03883 0.42985 0.0
C822 C 0.84522 0.05503 0.43313 0.0
C823 C 0.84804 0.08625 0.4241 0.0
C824 C 0.8716 0.04168 0.45034 0.0
C825 C 0.81209 0.00495 0.43771 0.0
C826 C 0.86872 0.03316 0.48192 0.0
C827 C 0.89454 0.02735 0.50057 0.0
C828 C 0.92386 0.02971 0.4881 0.0
C829 C 0.92662 0.03571 0.45595 0.0
C830 C 0.90067 0.042 0.43725 0.0
H831 H 0.79252 0.99403 0.42407 0.0
H832 H 0.83303 0.99296 0.43316 0.0
H833 H 0.80706 0.00176 0.46279 0.0
H834 H 0.84678 0.03331 0.49279 0.0
H835 H 0.89181 0.02306 0.52534 0.0
H836 H 0.31882 0.59928 0.18018 0.0
H837 H 0.26754 0.57402 0.17374 0.0
H838 H 0.28654 0.55442 0.07862 0.0
H839 H 0.33832 0.57857 0.08566 0.0
H840 H 0.22694 0.59668 0.13393 0.0
H841 H 0.23944 0.47591 0.10468 0.0
H842 H 0.27039 0.49959 0.12214 0.0
H843 H 0.26275 0.50154 0.08065 0.0
C844 C 0.31235 0.58847 0.15835 0.0
C845 C 0.33236 0.59056 0.13343 0.0
C846 C 0.28308 0.5742 0.15463 0.0
C847 C 0.27331 0.56192 0.12585 0.0
C848 C 0.2938 0.56294 0.10129 0.0
H849 H 0.11856 0.53837 0.00975 0.0
H850 H 0.16759 0.53543 0.03809 0.0
C851 C 0.32318 0.57702 0.10514 0.0
C852 C 0.24055 0.55272 0.11987 0.0
H853 H 0.19254 0.49805 0.08556 0.0
C854 C 0.21922 0.57476 0.12419 0.0
C855 C 0.23057 0.52415 0.1071 0.0
C856 C 0.252 0.49885 0.10369 0.0
C857 C 0.18862 0.56994 0.11405 0.0
C858 C 0.17898 0.54203 0.09966 0.0
C859 C 0.19994 0.51932 0.09678 0.0
C860 C 0.14859 0.53806 0.08373 0.0
C861 C 0.16748 0.59569 0.11679 0.0
C862 C 0.12153 0.53949 0.10011 0.0
C863 C 0.09351 0.54175 0.08389 0.0
C864 C 0.09215 0.54185 0.05115 0.0
C865 C 0.11901 0.53845 0.03499 0.0
C866 C 0.14697 0.5365 0.05115 0.0
H867 H 0.18001 0.61759 0.12348 0.0
H868 H 0.15472 0.59969 0.09441 0.0
H869 H 0.15059 0.58935 0.13493 0.0
H870 H 0.12229 0.5403 0.12531 0.0
H871 H 0.0732 0.54474 0.09687 0.0
H872 H 0.20502 0.39892 0.69621 0.0
H873 H 0.25123 0.42261 0.67249 0.0
H874 H 0.20102 0.43296 0.58502 0.0
H875 H 0.15447 0.4102 0.6093 0.0
H876 H 0.28447 0.40798 0.62386 0.0
H877 H 0.2349 0.52031 0.59928 0.0
H878 H 0.21651 0.4907 0.62365 0.0
H879 H 0.21318 0.4886 0.58188 0.0
C880 C 0.20404 0.40617 0.67189 0.0
C881 C 0.1763 0.40317 0.65459 0.0
C882 C 0.23035 0.41966 0.65835 0.0
C883 C 0.22941 0.43035 0.6272 0.0
C884 C 0.20208 0.42571 0.60935 0.0
H885 H 0.36171 0.50242 0.49834 0.0
H886 H 0.31538 0.48746 0.52659 0.0
C887 C 0.17567 0.41231 0.623 0.0
C888 C 0.25706 0.44646 0.61368 0.0
H889 H 0.28346 0.51364 0.57795 0.0
C890 C 0.28431 0.43117 0.61407 0.0
C891 C 0.2569 0.47686 0.60112 0.0
C892 C 0.22891 0.49523 0.60169 0.0
C893 C 0.31111 0.44504 0.6014 0.0
C894 C 0.31076 0.47515 0.58829 0.0
C895 C 0.28367 0.49062 0.5882 0.0
C896 C 0.33766 0.48969 0.57223 0.0
C897 C 0.33936 0.427 0.60119 0.0
C898 C 0.36524 0.49742 0.58867 0.0
C899 C 0.39183 0.50625 0.57253 0.0
C900 C 0.39112 0.50729 0.53976 0.0
C901 C 0.36295 0.50173 0.52359 0.0
C902 C 0.33645 0.49316 0.53969 0.0
H903 H 0.33445 0.40238 0.60771 0.0
H904 H 0.34946 0.42851 0.57778 0.0
H905 H 0.35673 0.43687 0.61812 0.0
H906 H 0.36652 0.49519 0.61386 0.0
H907 H 0.41324 0.5101 0.58559 0.0
H908 H 0.91617 0.89812 0.95892 0.0
H909 H 0.93676 0.85024 0.97944 0.0
H910 H 0.89763 0.80261 0.89945 0.0
H911 H 0.87734 0.8507 0.87897 0.0
H912 H 0.90215 0.79729 0.99586 0.0
H913 H 0.98405 0.77342 0.90516 0.0
H914 H 0.96857 0.8105 0.90838 0.0
H915 H 0.94618 0.77965 0.89005 0.0
C916 C 0.91277 0.87751 0.94546 0.0
C917 C 0.8955 0.87793 0.91733 0.0
C918 C 0.92425 0.85017 0.95725 0.0
C919 C 0.91879 0.82279 0.941 0.0
C920 C 0.90256 0.8235 0.91219 0.0
H921 H 0.93163 0.6339 0.01302 0.0
H922 H 0.91219 0.68441 0.99952 0.0
C923 C 0.89112 0.85092 0.90038 0.0
C924 C 0.92876 0.79332 0.95502 0.0
H925 H 0.97285 0.73346 0.94244 0.0
C926 C 0.9177 0.78335 0.98425 0.0
C927 C 0.94917 0.77524 0.93998 0.0
C928 C 0.96294 0.78532 0.9093 0.0
C929 C 0.92638 0.75571 0.99871 0.0
C930 C 0.94634 0.73739 0.98334 0.0
C931 C 0.95743 0.74744 0.95418 0.0
C932 C 0.95707 0.70815 0.99716 0.0
C933 C 0.91465 0.74666 0.03052 0.0
C934 C 0.98858 0.70487 0.0013 0.0
C935 C 0.9996 0.6762 0.00875 0.0
C936 C 0.97936 0.65011 0.01237 0.0
C937 C 0.9477 0.6537 0.01069 0.0
C938 C 0.93661 0.68255 0.00292 0.0
H939 H 0.90572 0.76645 0.04226 0.0
H940 H 0.89572 0.72866 0.02804 0.0
H941 H 0.93296 0.73706 0.04567 0.0
H942 H 0.00479 0.72427 0.9972 0.0
H943 H 0.02413 0.67411 0.00998 0.0
H944 H 0.39047 0.70208 0.16228 0.0
H945 H 0.40119 0.75432 0.14083 0.0
H946 H 0.43331 0.71681 0.05696 0.0
H947 H 0.42273 0.66451 0.07876 0.0
H948 H 0.46947 0.76995 0.08101 0.0
H949 H 0.34546 0.78798 0.06837 0.0
H950 H 0.35765 0.77516 0.10667 0.0
H951 H 0.36007 0.75038 0.07425 0.0
C952 C 0.40085 0.70516 0.1398 0.0
C953 C 0.40637 0.67962 0.12228 0.0
C954 C 0.40646 0.73485 0.12733 0.0
C955 C 0.41749 0.73932 0.09709 0.0
C956 C 0.42463 0.71379 0.08025 0.0
H957 H 0.47118 0.91988 0.01123 0.0
H958 H 0.45307 0.86529 0.01138 0.0
C959 C 0.41889 0.68409 0.09272 0.0
C960 C 0.42056 0.77062 0.08281 0.0
H961 H 0.3796 0.83263 0.06282 0.0
C962 C 0.44986 0.78358 0.0765 0.0
C963 C 0.3948 0.78807 0.07667 0.0
C964 C 0.36266 0.77465 0.08154 0.0
C965 C 0.45432 0.81434 0.06619 0.0
C966 C 0.42864 0.83232 0.06144 0.0
C967 C 0.3992 0.81879 0.06628 0.0
C968 C 0.43241 0.86609 0.05644 0.0
C969 C 0.48661 0.82787 0.0624 0.0
C970 C 0.42458 0.88499 0.08042 0.0
C971 C 0.4345 0.91598 0.08012 0.0
C972 C 0.45209 0.92866 0.0557 0.0
C973 C 0.45725 0.91061 0.03008 0.0
C974 C 0.44729 0.87941 0.03038 0.0
H975 H 0.50395 0.81215 0.07159 0.0
H976 H 0.49068 0.83253 0.03729 0.0
H977 H 0.49013 0.84997 0.07462 0.0
H978 H 0.41303 0.87523 0.10067 0.0
H979 H 0.43064 0.92944 0.10029 0.0
H980 H 0.17368 0.33466 0.65483 0.0
H981 H 0.17297 0.29048 0.62048 0.0
H982 H 0.0858 0.31514 0.58073 0.0
H983 H 0.0874 0.35972 0.61398 0.0
H984 H 0.13283 0.24425 0.62536 0.0
H985 H 0.12282 0.28751 0.50414 0.0
H986 H 0.13486 0.31244 0.53571 0.0
H987 H 0.09472 0.30403 0.52666 0.0
C988 C 0.1551 0.33119 0.63778 0.0
C989 C 0.13053 0.35033 0.63697 0.0
C990 C 0.15456 0.30591 0.61831 0.0
C991 C 0.12946 0.29948 0.59768 0.0
C992 C 0.10583 0.31985 0.59569 0.0
H993 H 0.01341 0.15613 0.53973 0.0
H994 H 0.04414 0.20415 0.54733 0.0
C995 C 0.10653 0.34516 0.61493 0.0
C996 C 0.12526 0.26934 0.58212 0.0
H997 H 0.09761 0.23635 0.51474 0.0
C998 C 0.12611 0.24247 0.60091 0.0
C999 C 0.11655 0.26682 0.55017 0.0
C1000 C 0.11753 0.2943 0.52802 0.0
C1001 C 0.11602 0.21365 0.58937 0.0
C1002 C 0.10491 0.21157 0.55815 0.0
C1003 C 0.10602 0.23802 0.53872 0.0
C1004 C 0.08762 0.18335 0.54723 0.0
C1005 C 0.11511 0.18594 0.6113 0.0
C1006 C 0.10197 0.15586 0.54339 0.0
C1007 C 0.08435 0.12823 0.53886 0.0
C1008 C 0.05222 0.12782 0.53837 0.0
C1009 C 0.03813 0.15573 0.54019 0.0
C1010 C 0.05565 0.18322 0.54441 0.0
H1011 H 0.12241 0.19192 0.63552 0.0
H1012 H 0.0916 0.17482 0.61159 0.0
H1013 H 0.13053 0.16889 0.60304 0.0
H1014 H 0.12665 0.15554 0.54542 0.0
H1015 H 0.09581 0.10704 0.53785 0.0
H1016 H 0.65067 0.20644 0.47374 0.0
H1017 H 0.62703 0.2487 0.49891 0.0
H1018 H 0.64633 0.30782 0.41882 0.0
H1019 H 0.67002 0.26571 0.39391 0.0
H1020 H 0.64886 0.31738 0.50948 0.0
H1021 H 0.54928 0.2955 0.42757 0.0
H1022 H 0.57719 0.26744 0.43595 0.0
H1023 H 0.58624 0.29978 0.41036 0.0
C1024 C 0.65052 0.22875 0.46204 0.0
C1025 C 0.66187 0.23297 0.43191 0.0
C1026 C 0.63705 0.25279 0.47633 0.0
C1027 C 0.63479 0.28127 0.4606 0.0
C1028 C 0.64777 0.28597 0.43127 0.0
H1029 H 0.56601 0.4555 0.50667 0.0
H1030 H 0.59928 0.41311 0.50144 0.0
C1031 C 0.6612 0.26201 0.41706 0.0
C1032 C 0.61596 0.30491 0.47296 0.0
H1033 H 0.54897 0.33911 0.45855 0.0
C1034 C 0.62687 0.32207 0.49862 0.0
C1035 C 0.58724 0.31072 0.45887 0.0
C1036 C 0.57405 0.2923 0.43179 0.0
C1037 C 0.61 0.3455 0.51015 0.0
C1038 C 0.58154 0.35192 0.49543 0.0
C1039 C 0.57059 0.3342 0.4701 0.0
C1040 C 0.56279 0.3773 0.50474 0.0
C1041 C 0.62303 0.36295 0.53788 0.0
C1042 C 0.5312 0.37154 0.50879 0.0
C1043 C 0.51213 0.39579 0.51108 0.0
C1044 C 0.52432 0.42632 0.51005 0.0
C1045 C 0.55613 0.43212 0.50817 0.0
C1046 C 0.57518 0.40784 0.50523 0.0
H1047 H 0.63644 0.34796 0.55375 0.0
H1048 H 0.63882 0.38215 0.52958 0.0
H1049 H 0.60499 0.37268 0.5513 0.0
H1050 H 0.52102 0.34824 0.50856 0.0
H1051 H 0.48766 0.39074 0.51241 0.0
loop_
_geom_bond_atom_site_label_1
_geom_bond_atom_site_label_2
_geom_bond_distance
_geom_bond_site_symmetry_2
_ccdc_geom_bond_type
C0 N1 1.317 . S
C0 N2 1.348 . S
C0 C3 1.485 . S
N1 C0 1.317 . S
N1 N5 1.370 . S
N2 C0 1.348 . S
N2 C4 1.346 . S
C3 C0 1.485 . S
C3 H7 0.960 . S
C3 H8 0.961 . S
C3 H9 0.960 . S
C4 N2 1.346 . S
C4 N5 1.307 . S
C4 C6 1.486 . S
N5 N1 1.370 . S
N5 C4 1.307 . S
C6 C4 1.486 . S
C6 H10 0.960 . S
C6 H11 0.960 . S
C6 H12 0.959 . S
H7 C3 0.960 . S
H8 C3 0.961 . S
H9 C3 0.960 . S
H10 C6 0.960 . S
H11 C6 0.960 . S
H12 C6 0.959 . S
C13 N14 1.317 . S
C13 N15 1.348 . S
C13 C16 1.485 . S
N14 C13 1.317 . S
N14 N18 1.370 . S
N15 C13 1.348 . S
N15 C17 1.346 . S
C16 C13 1.485 . S
C16 H20 0.960 . S
C16 H21 0.961 . S
C16 H22 0.960 . S
C17 N15 1.346 . S
C17 N18 1.307 . S
C17 C19 1.486 . S
N18 N14 1.370 . S
N18 C17 1.307 . S
C19 C17 1.486 . S
C19 H23 0.960 . S
C19 H24 0.960 . S
C19 H25 0.959 . S
H20 C16 0.960 . S
H21 C16 0.961 . S
H22 C16 0.960 . S
H23 C19 0.960 . S
H24 C19 0.960 . S
H25 C19 0.959 . S
C26 N27 1.317 . S
C26 N28 1.348 . S
C26 C29 1.485 . S
N27 C26 1.317 . S
N27 N31 1.370 . S
N28 C26 1.348 . S
N28 C30 1.346 . S
C29 C26 1.485 . S
C29 H33 0.960 . S
C29 H34 0.961 . S
C29 H35 0.960 . S
C30 N28 1.346 . S
C30 N31 1.307 . S
C30 C32 1.486 . S
N31 N27 1.370 . S
N31 C30 1.307 . S
C32 C30 1.486 . S
C32 H36 0.960 . S
C32 H37 0.960 . S
C32 H38 0.959 . S
H33 C29 0.960 . S
H34 C29 0.961 . S
H35 C29 0.960 . S
H36 C32 0.960 . S
H37 C32 0.960 . S
H38 C32 0.959 . S
C39 N40 1.317 . S
C39 N41 1.348 . S
C39 C42 1.485 . S
N40 C39 1.317 . S
N40 N44 1.370 . S
N41 C39 1.348 . S
N41 C43 1.346 . S
C42 C39 1.485 . S
C42 H46 0.960 . S
C42 H47 0.961 . S
C42 H48 0.960 . S
C43 N41 1.346 . S
C43 N44 1.307 . S
C43 C45 1.486 . S
N44 N40 1.370 . S
N44 C43 1.307 . S
C45 C43 1.486 . S
C45 H49 0.960 . S
C45 H50 0.960 . S
C45 H51 0.959 . S
H46 C42 0.960 . S
H47 C42 0.961 . S
H48 C42 0.960 . S
H49 C45 0.960 . S
H50 C45 0.960 . S
H51 C45 0.959 . S
C52 N53 1.317 . S
C52 N54 1.348 . S
C52 C55 1.485 1_556 S
N53 C52 1.317 . S
N53 N57 1.370 . S
N54 C52 1.348 . S
N54 C56 1.346 . S
C55 C52 1.485 1_554 S
C55 H59 0.964 . S
C55 H60 0.961 . S
C55 H61 0.960 . S
C56 N54 1.346 . S
C56 N57 1.307 . S
C56 C58 1.486 1_565 S
N57 N53 1.370 . S
N57 C56 1.307 . S
C58 C56 1.486 1_545 S
C58 H62 0.960 . S
C58 H63 0.960 . S
C58 H64 0.959 . S
H59 C55 0.964 . S
H60 C55 0.961 . S
H61 C55 0.960 . S
H62 C58 0.960 . S
H63 C58 0.960 . S
H64 C58 0.959 . S
C65 N66 1.317 . S
C65 N67 1.348 . S
C65 C68 1.485 . S
N66 C65 1.317 . S
N66 N70 1.370 . S
N67 C65 1.348 . S
N67 C69 1.346 . S
C68 C65 1.485 . S
C68 H72 0.960 . S
C68 H73 0.961 . S
C68 H74 0.960 . S
C69 N67 1.346 . S
C69 N70 1.307 . S
C69 C71 1.486 . S
N70 N66 1.370 . S
N70 C69 1.307 . S
C71 C69 1.486 . S
C71 H75 0.960 . S
C71 H76 0.960 . S
C71 H77 0.959 . S
H72 C68 0.960 . S
H73 C68 0.961 . S
H74 C68 0.960 . S
H75 C71 0.960 . S
H76 C71 0.960 . S
H77 C71 0.959 . S
C78 N79 1.317 . S
C78 N80 1.348 . S
C78 C81 1.485 . S
N79 C78 1.317 . S
N79 N83 1.370 . S
N80 C78 1.348 . S
N80 C82 1.346 . S
C81 C78 1.485 . S
C81 H85 0.960 . S
C81 H86 0.961 . S
C81 H87 0.960 . S
C82 N80 1.346 . S
C82 N83 1.307 . S
C82 C84 1.486 . S
N83 N79 1.370 . S
N83 C82 1.307 . S
C84 C82 1.486 . S
C84 H88 0.960 . S
C84 H89 0.960 . S
C84 H90 0.959 . S
H85 C81 0.960 . S
H86 C81 0.961 . S
H87 C81 0.960 . S
H88 C84 0.960 . S
H89 C84 0.960 . S
H90 C84 0.959 . S
C91 N92 1.317 . S
C91 N93 1.348 . S
C91 C94 1.485 . S
N92 C91 1.317 . S
N92 N96 1.370 . S
N93 C91 1.348 . S
N93 C95 1.346 . S
C94 C91 1.485 . S
C94 H98 0.960 . S
C94 H99 0.961 . S
C94 H100 0.960 . S
C95 N93 1.346 . S
C95 N96 1.307 . S
C95 C97 1.486 . S
N96 N92 1.370 . S
N96 C95 1.307 . S
C97 C95 1.486 . S
C97 H101 0.960 . S
C97 H102 0.960 . S
C97 H103 0.959 . S
H98 C94 0.960 . S
H99 C94 0.961 . S
H100 C94 0.960 . S
H101 C97 0.960 . S
H102 C97 0.960 . S
H103 C97 0.959 . S
Zn104 O110 1.920 . S
Zn104 O116 1.898 1_655 S
Zn104 O119 1.905 . S
Zn105 O113 1.905 1_565 S
Zn105 O114 1.898 . S
Zn105 O122 1.920 . S
Zn106 O109 2.080 . S
Zn106 O112 2.114 . S
Zn106 O115 2.120 1_545 S
Zn106 O117 2.120 . S
Zn106 O118 2.114 1_455 S
Zn106 O121 2.080 . S
C107 O112 1.166 . S
C107 O113 1.182 . S
C108 O114 1.167 . S
C108 O115 1.299 . S
O109 Zn106 2.080 . S
O109 C123 1.305 . S
O110 Zn104 1.920 . S
O110 C123 1.234 1_655 S
C111 O116 1.167 . S
C111 O117 1.299 . S
O112 Zn106 2.114 . S
O112 C107 1.166 . S
O113 Zn105 1.905 1_545 S
O113 C107 1.182 . S
O114 Zn105 1.898 . S
O114 C108 1.167 . S
O115 Zn106 2.120 1_565 S
O115 C108 1.299 . S
O116 Zn104 1.898 1_455 S
O116 C111 1.167 . S
O117 Zn106 2.120 . S
O117 C111 1.299 . S
O118 Zn106 2.114 1_655 S
O118 C120 1.166 . S
O119 Zn104 1.905 . S
O119 C120 1.182 . S
C120 O118 1.166 . S
C120 O119 1.182 . S
O121 Zn106 2.080 . S
O121 C124 1.305 1_545 S
O122 Zn105 1.920 . S
O122 C124 1.234 . S
C123 O109 1.305 . S
C123 O110 1.234 1_455 S
C124 O121 1.305 1_565 S
C124 O122 1.234 . S
Zn125 O131 1.920 . S
Zn125 O137 1.898 . S
Zn125 O140 1.891 1_554 S
Zn126 O134 1.905 . S
Zn126 O135 1.898 . S
Zn126 O143 1.920 . S
Zn127 O130 2.080 . S
Zn127 O133 2.114 . S
Zn127 O136 2.120 1_545 S
Zn127 O138 2.120 . S
Zn127 O139 2.114 . S
Zn127 O142 2.080 . S
C128 O133 1.168 . S
C128 O134 1.178 1_545 S
C129 O135 1.167 . S
C129 O136 1.299 . S
O130 Zn127 2.080 . S
O130 C144 1.305 . S
O131 Zn125 1.920 . S
O131 C144 1.234 . S
C132 O137 1.167 . S
C132 O138 1.299 . S
O133 Zn127 2.114 . S
O133 C128 1.168 . S
O134 Zn126 1.905 . S
O134 C128 1.178 1_565 S
O135 Zn126 1.898 . S
O135 C129 1.167 . S
O136 Zn127 2.120 1_565 S
O136 C129 1.299 . S
O137 Zn125 1.898 . S
O137 C132 1.167 . S
O138 Zn127 2.120 . S
O138 C132 1.299 . S
O139 Zn127 2.114 . S
O139 C141 1.166 . S
O140 Zn125 1.891 1_556 S
O140 C141 1.174 1_556 S
C141 O139 1.166 . S
C141 O140 1.174 1_554 S
O142 Zn127 2.080 . S
O142 C145 1.305 . S
O143 Zn126 1.920 . S
O143 C145 1.234 1_565 S
C144 O130 1.305 . S
C144 O131 1.234 . S
C145 O142 1.305 . S
C145 O143 1.234 1_545 S
Zn146 O152 1.920 . S
Zn146 O158 1.898 . S
Zn146 O161 1.905 . S
Zn147 O155 1.905 . S
Zn147 O156 1.898 . S
Zn147 O164 1.920 . S
Zn148 O151 2.080 . S
Zn148 O154 2.114 . S
Zn148 O157 2.120 . S
Zn148 O159 2.120 . S
Zn148 O160 2.114 . S
Zn148 O163 2.080 . S
C149 O154 1.166 . S
C149 O155 1.182 . S
C150 O156 1.167 . S
C150 O157 1.299 . S
O151 Zn148 2.080 . S
O151 C165 1.305 . S
O152 Zn146 1.920 . S
O152 C165 1.234 . S
C153 O158 1.167 . S
C153 O159 1.299 . S
O154 Zn148 2.114 . S
O154 C149 1.166 . S
O155 Zn147 1.905 . S
O155 C149 1.182 . S
O156 Zn147 1.898 . S
O156 C150 1.167 . S
O157 Zn148 2.120 . S
O157 C150 1.299 . S
O158 Zn146 1.898 . S
O158 C153 1.167 . S
O159 Zn148 2.120 . S
O159 C153 1.299 . S
O160 Zn148 2.114 . S
O160 C162 1.166 . S
O161 Zn146 1.905 . S
O161 C162 1.182 . S
C162 O160 1.166 . S
C162 O161 1.182 . S
O163 Zn148 2.080 . S
O163 C166 1.305 . S
O164 Zn147 1.920 . S
O164 C166 1.234 . S
C165 O151 1.305 . S
C165 O152 1.234 . S
C166 O163 1.305 . S
C166 O164 1.234 . S
Zn167 O173 1.920 . S
Zn167 O179 1.898 . S
Zn167 O182 1.905 . S
Zn168 O176 1.905 . S
Zn168 O177 1.898 . S
Zn168 O185 1.920 . S
Zn169 O172 2.080 1_454 S
Zn169 O175 2.114 . S
Zn169 O178 2.120 1_454 S
Zn169 O180 2.120 . S
Zn169 O181 2.114 1_554 S
Zn169 O184 2.080 1_455 S
C170 O175 1.166 . S
C170 O176 1.182 1_455 S
C171 O177 1.167 1_556 S
C171 O178 1.299 . S
O172 Zn169 2.080 1_656 S
O172 C186 1.305 1_655 S
O173 Zn167 1.920 . S
O173 C186 1.234 . S
C174 O179 1.167 1_554 S
C174 O180 1.299 . S
O175 Zn169 2.114 . S
O175 C170 1.166 . S
O176 Zn168 1.905 . S
O176 C170 1.182 1_655 S
O177 Zn168 1.898 . S
O177 C171 1.167 1_554 S
O178 Zn169 2.120 1_656 S
O178 C171 1.299 . S
O179 Zn167 1.898 . S
O179 C174 1.167 1_556 S
O180 Zn169 2.120 . S
O180 C174 1.299 . S
O181 Zn169 2.114 1_556 S
O181 C183 1.166 . S
O182 Zn167 1.905 . S
O182 C183 1.182 . S
C183 O181 1.166 . S
C183 O182 1.182 . S
O184 Zn169 2.080 1_655 S
O184 C187 1.305 . S
O185 Zn168 1.920 . S
O185 C187 1.234 . S
C186 O172 1.305 1_455 S
C186 O173 1.234 . S
C187 O184 1.305 . S
C187 O185 1.234 . S
H188 C196 0.929 . S
H189 C198 0.930 . S
H190 C200 0.930 . S
H191 C203 0.929 . S
H192 C206 0.930 . S
H193 C208 0.960 . S
H194 C208 0.960 . S
H195 C208 0.960 . S
C196 H188 0.929 . S
C196 C197 1.377 . S
C196 C198 1.384 . S
C197 C196 1.377 . S
C197 C203 1.390 . S
C198 H189 0.930 . S
C198 C196 1.384 . S
C198 C199 1.372 . S
C199 C198 1.372 . S
C199 C200 1.400 . S
C199 C204 1.490 . S
C200 H190 0.930 . S
C200 C199 1.400 . S
C200 C203 1.386 . S
H201 C217 0.930 . S
H202 C218 0.931 . S
C203 H191 0.929 . S
C203 C197 1.390 . S
C203 C200 1.386 . S
C204 C199 1.490 . S
C204 C206 1.395 . S
C204 C207 1.403 . S
H205 C211 0.930 . S
C206 H192 0.930 . S
C206 C204 1.395 . S
C206 C209 1.403 . S
C207 C204 1.403 . S
C207 C208 1.524 . S
C207 C211 1.400 . S
C208 H193 0.960 . S
C208 H194 0.960 . S
C208 H195 0.960 . S
C208 C207 1.524 . S
C209 C206 1.403 . S
C209 C210 1.392 . S
C209 C213 1.495 . S
C210 C209 1.392 . S
C210 C211 1.385 . S
C210 C212 1.478 . S
C211 H205 0.930 . S
C211 C207 1.400 . S
C211 C210 1.385 . S
C212 C210 1.478 . S
C212 C214 1.381 . S
C212 C218 1.383 . S
C213 C209 1.495 . S
C213 H219 0.959 . S
C213 H220 0.961 . S
C213 H221 0.960 . S
C214 C212 1.381 . S
C214 C215 1.394 . S
C214 H222 0.930 . S
C215 C214 1.394 . S
C215 C216 1.383 . S
C215 H223 0.929 . S
C216 C215 1.383 . S
C216 C217 1.377 . S
C217 H201 0.930 . S
C217 C216 1.377 . S
C217 C218 1.379 . S
C218 H202 0.931 . S
C218 C212 1.383 . S
C218 C217 1.379 . S
H219 C213 0.959 . S
H220 C213 0.961 . S
H221 C213 0.960 . S
H222 C214 0.930 . S
H223 C215 0.929 . S
H224 C232 0.929 . S
H225 C234 0.930 . S
H226 C236 0.930 . S
H227 C239 0.929 . S
H228 C242 0.930 . S
H229 C244 0.960 . S
H230 C244 0.960 . S
H231 C244 0.960 . S
C232 H224 0.929 . S
C232 C233 1.377 . S
C232 C234 1.384 . S
C233 C232 1.377 . S
C233 C239 1.390 . S
C234 H225 0.930 . S
C234 C232 1.384 . S
C234 C235 1.372 . S
C235 C234 1.372 . S
C235 C236 1.400 . S
C235 C240 1.490 . S
C236 H226 0.930 . S
C236 C235 1.400 . S
C236 C239 1.386 . S
H237 C253 0.930 1_545 S
H238 C254 0.931 . S
C239 H227 0.929 . S
C239 C233 1.390 . S
C239 C236 1.386 . S
C240 C235 1.490 . S
C240 C242 1.395 . S
C240 C243 1.403 . S
H241 C247 0.930 . S
C242 H228 0.930 . S
C242 C240 1.395 . S
C242 C245 1.403 . S
C243 C240 1.403 . S
C243 C244 1.524 . S
C243 C247 1.400 . S
C244 H229 0.960 . S
C244 H230 0.960 . S
C244 H231 0.960 . S
C244 C243 1.524 . S
C245 C242 1.403 . S
C245 C246 1.392 . S
C245 C249 1.495 . S
C246 C245 1.392 . S
C246 C247 1.385 . S
C246 C248 1.478 . S
C247 H241 0.930 . S
C247 C243 1.400 . S
C247 C246 1.385 . S
C248 C246 1.478 . S
C248 C250 1.381 . S
C248 C254 1.383 . S
C249 C245 1.495 . S
C249 H255 0.959 . S
C249 H256 0.961 . S
C249 H257 0.960 . S
C250 C248 1.381 . S
C250 C251 1.394 . S
C250 H258 0.930 . S
C251 C250 1.394 . S
C251 C252 1.383 . S
C251 H259 0.928 . S
C252 C251 1.383 . S
C252 C253 1.377 . S
C253 H237 0.930 1_565 S
C253 C252 1.377 . S
C253 C254 1.379 . S
C254 H238 0.931 . S
C254 C248 1.383 . S
C254 C253 1.379 . S
H255 C249 0.959 . S
H256 C249 0.961 . S
H257 C249 0.960 . S
H258 C250 0.930 . S
H259 C251 0.928 . S
H260 C268 0.929 . S
H261 C270 0.930 . S
H262 C272 0.930 . S
H263 C275 0.929 . S
H264 C278 0.930 . S
H265 C280 0.960 . S
H266 C280 0.960 . S
H267 C280 0.960 . S
C268 H260 0.929 . S
C268 C269 1.377 . S
C268 C270 1.384 . S
C269 C268 1.377 . S
C269 C275 1.390 . S
C270 H261 0.930 . S
C270 C268 1.384 . S
C270 C271 1.372 . S
C271 C270 1.372 . S
C271 C272 1.400 . S
C271 C276 1.490 . S
C272 H262 0.930 . S
C272 C271 1.400 . S
C272 C275 1.386 . S
H273 C289 0.930 . S
H274 C290 0.931 . S
C275 H263 0.929 . S
C275 C269 1.390 . S
C275 C272 1.386 . S
C276 C271 1.490 . S
C276 C278 1.395 . S
C276 C279 1.403 . S
H277 C283 0.930 . S
C278 H264 0.930 . S
C278 C276 1.395 . S
C278 C281 1.403 . S
C279 C276 1.403 . S
C279 C280 1.524 . S
C279 C283 1.400 . S
C280 H265 0.960 . S
C280 H266 0.960 . S
C280 H267 0.960 . S
C280 C279 1.524 . S
C281 C278 1.403 . S
C281 C282 1.392 . S
C281 C285 1.495 . S
C282 C281 1.392 . S
C282 C283 1.385 . S
C282 C284 1.478 . S
C283 H277 0.930 . S
C283 C279 1.400 . S
C283 C282 1.385 . S
C284 C282 1.478 . S
C284 C286 1.381 . S
C284 C290 1.383 . S
C285 C281 1.495 . S
C285 H291 0.959 . S
C285 H292 0.961 . S
C285 H293 0.960 . S
C286 C284 1.381 . S
C286 C287 1.394 . S
C286 H294 0.930 . S
C287 C286 1.394 . S
C287 C288 1.383 . S
C287 H295 0.929 . S
C288 C287 1.383 . S
C288 C289 1.377 . S
C289 H273 0.930 . S
C289 C288 1.377 . S
C289 C290 1.379 . S
C290 H274 0.931 . S
C290 C284 1.383 . S
C290 C289 1.379 . S
H291 C285 0.959 . S
H292 C285 0.961 . S
H293 C285 0.960 . S
H294 C286 0.930 . S
H295 C287 0.929 . S
H296 C304 0.929 . S
H297 C306 0.930 . S
H298 C308 0.930 . S
H299 C311 0.929 . S
H300 C314 0.930 . S
H301 C316 0.960 . S
H302 C316 0.960 . S
H303 C316 0.960 . S
C304 H296 0.929 . S
C304 C305 1.377 . S
C304 C306 1.384 . S
C305 C304 1.377 . S
C305 C311 1.390 . S
C306 H297 0.930 . S
C306 C304 1.384 . S
C306 C307 1.372 . S
C307 C306 1.372 . S
C307 C308 1.400 . S
C307 C312 1.490 . S
C308 H298 0.930 . S
C308 C307 1.400 . S
C308 C311 1.386 . S
H309 C325 0.930 . S
H310 C326 0.931 . S
C311 H299 0.929 . S
C311 C305 1.390 . S
C311 C308 1.386 . S
C312 C307 1.490 . S
C312 C314 1.395 . S
C312 C315 1.403 . S
H313 C319 0.930 . S
C314 H300 0.930 . S
C314 C312 1.395 . S
C314 C317 1.403 . S
C315 C312 1.403 . S
C315 C316 1.524 . S
C315 C319 1.400 . S
C316 H301 0.960 . S
C316 H302 0.960 . S
C316 H303 0.960 . S
C316 C315 1.524 . S
C317 C314 1.403 . S
C317 C318 1.392 . S
C317 C321 1.495 . S
C318 C317 1.392 . S
C318 C319 1.385 . S
C318 C320 1.478 . S
C319 H313 0.930 . S
C319 C315 1.400 . S
C319 C318 1.385 . S
C320 C318 1.478 . S
C320 C322 1.381 . S
C320 C326 1.383 . S
C321 C317 1.495 . S
C321 H327 0.959 . S
C321 H328 0.961 . S
C321 H329 0.960 . S
C322 C320 1.381 . S
C322 C323 1.394 . S
C322 H330 0.930 . S
C323 C322 1.394 . S
C323 C324 1.383 . S
C323 H331 0.929 . S
C324 C323 1.383 . S
C324 C325 1.377 . S
C325 H309 0.930 . S
C325 C324 1.377 . S
C325 C326 1.379 . S
C326 H310 0.931 . S
C326 C320 1.383 . S
C326 C325 1.379 . S
H327 C321 0.959 . S
H328 C321 0.961 . S
H329 C321 0.960 . S
H330 C322 0.930 . S
H331 C323 0.929 . S
H332 C340 0.929 . S
H333 C342 0.930 . S
H334 C344 0.930 . S
H335 C347 0.929 . S
H336 C350 0.930 . S
H337 C352 0.960 . S
H338 C352 0.960 . S
H339 C352 0.960 . S
C340 H332 0.929 . S
C340 C341 1.377 . S
C340 C342 1.384 . S
C341 C340 1.377 . S
C341 C347 1.390 . S
C342 H333 0.930 . S
C342 C340 1.384 . S
C342 C343 1.372 . S
C343 C342 1.372 . S
C343 C344 1.400 . S
C343 C348 1.490 . S
C344 H334 0.930 . S
C344 C343 1.400 . S
C344 C347 1.386 . S
H345 C361 0.930 . S
H346 C362 0.931 . S
C347 H335 0.929 . S
C347 C341 1.390 . S
C347 C344 1.386 . S
C348 C343 1.490 . S
C348 C350 1.395 . S
C348 C351 1.403 . S
H349 C355 0.930 . S
C350 H336 0.930 . S
C350 C348 1.395 . S
C350 C353 1.403 . S
C351 C348 1.403 . S
C351 C352 1.524 . S
C351 C355 1.400 . S
C352 H337 0.960 . S
C352 H338 0.960 . S
C352 H339 0.960 . S
C352 C351 1.524 . S
C353 C350 1.403 . S
C353 C354 1.392 . S
C353 C357 1.495 . S
C354 C353 1.392 . S
C354 C355 1.385 . S
C354 C356 1.478 . S
C355 H349 0.930 . S
C355 C351 1.400 . S
C355 C354 1.385 . S
C356 C354 1.478 . S
C356 C358 1.381 . S
C356 C362 1.383 . S
C357 C353 1.495 . S
C357 H363 0.959 . S
C357 H364 0.961 . S
C357 H365 0.960 . S
C358 C356 1.381 . S
C358 C359 1.394 . S
C358 H366 0.930 . S
C359 C358 1.394 . S
C359 C360 1.383 . S
C359 H367 0.929 . S
C360 C359 1.383 . S
C360 C361 1.377 . S
C361 H345 0.930 . S
C361 C360 1.377 . S
C361 C362 1.379 . S
C362 H346 0.931 . S
C362 C356 1.383 . S
C362 C361 1.379 . S
H363 C357 0.959 . S
H364 C357 0.961 . S
H365 C357 0.960 . S
H366 C358 0.930 . S
H367 C359 0.929 . S
H368 C376 0.929 . S
H369 C378 0.930 . S
H370 C380 0.930 . S
H371 C383 0.929 . S
H372 C386 0.930 . S
H373 C388 0.960 . S
H374 C388 0.960 . S
H375 C388 0.960 . S
C376 H368 0.929 . S
C376 C377 1.377 . S
C376 C378 1.384 . S
C377 C376 1.377 . S
C377 C383 1.390 . S
C378 H369 0.930 . S
C378 C376 1.384 . S
C378 C379 1.372 . S
C379 C378 1.372 . S
C379 C380 1.400 . S
C379 C384 1.490 . S
C380 H370 0.930 . S
C380 C379 1.400 . S
C380 C383 1.386 . S
H381 C397 0.930 . S
H382 C398 0.931 . S
C383 H371 0.929 . S
C383 C377 1.390 . S
C383 C380 1.386 . S
C384 C379 1.490 . S
C384 C386 1.395 . S
C384 C387 1.403 . S
H385 C391 0.930 . S
C386 H372 0.930 . S
C386 C384 1.395 . S
C386 C389 1.403 . S
C387 C384 1.403 . S
C387 C388 1.524 . S
C387 C391 1.400 . S
C388 H373 0.960 . S
C388 H374 0.960 . S
C388 H375 0.960 . S
C388 C387 1.524 . S
C389 C386 1.403 . S
C389 C390 1.392 . S
C389 C393 1.495 . S
C390 C389 1.392 . S
C390 C391 1.385 . S
C390 C392 1.478 . S
C391 H385 0.930 . S
C391 C387 1.400 . S
C391 C390 1.385 . S
C392 C390 1.478 . S
C392 C394 1.381 . S
C392 C398 1.383 . S
C393 C389 1.495 . S
C393 H399 0.959 . S
C393 H400 0.961 . S
C393 H401 0.960 . S
C394 C392 1.381 . S
C394 C395 1.394 . S
C394 H402 0.930 . S
C395 C394 1.394 . S
C395 C396 1.383 . S
C395 H403 0.929 . S
C396 C395 1.383 . S
C396 C397 1.377 . S
C397 H381 0.930 . S
C397 C396 1.377 . S
C397 C398 1.379 . S
C398 H382 0.931 . S
C398 C392 1.383 . S
C398 C397 1.379 . S
H399 C393 0.959 . S
H400 C393 0.961 . S
H401 C393 0.960 . S
H402 C394 0.930 . S
H403 C395 0.929 . S
H404 C412 0.929 . S
H405 C414 0.930 . S
H406 C416 0.930 . S
H407 C419 0.929 . S
H408 C422 0.930 . S
H409 C424 0.960 . S
H410 C424 0.960 . S
H411 C424 0.960 . S
C412 H404 0.929 . S
C412 C413 1.377 . S
C412 C414 1.384 . S
C413 C412 1.377 . S
C413 C419 1.390 . S
C414 H405 0.930 . S
C414 C412 1.384 . S
C414 C415 1.372 . S
C415 C414 1.372 . S
C415 C416 1.400 . S
C415 C420 1.490 . S
C416 H406 0.930 . S
C416 C415 1.400 . S
C416 C419 1.386 . S
H417 C433 0.930 1_554 S
H418 C434 0.931 . S
C419 H407 0.929 . S
C419 C413 1.390 . S
C419 C416 1.386 . S
C420 C415 1.490 . S
C420 C422 1.395 . S
C420 C423 1.403 . S
H421 C427 0.930 . S
C422 H408 0.930 . S
C422 C420 1.395 . S
C422 C425 1.403 . S
C423 C420 1.403 . S
C423 C424 1.524 . S
C423 C427 1.400 . S
C424 H409 0.960 . S
C424 H410 0.960 . S
C424 H411 0.960 . S
C424 C423 1.524 . S
C425 C422 1.403 . S
C425 C426 1.392 . S
C425 C429 1.495 . S
C426 C425 1.392 . S
C426 C427 1.385 . S
C426 C428 1.478 . S
C427 H421 0.930 . S
C427 C423 1.400 . S
C427 C426 1.385 . S
C428 C426 1.478 . S
C428 C430 1.381 . S
C428 C434 1.383 . S
C429 C425 1.495 . S
C429 H435 0.959 . S
C429 H436 0.961 . S
C429 H437 0.960 . S
C430 C428 1.381 . S
C430 C431 1.394 . S
C430 H438 0.930 . S
C431 C430 1.394 . S
C431 C432 1.383 . S
C431 H439 0.929 . S
C432 C431 1.383 . S
C432 C433 1.377 . S
C433 H417 0.930 1_556 S
C433 C432 1.377 . S
C433 C434 1.379 . S
C434 H418 0.931 . S
C434 C428 1.383 . S
C434 C433 1.379 . S
H435 C429 0.959 . S
H436 C429 0.961 . S
H437 C429 0.960 . S
H438 C430 0.930 . S
H439 C431 0.929 . S
H440 C448 0.929 . S
H441 C450 0.930 . S
H442 C452 0.930 . S
H443 C455 0.929 . S
H444 C458 0.930 . S
H445 C460 0.960 . S
H446 C460 0.960 . S
H447 C460 0.960 . S
C448 H440 0.929 . S
C448 C449 1.377 . S
C448 C450 1.384 . S
C449 C448 1.377 . S
C449 C455 1.390 . S
C450 H441 0.930 . S
C450 C448 1.384 . S
C450 C451 1.372 . S
C451 C450 1.372 . S
C451 C452 1.400 . S
C451 C456 1.490 . S
C452 H442 0.930 . S
C452 C451 1.400 . S
C452 C455 1.386 . S
H453 C469 0.930 . S
H454 C470 0.931 . S
C455 H443 0.929 . S
C455 C449 1.390 . S
C455 C452 1.386 . S
C456 C451 1.490 . S
C456 C458 1.395 . S
C456 C459 1.403 . S
H457 C463 0.930 . S
C458 H444 0.930 . S
C458 C456 1.395 . S
C458 C461 1.403 . S
C459 C456 1.403 . S
C459 C460 1.524 . S
C459 C463 1.400 . S
C460 H445 0.960 . S
C460 H446 0.960 . S
C460 H447 0.960 . S
C460 C459 1.524 . S
C461 C458 1.403 . S
C461 C462 1.392 . S
C461 C465 1.495 . S
C462 C461 1.392 . S
C462 C463 1.385 . S
C462 C464 1.478 . S
C463 H457 0.930 . S
C463 C459 1.400 . S
C463 C462 1.385 . S
C464 C462 1.478 . S
C464 C466 1.381 . S
C464 C470 1.383 . S
C465 C461 1.495 . S
C465 H471 0.959 . S
C465 H472 0.961 . S
C465 H473 0.960 . S
C466 C464 1.381 . S
C466 C467 1.394 . S
C466 H474 0.930 . S
C467 C466 1.394 . S
C467 C468 1.383 . S
C467 H475 0.929 . S
C468 C467 1.383 . S
C468 C469 1.377 . S
C469 H453 0.930 . S
C469 C468 1.377 . S
C469 C470 1.379 . S
C470 H454 0.931 . S
C470 C464 1.383 . S
C470 C469 1.379 . S
H471 C465 0.959 . S
H472 C465 0.961 . S
H473 C465 0.960 . S
H474 C466 0.930 . S
H475 C467 0.929 . S
H476 C484 0.929 . S
H477 C486 0.930 . S
H478 C488 0.930 . S
H479 C491 0.929 . S
H480 C494 0.930 . S
H481 C496 0.960 . S
H482 C496 0.960 . S
H483 C496 0.960 . S
C484 H476 0.929 . S
C484 C485 1.377 . S
C484 C486 1.384 . S
C485 C484 1.377 . S
C485 C491 1.390 . S
C486 H477 0.930 . S
C486 C484 1.384 . S
C486 C487 1.372 . S
C487 C486 1.372 . S
C487 C488 1.400 . S
C487 C492 1.490 . S
C488 H478 0.930 . S
C488 C487 1.400 . S
C488 C491 1.386 . S
H489 C505 0.930 . S
H490 C506 0.931 . S
C491 H479 0.929 . S
C491 C485 1.390 . S
C491 C488 1.386 . S
C492 C487 1.490 . S
C492 C494 1.395 . S
C492 C495 1.403 . S
H493 C499 0.930 . S
C494 H480 0.930 . S
C494 C492 1.395 . S
C494 C497 1.403 . S
C495 C492 1.403 . S
C495 C496 1.524 . S
C495 C499 1.400 . S
C496 H481 0.960 . S
C496 H482 0.960 . S
C496 H483 0.960 . S
C496 C495 1.524 . S
C497 C494 1.403 . S
C497 C498 1.392 . S
C497 C501 1.495 . S
C498 C497 1.392 . S
C498 C499 1.385 . S
C498 C500 1.478 . S
C499 H493 0.930 . S
C499 C495 1.400 . S
C499 C498 1.385 . S
C500 C498 1.478 . S
C500 C502 1.381 . S
C500 C506 1.383 . S
C501 C497 1.495 . S
C501 H507 0.959 . S
C501 H508 0.961 . S
C501 H509 0.960 . S
C502 C500 1.381 . S
C502 C503 1.394 . S
C502 H510 0.930 . S
C503 C502 1.394 . S
C503 C504 1.383 . S
C503 H511 0.929 . S
C504 C503 1.383 . S
C504 C505 1.377 . S
C505 H489 0.930 . S
C505 C504 1.377 . S
C505 C506 1.379 . S
C506 H490 0.931 . S
C506 C500 1.383 . S
C506 C505 1.379 . S
H507 C501 0.959 . S
H508 C501 0.961 . S
H509 C501 0.960 . S
H510 C502 0.930 . S
H511 C503 0.929 . S
H512 C520 0.929 . S
H513 C522 0.930 . S
H514 C524 0.930 . S
H515 C527 0.929 . S
H516 C530 0.930 . S
H517 C532 0.960 . S
H518 C532 0.960 . S
H519 C532 0.960 . S
C520 H512 0.929 . S
C520 C521 1.377 . S
C520 C522 1.384 . S
C521 C520 1.377 . S
C521 C527 1.390 . S
C522 H513 0.930 . S
C522 C520 1.384 . S
C522 C523 1.372 . S
C523 C522 1.372 . S
C523 C524 1.400 . S
C523 C528 1.490 . S
C524 H514 0.930 . S
C524 C523 1.400 . S
C524 C527 1.386 . S
H525 C541 0.930 . S
H526 C542 0.931 . S
C527 H515 0.929 . S
C527 C521 1.390 . S
C527 C524 1.386 . S
C528 C523 1.490 . S
C528 C530 1.395 . S
C528 C531 1.403 . S
H529 C535 0.930 . S
C530 H516 0.930 . S
C530 C528 1.395 . S
C530 C533 1.403 . S
C531 C528 1.403 . S
C531 C532 1.524 . S
C531 C535 1.400 . S
C532 H517 0.960 . S
C532 H518 0.960 . S
C532 H519 0.960 . S
C532 C531 1.524 . S
C533 C530 1.403 . S
C533 C534 1.392 . S
C533 C537 1.495 . S
C534 C533 1.392 . S
C534 C535 1.385 . S
C534 C536 1.478 . S
C535 H529 0.930 . S
C535 C531 1.400 . S
C535 C534 1.385 . S
C536 C534 1.478 . S
C536 C538 1.381 . S
C536 C542 1.383 1_556 S
C537 C533 1.495 . S
C537 H543 0.959 . S
C537 H544 0.961 . S
C537 H545 0.960 . S
C538 C536 1.381 . S
C538 C539 1.394 . S
C538 H546 0.930 . S
C539 C538 1.394 . S
C539 C540 1.383 1_556 S
C539 H547 0.929 . S
C540 C539 1.383 1_554 S
C540 C541 1.377 . S
C541 H525 0.930 . S
C541 C540 1.377 . S
C541 C542 1.379 . S
C542 H526 0.931 . S
C542 C536 1.383 1_554 S
C542 C541 1.379 . S
H543 C537 0.959 . S
H544 C537 0.961 . S
H545 C537 0.960 . S
H546 C538 0.930 . S
H547 C539 0.929 . S
H548 C556 0.929 . S
H549 C558 0.930 . S
H550 C560 0.930 . S
H551 C563 0.929 . S
H552 C566 0.930 . S
H553 C568 0.960 . S
H554 C568 0.960 . S
H555 C568 0.960 . S
C556 H548 0.929 . S
C556 C557 1.377 . S
C556 C558 1.384 . S
C557 C556 1.377 . S
C557 C563 1.390 . S
C558 H549 0.930 . S
C558 C556 1.384 . S
C558 C559 1.372 . S
C559 C558 1.372 . S
C559 C560 1.400 . S
C559 C564 1.490 . S
C560 H550 0.930 . S
C560 C559 1.400 . S
C560 C563 1.386 . S
H561 C577 0.930 1_455 S
H562 C578 0.931 . S
C563 H551 0.929 . S
C563 C557 1.390 . S
C563 C560 1.386 . S
C564 C559 1.490 . S
C564 C566 1.395 . S
C564 C567 1.403 . S
H565 C571 0.930 . S
C566 H552 0.930 . S
C566 C564 1.395 . S
C566 C569 1.403 . S
C567 C564 1.403 . S
C567 C568 1.524 . S
C567 C571 1.400 . S
C568 H553 0.960 . S
C568 H554 0.960 . S
C568 H555 0.960 . S
C568 C567 1.524 . S
C569 C566 1.403 . S
C569 C570 1.392 . S
C569 C573 1.495 . S
C570 C569 1.392 . S
C570 C571 1.385 . S
C570 C572 1.478 . S
C571 H565 0.930 . S
C571 C567 1.400 . S
C571 C570 1.385 . S
C572 C570 1.478 . S
C572 C574 1.381 . S
C572 C578 1.383 . S
C573 C569 1.495 . S
C573 H579 0.959 . S
C573 H580 0.961 . S
C573 H581 0.960 . S
C574 C572 1.381 . S
C574 C575 1.394 . S
C574 H582 0.930 . S
C575 C574 1.394 . S
C575 C576 1.383 . S
C575 H583 0.929 . S
C576 C575 1.383 . S
C576 C577 1.377 . S
C577 H561 0.930 1_655 S
C577 C576 1.377 . S
C577 C578 1.379 . S
C578 H562 0.931 . S
C578 C572 1.383 . S
C578 C577 1.379 . S
H579 C573 0.959 . S
H580 C573 0.961 . S
H581 C573 0.960 . S
H582 C574 0.930 . S
H583 C575 0.929 . S
H584 C592 0.929 . S
H585 C594 0.930 . S
H586 C596 0.930 . S
H587 C599 0.929 . S
H588 C602 0.930 . S
H589 C604 0.960 . S
H590 C604 0.960 . S
H591 C604 0.960 . S
C592 H584 0.929 . S
C592 C593 1.377 . S
C592 C594 1.384 . S
C593 C592 1.377 . S
C593 C599 1.390 . S
C594 H585 0.930 . S
C594 C592 1.384 . S
C594 C595 1.372 . S
C595 C594 1.372 . S
C595 C596 1.400 . S
C595 C600 1.490 . S
C596 H586 0.930 . S
C596 C595 1.400 . S
C596 C599 1.386 . S
H597 C613 0.930 . S
H598 C614 0.931 . S
C599 H587 0.929 . S
C599 C593 1.390 . S
C599 C596 1.386 . S
C600 C595 1.490 . S
C600 C602 1.395 . S
C600 C603 1.403 . S
H601 C607 0.930 . S
C602 H588 0.930 . S
C602 C600 1.395 . S
C602 C605 1.403 . S
C603 C600 1.403 . S
C603 C604 1.524 . S
C603 C607 1.400 . S
C604 H589 0.960 . S
C604 H590 0.960 . S
C604 H591 0.960 . S
C604 C603 1.524 . S
C605 C602 1.403 . S
C605 C606 1.392 . S
C605 C609 1.495 . S
C606 C605 1.392 . S
C606 C607 1.385 . S
C606 C608 1.478 . S
C607 H601 0.930 . S
C607 C603 1.400 . S
C607 C606 1.385 . S
C608 C606 1.478 . S
C608 C610 1.381 . S
C608 C614 1.383 . S
C609 C605 1.495 . S
C609 H615 0.959 . S
C609 H616 0.961 . S
C609 H617 0.960 . S
C610 C608 1.381 . S
C610 C611 1.394 . S
C610 H618 0.930 . S
C611 C610 1.394 . S
C611 C612 1.383 . S
C611 H619 0.929 . S
C612 C611 1.383 . S
C612 C613 1.377 . S
C613 H597 0.930 . S
C613 C612 1.377 . S
C613 C614 1.379 . S
C614 H598 0.931 . S
C614 C608 1.383 . S
C614 C613 1.379 . S
H615 C609 0.959 . S
H616 C609 0.961 . S
H617 C609 0.960 . S
H618 C610 0.930 . S
H619 C611 0.929 . S
H620 C628 0.929 1_545 S
H621 C630 0.930 1_545 S
H622 C632 0.930 . S
H623 C635 0.929 . S
H624 C638 0.930 . S
H625 C640 0.960 . S
H626 C640 0.960 . S
H627 C640 0.960 . S
C628 H620 0.929 1_565 S
C628 C629 1.377 . S
C628 C630 1.384 . S
C629 C628 1.377 . S
C629 C635 1.390 . S
C630 H621 0.930 1_565 S
C630 C628 1.384 . S
C630 C631 1.372 . S
C631 C630 1.372 . S
C631 C632 1.400 . S
C631 C636 1.490 . S
C632 H622 0.930 . S
C632 C631 1.400 . S
C632 C635 1.386 . S
H633 C649 0.930 . S
H634 C650 0.931 . S
C635 H623 0.929 . S
C635 C629 1.390 . S
C635 C632 1.386 . S
C636 C631 1.490 . S
C636 C638 1.395 1_565 S
C636 C639 1.403 . S
H637 C643 0.930 . S
C638 H624 0.930 . S
C638 C636 1.395 1_545 S
C638 C641 1.403 . S
C639 C636 1.403 . S
C639 C640 1.524 . S
C639 C643 1.400 . S
C640 H625 0.960 . S
C640 H626 0.960 . S
C640 H627 0.960 . S
C640 C639 1.524 . S
C641 C638 1.403 . S
C641 C642 1.392 1_545 S
C641 C645 1.495 1_655 S
C642 C641 1.392 1_565 S
C642 C643 1.385 . S
C642 C644 1.478 1_565 S
C643 H637 0.930 . S
C643 C639 1.400 . S
C643 C642 1.385 . S
C644 C642 1.478 1_545 S
C644 C646 1.381 . S
C644 C650 1.383 1_645 S
C645 C641 1.495 1_455 S
C645 H651 0.959 . S
C645 H652 0.961 . S
C645 H653 0.960 1_455 S
C646 C644 1.381 . S
C646 C647 1.394 . S
C646 H654 0.930 . S
C647 C646 1.394 . S
C647 C648 1.383 1_655 S
C647 H655 0.929 . S
C648 C647 1.383 1_455 S
C648 C649 1.377 1_545 S
C649 H633 0.930 . S
C649 C648 1.377 1_565 S
C649 C650 1.379 . S
C650 H634 0.931 . S
C650 C644 1.383 1_465 S
C650 C649 1.379 . S
H651 C645 0.959 . S
H652 C645 0.961 . S
H653 C645 0.960 1_655 S
H654 C646 0.930 . S
H655 C647 0.929 . S
H656 C664 0.929 . S
H657 C666 0.930 . S
H658 C668 0.930 . S
H659 C671 0.929 . S
H660 C674 0.930 . S
H661 C676 0.960 . S
H662 C676 0.960 . S
H663 C676 0.960 . S
C664 H656 0.929 . S
C664 C665 1.377 . S
C664 C666 1.384 . S
C665 C664 1.377 . S
C665 C671 1.390 . S
C666 H657 0.930 . S
C666 C664 1.384 . S
C666 C667 1.372 . S
C667 C666 1.372 . S
C667 C668 1.400 . S
C667 C672 1.490 . S
C668 H658 0.930 . S
C668 C667 1.400 . S
C668 C671 1.386 . S
H669 C685 0.930 . S
H670 C686 0.931 . S
C671 H659 0.929 . S
C671 C665 1.390 . S
C671 C668 1.386 . S
C672 C667 1.490 . S
C672 C674 1.395 . S
C672 C675 1.403 . S
H673 C679 0.930 . S
C674 H660 0.930 . S
C674 C672 1.395 . S
C674 C677 1.403 . S
C675 C672 1.403 . S
C675 C676 1.524 . S
C675 C679 1.400 . S
C676 H661 0.960 . S
C676 H662 0.960 . S
C676 H663 0.960 . S
C676 C675 1.524 . S
C677 C674 1.403 . S
C677 C678 1.392 . S
C677 C681 1.495 . S
C678 C677 1.392 . S
C678 C679 1.385 . S
C678 C680 1.478 . S
C679 H673 0.930 . S
C679 C675 1.400 . S
C679 C678 1.385 . S
C680 C678 1.478 . S
C680 C682 1.381 . S
C680 C686 1.383 . S
C681 C677 1.495 . S
C681 H687 0.959 . S
C681 H688 0.961 . S
C681 H689 0.960 . S
C682 C680 1.381 . S
C682 C683 1.394 . S
C682 H690 0.930 . S
C683 C682 1.394 . S
C683 C684 1.383 . S
C683 H691 0.929 . S
C684 C683 1.383 . S
C684 C685 1.377 . S
C685 H669 0.930 . S
C685 C684 1.377 . S
C685 C686 1.379 . S
C686 H670 0.931 . S
C686 C680 1.383 . S
C686 C685 1.379 . S
H687 C681 0.959 . S
H688 C681 0.961 . S
H689 C681 0.960 . S
H690 C682 0.930 . S
H691 C683 0.929 . S
H692 C700 0.929 . S
H693 C702 0.930 . S
H694 C704 0.930 . S
H695 C707 0.929 . S
H696 C710 0.930 . S
H697 C712 0.960 . S
H698 C712 0.960 . S
H699 C712 0.960 . S
C700 H692 0.929 . S
C700 C701 1.377 . S
C700 C702 1.384 . S
C701 C700 1.377 . S
C701 C707 1.390 . S
C702 H693 0.930 . S
C702 C700 1.384 . S
C702 C703 1.372 . S
C703 C702 1.372 . S
C703 C704 1.400 . S
C703 C708 1.490 . S
C704 H694 0.930 . S
C704 C703 1.400 . S
C704 C707 1.386 . S
H705 C721 0.930 . S
H706 C722 0.931 . S
C707 H695 0.929 . S
C707 C701 1.390 . S
C707 C704 1.386 . S
C708 C703 1.490 . S
C708 C710 1.395 . S
C708 C711 1.403 . S
H709 C715 0.930 . S
C710 H696 0.930 . S
C710 C708 1.395 . S
C710 C713 1.403 . S
C711 C708 1.403 . S
C711 C712 1.524 . S
C711 C715 1.400 . S
C712 H697 0.960 . S
C712 H698 0.960 . S
C712 H699 0.960 . S
C712 C711 1.524 . S
C713 C710 1.403 . S
C713 C714 1.392 . S
C713 C717 1.495 . S
C714 C713 1.392 . S
C714 C715 1.385 . S
C714 C716 1.478 . S
C715 H709 0.930 . S
C715 C711 1.400 . S
C715 C714 1.385 . S
C716 C714 1.478 . S
C716 C718 1.381 . S
C716 C722 1.383 . S
C717 C713 1.495 . S
C717 H723 0.959 . S
C717 H724 0.961 . S
C717 H725 0.960 . S
C718 C716 1.381 . S
C718 C719 1.394 . S
C718 H726 0.930 . S
C719 C718 1.394 . S
C719 C720 1.383 . S
C719 H727 0.929 . S
C720 C719 1.383 . S
C720 C721 1.377 . S
C721 H705 0.930 . S
C721 C720 1.377 . S
C721 C722 1.379 . S
C722 H706 0.931 . S
C722 C716 1.383 . S
C722 C721 1.379 . S
H723 C717 0.959 . S
H724 C717 0.961 . S
H725 C717 0.960 . S
H726 C718 0.930 . S
H727 C719 0.929 . S
H728 C736 0.929 . S
H729 C738 0.930 . S
H730 C740 0.930 . S
H731 C743 0.929 . S
H732 C746 0.930 . S
H733 C748 0.960 . S
H734 C748 0.960 . S
H735 C748 0.960 . S
C736 H728 0.929 . S
C736 C737 1.377 . S
C736 C738 1.384 . S
C737 C736 1.377 . S
C737 C743 1.390 . S
C738 H729 0.930 . S
C738 C736 1.384 . S
C738 C739 1.372 . S
C739 C738 1.372 . S
C739 C740 1.400 . S
C739 C744 1.490 . S
C740 H730 0.930 . S
C740 C739 1.400 . S
C740 C743 1.386 . S
H741 C757 0.911 1_655 S
H742 C758 0.931 1_655 S
C743 H731 0.929 . S
C743 C737 1.390 . S
C743 C740 1.386 . S
C744 C739 1.490 . S
C744 C746 1.395 . S
C744 C747 1.403 . S
H745 C751 0.930 . S
C746 H732 0.930 . S
C746 C744 1.395 . S
C746 C749 1.403 . S
C747 C744 1.403 . S
C747 C748 1.524 . S
C747 C751 1.400 . S
C748 H733 0.960 . S
C748 H734 0.960 . S
C748 H735 0.960 . S
C748 C747 1.524 . S
C749 C746 1.403 . S
C749 C750 1.392 . S
C749 C753 1.495 . S
C750 C749 1.392 . S
C750 C751 1.385 . S
C750 C752 1.478 . S
C751 H745 0.930 . S
C751 C747 1.400 . S
C751 C750 1.385 . S
C752 C750 1.478 . S
C752 C754 1.381 . S
C752 C758 1.383 . S
C753 C749 1.495 . S
C753 H759 0.959 . S
C753 H760 0.961 . S
C753 H761 0.960 . S
C754 C752 1.381 . S
C754 C755 1.394 . S
C754 H762 0.930 . S
C755 C754 1.394 . S
C755 C756 1.383 . S
C755 H763 0.929 . S
C756 C755 1.383 . S
C756 C757 1.391 . S
C757 H741 0.911 1_455 S
C757 C756 1.391 . S
C757 C758 1.384 . S
C758 H742 0.931 1_455 S
C758 C752 1.383 . S
C758 C757 1.384 . S
H759 C753 0.959 . S
H760 C753 0.961 . S
H761 C753 0.960 . S
H762 C754 0.930 . S
H763 C755 0.929 . S
H764 C772 0.929 . S
H765 C774 0.930 . S
H766 C776 0.930 . S
H767 C779 0.929 . S
H768 C782 0.930 . S
H769 C784 0.960 . S
H770 C784 0.960 . S
H771 C784 0.960 1_545 S
C772 H764 0.929 . S
C772 C773 1.377 . S
C772 C774 1.384 1_556 S
C773 C772 1.377 . S
C773 C779 1.390 1_565 S
C774 H765 0.930 . S
C774 C772 1.384 1_554 S
C774 C775 1.372 1_554 S
C775 C774 1.372 1_556 S
C775 C776 1.400 1_565 S
C775 C780 1.490 1_556 S
C776 H766 0.930 . S
C776 C775 1.400 1_545 S
C776 C779 1.386 . S
H777 C793 0.930 . S
H778 C794 0.931 . S
C779 H767 0.929 . S
C779 C773 1.390 1_545 S
C779 C776 1.386 . S
C780 C775 1.490 1_554 S
C780 C782 1.395 . S
C780 C783 1.403 1_554 S
H781 C787 0.931 . S
C782 H768 0.930 . S
C782 C780 1.395 . S
C782 C785 1.403 . S
C783 C780 1.403 1_556 S
C783 C784 1.524 . S
C783 C787 1.400 . S
C784 H769 0.960 . S
C784 H770 0.960 . S
C784 H771 0.960 1_565 S
C784 C783 1.524 . S
C785 C782 1.403 . S
C785 C786 1.392 . S
C785 C789 1.495 . S
C786 C785 1.392 . S
C786 C787 1.385 1_554 S
C786 C788 1.478 . S
C787 H781 0.931 . S
C787 C783 1.400 . S
C787 C786 1.385 1_556 S
C788 C786 1.478 . S
C788 C790 1.381 . S
C788 C794 1.383 1_565 S
C789 C785 1.495 . S
C789 H795 0.959 . S
C789 H796 0.927 1_565 S
C789 H797 0.960 . S
C790 C788 1.381 . S
C790 C791 1.394 . S
C790 H798 0.930 . S
C791 C790 1.394 . S
C791 C792 1.383 1_565 S
C791 H799 0.929 . S
C792 C791 1.383 1_545 S
C792 C793 1.377 . S
C793 H777 0.930 . S
C793 C792 1.377 . S
C793 C794 1.379 . S
C794 H778 0.931 . S
C794 C788 1.383 1_545 S
C794 C793 1.379 . S
H795 C789 0.959 . S
H796 C789 0.927 1_545 S
H797 C789 0.960 . S
H798 C790 0.930 . S
H799 C791 0.929 . S
H800 C808 0.929 . S
H801 C810 0.930 . S
H802 C812 0.930 . S
H803 C815 0.929 . S
H804 C818 0.930 . S
H805 C820 0.960 . S
H806 C820 0.960 . S
H807 C820 0.960 . S
C808 H800 0.929 . S
C808 C809 1.377 . S
C808 C810 1.384 . S
C809 C808 1.377 . S
C809 C815 1.390 . S
C810 H801 0.930 . S
C810 C808 1.384 . S
C810 C811 1.372 . S
C811 C810 1.372 . S
C811 C812 1.400 . S
C811 C816 1.490 . S
C812 H802 0.930 . S
C812 C811 1.400 . S
C812 C815 1.386 . S
H813 C829 0.930 . S
H814 C830 0.931 . S
C815 H803 0.929 . S
C815 C809 1.390 . S
C815 C812 1.386 . S
C816 C811 1.490 . S
C816 C818 1.395 . S
C816 C819 1.403 . S
H817 C823 0.930 . S
C818 H804 0.930 . S
C818 C816 1.395 . S
C818 C821 1.403 . S
C819 C816 1.403 . S
C819 C820 1.524 . S
C819 C823 1.400 . S
C820 H805 0.960 . S
C820 H806 0.960 . S
C820 H807 0.960 . S
C820 C819 1.524 . S
C821 C818 1.403 . S
C821 C822 1.392 . S
C821 C825 1.495 . S
C822 C821 1.392 . S
C822 C823 1.385 . S
C822 C824 1.478 . S
C823 H817 0.930 . S
C823 C819 1.400 . S
C823 C822 1.385 . S
C824 C822 1.478 . S
C824 C826 1.381 . S
C824 C830 1.383 . S
C825 C821 1.495 . S
C825 H831 0.959 . S
C825 H832 0.970 . S
C825 H833 0.960 . S
C826 C824 1.381 . S
C826 C827 1.394 . S
C826 H834 0.930 . S
C827 C826 1.394 . S
C827 C828 1.383 . S
C827 H835 0.929 . S
C828 C827 1.383 . S
C828 C829 1.377 . S
C829 H813 0.930 . S
C829 C828 1.377 . S
C829 C830 1.379 . S
C830 H814 0.931 . S
C830 C824 1.383 . S
C830 C829 1.379 . S
H831 C825 0.959 . S
H832 C825 0.970 . S
H833 C825 0.960 . S
H834 C826 0.930 . S
H835 C827 0.929 . S
H836 C844 0.929 . S
H837 C846 0.930 . S
H838 C848 0.930 . S
H839 C851 0.929 . S
H840 C854 0.930 . S
H841 C856 0.960 . S
H842 C856 0.960 . S
H843 C856 0.960 . S
C844 H836 0.929 . S
C844 C845 1.377 . S
C844 C846 1.384 . S
C845 C844 1.377 . S
C845 C851 1.390 . S
C846 H837 0.930 . S
C846 C844 1.384 . S
C846 C847 1.372 . S
C847 C846 1.372 . S
C847 C848 1.400 . S
C847 C852 1.490 . S
C848 H838 0.930 . S
C848 C847 1.400 . S
C848 C851 1.386 . S
H849 C865 0.930 1_556 S
H850 C866 0.931 1_556 S
C851 H839 0.929 . S
C851 C845 1.390 . S
C851 C848 1.386 . S
C852 C847 1.490 . S
C852 C854 1.395 . S
C852 C855 1.403 . S
H853 C859 0.930 . S
C854 H840 0.930 . S
C854 C852 1.395 . S
C854 C857 1.403 . S
C855 C852 1.403 . S
C855 C856 1.524 . S
C855 C859 1.400 . S
C856 H841 0.960 . S
C856 H842 0.960 . S
C856 H843 0.960 . S
C856 C855 1.524 . S
C857 C854 1.403 . S
C857 C858 1.392 . S
C857 C861 1.495 . S
C858 C857 1.392 . S
C858 C859 1.385 . S
C858 C860 1.478 . S
C859 H853 0.930 . S
C859 C855 1.400 . S
C859 C858 1.385 . S
C860 C858 1.478 . S
C860 C862 1.381 . S
C860 C866 1.383 . S
C861 C857 1.495 . S
C861 H867 0.959 . S
C861 H868 0.961 . S
C861 H869 0.960 . S
C862 C860 1.381 . S
C862 C863 1.394 . S
C862 H870 0.930 . S
C863 C862 1.394 . S
C863 C864 1.383 . S
C863 H871 0.929 . S
C864 C863 1.383 . S
C864 C865 1.377 . S
C865 H849 0.930 1_554 S
C865 C864 1.377 . S
C865 C866 1.379 . S
C866 H850 0.931 1_554 S
C866 C860 1.383 . S
C866 C865 1.379 . S
H867 C861 0.959 . S
H868 C861 0.961 . S
H869 C861 0.960 . S
H870 C862 0.930 . S
H871 C863 0.929 . S
H872 C880 0.929 . S
H873 C882 0.930 . S
H874 C884 0.930 . S
H875 C887 0.929 . S
H876 C890 0.930 . S
H877 C892 0.960 . S
H878 C892 0.960 . S
H879 C892 0.960 . S
C880 H872 0.929 . S
C880 C881 1.377 . S
C880 C882 1.384 . S
C881 C880 1.377 . S
C881 C887 1.390 . S
C882 H873 0.930 . S
C882 C880 1.384 . S
C882 C883 1.372 . S
C883 C882 1.372 . S
C883 C884 1.400 . S
C883 C888 1.490 . S
C884 H874 0.930 . S
C884 C883 1.400 . S
C884 C887 1.386 . S
H885 C901 0.930 . S
H886 C902 0.931 . S
C887 H875 0.929 . S
C887 C881 1.390 . S
C887 C884 1.386 . S
C888 C883 1.490 . S
C888 C890 1.395 . S
C888 C891 1.403 . S
H889 C895 0.930 . S
C890 H876 0.930 . S
C890 C888 1.395 . S
C890 C893 1.403 . S
C891 C888 1.403 . S
C891 C892 1.524 . S
C891 C895 1.400 . S
C892 H877 0.960 . S
C892 H878 0.960 . S
C892 H879 0.960 . S
C892 C891 1.524 . S
C893 C890 1.403 . S
C893 C894 1.392 . S
C893 C897 1.495 . S
C894 C893 1.392 . S
C894 C895 1.385 . S
C894 C896 1.478 . S
C895 H889 0.930 . S
C895 C891 1.400 . S
C895 C894 1.385 . S
C896 C894 1.478 . S
C896 C898 1.381 . S
C896 C902 1.383 . S
C897 C893 1.495 . S
C897 H903 0.959 . S
C897 H904 0.961 . S
C897 H905 0.960 . S
C898 C896 1.381 . S
C898 C899 1.394 . S
C898 H906 0.930 . S
C899 C898 1.394 . S
C899 C900 1.383 . S
C899 H907 0.929 . S
C900 C899 1.383 . S
C900 C901 1.377 . S
C901 H885 0.930 . S
C901 C900 1.377 . S
C901 C902 1.379 . S
C902 H886 0.931 . S
C902 C896 1.383 . S
C902 C901 1.379 . S
H903 C897 0.959 . S
H904 C897 0.961 . S
H905 C897 0.960 . S
H906 C898 0.930 . S
H907 C899 0.929 . S
H908 C916 0.929 1_554 S
H909 C918 0.930 1_554 S
H910 C920 0.930 . S
H911 C923 0.929 . S
H912 C926 0.930 . S
H913 C928 0.960 . S
H914 C928 0.960 . S
H915 C928 0.960 . S
C916 H908 0.929 1_556 S
C916 C917 1.377 . S
C916 C918 1.384 . S
C917 C916 1.377 . S
C917 C923 1.390 . S
C918 H909 0.930 1_556 S
C918 C916 1.384 . S
C918 C919 1.372 . S
C919 C918 1.372 . S
C919 C920 1.400 . S
C919 C924 1.490 . S
C920 H910 0.930 . S
C920 C919 1.400 . S
C920 C923 1.386 . S
H921 C937 0.930 . S
H922 C938 0.931 . S
C923 H911 0.929 . S
C923 C917 1.390 . S
C923 C920 1.386 . S
C924 C919 1.490 . S
C924 C926 1.395 . S
C924 C927 1.403 . S
H925 C931 0.930 1_455 S
C926 H912 0.930 . S
C926 C924 1.395 . S
C926 C929 1.403 . S
C927 C924 1.403 . S
C927 C928 1.524 1_655 S
C927 C931 1.400 . S
C928 H913 0.960 . S
C928 H914 0.960 . S
C928 H915 0.960 . S
C928 C927 1.524 1_455 S
C929 C926 1.403 . S
C929 C930 1.392 . S
C929 C933 1.495 1_556 S
C930 C929 1.392 . S
C930 C931 1.385 . S
C930 C932 1.478 . S
C931 H925 0.930 1_655 S
C931 C927 1.400 . S
C931 C930 1.385 . S
C932 C930 1.478 . S
C932 C934 1.381 1_556 S
C932 C938 1.383 . S
C933 C929 1.495 1_554 S
C933 H939 0.959 . S
C933 H940 0.961 1_554 S
C933 H941 0.960 . S
C934 C932 1.381 1_554 S
C934 C935 1.394 . S
C934 H942 0.930 . S
C935 C934 1.394 . S
C935 C936 1.383 1_554 S
C935 H943 0.929 . S
C936 C935 1.383 1_556 S
C936 C937 1.377 . S
C937 H921 0.930 . S
C937 C936 1.377 . S
C937 C938 1.379 . S
C938 H922 0.931 . S
C938 C932 1.383 . S
C938 C937 1.379 . S
H939 C933 0.959 . S
H940 C933 0.961 1_556 S
H941 C933 0.960 . S
H942 C934 0.930 . S
H943 C935 0.929 . S
H944 C952 0.929 . S
H945 C954 0.930 . S
H946 C956 0.930 . S
H947 C959 0.929 . S
H948 C962 0.930 . S
H949 C964 0.960 . S
H950 C964 0.960 . S
H951 C964 0.960 . S
C952 H944 0.929 . S
C952 C953 1.377 . S
C952 C954 1.384 . S
C953 C952 1.377 . S
C953 C959 1.390 . S
C954 H945 0.930 . S
C954 C952 1.384 . S
C954 C955 1.372 . S
C955 C954 1.372 . S
C955 C956 1.400 . S
C955 C960 1.490 . S
C956 H946 0.930 . S
C956 C955 1.400 . S
C956 C959 1.386 . S
H957 C973 0.930 . S
H958 C974 0.931 . S
C959 H947 0.929 . S
C959 C953 1.390 . S
C959 C956 1.386 . S
C960 C955 1.490 . S
C960 C962 1.395 . S
C960 C963 1.403 . S
H961 C967 0.930 . S
C962 H948 0.930 . S
C962 C960 1.395 . S
C962 C965 1.403 . S
C963 C960 1.403 . S
C963 C964 1.524 . S
C963 C967 1.400 . S
C964 H949 0.960 . S
C964 H950 0.960 . S
C964 H951 0.960 . S
C964 C963 1.524 . S
C965 C962 1.403 . S
C965 C966 1.392 . S
C965 C969 1.495 . S
C966 C965 1.392 . S
C966 C967 1.385 . S
C966 C968 1.478 . S
C967 H961 0.930 . S
C967 C963 1.400 . S
C967 C966 1.385 . S
C968 C966 1.478 . S
C968 C970 1.381 . S
C968 C974 1.383 . S
C969 C965 1.495 . S
C969 H975 0.959 . S
C969 H976 0.961 . S
C969 H977 0.960 . S
C970 C968 1.381 . S
C970 C971 1.394 . S
C970 H978 0.930 . S
C971 C970 1.394 . S
C971 C972 1.383 . S
C971 H979 0.929 . S
C972 C971 1.383 . S
C972 C973 1.377 . S
C973 H957 0.930 . S
C973 C972 1.377 . S
C973 C974 1.379 . S
C974 H958 0.931 . S
C974 C968 1.383 . S
C974 C973 1.379 . S
H975 C969 0.959 . S
H976 C969 0.961 . S
H977 C969 0.960 . S
H978 C970 0.930 . S
H979 C971 0.929 . S
H980 C988 0.929 . S
H981 C990 0.930 . S
H982 C992 0.930 . S
H983 C995 0.929 . S
H984 C998 0.930 . S
H985 C1000 0.960 . S
H986 C1000 0.960 . S
H987 C1000 0.960 . S
C988 H980 0.929 . S
C988 C989 1.377 . S
C988 C990 1.384 . S
C989 C988 1.377 . S
C989 C995 1.390 . S
C990 H981 0.930 . S
C990 C988 1.384 . S
C990 C991 1.372 . S
C991 C990 1.372 . S
C991 C992 1.400 . S
C991 C996 1.490 . S
C992 H982 0.930 . S
C992 C991 1.400 . S
C992 C995 1.386 . S
H993 C1009 0.930 . S
H994 C1010 0.931 . S
C995 H983 0.929 . S
C995 C989 1.390 . S
C995 C992 1.386 . S
C996 C991 1.490 . S
C996 C998 1.395 . S
C996 C999 1.403 . S
H997 C1003 0.930 . S
C998 H984 0.930 . S
C998 C996 1.395 . S
C998 C1001 1.403 . S
C999 C996 1.403 . S
C999 C1000 1.524 . S
C999 C1003 1.400 . S
C1000 H985 0.960 . S
C1000 H986 0.960 . S
C1000 H987 0.960 . S
C1000 C999 1.524 . S
C1001 C998 1.403 . S
C1001 C1002 1.392 . S
C1001 C1005 1.495 . S
C1002 C1001 1.392 . S
C1002 C1003 1.385 . S
C1002 C1004 1.478 . S
C1003 H997 0.930 . S
C1003 C999 1.400 . S
C1003 C1002 1.385 . S
C1004 C1002 1.478 . S
C1004 C1006 1.381 . S
C1004 C1010 1.383 . S
C1005 C1001 1.495 . S
C1005 H1011 0.959 . S
C1005 H1012 0.961 . S
C1005 H1013 0.960 . S
C1006 C1004 1.381 . S
C1006 C1007 1.394 . S
C1006 H1014 0.930 . S
C1007 C1006 1.394 . S
C1007 C1008 1.383 . S
C1007 H1015 0.929 . S
C1008 C1007 1.383 . S
C1008 C1009 1.377 . S
C1009 H993 0.930 . S
C1009 C1008 1.377 . S
C1009 C1010 1.379 . S
C1010 H994 0.931 . S
C1010 C1004 1.383 . S
C1010 C1009 1.379 . S
H1011 C1005 0.959 . S
H1012 C1005 0.961 . S
H1013 C1005 0.960 . S
H1014 C1006 0.930 . S
H1015 C1007 0.929 . S
H1016 C1024 0.929 . S
H1017 C1026 0.930 . S
H1018 C1028 0.930 . S
H1019 C1031 0.929 . S
H1020 C1034 0.930 . S
H1021 C1036 0.960 . S
H1022 C1036 0.960 . S
H1023 C1036 0.960 . S
C1024 H1016 0.929 . S
C1024 C1025 1.377 . S
C1024 C1026 1.384 . S
C1025 C1024 1.377 . S
C1025 C1031 1.390 . S
C1026 H1017 0.930 . S
C1026 C1024 1.384 . S
C1026 C1027 1.372 . S
C1027 C1026 1.372 . S
C1027 C1028 1.400 . S
C1027 C1032 1.490 . S
C1028 H1018 0.930 . S
C1028 C1027 1.400 . S
C1028 C1031 1.386 . S
H1029 C1045 0.930 . S
H1030 C1046 0.931 . S
C1031 H1019 0.929 . S
C1031 C1025 1.390 . S
C1031 C1028 1.386 . S
C1032 C1027 1.490 . S
C1032 C1034 1.395 . S
C1032 C1035 1.403 . S
H1033 C1039 0.930 . S
C1034 H1020 0.930 . S
C1034 C1032 1.395 . S
C1034 C1037 1.403 . S
C1035 C1032 1.403 . S
C1035 C1036 1.524 . S
C1035 C1039 1.400 . S
C1036 H1021 0.960 . S
C1036 H1022 0.960 . S
C1036 H1023 0.960 . S
C1036 C1035 1.524 . S
C1037 C1034 1.403 . S
C1037 C1038 1.392 . S
C1037 C1041 1.495 . S
C1038 C1037 1.392 . S
C1038 C1039 1.385 . S
C1038 C1040 1.478 . S
C1039 H1033 0.930 . S
C1039 C1035 1.400 . S
C1039 C1038 1.385 . S
C1040 C1038 1.478 . S
C1040 C1042 1.381 . S
C1040 C1046 1.383 . S
C1041 C1037 1.495 . S
C1041 H1047 0.959 . S
C1041 H1048 0.961 . S
C1041 H1049 0.960 . S
C1042 C1040 1.381 . S
C1042 C1043 1.394 . S
C1042 H1050 0.930 . S
C1043 C1042 1.394 . S
C1043 C1044 1.383 . S
C1043 H1051 0.929 . S
C1044 C1043 1.383 . S
C1044 C1045 1.377 . S
C1045 H1029 0.930 . S
C1045 C1044 1.377 . S
C1045 C1046 1.379 . S
C1046 H1030 0.931 . S
C1046 C1040 1.383 . S
C1046 C1045 1.379 . S
H1047 C1041 0.959 . S
H1048 C1041 0.961 . S
H1049 C1041 0.960 . S
H1050 C1042 0.930 . S
H1051 C1043 0.929 . S
C197 N1 1.481 . S
C216 C107 1.395 . S
C233 N18 1.912 . S
C252 C141 1.831 1_566 S
C288 C153 0.981 . S
C269 N28 0.983 . S
C305 N40 1.667 . S
C324 C187 1.565 . S
C360 C144 1.820 . S
C341 N5 1.940 . S
C396 C124 1.464 . S
C377 N14 1.552 . S
C432 C171 1.376 . S
C413 N31 1.463 . S
C468 C162 1.067 . S
C449 N41 1.103 . S
C485 N2 1.427 . S
C504 C170 1.371 . S
C540 C132 1.510 . S
C521 N27 1.606 . S
C557 N44 1.662 . S
C576 C108 1.567 1_655 S
C593 N15 1.348 . S
C612 C165 1.217 . S
C648 C123 1.733 . S
C629 N57 1.902 . S
C665 N70 1.313 . S
C684 C145 1.284 . S
C701 N79 1.411 . S
C720 C150 1.352 . S
C737 N93 1.371 . S
C756 C183 1.271 . S
C773 N54 1.525 . S
C792 C128 1.423 . S
C828 C120 1.991 . S
C809 N66 2.107 . S
C864 C174 0.962 . S
C845 N80 1.019 . S
C900 C166 1.403 . S
C881 N96 1.490 . S
C917 N53 1.550 . S
C936 C186 1.494 1_655 S
C972 C129 1.450 . S
C953 N83 1.520 . S
C1008 C111 1.593 . S
C989 N92 1.737 . S
C1025 N67 1.481 . S
C1044 C149 1.464 . S
