# Generated by pormake.
# Topology the, (3,8)-cn, num edge types: 1
# Building blocks:
#     Node 0, Type 0, BuildingBlock: KAKCAD_clean_linker_0, # of connection points: 3
#     Node 1, Type 0, BuildingBlock: KAKCAD_clean_linker_0, # of connection points: 3
#     Node 2, Type 0, BuildingBlock: KAKCAD_clean_linker_0, # of connection points: 3
#     Node 3, Type 0, BuildingBlock: KAKCAD_clean_linker_0, # of connection points: 3
#     Node 4, Type 0, BuildingBlock: KAKCAD_clean_linker_0, # of connection points: 3
#     Node 5, Type 0, BuildingBlock: KAKCAD_clean_linker_0, # of connection points: 3
#     Node 6, Type 0, BuildingBlock: KAKCAD_clean_linker_0, # of connection points: 3
#     Node 7, Type 0, BuildingBlock: KAKCAD_clean_linker_0, # of connection points: 3
#     Node 8, Type 1, BuildingBlock: GIZVER_clean_sbu_0, # of connection points: 8
#     Node 9, Type 1, BuildingBlock: GIZVER_clean_sbu_0, # of connection points: 8
#     Node 10, Type 1, BuildingBlock: GIZVER_clean_sbu_0, # of connection points: 8
#     Edge 11, Type (0, 1), BuildingBlock: XIVTED_clean_linker_0, # of connection points: 2
#     Edge 12, Type (0, 1), BuildingBlock: XIVTED_clean_linker_0, # of connection points: 2
#     Edge 13, Type (0, 1), BuildingBlock: XIVTED_clean_linker_0, # of connection points: 2
#     Edge 14, Type (0, 1), BuildingBlock: XIVTED_clean_linker_0, # of connection points: 2
#     Edge 15, Type (0, 1), BuildingBlock: XIVTED_clean_linker_0, # of connection points: 2
#     Edge 16, Type (0, 1), BuildingBlock: XIVTED_clean_linker_0, # of connection points: 2
#     Edge 17, Type (0, 1), BuildingBlock: XIVTED_clean_linker_0, # of connection points: 2
#     Edge 18, Type (0, 1), BuildingBlock: XIVTED_clean_linker_0, # of connection points: 2
#     Edge 19, Type (0, 1), BuildingBlock: XIVTED_clean_linker_0, # of connection points: 2
#     Edge 20, Type (0, 1), BuildingBlock: XIVTED_clean_linker_0, # of connection points: 2
#     Edge 21, Type (0, 1), BuildingBlock: XIVTED_clean_linker_0, # of connection points: 2
#     Edge 22, Type (0, 1), BuildingBlock: XIVTED_clean_linker_0, # of connection points: 2
#     Edge 23, Type (0, 1), BuildingBlock: XIVTED_clean_linker_0, # of connection points: 2
#     Edge 24, Type (0, 1), BuildingBlock: XIVTED_clean_linker_0, # of connection points: 2
#     Edge 25, Type (0, 1), BuildingBlock: XIVTED_clean_linker_0, # of connection points: 2
#     Edge 26, Type (0, 1), BuildingBlock: XIVTED_clean_linker_0, # of connection points: 2
#     Edge 27, Type (0, 1), BuildingBlock: XIVTED_clean_linker_0, # of connection points: 2
#     Edge 28, Type (0, 1), BuildingBlock: XIVTED_clean_linker_0, # of connection points: 2
#     Edge 29, Type (0, 1), BuildingBlock: XIVTED_clean_linker_0, # of connection points: 2
#     Edge 30, Type (0, 1), BuildingBlock: XIVTED_clean_linker_0, # of connection points: 2
#     Edge 31, Type (0, 1), BuildingBlock: XIVTED_clean_linker_0, # of connection points: 2
#     Edge 32, Type (0, 1), BuildingBlock: XIVTED_clean_linker_0, # of connection points: 2
#     Edge 33, Type (0, 1), BuildingBlock: XIVTED_clean_linker_0, # of connection points: 2
#     Edge 34, Type (0, 1), BuildingBlock: XIVTED_clean_linker_0, # of connection points: 2
# Relax obj value: 0.045
# Max RMSD: 0.139
# Mean RMSD: 0.067
data_MOF--net-the--node1-GIZVER_clean_sbu_0--node2-KAKCAD_clean_linker_0--edge1-XIVTED_clean_linker_0
_symmetry_space_group_name_H-M    P1
_symmetry_Int_Tables_number       1
_symmetry_cell_setting            triclinic
loop_
_symmetry_equiv_pos_as_xyz
'x, y, z'
_cell_length_a     50.696778
_cell_length_b     47.728965
_cell_length_c     44.069616
_cell_angle_alpha  86.937663
_cell_angle_beta   94.097767
_cell_angle_gamma 101.78038
loop_
_atom_site_label
_atom_site_type_symbol
_atom_site_fract_x
_atom_site_fract_y
_atom_site_fract_z
_atom_type_partial_charge
C0 C 0.33272 0.36286 0.27993 0.0
C1 C 0.33752 0.39293 0.27759 0.0
C2 C 0.32519 0.34831 0.30726 0.0
C3 C 0.32219 0.36352 0.33278 0.0
C4 C 0.32642 0.39356 0.33029 0.0
C5 C 0.33413 0.40814 0.30298 0.0
C6 C 0.31503 0.34805 0.36201 0.0
C7 C 0.32789 0.32573 0.37291 0.0
C8 C 0.32107 0.31086 0.40049 0.0
C9 C 0.30114 0.31829 0.41706 0.0
C10 C 0.28792 0.34026 0.40636 0.0
C11 C 0.29512 0.35527 0.37893 0.0
C12 C 0.26602 0.34681 0.42346 0.0
C13 C 0.24641 0.32449 0.43527 0.0
C14 C 0.26441 0.37529 0.42785 0.0
C15 C 0.24335 0.38137 0.44336 0.0
C16 C 0.22347 0.35906 0.45473 0.0
C17 C 0.33401 0.28692 0.41176 0.0
C18 C 0.33667 0.26565 0.39206 0.0
C19 C 0.34249 0.2844 0.44267 0.0
C20 C 0.35293 0.26075 0.45381 0.0
C21 C 0.35503 0.23914 0.43425 0.0
C22 C 0.34704 0.24194 0.40322 0.0
C23 C 0.22534 0.33056 0.45077 0.0
H24 H 0.33548 0.35056 0.26086 0.0
H25 H 0.32176 0.32513 0.30844 0.0
H26 H 0.32436 0.40582 0.34967 0.0
H27 H 0.33755 0.43132 0.30176 0.0
H28 H 0.34355 0.32026 0.36022 0.0
H29 H 0.28458 0.3719 0.37021 0.0
H30 H 0.29562 0.30664 0.43822 0.0
H31 H 0.24701 0.30231 0.43197 0.0
H32 H 0.27941 0.39288 0.41921 0.0
H33 H 0.24221 0.40356 0.44566 0.0
H34 H 0.33009 0.26697 0.36818 0.0
H35 H 0.34085 0.30066 0.45829 0.0
H36 H 0.21037 0.31296 0.4594 0.0
H37 H 0.34881 0.22579 0.38755 0.0
H38 H 0.35884 0.25908 0.47784 0.0
C39 C 0.77279 0.39629 0.35391 0.0
C40 C 0.79208 0.38005 0.36459 0.0
C41 C 0.74776 0.38307 0.34056 0.0
C42 C 0.74127 0.35322 0.33763 0.0
C43 C 0.76062 0.33699 0.34798 0.0
C44 C 0.7857 0.35022 0.36123 0.0
C45 C 0.71408 0.33902 0.32479 0.0
C46 C 0.70173 0.35108 0.29902 0.0
C47 C 0.67557 0.3384 0.28751 0.0
C48 C 0.66193 0.31335 0.30245 0.0
C49 C 0.67409 0.3006 0.32772 0.0
C50 C 0.70015 0.3136 0.33873 0.0
C51 C 0.65943 0.27353 0.34228 0.0
C52 C 0.6317 0.2697 0.34671 0.0
C53 C 0.67272 0.25089 0.35067 0.0
C54 C 0.65846 0.22478 0.36246 0.0
C55 C 0.63057 0.22072 0.3661 0.0
C56 C 0.6622 0.35111 0.26018 0.0
C57 C 0.66688 0.38092 0.25414 0.0
C58 C 0.64387 0.33348 0.24027 0.0
C59 C 0.62975 0.34524 0.2161 0.0
C60 C 0.63407 0.37506 0.21025 0.0
C61 C 0.65329 0.39267 0.22938 0.0
C62 C 0.61747 0.24364 0.35843 0.0
H63 H 0.77671 0.41923 0.35654 0.0
H64 H 0.7332 0.39618 0.33327 0.0
H65 H 0.75643 0.31399 0.34569 0.0
H66 H 0.80016 0.33704 0.36866 0.0
H67 H 0.71283 0.37004 0.28762 0.0
H68 H 0.70928 0.30435 0.35881 0.0
H69 H 0.64167 0.30352 0.29438 0.0
H70 H 0.62095 0.28688 0.34108 0.0
H71 H 0.694 0.25304 0.34729 0.0
H72 H 0.66915 0.20752 0.36793 0.0
H73 H 0.68062 0.39539 0.26888 0.0
H74 H 0.64013 0.31039 0.24335 0.0
H75 H 0.59615 0.2415 0.3616 0.0
H76 H 0.6579 0.41567 0.22548 0.0
H77 H 0.61499 0.33069 0.20249 0.0
C78 C 0.65623 0.6455 0.25055 0.0
C79 C 0.64436 0.65902 0.22559 0.0
C80 C 0.67137 0.66148 0.27375 0.0
C81 C 0.67536 0.69155 0.27261 0.0
C82 C 0.66372 0.70521 0.24753 0.0
C83 C 0.64844 0.68913 0.22424 0.0
C84 C 0.69147 0.70826 0.29776 0.0
C85 C 0.71454 0.69961 0.31149 0.0
C86 C 0.72875 0.71336 0.33689 0.0
C87 C 0.72028 0.73698 0.34789 0.0
C88 C 0.69736 0.74633 0.33438 0.0
C89 C 0.68312 0.73176 0.30928 0.0
C90 C 0.68744 0.77027 0.34739 0.0
C91 C 0.68821 0.77307 0.37912 0.0
C92 C 0.67634 0.79002 0.32826 0.0
C93 C 0.66573 0.81152 0.3405 0.0
C94 C 0.6661 0.81396 0.3722 0.0
C95 C 0.75128 0.70166 0.35295 0.0
C96 C 0.74861 0.67191 0.35795 0.0
C97 C 0.77528 0.71974 0.36368 0.0
C98 C 0.79615 0.70822 0.37893 0.0
C99 C 0.79331 0.67843 0.38401 0.0
C100 C 0.76932 0.66047 0.37318 0.0
C101 C 0.67778 0.79471 0.39135 0.0
H102 H 0.6539 0.62241 0.25221 0.0
H103 H 0.67964 0.65013 0.29287 0.0
H104 H 0.66653 0.72833 0.24579 0.0
H105 H 0.63942 0.70026 0.20549 0.0
H106 H 0.72146 0.6819 0.30244 0.0
H107 H 0.6648 0.7379 0.29955 0.0
H108 H 0.73121 0.74767 0.36745 0.0
H109 H 0.69613 0.75801 0.39464 0.0
H110 H 0.67581 0.78888 0.30374 0.0
H111 H 0.65718 0.82624 0.32511 0.0
H112 H 0.73029 0.65735 0.35039 0.0
H113 H 0.77801 0.74274 0.36006 0.0
H114 H 0.67802 0.79574 0.41586 0.0
H115 H 0.76657 0.63741 0.37626 0.0
H116 H 0.81433 0.72264 0.3871 0.0
C117 C 0.32025 0.6458 0.22817 0.0
C118 C 0.34674 0.64133 0.23431 0.0
C119 C 0.30821 0.65994 0.24875 0.0
C120 C 0.32245 0.67013 0.27583 0.0
C121 C 0.34883 0.66557 0.28206 0.0
C122 C 0.36075 0.65124 0.26168 0.0
C123 C 0.30979 0.68509 0.29786 0.0
C124 C 0.28343 0.67379 0.30636 0.0
C125 C 0.27173 0.68691 0.32833 0.0
C126 C 0.28666 0.71203 0.3414 0.0
C127 C 0.3131 0.72368 0.33321 0.0
C128 C 0.32445 0.71004 0.31139 0.0
C129 C 0.32934 0.74928 0.34848 0.0
C130 C 0.31792 0.77299 0.35367 0.0
C131 C 0.35634 0.74983 0.35865 0.0
C132 C 0.37143 0.77322 0.37408 0.0
C133 C 0.35996 0.79677 0.37966 0.0
C134 C 0.24456 0.67339 0.33877 0.0
C135 C 0.22368 0.66096 0.31791 0.0
C136 C 0.23964 0.67171 0.36988 0.0
C137 C 0.21467 0.65753 0.37995 0.0
C138 C 0.19398 0.6446 0.35917 0.0
C139 C 0.19872 0.64672 0.32799 0.0
C140 C 0.33313 0.79656 0.36895 0.0
H141 H 0.30893 0.63882 0.20722 0.0
H142 H 0.28789 0.6633 0.24326 0.0
H143 H 0.36013 0.67266 0.30301 0.0
H144 H 0.38091 0.64761 0.26766 0.0
H145 H 0.27248 0.65397 0.29682 0.0
H146 H 0.34471 0.719 0.30471 0.0
H147 H 0.2779 0.72222 0.35846 0.0
H148 H 0.29723 0.77332 0.34589 0.0
H149 H 0.36569 0.73184 0.35529 0.0
H150 H 0.39215 0.77284 0.38172 0.0
H151 H 0.22666 0.6622 0.29375 0.0
H152 H 0.25538 0.68058 0.38665 0.0
H153 H 0.32368 0.8143 0.37302 0.0
H154 H 0.1831 0.63737 0.31133 0.0
H155 H 0.21189 0.65593 0.40416 0.0
C156 C 0.22303 0.64192 0.68931 0.0
C157 C 0.22095 0.63867 0.65754 0.0
C158 C 0.24779 0.6539 0.70435 0.0
C159 C 0.27091 0.66336 0.68794 0.0
C160 C 0.26902 0.65986 0.65639 0.0
C161 C 0.2445 0.64744 0.64146 0.0
C162 C 0.29685 0.67776 0.70323 0.0
C163 C 0.30865 0.66467 0.72865 0.0
C164 C 0.33394 0.67785 0.74193 0.0
C165 C 0.3467 0.70482 0.73024 0.0
C166 C 0.33504 0.71845 0.70526 0.0
C167 C 0.31022 0.70457 0.69169 0.0
C168 C 0.34921 0.74692 0.69323 0.0
C169 C 0.36227 0.76807 0.71332 0.0
C170 C 0.35062 0.75288 0.66172 0.0
C171 C 0.3653 0.77906 0.65062 0.0
C172 C 0.37893 0.79989 0.67077 0.0
C173 C 0.34779 0.66361 0.76748 0.0
C174 C 0.33389 0.6505 0.79268 0.0
C175 C 0.37564 0.66432 0.76734 0.0
C176 C 0.3895 0.65333 0.79221 0.0
C177 C 0.37592 0.64125 0.81798 0.0
C178 C 0.34782 0.63943 0.8177 0.0
C179 C 0.37697 0.79418 0.70224 0.0
H180 H 0.20546 0.63582 0.70258 0.0
H181 H 0.24869 0.65653 0.72869 0.0
H182 H 0.28664 0.66662 0.64324 0.0
H183 H 0.24416 0.64459 0.61723 0.0
H184 H 0.29868 0.64377 0.73724 0.0
H185 H 0.30095 0.71487 0.67243 0.0
H186 H 0.36606 0.71518 0.7405 0.0
H187 H 0.36116 0.76444 0.73771 0.0
H188 H 0.34107 0.73697 0.64562 0.0
H189 H 0.36664 0.78261 0.62625 0.0
H190 H 0.31244 0.64969 0.79351 0.0
H191 H 0.38686 0.67361 0.74799 0.0
H192 H 0.38679 0.80993 0.71838 0.0
H193 H 0.33674 0.6303 0.83719 0.0
H194 H 0.41097 0.65438 0.79124 0.0
C195 C 0.33719 0.34678 0.80856 0.0
C196 C 0.36519 0.3567 0.8073 0.0
C197 C 0.32232 0.33083 0.78501 0.0
C198 C 0.33517 0.32421 0.75982 0.0
C199 C 0.36327 0.33351 0.75899 0.0
C200 C 0.37807 0.34959 0.78239 0.0
C201 C 0.3193 0.30851 0.73397 0.0
C202 C 0.29503 0.31587 0.72217 0.0
C203 C 0.2804 0.30215 0.69687 0.0
C204 C 0.29039 0.28059 0.68345 0.0
C205 C 0.31477 0.27307 0.69478 0.0
C206 C 0.32895 0.28705 0.72015 0.0
C207 C 0.32605 0.25128 0.67974 0.0
C208 C 0.30956 0.22529 0.67063 0.0
C209 C 0.35371 0.25633 0.67475 0.0
C210 C 0.36477 0.2357 0.66167 0.0
C211 C 0.34854 0.20933 0.65333 0.0
C212 C 0.2555 0.31153 0.68378 0.0
C213 C 0.23738 0.31929 0.70298 0.0
C214 C 0.25038 0.31439 0.65205 0.0
C215 C 0.22829 0.32569 0.63991 0.0
C216 C 0.21095 0.3346 0.65922 0.0
C217 C 0.21548 0.33079 0.69086 0.0
C218 C 0.3207 0.20451 0.65759 0.0
H219 H 0.32664 0.35203 0.82733 0.0
H220 H 0.30073 0.32376 0.78645 0.0
H221 H 0.37377 0.32901 0.73983 0.0
H222 H 0.39967 0.35662 0.78088 0.0
H223 H 0.28813 0.33324 0.73197 0.0
H224 H 0.34749 0.28102 0.72936 0.0
H225 H 0.27943 0.26998 0.66386 0.0
H226 H 0.28819 0.22071 0.67431 0.0
H227 H 0.36686 0.27638 0.68083 0.0
H228 H 0.38615 0.24052 0.65801 0.0
H229 H 0.24033 0.31683 0.72749 0.0
H230 H 0.26404 0.30898 0.63655 0.0
H231 H 0.30762 0.1844 0.6516 0.0
H232 H 0.20221 0.33703 0.70631 0.0
H233 H 0.22546 0.32861 0.61544 0.0
C234 C 0.67689 0.22928 0.65773 0.0
C235 C 0.64895 0.22628 0.65077 0.0
C236 C 0.69189 0.25423 0.67075 0.0
C237 C 0.67929 0.27674 0.67716 0.0
C238 C 0.6515 0.27397 0.6696 0.0
C239 C 0.63656 0.24913 0.65655 0.0
C240 C 0.69486 0.30276 0.69233 0.0
C241 C 0.72067 0.31603 0.68332 0.0
C242 C 0.73555 0.34059 0.69768 0.0
C243 C 0.72408 0.35147 0.72163 0.0
C244 C 0.69797 0.33912 0.73023 0.0
C245 C 0.68365 0.31465 0.71564 0.0
C246 C 0.68511 0.35261 0.75339 0.0
C247 C 0.69934 0.36213 0.78072 0.0
C248 C 0.65854 0.35679 0.74776 0.0
C249 C 0.64648 0.37022 0.76883 0.0
C250 C 0.66054 0.37961 0.79635 0.0
C251 C 0.76241 0.35558 0.68693 0.0
C252 C 0.77988 0.34041 0.67445 0.0
C253 C 0.77069 0.3855 0.6886 0.0
C254 C 0.79559 0.3997 0.67848 0.0
C255 C 0.8128 0.3847 0.66532 0.0
C256 C 0.80453 0.35477 0.6635 0.0
C257 C 0.68717 0.37538 0.80201 0.0
H258 H 0.68708 0.21206 0.65385 0.0
H259 H 0.71323 0.25559 0.67651 0.0
H260 H 0.64125 0.29111 0.67364 0.0
H261 H 0.61524 0.24794 0.65083 0.0
H262 H 0.72866 0.30771 0.66433 0.0
H263 H 0.66379 0.3046 0.7228 0.0
H264 H 0.73517 0.37006 0.73331 0.0
H265 H 0.7198 0.35904 0.7858 0.0
H266 H 0.64722 0.35022 0.72666 0.0
H267 H 0.62622 0.37367 0.7632 0.0
H268 H 0.77464 0.31735 0.67311 0.0
H269 H 0.75783 0.3983 0.69734 0.0
H270 H 0.69854 0.38198 0.82306 0.0
H271 H 0.81684 0.34228 0.65323 0.0
H272 H 0.80121 0.42259 0.68116 0.0
C273 C 0.64822 0.64008 0.73036 0.0
C274 C 0.66519 0.6301 0.75325 0.0
C275 C 0.65899 0.65524 0.70461 0.0
C276 C 0.68692 0.6606 0.70119 0.0
C277 C 0.70388 0.65061 0.72407 0.0
C278 C 0.69313 0.63555 0.74986 0.0
C279 C 0.6984 0.67632 0.67373 0.0
C280 C 0.68975 0.70112 0.66217 0.0
C281 C 0.70098 0.71618 0.63637 0.0
C282 C 0.72113 0.70636 0.6223 0.0
C283 C 0.72977 0.68143 0.63335 0.0
C284 C 0.71817 0.66646 0.659 0.0
C285 C 0.75084 0.67096 0.61813 0.0
C286 C 0.75171 0.673 0.58619 0.0
C287 C 0.77024 0.65871 0.63553 0.0
C288 C 0.78967 0.64821 0.62133 0.0
C289 C 0.79039 0.65028 0.58958 0.0
C290 C 0.6913 0.74178 0.62352 0.0
C291 C 0.66353 0.74156 0.62012 0.0
C292 C 0.70966 0.76615 0.6135 0.0
C293 C 0.70039 0.78975 0.60005 0.0
C294 C 0.67258 0.78939 0.59635 0.0
C295 C 0.65426 0.76512 0.60667 0.0
C296 C 0.77155 0.66296 0.57203 0.0
H297 H 0.62663 0.63652 0.73254 0.0
H298 H 0.64542 0.66249 0.68722 0.0
H299 H 0.72553 0.65467 0.72216 0.0
H300 H 0.70668 0.62798 0.76703 0.0
H301 H 0.67466 0.70904 0.6736 0.0
H302 H 0.72407 0.64669 0.6672 0.0
H303 H 0.72995 0.71809 0.60254 0.0
H304 H 0.73683 0.68189 0.57206 0.0
H305 H 0.77056 0.65737 0.66015 0.0
H306 H 0.80432 0.63864 0.63514 0.0
H307 H 0.64892 0.72296 0.62737 0.0
H308 H 0.73122 0.76699 0.61611 0.0
H309 H 0.77187 0.66454 0.54743 0.0
H310 H 0.63272 0.76443 0.60462 0.0
H311 H 0.71496 0.80813 0.59224 0.0
Co312 Co 0.05788 0.47486 0.53815 0.0
Co313 Co 0.03344 0.46212 0.48422 0.0
Co314 Co 0.00641 0.50732 0.51321 0.0
O315 O 0.02182 0.47227 0.52068 0.0
H316 H 0.00915 0.45644 0.52938 0.0
O317 O 0.9906 0.54228 0.50541 0.0
Co318 Co 0.95301 0.53898 0.49189 0.0
Co319 Co 0.98222 0.55272 0.54356 0.0
H320 H 1.00246 0.55786 0.49535 0.0
O321 O 0.04057 0.42581 0.4793 0.0
O322 O 0.06878 0.46388 0.49919 0.0
O323 O 0.03572 0.4898 0.45046 0.0
O324 O 0.03173 0.52447 0.48045 0.0
O325 O 0.97988 0.48624 0.48216 0.0
O326 O 0.91928 0.53933 0.47902 0.0
O327 O 0.95484 0.57634 0.47933 0.0
O328 O 0.94585 0.49942 0.50176 0.0
O329 O 0.98107 0.49061 0.54615 0.0
O330 O 0.9846 0.52597 0.57766 0.0
O331 O 0.94558 0.54726 0.53329 0.0
O332 O 0.97227 0.5877 0.54986 0.0
C333 C 0.07886 0.44767 0.56232 0.0
C334 C 0.05849 0.53131 0.54153 0.0
C335 C 0.03924 0.51617 0.45593 0.0
C336 C 0.06442 0.43778 0.4902 0.0
C337 C 0.9291 0.5663 0.47331 0.0
C338 C 0.95457 0.48334 0.48456 0.0
C339 C 0.97696 0.49972 0.57181 0.0
C340 C 0.94837 0.57305 0.54262 0.0
O341 O 0.09023 0.47406 0.55579 0.0
O342 O 0.05375 0.43807 0.55295 0.0
O343 O 0.03319 0.52856 0.54421 0.0
O344 O 0.06705 0.51392 0.52582 0.0
Co345 Co 0.5388 0.95775 0.49519 0.0
Co346 Co 0.55149 0.97726 0.54977 0.0
Co347 Co 0.50722 0.00865 0.51696 0.0
O348 O 0.54078 0.99378 0.51303 0.0
H349 H 0.55538 0.00838 0.50582 0.0
O350 O 0.47374 0.02379 0.52087 0.0
Co351 Co 0.47538 0.06061 0.53732 0.0
Co352 Co 0.46298 0.03897 0.48324 0.0
H353 H 0.45919 0.00936 0.52849 0.0
O354 O 0.58679 0.9728 0.55771 0.0
O355 O 0.55257 0.9423 0.53425 0.0
O356 O 0.5259 0.96888 0.58089 0.0
O357 O 0.49245 0.97951 0.54989 0.0
O358 O 0.52791 0.0352 0.54809 0.0
O359 O 0.47418 0.09322 0.55356 0.0
O360 O 0.44079 0.05421 0.54918 0.0
O361 O 0.51188 0.07224 0.52848 0.0
O362 O 0.5219 0.03794 0.48419 0.0
O363 O 0.48809 0.0446 0.45155 0.0
O364 O 0.46383 0.0752 0.49689 0.0
O365 O 0.42825 0.0456 0.47473 0.0
C366 C 0.56347 0.93921 0.47113 0.0
C367 C 0.48486 0.95471 0.49015 0.0
C368 C 0.50092 0.96747 0.57425 0.0
C369 C 0.57743 0.94834 0.54543 0.0
C370 C 0.44978 0.08008 0.55881 0.0
C371 C 0.52933 0.06217 0.54539 0.0
C372 C 0.51315 0.04798 0.45883 0.0
C373 C 0.43909 0.07047 0.48533 0.0
O374 O 0.53938 0.92567 0.47725 0.0
O375 O 0.57258 0.96493 0.48114 0.0
O376 O 0.48644 0.98167 0.48597 0.0
O377 O 0.50315 0.9455 0.50654 0.0
Co378 Co 0.47085 0.52024 0.07729 0.0
Co379 Co 0.45925 0.46894 0.05617 0.0
Co380 Co 0.50317 0.50934 0.01614 0.0
O381 O 0.46917 0.50517 0.03772 0.0
H382 H 0.45442 0.50975 0.02458 0.0
O383 O 0.53722 0.51324 0.99466 0.0
Co384 Co 0.53564 0.49862 0.95489 0.0
Co385 Co 0.54761 0.54944 0.97689 0.0
H386 H 0.55186 0.50837 0.00778 0.0
O387 O 0.42387 0.45478 0.06594 0.0
O388 O 0.457 0.4815 0.09488 0.0
O389 O 0.48591 0.445 0.06002 0.0
O390 O 0.51839 0.4799 0.04312 0.0
O391 O 0.48344 0.47916 0.98782 0.0
O392 O 0.53653 0.48393 0.91914 0.0
O393 O 0.5693 0.49045 0.95688 0.0
O394 O 0.50012 0.50404 0.94779 0.0
O395 O 0.48802 0.539 0.98922 0.0
O396 O 0.5214 0.57366 0.97382 0.0
O397 O 0.54937 0.53755 0.93784 0.0
O398 O 0.58298 0.56336 0.96697 0.0
C399 C 0.44639 0.53851 0.10176 0.0
C400 C 0.52416 0.53432 0.07312 0.0
C401 C 0.51067 0.45565 0.0569 0.0
C402 C 0.43246 0.46673 0.09155 0.0
C403 C 0.56026 0.48072 0.93012 0.0
C404 C 0.48232 0.48443 0.95911 0.0
C405 C 0.49643 0.56351 0.97618 0.0
C406 C 0.57396 0.5522 0.94108 0.0
O407 O 0.47011 0.53535 0.11277 0.0
O408 O 0.43725 0.52851 0.07513 0.0
O409 O 0.52291 0.53957 0.04441 0.0
O410 O 0.50637 0.51478 0.08457 0.0
H411 H 0.22284 0.40026 0.49544 0.0
H412 H 0.06262 0.38212 0.47621 0.0
H413 H 0.17045 0.33305 0.44546 0.0
H414 H 0.11717 0.45796 0.50837 0.0
H415 H 0.10092 0.35823 0.47569 0.0
H416 H 0.18309 0.41562 0.51163 0.0
C417 C 0.20296 0.38859 0.48813 0.0
C418 C 0.1999 0.3657 0.46864 0.0
C419 C 0.10439 0.38 0.48317 0.0
C420 C 0.15448 0.38307 0.48702 0.0
C421 C 0.08258 0.39367 0.48337 0.0
C422 C 0.08678 0.42221 0.4919 0.0
C423 C 0.13048 0.39502 0.49156 0.0
C424 C 0.11301 0.43603 0.50136 0.0
C425 C 0.18032 0.39728 0.49744 0.0
C426 C 0.17372 0.35083 0.46045 0.0
N427 N 0.13389 0.42236 0.50071 0.0
N428 N 0.15198 0.36004 0.46935 0.0
H429 H 0.64556 0.18468 0.41203 0.0
H430 H 0.50252 0.07594 0.4046 0.0
H431 H 0.58013 0.19263 0.34601 0.0
H432 H 0.56736 0.06796 0.47154 0.0
H433 H 0.53243 0.11571 0.37962 0.0
H434 H 0.61887 0.13942 0.43123 0.0
C435 C 0.62569 0.17681 0.40138 0.0
C436 C 0.61503 0.19267 0.3775 0.0
C437 C 0.54022 0.10507 0.39958 0.0
C438 C 0.58425 0.14087 0.39952 0.0
C439 C 0.52316 0.08221 0.41381 0.0
C440 C 0.53229 0.06862 0.44042 0.0
C441 C 0.56664 0.1146 0.41205 0.0
C442 C 0.55933 0.07778 0.45117 0.0
C443 C 0.61041 0.151 0.41244 0.0
C444 C 0.58901 0.18147 0.36483 0.0
N445 N 0.57542 0.10036 0.43715 0.0
N446 N 0.57453 0.15638 0.37605 0.0
H447 H 0.84844 0.69338 0.37902 0.0
H448 H 0.87462 0.55462 0.47546 0.0
H449 H 0.78762 0.63443 0.42687 0.0
H450 H 0.94045 0.62111 0.44703 0.0
H451 H 0.84296 0.5844 0.45717 0.0
H452 H 0.88293 0.66867 0.40342 0.0
C453 C 0.84237 0.67549 0.3949 0.0
C454 C 0.815 0.6657 0.40053 0.0
C455 C 0.8643 0.59266 0.45489 0.0
C456 C 0.85425 0.63724 0.42819 0.0
C457 C 0.88247 0.57553 0.46521 0.0
C458 C 0.91028 0.58522 0.46244 0.0
C459 C 0.87376 0.6197 0.44115 0.0
C460 C 0.91916 0.61275 0.44942 0.0
C461 C 0.86205 0.66135 0.40871 0.0
C462 C 0.80832 0.64233 0.42121 0.0
N463 N 0.9009 0.62897 0.43892 0.0
N464 N 0.82772 0.62884 0.43403 0.0
H465 H 0.39196 0.79348 0.43164 0.0
H466 H 0.44851 0.96258 0.44196 0.0
H467 H 0.36402 0.85494 0.36854 0.0
H468 H 0.47093 0.89801 0.50526 0.0
H469 H 0.41556 0.92482 0.41591 0.0
H470 H 0.41951 0.83263 0.45977 0.0
C471 C 0.3917 0.81528 0.42362 0.0
C472 C 0.37587 0.82088 0.39748 0.0
C473 C 0.4276 0.91906 0.43565 0.0
C474 C 0.40743 0.86621 0.42987 0.0
C475 C 0.44631 0.9406 0.45057 0.0
C476 C 0.46273 0.93344 0.47562 0.0
C477 C 0.42534 0.89029 0.446 0.0
C478 C 0.45903 0.90459 0.4858 0.0
C479 C 0.40735 0.83772 0.43983 0.0
C480 C 0.3759 0.84965 0.38861 0.0
N481 N 0.44093 0.88421 0.47091 0.0
N482 N 0.39162 0.87127 0.40464 0.0
H483 H 0.20248 0.65197 0.5992 0.0
H484 H 0.05892 0.54546 0.60115 0.0
H485 H 0.17844 0.59738 0.67804 0.0
H486 H 0.10437 0.56404 0.52098 0.0
H487 H 0.097 0.57448 0.63078 0.0
H488 H 0.161 0.62927 0.57142 0.0
C489 C 0.18867 0.63517 0.61078 0.0
C490 C 0.19455 0.62633 0.64106 0.0
C491 C 0.09837 0.57248 0.6066 0.0
C492 C 0.1462 0.60102 0.60935 0.0
C493 C 0.07662 0.55624 0.58969 0.0
C494 C 0.0786 0.55249 0.55864 0.0
C495 C 0.12185 0.58551 0.59209 0.0
C496 C 0.10212 0.56644 0.5449 0.0
C497 C 0.16481 0.62244 0.59487 0.0
C498 C 0.17499 0.60517 0.6549 0.0
N499 N 0.12279 0.58237 0.56167 0.0
N500 N 0.15175 0.59321 0.63893 0.0
H501 H 0.32863 0.17242 0.60697 0.0
H502 H 0.46714 0.11921 0.60147 0.0
H503 H 0.39686 0.19488 0.67161 0.0
H504 H 0.39448 0.07646 0.55283 0.0
H505 H 0.44106 0.14804 0.62586 0.0
H506 H 0.35134 0.13776 0.58565 0.0
C507 C 0.34823 0.16993 0.61687 0.0
C508 C 0.36099 0.18697 0.64089 0.0
C509 C 0.43062 0.13223 0.61009 0.0
C510 C 0.38709 0.14759 0.61642 0.0
C511 C 0.44555 0.11578 0.59608 0.0
C512 C 0.43292 0.09538 0.57517 0.0
C513 C 0.40276 0.12876 0.60287 0.0
C514 C 0.40489 0.0918 0.56909 0.0
C515 C 0.36118 0.15019 0.60462 0.0
C516 C 0.38647 0.18286 0.65263 0.0
N517 N 0.39071 0.10859 0.58266 0.0
N518 N 0.39867 0.16382 0.64018 0.0
H519 H 0.86066 0.36554 0.66146 0.0
H520 H 0.94646 0.5171 0.61297 0.0
H521 H 0.82515 0.43999 0.64098 0.0
H522 H 0.96102 0.44094 0.574 0.0
H523 H 0.90788 0.48808 0.63757 0.0
H524 H 0.90276 0.3921 0.64127 0.0
C525 C 0.86145 0.38729 0.65274 0.0
C526 C 0.83894 0.40037 0.65327 0.0
C527 C 0.9198 0.47772 0.62398 0.0
C528 C 0.88765 0.4311 0.63135 0.0
C529 C 0.942 0.49418 0.61015 0.0
C530 C 0.95703 0.48146 0.59128 0.0
C531 C 0.91279 0.44821 0.6195 0.0
C532 C 0.94995 0.45162 0.58829 0.0
C533 C 0.88565 0.40245 0.64146 0.0
C534 C 0.84185 0.42897 0.64209 0.0
N535 N 0.92827 0.43594 0.60225 0.0
N536 N 0.86573 0.44336 0.63191 0.0
H537 H 0.6928 0.84617 0.60588 0.0
H538 H 0.56394 0.89448 0.5233 0.0
H539 H 0.62957 0.78959 0.55524 0.0
H540 H 0.62947 0.9526 0.56895 0.0
H541 H 0.59062 0.85733 0.52889 0.0
H542 H 0.67306 0.88675 0.58681 0.0
C543 C 0.675 0.84234 0.59038 0.0
C544 C 0.66254 0.81443 0.5825 0.0
C545 C 0.59929 0.87828 0.53744 0.0
C546 C 0.63965 0.86066 0.56097 0.0
C547 C 0.58405 0.89954 0.53426 0.0
C548 C 0.59434 0.92658 0.54608 0.0
C549 C 0.62486 0.88395 0.55296 0.0
C550 C 0.62059 0.93193 0.55986 0.0
C551 C 0.66366 0.8655 0.5796 0.0
C552 C 0.63942 0.81069 0.56248 0.0
N553 N 0.63483 0.91066 0.56328 0.0
N554 N 0.62855 0.83352 0.55266 0.0
H555 H 0.39849 0.23733 0.4743 0.0
H556 H 0.38746 0.06889 0.46148 0.0
H557 H 0.33511 0.18311 0.42142 0.0
H558 H 0.45637 0.12543 0.50339 0.0
H559 H 0.36454 0.10922 0.45338 0.0
H560 H 0.41648 0.19516 0.49189 0.0
C561 C 0.38823 0.2165 0.46662 0.0
C562 C 0.36546 0.2137 0.44613 0.0
C563 C 0.3846 0.11272 0.46455 0.0
C564 C 0.38601 0.16548 0.46592 0.0
C565 C 0.39769 0.08971 0.46919 0.0
C566 C 0.424 0.09389 0.48276 0.0
C567 C 0.39794 0.14003 0.47356 0.0
C568 C 0.43618 0.12126 0.49259 0.0
C569 C 0.39856 0.19247 0.47655 0.0
C570 C 0.35304 0.18625 0.43674 0.0
N571 N 0.42311 0.14335 0.48759 0.0
N572 N 0.36356 0.16319 0.4466 0.0
H573 H 0.82391 0.43234 0.34994 0.0
H574 H 0.93459 0.42573 0.4885 0.0
H575 H 0.82068 0.36004 0.41375 0.0
H576 H 0.92914 0.50203 0.43374 0.0
H577 H 0.89658 0.39893 0.45712 0.0
H578 H 0.86573 0.45605 0.37654 0.0
C579 C 0.8319 0.42142 0.36957 0.0
C580 C 0.81846 0.39415 0.37966 0.0
C581 C 0.90392 0.42145 0.45171 0.0
C582 C 0.86683 0.42118 0.4101 0.0
C583 C 0.9257 0.4366 0.46943 0.0
C584 C 0.935 0.46591 0.46334 0.0
C585 C 0.89144 0.43583 0.42784 0.0
C586 C 0.92257 0.47933 0.43889 0.0
C587 C 0.85594 0.43494 0.38466 0.0
C588 C 0.83033 0.3809 0.40487 0.0
N589 N 0.9014 0.46422 0.42207 0.0
N590 N 0.85371 0.39457 0.41927 0.0
H591 H 0.68465 0.84874 0.42038 0.0
H592 H 0.54567 0.90001 0.42839 0.0
H593 H 0.61756 0.82796 0.35402 0.0
H594 H 0.61879 0.94387 0.47527 0.0
H595 H 0.57183 0.87186 0.40288 0.0
H596 H 0.66116 0.88203 0.44291 0.0
C597 C 0.66505 0.85124 0.41049 0.0
C598 C 0.65306 0.8355 0.38525 0.0
C599 C 0.5823 0.8878 0.4185 0.0
C600 C 0.62613 0.87343 0.41094 0.0
C601 C 0.56735 0.90386 0.43313 0.0
C602 C 0.58012 0.92439 0.45386 0.0
C603 C 0.61028 0.89178 0.425 0.0
C604 C 0.60825 0.92847 0.45915 0.0
C605 C 0.65176 0.87037 0.42324 0.0
C606 C 0.62773 0.83981 0.37323 0.0
N607 N 0.62242 0.91204 0.44505 0.0
N608 N 0.61506 0.85812 0.38632 0.0
H609 H 0.16434 0.65806 0.40414 0.0
H610 H 0.06065 0.50732 0.4025 0.0
H611 H 0.16443 0.59329 0.33948 0.0
H612 H 0.05908 0.57314 0.46553 0.0
H613 H 0.09566 0.54034 0.37591 0.0
H614 H 0.12345 0.62886 0.42424 0.0
C615 C 0.15574 0.63773 0.39411 0.0
C616 C 0.168 0.62808 0.37018 0.0
C617 C 0.08743 0.54768 0.39534 0.0
C618 C 0.12097 0.59454 0.393 0.0
C619 C 0.06733 0.52884 0.4105 0.0
C620 C 0.05697 0.53731 0.4365 0.0
C621 C 0.09743 0.57518 0.4063 0.0
C622 C 0.06646 0.56554 0.44568 0.0
C623 C 0.13228 0.62113 0.40548 0.0
C624 C 0.15561 0.60175 0.35776 0.0
N625 N 0.08633 0.58332 0.43082 0.0
N626 N 0.13295 0.58583 0.36945 0.0
H627 H 0.42867 0.82746 0.69355 0.0
H628 H 0.4464 0.95043 0.56136 0.0
H629 H 0.36794 0.83425 0.62127 0.0
H630 H 0.51016 0.93776 0.62784 0.0
H631 H 0.41554 0.91177 0.58679 0.0
H632 H 0.45686 0.87118 0.67326 0.0
C633 C 0.42111 0.83829 0.67359 0.0
C634 C 0.39586 0.82706 0.6591 0.0
C635 C 0.43621 0.91764 0.596 0.0
C636 C 0.42827 0.87716 0.63551 0.0
C637 C 0.45386 0.93989 0.5816 0.0
C638 C 0.48106 0.94736 0.59233 0.0
C639 C 0.44573 0.9027 0.6214 0.0
C640 C 0.48945 0.93273 0.61862 0.0
C641 C 0.43732 0.86321 0.6619 0.0
C642 C 0.38739 0.84188 0.63299 0.0
N643 N 0.47192 0.91101 0.63209 0.0
N644 N 0.40356 0.8661 0.62202 0.0
H645 H 0.19885 0.38342 0.67888 0.0
H646 H 0.07438 0.38953 0.55817 0.0
H647 H 0.17417 0.32019 0.61062 0.0
H648 H 0.12134 0.46324 0.60301 0.0
H649 H 0.10531 0.3602 0.58263 0.0
H650 H 0.16468 0.40924 0.65702 0.0
C651 C 0.18601 0.37479 0.65947 0.0
C652 C 0.18934 0.34958 0.64659 0.0
C653 C 0.10863 0.38275 0.58723 0.0
C654 C 0.15019 0.3792 0.62128 0.0
C655 C 0.09091 0.39939 0.57352 0.0
C656 C 0.09531 0.42879 0.57871 0.0
C657 C 0.13044 0.39558 0.60669 0.0
C658 C 0.11725 0.44066 0.59837 0.0
C659 C 0.16664 0.38966 0.64686 0.0
C660 C 0.17238 0.33966 0.62111 0.0
N661 N 0.13389 0.42403 0.61171 0.0
N662 N 0.15345 0.35446 0.6093 0.0
H663 H 0.59797 0.19888 0.66445 0.0
H664 H 0.58463 0.0743 0.54558 0.0
H665 H 0.66248 0.19196 0.60821 0.0
H666 H 0.51786 0.09548 0.58833 0.0
H667 H 0.61553 0.11249 0.57355 0.0
H668 H 0.5703 0.15648 0.64167 0.0
C669 C 0.60633 0.18855 0.64719 0.0
C670 C 0.63254 0.1994 0.63797 0.0
C671 C 0.59413 0.10857 0.57696 0.0
C672 C 0.60089 0.15022 0.61198 0.0
C673 C 0.57661 0.08671 0.56122 0.0
C674 C 0.54875 0.082 0.56464 0.0
C675 C 0.58359 0.12546 0.59638 0.0
C676 C 0.53917 0.09874 0.58482 0.0
C677 C 0.59053 0.16416 0.63431 0.0
C678 C 0.64244 0.1844 0.61612 0.0
N679 N 0.55651 0.1197 0.59987 0.0
N680 N 0.62657 0.16068 0.60374 0.0
H681 H 0.79373 0.59468 0.58777 0.0
H682 H 0.94576 0.62964 0.54538 0.0
H683 H 0.83326 0.67986 0.55975 0.0
H684 H 0.89622 0.54461 0.54265 0.0
H685 H 0.90507 0.64905 0.54975 0.0
H686 H 0.83106 0.57588 0.57006 0.0
C687 C 0.81021 0.60927 0.5774 0.0
C688 C 0.81076 0.63869 0.57513 0.0
C689 C 0.90315 0.62619 0.54788 0.0
C690 C 0.85359 0.61773 0.55556 0.0
C691 C 0.92633 0.61511 0.54568 0.0
C692 C 0.92431 0.5855 0.54415 0.0
C693 C 0.87799 0.60739 0.54905 0.0
C694 C 0.89868 0.56758 0.54409 0.0
C695 C 0.83144 0.59863 0.56729 0.0
C696 C 0.83236 0.65698 0.56171 0.0
N697 N 0.87654 0.57879 0.54687 0.0
N698 N 0.85327 0.64623 0.55279 0.0
H699 H 0.31953 0.38052 0.2188 0.0
H700 H 0.44386 0.48792 0.14861 0.0
H701 H 0.37822 0.43994 0.2718 0.0
H702 H 0.38224 0.43249 0.09464 0.0
H703 H 0.41745 0.47441 0.19311 0.0
H704 H 0.3396 0.40269 0.17236 0.0
C705 C 0.33654 0.39837 0.22062 0.0
C706 C 0.34741 0.40822 0.24919 0.0
C707 C 0.40957 0.4654 0.17148 0.0
C708 C 0.3705 0.4337 0.1962 0.0
C709 C 0.42465 0.47312 0.14601 0.0
C710 C 0.41542 0.46104 0.1179 0.0
C711 C 0.38519 0.44523 0.1689 0.0
C712 C 0.39029 0.44211 0.11592 0.0
C713 C 0.34792 0.41111 0.19411 0.0
C714 C 0.36915 0.43173 0.25024 0.0
N715 N 0.3762 0.43454 0.14117 0.0
N716 N 0.38018 0.44346 0.22414 0.0
H717 H 0.36193 0.5926 0.85478 0.0
H718 H 0.50544 0.61726 0.94864 0.0
H719 H 0.42521 0.66724 0.84316 0.0
H720 H 0.44228 0.54297 0.96308 0.0
H721 H 0.47451 0.63775 0.91336 0.0
H722 H 0.38922 0.57575 0.89744 0.0
C723 C 0.38142 0.60558 0.86134 0.0
C724 C 0.39138 0.63123 0.84506 0.0
C725 C 0.46728 0.6171 0.92447 0.0
C726 C 0.42281 0.61201 0.8938 0.0
C727 C 0.48495 0.6054 0.94476 0.0
C728 C 0.47659 0.57822 0.95881 0.0
C729 C 0.44101 0.60149 0.91787 0.0
C730 C 0.4497 0.56397 0.95284 0.0
C731 C 0.39705 0.5959 0.88564 0.0
C732 C 0.4169 0.64704 0.85455 0.0
N733 N 0.43298 0.57562 0.93259 0.0
N734 N 0.43172 0.63712 0.8781 0.0
H735 H 0.36229 0.35117 0.8697 0.0
H736 H 0.47425 0.49359 0.89806 0.0
H737 H 0.40359 0.40518 0.79897 0.0
H738 H 0.44518 0.4346 0.9717 0.0
H739 H 0.44462 0.4631 0.86228 0.0
H740 H 0.38888 0.38276 0.90795 0.0
C741 C 0.37686 0.3697 0.86222 0.0
C742 C 0.38085 0.37542 0.83106 0.0
C743 C 0.44459 0.45671 0.88624 0.0
C744 C 0.41119 0.41158 0.87461 0.0
C745 C 0.46153 0.47421 0.90681 0.0
C746 C 0.46245 0.46658 0.93803 0.0
C747 C 0.42821 0.43119 0.8967 0.0
C748 C 0.44521 0.44127 0.94784 0.0
C749 C 0.39208 0.38762 0.88405 0.0
C750 C 0.4001 0.39962 0.82269 0.0
N751 N 0.42885 0.42437 0.9272 0.0
N752 N 0.41445 0.41674 0.84427 0.0
H753 H 0.68322 0.42435 0.83353 0.0
H754 H 0.54131 0.44576 0.88359 0.0
H755 H 0.60749 0.3672 0.81073 0.0
H756 H 0.6152 0.48138 0.93486 0.0
H757 H 0.56644 0.42071 0.85308 0.0
H758 H 0.66002 0.44846 0.86807 0.0
C759 C 0.66183 0.41665 0.8359 0.0
C760 C 0.64731 0.39379 0.81876 0.0
C761 C 0.57725 0.4339 0.87104 0.0
C762 C 0.62064 0.42175 0.85786 0.0
C763 C 0.56291 0.4484 0.88842 0.0
C764 C 0.57616 0.46573 0.91188 0.0
C765 C 0.60524 0.43692 0.87669 0.0
C766 C 0.60419 0.46812 0.91709 0.0
C767 C 0.64861 0.43055 0.85556 0.0
C768 C 0.61952 0.38511 0.8227 0.0
N769 N 0.61789 0.454 0.89946 0.0
N770 N 0.60715 0.3992 0.84156 0.0
H771 H 0.6197 0.58809 0.7568 0.0
H772 H 0.62512 0.58441 0.93846 0.0
H773 H 0.68476 0.63681 0.81248 0.0
H774 H 0.56027 0.53529 0.88272 0.0
H775 H 0.6497 0.59973 0.89285 0.0
H776 H 0.59974 0.56494 0.80288 0.0
C777 C 0.62979 0.59388 0.77874 0.0
C778 C 0.65378 0.61458 0.78085 0.0
C779 C 0.63019 0.5854 0.89063 0.0
C780 C 0.63118 0.58808 0.83365 0.0
C781 C 0.61615 0.57663 0.91668 0.0
C782 C 0.59041 0.5589 0.91434 0.0
C783 C 0.61837 0.57647 0.86205 0.0
C784 C 0.57991 0.54925 0.88557 0.0
C785 C 0.61849 0.58054 0.80502 0.0
C786 C 0.6663 0.62086 0.80981 0.0
N787 N 0.59382 0.55839 0.8605 0.0
N788 N 0.65473 0.60784 0.8351 0.0
H789 H 0.64122 0.6696 0.16322 0.0
H790 H 0.53498 0.52318 0.1333 0.0
H791 H 0.60831 0.60841 0.23331 0.0
H792 H 0.55898 0.5859 0.06102 0.0
H793 H 0.56468 0.5535 0.16918 0.0
H794 H 0.61341 0.63932 0.12477 0.0
C795 C 0.62811 0.64992 0.17058 0.0
C796 C 0.62732 0.6415 0.20164 0.0
C797 C 0.5636 0.56076 0.14551 0.0
C798 C 0.59573 0.60665 0.15771 0.0
C799 C 0.5466 0.54337 0.12488 0.0
C800 C 0.54425 0.55207 0.09404 0.0
C801 C 0.57855 0.5873 0.13548 0.0
C802 C 0.56012 0.57837 0.08459 0.0
C803 C 0.61238 0.63258 0.14858 0.0
C804 C 0.61011 0.61561 0.2097 0.0
N805 N 0.57653 0.59517 0.10529 0.0
N806 N 0.59513 0.5992 0.18796 0.0
H807 H 0.32392 0.59596 0.19805 0.0
H808 H 0.46557 0.57392 0.1478 0.0
H809 H 0.39981 0.65311 0.22018 0.0
H810 H 0.39144 0.53772 0.09728 0.0
H811 H 0.44059 0.59916 0.17825 0.0
H812 H 0.34697 0.5713 0.16388 0.0
C813 C 0.34532 0.60353 0.19562 0.0
C814 C 0.35993 0.62658 0.21242 0.0
C815 C 0.4297 0.5858 0.16047 0.0
C816 C 0.3864 0.59803 0.17375 0.0
C817 C 0.44395 0.57121 0.14311 0.0
C818 C 0.43058 0.55368 0.11987 0.0
C819 C 0.40169 0.58269 0.155 0.0
C820 C 0.40253 0.55117 0.11486 0.0
C821 C 0.35844 0.58933 0.17618 0.0
C822 C 0.38772 0.63507 0.20845 0.0
N823 N 0.38892 0.56541 0.13246 0.0
N824 N 0.4 0.62071 0.18978 0.0
H825 H 0.61907 0.42786 0.2066 0.0
H826 H 0.50872 0.39874 0.07286 0.0
H827 H 0.61168 0.35124 0.15576 0.0
H828 H 0.55888 0.48284 0.08259 0.0
H829 H 0.54092 0.37893 0.10797 0.0
H830 H 0.59182 0.44714 0.16613 0.0
C831 C 0.61215 0.41507 0.18697 0.0
C832 C 0.618 0.38764 0.18503 0.0
C833 C 0.54494 0.40164 0.102 0.0
C834 C 0.58556 0.4095 0.13904 0.0
C835 C 0.52664 0.41293 0.08204 0.0
C836 C 0.53123 0.44243 0.07462 0.0
C837 C 0.5674 0.42014 0.11536 0.0
C838 C 0.55469 0.45993 0.08737 0.0
C839 C 0.59635 0.42614 0.16393 0.0
C840 C 0.60738 0.3721 0.15903 0.0
N841 N 0.57164 0.44861 0.10751 0.0
N842 N 0.59142 0.38307 0.13731 0.0
loop_
_geom_bond_atom_site_label_1
_geom_bond_atom_site_label_2
_geom_bond_distance
_geom_bond_site_symmetry_2
_ccdc_geom_bond_type
C0 C1 1.386 . S
C0 C2 1.397 . S
C0 H24 0.931 . S
C1 C0 1.386 . S
C1 C5 1.397 . S
C2 C0 1.397 . S
C2 C3 1.384 . S
C2 H25 0.930 . S
C3 C2 1.384 . S
C3 C4 1.377 . S
C3 C6 1.481 . S
C4 C3 1.377 . S
C4 C5 1.389 . S
C4 H26 0.929 . S
C5 C1 1.397 . S
C5 C4 1.389 . S
C5 H27 0.931 . S
C6 C3 1.481 . S
C6 C7 1.387 . S
C6 C11 1.390 . S
C7 C6 1.387 . S
C7 C8 1.401 . S
C7 H28 0.930 . S
C8 C7 1.401 . S
C8 C9 1.376 . S
C8 C17 1.511 . S
C9 C8 1.376 . S
C9 C10 1.392 . S
C9 H30 0.931 . S
C10 C9 1.392 . S
C10 C11 1.361 . S
C10 C12 1.500 . S
C11 C6 1.390 . S
C11 C10 1.361 . S
C11 H29 0.931 . S
C12 C10 1.500 . S
C12 C13 1.371 . S
C12 C14 1.365 . S
C13 C12 1.371 . S
C13 C23 1.386 . S
C13 H31 0.931 . S
C14 C12 1.365 . S
C14 C15 1.409 . S
C14 H32 0.929 . S
C15 C14 1.409 . S
C15 C16 1.380 . S
C15 H33 0.930 . S
C16 C15 1.380 . S
C16 C23 1.357 . S
C17 C8 1.511 . S
C17 C18 1.341 . S
C17 C19 1.371 . S
C18 C17 1.341 . S
C18 C22 1.394 . S
C18 H34 0.930 . S
C19 C17 1.371 . S
C19 C20 1.392 . S
C19 H35 0.931 . S
C20 C19 1.392 . S
C20 C21 1.331 . S
C20 H38 0.932 . S
C21 C20 1.331 . S
C21 C22 1.336 . S
C22 C18 1.394 . S
C22 C21 1.336 . S
C22 H37 0.929 . S
C23 C13 1.386 . S
C23 C16 1.357 . S
C23 H36 0.928 . S
H24 C0 0.931 . S
H25 C2 0.930 . S
H26 C4 0.929 . S
H27 C5 0.931 . S
H28 C7 0.930 . S
H29 C11 0.931 . S
H30 C9 0.931 . S
H31 C13 0.931 . S
H32 C14 0.929 . S
H33 C15 0.930 . S
H34 C18 0.930 . S
H35 C19 0.931 . S
H36 C23 0.928 . S
H37 C22 0.929 . S
H38 C20 0.932 . S
C39 C40 1.386 . S
C39 C41 1.397 . S
C39 H63 0.931 . S
C40 C39 1.386 . S
C40 C44 1.397 . S
C41 C39 1.397 . S
C41 C42 1.384 . S
C41 H64 0.930 . S
C42 C41 1.384 . S
C42 C43 1.377 . S
C42 C45 1.481 . S
C43 C42 1.377 . S
C43 C44 1.389 . S
C43 H65 0.929 . S
C44 C40 1.397 . S
C44 C43 1.389 . S
C44 H66 0.931 . S
C45 C42 1.481 . S
C45 C46 1.387 . S
C45 C50 1.390 . S
C46 C45 1.387 . S
C46 C47 1.401 . S
C46 H67 0.930 . S
C47 C46 1.401 . S
C47 C48 1.376 . S
C47 C56 1.511 . S
C48 C47 1.376 . S
C48 C49 1.392 . S
C48 H69 0.931 . S
C49 C48 1.392 . S
C49 C50 1.361 . S
C49 C51 1.500 . S
C50 C45 1.390 . S
C50 C49 1.361 . S
C50 H68 0.931 . S
C51 C49 1.500 . S
C51 C52 1.371 . S
C51 C53 1.365 . S
C52 C51 1.371 . S
C52 C62 1.386 . S
C52 H70 0.931 . S
C53 C51 1.365 . S
C53 C54 1.409 . S
C53 H71 0.929 . S
C54 C53 1.409 . S
C54 C55 1.380 . S
C54 H72 0.930 . S
C55 C54 1.380 . S
C55 C62 1.357 . S
C56 C47 1.511 . S
C56 C57 1.341 . S
C56 C58 1.371 . S
C57 C56 1.341 . S
C57 C61 1.394 . S
C57 H73 0.930 . S
C58 C56 1.371 . S
C58 C59 1.392 . S
C58 H74 0.931 . S
C59 C58 1.392 . S
C59 C60 1.331 . S
C59 H77 0.932 . S
C60 C59 1.331 . S
C60 C61 1.336 . S
C61 C57 1.394 . S
C61 C60 1.336 . S
C61 H76 0.929 . S
C62 C52 1.386 . S
C62 C55 1.357 . S
C62 H75 0.928 . S
H63 C39 0.931 . S
H64 C41 0.930 . S
H65 C43 0.929 . S
H66 C44 0.931 . S
H67 C46 0.930 . S
H68 C50 0.931 . S
H69 C48 0.931 . S
H70 C52 0.931 . S
H71 C53 0.929 . S
H72 C54 0.930 . S
H73 C57 0.930 . S
H74 C58 0.931 . S
H75 C62 0.928 . S
H76 C61 0.929 . S
H77 C59 0.932 . S
C78 C79 1.386 . S
C78 C80 1.397 . S
C78 H102 0.931 . S
C79 C78 1.386 . S
C79 C83 1.397 . S
C80 C78 1.397 . S
C80 C81 1.384 . S
C80 H103 0.930 . S
C81 C80 1.384 . S
C81 C82 1.377 . S
C81 C84 1.481 . S
C82 C81 1.377 . S
C82 C83 1.389 . S
C82 H104 0.929 . S
C83 C79 1.397 . S
C83 C82 1.389 . S
C83 H105 0.931 . S
C84 C81 1.481 . S
C84 C85 1.387 . S
C84 C89 1.390 . S
C85 C84 1.387 . S
C85 C86 1.401 . S
C85 H106 0.930 . S
C86 C85 1.401 . S
C86 C87 1.376 . S
C86 C95 1.511 . S
C87 C86 1.376 . S
C87 C88 1.392 . S
C87 H108 0.931 . S
C88 C87 1.392 . S
C88 C89 1.361 . S
C88 C90 1.500 . S
C89 C84 1.390 . S
C89 C88 1.361 . S
C89 H107 0.931 . S
C90 C88 1.500 . S
C90 C91 1.371 . S
C90 C92 1.365 . S
C91 C90 1.371 . S
C91 C101 1.386 . S
C91 H109 0.931 . S
C92 C90 1.365 . S
C92 C93 1.409 . S
C92 H110 0.929 . S
C93 C92 1.409 . S
C93 C94 1.380 . S
C93 H111 0.930 . S
C94 C93 1.380 . S
C94 C101 1.357 . S
C95 C86 1.511 . S
C95 C96 1.341 . S
C95 C97 1.371 . S
C96 C95 1.341 . S
C96 C100 1.394 . S
C96 H112 0.930 . S
C97 C95 1.371 . S
C97 C98 1.392 . S
C97 H113 0.931 . S
C98 C97 1.392 . S
C98 C99 1.331 . S
C98 H116 0.932 . S
C99 C98 1.331 . S
C99 C100 1.336 . S
C100 C96 1.394 . S
C100 C99 1.336 . S
C100 H115 0.929 . S
C101 C91 1.386 . S
C101 C94 1.357 . S
C101 H114 0.928 . S
H102 C78 0.931 . S
H103 C80 0.930 . S
H104 C82 0.929 . S
H105 C83 0.931 . S
H106 C85 0.930 . S
H107 C89 0.931 . S
H108 C87 0.931 . S
H109 C91 0.931 . S
H110 C92 0.929 . S
H111 C93 0.930 . S
H112 C96 0.930 . S
H113 C97 0.931 . S
H114 C101 0.928 . S
H115 C100 0.929 . S
H116 C98 0.932 . S
C117 C118 1.386 . S
C117 C119 1.397 . S
C117 H141 0.931 . S
C118 C117 1.386 . S
C118 C122 1.397 . S
C119 C117 1.397 . S
C119 C120 1.384 . S
C119 H142 0.930 . S
C120 C119 1.384 . S
C120 C121 1.377 . S
C120 C123 1.481 . S
C121 C120 1.377 . S
C121 C122 1.389 . S
C121 H143 0.929 . S
C122 C118 1.397 . S
C122 C121 1.389 . S
C122 H144 0.931 . S
C123 C120 1.481 . S
C123 C124 1.387 . S
C123 C128 1.390 . S
C124 C123 1.387 . S
C124 C125 1.401 . S
C124 H145 0.930 . S
C125 C124 1.401 . S
C125 C126 1.376 . S
C125 C134 1.511 . S
C126 C125 1.376 . S
C126 C127 1.392 . S
C126 H147 0.931 . S
C127 C126 1.392 . S
C127 C128 1.361 . S
C127 C129 1.500 . S
C128 C123 1.390 . S
C128 C127 1.361 . S
C128 H146 0.931 . S
C129 C127 1.500 . S
C129 C130 1.371 . S
C129 C131 1.365 . S
C130 C129 1.371 . S
C130 C140 1.386 . S
C130 H148 0.931 . S
C131 C129 1.365 . S
C131 C132 1.409 . S
C131 H149 0.929 . S
C132 C131 1.409 . S
C132 C133 1.380 . S
C132 H150 0.930 . S
C133 C132 1.380 . S
C133 C140 1.357 . S
C134 C125 1.511 . S
C134 C135 1.341 . S
C134 C136 1.371 . S
C135 C134 1.341 . S
C135 C139 1.394 . S
C135 H151 0.930 . S
C136 C134 1.371 . S
C136 C137 1.392 . S
C136 H152 0.931 . S
C137 C136 1.392 . S
C137 C138 1.331 . S
C137 H155 0.932 . S
C138 C137 1.331 . S
C138 C139 1.336 . S
C139 C135 1.394 . S
C139 C138 1.336 . S
C139 H154 0.929 . S
C140 C130 1.386 . S
C140 C133 1.357 . S
C140 H153 0.928 . S
H141 C117 0.931 . S
H142 C119 0.930 . S
H143 C121 0.929 . S
H144 C122 0.931 . S
H145 C124 0.930 . S
H146 C128 0.931 . S
H147 C126 0.931 . S
H148 C130 0.931 . S
H149 C131 0.929 . S
H150 C132 0.930 . S
H151 C135 0.930 . S
H152 C136 0.931 . S
H153 C140 0.928 . S
H154 C139 0.929 . S
H155 C137 0.932 . S
C156 C157 1.386 . S
C156 C158 1.397 . S
C156 H180 0.931 . S
C157 C156 1.386 . S
C157 C161 1.397 . S
C158 C156 1.397 . S
C158 C159 1.384 . S
C158 H181 0.930 . S
C159 C158 1.384 . S
C159 C160 1.377 . S
C159 C162 1.481 . S
C160 C159 1.377 . S
C160 C161 1.389 . S
C160 H182 0.929 . S
C161 C157 1.397 . S
C161 C160 1.389 . S
C161 H183 0.931 . S
C162 C159 1.481 . S
C162 C163 1.387 . S
C162 C167 1.390 . S
C163 C162 1.387 . S
C163 C164 1.401 . S
C163 H184 0.930 . S
C164 C163 1.401 . S
C164 C165 1.376 . S
C164 C173 1.511 . S
C165 C164 1.376 . S
C165 C166 1.392 . S
C165 H186 0.931 . S
C166 C165 1.392 . S
C166 C167 1.361 . S
C166 C168 1.500 . S
C167 C162 1.390 . S
C167 C166 1.361 . S
C167 H185 0.931 . S
C168 C166 1.500 . S
C168 C169 1.371 . S
C168 C170 1.365 . S
C169 C168 1.371 . S
C169 C179 1.386 . S
C169 H187 0.931 . S
C170 C168 1.365 . S
C170 C171 1.409 . S
C170 H188 0.929 . S
C171 C170 1.409 . S
C171 C172 1.380 . S
C171 H189 0.930 . S
C172 C171 1.380 . S
C172 C179 1.357 . S
C173 C164 1.511 . S
C173 C174 1.341 . S
C173 C175 1.371 . S
C174 C173 1.341 . S
C174 C178 1.394 . S
C174 H190 0.930 . S
C175 C173 1.371 . S
C175 C176 1.392 . S
C175 H191 0.931 . S
C176 C175 1.392 . S
C176 C177 1.331 . S
C176 H194 0.932 . S
C177 C176 1.331 . S
C177 C178 1.336 . S
C178 C174 1.394 . S
C178 C177 1.336 . S
C178 H193 0.929 . S
C179 C169 1.386 . S
C179 C172 1.357 . S
C179 H192 0.928 . S
H180 C156 0.931 . S
H181 C158 0.930 . S
H182 C160 0.929 . S
H183 C161 0.931 . S
H184 C163 0.930 . S
H185 C167 0.931 . S
H186 C165 0.931 . S
H187 C169 0.931 . S
H188 C170 0.929 . S
H189 C171 0.930 . S
H190 C174 0.930 . S
H191 C175 0.931 . S
H192 C179 0.928 . S
H193 C178 0.929 . S
H194 C176 0.932 . S
C195 C196 1.386 . S
C195 C197 1.397 . S
C195 H219 0.931 . S
C196 C195 1.386 . S
C196 C200 1.397 . S
C197 C195 1.397 . S
C197 C198 1.384 . S
C197 H220 0.930 . S
C198 C197 1.384 . S
C198 C199 1.377 . S
C198 C201 1.481 . S
C199 C198 1.377 . S
C199 C200 1.389 . S
C199 H221 0.929 . S
C200 C196 1.397 . S
C200 C199 1.389 . S
C200 H222 0.931 . S
C201 C198 1.481 . S
C201 C202 1.387 . S
C201 C206 1.390 . S
C202 C201 1.387 . S
C202 C203 1.401 . S
C202 H223 0.930 . S
C203 C202 1.401 . S
C203 C204 1.376 . S
C203 C212 1.511 . S
C204 C203 1.376 . S
C204 C205 1.392 . S
C204 H225 0.931 . S
C205 C204 1.392 . S
C205 C206 1.361 . S
C205 C207 1.500 . S
C206 C201 1.390 . S
C206 C205 1.361 . S
C206 H224 0.931 . S
C207 C205 1.500 . S
C207 C208 1.371 . S
C207 C209 1.365 . S
C208 C207 1.371 . S
C208 C218 1.386 . S
C208 H226 0.931 . S
C209 C207 1.365 . S
C209 C210 1.409 . S
C209 H227 0.929 . S
C210 C209 1.409 . S
C210 C211 1.380 . S
C210 H228 0.930 . S
C211 C210 1.380 . S
C211 C218 1.357 . S
C212 C203 1.511 . S
C212 C213 1.341 . S
C212 C214 1.371 . S
C213 C212 1.341 . S
C213 C217 1.394 . S
C213 H229 0.930 . S
C214 C212 1.371 . S
C214 C215 1.392 . S
C214 H230 0.931 . S
C215 C214 1.392 . S
C215 C216 1.331 . S
C215 H233 0.932 . S
C216 C215 1.331 . S
C216 C217 1.336 . S
C217 C213 1.394 . S
C217 C216 1.336 . S
C217 H232 0.929 . S
C218 C208 1.386 . S
C218 C211 1.357 . S
C218 H231 0.928 . S
H219 C195 0.931 . S
H220 C197 0.930 . S
H221 C199 0.929 . S
H222 C200 0.931 . S
H223 C202 0.930 . S
H224 C206 0.931 . S
H225 C204 0.931 . S
H226 C208 0.931 . S
H227 C209 0.929 . S
H228 C210 0.930 . S
H229 C213 0.930 . S
H230 C214 0.931 . S
H231 C218 0.928 . S
H232 C217 0.929 . S
H233 C215 0.932 . S
C234 C235 1.386 . S
C234 C236 1.397 . S
C234 H258 0.931 . S
C235 C234 1.386 . S
C235 C239 1.397 . S
C236 C234 1.397 . S
C236 C237 1.384 . S
C236 H259 0.930 . S
C237 C236 1.384 . S
C237 C238 1.377 . S
C237 C240 1.481 . S
C238 C237 1.377 . S
C238 C239 1.389 . S
C238 H260 0.929 . S
C239 C235 1.397 . S
C239 C238 1.389 . S
C239 H261 0.931 . S
C240 C237 1.481 . S
C240 C241 1.387 . S
C240 C245 1.390 . S
C241 C240 1.387 . S
C241 C242 1.401 . S
C241 H262 0.930 . S
C242 C241 1.401 . S
C242 C243 1.376 . S
C242 C251 1.511 . S
C243 C242 1.376 . S
C243 C244 1.392 . S
C243 H264 0.931 . S
C244 C243 1.392 . S
C244 C245 1.361 . S
C244 C246 1.500 . S
C245 C240 1.390 . S
C245 C244 1.361 . S
C245 H263 0.931 . S
C246 C244 1.500 . S
C246 C247 1.371 . S
C246 C248 1.365 . S
C247 C246 1.371 . S
C247 C257 1.386 . S
C247 H265 0.931 . S
C248 C246 1.365 . S
C248 C249 1.409 . S
C248 H266 0.929 . S
C249 C248 1.409 . S
C249 C250 1.380 . S
C249 H267 0.930 . S
C250 C249 1.380 . S
C250 C257 1.357 . S
C251 C242 1.511 . S
C251 C252 1.341 . S
C251 C253 1.371 . S
C252 C251 1.341 . S
C252 C256 1.394 . S
C252 H268 0.930 . S
C253 C251 1.371 . S
C253 C254 1.392 . S
C253 H269 0.931 . S
C254 C253 1.392 . S
C254 C255 1.331 . S
C254 H272 0.932 . S
C255 C254 1.331 . S
C255 C256 1.336 . S
C256 C252 1.394 . S
C256 C255 1.336 . S
C256 H271 0.929 . S
C257 C247 1.386 . S
C257 C250 1.357 . S
C257 H270 0.928 . S
H258 C234 0.931 . S
H259 C236 0.930 . S
H260 C238 0.929 . S
H261 C239 0.931 . S
H262 C241 0.930 . S
H263 C245 0.931 . S
H264 C243 0.931 . S
H265 C247 0.931 . S
H266 C248 0.929 . S
H267 C249 0.930 . S
H268 C252 0.930 . S
H269 C253 0.931 . S
H270 C257 0.928 . S
H271 C256 0.929 . S
H272 C254 0.932 . S
C273 C274 1.386 . S
C273 C275 1.397 . S
C273 H297 0.931 . S
C274 C273 1.386 . S
C274 C278 1.397 . S
C275 C273 1.397 . S
C275 C276 1.384 . S
C275 H298 0.930 . S
C276 C275 1.384 . S
C276 C277 1.377 . S
C276 C279 1.481 . S
C277 C276 1.377 . S
C277 C278 1.389 . S
C277 H299 0.929 . S
C278 C274 1.397 . S
C278 C277 1.389 . S
C278 H300 0.931 . S
C279 C276 1.481 . S
C279 C280 1.387 . S
C279 C284 1.390 . S
C280 C279 1.387 . S
C280 C281 1.401 . S
C280 H301 0.930 . S
C281 C280 1.401 . S
C281 C282 1.376 . S
C281 C290 1.511 . S
C282 C281 1.376 . S
C282 C283 1.392 . S
C282 H303 0.931 . S
C283 C282 1.392 . S
C283 C284 1.361 . S
C283 C285 1.500 . S
C284 C279 1.390 . S
C284 C283 1.361 . S
C284 H302 0.931 . S
C285 C283 1.500 . S
C285 C286 1.371 . S
C285 C287 1.365 . S
C286 C285 1.371 . S
C286 C296 1.386 . S
C286 H304 0.931 . S
C287 C285 1.365 . S
C287 C288 1.409 . S
C287 H305 0.929 . S
C288 C287 1.409 . S
C288 C289 1.380 . S
C288 H306 0.930 . S
C289 C288 1.380 . S
C289 C296 1.357 . S
C290 C281 1.511 . S
C290 C291 1.341 . S
C290 C292 1.371 . S
C291 C290 1.341 . S
C291 C295 1.394 . S
C291 H307 0.930 . S
C292 C290 1.371 . S
C292 C293 1.392 . S
C292 H308 0.931 . S
C293 C292 1.392 . S
C293 C294 1.331 . S
C293 H311 0.932 . S
C294 C293 1.331 . S
C294 C295 1.336 . S
C295 C291 1.394 . S
C295 C294 1.336 . S
C295 H310 0.929 . S
C296 C286 1.386 . S
C296 C289 1.357 . S
C296 H309 0.928 . S
H297 C273 0.931 . S
H298 C275 0.930 . S
H299 C277 0.929 . S
H300 C278 0.931 . S
H301 C280 0.930 . S
H302 C284 0.931 . S
H303 C282 0.931 . S
H304 C286 0.931 . S
H305 C287 0.929 . S
H306 C288 0.930 . S
H307 C291 0.930 . S
H308 C292 0.931 . S
H309 C296 0.928 . S
H310 C295 0.929 . S
H311 C293 0.932 . S
Co312 O315 2.042 . S
Co312 O322 2.264 . S
Co312 O341 2.286 . S
Co312 O342 2.069 . S
Co312 O344 2.015 . S
Co313 O315 2.122 . S
Co313 O321 2.073 . S
Co313 O322 2.327 . S
Co313 O323 1.976 . S
Co314 O315 2.087 . S
Co314 O317 2.087 1_455 S
Co314 O324 2.111 . S
Co314 O325 2.143 1_455 S
Co314 O329 2.111 1_455 S
Co314 O343 2.143 . S
O315 Co312 2.042 . S
O315 Co313 2.122 . S
O315 Co314 2.087 . S
O315 H316 0.980 . S
H316 O315 0.980 . S
O317 Co314 2.087 1_655 S
O317 Co318 2.042 . S
O317 Co319 2.122 . S
O317 H320 0.980 . S
Co318 O317 2.042 . S
Co318 O326 2.286 . S
Co318 O327 2.069 . S
Co318 O328 2.015 . S
Co318 O331 2.264 . S
Co319 O317 2.122 . S
Co319 O330 1.976 . S
Co319 O331 2.327 . S
Co319 O332 2.073 . S
H320 O317 0.980 . S
O321 Co313 2.073 . S
O321 C336 1.245 . S
O322 Co312 2.264 . S
O322 Co313 2.327 . S
O322 C336 1.257 . S
O323 Co313 1.976 . S
O323 C335 1.251 . S
O324 Co314 2.111 . S
O324 C335 1.274 . S
O325 Co314 2.143 1_655 S
O325 C338 1.246 . S
O326 Co318 2.286 . S
O326 C337 1.259 . S
O327 Co318 2.069 . S
O327 C337 1.289 . S
O328 Co318 2.015 . S
O328 C338 1.257 . S
O329 Co314 2.111 1_655 S
O329 C339 1.274 . S
O330 Co319 1.976 . S
O330 C339 1.251 . S
O331 Co318 2.264 . S
O331 Co319 2.327 . S
O331 C340 1.257 . S
O332 Co319 2.073 . S
O332 C340 1.245 . S
C333 O341 1.259 . S
C333 O342 1.289 . S
C334 O343 1.246 . S
C334 O344 1.257 . S
C335 O323 1.251 . S
C335 O324 1.274 . S
C336 O321 1.245 . S
C336 O322 1.257 . S
C337 O326 1.259 . S
C337 O327 1.289 . S
C338 O325 1.246 . S
C338 O328 1.257 . S
C339 O329 1.274 . S
C339 O330 1.251 . S
C340 O331 1.257 . S
C340 O332 1.245 . S
O341 Co312 2.286 . S
O341 C333 1.259 . S
O342 Co312 2.069 . S
O342 C333 1.289 . S
O343 Co314 2.143 . S
O343 C334 1.246 . S
O344 Co312 2.015 . S
O344 C334 1.257 . S
Co345 O348 2.042 . S
Co345 O355 2.264 . S
Co345 O374 2.286 . S
Co345 O375 2.069 . S
Co345 O377 2.015 . S
Co346 O348 2.122 . S
Co346 O354 2.073 . S
Co346 O355 2.327 . S
Co346 O356 1.976 . S
Co347 O348 2.087 1_545 S
Co347 O350 2.087 . S
Co347 O357 2.111 1_545 S
Co347 O358 2.143 . S
Co347 O362 2.111 . S
Co347 O376 2.143 1_545 S
O348 Co345 2.042 . S
O348 Co346 2.122 . S
O348 Co347 2.087 1_565 S
O348 H349 0.980 . S
H349 O348 0.980 . S
O350 Co347 2.087 . S
O350 Co351 2.042 . S
O350 Co352 2.122 . S
O350 H353 0.980 . S
Co351 O350 2.042 . S
Co351 O359 2.286 . S
Co351 O360 2.069 . S
Co351 O361 2.015 . S
Co351 O364 2.264 . S
Co352 O350 2.122 . S
Co352 O363 1.976 . S
Co352 O364 2.327 . S
Co352 O365 2.073 . S
H353 O350 0.980 . S
O354 Co346 2.073 . S
O354 C369 1.245 . S
O355 Co345 2.264 . S
O355 Co346 2.327 . S
O355 C369 1.257 . S
O356 Co346 1.976 . S
O356 C368 1.251 . S
O357 Co347 2.111 1_565 S
O357 C368 1.274 . S
O358 Co347 2.143 . S
O358 C371 1.246 . S
O359 Co351 2.286 . S
O359 C370 1.259 . S
O360 Co351 2.069 . S
O360 C370 1.289 . S
O361 Co351 2.015 . S
O361 C371 1.257 . S
O362 Co347 2.111 . S
O362 C372 1.274 . S
O363 Co352 1.976 . S
O363 C372 1.251 . S
O364 Co351 2.264 . S
O364 Co352 2.327 . S
O364 C373 1.257 . S
O365 Co352 2.073 . S
O365 C373 1.245 . S
C366 O374 1.259 . S
C366 O375 1.289 . S
C367 O376 1.246 . S
C367 O377 1.257 . S
C368 O356 1.251 . S
C368 O357 1.274 . S
C369 O354 1.245 . S
C369 O355 1.257 . S
C370 O359 1.259 . S
C370 O360 1.289 . S
C371 O358 1.246 . S
C371 O361 1.257 . S
C372 O362 1.274 . S
C372 O363 1.251 . S
C373 O364 1.257 . S
C373 O365 1.245 . S
O374 Co345 2.286 . S
O374 C366 1.259 . S
O375 Co345 2.069 . S
O375 C366 1.289 . S
O376 Co347 2.143 1_565 S
O376 C367 1.246 . S
O377 Co345 2.015 . S
O377 C367 1.257 . S
Co378 O381 2.042 . S
Co378 O388 2.264 . S
Co378 O407 2.286 . S
Co378 O408 2.069 . S
Co378 O410 2.015 . S
Co379 O381 2.122 . S
Co379 O387 2.073 . S
Co379 O388 2.327 . S
Co379 O389 1.976 . S
Co380 O381 2.087 . S
Co380 O383 2.087 1_554 S
Co380 O390 2.111 . S
Co380 O391 2.143 1_554 S
Co380 O395 2.111 1_554 S
Co380 O409 2.143 . S
O381 Co378 2.042 . S
O381 Co379 2.122 . S
O381 Co380 2.087 . S
O381 H382 0.980 . S
H382 O381 0.980 . S
O383 Co380 2.087 1_556 S
O383 Co384 2.042 . S
O383 Co385 2.122 . S
O383 H386 0.980 . S
Co384 O383 2.042 . S
Co384 O392 2.286 . S
Co384 O393 2.069 . S
Co384 O394 2.015 . S
Co384 O397 2.264 . S
Co385 O383 2.122 . S
Co385 O396 1.976 . S
Co385 O397 2.327 . S
Co385 O398 2.073 . S
H386 O383 0.980 . S
O387 Co379 2.073 . S
O387 C402 1.245 . S
O388 Co378 2.264 . S
O388 Co379 2.327 . S
O388 C402 1.257 . S
O389 Co379 1.976 . S
O389 C401 1.251 . S
O390 Co380 2.111 . S
O390 C401 1.274 . S
O391 Co380 2.143 1_556 S
O391 C404 1.246 . S
O392 Co384 2.286 . S
O392 C403 1.259 . S
O393 Co384 2.069 . S
O393 C403 1.289 . S
O394 Co384 2.015 . S
O394 C404 1.257 . S
O395 Co380 2.111 1_556 S
O395 C405 1.274 . S
O396 Co385 1.976 . S
O396 C405 1.251 . S
O397 Co384 2.264 . S
O397 Co385 2.327 . S
O397 C406 1.257 . S
O398 Co385 2.073 . S
O398 C406 1.245 . S
C399 O407 1.259 . S
C399 O408 1.289 . S
C400 O409 1.246 . S
C400 O410 1.257 . S
C401 O389 1.251 . S
C401 O390 1.274 . S
C402 O387 1.245 . S
C402 O388 1.257 . S
C403 O392 1.259 . S
C403 O393 1.289 . S
C404 O391 1.246 . S
C404 O394 1.257 . S
C405 O395 1.274 . S
C405 O396 1.251 . S
C406 O397 1.257 . S
C406 O398 1.245 . S
O407 Co378 2.286 . S
O407 C399 1.259 . S
O408 Co378 2.069 . S
O408 C399 1.289 . S
O409 Co380 2.143 . S
O409 C400 1.246 . S
O410 Co378 2.015 . S
O410 C400 1.257 . S
H411 C417 0.930 . S
H412 C421 0.930 . S
H413 C426 0.929 . S
H414 C424 0.929 . S
H415 C419 0.929 . S
H416 C425 0.929 . S
C417 H411 0.930 . S
C417 C418 1.367 . S
C417 C425 1.378 . S
C418 C417 1.367 . S
C418 C426 1.433 . S
C419 H415 0.929 . S
C419 C421 1.378 . S
C419 C423 1.350 . S
C420 C423 1.463 . S
C420 C425 1.350 . S
C420 N428 1.427 . S
C421 H412 0.930 . S
C421 C419 1.378 . S
C421 C422 1.367 . S
C422 C421 1.367 . S
C422 C424 1.433 . S
C423 C419 1.350 . S
C423 C420 1.463 . S
C423 N427 1.427 . S
C424 H414 0.929 . S
C424 C422 1.433 . S
C424 N427 1.384 . S
C425 H416 0.929 . S
C425 C417 1.378 . S
C425 C420 1.350 . S
C426 H413 0.929 . S
C426 C418 1.433 . S
C426 N428 1.384 . S
N427 C423 1.427 . S
N427 C424 1.384 . S
N428 C420 1.427 . S
N428 C426 1.384 . S
H429 C435 0.930 . S
H430 C439 0.930 . S
H431 C444 0.929 . S
H432 C442 0.929 . S
H433 C437 0.929 . S
H434 C443 0.929 . S
C435 H429 0.930 . S
C435 C436 1.367 . S
C435 C443 1.378 . S
C436 C435 1.367 . S
C436 C444 1.433 . S
C437 H433 0.929 . S
C437 C439 1.378 . S
C437 C441 1.350 . S
C438 C441 1.463 . S
C438 C443 1.350 . S
C438 N446 1.427 . S
C439 H430 0.930 . S
C439 C437 1.378 . S
C439 C440 1.367 . S
C440 C439 1.367 . S
C440 C442 1.433 . S
C441 C437 1.350 . S
C441 C438 1.463 . S
C441 N445 1.427 . S
C442 H432 0.929 . S
C442 C440 1.433 . S
C442 N445 1.384 . S
C443 H434 0.929 . S
C443 C435 1.378 . S
C443 C438 1.350 . S
C444 H431 0.929 . S
C444 C436 1.433 . S
C444 N446 1.384 . S
N445 C441 1.427 . S
N445 C442 1.384 . S
N446 C438 1.427 . S
N446 C444 1.384 . S
H447 C453 0.930 . S
H448 C457 0.930 . S
H449 C462 0.929 . S
H450 C460 0.929 . S
H451 C455 0.929 . S
H452 C461 0.929 . S
C453 H447 0.930 . S
C453 C454 1.367 . S
C453 C461 1.378 . S
C454 C453 1.367 . S
C454 C462 1.433 . S
C455 H451 0.929 . S
C455 C457 1.378 . S
C455 C459 1.350 . S
C456 C459 1.463 . S
C456 C461 1.350 . S
C456 N464 1.427 . S
C457 H448 0.930 . S
C457 C455 1.378 . S
C457 C458 1.367 . S
C458 C457 1.367 . S
C458 C460 1.433 . S
C459 C455 1.350 . S
C459 C456 1.463 . S
C459 N463 1.427 . S
C460 H450 0.929 . S
C460 C458 1.433 . S
C460 N463 1.384 . S
C461 H452 0.929 . S
C461 C453 1.378 . S
C461 C456 1.350 . S
C462 H449 0.929 . S
C462 C454 1.433 . S
C462 N464 1.384 . S
N463 C459 1.427 . S
N463 C460 1.384 . S
N464 C456 1.427 . S
N464 C462 1.384 . S
H465 C471 0.930 . S
H466 C475 0.930 . S
H467 C480 0.929 . S
H468 C478 0.929 . S
H469 C473 0.929 . S
H470 C479 0.929 . S
C471 H465 0.930 . S
C471 C472 1.367 . S
C471 C479 1.378 . S
C472 C471 1.367 . S
C472 C480 1.433 . S
C473 H469 0.929 . S
C473 C475 1.378 . S
C473 C477 1.350 . S
C474 C477 1.463 . S
C474 C479 1.350 . S
C474 N482 1.427 . S
C475 H466 0.930 . S
C475 C473 1.378 . S
C475 C476 1.367 . S
C476 C475 1.367 . S
C476 C478 1.433 . S
C477 C473 1.350 . S
C477 C474 1.463 . S
C477 N481 1.427 . S
C478 H468 0.929 . S
C478 C476 1.433 . S
C478 N481 1.384 . S
C479 H470 0.929 . S
C479 C471 1.378 . S
C479 C474 1.350 . S
C480 H467 0.929 . S
C480 C472 1.433 . S
C480 N482 1.384 . S
N481 C477 1.427 . S
N481 C478 1.384 . S
N482 C474 1.427 . S
N482 C480 1.384 . S
H483 C489 0.930 . S
H484 C493 0.930 . S
H485 C498 0.929 . S
H486 C496 0.929 . S
H487 C491 0.929 . S
H488 C497 0.929 . S
C489 H483 0.930 . S
C489 C490 1.367 . S
C489 C497 1.378 . S
C490 C489 1.367 . S
C490 C498 1.433 . S
C491 H487 0.929 . S
C491 C493 1.378 . S
C491 C495 1.350 . S
C492 C495 1.463 . S
C492 C497 1.350 . S
C492 N500 1.427 . S
C493 H484 0.930 . S
C493 C491 1.378 . S
C493 C494 1.367 . S
C494 C493 1.367 . S
C494 C496 1.433 . S
C495 C491 1.350 . S
C495 C492 1.463 . S
C495 N499 1.427 . S
C496 H486 0.929 . S
C496 C494 1.433 . S
C496 N499 1.384 . S
C497 H488 0.929 . S
C497 C489 1.378 . S
C497 C492 1.350 . S
C498 H485 0.929 . S
C498 C490 1.433 . S
C498 N500 1.384 . S
N499 C495 1.427 . S
N499 C496 1.384 . S
N500 C492 1.427 . S
N500 C498 1.384 . S
H501 C507 0.930 . S
H502 C511 0.930 . S
H503 C516 0.929 . S
H504 C514 0.929 . S
H505 C509 0.929 . S
H506 C515 0.929 . S
C507 H501 0.930 . S
C507 C508 1.367 . S
C507 C515 1.378 . S
C508 C507 1.367 . S
C508 C516 1.433 . S
C509 H505 0.929 . S
C509 C511 1.378 . S
C509 C513 1.350 . S
C510 C513 1.463 . S
C510 C515 1.350 . S
C510 N518 1.427 . S
C511 H502 0.930 . S
C511 C509 1.378 . S
C511 C512 1.367 . S
C512 C511 1.367 . S
C512 C514 1.433 . S
C513 C509 1.350 . S
C513 C510 1.463 . S
C513 N517 1.427 . S
C514 H504 0.929 . S
C514 C512 1.433 . S
C514 N517 1.384 . S
C515 H506 0.929 . S
C515 C507 1.378 . S
C515 C510 1.350 . S
C516 H503 0.929 . S
C516 C508 1.433 . S
C516 N518 1.384 . S
N517 C513 1.427 . S
N517 C514 1.384 . S
N518 C510 1.427 . S
N518 C516 1.384 . S
H519 C525 0.930 . S
H520 C529 0.930 . S
H521 C534 0.929 . S
H522 C532 0.929 . S
H523 C527 0.929 . S
H524 C533 0.929 . S
C525 H519 0.930 . S
C525 C526 1.367 . S
C525 C533 1.378 . S
C526 C525 1.367 . S
C526 C534 1.433 . S
C527 H523 0.929 . S
C527 C529 1.378 . S
C527 C531 1.350 . S
C528 C531 1.463 . S
C528 C533 1.350 . S
C528 N536 1.427 . S
C529 H520 0.930 . S
C529 C527 1.378 . S
C529 C530 1.367 . S
C530 C529 1.367 . S
C530 C532 1.433 . S
C531 C527 1.350 . S
C531 C528 1.463 . S
C531 N535 1.427 . S
C532 H522 0.929 . S
C532 C530 1.433 . S
C532 N535 1.384 . S
C533 H524 0.929 . S
C533 C525 1.378 . S
C533 C528 1.350 . S
C534 H521 0.929 . S
C534 C526 1.433 . S
C534 N536 1.384 . S
N535 C531 1.427 . S
N535 C532 1.384 . S
N536 C528 1.427 . S
N536 C534 1.384 . S
H537 C543 0.930 . S
H538 C547 0.930 . S
H539 C552 0.929 . S
H540 C550 0.929 . S
H541 C545 0.929 . S
H542 C551 0.929 . S
C543 H537 0.930 . S
C543 C544 1.367 . S
C543 C551 1.378 . S
C544 C543 1.367 . S
C544 C552 1.433 . S
C545 H541 0.929 . S
C545 C547 1.378 . S
C545 C549 1.350 . S
C546 C549 1.463 . S
C546 C551 1.350 . S
C546 N554 1.427 . S
C547 H538 0.930 . S
C547 C545 1.378 . S
C547 C548 1.367 . S
C548 C547 1.367 . S
C548 C550 1.433 . S
C549 C545 1.350 . S
C549 C546 1.463 . S
C549 N553 1.427 . S
C550 H540 0.929 . S
C550 C548 1.433 . S
C550 N553 1.384 . S
C551 H542 0.929 . S
C551 C543 1.378 . S
C551 C546 1.350 . S
C552 H539 0.929 . S
C552 C544 1.433 . S
C552 N554 1.384 . S
N553 C549 1.427 . S
N553 C550 1.384 . S
N554 C546 1.427 . S
N554 C552 1.384 . S
H555 C561 0.930 . S
H556 C565 0.930 . S
H557 C570 0.929 . S
H558 C568 0.929 . S
H559 C563 0.929 . S
H560 C569 0.929 . S
C561 H555 0.930 . S
C561 C562 1.367 . S
C561 C569 1.378 . S
C562 C561 1.367 . S
C562 C570 1.433 . S
C563 H559 0.929 . S
C563 C565 1.378 . S
C563 C567 1.350 . S
C564 C567 1.463 . S
C564 C569 1.350 . S
C564 N572 1.427 . S
C565 H556 0.930 . S
C565 C563 1.378 . S
C565 C566 1.367 . S
C566 C565 1.367 . S
C566 C568 1.433 . S
C567 C563 1.350 . S
C567 C564 1.463 . S
C567 N571 1.427 . S
C568 H558 0.929 . S
C568 C566 1.433 . S
C568 N571 1.384 . S
C569 H560 0.929 . S
C569 C561 1.378 . S
C569 C564 1.350 . S
C570 H557 0.929 . S
C570 C562 1.433 . S
C570 N572 1.384 . S
N571 C567 1.427 . S
N571 C568 1.384 . S
N572 C564 1.427 . S
N572 C570 1.384 . S
H573 C579 0.930 . S
H574 C583 0.930 . S
H575 C588 0.929 . S
H576 C586 0.929 . S
H577 C581 0.929 . S
H578 C587 0.929 . S
C579 H573 0.930 . S
C579 C580 1.367 . S
C579 C587 1.378 . S
C580 C579 1.367 . S
C580 C588 1.433 . S
C581 H577 0.929 . S
C581 C583 1.378 . S
C581 C585 1.350 . S
C582 C585 1.463 . S
C582 C587 1.350 . S
C582 N590 1.427 . S
C583 H574 0.930 . S
C583 C581 1.378 . S
C583 C584 1.367 . S
C584 C583 1.367 . S
C584 C586 1.433 . S
C585 C581 1.350 . S
C585 C582 1.463 . S
C585 N589 1.427 . S
C586 H576 0.929 . S
C586 C584 1.433 . S
C586 N589 1.384 . S
C587 H578 0.929 . S
C587 C579 1.378 . S
C587 C582 1.350 . S
C588 H575 0.929 . S
C588 C580 1.433 . S
C588 N590 1.384 . S
N589 C585 1.427 . S
N589 C586 1.384 . S
N590 C582 1.427 . S
N590 C588 1.384 . S
H591 C597 0.930 . S
H592 C601 0.930 . S
H593 C606 0.929 . S
H594 C604 0.929 . S
H595 C599 0.929 . S
H596 C605 0.929 . S
C597 H591 0.930 . S
C597 C598 1.367 . S
C597 C605 1.378 . S
C598 C597 1.367 . S
C598 C606 1.433 . S
C599 H595 0.929 . S
C599 C601 1.378 . S
C599 C603 1.350 . S
C600 C603 1.463 . S
C600 C605 1.350 . S
C600 N608 1.427 . S
C601 H592 0.930 . S
C601 C599 1.378 . S
C601 C602 1.367 . S
C602 C601 1.367 . S
C602 C604 1.433 . S
C603 C599 1.350 . S
C603 C600 1.463 . S
C603 N607 1.427 . S
C604 H594 0.929 . S
C604 C602 1.433 . S
C604 N607 1.384 . S
C605 H596 0.929 . S
C605 C597 1.378 . S
C605 C600 1.350 . S
C606 H593 0.929 . S
C606 C598 1.433 . S
C606 N608 1.384 . S
N607 C603 1.427 . S
N607 C604 1.384 . S
N608 C600 1.427 . S
N608 C606 1.384 . S
H609 C615 0.930 . S
H610 C619 0.930 . S
H611 C624 0.929 . S
H612 C622 0.929 . S
H613 C617 0.929 . S
H614 C623 0.929 . S
C615 H609 0.930 . S
C615 C616 1.367 . S
C615 C623 1.378 . S
C616 C615 1.367 . S
C616 C624 1.433 . S
C617 H613 0.929 . S
C617 C619 1.378 . S
C617 C621 1.350 . S
C618 C621 1.463 . S
C618 C623 1.350 . S
C618 N626 1.427 . S
C619 H610 0.930 . S
C619 C617 1.378 . S
C619 C620 1.367 . S
C620 C619 1.367 . S
C620 C622 1.433 . S
C621 C617 1.350 . S
C621 C618 1.463 . S
C621 N625 1.427 . S
C622 H612 0.929 . S
C622 C620 1.433 . S
C622 N625 1.384 . S
C623 H614 0.929 . S
C623 C615 1.378 . S
C623 C618 1.350 . S
C624 H611 0.929 . S
C624 C616 1.433 . S
C624 N626 1.384 . S
N625 C621 1.427 . S
N625 C622 1.384 . S
N626 C618 1.427 . S
N626 C624 1.384 . S
H627 C633 0.930 . S
H628 C637 0.930 . S
H629 C642 0.929 . S
H630 C640 0.929 . S
H631 C635 0.929 . S
H632 C641 0.929 . S
C633 H627 0.930 . S
C633 C634 1.367 . S
C633 C641 1.378 . S
C634 C633 1.367 . S
C634 C642 1.433 . S
C635 H631 0.929 . S
C635 C637 1.378 . S
C635 C639 1.350 . S
C636 C639 1.463 . S
C636 C641 1.350 . S
C636 N644 1.427 . S
C637 H628 0.930 . S
C637 C635 1.378 . S
C637 C638 1.367 . S
C638 C637 1.367 . S
C638 C640 1.433 . S
C639 C635 1.350 . S
C639 C636 1.463 . S
C639 N643 1.427 . S
C640 H630 0.929 . S
C640 C638 1.433 . S
C640 N643 1.384 . S
C641 H632 0.929 . S
C641 C633 1.378 . S
C641 C636 1.350 . S
C642 H629 0.929 . S
C642 C634 1.433 . S
C642 N644 1.384 . S
N643 C639 1.427 . S
N643 C640 1.384 . S
N644 C636 1.427 . S
N644 C642 1.384 . S
H645 C651 0.930 . S
H646 C655 0.930 . S
H647 C660 0.929 . S
H648 C658 0.929 . S
H649 C653 0.929 . S
H650 C659 0.929 . S
C651 H645 0.930 . S
C651 C652 1.367 . S
C651 C659 1.378 . S
C652 C651 1.367 . S
C652 C660 1.433 . S
C653 H649 0.929 . S
C653 C655 1.378 . S
C653 C657 1.350 . S
C654 C657 1.463 . S
C654 C659 1.350 . S
C654 N662 1.427 . S
C655 H646 0.930 . S
C655 C653 1.378 . S
C655 C656 1.367 . S
C656 C655 1.367 . S
C656 C658 1.433 . S
C657 C653 1.350 . S
C657 C654 1.463 . S
C657 N661 1.427 . S
C658 H648 0.929 . S
C658 C656 1.433 . S
C658 N661 1.384 . S
C659 H650 0.929 . S
C659 C651 1.378 . S
C659 C654 1.350 . S
C660 H647 0.929 . S
C660 C652 1.433 . S
C660 N662 1.384 . S
N661 C657 1.427 . S
N661 C658 1.384 . S
N662 C654 1.427 . S
N662 C660 1.384 . S
H663 C669 0.930 . S
H664 C673 0.930 . S
H665 C678 0.929 . S
H666 C676 0.929 . S
H667 C671 0.929 . S
H668 C677 0.929 . S
C669 H663 0.930 . S
C669 C670 1.367 . S
C669 C677 1.378 . S
C670 C669 1.367 . S
C670 C678 1.433 . S
C671 H667 0.929 . S
C671 C673 1.378 . S
C671 C675 1.350 . S
C672 C675 1.463 . S
C672 C677 1.350 . S
C672 N680 1.427 . S
C673 H664 0.930 . S
C673 C671 1.378 . S
C673 C674 1.367 . S
C674 C673 1.367 . S
C674 C676 1.433 . S
C675 C671 1.350 . S
C675 C672 1.463 . S
C675 N679 1.427 . S
C676 H666 0.929 . S
C676 C674 1.433 . S
C676 N679 1.384 . S
C677 H668 0.929 . S
C677 C669 1.378 . S
C677 C672 1.350 . S
C678 H665 0.929 . S
C678 C670 1.433 . S
C678 N680 1.384 . S
N679 C675 1.427 . S
N679 C676 1.384 . S
N680 C672 1.427 . S
N680 C678 1.384 . S
H681 C687 0.930 . S
H682 C691 0.930 . S
H683 C696 0.929 . S
H684 C694 0.929 . S
H685 C689 0.929 . S
H686 C695 0.929 . S
C687 H681 0.930 . S
C687 C688 1.367 . S
C687 C695 1.378 . S
C688 C687 1.367 . S
C688 C696 1.433 . S
C689 H685 0.929 . S
C689 C691 1.378 . S
C689 C693 1.350 . S
C690 C693 1.463 . S
C690 C695 1.350 . S
C690 N698 1.427 . S
C691 H682 0.930 . S
C691 C689 1.378 . S
C691 C692 1.367 . S
C692 C691 1.367 . S
C692 C694 1.433 . S
C693 C689 1.350 . S
C693 C690 1.463 . S
C693 N697 1.427 . S
C694 H684 0.929 . S
C694 C692 1.433 . S
C694 N697 1.384 . S
C695 H686 0.929 . S
C695 C687 1.378 . S
C695 C690 1.350 . S
C696 H683 0.929 . S
C696 C688 1.433 . S
C696 N698 1.384 . S
N697 C693 1.427 . S
N697 C694 1.384 . S
N698 C690 1.427 . S
N698 C696 1.384 . S
H699 C705 0.930 . S
H700 C709 0.930 . S
H701 C714 0.929 . S
H702 C712 0.929 . S
H703 C707 0.929 . S
H704 C713 0.929 . S
C705 H699 0.930 . S
C705 C706 1.367 . S
C705 C713 1.378 . S
C706 C705 1.367 . S
C706 C714 1.433 . S
C707 H703 0.929 . S
C707 C709 1.378 . S
C707 C711 1.350 . S
C708 C711 1.463 . S
C708 C713 1.350 . S
C708 N716 1.427 . S
C709 H700 0.930 . S
C709 C707 1.378 . S
C709 C710 1.367 . S
C710 C709 1.367 . S
C710 C712 1.433 . S
C711 C707 1.350 . S
C711 C708 1.463 . S
C711 N715 1.427 . S
C712 H702 0.929 . S
C712 C710 1.433 . S
C712 N715 1.384 . S
C713 H704 0.929 . S
C713 C705 1.378 . S
C713 C708 1.350 . S
C714 H701 0.929 . S
C714 C706 1.433 . S
C714 N716 1.384 . S
N715 C711 1.427 . S
N715 C712 1.384 . S
N716 C708 1.427 . S
N716 C714 1.384 . S
H717 C723 0.930 . S
H718 C727 0.930 . S
H719 C732 0.929 . S
H720 C730 0.929 . S
H721 C725 0.929 . S
H722 C731 0.929 . S
C723 H717 0.930 . S
C723 C724 1.367 . S
C723 C731 1.378 . S
C724 C723 1.367 . S
C724 C732 1.433 . S
C725 H721 0.929 . S
C725 C727 1.378 . S
C725 C729 1.350 . S
C726 C729 1.463 . S
C726 C731 1.350 . S
C726 N734 1.427 . S
C727 H718 0.930 . S
C727 C725 1.378 . S
C727 C728 1.367 . S
C728 C727 1.367 . S
C728 C730 1.433 . S
C729 C725 1.350 . S
C729 C726 1.463 . S
C729 N733 1.427 . S
C730 H720 0.929 . S
C730 C728 1.433 . S
C730 N733 1.384 . S
C731 H722 0.929 . S
C731 C723 1.378 . S
C731 C726 1.350 . S
C732 H719 0.929 . S
C732 C724 1.433 . S
C732 N734 1.384 . S
N733 C729 1.427 . S
N733 C730 1.384 . S
N734 C726 1.427 . S
N734 C732 1.384 . S
H735 C741 0.930 . S
H736 C745 0.930 . S
H737 C750 0.929 . S
H738 C748 0.929 . S
H739 C743 0.929 . S
H740 C749 0.929 . S
C741 H735 0.930 . S
C741 C742 1.367 . S
C741 C749 1.378 . S
C742 C741 1.367 . S
C742 C750 1.433 . S
C743 H739 0.929 . S
C743 C745 1.378 . S
C743 C747 1.350 . S
C744 C747 1.463 . S
C744 C749 1.350 . S
C744 N752 1.427 . S
C745 H736 0.930 . S
C745 C743 1.378 . S
C745 C746 1.367 . S
C746 C745 1.367 . S
C746 C748 1.433 . S
C747 C743 1.350 . S
C747 C744 1.463 . S
C747 N751 1.427 . S
C748 H738 0.929 . S
C748 C746 1.433 . S
C748 N751 1.384 . S
C749 H740 0.929 . S
C749 C741 1.378 . S
C749 C744 1.350 . S
C750 H737 0.929 . S
C750 C742 1.433 . S
C750 N752 1.384 . S
N751 C747 1.427 . S
N751 C748 1.384 . S
N752 C744 1.427 . S
N752 C750 1.384 . S
H753 C759 0.930 . S
H754 C763 0.930 . S
H755 C768 0.929 . S
H756 C766 0.929 . S
H757 C761 0.929 . S
H758 C767 0.929 . S
C759 H753 0.930 . S
C759 C760 1.367 . S
C759 C767 1.378 . S
C760 C759 1.367 . S
C760 C768 1.433 . S
C761 H757 0.929 . S
C761 C763 1.378 . S
C761 C765 1.350 . S
C762 C765 1.463 . S
C762 C767 1.350 . S
C762 N770 1.427 . S
C763 H754 0.930 . S
C763 C761 1.378 . S
C763 C764 1.367 . S
C764 C763 1.367 . S
C764 C766 1.433 . S
C765 C761 1.350 . S
C765 C762 1.463 . S
C765 N769 1.427 . S
C766 H756 0.929 . S
C766 C764 1.433 . S
C766 N769 1.384 . S
C767 H758 0.929 . S
C767 C759 1.378 . S
C767 C762 1.350 . S
C768 H755 0.929 . S
C768 C760 1.433 . S
C768 N770 1.384 . S
N769 C765 1.427 . S
N769 C766 1.384 . S
N770 C762 1.427 . S
N770 C768 1.384 . S
H771 C777 0.930 . S
H772 C781 0.930 . S
H773 C786 0.929 . S
H774 C784 0.929 . S
H775 C779 0.929 . S
H776 C785 0.929 . S
C777 H771 0.930 . S
C777 C778 1.367 . S
C777 C785 1.378 . S
C778 C777 1.367 . S
C778 C786 1.433 . S
C779 H775 0.929 . S
C779 C781 1.378 . S
C779 C783 1.350 . S
C780 C783 1.463 . S
C780 C785 1.350 . S
C780 N788 1.427 . S
C781 H772 0.930 . S
C781 C779 1.378 . S
C781 C782 1.367 . S
C782 C781 1.367 . S
C782 C784 1.433 . S
C783 C779 1.350 . S
C783 C780 1.463 . S
C783 N787 1.427 . S
C784 H774 0.929 . S
C784 C782 1.433 . S
C784 N787 1.384 . S
C785 H776 0.929 . S
C785 C777 1.378 . S
C785 C780 1.350 . S
C786 H773 0.929 . S
C786 C778 1.433 . S
C786 N788 1.384 . S
N787 C783 1.427 . S
N787 C784 1.384 . S
N788 C780 1.427 . S
N788 C786 1.384 . S
H789 C795 0.930 . S
H790 C799 0.930 . S
H791 C804 0.929 . S
H792 C802 0.929 . S
H793 C797 0.929 . S
H794 C803 0.929 . S
C795 H789 0.930 . S
C795 C796 1.367 . S
C795 C803 1.378 . S
C796 C795 1.367 . S
C796 C804 1.433 . S
C797 H793 0.929 . S
C797 C799 1.378 . S
C797 C801 1.350 . S
C798 C801 1.463 . S
C798 C803 1.350 . S
C798 N806 1.427 . S
C799 H790 0.930 . S
C799 C797 1.378 . S
C799 C800 1.367 . S
C800 C799 1.367 . S
C800 C802 1.433 . S
C801 C797 1.350 . S
C801 C798 1.463 . S
C801 N805 1.427 . S
C802 H792 0.929 . S
C802 C800 1.433 . S
C802 N805 1.384 . S
C803 H794 0.929 . S
C803 C795 1.378 . S
C803 C798 1.350 . S
C804 H791 0.929 . S
C804 C796 1.433 . S
C804 N806 1.384 . S
N805 C801 1.427 . S
N805 C802 1.384 . S
N806 C798 1.427 . S
N806 C804 1.384 . S
H807 C813 0.930 . S
H808 C817 0.930 . S
H809 C822 0.929 . S
H810 C820 0.929 . S
H811 C815 0.929 . S
H812 C821 0.929 . S
C813 H807 0.930 . S
C813 C814 1.367 . S
C813 C821 1.378 . S
C814 C813 1.367 . S
C814 C822 1.433 . S
C815 H811 0.929 . S
C815 C817 1.378 . S
C815 C819 1.350 . S
C816 C819 1.463 . S
C816 C821 1.350 . S
C816 N824 1.427 . S
C817 H808 0.930 . S
C817 C815 1.378 . S
C817 C818 1.367 . S
C818 C817 1.367 . S
C818 C820 1.433 . S
C819 C815 1.350 . S
C819 C816 1.463 . S
C819 N823 1.427 . S
C820 H810 0.929 . S
C820 C818 1.433 . S
C820 N823 1.384 . S
C821 H812 0.929 . S
C821 C813 1.378 . S
C821 C816 1.350 . S
C822 H809 0.929 . S
C822 C814 1.433 . S
C822 N824 1.384 . S
N823 C819 1.427 . S
N823 C820 1.384 . S
N824 C816 1.427 . S
N824 C822 1.384 . S
H825 C831 0.930 . S
H826 C835 0.930 . S
H827 C840 0.929 . S
H828 C838 0.929 . S
H829 C833 0.929 . S
H830 C839 0.929 . S
C831 H825 0.930 . S
C831 C832 1.367 . S
C831 C839 1.378 . S
C832 C831 1.367 . S
C832 C840 1.433 . S
C833 H829 0.929 . S
C833 C835 1.378 . S
C833 C837 1.350 . S
C834 C837 1.463 . S
C834 C839 1.350 . S
C834 N842 1.427 . S
C835 H826 0.930 . S
C835 C833 1.378 . S
C835 C836 1.367 . S
C836 C835 1.367 . S
C836 C838 1.433 . S
C837 C833 1.350 . S
C837 C834 1.463 . S
C837 N841 1.427 . S
C838 H828 0.929 . S
C838 C836 1.433 . S
C838 N841 1.384 . S
C839 H830 0.929 . S
C839 C831 1.378 . S
C839 C834 1.350 . S
C840 H827 0.929 . S
C840 C832 1.433 . S
C840 N842 1.384 . S
N841 C837 1.427 . S
N841 C838 1.384 . S
N842 C834 1.427 . S
N842 C840 1.384 . S
C422 C336 1.077 . S
C418 C16 1.123 . S
C440 C372 1.670 . S
C436 C55 1.775 . S
C458 C337 1.405 . S
C454 C99 1.400 . S
C476 C367 1.523 . S
C472 C133 1.549 . S
C494 C334 1.502 . S
C490 C157 1.559 . S
C508 C211 1.688 . S
C512 C370 1.703 . S
C526 C255 1.180 . S
C530 C339 1.074 . S
C548 C369 1.460 . S
C544 C294 1.469 . S
C566 C373 1.452 . S
C562 C21 1.474 . S
C584 C338 1.511 . S
C580 C40 1.550 . S
C602 C366 1.702 . S
C598 C94 1.694 . S
C620 C335 1.069 . S
C616 C138 1.174 . S
C638 C368 1.689 . S
C634 C172 1.778 . S
C652 C216 1.403 . S
C656 C333 1.408 . S
C670 C235 1.561 . S
C674 C371 1.530 . S
C692 C340 1.093 . S
C688 C289 1.128 . S
C710 C402 1.683 . S
C706 C1 1.784 . S
C724 C177 2.033 . S
C728 C405 1.905 . S
C746 C404 1.695 . S
C742 C196 1.748 . S
C760 C250 2.063 . S
C764 C403 2.055 . S
C782 C406 1.675 . S
C778 C274 1.784 . S
C796 C79 1.742 . S
C800 C400 1.691 . S
C818 C399 2.061 . S
C814 C118 2.073 . S
C832 C60 2.019 . S
C836 C401 1.906 . S
